
  -OEChem-04052316123D

 91 99  0     1  0  0  0  0  0999 V2000
  -29.7154  -27.8470   18.0457 C   0  0  0  0  0  0  0  0  0  0  0  0
  -29.3859  -26.6914   17.3446 C   0  0  0  0  0  0  0  0  0  0  0  0
  -22.8022  -25.5916   18.9836 C   0  0  0  0  0  0  0  0  0  0  0  0
  -24.8313  -24.2811   18.9381 C   0  0  0  0  0  0  0  0  0  0  0  0
  -30.2717  -27.7527   19.3207 C   0  0  0  0  0  0  0  0  0  0  0  0
  -29.6134  -25.4408   17.9178 C   0  0  0  0  0  0  0  0  0  0  0  0
  -26.9040  -18.8122   18.1120 C   0  0  0  0  0  0  0  0  0  0  0  0
  -23.5590  -26.7611   19.0547 C   0  0  0  0  0  0  0  0  0  0  0  0
  -25.5882  -25.4506   19.0092 C   0  0  0  0  0  0  0  0  0  0  0  0
  -27.2905  -17.4850   17.9309 C   0  0  0  0  0  0  0  0  0  0  0  0
  -25.2588  -28.4880   21.4112 C   0  0  0  0  0  0  0  0  0  0  0  0
  -24.8665  -29.4578   22.3337 C   0  0  0  0  0  0  0  0  0  0  0  0
  -28.1831  -17.4454   20.1717 C   0  0  0  0  0  0  0  0  0  0  0  0
  -24.5603  -31.0433   20.5366 C   0  0  0  0  0  0  0  0  0  0  0  0
  -23.4383  -24.3516   18.9253 C   0  0  0  0  0  0  0  0  0  0  0  0
  -22.2090  -22.4894   17.6889 C   0  0  0  0  0  0  0  0  0  0  0  0
  -30.4972  -26.5005   19.9137 C   0  0  0  0  0  0  0  0  0  0  0  0
  -27.1644  -19.4705   19.3225 C   0  0  0  0  0  0  0  0  0  0  0  0
  -30.1745  -25.3296   19.2014 C   0  0  0  0  0  0  0  0  0  0  0  0
  -27.7966  -18.7802   20.3665 C   0  0  0  0  0  0  0  0  0  0  0  0
  -24.9520  -26.6906   19.0675 C   0  0  0  0  0  0  0  0  0  0  0  0
  -27.9327  -16.8022   18.9598 C   0  0  0  0  0  0  0  0  0  0  0  0
  -25.3020  -28.7958   20.0513 C   0  0  0  0  0  0  0  0  0  0  0  0
  -24.5172  -30.7355   21.8965 C   0  0  0  0  0  0  0  0  0  0  0  0
  -24.9527  -30.0735   19.6141 C   0  0  0  0  0  0  0  0  0  0  0  0
  -22.6570  -23.1431   18.8524 C   0  0  0  0  0  0  0  0  0  0  0  0
  -21.5158  -21.3984   18.1534 C   0  0  0  0  0  0  0  0  0  0  0  0
  -22.4022  -22.8372   16.3114 C   0  0  0  0  0  0  0  0  0  0  0  0
  -28.8805  -22.0076   20.1722 C   0  0  0  0  0  0  0  0  0  0  0  0
  -21.3405  -14.9693   20.2189 C   0  0  0  0  0  0  0  0  0  0  0  0
  -21.1631  -17.0352   21.6359 C   0  0  0  0  0  0  0  0  0  0  0  0
  -27.5161  -21.4746   23.0665 C   0  0  0  0  0  0  0  0  0  0  0  0
  -26.3494  -19.3346   25.7266 C   0  0  0  0  0  0  0  0  0  0  0  0
  -31.1444  -26.4479   21.2749 C   0  0  0  0  0  0  0  0  0  0  0  0
  -26.7172  -20.8941   19.5115 C   0  0  0  0  0  0  0  0  0  0  0  0
  -28.0811  -19.4354   21.6925 C   0  0  0  0  0  0  0  0  0  0  0  0
  -31.0068  -25.0921   21.9628 C   0  0  0  0  0  0  0  0  0  0  0  0
  -19.9761  -20.2047   22.8131 C   0  0  0  0  0  0  0  0  0  0  0  0
  -31.3460  -23.9646   20.9930 C   0  0  0  0  0  0  0  0  0  0  0  0
  -20.5560  -21.2005   21.8094 C   0  0  0  0  0  0  0  0  0  0  0  0
  -29.2359  -12.7780   18.4635 C   0  0  0  0  0  0  0  0  0  0  0  0
  -29.0373  -13.6404   20.7632 C   0  0  0  0  0  0  0  0  0  0  0  0
  -20.9319  -19.0421   23.0619 C   0  0  0  0  0  0  0  0  0  0  0  0
  -21.9311  -19.3174   20.8152 C   0  0  0  0  0  0  0  0  0  0  0  0
  -30.3833  -23.9553   19.7994 C   0  0  1  0  0  0  0  0  0  0  0  0
  -27.4931  -21.6242   20.6035 C   0  0  1  0  0  0  0  0  0  0  0  0
  -28.2749  -11.9212   19.2972 C   0  0  1  0  0  0  0  0  0  0  0  0
  -20.9840  -20.4919   20.5120 C   0  0  2  0  0  0  0  0  0  0  0  0
  -27.7680  -12.9242   20.3258 C   0  0  1  0  0  0  0  0  0  0  0  0
  -29.8481  -13.8042   19.4543 C   0  0  1  0  0  0  0  0  0  0  0  0
  -19.9996  -14.5240   19.6846 C   0  0  0  0  0  0  0  0  0  0  0  0
  -27.1785  -11.2794   18.4616 C   0  0  0  0  0  0  0  0  0  0  0  0
  -25.1899  -19.8937   27.8807 C   0  0  0  0  0  0  0  0  0  0  0  0
  -31.9274  -14.5490   20.6482 C   0  0  0  0  0  0  0  0  0  0  0  0
  -31.5112  -12.1039   20.2580 C   0  0  0  0  0  0  0  0  0  0  0  0
  -30.3685  -15.3588   17.5468 C   0  0  0  0  0  0  0  0  0  0  0  0
  -26.1552  -12.3099   23.7073 C   0  0  0  0  0  0  0  0  0  0  0  0
  -30.3288  -21.4558   24.2492 C   0  0  0  0  0  0  0  0  0  0  0  0
  -29.3828  -20.3802   26.3026 C   0  0  0  0  0  0  0  0  0  0  0  0
  -28.6250  -22.6593   25.6288 C   0  0  0  0  0  0  0  0  0  0  0  0
  -24.0934  -17.5182   25.1184 C   0  0  0  0  0  0  0  0  0  0  0  0
  -21.5954  -16.4571   20.3119 C   0  0  0  0  0  0  0  0  0  0  0  0
  -24.4678  -13.6790   21.5829 C   0  0  0  0  0  0  0  0  0  0  0  0
  -25.7900  -14.2430   22.1200 C   0  0  0  0  0  0  0  0  0  0  0  0
  -23.5101  -14.7769   21.1298 C   0  0  0  0  0  0  0  0  0  0  0  0
  -27.8744  -20.6552   24.2827 C   0  0  1  0  0  0  0  0  0  0  0  0
  -25.0152  -19.4231   26.4452 C   0  0  2  0  0  0  0  0  0  0  0  0
  -31.3330  -13.5122   19.7011 C   0  0  0  0  0  0  0  0  0  0  0  0
  -29.7031  -15.2152   18.9071 C   0  0  1  0  0  0  0  0  0  1  0  0
  -26.7641  -13.1610   22.6006 C   0  0  2  0  0  0  0  0  0  0  0  0
  -29.0493  -21.2756   25.0903 C   0  0  0  0  0  0  0  0  0  0  0  0
  -22.2800  -22.5196   19.9718 N   0  0  0  0  0  0  0  0  0  0  0  0
  -22.2647  -14.1817   20.6427 N   0  0  0  0  0  0  0  0  0  0  0  0
  -21.5877  -21.4627   19.5138 N   0  0  0  0  0  0  0  0  0  0  0  0
  -27.6302  -20.8305   21.8264 N   0  0  0  0  0  0  0  0  0  0  0  0
  -21.3323  -18.4097   21.8037 N   0  0  0  0  0  0  0  0  0  0  0  0
  -20.8578  -20.4001   17.5267 N   0  0  0  0  0  0  0  0  0  0  0  0
  -23.1394  -23.9906   16.0106 N   0  0  0  0  0  0  0  0  0  0  0  0
  -29.1151  -23.3693   20.1775 N   0  0  0  0  0  0  0  0  0  0  0  0
  -26.6415  -20.4980   25.0467 N   0  0  0  0  0  0  0  0  0  0  0  0
  -27.1184  -12.2557   21.4689 N   0  3  0  0  0  0  0  0  0  0  0  0
  -24.3483  -18.0904   26.4654 N   0  3  0  0  0  0  0  0  0  0  0  0
  -21.9210  -22.1547   15.3754 O   0  0  0  0  0  0  0  0  0  0  0  0
  -29.6794  -21.1326   19.8594 O   0  0  0  0  0  0  0  0  0  0  0  0
  -20.6867  -16.2865   22.4930 O   0  0  0  0  0  0  0  0  0  0  0  0
  -27.1418  -22.6410   23.2120 O   0  0  0  0  0  0  0  0  0  0  0  0
  -27.0631  -18.3348   25.7677 O   0  0  0  0  0  0  0  0  0  0  0  0
  -25.6909  -27.8316   19.1366 O   0  0  0  0  0  0  0  0  0  0  0  0
  -28.3116  -15.5069   18.7854 O   0  0  0  0  0  0  0  0  0  1  0  0
  -24.1390  -31.6663   22.7823 F   0  0  0  0  0  0  0  0  0  0  0  0
  -24.9910  -30.3748   18.3089 F   0  0  0  0  0  0  0  0  0  0  0  0
  1  2  1  0  0  0  0
  1  5  2  0  0  0  0
  2  6  2  0  0  0  0
  3  8  2  0  0  0  0
  3 15  1  0  0  0  0
  4  9  1  0  0  0  0
  4 15  2  0  0  0  0
  5 17  1  0  0  0  0
  6 19  1  0  0  0  0
  7 10  2  0  0  0  0
  7 18  1  0  0  0  0
  8 21  1  0  0  0  0
  9 21  2  0  0  0  0
 10 22  1  0  0  0  0
 11 12  2  0  0  0  0
 11 23  1  0  0  0  0
 12 24  1  0  0  0  0
 13 20  1  0  0  0  0
 13 22  2  0  0  0  0
 14 24  2  0  0  0  0
 14 25  1  0  0  0  0
 15 26  1  0  0  0  0
 16 26  1  0  0  0  0
 16 27  2  0  0  0  0
 16 28  1  0  0  0  0
 17 19  2  0  0  0  0
 17 34  1  0  0  0  0
 18 20  2  0  0  0  0
 18 35  1  0  0  0  0
 19 45  1  0  0  0  0
 20 36  1  0  0  0  0
 21 88  1  0  0  0  0
 22 89  1  0  0  0  0
 23 25  2  0  0  0  0
 23 88  1  0  0  0  0
 24 90  1  0  0  0  0
 25 91  1  0  0  0  0
 26 72  2  0  0  0  0
 27 74  1  0  0  0  0
 27 77  1  0  0  0  0
 28 78  1  0  0  0  0
 28 83  2  0  0  0  0
 29 46  1  0  0  0  0
 29 79  1  0  0  0  0
 29 84  2  0  0  0  0
 30 51  1  0  0  0  0
 30 62  1  0  0  0  0
 30 73  2  0  0  0  0
 31 62  1  0  0  0  0
 31 76  1  0  0  0  0
 31 85  2  0  0  0  0
 32 66  1  0  0  0  0
 32 75  1  0  0  0  0
 32 86  2  0  0  0  0
 33 67  1  0  0  0  0
 33 80  1  0  0  0  0
 33 87  2  0  0  0  0
 34 37  1  0  0  0  0
 35 46  1  0  0  0  0
 36 75  1  0  0  0  0
 37 39  1  0  0  0  0
 38 40  1  0  0  0  0
 38 43  1  0  0  0  0
 39 45  1  0  0  0  0
 40 48  1  0  0  0  0
 41 47  1  0  0  0  0
 41 50  1  0  0  0  0
 42 49  1  0  0  0  0
 42 50  1  0  0  0  0
 43 76  1  0  0  0  0
 44 48  1  0  0  0  0
 44 76  1  0  0  0  0
 45 79  1  0  0  0  0
 46 75  1  0  0  0  0
 47 49  1  0  0  0  0
 47 52  1  0  0  0  0
 48 74  1  0  0  0  0
 49 81  1  0  0  0  0
 50 68  1  0  0  0  0
 50 69  1  0  0  0  0
 53 67  1  0  0  0  0
 54 68  1  0  0  0  0
 55 68  1  0  0  0  0
 56 69  1  0  0  0  0
 57 70  1  0  0  0  0
 58 71  1  0  0  0  0
 59 71  1  0  0  0  0
 60 71  1  0  0  0  0
 61 82  1  0  0  0  0
 63 64  1  0  0  0  0
 63 65  1  0  0  0  0
 64 70  1  0  0  0  0
 65 73  1  0  0  0  0
 66 71  1  0  0  0  0
 66 80  1  0  0  0  0
 67 82  1  0  0  0  0
 69 89  1  0  0  0  0
 70 81  1  0  0  0  0
 72 74  1  0  0  0  0
M  CHG  2  81   1  82   1
M  ISO  4  31 100  62 100  69 101  89 101
M  END
> <Batch ID>
0021

> <Smiles>
C=C([100CH2:0][100C:0](=O)N1CCCC(n2nc(-c3ccc(Oc4ccc(F)cc4F)cc3)c(C(N)=O)c2N)C1)NCCCC(C)NC1CC(C(C)C)([101CH:1](C)[101O:1]c2ccc3c(c2)CN(C(=O)C(NC(=O)C(C)NC)C(C)(C)C)C(C(=O)NC2CCCc4ccccc42)C3)CC1C

> <Shape>
0.204

> <Color>
0.059

> <Negative vol penalty>
0.000

$$$$

  -OEChem-04052316123D

 84 92  0     1  0  0  0  0  0999 V2000
  -31.8442  -17.9412   16.6942 C   0  0  0  0  0  0  0  0  0  0  0  0
  -31.0977  -17.5771   17.8103 C   0  0  0  0  0  0  0  0  0  0  0  0
  -23.1911   -9.8186   19.9316 C   0  0  0  0  0  0  0  0  0  0  0  0
  -23.5686   -9.9995   22.3111 C   0  0  0  0  0  0  0  0  0  0  0  0
  -33.0148  -18.6820   16.8513 C   0  0  0  0  0  0  0  0  0  0  0  0
  -31.5220  -17.9528   19.0844 C   0  0  0  0  0  0  0  0  0  0  0  0
  -27.9812  -19.4504   23.8515 C   0  0  0  0  0  0  0  0  0  0  0  0
  -22.4253   -8.6716   20.1403 C   0  0  0  0  0  0  0  0  0  0  0  0
  -22.8027   -8.8526   22.5198 C   0  0  0  0  0  0  0  0  0  0  0  0
  -27.5471  -18.7268   24.9614 C   0  0  0  0  0  0  0  0  0  0  0  0
  -23.2054   -5.5060   22.2564 C   0  0  0  0  0  0  0  0  0  0  0  0
  -23.7039   -4.5451   23.1360 C   0  0  0  0  0  0  0  0  0  0  0  0
  -29.3656  -19.6374   26.2587 C   0  0  0  0  0  0  0  0  0  0  0  0
  -30.3897  -15.6698   26.4219 C   0  0  0  0  0  0  0  0  0  0  0  0
  -21.7468   -4.8044   24.5287 C   0  0  0  0  0  0  0  0  0  0  0  0
  -23.7629  -10.4825   21.0170 C   0  0  0  0  0  0  0  0  0  0  0  0
  -24.1005  -12.9993   20.7729 C   0  0  0  0  0  0  0  0  0  0  0  0
  -33.4486  -19.0752   18.1272 C   0  0  0  0  0  0  0  0  0  0  0  0
  -29.1191  -20.2658   23.9340 C   0  0  0  0  0  0  0  0  0  0  0  0
  -32.7003  -18.6985   19.2588 C   0  0  0  0  0  0  0  0  0  0  0  0
  -29.8106  -20.3723   25.1492 C   0  0  0  0  0  0  0  0  0  0  0  0
  -31.0296  -15.0417   25.3535 C   0  0  0  0  0  0  0  0  0  0  0  0
  -29.5659  -14.9325   27.2725 C   0  0  0  0  0  0  0  0  0  0  0  0
  -30.8458  -13.6763   25.1356 C   0  0  0  0  0  0  0  0  0  0  0  0
  -30.0220  -12.9390   25.9862 C   0  0  0  0  0  0  0  0  0  0  0  0
  -22.2311   -8.1886   21.4344 C   0  0  0  0  0  0  0  0  0  0  0  0
  -28.2410  -18.8180   26.1644 C   0  0  0  0  0  0  0  0  0  0  0  0
  -21.9776   -6.1163   22.5130 C   0  0  0  0  0  0  0  0  0  0  0  0
  -22.9746   -4.1942   24.2721 C   0  0  0  0  0  0  0  0  0  0  0  0
  -21.2483   -5.7655   23.6491 C   0  0  0  0  0  0  0  0  0  0  0  0
  -29.3821  -13.5671   27.0547 C   0  0  0  0  0  0  0  0  0  0  0  0
  -24.5545  -11.6670   20.8020 C   0  0  0  0  0  0  0  0  0  0  0  0
  -25.2315  -13.7424   20.5379 C   0  0  0  0  0  0  0  0  0  0  0  0
  -22.7750  -13.5186   20.9433 C   0  0  0  0  0  0  0  0  0  0  0  0
  -31.9545  -20.3121   22.4981 C   0  0  0  0  0  0  0  0  0  0  0  0
  -32.3032  -23.0903   24.1357 C   0  0  0  0  0  0  0  0  0  0  0  0
  -31.3997  -25.0115   26.8077 C   0  0  0  0  0  0  0  0  0  0  0  0
  -31.0464  -12.7552   21.5690 C   0  0  0  0  0  0  0  0  0  0  0  0
  -34.7456  -19.8349   18.2508 C   0  0  0  0  0  0  0  0  0  0  0  0
  -29.5588  -21.0606   22.7351 C   0  0  0  0  0  0  0  0  0  0  0  0
  -31.0262  -21.2494   25.2956 C   0  0  0  0  0  0  0  0  0  0  0  0
  -34.9271  -20.5139   19.6059 C   0  0  0  0  0  0  0  0  0  0  0  0
  -29.5196  -13.4714   18.4333 C   0  0  0  0  0  0  0  0  0  0  0  0
  -34.5810  -19.5501   20.7365 C   0  0  0  0  0  0  0  0  0  0  0  0
  -28.0330  -13.2104   18.6822 C   0  0  0  0  0  0  0  0  0  0  0  0
  -30.4011  -12.4825   19.1929 C   0  0  0  0  0  0  0  0  0  0  0  0
  -28.6472  -12.1392   20.8899 C   0  0  0  0  0  0  0  0  0  0  0  0
  -33.1148  -19.1083   20.6553 C   0  0  1  0  0  0  0  0  0  0  0  0
  -31.0301  -21.4601   22.7900 C   0  0  1  0  0  0  0  0  0  0  0  0
  -27.7195  -13.1465   20.1891 C   0  0  2  0  0  0  0  0  0  0  0  0
  -31.9060  -15.8539   24.4576 C   0  0  0  0  0  0  0  0  0  0  0  0
  -29.8382  -11.4738   25.7364 C   0  0  0  0  0  0  0  0  0  0  0  0
  -31.8840  -27.2175   27.9014 C   0  0  0  0  0  0  0  0  0  0  0  0
  -34.9186  -21.9680   25.2359 C   0  0  0  0  0  0  0  0  0  0  0  0
  -34.8612  -23.7480   26.9956 C   0  0  0  0  0  0  0  0  0  0  0  0
  -35.0100  -24.3817   24.5875 C   0  0  0  0  0  0  0  0  0  0  0  0
  -28.6083  -25.9300   26.4562 C   0  0  0  0  0  0  0  0  0  0  0  0
  -28.8949  -15.6541   28.4139 C   0  0  0  0  0  0  0  0  0  0  0  0
  -31.5357  -13.0070   23.9890 C   0  0  0  0  0  0  0  0  0  0  0  0
  -27.4101  -15.9375   28.1755 C   0  0  0  0  0  0  0  0  0  0  0  0
  -27.1553  -16.8742   27.0004 C   0  0  0  0  0  0  0  0  0  1  0  0
  -32.8345  -23.4695   25.4969 C   0  0  1  0  0  0  0  0  0  0  0  0
  -31.0038  -26.4734   26.9092 C   0  0  2  0  0  0  0  0  0  0  0  0
  -34.3843  -23.3737   25.5760 C   0  0  0  0  0  0  0  0  0  0  0  0
  -25.8712  -11.5665   20.6013 N   0  0  0  0  0  0  0  0  0  0  0  0
  -26.2542  -12.8450   20.4437 N   0  0  0  0  0  0  0  0  0  0  0  0
  -31.4205  -22.0019   24.0932 N   0  0  0  0  0  0  0  0  0  0  0  0
  -30.0542  -12.4715   20.6161 N   0  0  0  0  0  0  0  0  0  0  0  0
  -25.4408  -15.0693   20.4044 N   0  0  0  0  0  0  0  0  0  0  0  0
  -21.7287  -12.6160   21.1771 N   0  0  0  0  0  0  0  0  0  0  0  0
  -32.2445  -20.1503   21.1567 N   0  0  0  0  0  0  0  0  0  0  0  0
  -32.3023  -24.7964   25.7878 N   0  0  0  0  0  0  0  0  0  0  0  0
  -30.6317  -12.7299   22.8950 N   0  0  0  0  0  0  0  0  0  0  0  0
  -29.5867  -26.5967   27.3537 N   0  3  0  0  0  0  0  0  0  0  0  0
  -22.5233  -14.7455   20.8733 O   0  0  0  0  0  0  0  0  0  0  0  0
  -32.3747  -19.6249   23.4216 O   0  0  0  0  0  0  0  0  0  0  0  0
  -32.6529  -23.7406   23.1475 O   0  0  0  0  0  0  0  0  0  0  0  0
  -30.9557  -24.1473   27.5605 O   0  0  0  0  0  0  0  0  0  0  0  0
  -32.2139  -13.0173   21.2606 O   0  0  0  0  0  0  0  0  0  0  0  0
  -21.4836   -7.0696   21.6385 O   0  0  0  0  0  0  0  0  0  0  0  0
  -27.8198  -18.1124   27.2491 O   0  0  0  0  0  0  0  0  0  1  0  0
  -23.4528   -3.2703   25.1158 F   0  0  0  0  0  0  0  0  0  0  0  0
  -20.0676   -6.3474   23.9003 F   0  0  0  0  0  0  0  0  0  0  0  0
  -28.3575  -12.6548   28.1126 Cl  0  0  0  0  0  0  0  0  0  0  0  0
  1  2  1  0  0  0  0
  1  5  2  0  0  0  0
  2  6  2  0  0  0  0
  3  8  2  0  0  0  0
  3 16  1  0  0  0  0
  4  9  1  0  0  0  0
  4 16  2  0  0  0  0
  5 18  1  0  0  0  0
  6 20  1  0  0  0  0
  7 10  2  0  0  0  0
  7 19  1  0  0  0  0
  8 26  1  0  0  0  0
  9 26  2  0  0  0  0
 10 27  1  0  0  0  0
 11 12  2  0  0  0  0
 11 28  1  0  0  0  0
 12 29  1  0  0  0  0
 13 21  1  0  0  0  0
 13 27  2  0  0  0  0
 14 22  2  0  0  0  0
 14 23  1  0  0  0  0
 15 29  2  0  0  0  0
 15 30  1  0  0  0  0
 16 32  1  0  0  0  0
 17 32  1  0  0  0  0
 17 33  2  0  0  0  0
 17 34  1  0  0  0  0
 18 20  2  0  0  0  0
 18 39  1  0  0  0  0
 19 21  2  0  0  0  0
 19 40  1  0  0  0  0
 20 48  1  0  0  0  0
 21 41  1  0  0  0  0
 22 24  1  0  0  0  0
 22 51  1  0  0  0  0
 23 31  2  0  0  0  0
 23 58  1  0  0  0  0
 24 25  2  0  0  0  0
 24 59  1  0  0  0  0
 25 31  1  0  0  0  0
 25 52  1  0  0  0  0
 26 80  1  0  0  0  0
 27 81  1  0  0  0  0
 28 30  2  0  0  0  0
 28 80  1  0  0  0  0
 29 82  1  0  0  0  0
 30 83  1  0  0  0  0
 31 84  1  0  0  0  0
 32 65  2  0  0  0  0
 33 66  1  0  0  0  0
 33 69  1  0  0  0  0
 34 70  1  0  0  0  0
 34 75  2  0  0  0  0
 35 49  1  0  0  0  0
 35 71  1  0  0  0  0
 35 76  2  0  0  0  0
 36 62  1  0  0  0  0
 36 67  1  0  0  0  0
 36 77  2  0  0  0  0
 37 63  1  0  0  0  0
 37 72  1  0  0  0  0
 37 78  2  0  0  0  0
 38 68  1  0  0  0  0
 38 73  1  0  0  0  0
 38 79  2  0  0  0  0
 39 42  1  0  0  0  0
 40 49  1  0  0  0  0
 41 67  1  0  0  0  0
 42 44  1  0  0  0  0
 43 45  1  0  0  0  0
 43 46  1  0  0  0  0
 44 48  1  0  0  0  0
 45 50  1  0  0  0  0
 46 68  1  0  0  0  0
 47 50  1  0  0  0  0
 47 68  1  0  0  0  0
 48 71  1  0  0  0  0
 49 67  1  0  0  0  0
 50 66  1  0  0  0  0
 53 63  1  0  0  0  0
 54 64  1  0  0  0  0
 55 64  1  0  0  0  0
 56 64  1  0  0  0  0
 57 74  1  0  0  0  0
 58 60  1  0  0  0  0
 59 73  1  0  0  0  0
 60 61  1  0  0  0  0
 61 81  1  0  0  0  0
 62 64  1  0  0  0  0
 62 72  1  0  0  0  0
 63 74  1  0  0  0  0
 65 66  1  0  0  0  0
M  CHG  1  74   1
M  ISO  4  38 100  61 101  73 100  81 101
M  END
> <Batch ID>
0021

> <Smiles>
CNC(C)C(=O)NC(C(=O)N1Cc2cc([101O:1][101CH2:1]CCc3cc(C)c(C[100NH:0][100C:0](=O)N4CCCC(n5nc(-c6ccc(Oc7ccc(F)cc7F)cc6)c(C(N)=O)c5N)C4)c(C)c3Cl)ccc2CC1C(=O)NC1CCCc2ccccc21)C(C)(C)C

> <Shape>
0.147

> <Color>
0.190

> <Negative vol penalty>
0.000

$$$$

  -OEChem-04052316123D

 88 96  0     1  0  0  0  0  0999 V2000
  -19.5961   -8.9003   20.2690 C   0  0  0  0  0  0  0  0  0  0  0  0
  -19.6714  -10.1963   20.7690 C   0  0  0  0  0  0  0  0  0  0  0  0
  -23.1235  -29.3902   21.4832 C   0  0  0  0  0  0  0  0  0  0  0  0
  -24.2109  -27.6138   22.7075 C   0  0  0  0  0  0  0  0  0  0  0  0
  -20.7361   -8.0981   20.2401 C   0  0  0  0  0  0  0  0  0  0  0  0
  -20.8867  -10.6906   21.2414 C   0  0  0  0  0  0  0  0  0  0  0  0
  -22.9244  -16.4518   20.8380 C   0  0  0  0  0  0  0  0  0  0  0  0
  -22.0237  -29.3053   22.3368 C   0  0  0  0  0  0  0  0  0  0  0  0
  -23.1111  -27.5290   23.5612 C   0  0  0  0  0  0  0  0  0  0  0  0
  -22.9294  -17.5106   21.7450 C   0  0  0  0  0  0  0  0  0  0  0  0
  -18.7769  -29.3103   23.9746 C   0  0  0  0  0  0  0  0  0  0  0  0
  -17.5058  -29.3244   23.4005 C   0  0  0  0  0  0  0  0  0  0  0  0
  -25.1880  -16.9487   22.3792 C   0  0  0  0  0  0  0  0  0  0  0  0
  -28.0003  -23.7803   21.0504 C   0  0  0  0  0  0  0  0  0  0  0  0
  -18.0471  -27.3275   22.1529 C   0  0  0  0  0  0  0  0  0  0  0  0
  -24.2171  -28.5444   21.6684 C   0  0  0  0  0  0  0  0  0  0  0  0
  -26.4942  -29.4401   20.9472 C   0  0  0  0  0  0  0  0  0  0  0  0
  -21.9681   -8.5862   20.7035 C   0  0  0  0  0  0  0  0  0  0  0  0
  -24.0492  -15.6254   20.7024 C   0  0  0  0  0  0  0  0  0  0  0  0
  -22.0440   -9.8938   21.2199 C   0  0  0  0  0  0  0  0  0  0  0  0
  -25.1957  -15.8816   21.4679 C   0  0  0  0  0  0  0  0  0  0  0  0
  -27.3980  -22.5370   20.8583 C   0  0  0  0  0  0  0  0  0  0  0  0
  -27.4942  -21.8990   19.6217 C   0  0  0  0  0  0  0  0  0  0  0  0
  -28.7950  -23.7478   18.7691 C   0  0  0  0  0  0  0  0  0  0  0  0
  -22.0175  -28.3747   23.3759 C   0  0  0  0  0  0  0  0  0  0  0  0
  -24.0603  -17.7575   22.5178 C   0  0  0  0  0  0  0  0  0  0  0  0
  -19.6832  -28.3049   23.6378 C   0  0  0  0  0  0  0  0  0  0  0  0
  -17.1409  -28.3330   22.4897 C   0  0  0  0  0  0  0  0  0  0  0  0
  -19.3183  -27.3135   22.7270 C   0  0  0  0  0  0  0  0  0  0  0  0
  -28.6987  -24.3858   20.0057 C   0  0  0  0  0  0  0  0  0  0  0  0
  -28.1928  -22.5044   18.5770 C   0  0  0  0  0  0  0  0  0  0  0  0
  -25.3533  -28.6312   20.7866 C   0  0  0  0  0  0  0  0  0  0  0  0
  -27.2716  -29.1589   19.8503 C   0  0  0  0  0  0  0  0  0  0  0  0
  -26.8220  -30.3630   21.9942 C   0  0  0  0  0  0  0  0  0  0  0  0
  -24.6289  -12.5334   21.1577 C   0  0  0  0  0  0  0  0  0  0  0  0
  -24.4464  -21.5808   22.7781 C   0  0  0  0  0  0  0  0  0  0  0  0
  -27.5155  -13.2861   19.8836 C   0  0  0  0  0  0  0  0  0  0  0  0
  -28.6494  -24.6453   16.4627 C   0  0  0  0  0  0  0  0  0  0  0  0
  -29.8692  -15.6750   19.2514 C   0  0  0  0  0  0  0  0  0  0  0  0
  -23.1627   -7.6657   20.6959 C   0  0  0  0  0  0  0  0  0  0  0  0
  -24.0374  -14.5037   19.7003 C   0  0  0  0  0  0  0  0  0  0  0  0
  -26.4362  -15.0363   21.3456 C   0  0  0  0  0  0  0  0  0  0  0  0
  -24.4935   -8.3933   20.8688 C   0  0  0  0  0  0  0  0  0  0  0  0
  -26.4402  -27.2487   15.3759 C   0  0  0  0  0  0  0  0  0  0  0  0
  -24.4061   -9.4019   22.0098 C   0  0  0  0  0  0  0  0  0  0  0  0
  -26.0200  -27.9297   16.6778 C   0  0  0  0  0  0  0  0  0  0  0  0
  -26.6252  -25.7465   15.5660 C   0  0  0  0  0  0  0  0  0  0  0  0
  -27.1618  -26.0651   17.9602 C   0  0  0  0  0  0  0  0  0  0  0  0
  -23.3495  -10.4744   21.7185 C   0  0  1  0  0  0  0  0  0  0  0  0
  -25.0544  -13.4109   20.0147 C   0  0  1  0  0  0  0  0  0  0  0  0
  -26.9938  -27.5884   17.8195 C   0  0  2  0  0  0  0  0  0  0  0  0
  -26.8398  -20.5646   19.4383 C   0  0  0  0  0  0  0  0  0  0  0  0
  -22.9371  -21.6417   22.7576 C   0  0  0  0  0  0  0  0  0  0  0  0
  -32.1401  -15.9809   18.2283 C   0  0  0  0  0  0  0  0  0  0  0  0
  -30.7181  -23.5049   17.1768 C   0  0  0  0  0  0  0  0  0  0  0  0
  -30.1417  -25.8032   17.9638 C   0  0  0  0  0  0  0  0  0  0  0  0
  -28.7934  -12.0178   22.3470 C   0  0  0  0  0  0  0  0  0  0  0  0
  -30.9317  -13.1736   21.7468 C   0  0  0  0  0  0  0  0  0  0  0  0
  -29.9436  -11.4946   20.1889 C   0  0  0  0  0  0  0  0  0  0  0  0
  -28.8294  -17.5644   17.2245 C   0  0  0  0  0  0  0  0  0  0  0  0
  -26.6517  -21.9082   22.0016 C   0  0  0  0  0  0  0  0  0  0  0  0
  -25.1066  -20.8878   23.9578 C   0  0  0  0  0  0  0  0  0  0  0  0
  -25.3250  -19.4115   23.6670 C   0  0  0  0  0  0  0  0  0  1  0  0
  -28.8391  -13.7552   20.4377 C   0  0  1  0  0  0  0  0  0  0  0  0
  -30.6388  -16.0218   17.9896 C   0  0  2  0  0  0  0  0  0  0  0  0
  -29.5468  -24.4029   17.6501 C   0  0  0  0  0  0  0  0  0  0  0  0
  -29.6030  -12.6252   21.1840 C   0  0  0  0  0  0  0  0  0  0  0  0
  -25.3977  -27.8918   19.6751 N   0  0  0  0  0  0  0  0  0  0  0  0
  -25.2113  -22.0374   21.8444 N   0  0  0  0  0  0  0  0  0  0  0  0
  -26.5760  -28.2349   19.1274 N   0  0  0  0  0  0  0  0  0  0  0  0
  -26.3733  -13.9476   20.3565 N   0  0  0  0  0  0  0  0  0  0  0  0
  -27.5395  -25.4635   16.6738 N   0  0  0  0  0  0  0  0  0  0  0  0
  -28.4755  -29.6144   19.4433 N   0  0  0  0  0  0  0  0  0  0  0  0
  -25.9111  -30.5313   23.0460 N   0  0  0  0  0  0  0  0  0  0  0  0
  -23.8630  -11.4475   20.7785 N   0  0  0  0  0  0  0  0  0  0  0  0
  -29.5711  -14.3302   19.3144 N   0  0  0  0  0  0  0  0  0  0  0  0
  -30.2746  -17.3885   17.5200 N   0  3  0  0  0  0  0  0  0  0  0  0
  -27.8836  -31.0313   21.9887 O   0  0  0  0  0  0  0  0  0  0  0  0
  -24.9713  -12.8194   22.2990 O   0  0  0  0  0  0  0  0  0  0  0  0
  -27.4963  -12.3714   19.0562 O   0  0  0  0  0  0  0  0  0  0  0  0
  -28.9298  -24.1244   15.3800 O   0  0  0  0  0  0  0  0  0  0  0  0
  -29.5663  -16.5126   20.0983 O   0  0  0  0  0  0  0  0  0  0  0  0
  -20.9445  -28.2918   24.2092 O   0  0  0  0  0  0  0  0  0  0  0  0
  -24.0676  -18.7899   23.4043 O   0  0  0  0  0  0  0  0  0  1  0  0
  -15.9196  -28.3458   21.9396 F   0  0  0  0  0  0  0  0  0  0  0  0
  -20.1842  -26.3443   22.4005 F   0  0  0  0  0  0  0  0  0  0  0  0
  -29.4287  -25.9255   20.2877 Cl  0  0  0  0  0  0  0  0  0  0  0  0
  -28.3108  -21.7092   17.0412 Cl  0  0  0  0  0  0  0  0  0  0  0  0
  1  2  1  0  0  0  0
  1  5  2  0  0  0  0
  2  6  2  0  0  0  0
  3  8  2  0  0  0  0
  3 16  1  0  0  0  0
  4  9  1  0  0  0  0
  4 16  2  0  0  0  0
  5 18  1  0  0  0  0
  6 20  1  0  0  0  0
  7 10  2  0  0  0  0
  7 19  1  0  0  0  0
  8 25  1  0  0  0  0
  9 25  2  0  0  0  0
 10 26  1  0  0  0  0
 11 12  2  0  0  0  0
 11 27  1  0  0  0  0
 12 28  1  0  0  0  0
 13 21  1  0  0  0  0
 13 26  2  0  0  0  0
 14 22  1  0  0  0  0
 14 30  2  0  0  0  0
 15 28  2  0  0  0  0
 15 29  1  0  0  0  0
 16 32  1  0  0  0  0
 17 32  1  0  0  0  0
 17 33  2  0  0  0  0
 17 34  1  0  0  0  0
 18 20  2  0  0  0  0
 18 40  1  0  0  0  0
 19 21  2  0  0  0  0
 19 41  1  0  0  0  0
 20 49  1  0  0  0  0
 21 42  1  0  0  0  0
 22 23  2  0  0  0  0
 22 61  1  0  0  0  0
 23 31  1  0  0  0  0
 23 52  1  0  0  0  0
 24 30  1  0  0  0  0
 24 31  2  0  0  0  0
 24 66  1  0  0  0  0
 25 83  1  0  0  0  0
 26 84  1  0  0  0  0
 27 29  2  0  0  0  0
 27 83  1  0  0  0  0
 28 85  1  0  0  0  0
 29 86  1  0  0  0  0
 30 87  1  0  0  0  0
 31 88  1  0  0  0  0
 32 68  2  0  0  0  0
 33 70  1  0  0  0  0
 33 73  1  0  0  0  0
 34 74  1  0  0  0  0
 34 78  2  0  0  0  0
 35 50  1  0  0  0  0
 35 75  1  0  0  0  0
 35 79  2  0  0  0  0
 36 53  1  0  0  0  0
 36 62  1  0  0  0  0
 36 69  2  0  0  0  0
 37 64  1  0  0  0  0
 37 71  1  0  0  0  0
 37 80  2  0  0  0  0
 38 66  1  0  0  0  0
 38 72  1  0  0  0  0
 38 81  2  0  0  0  0
 39 65  1  0  0  0  0
 39 76  1  0  0  0  0
 39 82  2  0  0  0  0
 40 43  1  0  0  0  0
 41 50  1  0  0  0  0
 42 71  1  0  0  0  0
 43 45  1  0  0  0  0
 44 46  1  0  0  0  0
 44 47  1  0  0  0  0
 45 49  1  0  0  0  0
 46 51  1  0  0  0  0
 47 72  1  0  0  0  0
 48 51  1  0  0  0  0
 48 72  1  0  0  0  0
 49 75  1  0  0  0  0
 50 71  1  0  0  0  0
 51 70  1  0  0  0  0
 54 65  1  0  0  0  0
 55 66  1  0  0  0  0
 56 66  1  0  0  0  0
 57 67  1  0  0  0  0
 58 67  1  0  0  0  0
 59 67  1  0  0  0  0
 60 77  1  0  0  0  0
 61 69  1  0  0  0  0
 62 63  1  0  0  0  0
 63 84  1  0  0  0  0
 64 67  1  0  0  0  0
 64 76  1  0  0  0  0
 65 77  1  0  0  0  0
 68 70  1  0  0  0  0
M  CHG  1  77   1
M  ISO  4  38 100  63 101  66 100  84 101
M  END
> <Batch ID>
0021

> <Smiles>
C=C(C[101CH2:1][101O:1]c1ccc2c(c1)CN(C(=O)C(NC(=O)C(C)NC)C(C)(C)C)C(C(=O)NC1CCCc3ccccc31)C2)NCc1cc(Cl)c([100C:0](C)(C)[100C:0](=O)N2CCCC(n3nc(-c4ccc(Oc5ccc(F)cc5F)cc4)c(C(N)=O)c3N)C2)c(Cl)c1C

> <Shape>
0.300

> <Color>
0.044

> <Negative vol penalty>
0.000

$$$$

  -OEChem-04052316123D

 88 96  0     1  0  0  0  0  0999 V2000
  -22.7236   -7.8798   20.5611 C   0  0  0  0  0  0  0  0  0  0  0  0
  -22.0164   -8.9505   20.0237 C   0  0  0  0  0  0  0  0  0  0  0  0
  -29.4998  -27.3273   21.0829 C   0  0  0  0  0  0  0  0  0  0  0  0
  -27.8718  -25.5458   20.9696 C   0  0  0  0  0  0  0  0  0  0  0  0
  -23.6303   -8.0951   21.5981 C   0  0  0  0  0  0  0  0  0  0  0  0
  -22.2147  -10.2370   20.5238 C   0  0  0  0  0  0  0  0  0  0  0  0
  -22.2738  -17.0900   18.4381 C   0  0  0  0  0  0  0  0  0  0  0  0
  -30.4285  -26.4437   21.6328 C   0  0  0  0  0  0  0  0  0  0  0  0
  -28.8005  -24.6621   21.5194 C   0  0  0  0  0  0  0  0  0  0  0  0
  -21.7169  -18.3230   18.7745 C   0  0  0  0  0  0  0  0  0  0  0  0
  -30.0424  -23.9389   24.5797 C   0  0  0  0  0  0  0  0  0  0  0  0
  -29.6060  -23.0903   25.5970 C   0  0  0  0  0  0  0  0  0  0  0  0
  -23.3671  -18.5871   20.5141 C   0  0  0  0  0  0  0  0  0  0  0  0
  -19.2846  -24.8152   22.0519 C   0  0  0  0  0  0  0  0  0  0  0  0
  -30.1874  -21.1729   24.2469 C   0  0  0  0  0  0  0  0  0  0  0  0
  -28.2214  -26.8784   20.7514 C   0  0  0  0  0  0  0  0  0  0  0  0
  -27.0545  -28.0667   18.8191 C   0  0  0  0  0  0  0  0  0  0  0  0
  -23.8470   -9.3862   22.1047 C   0  0  0  0  0  0  0  0  0  0  0  0
  -23.3767  -16.5904   19.1455 C   0  0  0  0  0  0  0  0  0  0  0  0
  -23.1241  -10.4695   21.5695 C   0  0  0  0  0  0  0  0  0  0  0  0
  -23.9378  -17.3486   20.1830 C   0  0  0  0  0  0  0  0  0  0  0  0
  -19.3672  -26.1847   21.8003 C   0  0  0  0  0  0  0  0  0  0  0  0
  -20.1188  -26.5557   24.0663 C   0  0  0  0  0  0  0  0  0  0  0  0
  -19.7843  -27.0549   22.8074 C   0  0  0  0  0  0  0  0  0  0  0  0
  -20.0361  -25.1862   24.3179 C   0  0  0  0  0  0  0  0  0  0  0  0
  -19.6189  -24.3160   23.3108 C   0  0  0  0  0  0  0  0  0  0  0  0
  -30.0789  -25.1111   21.8510 C   0  0  0  0  0  0  0  0  0  0  0  0
  -22.2617  -19.0705   19.8145 C   0  0  0  0  0  0  0  0  0  0  0  0
  -30.5513  -23.4046   23.3960 C   0  0  0  0  0  0  0  0  0  0  0  0
  -29.6785  -21.7073   25.4306 C   0  0  0  0  0  0  0  0  0  0  0  0
  -30.6238  -22.0216   23.2296 C   0  0  0  0  0  0  0  0  0  0  0  0
  -27.2615  -27.7909   20.1840 C   0  0  0  0  0  0  0  0  0  0  0  0
  -26.0405  -28.9930   18.8059 C   0  0  0  0  0  0  0  0  0  0  0  0
  -27.7192  -27.5331   17.6662 C   0  0  0  0  0  0  0  0  0  0  0  0
  -23.9134  -14.0245   20.9433 C   0  0  0  0  0  0  0  0  0  0  0  0
  -26.9633  -15.1288   20.9225 C   0  0  0  0  0  0  0  0  0  0  0  0
  -29.0824  -17.7797   20.5636 C   0  0  0  0  0  0  0  0  0  0  0  0
  -21.6322  -30.2679   22.6520 C   0  0  0  0  0  0  0  0  0  0  0  0
  -24.8024   -9.5626   23.2582 C   0  0  0  0  0  0  0  0  0  0  0  0
  -23.9824  -15.2708   18.7529 C   0  0  0  0  0  0  0  0  0  0  0  0
  -25.1343  -16.8662   20.9602 C   0  0  0  0  0  0  0  0  0  0  0  0
  -25.2306  -11.0112   23.4784 C   0  0  0  0  0  0  0  0  0  0  0  0
  -24.1348  -32.4964   21.4489 C   0  0  0  0  0  0  0  0  0  0  0  0
  -24.0198  -11.9380   23.4368 C   0  0  0  0  0  0  0  0  0  0  0  0
  -25.2012  -31.5680   20.8651 C   0  0  0  0  0  0  0  0  0  0  0  0
  -23.4932  -31.9021   22.7008 C   0  0  0  0  0  0  0  0  0  0  0  0
  -24.0138  -29.6141   21.9473 C   0  0  0  0  0  0  0  0  0  0  0  0
  -23.3299  -11.8833   22.0684 C   0  0  1  0  0  0  0  0  0  0  0  0
  -24.7858  -14.6240   19.8770 C   0  0  1  0  0  0  0  0  0  0  0  0
  -24.6501  -30.1454   20.6515 C   0  0  2  0  0  0  0  0  0  0  0  0
  -19.0045  -26.6935   20.4435 C   0  0  0  0  0  0  0  0  0  0  0  0
  -20.5658  -27.4897   25.1465 C   0  0  0  0  0  0  0  0  0  0  0  0
  -20.3982  -24.6512   25.6681 C   0  0  0  0  0  0  0  0  0  0  0  0
  -15.9476  -21.5601   23.4433 C   0  0  0  0  0  0  0  0  0  0  0  0
  -31.5182  -18.3788   20.6387 C   0  0  0  0  0  0  0  0  0  0  0  0
  -26.8994  -14.9966   23.9702 C   0  0  0  0  0  0  0  0  0  0  0  0
  -28.9285  -16.4628   24.0068 C   0  0  0  0  0  0  0  0  0  0  0  0
  -29.0373  -14.2121   22.9366 C   0  0  0  0  0  0  0  0  0  0  0  0
  -29.0693  -18.6710   17.7415 C   0  0  0  0  0  0  0  0  0  0  0  0
  -19.8707  -28.5235   22.5353 C   0  0  0  0  0  0  0  0  0  0  0  0
  -17.2584  -22.1400   22.9314 C   0  0  0  0  0  0  0  0  0  0  0  0
  -20.6387  -21.5791   21.8445 C   0  0  0  0  0  0  0  0  0  0  0  0
  -18.2792  -22.3587   24.0417 C   0  0  0  0  0  0  0  0  0  0  0  0
  -20.6445  -22.0558   23.2919 C   0  0  0  0  0  0  0  0  0  0  0  0
  -21.8228  -20.6799   21.5095 C   0  0  0  0  0  0  0  0  0  1  0  0
  -27.7653  -16.0706   21.7878 C   0  0  1  0  0  0  0  0  0  0  0  0
  -30.3568  -17.9485   19.7562 C   0  0  2  0  0  0  0  0  0  0  0  0
  -28.1339  -15.4440   23.1621 C   0  0  0  0  0  0  0  0  0  0  0  0
  -26.4448  -28.4860   20.9801 N   0  0  0  0  0  0  0  0  0  0  0  0
  -25.7147  -29.2077   20.1128 N   0  0  0  0  0  0  0  0  0  0  0  0
  -25.6868  -15.5670   20.5427 N   0  0  0  0  0  0  0  0  0  0  0  0
  -22.9895  -30.5534   22.4304 N   0  0  0  0  0  0  0  0  0  0  0  0
  -25.4047  -29.6368   17.8040 N   0  0  0  0  0  0  0  0  0  0  0  0
  -28.7383  -26.5905   17.8592 N   0  0  0  0  0  0  0  0  0  0  0  0
  -24.0704  -12.6603   21.0976 N   0  0  0  0  0  0  0  0  0  0  0  0
  -28.9160  -16.4788   20.9892 N   0  0  0  0  0  0  0  0  0  0  0  0
  -21.2362  -28.9674   22.3644 N   0  0  0  0  0  0  0  0  0  0  0  0
  -19.5293  -22.9361   23.5442 N   0  0  3  0  0  0  0  0  0  0  0  0
  -30.1656  -18.9780   18.6958 N   0  3  0  0  0  0  0  0  0  0  0  0
  -27.4296  -27.8941   16.5003 O   0  0  0  0  0  0  0  0  0  0  0  0
  -23.1549  -14.7464   21.5800 O   0  0  0  0  0  0  0  0  0  0  0  0
  -27.4544  -14.0472   20.5897 O   0  0  0  0  0  0  0  0  0  0  0  0
  -28.3135  -18.7098   20.7968 O   0  0  0  0  0  0  0  0  0  0  0  0
  -20.8313  -31.1111   23.0698 O   0  0  0  0  0  0  0  0  0  0  0  0
  -30.9849  -24.2485   22.3872 O   0  0  0  0  0  0  0  0  0  0  0  0
  -21.7196  -20.2740   20.1453 O   0  0  0  0  0  0  0  0  0  1  0  0
  -29.2608  -20.8924   26.4082 F   0  0  0  0  0  0  0  0  0  0  0  0
  -31.1129  -21.5024   22.0951 F   0  0  0  0  0  0  0  0  0  0  0  0
  1  2  1  0  0  0  0
  1  5  2  0  0  0  0
  2  6  2  0  0  0  0
  3  8  2  0  0  0  0
  3 16  1  0  0  0  0
  4  9  1  0  0  0  0
  4 16  2  0  0  0  0
  5 18  1  0  0  0  0
  6 20  1  0  0  0  0
  7 10  2  0  0  0  0
  7 19  1  0  0  0  0
  8 27  1  0  0  0  0
  9 27  2  0  0  0  0
 10 28  1  0  0  0  0
 11 12  2  0  0  0  0
 11 29  1  0  0  0  0
 12 30  1  0  0  0  0
 13 21  1  0  0  0  0
 13 28  2  0  0  0  0
 14 22  2  0  0  0  0
 14 26  1  0  0  0  0
 15 30  2  0  0  0  0
 15 31  1  0  0  0  0
 16 32  1  0  0  0  0
 17 32  1  0  0  0  0
 17 33  2  0  0  0  0
 17 34  1  0  0  0  0
 18 20  2  0  0  0  0
 18 39  1  0  0  0  0
 19 21  2  0  0  0  0
 19 40  1  0  0  0  0
 20 48  1  0  0  0  0
 21 41  1  0  0  0  0
 22 24  1  0  0  0  0
 22 51  1  0  0  0  0
 23 24  2  0  0  0  0
 23 25  1  0  0  0  0
 23 52  1  0  0  0  0
 24 60  1  0  0  0  0
 25 26  2  0  0  0  0
 25 53  1  0  0  0  0
 26 78  1  0  0  0  0
 27 85  1  0  0  0  0
 28 86  1  0  0  0  0
 29 31  2  0  0  0  0
 29 85  1  0  0  0  0
 30 87  1  0  0  0  0
 31 88  1  0  0  0  0
 32 69  2  0  0  0  0
 33 70  1  0  0  0  0
 33 73  1  0  0  0  0
 34 74  1  0  0  0  0
 34 80  2  0  0  0  0
 35 49  1  0  0  0  0
 35 75  1  0  0  0  0
 35 81  2  0  0  0  0
 36 66  1  0  0  0  0
 36 71  1  0  0  0  0
 36 82  2  0  0  0  0
 37 67  1  0  0  0  0
 37 76  1  0  0  0  0
 37 83  2  0  0  0  0
 38 72  1  0  0  0  0
 38 77  1  0  0  0  0
 38 84  2  0  0  0  0
 39 42  1  0  0  0  0
 40 49  1  0  0  0  0
 41 71  1  0  0  0  0
 42 44  1  0  0  0  0
 43 45  1  0  0  0  0
 43 46  1  0  0  0  0
 44 48  1  0  0  0  0
 45 50  1  0  0  0  0
 46 72  1  0  0  0  0
 47 50  1  0  0  0  0
 47 72  1  0  0  0  0
 48 75  1  0  0  0  0
 49 71  1  0  0  0  0
 50 70  1  0  0  0  0
 54 61  1  0  0  0  0
 55 67  1  0  0  0  0
 56 68  1  0  0  0  0
 57 68  1  0  0  0  0
 58 68  1  0  0  0  0
 59 79  1  0  0  0  0
 60 77  1  0  0  0  0
 61 63  1  0  0  0  0
 62 64  1  0  0  0  0
 62 65  1  0  0  0  0
 63 78  1  0  0  0  0
 64 78  1  0  0  0  0
 65 86  1  0  0  0  0
 66 68  1  0  0  0  0
 66 76  1  0  0  0  0
 67 79  1  0  0  0  0
 69 70  1  0  0  0  0
M  CHG  1  79   1
M  ISO  4  38 100  65 101  77 100  86 101
M  END
> <Batch ID>
0021

> <Smiles>
CCCN(CC[101CH2:1][101O:1]c1ccc2c(c1)CN(C(=O)C(NC(=O)C(C)NC)C(C)(C)C)C(C(=O)NC1CCCc3ccccc31)C2)c1cc(C)c(C[100NH:0][100C:0](=O)N2CCCC(n3nc(-c4ccc(Oc5ccc(F)cc5F)cc4)c(C(N)=O)c3N)C2)c(C)c1C

> <Shape>
0.235

> <Color>
0.055

> <Negative vol penalty>
0.000

$$$$

  -OEChem-04052316123D

 82 90  0     1  0  0  0  0  0999 V2000
  -27.0965  -17.0956   28.8329 C   0  0  0  0  0  0  0  0  0  0  0  0
  -27.6570  -17.6560   27.6896 C   0  0  0  0  0  0  0  0  0  0  0  0
  -19.2617  -28.6411   22.0047 C   0  0  0  0  0  0  0  0  0  0  0  0
  -20.4855  -26.9906   23.2755 C   0  0  0  0  0  0  0  0  0  0  0  0
  -26.8799  -15.7199   28.8993 C   0  0  0  0  0  0  0  0  0  0  0  0
  -28.0023  -16.8408   26.6123 C   0  0  0  0  0  0  0  0  0  0  0  0
  -26.5485  -18.7785   22.1652 C   0  0  0  0  0  0  0  0  0  0  0  0
  -18.1748  -27.7709   21.9213 C   0  0  0  0  0  0  0  0  0  0  0  0
  -19.3986  -26.1203   23.1921 C   0  0  0  0  0  0  0  0  0  0  0  0
  -27.3293  -19.8026   21.6311 C   0  0  0  0  0  0  0  0  0  0  0  0
  -15.6333  -26.7618   23.9101 C   0  0  0  0  0  0  0  0  0  0  0  0
  -14.3637  -27.2850   24.1549 C   0  0  0  0  0  0  0  0  0  0  0  0
  -28.4028  -18.2131   20.1681 C   0  0  0  0  0  0  0  0  0  0  0  0
  -29.4194  -26.5123   20.1539 C   0  0  0  0  0  0  0  0  0  0  0  0
  -28.4940  -25.9481   22.3132 C   0  0  0  0  0  0  0  0  0  0  0  0
  -13.6714  -26.6465   21.9300 C   0  0  0  0  0  0  0  0  0  0  0  0
  -20.4171  -28.2509   22.6818 C   0  0  0  0  0  0  0  0  0  0  0  0
  -21.7893  -30.1054   23.7706 C   0  0  0  0  0  0  0  0  0  0  0  0
  -27.2139  -14.8886   27.8186 C   0  0  0  0  0  0  0  0  0  0  0  0
  -26.6969  -17.4599   21.7116 C   0  0  0  0  0  0  0  0  0  0  0  0
  -27.7913  -15.4525   26.6648 C   0  0  0  0  0  0  0  0  0  0  0  0
  -27.6208  -17.1745   20.6962 C   0  0  0  0  0  0  0  0  0  0  0  0
  -30.2631  -25.4038   20.2259 C   0  0  0  0  0  0  0  0  0  0  0  0
  -29.3376  -24.8397   22.3851 C   0  0  0  0  0  0  0  0  0  0  0  0
  -30.2222  -24.5675   21.3415 C   0  0  0  0  0  0  0  0  0  0  0  0
  -28.5349  -26.7845   21.1976 C   0  0  0  0  0  0  0  0  0  0  0  0
  -18.2432  -26.5105   22.5150 C   0  0  0  0  0  0  0  0  0  0  0  0
  -28.2587  -19.5196   20.6345 C   0  0  0  0  0  0  0  0  0  0  0  0
  -15.9220  -26.1810   22.6752 C   0  0  0  0  0  0  0  0  0  0  0  0
  -13.3828  -27.2273   23.1649 C   0  0  0  0  0  0  0  0  0  0  0  0
  -14.9411  -26.1233   21.6852 C   0  0  0  0  0  0  0  0  0  0  0  0
  -21.5404  -29.1491   22.7679 C   0  0  0  0  0  0  0  0  0  0  0  0
  -22.9727  -30.6943   23.3973 C   0  0  0  0  0  0  0  0  0  0  0  0
  -21.0197  -30.4321   24.9354 C   0  0  0  0  0  0  0  0  0  0  0  0
  -27.5602  -14.7103   23.0525 C   0  0  0  0  0  0  0  0  0  0  0  0
  -26.7403  -13.4913   20.1605 C   0  0  0  0  0  0  0  0  0  0  0  0
  -26.2884  -14.0145   16.8185 C   0  0  0  0  0  0  0  0  0  0  0  0
  -27.5899  -28.8396   20.0887 C   0  0  0  0  0  0  0  0  0  0  0  0
  -27.0049  -13.4012   27.9552 C   0  0  0  0  0  0  0  0  0  0  0  0
  -25.8282  -16.3710   22.2791 C   0  0  0  0  0  0  0  0  0  0  0  0
  -27.8043  -15.7789   20.1603 C   0  0  0  0  0  0  0  0  0  0  0  0
  -27.0525  -12.6547   26.6245 C   0  0  0  0  0  0  0  0  0  0  0  0
  -25.5824  -31.7240   19.5162 C   0  0  0  0  0  0  0  0  0  0  0  0
  -28.2518  -13.1105   25.7993 C   0  0  0  0  0  0  0  0  0  0  0  0
  -24.3434  -31.4809   20.3810 C   0  0  0  0  0  0  0  0  0  0  0  0
  -26.1014  -30.4297   18.8923 C   0  0  0  0  0  0  0  0  0  0  0  0
  -25.1062  -29.0937   20.7072 C   0  0  0  0  0  0  0  0  0  0  0  0
  -28.1563  -14.6043   25.4659 C   0  0  1  0  0  0  0  0  0  0  0  0
  -26.4256  -14.9781   22.1046 C   0  0  1  0  0  0  0  0  0  0  0  0
  -24.5853  -30.3584   21.4092 C   0  0  2  0  0  0  0  0  0  0  0  0
  -31.2015  -25.1348   19.0953 C   0  0  0  0  0  0  0  0  0  0  0  0
  -29.2741  -23.9600   23.5906 C   0  0  0  0  0  0  0  0  0  0  0  0
  -25.6523  -12.8191   14.7057 C   0  0  0  0  0  0  0  0  0  0  0  0
  -29.5057  -12.2061   20.0579 C   0  0  0  0  0  0  0  0  0  0  0  0
  -29.1737  -11.8523   17.6018 C   0  0  0  0  0  0  0  0  0  0  0  0
  -27.6469  -10.7484   19.2368 C   0  0  0  0  0  0  0  0  0  0  0  0
  -23.9286  -15.7529   16.4080 C   0  0  0  0  0  0  0  0  0  0  0  0
  -31.1339  -23.3690   21.4189 C   0  0  0  0  0  0  0  0  0  0  0  0
  -30.6819  -22.1941   20.5489 C   0  0  0  0  0  0  0  0  0  0  0  0
  -29.3382  -21.6117   20.9715 C   0  0  0  0  0  0  0  0  0  1  0  0
  -27.4663  -13.2420   18.8606 C   0  0  1  0  0  0  0  0  0  0  0  0
  -25.1519  -13.6390   15.8847 C   0  0  2  0  0  0  0  0  0  0  0  0
  -28.4463  -12.0383   18.9505 C   0  0  0  0  0  0  0  0  0  0  0  0
  -22.4893  -29.1285   21.8282 N   0  0  0  0  0  0  0  0  0  0  0  0
  -23.3460  -30.0791   22.2387 N   0  0  0  0  0  0  0  0  0  0  0  0
  -26.9360  -14.7475   20.7517 N   0  0  0  0  0  0  0  0  0  0  0  0
  -26.3114  -29.4139   19.9263 N   0  0  0  0  0  0  0  0  0  0  0  0
  -23.7199  -31.6731   23.9504 N   0  0  0  0  0  0  0  0  0  0  0  0
  -19.8293  -29.7299   25.1683 N   0  0  0  0  0  0  0  0  0  0  0  0
  -27.6769  -27.9098   21.1243 N   0  0  0  0  0  0  0  0  0  0  0  0
  -27.2173  -14.8222   24.3865 N   0  0  0  0  0  0  0  0  0  0  0  0
  -26.4355  -13.0982   17.8383 N   0  0  0  0  0  0  0  0  0  0  0  0
  -24.4886  -14.8647   15.3570 N   0  3  0  0  0  0  0  0  0  0  0  0
  -21.3686  -31.3318   25.7368 O   0  0  0  0  0  0  0  0  0  0  0  0
  -28.6647  -14.4219   22.6068 O   0  0  0  0  0  0  0  0  0  0  0  0
  -26.0202  -12.6067   20.6302 O   0  0  0  0  0  0  0  0  0  0  0  0
  -26.9792  -15.0182   16.6570 O   0  0  0  0  0  0  0  0  0  0  0  0
  -28.5444  -29.1699   19.3803 O   0  0  0  0  0  0  0  0  0  0  0  0
  -17.1827  -25.6612   22.4339 O   0  0  0  0  0  0  0  0  0  0  0  0
  -29.0225  -20.5172   20.1119 O   0  0  0  0  0  0  0  0  0  1  0  0
  -12.1631  -27.7285   23.4007 F   0  0  0  0  0  0  0  0  0  0  0  0
  -15.2122  -25.5654   20.4973 F   0  0  0  0  0  0  0  0  0  0  0  0
  1  2  1  0  0  0  0
  1  5  2  0  0  0  0
  2  6  2  0  0  0  0
  3  8  2  0  0  0  0
  3 17  1  0  0  0  0
  4  9  1  0  0  0  0
  4 17  2  0  0  0  0
  5 19  1  0  0  0  0
  6 21  1  0  0  0  0
  7 10  2  0  0  0  0
  7 20  1  0  0  0  0
  8 27  1  0  0  0  0
  9 27  2  0  0  0  0
 10 28  1  0  0  0  0
 11 12  2  0  0  0  0
 11 29  1  0  0  0  0
 12 30  1  0  0  0  0
 13 22  1  0  0  0  0
 13 28  2  0  0  0  0
 14 23  2  0  0  0  0
 14 26  1  0  0  0  0
 15 24  1  0  0  0  0
 15 26  2  0  0  0  0
 16 30  2  0  0  0  0
 16 31  1  0  0  0  0
 17 32  1  0  0  0  0
 18 32  1  0  0  0  0
 18 33  2  0  0  0  0
 18 34  1  0  0  0  0
 19 21  2  0  0  0  0
 19 39  1  0  0  0  0
 20 22  2  0  0  0  0
 20 40  1  0  0  0  0
 21 48  1  0  0  0  0
 22 41  1  0  0  0  0
 23 25  1  0  0  0  0
 23 51  1  0  0  0  0
 24 25  2  0  0  0  0
 24 52  1  0  0  0  0
 25 58  1  0  0  0  0
 26 70  1  0  0  0  0
 27 79  1  0  0  0  0
 28 80  1  0  0  0  0
 29 31  2  0  0  0  0
 29 79  1  0  0  0  0
 30 81  1  0  0  0  0
 31 82  1  0  0  0  0
 32 64  2  0  0  0  0
 33 65  1  0  0  0  0
 33 68  1  0  0  0  0
 34 69  1  0  0  0  0
 34 74  2  0  0  0  0
 35 49  1  0  0  0  0
 35 71  1  0  0  0  0
 35 75  2  0  0  0  0
 36 61  1  0  0  0  0
 36 66  1  0  0  0  0
 36 76  2  0  0  0  0
 37 62  1  0  0  0  0
 37 72  1  0  0  0  0
 37 77  2  0  0  0  0
 38 67  1  0  0  0  0
 38 70  1  0  0  0  0
 38 78  2  0  0  0  0
 39 42  1  0  0  0  0
 40 49  1  0  0  0  0
 41 66  1  0  0  0  0
 42 44  1  0  0  0  0
 43 45  1  0  0  0  0
 43 46  1  0  0  0  0
 44 48  1  0  0  0  0
 45 50  1  0  0  0  0
 46 67  1  0  0  0  0
 47 50  1  0  0  0  0
 47 67  1  0  0  0  0
 48 71  1  0  0  0  0
 49 66  1  0  0  0  0
 50 65  1  0  0  0  0
 53 62  1  0  0  0  0
 54 63  1  0  0  0  0
 55 63  1  0  0  0  0
 56 63  1  0  0  0  0
 57 73  1  0  0  0  0
 58 59  1  0  0  0  0
 59 60  1  0  0  0  0
 60 80  1  0  0  0  0
 61 63  1  0  0  0  0
 61 72  1  0  0  0  0
 62 73  1  0  0  0  0
 64 65  1  0  0  0  0
M  CHG  1  73   1
M  ISO  4  38 100  60 101  70 100  80 101
M  END
> <Batch ID>
0021

> <Smiles>
CNC(C)C(=O)NC(C(=O)N1Cc2cc([101O:1][101CH2:1]CCc3c(C)cc([100NH:0][100C:0](=O)N4CCCC(n5nc(-c6ccc(Oc7ccc(F)cc7F)cc6)c(C(N)=O)c5N)C4)cc3C)ccc2CC1C(=O)NC1CCCc2ccccc21)C(C)(C)C

> <Shape>
0.227

> <Color>
0.066

> <Negative vol penalty>
0.000

$$$$

  -OEChem-04052316123D

 81 89  0     1  0  0  0  0  0999 V2000
  -19.9798  -30.2482   26.9606 C   0  0  0  0  0  0  0  0  0  0  0  0
  -21.1244  -29.5634   26.5652 C   0  0  0  0  0  0  0  0  0  0  0  0
  -27.2231  -11.8431   20.2739 C   0  0  0  0  0  0  0  0  0  0  0  0
  -26.1027  -13.8773   19.6076 C   0  0  0  0  0  0  0  0  0  0  0  0
  -18.9464  -30.4612   26.0492 C   0  0  0  0  0  0  0  0  0  0  0  0
  -21.2358  -29.0902   25.2583 C   0  0  0  0  0  0  0  0  0  0  0  0
  -26.3413  -28.7326   21.8949 C   0  0  0  0  0  0  0  0  0  0  0  0
  -26.0443  -11.1265   20.0683 C   0  0  0  0  0  0  0  0  0  0  0  0
  -24.9239  -13.1606   19.4018 C   0  0  0  0  0  0  0  0  0  0  0  0
  -27.2100  -27.6779   21.6179 C   0  0  0  0  0  0  0  0  0  0  0  0
  -23.2318   -8.8214   20.0631 C   0  0  0  0  0  0  0  0  0  0  0  0
  -22.8556   -7.8956   21.0363 C   0  0  0  0  0  0  0  0  0  0  0  0
  -26.0369  -27.2623   19.5515 C   0  0  0  0  0  0  0  0  0  0  0  0
  -22.7588   -9.6633   22.6804 C   0  0  0  0  0  0  0  0  0  0  0  0
  -27.2523  -13.2186   20.0437 C   0  0  0  0  0  0  0  0  0  0  0  0
  -29.7069  -13.7645   19.6141 C   0  0  0  0  0  0  0  0  0  0  0  0
  -19.0493  -29.9987   24.7277 C   0  0  0  0  0  0  0  0  0  0  0  0
  -25.3053  -29.0536   21.0061 C   0  0  0  0  0  0  0  0  0  0  0  0
  -20.2022  -29.2959   24.3286 C   0  0  0  0  0  0  0  0  0  0  0  0
  -25.1579  -28.3231   19.8183 C   0  0  0  0  0  0  0  0  0  0  0  0
  -24.8947  -11.7852   19.6322 C   0  0  0  0  0  0  0  0  0  0  0  0
  -27.0562  -26.9408   20.4474 C   0  0  0  0  0  0  0  0  0  0  0  0
  -23.3715  -10.1681   20.3986 C   0  0  0  0  0  0  0  0  0  0  0  0
  -22.6191   -8.3165   22.3449 C   0  0  0  0  0  0  0  0  0  0  0  0
  -23.1350  -10.5890   21.7072 C   0  0  0  0  0  0  0  0  0  0  0  0
  -28.4696  -13.9596   20.2565 C   0  0  0  0  0  0  0  0  0  0  0  0
  -30.5327  -14.7146   20.1635 C   0  0  0  0  0  0  0  0  0  0  0  0
  -30.0768  -12.8099   18.6103 C   0  0  0  0  0  0  0  0  0  0  0  0
  -22.1320  -29.1029   21.1836 C   0  0  0  0  0  0  0  0  0  0  0  0
  -22.3756  -30.4074   18.2236 C   0  0  0  0  0  0  0  0  0  0  0  0
  -24.2108  -30.8020   15.3735 C   0  0  0  0  0  0  0  0  0  0  0  0
  -29.4949  -20.0090   22.7604 C   0  0  0  0  0  0  0  0  0  0  0  0
  -17.8862  -30.2115   23.7915 C   0  0  0  0  0  0  0  0  0  0  0  0
  -24.3931  -30.2112   21.3066 C   0  0  0  0  0  0  0  0  0  0  0  0
  -24.0744  -28.6404   18.8214 C   0  0  0  0  0  0  0  0  0  0  0  0
  -18.2419  -30.0051   22.3214 C   0  0  0  0  0  0  0  0  0  0  0  0
  -31.1990  -17.2247   24.1818 C   0  0  0  0  0  0  0  0  0  0  0  0
  -19.0468  -28.7219   22.1420 C   0  0  0  0  0  0  0  0  0  0  0  0
  -30.8043  -16.0546   23.2790 C   0  0  0  0  0  0  0  0  0  0  0  0
  -28.9873  -21.7989   19.5313 C   0  0  0  0  0  0  0  0  0  0  0  0
  -28.4823  -23.2122   19.2486 C   0  0  0  0  0  0  0  0  0  0  0  0
  -27.5629  -22.3429   21.3552 C   0  0  0  0  0  0  0  0  0  0  0  0
  -30.0450  -18.2072   24.3689 C   0  0  0  0  0  0  0  0  0  0  0  0
  -29.0546  -17.5384   22.2136 C   0  0  0  0  0  0  0  0  0  0  0  0
  -20.3708  -28.7889   22.9128 C   0  0  1  0  0  0  0  0  0  0  0  0
  -23.0553  -30.1224   20.5787 C   0  0  1  0  0  0  0  0  0  0  0  0
  -30.2031  -16.5497   21.9499 C   0  0  2  0  0  0  0  0  0  0  0  0
  -28.9039  -21.6869   21.0449 C   0  0  1  0  0  0  0  0  0  0  0  0
  -27.4975  -23.5529   20.3952 C   0  0  2  0  0  0  0  0  0  0  0  0
  -24.1314  -31.8919   13.1145 C   0  0  0  0  0  0  0  0  0  0  0  0
  -25.5978  -22.4835   19.1498 C   0  0  0  0  0  0  0  0  0  0  0  0
  -25.1264  -24.1137   21.0002 C   0  0  0  0  0  0  0  0  0  0  0  0
  -29.3502  -24.7064   21.6718 C   0  0  0  0  0  0  0  0  0  0  0  0
  -20.4646  -28.2384   17.2470 C   0  0  0  0  0  0  0  0  0  0  0  0
  -21.1635  -28.7754   14.9037 C   0  0  0  0  0  0  0  0  0  0  0  0
  -20.0365  -30.5114   16.2960 C   0  0  0  0  0  0  0  0  0  0  0  0
  -26.5912  -32.4596   15.9611 C   0  0  0  0  0  0  0  0  0  0  0  0
  -22.4242  -29.8634   16.8162 C   0  0  1  0  0  0  0  0  0  0  0  0
  -24.5632  -32.0378   14.5653 C   0  0  2  0  0  0  0  0  0  0  0  0
  -26.0730  -23.7450   19.8628 C   0  0  0  0  0  0  0  0  0  0  0  0
  -27.9413  -24.8363   21.1135 C   0  0  1  0  0  0  0  0  0  1  0  0
  -21.0415  -29.3397   16.3352 C   0  0  0  0  0  0  0  0  0  0  0  0
  -28.5019  -14.9553   21.1462 N   0  0  0  0  0  0  0  0  0  0  0  0
  -29.7695  -15.3943   21.0667 N   0  0  0  0  0  0  0  0  0  0  0  0
  -23.2038  -29.7774   19.1633 N   0  0  0  0  0  0  0  0  0  0  0  0
  -29.5212  -18.6394   23.0709 N   0  0  0  0  0  0  0  0  0  0  0  0
  -31.8298  -15.0266   19.9574 N   0  0  0  0  0  0  0  0  0  0  0  0
  -29.9180  -13.1616   17.2629 N   0  0  0  0  0  0  0  0  0  0  0  0
  -21.3326  -29.5984   22.1959 N   0  0  0  0  0  0  0  0  0  0  0  0
  -22.9822  -30.9261   15.9869 N   0  0  0  0  0  0  0  0  0  0  0  0
  -28.9888  -20.3320   21.5073 N   0  0  0  0  0  0  0  0  0  0  0  0
  -26.0342  -32.2749   14.5963 N   0  3  0  0  0  0  0  0  0  0  0  0
  -30.5191  -11.6723   18.8998 O   0  0  0  0  0  0  0  0  0  0  0  0
  -22.1429  -27.9523   20.7620 O   0  0  0  0  0  0  0  0  0  0  0  0
  -21.6356  -31.3610   18.4781 O   0  0  0  0  0  0  0  0  0  0  0  0
  -24.9498  -29.8229   15.4498 O   0  0  0  0  0  0  0  0  0  0  0  0
  -29.8978  -20.8791   23.5399 O   0  0  0  0  0  0  0  0  0  0  0  0
  -23.7443  -11.0861   19.4311 O   0  0  0  0  0  0  0  0  0  0  0  0
  -27.9023  -25.9105   20.1749 O   0  0  0  0  0  0  0  0  0  1  0  0
  -22.2564   -7.4277   23.2790 F   0  0  0  0  0  0  0  0  0  0  0  0
  -23.2665  -11.8817   22.0352 F   0  0  0  0  0  0  0  0  0  0  0  0
  1  2  1  0  0  0  0
  1  5  2  0  0  0  0
  2  6  2  0  0  0  0
  3  8  2  0  0  0  0
  3 15  1  0  0  0  0
  4  9  1  0  0  0  0
  4 15  2  0  0  0  0
  5 17  1  0  0  0  0
  6 19  1  0  0  0  0
  7 10  2  0  0  0  0
  7 18  1  0  0  0  0
  8 21  1  0  0  0  0
  9 21  2  0  0  0  0
 10 22  1  0  0  0  0
 11 12  2  0  0  0  0
 11 23  1  0  0  0  0
 12 24  1  0  0  0  0
 13 20  1  0  0  0  0
 13 22  2  0  0  0  0
 14 24  2  0  0  0  0
 14 25  1  0  0  0  0
 15 26  1  0  0  0  0
 16 26  1  0  0  0  0
 16 27  2  0  0  0  0
 16 28  1  0  0  0  0
 17 19  2  0  0  0  0
 17 33  1  0  0  0  0
 18 20  2  0  0  0  0
 18 34  1  0  0  0  0
 19 45  1  0  0  0  0
 20 35  1  0  0  0  0
 21 78  1  0  0  0  0
 22 79  1  0  0  0  0
 23 25  2  0  0  0  0
 23 78  1  0  0  0  0
 24 80  1  0  0  0  0
 25 81  1  0  0  0  0
 26 63  2  0  0  0  0
 27 64  1  0  0  0  0
 27 67  1  0  0  0  0
 28 68  1  0  0  0  0
 28 73  2  0  0  0  0
 29 46  1  0  0  0  0
 29 69  1  0  0  0  0
 29 74  2  0  0  0  0
 30 58  1  0  0  0  0
 30 65  1  0  0  0  0
 30 75  2  0  0  0  0
 31 59  1  0  0  0  0
 31 70  1  0  0  0  0
 31 76  2  0  0  0  0
 32 66  1  0  0  0  0
 32 71  1  0  0  0  0
 32 77  2  0  0  0  0
 33 36  1  0  0  0  0
 34 46  1  0  0  0  0
 35 65  1  0  0  0  0
 36 38  1  0  0  0  0
 37 39  1  0  0  0  0
 37 43  1  0  0  0  0
 38 45  1  0  0  0  0
 39 47  1  0  0  0  0
 40 41  1  0  0  0  0
 40 48  1  0  0  0  0
 41 49  1  0  0  0  0
 42 48  1  0  0  0  0
 42 49  1  0  0  0  0
 43 66  1  0  0  0  0
 44 47  1  0  0  0  0
 44 66  1  0  0  0  0
 45 69  1  0  0  0  0
 46 65  1  0  0  0  0
 47 64  1  0  0  0  0
 48 71  1  0  0  0  0
 49 60  1  0  0  0  0
 49 61  1  0  0  0  0
 50 59  1  0  0  0  0
 51 60  1  0  0  0  0
 52 60  1  0  0  0  0
 53 61  1  0  0  0  0
 54 62  1  0  0  0  0
 55 62  1  0  0  0  0
 56 62  1  0  0  0  0
 57 72  1  0  0  0  0
 58 62  1  0  0  0  0
 58 70  1  0  0  0  0
 59 72  1  0  0  0  0
 61 79  1  0  0  0  0
 63 64  1  0  0  0  0
M  CHG  1  72   1
M  ISO  4  32 100  61 101  71 100  79 101
M  END
> <Batch ID>
0021

> <Smiles>
CNC(C)C(=O)NC(C(=O)N1Cc2cc([101O:1][101CH:1](C)C3(C(C)C)CCC([100NH:0][100C:0](=O)N4CCCC(n5nc(-c6ccc(Oc7ccc(F)cc7F)cc6)c(C(N)=O)c5N)C4)C3)ccc2CC1C(=O)NC1CCCc2ccccc21)C(C)(C)C

> <Shape>
0.269

> <Color>
0.087

> <Negative vol penalty>
0.000

$$$$

  -OEChem-04052316123D

 83 91  0     1  0  0  0  0  0999 V2000
  -27.8395  -24.1857   15.5851 C   0  0  0  0  0  0  0  0  0  0  0  0
  -28.4356  -23.7259   16.7550 C   0  0  0  0  0  0  0  0  0  0  0  0
  -22.9993   -9.8950   19.9807 C   0  0  0  0  0  0  0  0  0  0  0  0
  -23.7245   -9.9453   22.2848 C   0  0  0  0  0  0  0  0  0  0  0  0
  -28.2502  -23.6837   14.3509 C   0  0  0  0  0  0  0  0  0  0  0  0
  -29.4421  -22.7629   16.6914 C   0  0  0  0  0  0  0  0  0  0  0  0
  -33.3680  -23.8548   19.6980 C   0  0  0  0  0  0  0  0  0  0  0  0
  -22.2324   -8.7608   20.2468 C   0  0  0  0  0  0  0  0  0  0  0  0
  -22.9574   -8.8111   22.5509 C   0  0  0  0  0  0  0  0  0  0  0  0
  -33.2179  -23.5974   21.0600 C   0  0  0  0  0  0  0  0  0  0  0  0
  -23.2004   -5.4721   22.0785 C   0  0  0  0  0  0  0  0  0  0  0  0
  -23.7875   -4.4546   22.8304 C   0  0  0  0  0  0  0  0  0  0  0  0
  -34.4604  -21.5457   20.8032 C   0  0  0  0  0  0  0  0  0  0  0  0
  -32.0616  -16.5190   22.5389 C   0  0  0  0  0  0  0  0  0  0  0  0
  -22.0637   -4.6979   24.5056 C   0  0  0  0  0  0  0  0  0  0  0  0
  -23.7455  -10.4872   20.9997 C   0  0  0  0  0  0  0  0  0  0  0  0
  -24.1318  -13.0027   20.8241 C   0  0  0  0  0  0  0  0  0  0  0  0
  -29.2690  -22.7212   14.2715 C   0  0  0  0  0  0  0  0  0  0  0  0
  -34.0573  -22.9526   18.8749 C   0  0  0  0  0  0  0  0  0  0  0  0
  -29.8659  -22.2466   15.4551 C   0  0  0  0  0  0  0  0  0  0  0  0
  -34.6201  -21.7952   19.4316 C   0  0  0  0  0  0  0  0  0  0  0  0
  -30.5373  -18.3420   24.0003 C   0  0  0  0  0  0  0  0  0  0  0  0
  -31.9235  -18.3115   24.1529 C   0  0  0  0  0  0  0  0  0  0  0  0
  -30.6755  -16.5495   22.3863 C   0  0  0  0  0  0  0  0  0  0  0  0
  -22.2114   -8.2188   21.5319 C   0  0  0  0  0  0  0  0  0  0  0  0
  -33.7616  -22.4414   21.6122 C   0  0  0  0  0  0  0  0  0  0  0  0
  -22.0450   -6.1026   22.5401 C   0  0  0  0  0  0  0  0  0  0  0  0
  -23.2192   -4.0674   24.0440 C   0  0  0  0  0  0  0  0  0  0  0  0
  -21.4766   -5.7155   23.7537 C   0  0  0  0  0  0  0  0  0  0  0  0
  -32.6856  -17.3999   23.4223 C   0  0  0  0  0  0  0  0  0  0  0  0
  -29.9133  -17.4610   23.1170 C   0  0  0  0  0  0  0  0  0  0  0  0
  -24.5384  -11.6586   20.7253 C   0  0  0  0  0  0  0  0  0  0  0  0
  -25.2418  -13.7249   20.4599 C   0  0  0  0  0  0  0  0  0  0  0  0
  -22.8640  -13.5496   21.2107 C   0  0  0  0  0  0  0  0  0  0  0  0
  -33.2855  -21.1748   16.3555 C   0  0  0  0  0  0  0  0  0  0  0  0
  -36.4634  -20.5248   16.3305 C   0  0  0  0  0  0  0  0  0  0  0  0
  -39.3972  -20.3431   18.0645 C   0  0  0  0  0  0  0  0  0  0  0  0
  -30.7217  -14.6838   20.6942 C   0  0  0  0  0  0  0  0  0  0  0  0
  -29.6464  -22.1737   12.9179 C   0  0  0  0  0  0  0  0  0  0  0  0
  -34.2336  -23.2579   17.4127 C   0  0  0  0  0  0  0  0  0  0  0  0
  -35.3866  -20.8048   18.5949 C   0  0  0  0  0  0  0  0  0  0  0  0
  -30.9792  -21.4294   12.9120 C   0  0  0  0  0  0  0  0  0  0  0  0
  -29.6025  -12.2317   18.3678 C   0  0  0  0  0  0  0  0  0  0  0  0
  -31.0583  -20.4668   14.0926 C   0  0  0  0  0  0  0  0  0  0  0  0
  -28.1518  -11.9746   18.7819 C   0  0  0  0  0  0  0  0  0  0  0  0
  -30.5031  -12.4746   19.5777 C   0  0  0  0  0  0  0  0  0  0  0  0
  -28.5880  -13.2640   20.9113 C   0  0  0  0  0  0  0  0  0  0  0  0
  -30.9781  -21.2208   15.4255 C   0  0  1  0  0  0  0  0  0  0  0  0
  -34.5118  -22.0156   16.5722 C   0  0  1  0  0  0  0  0  0  0  0  0
  -27.6303  -13.0782   19.7230 C   0  0  2  0  0  0  0  0  0  0  0  0
  -29.7352  -19.3279   24.7934 C   0  0  0  0  0  0  0  0  0  0  0  0
  -41.8179  -19.7444   17.7831 C   0  0  0  0  0  0  0  0  0  0  0  0
  -35.7305  -17.5630   16.3493 C   0  0  0  0  0  0  0  0  0  0  0  0
  -38.0886  -17.0552   17.0200 C   0  0  0  0  0  0  0  0  0  0  0  0
  -37.6265  -18.1589   14.8311 C   0  0  0  0  0  0  0  0  0  0  0  0
  -40.2770  -23.0734   18.7926 C   0  0  0  0  0  0  0  0  0  0  0  0
  -32.5867  -19.2674   25.1121 C   0  0  0  0  0  0  0  0  0  0  0  0
  -32.6931  -20.6984   24.5806 C   0  0  0  0  0  0  0  0  0  0  0  0
  -33.5701  -20.8179   23.3396 C   0  0  0  0  0  0  0  0  0  1  0  0
  -37.3459  -19.4794   16.9688 C   0  0  1  0  0  0  0  0  0  0  0  0
  -40.7880  -20.8628   17.7482 C   0  0  2  0  0  0  0  0  0  0  0  0
  -37.1818  -18.0816   16.3080 C   0  0  0  0  0  0  0  0  0  0  0  0
  -25.8076  -11.5316   20.3291 N   0  0  0  0  0  0  0  0  0  0  0  0
  -26.2081  -12.8053   20.1757 N   0  0  0  0  0  0  0  0  0  0  0  0
  -35.5264  -21.1448   17.1693 N   0  0  0  0  0  0  0  0  0  0  0  0
  -29.9484  -13.5356   20.4212 N   0  0  0  0  0  0  0  0  0  0  0  0
  -25.4759  -15.0505   20.3580 N   0  0  0  0  0  0  0  0  0  0  0  0
  -21.8319  -12.6658   21.5540 N   0  0  0  0  0  0  0  0  0  0  0  0
  -30.0778  -15.6391   21.4799 N   0  0  0  0  0  0  0  0  0  0  0  0
  -32.2487  -21.8423   15.7318 N   0  0  0  0  0  0  0  0  0  0  0  0
  -38.7049  -20.0075   16.9201 N   0  0  0  0  0  0  0  0  0  0  0  0
  -41.1897  -21.9026   18.7374 N   0  3  0  0  0  0  0  0  0  0  0  0
  -22.6478  -14.7850   21.2346 O   0  0  0  0  0  0  0  0  0  0  0  0
  -33.2808  -20.0066   16.7254 O   0  0  0  0  0  0  0  0  0  0  0  0
  -36.6052  -20.7869   15.1335 O   0  0  0  0  0  0  0  0  0  0  0  0
  -38.9691  -20.2413   19.2120 O   0  0  0  0  0  0  0  0  0  0  0  0
  -31.8604  -14.8223   20.2403 O   0  0  0  0  0  0  0  0  0  0  0  0
  -21.4628   -7.1122   21.7920 O   0  0  0  0  0  0  0  0  0  0  0  0
  -33.6159  -22.1874   22.9412 O   0  0  0  0  0  0  0  0  0  1  0  0
  -23.7822   -3.0892   24.7653 F   0  0  0  0  0  0  0  0  0  0  0  0
  -20.3659   -6.3167   24.2017 F   0  0  0  0  0  0  0  0  0  0  0  0
  -34.4029  -17.3261   23.5862 Cl  0  0  0  0  0  0  0  0  0  0  0  0
  -28.1895  -17.5001   22.9288 Cl  0  0  0  0  0  0  0  0  0  0  0  0
  1  2  1  0  0  0  0
  1  5  2  0  0  0  0
  2  6  2  0  0  0  0
  3  8  2  0  0  0  0
  3 16  1  0  0  0  0
  4  9  1  0  0  0  0
  4 16  2  0  0  0  0
  5 18  1  0  0  0  0
  6 20  1  0  0  0  0
  7 10  2  0  0  0  0
  7 19  1  0  0  0  0
  8 25  1  0  0  0  0
  9 25  2  0  0  0  0
 10 26  1  0  0  0  0
 11 12  2  0  0  0  0
 11 27  1  0  0  0  0
 12 28  1  0  0  0  0
 13 21  1  0  0  0  0
 13 26  2  0  0  0  0
 14 24  1  0  0  0  0
 14 30  2  0  0  0  0
 15 28  2  0  0  0  0
 15 29  1  0  0  0  0
 16 32  1  0  0  0  0
 17 32  1  0  0  0  0
 17 33  2  0  0  0  0
 17 34  1  0  0  0  0
 18 20  2  0  0  0  0
 18 39  1  0  0  0  0
 19 21  2  0  0  0  0
 19 40  1  0  0  0  0
 20 48  1  0  0  0  0
 21 41  1  0  0  0  0
 22 23  2  0  0  0  0
 22 31  1  0  0  0  0
 22 51  1  0  0  0  0
 23 30  1  0  0  0  0
 23 57  1  0  0  0  0
 24 31  2  0  0  0  0
 24 69  1  0  0  0  0
 25 78  1  0  0  0  0
 26 79  1  0  0  0  0
 27 29  2  0  0  0  0
 27 78  1  0  0  0  0
 28 80  1  0  0  0  0
 29 81  1  0  0  0  0
 30 82  1  0  0  0  0
 31 83  1  0  0  0  0
 32 63  2  0  0  0  0
 33 64  1  0  0  0  0
 33 67  1  0  0  0  0
 34 68  1  0  0  0  0
 34 73  2  0  0  0  0
 35 49  1  0  0  0  0
 35 70  1  0  0  0  0
 35 74  2  0  0  0  0
 36 60  1  0  0  0  0
 36 65  1  0  0  0  0
 36 75  2  0  0  0  0
 37 61  1  0  0  0  0
 37 71  1  0  0  0  0
 37 76  2  0  0  0  0
 38 66  1  0  0  0  0
 38 69  1  0  0  0  0
 38 77  2  0  0  0  0
 39 42  1  0  0  0  0
 40 49  1  0  0  0  0
 41 65  1  0  0  0  0
 42 44  1  0  0  0  0
 43 45  1  0  0  0  0
 43 46  1  0  0  0  0
 44 48  1  0  0  0  0
 45 50  1  0  0  0  0
 46 66  1  0  0  0  0
 47 50  1  0  0  0  0
 47 66  1  0  0  0  0
 48 70  1  0  0  0  0
 49 65  1  0  0  0  0
 50 64  1  0  0  0  0
 52 61  1  0  0  0  0
 53 62  1  0  0  0  0
 54 62  1  0  0  0  0
 55 62  1  0  0  0  0
 56 72  1  0  0  0  0
 57 58  1  0  0  0  0
 58 59  1  0  0  0  0
 59 79  1  0  0  0  0
 60 62  1  0  0  0  0
 60 71  1  0  0  0  0
 61 72  1  0  0  0  0
 63 64  1  0  0  0  0
M  CHG  1  72   1
M  ISO  4  38 100  59 101  69 100  79 101
M  END
> <Batch ID>
0021

> <Smiles>
CNC(C)C(=O)NC(C(=O)N1Cc2cc([101O:1][101CH2:1]CCc3c(Cl)cc([100NH:0][100C:0](=O)N4CCCC(n5nc(-c6ccc(Oc7ccc(F)cc7F)cc6)c(C(N)=O)c5N)C4)c(Cl)c3C)ccc2CC1C(=O)NC1CCCc2ccccc21)C(C)(C)C

> <Shape>
0.181

> <Color>
0.206

> <Negative vol penalty>
0.000

$$$$

  -OEChem-04052316123D

 82 90  0     1  0  0  0  0  0999 V2000
  -44.5880  -26.1198   26.6973 C   0  0  0  0  0  0  0  0  0  0  0  0
  -44.0510  -24.8679   26.4149 C   0  0  0  0  0  0  0  0  0  0  0  0
  -23.0755   -9.8682   19.9406 C   0  0  0  0  0  0  0  0  0  0  0  0
  -23.8350   -9.8748   22.2341 C   0  0  0  0  0  0  0  0  0  0  0  0
  -43.7429  -27.2107   26.8966 C   0  0  0  0  0  0  0  0  0  0  0  0
  -42.6684  -24.7060   26.3326 C   0  0  0  0  0  0  0  0  0  0  0  0
  -37.6897  -20.9023   22.8598 C   0  0  0  0  0  0  0  0  0  0  0  0
  -22.3313   -8.7152   20.1904 C   0  0  0  0  0  0  0  0  0  0  0  0
  -23.0908   -8.7218   22.4839 C   0  0  0  0  0  0  0  0  0  0  0  0
  -36.5799  -20.0967   23.1114 C   0  0  0  0  0  0  0  0  0  0  0  0
  -19.8623   -7.9248   23.0858 C   0  0  0  0  0  0  0  0  0  0  0  0
  -19.1052   -7.8850   24.2566 C   0  0  0  0  0  0  0  0  0  0  0  0
  -35.2204  -22.0690   23.3958 C   0  0  0  0  0  0  0  0  0  0  0  0
  -32.4642  -17.1241   23.9298 C   0  0  0  0  0  0  0  0  0  0  0  0
  -20.3460   -5.9471   24.9931 C   0  0  0  0  0  0  0  0  0  0  0  0
  -23.8274  -10.4480   20.9625 C   0  0  0  0  0  0  0  0  0  0  0  0
  -24.1699  -12.9731   20.8427 C   0  0  0  0  0  0  0  0  0  0  0  0
  -42.3497  -27.0641   26.8073 C   0  0  0  0  0  0  0  0  0  0  0  0
  -37.5753  -22.2996   22.8851 C   0  0  0  0  0  0  0  0  0  0  0  0
  -41.8039  -25.7957   26.5323 C   0  0  0  0  0  0  0  0  0  0  0  0
  -36.3296  -22.8900   23.1417 C   0  0  0  0  0  0  0  0  0  0  0  0
  -31.8601  -18.3508   24.2053 C   0  0  0  0  0  0  0  0  0  0  0  0
  -30.6651  -18.6969   23.5747 C   0  0  0  0  0  0  0  0  0  0  0  0
  -30.6782  -16.5896   22.3931 C   0  0  0  0  0  0  0  0  0  0  0  0
  -22.3389   -8.1420   21.4620 C   0  0  0  0  0  0  0  0  0  0  0  0
  -35.3457  -20.6801   23.3823 C   0  0  0  0  0  0  0  0  0  0  0  0
  -20.8613   -6.9758   22.8686 C   0  0  0  0  0  0  0  0  0  0  0  0
  -19.3470   -6.8962   25.2103 C   0  0  0  0  0  0  0  0  0  0  0  0
  -21.1031   -5.9870   23.8223 C   0  0  0  0  0  0  0  0  0  0  0  0
  -31.8733  -16.2435   23.0237 C   0  0  0  0  0  0  0  0  0  0  0  0
  -30.0741  -17.8163   22.6685 C   0  0  0  0  0  0  0  0  0  0  0  0
  -24.5969  -11.6387   20.7050 C   0  0  0  0  0  0  0  0  0  0  0  0
  -25.2623  -13.7223   20.4797 C   0  0  0  0  0  0  0  0  0  0  0  0
  -22.8995  -13.4892   21.2615 C   0  0  0  0  0  0  0  0  0  0  0  0
  -38.8595  -24.6241   24.6320 C   0  0  0  0  0  0  0  0  0  0  0  0
  -37.3034  -26.5368   22.5244 C   0  0  0  0  0  0  0  0  0  0  0  0
  -34.7516  -26.9115   20.2895 C   0  0  0  0  0  0  0  0  0  0  0  0
  -30.7288  -14.7664   20.6553 C   0  0  0  0  0  0  0  0  0  0  0  0
  -41.4748  -28.2626   27.0772 C   0  0  0  0  0  0  0  0  0  0  0  0
  -38.7761  -23.1544   22.5853 C   0  0  0  0  0  0  0  0  0  0  0  0
  -36.1495  -24.3852   23.1605 C   0  0  0  0  0  0  0  0  0  0  0  0
  -40.0349  -28.0849   26.6025 C   0  0  0  0  0  0  0  0  0  0  0  0
  -29.6141  -12.3531   18.2867 C   0  0  0  0  0  0  0  0  0  0  0  0
  -39.4949  -26.7248   27.0331 C   0  0  0  0  0  0  0  0  0  0  0  0
  -28.1743  -12.0619   18.7160 C   0  0  0  0  0  0  0  0  0  0  0  0
  -30.5291  -12.5816   19.4885 C   0  0  0  0  0  0  0  0  0  0  0  0
  -28.6221  -13.3064   20.8695 C   0  0  0  0  0  0  0  0  0  0  0  0
  -40.3102  -25.5852   26.4104 C   0  0  1  0  0  0  0  0  0  0  0  0
  -38.6572  -24.5689   23.1442 C   0  0  1  0  0  0  0  0  0  0  0  0
  -27.6494  -13.1335   19.6915 C   0  0  2  0  0  0  0  0  0  0  0  0
  -30.0357  -20.0200   23.8855 C   0  0  0  0  0  0  0  0  0  0  0  0
  -33.7113  -28.6005   18.7524 C   0  0  0  0  0  0  0  0  0  0  0  0
  -36.0275  -27.9286   24.9212 C   0  0  0  0  0  0  0  0  0  0  0  0
  -34.3364  -28.9143   23.3603 C   0  0  0  0  0  0  0  0  0  0  0  0
  -36.7538  -29.4659   23.0872 C   0  0  0  0  0  0  0  0  0  0  0  0
  -35.2825  -25.2405   17.9052 C   0  0  0  0  0  0  0  0  0  0  0  0
  -32.5223  -19.2844   25.1893 C   0  0  0  0  0  0  0  0  0  0  0  0
  -33.2613  -20.4255   24.4988 C   0  0  0  0  0  0  0  0  0  1  0  0
  -35.9299  -27.1598   22.4584 C   0  0  1  0  0  0  0  0  0  0  0  0
  -34.7222  -27.4714   18.8788 C   0  0  2  0  0  0  0  0  0  0  0  0
  -35.7654  -28.3390   23.4584 C   0  0  0  0  0  0  0  0  0  0  0  0
  -25.8618  -11.5426   20.2869 N   0  0  0  0  0  0  0  0  0  0  0  0
  -26.2390  -12.8260   20.1587 N   0  0  0  0  0  0  0  0  0  0  0  0
  -37.3548  -25.1784   22.8675 N   0  0  0  0  0  0  0  0  0  0  0  0
  -29.9702  -13.6125   20.3659 N   0  0  0  0  0  0  0  0  0  0  0  0
  -25.4731  -15.0537   20.4068 N   0  0  0  0  0  0  0  0  0  0  0  0
  -21.8873  -12.5802   21.5985 N   0  0  0  0  0  0  0  0  0  0  0  0
  -30.0815  -15.6916   21.4737 N   0  0  0  0  0  0  0  0  0  0  0  0
  -39.9369  -25.3949   25.0251 N   0  0  0  0  0  0  0  0  0  0  0  0
  -35.7141  -27.5255   21.0627 N   0  0  0  0  0  0  0  0  0  0  0  0
  -34.3582  -26.4035   17.9051 N   0  3  0  0  0  0  0  0  0  0  0  0
  -22.6636  -14.7198   21.3189 O   0  0  0  0  0  0  0  0  0  0  0  0
  -38.0939  -24.0137   25.3689 O   0  0  0  0  0  0  0  0  0  0  0  0
  -38.2937  -27.2282   22.2735 O   0  0  0  0  0  0  0  0  0  0  0  0
  -33.9938  -26.0213   20.6687 O   0  0  0  0  0  0  0  0  0  0  0  0
  -31.8580  -14.9349   20.1879 O   0  0  0  0  0  0  0  0  0  0  0  0
  -21.6126   -7.0171   21.7061 O   0  0  0  0  0  0  0  0  0  0  0  0
  -34.2610  -19.8962   23.6288 O   0  0  0  0  0  0  0  0  0  1  0  0
  -18.6209   -6.8590   26.3352 F   0  0  0  0  0  0  0  0  0  0  0  0
  -22.0622   -5.0732   23.6197 F   0  0  0  0  0  0  0  0  0  0  0  0
  -32.6606  -14.7358   22.7160 Cl  0  0  0  0  0  0  0  0  0  0  0  0
  -28.5873  -18.2549   21.8880 Cl  0  0  0  0  0  0  0  0  0  0  0  0
  1  2  1  0  0  0  0
  1  5  2  0  0  0  0
  2  6  2  0  0  0  0
  3  8  2  0  0  0  0
  3 16  1  0  0  0  0
  4  9  1  0  0  0  0
  4 16  2  0  0  0  0
  5 18  1  0  0  0  0
  6 20  1  0  0  0  0
  7 10  2  0  0  0  0
  7 19  1  0  0  0  0
  8 25  1  0  0  0  0
  9 25  2  0  0  0  0
 10 26  1  0  0  0  0
 11 12  2  0  0  0  0
 11 27  1  0  0  0  0
 12 28  1  0  0  0  0
 13 21  1  0  0  0  0
 13 26  2  0  0  0  0
 14 22  1  0  0  0  0
 14 30  2  0  0  0  0
 15 28  2  0  0  0  0
 15 29  1  0  0  0  0
 16 32  1  0  0  0  0
 17 32  1  0  0  0  0
 17 33  2  0  0  0  0
 17 34  1  0  0  0  0
 18 20  2  0  0  0  0
 18 39  1  0  0  0  0
 19 21  2  0  0  0  0
 19 40  1  0  0  0  0
 20 48  1  0  0  0  0
 21 41  1  0  0  0  0
 22 23  2  0  0  0  0
 22 57  1  0  0  0  0
 23 31  1  0  0  0  0
 23 51  1  0  0  0  0
 24 30  1  0  0  0  0
 24 31  2  0  0  0  0
 24 68  1  0  0  0  0
 25 77  1  0  0  0  0
 26 78  1  0  0  0  0
 27 29  2  0  0  0  0
 27 77  1  0  0  0  0
 28 79  1  0  0  0  0
 29 80  1  0  0  0  0
 30 81  1  0  0  0  0
 31 82  1  0  0  0  0
 32 62  2  0  0  0  0
 33 63  1  0  0  0  0
 33 66  1  0  0  0  0
 34 67  1  0  0  0  0
 34 72  2  0  0  0  0
 35 49  1  0  0  0  0
 35 69  1  0  0  0  0
 35 73  2  0  0  0  0
 36 59  1  0  0  0  0
 36 64  1  0  0  0  0
 36 74  2  0  0  0  0
 37 60  1  0  0  0  0
 37 70  1  0  0  0  0
 37 75  2  0  0  0  0
 38 65  1  0  0  0  0
 38 68  1  0  0  0  0
 38 76  2  0  0  0  0
 39 42  1  0  0  0  0
 40 49  1  0  0  0  0
 41 64  1  0  0  0  0
 42 44  1  0  0  0  0
 43 45  1  0  0  0  0
 43 46  1  0  0  0  0
 44 48  1  0  0  0  0
 45 50  1  0  0  0  0
 46 65  1  0  0  0  0
 47 50  1  0  0  0  0
 47 65  1  0  0  0  0
 48 69  1  0  0  0  0
 49 64  1  0  0  0  0
 50 63  1  0  0  0  0
 52 60  1  0  0  0  0
 53 61  1  0  0  0  0
 54 61  1  0  0  0  0
 55 61  1  0  0  0  0
 56 71  1  0  0  0  0
 57 58  1  0  0  0  0
 58 78  1  0  0  0  0
 59 61  1  0  0  0  0
 59 70  1  0  0  0  0
 60 71  1  0  0  0  0
 62 63  1  0  0  0  0
M  CHG  1  71   1
M  ISO  4  38 100  58 101  68 100  78 101
M  END
> <Batch ID>
0021

> <Smiles>
CNC(C)C(=O)NC(C(=O)N1Cc2cc([101O:1][101CH2:1]Cc3cc(Cl)c([100NH:0][100C:0](=O)N4CCCC(n5nc(-c6ccc(Oc7ccc(F)cc7F)cc6)c(C(N)=O)c5N)C4)c(Cl)c3C)ccc2CC1C(=O)NC1CCCc2ccccc21)C(C)(C)C

> <Shape>
0.173

> <Color>
0.200

> <Negative vol penalty>
0.000

$$$$

  -OEChem-04052316123D

 82 90  0     1  0  0  0  0  0999 V2000
  -27.2149  -32.9447   27.2992 C   0  0  0  0  0  0  0  0  0  0  0  0
  -27.5549  -31.9088   26.4351 C   0  0  0  0  0  0  0  0  0  0  0  0
  -23.7281  -13.6694   21.3250 C   0  0  0  0  0  0  0  0  0  0  0  0
  -25.9425  -13.7790   20.3650 C   0  0  0  0  0  0  0  0  0  0  0  0
  -25.8748  -33.1974   27.5895 C   0  0  0  0  0  0  0  0  0  0  0  0
  -26.5549  -31.1243   25.8615 C   0  0  0  0  0  0  0  0  0  0  0  0
  -27.3082  -30.3256   20.9178 C   0  0  0  0  0  0  0  0  0  0  0  0
  -23.5785  -12.3732   20.8319 C   0  0  0  0  0  0  0  0  0  0  0  0
  -25.7929  -12.4828   19.8720 C   0  0  0  0  0  0  0  0  0  0  0  0
  -28.2545  -29.3645   20.5651 C   0  0  0  0  0  0  0  0  0  0  0  0
  -24.5859   -9.2568   21.6723 C   0  0  0  0  0  0  0  0  0  0  0  0
  -24.0544   -8.2942   22.5304 C   0  0  0  0  0  0  0  0  0  0  0  0
  -26.4841  -27.7731   20.1750 C   0  0  0  0  0  0  0  0  0  0  0  0
  -29.7597  -25.1634   22.9001 C   0  0  0  0  0  0  0  0  0  0  0  0
  -22.2232   -7.9369   20.9954 C   0  0  0  0  0  0  0  0  0  0  0  0
  -24.9101  -14.3724   21.0914 C   0  0  0  0  0  0  0  0  0  0  0  0
  -25.5885  -16.0908   22.8505 C   0  0  0  0  0  0  0  0  0  0  0  0
  -24.8574  -32.4217   27.0116 C   0  0  0  0  0  0  0  0  0  0  0  0
  -25.9410  -30.0139   20.9123 C   0  0  0  0  0  0  0  0  0  0  0  0
  -25.2000  -31.3660   26.1453 C   0  0  0  0  0  0  0  0  0  0  0  0
  -25.5222  -28.7327   20.5257 C   0  0  0  0  0  0  0  0  0  0  0  0
  -29.7413  -24.9672   21.5193 C   0  0  0  0  0  0  0  0  0  0  0  0
  -28.1361  -23.3953   23.1731 C   0  0  0  0  0  0  0  0  0  0  0  0
  -28.1176  -23.1991   21.7922 C   0  0  0  0  0  0  0  0  0  0  0  0
  -24.6109  -11.7799   20.1055 C   0  0  0  0  0  0  0  0  0  0  0  0
  -27.8428  -28.0871   20.1964 C   0  0  0  0  0  0  0  0  0  0  0  0
  -23.9360   -9.5596   20.4757 C   0  0  0  0  0  0  0  0  0  0  0  0
  -22.8730   -7.6342   22.1920 C   0  0  0  0  0  0  0  0  0  0  0  0
  -22.7547   -8.8996   20.1373 C   0  0  0  0  0  0  0  0  0  0  0  0
  -28.9572  -24.3774   23.7270 C   0  0  0  0  0  0  0  0  0  0  0  0
  -28.9202  -23.9851   20.9653 C   0  0  0  0  0  0  0  0  0  0  0  0
  -25.0649  -15.7116   21.6000 C   0  0  0  0  0  0  0  0  0  0  0  0
  -25.5210  -17.4626   22.8493 C   0  0  0  0  0  0  0  0  0  0  0  0
  -26.0910  -15.2759   23.9178 C   0  0  0  0  0  0  0  0  0  0  0  0
  -23.6517  -29.9247   23.1158 C   0  0  0  0  0  0  0  0  0  0  0  0
  -21.7474  -29.3479   20.5539 C   0  0  0  0  0  0  0  0  0  0  0  0
  -21.4671  -28.1994   17.3524 C   0  0  0  0  0  0  0  0  0  0  0  0
  -26.2437  -22.3727   20.3252 C   0  0  0  0  0  0  0  0  0  0  0  0
  -23.4254  -32.7025   27.3925 C   0  0  0  0  0  0  0  0  0  0  0  0
  -24.9311  -31.0698   21.2697 C   0  0  0  0  0  0  0  0  0  0  0  0
  -24.0652  -28.3537   20.4838 C   0  0  0  0  0  0  0  0  0  0  0  0
  -22.4081  -32.0640   26.4502 C   0  0  0  0  0  0  0  0  0  0  0  0
  -23.2015  -20.6436   19.6677 C   0  0  0  0  0  0  0  0  0  0  0  0
  -22.7765  -30.6100   26.1730 C   0  0  0  0  0  0  0  0  0  0  0  0
  -23.4582  -19.2375   20.2147 C   0  0  0  0  0  0  0  0  0  0  0  0
  -24.4533  -21.2400   19.0266 C   0  0  0  0  0  0  0  0  0  0  0  0
  -25.9074  -19.8247   20.4236 C   0  0  0  0  0  0  0  0  0  0  0  0
  -24.1427  -30.5087   25.4840 C   0  0  1  0  0  0  0  0  0  0  0  0
  -23.5955  -30.4896   21.7246 C   0  0  1  0  0  0  0  0  0  0  0  0
  -24.6929  -19.2083   21.1367 C   0  0  2  0  0  0  0  0  0  0  0  0
  -27.2712  -22.5470   24.0550 C   0  0  0  0  0  0  0  0  0  0  0  0
  -19.7767  -27.8176   15.5375 C   0  0  0  0  0  0  0  0  0  0  0  0
  -20.7318  -26.8743   22.0235 C   0  0  0  0  0  0  0  0  0  0  0  0
  -19.8093  -26.0463   19.8483 C   0  0  0  0  0  0  0  0  0  0  0  0
  -18.9629  -28.1779   20.8294 C   0  0  0  0  0  0  0  0  0  0  0  0
  -22.8452  -30.0670   15.5161 C   0  0  0  0  0  0  0  0  0  0  0  0
  -30.6266  -25.8415   20.6648 C   0  0  0  0  0  0  0  0  0  0  0  0
  -30.0475  -27.2386   20.4700 C   0  0  0  0  0  0  0  0  0  1  0  0
  -21.2820  -28.1107   19.8247 C   0  0  1  0  0  0  0  0  0  0  0  0
  -20.7896  -28.7865   16.1274 C   0  0  2  0  0  0  0  0  0  0  0  0
  -20.2242  -27.3085   20.6340 C   0  0  0  0  0  0  0  0  0  0  0  0
  -24.6922  -16.7580   20.8583 N   0  0  0  0  0  0  0  0  0  0  0  0
  -24.9818  -17.8082   21.6452 N   0  0  0  0  0  0  0  0  0  0  0  0
  -23.1165  -29.4189   20.8480 N   0  0  0  0  0  0  0  0  0  0  0  0
  -25.5807  -21.1821   19.9595 N   0  0  0  0  0  0  0  0  0  0  0  0
  -25.8708  -18.3949   23.7609 N   0  0  0  0  0  0  0  0  0  0  0  0
  -26.0881  -13.8839   23.7539 N   0  0  0  0  0  0  0  0  0  0  0  0
  -27.2787  -22.1978   21.2432 N   0  0  0  0  0  0  0  0  0  0  0  0
  -24.0267  -30.8406   24.0802 N   0  0  0  0  0  0  0  0  0  0  0  0
  -20.8193  -28.5582   18.5155 N   0  0  0  0  0  0  0  0  0  0  0  0
  -21.8002  -29.1056   15.0795 N   0  3  0  0  0  0  0  0  0  0  0  0
  -26.5144  -15.7667   24.9917 O   0  0  0  0  0  0  0  0  0  0  0  0
  -23.3739  -28.7456   23.3007 O   0  0  0  0  0  0  0  0  0  0  0  0
  -20.9277  -30.2224   20.8452 O   0  0  0  0  0  0  0  0  0  0  0  0
  -22.4685  -27.4902   17.2841 O   0  0  0  0  0  0  0  0  0  0  0  0
  -25.8997  -23.4703   19.8792 O   0  0  0  0  0  0  0  0  0  0  0  0
  -24.4654  -10.5150   19.6245 O   0  0  0  0  0  0  0  0  0  0  0  0
  -28.7644  -27.1469   19.8523 O   0  0  0  0  0  0  0  0  0  1  0  0
  -22.3636   -6.7087   23.0155 F   0  0  0  0  0  0  0  0  0  0  0  0
  -22.1265   -9.1853   18.9886 F   0  0  0  0  0  0  0  0  0  0  0  0
  -29.0099  -24.6527   25.4309 Cl  0  0  0  0  0  0  0  0  0  0  0  0
  -28.9047  -23.7493   19.2471 Cl  0  0  0  0  0  0  0  0  0  0  0  0
  1  2  1  0  0  0  0
  1  5  2  0  0  0  0
  2  6  2  0  0  0  0
  3  8  2  0  0  0  0
  3 16  1  0  0  0  0
  4  9  1  0  0  0  0
  4 16  2  0  0  0  0
  5 18  1  0  0  0  0
  6 20  1  0  0  0  0
  7 10  2  0  0  0  0
  7 19  1  0  0  0  0
  8 25  1  0  0  0  0
  9 25  2  0  0  0  0
 10 26  1  0  0  0  0
 11 12  2  0  0  0  0
 11 27  1  0  0  0  0
 12 28  1  0  0  0  0
 13 21  1  0  0  0  0
 13 26  2  0  0  0  0
 14 22  1  0  0  0  0
 14 30  2  0  0  0  0
 15 28  2  0  0  0  0
 15 29  1  0  0  0  0
 16 32  1  0  0  0  0
 17 32  1  0  0  0  0
 17 33  2  0  0  0  0
 17 34  1  0  0  0  0
 18 20  2  0  0  0  0
 18 39  1  0  0  0  0
 19 21  2  0  0  0  0
 19 40  1  0  0  0  0
 20 48  1  0  0  0  0
 21 41  1  0  0  0  0
 22 31  2  0  0  0  0
 22 57  1  0  0  0  0
 23 24  2  0  0  0  0
 23 30  1  0  0  0  0
 23 51  1  0  0  0  0
 24 31  1  0  0  0  0
 24 68  1  0  0  0  0
 25 77  1  0  0  0  0
 26 78  1  0  0  0  0
 27 29  2  0  0  0  0
 27 77  1  0  0  0  0
 28 79  1  0  0  0  0
 29 80  1  0  0  0  0
 30 81  1  0  0  0  0
 31 82  1  0  0  0  0
 32 62  2  0  0  0  0
 33 63  1  0  0  0  0
 33 66  1  0  0  0  0
 34 67  1  0  0  0  0
 34 72  2  0  0  0  0
 35 49  1  0  0  0  0
 35 69  1  0  0  0  0
 35 73  2  0  0  0  0
 36 59  1  0  0  0  0
 36 64  1  0  0  0  0
 36 74  2  0  0  0  0
 37 60  1  0  0  0  0
 37 70  1  0  0  0  0
 37 75  2  0  0  0  0
 38 65  1  0  0  0  0
 38 68  1  0  0  0  0
 38 76  2  0  0  0  0
 39 42  1  0  0  0  0
 40 49  1  0  0  0  0
 41 64  1  0  0  0  0
 42 44  1  0  0  0  0
 43 45  1  0  0  0  0
 43 46  1  0  0  0  0
 44 48  1  0  0  0  0
 45 50  1  0  0  0  0
 46 65  1  0  0  0  0
 47 50  1  0  0  0  0
 47 65  1  0  0  0  0
 48 69  1  0  0  0  0
 49 64  1  0  0  0  0
 50 63  1  0  0  0  0
 52 60  1  0  0  0  0
 53 61  1  0  0  0  0
 54 61  1  0  0  0  0
 55 61  1  0  0  0  0
 56 71  1  0  0  0  0
 57 58  1  0  0  0  0
 58 78  1  0  0  0  0
 59 61  1  0  0  0  0
 59 70  1  0  0  0  0
 60 71  1  0  0  0  0
 62 63  1  0  0  0  0
M  CHG  1  71   1
M  ISO  4  38 100  58 101  68 100  78 101
M  END
> <Batch ID>
0021

> <Smiles>
CNC(C)C(=O)NC(C(=O)N1Cc2cc([101O:1][101CH2:1]Cc3cc(Cl)c(C)c([100NH:0][100C:0](=O)N4CCCC(n5nc(-c6ccc(Oc7ccc(F)cc7F)cc6)c(C(N)=O)c5N)C4)c3Cl)ccc2CC1C(=O)NC1CCCc2ccccc21)C(C)(C)C

> <Shape>
0.245

> <Color>
0.081

> <Negative vol penalty>
0.000

$$$$

  -OEChem-04052316123D

 84 92  0     1  0  0  0  0  0999 V2000
  -27.2842  -19.2996   38.7685 C   0  0  0  0  0  0  0  0  0  0  0  0
  -27.8102  -18.9300   37.5347 C   0  0  0  0  0  0  0  0  0  0  0  0
  -23.0764   -9.8672   19.9388 C   0  0  0  0  0  0  0  0  0  0  0  0
  -23.8352   -9.8736   22.2325 C   0  0  0  0  0  0  0  0  0  0  0  0
  -26.4399  -20.4052   38.8621 C   0  0  0  0  0  0  0  0  0  0  0  0
  -27.4912  -19.6651   36.3936 C   0  0  0  0  0  0  0  0  0  0  0  0
  -31.1320  -20.7832   31.5977 C   0  0  0  0  0  0  0  0  0  0  0  0
  -22.3323   -8.7141   20.1881 C   0  0  0  0  0  0  0  0  0  0  0  0
  -23.0910   -8.7205   22.4819 C   0  0  0  0  0  0  0  0  0  0  0  0
  -31.2403  -20.1854   30.3428 C   0  0  0  0  0  0  0  0  0  0  0  0
  -19.8624   -7.9230   23.0827 C   0  0  0  0  0  0  0  0  0  0  0  0
  -19.1049   -7.8829   24.2532 C   0  0  0  0  0  0  0  0  0  0  0  0
  -29.8015  -21.8852   29.4155 C   0  0  0  0  0  0  0  0  0  0  0  0
  -32.2322  -18.2137   23.1522 C   0  0  0  0  0  0  0  0  0  0  0  0
  -20.3457   -5.9452   24.9899 C   0  0  0  0  0  0  0  0  0  0  0  0
  -23.8279  -10.4469   20.9610 C   0  0  0  0  0  0  0  0  0  0  0  0
  -24.1701  -12.9720   20.8416 C   0  0  0  0  0  0  0  0  0  0  0  0
  -26.1181  -21.1600   37.7230 C   0  0  0  0  0  0  0  0  0  0  0  0
  -30.3474  -21.9321   31.7734 C   0  0  0  0  0  0  0  0  0  0  0  0
  -26.6407  -20.7810   36.4718 C   0  0  0  0  0  0  0  0  0  0  0  0
  -29.6869  -22.4971   30.6731 C   0  0  0  0  0  0  0  0  0  0  0  0
  -31.5613  -19.3912   22.8223 C   0  0  0  0  0  0  0  0  0  0  0  0
  -30.4025  -19.3401   22.0476 C   0  0  0  0  0  0  0  0  0  0  0  0
  -29.9146  -18.1113   21.6027 C   0  0  0  0  0  0  0  0  0  0  0  0
  -30.5856  -16.9338   21.9325 C   0  0  0  0  0  0  0  0  0  0  0  0
  -22.3395   -8.1407   21.4597 C   0  0  0  0  0  0  0  0  0  0  0  0
  -30.5728  -20.7347   29.2521 C   0  0  0  0  0  0  0  0  0  0  0  0
  -20.8616   -6.9741   22.8657 C   0  0  0  0  0  0  0  0  0  0  0  0
  -19.3465   -6.8940   25.2068 C   0  0  0  0  0  0  0  0  0  0  0  0
  -21.1032   -5.9852   23.8193 C   0  0  0  0  0  0  0  0  0  0  0  0
  -31.7444  -16.9849   22.7072 C   0  0  0  0  0  0  0  0  0  0  0  0
  -24.5973  -11.6377   20.7038 C   0  0  0  0  0  0  0  0  0  0  0  0
  -25.2625  -13.7215   20.4790 C   0  0  0  0  0  0  0  0  0  0  0  0
  -22.8995  -13.4879   21.2600 C   0  0  0  0  0  0  0  0  0  0  0  0
  -27.7679  -22.6463   33.4880 C   0  0  0  0  0  0  0  0  0  0  0  0
  -28.3424  -25.6421   32.3847 C   0  0  0  0  0  0  0  0  0  0  0  0
  -29.7479  -27.6283   29.9917 C   0  0  0  0  0  0  0  0  0  0  0  0
  -30.7288  -14.7663   20.6566 C   0  0  0  0  0  0  0  0  0  0  0  0
  -25.1634  -22.3188   37.8660 C   0  0  0  0  0  0  0  0  0  0  0  0
  -30.2623  -22.5803   33.1280 C   0  0  0  0  0  0  0  0  0  0  0  0
  -28.8484  -23.7413   30.8047 C   0  0  0  0  0  0  0  0  0  0  0  0
  -25.1743  -23.2680   36.6705 C   0  0  0  0  0  0  0  0  0  0  0  0
  -29.6152  -12.3531   18.2873 C   0  0  0  0  0  0  0  0  0  0  0  0
  -25.1157  -22.4821   35.3644 C   0  0  0  0  0  0  0  0  0  0  0  0
  -28.1753  -12.0616   18.7161 C   0  0  0  0  0  0  0  0  0  0  0  0
  -30.5298  -12.5816   19.4894 C   0  0  0  0  0  0  0  0  0  0  0  0
  -28.6222  -13.3060   20.8699 C   0  0  0  0  0  0  0  0  0  0  0  0
  -26.3379  -21.5681   35.2152 C   0  0  1  0  0  0  0  0  0  0  0  0
  -29.0216  -23.4520   33.2965 C   0  0  1  0  0  0  0  0  0  0  0  0
  -27.6500  -13.1331   19.6916 C   0  0  2  0  0  0  0  0  0  0  0  0
  -29.6855  -20.6050   21.6949 C   0  0  0  0  0  0  0  0  0  0  0  0
  -28.6702  -18.0635   20.7715 C   0  0  0  0  0  0  0  0  0  0  0  0
  -30.0184  -30.0366   29.3401 C   0  0  0  0  0  0  0  0  0  0  0  0
  -25.4568  -25.6958   31.3944 C   0  0  0  0  0  0  0  0  0  0  0  0
  -26.0585  -27.6586   29.9614 C   0  0  0  0  0  0  0  0  0  0  0  0
  -26.2395  -27.8267   32.4437 C   0  0  0  0  0  0  0  0  0  0  0  0
  -32.6964  -27.4727   30.1954 C   0  0  0  0  0  0  0  0  0  0  0  0
  -32.1097  -20.7060   23.3168 C   0  0  0  0  0  0  0  0  0  0  0  0
  -31.3339  -21.2946   24.5004 C   0  0  0  0  0  0  0  0  0  0  0  0
  -31.3878  -20.4134   25.7492 C   0  0  0  0  0  0  0  0  0  0  0  0
  -30.5744  -21.0099   26.8899 C   0  0  0  0  0  0  0  0  0  1  0  0
  -27.9210  -26.4331   31.1699 C   0  0  1  0  0  0  0  0  0  0  0  0
  -30.6242  -28.8636   30.0952 C   0  0  2  0  0  0  0  0  0  0  0  0
  -26.4331  -26.8790   31.2399 C   0  0  0  0  0  0  0  0  0  0  0  0
  -25.8623  -11.5418   20.2861 N   0  0  0  0  0  0  0  0  0  0  0  0
  -26.2395  -12.8254   20.1583 N   0  0  0  0  0  0  0  0  0  0  0  0
  -28.7912  -24.3345   32.1509 N   0  0  0  0  0  0  0  0  0  0  0  0
  -29.9705  -13.6123   20.3668 N   0  0  0  0  0  0  0  0  0  0  0  0
  -25.4732  -15.0529   20.4064 N   0  0  0  0  0  0  0  0  0  0  0  0
  -21.8873  -12.5788   21.5966 N   0  0  0  0  0  0  0  0  0  0  0  0
  -30.0811  -15.6913   21.4749 N   0  0  0  0  0  0  0  0  0  0  0  0
  -27.4953  -22.3346   34.8063 N   0  0  0  0  0  0  0  0  0  0  0  0
  -28.8699  -27.5348   31.0508 N   0  0  0  0  0  0  0  0  0  0  0  0
  -31.9757  -28.5888   29.5306 N   0  3  0  0  0  0  0  0  0  0  0  0
  -22.6634  -14.7186   21.3175 O   0  0  0  0  0  0  0  0  0  0  0  0
  -27.0967  -22.3320   32.5121 O   0  0  0  0  0  0  0  0  0  0  0  0
  -28.2825  -26.1676   33.4991 O   0  0  0  0  0  0  0  0  0  0  0  0
  -29.8313  -26.8285   29.0623 O   0  0  0  0  0  0  0  0  0  0  0  0
  -31.8581  -14.9350   20.1896 O   0  0  0  0  0  0  0  0  0  0  0  0
  -21.6133   -7.0157   21.7034 O   0  0  0  0  0  0  0  0  0  0  0  0
  -30.6763  -20.1529   28.0263 O   0  0  0  0  0  0  0  0  0  1  0  0
  -18.6200   -6.8566   26.3315 F   0  0  0  0  0  0  0  0  0  0  0  0
  -22.0625   -5.0716   23.6170 F   0  0  0  0  0  0  0  0  0  0  0  0
  -32.6091  -15.5525   23.1406 Cl  0  0  0  0  0  0  0  0  0  0  0  0
  1  2  1  0  0  0  0
  1  5  2  0  0  0  0
  2  6  2  0  0  0  0
  3  8  2  0  0  0  0
  3 16  1  0  0  0  0
  4  9  1  0  0  0  0
  4 16  2  0  0  0  0
  5 18  1  0  0  0  0
  6 20  1  0  0  0  0
  7 10  2  0  0  0  0
  7 19  1  0  0  0  0
  8 26  1  0  0  0  0
  9 26  2  0  0  0  0
 10 27  1  0  0  0  0
 11 12  2  0  0  0  0
 11 28  1  0  0  0  0
 12 29  1  0  0  0  0
 13 21  1  0  0  0  0
 13 27  2  0  0  0  0
 14 22  1  0  0  0  0
 14 31  2  0  0  0  0
 15 29  2  0  0  0  0
 15 30  1  0  0  0  0
 16 32  1  0  0  0  0
 17 32  1  0  0  0  0
 17 33  2  0  0  0  0
 17 34  1  0  0  0  0
 18 20  2  0  0  0  0
 18 39  1  0  0  0  0
 19 21  2  0  0  0  0
 19 40  1  0  0  0  0
 20 48  1  0  0  0  0
 21 41  1  0  0  0  0
 22 23  2  0  0  0  0
 22 58  1  0  0  0  0
 23 24  1  0  0  0  0
 23 51  1  0  0  0  0
 24 25  2  0  0  0  0
 24 52  1  0  0  0  0
 25 31  1  0  0  0  0
 25 71  1  0  0  0  0
 26 80  1  0  0  0  0
 27 81  1  0  0  0  0
 28 30  2  0  0  0  0
 28 80  1  0  0  0  0
 29 82  1  0  0  0  0
 30 83  1  0  0  0  0
 31 84  1  0  0  0  0
 32 65  2  0  0  0  0
 33 66  1  0  0  0  0
 33 69  1  0  0  0  0
 34 70  1  0  0  0  0
 34 75  2  0  0  0  0
 35 49  1  0  0  0  0
 35 72  1  0  0  0  0
 35 76  2  0  0  0  0
 36 62  1  0  0  0  0
 36 67  1  0  0  0  0
 36 77  2  0  0  0  0
 37 63  1  0  0  0  0
 37 73  1  0  0  0  0
 37 78  2  0  0  0  0
 38 68  1  0  0  0  0
 38 71  1  0  0  0  0
 38 79  2  0  0  0  0
 39 42  1  0  0  0  0
 40 49  1  0  0  0  0
 41 67  1  0  0  0  0
 42 44  1  0  0  0  0
 43 45  1  0  0  0  0
 43 46  1  0  0  0  0
 44 48  1  0  0  0  0
 45 50  1  0  0  0  0
 46 68  1  0  0  0  0
 47 50  1  0  0  0  0
 47 68  1  0  0  0  0
 48 72  1  0  0  0  0
 49 67  1  0  0  0  0
 50 66  1  0  0  0  0
 53 63  1  0  0  0  0
 54 64  1  0  0  0  0
 55 64  1  0  0  0  0
 56 64  1  0  0  0  0
 57 74  1  0  0  0  0
 58 59  1  0  0  0  0
 59 60  1  0  0  0  0
 60 61  1  0  0  0  0
 61 81  1  0  0  0  0
 62 64  1  0  0  0  0
 62 73  1  0  0  0  0
 63 74  1  0  0  0  0
 65 66  1  0  0  0  0
M  CHG  1  74   1
M  ISO  4  38 100  61 101  71 100  81 101
M  END
> <Batch ID>
0021

> <Smiles>
CNC(C)C(=O)NC(C(=O)N1Cc2cc([101O:1][101CH2:1]CCCc3cc(Cl)c([100NH:0][100C:0](=O)N4CCCC(n5nc(-c6ccc(Oc7ccc(F)cc7F)cc6)c(C(N)=O)c5N)C4)c(C)c3C)ccc2CC1C(=O)NC1CCCc2ccccc21)C(C)(C)C

> <Shape>
0.183

> <Color>
0.200

> <Negative vol penalty>
0.000

$$$$

  -OEChem-04052316123D

 81 89  0     1  0  0  0  0  0999 V2000
  -28.1496  -37.0333   21.2706 C   0  0  0  0  0  0  0  0  0  0  0  0
  -28.5492  -35.7141   21.0823 C   0  0  0  0  0  0  0  0  0  0  0  0
  -26.8721  -12.7094   21.7983 C   0  0  0  0  0  0  0  0  0  0  0  0
  -26.2247  -14.3159   20.1140 C   0  0  0  0  0  0  0  0  0  0  0  0
  -27.0352  -37.3170   22.0589 C   0  0  0  0  0  0  0  0  0  0  0  0
  -27.8352  -34.6779   21.6831 C   0  0  0  0  0  0  0  0  0  0  0  0
  -26.8478  -29.0810   19.4014 C   0  0  0  0  0  0  0  0  0  0  0  0
  -25.5543  -12.2588   21.8751 C   0  0  0  0  0  0  0  0  0  0  0  0
  -24.9068  -13.8653   20.1908 C   0  0  0  0  0  0  0  0  0  0  0  0
  -27.4724  -27.8543   19.6226 C   0  0  0  0  0  0  0  0  0  0  0  0
  -22.4296  -10.4401   22.2541 C   0  0  0  0  0  0  0  0  0  0  0  0
  -22.2157   -9.0619   22.2760 C   0  0  0  0  0  0  0  0  0  0  0  0
  -25.7800  -27.2924   21.2472 C   0  0  0  0  0  0  0  0  0  0  0  0
  -30.3461  -22.6446   21.9249 C   0  0  0  0  0  0  0  0  0  0  0  0
  -23.2894   -8.8611   20.1210 C   0  0  0  0  0  0  0  0  0  0  0  0
  -27.2073  -13.7380   20.9178 C   0  0  0  0  0  0  0  0  0  0  0  0
  -29.5834  -13.7238   19.9897 C   0  0  0  0  0  0  0  0  0  0  0  0
  -26.3014  -36.2832   22.6618 C   0  0  0  0  0  0  0  0  0  0  0  0
  -25.6888  -29.4277   20.1107 C   0  0  0  0  0  0  0  0  0  0  0  0
  -26.7107  -34.9482   22.4813 C   0  0  0  0  0  0  0  0  0  0  0  0
  -25.1412  -28.5230   21.0314 C   0  0  0  0  0  0  0  0  0  0  0  0
  -29.8771  -23.9145   21.5888 C   0  0  0  0  0  0  0  0  0  0  0  0
  -29.2285  -24.1186   20.3708 C   0  0  0  0  0  0  0  0  0  0  0  0
  -29.0490  -23.0528   19.4890 C   0  0  0  0  0  0  0  0  0  0  0  0
  -30.1666  -21.5788   21.0431 C   0  0  0  0  0  0  0  0  0  0  0  0
  -24.5716  -12.8367   21.0713 C   0  0  0  0  0  0  0  0  0  0  0  0
  -26.9402  -26.9610   20.5477 C   0  0  0  0  0  0  0  0  0  0  0  0
  -23.0733  -11.0288   21.1657 C   0  0  0  0  0  0  0  0  0  0  0  0
  -22.6456   -8.2724   21.2095 C   0  0  0  0  0  0  0  0  0  0  0  0
  -23.5033  -10.2393   20.0992 C   0  0  0  0  0  0  0  0  0  0  0  0
  -29.5180  -21.7829   19.8252 C   0  0  0  0  0  0  0  0  0  0  0  0
  -28.5683  -14.2043   20.8385 C   0  0  0  0  0  0  0  0  0  0  0  0
  -30.6804  -14.4905   20.2981 C   0  0  0  0  0  0  0  0  0  0  0  0
  -29.5387  -12.6779   19.0099 C   0  0  0  0  0  0  0  0  0  0  0  0
  -24.9174  -31.7338   22.1577 C   0  0  0  0  0  0  0  0  0  0  0  0
  -21.9500  -30.4533   21.8791 C   0  0  0  0  0  0  0  0  0  0  0  0
  -20.0259  -27.7351   21.1337 C   0  0  0  0  0  0  0  0  0  0  0  0
  -31.3159  -19.9673   22.6015 C   0  0  0  0  0  0  0  0  0  0  0  0
  -25.1318  -36.6420   23.5439 C   0  0  0  0  0  0  0  0  0  0  0  0
  -25.0120  -30.7437   19.8411 C   0  0  0  0  0  0  0  0  0  0  0  0
  -23.8875  -28.8389   21.8038 C   0  0  0  0  0  0  0  0  0  0  0  0
  -24.2078  -35.4634   23.8395 C   0  0  0  0  0  0  0  0  0  0  0  0
  -32.6415  -16.9365   23.9183 C   0  0  0  0  0  0  0  0  0  0  0  0
  -25.0200  -34.2346   24.2357 C   0  0  0  0  0  0  0  0  0  0  0  0
  -31.8440  -15.8481   23.1962 C   0  0  0  0  0  0  0  0  0  0  0  0
  -31.7774  -18.1550   24.2379 C   0  0  0  0  0  0  0  0  0  0  0  0
  -30.2586  -17.6341   22.3694 C   0  0  0  0  0  0  0  0  0  0  0  0
  -25.9473  -33.7952   23.0961 C   0  0  1  0  0  0  0  0  0  0  0  0
  -24.1265  -31.2073   20.9937 C   0  0  1  0  0  0  0  0  0  0  0  0
  -31.1027  -16.4132   21.9687 C   0  0  2  0  0  0  0  0  0  0  0  0
  -30.0829  -25.0391   22.5505 C   0  0  0  0  0  0  0  0  0  0  0  0
  -28.3518  -23.2933   18.1855 C   0  0  0  0  0  0  0  0  0  0  0  0
  -17.6341  -26.9824   21.0338 C   0  0  0  0  0  0  0  0  0  0  0  0
  -21.8924  -30.2406   24.9224 C   0  0  0  0  0  0  0  0  0  0  0  0
  -19.9649  -28.6576   24.7056 C   0  0  0  0  0  0  0  0  0  0  0  0
  -19.7469  -31.0047   23.8892 C   0  0  0  0  0  0  0  0  0  0  0  0
  -20.2023  -27.1740   18.2332 C   0  0  0  0  0  0  0  0  0  0  0  0
  -28.7280  -25.4869   20.0123 C   0  0  0  0  0  0  0  0  0  1  0  0
  -21.1808  -29.3712   22.5978 C   0  0  1  0  0  0  0  0  0  0  0  0
  -18.7962  -27.5813   20.2570 C   0  0  2  0  0  0  0  0  0  0  0  0
  -20.7210  -29.8131   24.0158 C   0  0  0  0  0  0  0  0  0  0  0  0
  -28.9835  -15.1992   21.6270 N   0  0  0  0  0  0  0  0  0  0  0  0
  -30.2718  -15.3500   21.2751 N   0  0  0  0  0  0  0  0  0  0  0  0
  -23.2660  -30.1408   21.5097 N   0  0  0  0  0  0  0  0  0  0  0  0
  -31.1096  -18.6380   23.0272 N   0  0  0  0  0  0  0  0  0  0  0  0
  -31.9452  -14.5066   19.8263 N   0  0  0  0  0  0  0  0  0  0  0  0
  -28.3316  -11.9914   18.8202 N   0  0  0  0  0  0  0  0  0  0  0  0
  -30.6555  -20.3035   21.4202 N   0  0  0  0  0  0  0  0  0  0  0  0
  -25.1993  -33.0844   22.0814 N   0  0  0  0  0  0  0  0  0  0  0  0
  -20.0900  -28.9867   21.7086 N   0  0  0  0  0  0  0  0  0  0  0  0
  -19.0942  -26.6932   19.0979 N   0  3  0  0  0  0  0  0  0  0  0  0
  -30.5439  -12.3505   18.3347 O   0  0  0  0  0  0  0  0  0  0  0  0
  -25.2461  -30.9716   23.0591 O   0  0  0  0  0  0  0  0  0  0  0  0
  -21.4011  -31.5334   21.6476 O   0  0  0  0  0  0  0  0  0  0  0  0
  -20.8455  -26.8336   21.2955 O   0  0  0  0  0  0  0  0  0  0  0  0
  -32.0478  -20.7417   23.2233 O   0  0  0  0  0  0  0  0  0  0  0  0
  -23.2857  -12.3971   21.1458 O   0  0  0  0  0  0  0  0  0  0  0  0
  -27.5482  -25.7633   20.7659 O   0  0  0  0  0  0  0  0  0  1  0  0
  -22.4415   -6.9488   21.2313 F   0  0  0  0  0  0  0  0  0  0  0  0
  -24.1234  -10.7990   19.0513 F   0  0  0  0  0  0  0  0  0  0  0  0
  -29.2928  -20.4585   18.7282 Cl  0  0  0  0  0  0  0  0  0  0  0  0
  1  2  1  0  0  0  0
  1  5  2  0  0  0  0
  2  6  2  0  0  0  0
  3  8  2  0  0  0  0
  3 16  1  0  0  0  0
  4  9  1  0  0  0  0
  4 16  2  0  0  0  0
  5 18  1  0  0  0  0
  6 20  1  0  0  0  0
  7 10  2  0  0  0  0
  7 19  1  0  0  0  0
  8 26  1  0  0  0  0
  9 26  2  0  0  0  0
 10 27  1  0  0  0  0
 11 12  2  0  0  0  0
 11 28  1  0  0  0  0
 12 29  1  0  0  0  0
 13 21  1  0  0  0  0
 13 27  2  0  0  0  0
 14 22  2  0  0  0  0
 14 25  1  0  0  0  0
 15 29  2  0  0  0  0
 15 30  1  0  0  0  0
 16 32  1  0  0  0  0
 17 32  1  0  0  0  0
 17 33  2  0  0  0  0
 17 34  1  0  0  0  0
 18 20  2  0  0  0  0
 18 39  1  0  0  0  0
 19 21  2  0  0  0  0
 19 40  1  0  0  0  0
 20 48  1  0  0  0  0
 21 41  1  0  0  0  0
 22 23  1  0  0  0  0
 22 51  1  0  0  0  0
 23 24  2  0  0  0  0
 23 58  1  0  0  0  0
 24 31  1  0  0  0  0
 24 52  1  0  0  0  0
 25 31  2  0  0  0  0
 25 68  1  0  0  0  0
 26 77  1  0  0  0  0
 27 78  1  0  0  0  0
 28 30  2  0  0  0  0
 28 77  1  0  0  0  0
 29 79  1  0  0  0  0
 30 80  1  0  0  0  0
 31 81  1  0  0  0  0
 32 62  2  0  0  0  0
 33 63  1  0  0  0  0
 33 66  1  0  0  0  0
 34 67  1  0  0  0  0
 34 72  2  0  0  0  0
 35 49  1  0  0  0  0
 35 69  1  0  0  0  0
 35 73  2  0  0  0  0
 36 59  1  0  0  0  0
 36 64  1  0  0  0  0
 36 74  2  0  0  0  0
 37 60  1  0  0  0  0
 37 70  1  0  0  0  0
 37 75  2  0  0  0  0
 38 65  1  0  0  0  0
 38 68  1  0  0  0  0
 38 76  2  0  0  0  0
 39 42  1  0  0  0  0
 40 49  1  0  0  0  0
 41 64  1  0  0  0  0
 42 44  1  0  0  0  0
 43 45  1  0  0  0  0
 43 46  1  0  0  0  0
 44 48  1  0  0  0  0
 45 50  1  0  0  0  0
 46 65  1  0  0  0  0
 47 50  1  0  0  0  0
 47 65  1  0  0  0  0
 48 69  1  0  0  0  0
 49 64  1  0  0  0  0
 50 63  1  0  0  0  0
 53 60  1  0  0  0  0
 54 61  1  0  0  0  0
 55 61  1  0  0  0  0
 56 61  1  0  0  0  0
 57 71  1  0  0  0  0
 58 78  1  0  0  0  0
 59 61  1  0  0  0  0
 59 70  1  0  0  0  0
 60 71  1  0  0  0  0
 62 63  1  0  0  0  0
M  CHG  1  71   1
M  ISO  4  38 100  58 101  68 100  78 101
M  END
> <Batch ID>
0021

> <Smiles>
CNC(C)C(=O)NC(C(=O)N1Cc2cc([101O:1][101CH2:1]c3c(C)cc([100NH:0][100C:0](=O)N4CCCC(n5nc(-c6ccc(Oc7ccc(F)cc7F)cc6)c(C(N)=O)c5N)C4)c(Cl)c3C)ccc2CC1C(=O)NC1CCCc2ccccc21)C(C)(C)C

> <Shape>
0.349

> <Color>
0.081

> <Negative vol penalty>
0.000

$$$$

  -OEChem-04052316123D

 78 86  0     1  0  0  0  0  0999 V2000
  -32.3916  -26.4666   16.0612 C   0  0  0  0  0  0  0  0  0  0  0  0
  -31.4784  -25.7946   16.8673 C   0  0  0  0  0  0  0  0  0  0  0  0
  -22.8351   -9.9239   20.1558 C   0  0  0  0  0  0  0  0  0  0  0  0
  -24.4679   -9.1866   21.7768 C   0  0  0  0  0  0  0  0  0  0  0  0
  -32.8396  -27.7356   16.4255 C   0  0  0  0  0  0  0  0  0  0  0  0
  -31.0133  -26.3909   18.0389 C   0  0  0  0  0  0  0  0  0  0  0  0
  -26.0042  -25.9108   18.6073 C   0  0  0  0  0  0  0  0  0  0  0  0
  -21.8545   -9.1702   20.8007 C   0  0  0  0  0  0  0  0  0  0  0  0
  -23.4872   -8.4329   22.4217 C   0  0  0  0  0  0  0  0  0  0  0  0
  -25.5294  -24.6787   19.0545 C   0  0  0  0  0  0  0  0  0  0  0  0
  -21.9299   -5.4655   21.9742 C   0  0  0  0  0  0  0  0  0  0  0  0
  -22.2574   -4.1634   22.3519 C   0  0  0  0  0  0  0  0  0  0  0  0
  -25.3241  -25.5742   21.2850 C   0  0  0  0  0  0  0  0  0  0  0  0
  -21.8236   -4.7243   24.6616 C   0  0  0  0  0  0  0  0  0  0  0  0
  -24.1419   -9.9321   20.6438 C   0  0  0  0  0  0  0  0  0  0  0  0
  -25.5895  -10.5779   18.6451 C   0  0  0  0  0  0  0  0  0  0  0  0
  -32.3725  -28.3518   17.5971 C   0  0  0  0  0  0  0  0  0  0  0  0
  -26.1532  -26.9826   19.4992 C   0  0  0  0  0  0  0  0  0  0  0  0
  -31.4565  -27.6689   18.4199 C   0  0  0  0  0  0  0  0  0  0  0  0
  -25.7987  -26.8197   20.8461 C   0  0  0  0  0  0  0  0  0  0  0  0
  -22.1805   -8.4247   21.9337 C   0  0  0  0  0  0  0  0  0  0  0  0
  -25.1920  -24.5093   20.3941 C   0  0  0  0  0  0  0  0  0  0  0  0
  -21.5494   -6.3972   22.9401 C   0  0  0  0  0  0  0  0  0  0  0  0
  -22.2042   -3.7927   23.6956 C   0  0  0  0  0  0  0  0  0  0  0  0
  -21.4962   -6.0265   24.2838 C   0  0  0  0  0  0  0  0  0  0  0  0
  -25.1554  -10.7100   19.9778 C   0  0  0  0  0  0  0  0  0  0  0  0
  -26.5582  -11.5411   18.5025 C   0  0  0  0  0  0  0  0  0  0  0  0
  -25.1557   -9.6662   17.6271 C   0  0  0  0  0  0  0  0  0  0  0  0
  -27.5263  -16.6991   21.4444 C   0  0  0  0  0  0  0  0  0  0  0  0
  -28.6064  -28.7271   20.5199 C   0  0  0  0  0  0  0  0  0  0  0  0
  -26.2752  -30.4382   21.9895 C   0  0  0  0  0  0  0  0  0  0  0  0
  -23.1112  -30.5238   23.2658 C   0  0  0  0  0  0  0  0  0  0  0  0
  -32.9216  -29.7050   17.9741 C   0  0  0  0  0  0  0  0  0  0  0  0
  -26.6414  -28.3131   18.9956 C   0  0  0  0  0  0  0  0  0  0  0  0
  -25.9210  -27.9447   21.8399 C   0  0  0  0  0  0  0  0  0  0  0  0
  -32.0946  -30.4232   19.0375 C   0  0  0  0  0  0  0  0  0  0  0  0
  -29.8320  -13.9694   20.9922 C   0  0  0  0  0  0  0  0  0  0  0  0
  -31.7546  -29.4729   20.1812 C   0  0  0  0  0  0  0  0  0  0  0  0
  -24.2149  -17.8725   21.5837 C   0  0  0  0  0  0  0  0  0  0  0  0
  -28.9277  -12.8045   20.5921 C   0  0  0  0  0  0  0  0  0  0  0  0
  -24.9131  -16.5062   21.7108 C   0  0  0  0  0  0  0  0  0  0  0  0
  -29.1434  -14.8935   21.9917 C   0  0  0  0  0  0  0  0  0  0  0  0
  -26.9155  -14.2523   21.1213 C   0  0  0  0  0  0  0  0  0  0  0  0
  -30.9099  -28.2929   19.6856 C   0  0  1  0  0  0  0  0  0  0  0  0
  -27.2399  -29.1851   20.0951 C   0  0  1  0  0  0  0  0  0  0  0  0
  -25.6083  -18.5062   21.3684 C   0  0  1  0  0  0  0  0  0  0  0  0
  -27.5640  -13.3116   20.0905 C   0  0  2  0  0  0  0  0  0  0  0  0
  -26.1191  -17.0872   20.9027 C   0  0  1  0  0  0  0  0  0  0  0  0
  -26.0187  -16.7842   19.4049 C   0  0  0  0  0  0  0  0  0  0  0  0
  -21.4998  -32.0506   24.4361 C   0  0  0  0  0  0  0  0  0  0  0  0
  -27.8158  -30.0621   24.5962 C   0  0  0  0  0  0  0  0  0  0  0  0
  -25.7505  -30.7474   25.8344 C   0  0  0  0  0  0  0  0  0  0  0  0
  -26.8552  -32.3484   24.2727 C   0  0  0  0  0  0  0  0  0  0  0  0
  -21.1553  -30.3465   21.0518 C   0  0  0  0  0  0  0  0  0  0  0  0
  -25.6753  -19.6808   20.4109 C   0  0  0  0  0  0  0  0  0  0  0  0
  -25.1884  -20.9519   21.0994 C   0  0  0  0  0  0  0  0  0  0  0  0
  -25.1944  -22.1435   20.1518 C   0  0  0  0  0  0  0  0  0  1  0  0
  -25.5867  -30.3744   23.3314 C   0  0  1  0  0  0  0  0  0  0  0  0
  -21.9823  -31.5239   23.0935 C   0  0  2  0  0  0  0  0  0  0  0  0
  -26.5014  -30.8611   24.4906 C   0  0  0  0  0  0  0  0  0  0  0  0
  -25.7960  -11.6804   20.6350 N   0  0  0  0  0  0  0  0  0  0  0  0
  -26.6425  -12.1669   19.7114 N   0  0  0  0  0  0  0  0  0  0  0  0
  -27.8382  -15.3315   21.4941 N   0  0  0  0  0  0  0  0  0  0  0  0
  -26.4090  -29.2246   21.3003 N   0  0  0  0  0  0  0  0  0  0  0  0
  -27.3378  -11.9053   17.4623 N   0  0  0  0  0  0  0  0  0  0  0  0
  -25.8106   -8.4325   17.5120 N   0  0  0  0  0  0  0  0  0  0  0  0
  -29.5343  -28.7005   19.4962 N   0  0  0  0  0  0  0  0  0  0  0  0
  -24.3471  -31.1307   23.1906 N   0  0  0  0  0  0  0  0  0  0  0  0
  -20.8289  -30.8881   22.3961 N   0  3  0  0  0  0  0  0  0  0  0  0
  -24.2261   -9.9443   16.8322 O   0  0  0  0  0  0  0  0  0  0  0  0
  -28.3218  -17.5776   21.8103 O   0  0  0  0  0  0  0  0  0  0  0  0
  -28.8048  -28.4220   21.6900 O   0  0  0  0  0  0  0  0  0  0  0  0
  -26.6730  -31.5260   21.5650 O   0  0  0  0  0  0  0  0  0  0  0  0
  -22.9162  -29.3248   23.4523 O   0  0  0  0  0  0  0  0  0  0  0  0
  -21.2238   -7.6893   22.5633 O   0  0  0  0  0  0  0  0  0  0  0  0
  -24.7289  -23.3075   20.8335 O   0  0  0  0  0  0  0  0  0  1  0  0
  -22.5172   -2.5418   24.0581 F   0  0  0  0  0  0  0  0  0  0  0  0
  -21.1302   -6.9168   25.2161 F   0  0  0  0  0  0  0  0  0  0  0  0
  1  2  1  0  0  0  0
  1  5  2  0  0  0  0
  2  6  2  0  0  0  0
  3  8  2  0  0  0  0
  3 15  1  0  0  0  0
  4  9  1  0  0  0  0
  4 15  2  0  0  0  0
  5 17  1  0  0  0  0
  6 19  1  0  0  0  0
  7 10  2  0  0  0  0
  7 18  1  0  0  0  0
  8 21  1  0  0  0  0
  9 21  2  0  0  0  0
 10 22  1  0  0  0  0
 11 12  2  0  0  0  0
 11 23  1  0  0  0  0
 12 24  1  0  0  0  0
 13 20  1  0  0  0  0
 13 22  2  0  0  0  0
 14 24  2  0  0  0  0
 14 25  1  0  0  0  0
 15 26  1  0  0  0  0
 16 26  1  0  0  0  0
 16 27  2  0  0  0  0
 16 28  1  0  0  0  0
 17 19  2  0  0  0  0
 17 33  1  0  0  0  0
 18 20  2  0  0  0  0
 18 34  1  0  0  0  0
 19 44  1  0  0  0  0
 20 35  1  0  0  0  0
 21 75  1  0  0  0  0
 22 76  1  0  0  0  0
 23 25  2  0  0  0  0
 23 75  1  0  0  0  0
 24 77  1  0  0  0  0
 25 78  1  0  0  0  0
 26 61  2  0  0  0  0
 27 62  1  0  0  0  0
 27 65  1  0  0  0  0
 28 66  1  0  0  0  0
 28 70  2  0  0  0  0
 29 48  1  0  0  0  0
 29 63  1  0  0  0  0
 29 71  2  0  0  0  0
 30 45  1  0  0  0  0
 30 67  1  0  0  0  0
 30 72  2  0  0  0  0
 31 58  1  0  0  0  0
 31 64  1  0  0  0  0
 31 73  2  0  0  0  0
 32 59  1  0  0  0  0
 32 68  1  0  0  0  0
 32 74  2  0  0  0  0
 33 36  1  0  0  0  0
 34 45  1  0  0  0  0
 35 64  1  0  0  0  0
 36 38  1  0  0  0  0
 37 40  1  0  0  0  0
 37 42  1  0  0  0  0
 38 44  1  0  0  0  0
 39 41  1  0  0  0  0
 39 46  1  0  0  0  0
 40 47  1  0  0  0  0
 41 48  1  0  0  0  0
 42 63  1  0  0  0  0
 43 47  1  0  0  0  0
 43 63  1  0  0  0  0
 44 67  1  0  0  0  0
 45 64  1  0  0  0  0
 46 48  1  0  0  0  0
 46 55  1  0  0  0  0
 47 62  1  0  0  0  0
 48 49  1  0  0  0  0
 50 59  1  0  0  0  0
 51 60  1  0  0  0  0
 52 60  1  0  0  0  0
 53 60  1  0  0  0  0
 54 69  1  0  0  0  0
 55 56  1  0  0  0  0
 56 57  1  0  0  0  0
 57 76  1  0  0  0  0
 58 60  1  0  0  0  0
 58 68  1  0  0  0  0
 59 69  1  0  0  0  0
 61 62  1  0  0  0  0
M  CHG  1  69   1
M  ISO  4  29 100  48 100  57 101  76 101
M  END
> <Batch ID>
0021

> <Smiles>
CNC(C)C(=O)NC(C(=O)N1Cc2cc([101O:1][101CH2:1]CCC3CC[100C:0]3(C)[100C:0](=O)N3CCCC(n4nc(-c5ccc(Oc6ccc(F)cc6F)cc5)c(C(N)=O)c4N)C3)ccc2CC1C(=O)NC1CCCc2ccccc21)C(C)(C)C

> <Shape>
0.266

> <Color>
0.105

> <Negative vol penalty>
0.000

$$$$

  -OEChem-04052316123D

 86 94  0     1  0  0  0  0  0999 V2000
  -39.6005  -28.3663   28.8307 C   0  0  0  0  0  0  0  0  0  0  0  0
  -38.3596  -27.9370   29.2902 C   0  0  0  0  0  0  0  0  0  0  0  0
  -22.9993   -9.8945   19.9821 C   0  0  0  0  0  0  0  0  0  0  0  0
  -23.7291   -9.9449   22.2847 C   0  0  0  0  0  0  0  0  0  0  0  0
  -39.8203  -28.5220   27.4627 C   0  0  0  0  0  0  0  0  0  0  0  0
  -37.3373  -27.6641   28.3821 C   0  0  0  0  0  0  0  0  0  0  0  0
  -31.7074  -23.3340   27.4487 C   0  0  0  0  0  0  0  0  0  0  0  0
  -22.2341   -8.7593   20.2495 C   0  0  0  0  0  0  0  0  0  0  0  0
  -22.9640   -8.8098   22.5521 C   0  0  0  0  0  0  0  0  0  0  0  0
  -30.3453  -23.3862   27.1561 C   0  0  0  0  0  0  0  0  0  0  0  0
  -21.4873   -5.7150   23.7571 C   0  0  0  0  0  0  0  0  0  0  0  0
  -22.0756   -4.6994   24.5107 C   0  0  0  0  0  0  0  0  0  0  0  0
  -30.8640  -23.6147   24.8113 C   0  0  0  0  0  0  0  0  0  0  0  0
  -28.5649  -19.7105   22.9216 C   0  0  0  0  0  0  0  0  0  0  0  0
  -23.7987   -4.4542   22.8349 C   0  0  0  0  0  0  0  0  0  0  0  0
  -23.7468  -10.4873   20.9997 C   0  0  0  0  0  0  0  0  0  0  0  0
  -24.1299  -13.0032   20.8240 C   0  0  0  0  0  0  0  0  0  0  0  0
  -38.8031  -28.2417   26.5367 C   0  0  0  0  0  0  0  0  0  0  0  0
  -32.6598  -23.4328   26.4243 C   0  0  0  0  0  0  0  0  0  0  0  0
  -37.5432  -27.8175   27.0005 C   0  0  0  0  0  0  0  0  0  0  0  0
  -32.2376  -23.5608   25.0933 C   0  0  0  0  0  0  0  0  0  0  0  0
  -29.7183  -17.4332   24.0470 C   0  0  0  0  0  0  0  0  0  0  0  0
  -29.9492  -17.7421   22.7065 C   0  0  0  0  0  0  0  0  0  0  0  0
  -28.3339  -19.4016   24.2620 C   0  0  0  0  0  0  0  0  0  0  0  0
  -22.2165   -8.2169   21.5345 C   0  0  0  0  0  0  0  0  0  0  0  0
  -29.9234  -23.5295   25.8375 C   0  0  0  0  0  0  0  0  0  0  0  0
  -22.0546   -6.1003   22.5424 C   0  0  0  0  0  0  0  0  0  0  0  0
  -23.2313   -4.0690   24.0496 C   0  0  0  0  0  0  0  0  0  0  0  0
  -23.2103   -5.4699   22.0814 C   0  0  0  0  0  0  0  0  0  0  0  0
  -29.3725  -18.8807   22.1438 C   0  0  0  0  0  0  0  0  0  0  0  0
  -28.9106  -18.2630   24.8247 C   0  0  0  0  0  0  0  0  0  0  0  0
  -24.5378  -11.6596   20.7240 C   0  0  0  0  0  0  0  0  0  0  0  0
  -25.2384  -13.7268   20.4577 C   0  0  0  0  0  0  0  0  0  0  0  0
  -22.8623  -13.5485   21.2134 C   0  0  0  0  0  0  0  0  0  0  0  0
  -34.9886  -25.4771   25.7161 C   0  0  0  0  0  0  0  0  0  0  0  0
  -35.6563  -23.3094   23.3971 C   0  0  0  0  0  0  0  0  0  0  0  0
  -34.5478  -20.7876   21.3825 C   0  0  0  0  0  0  0  0  0  0  0  0
  -30.7345  -14.6654   20.6953 C   0  0  0  0  0  0  0  0  0  0  0  0
  -39.0730  -28.4702   25.0705 C   0  0  0  0  0  0  0  0  0  0  0  0
  -34.1250  -23.3479   26.7537 C   0  0  0  0  0  0  0  0  0  0  0  0
  -33.2196  -23.6508   23.9549 C   0  0  0  0  0  0  0  0  0  0  0  0
  -38.0541  -27.8005   24.1520 C   0  0  0  0  0  0  0  0  0  0  0  0
  -29.5908  -12.2419   18.3511 C   0  0  0  0  0  0  0  0  0  0  0  0
  -36.6351  -28.0693   24.6430 C   0  0  0  0  0  0  0  0  0  0  0  0
  -28.1434  -11.9809   18.7716 C   0  0  0  0  0  0  0  0  0  0  0  0
  -30.4955  -12.4775   19.5586 C   0  0  0  0  0  0  0  0  0  0  0  0
  -28.5876  -13.2710   20.9016 C   0  0  0  0  0  0  0  0  0  0  0  0
  -36.4169  -27.4877   26.0450 C   0  0  1  0  0  0  0  0  0  0  0  0
  -35.0150  -23.9751   25.6852 C   0  0  1  0  0  0  0  0  0  0  0  0
  -27.6263  -13.0831   19.7155 C   0  0  2  0  0  0  0  0  0  0  0  0
  -30.3459  -16.2064   24.6342 C   0  0  0  0  0  0  0  0  0  0  0  0
  -34.6649  -18.9271   19.7027 C   0  0  0  0  0  0  0  0  0  0  0  0
  -25.6852  -21.0319   23.6494 C   0  0  0  0  0  0  0  0  0  0  0  0
  -35.5167  -25.6019   21.3884 C   0  0  0  0  0  0  0  0  0  0  0  0
  -35.3371  -23.8985   19.5623 C   0  0  0  0  0  0  0  0  0  0  0  0
  -37.3791  -23.9803   20.9929 C   0  0  0  0  0  0  0  0  0  0  0  0
  -35.1362  -18.7793   23.4752 C   0  0  0  0  0  0  0  0  0  0  0  0
  -30.8180  -16.8439   21.8813 C   0  0  0  0  0  0  0  0  0  0  0  0
  -26.5145  -22.3842   25.6061 C   0  0  0  0  0  0  0  0  0  0  0  0
  -27.7135  -22.8677   26.4157 C   0  0  0  0  0  0  0  0  0  1  0  0
  -35.2172  -23.1037   21.9675 C   0  0  1  0  0  0  0  0  0  0  0  0
  -35.1321  -19.4237   21.0620 C   0  0  2  0  0  0  0  0  0  0  0  0
  -26.9073  -21.4383   24.4669 C   0  0  1  0  0  0  0  0  0  0  0  0
  -35.8438  -24.1464   20.9992 C   0  0  0  0  0  0  0  0  0  0  0  0
  -25.8064  -11.5342   20.3251 N   0  0  0  0  0  0  0  0  0  0  0  0
  -26.2051  -12.8084   20.1713 N   0  0  0  0  0  0  0  0  0  0  0  0
  -34.6413  -23.5693   24.3287 N   0  0  0  0  0  0  0  0  0  0  0  0
  -29.9497  -13.5354   20.4123 N   0  0  0  0  0  0  0  0  0  0  0  0
  -25.4706  -15.0527   20.3557 N   0  0  0  0  0  0  0  0  0  0  0  0
  -21.8319  -12.6635   21.5586 N   0  0  0  0  0  0  0  0  0  0  0  0
  -27.5281  -20.2458   25.0047 N   0  0  0  0  0  0  0  0  0  0  0  0
  -36.2167  -26.0562   25.9728 N   0  0  0  0  0  0  0  0  0  0  0  0
  -35.5329  -21.7178   21.6389 N   0  0  0  0  0  0  0  0  0  0  0  0
  -30.1391  -15.6234   21.5068 N   0  0  0  0  0  0  0  0  0  0  0  0
  -34.7208  -18.4288   22.0926 N   0  3  0  0  0  0  0  0  0  0  0  0
  -22.6447  -14.7837   21.2381 O   0  0  0  0  0  0  0  0  0  0  0  0
  -33.9325  -26.0670   25.5201 O   0  0  0  0  0  0  0  0  0  0  0  0
  -36.8551  -23.2349   23.6782 O   0  0  0  0  0  0  0  0  0  0  0  0
  -33.3386  -21.0070   21.3998 O   0  0  0  0  0  0  0  0  0  0  0  0
  -31.8789  -14.8124   20.2530 O   0  0  0  0  0  0  0  0  0  0  0  0
  -21.4698   -7.1094   21.7959 O   0  0  0  0  0  0  0  0  0  0  0  0
  -28.5945  -23.5814   25.5492 O   0  0  0  0  0  0  0  0  0  1  0  0
  -23.7971   -3.0947   24.7741 F   0  0  0  0  0  0  0  0  0  0  0  0
  -23.7606   -5.8365   20.9158 F   0  0  0  0  0  0  0  0  0  0  0  0
  -29.6332  -19.2984   20.4887 Cl  0  0  0  0  0  0  0  0  0  0  0  0
  -28.6243  -17.8777   26.4912 Cl  0  0  0  0  0  0  0  0  0  0  0  0
  1  2  1  0  0  0  0
  1  5  2  0  0  0  0
  2  6  2  0  0  0  0
  3  8  2  0  0  0  0
  3 16  1  0  0  0  0
  4  9  1  0  0  0  0
  4 16  2  0  0  0  0
  5 18  1  0  0  0  0
  6 20  1  0  0  0  0
  7 10  2  0  0  0  0
  7 19  1  0  0  0  0
  8 25  1  0  0  0  0
  9 25  2  0  0  0  0
 10 26  1  0  0  0  0
 11 12  2  0  0  0  0
 11 27  1  0  0  0  0
 12 28  1  0  0  0  0
 13 21  1  0  0  0  0
 13 26  2  0  0  0  0
 14 24  1  0  0  0  0
 14 30  2  0  0  0  0
 15 28  2  0  0  0  0
 15 29  1  0  0  0  0
 16 32  1  0  0  0  0
 17 32  1  0  0  0  0
 17 33  2  0  0  0  0
 17 34  1  0  0  0  0
 18 20  2  0  0  0  0
 18 39  1  0  0  0  0
 19 21  2  0  0  0  0
 19 40  1  0  0  0  0
 20 48  1  0  0  0  0
 21 41  1  0  0  0  0
 22 23  2  0  0  0  0
 22 31  1  0  0  0  0
 22 51  1  0  0  0  0
 23 30  1  0  0  0  0
 23 58  1  0  0  0  0
 24 31  2  0  0  0  0
 24 71  1  0  0  0  0
 25 81  1  0  0  0  0
 26 82  1  0  0  0  0
 27 29  2  0  0  0  0
 27 81  1  0  0  0  0
 28 83  1  0  0  0  0
 29 84  1  0  0  0  0
 30 85  1  0  0  0  0
 31 86  1  0  0  0  0
 32 65  2  0  0  0  0
 33 66  1  0  0  0  0
 33 69  1  0  0  0  0
 34 70  1  0  0  0  0
 34 76  2  0  0  0  0
 35 49  1  0  0  0  0
 35 72  1  0  0  0  0
 35 77  2  0  0  0  0
 36 61  1  0  0  0  0
 36 67  1  0  0  0  0
 36 78  2  0  0  0  0
 37 62  1  0  0  0  0
 37 73  1  0  0  0  0
 37 79  2  0  0  0  0
 38 68  1  0  0  0  0
 38 74  1  0  0  0  0
 38 80  2  0  0  0  0
 39 42  1  0  0  0  0
 40 49  1  0  0  0  0
 41 67  1  0  0  0  0
 42 44  1  0  0  0  0
 43 45  1  0  0  0  0
 43 46  1  0  0  0  0
 44 48  1  0  0  0  0
 45 50  1  0  0  0  0
 46 68  1  0  0  0  0
 47 50  1  0  0  0  0
 47 68  1  0  0  0  0
 48 72  1  0  0  0  0
 49 67  1  0  0  0  0
 50 66  1  0  0  0  0
 52 62  1  0  0  0  0
 53 63  1  0  0  0  0
 54 64  1  0  0  0  0
 55 64  1  0  0  0  0
 56 64  1  0  0  0  0
 57 75  1  0  0  0  0
 58 74  1  0  0  0  0
 59 60  1  0  0  0  0
 59 63  1  0  0  0  0
 60 82  1  0  0  0  0
 61 64  1  0  0  0  0
 61 73  1  0  0  0  0
 62 75  1  0  0  0  0
 63 71  1  0  0  0  0
 65 66  1  0  0  0  0
M  CHG  1  75   1
M  ISO  4  38 100  60 101  74 100  82 101
M  END
> <Batch ID>
0021

> <Smiles>
CNC(C)C(=O)NC(C(=O)N1Cc2cc([101O:1][101CH2:1]CC(C)Nc3cc(Cl)c(C[100NH:0][100C:0](=O)N4CCCC(n5nc(-c6ccc(Oc7ccc(F)cc7F)cc6)c(C(N)=O)c5N)C4)c(C)c3Cl)ccc2CC1C(=O)NC1CCCc2ccccc21)C(C)(C)C

> <Shape>
0.176

> <Color>
0.202

> <Negative vol penalty>
0.000

$$$$

  -OEChem-04052316123D

 83 91  0     1  0  0  0  0  0999 V2000
  -17.0400  -28.7609   22.3899 C   0  0  0  0  0  0  0  0  0  0  0  0
  -18.1772  -28.6548   21.5956 C   0  0  0  0  0  0  0  0  0  0  0  0
  -26.6248  -12.6176   21.8019 C   0  0  0  0  0  0  0  0  0  0  0  0
  -26.0313  -14.0545   19.9525 C   0  0  0  0  0  0  0  0  0  0  0  0
  -17.1671  -28.9583   23.7643 C   0  0  0  0  0  0  0  0  0  0  0  0
  -19.4422  -28.7472   22.1750 C   0  0  0  0  0  0  0  0  0  0  0  0
  -24.4985  -25.7384   20.4761 C   0  0  0  0  0  0  0  0  0  0  0  0
  -25.3392  -12.0768   21.7944 C   0  0  0  0  0  0  0  0  0  0  0  0
  -24.7456  -13.5136   19.9449 C   0  0  0  0  0  0  0  0  0  0  0  0
  -25.5892  -26.1063   19.6896 C   0  0  0  0  0  0  0  0  0  0  0  0
  -22.3229  -10.0611   22.0276 C   0  0  0  0  0  0  0  0  0  0  0  0
  -22.2016   -8.6755   22.1322 C   0  0  0  0  0  0  0  0  0  0  0  0
  -26.8221  -26.6853   21.6806 C   0  0  0  0  0  0  0  0  0  0  0  0
  -28.6556  -23.3900   19.3580 C   0  0  0  0  0  0  0  0  0  0  0  0
  -23.4842   -8.4100   20.1020 C   0  0  0  0  0  0  0  0  0  0  0  0
  -26.9709  -13.6066   20.8810 C   0  0  0  0  0  0  0  0  0  0  0  0
  -29.4192  -13.7060   20.1714 C   0  0  0  0  0  0  0  0  0  0  0  0
  -18.4343  -29.0436   24.3622 C   0  0  0  0  0  0  0  0  0  0  0  0
  -24.5576  -25.8516   21.8726 C   0  0  0  0  0  0  0  0  0  0  0  0
  -19.5863  -28.9474   23.5584 C   0  0  0  0  0  0  0  0  0  0  0  0
  -25.7317  -26.3157   22.4827 C   0  0  0  0  0  0  0  0  0  0  0  0
  -29.8513  -23.9924   18.9669 C   0  0  0  0  0  0  0  0  0  0  0  0
  -28.6797  -22.2081   20.0984 C   0  0  0  0  0  0  0  0  0  0  0  0
  -31.0711  -23.4128   19.3159 C   0  0  0  0  0  0  0  0  0  0  0  0
  -29.8994  -21.6285   20.4475 C   0  0  0  0  0  0  0  0  0  0  0  0
  -24.3995  -12.5247   20.8659 C   0  0  0  0  0  0  0  0  0  0  0  0
  -26.7502  -26.5825   20.2915 C   0  0  0  0  0  0  0  0  0  0  0  0
  -23.0248  -10.6212   20.9601 C   0  0  0  0  0  0  0  0  0  0  0  0
  -22.7823   -7.8499   21.1694 C   0  0  0  0  0  0  0  0  0  0  0  0
  -23.6054   -9.7956   19.9974 C   0  0  0  0  0  0  0  0  0  0  0  0
  -31.0952  -22.2308   20.0562 C   0  0  0  0  0  0  0  0  0  0  0  0
  -28.2987  -14.1661   20.8887 C   0  0  0  0  0  0  0  0  0  0  0  0
  -30.4280  -14.5710   20.5185 C   0  0  0  0  0  0  0  0  0  0  0  0
  -29.5376  -12.5960   19.2716 C   0  0  0  0  0  0  0  0  0  0  0  0
  -22.9538  -27.5111   24.0584 C   0  0  0  0  0  0  0  0  0  0  0  0
  -24.7253  -25.7517   26.1293 C   0  0  0  0  0  0  0  0  0  0  0  0
  -27.5552  -23.9319   26.7006 C   0  0  0  0  0  0  0  0  0  0  0  0
  -30.4723  -20.2227   22.4579 C   0  0  0  0  0  0  0  0  0  0  0  0
  -18.5212  -29.3047   25.8451 C   0  0  0  0  0  0  0  0  0  0  0  0
  -23.3820  -25.4254   22.7085 C   0  0  0  0  0  0  0  0  0  0  0  0
  -25.8532  -26.4370   23.9791 C   0  0  0  0  0  0  0  0  0  0  0  0
  -19.8996  -29.0169   26.4345 C   0  0  0  0  0  0  0  0  0  0  0  0
  -31.8704  -17.3942   24.1078 C   0  0  0  0  0  0  0  0  0  0  0  0
  -20.9915  -29.6263   25.5610 C   0  0  0  0  0  0  0  0  0  0  0  0
  -31.2197  -16.2034   23.4002 C   0  0  0  0  0  0  0  0  0  0  0  0
  -30.8996  -18.5641   24.2584 C   0  0  0  0  0  0  0  0  0  0  0  0
  -29.6018  -17.8072   22.3060 C   0  0  0  0  0  0  0  0  0  0  0  0
  -20.9759  -29.0177   24.1535 C   0  0  1  0  0  0  0  0  0  0  0  0
  -23.3686  -26.0674   24.0923 C   0  0  1  0  0  0  0  0  0  0  0  0
  -30.5604  -16.6280   22.0733 C   0  0  2  0  0  0  0  0  0  0  0  0
  -27.3805  -21.5888   20.5026 C   0  0  0  0  0  0  0  0  0  0  0  0
  -32.3424  -24.0775   18.8858 C   0  0  0  0  0  0  0  0  0  0  0  0
  -28.7431  -22.6503   28.5017 C   0  0  0  0  0  0  0  0  0  0  0  0
  -25.5942  -28.3762   27.4204 C   0  0  0  0  0  0  0  0  0  0  0  0
  -27.4545  -27.1291   28.5394 C   0  0  0  0  0  0  0  0  0  0  0  0
  -25.0827  -26.5376   29.0367 C   0  0  0  0  0  0  0  0  0  0  0  0
  -27.4314  -21.4134   25.1512 C   0  0  0  0  0  0  0  0  0  0  0  0
  -29.7949  -25.2704   18.1687 C   0  0  0  0  0  0  0  0  0  0  0  0
  -30.1160  -26.5226   18.9874 C   0  0  0  0  0  0  0  0  0  0  0  0
  -29.1120  -26.7884   20.1032 C   0  0  0  0  0  0  0  0  0  1  0  0
  -26.0707  -25.9173   26.7937 C   0  0  1  0  0  0  0  0  0  0  0  0
  -27.7658  -22.5709   27.3391 C   0  0  2  0  0  0  0  0  0  0  0  0
  -26.0479  -26.9897   27.9192 C   0  0  0  0  0  0  0  0  0  0  0  0
  -28.5698  -15.2399   21.6353 N   0  0  0  0  0  0  0  0  0  0  0  0
  -29.8722  -15.4617   21.3891 N   0  0  0  0  0  0  0  0  0  0  0  0
  -24.6744  -26.0137   24.7529 N   0  0  0  0  0  0  0  0  0  0  0  0
  -30.3174  -18.9135   22.9608 N   0  0  0  0  0  0  0  0  0  0  0  0
  -31.7275  -14.6489   20.1611 N   0  0  0  0  0  0  0  0  0  0  0  0
  -28.4029  -11.8106   19.0266 N   0  0  0  0  0  0  0  0  0  0  0  0
  -29.9046  -20.4285   21.2010 N   0  0  0  0  0  0  0  0  0  0  0  0
  -21.5899  -27.7072   24.1627 N   0  0  0  0  0  0  0  0  0  0  0  0
  -26.4705  -24.5881   27.2428 N   0  0  0  0  0  0  0  0  0  0  0  0
  -28.3037  -21.6067   26.3381 N   0  3  0  0  0  0  0  0  0  0  0  0
  -30.6216  -12.2992   18.7145 O   0  0  0  0  0  0  0  0  0  0  0  0
  -23.8080  -28.3827   23.9473 O   0  0  0  0  0  0  0  0  0  0  0  0
  -23.7567  -25.3959   26.8053 O   0  0  0  0  0  0  0  0  0  0  0  0
  -28.2826  -24.3707   25.8124 O   0  0  0  0  0  0  0  0  0  0  0  0
  -31.0885  -21.0894   23.0834 O   0  0  0  0  0  0  0  0  0  0  0  0
  -23.1450  -11.9970   20.8581 O   0  0  0  0  0  0  0  0  0  0  0  0
  -27.8161  -26.9430   19.5261 O   0  0  0  0  0  0  0  0  0  1  0  0
  -22.6671   -6.5193   21.2709 F   0  0  0  0  0  0  0  0  0  0  0  0
  -24.2819  -10.3278   18.9703 F   0  0  0  0  0  0  0  0  0  0  0  0
  -32.6159  -21.5145   20.4859 Cl  0  0  0  0  0  0  0  0  0  0  0  0
  1  2  1  0  0  0  0
  1  5  2  0  0  0  0
  2  6  2  0  0  0  0
  3  8  2  0  0  0  0
  3 16  1  0  0  0  0
  4  9  1  0  0  0  0
  4 16  2  0  0  0  0
  5 18  1  0  0  0  0
  6 20  1  0  0  0  0
  7 10  2  0  0  0  0
  7 19  1  0  0  0  0
  8 26  1  0  0  0  0
  9 26  2  0  0  0  0
 10 27  1  0  0  0  0
 11 12  2  0  0  0  0
 11 28  1  0  0  0  0
 12 29  1  0  0  0  0
 13 21  1  0  0  0  0
 13 27  2  0  0  0  0
 14 22  1  0  0  0  0
 14 23  2  0  0  0  0
 15 29  2  0  0  0  0
 15 30  1  0  0  0  0
 16 32  1  0  0  0  0
 17 32  1  0  0  0  0
 17 33  2  0  0  0  0
 17 34  1  0  0  0  0
 18 20  2  0  0  0  0
 18 39  1  0  0  0  0
 19 21  2  0  0  0  0
 19 40  1  0  0  0  0
 20 48  1  0  0  0  0
 21 41  1  0  0  0  0
 22 24  2  0  0  0  0
 22 58  1  0  0  0  0
 23 25  1  0  0  0  0
 23 51  1  0  0  0  0
 24 31  1  0  0  0  0
 24 52  1  0  0  0  0
 25 31  2  0  0  0  0
 25 70  1  0  0  0  0
 26 79  1  0  0  0  0
 27 80  1  0  0  0  0
 28 30  2  0  0  0  0
 28 79  1  0  0  0  0
 29 81  1  0  0  0  0
 30 82  1  0  0  0  0
 31 83  1  0  0  0  0
 32 64  2  0  0  0  0
 33 65  1  0  0  0  0
 33 68  1  0  0  0  0
 34 69  1  0  0  0  0
 34 74  2  0  0  0  0
 35 49  1  0  0  0  0
 35 71  1  0  0  0  0
 35 75  2  0  0  0  0
 36 61  1  0  0  0  0
 36 66  1  0  0  0  0
 36 76  2  0  0  0  0
 37 62  1  0  0  0  0
 37 72  1  0  0  0  0
 37 77  2  0  0  0  0
 38 67  1  0  0  0  0
 38 70  1  0  0  0  0
 38 78  2  0  0  0  0
 39 42  1  0  0  0  0
 40 49  1  0  0  0  0
 41 66  1  0  0  0  0
 42 44  1  0  0  0  0
 43 45  1  0  0  0  0
 43 46  1  0  0  0  0
 44 48  1  0  0  0  0
 45 50  1  0  0  0  0
 46 67  1  0  0  0  0
 47 50  1  0  0  0  0
 47 67  1  0  0  0  0
 48 71  1  0  0  0  0
 49 66  1  0  0  0  0
 50 65  1  0  0  0  0
 53 62  1  0  0  0  0
 54 63  1  0  0  0  0
 55 63  1  0  0  0  0
 56 63  1  0  0  0  0
 57 73  1  0  0  0  0
 58 59  1  0  0  0  0
 59 60  1  0  0  0  0
 60 80  1  0  0  0  0
 61 63  1  0  0  0  0
 61 72  1  0  0  0  0
 62 73  1  0  0  0  0
 64 65  1  0  0  0  0
M  CHG  1  73   1
M  ISO  4  38 100  60 101  70 100  80 101
M  END
> <Batch ID>
0021

> <Smiles>
CNC(C)C(=O)NC(C(=O)N1Cc2cc([101O:1][101CH2:1]CCc3cc(C)c([100NH:0][100C:0](=O)N4CCCC(n5nc(-c6ccc(Oc7ccc(F)cc7F)cc6)c(C(N)=O)c5N)C4)c(Cl)c3C)ccc2CC1C(=O)NC1CCCc2ccccc21)C(C)(C)C

> <Shape>
0.253

> <Color>
0.083

> <Negative vol penalty>
0.000

$$$$

  -OEChem-04052316123D

 87 95  0     1  0  0  0  0  0999 V2000
  -21.1099  -22.7430   23.6079 C   0  0  0  0  0  0  0  0  0  0  0  0
  -20.7583  -22.2592   22.3518 C   0  0  0  0  0  0  0  0  0  0  0  0
  -24.3528  -28.6508   19.9517 C   0  0  0  0  0  0  0  0  0  0  0  0
  -23.9994  -26.6188   21.2100 C   0  0  0  0  0  0  0  0  0  0  0  0
  -22.1367  -22.1323   24.3265 C   0  0  0  0  0  0  0  0  0  0  0  0
  -21.4341  -21.1648   21.8132 C   0  0  0  0  0  0  0  0  0  0  0  0
  -23.0615  -13.3610   19.1853 C   0  0  0  0  0  0  0  0  0  0  0  0
  -22.9730  -28.8236   19.8431 C   0  0  0  0  0  0  0  0  0  0  0  0
  -22.6195  -26.7916   21.1015 C   0  0  0  0  0  0  0  0  0  0  0  0
  -24.1500  -12.4983   19.3058 C   0  0  0  0  0  0  0  0  0  0  0  0
  -20.2202  -28.6554   22.5815 C   0  0  0  0  0  0  0  0  0  0  0  0
  -19.4521  -28.4617   23.7295 C   0  0  0  0  0  0  0  0  0  0  0  0
  -24.3250  -13.0559   21.6463 C   0  0  0  0  0  0  0  0  0  0  0  0
  -18.2351  -26.6956   22.6171 C   0  0  0  0  0  0  0  0  0  0  0  0
  -24.8660  -27.5484   20.6351 C   0  0  0  0  0  0  0  0  0  0  0  0
  -27.2140  -28.2468   21.3470 C   0  0  0  0  0  0  0  0  0  0  0  0
  -22.8190  -21.0239   23.8006 C   0  0  0  0  0  0  0  0  0  0  0  0
  -22.6026  -14.0872   20.2937 C   0  0  0  0  0  0  0  0  0  0  0  0
  -22.4719  -20.5395   22.5250 C   0  0  0  0  0  0  0  0  0  0  0  0
  -23.2288  -13.9252   21.5377 C   0  0  0  0  0  0  0  0  0  0  0  0
  -22.1063  -27.8940   20.4180 C   0  0  0  0  0  0  0  0  0  0  0  0
  -24.7838  -12.3478   20.5358 C   0  0  0  0  0  0  0  0  0  0  0  0
  -19.9958  -27.8694   21.4512 C   0  0  0  0  0  0  0  0  0  0  0  0
  -18.4595  -27.4818   23.7473 C   0  0  0  0  0  0  0  0  0  0  0  0
  -19.0033  -26.8895   21.4691 C   0  0  0  0  0  0  0  0  0  0  0  0
  -26.2913  -27.3690   20.7471 C   0  0  0  0  0  0  0  0  0  0  0  0
  -28.4290  -27.6250   21.1938 C   0  0  0  0  0  0  0  0  0  0  0  0
  -26.9926  -29.5113   21.9856 C   0  0  0  0  0  0  0  0  0  0  0  0
  -22.3460  -17.1752   21.0023 C   0  0  0  0  0  0  0  0  0  0  0  0
  -20.8409  -16.0442   23.6439 C   0  0  0  0  0  0  0  0  0  0  0  0
  -21.3027  -13.3340   25.9804 C   0  0  0  0  0  0  0  0  0  0  0  0
  -29.5725  -21.6765   20.2738 C   0  0  0  0  0  0  0  0  0  0  0  0
  -23.9537  -20.4263   24.5944 C   0  0  0  0  0  0  0  0  0  0  0  0
  -21.4104  -14.9935   20.1532 C   0  0  0  0  0  0  0  0  0  0  0  0
  -22.7622  -14.6665   22.7630 C   0  0  0  0  0  0  0  0  0  0  0  0
  -24.3688  -19.0383   24.1134 C   0  0  0  0  0  0  0  0  0  0  0  0
  -30.7626  -24.5934   18.3305 C   0  0  0  0  0  0  0  0  0  0  0  0
  -24.5031  -19.0178   22.5940 C   0  0  0  0  0  0  0  0  0  0  0  0
  -28.3066  -17.7602   21.8879 C   0  0  0  0  0  0  0  0  0  0  0  0
  -30.5177  -18.3138   22.9800 C   0  0  0  0  0  0  0  0  0  0  0  0
  -29.7765  -25.6879   18.7349 C   0  0  0  0  0  0  0  0  0  0  0  0
  -28.2474  -19.1663   21.2901 C   0  0  0  0  0  0  0  0  0  0  0  0
  -30.4619  -19.7211   22.3848 C   0  0  0  0  0  0  0  0  0  0  0  0
  -30.1368  -23.2048   18.4199 C   0  0  0  0  0  0  0  0  0  0  0  0
  -28.5590  -23.9898   20.1543 C   0  0  0  0  0  0  0  0  0  0  0  0
  -23.1649  -19.3391   21.9176 C   0  0  1  0  0  0  0  0  0  0  0  0
  -21.3504  -16.0730   21.2296 C   0  0  1  0  0  0  0  0  0  0  0  0
  -29.7400  -17.2787   22.1547 C   0  0  0  0  0  0  0  0  0  0  0  0
  -29.1725  -25.3977   20.1199 C   0  0  2  0  0  0  0  0  0  0  0  0
  -29.0195  -20.1717   22.1472 C   0  0  0  0  0  0  0  0  0  0  0  0
  -19.6388  -12.0978   27.3947 C   0  0  0  0  0  0  0  0  0  0  0  0
  -27.1041  -22.5583   22.6873 C   0  0  0  0  0  0  0  0  0  0  0  0
  -29.3924  -22.5158   23.7292 C   0  0  0  0  0  0  0  0  0  0  0  0
  -21.6047  -18.0661   25.7977 C   0  0  0  0  0  0  0  0  0  0  0  0
  -21.4522  -16.2223   27.4844 C   0  0  0  0  0  0  0  0  0  0  0  0
  -19.4294  -16.8962   26.1895 C   0  0  0  0  0  0  0  0  0  0  0  0
  -22.1355  -10.7169   24.8777 C   0  0  0  0  0  0  0  0  0  0  0  0
  -30.4699  -16.9274   20.8553 C   0  0  0  0  0  0  0  0  0  0  0  0
  -29.7813  -15.8264   20.0461 C   0  0  0  0  0  0  0  0  0  0  0  0
  -29.5910  -14.5263   20.8307 C   0  0  0  0  0  0  0  0  0  0  0  0
  -28.9268  -13.4503   19.9670 C   0  0  0  0  0  0  0  0  0  0  0  0
  -28.7702  -12.1387   20.7393 C   0  0  0  0  0  0  0  0  0  0  0  0
  -28.1014  -11.0285   19.9209 C   0  0  0  0  0  0  0  0  0  0  0  0
  -26.6664  -11.3268   19.5019 C   0  0  0  0  0  0  0  0  0  1  0  0
  -21.2787  -15.6239   25.0262 C   0  0  1  0  0  0  0  0  0  0  0  0
  -20.4465  -12.0868   26.1062 C   0  0  2  0  0  0  0  0  0  0  0  0
  -28.6050  -22.5873   22.4272 C   0  0  0  0  0  0  0  0  0  0  0  0
  -20.9586  -16.6998   26.1020 C   0  0  0  0  0  0  0  0  0  0  0  0
  -26.8705  -26.2730   20.2498 N   0  0  0  0  0  0  0  0  0  0  0  0
  -28.1703  -26.4581   20.5368 N   0  0  0  0  0  0  0  0  0  0  0  0
  -21.5965  -15.5456   22.5733 N   0  0  0  0  0  0  0  0  0  0  0  0
  -29.5325  -22.9717   19.7320 N   0  0  0  0  0  0  0  0  0  0  0  0
  -29.6828  -27.9680   21.5583 N   0  0  0  0  0  0  0  0  0  0  0  0
  -25.6823  -30.0037   22.0564 N   0  0  0  0  0  0  0  0  0  0  0  0
  -22.2941  -18.1835   21.9457 N   0  0  0  0  0  0  0  0  0  0  0  0
  -20.6576  -14.3273   25.2744 N   0  0  0  0  0  0  0  0  0  0  0  0
  -28.9928  -21.4941   21.5385 N   0  0  0  0  0  0  0  0  0  0  0  0
  -21.3033  -10.8675   26.0991 N   0  3  0  0  0  0  0  0  0  0  0  0
  -27.9310  -30.1922   22.4644 O   0  0  0  0  0  0  0  0  0  0  0  0
  -23.1060  -17.1145   20.0430 O   0  0  0  0  0  0  0  0  0  0  0  0
  -19.8602  -16.7818   23.5184 O   0  0  0  0  0  0  0  0  0  0  0  0
  -22.4296  -13.4200   26.4634 O   0  0  0  0  0  0  0  0  0  0  0  0
  -30.1049  -20.7387   19.6663 O   0  0  0  0  0  0  0  0  0  0  0  0
  -20.7598  -28.0625   20.3125 O   0  0  0  0  0  0  0  0  0  0  0  0
  -25.8469  -11.5068   20.6561 O   0  0  0  0  0  0  0  0  0  1  0  0
  -17.7230  -27.2947   24.8504 F   0  0  0  0  0  0  0  0  0  0  0  0
  -18.7839  -26.1304   20.3867 F   0  0  0  0  0  0  0  0  0  0  0  0
  1  2  1  0  0  0  0
  1  5  2  0  0  0  0
  2  6  2  0  0  0  0
  3  8  2  0  0  0  0
  3 15  1  0  0  0  0
  4  9  1  0  0  0  0
  4 15  2  0  0  0  0
  5 17  1  0  0  0  0
  6 19  1  0  0  0  0
  7 10  2  0  0  0  0
  7 18  1  0  0  0  0
  8 21  1  0  0  0  0
  9 21  2  0  0  0  0
 10 22  1  0  0  0  0
 11 12  2  0  0  0  0
 11 23  1  0  0  0  0
 12 24  1  0  0  0  0
 13 20  1  0  0  0  0
 13 22  2  0  0  0  0
 14 24  2  0  0  0  0
 14 25  1  0  0  0  0
 15 26  1  0  0  0  0
 16 26  1  0  0  0  0
 16 27  2  0  0  0  0
 16 28  1  0  0  0  0
 17 19  2  0  0  0  0
 17 33  1  0  0  0  0
 18 20  2  0  0  0  0
 18 34  1  0  0  0  0
 19 46  1  0  0  0  0
 20 35  1  0  0  0  0
 21 84  1  0  0  0  0
 22 85  1  0  0  0  0
 23 25  2  0  0  0  0
 23 84  1  0  0  0  0
 24 86  1  0  0  0  0
 25 87  1  0  0  0  0
 26 69  2  0  0  0  0
 27 70  1  0  0  0  0
 27 73  1  0  0  0  0
 28 74  1  0  0  0  0
 28 79  2  0  0  0  0
 29 47  1  0  0  0  0
 29 75  1  0  0  0  0
 29 80  2  0  0  0  0
 30 65  1  0  0  0  0
 30 71  1  0  0  0  0
 30 81  2  0  0  0  0
 31 66  1  0  0  0  0
 31 76  1  0  0  0  0
 31 82  2  0  0  0  0
 32 72  1  0  0  0  0
 32 77  1  0  0  0  0
 32 83  2  0  0  0  0
 33 36  1  0  0  0  0
 34 47  1  0  0  0  0
 35 71  1  0  0  0  0
 36 38  1  0  0  0  0
 37 41  1  0  0  0  0
 37 44  1  0  0  0  0
 38 46  1  0  0  0  0
 39 42  1  0  0  0  0
 39 48  1  0  0  0  0
 40 43  1  0  0  0  0
 40 48  1  0  0  0  0
 41 49  1  0  0  0  0
 42 50  1  0  0  0  0
 43 50  1  0  0  0  0
 44 72  1  0  0  0  0
 45 49  1  0  0  0  0
 45 72  1  0  0  0  0
 46 75  1  0  0  0  0
 47 71  1  0  0  0  0
 48 58  1  0  0  0  0
 49 70  1  0  0  0  0
 50 77  1  0  0  0  0
 51 66  1  0  0  0  0
 52 67  1  0  0  0  0
 53 67  1  0  0  0  0
 54 68  1  0  0  0  0
 55 68  1  0  0  0  0
 56 68  1  0  0  0  0
 57 78  1  0  0  0  0
 58 59  1  0  0  0  0
 59 60  1  0  0  0  0
 60 61  1  0  0  0  0
 61 62  1  0  0  0  0
 62 63  1  0  0  0  0
 63 64  1  0  0  0  0
 64 85  1  0  0  0  0
 65 68  1  0  0  0  0
 65 76  1  0  0  0  0
 66 78  1  0  0  0  0
 67 77  1  0  0  0  0
 69 70  1  0  0  0  0
M  CHG  1  78   1
M  ISO  4  32 100  64 101  77 100  85 101
M  END
> <Batch ID>
0021

> <Smiles>
CNC(C)C(=O)NC(C(=O)N1Cc2cc([101O:1][101CH2:1]CCCCCCC3CCC([100N:0](C(C)C)[100C:0](=O)N4CCCC(n5nc(-c6ccc(Oc7ccc(F)cc7F)cc6)c(C(N)=O)c5N)C4)CC3)ccc2CC1C(=O)NC1CCCc2ccccc21)C(C)(C)C

> <Shape>
0.235

> <Color>
0.049

> <Negative vol penalty>
0.000

$$$$

  -OEChem-04052316123D

 83 91  0     1  0  0  0  0  0999 V2000
  -16.6919  -29.1496   24.0718 C   0  0  0  0  0  0  0  0  0  0  0  0
  -17.0968  -28.3973   22.9739 C   0  0  0  0  0  0  0  0  0  0  0  0
  -28.8986  -13.7291   20.6293 C   0  0  0  0  0  0  0  0  0  0  0  0
  -27.5585  -14.0840   18.6506 C   0  0  0  0  0  0  0  0  0  0  0  0
  -17.4755  -30.2151   24.5126 C   0  0  0  0  0  0  0  0  0  0  0  0
  -18.2853  -28.7108   22.3153 C   0  0  0  0  0  0  0  0  0  0  0  0
  -22.1824  -24.7869   19.6846 C   0  0  0  0  0  0  0  0  0  0  0  0
  -28.0135  -12.7370   21.0510 C   0  0  0  0  0  0  0  0  0  0  0  0
  -26.6733  -13.0918   19.0723 C   0  0  0  0  0  0  0  0  0  0  0  0
  -22.3604  -24.3872   18.3609 C   0  0  0  0  0  0  0  0  0  0  0  0
  -27.3906   -9.4898   20.3434 C   0  0  0  0  0  0  0  0  0  0  0  0
  -27.9336   -8.2993   20.8266 C   0  0  0  0  0  0  0  0  0  0  0  0
  -24.1195  -26.0190   18.1111 C   0  0  0  0  0  0  0  0  0  0  0  0
  -27.6897  -23.8855   14.4923 C   0  0  0  0  0  0  0  0  0  0  0  0
  -26.8470   -8.6669   22.9530 C   0  0  0  0  0  0  0  0  0  0  0  0
  -28.6711  -14.4026   19.4291 C   0  0  0  0  0  0  0  0  0  0  0  0
  -30.7281  -15.2618   18.1889 C   0  0  0  0  0  0  0  0  0  0  0  0
  -18.6791  -30.5359   23.8650 C   0  0  0  0  0  0  0  0  0  0  0  0
  -22.9655  -25.8148   20.2292 C   0  0  0  0  0  0  0  0  0  0  0  0
  -19.0851  -29.7826   22.7470 C   0  0  0  0  0  0  0  0  0  0  0  0
  -23.9512  -26.4281   19.4428 C   0  0  0  0  0  0  0  0  0  0  0  0
  -26.3189  -23.7804   14.2572 C   0  0  0  0  0  0  0  0  0  0  0  0
  -28.2845  -23.1276   15.5011 C   0  0  0  0  0  0  0  0  0  0  0  0
  -25.5427  -22.9175   15.0309 C   0  0  0  0  0  0  0  0  0  0  0  0
  -27.5083  -22.2647   16.2748 C   0  0  0  0  0  0  0  0  0  0  0  0
  -26.9008  -12.4184   20.2725 C   0  0  0  0  0  0  0  0  0  0  0  0
  -23.3271  -25.0053   17.5730 C   0  0  0  0  0  0  0  0  0  0  0  0
  -26.5759  -10.2689   21.1650 C   0  0  0  0  0  0  0  0  0  0  0  0
  -27.6618   -7.8879   22.1314 C   0  0  0  0  0  0  0  0  0  0  0  0
  -26.3041   -9.8574   22.4697 C   0  0  0  0  0  0  0  0  0  0  0  0
  -26.1374  -22.1597   16.0397 C   0  0  0  0  0  0  0  0  0  0  0  0
  -29.5849  -15.4279   18.9933 C   0  0  0  0  0  0  0  0  0  0  0  0
  -31.2467  -16.5274   18.0636 C   0  0  0  0  0  0  0  0  0  0  0  0
  -31.2727  -14.0699   17.6069 C   0  0  0  0  0  0  0  0  0  0  0  0
  -22.3642  -28.6922   21.4387 C   0  0  0  0  0  0  0  0  0  0  0  0
  -25.5299  -28.6286   22.1435 C   0  0  0  0  0  0  0  0  0  0  0  0
  -28.6272  -27.3734   21.4524 C   0  0  0  0  0  0  0  0  0  0  0  0
  -28.8291  -21.9814   18.4012 C   0  0  0  0  0  0  0  0  0  0  0  0
  -19.4688  -31.7263   24.3488 C   0  0  0  0  0  0  0  0  0  0  0  0
  -22.7793  -26.2160   21.6669 C   0  0  0  0  0  0  0  0  0  0  0  0
  -24.8316  -27.5227   19.9860 C   0  0  0  0  0  0  0  0  0  0  0  0
  -20.9027  -31.7591   23.8262 C   0  0  0  0  0  0  0  0  0  0  0  0
  -31.5071  -20.7134   20.3754 C   0  0  0  0  0  0  0  0  0  0  0  0
  -20.9315  -31.4740   22.3279 C   0  0  0  0  0  0  0  0  0  0  0  0
  -31.4259  -19.1994   20.1670 C   0  0  0  0  0  0  0  0  0  0  0  0
  -30.1211  -21.3536   20.4289 C   0  0  0  0  0  0  0  0  0  0  0  0
  -29.1661  -19.5244   19.0832 C   0  0  0  0  0  0  0  0  0  0  0  0
  -20.3804  -30.0762   22.0216 C   0  0  1  0  0  0  0  0  0  0  0  0
  -23.2826  -27.6252   21.9639 C   0  0  1  0  0  0  0  0  0  0  0  0
  -30.5389  -18.8438   18.9577 C   0  0  2  0  0  0  0  0  0  0  0  0
  -25.7092  -24.6028   13.1691 C   0  0  0  0  0  0  0  0  0  0  0  0
  -29.7561  -23.2629   15.7264 C   0  0  0  0  0  0  0  0  0  0  0  0
  -23.6644  -21.4045   14.3136 C   0  0  0  0  0  0  0  0  0  0  0  0
  -31.0860  -26.9562   21.7314 C   0  0  0  0  0  0  0  0  0  0  0  0
  -25.7790  -31.3009   20.6920 C   0  0  0  0  0  0  0  0  0  0  0  0
  -28.2561  -30.9465   20.6107 C   0  0  0  0  0  0  0  0  0  0  0  0
  -27.0969  -31.1380   22.8112 C   0  0  0  0  0  0  0  0  0  0  0  0
  -28.1504  -25.0591   23.2344 C   0  0  0  0  0  0  0  0  0  0  0  0
  -23.2132  -23.2560   15.9658 C   0  0  0  0  0  0  0  0  0  1  0  0
  -24.0504  -22.8187   14.7560 C   0  0  1  0  0  0  0  0  0  0  0  0
  -26.7929  -29.0435   21.4282 C   0  0  1  0  0  0  0  0  0  0  0  0
  -29.7070  -26.8028   22.3540 C   0  0  2  0  0  0  0  0  0  0  0  0
  -26.9635  -30.5879   21.3744 C   0  0  0  0  0  0  0  0  0  0  0  0
  -29.3883  -16.6989   19.3538 N   0  0  0  0  0  0  0  0  0  0  0  0
  -30.4151  -17.3429   18.7733 N   0  0  0  0  0  0  0  0  0  0  0  0
  -24.6070  -27.8840   21.3954 N   0  0  0  0  0  0  0  0  0  0  0  0
  -29.3393  -20.9760   19.2495 N   0  0  0  0  0  0  0  0  0  0  0  0
  -32.3284  -17.0112   17.4169 N   0  0  0  0  0  0  0  0  0  0  0  0
  -30.6145  -12.8538   17.8355 N   0  0  0  0  0  0  0  0  0  0  0  0
  -28.1298  -21.5017   17.2942 N   0  0  0  0  0  0  0  0  0  0  0  0
  -21.3707  -29.0651   22.3238 N   0  0  0  0  0  0  0  0  0  0  0  0
  -27.8871  -28.3443   22.0933 N   0  0  0  0  0  0  0  0  0  0  0  0
  -29.4621  -25.3539   22.6025 N   0  3  0  0  0  0  0  0  0  0  0  0
  -32.3213  -14.0806   16.9185 O   0  0  0  0  0  0  0  0  0  0  0  0
  -22.5446  -29.1448   20.3142 O   0  0  0  0  0  0  0  0  0  0  0  0
  -25.3713  -28.9471   23.3246 O   0  0  0  0  0  0  0  0  0  0  0  0
  -28.4597  -26.9982   20.2941 O   0  0  0  0  0  0  0  0  0  0  0  0
  -29.0230  -23.1791   18.6247 O   0  0  0  0  0  0  0  0  0  0  0  0
  -26.0369  -11.4502   20.6835 O   0  0  0  0  0  0  0  0  0  0  0  0
  -23.5024  -24.6175   16.2804 O   0  0  0  0  0  0  0  0  0  1  0  0
  -28.1820   -6.7438   22.5948 F   0  0  0  0  0  0  0  0  0  0  0  0
  -25.5211  -10.6011   23.2633 F   0  0  0  0  0  0  0  0  0  0  0  0
  -25.1659  -21.0893   16.9993 Cl  0  0  0  0  0  0  0  0  0  0  0  0
  1  2  1  0  0  0  0
  1  5  2  0  0  0  0
  2  6  2  0  0  0  0
  3  8  2  0  0  0  0
  3 16  1  0  0  0  0
  4  9  1  0  0  0  0
  4 16  2  0  0  0  0
  5 18  1  0  0  0  0
  6 20  1  0  0  0  0
  7 10  2  0  0  0  0
  7 19  1  0  0  0  0
  8 26  1  0  0  0  0
  9 26  2  0  0  0  0
 10 27  1  0  0  0  0
 11 12  2  0  0  0  0
 11 28  1  0  0  0  0
 12 29  1  0  0  0  0
 13 21  1  0  0  0  0
 13 27  2  0  0  0  0
 14 22  2  0  0  0  0
 14 23  1  0  0  0  0
 15 29  2  0  0  0  0
 15 30  1  0  0  0  0
 16 32  1  0  0  0  0
 17 32  1  0  0  0  0
 17 33  2  0  0  0  0
 17 34  1  0  0  0  0
 18 20  2  0  0  0  0
 18 39  1  0  0  0  0
 19 21  2  0  0  0  0
 19 40  1  0  0  0  0
 20 48  1  0  0  0  0
 21 41  1  0  0  0  0
 22 24  1  0  0  0  0
 22 51  1  0  0  0  0
 23 25  2  0  0  0  0
 23 52  1  0  0  0  0
 24 31  2  0  0  0  0
 24 60  1  0  0  0  0
 25 31  1  0  0  0  0
 25 70  1  0  0  0  0
 26 79  1  0  0  0  0
 27 80  1  0  0  0  0
 28 30  2  0  0  0  0
 28 79  1  0  0  0  0
 29 81  1  0  0  0  0
 30 82  1  0  0  0  0
 31 83  1  0  0  0  0
 32 64  2  0  0  0  0
 33 65  1  0  0  0  0
 33 68  1  0  0  0  0
 34 69  1  0  0  0  0
 34 74  2  0  0  0  0
 35 49  1  0  0  0  0
 35 71  1  0  0  0  0
 35 75  2  0  0  0  0
 36 61  1  0  0  0  0
 36 66  1  0  0  0  0
 36 76  2  0  0  0  0
 37 62  1  0  0  0  0
 37 72  1  0  0  0  0
 37 77  2  0  0  0  0
 38 67  1  0  0  0  0
 38 70  1  0  0  0  0
 38 78  2  0  0  0  0
 39 42  1  0  0  0  0
 40 49  1  0  0  0  0
 41 66  1  0  0  0  0
 42 44  1  0  0  0  0
 43 45  1  0  0  0  0
 43 46  1  0  0  0  0
 44 48  1  0  0  0  0
 45 50  1  0  0  0  0
 46 67  1  0  0  0  0
 47 50  1  0  0  0  0
 47 67  1  0  0  0  0
 48 71  1  0  0  0  0
 49 66  1  0  0  0  0
 50 65  1  0  0  0  0
 53 60  1  0  0  0  0
 54 62  1  0  0  0  0
 55 63  1  0  0  0  0
 56 63  1  0  0  0  0
 57 63  1  0  0  0  0
 58 73  1  0  0  0  0
 59 60  1  0  0  0  0
 59 80  1  0  0  0  0
 61 63  1  0  0  0  0
 61 72  1  0  0  0  0
 62 73  1  0  0  0  0
 64 65  1  0  0  0  0
M  CHG  1  73   1
M  ISO  4  38 100  59 101  70 100  80 101
M  END
> <Batch ID>
0021

> <Smiles>
CNC(C)C(=O)NC(C(=O)N1Cc2cc([101O:1][101CH2:1]C(C)c3c(C)cc(C)c([100NH:0][100C:0](=O)N4CCCC(n5nc(-c6ccc(Oc7ccc(F)cc7F)cc6)c(C(N)=O)c5N)C4)c3Cl)ccc2CC1C(=O)NC1CCCc2ccccc21)C(C)(C)C

> <Shape>
0.206

> <Color>
0.097

> <Negative vol penalty>
0.000

$$$$

  -OEChem-04052316123D

 89 98  0     1  0  0  0  0  0999 V2000
  -26.9717  -37.8927   25.6933 C   0  0  0  0  0  0  0  0  0  0  0  0
  -27.6897  -37.2192   24.7103 C   0  0  0  0  0  0  0  0  0  0  0  0
  -23.7510   -8.6845   21.5265 C   0  0  0  0  0  0  0  0  0  0  0  0
  -26.0204   -7.9955   21.9870 C   0  0  0  0  0  0  0  0  0  0  0  0
  -26.1435  -37.1815   26.5606 C   0  0  0  0  0  0  0  0  0  0  0  0
  -27.5806  -35.8338   24.5947 C   0  0  0  0  0  0  0  0  0  0  0  0
  -27.6905  -30.6152   19.6886 C   0  0  0  0  0  0  0  0  0  0  0  0
  -23.2880   -7.8265   22.5240 C   0  0  0  0  0  0  0  0  0  0  0  0
  -25.5574   -7.1375   22.9846 C   0  0  0  0  0  0  0  0  0  0  0  0
  -28.3216  -29.4010   19.4215 C   0  0  0  0  0  0  0  0  0  0  0  0
  -22.6866   -4.5199   22.8830 C   0  0  0  0  0  0  0  0  0  0  0  0
  -21.5760   -3.7280   22.5915 C   0  0  0  0  0  0  0  0  0  0  0  0
  -26.7992  -28.2860   20.9242 C   0  0  0  0  0  0  0  0  0  0  0  0
  -24.9054  -19.6897   21.0618 C   0  0  0  0  0  0  0  0  0  0  0  0
  -20.3652   -4.7559   24.4122 C   0  0  0  0  0  0  0  0  0  0  0  0
  -25.1172   -8.7690   21.2579 C   0  0  0  0  0  0  0  0  0  0  0  0
  -25.2673   -9.6228   18.8587 C   0  0  0  0  0  0  0  0  0  0  0  0
  -26.0168  -35.7878   26.4493 C   0  0  0  0  0  0  0  0  0  0  0  0
  -26.6141  -30.6757   20.5853 C   0  0  0  0  0  0  0  0  0  0  0  0
  -26.7510  -35.1032   25.4621 C   0  0  0  0  0  0  0  0  0  0  0  0
  -26.1544  -29.5018   21.1990 C   0  0  0  0  0  0  0  0  0  0  0  0
  -24.1363  -18.5354   21.1576 C   0  0  0  0  0  0  0  0  0  0  0  0
  -24.1912   -7.0530   23.2531 C   0  0  0  0  0  0  0  0  0  0  0  0
  -27.8778  -28.2367   20.0416 C   0  0  0  0  0  0  0  0  0  0  0  0
  -22.6366   -5.4298   23.9391 C   0  0  0  0  0  0  0  0  0  0  0  0
  -20.4153   -3.8460   23.3561 C   0  0  0  0  0  0  0  0  0  0  0  0
  -21.4759   -5.5478   24.7036 C   0  0  0  0  0  0  0  0  0  0  0  0
  -24.7461  -17.2899   21.0563 C   0  0  0  0  0  0  0  0  0  0  0  0
  -25.5960   -9.6547   20.2272 C   0  0  0  0  0  0  0  0  0  0  0  0
  -26.2696  -19.5457   20.8662 C   0  0  0  0  0  0  0  0  0  0  0  0
  -26.1174  -17.2534   20.8607 C   0  0  0  0  0  0  0  0  0  0  0  0
  -25.9767  -10.6635   18.3109 C   0  0  0  0  0  0  0  0  0  0  0  0
  -24.3984   -8.7320   18.1465 C   0  0  0  0  0  0  0  0  0  0  0  0
  -26.0809  -32.1437   23.3538 C   0  0  0  0  0  0  0  0  0  0  0  0
  -23.0874  -30.9576   22.9603 C   0  0  0  0  0  0  0  0  0  0  0  0
  -21.0687  -28.5992   21.5427 C   0  0  0  0  0  0  0  0  0  0  0  0
  -28.1278  -15.7663   20.5557 C   0  0  0  0  0  0  0  0  0  0  0  0
  -25.1457  -35.0567   27.4400 C   0  0  0  0  0  0  0  0  0  0  0  0
  -25.9270  -31.9889   20.8422 C   0  0  0  0  0  0  0  0  0  0  0  0
  -24.9899  -29.5098   22.1541 C   0  0  0  0  0  0  0  0  0  0  0  0
  -24.7967  -33.6341   27.0105 C   0  0  0  0  0  0  0  0  0  0  0  0
  -29.9905  -13.1995   18.9373 C   0  0  0  0  0  0  0  0  0  0  0  0
  -26.0421  -32.9050   26.5162 C   0  0  0  0  0  0  0  0  0  0  0  0
  -29.0427  -11.9980   18.9545 C   0  0  0  0  0  0  0  0  0  0  0  0
  -26.9226  -23.8738   18.5277 C   0  0  0  0  0  0  0  0  0  0  0  0
  -27.5134  -23.6119   20.9779 C   0  0  0  0  0  0  0  0  0  0  0  0
  -27.6706  -25.2043   18.4930 C   0  0  0  0  0  0  0  0  0  0  0  0
  -28.2596  -24.9433   20.9374 C   0  0  0  0  0  0  0  0  0  0  0  0
  -29.8741  -14.0319   20.2130 C   0  0  0  0  0  0  0  0  0  0  0  0
  -27.5631  -13.2570   20.5709 C   0  0  0  0  0  0  0  0  0  0  0  0
  -26.6400  -33.6039   25.2892 C   0  0  1  0  0  0  0  0  0  0  0  0
  -25.1693  -32.0179   22.1660 C   0  0  1  0  0  0  0  0  0  0  0  0
  -27.5976  -12.4248   19.2786 C   0  0  2  0  0  0  0  0  0  0  0  0
  -27.5024  -22.9534   19.5999 C   0  0  0  0  0  0  0  0  0  0  0  0
  -27.6934  -25.8752   19.8656 C   0  0  0  0  0  0  0  0  0  1  0  0
  -22.6641  -18.6803   21.3683 C   0  0  0  0  0  0  0  0  0  0  0  0
  -28.6065  -20.4448   20.5151 C   0  0  0  0  0  0  0  0  0  0  0  0
  -18.6715  -27.8647   21.4361 C   0  0  0  0  0  0  0  0  0  0  0  0
  -23.3401  -29.7369   25.7453 C   0  0  0  0  0  0  0  0  0  0  0  0
  -21.3841  -28.2708   25.2042 C   0  0  0  0  0  0  0  0  0  0  0  0
  -21.1080  -30.7496   25.2488 C   0  0  0  0  0  0  0  0  0  0  0  0
  -20.9407  -29.0462   18.6199 C   0  0  0  0  0  0  0  0  0  0  0  0
  -26.5999  -21.0068   18.3362 C   0  0  0  0  0  0  0  0  0  0  0  0
  -27.1366  -20.7787   20.7571 C   0  0  1  0  0  0  0  0  0  0  0  0
  -22.3847  -29.6787   23.3474 C   0  0  1  0  0  0  0  0  0  0  0  0
  -19.7540  -28.7176   20.7930 C   0  0  2  0  0  0  0  0  0  0  0  0
  -22.0774  -29.6089   24.8700 C   0  0  0  0  0  0  0  0  0  0  0  0
  -26.4480  -10.6377   20.5301 N   0  0  0  0  0  0  0  0  0  0  0  0
  -26.8976  -18.3531   20.7628 N   0  0  0  0  0  0  0  0  0  0  0  0
  -26.6607  -11.2331   19.3442 N   0  0  0  0  0  0  0  0  0  0  0  0
  -24.3551  -30.8193   22.3776 N   0  0  0  0  0  0  0  0  0  0  0  0
  -28.4780  -14.4033   20.4536 N   0  0  0  0  0  0  0  0  0  0  0  0
  -26.0759  -11.1377   17.0509 N   0  0  0  0  0  0  0  0  0  0  0  0
  -24.9422   -7.5596   17.6044 N   0  0  0  0  0  0  0  0  0  0  0  0
  -26.7670  -15.9988   20.7523 N   0  0  0  0  0  0  0  0  0  0  0  0
  -25.8740  -33.2860   24.1032 N   0  0  0  0  0  0  0  0  0  0  0  0
  -21.2045  -29.5873   22.4948 N   0  0  0  0  0  0  0  0  0  0  0  0
  -19.9222  -28.2764   19.3795 N   0  3  0  0  0  0  0  0  0  0  0  0
  -26.6829  -21.7143   19.6651 N   0  3  1  0  0  0  0  0  0  0  0  0
  -23.1793   -8.9769   17.9811 O   0  0  0  0  0  0  0  0  0  0  0  0
  -26.9095  -31.2683   23.5749 O   0  0  0  0  0  0  0  0  0  0  0  0
  -22.5289  -32.0390   23.1609 O   0  0  0  0  0  0  0  0  0  0  0  0
  -21.8911  -27.7161   21.3098 O   0  0  0  0  0  0  0  0  0  0  0  0
  -28.9689  -16.6623   20.4475 O   0  0  0  0  0  0  0  0  0  0  0  0
  -23.7398   -6.2158   24.2267 O   0  0  0  0  0  0  0  0  0  0  0  0
  -28.4925  -27.0504   19.7833 O   0  0  0  0  0  0  0  0  0  1  0  0
  -19.3483   -3.0865   23.0751 F   0  0  0  0  0  0  0  0  0  0  0  0
  -21.4215   -6.4210   25.7187 F   0  0  0  0  0  0  0  0  0  0  0  0
  -23.8072  -15.8433   21.1750 Cl  0  0  0  0  0  0  0  0  0  0  0  0
  1  2  1  0  0  0  0
  1  5  2  0  0  0  0
  2  6  2  0  0  0  0
  3  8  2  0  0  0  0
  3 16  1  0  0  0  0
  4  9  1  0  0  0  0
  4 16  2  0  0  0  0
  5 18  1  0  0  0  0
  6 20  1  0  0  0  0
  7 10  2  0  0  0  0
  7 19  1  0  0  0  0
  8 23  1  0  0  0  0
  9 23  2  0  0  0  0
 10 24  1  0  0  0  0
 11 12  2  0  0  0  0
 11 25  1  0  0  0  0
 12 26  1  0  0  0  0
 13 21  1  0  0  0  0
 13 24  2  0  0  0  0
 14 22  2  0  0  0  0
 14 30  1  0  0  0  0
 15 26  2  0  0  0  0
 15 27  1  0  0  0  0
 16 29  1  0  0  0  0
 17 29  1  0  0  0  0
 17 32  2  0  0  0  0
 17 33  1  0  0  0  0
 18 20  2  0  0  0  0
 18 38  1  0  0  0  0
 19 21  2  0  0  0  0
 19 39  1  0  0  0  0
 20 51  1  0  0  0  0
 21 40  1  0  0  0  0
 22 28  1  0  0  0  0
 22 56  1  0  0  0  0
 23 85  1  0  0  0  0
 24 86  1  0  0  0  0
 25 27  2  0  0  0  0
 25 85  1  0  0  0  0
 26 87  1  0  0  0  0
 27 88  1  0  0  0  0
 28 31  2  0  0  0  0
 28 89  1  0  0  0  0
 29 68  2  0  0  0  0
 30 64  1  0  0  0  0
 30 69  2  0  0  0  0
 31 69  1  0  0  0  0
 31 75  1  0  0  0  0
 32 70  1  0  0  0  0
 32 73  1  0  0  0  0
 33 74  1  0  0  0  0
 33 80  2  0  0  0  0
 34 52  1  0  0  0  0
 34 76  1  0  0  0  0
 34 81  2  0  0  0  0
 35 65  1  0  0  0  0
 35 71  1  0  0  0  0
 35 82  2  0  0  0  0
 36 66  1  0  0  0  0
 36 77  1  0  0  0  0
 36 83  2  0  0  0  0
 37 72  1  0  0  0  0
 37 75  1  0  0  0  0
 37 84  2  0  0  0  0
 38 41  1  0  0  0  0
 39 52  1  0  0  0  0
 40 71  1  0  0  0  0
 41 43  1  0  0  0  0
 42 44  1  0  0  0  0
 42 49  1  0  0  0  0
 43 51  1  0  0  0  0
 44 53  1  0  0  0  0
 45 47  1  0  0  0  0
 45 54  1  0  0  0  0
 46 48  1  0  0  0  0
 46 54  1  0  0  0  0
 47 55  1  0  0  0  0
 48 55  1  0  0  0  0
 49 72  1  0  0  0  0
 50 53  1  0  0  0  0
 50 72  1  0  0  0  0
 51 76  1  0  0  0  0
 52 71  1  0  0  0  0
 53 70  1  0  0  0  0
 54 79  1  0  0  0  0
 55 86  1  0  0  0  0
 57 64  1  0  0  0  0
 58 66  1  0  0  0  0
 59 67  1  0  0  0  0
 60 67  1  0  0  0  0
 61 67  1  0  0  0  0
 62 78  1  0  0  0  0
 63 79  1  0  0  0  0
 64 79  1  0  0  0  0
 65 67  1  0  0  0  0
 65 77  1  0  0  0  0
 66 78  1  0  0  0  0
 68 70  1  0  0  0  0
M  CHG  2  78   1  79   1
M  ISO  4  37 100  55 101  75 100  86 101
M  END
> <Batch ID>
0021

> <Smiles>
CNC(C)C(=O)NC(C(=O)N1Cc2cc([101O:1][101CH:1]3CCC(N(C)C(C)c4cc(C)c(Cl)c([100NH:0][100C:0](=O)N5CCCC(n6nc(-c7ccc(Oc8ccc(F)cc8F)cc7)c(C(N)=O)c6N)C5)n4)CC3)ccc2CC1C(=O)NC1CCCc2ccccc21)C(C)(C)C

> <Shape>
0.285

> <Color>
0.090

> <Negative vol penalty>
0.000

$$$$

  -OEChem-04052316123D

 90 98  0     1  0  0  0  0  0999 V2000
  -38.4972  -36.8047   20.7645 C   0  0  0  0  0  0  0  0  0  0  0  0
  -38.4710  -35.4265   20.9523 C   0  0  0  0  0  0  0  0  0  0  0  0
  -23.0751   -9.8686   19.9387 C   0  0  0  0  0  0  0  0  0  0  0  0
  -23.8337   -9.8738   22.2325 C   0  0  0  0  0  0  0  0  0  0  0  0
  -37.4829  -37.5991   21.2976 C   0  0  0  0  0  0  0  0  0  0  0  0
  -37.4311  -34.8419   21.6742 C   0  0  0  0  0  0  0  0  0  0  0  0
  -34.8710  -29.3705   20.6666 C   0  0  0  0  0  0  0  0  0  0  0  0
  -31.8844  -18.3449   24.1998 C   0  0  0  0  0  0  0  0  0  0  0  0
  -30.4972  -18.3416   24.0549 C   0  0  0  0  0  0  0  0  0  0  0  0
  -22.3312   -8.7151   20.1873 C   0  0  0  0  0  0  0  0  0  0  0  0
  -23.0898   -8.7203   22.4812 C   0  0  0  0  0  0  0  0  0  0  0  0
  -35.0618  -28.1224   21.2578 C   0  0  0  0  0  0  0  0  0  0  0  0
  -19.3823   -7.9169   21.6364 C   0  0  0  0  0  0  0  0  0  0  0  0
  -18.0757   -7.8709   21.1504 C   0  0  0  0  0  0  0  0  0  0  0  0
  -33.1820  -28.5312   22.7133 C   0  0  0  0  0  0  0  0  0  0  0  0
  -32.0615  -16.5945   22.5439 C   0  0  0  0  0  0  0  0  0  0  0  0
  -18.6364   -5.9290   19.8268 C   0  0  0  0  0  0  0  0  0  0  0  0
  -23.8264  -10.4479   20.9613 C   0  0  0  0  0  0  0  0  0  0  0  0
  -24.1679  -12.9732   20.8436 C   0  0  0  0  0  0  0  0  0  0  0  0
  -36.4248  -37.0229   22.0181 C   0  0  0  0  0  0  0  0  0  0  0  0
  -33.8392  -30.2143   21.1024 C   0  0  0  0  0  0  0  0  0  0  0  0
  -36.4024  -35.6295   22.2185 C   0  0  0  0  0  0  0  0  0  0  0  0
  -32.9786  -29.7884   22.1242 C   0  0  0  0  0  0  0  0  0  0  0  0
  -32.6667  -17.4714   23.4442 C   0  0  0  0  0  0  0  0  0  0  0  0
  -29.8920  -17.4647   23.1546 C   0  0  0  0  0  0  0  0  0  0  0  0
  -30.6742  -16.5912   22.3991 C   0  0  0  0  0  0  0  0  0  0  0  0
  -22.3386   -8.1410   21.4585 C   0  0  0  0  0  0  0  0  0  0  0  0
  -34.2191  -27.7038   22.2833 C   0  0  0  0  0  0  0  0  0  0  0  0
  -20.3160   -6.9690   21.2175 C   0  0  0  0  0  0  0  0  0  0  0  0
  -17.7027   -6.8770   20.2456 C   0  0  0  0  0  0  0  0  0  0  0  0
  -19.9430   -5.9751   20.3128 C   0  0  0  0  0  0  0  0  0  0  0  0
  -24.5954  -11.6391   20.7050 C   0  0  0  0  0  0  0  0  0  0  0  0
  -25.2602  -13.7231   20.4815 C   0  0  0  0  0  0  0  0  0  0  0  0
  -22.8972  -13.4885   21.2622 C   0  0  0  0  0  0  0  0  0  0  0  0
  -33.7101  -33.1063   22.4150 C   0  0  0  0  0  0  0  0  0  0  0  0
  -30.5135  -32.7113   22.0310 C   0  0  0  0  0  0  0  0  0  0  0  0
  -27.8798  -30.5684   21.6861 C   0  0  0  0  0  0  0  0  0  0  0  0
  -30.7261  -14.7693   20.6600 C   0  0  0  0  0  0  0  0  0  0  0  0
  -35.3762  -37.9273   22.6157 C   0  0  0  0  0  0  0  0  0  0  0  0
  -33.6300  -31.5465   20.4361 C   0  0  0  0  0  0  0  0  0  0  0  0
  -31.8435  -30.6483   22.6147 C   0  0  0  0  0  0  0  0  0  0  0  0
  -34.1112  -37.1904   23.0483 C   0  0  0  0  0  0  0  0  0  0  0  0
  -29.6133  -12.3573   18.2891 C   0  0  0  0  0  0  0  0  0  0  0  0
  -34.4683  -35.9332   23.8349 C   0  0  0  0  0  0  0  0  0  0  0  0
  -28.1735  -12.0651   18.7177 C   0  0  0  0  0  0  0  0  0  0  0  0
  -30.5278  -12.5852   19.4915 C   0  0  0  0  0  0  0  0  0  0  0  0
  -28.6200  -13.3083   20.8723 C   0  0  0  0  0  0  0  0  0  0  0  0
  -35.2780  -34.9556   22.9746 C   0  0  1  0  0  0  0  0  0  0  0  0
  -32.8668  -32.5379   21.3090 C   0  0  1  0  0  0  0  0  0  0  0  0
  -27.6478  -13.1359   19.6938 C   0  0  2  0  0  0  0  0  0  0  0  0
  -28.4038  -17.4825   23.0209 C   0  0  0  0  0  0  0  0  0  0  0  0
  -34.5813  -14.6174   24.8749 C   0  0  0  0  0  0  0  0  0  0  0  0
  -25.3836  -30.5403   21.4302 C   0  0  0  0  0  0  0  0  0  0  0  0
  -36.1736  -17.2824   25.2070 C   0  0  0  0  0  0  0  0  0  0  0  0
  -30.2045  -33.3505   24.9985 C   0  0  0  0  0  0  0  0  0  0  0  0
  -27.8932  -32.3939   24.8925 C   0  0  0  0  0  0  0  0  0  0  0  0
  -28.4774  -34.3941   23.5212 C   0  0  0  0  0  0  0  0  0  0  0  0
  -28.0484  -29.2223   19.0558 C   0  0  0  0  0  0  0  0  0  0  0  0
  -34.1279  -15.8601   25.6296 C   0  0  0  0  0  0  0  0  0  0  0  0
  -34.4334  -21.6117   22.1665 C   0  0  0  0  0  0  0  0  0  0  0  0
  -34.9879  -22.9576   21.6937 C   0  0  0  0  0  0  0  0  0  0  0  0
  -35.0056  -20.4558   21.3408 C   0  0  0  0  0  0  0  0  0  0  0  0
  -34.4444  -24.1094   22.5366 C   0  0  0  0  0  0  0  0  0  0  0  0
  -34.4290  -19.0971   21.7192 C   0  0  0  0  0  0  0  0  0  0  0  0
  -34.9578  -25.4557   22.0459 C   0  0  0  0  0  0  0  0  0  1  0  0
  -34.1777  -17.4758   23.6025 C   0  0  2  0  0  0  0  0  0  0  0  0
  -29.3995  -32.1321   22.8693 C   0  0  1  0  0  0  0  0  0  0  0  0
  -26.7208  -30.5464   20.7059 C   0  0  2  0  0  0  0  0  0  0  0  0
  -34.6453  -17.2050   25.0616 C   0  0  2  0  0  0  0  0  0  0  0  0
  -29.0161  -33.0520   24.0627 C   0  0  0  0  0  0  0  0  0  0  0  0
  -25.8605  -11.5437   20.2873 N   0  0  0  0  0  0  0  0  0  0  0  0
  -26.2373  -12.8275   20.1602 N   0  0  0  0  0  0  0  0  0  0  0  0
  -31.6837  -31.9449   21.9359 N   0  0  0  0  0  0  0  0  0  0  0  0
  -29.9682  -13.6152   20.3694 N   0  0  0  0  0  0  0  0  0  0  0  0
  -25.4705  -15.0547   20.4097 N   0  0  0  0  0  0  0  0  0  0  0  0
  -21.8852  -12.5789   21.5982 N   0  0  0  0  0  0  0  0  0  0  0  0
  -30.0782  -15.6936   21.4788 N   0  0  0  0  0  0  0  0  0  0  0  0
  -34.4079  -34.2456   22.0618 N   0  0  0  0  0  0  0  0  0  0  0  0
  -28.2999  -31.8546   21.9515 N   0  0  0  0  0  0  0  0  0  0  0  0
  -26.7942  -29.3327   19.8442 N   0  3  0  0  0  0  0  0  0  0  0  0
  -34.7515  -18.7650   23.1268 N   0  3  0  0  0  0  0  0  0  0  0  0
  -22.6607  -14.7190   21.3204 O   0  0  0  0  0  0  0  0  0  0  0  0
  -33.7255  -32.5533   23.5085 O   0  0  0  0  0  0  0  0  0  0  0  0
  -30.3486  -33.8000   21.4752 O   0  0  0  0  0  0  0  0  0  0  0  0
  -28.3616  -29.5470   22.1709 O   0  0  0  0  0  0  0  0  0  0  0  0
  -31.8555  -14.9385   20.1931 O   0  0  0  0  0  0  0  0  0  0  0  0
  -21.6126   -7.0156   21.7015 O   0  0  0  0  0  0  0  0  0  0  0  0
  -34.4036  -26.4863   22.8626 O   0  0  0  0  0  0  0  0  0  1  0  0
  -16.4475   -6.8320   19.7802 F   0  0  0  0  0  0  0  0  0  0  0  0
  -20.8353   -5.0610   19.9077 F   0  0  0  0  0  0  0  0  0  0  0  0
  1  2  1  0  0  0  0
  1  5  2  0  0  0  0
  2  6  2  0  0  0  0
  3 10  2  0  0  0  0
  3 18  1  0  0  0  0
  4 11  1  0  0  0  0
  4 18  2  0  0  0  0
  5 20  1  0  0  0  0
  6 22  1  0  0  0  0
  7 12  2  0  0  0  0
  7 21  1  0  0  0  0
  8  9  2  0  0  0  0
  8 24  1  0  0  0  0
  9 25  1  0  0  0  0
 10 27  1  0  0  0  0
 11 27  2  0  0  0  0
 12 28  1  0  0  0  0
 13 14  2  0  0  0  0
 13 29  1  0  0  0  0
 14 30  1  0  0  0  0
 15 23  1  0  0  0  0
 15 28  2  0  0  0  0
 16 24  2  0  0  0  0
 16 26  1  0  0  0  0
 17 30  2  0  0  0  0
 17 31  1  0  0  0  0
 18 32  1  0  0  0  0
 19 32  1  0  0  0  0
 19 33  2  0  0  0  0
 19 34  1  0  0  0  0
 20 22  2  0  0  0  0
 20 39  1  0  0  0  0
 21 23  2  0  0  0  0
 21 40  1  0  0  0  0
 22 48  1  0  0  0  0
 23 41  1  0  0  0  0
 24 66  1  0  0  0  0
 25 26  2  0  0  0  0
 25 51  1  0  0  0  0
 26 77  1  0  0  0  0
 27 87  1  0  0  0  0
 28 88  1  0  0  0  0
 29 31  2  0  0  0  0
 29 87  1  0  0  0  0
 30 89  1  0  0  0  0
 31 90  1  0  0  0  0
 32 71  2  0  0  0  0
 33 72  1  0  0  0  0
 33 75  1  0  0  0  0
 34 76  1  0  0  0  0
 34 82  2  0  0  0  0
 35 49  1  0  0  0  0
 35 78  1  0  0  0  0
 35 83  2  0  0  0  0
 36 67  1  0  0  0  0
 36 73  1  0  0  0  0
 36 84  2  0  0  0  0
 37 68  1  0  0  0  0
 37 79  1  0  0  0  0
 37 85  2  0  0  0  0
 38 74  1  0  0  0  0
 38 77  1  0  0  0  0
 38 86  2  0  0  0  0
 39 42  1  0  0  0  0
 40 49  1  0  0  0  0
 41 73  1  0  0  0  0
 42 44  1  0  0  0  0
 43 45  1  0  0  0  0
 43 46  1  0  0  0  0
 44 48  1  0  0  0  0
 45 50  1  0  0  0  0
 46 74  1  0  0  0  0
 47 50  1  0  0  0  0
 47 74  1  0  0  0  0
 48 78  1  0  0  0  0
 49 73  1  0  0  0  0
 50 72  1  0  0  0  0
 52 59  1  0  0  0  0
 53 68  1  0  0  0  0
 54 69  1  0  0  0  0
 55 70  1  0  0  0  0
 56 70  1  0  0  0  0
 57 70  1  0  0  0  0
 58 80  1  0  0  0  0
 59 69  1  0  0  0  0
 60 61  1  0  0  0  0
 60 62  1  0  0  0  0
 61 63  1  0  0  0  0
 62 64  1  0  0  0  0
 63 65  1  0  0  0  0
 64 81  1  0  0  0  0
 65 88  1  0  0  0  0
 66 69  1  0  0  0  0
 66 81  1  0  0  0  0
 67 70  1  0  0  0  0
 67 79  1  0  0  0  0
 68 80  1  0  0  0  0
 71 72  1  0  0  0  0
M  CHG  2  80   1  81   1
M  ISO  4  38 100  65 101  77 100  88 101
M  END
> <Batch ID>
0021

> <Smiles>
CCC(C)C(NCCCCC[101CH2:1][101O:1]c1ccc2c(c1)CN(C(=O)C(NC(=O)C(C)NC)C(C)(C)C)C(C(=O)NC1CCCc3ccccc31)C2)c1ccc(C)c([100NH:0][100C:0](=O)N2CCCC(n3nc(-c4ccc(Oc5ccc(F)cc5F)cc4)c(C(N)=O)c3N)C2)c1

> <Shape>
0.183

> <Color>
0.180

> <Negative vol penalty>
0.000

$$$$

  -OEChem-04052316123D

 84 92  0     1  0  0  0  0  0999 V2000
  -25.3099  -31.9542   24.7480 C   0  0  0  0  0  0  0  0  0  0  0  0
  -26.1349  -30.8965   24.3791 C   0  0  0  0  0  0  0  0  0  0  0  0
  -23.8072   -9.7497   21.6867 C   0  0  0  0  0  0  0  0  0  0  0  0
  -24.3953  -10.9287   23.7118 C   0  0  0  0  0  0  0  0  0  0  0  0
  -23.9646  -31.9480   24.3820 C   0  0  0  0  0  0  0  0  0  0  0  0
  -25.6147  -29.8314   23.6447 C   0  0  0  0  0  0  0  0  0  0  0  0
  -28.5012  -26.5711   19.3384 C   0  0  0  0  0  0  0  0  0  0  0  0
  -32.4060  -18.8297   21.2674 C   0  0  0  0  0  0  0  0  0  0  0  0
  -32.5241  -17.4723   21.5658 C   0  0  0  0  0  0  0  0  0  0  0  0
  -23.3045   -8.6941   22.4473 C   0  0  0  0  0  0  0  0  0  0  0  0
  -23.8925   -9.8731   24.4724 C   0  0  0  0  0  0  0  0  0  0  0  0
  -29.1443  -25.3346   19.3717 C   0  0  0  0  0  0  0  0  0  0  0  0
  -20.8681   -8.7467   25.4747 C   0  0  0  0  0  0  0  0  0  0  0  0
  -20.0601   -9.0639   26.5665 C   0  0  0  0  0  0  0  0  0  0  0  0
  -27.1323  -24.2731   18.5691 C   0  0  0  0  0  0  0  0  0  0  0  0
  -21.6256   -7.9666   28.0439 C   0  0  0  0  0  0  0  0  0  0  0  0
  -24.3527  -10.8670   22.3190 C   0  0  0  0  0  0  0  0  0  0  0  0
  -24.1692  -13.0892   21.0796 C   0  0  0  0  0  0  0  0  0  0  0  0
  -23.4299  -30.8869   23.6344 C   0  0  0  0  0  0  0  0  0  0  0  0
  -27.1631  -26.6666   18.9298 C   0  0  0  0  0  0  0  0  0  0  0  0
  -24.2606  -29.8104   23.2694 C   0  0  0  0  0  0  0  0  0  0  0  0
  -26.4752  -25.5124   18.5290 C   0  0  0  0  0  0  0  0  0  0  0  0
  -31.3569  -19.5738   21.8073 C   0  0  0  0  0  0  0  0  0  0  0  0
  -31.5931  -16.8589   22.4040 C   0  0  0  0  0  0  0  0  0  0  0  0
  -23.3471   -8.7557   23.8401 C   0  0  0  0  0  0  0  0  0  0  0  0
  -28.4591  -24.1850   18.9898 C   0  0  0  0  0  0  0  0  0  0  0  0
  -22.0548   -8.0394   25.6675 C   0  0  0  0  0  0  0  0  0  0  0  0
  -20.4388   -8.6739   27.8511 C   0  0  0  0  0  0  0  0  0  0  0  0
  -22.4336   -7.6494   26.9520 C   0  0  0  0  0  0  0  0  0  0  0  0
  -30.4259  -18.9605   22.6455 C   0  0  0  0  0  0  0  0  0  0  0  0
  -30.5440  -17.6030   22.9439 C   0  0  0  0  0  0  0  0  0  0  0  0
  -24.8727  -11.9576   21.5339 C   0  0  0  0  0  0  0  0  0  0  0  0
  -25.1033  -13.8181   20.3849 C   0  0  0  0  0  0  0  0  0  0  0  0
  -22.7943  -13.4492   21.2687 C   0  0  0  0  0  0  0  0  0  0  0  0
  -24.4585  -27.6083   20.3089 C   0  0  0  0  0  0  0  0  0  0  0  0
  -30.2023  -21.3486   20.4262 C   0  0  0  0  0  0  0  0  0  0  0  0
  -23.2459  -27.1756   17.3315 C   0  0  0  0  0  0  0  0  0  0  0  0
  -23.4948  -25.6318   14.2981 C   0  0  0  0  0  0  0  0  0  0  0  0
  -31.0757  -14.1270   20.6780 C   0  0  0  0  0  0  0  0  0  0  0  0
  -21.9587  -30.9017   23.3026 C   0  0  0  0  0  0  0  0  0  0  0  0
  -26.4918  -28.0115   18.8740 C   0  0  0  0  0  0  0  0  0  0  0  0
  -25.0439  -25.5639   18.0630 C   0  0  0  0  0  0  0  0  0  0  0  0
  -21.5724  -29.9158   22.2031 C   0  0  0  0  0  0  0  0  0  0  0  0
  -29.1123  -13.2977   17.8260 C   0  0  0  0  0  0  0  0  0  0  0  0
  -22.2086  -28.5534   22.4600 C   0  0  0  0  0  0  0  0  0  0  0  0
  -27.7396  -12.9623   18.4119 C   0  0  0  0  0  0  0  0  0  0  0  0
  -30.2446  -12.8303   18.7378 C   0  0  0  0  0  0  0  0  0  0  0  0
  -28.7823  -12.9716   20.7166 C   0  0  0  0  0  0  0  0  0  0  0  0
  -23.7391  -28.6489   22.4515 C   0  0  1  0  0  0  0  0  0  0  0  0
  -24.9699  -27.9224   18.9314 C   0  0  1  0  0  0  0  0  0  0  0  0
  -27.6077  -13.4732   19.8592 C   0  0  2  0  0  0  0  0  0  0  0  0
  -22.3351  -25.4481   12.0802 C   0  0  0  0  0  0  0  0  0  0  0  0
  -21.1251  -25.3803   18.5919 C   0  0  0  0  0  0  0  0  0  0  0  0
  -20.6154  -24.4955   16.3060 C   0  0  0  0  0  0  0  0  0  0  0  0
  -20.2696  -26.9137   16.8111 C   0  0  0  0  0  0  0  0  0  0  0  0
  -25.8483  -26.6900   12.8490 C   0  0  0  0  0  0  0  0  0  0  0  0
  -31.2738  -21.0356   21.4548 C   0  0  0  0  0  0  0  0  0  0  0  0
  -31.7635  -15.4016   22.6933 C   0  0  0  0  0  0  0  0  0  0  0  0
  -30.1078  -22.8010   20.0007 C   0  0  0  0  0  0  0  0  0  1  0  0
  -22.6234  -26.0183   16.5884 C   0  0  1  0  0  0  0  0  0  0  0  0
  -23.4051  -26.1724   12.8824 C   0  0  2  0  0  0  0  0  0  0  0  0
  -21.1847  -25.7004   17.0849 C   0  0  0  0  0  0  0  0  0  0  0  0
  -26.1547  -11.9627   21.1592 N   0  0  0  0  0  0  0  0  0  0  0  0
  -26.2642  -13.1064   20.4620 N   0  0  0  0  0  0  0  0  0  0  0  0
  -24.4291  -26.9013   18.0320 N   0  0  0  0  0  0  0  0  0  0  0  0
  -30.0608  -13.3505   20.0949 N   0  0  0  0  0  0  0  0  0  0  0  0
  -25.0366  -14.9921   19.7217 N   0  0  0  0  0  0  0  0  0  0  0  0
  -21.9735  -12.5868   22.0082 N   0  0  0  0  0  0  0  0  0  0  0  0
  -24.2333  -28.7234   21.0933 N   0  0  0  0  0  0  0  0  0  0  0  0
  -22.7062  -26.3517   15.1705 N   0  0  0  0  0  0  0  0  0  0  0  0
  -30.8183  -14.5858   21.9641 N   0  0  0  0  0  0  0  0  0  0  0  0
  -24.7099  -26.0079   12.1814 N   0  3  0  0  0  0  0  0  0  0  0  0
  -22.3041  -14.4962   20.7820 O   0  0  0  0  0  0  0  0  0  0  0  0
  -24.2799  -26.4408   20.6354 O   0  0  0  0  0  0  0  0  0  0  0  0
  -29.4536  -20.4899   19.9617 O   0  0  0  0  0  0  0  0  0  0  0  0
  -22.7063  -28.2839   17.2860 O   0  0  0  0  0  0  0  0  0  0  0  0
  -24.1916  -24.6652   14.5991 O   0  0  0  0  0  0  0  0  0  0  0  0
  -32.1306  -14.3963   20.0936 O   0  0  0  0  0  0  0  0  0  0  0  0
  -22.8564   -7.7259   24.5826 O   0  0  0  0  0  0  0  0  0  0  0  0
  -29.0843  -22.9767   19.0220 O   0  0  0  0  0  0  0  0  0  1  0  0
  -19.6635   -8.9799   28.8997 F   0  0  0  0  0  0  0  0  0  0  0  0
  -23.5731   -6.9708   27.1436 F   0  0  0  0  0  0  0  0  0  0  0  0
  -29.1325  -19.9149   23.3008 Cl  0  0  0  0  0  0  0  0  0  0  0  0
  -29.4027  -16.8093   23.9835 Cl  0  0  0  0  0  0  0  0  0  0  0  0
  1  2  1  0  0  0  0
  1  5  2  0  0  0  0
  2  6  2  0  0  0  0
  3 10  2  0  0  0  0
  3 17  1  0  0  0  0
  4 11  1  0  0  0  0
  4 17  2  0  0  0  0
  5 19  1  0  0  0  0
  6 21  1  0  0  0  0
  7 12  2  0  0  0  0
  7 20  1  0  0  0  0
  8  9  2  0  0  0  0
  8 23  1  0  0  0  0
  9 24  1  0  0  0  0
 10 25  1  0  0  0  0
 11 25  2  0  0  0  0
 12 26  1  0  0  0  0
 13 14  2  0  0  0  0
 13 27  1  0  0  0  0
 14 28  1  0  0  0  0
 15 22  1  0  0  0  0
 15 26  2  0  0  0  0
 16 28  2  0  0  0  0
 16 29  1  0  0  0  0
 17 32  1  0  0  0  0
 18 32  1  0  0  0  0
 18 33  2  0  0  0  0
 18 34  1  0  0  0  0
 19 21  2  0  0  0  0
 19 40  1  0  0  0  0
 20 22  2  0  0  0  0
 20 41  1  0  0  0  0
 21 49  1  0  0  0  0
 22 42  1  0  0  0  0
 23 30  2  0  0  0  0
 23 57  1  0  0  0  0
 24 31  2  0  0  0  0
 24 58  1  0  0  0  0
 25 79  1  0  0  0  0
 26 80  1  0  0  0  0
 27 29  2  0  0  0  0
 27 79  1  0  0  0  0
 28 81  1  0  0  0  0
 29 82  1  0  0  0  0
 30 31  1  0  0  0  0
 30 83  1  0  0  0  0
 31 84  1  0  0  0  0
 32 63  2  0  0  0  0
 33 64  1  0  0  0  0
 33 67  1  0  0  0  0
 34 68  1  0  0  0  0
 34 73  2  0  0  0  0
 35 50  1  0  0  0  0
 35 69  1  0  0  0  0
 35 74  2  0  0  0  0
 36 57  1  0  0  0  0
 36 59  1  0  0  0  0
 36 75  2  0  0  0  0
 37 60  1  0  0  0  0
 37 65  1  0  0  0  0
 37 76  2  0  0  0  0
 38 61  1  0  0  0  0
 38 70  1  0  0  0  0
 38 77  2  0  0  0  0
 39 66  1  0  0  0  0
 39 71  1  0  0  0  0
 39 78  2  0  0  0  0
 40 43  1  0  0  0  0
 41 50  1  0  0  0  0
 42 65  1  0  0  0  0
 43 45  1  0  0  0  0
 44 46  1  0  0  0  0
 44 47  1  0  0  0  0
 45 49  1  0  0  0  0
 46 51  1  0  0  0  0
 47 66  1  0  0  0  0
 48 51  1  0  0  0  0
 48 66  1  0  0  0  0
 49 69  1  0  0  0  0
 50 65  1  0  0  0  0
 51 64  1  0  0  0  0
 52 61  1  0  0  0  0
 53 62  1  0  0  0  0
 54 62  1  0  0  0  0
 55 62  1  0  0  0  0
 56 72  1  0  0  0  0
 58 71  1  0  0  0  0
 59 80  1  0  0  0  0
 60 62  1  0  0  0  0
 60 70  1  0  0  0  0
 61 72  1  0  0  0  0
 63 64  1  0  0  0  0
M  CHG  1  72   1
M  ISO  4  39 100  59 101  71 100  80 101
M  END
> <Batch ID>
0021

> <Smiles>
CNC(C)C(=O)NC(C(=O)N1Cc2cc([101O:1][101CH2:1]C(=O)Cc3ccc(C[100NH:0][100C:0](=O)N4CCCC(n5nc(-c6ccc(Oc7ccc(F)cc7F)cc6)c(C(N)=O)c5N)C4)c(Cl)c3Cl)ccc2CC1C(=O)NC1CCCc2ccccc21)C(C)(C)C

> <Shape>
0.253

> <Color>
0.172

> <Negative vol penalty>
0.000

$$$$

  -OEChem-04052316123D

 83 91  0     1  0  0  0  0  0999 V2000
  -37.3638  -32.1624   27.0172 C   0  0  0  0  0  0  0  0  0  0  0  0
  -37.1358  -30.8362   26.6640 C   0  0  0  0  0  0  0  0  0  0  0  0
  -22.9719   -9.9247   19.9531 C   0  0  0  0  0  0  0  0  0  0  0  0
  -23.7441   -9.8724   22.2418 C   0  0  0  0  0  0  0  0  0  0  0  0
  -36.2979  -33.0589   27.0804 C   0  0  0  0  0  0  0  0  0  0  0  0
  -35.8414  -30.4056   26.3748 C   0  0  0  0  0  0  0  0  0  0  0  0
  -34.1994  -26.1945   22.2425 C   0  0  0  0  0  0  0  0  0  0  0  0
  -22.1971   -8.7890   20.1885 C   0  0  0  0  0  0  0  0  0  0  0  0
  -22.9693   -8.7367   22.4772 C   0  0  0  0  0  0  0  0  0  0  0  0
  -33.8840  -24.8412   22.3568 C   0  0  0  0  0  0  0  0  0  0  0  0
  -23.1631   -5.4175   21.8639 C   0  0  0  0  0  0  0  0  0  0  0  0
  -23.7533   -4.3635   22.5613 C   0  0  0  0  0  0  0  0  0  0  0  0
  -31.5395  -25.4017   22.4488 C   0  0  0  0  0  0  0  0  0  0  0  0
  -32.1618  -16.3415   22.5945 C   0  0  0  0  0  0  0  0  0  0  0  0
  -30.6816  -18.1216   24.1510 C   0  0  0  0  0  0  0  0  0  0  0  0
  -22.0667   -4.5568   24.2804 C   0  0  0  0  0  0  0  0  0  0  0  0
  -23.7455  -10.4664   20.9797 C   0  0  0  0  0  0  0  0  0  0  0  0
  -24.1579  -12.9826   20.8990 C   0  0  0  0  0  0  0  0  0  0  0  0
  -34.9912  -32.6413   26.7825 C   0  0  0  0  0  0  0  0  0  0  0  0
  -33.1861  -27.1639   22.2415 C   0  0  0  0  0  0  0  0  0  0  0  0
  -34.7568  -31.2971   26.4354 C   0  0  0  0  0  0  0  0  0  0  0  0
  -31.8445  -26.7663   22.3318 C   0  0  0  0  0  0  0  0  0  0  0  0
  -32.8101  -17.1830   23.4985 C   0  0  0  0  0  0  0  0  0  0  0  0
  -32.0700  -18.0731   24.2768 C   0  0  0  0  0  0  0  0  0  0  0  0
  -30.7735  -16.3901   22.4687 C   0  0  0  0  0  0  0  0  0  0  0  0
  -22.1958   -8.1950   21.4506 C   0  0  0  0  0  0  0  0  0  0  0  0
  -32.5541  -24.4448   22.4628 C   0  0  0  0  0  0  0  0  0  0  0  0
  -22.0248   -6.0412   22.3747 C   0  0  0  0  0  0  0  0  0  0  0  0
  -23.2051   -3.9331   23.7696 C   0  0  0  0  0  0  0  0  0  0  0  0
  -21.4766   -5.6108   23.5830 C   0  0  0  0  0  0  0  0  0  0  0  0
  -30.0334  -17.2801   23.2470 C   0  0  0  0  0  0  0  0  0  0  0  0
  -24.5465  -11.6392   20.7370 C   0  0  0  0  0  0  0  0  0  0  0  0
  -25.2688  -13.7069   20.5416 C   0  0  0  0  0  0  0  0  0  0  0  0
  -22.9048  -13.5270   21.3338 C   0  0  0  0  0  0  0  0  0  0  0  0
  -32.4225  -29.6124   24.1191 C   0  0  0  0  0  0  0  0  0  0  0  0
  -30.2136  -30.1869   21.8141 C   0  0  0  0  0  0  0  0  0  0  0  0
  -28.2975  -28.9644   19.2683 C   0  0  0  0  0  0  0  0  0  0  0  0
  -30.7633  -14.5950   20.7013 C   0  0  0  0  0  0  0  0  0  0  0  0
  -33.8644  -33.6357   26.9104 C   0  0  0  0  0  0  0  0  0  0  0  0
  -33.5414  -28.6176   22.0906 C   0  0  0  0  0  0  0  0  0  0  0  0
  -30.7183  -27.7663   22.3152 C   0  0  0  0  0  0  0  0  0  0  0  0
  -32.5762  -33.1879   26.2248 C   0  0  0  0  0  0  0  0  0  0  0  0
  -29.5682  -12.2530   18.3004 C   0  0  0  0  0  0  0  0  0  0  0  0
  -32.2605  -31.7376   26.5766 C   0  0  0  0  0  0  0  0  0  0  0  0
  -28.1233  -11.9950   18.7336 C   0  0  0  0  0  0  0  0  0  0  0  0
  -30.4960  -12.4360   19.5002 C   0  0  0  0  0  0  0  0  0  0  0  0
  -28.6178  -13.1910   20.9043 C   0  0  0  0  0  0  0  0  0  0  0  0
  -33.3705  -30.7978   26.0906 C   0  0  1  0  0  0  0  0  0  0  0  0
  -32.4594  -29.5550   22.6181 C   0  0  1  0  0  0  0  0  0  0  0  0
  -27.6341  -13.0647   19.7296 C   0  0  2  0  0  0  0  0  0  0  0  0
  -34.2977  -17.1154   23.6130 C   0  0  0  0  0  0  0  0  0  0  0  0
  -26.5619  -29.6658   17.5971 C   0  0  0  0  0  0  0  0  0  0  0  0
  -28.1021  -30.2016   24.0167 C   0  0  0  0  0  0  0  0  0  0  0  0
  -26.3518  -29.9499   22.2443 C   0  0  0  0  0  0  0  0  0  0  0  0
  -27.8081  -31.9749   22.2779 C   0  0  0  0  0  0  0  0  0  0  0  0
  -30.0399  -28.2495   16.9853 C   0  0  0  0  0  0  0  0  0  0  0  0
  -32.7487  -18.9927   25.2605 C   0  0  0  0  0  0  0  0  0  0  0  0
  -33.4435  -20.1930   24.6081 C   0  0  0  0  0  0  0  0  0  0  0  0
  -32.4719  -21.1270   23.8853 C   0  0  0  0  0  0  0  0  0  0  0  0
  -33.2017  -22.2843   23.2170 C   0  0  0  0  0  0  0  0  0  1  0  0
  -28.7881  -29.7551   21.5680 C   0  0  1  0  0  0  0  0  0  0  0  0
  -28.0475  -29.4753   17.8609 C   0  0  2  0  0  0  0  0  0  0  0  0
  -27.7836  -30.4514   22.5290 C   0  0  0  0  0  0  0  0  0  0  0  0
  -25.8059  -11.5147   20.3097 N   0  0  0  0  0  0  0  0  0  0  0  0
  -26.2182  -12.7891   20.2002 N   0  0  0  0  0  0  0  0  0  0  0  0
  -31.1170  -29.1763   22.1721 N   0  0  0  0  0  0  0  0  0  0  0  0
  -29.9711  -13.4676   20.3976 N   0  0  0  0  0  0  0  0  0  0  0  0
  -25.5164  -15.0329   20.4892 N   0  0  0  0  0  0  0  0  0  0  0  0
  -21.8694  -12.6412   21.6621 N   0  0  0  0  0  0  0  0  0  0  0  0
  -30.1468  -15.5243   21.5385 N   0  0  0  0  0  0  0  0  0  0  0  0
  -33.2534  -30.5716   24.6660 N   0  0  0  0  0  0  0  0  0  0  0  0
  -28.5269  -29.9967   20.1532 N   0  0  0  0  0  0  0  0  0  0  0  0
  -28.5833  -28.5125   16.8575 N   0  3  0  0  0  0  0  0  0  0  0  0
  -22.7038  -14.7626   21.4126 O   0  0  0  0  0  0  0  0  0  0  0  0
  -31.6930  -28.8444   24.7353 O   0  0  0  0  0  0  0  0  0  0  0  0
  -30.5159  -31.3760   21.6862 O   0  0  0  0  0  0  0  0  0  0  0  0
  -28.2865  -27.7693   19.5549 O   0  0  0  0  0  0  0  0  0  0  0  0
  -31.8941  -14.7395   20.2298 O   0  0  0  0  0  0  0  0  0  0  0  0
  -21.4396   -7.0869   21.6807 O   0  0  0  0  0  0  0  0  0  0  0  0
  -32.2435  -23.1247   22.5751 O   0  0  0  0  0  0  0  0  0  1  0  0
  -23.7710   -2.9200   24.4385 F   0  0  0  0  0  0  0  0  0  0  0  0
  -20.3824   -6.2053   24.0782 F   0  0  0  0  0  0  0  0  0  0  0  0
  -28.3124  -17.3725   23.1234 Cl  0  0  0  0  0  0  0  0  0  0  0  0
  1  2  1  0  0  0  0
  1  5  2  0  0  0  0
  2  6  2  0  0  0  0
  3  8  2  0  0  0  0
  3 17  1  0  0  0  0
  4  9  1  0  0  0  0
  4 17  2  0  0  0  0
  5 19  1  0  0  0  0
  6 21  1  0  0  0  0
  7 10  2  0  0  0  0
  7 20  1  0  0  0  0
  8 26  1  0  0  0  0
  9 26  2  0  0  0  0
 10 27  1  0  0  0  0
 11 12  2  0  0  0  0
 11 28  1  0  0  0  0
 12 29  1  0  0  0  0
 13 22  1  0  0  0  0
 13 27  2  0  0  0  0
 14 23  1  0  0  0  0
 14 25  2  0  0  0  0
 15 24  1  0  0  0  0
 15 31  2  0  0  0  0
 16 29  2  0  0  0  0
 16 30  1  0  0  0  0
 17 32  1  0  0  0  0
 18 32  1  0  0  0  0
 18 33  2  0  0  0  0
 18 34  1  0  0  0  0
 19 21  2  0  0  0  0
 19 39  1  0  0  0  0
 20 22  2  0  0  0  0
 20 40  1  0  0  0  0
 21 48  1  0  0  0  0
 22 41  1  0  0  0  0
 23 24  2  0  0  0  0
 23 51  1  0  0  0  0
 24 57  1  0  0  0  0
 25 31  1  0  0  0  0
 25 70  1  0  0  0  0
 26 79  1  0  0  0  0
 27 80  1  0  0  0  0
 28 30  2  0  0  0  0
 28 79  1  0  0  0  0
 29 81  1  0  0  0  0
 30 82  1  0  0  0  0
 31 83  1  0  0  0  0
 32 64  2  0  0  0  0
 33 65  1  0  0  0  0
 33 68  1  0  0  0  0
 34 69  1  0  0  0  0
 34 74  2  0  0  0  0
 35 49  1  0  0  0  0
 35 71  1  0  0  0  0
 35 75  2  0  0  0  0
 36 61  1  0  0  0  0
 36 66  1  0  0  0  0
 36 76  2  0  0  0  0
 37 62  1  0  0  0  0
 37 72  1  0  0  0  0
 37 77  2  0  0  0  0
 38 67  1  0  0  0  0
 38 70  1  0  0  0  0
 38 78  2  0  0  0  0
 39 42  1  0  0  0  0
 40 49  1  0  0  0  0
 41 66  1  0  0  0  0
 42 44  1  0  0  0  0
 43 45  1  0  0  0  0
 43 46  1  0  0  0  0
 44 48  1  0  0  0  0
 45 50  1  0  0  0  0
 46 67  1  0  0  0  0
 47 50  1  0  0  0  0
 47 67  1  0  0  0  0
 48 71  1  0  0  0  0
 49 66  1  0  0  0  0
 50 65  1  0  0  0  0
 52 62  1  0  0  0  0
 53 63  1  0  0  0  0
 54 63  1  0  0  0  0
 55 63  1  0  0  0  0
 56 73  1  0  0  0  0
 57 58  1  0  0  0  0
 58 59  1  0  0  0  0
 59 60  1  0  0  0  0
 60 80  1  0  0  0  0
 61 63  1  0  0  0  0
 61 72  1  0  0  0  0
 62 73  1  0  0  0  0
 64 65  1  0  0  0  0
M  CHG  1  73   1
M  ISO  4  38 100  60 101  70 100  80 101
M  END
> <Batch ID>
0021

> <Smiles>
CNC(C)C(=O)NC(C(=O)N1Cc2cc([101O:1][101CH2:1]CCCc3cc(Cl)c([100NH:0][100C:0](=O)N4CCCC(n5nc(-c6ccc(Oc7ccc(F)cc7F)cc6)c(C(N)=O)c5N)C4)cc3C)ccc2CC1C(=O)NC1CCCc2ccccc21)C(C)(C)C

> <Shape>
0.211

> <Color>
0.212

> <Negative vol penalty>
0.000

$$$$

  -OEChem-04052316123D

 87 95  0     1  0  0  0  0  0999 V2000
  -18.2155  -25.3999   22.1437 C   0  0  0  0  0  0  0  0  0  0  0  0
  -19.4869  -25.4555   21.5816 C   0  0  0  0  0  0  0  0  0  0  0  0
  -24.2175  -13.0623   20.8299 C   0  0  0  0  0  0  0  0  0  0  0  0
  -26.6308  -13.1430   20.9112 C   0  0  0  0  0  0  0  0  0  0  0  0
  -17.5613  -26.5776   22.5031 C   0  0  0  0  0  0  0  0  0  0  0  0
  -20.1044  -26.6890   21.3775 C   0  0  0  0  0  0  0  0  0  0  0  0
  -24.9569  -26.6956   22.8260 C   0  0  0  0  0  0  0  0  0  0  0  0
  -24.2815  -11.8673   20.1135 C   0  0  0  0  0  0  0  0  0  0  0  0
  -26.6948  -11.9479   20.1948 C   0  0  0  0  0  0  0  0  0  0  0  0
  -25.8788  -26.1000   21.9663 C   0  0  0  0  0  0  0  0  0  0  0  0
  -24.8172   -8.5942   20.7713 C   0  0  0  0  0  0  0  0  0  0  0  0
  -23.9660   -7.5595   21.1590 C   0  0  0  0  0  0  0  0  0  0  0  0
  -26.5068  -28.2778   21.1406 C   0  0  0  0  0  0  0  0  0  0  0  0
  -29.6114  -21.9484   19.0961 C   0  0  0  0  0  0  0  0  0  0  0  0
  -22.9536   -7.5705   18.9654 C   0  0  0  0  0  0  0  0  0  0  0  0
  -25.3921  -13.7002   21.2288 C   0  0  0  0  0  0  0  0  0  0  0  0
  -25.2746  -15.0865   23.3671 C   0  0  0  0  0  0  0  0  0  0  0  0
  -18.1751  -27.8256   22.3122 C   0  0  0  0  0  0  0  0  0  0  0  0
  -24.7950  -28.0884   22.8416 C   0  0  0  0  0  0  0  0  0  0  0  0
  -19.4572  -27.8845   21.7334 C   0  0  0  0  0  0  0  0  0  0  0  0
  -25.5840  -28.8888   22.0032 C   0  0  0  0  0  0  0  0  0  0  0  0
  -29.5324  -20.8806   19.9832 C   0  0  0  0  0  0  0  0  0  0  0  0
  -25.5202  -11.3101   19.7959 C   0  0  0  0  0  0  0  0  0  0  0  0
  -26.6519  -26.8909   21.1213 C   0  0  0  0  0  0  0  0  0  0  0  0
  -24.7366   -9.1171   19.4806 C   0  0  0  0  0  0  0  0  0  0  0  0
  -23.0341   -7.0476   20.2561 C   0  0  0  0  0  0  0  0  0  0  0  0
  -23.8048   -8.6052   18.5777 C   0  0  0  0  0  0  0  0  0  0  0  0
  -30.6834  -20.1768   20.3195 C   0  0  0  0  0  0  0  0  0  0  0  0
  -25.3266  -14.9350   21.9684 C   0  0  0  0  0  0  0  0  0  0  0  0
  -31.8794  -20.5774   19.7459 C   0  0  0  0  0  0  0  0  0  0  0  0
  -30.8554  -22.2698   18.5774 C   0  0  0  0  0  0  0  0  0  0  0  0
  -25.2234  -16.4448   23.5637 C   0  0  0  0  0  0  0  0  0  0  0  0
  -25.2728  -14.0885   24.3965 C   0  0  0  0  0  0  0  0  0  0  0  0
  -22.3939  -30.0748   22.2150 C   0  0  0  0  0  0  0  0  0  0  0  0
  -24.4769  -32.3132   23.2981 C   0  0  0  0  0  0  0  0  0  0  0  0
  -27.7179  -33.2285   23.8504 C   0  0  0  0  0  0  0  0  0  0  0  0
  -27.0450  -21.1123   20.3077 C   0  0  0  0  0  0  0  0  0  0  0  0
  -17.4093  -29.0739   22.6727 C   0  0  0  0  0  0  0  0  0  0  0  0
  -23.8152  -28.7174   23.7940 C   0  0  0  0  0  0  0  0  0  0  0  0
  -25.4629  -30.3901   21.9962 C   0  0  0  0  0  0  0  0  0  0  0  0
  -18.2860  -30.3198   22.7689 C   0  0  0  0  0  0  0  0  0  0  0  0
  -23.7351  -20.4801   21.4575 C   0  0  0  0  0  0  0  0  0  0  0  0
  -19.2231  -30.4072   21.5685 C   0  0  0  0  0  0  0  0  0  0  0  0
  -23.7646  -19.0017   21.8520 C   0  0  0  0  0  0  0  0  0  0  0  0
  -24.5876  -20.7539   20.2197 C   0  0  0  0  0  0  0  0  0  0  0  0
  -26.0018  -18.7934   20.6951 C   0  0  0  0  0  0  0  0  0  0  0  0
  -20.1701  -29.2021   21.5191 C   0  0  1  0  0  0  0  0  0  0  0  0
  -23.3681  -30.1094   23.3584 C   0  0  1  0  0  0  0  0  0  0  0  0
  -25.2096  -18.4799   21.9749 C   0  0  2  0  0  0  0  0  0  0  0  0
  -33.1366  -19.8466   20.0806 C   0  0  0  0  0  0  0  0  0  0  0  0
  -33.9406  -23.2451   15.3181 C   0  0  0  0  0  0  0  0  0  0  0  0
  -29.1078  -35.1323   24.7112 C   0  0  0  0  0  0  0  0  0  0  0  0
  -24.0042  -33.8322   20.6945 C   0  0  0  0  0  0  0  0  0  0  0  0
  -26.0668  -35.1659   21.1795 C   0  0  0  0  0  0  0  0  0  0  0  0
  -24.1203  -35.2721   22.7360 C   0  0  0  0  0  0  0  0  0  0  0  0
  -28.8477  -31.5718   26.0271 C   0  0  0  0  0  0  0  0  0  0  0  0
  -32.5958  -22.8592   15.9176 C   0  0  0  0  0  0  0  0  0  0  0  0
  -29.3905  -25.1370   18.3551 C   0  0  0  0  0  0  0  0  0  0  0  0
  -28.1672  -25.9704   17.9705 C   0  0  0  0  0  0  0  0  0  0  0  0
  -32.2036  -23.7384   17.0990 C   0  0  0  0  0  0  0  0  0  0  0  0
  -29.7365  -24.0839   17.3056 C   0  0  0  0  0  0  0  0  0  0  0  0
  -27.8195  -26.9859   19.0517 C   0  0  0  0  0  0  0  0  0  1  0  0
  -25.5386  -33.1803   22.6659 C   0  0  1  0  0  0  0  0  0  0  0  0
  -28.4011  -33.8327   25.0639 C   0  0  2  0  0  0  0  0  0  0  0  0
  -24.9336  -34.3342   21.8175 C   0  0  0  0  0  0  0  0  0  0  0  0
  -25.3098  -16.1039   21.3223 N   0  0  0  0  0  0  0  0  0  0  0  0
  -31.9954  -21.6095   18.8804 N   0  0  0  0  0  0  0  0  0  0  0  0
  -25.2466  -17.0027   22.3193 N   0  0  0  0  0  0  0  0  0  0  0  0
  -24.4865  -30.9574   22.9408 N   0  0  0  0  0  0  0  0  0  0  0  0
  -25.9441  -20.2358   20.4103 N   0  0  0  0  0  0  0  0  0  0  0  0
  -25.1612  -17.2045   24.6779 N   0  0  0  0  0  0  0  0  0  0  0  0
  -25.3298  -12.7398   24.0196 N   0  0  0  0  0  0  0  0  0  0  0  0
  -28.2825  -20.5134   20.5406 N   0  0  0  0  0  0  0  0  0  0  0  0
  -21.2407  -29.3609   22.4799 N   0  0  0  0  0  0  0  0  0  0  0  0
  -26.4016  -33.6276   23.7539 N   0  0  0  0  0  0  0  0  0  0  0  0
  -30.9194  -23.3474   17.6828 N   0  0  3  0  0  0  0  0  0  0  0  0
  -29.4093  -32.8845   25.6164 N   0  3  0  0  0  0  0  0  0  0  0  0
  -25.2056  -14.3834   25.6139 O   0  0  0  0  0  0  0  0  0  0  0  0
  -22.6674  -30.6542   21.1704 O   0  0  0  0  0  0  0  0  0  0  0  0
  -23.6731  -32.8186   24.0856 O   0  0  0  0  0  0  0  0  0  0  0  0
  -28.2952  -32.4804   23.0646 O   0  0  0  0  0  0  0  0  0  0  0  0
  -26.8984  -22.3120   20.0601 O   0  0  0  0  0  0  0  0  0  0  0  0
  -25.5830  -10.1438   19.0970 O   0  0  0  0  0  0  0  0  0  0  0  0
  -27.5520  -26.3120   20.2807 O   0  0  0  0  0  0  0  0  0  1  0  0
  -22.2178   -6.0530   20.6281 F   0  0  0  0  0  0  0  0  0  0  0  0
  -23.7235   -9.1027   17.3360 F   0  0  0  0  0  0  0  0  0  0  0  0
  -30.6374  -19.1424   21.1698 F   0  0  0  0  0  0  0  0  0  0  0  0
  1  2  1  0  0  0  0
  1  5  2  0  0  0  0
  2  6  2  0  0  0  0
  3  8  2  0  0  0  0
  3 16  1  0  0  0  0
  4  9  1  0  0  0  0
  4 16  2  0  0  0  0
  5 18  1  0  0  0  0
  6 20  1  0  0  0  0
  7 10  2  0  0  0  0
  7 19  1  0  0  0  0
  8 23  1  0  0  0  0
  9 23  2  0  0  0  0
 10 24  1  0  0  0  0
 11 12  2  0  0  0  0
 11 25  1  0  0  0  0
 12 26  1  0  0  0  0
 13 21  1  0  0  0  0
 13 24  2  0  0  0  0
 14 22  2  0  0  0  0
 14 31  1  0  0  0  0
 15 26  2  0  0  0  0
 15 27  1  0  0  0  0
 16 29  1  0  0  0  0
 17 29  1  0  0  0  0
 17 32  2  0  0  0  0
 17 33  1  0  0  0  0
 18 20  2  0  0  0  0
 18 38  1  0  0  0  0
 19 21  2  0  0  0  0
 19 39  1  0  0  0  0
 20 47  1  0  0  0  0
 21 40  1  0  0  0  0
 22 28  1  0  0  0  0
 22 73  1  0  0  0  0
 23 83  1  0  0  0  0
 24 84  1  0  0  0  0
 25 27  2  0  0  0  0
 25 83  1  0  0  0  0
 26 85  1  0  0  0  0
 27 86  1  0  0  0  0
 28 30  2  0  0  0  0
 28 87  1  0  0  0  0
 29 66  2  0  0  0  0
 30 50  1  0  0  0  0
 30 67  1  0  0  0  0
 31 67  2  0  0  0  0
 31 76  1  0  0  0  0
 32 68  1  0  0  0  0
 32 71  1  0  0  0  0
 33 72  1  0  0  0  0
 33 78  2  0  0  0  0
 34 48  1  0  0  0  0
 34 74  1  0  0  0  0
 34 79  2  0  0  0  0
 35 63  1  0  0  0  0
 35 69  1  0  0  0  0
 35 80  2  0  0  0  0
 36 64  1  0  0  0  0
 36 75  1  0  0  0  0
 36 81  2  0  0  0  0
 37 70  1  0  0  0  0
 37 73  1  0  0  0  0
 37 82  2  0  0  0  0
 38 41  1  0  0  0  0
 39 48  1  0  0  0  0
 40 69  1  0  0  0  0
 41 43  1  0  0  0  0
 42 44  1  0  0  0  0
 42 45  1  0  0  0  0
 43 47  1  0  0  0  0
 44 49  1  0  0  0  0
 45 70  1  0  0  0  0
 46 49  1  0  0  0  0
 46 70  1  0  0  0  0
 47 74  1  0  0  0  0
 48 69  1  0  0  0  0
 49 68  1  0  0  0  0
 51 57  1  0  0  0  0
 52 64  1  0  0  0  0
 53 65  1  0  0  0  0
 54 65  1  0  0  0  0
 55 65  1  0  0  0  0
 56 77  1  0  0  0  0
 57 60  1  0  0  0  0
 58 59  1  0  0  0  0
 58 61  1  0  0  0  0
 59 62  1  0  0  0  0
 60 76  1  0  0  0  0
 61 76  1  0  0  0  0
 62 84  1  0  0  0  0
 63 65  1  0  0  0  0
 63 75  1  0  0  0  0
 64 77  1  0  0  0  0
 66 68  1  0  0  0  0
M  CHG  1  77   1
M  ISO  4  37 100  62 101  73 100  84 101
M  END
> <Batch ID>
0021

> <Smiles>
CCCN(CCC[101CH2:1][101O:1]c1ccc2c(c1)CN(C(=O)C(NC(=O)C(C)NC)C(C)(C)C)C(C(=O)NC1CCCc3ccccc31)C2)c1cc([100NH:0][100C:0](=O)N2CCCC(n3nc(-c4ccc(Oc5ccc(F)cc5F)cc4)c(C(N)=O)c3N)C2)c(F)c(C)n1

> <Shape>
0.248

> <Color>
0.072

> <Negative vol penalty>
0.000

$$$$

  -OEChem-04052316123D

 85 93  0     1  0  0  0  0  0999 V2000
  -27.0913  -24.5786   16.6222 C   0  0  0  0  0  0  0  0  0  0  0  0
  -25.9383  -24.9352   17.3141 C   0  0  0  0  0  0  0  0  0  0  0  0
  -26.6976  -13.1303   20.2261 C   0  0  0  0  0  0  0  0  0  0  0  0
  -24.3463  -13.6045   20.5149 C   0  0  0  0  0  0  0  0  0  0  0  0
  -28.3437  -24.8945   17.1472 C   0  0  0  0  0  0  0  0  0  0  0  0
  -26.0370  -25.6069   18.5321 C   0  0  0  0  0  0  0  0  0  0  0  0
  -22.8001  -29.4860   18.8791 C   0  0  0  0  0  0  0  0  0  0  0  0
  -26.5278  -11.9005   20.8618 C   0  0  0  0  0  0  0  0  0  0  0  0
  -24.1764  -12.3747   21.1506 C   0  0  0  0  0  0  0  0  0  0  0  0
  -21.4696  -29.1816   19.1631 C   0  0  0  0  0  0  0  0  0  0  0  0
  -23.8701   -9.1306   20.2545 C   0  0  0  0  0  0  0  0  0  0  0  0
  -22.7710   -8.3567   19.8822 C   0  0  0  0  0  0  0  0  0  0  0  0
  -21.8366  -29.7619   21.4756 C   0  0  0  0  0  0  0  0  0  0  0  0
  -21.8256  -23.3939   19.7693 C   0  0  0  0  0  0  0  0  0  0  0  0
  -20.8308  -22.8947   21.9135 C   0  0  0  0  0  0  0  0  0  0  0  0
  -21.9508   -8.4288   22.1536 C   0  0  0  0  0  0  0  0  0  0  0  0
  -25.6069  -13.9824   20.0526 C   0  0  0  0  0  0  0  0  0  0  0  0
  -25.6668  -15.5219   18.0194 C   0  0  0  0  0  0  0  0  0  0  0  0
  -28.4576  -25.5790   18.3675 C   0  0  0  0  0  0  0  0  0  0  0  0
  -23.6632  -29.9210   19.8951 C   0  0  0  0  0  0  0  0  0  0  0  0
  -27.2921  -25.9311   19.0746 C   0  0  0  0  0  0  0  0  0  0  0  0
  -23.1770  -30.0737   21.2014 C   0  0  0  0  0  0  0  0  0  0  0  0
  -20.7863  -23.5547   20.6855 C   0  0  0  0  0  0  0  0  0  0  0  0
  -22.9094  -22.5730   20.0809 C   0  0  0  0  0  0  0  0  0  0  0  0
  -21.9146  -22.0738   22.2253 C   0  0  0  0  0  0  0  0  0  0  0  0
  -22.9539  -21.9130   21.3089 C   0  0  0  0  0  0  0  0  0  0  0  0
  -25.2671  -11.5226   21.3241 C   0  0  0  0  0  0  0  0  0  0  0  0
  -20.9884  -29.3167   20.4621 C   0  0  0  0  0  0  0  0  0  0  0  0
  -24.0096   -9.5536   21.5764 C   0  0  0  0  0  0  0  0  0  0  0  0
  -21.8113   -8.0058   20.8317 C   0  0  0  0  0  0  0  0  0  0  0  0
  -23.0499   -9.2027   22.5259 C   0  0  0  0  0  0  0  0  0  0  0  0
  -25.7819  -15.2532   19.3965 C   0  0  0  0  0  0  0  0  0  0  0  0
  -25.9236  -16.8666   17.9093 C   0  0  0  0  0  0  0  0  0  0  0  0
  -25.3554  -14.6352   16.9366 C   0  0  0  0  0  0  0  0  0  0  0  0
  -26.3429  -28.8067   21.1918 C   0  0  0  0  0  0  0  0  0  0  0  0
  -26.2923  -31.6366   22.7766 C   0  0  0  0  0  0  0  0  0  0  0  0
  -24.4624  -34.2666   23.9520 C   0  0  0  0  0  0  0  0  0  0  0  0
  -25.3972  -21.4477   21.7096 C   0  0  0  0  0  0  0  0  0  0  0  0
  -29.8339  -25.8569   18.9183 C   0  0  0  0  0  0  0  0  0  0  0  0
  -25.0889  -30.2710   19.5672 C   0  0  0  0  0  0  0  0  0  0  0  0
  -24.0576  -30.5565   22.3240 C   0  0  0  0  0  0  0  0  0  0  0  0
  -29.8450  -26.9013   20.0315 C   0  0  0  0  0  0  0  0  0  0  0  0
  -28.3592  -20.4002   20.0343 C   0  0  0  0  0  0  0  0  0  0  0  0
  -28.7412  -26.6138   21.0443 C   0  0  0  0  0  0  0  0  0  0  0  0
  -28.0218  -18.9882   19.5500 C   0  0  0  0  0  0  0  0  0  0  0  0
  -27.7446  -20.6927   21.4019 C   0  0  0  0  0  0  0  0  0  0  0  0
  -25.9623  -19.0368   21.0140 C   0  0  0  0  0  0  0  0  0  0  0  0
  -27.3576  -26.6824   20.3866 C   0  0  1  0  0  0  0  0  0  0  0  0
  -26.0124  -30.2135   20.7801 C   0  0  1  0  0  0  0  0  0  0  0  0
  -26.5055  -18.7187   19.6114 C   0  0  2  0  0  0  0  0  0  0  0  0
  -24.0074  -22.4201   19.0785 C   0  0  0  0  0  0  0  0  0  0  0  0
  -21.9342  -21.3801   23.5491 C   0  0  0  0  0  0  0  0  0  0  0  0
  -24.6931  -36.4071   25.2412 C   0  0  0  0  0  0  0  0  0  0  0  0
  -17.8639  -27.0523   23.4014 C   0  0  0  0  0  0  0  0  0  0  0  0
  -26.5347  -30.0461   25.3692 C   0  0  0  0  0  0  0  0  0  0  0  0
  -25.8125  -32.0957   26.6125 C   0  0  0  0  0  0  0  0  0  0  0  0
  -27.9248  -32.1234   25.2858 C   0  0  0  0  0  0  0  0  0  0  0  0
  -23.4881  -35.8810   21.6709 C   0  0  0  0  0  0  0  0  0  0  0  0
  -19.6203  -24.4374   20.3502 C   0  0  0  0  0  0  0  0  0  0  0  0
  -18.3444  -26.4942   20.9667 C   0  0  0  0  0  0  0  0  0  0  0  0
  -19.4025  -28.5390   22.0546 C   0  0  0  0  0  0  0  0  0  1  0  0
  -25.7032  -32.1221   24.0790 C   0  0  1  0  0  0  0  0  0  0  0  0
  -24.6813  -35.7661   23.8622 C   0  0  2  0  0  0  0  0  0  0  0  0
  -18.1851  -27.6070   22.0090 C   0  0  2  0  0  0  0  0  0  0  0  0
  -26.4774  -31.5858   25.3161 C   0  0  0  0  0  0  0  0  0  0  0  0
  -26.0882  -16.3400   20.1100 N   0  0  0  0  0  0  0  0  0  0  0  0
  -26.1678  -17.3046   19.1776 N   0  0  0  0  0  0  0  0  0  0  0  0
  -25.4455  -30.8799   21.9543 N   0  0  0  0  0  0  0  0  0  0  0  0
  -26.3060  -20.4189   21.3834 N   0  0  0  0  0  0  0  0  0  0  0  0
  -25.9621  -17.7054   16.8522 N   0  0  0  0  0  0  0  0  0  0  0  0
  -25.1193  -13.2843   17.2260 N   0  0  0  0  0  0  0  0  0  0  0  0
  -24.0549  -21.0791   21.6259 N   0  0  0  0  0  0  0  0  0  0  0  0
  -26.9532  -28.0597   20.2024 N   0  0  0  0  0  0  0  0  0  0  0  0
  -25.6561  -33.5774   23.9883 N   0  0  0  0  0  0  0  0  0  0  0  0
  -23.5985  -36.4004   23.0584 N   0  3  0  0  0  0  0  0  0  0  0  0
  -19.4499  -25.5667   21.3054 N   0  3  0  0  0  0  0  0  0  0  0  0
  -25.3047  -15.0258   15.7456 O   0  0  0  0  0  0  0  0  0  0  0  0
  -26.0662  -28.4276   22.3238 O   0  0  0  0  0  0  0  0  0  0  0  0
  -27.4585  -31.9243   22.4959 O   0  0  0  0  0  0  0  0  0  0  0  0
  -23.3443  -33.7577   23.9901 O   0  0  0  0  0  0  0  0  0  0  0  0
  -25.7806  -22.5804   22.0125 O   0  0  0  0  0  0  0  0  0  0  0  0
  -25.1009  -10.3225   21.9443 O   0  0  0  0  0  0  0  0  0  0  0  0
  -19.6902  -29.0196   20.7421 O   0  0  0  0  0  0  0  0  0  1  0  0
  -20.7551   -7.2640   20.4736 F   0  0  0  0  0  0  0  0  0  0  0  0
  -23.1779   -9.6071   23.7971 F   0  0  0  0  0  0  0  0  0  0  0  0
  1  2  1  0  0  0  0
  1  5  2  0  0  0  0
  2  6  2  0  0  0  0
  3  8  2  0  0  0  0
  3 17  1  0  0  0  0
  4  9  1  0  0  0  0
  4 17  2  0  0  0  0
  5 19  1  0  0  0  0
  6 21  1  0  0  0  0
  7 10  2  0  0  0  0
  7 20  1  0  0  0  0
  8 27  1  0  0  0  0
  9 27  2  0  0  0  0
 10 28  1  0  0  0  0
 11 12  2  0  0  0  0
 11 29  1  0  0  0  0
 12 30  1  0  0  0  0
 13 22  1  0  0  0  0
 13 28  2  0  0  0  0
 14 23  1  0  0  0  0
 14 24  2  0  0  0  0
 15 23  2  0  0  0  0
 15 25  1  0  0  0  0
 16 30  2  0  0  0  0
 16 31  1  0  0  0  0
 17 32  1  0  0  0  0
 18 32  1  0  0  0  0
 18 33  2  0  0  0  0
 18 34  1  0  0  0  0
 19 21  2  0  0  0  0
 19 39  1  0  0  0  0
 20 22  2  0  0  0  0
 20 40  1  0  0  0  0
 21 48  1  0  0  0  0
 22 41  1  0  0  0  0
 23 59  1  0  0  0  0
 24 26  1  0  0  0  0
 24 51  1  0  0  0  0
 25 26  2  0  0  0  0
 25 52  1  0  0  0  0
 26 72  1  0  0  0  0
 27 82  1  0  0  0  0
 28 83  1  0  0  0  0
 29 31  2  0  0  0  0
 29 82  1  0  0  0  0
 30 84  1  0  0  0  0
 31 85  1  0  0  0  0
 32 66  2  0  0  0  0
 33 67  1  0  0  0  0
 33 70  1  0  0  0  0
 34 71  1  0  0  0  0
 34 77  2  0  0  0  0
 35 49  1  0  0  0  0
 35 73  1  0  0  0  0
 35 78  2  0  0  0  0
 36 62  1  0  0  0  0
 36 68  1  0  0  0  0
 36 79  2  0  0  0  0
 37 63  1  0  0  0  0
 37 74  1  0  0  0  0
 37 80  2  0  0  0  0
 38 69  1  0  0  0  0
 38 72  1  0  0  0  0
 38 81  2  0  0  0  0
 39 42  1  0  0  0  0
 40 49  1  0  0  0  0
 41 68  1  0  0  0  0
 42 44  1  0  0  0  0
 43 45  1  0  0  0  0
 43 46  1  0  0  0  0
 44 48  1  0  0  0  0
 45 50  1  0  0  0  0
 46 69  1  0  0  0  0
 47 50  1  0  0  0  0
 47 69  1  0  0  0  0
 48 73  1  0  0  0  0
 49 68  1  0  0  0  0
 50 67  1  0  0  0  0
 53 63  1  0  0  0  0
 54 64  1  0  0  0  0
 55 65  1  0  0  0  0
 56 65  1  0  0  0  0
 57 65  1  0  0  0  0
 58 75  1  0  0  0  0
 59 76  1  0  0  0  0
 60 64  1  0  0  0  0
 60 76  1  0  0  0  0
 61 64  1  0  0  0  0
 61 83  1  0  0  0  0
 62 65  1  0  0  0  0
 62 74  1  0  0  0  0
 63 75  1  0  0  0  0
 66 67  1  0  0  0  0
M  CHG  2  75   1  76   1
M  ISO  4  38 100  61 101  72 100  83 101
M  END
> <Batch ID>
0021

> <Smiles>
CNC(C)C(=O)NC(C(=O)N1Cc2cc([101O:1][101CH2:1]C(C)CNCc3cc(C)c([100NH:0][100C:0](=O)N4CCCC(n5nc(-c6ccc(Oc7ccc(F)cc7F)cc6)c(C(N)=O)c5N)C4)c(C)c3)ccc2CC1C(=O)NC1CCCc2ccccc21)C(C)(C)C

> <Shape>
0.308

> <Color>
0.089

> <Negative vol penalty>
0.000

$$$$

  -OEChem-04052316123D

 86 94  0     1  0  0  0  0  0999 V2000
  -24.7550  -12.8323   21.7634 C   0  0  0  0  0  0  0  0  0  0  0  0
  -24.9554  -14.0808   22.3434 C   0  0  0  0  0  0  0  0  0  0  0  0
  -28.3626  -17.2623   21.2619 C   0  0  0  0  0  0  0  0  0  0  0  0
  -30.6816  -17.8185   21.6490 C   0  0  0  0  0  0  0  0  0  0  0  0
  -24.5836  -12.7252   20.3839 C   0  0  0  0  0  0  0  0  0  0  0  0
  -24.9856  -15.2229   21.5440 C   0  0  0  0  0  0  0  0  0  0  0  0
  -23.2721  -22.1773   21.6769 C   0  0  0  0  0  0  0  0  0  0  0  0
  -28.6913  -15.9069   21.2400 C   0  0  0  0  0  0  0  0  0  0  0  0
  -31.0104  -16.4631   21.6272 C   0  0  0  0  0  0  0  0  0  0  0  0
  -23.8331  -23.4297   21.4308 C   0  0  0  0  0  0  0  0  0  0  0  0
  -28.9765  -12.3186   20.7239 C   0  0  0  0  0  0  0  0  0  0  0  0
  -28.4239  -11.5320   19.7132 C   0  0  0  0  0  0  0  0  0  0  0  0
  -23.4462  -23.1320   19.0684 C   0  0  0  0  0  0  0  0  0  0  0  0
  -29.4941  -12.9184   18.0490 C   0  0  0  0  0  0  0  0  0  0  0  0
  -29.3578  -18.2181   21.4664 C   0  0  0  0  0  0  0  0  0  0  0  0
  -28.6480  -20.3857   22.6090 C   0  0  0  0  0  0  0  0  0  0  0  0
  -24.6020  -13.8676   19.5683 C   0  0  0  0  0  0  0  0  0  0  0  0
  -22.8031  -21.3869   20.6178 C   0  0  0  0  0  0  0  0  0  0  0  0
  -24.8156  -15.1309   20.1521 C   0  0  0  0  0  0  0  0  0  0  0  0
  -22.8773  -21.8711   19.3040 C   0  0  0  0  0  0  0  0  0  0  0  0
  -26.7056  -29.0056   20.0495 C   0  0  0  0  0  0  0  0  0  0  0  0
  -30.0152  -15.5073   21.4227 C   0  0  0  0  0  0  0  0  0  0  0  0
  -23.9228  -23.9060   20.1262 C   0  0  0  0  0  0  0  0  0  0  0  0
  -29.7878  -13.4053   20.3971 C   0  0  0  0  0  0  0  0  0  0  0  0
  -28.6827  -11.8318   18.3758 C   0  0  0  0  0  0  0  0  0  0  0  0
  -30.0466  -13.7051   19.0596 C   0  0  0  0  0  0  0  0  0  0  0  0
  -26.7309  -27.7317   20.6688 C   0  0  0  0  0  0  0  0  0  0  0  0
  -29.0189  -19.6184   21.4885 C   0  0  0  0  0  0  0  0  0  0  0  0
  -25.4313  -29.2023   19.5651 C   0  0  0  0  0  0  0  0  0  0  0  0
  -25.4712  -27.1885   20.5438 C   0  0  0  0  0  0  0  0  0  0  0  0
  -28.4308  -21.6451   22.1061 C   0  0  0  0  0  0  0  0  0  0  0  0
  -28.5122  -19.9948   23.9818 C   0  0  0  0  0  0  0  0  0  0  0  0
  -23.5625  -18.5334   19.4411 C   0  0  0  0  0  0  0  0  0  0  0  0
  -20.9696  -19.0508   17.5618 C   0  0  0  0  0  0  0  0  0  0  0  0
  -18.8402  -21.2917   16.1159 C   0  0  0  0  0  0  0  0  0  0  0  0
  -30.5844  -25.1989   18.2145 C   0  0  0  0  0  0  0  0  0  0  0  0
  -24.4594  -13.6969   18.0766 C   0  0  0  0  0  0  0  0  0  0  0  0
  -22.1763  -20.0495   20.9025 C   0  0  0  0  0  0  0  0  0  0  0  0
  -22.3698  -21.0701   18.1338 C   0  0  0  0  0  0  0  0  0  0  0  0
  -24.1307  -14.9951   17.3437 C   0  0  0  0  0  0  0  0  0  0  0  0
  -27.4515  -23.4867   17.6224 C   0  0  0  0  0  0  0  0  0  0  0  0
  -25.0356  -16.1243   17.8261 C   0  0  0  0  0  0  0  0  0  0  0  0
  -27.5045  -22.3816   18.6789 C   0  0  0  0  0  0  0  0  0  0  0  0
  -28.8314  -23.7476   17.0257 C   0  0  0  0  0  0  0  0  0  0  0  0
  -29.9393  -22.9700   19.0852 C   0  0  0  0  0  0  0  0  0  0  0  0
  -24.8299  -16.3956   19.3212 C   0  0  1  0  0  0  0  0  0  0  0  0
  -22.1997  -19.1106   19.7003 C   0  0  1  0  0  0  0  0  0  0  0  0
  -28.5790  -22.6745   19.7428 C   0  0  2  0  0  0  0  0  0  0  0  0
  -24.8520  -30.3517   18.8365 C   0  0  0  0  0  0  0  0  0  0  0  0
  -16.8414  -21.4167   14.6038 C   0  0  0  0  0  0  0  0  0  0  0  0
  -29.9845  -30.7728   19.8066 C   0  0  0  0  0  0  0  0  0  0  0  0
  -22.7591  -18.4930   15.1543 C   0  0  0  0  0  0  0  0  0  0  0  0
  -21.0112  -19.5412   13.7002 C   0  0  0  0  0  0  0  0  0  0  0  0
  -20.4737  -17.4877   15.0105 C   0  0  0  0  0  0  0  0  0  0  0  0
  -23.2941  -27.9001   19.5355 C   0  0  0  0  0  0  0  0  0  0  0  0
  -17.1883  -22.5692   18.2131 C   0  0  0  0  0  0  0  0  0  0  0  0
  -24.9331  -25.8684   21.0118 C   0  0  0  0  0  0  0  0  0  1  0  0
  -30.8707  -28.2347   18.4800 C   0  0  0  0  0  0  0  0  0  0  0  0
  -29.3929  -28.6187   18.6376 C   0  0  0  0  0  0  0  0  0  0  0  0
  -31.1287  -27.4079   17.2239 C   0  0  0  0  0  0  0  0  0  0  0  0
  -20.7356  -19.6943   16.2164 C   0  0  1  0  0  0  0  0  0  0  0  0
  -17.3246  -21.3390   16.0436 C   0  0  2  0  0  0  0  0  0  0  0  0
  -29.1443  -29.5013   19.8688 C   0  0  2  0  0  0  0  0  0  0  0  0
  -21.2563  -18.8186   15.0420 C   0  0  0  0  0  0  0  0  0  0  0  0
  -29.0371  -20.3309   20.3589 N   0  0  0  0  0  0  0  0  0  0  0  0
  -24.6897  -28.0911   19.8710 N   0  0  0  0  0  0  0  0  0  0  0  0
  -28.6749  -21.5590   20.7670 N   0  0  0  0  0  0  0  0  0  0  0  0
  -21.7711  -19.7660   18.4629 N   0  0  0  0  0  0  0  0  0  0  0  0
  -29.8033  -24.0381   18.0893 N   0  0  0  0  0  0  0  0  0  0  0  0
  -28.0566  -22.8068   22.6831 N   0  0  0  0  0  0  0  0  0  0  0  0
  -28.7737  -18.6616   24.3260 N   0  0  0  0  0  0  0  0  0  0  0  0
  -27.7325  -29.8778   19.9451 N   0  0  0  0  0  0  0  0  0  0  0  0
  -23.6171  -17.1558   19.5348 N   0  0  0  0  0  0  0  0  0  0  0  0
  -19.3097  -19.9957   16.1505 N   0  0  0  0  0  0  0  0  0  0  0  0
  -30.4006  -26.1586   17.2265 N   0  0  0  0  0  0  0  0  0  0  0  0
  -16.8079  -22.5285   16.7777 N   0  3  0  0  0  0  0  0  0  0  0  0
  -28.1531  -20.8001   24.8741 O   0  0  0  0  0  0  0  0  0  0  0  0
  -24.4951  -19.2823   19.1743 O   0  0  0  0  0  0  0  0  0  0  0  0
  -20.4541  -17.9573   17.8070 O   0  0  0  0  0  0  0  0  0  0  0  0
  -19.5380  -22.3033   16.1356 O   0  0  0  0  0  0  0  0  0  0  0  0
  -31.3832  -25.3702   19.1417 O   0  0  0  0  0  0  0  0  0  0  0  0
  -30.3363  -14.1848   21.4016 O   0  0  0  0  0  0  0  0  0  0  0  0
  -24.4705  -25.1278   19.8831 O   0  0  0  0  0  0  0  0  0  1  0  0
  -28.1533  -11.0753   17.4054 F   0  0  0  0  0  0  0  0  0  0  0  0
  -30.8262  -14.7470   18.7395 F   0  0  0  0  0  0  0  0  0  0  0  0
  -28.0805  -27.0213   21.4239 Cl  0  0  0  0  0  0  0  0  0  0  0  0
  1  2  1  0  0  0  0
  1  5  2  0  0  0  0
  2  6  2  0  0  0  0
  3  8  2  0  0  0  0
  3 15  1  0  0  0  0
  4  9  1  0  0  0  0
  4 15  2  0  0  0  0
  5 17  1  0  0  0  0
  6 19  1  0  0  0  0
  7 10  2  0  0  0  0
  7 18  1  0  0  0  0
  8 22  1  0  0  0  0
  9 22  2  0  0  0  0
 10 23  1  0  0  0  0
 11 12  2  0  0  0  0
 11 24  1  0  0  0  0
 12 25  1  0  0  0  0
 13 20  1  0  0  0  0
 13 23  2  0  0  0  0
 14 25  2  0  0  0  0
 14 26  1  0  0  0  0
 15 28  1  0  0  0  0
 16 28  1  0  0  0  0
 16 31  2  0  0  0  0
 16 32  1  0  0  0  0
 17 19  2  0  0  0  0
 17 37  1  0  0  0  0
 18 20  2  0  0  0  0
 18 38  1  0  0  0  0
 19 46  1  0  0  0  0
 20 39  1  0  0  0  0
 21 27  1  0  0  0  0
 21 29  2  0  0  0  0
 21 72  1  0  0  0  0
 22 82  1  0  0  0  0
 23 83  1  0  0  0  0
 24 26  2  0  0  0  0
 24 82  1  0  0  0  0
 25 84  1  0  0  0  0
 26 85  1  0  0  0  0
 27 30  2  0  0  0  0
 27 86  1  0  0  0  0
 28 65  2  0  0  0  0
 29 49  1  0  0  0  0
 29 66  1  0  0  0  0
 30 57  1  0  0  0  0
 30 66  1  0  0  0  0
 31 67  1  0  0  0  0
 31 70  1  0  0  0  0
 32 71  1  0  0  0  0
 32 77  2  0  0  0  0
 33 47  1  0  0  0  0
 33 73  1  0  0  0  0
 33 78  2  0  0  0  0
 34 61  1  0  0  0  0
 34 68  1  0  0  0  0
 34 79  2  0  0  0  0
 35 62  1  0  0  0  0
 35 74  1  0  0  0  0
 35 80  2  0  0  0  0
 36 69  1  0  0  0  0
 36 75  1  0  0  0  0
 36 81  2  0  0  0  0
 37 40  1  0  0  0  0
 38 47  1  0  0  0  0
 39 68  1  0  0  0  0
 40 42  1  0  0  0  0
 41 43  1  0  0  0  0
 41 44  1  0  0  0  0
 42 46  1  0  0  0  0
 43 48  1  0  0  0  0
 44 69  1  0  0  0  0
 45 48  1  0  0  0  0
 45 69  1  0  0  0  0
 46 73  1  0  0  0  0
 47 68  1  0  0  0  0
 48 67  1  0  0  0  0
 50 62  1  0  0  0  0
 51 63  1  0  0  0  0
 52 64  1  0  0  0  0
 53 64  1  0  0  0  0
 54 64  1  0  0  0  0
 55 66  1  0  0  0  0
 56 76  1  0  0  0  0
 57 83  1  0  0  0  0
 58 59  1  0  0  0  0
 58 60  1  0  0  0  0
 59 63  1  0  0  0  0
 60 75  1  0  0  0  0
 61 64  1  0  0  0  0
 61 74  1  0  0  0  0
 62 76  1  0  0  0  0
 63 72  1  0  0  0  0
 65 67  1  0  0  0  0
M  CHG  1  76   1
M  ISO  4  36 100  57 101  75 100  83 101
M  END
> <Batch ID>
0021

> <Smiles>
CNC(C)C(=O)NC(C(=O)N1Cc2cc([101O:1][101CH2:1]c3c(Cl)c(NC(C)CCC[100NH:0][100C:0](=O)N4CCCC(n5nc(-c6ccc(Oc7ccc(F)cc7F)cc6)c(C(N)=O)c5N)C4)c(C)n3C)ccc2CC1C(=O)NC1CCCc2ccccc21)C(C)(C)C

> <Shape>
0.206

> <Color>
0.065

> <Negative vol penalty>
0.000

$$$$

  -OEChem-04052316123D

 81 89  0     1  0  0  0  0  0999 V2000
  -26.5612  -34.6245   22.9123 C   0  0  0  0  0  0  0  0  0  0  0  0
  -26.7950  -33.4089   22.2774 C   0  0  0  0  0  0  0  0  0  0  0  0
  -26.6593  -12.7591   21.7181 C   0  0  0  0  0  0  0  0  0  0  0  0
  -26.1370  -14.0146   19.7211 C   0  0  0  0  0  0  0  0  0  0  0  0
  -25.6090  -34.7077   23.9273 C   0  0  0  0  0  0  0  0  0  0  0  0
  -26.0774  -32.2754   22.6580 C   0  0  0  0  0  0  0  0  0  0  0  0
  -24.3936  -29.6188   18.6891 C   0  0  0  0  0  0  0  0  0  0  0  0
  -25.3634  -12.2431   21.7327 C   0  0  0  0  0  0  0  0  0  0  0  0
  -24.8412  -13.4986   19.7356 C   0  0  0  0  0  0  0  0  0  0  0  0
  -25.3146  -28.8055   18.0303 C   0  0  0  0  0  0  0  0  0  0  0  0
  -23.6259   -9.8277   20.1265 C   0  0  0  0  0  0  0  0  0  0  0  0
  -23.4749   -8.4612   20.3616 C   0  0  0  0  0  0  0  0  0  0  0  0
  -24.4544  -26.8855   19.2103 C   0  0  0  0  0  0  0  0  0  0  0  0
  -28.6127  -22.6589   17.8690 C   0  0  0  0  0  0  0  0  0  0  0  0
  -29.6279  -22.7878   20.4643 C   0  0  0  0  0  0  0  0  0  0  0  0
  -22.1515   -8.9450   22.3241 C   0  0  0  0  0  0  0  0  0  0  0  0
  -27.0460  -13.6449   20.7124 C   0  0  0  0  0  0  0  0  0  0  0  0
  -29.5113  -13.6295   20.0569 C   0  0  0  0  0  0  0  0  0  0  0  0
  -24.8725  -33.5769   24.3139 C   0  0  0  0  0  0  0  0  0  0  0  0
  -23.5018  -29.0723   19.6231 C   0  0  0  0  0  0  0  0  0  0  0  0
  -25.1153  -32.3433   23.6800 C   0  0  0  0  0  0  0  0  0  0  0  0
  -23.5212  -27.6936   19.8778 C   0  0  0  0  0  0  0  0  0  0  0  0
  -28.6324  -23.8757   18.5505 C   0  0  0  0  0  0  0  0  0  0  0  0
  -29.1006  -21.5065   18.4852 C   0  0  0  0  0  0  0  0  0  0  0  0
  -29.1400  -23.9402   19.8482 C   0  0  0  0  0  0  0  0  0  0  0  0
  -29.6082  -21.5709   19.7828 C   0  0  0  0  0  0  0  0  0  0  0  0
  -24.4544  -12.6128   20.7414 C   0  0  0  0  0  0  0  0  0  0  0  0
  -25.3471  -27.4392   18.2930 C   0  0  0  0  0  0  0  0  0  0  0  0
  -23.0398  -10.7530   20.9903 C   0  0  0  0  0  0  0  0  0  0  0  0
  -22.7377   -8.0198   21.4603 C   0  0  0  0  0  0  0  0  0  0  0  0
  -22.3025  -10.3116   22.0891 C   0  0  0  0  0  0  0  0  0  0  0  0
  -28.3843  -14.1787   20.6972 C   0  0  0  0  0  0  0  0  0  0  0  0
  -30.5292  -14.5067   20.3412 C   0  0  0  0  0  0  0  0  0  0  0  0
  -29.6277  -12.4333   19.2750 C   0  0  0  0  0  0  0  0  0  0  0  0
  -22.9820  -29.4791   22.7325 C   0  0  0  0  0  0  0  0  0  0  0  0
  -20.4676  -27.5074   22.1732 C   0  0  0  0  0  0  0  0  0  0  0  0
  -19.0676  -25.0782   20.2276 C   0  0  0  0  0  0  0  0  0  0  0  0
  -30.6432  -20.3220   21.7103 C   0  0  0  0  0  0  0  0  0  0  0  0
  -23.8873  -33.7053   25.4486 C   0  0  0  0  0  0  0  0  0  0  0  0
  -22.4964  -29.9588   20.3056 C   0  0  0  0  0  0  0  0  0  0  0  0
  -22.5716  -27.0544   20.8566 C   0  0  0  0  0  0  0  0  0  0  0  0
  -22.9038  -32.5411   25.5360 C   0  0  0  0  0  0  0  0  0  0  0  0
  -31.9462  -17.6479   23.6669 C   0  0  0  0  0  0  0  0  0  0  0  0
  -23.6387  -31.2106   25.4069 C   0  0  0  0  0  0  0  0  0  0  0  0
  -31.2879  -16.4042   23.0651 C   0  0  0  0  0  0  0  0  0  0  0  0
  -30.9960  -18.8440   23.6765 C   0  0  0  0  0  0  0  0  0  0  0  0
  -29.7279  -17.9193   21.7776 C   0  0  0  0  0  0  0  0  0  0  0  0
  -24.3395  -31.0971   24.0477 C   0  0  1  0  0  0  0  0  0  0  0  0
  -21.9798  -29.3767   21.6177 C   0  0  1  0  0  0  0  0  0  0  0  0
  -30.6676  -16.7059   21.6868 C   0  0  2  0  0  0  0  0  0  0  0  0
  -29.0673  -20.2166   17.7314 C   0  0  0  0  0  0  0  0  0  0  0  0
  -29.1710  -25.2318   20.5974 C   0  0  0  0  0  0  0  0  0  0  0  0
  -17.0207  -23.6381   20.0433 C   0  0  0  0  0  0  0  0  0  0  0  0
  -21.5063  -25.7456   24.4375 C   0  0  0  0  0  0  0  0  0  0  0  0
  -20.0295  -23.9090   23.5923 C   0  0  0  0  0  0  0  0  0  0  0  0
  -19.0234  -26.0432   24.4022 C   0  0  0  0  0  0  0  0  0  0  0  0
  -18.3599  -26.2200   17.5905 C   0  0  0  0  0  0  0  0  0  0  0  0
  -28.0987  -25.1092   17.8635 C   0  0  0  0  0  0  0  0  0  0  0  0
  -26.7043  -25.4871   18.3513 C   0  0  0  0  0  0  0  0  0  1  0  0
  -20.2555  -26.0129   22.1947 C   0  0  1  0  0  0  0  0  0  0  0  0
  -17.6798  -24.9439   19.6271 C   0  0  2  0  0  0  0  0  0  0  0  0
  -20.2230  -25.4397   23.6396 C   0  0  0  0  0  0  0  0  0  0  0  0
  -28.6599  -15.3166   21.3399 N   0  0  0  0  0  0  0  0  0  0  0  0
  -29.9718  -15.4896   21.1050 N   0  0  0  0  0  0  0  0  0  0  0  0
  -21.6114  -27.9641   21.5031 N   0  0  0  0  0  0  0  0  0  0  0  0
  -30.4506  -19.0725   22.3367 N   0  0  0  0  0  0  0  0  0  0  0  0
  -31.8378  -14.5255   20.0099 N   0  0  0  0  0  0  0  0  0  0  0  0
  -28.4834  -11.6477   19.0813 N   0  0  0  0  0  0  0  0  0  0  0  0
  -30.1085  -20.4115   20.4255 N   0  0  0  0  0  0  0  0  0  0  0  0
  -23.3831  -30.7716   23.0115 N   0  0  0  0  0  0  0  0  0  0  0  0
  -19.0420  -25.7618   21.4248 N   0  0  0  0  0  0  0  0  0  0  0  0
  -17.7537  -24.9796   18.1390 N   0  3  0  0  0  0  0  0  0  0  0  0
  -30.7180  -12.0633   18.7770 O   0  0  0  0  0  0  0  0  0  0  0  0
  -23.3621  -28.4609   23.2986 O   0  0  0  0  0  0  0  0  0  0  0  0
  -19.6449  -28.2430   22.7243 O   0  0  0  0  0  0  0  0  0  0  0  0
  -20.0731  -24.6191   19.6904 O   0  0  0  0  0  0  0  0  0  0  0  0
  -31.2623  -21.2357   22.2615 O   0  0  0  0  0  0  0  0  0  0  0  0
  -23.1899  -12.1094   20.7551 O   0  0  0  0  0  0  0  0  0  0  0  0
  -26.2455  -26.6432   17.6518 O   0  0  0  0  0  0  0  0  0  1  0  0
  -22.5915   -6.7074   21.6851 F   0  0  0  0  0  0  0  0  0  0  0  0
  -21.7361  -11.1957   22.9217 F   0  0  0  0  0  0  0  0  0  0  0  0
  1  2  1  0  0  0  0
  1  5  2  0  0  0  0
  2  6  2  0  0  0  0
  3  8  2  0  0  0  0
  3 17  1  0  0  0  0
  4  9  1  0  0  0  0
  4 17  2  0  0  0  0
  5 19  1  0  0  0  0
  6 21  1  0  0  0  0
  7 10  2  0  0  0  0
  7 20  1  0  0  0  0
  8 27  1  0  0  0  0
  9 27  2  0  0  0  0
 10 28  1  0  0  0  0
 11 12  2  0  0  0  0
 11 29  1  0  0  0  0
 12 30  1  0  0  0  0
 13 22  1  0  0  0  0
 13 28  2  0  0  0  0
 14 23  1  0  0  0  0
 14 24  2  0  0  0  0
 15 25  1  0  0  0  0
 15 26  2  0  0  0  0
 16 30  2  0  0  0  0
 16 31  1  0  0  0  0
 17 32  1  0  0  0  0
 18 32  1  0  0  0  0
 18 33  2  0  0  0  0
 18 34  1  0  0  0  0
 19 21  2  0  0  0  0
 19 39  1  0  0  0  0
 20 22  2  0  0  0  0
 20 40  1  0  0  0  0
 21 48  1  0  0  0  0
 22 41  1  0  0  0  0
 23 25  2  0  0  0  0
 23 58  1  0  0  0  0
 24 26  1  0  0  0  0
 24 51  1  0  0  0  0
 25 52  1  0  0  0  0
 26 69  1  0  0  0  0
 27 78  1  0  0  0  0
 28 79  1  0  0  0  0
 29 31  2  0  0  0  0
 29 78  1  0  0  0  0
 30 80  1  0  0  0  0
 31 81  1  0  0  0  0
 32 63  2  0  0  0  0
 33 64  1  0  0  0  0
 33 67  1  0  0  0  0
 34 68  1  0  0  0  0
 34 73  2  0  0  0  0
 35 49  1  0  0  0  0
 35 70  1  0  0  0  0
 35 74  2  0  0  0  0
 36 60  1  0  0  0  0
 36 65  1  0  0  0  0
 36 75  2  0  0  0  0
 37 61  1  0  0  0  0
 37 71  1  0  0  0  0
 37 76  2  0  0  0  0
 38 66  1  0  0  0  0
 38 69  1  0  0  0  0
 38 77  2  0  0  0  0
 39 42  1  0  0  0  0
 40 49  1  0  0  0  0
 41 65  1  0  0  0  0
 42 44  1  0  0  0  0
 43 45  1  0  0  0  0
 43 46  1  0  0  0  0
 44 48  1  0  0  0  0
 45 50  1  0  0  0  0
 46 66  1  0  0  0  0
 47 50  1  0  0  0  0
 47 66  1  0  0  0  0
 48 70  1  0  0  0  0
 49 65  1  0  0  0  0
 50 64  1  0  0  0  0
 53 61  1  0  0  0  0
 54 62  1  0  0  0  0
 55 62  1  0  0  0  0
 56 62  1  0  0  0  0
 57 72  1  0  0  0  0
 58 59  1  0  0  0  0
 59 79  1  0  0  0  0
 60 62  1  0  0  0  0
 60 71  1  0  0  0  0
 61 72  1  0  0  0  0
 63 64  1  0  0  0  0
M  CHG  1  72   1
M  ISO  4  38 100  59 101  69 100  79 101
M  END
> <Batch ID>
0021

> <Smiles>
CNC(C)C(=O)NC(C(=O)N1Cc2cc([101O:1][101CH2:1]Cc3cc(C)c([100NH:0][100C:0](=O)N4CCCC(n5nc(-c6ccc(Oc7ccc(F)cc7F)cc6)c(C(N)=O)c5N)C4)cc3C)ccc2CC1C(=O)NC1CCCc2ccccc21)C(C)(C)C

> <Shape>
0.333

> <Color>
0.067

> <Negative vol penalty>
0.000

$$$$

  -OEChem-04052316123D

 83 91  0     1  0  0  0  0  0999 V2000
  -27.4700  -31.8908   18.4573 C   0  0  0  0  0  0  0  0  0  0  0  0
  -27.5395  -30.5738   18.9003 C   0  0  0  0  0  0  0  0  0  0  0  0
  -23.0365   -9.9394   19.8987 C   0  0  0  0  0  0  0  0  0  0  0  0
  -23.8915   -9.7842   22.1530 C   0  0  0  0  0  0  0  0  0  0  0  0
  -26.3202  -32.6439   18.6910 C   0  0  0  0  0  0  0  0  0  0  0  0
  -26.4596  -30.0096   19.5783 C   0  0  0  0  0  0  0  0  0  0  0  0
  -25.3711  -25.3386   17.9528 C   0  0  0  0  0  0  0  0  0  0  0  0
  -22.2913   -8.7778   20.1014 C   0  0  0  0  0  0  0  0  0  0  0  0
  -23.1463   -8.6227   22.3557 C   0  0  0  0  0  0  0  0  0  0  0  0
  -26.1865  -24.3015   18.4034 C   0  0  0  0  0  0  0  0  0  0  0  0
  -21.1895   -5.8168   23.5871 C   0  0  0  0  0  0  0  0  0  0  0  0
  -20.4824   -5.6996   24.7837 C   0  0  0  0  0  0  0  0  0  0  0  0
  -24.5230  -23.7168   20.0497 C   0  0  0  0  0  0  0  0  0  0  0  0
  -29.8659  -19.1186   22.6595 C   0  0  0  0  0  0  0  0  0  0  0  0
  -31.2199  -17.6245   20.7316 C   0  0  0  0  0  0  0  0  0  0  0  0
  -19.2294   -7.6920   24.2383 C   0  0  0  0  0  0  0  0  0  0  0  0
  -23.8366  -10.4426   20.9245 C   0  0  0  0  0  0  0  0  0  0  0  0
  -24.2004  -12.9672   20.9612 C   0  0  0  0  0  0  0  0  0  0  0  0
  -25.2219  -32.0856   19.3638 C   0  0  0  0  0  0  0  0  0  0  0  0
  -24.1281  -25.5799   18.5555 C   0  0  0  0  0  0  0  0  0  0  0  0
  -25.2945  -30.7564   19.8225 C   0  0  0  0  0  0  0  0  0  0  0  0
  -23.6925  -24.7560   19.6032 C   0  0  0  0  0  0  0  0  0  0  0  0
  -29.6704  -17.7398   22.5817 C   0  0  0  0  0  0  0  0  0  0  0  0
  -30.7383  -19.7505   21.7733 C   0  0  0  0  0  0  0  0  0  0  0  0
  -30.3474  -16.9927   21.6178 C   0  0  0  0  0  0  0  0  0  0  0  0
  -22.3462   -8.1195   21.3299 C   0  0  0  0  0  0  0  0  0  0  0  0
  -25.7639  -23.4922   19.4539 C   0  0  0  0  0  0  0  0  0  0  0  0
  -20.9166   -6.8716   22.7161 C   0  0  0  0  0  0  0  0  0  0  0  0
  -19.5023   -6.6372   25.1093 C   0  0  0  0  0  0  0  0  0  0  0  0
  -19.9365   -7.8092   23.0417 C   0  0  0  0  0  0  0  0  0  0  0  0
  -31.4153  -19.0034   20.8093 C   0  0  0  0  0  0  0  0  0  0  0  0
  -24.6071  -11.6421   20.7155 C   0  0  0  0  0  0  0  0  0  0  0  0
  -25.2844  -13.7310   20.6034 C   0  0  0  0  0  0  0  0  0  0  0  0
  -22.9542  -13.4634   21.4675 C   0  0  0  0  0  0  0  0  0  0  0  0
  -22.8401  -28.0131   20.1443 C   0  0  0  0  0  0  0  0  0  0  0  0
  -20.1663  -26.1819   20.0046 C   0  0  0  0  0  0  0  0  0  0  0  0
  -18.7984  -23.0714   19.6878 C   0  0  0  0  0  0  0  0  0  0  0  0
  -30.7641  -14.7189   20.6165 C   0  0  0  0  0  0  0  0  0  0  0  0
  -24.0187  -32.9537   19.6348 C   0  0  0  0  0  0  0  0  0  0  0  0
  -23.2485  -26.6859   18.0401 C   0  0  0  0  0  0  0  0  0  0  0  0
  -22.3579  -24.9606   20.2706 C   0  0  0  0  0  0  0  0  0  0  0  0
  -22.7743  -32.1634   20.0310 C   0  0  0  0  0  0  0  0  0  0  0  0
  -29.5258  -12.4807   18.1397 C   0  0  0  0  0  0  0  0  0  0  0  0
  -23.1204  -31.1150   21.0836 C   0  0  0  0  0  0  0  0  0  0  0  0
  -28.1023  -12.1720   18.6093 C   0  0  0  0  0  0  0  0  0  0  0  0
  -30.4927  -12.6200   19.3142 C   0  0  0  0  0  0  0  0  0  0  0  0
  -28.6530  -13.2639   20.8209 C   0  0  0  0  0  0  0  0  0  0  0  0
  -24.1342  -30.1011   20.5398 C   0  0  1  0  0  0  0  0  0  0  0  0
  -22.2267  -27.1643   19.0669 C   0  0  1  0  0  0  0  0  0  0  0  0
  -27.6300  -13.1789   19.6764 C   0  0  2  0  0  0  0  0  0  0  0  0
  -28.7283  -17.0896   23.5425 C   0  0  0  0  0  0  0  0  0  0  0  0
  -16.5865  -21.8867   19.6491 C   0  0  0  0  0  0  0  0  0  0  0  0
  -19.9610  -26.4713   23.0351 C   0  0  0  0  0  0  0  0  0  0  0  0
  -18.3581  -24.5480   23.0403 C   0  0  0  0  0  0  0  0  0  0  0  0
  -17.7819  -26.6462   21.8204 C   0  0  0  0  0  0  0  0  0  0  0  0
  -19.2475  -22.0778   16.9365 C   0  0  0  0  0  0  0  0  0  0  0  0
  -30.9212  -21.2428   21.8896 C   0  0  0  0  0  0  0  0  0  0  0  0
  -30.1832  -22.0430   20.8107 C   0  0  0  0  0  0  0  0  0  0  0  0
  -28.6640  -21.8812   20.8793 C   0  0  0  0  0  0  0  0  0  0  0  0
  -27.9684  -22.6576   19.7694 C   0  0  0  0  0  0  0  0  0  1  0  0
  -19.5565  -25.1119   20.8777 C   0  0  1  0  0  0  0  0  0  0  0  0
  -17.6707  -22.5510   18.8149 C   0  0  2  0  0  0  0  0  0  0  0  0
  -18.9404  -25.6915   22.1823 C   0  0  0  0  0  0  0  0  0  0  0  0
  -25.8523  -11.5649   20.2384 N   0  0  0  0  0  0  0  0  0  0  0  0
  -26.2373  -12.8512   20.1813 N   0  0  0  0  0  0  0  0  0  0  0  0
  -21.5367  -26.0590   19.7351 N   0  0  0  0  0  0  0  0  0  0  0  0
  -29.9820  -13.5931   20.2822 N   0  0  0  0  0  0  0  0  0  0  0  0
  -25.5060  -15.0626   20.6118 N   0  0  0  0  0  0  0  0  0  0  0  0
  -21.9475  -12.5415   21.7851 N   0  0  0  0  0  0  0  0  0  0  0  0
  -30.1615  -15.5912   21.5223 N   0  0  0  0  0  0  0  0  0  0  0  0
  -23.4782  -29.1450   19.6739 N   0  0  0  0  0  0  0  0  0  0  0  0
  -18.6065  -24.3914   20.0370 N   0  0  0  0  0  0  0  0  0  0  0  0
  -18.1903  -21.5524   17.8382 N   0  3  0  0  0  0  0  0  0  0  0  0
  -22.7338  -14.6891   21.6179 O   0  0  0  0  0  0  0  0  0  0  0  0
  -22.7406  -27.6676   21.3158 O   0  0  0  0  0  0  0  0  0  0  0  0
  -19.4515  -27.0892   19.5716 O   0  0  0  0  0  0  0  0  0  0  0  0
  -19.7521  -22.3753   20.0291 O   0  0  0  0  0  0  0  0  0  0  0  0
  -31.8745  -14.9101   20.1139 O   0  0  0  0  0  0  0  0  0  0  0  0
  -21.6190   -6.9862   21.5281 O   0  0  0  0  0  0  0  0  0  0  0  0
  -26.5582  -22.4795   19.8961 O   0  0  0  0  0  0  0  0  0  1  0  0
  -18.8223   -6.5237   26.2577 F   0  0  0  0  0  0  0  0  0  0  0  0
  -19.6691   -8.8241   22.2084 F   0  0  0  0  0  0  0  0  0  0  0  0
  -32.5022  -19.7508   19.6959 Cl  0  0  0  0  0  0  0  0  0  0  0  0
  1  2  1  0  0  0  0
  1  5  2  0  0  0  0
  2  6  2  0  0  0  0
  3  8  2  0  0  0  0
  3 17  1  0  0  0  0
  4  9  1  0  0  0  0
  4 17  2  0  0  0  0
  5 19  1  0  0  0  0
  6 21  1  0  0  0  0
  7 10  2  0  0  0  0
  7 20  1  0  0  0  0
  8 26  1  0  0  0  0
  9 26  2  0  0  0  0
 10 27  1  0  0  0  0
 11 12  2  0  0  0  0
 11 28  1  0  0  0  0
 12 29  1  0  0  0  0
 13 22  1  0  0  0  0
 13 27  2  0  0  0  0
 14 23  2  0  0  0  0
 14 24  1  0  0  0  0
 15 25  2  0  0  0  0
 15 31  1  0  0  0  0
 16 29  2  0  0  0  0
 16 30  1  0  0  0  0
 17 32  1  0  0  0  0
 18 32  1  0  0  0  0
 18 33  2  0  0  0  0
 18 34  1  0  0  0  0
 19 21  2  0  0  0  0
 19 39  1  0  0  0  0
 20 22  2  0  0  0  0
 20 40  1  0  0  0  0
 21 48  1  0  0  0  0
 22 41  1  0  0  0  0
 23 25  1  0  0  0  0
 23 51  1  0  0  0  0
 24 31  2  0  0  0  0
 24 57  1  0  0  0  0
 25 70  1  0  0  0  0
 26 79  1  0  0  0  0
 27 80  1  0  0  0  0
 28 30  2  0  0  0  0
 28 79  1  0  0  0  0
 29 81  1  0  0  0  0
 30 82  1  0  0  0  0
 31 83  1  0  0  0  0
 32 64  2  0  0  0  0
 33 65  1  0  0  0  0
 33 68  1  0  0  0  0
 34 69  1  0  0  0  0
 34 74  2  0  0  0  0
 35 49  1  0  0  0  0
 35 71  1  0  0  0  0
 35 75  2  0  0  0  0
 36 61  1  0  0  0  0
 36 66  1  0  0  0  0
 36 76  2  0  0  0  0
 37 62  1  0  0  0  0
 37 72  1  0  0  0  0
 37 77  2  0  0  0  0
 38 67  1  0  0  0  0
 38 70  1  0  0  0  0
 38 78  2  0  0  0  0
 39 42  1  0  0  0  0
 40 49  1  0  0  0  0
 41 66  1  0  0  0  0
 42 44  1  0  0  0  0
 43 45  1  0  0  0  0
 43 46  1  0  0  0  0
 44 48  1  0  0  0  0
 45 50  1  0  0  0  0
 46 67  1  0  0  0  0
 47 50  1  0  0  0  0
 47 67  1  0  0  0  0
 48 71  1  0  0  0  0
 49 66  1  0  0  0  0
 50 65  1  0  0  0  0
 52 62  1  0  0  0  0
 53 63  1  0  0  0  0
 54 63  1  0  0  0  0
 55 63  1  0  0  0  0
 56 73  1  0  0  0  0
 57 58  1  0  0  0  0
 58 59  1  0  0  0  0
 59 60  1  0  0  0  0
 60 80  1  0  0  0  0
 61 63  1  0  0  0  0
 61 72  1  0  0  0  0
 62 73  1  0  0  0  0
 64 65  1  0  0  0  0
M  CHG  1  73   1
M  ISO  4  38 100  60 101  70 100  80 101
M  END
> <Batch ID>
0021

> <Smiles>
CNC(C)C(=O)NC(C(=O)N1Cc2cc([101O:1][101CH2:1]CCCc3cc(C)c([100NH:0][100C:0](=O)N4CCCC(n5nc(-c6ccc(Oc7ccc(F)cc7F)cc6)c(C(N)=O)c5N)C4)cc3Cl)ccc2CC1C(=O)NC1CCCc2ccccc21)C(C)(C)C

> <Shape>
0.276

> <Color>
0.197

> <Negative vol penalty>
0.000

$$$$

  -OEChem-04052316123D

 83 91  0     1  0  0  0  0  0999 V2000
  -24.8663  -34.9402   23.1090 C   0  0  0  0  0  0  0  0  0  0  0  0
  -25.6065  -33.7851   22.8784 C   0  0  0  0  0  0  0  0  0  0  0  0
  -26.2565  -13.2220   22.3882 C   0  0  0  0  0  0  0  0  0  0  0  0
  -25.8086  -14.5638   20.4296 C   0  0  0  0  0  0  0  0  0  0  0  0
  -23.5715  -34.8472   23.6176 C   0  0  0  0  0  0  0  0  0  0  0  0
  -25.0527  -32.5362   23.1575 C   0  0  0  0  0  0  0  0  0  0  0  0
  -25.8879  -29.1719   19.4657 C   0  0  0  0  0  0  0  0  0  0  0  0
  -25.7638  -12.0957   21.7293 C   0  0  0  0  0  0  0  0  0  0  0  0
  -25.3159  -13.4374   19.7707 C   0  0  0  0  0  0  0  0  0  0  0  0
  -27.1536  -28.5899   19.4090 C   0  0  0  0  0  0  0  0  0  0  0  0
  -22.7462  -10.7782   20.9660 C   0  0  0  0  0  0  0  0  0  0  0  0
  -21.8776   -9.9445   21.6702 C   0  0  0  0  0  0  0  0  0  0  0  0
  -26.2905  -26.6207   20.5029 C   0  0  0  0  0  0  0  0  0  0  0  0
  -23.4192   -8.1049   21.3938 C   0  0  0  0  0  0  0  0  0  0  0  0
  -26.2789  -14.4561   21.7384 C   0  0  0  0  0  0  0  0  0  0  0  0
  -28.1162  -16.0840   22.4324 C   0  0  0  0  0  0  0  0  0  0  0  0
  -22.9980  -33.5960   23.8940 C   0  0  0  0  0  0  0  0  0  0  0  0
  -24.8147  -28.4858   20.0522 C   0  0  0  0  0  0  0  0  0  0  0  0
  -23.7495  -32.4263   23.6716 C   0  0  0  0  0  0  0  0  0  0  0  0
  -25.0117  -27.1951   20.5635 C   0  0  0  0  0  0  0  0  0  0  0  0
  -28.0864  -23.3961   21.4155 C   0  0  0  0  0  0  0  0  0  0  0  0
  -25.2935  -12.2034   20.4205 C   0  0  0  0  0  0  0  0  0  0  0  0
  -27.3557  -27.3153   19.9302 C   0  0  0  0  0  0  0  0  0  0  0  0
  -23.9513  -10.2753   20.4755 C   0  0  0  0  0  0  0  0  0  0  0  0
  -22.2141   -8.6079   21.8842 C   0  0  0  0  0  0  0  0  0  0  0  0
  -24.2878   -8.9386   20.6894 C   0  0  0  0  0  0  0  0  0  0  0  0
  -26.7872  -15.6201   22.4187 C   0  0  0  0  0  0  0  0  0  0  0  0
  -28.5204  -24.4201   20.5525 C   0  0  0  0  0  0  0  0  0  0  0  0
  -28.0778  -17.2130   23.2136 C   0  0  0  0  0  0  0  0  0  0  0  0
  -27.8447  -22.3279   20.5867 C   0  0  0  0  0  0  0  0  0  0  0  0
  -29.2813  -15.5429   21.7957 C   0  0  0  0  0  0  0  0  0  0  0  0
  -22.9092  -29.0101   22.5418 C   0  0  0  0  0  0  0  0  0  0  0  0
  -21.3768  -26.3771   21.4276 C   0  0  0  0  0  0  0  0  0  0  0  0
  -21.5230  -23.4907   19.6128 C   0  0  0  0  0  0  0  0  0  0  0  0
  -24.6293  -21.7075   24.4063 C   0  0  0  0  0  0  0  0  0  0  0  0
  -21.6123  -33.5478   24.4873 C   0  0  0  0  0  0  0  0  0  0  0  0
  -23.4496  -29.1167   20.0816 C   0  0  0  0  0  0  0  0  0  0  0  0
  -23.8879  -26.4085   21.1853 C   0  0  0  0  0  0  0  0  0  0  0  0
  -20.9616  -32.1694   24.4039 C   0  0  0  0  0  0  0  0  0  0  0  0
  -24.9883  -18.9676   26.6515 C   0  0  0  0  0  0  0  0  0  0  0  0
  -21.9415  -31.0886   24.8495 C   0  0  0  0  0  0  0  0  0  0  0  0
  -25.6123  -17.8682   25.7902 C   0  0  0  0  0  0  0  0  0  0  0  0
  -23.9880  -19.8061   25.8589 C   0  0  0  0  0  0  0  0  0  0  0  0
  -25.1390  -19.2788   23.7444 C   0  0  0  0  0  0  0  0  0  0  0  0
  -23.1744  -31.0522   23.9384 C   0  0  1  0  0  0  0  0  0  0  0  0
  -22.5455  -28.5345   21.1637 C   0  0  1  0  0  0  0  0  0  0  0  0
  -26.1961  -18.4419   24.4850 C   0  0  2  0  0  0  0  0  0  0  0  0
  -30.4219  -25.9416   21.1947 C   0  0  0  0  0  0  0  0  0  0  0  0
  -20.1217  -21.5293   18.9150 C   0  0  0  0  0  0  0  0  0  0  0  0
  -21.6621  -25.1827   24.2208 C   0  0  0  0  0  0  0  0  0  0  0  0
  -21.1325  -22.9407   23.2403 C   0  0  0  0  0  0  0  0  0  0  0  0
  -19.4468  -24.7763   23.1337 C   0  0  0  0  0  0  0  0  0  0  0  0
  -28.0470  -22.0097   18.0943 C   0  0  0  0  0  0  0  0  0  0  0  0
  -21.8217  -24.1502   16.7432 C   0  0  0  0  0  0  0  0  0  0  0  0
  -27.9268  -23.4555   22.8793 C   0  0  0  0  0  0  0  0  0  0  0  0
  -26.6317  -24.1490   23.3702 C   0  0  0  0  0  0  0  0  0  0  0  0
  -25.3469  -23.5052   22.8532 C   0  0  0  0  0  0  0  0  0  0  0  0
  -28.9282  -25.8292   20.9173 C   0  0  1  0  0  0  0  0  0  1  0  0
  -21.4984  -24.8906   21.6607 C   0  0  1  0  0  0  0  0  0  0  0  0
  -20.6036  -22.9238   18.5461 C   0  0  2  0  0  0  0  0  0  0  0  0
  -20.9568  -24.4629   23.0540 C   0  0  0  0  0  0  0  0  0  0  0  0
  -25.9645  -16.3913   23.1346 N   0  0  0  0  0  0  0  0  0  0  0  0
  -28.5536  -24.0369   19.2734 N   0  0  0  0  0  0  0  0  0  0  0  0
  -26.7787  -17.3511   23.6055 N   0  0  0  0  0  0  0  0  0  0  0  0
  -28.1375  -22.7601   19.3266 N   0  0  0  0  0  0  0  0  0  0  0  0
  -22.5731  -27.0708   21.1961 N   0  0  0  0  0  0  0  0  0  0  0  0
  -24.6047  -20.3217   24.6342 N   0  0  0  0  0  0  0  0  0  0  0  0
  -29.0288  -18.0912   23.5968 N   0  0  0  0  0  0  0  0  0  0  0  0
  -29.1436  -14.3773   21.0297 N   0  0  0  0  0  0  0  0  0  0  0  0
  -22.8633  -30.3828   22.6935 N   0  0  0  0  0  0  0  0  0  0  0  0
  -20.8302  -24.2450   20.5359 N   0  0  0  0  0  0  0  0  0  0  0  0
  -25.2382  -22.1120   23.2247 N   0  0  0  0  0  0  0  0  0  0  0  0
  -21.3140  -22.8449   17.2385 N   0  3  0  0  0  0  0  0  0  0  0  0
  -30.4142  -16.0678   21.9164 O   0  0  0  0  0  0  0  0  0  0  0  0
  -23.2079  -28.1922   23.4040 O   0  0  0  0  0  0  0  0  0  0  0  0
  -20.2607  -26.9024   21.4431 O   0  0  0  0  0  0  0  0  0  0  0  0
  -22.7341  -23.2819   19.6278 O   0  0  0  0  0  0  0  0  0  0  0  0
  -24.1494  -22.5241   25.1999 O   0  0  0  0  0  0  0  0  0  0  0  0
  -24.8129  -11.1044   19.7771 O   0  0  0  0  0  0  0  0  0  0  0  0
  -28.5902  -26.7452   19.8767 O   0  0  0  0  0  0  0  0  0  1  0  0
  -21.3806   -7.8077   22.5619 F   0  0  0  0  0  0  0  0  0  0  0  0
  -25.4446   -8.4500   20.2217 F   0  0  0  0  0  0  0  0  0  0  0  0
  -27.3027  -20.7478   20.8759 Cl  0  0  0  0  0  0  0  0  0  0  0  0
  1  2  1  0  0  0  0
  1  5  2  0  0  0  0
  2  6  2  0  0  0  0
  3  8  2  0  0  0  0
  3 15  1  0  0  0  0
  4  9  1  0  0  0  0
  4 15  2  0  0  0  0
  5 17  1  0  0  0  0
  6 19  1  0  0  0  0
  7 10  2  0  0  0  0
  7 18  1  0  0  0  0
  8 22  1  0  0  0  0
  9 22  2  0  0  0  0
 10 23  1  0  0  0  0
 11 12  2  0  0  0  0
 11 24  1  0  0  0  0
 12 25  1  0  0  0  0
 13 20  1  0  0  0  0
 13 23  2  0  0  0  0
 14 25  2  0  0  0  0
 14 26  1  0  0  0  0
 15 27  1  0  0  0  0
 16 27  1  0  0  0  0
 16 29  2  0  0  0  0
 16 31  1  0  0  0  0
 17 19  2  0  0  0  0
 17 36  1  0  0  0  0
 18 20  2  0  0  0  0
 18 37  1  0  0  0  0
 19 45  1  0  0  0  0
 20 38  1  0  0  0  0
 21 28  1  0  0  0  0
 21 30  2  0  0  0  0
 21 55  1  0  0  0  0
 22 79  1  0  0  0  0
 23 80  1  0  0  0  0
 24 26  2  0  0  0  0
 24 79  1  0  0  0  0
 25 81  1  0  0  0  0
 26 82  1  0  0  0  0
 27 62  2  0  0  0  0
 28 58  1  0  0  0  0
 28 63  2  0  0  0  0
 29 64  1  0  0  0  0
 29 68  1  0  0  0  0
 30 65  1  0  0  0  0
 30 83  1  0  0  0  0
 31 69  1  0  0  0  0
 31 74  2  0  0  0  0
 32 46  1  0  0  0  0
 32 70  1  0  0  0  0
 32 75  2  0  0  0  0
 33 59  1  0  0  0  0
 33 66  1  0  0  0  0
 33 76  2  0  0  0  0
 34 60  1  0  0  0  0
 34 71  1  0  0  0  0
 34 77  2  0  0  0  0
 35 67  1  0  0  0  0
 35 72  1  0  0  0  0
 35 78  2  0  0  0  0
 36 39  1  0  0  0  0
 37 46  1  0  0  0  0
 38 66  1  0  0  0  0
 39 41  1  0  0  0  0
 40 42  1  0  0  0  0
 40 43  1  0  0  0  0
 41 45  1  0  0  0  0
 42 47  1  0  0  0  0
 43 67  1  0  0  0  0
 44 47  1  0  0  0  0
 44 67  1  0  0  0  0
 45 70  1  0  0  0  0
 46 66  1  0  0  0  0
 47 64  1  0  0  0  0
 48 58  1  0  0  0  0
 49 60  1  0  0  0  0
 50 61  1  0  0  0  0
 51 61  1  0  0  0  0
 52 61  1  0  0  0  0
 53 65  1  0  0  0  0
 54 73  1  0  0  0  0
 55 56  1  0  0  0  0
 56 57  1  0  0  0  0
 57 72  1  0  0  0  0
 58 80  1  0  0  0  0
 59 61  1  0  0  0  0
 59 71  1  0  0  0  0
 60 73  1  0  0  0  0
 62 64  1  0  0  0  0
 63 65  1  0  0  0  0
M  CHG  1  73   1
M  ISO  4  35 100  58 101  72 100  80 101
M  END
> <Batch ID>
0021

> <Smiles>
CNC(C)C(=O)NC(C(=O)N1Cc2cc([101O:1][101CH:1](C)c3nn(C)c(Cl)c3CCC[100NH:0][100C:0](=O)N3CCCC(n4nc(-c5ccc(Oc6ccc(F)cc6F)cc5)c(C(N)=O)c4N)C3)ccc2CC1C(=O)NC1CCCc2ccccc21)C(C)(C)C

> <Shape>
0.210

> <Color>
0.082

> <Negative vol penalty>
0.000

$$$$

  -OEChem-04052316123D

 90 98  0     1  0  0  0  0  0999 V2000
  -29.6560  -35.6614   24.0130 C   0  0  0  0  0  0  0  0  0  0  0  0
  -29.4831  -34.4721   23.3122 C   0  0  0  0  0  0  0  0  0  0  0  0
  -22.9237  -10.1814   19.9056 C   0  0  0  0  0  0  0  0  0  0  0  0
  -23.9594   -9.6640   22.0261 C   0  0  0  0  0  0  0  0  0  0  0  0
  -28.7192  -36.0474   24.9707 C   0  0  0  0  0  0  0  0  0  0  0  0
  -28.3736  -33.6675   23.5696 C   0  0  0  0  0  0  0  0  0  0  0  0
  -26.1718  -31.9813   19.3324 C   0  0  0  0  0  0  0  0  0  0  0  0
  -22.1549   -9.0213   19.9980 C   0  0  0  0  0  0  0  0  0  0  0  0
  -23.1905   -8.5038   22.1185 C   0  0  0  0  0  0  0  0  0  0  0  0
  -26.7849  -30.9140   18.6776 C   0  0  0  0  0  0  0  0  0  0  0  0
  -20.0227   -7.6772   22.9563 C   0  0  0  0  0  0  0  0  0  0  0  0
  -19.4146   -7.4004   24.1807 C   0  0  0  0  0  0  0  0  0  0  0  0
  -25.1912  -29.3983   19.6686 C   0  0  0  0  0  0  0  0  0  0  0  0
  -20.6304   -5.3168   24.3134 C   0  0  0  0  0  0  0  0  0  0  0  0
  -23.8260  -10.5028   20.9197 C   0  0  0  0  0  0  0  0  0  0  0  0
  -24.2868  -12.9827   21.3007 C   0  0  0  0  0  0  0  0  0  0  0  0
  -27.5927  -35.2519   25.2331 C   0  0  0  0  0  0  0  0  0  0  0  0
  -25.0687  -31.7633   20.1703 C   0  0  0  0  0  0  0  0  0  0  0  0
  -27.4215  -34.0426   24.5327 C   0  0  0  0  0  0  0  0  0  0  0  0
  -24.5643  -30.4649   20.3309 C   0  0  0  0  0  0  0  0  0  0  0  0
  -30.9710  -18.7654   23.0161 C   0  0  0  0  0  0  0  0  0  0  0  0
  -30.3582  -17.6832   22.3846 C   0  0  0  0  0  0  0  0  0  0  0  0
  -32.2181  -18.6057   23.6201 C   0  0  0  0  0  0  0  0  0  0  0  0
  -32.2397  -16.2815   22.9611 C   0  0  0  0  0  0  0  0  0  0  0  0
  -30.9925  -16.4412   22.3571 C   0  0  0  0  0  0  0  0  0  0  0  0
  -22.2882   -8.1825   21.1044 C   0  0  0  0  0  0  0  0  0  0  0  0
  -26.2964  -29.6219   18.8479 C   0  0  0  0  0  0  0  0  0  0  0  0
  -20.9346   -6.7738   22.4104 C   0  0  0  0  0  0  0  0  0  0  0  0
  -19.7184   -6.2202   24.8593 C   0  0  0  0  0  0  0  0  0  0  0  0
  -21.2384   -5.5936   23.0889 C   0  0  0  0  0  0  0  0  0  0  0  0
  -32.8525  -17.3637   23.5926 C   0  0  0  0  0  0  0  0  0  0  0  0
  -24.6209  -11.7008   20.8245 C   0  0  0  0  0  0  0  0  0  0  0  0
  -25.3649  -13.7651   20.9660 C   0  0  0  0  0  0  0  0  0  0  0  0
  -23.1073  -13.4266   21.9846 C   0  0  0  0  0  0  0  0  0  0  0  0
  -24.4783  -32.2051   23.2622 C   0  0  0  0  0  0  0  0  0  0  0  0
  -21.4742  -31.3212   22.4158 C   0  0  0  0  0  0  0  0  0  0  0  0
  -19.4518  -29.6590   20.2263 C   0  0  0  0  0  0  0  0  0  0  0  0
  -30.8595  -14.6042   20.6383 C   0  0  0  0  0  0  0  0  0  0  0  0
  -26.6318  -35.6871   26.3111 C   0  0  0  0  0  0  0  0  0  0  0  0
  -24.4021  -32.9287   20.8484 C   0  0  0  0  0  0  0  0  0  0  0  0
  -23.3701  -30.1804   21.2034 C   0  0  0  0  0  0  0  0  0  0  0  0
  -25.2886  -34.9637   26.2581 C   0  0  0  0  0  0  0  0  0  0  0  0
  -29.3329  -12.8003   17.9751 C   0  0  0  0  0  0  0  0  0  0  0  0
  -25.4972  -33.4627   26.0840 C   0  0  0  0  0  0  0  0  0  0  0  0
  -27.9434  -12.4589   18.5182 C   0  0  0  0  0  0  0  0  0  0  0  0
  -30.4000  -12.7353   19.0663 C   0  0  0  0  0  0  0  0  0  0  0  0
  -28.7197  -13.1875   20.8103 C   0  0  0  0  0  0  0  0  0  0  0  0
  -26.2182  -33.1551   24.7660 C   0  0  1  0  0  0  0  0  0  0  0  0
  -23.6030  -32.5242   22.0834 C   0  0  1  0  0  0  0  0  0  0  0  0
  -27.6013  -13.3029   19.7617 C   0  0  2  0  0  0  0  0  0  0  0  0
  -29.0194  -17.8599   21.7379 C   0  0  0  0  0  0  0  0  0  0  0  0
  -32.8599  -19.7801   24.2927 C   0  0  0  0  0  0  0  0  0  0  0  0
  -32.9091  -14.9410   22.9237 C   0  0  0  0  0  0  0  0  0  0  0  0
  -17.0441  -29.0814   19.8184 C   0  0  0  0  0  0  0  0  0  0  0  0
  -21.6108  -29.2096   24.6141 C   0  0  0  0  0  0  0  0  0  0  0  0
  -19.6420  -28.0812   23.5562 C   0  0  0  0  0  0  0  0  0  0  0  0
  -19.4181  -30.4007   24.4464 C   0  0  0  0  0  0  0  0  0  0  0  0
  -19.4277  -31.0880   17.6348 C   0  0  0  0  0  0  0  0  0  0  0  0
  -30.2845  -20.1077   23.0449 C   0  0  0  0  0  0  0  0  0  0  0  0
  -30.4068  -20.8944   21.7351 C   0  0  0  0  0  0  0  0  0  0  0  0
  -29.7693  -22.2854   21.8097 C   0  0  0  0  0  0  0  0  0  0  0  0
  -29.8880  -23.0214   20.4733 C   0  0  0  0  0  0  0  0  0  0  0  0
  -29.2817  -24.4243   20.5551 C   0  0  0  0  0  0  0  0  0  0  0  0
  -29.3725  -25.1461   19.2089 C   0  0  0  0  0  0  0  0  0  0  0  0
  -28.7677  -26.5533   19.2307 C   0  0  0  0  0  0  0  0  0  0  0  0
  -28.9292  -27.3044   17.9051 C   0  0  0  0  0  0  0  0  0  0  0  0
  -28.2897  -28.6878   17.9479 C   0  0  0  0  0  0  0  0  0  1  0  0
  -20.7321  -30.0099   22.3221 C   0  0  1  0  0  0  0  0  0  0  0  0
  -18.1648  -30.0692   19.5337 C   0  0  2  0  0  0  0  0  0  0  0  0
  -20.3745  -29.4301   23.7197 C   0  0  0  0  0  0  0  0  0  0  0  0
  -25.8176  -11.6665   20.2322 N   0  0  0  0  0  0  0  0  0  0  0  0
  -26.2448  -12.9366   20.3340 N   0  0  0  0  0  0  0  0  0  0  0  0
  -22.7568  -31.3522   21.8502 N   0  0  0  0  0  0  0  0  0  0  0  0
  -30.0100  -13.5621   20.2106 N   0  0  0  0  0  0  0  0  0  0  0  0
  -25.6365  -15.0741   21.1536 N   0  0  0  0  0  0  0  0  0  0  0  0
  -22.0969  -12.4921   22.2492 N   0  0  0  0  0  0  0  0  0  0  0  0
  -30.3689  -15.3431   21.7144 N   0  0  0  0  0  0  0  0  0  0  0  0
  -25.2977  -33.2469   23.6530 N   0  0  0  0  0  0  0  0  0  0  0  0
  -19.5782  -30.2544   21.4636 N   0  0  0  0  0  0  0  0  0  0  0  0
  -18.3689  -30.1362   18.0589 N   0  3  0  0  0  0  0  0  0  0  0  0
  -22.9470  -14.6201   22.3356 O   0  0  0  0  0  0  0  0  0  0  0  0
  -24.4140  -31.0962   23.7799 O   0  0  0  0  0  0  0  0  0  0  0  0
  -20.9330  -32.2845   22.9641 O   0  0  0  0  0  0  0  0  0  0  0  0
  -20.2621  -28.8846   19.7220 O   0  0  0  0  0  0  0  0  0  0  0  0
  -31.9299  -14.8423   20.0730 O   0  0  0  0  0  0  0  0  0  0  0  0
  -21.5380   -7.0504   21.1950 O   0  0  0  0  0  0  0  0  0  0  0  0
  -26.8978  -28.5704   18.2057 O   0  0  0  0  0  0  0  0  0  1  0  0
  -19.1356   -5.9552   26.0358 F   0  0  0  0  0  0  0  0  0  0  0  0
  -22.1146   -4.7224   22.5701 F   0  0  0  0  0  0  0  0  0  0  0  0
  -34.4024  -17.1665   24.3430 Cl  0  0  0  0  0  0  0  0  0  0  0  0
  1  2  1  0  0  0  0
  1  5  2  0  0  0  0
  2  6  2  0  0  0  0
  3  8  2  0  0  0  0
  3 15  1  0  0  0  0
  4  9  1  0  0  0  0
  4 15  2  0  0  0  0
  5 17  1  0  0  0  0
  6 19  1  0  0  0  0
  7 10  2  0  0  0  0
  7 18  1  0  0  0  0
  8 26  1  0  0  0  0
  9 26  2  0  0  0  0
 10 27  1  0  0  0  0
 11 12  2  0  0  0  0
 11 28  1  0  0  0  0
 12 29  1  0  0  0  0
 13 20  1  0  0  0  0
 13 27  2  0  0  0  0
 14 29  2  0  0  0  0
 14 30  1  0  0  0  0
 15 32  1  0  0  0  0
 16 32  1  0  0  0  0
 16 33  2  0  0  0  0
 16 34  1  0  0  0  0
 17 19  2  0  0  0  0
 17 39  1  0  0  0  0
 18 20  2  0  0  0  0
 18 40  1  0  0  0  0
 19 48  1  0  0  0  0
 20 41  1  0  0  0  0
 21 22  2  0  0  0  0
 21 23  1  0  0  0  0
 21 59  1  0  0  0  0
 22 25  1  0  0  0  0
 22 51  1  0  0  0  0
 23 31  2  0  0  0  0
 23 52  1  0  0  0  0
 24 25  2  0  0  0  0
 24 31  1  0  0  0  0
 24 53  1  0  0  0  0
 25 77  1  0  0  0  0
 26 86  1  0  0  0  0
 27 87  1  0  0  0  0
 28 30  2  0  0  0  0
 28 86  1  0  0  0  0
 29 88  1  0  0  0  0
 30 89  1  0  0  0  0
 31 90  1  0  0  0  0
 32 71  2  0  0  0  0
 33 72  1  0  0  0  0
 33 75  1  0  0  0  0
 34 76  1  0  0  0  0
 34 81  2  0  0  0  0
 35 49  1  0  0  0  0
 35 78  1  0  0  0  0
 35 82  2  0  0  0  0
 36 68  1  0  0  0  0
 36 73  1  0  0  0  0
 36 83  2  0  0  0  0
 37 69  1  0  0  0  0
 37 79  1  0  0  0  0
 37 84  2  0  0  0  0
 38 74  1  0  0  0  0
 38 77  1  0  0  0  0
 38 85  2  0  0  0  0
 39 42  1  0  0  0  0
 40 49  1  0  0  0  0
 41 73  1  0  0  0  0
 42 44  1  0  0  0  0
 43 45  1  0  0  0  0
 43 46  1  0  0  0  0
 44 48  1  0  0  0  0
 45 50  1  0  0  0  0
 46 74  1  0  0  0  0
 47 50  1  0  0  0  0
 47 74  1  0  0  0  0
 48 78  1  0  0  0  0
 49 73  1  0  0  0  0
 50 72  1  0  0  0  0
 54 69  1  0  0  0  0
 55 70  1  0  0  0  0
 56 70  1  0  0  0  0
 57 70  1  0  0  0  0
 58 80  1  0  0  0  0
 59 60  1  0  0  0  0
 60 61  1  0  0  0  0
 61 62  1  0  0  0  0
 62 63  1  0  0  0  0
 63 64  1  0  0  0  0
 64 65  1  0  0  0  0
 65 66  1  0  0  0  0
 66 67  1  0  0  0  0
 67 87  1  0  0  0  0
 68 70  1  0  0  0  0
 68 79  1  0  0  0  0
 69 80  1  0  0  0  0
 71 72  1  0  0  0  0
M  CHG  1  80   1
M  ISO  4  38 100  67 101  77 100  87 101
M  END
> <Batch ID>
0021

> <Smiles>
CNC(C)C(=O)NC(C(=O)N1Cc2cc([101O:1][101CH2:1]CCCCCCCCc3c(C)c(Cl)c(C)c([100NH:0][100C:0](=O)N4CCCC(n5nc(-c6ccc(Oc7ccc(F)cc7F)cc6)c(C(N)=O)c5N)C4)c3C)ccc2CC1C(=O)NC1CCCc2ccccc21)C(C)(C)C

> <Shape>
0.338

> <Color>
0.182

> <Negative vol penalty>
0.000

$$$$

  -OEChem-04052316123D

 83 91  0     1  0  0  0  0  0999 V2000
  -16.6339  -29.7005   23.8374 C   0  0  0  0  0  0  0  0  0  0  0  0
  -17.7215  -30.3591   24.4020 C   0  0  0  0  0  0  0  0  0  0  0  0
  -30.6147  -18.9291   17.3486 C   0  0  0  0  0  0  0  0  0  0  0  0
  -32.2570  -20.0210   18.7443 C   0  0  0  0  0  0  0  0  0  0  0  0
  -16.8397  -28.5808   23.0325 C   0  0  0  0  0  0  0  0  0  0  0  0
  -19.0155  -29.8978   24.1630 C   0  0  0  0  0  0  0  0  0  0  0  0
  -25.7301  -32.2659   23.3738 C   0  0  0  0  0  0  0  0  0  0  0  0
  -31.4731  -19.0367   16.2544 C   0  0  0  0  0  0  0  0  0  0  0  0
  -33.1154  -20.1285   17.6501 C   0  0  0  0  0  0  0  0  0  0  0  0
  -27.0145  -32.0476   23.8702 C   0  0  0  0  0  0  0  0  0  0  0  0
  -33.3773  -18.6998   13.1762 C   0  0  0  0  0  0  0  0  0  0  0  0
  -33.5301  -17.5796   12.3592 C   0  0  0  0  0  0  0  0  0  0  0  0
  -27.2542  -30.1509   22.3990 C   0  0  0  0  0  0  0  0  0  0  0  0
  -28.5347  -25.6595   26.9742 C   0  0  0  0  0  0  0  0  0  0  0  0
  -34.3570  -16.3167   14.2456 C   0  0  0  0  0  0  0  0  0  0  0  0
  -31.0066  -19.4213   18.5936 C   0  0  0  0  0  0  0  0  0  0  0  0
  -30.0445  -18.2486   20.6446 C   0  0  0  0  0  0  0  0  0  0  0  0
  -18.1375  -28.1112   22.7756 C   0  0  0  0  0  0  0  0  0  0  0  0
  -25.1930  -31.4203   22.3925 C   0  0  0  0  0  0  0  0  0  0  0  0
  -19.2387  -28.7699   23.3550 C   0  0  0  0  0  0  0  0  0  0  0  0
  -25.9637  -30.3621   21.8900 C   0  0  0  0  0  0  0  0  0  0  0  0
  -29.4898  -26.6401   26.7062 C   0  0  0  0  0  0  0  0  0  0  0  0
  -28.0996  -24.8126   25.9548 C   0  0  0  0  0  0  0  0  0  0  0  0
  -30.0098  -26.7738   25.4188 C   0  0  0  0  0  0  0  0  0  0  0  0
  -28.6195  -24.9463   24.6674 C   0  0  0  0  0  0  0  0  0  0  0  0
  -32.7234  -19.6363   16.4052 C   0  0  0  0  0  0  0  0  0  0  0  0
  -27.7756  -30.9882   23.3849 C   0  0  0  0  0  0  0  0  0  0  0  0
  -33.7144  -18.6285   14.5278 C   0  0  0  0  0  0  0  0  0  0  0  0
  -34.0199  -16.3881   12.8939 C   0  0  0  0  0  0  0  0  0  0  0  0
  -34.2042  -17.4369   15.0625 C   0  0  0  0  0  0  0  0  0  0  0  0
  -29.5747  -25.9268   24.3994 C   0  0  0  0  0  0  0  0  0  0  0  0
  -30.1202  -19.3110   19.7241 C   0  0  0  0  0  0  0  0  0  0  0  0
  -29.0538  -18.6222   21.5195 C   0  0  0  0  0  0  0  0  0  0  0  0
  -30.8021  -17.0328   20.7036 C   0  0  0  0  0  0  0  0  0  0  0  0
  -22.6933  -29.4626   22.2419 C   0  0  0  0  0  0  0  0  0  0  0  0
  -23.5818  -29.1977   19.1334 C   0  0  0  0  0  0  0  0  0  0  0  0
  -26.0578  -29.4390   16.7972 C   0  0  0  0  0  0  0  0  0  0  0  0
  -26.8607  -23.9269   23.1795 C   0  0  0  0  0  0  0  0  0  0  0  0
  -18.3073  -26.8688   21.9376 C   0  0  0  0  0  0  0  0  0  0  0  0
  -23.8161  -31.6853   21.8482 C   0  0  0  0  0  0  0  0  0  0  0  0
  -25.4409  -29.4378   20.8219 C   0  0  0  0  0  0  0  0  0  0  0  0
  -19.7324  -26.6674   21.4288 C   0  0  0  0  0  0  0  0  0  0  0  0
  -25.0404  -21.2255   21.7420 C   0  0  0  0  0  0  0  0  0  0  0  0
  -20.7372  -26.8825   22.5561 C   0  0  0  0  0  0  0  0  0  0  0  0
  -26.1300  -20.3283   21.1505 C   0  0  0  0  0  0  0  0  0  0  0  0
  -25.3845  -22.7068   21.5962 C   0  0  0  0  0  0  0  0  0  0  0  0
  -27.7930  -22.1945   21.5227 C   0  0  0  0  0  0  0  0  0  0  0  0
  -20.6590  -28.3146   23.0989 C   0  0  1  0  0  0  0  0  0  0  0  0
  -23.1748  -30.4523   21.2190 C   0  0  1  0  0  0  0  0  0  0  0  0
  -27.5217  -20.6921   21.7040 C   0  0  2  0  0  0  0  0  0  0  0  0
  -29.9385  -27.5320   27.8175 C   0  0  0  0  0  0  0  0  0  0  0  0
  -27.0758  -23.7717   26.2757 C   0  0  0  0  0  0  0  0  0  0  0  0
  -26.4904  -29.1238   14.3455 C   0  0  0  0  0  0  0  0  0  0  0  0
  -23.6132  -26.1725   19.5303 C   0  0  0  0  0  0  0  0  0  0  0  0
  -24.9357  -25.9785   17.4133 C   0  0  0  0  0  0  0  0  0  0  0  0
  -22.6303  -26.9296   17.3589 C   0  0  0  0  0  0  0  0  0  0  0  0
  -26.7997  -32.2822   16.4442 C   0  0  0  0  0  0  0  0  0  0  0  0
  -31.0420  -27.8402   25.1524 C   0  0  0  0  0  0  0  0  0  0  0  0
  -30.4580  -29.2510   25.0515 C   0  0  0  0  0  0  0  0  0  0  0  0
  -29.4976  -29.4246   23.8806 C   0  0  0  0  0  0  0  0  0  1  0  0
  -24.5098  -28.2922   18.3602 C   0  0  1  0  0  0  0  0  0  0  0  0
  -26.0959  -30.1084   15.4352 C   0  0  2  0  0  0  0  0  0  0  0  0
  -23.9317  -26.8593   18.1872 C   0  0  0  0  0  0  0  0  0  0  0  0
  -29.2470  -20.2863   19.9894 N   0  0  0  0  0  0  0  0  0  0  0  0
  -28.6132  -19.8382   21.0865 N   0  0  0  0  0  0  0  0  0  0  0  0
  -24.0867  -29.7342   20.3263 N   0  0  0  0  0  0  0  0  0  0  0  0
  -26.7146  -22.9776   22.1459 N   0  0  0  0  0  0  0  0  0  0  0  0
  -28.5252  -18.0259   22.6091 N   0  0  0  0  0  0  0  0  0  0  0  0
  -31.7812  -16.8076   19.7264 N   0  0  0  0  0  0  0  0  0  0  0  0
  -28.1668  -24.0762   23.6448 N   0  0  0  0  0  0  0  0  0  0  0  0
  -21.3314  -29.2317   22.2039 N   0  0  0  0  0  0  0  0  0  0  0  0
  -24.7954  -28.9770   17.1041 N   0  0  0  0  0  0  0  0  0  0  0  0
  -27.0795  -31.2280   15.4357 N   0  3  0  0  0  0  0  0  0  0  0  0
  -30.6050  -16.1641   21.5868 O   0  0  0  0  0  0  0  0  0  0  0  0
  -23.4980  -28.9456   23.0079 O   0  0  0  0  0  0  0  0  0  0  0  0
  -22.4530  -29.4263   18.6915 O   0  0  0  0  0  0  0  0  0  0  0  0
  -27.0496  -29.3330   17.5153 O   0  0  0  0  0  0  0  0  0  0  0  0
  -25.8940  -24.5408   23.6382 O   0  0  0  0  0  0  0  0  0  0  0  0
  -33.5614  -19.7412   15.3378 O   0  0  0  0  0  0  0  0  0  0  0  0
  -29.0293  -30.7725   23.8682 O   0  0  0  0  0  0  0  0  0  1  0  0
  -34.1651  -15.3120   12.1096 F   0  0  0  0  0  0  0  0  0  0  0  0
  -34.5287  -17.3620   16.3606 F   0  0  0  0  0  0  0  0  0  0  0  0
  -30.2246  -26.0995   22.8000 Cl  0  0  0  0  0  0  0  0  0  0  0  0
  1  2  1  0  0  0  0
  1  5  2  0  0  0  0
  2  6  2  0  0  0  0
  3  8  2  0  0  0  0
  3 16  1  0  0  0  0
  4  9  1  0  0  0  0
  4 16  2  0  0  0  0
  5 18  1  0  0  0  0
  6 20  1  0  0  0  0
  7 10  2  0  0  0  0
  7 19  1  0  0  0  0
  8 26  1  0  0  0  0
  9 26  2  0  0  0  0
 10 27  1  0  0  0  0
 11 12  2  0  0  0  0
 11 28  1  0  0  0  0
 12 29  1  0  0  0  0
 13 21  1  0  0  0  0
 13 27  2  0  0  0  0
 14 22  2  0  0  0  0
 14 23  1  0  0  0  0
 15 29  2  0  0  0  0
 15 30  1  0  0  0  0
 16 32  1  0  0  0  0
 17 32  1  0  0  0  0
 17 33  2  0  0  0  0
 17 34  1  0  0  0  0
 18 20  2  0  0  0  0
 18 39  1  0  0  0  0
 19 21  2  0  0  0  0
 19 40  1  0  0  0  0
 20 48  1  0  0  0  0
 21 41  1  0  0  0  0
 22 24  1  0  0  0  0
 22 51  1  0  0  0  0
 23 25  2  0  0  0  0
 23 52  1  0  0  0  0
 24 31  2  0  0  0  0
 24 58  1  0  0  0  0
 25 31  1  0  0  0  0
 25 70  1  0  0  0  0
 26 79  1  0  0  0  0
 27 80  1  0  0  0  0
 28 30  2  0  0  0  0
 28 79  1  0  0  0  0
 29 81  1  0  0  0  0
 30 82  1  0  0  0  0
 31 83  1  0  0  0  0
 32 64  2  0  0  0  0
 33 65  1  0  0  0  0
 33 68  1  0  0  0  0
 34 69  1  0  0  0  0
 34 74  2  0  0  0  0
 35 49  1  0  0  0  0
 35 71  1  0  0  0  0
 35 75  2  0  0  0  0
 36 61  1  0  0  0  0
 36 66  1  0  0  0  0
 36 76  2  0  0  0  0
 37 62  1  0  0  0  0
 37 72  1  0  0  0  0
 37 77  2  0  0  0  0
 38 67  1  0  0  0  0
 38 70  1  0  0  0  0
 38 78  2  0  0  0  0
 39 42  1  0  0  0  0
 40 49  1  0  0  0  0
 41 66  1  0  0  0  0
 42 44  1  0  0  0  0
 43 45  1  0  0  0  0
 43 46  1  0  0  0  0
 44 48  1  0  0  0  0
 45 50  1  0  0  0  0
 46 67  1  0  0  0  0
 47 50  1  0  0  0  0
 47 67  1  0  0  0  0
 48 71  1  0  0  0  0
 49 66  1  0  0  0  0
 50 65  1  0  0  0  0
 53 62  1  0  0  0  0
 54 63  1  0  0  0  0
 55 63  1  0  0  0  0
 56 63  1  0  0  0  0
 57 73  1  0  0  0  0
 58 59  1  0  0  0  0
 59 60  1  0  0  0  0
 60 80  1  0  0  0  0
 61 63  1  0  0  0  0
 61 72  1  0  0  0  0
 62 73  1  0  0  0  0
 64 65  1  0  0  0  0
M  CHG  1  73   1
M  ISO  4  38 100  60 101  70 100  80 101
M  END
> <Batch ID>
0021

> <Smiles>
CNC(C)C(=O)NC(C(=O)N1Cc2cc([101O:1][101CH2:1]CCc3c(C)cc(C)c([100NH:0][100C:0](=O)N4CCCC(n5nc(-c6ccc(Oc7ccc(F)cc7F)cc6)c(C(N)=O)c5N)C4)c3Cl)ccc2CC1C(=O)NC1CCCc2ccccc21)C(C)(C)C

> <Shape>
0.204

> <Color>
0.113

> <Negative vol penalty>
0.000

$$$$

  -OEChem-04052316123D

 79 87  0     1  0  0  0  0  0999 V2000
  -16.6070  -23.6791   23.7877 C   0  0  0  0  0  0  0  0  0  0  0  0
  -17.9044  -23.2526   24.0530 C   0  0  0  0  0  0  0  0  0  0  0  0
  -26.6523  -12.4951   21.7686 C   0  0  0  0  0  0  0  0  0  0  0  0
  -25.9186  -13.9837   20.0128 C   0  0  0  0  0  0  0  0  0  0  0  0
  -16.3776  -24.6384   22.8024 C   0  0  0  0  0  0  0  0  0  0  0  0
  -18.9730  -23.7844   23.3322 C   0  0  0  0  0  0  0  0  0  0  0  0
  -25.8835  -25.5249   24.0618 C   0  0  0  0  0  0  0  0  0  0  0  0
  -25.3895  -11.9031   21.7944 C   0  0  0  0  0  0  0  0  0  0  0  0
  -24.6558  -13.3917   20.0386 C   0  0  0  0  0  0  0  0  0  0  0  0
  -27.1188  -25.3086   23.4527 C   0  0  0  0  0  0  0  0  0  0  0  0
  -22.4677   -9.7583   22.0724 C   0  0  0  0  0  0  0  0  0  0  0  0
  -22.4051   -8.3657   22.1209 C   0  0  0  0  0  0  0  0  0  0  0  0
  -26.6106  -27.0182   21.8285 C   0  0  0  0  0  0  0  0  0  0  0  0
  -23.6017   -8.2389   20.0259 C   0  0  0  0  0  0  0  0  0  0  0  0
  -29.9994  -22.9256   20.9813 C   0  0  0  0  0  0  0  0  0  0  0  0
  -26.9168  -13.5354   20.8779 C   0  0  0  0  0  0  0  0  0  0  0  0
  -29.3240  -13.7644   20.0650 C   0  0  0  0  0  0  0  0  0  0  0  0
  -17.4449  -25.1893   22.0758 C   0  0  0  0  0  0  0  0  0  0  0  0
  -24.9964  -26.4836   23.5514 C   0  0  0  0  0  0  0  0  0  0  0  0
  -18.7576  -24.7510   22.3353 C   0  0  0  0  0  0  0  0  0  0  0  0
  -25.3658  -27.2466   22.4345 C   0  0  0  0  0  0  0  0  0  0  0  0
  -24.3913  -12.3514   20.9294 C   0  0  0  0  0  0  0  0  0  0  0  0
  -27.4813  -26.0532   22.3342 C   0  0  0  0  0  0  0  0  0  0  0  0
  -23.0972  -10.3912   21.0005 C   0  0  0  0  0  0  0  0  0  0  0  0
  -22.9722   -7.6060   21.0977 C   0  0  0  0  0  0  0  0  0  0  0  0
  -23.6642   -9.6315   19.9773 C   0  0  0  0  0  0  0  0  0  0  0  0
  -28.2208  -14.1477   20.8511 C   0  0  0  0  0  0  0  0  0  0  0  0
  -29.5964  -23.7417   19.9074 C   0  0  0  0  0  0  0  0  0  0  0  0
  -29.5089  -21.6811   20.6696 C   0  0  0  0  0  0  0  0  0  0  0  0
  -30.3135  -14.6543   20.4048 C   0  0  0  0  0  0  0  0  0  0  0  0
  -29.4435  -12.6993   19.1126 C   0  0  0  0  0  0  0  0  0  0  0  0
  -22.0643  -26.3996   22.3268 C   0  0  0  0  0  0  0  0  0  0  0  0
  -22.3738  -29.6283   22.3724 C   0  0  0  0  0  0  0  0  0  0  0  0
  -24.4453  -32.3405   22.3794 C   0  0  0  0  0  0  0  0  0  0  0  0
  -30.2283  -20.2158   22.5884 C   0  0  0  0  0  0  0  0  0  0  0  0
  -17.1430  -26.1891   20.9877 C   0  0  0  0  0  0  0  0  0  0  0  0
  -23.6788  -26.7236   24.2359 C   0  0  0  0  0  0  0  0  0  0  0  0
  -24.4579  -28.3020   21.8597 C   0  0  0  0  0  0  0  0  0  0  0  0
  -18.3669  -26.9768   20.5275 C   0  0  0  0  0  0  0  0  0  0  0  0
  -31.8100  -17.3791   24.0476 C   0  0  0  0  0  0  0  0  0  0  0  0
  -19.5485  -26.0403   20.2962 C   0  0  0  0  0  0  0  0  0  0  0  0
  -31.1739  -16.1939   23.3176 C   0  0  0  0  0  0  0  0  0  0  0  0
  -30.8026  -18.5011   24.2928 C   0  0  0  0  0  0  0  0  0  0  0  0
  -29.4460  -17.7754   22.3687 C   0  0  0  0  0  0  0  0  0  0  0  0
  -19.9454  -25.3224   21.5918 C   0  0  1  0  0  0  0  0  0  0  0  0
  -22.6395  -27.3666   23.3228 C   0  0  1  0  0  0  0  0  0  0  0  0
  -30.4379  -16.6472   22.0415 C   0  0  2  0  0  0  0  0  0  0  0  0
  -24.4055  -34.8496   22.3803 C   0  0  0  0  0  0  0  0  0  0  0  0
  -21.6383  -29.6153   19.4112 C   0  0  0  0  0  0  0  0  0  0  0  0
  -22.5273  -31.9504   19.2516 C   0  0  0  0  0  0  0  0  0  0  0  0
  -20.5869  -31.4553   20.7391 C   0  0  0  0  0  0  0  0  0  0  0  0
  -28.1827  -20.7919   18.7271 C   0  0  0  0  0  0  0  0  0  0  0  0
  -25.8729  -32.4778   24.9682 C   0  0  0  0  0  0  0  0  0  0  0  0
  -29.8621  -25.2161   19.7235 C   0  0  0  0  0  0  0  0  0  0  0  0
  -28.7658  -26.0833   20.3329 C   0  0  0  0  0  0  0  0  0  1  0  0
  -22.8940  -30.6662   21.4074 C   0  0  1  0  0  0  0  0  0  0  0  0
  -24.4611  -33.5936   23.2360 C   0  0  2  0  0  0  0  0  0  0  0  0
  -21.9282  -30.9007   20.2117 C   0  0  0  0  0  0  0  0  0  0  0  0
  -28.4843  -15.1990   21.6317 N   0  0  0  0  0  0  0  0  0  0  0  0
  -28.9034  -23.0720   18.9825 N   0  0  0  0  0  0  0  0  0  0  0  0
  -29.7644  -15.4839   21.3377 N   0  0  0  0  0  0  0  0  0  0  0  0
  -28.8672  -21.8219   19.4744 N   0  0  0  0  0  0  0  0  0  0  0  0
  -23.1776  -28.4951   22.5606 N   0  0  0  0  0  0  0  0  0  0  0  0
  -30.1478  -18.8812   23.0392 N   0  0  0  0  0  0  0  0  0  0  0  0
  -31.5910  -14.8002   19.9936 N   0  0  0  0  0  0  0  0  0  0  0  0
  -28.3300  -11.8795   18.8839 N   0  0  0  0  0  0  0  0  0  0  0  0
  -29.5955  -20.4514   21.3683 N   0  0  0  0  0  0  0  0  0  0  0  0
  -20.7012  -26.2093   22.4499 N   0  0  0  0  0  0  0  0  0  0  0  0
  -23.1651  -31.8608   22.1997 N   0  0  0  0  0  0  0  0  0  0  0  0
  -25.7014  -33.6415   24.0609 N   0  3  0  0  0  0  0  0  0  0  0  0
  -30.5112  -12.4709   18.4952 O   0  0  0  0  0  0  0  0  0  0  0  0
  -22.8024  -25.8668   21.5064 O   0  0  0  0  0  0  0  0  0  0  0  0
  -21.2974  -29.8195   22.9437 O   0  0  0  0  0  0  0  0  0  0  0  0
  -25.4661  -31.8395   21.9129 O   0  0  0  0  0  0  0  0  0  0  0  0
  -30.8387  -21.0795   23.2235 O   0  0  0  0  0  0  0  0  0  0  0  0
  -23.1591  -11.7738   20.9542 O   0  0  0  0  0  0  0  0  0  0  0  0
  -28.6862  -25.8436   21.7374 O   0  0  0  0  0  0  0  0  0  1  0  0
  -22.9134   -6.2687   21.1453 F   0  0  0  0  0  0  0  0  0  0  0  0
  -24.2713  -10.2339   18.9457 F   0  0  0  0  0  0  0  0  0  0  0  0
  1  2  1  0  0  0  0
  1  5  2  0  0  0  0
  2  6  2  0  0  0  0
  3  8  2  0  0  0  0
  3 16  1  0  0  0  0
  4  9  1  0  0  0  0
  4 16  2  0  0  0  0
  5 18  1  0  0  0  0
  6 20  1  0  0  0  0
  7 10  2  0  0  0  0
  7 19  1  0  0  0  0
  8 22  1  0  0  0  0
  9 22  2  0  0  0  0
 10 23  1  0  0  0  0
 11 12  2  0  0  0  0
 11 24  1  0  0  0  0
 12 25  1  0  0  0  0
 13 21  1  0  0  0  0
 13 23  2  0  0  0  0
 14 25  2  0  0  0  0
 14 26  1  0  0  0  0
 15 28  1  0  0  0  0
 15 29  2  0  0  0  0
 16 27  1  0  0  0  0
 17 27  1  0  0  0  0
 17 30  2  0  0  0  0
 17 31  1  0  0  0  0
 18 20  2  0  0  0  0
 18 36  1  0  0  0  0
 19 21  2  0  0  0  0
 19 37  1  0  0  0  0
 20 45  1  0  0  0  0
 21 38  1  0  0  0  0
 22 76  1  0  0  0  0
 23 77  1  0  0  0  0
 24 26  2  0  0  0  0
 24 76  1  0  0  0  0
 25 78  1  0  0  0  0
 26 79  1  0  0  0  0
 27 59  2  0  0  0  0
 28 54  1  0  0  0  0
 28 60  2  0  0  0  0
 29 62  1  0  0  0  0
 29 67  1  0  0  0  0
 30 61  1  0  0  0  0
 30 65  1  0  0  0  0
 31 66  1  0  0  0  0
 31 71  2  0  0  0  0
 32 46  1  0  0  0  0
 32 68  1  0  0  0  0
 32 72  2  0  0  0  0
 33 56  1  0  0  0  0
 33 63  1  0  0  0  0
 33 73  2  0  0  0  0
 34 57  1  0  0  0  0
 34 69  1  0  0  0  0
 34 74  2  0  0  0  0
 35 64  1  0  0  0  0
 35 67  1  0  0  0  0
 35 75  2  0  0  0  0
 36 39  1  0  0  0  0
 37 46  1  0  0  0  0
 38 63  1  0  0  0  0
 39 41  1  0  0  0  0
 40 42  1  0  0  0  0
 40 43  1  0  0  0  0
 41 45  1  0  0  0  0
 42 47  1  0  0  0  0
 43 64  1  0  0  0  0
 44 47  1  0  0  0  0
 44 64  1  0  0  0  0
 45 68  1  0  0  0  0
 46 63  1  0  0  0  0
 47 61  1  0  0  0  0
 48 57  1  0  0  0  0
 49 58  1  0  0  0  0
 50 58  1  0  0  0  0
 51 58  1  0  0  0  0
 52 62  1  0  0  0  0
 53 70  1  0  0  0  0
 54 55  1  0  0  0  0
 55 77  1  0  0  0  0
 56 58  1  0  0  0  0
 56 69  1  0  0  0  0
 57 70  1  0  0  0  0
 59 61  1  0  0  0  0
 60 62  1  0  0  0  0
M  CHG  1  70   1
M  ISO  4  35 100  55 101  67 100  77 101
M  END
> <Batch ID>
0021

> <Smiles>
CNC(C)C(=O)NC(C(=O)N1Cc2cc([101O:1][101CH2:1]Cc3cc([100NH:0][100C:0](=O)N4CCCC(n5nc(-c6ccc(Oc7ccc(F)cc7F)cc6)c(C(N)=O)c5N)C4)n(C)n3)ccc2CC1C(=O)NC1CCCc2ccccc21)C(C)(C)C

> <Shape>
0.296

> <Color>
0.089

> <Negative vol penalty>
0.000

$$$$

  -OEChem-04052316123D

 82 90  0     1  0  0  0  0  0999 V2000
  -28.7215  -25.8240   15.7590 C   0  0  0  0  0  0  0  0  0  0  0  0
  -27.5935  -25.7266   16.5674 C   0  0  0  0  0  0  0  0  0  0  0  0
  -26.1963  -13.8152   19.9539 C   0  0  0  0  0  0  0  0  0  0  0  0
  -24.2587  -13.8827   21.3955 C   0  0  0  0  0  0  0  0  0  0  0  0
  -29.8496  -26.5032   16.2173 C   0  0  0  0  0  0  0  0  0  0  0  0
  -27.5933  -26.3075   17.8351 C   0  0  0  0  0  0  0  0  0  0  0  0
  -23.3225  -28.8492   18.8069 C   0  0  0  0  0  0  0  0  0  0  0  0
  -26.3011  -12.4395   20.1592 C   0  0  0  0  0  0  0  0  0  0  0  0
  -24.3634  -12.5070   21.6007 C   0  0  0  0  0  0  0  0  0  0  0  0
  -22.2011  -28.0991   19.1584 C   0  0  0  0  0  0  0  0  0  0  0  0
  -23.5793   -9.6746   19.9325 C   0  0  0  0  0  0  0  0  0  0  0  0
  -22.4092   -8.9189   19.8587 C   0  0  0  0  0  0  0  0  0  0  0  0
  -22.5963  -28.6086   21.4829 C   0  0  0  0  0  0  0  0  0  0  0  0
  -20.4972  -24.9569   23.2184 C   0  0  0  0  0  0  0  0  0  0  0  0
  -22.7312   -8.1974   22.1419 C   0  0  0  0  0  0  0  0  0  0  0  0
  -25.1751  -14.5368   20.5722 C   0  0  0  0  0  0  0  0  0  0  0  0
  -24.3378  -16.6142   19.3511 C   0  0  0  0  0  0  0  0  0  0  0  0
  -29.8598  -27.1010   17.4874 C   0  0  0  0  0  0  0  0  0  0  0  0
  -24.0968  -29.4767   19.7934 C   0  0  0  0  0  0  0  0  0  0  0  0
  -28.7231  -26.9942   18.3113 C   0  0  0  0  0  0  0  0  0  0  0  0
  -23.7256  -29.3682   21.1411 C   0  0  0  0  0  0  0  0  0  0  0  0
  -21.3353  -24.5254   24.2465 C   0  0  0  0  0  0  0  0  0  0  0  0
  -20.7249  -24.5336   21.9089 C   0  0  0  0  0  0  0  0  0  0  0  0
  -22.6289  -23.2475   22.6556 C   0  0  0  0  0  0  0  0  0  0  0  0
  -25.3846  -11.7854   20.9825 C   0  0  0  0  0  0  0  0  0  0  0  0
  -21.8395  -27.9763   20.4968 C   0  0  0  0  0  0  0  0  0  0  0  0
  -24.3254   -9.6916   21.1109 C   0  0  0  0  0  0  0  0  0  0  0  0
  -21.9852   -8.1803   20.9634 C   0  0  0  0  0  0  0  0  0  0  0  0
  -23.9014   -8.9531   22.2156 C   0  0  0  0  0  0  0  0  0  0  0  0
  -22.4012  -23.6707   23.9651 C   0  0  0  0  0  0  0  0  0  0  0  0
  -21.7907  -23.6790   21.6275 C   0  0  0  0  0  0  0  0  0  0  0  0
  -25.0666  -15.9580   20.3610 C   0  0  0  0  0  0  0  0  0  0  0  0
  -24.5560  -17.9502   19.5831 C   0  0  0  0  0  0  0  0  0  0  0  0
  -23.5353  -16.0651   18.2974 C   0  0  0  0  0  0  0  0  0  0  0  0
  -27.1126  -29.2352   20.7684 C   0  0  0  0  0  0  0  0  0  0  0  0
  -26.3060  -31.7698   22.6251 C   0  0  0  0  0  0  0  0  0  0  0  0
  -23.8505  -33.5504   24.1894 C   0  0  0  0  0  0  0  0  0  0  0  0
  -24.9286  -22.2955   23.0448 C   0  0  0  0  0  0  0  0  0  0  0  0
  -31.1194  -27.7841   17.9581 C   0  0  0  0  0  0  0  0  0  0  0  0
  -25.2882  -30.3043   19.3956 C   0  0  0  0  0  0  0  0  0  0  0  0
  -24.5118  -30.0391   22.2367 C   0  0  0  0  0  0  0  0  0  0  0  0
  -30.9045  -28.6933   19.1654 C   0  0  0  0  0  0  0  0  0  0  0  0
  -27.8298  -20.2653   22.6726 C   0  0  0  0  0  0  0  0  0  0  0  0
  -30.0661  -27.9849   20.2246 C   0  0  0  0  0  0  0  0  0  0  0  0
  -27.3096  -19.0177   21.9549 C   0  0  0  0  0  0  0  0  0  0  0  0
  -26.8144  -20.8062   23.6777 C   0  0  0  0  0  0  0  0  0  0  0  0
  -24.9517  -19.8014   22.4168 C   0  0  0  0  0  0  0  0  0  0  0  0
  -28.6756  -27.6323   19.6827 C   0  0  1  0  0  0  0  0  0  0  0  0
  -26.3004  -30.4755   20.5241 C   0  0  1  0  0  0  0  0  0  0  0  0
  -25.9135  -19.2579   21.3476 C   0  0  2  0  0  0  0  0  0  0  0  0
  -21.0523  -25.0058   25.6338 C   0  0  0  0  0  0  0  0  0  0  0  0
  -23.5027  -35.5512   25.6634 C   0  0  0  0  0  0  0  0  0  0  0  0
  -27.3216  -30.1777   25.0218 C   0  0  0  0  0  0  0  0  0  0  0  0
  -26.1031  -31.7779   26.5127 C   0  0  0  0  0  0  0  0  0  0  0  0
  -27.9413  -32.6005   25.0406 C   0  0  0  0  0  0  0  0  0  0  0  0
  -22.1720  -34.8992   22.1591 C   0  0  0  0  0  0  0  0  0  0  0  0
  -19.7908  -25.0261   20.8303 C   0  0  0  0  0  0  0  0  0  0  0  0
  -20.4057  -26.1458   19.9976 C   0  0  0  0  0  0  0  0  0  1  0  0
  -25.7292  -31.9401   24.0098 C   0  0  1  0  0  0  0  0  0  0  0  0
  -23.5577  -35.0393   24.2325 C   0  0  2  0  0  0  0  0  0  0  0  0
  -26.7599  -31.6097   25.1260 C   0  0  0  0  0  0  0  0  0  0  0  0
  -25.7005  -16.8072   21.1741 N   0  0  0  0  0  0  0  0  0  0  0  0
  -25.3708  -18.0107   20.6752 N   0  0  0  0  0  0  0  0  0  0  0  0
  -25.6720  -30.8321   21.7978 N   0  0  0  0  0  0  0  0  0  0  0  0
  -25.5171  -21.0132   23.0304 N   0  0  0  0  0  0  0  0  0  0  0  0
  -24.1285  -19.0675   18.9575 N   0  0  0  0  0  0  0  0  0  0  0  0
  -23.4180  -14.6717   18.2037 N   0  0  0  0  0  0  0  0  0  0  0  0
  -23.7112  -22.3787   22.3698 N   0  0  0  0  0  0  0  0  0  0  0  0
  -27.8272  -28.8046   19.6668 N   0  0  0  0  0  0  0  0  0  0  0  0
  -25.2008  -33.2987   24.0675 N   0  0  0  0  0  0  0  0  0  0  0  0
  -22.2501  -35.3291   23.5790 N   0  3  0  0  0  0  0  0  0  0  0  0
  -22.9532  -16.7883   17.4538 O   0  0  0  0  0  0  0  0  0  0  0  0
  -27.0936  -28.7087   21.8748 O   0  0  0  0  0  0  0  0  0  0  0  0
  -27.2788  -32.4490   22.2875 O   0  0  0  0  0  0  0  0  0  0  0  0
  -22.9699  -32.6960   24.2607 O   0  0  0  0  0  0  0  0  0  0  0  0
  -25.4781  -23.2557   23.5906 O   0  0  0  0  0  0  0  0  0  0  0  0
  -25.4865  -10.4430   21.1828 O   0  0  0  0  0  0  0  0  0  0  0  0
  -20.7458  -27.2442   20.8427 O   0  0  0  0  0  0  0  0  0  1  0  0
  -20.8607   -7.4559   20.8930 F   0  0  0  0  0  0  0  0  0  0  0  0
  -24.6133   -8.9665   23.3509 F   0  0  0  0  0  0  0  0  0  0  0  0
  -23.4371  -23.1427   25.2526 Cl  0  0  0  0  0  0  0  0  0  0  0  0
  -22.0628  -23.1600   19.9946 Cl  0  0  0  0  0  0  0  0  0  0  0  0
  1  2  1  0  0  0  0
  1  5  2  0  0  0  0
  2  6  2  0  0  0  0
  3  8  2  0  0  0  0
  3 16  1  0  0  0  0
  4  9  1  0  0  0  0
  4 16  2  0  0  0  0
  5 18  1  0  0  0  0
  6 20  1  0  0  0  0
  7 10  2  0  0  0  0
  7 19  1  0  0  0  0
  8 25  1  0  0  0  0
  9 25  2  0  0  0  0
 10 26  1  0  0  0  0
 11 12  2  0  0  0  0
 11 27  1  0  0  0  0
 12 28  1  0  0  0  0
 13 21  1  0  0  0  0
 13 26  2  0  0  0  0
 14 22  2  0  0  0  0
 14 23  1  0  0  0  0
 15 28  2  0  0  0  0
 15 29  1  0  0  0  0
 16 32  1  0  0  0  0
 17 32  1  0  0  0  0
 17 33  2  0  0  0  0
 17 34  1  0  0  0  0
 18 20  2  0  0  0  0
 18 39  1  0  0  0  0
 19 21  2  0  0  0  0
 19 40  1  0  0  0  0
 20 48  1  0  0  0  0
 21 41  1  0  0  0  0
 22 30  1  0  0  0  0
 22 51  1  0  0  0  0
 23 31  2  0  0  0  0
 23 57  1  0  0  0  0
 24 30  2  0  0  0  0
 24 31  1  0  0  0  0
 24 68  1  0  0  0  0
 25 77  1  0  0  0  0
 26 78  1  0  0  0  0
 27 29  2  0  0  0  0
 27 77  1  0  0  0  0
 28 79  1  0  0  0  0
 29 80  1  0  0  0  0
 30 81  1  0  0  0  0
 31 82  1  0  0  0  0
 32 62  2  0  0  0  0
 33 63  1  0  0  0  0
 33 66  1  0  0  0  0
 34 67  1  0  0  0  0
 34 72  2  0  0  0  0
 35 49  1  0  0  0  0
 35 69  1  0  0  0  0
 35 73  2  0  0  0  0
 36 59  1  0  0  0  0
 36 64  1  0  0  0  0
 36 74  2  0  0  0  0
 37 60  1  0  0  0  0
 37 70  1  0  0  0  0
 37 75  2  0  0  0  0
 38 65  1  0  0  0  0
 38 68  1  0  0  0  0
 38 76  2  0  0  0  0
 39 42  1  0  0  0  0
 40 49  1  0  0  0  0
 41 64  1  0  0  0  0
 42 44  1  0  0  0  0
 43 45  1  0  0  0  0
 43 46  1  0  0  0  0
 44 48  1  0  0  0  0
 45 50  1  0  0  0  0
 46 65  1  0  0  0  0
 47 50  1  0  0  0  0
 47 65  1  0  0  0  0
 48 69  1  0  0  0  0
 49 64  1  0  0  0  0
 50 63  1  0  0  0  0
 52 60  1  0  0  0  0
 53 61  1  0  0  0  0
 54 61  1  0  0  0  0
 55 61  1  0  0  0  0
 56 71  1  0  0  0  0
 57 58  1  0  0  0  0
 58 78  1  0  0  0  0
 59 61  1  0  0  0  0
 59 70  1  0  0  0  0
 60 71  1  0  0  0  0
 62 63  1  0  0  0  0
M  CHG  1  71   1
M  ISO  4  38 100  58 101  68 100  78 101
M  END
> <Batch ID>
0021

> <Smiles>
CNC(C)C(=O)NC(C(=O)N1Cc2cc([101O:1][101CH2:1]Cc3cc(C)c(Cl)c([100NH:0][100C:0](=O)N4CCCC(n5nc(-c6ccc(Oc7ccc(F)cc7F)cc6)c(C(N)=O)c5N)C4)c3Cl)ccc2CC1C(=O)NC1CCCc2ccccc21)C(C)(C)C

> <Shape>
0.239

> <Color>
0.093

> <Negative vol penalty>
0.000

$$$$

  -OEChem-04052316123D

 95104  0     1  0  0  0  0  0999 V2000
  -17.5054  -26.6036   25.6045 C   0  0  0  0  0  0  0  0  0  0  0  0
  -18.8226  -26.5601   26.0503 C   0  0  0  0  0  0  0  0  0  0  0  0
  -26.9171   -9.2151   19.8373 C   0  0  0  0  0  0  0  0  0  0  0  0
  -27.6170   -9.8325   22.0658 C   0  0  0  0  0  0  0  0  0  0  0  0
  -17.2106  -27.1526   24.3573 C   0  0  0  0  0  0  0  0  0  0  0  0
  -19.8458  -27.0646   25.2485 C   0  0  0  0  0  0  0  0  0  0  0  0
  -24.9358  -29.9044   27.1284 C   0  0  0  0  0  0  0  0  0  0  0  0
  -27.9476   -8.2772   19.7735 C   0  0  0  0  0  0  0  0  0  0  0  0
  -28.6474   -8.8946   22.0020 C   0  0  0  0  0  0  0  0  0  0  0  0
  -26.2425  -29.4579   27.3204 C   0  0  0  0  0  0  0  0  0  0  0  0
  -28.5532   -5.1592   20.9329 C   0  0  0  0  0  0  0  0  0  0  0  0
  -28.2472   -3.8928   20.4347 C   0  0  0  0  0  0  0  0  0  0  0  0
  -26.8306  -30.2515   25.1196 C   0  0  0  0  0  0  0  0  0  0  0  0
  -27.6003  -21.2494   19.1102 C   0  0  0  0  0  0  0  0  0  0  0  0
  -29.8648   -4.1977   18.6663 C   0  0  0  0  0  0  0  0  0  0  0  0
  -26.7518   -9.9928   20.9834 C   0  0  0  0  0  0  0  0  0  0  0  0
  -24.3770  -10.7549   21.5190 C   0  0  0  0  0  0  0  0  0  0  0  0
  -18.2296  -27.6728   23.5439 C   0  0  0  0  0  0  0  0  0  0  0  0
  -24.5633  -30.5190   25.9243 C   0  0  0  0  0  0  0  0  0  0  0  0
  -19.5645  -27.6198   23.9886 C   0  0  0  0  0  0  0  0  0  0  0  0
  -25.5191  -30.7071   24.9158 C   0  0  0  0  0  0  0  0  0  0  0  0
  -27.7300  -19.9679   19.6456 C   0  0  0  0  0  0  0  0  0  0  0  0
  -29.9227  -20.5399   20.4835 C   0  0  0  0  0  0  0  0  0  0  0  0
  -29.7930  -21.8214   19.9481 C   0  0  0  0  0  0  0  0  0  0  0  0
  -28.8127   -8.1169   20.8559 C   0  0  0  0  0  0  0  0  0  0  0  0
  -27.1894  -29.6288   26.3148 C   0  0  0  0  0  0  0  0  0  0  0  0
  -29.5150   -5.9449   20.2978 C   0  0  0  0  0  0  0  0  0  0  0  0
  -28.9030   -3.4120   19.3014 C   0  0  0  0  0  0  0  0  0  0  0  0
  -30.1708   -5.4641   19.1645 C   0  0  0  0  0  0  0  0  0  0  0  0
  -28.6319  -22.1761   19.2614 C   0  0  0  0  0  0  0  0  0  0  0  0
  -28.8912  -19.6132   20.3322 C   0  0  0  0  0  0  0  0  0  0  0  0
  -25.6879  -10.9622   21.0497 C   0  0  0  0  0  0  0  0  0  0  0  0
  -23.7635  -11.9753   21.3744 C   0  0  0  0  0  0  0  0  0  0  0  0
  -23.7682   -9.5656   22.0392 C   0  0  0  0  0  0  0  0  0  0  0  0
  -22.4870  -29.8493   23.6125 C   0  0  0  0  0  0  0  0  0  0  0  0
  -23.3822  -32.7613   22.4987 C   0  0  0  0  0  0  0  0  0  0  0  0
  -25.7443  -35.2223   22.3938 C   0  0  0  0  0  0  0  0  0  0  0  0
  -25.6720  -17.5438   21.2121 C   0  0  0  0  0  0  0  0  0  0  0  0
  -17.8677  -28.2132   22.1832 C   0  0  0  0  0  0  0  0  0  0  0  0
  -23.1563  -31.0190   25.7431 C   0  0  0  0  0  0  0  0  0  0  0  0
  -25.1751  -31.3791   23.6125 C   0  0  0  0  0  0  0  0  0  0  0  0
  -18.9663  -29.0667   21.5548 C   0  0  0  0  0  0  0  0  0  0  0  0
  -22.3765  -21.3847   20.5219 C   0  0  0  0  0  0  0  0  0  0  0  0
  -23.8746  -15.9415   18.7164 C   0  0  0  0  0  0  0  0  0  0  0  0
  -20.3198  -28.3755   21.6855 C   0  0  0  0  0  0  0  0  0  0  0  0
  -23.5967  -21.8562   21.3398 C   0  0  0  0  0  0  0  0  0  0  0  0
  -23.0835  -20.0201   20.3869 C   0  0  0  0  0  0  0  0  0  0  0  0
  -24.0036  -14.4593   19.0646 C   0  0  0  0  0  0  0  0  0  0  0  0
  -25.1928  -16.6713   18.9459 C   0  0  0  0  0  0  0  0  0  0  0  0
  -25.8525  -15.0625   20.7060 C   0  0  0  0  0  0  0  0  0  0  0  0
  -20.6992  -28.1794   23.1583 C   0  0  1  0  0  0  0  0  0  0  0  0
  -22.7594  -31.1687   24.2777 C   0  0  1  0  0  0  0  0  0  0  0  0
  -24.4217  -20.7766   20.5918 C   0  0  0  0  0  0  0  0  0  0  0  0
  -24.5442  -14.2737   20.4932 C   0  0  2  0  0  0  0  0  0  0  0  0
  -31.1763  -20.1754   21.2183 C   0  0  0  0  0  0  0  0  0  0  0  0
  -26.2078  -37.4655   21.3689 C   0  0  0  0  0  0  0  0  0  0  0  0
  -24.0003  -31.4127   19.8324 C   0  0  0  0  0  0  0  0  0  0  0  0
  -25.3165  -33.4432   19.1899 C   0  0  0  0  0  0  0  0  0  0  0  0
  -22.8705  -33.6355   19.6400 C   0  0  0  0  0  0  0  0  0  0  0  0
  -25.9205  -36.5265   25.0447 C   0  0  0  0  0  0  0  0  0  0  0  0
  -26.5991  -19.0078   19.4586 C   0  0  0  0  0  0  0  0  0  0  0  0
  -30.9099  -22.8090   20.1158 C   0  0  0  0  0  0  0  0  0  0  0  0
  -25.4890  -20.0614   21.3936 C   0  0  0  0  0  0  0  0  0  0  0  0
  -31.0160  -26.0187   25.0326 C   0  0  0  0  0  0  0  0  0  0  0  0
  -30.8904  -25.5015   23.5975 C   0  0  0  0  0  0  0  0  0  0  0  0
  -29.7615  -26.7828   25.4607 C   0  0  0  0  0  0  0  0  0  0  0  0
  -32.1633  -24.7721   23.1583 C   0  0  0  0  0  0  0  0  0  0  0  0
  -29.8769  -27.2739   26.9068 C   0  0  0  0  0  0  0  0  0  0  0  0
  -32.1231  -24.3009   21.7099 C   0  0  0  0  0  0  0  0  0  0  0  0
  -28.6489  -28.0609   27.3480 C   0  0  0  0  0  0  0  0  0  1  0  0
  -24.4607  -33.2656   21.5704 C   0  0  1  0  0  0  0  0  0  0  0  0
  -25.6404  -36.7264   22.5708 C   0  0  2  0  0  0  0  0  0  0  0  0
  -24.1683  -32.9248   20.0818 C   0  0  0  0  0  0  0  0  0  0  0  0
  -25.8959  -12.2156   20.6376 N   0  0  0  0  0  0  0  0  0  0  0  0
  -24.7075  -12.8069   20.8475 N   0  0  0  0  0  0  0  0  0  0  0  0
  -23.7848  -31.8451   23.4807 N   0  0  0  0  0  0  0  0  0  0  0  0
  -25.6795  -16.4689   20.3109 N   0  0  0  0  0  0  0  0  0  0  0  0
  -22.5142  -12.4074   21.6478 N   0  0  0  0  0  0  0  0  0  0  0  0
  -24.5413   -8.3993   22.1188 N   0  0  0  0  0  0  0  0  0  0  0  0
  -21.1780  -29.4213   23.7265 N   0  0  0  0  0  0  0  0  0  0  0  0
  -24.5976  -34.6927   21.8409 N   0  0  0  0  0  0  0  0  0  0  0  0
  -25.8197  -18.8318   20.6757 N   0  0  0  0  0  0  0  0  0  0  0  0
  -26.3896  -37.1582   23.7846 N   0  3  0  0  0  0  0  0  0  0  0  0
  -30.9913  -23.3695   21.4930 N   0  3  0  0  0  0  0  0  0  0  0  0
  -22.5693   -9.5338   22.4068 O   0  0  0  0  0  0  0  0  0  0  0  0
  -23.3967  -29.2635   23.0371 O   0  0  0  0  0  0  0  0  0  0  0  0
  -22.2267  -33.1709   22.3622 O   0  0  0  0  0  0  0  0  0  0  0  0
  -26.7443  -34.5818   22.7107 O   0  0  0  0  0  0  0  0  0  0  0  0
  -25.5333  -17.3646   22.4290 O   0  0  0  0  0  0  0  0  0  0  0  0
  -29.8182   -7.2016   20.7941 O   0  0  0  0  0  0  0  0  0  0  0  0
  -28.4654  -29.1934   26.4994 O   0  0  0  0  0  0  0  0  0  1  0  0
  -28.6102   -2.1953   18.8240 F   0  0  0  0  0  0  0  0  0  0  0  0
  -31.0966   -6.2138   18.5507 F   0  0  0  0  0  0  0  0  0  0  0  0
  -28.4326  -23.7509   18.5818 Cl  0  0  0  0  0  0  0  0  0  0  0  0
  -29.0477  -18.0206   20.9966 Cl  0  0  0  0  0  0  0  0  0  0  0  0
  1  2  1  0  0  0  0
  1  5  2  0  0  0  0
  2  6  2  0  0  0  0
  3  8  2  0  0  0  0
  3 16  1  0  0  0  0
  4  9  1  0  0  0  0
  4 16  2  0  0  0  0
  5 18  1  0  0  0  0
  6 20  1  0  0  0  0
  7 10  2  0  0  0  0
  7 19  1  0  0  0  0
  8 25  1  0  0  0  0
  9 25  2  0  0  0  0
 10 26  1  0  0  0  0
 11 12  2  0  0  0  0
 11 27  1  0  0  0  0
 12 28  1  0  0  0  0
 13 21  1  0  0  0  0
 13 26  2  0  0  0  0
 14 22  1  0  0  0  0
 14 30  2  0  0  0  0
 15 28  2  0  0  0  0
 15 29  1  0  0  0  0
 16 32  1  0  0  0  0
 17 32  1  0  0  0  0
 17 33  2  0  0  0  0
 17 34  1  0  0  0  0
 18 20  2  0  0  0  0
 18 39  1  0  0  0  0
 19 21  2  0  0  0  0
 19 40  1  0  0  0  0
 20 51  1  0  0  0  0
 21 41  1  0  0  0  0
 22 31  2  0  0  0  0
 22 61  1  0  0  0  0
 23 24  2  0  0  0  0
 23 31  1  0  0  0  0
 23 55  1  0  0  0  0
 24 30  1  0  0  0  0
 24 62  1  0  0  0  0
 25 90  1  0  0  0  0
 26 91  1  0  0  0  0
 27 29  2  0  0  0  0
 27 90  1  0  0  0  0
 28 92  1  0  0  0  0
 29 93  1  0  0  0  0
 30 94  1  0  0  0  0
 31 95  1  0  0  0  0
 32 74  2  0  0  0  0
 33 75  1  0  0  0  0
 33 78  1  0  0  0  0
 34 79  1  0  0  0  0
 34 85  2  0  0  0  0
 35 52  1  0  0  0  0
 35 80  1  0  0  0  0
 35 86  2  0  0  0  0
 36 71  1  0  0  0  0
 36 76  1  0  0  0  0
 36 87  2  0  0  0  0
 37 72  1  0  0  0  0
 37 81  1  0  0  0  0
 37 88  2  0  0  0  0
 38 77  1  0  0  0  0
 38 82  1  0  0  0  0
 38 89  2  0  0  0  0
 39 42  1  0  0  0  0
 40 52  1  0  0  0  0
 41 76  1  0  0  0  0
 42 45  1  0  0  0  0
 43 46  1  0  0  0  0
 43 47  1  0  0  0  0
 44 48  1  0  0  0  0
 44 49  1  0  0  0  0
 45 51  1  0  0  0  0
 46 53  1  0  0  0  0
 47 53  1  0  0  0  0
 48 54  1  0  0  0  0
 49 77  1  0  0  0  0
 50 54  1  0  0  0  0
 50 77  1  0  0  0  0
 51 80  1  0  0  0  0
 52 76  1  0  0  0  0
 53 63  1  0  0  0  0
 54 75  1  0  0  0  0
 56 72  1  0  0  0  0
 57 73  1  0  0  0  0
 58 73  1  0  0  0  0
 59 73  1  0  0  0  0
 60 83  1  0  0  0  0
 61 82  1  0  0  0  0
 62 84  1  0  0  0  0
 63 82  1  0  0  0  0
 64 65  1  0  0  0  0
 64 66  1  0  0  0  0
 65 67  1  0  0  0  0
 66 68  1  0  0  0  0
 67 69  1  0  0  0  0
 68 70  1  0  0  0  0
 69 84  1  0  0  0  0
 70 91  1  0  0  0  0
 71 73  1  0  0  0  0
 71 81  1  0  0  0  0
 72 83  1  0  0  0  0
 74 75  1  0  0  0  0
M  CHG  2  83   1  84   1
M  ISO  4  38 100  70 101  82 100  91 101
M  END
> <Batch ID>
0021

> <Smiles>
CNC(C)C(=O)NC(C(=O)N1Cc2cc([101O:1][101CH2:1]CCCCCCNCc3c(Cl)cc(C[100N:0](CC4CCC4)[100C:0](=O)N4CCCC(n5nc(-c6ccc(Oc7ccc(F)cc7F)cc6)c(C(N)=O)c5N)C4)c(Cl)c3C)ccc2CC1C(=O)NC1CCCc2ccccc21)C(C)(C)C

> <Shape>
0.228

> <Color>
0.119

> <Negative vol penalty>
0.000

$$$$

  -OEChem-04052316123D

 88 96  0     1  0  0  0  0  0999 V2000
  -23.8826  -36.9636   22.6155 C   0  0  0  0  0  0  0  0  0  0  0  0
  -24.6050  -36.0516   21.8528 C   0  0  0  0  0  0  0  0  0  0  0  0
  -24.5066   -9.3103   21.6162 C   0  0  0  0  0  0  0  0  0  0  0  0
  -24.5036  -10.6162   23.6489 C   0  0  0  0  0  0  0  0  0  0  0  0
  -23.6529  -36.7125   23.9676 C   0  0  0  0  0  0  0  0  0  0  0  0
  -25.0991  -34.8884   22.4420 C   0  0  0  0  0  0  0  0  0  0  0  0
  -25.6476  -29.3807   19.8208 C   0  0  0  0  0  0  0  0  0  0  0  0
  -24.2026   -8.1648   22.3517 C   0  0  0  0  0  0  0  0  0  0  0  0
  -24.1996   -9.4707   24.3844 C   0  0  0  0  0  0  0  0  0  0  0  0
  -26.7302  -28.7223   19.2392 C   0  0  0  0  0  0  0  0  0  0  0  0
  -21.4709   -6.7710   23.7758 C   0  0  0  0  0  0  0  0  0  0  0  0
  -20.4769   -5.9273   23.2802 C   0  0  0  0  0  0  0  0  0  0  0  0
  -27.1405  -27.5718   21.3193 C   0  0  0  0  0  0  0  0  0  0  0  0
  -28.0275  -21.0904   18.9255 C   0  0  0  0  0  0  0  0  0  0  0  0
  -22.0742   -4.1190   23.1549 C   0  0  0  0  0  0  0  0  0  0  0  0
  -24.6572  -10.5361   22.2648 C   0  0  0  0  0  0  0  0  0  0  0  0
  -24.0623  -12.6232   20.9241 C   0  0  0  0  0  0  0  0  0  0  0  0
  -24.1361  -35.5409   24.5714 C   0  0  0  0  0  0  0  0  0  0  0  0
  -25.3094  -29.1473   21.1616 C   0  0  0  0  0  0  0  0  0  0  0  0
  -24.8767  -34.6219   23.8037 C   0  0  0  0  0  0  0  0  0  0  0  0
  -26.0516  -28.2265   21.9149 C   0  0  0  0  0  0  0  0  0  0  0  0
  -27.6479  -21.9045   19.9926 C   0  0  0  0  0  0  0  0  0  0  0  0
  -28.1748  -19.7162   19.1146 C   0  0  0  0  0  0  0  0  0  0  0  0
  -27.4158  -21.3446   21.2488 C   0  0  0  0  0  0  0  0  0  0  0  0
  -27.5632  -19.9705   21.4380 C   0  0  0  0  0  0  0  0  0  0  0  0
  -27.9427  -19.1563   20.3709 C   0  0  0  0  0  0  0  0  0  0  0  0
  -24.0491   -8.2450   23.7358 C   0  0  0  0  0  0  0  0  0  0  0  0
  -27.4786  -27.8199   19.9892 C   0  0  0  0  0  0  0  0  0  0  0  0
  -22.7666   -6.2887   23.9609 C   0  0  0  0  0  0  0  0  0  0  0  0
  -20.7785   -4.6013   22.9698 C   0  0  0  0  0  0  0  0  0  0  0  0
  -23.0682   -4.9627   23.6505 C   0  0  0  0  0  0  0  0  0  0  0  0
  -24.9718  -11.7196   21.5057 C   0  0  0  0  0  0  0  0  0  0  0  0
  -24.8557  -13.5675   20.3196 C   0  0  0  0  0  0  0  0  0  0  0  0
  -22.6286  -12.6102   20.9298 C   0  0  0  0  0  0  0  0  0  0  0  0
  -25.1675  -30.9385   23.7836 C   0  0  0  0  0  0  0  0  0  0  0  0
  -28.4101  -24.4637   17.8585 C   0  0  0  0  0  0  0  0  0  0  0  0
  -23.9110  -28.2456   25.0845 C   0  0  0  0  0  0  0  0  0  0  0  0
  -23.6078  -24.8479   24.9825 C   0  0  0  0  0  0  0  0  0  0  0  0
  -29.2414  -16.9977   20.3664 C   0  0  0  0  0  0  0  0  0  0  0  0
  -23.9031  -35.3356   26.0473 C   0  0  0  0  0  0  0  0  0  0  0  0
  -24.1224  -29.8454   21.7665 C   0  0  0  0  0  0  0  0  0  0  0  0
  -25.7173  -27.9255   23.3523 C   0  0  0  0  0  0  0  0  0  0  0  0
  -24.1396  -33.8994   26.5073 C   0  0  0  0  0  0  0  0  0  0  0  0
  -29.8413  -13.6109   19.4462 C   0  0  0  0  0  0  0  0  0  0  0  0
  -25.4475  -33.3636   25.9336 C   0  0  0  0  0  0  0  0  0  0  0  0
  -28.5531  -12.8913   19.8521 C   0  0  0  0  0  0  0  0  0  0  0  0
  -30.2128  -14.7116   20.4382 C   0  0  0  0  0  0  0  0  0  0  0  0
  -27.8592  -14.9640   21.1207 C   0  0  0  0  0  0  0  0  0  0  0  0
  -25.4077  -33.3368   24.4009 C   0  0  1  0  0  0  0  0  0  0  0  0
  -24.1831  -29.9166   23.2892 C   0  0  1  0  0  0  0  0  0  0  0  0
  -27.4093  -13.8898   20.1170 C   0  0  2  0  0  0  0  0  0  0  0  0
  -28.5813  -18.8701   17.9516 C   0  0  0  0  0  0  0  0  0  0  0  0
  -27.0090  -22.2207   22.3912 C   0  0  0  0  0  0  0  0  0  0  0  0
  -27.3130  -19.3746   22.7883 C   0  0  0  0  0  0  0  0  0  0  0  0
  -28.4715  -24.8546   16.3931 C   0  0  0  0  0  0  0  0  0  0  0  0
  -22.5470  -22.9274   26.2007 C   0  0  0  0  0  0  0  0  0  0  0  0
  -30.2919  -23.8678   19.4736 C   0  0  0  0  0  0  0  0  0  0  0  0
  -30.4823  -25.8728   18.0054 C   0  0  0  0  0  0  0  0  0  0  0  0
  -26.0379  -28.4553   27.2621 C   0  0  0  0  0  0  0  0  0  0  0  0
  -25.5531  -26.0749   27.8677 C   0  0  0  0  0  0  0  0  0  0  0  0
  -23.7669  -27.8030   28.0814 C   0  0  0  0  0  0  0  0  0  0  0  0
  -22.0106  -24.0762   22.6134 C   0  0  0  0  0  0  0  0  0  0  0  0
  -27.4948  -23.3819   19.7614 C   0  0  0  0  0  0  0  0  0  0  0  0
  -28.8452  -25.8748   19.9206 C   0  0  0  0  0  0  0  0  0  1  0  0
  -24.4754  -27.0307   25.7806 C   0  0  1  0  0  0  0  0  0  0  0  0
  -22.3936  -23.9417   25.0780 C   0  0  2  0  0  0  0  0  0  0  0  0
  -29.4968  -25.0171   18.8178 C   0  0  0  0  0  0  0  0  0  0  0  0
  -24.9661  -27.3479   27.2214 C   0  0  0  0  0  0  0  0  0  0  0  0
  -26.2454  -12.0593   21.2899 N   0  0  0  0  0  0  0  0  0  0  0  0
  -27.4812  -23.7095   18.3452 N   0  0  0  0  0  0  0  0  0  0  0  0
  -26.1419  -13.1868   20.5659 N   0  0  0  0  0  0  0  0  0  0  0  0
  -24.5514  -28.6381   23.9005 N   0  0  0  0  0  0  0  0  0  0  0  0
  -29.0828  -15.6219   20.6362 N   0  0  0  0  0  0  0  0  0  0  0  0
  -24.5715  -14.6780   19.6066 N   0  0  0  0  0  0  0  0  0  0  0  0
  -21.9726  -11.5674   21.5980 N   0  0  0  0  0  0  0  0  0  0  0  0
  -28.0896  -17.7597   20.5597 N   0  0  0  0  0  0  0  0  0  0  0  0
  -24.6357  -32.2048   23.9351 N   0  0  0  0  0  0  0  0  0  0  0  0
  -23.4404  -26.0046   25.7141 N   0  0  0  0  0  0  0  0  0  0  0  0
  -22.1980  -23.2014   23.7994 N   0  3  0  0  0  0  0  0  0  0  0  0
  -21.9495  -13.4881   20.3454 O   0  0  0  0  0  0  0  0  0  0  0  0
  -26.3236  -30.6025   24.0123 O   0  0  0  0  0  0  0  0  0  0  0  0
  -22.9334  -28.8208   25.5694 O   0  0  0  0  0  0  0  0  0  0  0  0
  -24.6063  -24.5569   24.3278 O   0  0  0  0  0  0  0  0  0  0  0  0
  -30.3121  -17.4611   19.9653 O   0  0  0  0  0  0  0  0  0  0  0  0
  -23.7522   -7.1274   24.4537 O   0  0  0  0  0  0  0  0  0  0  0  0
  -28.5362  -27.1765   19.4241 O   0  0  0  0  0  0  0  0  0  1  0  0
  -19.8234   -3.7907   22.4953 F   0  0  0  0  0  0  0  0  0  0  0  0
  -24.3109   -4.4934   23.8274 F   0  0  0  0  0  0  0  0  0  0  0  0
  1  2  1  0  0  0  0
  1  5  2  0  0  0  0
  2  6  2  0  0  0  0
  3  8  2  0  0  0  0
  3 16  1  0  0  0  0
  4  9  1  0  0  0  0
  4 16  2  0  0  0  0
  5 18  1  0  0  0  0
  6 20  1  0  0  0  0
  7 10  2  0  0  0  0
  7 19  1  0  0  0  0
  8 27  1  0  0  0  0
  9 27  2  0  0  0  0
 10 28  1  0  0  0  0
 11 12  2  0  0  0  0
 11 29  1  0  0  0  0
 12 30  1  0  0  0  0
 13 21  1  0  0  0  0
 13 28  2  0  0  0  0
 14 22  1  0  0  0  0
 14 23  2  0  0  0  0
 15 30  2  0  0  0  0
 15 31  1  0  0  0  0
 16 32  1  0  0  0  0
 17 32  1  0  0  0  0
 17 33  2  0  0  0  0
 17 34  1  0  0  0  0
 18 20  2  0  0  0  0
 18 40  1  0  0  0  0
 19 21  2  0  0  0  0
 19 41  1  0  0  0  0
 20 49  1  0  0  0  0
 21 42  1  0  0  0  0
 22 24  2  0  0  0  0
 22 63  1  0  0  0  0
 23 26  1  0  0  0  0
 23 52  1  0  0  0  0
 24 25  1  0  0  0  0
 24 53  1  0  0  0  0
 25 26  2  0  0  0  0
 25 54  1  0  0  0  0
 26 76  1  0  0  0  0
 27 85  1  0  0  0  0
 28 86  1  0  0  0  0
 29 31  2  0  0  0  0
 29 85  1  0  0  0  0
 30 87  1  0  0  0  0
 31 88  1  0  0  0  0
 32 69  2  0  0  0  0
 33 71  1  0  0  0  0
 33 74  1  0  0  0  0
 34 75  1  0  0  0  0
 34 80  2  0  0  0  0
 35 50  1  0  0  0  0
 35 77  1  0  0  0  0
 35 81  2  0  0  0  0
 36 55  1  0  0  0  0
 36 67  1  0  0  0  0
 36 70  2  0  0  0  0
 37 65  1  0  0  0  0
 37 72  1  0  0  0  0
 37 82  2  0  0  0  0
 38 66  1  0  0  0  0
 38 78  1  0  0  0  0
 38 83  2  0  0  0  0
 39 73  1  0  0  0  0
 39 76  1  0  0  0  0
 39 84  2  0  0  0  0
 40 43  1  0  0  0  0
 41 50  1  0  0  0  0
 42 72  1  0  0  0  0
 43 45  1  0  0  0  0
 44 46  1  0  0  0  0
 44 47  1  0  0  0  0
 45 49  1  0  0  0  0
 46 51  1  0  0  0  0
 47 73  1  0  0  0  0
 48 51  1  0  0  0  0
 48 73  1  0  0  0  0
 49 77  1  0  0  0  0
 50 72  1  0  0  0  0
 51 71  1  0  0  0  0
 56 66  1  0  0  0  0
 57 67  1  0  0  0  0
 58 67  1  0  0  0  0
 59 68  1  0  0  0  0
 60 68  1  0  0  0  0
 61 68  1  0  0  0  0
 62 79  1  0  0  0  0
 63 70  1  0  0  0  0
 64 67  1  0  0  0  0
 64 86  1  0  0  0  0
 65 68  1  0  0  0  0
 65 78  1  0  0  0  0
 66 79  1  0  0  0  0
 69 71  1  0  0  0  0
M  CHG  1  79   1
M  ISO  4  39 100  64 101  76 100  86 101
M  END
> <Batch ID>
0021

> <Smiles>
C=C(NCc1cc(C)c([100NH:0][100C:0](=O)N2CCCC(n3nc(-c4ccc(Oc5ccc(F)cc5F)cc4)c(C(N)=O)c3N)C2)c(C)c1C)C(C)(C)[101CH2:1][101O:1]c1ccc2c(c1)CN(C(=O)C(NC(=O)C(C)NC)C(C)(C)C)C(C(=O)NC1CCCc3ccccc31)C2

> <Shape>
0.308

> <Color>
0.109

> <Negative vol penalty>
0.000

$$$$

  -OEChem-04052316123D

 82 90  0     1  0  0  0  0  0999 V2000
  -24.9643  -26.6567   18.6833 C   0  0  0  0  0  0  0  0  0  0  0  0
  -25.7131  -26.0224   19.6694 C   0  0  0  0  0  0  0  0  0  0  0  0
  -23.0814   -9.8703   19.9276 C   0  0  0  0  0  0  0  0  0  0  0  0
  -23.8498   -9.8572   22.2182 C   0  0  0  0  0  0  0  0  0  0  0  0
  -25.1206  -26.2904   17.3471 C   0  0  0  0  0  0  0  0  0  0  0  0
  -26.6179  -25.0206   19.3200 C   0  0  0  0  0  0  0  0  0  0  0  0
  -31.9992  -23.8258   21.9884 C   0  0  0  0  0  0  0  0  0  0  0  0
  -22.3469   -8.7090   20.1673 C   0  0  0  0  0  0  0  0  0  0  0  0
  -23.1152   -8.6959   22.4579 C   0  0  0  0  0  0  0  0  0  0  0  0
  -32.3847  -22.8851   22.9424 C   0  0  0  0  0  0  0  0  0  0  0  0
  -19.4100   -7.8746   21.6203 C   0  0  0  0  0  0  0  0  0  0  0  0
  -18.1017   -7.8243   21.1393 C   0  0  0  0  0  0  0  0  0  0  0  0
  -33.1379  -21.4176   21.1822 C   0  0  0  0  0  0  0  0  0  0  0  0
  -30.4852  -18.3526   24.1038 C   0  0  0  0  0  0  0  0  0  0  0  0
  -32.0316  -16.6229   22.5549 C   0  0  0  0  0  0  0  0  0  0  0  0
  -18.6706   -5.9002   19.7933 C   0  0  0  0  0  0  0  0  0  0  0  0
  -23.8329  -10.4443   20.9530 C   0  0  0  0  0  0  0  0  0  0  0  0
  -24.1559  -12.9731   20.8601 C   0  0  0  0  0  0  0  0  0  0  0  0
  -26.0348  -25.2902   16.9802 C   0  0  0  0  0  0  0  0  0  0  0  0
  -32.1704  -23.5644   20.6213 C   0  0  0  0  0  0  0  0  0  0  0  0
  -26.7856  -24.6396   17.9778 C   0  0  0  0  0  0  0  0  0  0  0  0
  -32.7560  -22.3577   20.2129 C   0  0  0  0  0  0  0  0  0  0  0  0
  -31.8740  -18.3540   24.2328 C   0  0  0  0  0  0  0  0  0  0  0  0
  -30.6427  -16.6215   22.4259 C   0  0  0  0  0  0  0  0  0  0  0  0
  -22.3638   -8.1218   21.4325 C   0  0  0  0  0  0  0  0  0  0  0  0
  -32.9515  -21.6795   22.5393 C   0  0  0  0  0  0  0  0  0  0  0  0
  -20.3486   -6.9379   21.1878 C   0  0  0  0  0  0  0  0  0  0  0  0
  -32.6472  -17.4892   23.4583 C   0  0  0  0  0  0  0  0  0  0  0  0
  -17.7319   -6.8371   20.2259 C   0  0  0  0  0  0  0  0  0  0  0  0
  -19.9789   -5.9507   20.2743 C   0  0  0  0  0  0  0  0  0  0  0  0
  -29.8695  -17.4863   23.2004 C   0  0  0  0  0  0  0  0  0  0  0  0
  -24.5924  -11.6436   20.7059 C   0  0  0  0  0  0  0  0  0  0  0  0
  -25.2412  -13.7346   20.5012 C   0  0  0  0  0  0  0  0  0  0  0  0
  -22.8833  -13.4749   21.2893 C   0  0  0  0  0  0  0  0  0  0  0  0
  -30.2164  -23.2760   18.1308 C   0  0  0  0  0  0  0  0  0  0  0  0
  -32.9952  -23.0936   16.4673 C   0  0  0  0  0  0  0  0  0  0  0  0
  -36.3302  -22.3696   16.4682 C   0  0  0  0  0  0  0  0  0  0  0  0
  -30.7003  -14.8181   20.6678 C   0  0  0  0  0  0  0  0  0  0  0  0
  -26.1347  -24.8955   15.5280 C   0  0  0  0  0  0  0  0  0  0  0  0
  -31.7738  -24.6007   19.6058 C   0  0  0  0  0  0  0  0  0  0  0  0
  -32.9800  -22.0372   18.7584 C   0  0  0  0  0  0  0  0  0  0  0  0
  -27.3864  -24.0849   15.2018 C   0  0  0  0  0  0  0  0  0  0  0  0
  -29.5947  -12.4228   18.2767 C   0  0  0  0  0  0  0  0  0  0  0  0
  -27.5907  -22.9799   16.2334 C   0  0  0  0  0  0  0  0  0  0  0  0
  -28.1588  -12.1160   18.7082 C   0  0  0  0  0  0  0  0  0  0  0  0
  -30.5126  -12.6449   19.4775 C   0  0  0  0  0  0  0  0  0  0  0  0
  -28.6055  -13.3399   20.8737 C   0  0  0  0  0  0  0  0  0  0  0  0
  -27.7952  -23.5654   17.6359 C   0  0  1  0  0  0  0  0  0  0  0  0
  -31.5222  -24.0140   18.2203 C   0  0  1  0  0  0  0  0  0  0  0  0
  -27.6296  -13.1727   19.6976 C   0  0  2  0  0  0  0  0  0  0  0  0
  -38.3267  -22.2787   14.9506 C   0  0  0  0  0  0  0  0  0  0  0  0
  -31.9567  -20.4904   15.2612 C   0  0  0  0  0  0  0  0  0  0  0  0
  -34.2961  -19.9763   14.5322 C   0  0  0  0  0  0  0  0  0  0  0  0
  -33.1298  -21.9946   13.6438 C   0  0  0  0  0  0  0  0  0  0  0  0
  -37.7757  -24.4059   18.0566 C   0  0  0  0  0  0  0  0  0  0  0  0
  -34.7170  -16.5625   22.7419 C   0  0  0  0  0  0  0  0  0  0  0  0
  -32.5235  -19.2984   25.2149 C   0  0  0  0  0  0  0  0  0  0  0  0
  -32.5886  -20.7280   24.6884 C   0  0  0  0  0  0  0  0  0  1  0  0
  -33.9176  -21.9753   16.0461 C   0  0  1  0  0  0  0  0  0  0  0  0
  -37.5262  -23.1298   15.9240 C   0  0  2  0  0  0  0  0  0  0  0  0
  -33.3192  -21.1141   14.8982 C   0  0  0  0  0  0  0  0  0  0  0  0
  -25.8563  -11.5617   20.2819 N   0  0  0  0  0  0  0  0  0  0  0  0
  -26.2234  -12.8494   20.1666 N   0  0  0  0  0  0  0  0  0  0  0  0
  -32.5699  -23.0798   17.8033 N   0  0  0  0  0  0  0  0  0  0  0  0
  -29.9494  -13.6617   20.3684 N   0  0  0  0  0  0  0  0  0  0  0  0
  -25.4417  -15.0683   20.4424 N   0  0  0  0  0  0  0  0  0  0  0  0
  -21.8793  -12.5546   21.6201 N   0  0  0  0  0  0  0  0  0  0  0  0
  -30.0492  -15.7292   21.4989 N   0  0  0  0  0  0  0  0  0  0  0  0
  -29.1430  -24.0725   17.7803 N   0  0  0  0  0  0  0  0  0  0  0  0
  -35.1949  -22.6004   15.7205 N   0  0  0  0  0  0  0  0  0  0  0  0
  -38.4268  -23.5440   17.0368 N   0  3  0  0  0  0  0  0  0  0  0  0
  -22.6383  -14.7030   21.3613 O   0  0  0  0  0  0  0  0  0  0  0  0
  -30.1853  -22.0729   18.3613 O   0  0  0  0  0  0  0  0  0  0  0  0
  -32.6698  -23.9520   15.6433 O   0  0  0  0  0  0  0  0  0  0  0  0
  -36.3973  -21.6407   17.4555 O   0  0  0  0  0  0  0  0  0  0  0  0
  -31.8264  -15.0003   20.1980 O   0  0  0  0  0  0  0  0  0  0  0  0
  -21.6469   -6.9887   21.6668 O   0  0  0  0  0  0  0  0  0  0  0  0
  -34.0050  -17.4781   23.5716 O   0  0  0  0  0  0  0  0  0  0  0  0
  -33.3281  -20.7593   23.4684 O   0  0  0  0  0  0  0  0  0  1  0  0
  -16.4751   -6.7879   19.7652 F   0  0  0  0  0  0  0  0  0  0  0  0
  -20.8760   -5.0473   19.8560 F   0  0  0  0  0  0  0  0  0  0  0  0
  -28.1468  -17.5170   23.0725 Cl  0  0  0  0  0  0  0  0  0  0  0  0
  1  2  1  0  0  0  0
  1  5  2  0  0  0  0
  2  6  2  0  0  0  0
  3  8  2  0  0  0  0
  3 17  1  0  0  0  0
  4  9  1  0  0  0  0
  4 17  2  0  0  0  0
  5 19  1  0  0  0  0
  6 21  1  0  0  0  0
  7 10  2  0  0  0  0
  7 20  1  0  0  0  0
  8 25  1  0  0  0  0
  9 25  2  0  0  0  0
 10 26  1  0  0  0  0
 11 12  2  0  0  0  0
 11 27  1  0  0  0  0
 12 29  1  0  0  0  0
 13 22  1  0  0  0  0
 13 26  2  0  0  0  0
 14 23  1  0  0  0  0
 14 31  2  0  0  0  0
 15 24  2  0  0  0  0
 15 28  1  0  0  0  0
 16 29  2  0  0  0  0
 16 30  1  0  0  0  0
 17 32  1  0  0  0  0
 18 32  1  0  0  0  0
 18 33  2  0  0  0  0
 18 34  1  0  0  0  0
 19 21  2  0  0  0  0
 19 39  1  0  0  0  0
 20 22  2  0  0  0  0
 20 40  1  0  0  0  0
 21 48  1  0  0  0  0
 22 41  1  0  0  0  0
 23 28  2  0  0  0  0
 23 57  1  0  0  0  0
 24 31  1  0  0  0  0
 24 68  1  0  0  0  0
 25 77  1  0  0  0  0
 26 79  1  0  0  0  0
 27 30  2  0  0  0  0
 27 77  1  0  0  0  0
 28 78  1  0  0  0  0
 29 80  1  0  0  0  0
 30 81  1  0  0  0  0
 31 82  1  0  0  0  0
 32 62  2  0  0  0  0
 33 63  1  0  0  0  0
 33 66  1  0  0  0  0
 34 67  1  0  0  0  0
 34 72  2  0  0  0  0
 35 49  1  0  0  0  0
 35 69  1  0  0  0  0
 35 73  2  0  0  0  0
 36 59  1  0  0  0  0
 36 64  1  0  0  0  0
 36 74  2  0  0  0  0
 37 60  1  0  0  0  0
 37 70  1  0  0  0  0
 37 75  2  0  0  0  0
 38 65  1  0  0  0  0
 38 68  1  0  0  0  0
 38 76  2  0  0  0  0
 39 42  1  0  0  0  0
 40 49  1  0  0  0  0
 41 64  1  0  0  0  0
 42 44  1  0  0  0  0
 43 45  1  0  0  0  0
 43 46  1  0  0  0  0
 44 48  1  0  0  0  0
 45 50  1  0  0  0  0
 46 65  1  0  0  0  0
 47 50  1  0  0  0  0
 47 65  1  0  0  0  0
 48 69  1  0  0  0  0
 49 64  1  0  0  0  0
 50 63  1  0  0  0  0
 51 60  1  0  0  0  0
 52 61  1  0  0  0  0
 53 61  1  0  0  0  0
 54 61  1  0  0  0  0
 55 71  1  0  0  0  0
 56 78  1  0  0  0  0
 57 58  1  0  0  0  0
 58 79  1  0  0  0  0
 59 61  1  0  0  0  0
 59 70  1  0  0  0  0
 60 71  1  0  0  0  0
 62 63  1  0  0  0  0
M  CHG  1  71   1
M  ISO  4  38 100  58 101  68 100  79 101
M  END
> <Batch ID>
0021

> <Smiles>
CNC(C)C(=O)NC(C(=O)N1Cc2cc([101O:1][101CH2:1]Cc3cc(Cl)c([100NH:0][100C:0](=O)N4CCCC(n5nc(-c6ccc(Oc7ccc(F)cc7F)cc6)c(C(N)=O)c5N)C4)cc3OC)ccc2CC1C(=O)NC1CCCc2ccccc21)C(C)(C)C

> <Shape>
0.191

> <Color>
0.197

> <Negative vol penalty>
0.000

$$$$

  -OEChem-04052316123D

 88 96  0     1  0  0  0  0  0999 V2000
  -14.5685  -28.0250   24.5984 C   0  0  0  0  0  0  0  0  0  0  0  0
  -15.2416  -26.9191   24.0891 C   0  0  0  0  0  0  0  0  0  0  0  0
  -29.1494  -23.5402   19.2346 C   0  0  0  0  0  0  0  0  0  0  0  0
  -28.9591  -22.2835   17.1799 C   0  0  0  0  0  0  0  0  0  0  0  0
  -15.1320  -29.2953   24.4859 C   0  0  0  0  0  0  0  0  0  0  0  0
  -16.4783  -27.0831   23.4661 C   0  0  0  0  0  0  0  0  0  0  0  0
  -19.8711  -23.6256   24.9423 C   0  0  0  0  0  0  0  0  0  0  0  0
  -29.7246  -24.5998   18.5332 C   0  0  0  0  0  0  0  0  0  0  0  0
  -29.5343  -23.3432   16.4785 C   0  0  0  0  0  0  0  0  0  0  0  0
  -19.7668  -22.3523   24.3840 C   0  0  0  0  0  0  0  0  0  0  0  0
  -28.6817  -27.1343   16.5529 C   0  0  0  0  0  0  0  0  0  0  0  0
  -28.2237  -28.4217   16.8330 C   0  0  0  0  0  0  0  0  0  0  0  0
  -21.5386  -22.8914   22.8383 C   0  0  0  0  0  0  0  0  0  0  0  0
  -25.9826  -13.7821   20.3613 C   0  0  0  0  0  0  0  0  0  0  0  0
  -30.4521  -29.0677   17.5070 C   0  0  0  0  0  0  0  0  0  0  0  0
  -28.7666  -22.3820   18.5579 C   0  0  0  0  0  0  0  0  0  0  0  0
  -26.8040  -21.0785   19.5359 C   0  0  0  0  0  0  0  0  0  0  0  0
  -16.3807  -29.4737   23.8698 C   0  0  0  0  0  0  0  0  0  0  0  0
  -20.8041  -24.5466   24.4447 C   0  0  0  0  0  0  0  0  0  0  0  0
  -17.0584  -28.3571   23.3440 C   0  0  0  0  0  0  0  0  0  0  0  0
  -21.6546  -24.1749   23.3937 C   0  0  0  0  0  0  0  0  0  0  0  0
  -26.8883  -12.8191   19.9167 C   0  0  0  0  0  0  0  0  0  0  0  0
  -26.6631  -11.4702   20.1915 C   0  0  0  0  0  0  0  0  0  0  0  0
  -24.6264  -12.0476   21.3559 C   0  0  0  0  0  0  0  0  0  0  0  0
  -24.8517  -13.3964   21.0810 C   0  0  0  0  0  0  0  0  0  0  0  0
  -29.9171  -24.5013   17.1552 C   0  0  0  0  0  0  0  0  0  0  0  0
  -20.5987  -21.9860   23.3300 C   0  0  0  0  0  0  0  0  0  0  0  0
  -30.0249  -26.8136   16.7498 C   0  0  0  0  0  0  0  0  0  0  0  0
  -29.1089  -29.3884   17.3100 C   0  0  0  0  0  0  0  0  0  0  0  0
  -30.9100  -27.7803   17.2269 C   0  0  0  0  0  0  0  0  0  0  0  0
  -25.5321  -11.0845   20.9111 C   0  0  0  0  0  0  0  0  0  0  0  0
  -28.1729  -21.2869   19.2819 C   0  0  0  0  0  0  0  0  0  0  0  0
  -26.7622  -19.9087   20.2543 C   0  0  0  0  0  0  0  0  0  0  0  0
  -25.6714  -21.8715   19.1563 C   0  0  0  0  0  0  0  0  0  0  0  0
  -20.6191  -27.4080   23.0727 C   0  0  0  0  0  0  0  0  0  0  0  0
  -23.8517  -27.3046   23.3207 C   0  0  0  0  0  0  0  0  0  0  0  0
  -24.0355  -15.7667   21.3230 C   0  0  0  0  0  0  0  0  0  0  0  0
  -26.6779  -25.4104   23.5882 C   0  0  0  0  0  0  0  0  0  0  0  0
  -29.4198  -14.7770   20.5969 C   0  0  0  0  0  0  0  0  0  0  0  0
  -16.9278  -30.8721   23.7296 C   0  0  0  0  0  0  0  0  0  0  0  0
  -20.9224  -25.9070   25.0755 C   0  0  0  0  0  0  0  0  0  0  0  0
  -22.6866  -25.1198   22.8366 C   0  0  0  0  0  0  0  0  0  0  0  0
  -18.4152  -30.9129   23.3885 C   0  0  0  0  0  0  0  0  0  0  0  0
  -30.0227  -17.3664   22.9651 C   0  0  0  0  0  0  0  0  0  0  0  0
  -18.7322  -29.9316   22.2645 C   0  0  0  0  0  0  0  0  0  0  0  0
  -29.4799  -18.6219   22.2803 C   0  0  0  0  0  0  0  0  0  0  0  0
  -30.6767  -16.4159   21.9646 C   0  0  0  0  0  0  0  0  0  0  0  0
  -29.2846  -17.2994   20.1329 C   0  0  0  0  0  0  0  0  0  0  0  0
  -18.4133  -28.4913   22.6834 C   0  0  1  0  0  0  0  0  0  0  0  0
  -21.5563  -26.9414   24.1505 C   0  0  1  0  0  0  0  0  0  0  0  0
  -28.5662  -18.2627   21.0932 C   0  0  2  0  0  0  0  0  0  0  0  0
  -27.6494  -10.4539   19.7049 C   0  0  0  0  0  0  0  0  0  0  0  0
  -23.4072  -11.6503   22.1314 C   0  0  0  0  0  0  0  0  0  0  0  0
  -29.1754  -25.6079   23.7326 C   0  0  0  0  0  0  0  0  0  0  0  0
  -23.9751  -27.9003   20.3307 C   0  0  0  0  0  0  0  0  0  0  0  0
  -26.3647  -27.1535   20.3514 C   0  0  0  0  0  0  0  0  0  0  0  0
  -25.6643  -29.1255   21.7091 C   0  0  0  0  0  0  0  0  0  0  0  0
  -26.7426  -24.1154   26.2486 C   0  0  0  0  0  0  0  0  0  0  0  0
  -28.0914  -13.2611   19.1490 C   0  0  0  0  0  0  0  0  0  0  0  0
  -22.8497  -16.4776   21.9636 C   0  0  0  0  0  0  0  0  0  0  0  0
  -22.8710  -17.9957   21.7902 C   0  0  0  0  0  0  0  0  0  0  0  0
  -21.6296  -18.6663   22.3797 C   0  0  0  0  0  0  0  0  0  0  0  0
  -21.6869  -20.1803   22.2295 C   0  0  0  0  0  0  0  0  0  1  0  0
  -24.9758  -26.8067   22.4446 C   0  0  1  0  0  0  0  0  0  0  0  0
  -27.8752  -25.5129   24.5158 C   0  0  2  0  0  0  0  0  0  0  0  0
  -25.2243  -27.7291   21.2180 C   0  0  0  0  0  0  0  0  0  0  0  0
  -28.9449  -20.3265   19.7973 N   0  0  0  0  0  0  0  0  0  0  0  0
  -28.0582  -19.5034   20.3823 N   0  0  0  0  0  0  0  0  0  0  0  0
  -22.7594  -26.4406   23.4827 N   0  0  0  0  0  0  0  0  0  0  0  0
  -29.7574  -16.1139   20.8648 N   0  0  0  0  0  0  0  0  0  0  0  0
  -25.7438  -19.1974   20.7828 N   0  0  0  0  0  0  0  0  0  0  0  0
  -25.8928  -23.0433   18.4200 N   0  0  0  0  0  0  0  0  0  0  0  0
  -23.9471  -14.3917   21.5217 N   0  0  0  0  0  0  0  0  0  0  0  0
  -19.4521  -27.9747   23.5485 N   0  0  0  0  0  0  0  0  0  0  0  0
  -26.1340  -26.6482   23.3174 N   0  0  0  0  0  0  0  0  0  0  0  0
  -28.5377  -14.5792   19.5417 N   0  0  0  0  0  0  0  0  0  0  0  0
  -27.9471  -24.3176   25.4029 N   0  3  0  0  0  0  0  0  0  0  0  0
  -24.4991  -21.5592   19.4752 O   0  0  0  0  0  0  0  0  0  0  0  0
  -20.9322  -27.2657   21.8965 O   0  0  0  0  0  0  0  0  0  0  0  0
  -23.9428  -28.4162   23.8478 O   0  0  0  0  0  0  0  0  0  0  0  0
  -24.9061  -16.3748   20.7092 O   0  0  0  0  0  0  0  0  0  0  0  0
  -26.2684  -24.3396   23.1450 O   0  0  0  0  0  0  0  0  0  0  0  0
  -29.8670  -13.8302   21.2531 O   0  0  0  0  0  0  0  0  0  0  0  0
  -30.4782  -25.5352   16.4705 O   0  0  0  0  0  0  0  0  0  0  0  0
  -20.4985  -20.7441   22.7829 O   0  0  0  0  0  0  0  0  0  1  0  0
  -28.6693  -30.6250   17.5776 F   0  0  0  0  0  0  0  0  0  0  0  0
  -32.2018  -27.4784   17.4169 F   0  0  0  0  0  0  0  0  0  0  0  0
  -25.2527   -9.4081   21.2514 Cl  0  0  0  0  0  0  0  0  0  0  0  0
  1  2  1  0  0  0  0
  1  5  2  0  0  0  0
  2  6  2  0  0  0  0
  3  8  2  0  0  0  0
  3 16  1  0  0  0  0
  4  9  1  0  0  0  0
  4 16  2  0  0  0  0
  5 18  1  0  0  0  0
  6 20  1  0  0  0  0
  7 10  2  0  0  0  0
  7 19  1  0  0  0  0
  8 26  1  0  0  0  0
  9 26  2  0  0  0  0
 10 27  1  0  0  0  0
 11 12  2  0  0  0  0
 11 28  1  0  0  0  0
 12 29  1  0  0  0  0
 13 21  1  0  0  0  0
 13 27  2  0  0  0  0
 14 22  2  0  0  0  0
 14 25  1  0  0  0  0
 15 29  2  0  0  0  0
 15 30  1  0  0  0  0
 16 32  1  0  0  0  0
 17 32  1  0  0  0  0
 17 33  2  0  0  0  0
 17 34  1  0  0  0  0
 18 20  2  0  0  0  0
 18 40  1  0  0  0  0
 19 21  2  0  0  0  0
 19 41  1  0  0  0  0
 20 49  1  0  0  0  0
 21 42  1  0  0  0  0
 22 23  1  0  0  0  0
 22 59  1  0  0  0  0
 23 31  2  0  0  0  0
 23 52  1  0  0  0  0
 24 25  2  0  0  0  0
 24 31  1  0  0  0  0
 24 53  1  0  0  0  0
 25 73  1  0  0  0  0
 26 84  1  0  0  0  0
 27 85  1  0  0  0  0
 28 30  2  0  0  0  0
 28 84  1  0  0  0  0
 29 86  1  0  0  0  0
 30 87  1  0  0  0  0
 31 88  1  0  0  0  0
 32 67  2  0  0  0  0
 33 68  1  0  0  0  0
 33 71  1  0  0  0  0
 34 72  1  0  0  0  0
 34 78  2  0  0  0  0
 35 50  1  0  0  0  0
 35 74  1  0  0  0  0
 35 79  2  0  0  0  0
 36 64  1  0  0  0  0
 36 69  1  0  0  0  0
 36 80  2  0  0  0  0
 37 60  1  0  0  0  0
 37 73  1  0  0  0  0
 37 81  2  0  0  0  0
 38 65  1  0  0  0  0
 38 75  1  0  0  0  0
 38 82  2  0  0  0  0
 39 70  1  0  0  0  0
 39 76  1  0  0  0  0
 39 83  2  0  0  0  0
 40 43  1  0  0  0  0
 41 50  1  0  0  0  0
 42 69  1  0  0  0  0
 43 45  1  0  0  0  0
 44 46  1  0  0  0  0
 44 47  1  0  0  0  0
 45 49  1  0  0  0  0
 46 51  1  0  0  0  0
 47 70  1  0  0  0  0
 48 51  1  0  0  0  0
 48 70  1  0  0  0  0
 49 74  1  0  0  0  0
 50 69  1  0  0  0  0
 51 68  1  0  0  0  0
 54 65  1  0  0  0  0
 55 66  1  0  0  0  0
 56 66  1  0  0  0  0
 57 66  1  0  0  0  0
 58 77  1  0  0  0  0
 59 76  1  0  0  0  0
 60 61  1  0  0  0  0
 61 62  1  0  0  0  0
 62 63  1  0  0  0  0
 63 85  1  0  0  0  0
 64 66  1  0  0  0  0
 64 75  1  0  0  0  0
 65 77  1  0  0  0  0
 67 68  1  0  0  0  0
M  CHG  1  77   1
M  ISO  4  39 100  63 101  76 100  85 101
M  END
> <Batch ID>
0021

> <Smiles>
CNC(C)C(=O)NC(C(=O)N1Cc2cc([101O:1][101CH2:1]CCCC(=O)Nc3cc(C[100NH:0][100C:0](=O)N4CCCC(n5nc(-c6ccc(Oc7ccc(F)cc7F)cc6)c(C(N)=O)c5N)C4)c(C)c(Cl)c3C)ccc2CC1C(=O)NC1CCCc2ccccc21)C(C)(C)C

> <Shape>
0.234

> <Color>
0.058

> <Negative vol penalty>
0.000

$$$$

  -OEChem-04052316123D

 86 94  0     1  0  0  0  0  0999 V2000
  -27.3653  -33.4952   20.3934 C   0  0  0  0  0  0  0  0  0  0  0  0
  -28.2773  -32.6661   21.0386 C   0  0  0  0  0  0  0  0  0  0  0  0
  -23.2444   -9.6345   20.0433 C   0  0  0  0  0  0  0  0  0  0  0  0
  -23.8479   -9.9163   22.3656 C   0  0  0  0  0  0  0  0  0  0  0  0
  -26.0408  -33.0874   20.2410 C   0  0  0  0  0  0  0  0  0  0  0  0
  -27.8649  -31.4291   21.5328 C   0  0  0  0  0  0  0  0  0  0  0  0
  -30.2690  -24.7694   22.6214 C   0  0  0  0  0  0  0  0  0  0  0  0
  -22.5540   -8.4659   20.3645 C   0  0  0  0  0  0  0  0  0  0  0  0
  -23.1575   -8.7477   22.6869 C   0  0  0  0  0  0  0  0  0  0  0  0
  -30.3658  -23.8105   23.6289 C   0  0  0  0  0  0  0  0  0  0  0  0
  -21.2507   -6.0328   24.1741 C   0  0  0  0  0  0  0  0  0  0  0  0
  -20.4218   -6.0559   25.2957 C   0  0  0  0  0  0  0  0  0  0  0  0
  -28.0713  -23.1767   23.2378 C   0  0  0  0  0  0  0  0  0  0  0  0
  -30.9663  -19.9173   22.4522 C   0  0  0  0  0  0  0  0  0  0  0  0
  -19.1180   -7.8271   24.2957 C   0  0  0  0  0  0  0  0  0  0  0  0
  -23.8914  -10.3597   21.0438 C   0  0  0  0  0  0  0  0  0  0  0  0
  -24.0928  -12.8776   20.6869 C   0  0  0  0  0  0  0  0  0  0  0  0
  -25.6143  -31.8407   20.7250 C   0  0  0  0  0  0  0  0  0  0  0  0
  -29.0672  -24.9469   21.9209 C   0  0  0  0  0  0  0  0  0  0  0  0
  -26.5331  -31.0048   21.3879 C   0  0  0  0  0  0  0  0  0  0  0  0
  -27.9626  -24.1368   22.2202 C   0  0  0  0  0  0  0  0  0  0  0  0
  -30.5947  -19.0075   23.4420 C   0  0  0  0  0  0  0  0  0  0  0  0
  -30.9445  -19.5359   21.1106 C   0  0  0  0  0  0  0  0  0  0  0  0
  -30.2014  -17.7162   23.0903 C   0  0  0  0  0  0  0  0  0  0  0  0
  -30.5512  -18.2447   20.7589 C   0  0  0  0  0  0  0  0  0  0  0  0
  -30.1797  -17.3348   21.7487 C   0  0  0  0  0  0  0  0  0  0  0  0
  -22.5105   -8.0225   21.6863 C   0  0  0  0  0  0  0  0  0  0  0  0
  -29.2660  -23.0159   23.9392 C   0  0  0  0  0  0  0  0  0  0  0  0
  -21.0133   -6.9069   23.1133 C   0  0  0  0  0  0  0  0  0  0  0  0
  -19.3555   -6.9530   25.3565 C   0  0  0  0  0  0  0  0  0  0  0  0
  -19.9470   -7.8041   23.1741 C   0  0  0  0  0  0  0  0  0  0  0  0
  -24.6053  -11.5667   20.7126 C   0  0  0  0  0  0  0  0  0  0  0  0
  -25.1612  -13.6568   20.3156 C   0  0  0  0  0  0  0  0  0  0  0  0
  -22.7693  -13.3489   20.9732 C   0  0  0  0  0  0  0  0  0  0  0  0
  -27.0119  -27.3453   21.5643 C   0  0  0  0  0  0  0  0  0  0  0  0
  -25.6271  -25.3274   19.4352 C   0  0  0  0  0  0  0  0  0  0  0  0
  -25.1358  -22.1188   18.3816 C   0  0  0  0  0  0  0  0  0  0  0  0
  -30.5333  -15.0659   20.7127 C   0  0  0  0  0  0  0  0  0  0  0  0
  -24.1613  -31.4635   20.5785 C   0  0  0  0  0  0  0  0  0  0  0  0
  -28.9871  -25.9674   20.8188 C   0  0  0  0  0  0  0  0  0  0  0  0
  -26.6559  -24.2739   21.4839 C   0  0  0  0  0  0  0  0  0  0  0  0
  -23.8926  -29.9771   20.7993 C   0  0  0  0  0  0  0  0  0  0  0  0
  -29.7219  -12.3637   18.5409 C   0  0  0  0  0  0  0  0  0  0  0  0
  -24.6108  -29.4852   22.0519 C   0  0  0  0  0  0  0  0  0  0  0  0
  -28.2763  -12.0233   18.9102 C   0  0  0  0  0  0  0  0  0  0  0  0
  -30.5399  -12.7684   19.7660 C   0  0  0  0  0  0  0  0  0  0  0  0
  -28.5061  -13.5004   20.9479 C   0  0  0  0  0  0  0  0  0  0  0  0
  -26.1298  -29.6451   21.9157 C   0  0  1  0  0  0  0  0  0  0  0  0
  -27.5591  -26.4135   20.5202 C   0  0  1  0  0  0  0  0  0  0  0  0
  -27.6258  -13.1495   19.7373 C   0  0  2  0  0  0  0  0  0  0  0  0
  -29.8032  -16.7458   24.1582 C   0  0  0  0  0  0  0  0  0  0  0  0
  -30.5316  -17.8423   19.3171 C   0  0  0  0  0  0  0  0  0  0  0  0
  -24.3460  -20.2467   16.9089 C   0  0  0  0  0  0  0  0  0  0  0  0
  -32.5611  -20.1391   19.1823 C   0  0  0  0  0  0  0  0  0  0  0  0
  -31.6747  -21.9200   20.6787 C   0  0  0  0  0  0  0  0  0  0  0  0
  -23.0100  -25.7219   20.9534 C   0  0  0  0  0  0  0  0  0  0  0  0
  -22.1122  -23.6929   19.7935 C   0  0  0  0  0  0  0  0  0  0  0  0
  -22.7778  -25.6956   18.4635 C   0  0  0  0  0  0  0  0  0  0  0  0
  -27.5934  -22.2217   16.7357 C   0  0  0  0  0  0  0  0  0  0  0  0
  -30.6284  -19.4454   24.8844 C   0  0  0  0  0  0  0  0  0  0  0  0
  -29.2467  -19.7462   25.4692 C   0  0  0  0  0  0  0  0  0  0  0  0
  -28.5442  -20.9150   24.7881 C   0  0  0  0  0  0  0  0  0  1  0  0
  -24.5695  -24.2529   19.5126 C   0  0  1  0  0  0  0  0  0  0  0  0
  -25.2214  -21.4866   17.0041 C   0  0  2  0  0  0  0  0  0  0  0  0
  -31.3464  -20.5299   20.0705 C   0  0  0  0  0  0  0  0  0  0  0  0
  -23.1413  -24.8393   19.6961 C   0  0  0  0  0  0  0  0  0  0  0  0
  -25.8987  -11.5122   20.3836 N   0  0  0  0  0  0  0  0  0  0  0  0
  -26.2078  -12.7986   20.1476 N   0  0  0  0  0  0  0  0  0  0  0  0
  -26.6254  -25.2901   20.4190 N   0  0  0  0  0  0  0  0  0  0  0  0
  -29.8646  -13.8422   20.4978 N   0  0  0  0  0  0  0  0  0  0  0  0
  -25.2980  -14.9854   20.1195 N   0  0  0  0  0  0  0  0  0  0  0  0
  -21.7918  -12.4138   21.3399 N   0  0  0  0  0  0  0  0  0  0  0  0
  -29.7800  -16.0232   21.3915 N   0  0  0  0  0  0  0  0  0  0  0  0
  -26.6757  -28.5957   21.0819 N   0  0  0  0  0  0  0  0  0  0  0  0
  -24.7303  -23.4350   18.3153 N   0  0  0  0  0  0  0  0  0  0  0  0
  -26.6267  -21.0942   16.7006 N   0  3  0  0  0  0  0  0  0  0  0  0
  -22.4584  -14.5613   20.8898 O   0  0  0  0  0  0  0  0  0  0  0  0
  -26.9014  -26.9578   22.7216 O   0  0  0  0  0  0  0  0  0  0  0  0
  -25.5736  -26.1646   18.5309 O   0  0  0  0  0  0  0  0  0  0  0  0
  -25.3986  -21.5052   19.4136 O   0  0  0  0  0  0  0  0  0  0  0  0
  -31.6793  -15.2605   20.2995 O   0  0  0  0  0  0  0  0  0  0  0  0
  -21.8367   -6.8823   22.0001 O   0  0  0  0  0  0  0  0  0  0  0  0
  -29.3576  -22.0797   24.9225 O   0  0  0  0  0  0  0  0  0  1  0  0
  -18.5587   -6.9740   26.4330 F   0  0  0  0  0  0  0  0  0  0  0  0
  -19.7132   -8.6455   22.1576 F   0  0  0  0  0  0  0  0  0  0  0  0
  -29.9635  -20.7697   18.9070 Cl  0  0  0  0  0  0  0  0  0  0  0  0
  1  2  1  0  0  0  0
  1  5  2  0  0  0  0
  2  6  2  0  0  0  0
  3  8  2  0  0  0  0
  3 16  1  0  0  0  0
  4  9  1  0  0  0  0
  4 16  2  0  0  0  0
  5 18  1  0  0  0  0
  6 20  1  0  0  0  0
  7 10  2  0  0  0  0
  7 19  1  0  0  0  0
  8 27  1  0  0  0  0
  9 27  2  0  0  0  0
 10 28  1  0  0  0  0
 11 12  2  0  0  0  0
 11 29  1  0  0  0  0
 12 30  1  0  0  0  0
 13 21  1  0  0  0  0
 13 28  2  0  0  0  0
 14 22  1  0  0  0  0
 14 23  2  0  0  0  0
 15 30  2  0  0  0  0
 15 31  1  0  0  0  0
 16 32  1  0  0  0  0
 17 32  1  0  0  0  0
 17 33  2  0  0  0  0
 17 34  1  0  0  0  0
 18 20  2  0  0  0  0
 18 39  1  0  0  0  0
 19 21  2  0  0  0  0
 19 40  1  0  0  0  0
 20 48  1  0  0  0  0
 21 41  1  0  0  0  0
 22 24  2  0  0  0  0
 22 60  1  0  0  0  0
 23 25  1  0  0  0  0
 23 65  1  0  0  0  0
 24 26  1  0  0  0  0
 24 51  1  0  0  0  0
 25 26  2  0  0  0  0
 25 52  1  0  0  0  0
 26 73  1  0  0  0  0
 27 82  1  0  0  0  0
 28 83  1  0  0  0  0
 29 31  2  0  0  0  0
 29 82  1  0  0  0  0
 30 84  1  0  0  0  0
 31 85  1  0  0  0  0
 32 67  2  0  0  0  0
 33 68  1  0  0  0  0
 33 71  1  0  0  0  0
 34 72  1  0  0  0  0
 34 77  2  0  0  0  0
 35 49  1  0  0  0  0
 35 74  1  0  0  0  0
 35 78  2  0  0  0  0
 36 63  1  0  0  0  0
 36 69  1  0  0  0  0
 36 79  2  0  0  0  0
 37 64  1  0  0  0  0
 37 75  1  0  0  0  0
 37 80  2  0  0  0  0
 38 70  1  0  0  0  0
 38 73  1  0  0  0  0
 38 81  2  0  0  0  0
 39 42  1  0  0  0  0
 40 49  1  0  0  0  0
 41 69  1  0  0  0  0
 42 44  1  0  0  0  0
 43 45  1  0  0  0  0
 43 46  1  0  0  0  0
 44 48  1  0  0  0  0
 45 50  1  0  0  0  0
 46 70  1  0  0  0  0
 47 50  1  0  0  0  0
 47 70  1  0  0  0  0
 48 74  1  0  0  0  0
 49 69  1  0  0  0  0
 50 68  1  0  0  0  0
 53 64  1  0  0  0  0
 54 65  1  0  0  0  0
 55 65  1  0  0  0  0
 56 66  1  0  0  0  0
 57 66  1  0  0  0  0
 58 66  1  0  0  0  0
 59 76  1  0  0  0  0
 60 61  1  0  0  0  0
 61 62  1  0  0  0  0
 62 83  1  0  0  0  0
 63 66  1  0  0  0  0
 63 75  1  0  0  0  0
 64 76  1  0  0  0  0
 65 86  1  0  0  0  0
 67 68  1  0  0  0  0
M  CHG  1  76   1
M  ISO  4  38 100  62 101  73 100  83 101
M  END
> <Batch ID>
0021

> <Smiles>
CNC(C)C(=O)NC(C(=O)N1Cc2cc([101O:1][101CH2:1]CCc3cc(C(C)(C)Cl)c(C)c([100NH:0][100C:0](=O)N4CCCC(n5nc(-c6ccc(Oc7ccc(F)cc7F)cc6)c(C(N)=O)c5N)C4)c3C)ccc2CC1C(=O)NC1CCCc2ccccc21)C(C)(C)C

> <Shape>
0.252

> <Color>
0.196

> <Negative vol penalty>
0.000

$$$$

  -OEChem-04052316122D

  0  0  0     0  0  0  0  0  0999 V2000
M  END
$$$$

  -OEChem-04052316123D

 85 94  0     1  0  0  0  0  0999 V2000
  -28.4552  -20.2633   36.4210 C   0  0  0  0  0  0  0  0  0  0  0  0
  -27.7904  -19.7284   35.3222 C   0  0  0  0  0  0  0  0  0  0  0  0
  -22.9986   -9.8897   20.0028 C   0  0  0  0  0  0  0  0  0  0  0  0
  -23.8178   -9.9320   22.2752 C   0  0  0  0  0  0  0  0  0  0  0  0
  -28.6182  -21.6435   36.5317 C   0  0  0  0  0  0  0  0  0  0  0  0
  -27.2871  -20.5737   34.3340 C   0  0  0  0  0  0  0  0  0  0  0  0
  -29.4155  -19.9460   27.4807 C   0  0  0  0  0  0  0  0  0  0  0  0
  -22.2582   -8.7433   20.2910 C   0  0  0  0  0  0  0  0  0  0  0  0
  -23.0773   -8.7856   22.5635 C   0  0  0  0  0  0  0  0  0  0  0  0
  -29.6136  -19.7524   26.1135 C   0  0  0  0  0  0  0  0  0  0  0  0
  -23.3441   -5.4539   22.0541 C   0  0  0  0  0  0  0  0  0  0  0  0
  -23.9751   -4.4386   22.7727 C   0  0  0  0  0  0  0  0  0  0  0  0
  -28.2321  -21.6774   25.6299 C   0  0  0  0  0  0  0  0  0  0  0  0
  -22.3191   -4.6460   24.5197 C   0  0  0  0  0  0  0  0  0  0  0  0
  -23.7785  -10.4840   20.9949 C   0  0  0  0  0  0  0  0  0  0  0  0
  -24.1244  -13.0057   20.8241 C   0  0  0  0  0  0  0  0  0  0  0  0
  -28.1251  -22.5055   35.5395 C   0  0  0  0  0  0  0  0  0  0  0  0
  -28.6366  -21.0164   27.9288 C   0  0  0  0  0  0  0  0  0  0  0  0
  -27.4424  -21.9669   34.4322 C   0  0  0  0  0  0  0  0  0  0  0  0
  -28.0403  -21.8837   26.9986 C   0  0  0  0  0  0  0  0  0  0  0  0
  -22.2975   -8.1913   21.5714 C   0  0  0  0  0  0  0  0  0  0  0  0
  -29.0232  -20.6159   25.1904 C   0  0  0  0  0  0  0  0  0  0  0  0
  -22.2006   -6.0654   22.5682 C   0  0  0  0  0  0  0  0  0  0  0  0
  -23.4626   -4.0346   24.0055 C   0  0  0  0  0  0  0  0  0  0  0  0
  -21.6881   -5.6614   23.8010 C   0  0  0  0  0  0  0  0  0  0  0  0
  -24.5441  -11.6679   20.6975 C   0  0  0  0  0  0  0  0  0  0  0  0
  -30.4804  -19.6080   21.3261 C   0  0  0  0  0  0  0  0  0  0  0  0
  -31.7063  -18.9859   21.2144 C   0  0  0  0  0  0  0  0  0  0  0  0
  -25.2089  -13.7455   20.4203 C   0  0  0  0  0  0  0  0  0  0  0  0
  -30.4196  -17.2396   20.8904 C   0  0  0  0  0  0  0  0  0  0  0  0
  -22.8667  -13.5326   21.2672 C   0  0  0  0  0  0  0  0  0  0  0  0
  -27.2194  -22.8820   30.8592 C   0  0  0  0  0  0  0  0  0  0  0  0
  -28.1144  -24.9846   28.8127 C   0  0  0  0  0  0  0  0  0  0  0  0
  -29.6111  -26.9811   26.4865 C   0  0  0  0  0  0  0  0  0  0  0  0
  -30.6808  -14.7756   20.4360 C   0  0  0  0  0  0  0  0  0  0  0  0
  -28.2840  -23.9937   35.7263 C   0  0  0  0  0  0  0  0  0  0  0  0
  -28.3458  -21.2269   29.3900 C   0  0  0  0  0  0  0  0  0  0  0  0
  -27.1820  -23.0012   27.5253 C   0  0  0  0  0  0  0  0  0  0  0  0
  -28.0495  -24.7963   34.4492 C   0  0  0  0  0  0  0  0  0  0  0  0
  -29.4982  -12.3268   18.1376 C   0  0  0  0  0  0  0  0  0  0  0  0
  -26.7834  -24.3202   33.7443 C   0  0  0  0  0  0  0  0  0  0  0  0
  -28.8381  -21.6215   21.1962 C   0  0  0  0  0  0  0  0  0  0  0  0
  -28.0694  -12.0472   18.6091 C   0  0  0  0  0  0  0  0  0  0  0  0
  -28.8442  -22.4873   22.4667 C   0  0  0  0  0  0  0  0  0  0  0  0
  -30.4449  -12.5723   19.3112 C   0  0  0  0  0  0  0  0  0  0  0  0
  -28.5766  -13.3258   20.7293 C   0  0  0  0  0  0  0  0  0  0  0  0
  -26.9040  -22.8495   33.3271 C   0  0  1  0  0  0  0  0  0  0  0  0
  -30.2496  -21.1044   21.6018 C   0  0  1  0  0  0  0  0  0  0  0  0
  -28.2452  -22.7132   29.7773 C   0  0  1  0  0  0  0  0  0  0  0  0
  -27.5730  -13.1364   19.5801 C   0  0  2  0  0  0  0  0  0  0  0  0
  -29.8487  -21.4719   23.0793 C   0  0  1  0  0  0  0  0  0  1  0  0
  -33.0270  -19.6363   21.3373 C   0  0  0  0  0  0  0  0  0  0  0  0
  -30.0476  -29.3931   25.9489 C   0  0  0  0  0  0  0  0  0  0  0  0
  -25.2196  -25.3024   27.9053 C   0  0  0  0  0  0  0  0  0  0  0  0
  -25.9347  -27.2867   26.5565 C   0  0  0  0  0  0  0  0  0  0  0  0
  -26.1848  -27.3122   29.0383 C   0  0  0  0  0  0  0  0  0  0  0  0
  -32.5432  -26.5967   26.6032 C   0  0  0  0  0  0  0  0  0  0  0  0
  -27.7266  -25.8654   27.6521 C   0  0  1  0  0  0  0  0  0  0  0  0
  -30.5802  -28.1409   26.6280 C   0  0  2  0  0  0  0  0  0  0  0  0
  -30.9558  -22.1140   23.9022 C   0  0  0  0  0  0  0  0  0  0  0  0
  -26.2786  -26.4163   27.7840 C   0  0  0  0  0  0  0  0  0  0  0  0
  -25.7973  -11.5610   20.2483 N   0  0  0  0  0  0  0  0  0  0  0  0
  -31.6734  -17.6278   20.9650 N   0  0  0  0  0  0  0  0  0  0  0  0
  -26.1745  -12.8410   20.0889 N   0  0  0  0  0  0  0  0  0  0  0  0
  -27.8249  -23.6197   28.6953 N   0  0  0  0  0  0  0  0  0  0  0  0
  -29.9119  -13.6193   20.1856 N   0  0  0  0  0  0  0  0  0  0  0  0
  -25.4212  -15.0748   20.3197 N   0  0  0  0  0  0  0  0  0  0  0  0
  -21.8612  -12.6325   21.6456 N   0  0  0  0  0  0  0  0  0  0  0  0
  -29.9308  -15.9320   20.6478 N   0  0  0  0  0  0  0  0  0  0  0  0
  -27.7197  -22.7268   32.1380 N   0  0  0  0  0  0  0  0  0  0  0  0
  -28.7530  -26.8983   27.5627 N   0  0  0  0  0  0  0  0  0  0  0  0
  -31.8938  -27.7961   26.0144 N   0  3  0  0  0  0  0  0  0  0  0  0
  -22.6355  -14.7647   21.3102 O   0  0  0  0  0  0  0  0  0  0  0  0
  -26.0591  -23.1359   30.5575 O   0  0  0  0  0  0  0  0  0  0  0  0
  -28.6543  -25.4911   29.8002 O   0  0  0  0  0  0  0  0  0  0  0  0
  -29.6124  -26.2264   25.5164 O   0  0  0  0  0  0  0  0  0  0  0  0
  -31.9142  -14.7478   20.4337 O   0  0  0  0  0  0  0  0  0  0  0  0
  -21.5749   -7.0728   21.8531 O   0  0  0  0  0  0  0  0  0  0  0  0
  -29.2244  -20.4238   23.8572 O   0  0  0  0  0  0  0  0  0  1  0  0
  -24.0677   -3.0585   24.6949 F   0  0  0  0  0  0  0  0  0  0  0  0
  -20.5892   -6.2443   24.2995 F   0  0  0  0  0  0  0  0  0  0  0  0
  -30.4228  -22.8027   24.9258 F   0  0  0  0  0  0  0  0  0  0  0  0
  -31.6689  -22.9530   23.1314 F   0  0  0  0  0  0  0  0  0  0  0  0
  -31.7720  -21.1634   24.3890 F   0  0  0  0  0  0  0  0  0  0  0  0
  -29.2288  -18.4556   21.1099 S   0  0  0  0  0  0  0  0  0  0  0  0
  1  2  1  0  0  0  0
  1  5  2  0  0  0  0
  2  6  2  0  0  0  0
  3  8  2  0  0  0  0
  3 15  1  0  0  0  0
  4  9  1  0  0  0  0
  4 15  2  0  0  0  0
  5 17  1  0  0  0  0
  6 19  1  0  0  0  0
  7 10  2  0  0  0  0
  7 18  1  0  0  0  0
  8 21  1  0  0  0  0
  9 21  2  0  0  0  0
 10 22  1  0  0  0  0
 11 12  2  0  0  0  0
 11 23  1  0  0  0  0
 12 24  1  0  0  0  0
 13 20  1  0  0  0  0
 13 22  2  0  0  0  0
 14 24  2  0  0  0  0
 14 25  1  0  0  0  0
 15 26  1  0  0  0  0
 16 26  1  0  0  0  0
 16 29  2  0  0  0  0
 16 31  1  0  0  0  0
 17 19  2  0  0  0  0
 17 36  1  0  0  0  0
 18 20  2  0  0  0  0
 18 37  1  0  0  0  0
 19 47  1  0  0  0  0
 20 38  1  0  0  0  0
 21 78  1  0  0  0  0
 22 79  1  0  0  0  0
 23 25  2  0  0  0  0
 23 78  1  0  0  0  0
 24 80  1  0  0  0  0
 25 81  1  0  0  0  0
 26 62  2  0  0  0  0
 27 28  2  0  0  0  0
 27 48  1  0  0  0  0
 27 85  1  0  0  0  0
 28 52  1  0  0  0  0
 28 63  1  0  0  0  0
 29 64  1  0  0  0  0
 29 67  1  0  0  0  0
 30 63  2  0  0  0  0
 30 69  1  0  0  0  0
 30 85  1  0  0  0  0
 31 68  1  0  0  0  0
 31 73  2  0  0  0  0
 32 49  1  0  0  0  0
 32 70  1  0  0  0  0
 32 74  2  0  0  0  0
 33 58  1  0  0  0  0
 33 65  1  0  0  0  0
 33 75  2  0  0  0  0
 34 59  1  0  0  0  0
 34 71  1  0  0  0  0
 34 76  2  0  0  0  0
 35 66  1  0  0  0  0
 35 69  1  0  0  0  0
 35 77  2  0  0  0  0
 36 39  1  0  0  0  0
 37 49  1  0  0  0  0
 38 65  1  0  0  0  0
 39 41  1  0  0  0  0
 40 43  1  0  0  0  0
 40 45  1  0  0  0  0
 41 47  1  0  0  0  0
 42 44  1  0  0  0  0
 42 48  1  0  0  0  0
 43 50  1  0  0  0  0
 44 51  1  0  0  0  0
 45 66  1  0  0  0  0
 46 50  1  0  0  0  0
 46 66  1  0  0  0  0
 47 70  1  0  0  0  0
 48 51  1  0  0  0  0
 49 65  1  0  0  0  0
 50 64  1  0  0  0  0
 51 60  1  0  0  0  0
 51 79  1  0  0  0  0
 53 59  1  0  0  0  0
 54 61  1  0  0  0  0
 55 61  1  0  0  0  0
 56 61  1  0  0  0  0
 57 72  1  0  0  0  0
 58 61  1  0  0  0  0
 58 71  1  0  0  0  0
 59 72  1  0  0  0  0
 60 82  1  0  0  0  0
 60 83  1  0  0  0  0
 60 84  1  0  0  0  0
 62 64  1  0  0  0  0
M  CHG  1  72   1
M  ISO  4  35 100  51 101  69 100  79 101
M  END
> <Batch ID>
0021

> <Smiles>
CNC(C)C(=O)NC(C(=O)N1Cc2cc([101O:1][101C:1]3(C(F)(F)F)CCC3c3sc([100NH:0][100C:0](=O)N4CCCC(n5nc(-c6ccc(Oc7ccc(F)cc7F)cc6)c(C(N)=O)c5N)C4)nc3C)ccc2CC1C(=O)NC1CCCc2ccccc21)C(C)(C)C

> <Shape>
0.186

> <Color>
0.193

> <Negative vol penalty>
0.000

$$$$

  -OEChem-04052316123D

 83 91  0     1  0  0  0  0  0999 V2000
  -31.4928  -34.3542   24.0168 C   0  0  0  0  0  0  0  0  0  0  0  0
  -31.2960  -33.3145   23.1137 C   0  0  0  0  0  0  0  0  0  0  0  0
  -26.2554  -11.9301   20.8894 C   0  0  0  0  0  0  0  0  0  0  0  0
  -24.6729  -13.2514   19.6296 C   0  0  0  0  0  0  0  0  0  0  0  0
  -30.6700  -34.4685   25.1366 C   0  0  0  0  0  0  0  0  0  0  0  0
  -30.2768  -32.3878   23.3304 C   0  0  0  0  0  0  0  0  0  0  0  0
  -26.8740  -29.5950   19.0728 C   0  0  0  0  0  0  0  0  0  0  0  0
  -25.2014  -11.2687   21.5197 C   0  0  0  0  0  0  0  0  0  0  0  0
  -23.6189  -12.5900   20.2599 C   0  0  0  0  0  0  0  0  0  0  0  0
  -26.9564  -28.3333   18.4854 C   0  0  0  0  0  0  0  0  0  0  0  0
  -23.0259   -8.7856   20.7888 C   0  0  0  0  0  0  0  0  0  0  0  0
  -23.1072   -7.3978   20.9031 C   0  0  0  0  0  0  0  0  0  0  0  0
  -25.3375  -27.4980   20.0667 C   0  0  0  0  0  0  0  0  0  0  0  0
  -23.0083   -7.5902   23.3094 C   0  0  0  0  0  0  0  0  0  0  0  0
  -25.9911  -12.9215   19.9444 C   0  0  0  0  0  0  0  0  0  0  0  0
  -27.7221  -13.2348   18.0969 C   0  0  0  0  0  0  0  0  0  0  0  0
  -29.6341  -33.5483   25.3620 C   0  0  0  0  0  0  0  0  0  0  0  0
  -26.0294  -29.8153   20.1704 C   0  0  0  0  0  0  0  0  0  0  0  0
  -29.4402  -32.4891   24.4549 C   0  0  0  0  0  0  0  0  0  0  0  0
  -25.2443  -28.7640   20.6647 C   0  0  0  0  0  0  0  0  0  0  0  0
  -27.7976  -23.0149   16.7511 C   0  0  0  0  0  0  0  0  0  0  0  0
  -25.7384  -22.7903   17.9946 C   0  0  0  0  0  0  0  0  0  0  0  0
  -26.5213  -23.4796   17.0685 C   0  0  0  0  0  0  0  0  0  0  0  0
  -28.2910  -21.8608   17.3597 C   0  0  0  0  0  0  0  0  0  0  0  0
  -26.2318  -21.6362   18.6032 C   0  0  0  0  0  0  0  0  0  0  0  0
  -27.5081  -21.1715   18.2858 C   0  0  0  0  0  0  0  0  0  0  0  0
  -23.8832  -11.5986   21.2050 C   0  0  0  0  0  0  0  0  0  0  0  0
  -26.1902  -27.2839   18.9841 C   0  0  0  0  0  0  0  0  0  0  0  0
  -22.9359   -9.5757   21.9348 C   0  0  0  0  0  0  0  0  0  0  0  0
  -23.0984   -6.8001   22.1634 C   0  0  0  0  0  0  0  0  0  0  0  0
  -22.9270   -8.9780   23.1951 C   0  0  0  0  0  0  0  0  0  0  0  0
  -27.0794  -13.6054   19.2933 C   0  0  0  0  0  0  0  0  0  0  0  0
  -28.6790  -14.2017   17.9074 C   0  0  0  0  0  0  0  0  0  0  0  0
  -27.4761  -12.1165   17.2340 C   0  0  0  0  0  0  0  0  0  0  0  0
  -26.4630  -30.7020   23.1919 C   0  0  0  0  0  0  0  0  0  0  0  0
  -23.2197  -30.7419   23.2371 C   0  0  0  0  0  0  0  0  0  0  0  0
  -20.2895  -29.6132   21.9004 C   0  0  0  0  0  0  0  0  0  0  0  0
  -29.1512  -19.8836   19.6957 C   0  0  0  0  0  0  0  0  0  0  0  0
  -28.8005  -33.6853   26.6114 C   0  0  0  0  0  0  0  0  0  0  0  0
  -25.9319  -31.1887   20.7759 C   0  0  0  0  0  0  0  0  0  0  0  0
  -24.3068  -28.9534   21.8282 C   0  0  0  0  0  0  0  0  0  0  0  0
  -27.5047  -32.8795   26.5705 C   0  0  0  0  0  0  0  0  0  0  0  0
  -31.4572  -17.2490   20.3426 C   0  0  0  0  0  0  0  0  0  0  0  0
  -27.7722  -31.4633   26.0709 C   0  0  0  0  0  0  0  0  0  0  0  0
  -30.6566  -15.9821   20.0322 C   0  0  0  0  0  0  0  0  0  0  0  0
  -30.5879  -18.3244   20.9918 C   0  0  0  0  0  0  0  0  0  0  0  0
  -28.5614  -17.3926   19.9457 C   0  0  0  0  0  0  0  0  0  0  0  0
  -28.3296  -31.4784   24.6424 C   0  0  1  0  0  0  0  0  0  0  0  0
  -25.4237  -31.1729   22.2143 C   0  0  1  0  0  0  0  0  0  0  0  0
  -29.3797  -16.3045   19.2316 C   0  0  2  0  0  0  0  0  0  0  0  0
  -28.6372  -23.7553   15.7584 C   0  0  0  0  0  0  0  0  0  0  0  0
  -24.3697  -23.2901   18.3360 C   0  0  0  0  0  0  0  0  0  0  0  0
  -29.6616  -21.3657   17.0156 C   0  0  0  0  0  0  0  0  0  0  0  0
  -25.3881  -20.8995   19.5967 C   0  0  0  0  0  0  0  0  0  0  0  0
  -17.8014  -29.7935   22.1731 C   0  0  0  0  0  0  0  0  0  0  0  0
  -23.3558  -28.9061   25.6705 C   0  0  0  0  0  0  0  0  0  0  0  0
  -20.9370  -28.3678   25.3127 C   0  0  0  0  0  0  0  0  0  0  0  0
  -21.6300  -30.7099   25.8198 C   0  0  0  0  0  0  0  0  0  0  0  0
  -19.9561  -30.7331   19.1813 C   0  0  0  0  0  0  0  0  0  0  0  0
  -25.9877  -24.7294   16.4115 C   0  0  0  0  0  0  0  0  0  0  0  0
  -26.5732  -25.9992   17.0196 C   0  0  0  0  0  0  0  0  0  1  0  0
  -22.1423  -29.7305   23.5459 C   0  0  1  0  0  0  0  0  0  0  0  0
  -19.0314  -30.3449   21.4689 C   0  0  2  0  0  0  0  0  0  0  0  0
  -22.0353  -29.4242   25.0665 C   0  0  0  0  0  0  0  0  0  0  0  0
  -27.5855  -14.7207   19.8264 N   0  0  0  0  0  0  0  0  0  0  0  0
  -28.5564  -15.0591   18.9610 N   0  0  0  0  0  0  0  0  0  0  0  0
  -24.2515  -30.3131   22.3901 N   0  0  0  0  0  0  0  0  0  0  0  0
  -29.3990  -18.5802   20.1756 N   0  0  0  0  0  0  0  0  0  0  0  0
  -29.6051  -14.3936   16.9440 N   0  0  0  0  0  0  0  0  0  0  0  0
  -26.4552  -11.2197   17.5771 N   0  0  0  0  0  0  0  0  0  0  0  0
  -28.0093  -19.9990   18.9037 N   0  0  0  0  0  0  0  0  0  0  0  0
  -27.2670  -31.7106   23.6877 N   0  0  0  0  0  0  0  0  0  0  0  0
  -20.9142  -30.2484   22.9528 N   0  0  0  0  0  0  0  0  0  0  0  0
  -18.8316  -30.2087   19.9983 N   0  3  0  0  0  0  0  0  0  0  0  0
  -28.1527  -11.9094   16.1982 O   0  0  0  0  0  0  0  0  0  0  0  0
  -26.5295  -29.5120   23.4766 O   0  0  0  0  0  0  0  0  0  0  0  0
  -23.1448  -31.8729   23.7237 O   0  0  0  0  0  0  0  0  0  0  0  0
  -20.6772  -28.5794   21.3606 O   0  0  0  0  0  0  0  0  0  0  0  0
  -29.9119  -20.8224   19.9447 O   0  0  0  0  0  0  0  0  0  0  0  0
  -22.8545  -10.9533   21.8197 O   0  0  0  0  0  0  0  0  0  0  0  0
  -26.2692  -26.0512   18.4129 O   0  0  0  0  0  0  0  0  0  1  0  0
  -23.1749   -5.4673   22.2729 F   0  0  0  0  0  0  0  0  0  0  0  0
  -22.8395   -9.7318   24.2996 F   0  0  0  0  0  0  0  0  0  0  0  0
  1  2  1  0  0  0  0
  1  5  2  0  0  0  0
  2  6  2  0  0  0  0
  3  8  2  0  0  0  0
  3 15  1  0  0  0  0
  4  9  1  0  0  0  0
  4 15  2  0  0  0  0
  5 17  1  0  0  0  0
  6 19  1  0  0  0  0
  7 10  2  0  0  0  0
  7 18  1  0  0  0  0
  8 27  1  0  0  0  0
  9 27  2  0  0  0  0
 10 28  1  0  0  0  0
 11 12  2  0  0  0  0
 11 29  1  0  0  0  0
 12 30  1  0  0  0  0
 13 20  1  0  0  0  0
 13 28  2  0  0  0  0
 14 30  2  0  0  0  0
 14 31  1  0  0  0  0
 15 32  1  0  0  0  0
 16 32  1  0  0  0  0
 16 33  2  0  0  0  0
 16 34  1  0  0  0  0
 17 19  2  0  0  0  0
 17 39  1  0  0  0  0
 18 20  2  0  0  0  0
 18 40  1  0  0  0  0
 19 48  1  0  0  0  0
 20 41  1  0  0  0  0
 21 23  1  0  0  0  0
 21 24  2  0  0  0  0
 21 51  1  0  0  0  0
 22 23  2  0  0  0  0
 22 25  1  0  0  0  0
 22 52  1  0  0  0  0
 23 60  1  0  0  0  0
 24 26  1  0  0  0  0
 24 53  1  0  0  0  0
 25 26  2  0  0  0  0
 25 54  1  0  0  0  0
 26 71  1  0  0  0  0
 27 80  1  0  0  0  0
 28 81  1  0  0  0  0
 29 31  2  0  0  0  0
 29 80  1  0  0  0  0
 30 82  1  0  0  0  0
 31 83  1  0  0  0  0
 32 65  2  0  0  0  0
 33 66  1  0  0  0  0
 33 69  1  0  0  0  0
 34 70  1  0  0  0  0
 34 75  2  0  0  0  0
 35 49  1  0  0  0  0
 35 72  1  0  0  0  0
 35 76  2  0  0  0  0
 36 62  1  0  0  0  0
 36 67  1  0  0  0  0
 36 77  2  0  0  0  0
 37 63  1  0  0  0  0
 37 73  1  0  0  0  0
 37 78  2  0  0  0  0
 38 68  1  0  0  0  0
 38 71  1  0  0  0  0
 38 79  2  0  0  0  0
 39 42  1  0  0  0  0
 40 49  1  0  0  0  0
 41 67  1  0  0  0  0
 42 44  1  0  0  0  0
 43 45  1  0  0  0  0
 43 46  1  0  0  0  0
 44 48  1  0  0  0  0
 45 50  1  0  0  0  0
 46 68  1  0  0  0  0
 47 50  1  0  0  0  0
 47 68  1  0  0  0  0
 48 72  1  0  0  0  0
 49 67  1  0  0  0  0
 50 66  1  0  0  0  0
 55 63  1  0  0  0  0
 56 64  1  0  0  0  0
 57 64  1  0  0  0  0
 58 64  1  0  0  0  0
 59 74  1  0  0  0  0
 60 61  1  0  0  0  0
 61 81  1  0  0  0  0
 62 64  1  0  0  0  0
 62 73  1  0  0  0  0
 63 74  1  0  0  0  0
 65 66  1  0  0  0  0
M  CHG  1  74   1
M  ISO  4  38 100  61 101  71 100  81 101
M  END
> <Batch ID>
0021

> <Smiles>
CNC(C)C(=O)NC(C(=O)N1Cc2cc([101O:1][101CH2:1]Cc3c(C)c(C)c([100NH:0][100C:0](=O)N4CCCC(n5nc(-c6ccc(Oc7ccc(F)cc7F)cc6)c(C(N)=O)c5N)C4)c(C)c3C)ccc2CC1C(=O)NC1CCCc2ccccc21)C(C)(C)C

> <Shape>
0.262

> <Color>
0.081

> <Negative vol penalty>
0.000

$$$$

  -OEChem-04052316123D

 94102  0     1  0  0  0  0  0999 V2000
  -21.7878  -23.1370   14.4939 C   0  0  0  0  0  0  0  0  0  0  0  0
  -21.3833  -24.3039   15.1343 C   0  0  0  0  0  0  0  0  0  0  0  0
  -30.8952  -15.5391   22.8187 C   0  0  0  0  0  0  0  0  0  0  0  0
  -30.0750  -14.7062   20.7043 C   0  0  0  0  0  0  0  0  0  0  0  0
  -22.7479  -22.3162   15.0842 C   0  0  0  0  0  0  0  0  0  0  0  0
  -21.9379  -24.6501   16.3660 C   0  0  0  0  0  0  0  0  0  0  0  0
  -23.7984  -30.3832   20.2373 C   0  0  0  0  0  0  0  0  0  0  0  0
  -31.3657  -14.2654   23.1379 C   0  0  0  0  0  0  0  0  0  0  0  0
  -30.5456  -13.4325   21.0235 C   0  0  0  0  0  0  0  0  0  0  0  0
  -23.6073  -30.9366   21.5026 C   0  0  0  0  0  0  0  0  0  0  0  0
  -33.5051  -11.8009   21.0275 C   0  0  0  0  0  0  0  0  0  0  0  0
  -34.1947  -11.0998   20.0383 C   0  0  0  0  0  0  0  0  0  0  0  0
  -25.3158  -29.4829   22.3898 C   0  0  0  0  0  0  0  0  0  0  0  0
  -32.5423   -9.3397   20.1340 C   0  0  0  0  0  0  0  0  0  0  0  0
  -30.2498  -15.7595   21.6019 C   0  0  0  0  0  0  0  0  0  0  0  0
  -30.4610  -18.0955   20.5988 C   0  0  0  0  0  0  0  0  0  0  0  0
  -23.3216  -22.6575   16.3191 C   0  0  0  0  0  0  0  0  0  0  0  0
  -24.7436  -29.3661   20.0406 C   0  0  0  0  0  0  0  0  0  0  0  0
  -22.9055  -23.8324   16.9740 C   0  0  0  0  0  0  0  0  0  0  0  0
  -25.5188  -28.9200   21.1205 C   0  0  0  0  0  0  0  0  0  0  0  0
  -19.2346  -29.0935   21.4620 C   0  0  0  0  0  0  0  0  0  0  0  0
  -19.8289  -28.5520   23.7403 C   0  0  0  0  0  0  0  0  0  0  0  0
  -31.1910  -13.2121   22.2403 C   0  0  0  0  0  0  0  0  0  0  0  0
  -24.3641  -30.4844   22.5797 C   0  0  0  0  0  0  0  0  0  0  0  0
  -32.3341  -11.2715   21.5700 C   0  0  0  0  0  0  0  0  0  0  0  0
  -19.1741  -26.7982   22.2132 C   0  0  0  0  0  0  0  0  0  0  0  0
  -33.7133   -9.8692   19.5916 C   0  0  0  0  0  0  0  0  0  0  0  0
  -31.8527  -10.0409   21.1232 C   0  0  0  0  0  0  0  0  0  0  0  0
  -18.9962  -27.7438   21.2034 C   0  0  0  0  0  0  0  0  0  0  0  0
  -19.6511  -29.4977   22.7304 C   0  0  0  0  0  0  0  0  0  0  0  0
  -19.5905  -27.2023   23.4817 C   0  0  0  0  0  0  0  0  0  0  0  0
  -29.7630  -17.0749   21.2718 C   0  0  0  0  0  0  0  0  0  0  0  0
  -29.5679  -19.1370   20.5340 C   0  0  0  0  0  0  0  0  0  0  0  0
  -31.7970  -18.1015   20.0787 C   0  0  0  0  0  0  0  0  0  0  0  0
  -24.6133  -26.3367   19.0871 C   0  0  0  0  0  0  0  0  0  0  0  0
  -27.8467  -26.5689   19.2018 C   0  0  0  0  0  0  0  0  0  0  0  0
  -30.5955  -28.1280   20.4902 C   0  0  0  0  0  0  0  0  0  0  0  0
  -23.6655  -19.2647   20.5567 C   0  0  0  0  0  0  0  0  0  0  0  0
  -24.3213  -21.7145   16.9405 C   0  0  0  0  0  0  0  0  0  0  0  0
  -24.9564  -28.7983   18.6641 C   0  0  0  0  0  0  0  0  0  0  0  0
  -26.5607  -27.8446   20.9579 C   0  0  0  0  0  0  0  0  0  0  0  0
  -25.1332  -22.3448   18.0691 C   0  0  0  0  0  0  0  0  0  0  0  0
  -25.8339  -21.0188   22.8629 C   0  0  0  0  0  0  0  0  0  0  0  0
  -24.2192  -23.1083   19.0223 C   0  0  0  0  0  0  0  0  0  0  0  0
  -27.1620  -20.2918   22.6444 C   0  0  0  0  0  0  0  0  0  0  0  0
  -24.6559  -20.0516   22.7911 C   0  0  0  0  0  0  0  0  0  0  0  0
  -25.9105  -18.5332   21.3098 C   0  0  0  0  0  0  0  0  0  0  0  0
  -23.5019  -24.2546   18.2992 C   0  0  1  0  0  0  0  0  0  0  0  0
  -25.5853  -27.4084   18.6818 C   0  0  1  0  0  0  0  0  0  0  0  0
  -27.1390  -19.4603   21.3481 C   0  0  2  0  0  0  0  0  0  0  0  0
  -19.0317  -30.0735   20.3509 C   0  0  0  0  0  0  0  0  0  0  0  0
  -33.1035  -28.0721   20.4250 C   0  0  0  0  0  0  0  0  0  0  0  0
  -21.9146  -28.0413   26.5012 C   0  0  0  0  0  0  0  0  0  0  0  0
  -27.8357  -24.0971   20.9907 C   0  0  0  0  0  0  0  0  0  0  0  0
  -30.1871  -24.6492   21.6497 C   0  0  0  0  0  0  0  0  0  0  0  0
  -29.6497  -24.1310   19.2695 C   0  0  0  0  0  0  0  0  0  0  0  0
  -19.2642  -29.3165   26.0331 C   0  0  0  0  0  0  0  0  0  0  0  0
  -30.7452  -30.8872   19.4302 C   0  0  0  0  0  0  0  0  0  0  0  0
  -20.7276  -22.4208   20.6628 C   0  0  0  0  0  0  0  0  0  0  0  0
  -20.2841  -20.9683   20.4650 C   0  0  0  0  0  0  0  0  0  0  0  0
  -19.5863  -23.2795   21.2046 C   0  0  0  0  0  0  0  0  0  0  0  0
  -23.5312  -30.5765   26.1029 C   0  0  0  0  0  0  0  0  0  0  0  0
  -22.0408  -30.4475   25.7587 C   0  0  0  0  0  0  0  0  0  0  0  0
  -21.4055  -20.0799   19.9365 C   0  0  0  0  0  0  0  0  0  0  0  0
  -20.0296  -24.7168   21.4438 C   0  0  0  0  0  0  0  0  0  0  0  0
  -24.4274  -30.1749   24.9368 C   0  0  0  0  0  0  0  0  0  1  0  0
  -28.8987  -26.3332   20.2587 C   0  0  1  0  0  0  0  0  0  0  0  0
  -31.8444  -28.6796   19.8264 C   0  0  2  0  0  0  0  0  0  0  0  0
  -21.6525  -29.0173   25.3585 C   0  0  2  0  0  0  0  0  0  0  0  0
  -29.1219  -24.8216   20.5459 C   0  0  0  0  0  0  0  0  0  0  0  0
  -28.5223  -17.4354   21.6105 N   0  0  0  0  0  0  0  0  0  0  0  0
  -28.4337  -18.6943   21.1485 N   0  0  0  0  0  0  0  0  0  0  0  0
  -26.7272  -27.3163   19.5939 N   0  0  0  0  0  0  0  0  0  0  0  0
  -24.6821  -19.3049   21.5254 N   0  0  0  0  0  0  0  0  0  0  0  0
  -29.6502  -20.3793   20.0120 N   0  0  0  0  0  0  0  0  0  0  0  0
  -32.5784  -16.9480   20.2308 N   0  0  0  0  0  0  0  0  0  0  0  0
  -24.3979  -25.3764   18.1170 N   0  0  0  0  0  0  0  0  0  0  0  0
  -30.0939  -27.0389   19.8094 N   0  0  0  0  0  0  0  0  0  0  0  0
  -22.5325  -20.0174   20.8403 N   0  0  0  0  0  0  0  0  0  0  0  0
  -20.2475  -28.9567   25.0131 N   0  0  3  0  0  0  0  0  0  0  0  0
  -31.9103  -30.1588   19.9950 N   0  3  0  0  0  0  0  0  0  0  0  0
  -32.2892  -19.1060   19.5108 O   0  0  0  0  0  0  0  0  0  0  0  0
  -24.0980  -26.3771   20.1982 O   0  0  0  0  0  0  0  0  0  0  0  0
  -28.0156  -26.1128   18.0682 O   0  0  0  0  0  0  0  0  0  0  0  0
  -30.1153  -28.6124   21.5126 O   0  0  0  0  0  0  0  0  0  0  0  0
  -23.7625  -18.6102   19.5129 O   0  0  0  0  0  0  0  0  0  0  0  0
  -31.6502  -11.9692   22.5514 O   0  0  0  0  0  0  0  0  0  0  0  0
  -24.1791  -31.0224   23.8159 O   0  0  0  0  0  0  0  0  0  1  0  0
  -18.9323  -25.4866   21.9298 O   0  0  0  0  0  0  0  0  0  0  0  0
  -34.3748   -9.1967   18.6406 F   0  0  0  0  0  0  0  0  0  0  0  0
  -30.7277   -9.5278   21.6398 F   0  0  0  0  0  0  0  0  0  0  0  0
  -18.5927  -27.3508   19.9860 F   0  0  0  0  0  0  0  0  0  0  0  0
  -19.9462  -31.1786   23.0403 Cl  0  0  0  0  0  0  0  0  0  0  0  0
  -19.8049  -26.0115   24.7228 Cl  0  0  0  0  0  0  0  0  0  0  0  0
  1  2  1  0  0  0  0
  1  5  2  0  0  0  0
  2  6  2  0  0  0  0
  3  8  2  0  0  0  0
  3 15  1  0  0  0  0
  4  9  1  0  0  0  0
  4 15  2  0  0  0  0
  5 17  1  0  0  0  0
  6 19  1  0  0  0  0
  7 10  2  0  0  0  0
  7 18  1  0  0  0  0
  8 23  1  0  0  0  0
  9 23  2  0  0  0  0
 10 24  1  0  0  0  0
 11 12  2  0  0  0  0
 11 25  1  0  0  0  0
 12 27  1  0  0  0  0
 13 20  1  0  0  0  0
 13 24  2  0  0  0  0
 14 27  2  0  0  0  0
 14 28  1  0  0  0  0
 15 32  1  0  0  0  0
 16 32  1  0  0  0  0
 16 33  2  0  0  0  0
 16 34  1  0  0  0  0
 17 19  2  0  0  0  0
 17 39  1  0  0  0  0
 18 20  2  0  0  0  0
 18 40  1  0  0  0  0
 19 48  1  0  0  0  0
 20 41  1  0  0  0  0
 21 29  1  0  0  0  0
 21 30  2  0  0  0  0
 21 51  1  0  0  0  0
 22 30  1  0  0  0  0
 22 31  2  0  0  0  0
 22 80  1  0  0  0  0
 23 87  1  0  0  0  0
 24 88  1  0  0  0  0
 25 28  2  0  0  0  0
 25 87  1  0  0  0  0
 26 29  2  0  0  0  0
 26 31  1  0  0  0  0
 26 89  1  0  0  0  0
 27 90  1  0  0  0  0
 28 91  1  0  0  0  0
 29 92  1  0  0  0  0
 30 93  1  0  0  0  0
 31 94  1  0  0  0  0
 32 71  2  0  0  0  0
 33 72  1  0  0  0  0
 33 75  1  0  0  0  0
 34 76  1  0  0  0  0
 34 82  2  0  0  0  0
 35 49  1  0  0  0  0
 35 77  1  0  0  0  0
 35 83  2  0  0  0  0
 36 67  1  0  0  0  0
 36 73  1  0  0  0  0
 36 84  2  0  0  0  0
 37 68  1  0  0  0  0
 37 78  1  0  0  0  0
 37 85  2  0  0  0  0
 38 74  1  0  0  0  0
 38 79  1  0  0  0  0
 38 86  2  0  0  0  0
 39 42  1  0  0  0  0
 40 49  1  0  0  0  0
 41 73  1  0  0  0  0
 42 44  1  0  0  0  0
 43 45  1  0  0  0  0
 43 46  1  0  0  0  0
 44 48  1  0  0  0  0
 45 50  1  0  0  0  0
 46 74  1  0  0  0  0
 47 50  1  0  0  0  0
 47 74  1  0  0  0  0
 48 77  1  0  0  0  0
 49 73  1  0  0  0  0
 50 72  1  0  0  0  0
 52 68  1  0  0  0  0
 53 69  1  0  0  0  0
 54 70  1  0  0  0  0
 55 70  1  0  0  0  0
 56 70  1  0  0  0  0
 57 80  1  0  0  0  0
 58 81  1  0  0  0  0
 59 60  1  0  0  0  0
 59 61  1  0  0  0  0
 60 64  1  0  0  0  0
 61 65  1  0  0  0  0
 62 63  1  0  0  0  0
 62 66  1  0  0  0  0
 63 69  1  0  0  0  0
 64 79  1  0  0  0  0
 65 89  1  0  0  0  0
 66 88  1  0  0  0  0
 67 70  1  0  0  0  0
 67 78  1  0  0  0  0
 68 81  1  0  0  0  0
 69 80  1  0  0  0  0
 71 72  1  0  0  0  0
M  CHG  1  81   1
M  ISO  4  38 100  66 101  79 100  88 101
M  END
> <Batch ID>
0021

> <Smiles>
CNC(C)C(=O)NC(C(=O)N1Cc2cc([101O:1][101CH2:1]CCC(C)N(C)c3c(Cl)c(C)c(F)c(OCCCCC[100NH:0][100C:0](=O)N4CCCC(n5nc(-c6ccc(Oc7ccc(F)cc7F)cc6)c(C(N)=O)c5N)C4)c3Cl)ccc2CC1C(=O)NC1CCCc2ccccc21)C(C)(C)C

> <Shape>
0.206

> <Color>
0.069

> <Negative vol penalty>
0.000

$$$$

  -OEChem-04052316123D

 94103  0     1  0  0  0  0  0999 V2000
  -14.9109  -23.6658   23.0284 C   0  0  0  0  0  0  0  0  0  0  0  0
  -15.4173  -24.4366   21.9869 C   0  0  0  0  0  0  0  0  0  0  0  0
  -22.6327  -10.2777   20.2310 C   0  0  0  0  0  0  0  0  0  0  0  0
  -24.2537   -9.5347   21.8611 C   0  0  0  0  0  0  0  0  0  0  0  0
  -15.5514  -23.6622   24.2668 C   0  0  0  0  0  0  0  0  0  0  0  0
  -16.5641  -25.2051   22.1835 C   0  0  0  0  0  0  0  0  0  0  0  0
  -22.4277  -24.2244   18.1155 C   0  0  0  0  0  0  0  0  0  0  0  0
  -31.7041  -18.3059   20.1703 C   0  0  0  0  0  0  0  0  0  0  0  0
  -31.5394  -19.3623   19.2744 C   0  0  0  0  0  0  0  0  0  0  0  0
  -21.8788   -9.1258   20.4556 C   0  0  0  0  0  0  0  0  0  0  0  0
  -23.4997   -8.3829   22.0859 C   0  0  0  0  0  0  0  0  0  0  0  0
  -23.5148  -24.2414   17.2414 C   0  0  0  0  0  0  0  0  0  0  0  0
  -19.6948   -7.9911   22.7742 C   0  0  0  0  0  0  0  0  0  0  0  0
  -18.3154   -8.1375   22.9205 C   0  0  0  0  0  0  0  0  0  0  0  0
  -24.5994  -25.9177   18.6058 C   0  0  0  0  0  0  0  0  0  0  0  0
  -17.9604   -6.7005   21.0110 C   0  0  0  0  0  0  0  0  0  0  0  0
  -23.8202  -10.4821   20.9337 C   0  0  0  0  0  0  0  0  0  0  0  0
  -24.1901  -13.0057   20.8857 C   0  0  0  0  0  0  0  0  0  0  0  0
  -16.7122  -24.4235   24.4758 C   0  0  0  0  0  0  0  0  0  0  0  0
  -22.4292  -25.0437   19.2478 C   0  0  0  0  0  0  0  0  0  0  0  0
  -17.2201  -25.2127   23.4262 C   0  0  0  0  0  0  0  0  0  0  0  0
  -23.5188  -25.8958   19.4917 C   0  0  0  0  0  0  0  0  0  0  0  0
  -30.6655  -17.9544   21.0326 C   0  0  0  0  0  0  0  0  0  0  0  0
  -30.3363  -20.0672   19.2409 C   0  0  0  0  0  0  0  0  0  0  0  0
  -22.3122   -8.1784   21.3831 C   0  0  0  0  0  0  0  0  0  0  0  0
  -24.5978  -25.0861   17.4858 C   0  0  0  0  0  0  0  0  0  0  0  0
  -20.2070   -7.1995   21.7462 C   0  0  0  0  0  0  0  0  0  0  0  0
  -17.4482   -7.4922   22.0389 C   0  0  0  0  0  0  0  0  0  0  0  0
  -19.3398   -6.5542   20.8647 C   0  0  0  0  0  0  0  0  0  0  0  0
  -29.4623  -18.6593   20.9990 C   0  0  0  0  0  0  0  0  0  0  0  0
  -29.2977  -19.7157   20.1032 C   0  0  0  0  0  0  0  0  0  0  0  0
  -24.5997  -11.6715   20.7016 C   0  0  0  0  0  0  0  0  0  0  0  0
  -25.2860  -13.7534   20.5303 C   0  0  0  0  0  0  0  0  0  0  0  0
  -22.9316  -13.5229   21.3378 C   0  0  0  0  0  0  0  0  0  0  0  0
  -20.6224  -26.1605   22.3404 C   0  0  0  0  0  0  0  0  0  0  0  0
  -23.5873  -25.9039   23.0844 C   0  0  0  0  0  0  0  0  0  0  0  0
  -26.8603  -25.0941   23.6033 C   0  0  0  0  0  0  0  0  0  0  0  0
  -30.7835  -14.7037   20.6733 C   0  0  0  0  0  0  0  0  0  0  0  0
  -17.3428  -24.4244   25.8458 C   0  0  0  0  0  0  0  0  0  0  0  0
  -21.2525  -25.1032   20.1836 C   0  0  0  0  0  0  0  0  0  0  0  0
  -23.4616  -26.7852   20.7036 C   0  0  0  0  0  0  0  0  0  0  0  0
  -18.7667  -24.9745   25.8606 C   0  0  0  0  0  0  0  0  0  0  0  0
  -29.5855  -12.4064   18.2311 C   0  0  0  0  0  0  0  0  0  0  0  0
  -18.8458  -26.2725   25.0632 C   0  0  0  0  0  0  0  0  0  0  0  0
  -28.1507  -12.1160   18.6749 C   0  0  0  0  0  0  0  0  0  0  0  0
  -26.2329  -22.7758   16.9635 C   0  0  0  0  0  0  0  0  0  0  0  0
  -27.1370  -24.1137   15.0215 C   0  0  0  0  0  0  0  0  0  0  0  0
  -26.6776  -21.4826   16.2833 C   0  0  0  0  0  0  0  0  0  0  0  0
  -27.5830  -22.8235   14.3363 C   0  0  0  0  0  0  0  0  0  0  0  0
  -30.5214  -12.5800   19.4253 C   0  0  0  0  0  0  0  0  0  0  0  0
  -28.6474  -13.2899   20.8598 C   0  0  0  0  0  0  0  0  0  0  0  0
  -18.4760  -26.0403   23.5932 C   0  0  1  0  0  0  0  0  0  0  0  0
  -21.6595  -25.3230   21.6517 C   0  0  1  0  0  0  0  0  0  0  0  0
  -27.6554  -13.1625   19.6911 C   0  0  2  0  0  0  0  0  0  0  0  0
  -25.9478  -23.8794   15.9480 C   0  0  0  0  0  0  0  0  0  1  0  0
  -27.8777  -21.6743   15.3276 C   0  0  0  0  0  0  0  0  0  0  0  0
  -28.6230  -25.0652   25.3891 C   0  0  0  0  0  0  0  0  0  0  0  0
  -30.3698  -22.0640   15.2198 C   0  0  0  0  0  0  0  0  0  0  0  0
  -26.7547  -19.6546   14.3545 C   0  0  0  0  0  0  0  0  0  0  0  0
  -29.0678  -19.4677   15.3036 C   0  0  0  0  0  0  0  0  0  0  0  0
  -28.6893  -20.7111   13.1596 C   0  0  0  0  0  0  0  0  0  0  0  0
  -23.8912  -28.9281   22.8283 C   0  0  0  0  0  0  0  0  0  0  0  0
  -26.1749  -28.7124   23.8315 C   0  0  0  0  0  0  0  0  0  0  0  0
  -24.1664  -28.0447   25.1517 C   0  0  0  0  0  0  0  0  0  0  0  0
  -27.1916  -22.1608   23.3911 C   0  0  0  0  0  0  0  0  0  0  0  0
  -30.8915  -16.8146   21.9739 C   0  0  0  0  0  0  0  0  0  0  0  0
  -30.2090  -21.1948   18.2594 C   0  0  0  0  0  0  0  0  0  0  0  0
  -24.9208  -26.5937   23.2236 C   0  0  1  0  0  0  0  0  0  0  0  0
  -27.5350  -24.2697   24.6847 C   0  0  2  0  0  0  0  0  0  0  0  0
  -29.1630  -21.9658   16.1262 C   0  0  2  0  0  0  0  0  0  0  0  0
  -28.0981  -20.3728   14.5338 C   0  0  0  0  0  0  0  0  0  0  0  0
  -24.7814  -28.0553   23.7352 C   0  0  0  0  0  0  0  0  0  0  0  0
  -25.8575  -11.5741   20.2630 N   0  0  0  0  0  0  0  0  0  0  0  0
  -26.2478  -12.8566   20.1686 N   0  0  0  0  0  0  0  0  0  0  0  0
  -22.9333  -26.0343   21.8532 N   0  0  0  0  0  0  0  0  0  0  0  0
  -29.9951  -13.5871   20.3497 N   0  0  0  0  0  0  0  0  0  0  0  0
  -25.5111  -15.0840   20.4949 N   0  0  0  0  0  0  0  0  0  0  0  0
  -22.7480  -13.7269   22.7122 N   0  0  0  0  0  0  0  0  0  0  0  0
  -19.5813  -25.4323   22.8839 N   0  0  0  0  0  0  0  0  0  0  0  0
  -25.7364  -25.7369   24.0775 N   0  0  0  0  0  0  0  0  0  0  0  0
  -30.2068  -15.6131   21.5514 N   0  0  0  0  0  0  0  0  0  0  0  0
  -28.1527  -23.0482   24.0953 N   0  3  0  0  0  0  0  0  0  0  0  0
  -29.3609  -20.8526   17.0844 N   0  3  0  0  0  0  0  0  0  0  0  0
  -21.9918  -13.7805   20.5479 O   0  0  0  0  0  0  0  0  0  0  0  0
  -20.7564  -27.3780   22.3780 O   0  0  0  0  0  0  0  0  0  0  0  0
  -23.1329  -25.2708   24.0414 O   0  0  0  0  0  0  0  0  0  0  0  0
  -27.2896  -25.1641   22.4538 O   0  0  0  0  0  0  0  0  0  0  0  0
  -31.9152  -14.8800   20.2094 O   0  0  0  0  0  0  0  0  0  0  0  0
  -21.5767   -7.0545   21.6028 O   0  0  0  0  0  0  0  0  0  0  0  0
  -25.6578  -25.0944   16.6308 O   0  0  0  0  0  0  0  0  0  1  0  0
  -16.1235   -7.6316   22.1805 F   0  0  0  0  0  0  0  0  0  0  0  0
  -19.8260   -5.7914   19.8759 F   0  0  0  0  0  0  0  0  0  0  0  0
  -28.1900  -18.1963   22.0854 Cl  0  0  0  0  0  0  0  0  0  0  0  0
  -27.8133  -20.6131   20.0357 Cl  0  0  0  0  0  0  0  0  0  0  0  0
  1  2  1  0  0  0  0
  1  5  2  0  0  0  0
  2  6  2  0  0  0  0
  3 10  2  0  0  0  0
  3 17  1  0  0  0  0
  4 11  1  0  0  0  0
  4 17  2  0  0  0  0
  5 19  1  0  0  0  0
  6 21  1  0  0  0  0
  7 12  2  0  0  0  0
  7 20  1  0  0  0  0
  8  9  2  0  0  0  0
  8 23  1  0  0  0  0
  9 24  1  0  0  0  0
 10 25  1  0  0  0  0
 11 25  2  0  0  0  0
 12 26  1  0  0  0  0
 13 14  2  0  0  0  0
 13 27  1  0  0  0  0
 14 28  1  0  0  0  0
 15 22  1  0  0  0  0
 15 26  2  0  0  0  0
 16 28  2  0  0  0  0
 16 29  1  0  0  0  0
 17 32  1  0  0  0  0
 18 32  1  0  0  0  0
 18 33  2  0  0  0  0
 18 34  1  0  0  0  0
 19 21  2  0  0  0  0
 19 39  1  0  0  0  0
 20 22  2  0  0  0  0
 20 40  1  0  0  0  0
 21 52  1  0  0  0  0
 22 41  1  0  0  0  0
 23 30  2  0  0  0  0
 23 66  1  0  0  0  0
 24 31  2  0  0  0  0
 24 67  1  0  0  0  0
 25 89  1  0  0  0  0
 26 90  1  0  0  0  0
 27 29  2  0  0  0  0
 27 89  1  0  0  0  0
 28 91  1  0  0  0  0
 29 92  1  0  0  0  0
 30 31  1  0  0  0  0
 30 93  1  0  0  0  0
 31 94  1  0  0  0  0
 32 73  2  0  0  0  0
 33 74  1  0  0  0  0
 33 77  1  0  0  0  0
 34 78  1  0  0  0  0
 34 84  2  0  0  0  0
 35 53  1  0  0  0  0
 35 79  1  0  0  0  0
 35 85  2  0  0  0  0
 36 68  1  0  0  0  0
 36 75  1  0  0  0  0
 36 86  2  0  0  0  0
 37 69  1  0  0  0  0
 37 80  1  0  0  0  0
 37 87  2  0  0  0  0
 38 76  1  0  0  0  0
 38 81  1  0  0  0  0
 38 88  2  0  0  0  0
 39 42  1  0  0  0  0
 40 53  1  0  0  0  0
 41 75  1  0  0  0  0
 42 44  1  0  0  0  0
 43 45  1  0  0  0  0
 43 50  1  0  0  0  0
 44 52  1  0  0  0  0
 45 54  1  0  0  0  0
 46 48  1  0  0  0  0
 46 55  1  0  0  0  0
 47 49  1  0  0  0  0
 47 55  1  0  0  0  0
 48 56  1  0  0  0  0
 49 56  1  0  0  0  0
 50 76  1  0  0  0  0
 51 54  1  0  0  0  0
 51 76  1  0  0  0  0
 52 79  1  0  0  0  0
 53 75  1  0  0  0  0
 54 74  1  0  0  0  0
 55 90  1  0  0  0  0
 56 70  1  0  0  0  0
 56 71  1  0  0  0  0
 57 69  1  0  0  0  0
 58 70  1  0  0  0  0
 59 71  1  0  0  0  0
 60 71  1  0  0  0  0
 61 71  1  0  0  0  0
 62 72  1  0  0  0  0
 63 72  1  0  0  0  0
 64 72  1  0  0  0  0
 65 82  1  0  0  0  0
 66 81  1  0  0  0  0
 67 83  1  0  0  0  0
 68 72  1  0  0  0  0
 68 80  1  0  0  0  0
 69 82  1  0  0  0  0
 70 83  1  0  0  0  0
 73 74  1  0  0  0  0
M  CHG  2  82   1  83   1
M  ISO  4  38 100  55 101  81 100  90 101
M  END
> <Batch ID>
0021

> <Smiles>
CNC(C)C(=O)NC(C(=O)N1Cc2cc([101O:1][101CH:1]3CCC(C(C)NCc4ccc(C[100NH:0][100C:0](=O)N5CCCC(n6nc(-c7ccc(Oc8ccc(F)cc8F)cc7)c(C(N)=O)c6N)C5)c(Cl)c4Cl)(C(C)(C)C)CC3)ccc2CC1C(=O)NC1CCCc2ccccc21)C(C)(C)C

> <Shape>
0.216

> <Color>
0.166

> <Negative vol penalty>
0.000

$$$$

  -OEChem-04052316123D

 92100  0     1  0  0  0  0  0999 V2000
  -18.4741  -33.2532   24.4126 C   0  0  0  0  0  0  0  0  0  0  0  0
  -19.7444  -33.4217   23.8708 C   0  0  0  0  0  0  0  0  0  0  0  0
  -24.8653  -13.3867   20.4350 C   0  0  0  0  0  0  0  0  0  0  0  0
  -26.7358  -11.8605   20.5290 C   0  0  0  0  0  0  0  0  0  0  0  0
  -18.0709  -31.9970   24.8636 C   0  0  0  0  0  0  0  0  0  0  0  0
  -20.6126  -32.3342   23.7806 C   0  0  0  0  0  0  0  0  0  0  0  0
  -25.8274  -29.6815   19.6473 C   0  0  0  0  0  0  0  0  0  0  0  0
  -24.0137  -12.3696   20.8659 C   0  0  0  0  0  0  0  0  0  0  0  0
  -25.8842  -10.8433   20.9600 C   0  0  0  0  0  0  0  0  0  0  0  0
  -27.1352  -29.2065   19.7355 C   0  0  0  0  0  0  0  0  0  0  0  0
  -23.6431   -8.7196   19.5823 C   0  0  0  0  0  0  0  0  0  0  0  0
  -23.7768   -7.4660   18.9853 C   0  0  0  0  0  0  0  0  0  0  0  0
  -26.3017  -27.0665   20.4736 C   0  0  0  0  0  0  0  0  0  0  0  0
  -24.2767   -6.4934   21.1397 C   0  0  0  0  0  0  0  0  0  0  0  0
  -26.2264  -13.1322   20.2664 C   0  0  0  0  0  0  0  0  0  0  0  0
  -27.8131  -15.0974   20.6239 C   0  0  0  0  0  0  0  0  0  0  0  0
  -18.9311  -30.8916   24.7701 C   0  0  0  0  0  0  0  0  0  0  0  0
  -24.7457  -28.8546   19.9826 C   0  0  0  0  0  0  0  0  0  0  0  0
  -20.2210  -31.0624   24.2320 C   0  0  0  0  0  0  0  0  0  0  0  0
  -24.9810  -27.5326   20.3864 C   0  0  0  0  0  0  0  0  0  0  0  0
  -30.6331  -22.2988   21.2537 C   0  0  0  0  0  0  0  0  0  0  0  0
  -24.5231  -11.0979   21.1284 C   0  0  0  0  0  0  0  0  0  0  0  0
  -27.3727  -27.8997   20.1515 C   0  0  0  0  0  0  0  0  0  0  0  0
  -23.8263   -8.8601   20.9579 C   0  0  0  0  0  0  0  0  0  0  0  0
  -24.0936   -6.3530   19.7640 C   0  0  0  0  0  0  0  0  0  0  0  0
  -24.1431   -7.7470   21.7366 C   0  0  0  0  0  0  0  0  0  0  0  0
  -27.1065  -14.1823   19.8207 C   0  0  0  0  0  0  0  0  0  0  0  0
  -30.3379  -21.1832   22.0600 C   0  0  0  0  0  0  0  0  0  0  0  0
  -28.4990  -15.8816   19.7289 C   0  0  0  0  0  0  0  0  0  0  0  0
  -29.4084  -22.7378   20.8133 C   0  0  0  0  0  0  0  0  0  0  0  0
  -27.8465  -15.2270   22.0514 C   0  0  0  0  0  0  0  0  0  0  0  0
  -22.4463  -28.9480   22.1753 C   0  0  0  0  0  0  0  0  0  0  0  0
  -21.3481  -26.3511   20.5714 C   0  0  0  0  0  0  0  0  0  0  0  0
  -22.0312  -23.7088   18.5224 C   0  0  0  0  0  0  0  0  0  0  0  0
  -29.4022  -25.1544   20.3498 C   0  0  0  0  0  0  0  0  0  0  0  0
  -31.6397  -16.4308   15.1486 C   0  0  0  0  0  0  0  0  0  0  0  0
  -18.4681  -29.5633   25.3142 C   0  0  0  0  0  0  0  0  0  0  0  0
  -23.3396  -29.3737   19.8565 C   0  0  0  0  0  0  0  0  0  0  0  0
  -23.8534  -26.5982   20.7382 C   0  0  0  0  0  0  0  0  0  0  0  0
  -19.3115  -28.3830   24.8390 C   0  0  0  0  0  0  0  0  0  0  0  0
  -28.1128  -16.2443   14.6984 C   0  0  0  0  0  0  0  0  0  0  0  0
  -20.7974  -28.7021   24.9687 C   0  0  0  0  0  0  0  0  0  0  0  0
  -27.5960  -15.7609   16.0546 C   0  0  0  0  0  0  0  0  0  0  0  0
  -29.4502  -15.5993   14.3416 C   0  0  0  0  0  0  0  0  0  0  0  0
  -29.9834  -15.2594   16.7236 C   0  0  0  0  0  0  0  0  0  0  0  0
  -21.1824  -29.9018   24.0946 C   0  0  1  0  0  0  0  0  0  0  0  0
  -22.3400  -28.6061   20.7161 C   0  0  1  0  0  0  0  0  0  0  0  0
  -28.6643  -15.9245   17.1525 C   0  0  2  0  0  0  0  0  0  0  0  0
  -31.2838  -20.3212   22.7907 C   0  0  0  0  0  0  0  0  0  0  0  0
  -26.5558  -20.8873   20.2179 C   0  0  0  0  0  0  0  0  0  0  0  0
  -20.9375  -21.7398   17.4159 C   0  0  0  0  0  0  0  0  0  0  0  0
  -30.1152  -26.7061   18.4945 C   0  0  0  0  0  0  0  0  0  0  0  0
  -21.3173  -24.8717   23.2398 C   0  0  0  0  0  0  0  0  0  0  0  0
  -21.1501  -22.7223   21.9669 C   0  0  0  0  0  0  0  0  0  0  0  0
  -19.3382  -24.4264   21.7772 C   0  0  0  0  0  0  0  0  0  0  0  0
  -28.3344  -23.5655   18.6975 C   0  0  0  0  0  0  0  0  0  0  0  0
  -22.6976  -24.7108   15.8186 C   0  0  0  0  0  0  0  0  0  0  0  0
  -31.9583  -22.8677   20.9502 C   0  0  0  0  0  0  0  0  0  0  0  0
  -32.5271  -22.4912   19.5609 C   0  0  0  0  0  0  0  0  0  0  0  0
  -32.6399  -20.9752   19.3661 C   0  0  0  0  0  0  0  0  0  0  0  0
  -33.1414  -20.5786   17.9739 C   0  0  0  0  0  0  0  0  0  0  0  0
  -33.1846  -19.0644   17.7527 C   0  0  0  0  0  0  0  0  0  0  0  0
  -33.7193  -18.7248   16.3573 C   0  0  0  0  0  0  0  0  0  0  0  0
  -27.0553  -21.9377   21.1950 C   0  0  0  0  0  0  0  0  0  0  0  0
  -33.7877  -17.2212   16.1080 C   0  0  0  0  0  0  0  0  0  0  0  0
  -21.5693  -24.8610   20.6703 C   0  0  1  0  0  0  0  0  0  0  0  0
  -21.3393  -23.1994   17.2710 C   0  0  2  0  0  0  0  0  0  0  0  0
  -28.9845  -26.3058   19.4321 C   0  0  2  0  0  0  0  0  0  1  0  0
  -20.8653  -24.2383   21.9088 C   0  0  0  0  0  0  0  0  0  0  0  0
  -27.3234  -14.3670   18.5158 N   0  0  0  0  0  0  0  0  0  0  0  0
  -29.0284  -20.9293   22.1296 N   0  0  0  0  0  0  0  0  0  0  0  0
  -28.1739  -15.4073   18.4922 N   0  0  0  0  0  0  0  0  0  0  0  0
  -28.4899  -21.8917   21.3615 N   0  0  0  0  0  0  0  0  0  0  0  0
  -22.4968  -27.1544   20.6051 N   0  0  0  0  0  0  0  0  0  0  0  0
  -30.4193  -15.7918   15.4231 N   0  0  0  0  0  0  0  0  0  0  0  0
  -29.3423  -16.9238   19.8870 N   0  0  0  0  0  0  0  0  0  0  0  0
  -27.0824  -14.3391   22.8210 N   0  0  0  0  0  0  0  0  0  0  0  0
  -21.2978  -29.5011   22.7087 N   0  0  0  0  0  0  0  0  0  0  0  0
  -21.1406  -24.2991   19.3940 N   0  0  0  0  0  0  0  0  0  0  0  0
  -32.4983  -16.5785   16.2310 N   0  0  0  0  0  0  0  0  0  0  0  0
  -29.0501  -23.8482   19.9514 N   0  0  0  0  0  0  0  0  0  0  0  0
  -22.2431  -23.3232   16.0925 N   0  3  0  0  0  0  0  0  0  0  0  0
  -28.5207  -16.1146   22.6269 O   0  0  0  0  0  0  0  0  0  0  0  0
  -23.4924  -28.7250   22.7734 O   0  0  0  0  0  0  0  0  0  0  0  0
  -20.1990  -26.7859   20.4609 O   0  0  0  0  0  0  0  0  0  0  0  0
  -23.2401  -23.5912   18.7099 O   0  0  0  0  0  0  0  0  0  0  0  0
  -30.0025  -25.4258   21.3952 O   0  0  0  0  0  0  0  0  0  0  0  0
  -31.9395  -16.8442   14.0233 O   0  0  0  0  0  0  0  0  0  0  0  0
  -23.6925  -10.1051   21.5492 O   0  0  0  0  0  0  0  0  0  0  0  0
  -28.6483  -27.4337   20.2391 O   0  0  0  0  0  0  0  0  0  1  0  0
  -24.2204   -5.1490   19.1909 F   0  0  0  0  0  0  0  0  0  0  0  0
  -24.3191   -7.8756   23.0589 F   0  0  0  0  0  0  0  0  0  0  0  0
  1  2  1  0  0  0  0
  1  5  2  0  0  0  0
  2  6  2  0  0  0  0
  3  8  2  0  0  0  0
  3 15  1  0  0  0  0
  4  9  1  0  0  0  0
  4 15  2  0  0  0  0
  5 17  1  0  0  0  0
  6 19  1  0  0  0  0
  7 10  2  0  0  0  0
  7 18  1  0  0  0  0
  8 22  1  0  0  0  0
  9 22  2  0  0  0  0
 10 23  1  0  0  0  0
 11 12  2  0  0  0  0
 11 24  1  0  0  0  0
 12 25  1  0  0  0  0
 13 20  1  0  0  0  0
 13 23  2  0  0  0  0
 14 25  2  0  0  0  0
 14 26  1  0  0  0  0
 15 27  1  0  0  0  0
 16 27  1  0  0  0  0
 16 29  2  0  0  0  0
 16 31  1  0  0  0  0
 17 19  2  0  0  0  0
 17 37  1  0  0  0  0
 18 20  2  0  0  0  0
 18 38  1  0  0  0  0
 19 46  1  0  0  0  0
 20 39  1  0  0  0  0
 21 28  1  0  0  0  0
 21 30  2  0  0  0  0
 21 58  1  0  0  0  0
 22 89  1  0  0  0  0
 23 90  1  0  0  0  0
 24 26  2  0  0  0  0
 24 89  1  0  0  0  0
 25 91  1  0  0  0  0
 26 92  1  0  0  0  0
 27 70  2  0  0  0  0
 28 49  1  0  0  0  0
 28 71  2  0  0  0  0
 29 72  1  0  0  0  0
 29 76  1  0  0  0  0
 30 73  1  0  0  0  0
 30 81  1  0  0  0  0
 31 77  1  0  0  0  0
 31 83  2  0  0  0  0
 32 47  1  0  0  0  0
 32 78  1  0  0  0  0
 32 84  2  0  0  0  0
 33 66  1  0  0  0  0
 33 74  1  0  0  0  0
 33 85  2  0  0  0  0
 34 67  1  0  0  0  0
 34 79  1  0  0  0  0
 34 86  2  0  0  0  0
 35 68  1  0  0  0  0
 35 81  1  0  0  0  0
 35 87  2  0  0  0  0
 36 75  1  0  0  0  0
 36 80  1  0  0  0  0
 36 88  2  0  0  0  0
 37 40  1  0  0  0  0
 38 47  1  0  0  0  0
 39 74  1  0  0  0  0
 40 42  1  0  0  0  0
 41 43  1  0  0  0  0
 41 44  1  0  0  0  0
 42 46  1  0  0  0  0
 43 48  1  0  0  0  0
 44 75  1  0  0  0  0
 45 48  1  0  0  0  0
 45 75  1  0  0  0  0
 46 78  1  0  0  0  0
 47 74  1  0  0  0  0
 48 72  1  0  0  0  0
 50 64  1  0  0  0  0
 51 67  1  0  0  0  0
 52 68  1  0  0  0  0
 53 69  1  0  0  0  0
 54 69  1  0  0  0  0
 55 69  1  0  0  0  0
 56 81  1  0  0  0  0
 57 82  1  0  0  0  0
 58 59  1  0  0  0  0
 59 60  1  0  0  0  0
 60 61  1  0  0  0  0
 61 62  1  0  0  0  0
 62 63  1  0  0  0  0
 63 65  1  0  0  0  0
 64 73  1  0  0  0  0
 65 80  1  0  0  0  0
 66 69  1  0  0  0  0
 66 79  1  0  0  0  0
 67 82  1  0  0  0  0
 68 90  1  0  0  0  0
 70 72  1  0  0  0  0
 71 73  1  0  0  0  0
M  CHG  1  82   1
M  ISO  4  36 100  68 101  80 100  90 101
M  END
> <Batch ID>
0021

> <Smiles>
CCn1nc(C)c(CCCCCCC[100NH:0][100C:0](=O)N2CCCC(n3nc(-c4ccc(Oc5ccc(F)cc5F)cc4)c(C(N)=O)c3N)C2)c1N(C)C(=O)[101CH:1](C)[101O:1]c1ccc2c(c1)CN(C(=O)C(NC(=O)C(C)NC)C(C)(C)C)C(C(=O)NC1CCCc3ccccc31)C2

> <Shape>
0.217

> <Color>
0.077

> <Negative vol penalty>
0.000

$$$$

  -OEChem-04052316123D

 94104  0     1  0  0  0  0  0999 V2000
  -31.0734  -29.6791   26.7878 C   0  0  0  0  0  0  0  0  0  0  0  0
  -31.1524  -28.4169   26.2083 C   0  0  0  0  0  0  0  0  0  0  0  0
  -23.2281   -9.8200   20.0347 C   0  0  0  0  0  0  0  0  0  0  0  0
  -23.9285   -9.9817   22.3412 C   0  0  0  0  0  0  0  0  0  0  0  0
  -31.2644  -30.8173   26.0055 C   0  0  0  0  0  0  0  0  0  0  0  0
  -31.4215  -28.2920   24.8458 C   0  0  0  0  0  0  0  0  0  0  0  0
  -34.8696  -24.7149   23.8662 C   0  0  0  0  0  0  0  0  0  0  0  0
  -22.5458   -8.6385   20.3246 C   0  0  0  0  0  0  0  0  0  0  0  0
  -23.2462   -8.8002   22.6313 C   0  0  0  0  0  0  0  0  0  0  0  0
  -34.4379  -23.3895   23.8950 C   0  0  0  0  0  0  0  0  0  0  0  0
  -23.3007   -5.3772   20.7918 C   0  0  0  0  0  0  0  0  0  0  0  0
  -23.4503   -4.3094   19.9069 C   0  0  0  0  0  0  0  0  0  0  0  0
  -34.2954  -23.3899   21.4869 C   0  0  0  0  0  0  0  0  0  0  0  0
  -21.0697   -4.3178   19.4944 C   0  0  0  0  0  0  0  0  0  0  0  0
  -27.9649  -17.3498   22.4747 C   0  0  0  0  0  0  0  0  0  0  0  0
  -23.9195  -10.4916   21.0429 C   0  0  0  0  0  0  0  0  0  0  0  0
  -24.1183  -13.0238   20.8060 C   0  0  0  0  0  0  0  0  0  0  0  0
  -31.5456  -30.7061   24.6346 C   0  0  0  0  0  0  0  0  0  0  0  0
  -35.0072  -25.3923   22.6461 C   0  0  0  0  0  0  0  0  0  0  0  0
  -31.6152  -29.4298   24.0441 C   0  0  0  0  0  0  0  0  0  0  0  0
  -34.7314  -24.7231   21.4452 C   0  0  0  0  0  0  0  0  0  0  0  0
  -30.0928  -18.2567   21.6676 C   0  0  0  0  0  0  0  0  0  0  0  0
  -29.8817  -15.9033   22.2550 C   0  0  0  0  0  0  0  0  0  0  0  0
  -28.7483  -18.4030   22.0162 C   0  0  0  0  0  0  0  0  0  0  0  0
  -22.5548   -8.1286   21.6229 C   0  0  0  0  0  0  0  0  0  0  0  0
  -34.1480  -22.7277   22.7055 C   0  0  0  0  0  0  0  0  0  0  0  0
  -22.0356   -5.9153   21.0281 C   0  0  0  0  0  0  0  0  0  0  0  0
  -22.3348   -3.7798   19.2582 C   0  0  0  0  0  0  0  0  0  0  0  0
  -20.9202   -5.3856   20.3794 C   0  0  0  0  0  0  0  0  0  0  0  0
  -28.5347  -16.0718   22.5996 C   0  0  0  0  0  0  0  0  0  0  0  0
  -30.6457  -16.9785   21.7971 C   0  0  0  0  0  0  0  0  0  0  0  0
  -24.6250  -11.7119   20.7439 C   0  0  0  0  0  0  0  0  0  0  0  0
  -26.6987  -17.9297   22.7042 C   0  0  0  0  0  0  0  0  0  0  0  0
  -25.1742  -13.8178   20.4305 C   0  0  0  0  0  0  0  0  0  0  0  0
  -22.8101  -13.4837   21.1705 C   0  0  0  0  0  0  0  0  0  0  0  0
  -33.6606  -27.9589   21.3412 C   0  0  0  0  0  0  0  0  0  0  0  0
  -30.9561  -14.0078   21.0151 C   0  0  0  0  0  0  0  0  0  0  0  0
  -35.8630  -27.4507   19.0146 C   0  0  0  0  0  0  0  0  0  0  0  0
  -37.9275  -25.2586   17.4083 C   0  0  0  0  0  0  0  0  0  0  0  0
  -31.6977  -31.9663   23.8202 C   0  0  0  0  0  0  0  0  0  0  0  0
  -35.4995  -26.8135   22.6305 C   0  0  0  0  0  0  0  0  0  0  0  0
  -34.8825  -25.3992   20.1079 C   0  0  0  0  0  0  0  0  0  0  0  0
  -32.3497  -31.7370   22.4591 C   0  0  0  0  0  0  0  0  0  0  0  0
  -29.3599  -13.1071   17.9146 C   0  0  0  0  0  0  0  0  0  0  0  0
  -31.7200  -30.5357   21.7612 C   0  0  0  0  0  0  0  0  0  0  0  0
  -27.9369  -12.7479   18.3401 C   0  0  0  0  0  0  0  0  0  0  0  0
  -27.7367  -24.3308   23.3810 C   0  0  0  0  0  0  0  0  0  0  0  0
  -30.3784  -12.7078   18.9777 C   0  0  0  0  0  0  0  0  0  0  0  0
  -28.6722  -12.9201   20.7597 C   0  0  0  0  0  0  0  0  0  0  0  0
  -31.9297  -29.2527   22.5745 C   0  0  1  0  0  0  0  0  0  0  0  0
  -35.1109  -27.5665   21.3620 C   0  0  1  0  0  0  0  0  0  0  0  0
  -29.0735  -23.6516   23.5233 C   0  0  1  0  0  0  0  0  0  0  0  0
  -28.1528  -23.2737   22.3919 C   0  0  1  0  0  0  0  0  0  0  0  0
  -27.6106  -13.3337   19.7253 C   0  0  2  0  0  0  0  0  0  0  0  0
  -25.4791  -17.2660   23.1981 C   0  0  0  0  0  0  0  0  0  0  0  0
  -30.3287  -24.4040   23.2457 C   0  0  0  0  0  0  0  0  0  0  0  0
  -31.6961  -14.5238   23.3492 C   0  0  0  0  0  0  0  0  0  0  0  0
  -39.5768  -25.1276   15.5216 C   0  0  0  0  0  0  0  0  0  0  0  0
  -28.0899  -21.0281   20.0983 C   0  0  0  0  0  0  0  0  0  0  0  0
  -33.5652  -27.4780   17.0073 C   0  0  0  0  0  0  0  0  0  0  0  0
  -35.1027  -26.4203   15.3383 C   0  0  0  0  0  0  0  0  0  0  0  0
  -35.6235  -28.6818   16.2532 C   0  0  0  0  0  0  0  0  0  0  0  0
  -40.1222  -24.4649   19.2282 C   0  0  0  0  0  0  0  0  0  0  0  0
  -30.9559  -19.3881   21.1690 C   0  0  0  0  0  0  0  0  0  0  0  0
  -27.4639  -21.9149   22.3881 C   0  0  0  0  0  0  0  0  0  0  0  0
  -31.9277  -19.9305   22.2192 C   0  0  0  0  0  0  0  0  0  0  0  0
  -32.8542  -21.0149   21.6816 C   0  0  0  0  0  0  0  0  0  1  0  0
  -30.5071  -14.5529   22.3800 C   0  0  1  0  0  0  0  0  0  0  0  0
  -35.9007  -26.6517   17.7343 C   0  0  1  0  0  0  0  0  0  0  0  0
  -39.3899  -25.3572   17.0132 C   0  0  2  0  0  0  0  0  0  0  0  0
  -28.2509  -20.8413   21.6107 C   0  0  1  0  0  0  0  0  0  0  0  0
  -35.0432  -27.2955   16.6084 C   0  0  0  0  0  0  0  0  0  0  0  0
  -25.9033  -11.6705   20.3591 N   0  0  0  0  0  0  0  0  0  0  0  0
  -26.6668  -19.2338   22.4207 N   0  0  0  0  0  0  0  0  0  0  0  0
  -27.9188  -19.4918   22.0074 N   0  0  0  0  0  0  0  0  0  0  0  0
  -26.2088  -12.9664   20.1759 N   0  0  0  0  0  0  0  0  0  0  0  0
  -35.3608  -26.7910   20.1453 N   0  0  0  0  0  0  0  0  0  0  0  0
  -30.0200  -13.2578   20.2861 N   0  0  0  0  0  0  0  0  0  0  0  0
  -25.3094  -15.1543   20.2965 N   0  0  0  0  0  0  0  0  0  0  0  0
  -21.8440  -12.5339   21.5297 N   0  0  0  0  0  0  0  0  0  0  0  0
  -33.2791  -28.7593   22.4011 N   0  0  0  0  0  0  0  0  0  0  0  0
  -37.3104  -26.4916   17.3943 N   0  0  0  0  0  0  0  0  0  0  0  0
  -40.1949  -24.3419   17.7495 N   0  3  0  0  0  0  0  0  0  0  0  0
  -22.5020  -14.6996   21.1617 O   0  0  0  0  0  0  0  0  0  0  0  0
  -32.9413  -27.5659   20.4302 O   0  0  0  0  0  0  0  0  0  0  0  0
  -32.1012  -14.2336   20.5952 O   0  0  0  0  0  0  0  0  0  0  0  0
  -36.2710  -28.6148   19.0131 O   0  0  0  0  0  0  0  0  0  0  0  0
  -37.3857  -24.1938   17.6967 O   0  0  0  0  0  0  0  0  0  0  0  0
  -21.8889   -6.9759   21.9063 O   0  0  0  0  0  0  0  0  0  0  0  0
  -33.7258  -21.4343   22.7308 O   0  0  0  0  0  0  0  0  0  1  0  0
  -22.4788   -2.7554   18.4073 F   0  0  0  0  0  0  0  0  0  0  0  0
  -19.7025   -5.8991   20.6015 F   0  0  0  0  0  0  0  0  0  0  0  0
  -27.8080  -15.0345   23.0378 F   0  0  0  0  0  0  0  0  0  0  0  0
  -31.9342  -16.7825   21.4754 F   0  0  0  0  0  0  0  0  0  0  0  0
  1  2  1  0  0  0  0
  1  5  2  0  0  0  0
  2  6  2  0  0  0  0
  3  8  2  0  0  0  0
  3 16  1  0  0  0  0
  4  9  1  0  0  0  0
  4 16  2  0  0  0  0
  5 18  1  0  0  0  0
  6 20  1  0  0  0  0
  7 10  2  0  0  0  0
  7 19  1  0  0  0  0
  8 25  1  0  0  0  0
  9 25  2  0  0  0  0
 10 26  1  0  0  0  0
 11 12  2  0  0  0  0
 11 27  1  0  0  0  0
 12 28  1  0  0  0  0
 13 21  1  0  0  0  0
 13 26  2  0  0  0  0
 14 28  2  0  0  0  0
 14 29  1  0  0  0  0
 15 24  1  0  0  0  0
 15 30  2  0  0  0  0
 15 33  1  0  0  0  0
 16 32  1  0  0  0  0
 17 32  1  0  0  0  0
 17 34  2  0  0  0  0
 17 35  1  0  0  0  0
 18 20  2  0  0  0  0
 18 40  1  0  0  0  0
 19 21  2  0  0  0  0
 19 41  1  0  0  0  0
 20 50  1  0  0  0  0
 21 42  1  0  0  0  0
 22 24  2  0  0  0  0
 22 31  1  0  0  0  0
 22 64  1  0  0  0  0
 23 30  1  0  0  0  0
 23 31  2  0  0  0  0
 23 68  1  0  0  0  0
 24 75  1  0  0  0  0
 25 89  1  0  0  0  0
 26 90  1  0  0  0  0
 27 29  2  0  0  0  0
 27 89  1  0  0  0  0
 28 91  1  0  0  0  0
 29 92  1  0  0  0  0
 30 93  1  0  0  0  0
 31 94  1  0  0  0  0
 32 73  2  0  0  0  0
 33 55  1  0  0  0  0
 33 74  2  0  0  0  0
 34 76  1  0  0  0  0
 34 79  1  0  0  0  0
 35 80  1  0  0  0  0
 35 84  2  0  0  0  0
 36 51  1  0  0  0  0
 36 81  1  0  0  0  0
 36 85  2  0  0  0  0
 37 68  1  0  0  0  0
 37 78  1  0  0  0  0
 37 86  2  0  0  0  0
 38 69  1  0  0  0  0
 38 77  1  0  0  0  0
 38 87  2  0  0  0  0
 39 70  1  0  0  0  0
 39 82  1  0  0  0  0
 39 88  2  0  0  0  0
 40 43  1  0  0  0  0
 41 51  1  0  0  0  0
 42 77  1  0  0  0  0
 43 45  1  0  0  0  0
 44 46  1  0  0  0  0
 44 48  1  0  0  0  0
 45 50  1  0  0  0  0
 46 54  1  0  0  0  0
 47 52  1  0  0  0  0
 47 53  1  0  0  0  0
 48 78  1  0  0  0  0
 49 54  1  0  0  0  0
 49 78  1  0  0  0  0
 50 81  1  0  0  0  0
 51 77  1  0  0  0  0
 52 53  1  0  0  0  0
 52 56  1  0  0  0  0
 53 65  1  0  0  0  0
 54 76  1  0  0  0  0
 57 68  1  0  0  0  0
 58 70  1  0  0  0  0
 59 71  1  0  0  0  0
 60 72  1  0  0  0  0
 61 72  1  0  0  0  0
 62 72  1  0  0  0  0
 63 83  1  0  0  0  0
 64 66  1  0  0  0  0
 65 71  1  0  0  0  0
 66 67  1  0  0  0  0
 67 90  1  0  0  0  0
 69 72  1  0  0  0  0
 69 82  1  0  0  0  0
 70 83  1  0  0  0  0
 71 75  1  0  0  0  0
 73 76  1  0  0  0  0
 74 75  1  0  0  0  0
M  CHG  1  83   1
M  ISO  4  37 100  67 101  68 100  90 101
M  END
> <Batch ID>
0021

> <Smiles>
CNC(C)C(=O)NC(C(=O)N1Cc2cc([101O:1][101CH2:1]CCc3c(F)c([100CH:0](C)[100C:0](=O)N4CCCC(n5nc(-c6ccc(Oc7ccc(F)cc7F)cc6)c(C(N)=O)c5N)C4)c(F)c4c(C)nn(C(C)CC5CC5C)c34)ccc2CC1C(=O)NC1CCCc2ccccc21)C(C)(C)C

> <Shape>
0.178

> <Color>
0.179

> <Negative vol penalty>
0.000

$$$$

  -OEChem-04052316123D

 81 89  0     1  0  0  0  0  0999 V2000
  -29.1497  -11.8769   18.5507 C   0  0  0  0  0  0  0  0  0  0  0  0
  -28.0543  -12.2426   19.3263 C   0  0  0  0  0  0  0  0  0  0  0  0
  -24.1497  -32.0074   20.5960 C   0  0  0  0  0  0  0  0  0  0  0  0
  -25.2349  -30.7298   22.3359 C   0  0  0  0  0  0  0  0  0  0  0  0
  -30.3397  -12.5976   18.6431 C   0  0  0  0  0  0  0  0  0  0  0  0
  -28.1485  -13.3287   20.1958 C   0  0  0  0  0  0  0  0  0  0  0  0
  -23.7102  -17.3015   21.6185 C   0  0  0  0  0  0  0  0  0  0  0  0
  -24.9743  -33.0957   20.8808 C   0  0  0  0  0  0  0  0  0  0  0  0
  -26.0596  -31.8181   22.6206 C   0  0  0  0  0  0  0  0  0  0  0  0
  -22.8422  -17.3882   22.7061 C   0  0  0  0  0  0  0  0  0  0  0  0
  -25.1460  -35.5513   23.1969 C   0  0  0  0  0  0  0  0  0  0  0  0
  -24.5509  -36.8101   23.2803 C   0  0  0  0  0  0  0  0  0  0  0  0
  -24.3366  -18.9575   23.7659 C   0  0  0  0  0  0  0  0  0  0  0  0
  -25.9537  -37.5927   21.4756 C   0  0  0  0  0  0  0  0  0  0  0  0
  -24.2800  -30.8244   21.3236 C   0  0  0  0  0  0  0  0  0  0  0  0
  -23.6766  -28.6615   20.1130 C   0  0  0  0  0  0  0  0  0  0  0  0
  -30.4455  -13.6990   19.5070 C   0  0  0  0  0  0  0  0  0  0  0  0
  -24.9052  -18.0350   21.6013 C   0  0  0  0  0  0  0  0  0  0  0  0
  -29.3414  -14.0640   20.3008 C   0  0  0  0  0  0  0  0  0  0  0  0
  -25.2169  -18.8802   22.6758 C   0  0  0  0  0  0  0  0  0  0  0  0
  -25.9293  -33.0011   21.8930 C   0  0  0  0  0  0  0  0  0  0  0  0
  -23.1567  -18.2141   23.7813 C   0  0  0  0  0  0  0  0  0  0  0  0
  -26.1450  -35.3133   22.2530 C   0  0  0  0  0  0  0  0  0  0  0  0
  -24.9547  -37.8308   22.4196 C   0  0  0  0  0  0  0  0  0  0  0  0
  -26.5488  -36.3340   21.3923 C   0  0  0  0  0  0  0  0  0  0  0  0
  -19.5405  -22.2449   24.3595 C   0  0  0  0  0  0  0  0  0  0  0  0
  -23.4280  -29.7000   21.0303 C   0  0  0  0  0  0  0  0  0  0  0  0
  -19.8761  -20.8953   24.1412 C   0  0  0  0  0  0  0  0  0  0  0  0
  -22.5729  -27.8494   20.2063 C   0  0  0  0  0  0  0  0  0  0  0  0
  -19.8138  -22.8643   23.1644 C   0  0  0  0  0  0  0  0  0  0  0  0
  -24.8045  -28.4499   19.2534 C   0  0  0  0  0  0  0  0  0  0  0  0
  -27.9935  -17.2895   21.4976 C   0  0  0  0  0  0  0  0  0  0  0  0
  -28.3595  -20.5004   21.2174 C   0  0  0  0  0  0  0  0  0  0  0  0
  -27.0876  -23.6199   21.7628 C   0  0  0  0  0  0  0  0  0  0  0  0
  -18.7540  -25.1489   23.2273 C   0  0  0  0  0  0  0  0  0  0  0  0
  -31.7673  -14.4183   19.6076 C   0  0  0  0  0  0  0  0  0  0  0  0
  -25.8180  -17.9509   20.4088 C   0  0  0  0  0  0  0  0  0  0  0  0
  -26.4776  -19.7040   22.6970 C   0  0  0  0  0  0  0  0  0  0  0  0
  -31.6667  -15.7866   20.2770 C   0  0  0  0  0  0  0  0  0  0  0  0
  -18.1303  -28.5820   22.5189 C   0  0  0  0  0  0  0  0  0  0  0  0
  -30.8302  -15.6981   21.5494 C   0  0  0  0  0  0  0  0  0  0  0  0
  -19.4734  -29.0935   21.9930 C   0  0  0  0  0  0  0  0  0  0  0  0
  -18.3122  -27.5593   23.6391 C   0  0  0  0  0  0  0  0  0  0  0  0
  -20.5414  -26.9457   22.7888 C   0  0  0  0  0  0  0  0  0  0  0  0
  -29.3968  -15.2514   21.2374 C   0  0  1  0  0  0  0  0  0  0  0  0
  -27.2559  -18.3482   20.7277 C   0  0  1  0  0  0  0  0  0  0  0  0
  -20.4107  -27.9298   21.6149 C   0  0  2  0  0  0  0  0  0  0  0  0
  -27.6334  -26.0505   21.4597 C   0  0  0  0  0  0  0  0  0  0  0  0
  -30.2786  -20.3624   23.5855 C   0  0  0  0  0  0  0  0  0  0  0  0
  -30.0413  -22.8424   23.8329 C   0  0  0  0  0  0  0  0  0  0  0  0
  -31.0061  -21.8861   21.7407 C   0  0  0  0  0  0  0  0  0  0  0  0
  -20.7017  -22.0367   20.9619 C   0  0  0  0  0  0  0  0  0  0  0  0
  -24.7457  -24.0457   20.0041 C   0  0  0  0  0  0  0  0  0  0  0  0
  -19.7820  -19.7444   25.1109 C   0  0  0  0  0  0  0  0  0  0  0  0
  -20.8987  -19.7275   26.1569 C   0  0  0  0  0  0  0  0  0  0  0  0
  -22.2864  -19.5369   25.5557 C   0  0  0  0  0  0  0  0  0  1  0  0
  -28.5290  -21.6457   22.1861 C   0  0  1  0  0  0  0  0  0  0  0  0
  -26.9602  -24.8289   20.8537 C   0  0  2  0  0  0  0  0  0  0  0  0
  -29.9409  -21.6673   22.8371 C   0  0  0  0  0  0  0  0  0  0  0  0
  -22.2581  -29.5627   21.6600 N   0  0  0  0  0  0  0  0  0  0  0  0
  -20.3279  -20.6698   22.9046 N   0  0  0  0  0  0  0  0  0  0  0  0
  -21.7617  -28.4284   21.1373 N   0  0  0  0  0  0  0  0  0  0  0  0
  -20.2780  -21.8860   22.3352 N   0  0  0  0  0  0  0  0  0  0  0  0
  -27.3408  -19.5827   21.5106 N   0  0  0  0  0  0  0  0  0  0  0  0
  -19.2084  -26.4845   23.2074 N   0  0  0  0  0  0  0  0  0  0  0  0
  -22.2268  -26.7037   19.5819 N   0  0  0  0  0  0  0  0  0  0  0  0
  -25.8514  -29.3813   19.2833 N   0  0  0  0  0  0  0  0  0  0  0  0
  -19.6823  -24.2171   22.7639 N   0  0  0  0  0  0  0  0  0  0  0  0
  -28.6287  -16.3550   20.7022 N   0  0  0  0  0  0  0  0  0  0  0  0
  -28.1929  -22.8581   21.4477 N   0  0  0  0  0  0  0  0  0  0  0  0
  -25.5242  -25.1515   20.6191 N   0  3  0  0  0  0  0  0  0  0  0  0
  -24.8742  -27.4728   18.4699 O   0  0  0  0  0  0  0  0  0  0  0  0
  -27.9879  -17.3191   22.7227 O   0  0  0  0  0  0  0  0  0  0  0  0
  -29.0989  -20.4267   20.2327 O   0  0  0  0  0  0  0  0  0  0  0  0
  -26.2889  -23.3777   22.6650 O   0  0  0  0  0  0  0  0  0  0  0  0
  -17.6151  -24.8564   23.6004 O   0  0  0  0  0  0  0  0  0  0  0  0
  -26.7343  -34.0628   22.1710 O   0  0  0  0  0  0  0  0  0  0  0  0
  -22.3116  -18.3001   24.8444 O   0  0  0  0  0  0  0  0  0  1  0  0
  -24.3821  -39.0391   22.4987 F   0  0  0  0  0  0  0  0  0  0  0  0
  -27.5072  -36.1109   20.4826 F   0  0  0  0  0  0  0  0  0  0  0  0
  -18.9364  -22.9210   25.7900 Cl  0  0  0  0  0  0  0  0  0  0  0  0
  1  2  1  0  0  0  0
  1  5  2  0  0  0  0
  2  6  2  0  0  0  0
  3  8  2  0  0  0  0
  3 15  1  0  0  0  0
  4  9  1  0  0  0  0
  4 15  2  0  0  0  0
  5 17  1  0  0  0  0
  6 19  1  0  0  0  0
  7 10  2  0  0  0  0
  7 18  1  0  0  0  0
  8 21  1  0  0  0  0
  9 21  2  0  0  0  0
 10 22  1  0  0  0  0
 11 12  2  0  0  0  0
 11 23  1  0  0  0  0
 12 24  1  0  0  0  0
 13 20  1  0  0  0  0
 13 22  2  0  0  0  0
 14 24  2  0  0  0  0
 14 25  1  0  0  0  0
 15 27  1  0  0  0  0
 16 27  1  0  0  0  0
 16 29  2  0  0  0  0
 16 31  1  0  0  0  0
 17 19  2  0  0  0  0
 17 36  1  0  0  0  0
 18 20  2  0  0  0  0
 18 37  1  0  0  0  0
 19 45  1  0  0  0  0
 20 38  1  0  0  0  0
 21 77  1  0  0  0  0
 22 78  1  0  0  0  0
 23 25  2  0  0  0  0
 23 77  1  0  0  0  0
 24 79  1  0  0  0  0
 25 80  1  0  0  0  0
 26 28  1  0  0  0  0
 26 30  2  0  0  0  0
 26 81  1  0  0  0  0
 27 60  2  0  0  0  0
 28 54  1  0  0  0  0
 28 61  2  0  0  0  0
 29 62  1  0  0  0  0
 29 66  1  0  0  0  0
 30 63  1  0  0  0  0
 30 68  1  0  0  0  0
 31 67  1  0  0  0  0
 31 72  2  0  0  0  0
 32 46  1  0  0  0  0
 32 69  1  0  0  0  0
 32 73  2  0  0  0  0
 33 57  1  0  0  0  0
 33 64  1  0  0  0  0
 33 74  2  0  0  0  0
 34 58  1  0  0  0  0
 34 70  1  0  0  0  0
 34 75  2  0  0  0  0
 35 65  1  0  0  0  0
 35 68  1  0  0  0  0
 35 76  2  0  0  0  0
 36 39  1  0  0  0  0
 37 46  1  0  0  0  0
 38 64  1  0  0  0  0
 39 41  1  0  0  0  0
 40 42  1  0  0  0  0
 40 43  1  0  0  0  0
 41 45  1  0  0  0  0
 42 47  1  0  0  0  0
 43 65  1  0  0  0  0
 44 47  1  0  0  0  0
 44 65  1  0  0  0  0
 45 69  1  0  0  0  0
 46 64  1  0  0  0  0
 47 62  1  0  0  0  0
 48 58  1  0  0  0  0
 49 59  1  0  0  0  0
 50 59  1  0  0  0  0
 51 59  1  0  0  0  0
 52 63  1  0  0  0  0
 53 71  1  0  0  0  0
 54 55  1  0  0  0  0
 55 56  1  0  0  0  0
 56 78  1  0  0  0  0
 57 59  1  0  0  0  0
 57 70  1  0  0  0  0
 58 71  1  0  0  0  0
 60 62  1  0  0  0  0
 61 63  1  0  0  0  0
M  CHG  1  71   1
M  ISO  4  35 100  56 101  68 100  78 101
M  END
> <Batch ID>
0021

> <Smiles>
CNC(C)C(=O)NC(C(=O)N1Cc2cc([101O:1][101CH2:1]CCc3nn(C)c([100NH:0][100C:0](=O)N4CCCC(n5nc(-c6ccc(Oc7ccc(F)cc7F)cc6)c(C(N)=O)c5N)C4)c3Cl)ccc2CC1C(=O)NC1CCCc2ccccc21)C(C)(C)C

> <Shape>
0.220

> <Color>
0.062

> <Negative vol penalty>
0.000

$$$$

  -OEChem-04052316123D

 87 95  0     1  0  0  0  0  0999 V2000
  -26.1967  -35.3907   22.9487 C   0  0  0  0  0  0  0  0  0  0  0  0
  -26.7244  -34.1225   22.7283 C   0  0  0  0  0  0  0  0  0  0  0  0
  -23.9881  -15.6026   25.4334 C   0  0  0  0  0  0  0  0  0  0  0  0
  -24.3652  -17.7606   24.4147 C   0  0  0  0  0  0  0  0  0  0  0  0
  -24.9328  -35.5287   23.5211 C   0  0  0  0  0  0  0  0  0  0  0  0
  -25.9890  -32.9915   23.0811 C   0  0  0  0  0  0  0  0  0  0  0  0
  -26.0655  -29.4251   19.4867 C   0  0  0  0  0  0  0  0  0  0  0  0
  -23.4881  -16.2288   26.5751 C   0  0  0  0  0  0  0  0  0  0  0  0
  -23.8652  -18.3869   25.5564 C   0  0  0  0  0  0  0  0  0  0  0  0
  -27.2139  -28.6402   19.3928 C   0  0  0  0  0  0  0  0  0  0  0  0
  -20.8399  -19.0539   26.9067 C   0  0  0  0  0  0  0  0  0  0  0  0
  -19.9394  -20.1038   26.7263 C   0  0  0  0  0  0  0  0  0  0  0  0
  -26.0991  -26.8751   20.6014 C   0  0  0  0  0  0  0  0  0  0  0  0
  -21.4498  -21.5970   27.8780 C   0  0  0  0  0  0  0  0  0  0  0  0
  -24.4267  -16.3685   24.3532 C   0  0  0  0  0  0  0  0  0  0  0  0
  -24.2163  -15.3142   22.0398 C   0  0  0  0  0  0  0  0  0  0  0  0
  -24.1776  -34.3987   23.8723 C   0  0  0  0  0  0  0  0  0  0  0  0
  -24.9270  -28.9443   20.1492 C   0  0  0  0  0  0  0  0  0  0  0  0
  -24.7145  -33.1146   23.6600 C   0  0  0  0  0  0  0  0  0  0  0  0
  -24.9366  -27.6549   20.7001 C   0  0  0  0  0  0  0  0  0  0  0  0
  -30.8948  -20.0101   18.8233 C   0  0  0  0  0  0  0  0  0  0  0  0
  -30.7473  -18.6311   18.6737 C   0  0  0  0  0  0  0  0  0  0  0  0
  -30.1561  -20.8814   18.0228 C   0  0  0  0  0  0  0  0  0  0  0  0
  -29.8612  -18.1235   17.7235 C   0  0  0  0  0  0  0  0  0  0  0  0
  -29.2700  -20.3738   17.0726 C   0  0  0  0  0  0  0  0  0  0  0  0
  -23.4266  -17.6209   26.6366 C   0  0  0  0  0  0  0  0  0  0  0  0
  -27.2318  -27.3662   19.9527 C   0  0  0  0  0  0  0  0  0  0  0  0
  -22.0453  -19.2755   27.5728 C   0  0  0  0  0  0  0  0  0  0  0  0
  -20.2444  -21.3753   27.2120 C   0  0  0  0  0  0  0  0  0  0  0  0
  -22.3502  -20.5471   28.0584 C   0  0  0  0  0  0  0  0  0  0  0  0
  -29.1225  -18.9949   16.9230 C   0  0  0  0  0  0  0  0  0  0  0  0
  -24.9439  -15.7222   23.1738 C   0  0  0  0  0  0  0  0  0  0  0  0
  -25.1584  -14.7584   21.2091 C   0  0  0  0  0  0  0  0  0  0  0  0
  -22.8143  -15.4276   21.7621 C   0  0  0  0  0  0  0  0  0  0  0  0
  -23.2674  -29.8520   22.7038 C   0  0  0  0  0  0  0  0  0  0  0  0
  -21.2676  -27.4765   21.7656 C   0  0  0  0  0  0  0  0  0  0  0  0
  -20.8429  -24.5519   20.0587 C   0  0  0  0  0  0  0  0  0  0  0  0
  -31.0693  -15.5339   20.6521 C   0  0  0  0  0  0  0  0  0  0  0  0
  -22.8360  -34.5985   24.5318 C   0  0  0  0  0  0  0  0  0  0  0  0
  -23.6871  -29.7930   20.2186 C   0  0  0  0  0  0  0  0  0  0  0  0
  -23.7336  -27.0843   21.4041 C   0  0  0  0  0  0  0  0  0  0  0  0
  -21.9648  -33.3450   24.5324 C   0  0  0  0  0  0  0  0  0  0  0  0
  -29.3637  -12.4791   21.3122 C   0  0  0  0  0  0  0  0  0  0  0  0
  -22.7766  -32.1309   24.9726 C   0  0  0  0  0  0  0  0  0  0  0  0
  -27.9719  -12.9271   21.7619 C   0  0  0  0  0  0  0  0  0  0  0  0
  -30.4503  -13.4315   21.8066 C   0  0  0  0  0  0  0  0  0  0  0  0
  -28.8433  -15.2971   21.9111 C   0  0  0  0  0  0  0  0  0  0  0  0
  -23.9370  -31.8633   24.0065 C   0  0  1  0  0  0  0  0  0  0  0  0
  -22.7583  -29.4015   21.3638 C   0  0  1  0  0  0  0  0  0  0  0  0
  -27.7089  -14.3986   21.3894 C   0  0  2  0  0  0  0  0  0  0  0  0
  -31.8455  -20.5541   19.8432 C   0  0  0  0  0  0  0  0  0  0  0  0
  -29.7183  -16.6397   17.5776 C   0  0  0  0  0  0  0  0  0  0  0  0
  -19.1043  -22.8294   19.5040 C   0  0  0  0  0  0  0  0  0  0  0  0
  -21.5008  -26.3364   24.5862 C   0  0  0  0  0  0  0  0  0  0  0  0
  -20.5600  -24.1844   23.7191 C   0  0  0  0  0  0  0  0  0  0  0  0
  -19.1945  -26.2696   23.6214 C   0  0  0  0  0  0  0  0  0  0  0  0
  -27.0995  -21.2972   16.2591 C   0  0  0  0  0  0  0  0  0  0  0  0
  -21.0934  -25.0657   17.1549 C   0  0  0  0  0  0  0  0  0  0  0  0
  -30.3193  -22.3712   18.1896 C   0  0  0  0  0  0  0  0  0  0  0  0
  -31.5414  -17.6981   19.5329 C   0  0  0  0  0  0  0  0  0  0  0  0
  -29.1651  -23.0398   18.9445 C   0  0  0  0  0  0  0  0  0  0  0  0
  -29.3104  -24.5595   19.0364 C   0  0  0  0  0  0  0  0  0  0  0  0
  -28.1679  -25.1836   19.8261 C   0  0  0  0  0  0  0  0  0  1  0  0
  -21.1563  -25.9980   22.0499 C   0  0  1  0  0  0  0  0  0  0  0  0
  -19.7879  -24.1130   19.0593 C   0  0  2  0  0  0  0  0  0  0  0  0
  -20.6264  -25.7083   23.4826 C   0  0  0  0  0  0  0  0  0  0  0  0
  -26.2476  -15.4487   23.0759 N   0  0  0  0  0  0  0  0  0  0  0  0
  -26.3466  -14.8629   21.8705 N   0  0  0  0  0  0  0  0  0  0  0  0
  -22.5475  -27.9551   21.4513 N   0  0  0  0  0  0  0  0  0  0  0  0
  -30.1417  -14.8101   21.4192 N   0  0  0  0  0  0  0  0  0  0  0  0
  -25.0780  -14.1954   19.9848 N   0  0  0  0  0  0  0  0  0  0  0  0
  -21.9888  -16.0252   22.7243 N   0  0  0  0  0  0  0  0  0  0  0  0
  -28.5265  -21.2705   16.2680 N   0  0  0  0  0  0  0  0  0  0  0  0
  -23.4551  -31.2173   22.8044 N   0  0  0  0  0  0  0  0  0  0  0  0
  -20.3328  -25.4382   20.9837 N   0  0  0  0  0  0  0  0  0  0  0  0
  -30.6958  -16.8311   20.3229 N   0  0  0  0  0  0  0  0  0  0  0  0
  -20.4057  -23.8780   17.7236 N   0  3  0  0  0  0  0  0  0  0  0  0
  -22.3059  -14.9965   20.6994 O   0  0  0  0  0  0  0  0  0  0  0  0
  -23.4733  -29.0224   23.5819 O   0  0  0  0  0  0  0  0  0  0  0  0
  -20.2551  -28.1794   21.8134 O   0  0  0  0  0  0  0  0  0  0  0  0
  -22.0025  -24.1461   20.0246 O   0  0  0  0  0  0  0  0  0  0  0  0
  -32.1481  -15.0574   20.2830 O   0  0  0  0  0  0  0  0  0  0  0  0
  -22.9385  -18.2323   27.7504 O   0  0  0  0  0  0  0  0  0  0  0  0
  -28.3517  -26.5982   19.8631 O   0  0  0  0  0  0  0  0  0  1  0  0
  -19.3802  -22.3837   27.0374 F   0  0  0  0  0  0  0  0  0  0  0  0
  -23.5072  -20.7663   28.6981 F   0  0  0  0  0  0  0  0  0  0  0  0
  -28.0215  -18.3591   15.7427 Cl  0  0  0  0  0  0  0  0  0  0  0  0
  1  2  1  0  0  0  0
  1  5  2  0  0  0  0
  2  6  2  0  0  0  0
  3  8  2  0  0  0  0
  3 15  1  0  0  0  0
  4  9  1  0  0  0  0
  4 15  2  0  0  0  0
  5 17  1  0  0  0  0
  6 19  1  0  0  0  0
  7 10  2  0  0  0  0
  7 18  1  0  0  0  0
  8 26  1  0  0  0  0
  9 26  2  0  0  0  0
 10 27  1  0  0  0  0
 11 12  2  0  0  0  0
 11 28  1  0  0  0  0
 12 29  1  0  0  0  0
 13 20  1  0  0  0  0
 13 27  2  0  0  0  0
 14 29  2  0  0  0  0
 14 30  1  0  0  0  0
 15 32  1  0  0  0  0
 16 32  1  0  0  0  0
 16 33  2  0  0  0  0
 16 34  1  0  0  0  0
 17 19  2  0  0  0  0
 17 39  1  0  0  0  0
 18 20  2  0  0  0  0
 18 40  1  0  0  0  0
 19 48  1  0  0  0  0
 20 41  1  0  0  0  0
 21 22  2  0  0  0  0
 21 23  1  0  0  0  0
 21 51  1  0  0  0  0
 22 24  1  0  0  0  0
 22 60  1  0  0  0  0
 23 25  2  0  0  0  0
 23 59  1  0  0  0  0
 24 31  2  0  0  0  0
 24 52  1  0  0  0  0
 25 31  1  0  0  0  0
 25 73  1  0  0  0  0
 26 83  1  0  0  0  0
 27 84  1  0  0  0  0
 28 30  2  0  0  0  0
 28 83  1  0  0  0  0
 29 85  1  0  0  0  0
 30 86  1  0  0  0  0
 31 87  1  0  0  0  0
 32 67  2  0  0  0  0
 33 68  1  0  0  0  0
 33 71  1  0  0  0  0
 34 72  1  0  0  0  0
 34 78  2  0  0  0  0
 35 49  1  0  0  0  0
 35 74  1  0  0  0  0
 35 79  2  0  0  0  0
 36 64  1  0  0  0  0
 36 69  1  0  0  0  0
 36 80  2  0  0  0  0
 37 65  1  0  0  0  0
 37 75  1  0  0  0  0
 37 81  2  0  0  0  0
 38 70  1  0  0  0  0
 38 76  1  0  0  0  0
 38 82  2  0  0  0  0
 39 42  1  0  0  0  0
 40 49  1  0  0  0  0
 41 69  1  0  0  0  0
 42 44  1  0  0  0  0
 43 45  1  0  0  0  0
 43 46  1  0  0  0  0
 44 48  1  0  0  0  0
 45 50  1  0  0  0  0
 46 70  1  0  0  0  0
 47 50  1  0  0  0  0
 47 70  1  0  0  0  0
 48 74  1  0  0  0  0
 49 69  1  0  0  0  0
 50 68  1  0  0  0  0
 53 65  1  0  0  0  0
 54 66  1  0  0  0  0
 55 66  1  0  0  0  0
 56 66  1  0  0  0  0
 57 73  1  0  0  0  0
 58 77  1  0  0  0  0
 59 61  1  0  0  0  0
 60 76  1  0  0  0  0
 61 62  1  0  0  0  0
 62 63  1  0  0  0  0
 63 84  1  0  0  0  0
 64 66  1  0  0  0  0
 64 75  1  0  0  0  0
 65 77  1  0  0  0  0
 67 68  1  0  0  0  0
M  CHG  1  77   1
M  ISO  4  38 100  63 101  76 100  84 101
M  END
> <Batch ID>
0021

> <Smiles>
CNc1c(Cl)c(C)c(C[100NH:0][100C:0](=O)N2CCCC(n3nc(-c4ccc(Oc5ccc(F)cc5F)cc4)c(C(N)=O)c3N)C2)c(C)c1CCC[101CH2:1][101O:1]c1ccc2c(c1)CN(C(=O)C(NC(=O)C(C)NC)C(C)(C)C)C(C(=O)NC1CCCc3ccccc31)C2

> <Shape>
0.215

> <Color>
0.099

> <Negative vol penalty>
0.000

$$$$

  -OEChem-04052316123D

 85 93  0     1  0  0  0  0  0999 V2000
  -17.7741  -24.5286   23.0528 C   0  0  0  0  0  0  0  0  0  0  0  0
  -18.5670  -25.1038   22.0650 C   0  0  0  0  0  0  0  0  0  0  0  0
  -25.6573  -14.1406   21.6273 C   0  0  0  0  0  0  0  0  0  0  0  0
  -24.9986  -14.9836   19.4611 C   0  0  0  0  0  0  0  0  0  0  0  0
  -17.9584  -24.8847   24.3882 C   0  0  0  0  0  0  0  0  0  0  0  0
  -19.5440  -26.0364   22.4118 C   0  0  0  0  0  0  0  0  0  0  0  0
  -23.9433  -25.2137   20.0424 C   0  0  0  0  0  0  0  0  0  0  0  0
  -30.9404  -24.7981   16.5541 C   0  0  0  0  0  0  0  0  0  0  0  0
  -24.6633  -13.1650   21.5500 C   0  0  0  0  0  0  0  0  0  0  0  0
  -24.0046  -14.0080   19.3837 C   0  0  0  0  0  0  0  0  0  0  0  0
  -24.0362  -25.6217   18.7125 C   0  0  0  0  0  0  0  0  0  0  0  0
  -24.2156  -10.1806   20.0250 C   0  0  0  0  0  0  0  0  0  0  0  0
  -24.5569   -8.8774   20.3863 C   0  0  0  0  0  0  0  0  0  0  0  0
  -31.6568  -23.6852   16.9943 C   0  0  0  0  0  0  0  0  0  0  0  0
  -25.2085  -27.6109   19.4110 C   0  0  0  0  0  0  0  0  0  0  0  0
  -22.8777   -8.9192   22.1230 C   0  0  0  0  0  0  0  0  0  0  0  0
  -25.8249  -15.0499   20.5829 C   0  0  0  0  0  0  0  0  0  0  0  0
  -28.1823  -15.9534   20.2168 C   0  0  0  0  0  0  0  0  0  0  0  0
  -18.9446  -25.8149   24.7526 C   0  0  0  0  0  0  0  0  0  0  0  0
  -24.4736  -26.0079   21.0693 C   0  0  0  0  0  0  0  0  0  0  0  0
  -19.7407  -26.4063   23.7531 C   0  0  0  0  0  0  0  0  0  0  0  0
  -25.1233  -27.2096   20.7529 C   0  0  0  0  0  0  0  0  0  0  0  0
  -29.7032  -25.1009   17.1228 C   0  0  0  0  0  0  0  0  0  0  0  0
  -29.8987  -23.1776   18.5719 C   0  0  0  0  0  0  0  0  0  0  0  0
  -23.8370  -13.0987   20.4281 C   0  0  0  0  0  0  0  0  0  0  0  0
  -24.6664  -26.8219   18.3968 C   0  0  0  0  0  0  0  0  0  0  0  0
  -23.2054  -10.8532   20.7126 C   0  0  0  0  0  0  0  0  0  0  0  0
  -23.8879   -8.2466   21.4353 C   0  0  0  0  0  0  0  0  0  0  0  0
  -22.5365  -10.2225   21.7616 C   0  0  0  0  0  0  0  0  0  0  0  0
  -31.1359  -22.8749   18.0032 C   0  0  0  0  0  0  0  0  0  0  0  0
  -29.1824  -24.2906   18.1317 C   0  0  0  0  0  0  0  0  0  0  0  0
  -26.8511  -16.0582   20.6626 C   0  0  0  0  0  0  0  0  0  0  0  0
  -28.7425  -17.1704   20.5191 C   0  0  0  0  0  0  0  0  0  0  0  0
  -28.8525  -14.8542   19.5857 C   0  0  0  0  0  0  0  0  0  0  0  0
  -23.2631  -27.5112   23.5949 C   0  0  0  0  0  0  0  0  0  0  0  0
  -26.3847  -28.0994   24.2522 C   0  0  0  0  0  0  0  0  0  0  0  0
  -29.5788  -28.4197   23.0941 C   0  0  0  0  0  0  0  0  0  0  0  0
  -28.5333  -22.7332   20.6418 C   0  0  0  0  0  0  0  0  0  0  0  0
  -19.0749  -26.2038   26.2040 C   0  0  0  0  0  0  0  0  0  0  0  0
  -24.3887  -25.5408   22.4965 C   0  0  0  0  0  0  0  0  0  0  0  0
  -25.7269  -28.0886   21.8165 C   0  0  0  0  0  0  0  0  0  0  0  0
  -20.3837  -26.9198   26.5276 C   0  0  0  0  0  0  0  0  0  0  0  0
  -26.9927  -20.9926   23.3389 C   0  0  0  0  0  0  0  0  0  0  0  0
  -20.6684  -28.0047   25.4939 C   0  0  0  0  0  0  0  0  0  0  0  0
  -26.9280  -19.5451   22.8464 C   0  0  0  0  0  0  0  0  0  0  0  0
  -26.7516  -21.9885   22.2058 C   0  0  0  0  0  0  0  0  0  0  0  0
  -27.5451  -20.3609   20.5354 C   0  0  0  0  0  0  0  0  0  0  0  0
  -20.8276  -27.4032   24.0923 C   0  0  1  0  0  0  0  0  0  0  0  0
  -24.5105  -26.6783   23.5058 C   0  0  1  0  0  0  0  0  0  0  0  0
  -27.8462  -19.3226   21.6285 C   0  0  2  0  0  0  0  0  0  0  0  0
  -31.9099  -28.9419   23.8628 C   0  0  0  0  0  0  0  0  0  0  0  0
  -27.7693  -27.7377   14.0639 C   0  0  0  0  0  0  0  0  0  0  0  0
  -25.6594  -31.0576   24.4339 C   0  0  0  0  0  0  0  0  0  0  0  0
  -28.0978  -31.5951   24.2504 C   0  0  0  0  0  0  0  0  0  0  0  0
  -27.2578  -30.2658   26.1868 C   0  0  0  0  0  0  0  0  0  0  0  0
  -30.5805  -25.7711   22.2335 C   0  0  0  0  0  0  0  0  0  0  0  0
  -28.9711  -26.3094   16.6185 C   0  0  0  0  0  0  0  0  0  0  0  0
  -25.6181  -26.7247   14.9162 C   0  0  0  0  0  0  0  0  0  0  0  0
  -24.8231  -26.1999   16.1067 C   0  0  0  0  0  0  0  0  0  1  0  0
  -27.3637  -29.1932   23.8999 C   0  0  1  0  0  0  0  0  0  0  0  0
  -30.8929  -27.8444   23.5909 C   0  0  2  0  0  0  0  0  0  0  0  0
  -27.0453  -27.1493   15.2677 C   0  0  1  0  0  0  0  0  0  0  0  0
  -27.0817  -30.5125   24.6726 C   0  0  0  0  0  0  0  0  0  0  0  0
  -26.5817  -17.2478   21.2069 N   0  0  0  0  0  0  0  0  0  0  0  0
  -27.7515  -17.9017   21.1052 N   0  0  0  0  0  0  0  0  0  0  0  0
  -25.6127  -27.5917   23.1977 N   0  0  0  0  0  0  0  0  0  0  0  0
  -27.6597  -21.7194   21.0888 N   0  0  0  0  0  0  0  0  0  0  0  0
  -29.9812  -17.6757   20.3383 N   0  0  0  0  0  0  0  0  0  0  0  0
  -28.1288  -13.6776   19.3486 N   0  0  0  0  0  0  0  0  0  0  0  0
  -29.3725  -22.3513   19.5956 N   0  0  0  0  0  0  0  0  0  0  0  0
  -22.1338  -26.7972   23.9478 N   0  0  0  0  0  0  0  0  0  0  0  0
  -28.6940  -28.6395   24.1284 N   0  0  0  0  0  0  0  0  0  0  0  0
  -31.4661  -26.9128   22.5787 N   0  3  0  0  0  0  0  0  0  0  0  0
  -27.8225  -25.9694   15.7391 N   0  3  0  0  0  0  0  0  0  0  0  0
  -30.0619  -14.9079   19.2570 O   0  0  0  0  0  0  0  0  0  0  0  0
  -23.3211  -28.7129   23.3622 O   0  0  0  0  0  0  0  0  0  0  0  0
  -26.3127  -27.7050   25.4188 O   0  0  0  0  0  0  0  0  0  0  0  0
  -29.3607  -28.6544   21.9075 O   0  0  0  0  0  0  0  0  0  0  0  0
  -28.5556  -23.8490   21.1677 O   0  0  0  0  0  0  0  0  0  0  0  0
  -22.8672  -12.1468   20.3522 O   0  0  0  0  0  0  0  0  0  0  0  0
  -24.7579  -27.2228   17.0996 O   0  0  0  0  0  0  0  0  0  1  0  0
  -24.2147   -6.9945   21.7812 F   0  0  0  0  0  0  0  0  0  0  0  0
  -21.5643  -10.8631   22.4252 F   0  0  0  0  0  0  0  0  0  0  0  0
  -32.0604  -21.5053   18.5112 Cl  0  0  0  0  0  0  0  0  0  0  0  0
  -27.6436  -24.6785   18.8319 Cl  0  0  0  0  0  0  0  0  0  0  0  0
  1  2  1  0  0  0  0
  1  5  2  0  0  0  0
  2  6  2  0  0  0  0
  3  9  2  0  0  0  0
  3 17  1  0  0  0  0
  4 10  1  0  0  0  0
  4 17  2  0  0  0  0
  5 19  1  0  0  0  0
  6 21  1  0  0  0  0
  7 11  2  0  0  0  0
  7 20  1  0  0  0  0
  8 14  2  0  0  0  0
  8 23  1  0  0  0  0
  9 25  1  0  0  0  0
 10 25  2  0  0  0  0
 11 26  1  0  0  0  0
 12 13  2  0  0  0  0
 12 27  1  0  0  0  0
 13 28  1  0  0  0  0
 14 30  1  0  0  0  0
 15 22  1  0  0  0  0
 15 26  2  0  0  0  0
 16 28  2  0  0  0  0
 16 29  1  0  0  0  0
 17 32  1  0  0  0  0
 18 32  1  0  0  0  0
 18 33  2  0  0  0  0
 18 34  1  0  0  0  0
 19 21  2  0  0  0  0
 19 39  1  0  0  0  0
 20 22  2  0  0  0  0
 20 40  1  0  0  0  0
 21 48  1  0  0  0  0
 22 41  1  0  0  0  0
 23 31  2  0  0  0  0
 23 57  1  0  0  0  0
 24 30  2  0  0  0  0
 24 31  1  0  0  0  0
 24 70  1  0  0  0  0
 25 80  1  0  0  0  0
 26 81  1  0  0  0  0
 27 29  2  0  0  0  0
 27 80  1  0  0  0  0
 28 82  1  0  0  0  0
 29 83  1  0  0  0  0
 30 84  1  0  0  0  0
 31 85  1  0  0  0  0
 32 64  2  0  0  0  0
 33 65  1  0  0  0  0
 33 68  1  0  0  0  0
 34 69  1  0  0  0  0
 34 75  2  0  0  0  0
 35 49  1  0  0  0  0
 35 71  1  0  0  0  0
 35 76  2  0  0  0  0
 36 60  1  0  0  0  0
 36 66  1  0  0  0  0
 36 77  2  0  0  0  0
 37 61  1  0  0  0  0
 37 72  1  0  0  0  0
 37 78  2  0  0  0  0
 38 67  1  0  0  0  0
 38 70  1  0  0  0  0
 38 79  2  0  0  0  0
 39 42  1  0  0  0  0
 40 49  1  0  0  0  0
 41 66  1  0  0  0  0
 42 44  1  0  0  0  0
 43 45  1  0  0  0  0
 43 46  1  0  0  0  0
 44 48  1  0  0  0  0
 45 50  1  0  0  0  0
 46 67  1  0  0  0  0
 47 50  1  0  0  0  0
 47 67  1  0  0  0  0
 48 71  1  0  0  0  0
 49 66  1  0  0  0  0
 50 65  1  0  0  0  0
 51 61  1  0  0  0  0
 52 62  1  0  0  0  0
 53 63  1  0  0  0  0
 54 63  1  0  0  0  0
 55 63  1  0  0  0  0
 56 73  1  0  0  0  0
 57 74  1  0  0  0  0
 58 59  1  0  0  0  0
 58 62  1  0  0  0  0
 59 81  1  0  0  0  0
 60 63  1  0  0  0  0
 60 72  1  0  0  0  0
 61 73  1  0  0  0  0
 62 74  1  0  0  0  0
 64 65  1  0  0  0  0
M  CHG  2  73   1  74   1
M  ISO  4  38 100  59 101  70 100  81 101
M  END
> <Batch ID>
0021

> <Smiles>
CNC(C)C(=O)NC(C(=O)N1Cc2cc([101O:1][101CH2:1]CC(C)NCc3ccc(Cl)c([100NH:0][100C:0](=O)N4CCCC(n5nc(-c6ccc(Oc7ccc(F)cc7F)cc6)c(C(N)=O)c5N)C4)c3Cl)ccc2CC1C(=O)NC1CCCc2ccccc21)C(C)(C)C

> <Shape>
0.232

> <Color>
0.059

> <Negative vol penalty>
0.000

$$$$

  -OEChem-04052316123D

 82 90  0     1  0  0  0  0  0999 V2000
  -17.8290  -24.9644   20.8574 C   0  0  0  0  0  0  0  0  0  0  0  0
  -19.1494  -24.9260   20.4211 C   0  0  0  0  0  0  0  0  0  0  0  0
  -24.0093  -10.6502   23.4075 C   0  0  0  0  0  0  0  0  0  0  0  0
  -23.7352  -12.4304   25.0177 C   0  0  0  0  0  0  0  0  0  0  0  0
  -17.4299  -25.9265   21.7842 C   0  0  0  0  0  0  0  0  0  0  0  0
  -20.0714  -25.8505   20.9106 C   0  0  0  0  0  0  0  0  0  0  0  0
  -24.4832  -23.7106   22.1762 C   0  0  0  0  0  0  0  0  0  0  0  0
  -23.3535   -9.7704   24.2685 C   0  0  0  0  0  0  0  0  0  0  0  0
  -23.0794  -11.5506   25.8787 C   0  0  0  0  0  0  0  0  0  0  0  0
  -25.3597  -23.3970   21.1383 C   0  0  0  0  0  0  0  0  0  0  0  0
  -20.1691   -9.0748   25.1676 C   0  0  0  0  0  0  0  0  0  0  0  0
  -19.1975   -8.2364   24.6210 C   0  0  0  0  0  0  0  0  0  0  0  0
  -26.6201  -25.4001   21.6055 C   0  0  0  0  0  0  0  0  0  0  0  0
  -28.7468  -21.0278   19.2218 C   0  0  0  0  0  0  0  0  0  0  0  0
  -20.4578   -6.3056   25.3427 C   0  0  0  0  0  0  0  0  0  0  0  0
  -24.2002  -11.9803   23.7821 C   0  0  0  0  0  0  0  0  0  0  0  0
  -24.2961  -13.6991   21.8995 C   0  0  0  0  0  0  0  0  0  0  0  0
  -18.3497  -26.8571   22.2927 C   0  0  0  0  0  0  0  0  0  0  0  0
  -24.6626  -24.8789   22.9307 C   0  0  0  0  0  0  0  0  0  0  0  0
  -19.6840  -26.8268   21.8442 C   0  0  0  0  0  0  0  0  0  0  0  0
  -25.7461  -25.7249   22.6541 C   0  0  0  0  0  0  0  0  0  0  0  0
  -29.4608  -22.0067   19.9128 C   0  0  0  0  0  0  0  0  0  0  0  0
  -28.6255  -19.7451   19.7564 C   0  0  0  0  0  0  0  0  0  0  0  0
  -30.0537  -21.7029   21.1383 C   0  0  0  0  0  0  0  0  0  0  0  0
  -29.2183  -19.4414   20.9819 C   0  0  0  0  0  0  0  0  0  0  0  0
  -22.8885  -10.2206   25.5041 C   0  0  0  0  0  0  0  0  0  0  0  0
  -26.4266  -24.2432   20.8509 C   0  0  0  0  0  0  0  0  0  0  0  0
  -21.2851   -8.5286   25.8017 C   0  0  0  0  0  0  0  0  0  0  0  0
  -19.3418   -6.8518   24.7086 C   0  0  0  0  0  0  0  0  0  0  0  0
  -21.4294   -7.1440   25.8892 C   0  0  0  0  0  0  0  0  0  0  0  0
  -29.9324  -20.4203   21.6729 C   0  0  0  0  0  0  0  0  0  0  0  0
  -24.8781  -12.8895   22.8933 C   0  0  0  0  0  0  0  0  0  0  0  0
  -25.3555  -14.3701   21.3393 C   0  0  0  0  0  0  0  0  0  0  0  0
  -22.9207  -13.8327   21.5170 C   0  0  0  0  0  0  0  0  0  0  0  0
  -22.9462  -27.5051   23.4414 C   0  0  0  0  0  0  0  0  0  0  0  0
  -25.3063  -28.1645   25.5667 C   0  0  0  0  0  0  0  0  0  0  0  0
  -28.5401  -27.6848   26.5464 C   0  0  0  0  0  0  0  0  0  0  0  0
  -30.1062  -17.2353   21.8133 C   0  0  0  0  0  0  0  0  0  0  0  0
  -17.8608  -27.9083   23.2574 C   0  0  0  0  0  0  0  0  0  0  0  0
  -23.7239  -25.1893   24.0643 C   0  0  0  0  0  0  0  0  0  0  0  0
  -25.9944  -26.9808   23.4476 C   0  0  0  0  0  0  0  0  0  0  0  0
  -18.9855  -28.6150   24.0096 C   0  0  0  0  0  0  0  0  0  0  0  0
  -30.3422  -13.6831   21.8712 C   0  0  0  0  0  0  0  0  0  0  0  0
  -20.0965  -29.0239   23.0477 C   0  0  0  0  0  0  0  0  0  0  0  0
  -28.8938  -13.2265   22.0605 C   0  0  0  0  0  0  0  0  0  0  0  0
  -30.6416  -14.9595   22.6553 C   0  0  0  0  0  0  0  0  0  0  0  0
  -28.2678  -15.6157   22.5962 C   0  0  0  0  0  0  0  0  0  0  0  0
  -20.7192  -27.7970   22.3707 C   0  0  1  0  0  0  0  0  0  0  0  0
  -23.7028  -26.6691   24.4345 C   0  0  1  0  0  0  0  0  0  0  0  0
  -27.9006  -14.3697   21.7738 C   0  0  2  0  0  0  0  0  0  0  0  0
  -27.8527  -18.7196   18.9911 C   0  0  0  0  0  0  0  0  0  0  0  0
  -30.8149  -22.7699   21.8630 C   0  0  0  0  0  0  0  0  0  0  0  0
  -30.1919  -28.3872   28.3001 C   0  0  0  0  0  0  0  0  0  0  0  0
  -25.6404  -30.8568   24.1702 C   0  0  0  0  0  0  0  0  0  0  0  0
  -27.8585  -31.0926   25.3072 C   0  0  0  0  0  0  0  0  0  0  0  0
  -25.7711  -30.9527   26.6659 C   0  0  0  0  0  0  0  0  0  0  0  0
  -28.8703  -24.9072   27.5133 C   0  0  0  0  0  0  0  0  0  0  0  0
  -29.5741  -23.3863   19.3110 C   0  0  0  0  0  0  0  0  0  0  0  0
  -28.6319  -24.3864   19.9721 C   0  0  0  0  0  0  0  0  0  1  0  0
  -26.6338  -28.8806   25.5022 C   0  0  1  0  0  0  0  0  0  0  0  0
  -29.1447  -27.3595   27.9003 C   0  0  2  0  0  0  0  0  0  0  0  0
  -26.4704  -30.4231   25.3950 C   0  0  0  0  0  0  0  0  0  0  0  0
  -26.2043  -13.0316   22.9627 N   0  0  0  0  0  0  0  0  0  0  0  0
  -26.4645  -13.9381   22.0054 N   0  0  0  0  0  0  0  0  0  0  0  0
  -25.0452  -27.2441   24.5418 N   0  0  0  0  0  0  0  0  0  0  0  0
  -29.6630  -15.9992   22.3296 N   0  0  0  0  0  0  0  0  0  0  0  0
  -25.4374  -15.2814   20.3467 N   0  0  0  0  0  0  0  0  0  0  0  0
  -21.9612  -13.0696   22.1961 N   0  0  0  0  0  0  0  0  0  0  0  0
  -29.0835  -18.1335   21.5102 N   0  0  0  0  0  0  0  0  0  0  0  0
  -21.6275  -27.1265   23.2762 N   0  0  0  0  0  0  0  0  0  0  0  0
  -27.3926  -28.4397   26.6676 N   0  0  0  0  0  0  0  0  0  0  0  0
  -29.7912  -26.0171   27.8699 N   0  3  0  0  0  0  0  0  0  0  0  0
  -22.5555  -14.5936   20.5890 O   0  0  0  0  0  0  0  0  0  0  0  0
  -23.5161  -28.4264   22.8686 O   0  0  0  0  0  0  0  0  0  0  0  0
  -24.5328  -28.4074   26.4964 O   0  0  0  0  0  0  0  0  0  0  0  0
  -29.0381  -27.3101   25.4871 O   0  0  0  0  0  0  0  0  0  0  0  0
  -31.3031  -17.4688   21.6263 O   0  0  0  0  0  0  0  0  0  0  0  0
  -22.2484   -9.3623   26.3445 O   0  0  0  0  0  0  0  0  0  0  0  0
  -27.2832  -23.9398   19.8380 O   0  0  0  0  0  0  0  0  0  1  0  0
  -18.4080   -6.0468   24.1851 F   0  0  0  0  0  0  0  0  0  0  0  0
  -22.4987   -6.6135   26.4982 F   0  0  0  0  0  0  0  0  0  0  0  0
  -30.6735  -20.0489   23.1971 Cl  0  0  0  0  0  0  0  0  0  0  0  0
  1  2  1  0  0  0  0
  1  5  2  0  0  0  0
  2  6  2  0  0  0  0
  3  8  2  0  0  0  0
  3 16  1  0  0  0  0
  4  9  1  0  0  0  0
  4 16  2  0  0  0  0
  5 18  1  0  0  0  0
  6 20  1  0  0  0  0
  7 10  2  0  0  0  0
  7 19  1  0  0  0  0
  8 26  1  0  0  0  0
  9 26  2  0  0  0  0
 10 27  1  0  0  0  0
 11 12  2  0  0  0  0
 11 28  1  0  0  0  0
 12 29  1  0  0  0  0
 13 21  1  0  0  0  0
 13 27  2  0  0  0  0
 14 22  1  0  0  0  0
 14 23  2  0  0  0  0
 15 29  2  0  0  0  0
 15 30  1  0  0  0  0
 16 32  1  0  0  0  0
 17 32  1  0  0  0  0
 17 33  2  0  0  0  0
 17 34  1  0  0  0  0
 18 20  2  0  0  0  0
 18 39  1  0  0  0  0
 19 21  2  0  0  0  0
 19 40  1  0  0  0  0
 20 48  1  0  0  0  0
 21 41  1  0  0  0  0
 22 24  2  0  0  0  0
 22 58  1  0  0  0  0
 23 25  1  0  0  0  0
 23 51  1  0  0  0  0
 24 31  1  0  0  0  0
 24 52  1  0  0  0  0
 25 31  2  0  0  0  0
 25 69  1  0  0  0  0
 26 78  1  0  0  0  0
 27 79  1  0  0  0  0
 28 30  2  0  0  0  0
 28 78  1  0  0  0  0
 29 80  1  0  0  0  0
 30 81  1  0  0  0  0
 31 82  1  0  0  0  0
 32 63  2  0  0  0  0
 33 64  1  0  0  0  0
 33 67  1  0  0  0  0
 34 68  1  0  0  0  0
 34 73  2  0  0  0  0
 35 49  1  0  0  0  0
 35 70  1  0  0  0  0
 35 74  2  0  0  0  0
 36 60  1  0  0  0  0
 36 65  1  0  0  0  0
 36 75  2  0  0  0  0
 37 61  1  0  0  0  0
 37 71  1  0  0  0  0
 37 76  2  0  0  0  0
 38 66  1  0  0  0  0
 38 69  1  0  0  0  0
 38 77  2  0  0  0  0
 39 42  1  0  0  0  0
 40 49  1  0  0  0  0
 41 65  1  0  0  0  0
 42 44  1  0  0  0  0
 43 45  1  0  0  0  0
 43 46  1  0  0  0  0
 44 48  1  0  0  0  0
 45 50  1  0  0  0  0
 46 66  1  0  0  0  0
 47 50  1  0  0  0  0
 47 66  1  0  0  0  0
 48 70  1  0  0  0  0
 49 65  1  0  0  0  0
 50 64  1  0  0  0  0
 53 61  1  0  0  0  0
 54 62  1  0  0  0  0
 55 62  1  0  0  0  0
 56 62  1  0  0  0  0
 57 72  1  0  0  0  0
 58 59  1  0  0  0  0
 59 79  1  0  0  0  0
 60 62  1  0  0  0  0
 60 71  1  0  0  0  0
 61 72  1  0  0  0  0
 63 64  1  0  0  0  0
M  CHG  1  72   1
M  ISO  4  38 100  59 101  69 100  79 101
M  END
> <Batch ID>
0021

> <Smiles>
CNC(C)C(=O)NC(C(=O)N1Cc2cc([101O:1][101CH2:1]Cc3cc(C)c([100NH:0][100C:0](=O)N4CCCC(n5nc(-c6ccc(Oc7ccc(F)cc7F)cc6)c(C(N)=O)c5N)C4)c(Cl)c3C)ccc2CC1C(=O)NC1CCCc2ccccc21)C(C)(C)C

> <Shape>
0.219

> <Color>
0.130

> <Negative vol penalty>
0.000

$$$$

  -OEChem-04052316123D

 82 90  0     1  0  0  0  0  0999 V2000
  -32.1946  -32.4451   22.3458 C   0  0  0  0  0  0  0  0  0  0  0  0
  -31.5607  -31.5351   21.5059 C   0  0  0  0  0  0  0  0  0  0  0  0
  -27.0584  -14.4537   21.8998 C   0  0  0  0  0  0  0  0  0  0  0  0
  -26.6848  -15.1411   19.6140 C   0  0  0  0  0  0  0  0  0  0  0  0
  -31.7188  -32.6451   23.6410 C   0  0  0  0  0  0  0  0  0  0  0  0
  -30.4511  -30.8237   21.9612 C   0  0  0  0  0  0  0  0  0  0  0  0
  -26.7007  -30.6893   18.5610 C   0  0  0  0  0  0  0  0  0  0  0  0
  -26.0182  -13.5307   21.7923 C   0  0  0  0  0  0  0  0  0  0  0  0
  -25.6445  -14.2181   19.5064 C   0  0  0  0  0  0  0  0  0  0  0  0
  -26.8328  -29.7917   17.5024 C   0  0  0  0  0  0  0  0  0  0  0  0
  -23.6973  -10.7409   22.0051 C   0  0  0  0  0  0  0  0  0  0  0  0
  -23.9139   -9.4580   22.5081 C   0  0  0  0  0  0  0  0  0  0  0  0
  -25.3639  -28.2493   18.6349 C   0  0  0  0  0  0  0  0  0  0  0  0
  -26.8758  -24.4285   16.7010 C   0  0  0  0  0  0  0  0  0  0  0  0
  -25.7604   -9.1696   20.9769 C   0  0  0  0  0  0  0  0  0  0  0  0
  -27.3917  -15.2589   20.8106 C   0  0  0  0  0  0  0  0  0  0  0  0
  -29.8270  -15.9976   20.6338 C   0  0  0  0  0  0  0  0  0  0  0  0
  -30.5970  -31.9428   24.1091 C   0  0  0  0  0  0  0  0  0  0  0  0
  -25.9065  -30.3685   19.6713 C   0  0  0  0  0  0  0  0  0  0  0  0
  -29.9607  -31.0135   23.2643 C   0  0  0  0  0  0  0  0  0  0  0  0
  -25.2213  -29.1456   19.7051 C   0  0  0  0  0  0  0  0  0  0  0  0
  -27.9426  -25.2801   16.4146 C   0  0  0  0  0  0  0  0  0  0  0  0
  -26.9717  -23.5208   17.7558 C   0  0  0  0  0  0  0  0  0  0  0  0
  -29.1055  -25.2241   17.1829 C   0  0  0  0  0  0  0  0  0  0  0  0
  -29.2015  -24.3164   18.2377 C   0  0  0  0  0  0  0  0  0  0  0  0
  -28.1346  -23.4647   18.5241 C   0  0  0  0  0  0  0  0  0  0  0  0
  -25.3112  -13.4129   20.5956 C   0  0  0  0  0  0  0  0  0  0  0  0
  -26.1667  -28.5703   17.5405 C   0  0  0  0  0  0  0  0  0  0  0  0
  -24.5121  -11.2381   20.9880 C   0  0  0  0  0  0  0  0  0  0  0  0
  -24.9455   -8.6724   21.9940 C   0  0  0  0  0  0  0  0  0  0  0  0
  -25.5437  -10.4524   20.4739 C   0  0  0  0  0  0  0  0  0  0  0  0
  -28.4658  -16.2129   20.9212 C   0  0  0  0  0  0  0  0  0  0  0  0
  -30.4286  -17.2039   20.8973 C   0  0  0  0  0  0  0  0  0  0  0  0
  -30.4885  -14.8131   20.1699 C   0  0  0  0  0  0  0  0  0  0  0  0
  -26.4499  -29.9691   22.7776 C   0  0  0  0  0  0  0  0  0  0  0  0
  -23.2188  -29.7170   22.9131 C   0  0  0  0  0  0  0  0  0  0  0  0
  -20.2987  -28.9972   21.3000 C   0  0  0  0  0  0  0  0  0  0  0  0
  -28.4337  -22.8362   20.9452 C   0  0  0  0  0  0  0  0  0  0  0  0
  -30.1480  -32.1579   25.5328 C   0  0  0  0  0  0  0  0  0  0  0  0
  -25.7530  -31.3589   20.7929 C   0  0  0  0  0  0  0  0  0  0  0  0
  -24.3403  -28.7619   20.8649 C   0  0  0  0  0  0  0  0  0  0  0  0
  -28.7396  -31.6396   25.8122 C   0  0  0  0  0  0  0  0  0  0  0  0
  -29.9668  -21.0971   23.6475 C   0  0  0  0  0  0  0  0  0  0  0  0
  -28.5626  -30.2381   25.2366 C   0  0  0  0  0  0  0  0  0  0  0  0
  -29.8852  -19.6281   23.2261 C   0  0  0  0  0  0  0  0  0  0  0  0
  -28.7263  -21.8795   23.2199 C   0  0  0  0  0  0  0  0  0  0  0  0
  -28.3036  -20.3035   21.3742 C   0  0  0  0  0  0  0  0  0  0  0  0
  -28.7393  -30.2409   23.7133 C   0  0  1  0  0  0  0  0  0  0  0  0
  -25.3285  -30.7117   22.1076 C   0  0  1  0  0  0  0  0  0  0  0  0
  -29.5595  -19.4895   21.7260 C   0  0  2  0  0  0  0  0  0  0  0  0
  -25.8114  -22.6223   18.0388 C   0  0  0  0  0  0  0  0  0  0  0  0
  -30.2479  -26.1389   16.8729 C   0  0  0  0  0  0  0  0  0  0  0  0
  -30.4518  -24.2602   19.0590 C   0  0  0  0  0  0  0  0  0  0  0  0
  -17.8234  -28.8420   21.6825 C   0  0  0  0  0  0  0  0  0  0  0  0
  -23.6120  -27.0623   24.3650 C   0  0  0  0  0  0  0  0  0  0  0  0
  -21.2176  -26.5192   23.8747 C   0  0  0  0  0  0  0  0  0  0  0  0
  -21.7823  -28.4954   25.2885 C   0  0  0  0  0  0  0  0  0  0  0  0
  -19.7400  -31.1027   19.2967 C   0  0  0  0  0  0  0  0  0  0  0  0
  -27.8122  -26.2540   15.2688 C   0  0  0  0  0  0  0  0  0  0  0  0
  -27.5227  -27.6735   15.7444 C   0  0  0  0  0  0  0  0  0  1  0  0
  -22.2294  -28.5822   22.8016 C   0  0  1  0  0  0  0  0  0  0  0  0
  -18.9729  -29.7341   21.2402 C   0  0  2  0  0  0  0  0  0  0  0  0
  -22.2284  -27.6709   24.0614 C   0  0  0  0  0  0  0  0  0  0  0  0
  -28.2171  -17.4580   21.3358 N   0  0  0  0  0  0  0  0  0  0  0  0
  -29.4301  -18.0359   21.3108 N   0  0  0  0  0  0  0  0  0  0  0  0
  -24.2272  -29.7613   21.9401 N   0  0  0  0  0  0  0  0  0  0  0  0
  -28.4824  -21.7045   21.7865 N   0  0  0  0  0  0  0  0  0  0  0  0
  -31.7090  -17.6234   20.8134 N   0  0  0  0  0  0  0  0  0  0  0  0
  -29.7204  -13.6616   19.9500 N   0  0  0  0  0  0  0  0  0  0  0  0
  -28.2283  -22.5442   19.5972 N   0  0  0  0  0  0  0  0  0  0  0  0
  -27.5500  -30.7536   23.0675 N   0  0  0  0  0  0  0  0  0  0  0  0
  -20.9384  -29.1939   22.5056 N   0  0  0  0  0  0  0  0  0  0  0  0
  -18.7002  -30.1976   19.8503 N   0  3  0  0  0  0  0  0  0  0  0  0
  -31.7266  -14.7722   19.9725 O   0  0  0  0  0  0  0  0  0  0  0  0
  -26.3257  -28.7734   23.0154 O   0  0  0  0  0  0  0  0  0  0  0  0
  -23.0970  -30.5380   23.8256 O   0  0  0  0  0  0  0  0  0  0  0  0
  -20.7226  -28.3123   20.3717 O   0  0  0  0  0  0  0  0  0  0  0  0
  -28.5917  -23.9783   21.3841 O   0  0  0  0  0  0  0  0  0  0  0  0
  -24.2962  -12.5122   20.4903 O   0  0  0  0  0  0  0  0  0  0  0  0
  -26.2945  -27.6921   16.5089 O   0  0  0  0  0  0  0  0  0  1  0  0
  -25.1544   -7.4411   22.4781 F   0  0  0  0  0  0  0  0  0  0  0  0
  -26.3305  -10.9251   19.4976 F   0  0  0  0  0  0  0  0  0  0  0  0
  1  2  1  0  0  0  0
  1  5  2  0  0  0  0
  2  6  2  0  0  0  0
  3  8  2  0  0  0  0
  3 16  1  0  0  0  0
  4  9  1  0  0  0  0
  4 16  2  0  0  0  0
  5 18  1  0  0  0  0
  6 20  1  0  0  0  0
  7 10  2  0  0  0  0
  7 19  1  0  0  0  0
  8 27  1  0  0  0  0
  9 27  2  0  0  0  0
 10 28  1  0  0  0  0
 11 12  2  0  0  0  0
 11 29  1  0  0  0  0
 12 30  1  0  0  0  0
 13 21  1  0  0  0  0
 13 28  2  0  0  0  0
 14 22  1  0  0  0  0
 14 23  2  0  0  0  0
 15 30  2  0  0  0  0
 15 31  1  0  0  0  0
 16 32  1  0  0  0  0
 17 32  1  0  0  0  0
 17 33  2  0  0  0  0
 17 34  1  0  0  0  0
 18 20  2  0  0  0  0
 18 39  1  0  0  0  0
 19 21  2  0  0  0  0
 19 40  1  0  0  0  0
 20 48  1  0  0  0  0
 21 41  1  0  0  0  0
 22 24  2  0  0  0  0
 22 59  1  0  0  0  0
 23 26  1  0  0  0  0
 23 51  1  0  0  0  0
 24 25  1  0  0  0  0
 24 52  1  0  0  0  0
 25 26  2  0  0  0  0
 25 53  1  0  0  0  0
 26 70  1  0  0  0  0
 27 79  1  0  0  0  0
 28 80  1  0  0  0  0
 29 31  2  0  0  0  0
 29 79  1  0  0  0  0
 30 81  1  0  0  0  0
 31 82  1  0  0  0  0
 32 64  2  0  0  0  0
 33 65  1  0  0  0  0
 33 68  1  0  0  0  0
 34 69  1  0  0  0  0
 34 74  2  0  0  0  0
 35 49  1  0  0  0  0
 35 71  1  0  0  0  0
 35 75  2  0  0  0  0
 36 61  1  0  0  0  0
 36 66  1  0  0  0  0
 36 76  2  0  0  0  0
 37 62  1  0  0  0  0
 37 72  1  0  0  0  0
 37 77  2  0  0  0  0
 38 67  1  0  0  0  0
 38 70  1  0  0  0  0
 38 78  2  0  0  0  0
 39 42  1  0  0  0  0
 40 49  1  0  0  0  0
 41 66  1  0  0  0  0
 42 44  1  0  0  0  0
 43 45  1  0  0  0  0
 43 46  1  0  0  0  0
 44 48  1  0  0  0  0
 45 50  1  0  0  0  0
 46 67  1  0  0  0  0
 47 50  1  0  0  0  0
 47 67  1  0  0  0  0
 48 71  1  0  0  0  0
 49 66  1  0  0  0  0
 50 65  1  0  0  0  0
 54 62  1  0  0  0  0
 55 63  1  0  0  0  0
 56 63  1  0  0  0  0
 57 63  1  0  0  0  0
 58 73  1  0  0  0  0
 59 60  1  0  0  0  0
 60 80  1  0  0  0  0
 61 63  1  0  0  0  0
 61 72  1  0  0  0  0
 62 73  1  0  0  0  0
 64 65  1  0  0  0  0
M  CHG  1  73   1
M  ISO  4  38 100  60 101  70 100  80 101
M  END
> <Batch ID>
0021

> <Smiles>
CNC(C)C(=O)NC(C(=O)N1Cc2cc([101O:1][101CH2:1]Cc3cc(C)c([100NH:0][100C:0](=O)N4CCCC(n5nc(-c6ccc(Oc7ccc(F)cc7F)cc6)c(C(N)=O)c5N)C4)c(C)c3C)ccc2CC1C(=O)NC1CCCc2ccccc21)C(C)(C)C

> <Shape>
0.247

> <Color>
0.056

> <Negative vol penalty>
0.000

$$$$

  -OEChem-04052316123D

 88 97  0     1  0  0  0  0  0999 V2000
  -19.7650  -24.3114   21.9464 C   0  0  0  0  0  0  0  0  0  0  0  0
  -20.9184  -24.8357   21.3718 C   0  0  0  0  0  0  0  0  0  0  0  0
  -30.8668  -16.0468   21.7094 C   0  0  0  0  0  0  0  0  0  0  0  0
  -29.4749  -15.6714   23.6481 C   0  0  0  0  0  0  0  0  0  0  0  0
  -18.7953  -25.1678   22.4663 C   0  0  0  0  0  0  0  0  0  0  0  0
  -21.1023  -26.2168   21.3157 C   0  0  0  0  0  0  0  0  0  0  0  0
  -25.7820  -27.6096   22.6595 C   0  0  0  0  0  0  0  0  0  0  0  0
  -30.7985  -14.6890   21.3974 C   0  0  0  0  0  0  0  0  0  0  0  0
  -29.4065  -14.3136   23.3361 C   0  0  0  0  0  0  0  0  0  0  0  0
  -26.7921  -27.4440   21.7130 C   0  0  0  0  0  0  0  0  0  0  0  0
  -28.5890  -12.5717   19.9593 C   0  0  0  0  0  0  0  0  0  0  0  0
  -28.3458  -12.2233   18.6308 C   0  0  0  0  0  0  0  0  0  0  0  0
  -26.6515  -29.7882   21.1615 C   0  0  0  0  0  0  0  0  0  0  0  0
  -27.0107  -21.9092   16.4301 C   0  0  0  0  0  0  0  0  0  0  0  0
  -30.4476  -11.0341   18.5579 C   0  0  0  0  0  0  0  0  0  0  0  0
  -30.2051  -16.5380   22.8348 C   0  0  0  0  0  0  0  0  0  0  0  0
  -31.4335  -18.6913   23.4362 C   0  0  0  0  0  0  0  0  0  0  0  0
  -18.9719  -26.5599   22.4253 C   0  0  0  0  0  0  0  0  0  0  0  0
  -25.1904  -28.8657   22.8568 C   0  0  0  0  0  0  0  0  0  0  0  0
  -20.1335  -27.0926   21.8344 C   0  0  0  0  0  0  0  0  0  0  0  0
  -25.6358  -29.9677   22.1129 C   0  0  0  0  0  0  0  0  0  0  0  0
  -28.0710  -22.7440   16.0158 C   0  0  0  0  0  0  0  0  0  0  0  0
  -30.0683  -13.8224   22.2107 C   0  0  0  0  0  0  0  0  0  0  0  0
  -27.2250  -28.5327   20.9617 C   0  0  0  0  0  0  0  0  0  0  0  0
  -29.7616  -12.1514   20.5872 C   0  0  0  0  0  0  0  0  0  0  0  0
  -29.2750  -11.4545   17.9301 C   0  0  0  0  0  0  0  0  0  0  0  0
  -30.6908  -11.3826   19.8864 C   0  0  0  0  0  0  0  0  0  0  0  0
  -30.2758  -17.9403   23.1580 C   0  0  0  0  0  0  0  0  0  0  0  0
  -27.1830  -21.6213   17.7753 C   0  0  0  0  0  0  0  0  0  0  0  0
  -28.8742  -22.9486   17.1122 C   0  0  0  0  0  0  0  0  0  0  0  0
  -30.9692  -19.9609   23.6790 C   0  0  0  0  0  0  0  0  0  0  0  0
  -32.8060  -18.2782   23.4719 C   0  0  0  0  0  0  0  0  0  0  0  0
  -25.9624  -22.8007   21.9528 C   0  0  0  0  0  0  0  0  0  0  0  0
  -22.2529  -30.0369   22.5363 C   0  0  0  0  0  0  0  0  0  0  0  0
  -23.5841  -32.6836   23.8573 C   0  0  0  0  0  0  0  0  0  0  0  0
  -26.6754  -34.5161   23.5366 C   0  0  0  0  0  0  0  0  0  0  0  0
  -17.8743  -27.4468   22.9576 C   0  0  0  0  0  0  0  0  0  0  0  0
  -24.1205  -29.0334   23.9006 C   0  0  0  0  0  0  0  0  0  0  0  0
  -25.0474  -31.3413   22.3008 C   0  0  0  0  0  0  0  0  0  0  0  0
  -26.3064  -20.7766   18.6421 C   0  0  0  0  0  0  0  0  0  0  0  0
  -18.3175  -28.8880   23.1959 C   0  0  0  0  0  0  0  0  0  0  0  0
  -26.1665  -21.1409   20.1254 C   0  0  0  0  0  0  0  0  0  0  0  0
  -27.1387  -22.3089   25.3015 C   0  0  0  0  0  0  0  0  0  0  0  0
  -19.1066  -29.4087   21.9989 C   0  0  0  0  0  0  0  0  0  0  0  0
  -28.1610  -21.1817   25.1611 C   0  0  0  0  0  0  0  0  0  0  0  0
  -28.0235  -22.8713   20.5883 C   0  0  0  0  0  0  0  0  0  0  0  0
  -25.9739  -22.1303   24.3328 C   0  0  0  0  0  0  0  0  0  0  0  0
  -27.4100  -20.8709   22.7602 C   0  0  0  0  0  0  0  0  0  0  0  0
  -20.3806  -28.5845   21.7772 C   0  0  1  0  0  0  0  0  0  0  0  0
  -23.2323  -30.2494   23.6558 C   0  0  1  0  0  0  0  0  0  0  0  0
  -28.6185  -21.0294   23.6996 C   0  0  2  0  0  0  0  0  0  0  0  0
  -28.9236  -22.2498   19.5017 C   0  0  1  0  0  0  0  0  0  0  0  0
  -26.5036  -22.5741   20.5636 C   0  0  2  0  0  0  0  0  0  0  0  0
  -28.2720  -23.2877   14.6585 C   0  0  0  0  0  0  0  0  0  0  0  0
  -29.5018  -20.8785   19.8661 C   0  0  0  0  0  0  0  0  0  0  0  0
  -25.7720  -23.5728   19.6974 C   0  0  0  0  0  0  0  0  0  0  0  0
  -27.8885  -35.9702   25.1833 C   0  0  0  0  0  0  0  0  0  0  0  0
  -22.0616  -34.9665   22.5231 C   0  0  0  0  0  0  0  0  0  0  0  0
  -24.1174  -36.3774   22.7500 C   0  0  0  0  0  0  0  0  0  0  0  0
  -22.9745  -35.5049   24.7884 C   0  0  0  0  0  0  0  0  0  0  0  0
  -29.1667  -32.9412   23.2682 C   0  0  0  0  0  0  0  0  0  0  0  0
  -30.1197  -23.7459   17.2031 C   0  0  0  0  0  0  0  0  0  0  0  0
  -28.8789  -27.2810   18.0042 C   0  0  0  0  0  0  0  0  0  0  0  0
  -29.0082  -25.9827   17.2220 C   0  0  0  0  0  0  0  0  0  0  0  0
  -28.3104  -27.0982   19.4060 C   0  0  0  0  0  0  0  0  0  1  0  0
  -24.2790  -33.9119   23.3212 C   0  0  1  0  0  0  0  0  0  0  0  0
  -27.7990  -34.5882   24.5548 C   0  0  2  0  0  0  0  0  0  0  0  0
  -23.3591  -35.1653   23.3319 C   0  0  0  0  0  0  0  0  0  0  0  0
  -29.1598  -18.6718   23.2183 N   0  0  0  0  0  0  0  0  0  0  0  0
  -28.3334  -22.2626   18.1740 N   0  0  0  0  0  0  0  0  0  0  0  0
  -29.6143  -19.8957   23.5373 N   0  0  0  0  0  0  0  0  0  0  0  0
  -26.4511  -21.9666   22.9585 N   0  0  0  0  0  0  0  0  0  0  0  0
  -23.9996  -31.4531   23.3290 N   0  0  0  0  0  0  0  0  0  0  0  0
  -31.5918  -21.1155   23.9978 N   0  0  0  0  0  0  0  0  0  0  0  0
  -33.3332  -17.8156   24.6853 N   0  0  0  0  0  0  0  0  0  0  0  0
  -21.4014  -28.9658   22.7296 N   0  0  0  0  0  0  0  0  0  0  0  0
  -25.5025  -34.0620   24.1016 N   0  0  0  0  0  0  0  0  0  0  0  0
  -29.1055  -34.2810   23.9071 N   0  3  0  0  0  0  0  0  0  0  0  0
  -29.9465  -25.0543   17.9012 N   0  3  0  0  0  0  0  0  0  0  0  0
  -33.5477  -18.3335   22.4617 O   0  0  0  0  0  0  0  0  0  0  0  0
  -25.1324  -23.6948   22.1371 O   0  0  0  0  0  0  0  0  0  0  0  0
  -22.2675  -30.7898   21.5696 O   0  0  0  0  0  0  0  0  0  0  0  0
  -22.7101  -32.8106   24.7184 O   0  0  0  0  0  0  0  0  0  0  0  0
  -26.8225  -34.8347   22.3587 O   0  0  0  0  0  0  0  0  0  0  0  0
  -30.0012  -12.4974   21.9064 O   0  0  0  0  0  0  0  0  0  0  0  0
  -28.2173  -28.3725   20.0303 O   0  0  0  0  0  0  0  0  0  1  0  0
  -29.0406  -11.1187   16.6547 F   0  0  0  0  0  0  0  0  0  0  0  0
  -31.8185  -10.9748   20.4846 F   0  0  0  0  0  0  0  0  0  0  0  0
  1  2  1  0  0  0  0
  1  5  2  0  0  0  0
  2  6  2  0  0  0  0
  3  8  2  0  0  0  0
  3 16  1  0  0  0  0
  4  9  1  0  0  0  0
  4 16  2  0  0  0  0
  5 18  1  0  0  0  0
  6 20  1  0  0  0  0
  7 10  2  0  0  0  0
  7 19  1  0  0  0  0
  8 23  1  0  0  0  0
  9 23  2  0  0  0  0
 10 24  1  0  0  0  0
 11 12  2  0  0  0  0
 11 25  1  0  0  0  0
 12 26  1  0  0  0  0
 13 21  1  0  0  0  0
 13 24  2  0  0  0  0
 14 22  1  0  0  0  0
 14 29  2  0  0  0  0
 15 26  2  0  0  0  0
 15 27  1  0  0  0  0
 16 28  1  0  0  0  0
 17 28  1  0  0  0  0
 17 31  2  0  0  0  0
 17 32  1  0  0  0  0
 18 20  2  0  0  0  0
 18 37  1  0  0  0  0
 19 21  2  0  0  0  0
 19 38  1  0  0  0  0
 20 49  1  0  0  0  0
 21 39  1  0  0  0  0
 22 30  2  0  0  0  0
 22 54  1  0  0  0  0
 23 85  1  0  0  0  0
 24 86  1  0  0  0  0
 25 27  2  0  0  0  0
 25 85  1  0  0  0  0
 26 87  1  0  0  0  0
 27 88  1  0  0  0  0
 28 69  2  0  0  0  0
 29 40  1  0  0  0  0
 29 70  1  0  0  0  0
 30 62  1  0  0  0  0
 30 70  1  0  0  0  0
 31 71  1  0  0  0  0
 31 74  1  0  0  0  0
 32 75  1  0  0  0  0
 32 80  2  0  0  0  0
 33 53  1  0  0  0  0
 33 72  1  0  0  0  0
 33 81  2  0  0  0  0
 34 50  1  0  0  0  0
 34 76  1  0  0  0  0
 34 82  2  0  0  0  0
 35 66  1  0  0  0  0
 35 73  1  0  0  0  0
 35 83  2  0  0  0  0
 36 67  1  0  0  0  0
 36 77  1  0  0  0  0
 36 84  2  0  0  0  0
 37 41  1  0  0  0  0
 38 50  1  0  0  0  0
 39 73  1  0  0  0  0
 40 42  1  0  0  0  0
 41 44  1  0  0  0  0
 42 53  1  0  0  0  0
 43 45  1  0  0  0  0
 43 47  1  0  0  0  0
 44 49  1  0  0  0  0
 45 51  1  0  0  0  0
 46 52  1  0  0  0  0
 46 53  1  0  0  0  0
 47 72  1  0  0  0  0
 48 51  1  0  0  0  0
 48 72  1  0  0  0  0
 49 76  1  0  0  0  0
 50 73  1  0  0  0  0
 51 71  1  0  0  0  0
 52 55  1  0  0  0  0
 52 70  1  0  0  0  0
 53 56  1  0  0  0  0
 57 67  1  0  0  0  0
 58 68  1  0  0  0  0
 59 68  1  0  0  0  0
 60 68  1  0  0  0  0
 61 78  1  0  0  0  0
 62 79  1  0  0  0  0
 63 64  1  0  0  0  0
 63 65  1  0  0  0  0
 64 79  1  0  0  0  0
 65 86  1  0  0  0  0
 66 68  1  0  0  0  0
 66 77  1  0  0  0  0
 67 78  1  0  0  0  0
 69 71  1  0  0  0  0
M  CHG  2  78   1  79   1
M  ISO  4  33 100  53 100  65 101  86 101
M  END
> <Batch ID>
0021

> <Smiles>
CNC(C)C(=O)NC(C(=O)N1Cc2cc([101O:1][101CH2:1]CCNCc3c(C)cc4n3C(C)C[100C:0](C)([100C:0](=O)N3CCCC(n5nc(-c6ccc(Oc7ccc(F)cc7F)cc6)c(C(N)=O)c5N)C3)CC4)ccc2CC1C(=O)NC1CCCc2ccccc21)C(C)(C)C

> <Shape>
0.266

> <Color>
0.077

> <Negative vol penalty>
0.000

$$$$

  -OEChem-04052316123D

 84 92  0     1  0  0  0  0  0999 V2000
  -29.0223  -24.7462   16.7804 C   0  0  0  0  0  0  0  0  0  0  0  0
  -27.8518  -24.7666   17.5321 C   0  0  0  0  0  0  0  0  0  0  0  0
  -25.1080  -13.7060   21.3427 C   0  0  0  0  0  0  0  0  0  0  0  0
  -26.8639  -13.1090   19.7944 C   0  0  0  0  0  0  0  0  0  0  0  0
  -30.1372  -25.4653   17.2090 C   0  0  0  0  0  0  0  0  0  0  0  0
  -27.7960  -25.5053   18.7135 C   0  0  0  0  0  0  0  0  0  0  0  0
  -23.5282  -28.2007   19.1197 C   0  0  0  0  0  0  0  0  0  0  0  0
  -24.3466  -12.6262   20.8956 C   0  0  0  0  0  0  0  0  0  0  0  0
  -26.1026  -12.0292   19.3473 C   0  0  0  0  0  0  0  0  0  0  0  0
  -22.3761  -27.5151   19.5024 C   0  0  0  0  0  0  0  0  0  0  0  0
  -22.0927   -9.8145   20.4163 C   0  0  0  0  0  0  0  0  0  0  0  0
  -21.4669   -9.0203   21.3771 C   0  0  0  0  0  0  0  0  0  0  0  0
  -22.6584  -28.3139   21.7610 C   0  0  0  0  0  0  0  0  0  0  0  0
  -23.0301  -24.2744   22.4535 C   0  0  0  0  0  0  0  0  0  0  0  0
  -23.6188   -8.4856   22.3367 C   0  0  0  0  0  0  0  0  0  0  0  0
  -26.3666  -13.9475   20.7920 C   0  0  0  0  0  0  0  0  0  0  0  0
  -28.0855  -15.0678   22.3080 C   0  0  0  0  0  0  0  0  0  0  0  0
  -30.0920  -26.2210   18.3912 C   0  0  0  0  0  0  0  0  0  0  0  0
  -24.2613  -28.9404   20.0587 C   0  0  0  0  0  0  0  0  0  0  0  0
  -28.9119  -26.2341   19.1590 C   0  0  0  0  0  0  0  0  0  0  0  0
  -23.8180  -29.0101   21.3871 C   0  0  0  0  0  0  0  0  0  0  0  0
  -21.8042  -23.6134   22.3771 C   0  0  0  0  0  0  0  0  0  0  0  0
  -24.2126  -23.5839   22.1877 C   0  0  0  0  0  0  0  0  0  0  0  0
  -21.7608  -22.2618   22.0351 C   0  0  0  0  0  0  0  0  0  0  0  0
  -24.1692  -22.2323   21.8457 C   0  0  0  0  0  0  0  0  0  0  0  0
  -24.8439  -11.7877   19.8979 C   0  0  0  0  0  0  0  0  0  0  0  0
  -21.9427  -27.5693   20.8239 C   0  0  0  0  0  0  0  0  0  0  0  0
  -23.4816   -9.9443   20.4157 C   0  0  0  0  0  0  0  0  0  0  0  0
  -22.2299   -8.3559   22.3373 C   0  0  0  0  0  0  0  0  0  0  0  0
  -24.2446   -9.2799   21.3759 C   0  0  0  0  0  0  0  0  0  0  0  0
  -22.9433  -21.5712   21.7694 C   0  0  0  0  0  0  0  0  0  0  0  0
  -27.1534  -15.0631   21.2531 C   0  0  0  0  0  0  0  0  0  0  0  0
  -28.5568  -16.3574   22.3441 C   0  0  0  0  0  0  0  0  0  0  0  0
  -28.4892  -14.0017   23.1776 C   0  0  0  0  0  0  0  0  0  0  0  0
  -27.2168  -28.7906   21.2190 C   0  0  0  0  0  0  0  0  0  0  0  0
  -26.3613  -31.5518   22.6909 C   0  0  0  0  0  0  0  0  0  0  0  0
  -23.8607  -33.5470   23.8795 C   0  0  0  0  0  0  0  0  0  0  0  0
  -25.9406  -21.4777   20.2685 C   0  0  0  0  0  0  0  0  0  0  0  0
  -31.3377  -26.9440   18.8387 C   0  0  0  0  0  0  0  0  0  0  0  0
  -25.4870  -29.6961   19.6240 C   0  0  0  0  0  0  0  0  0  0  0  0
  -24.5580  -29.8067   22.4293 C   0  0  0  0  0  0  0  0  0  0  0  0
  -31.0767  -28.0030   19.9067 C   0  0  0  0  0  0  0  0  0  0  0  0
  -29.3109  -20.1601   19.5507 C   0  0  0  0  0  0  0  0  0  0  0  0
  -30.1709  -27.4462   21.0005 C   0  0  0  0  0  0  0  0  0  0  0  0
  -29.1905  -18.6874   19.9386 C   0  0  0  0  0  0  0  0  0  0  0  0
  -27.9788  -20.7316   19.0743 C   0  0  0  0  0  0  0  0  0  0  0  0
  -26.7431  -19.0731   20.4356 C   0  0  0  0  0  0  0  0  0  0  0  0
  -28.8044  -27.0434   20.4332 C   0  0  1  0  0  0  0  0  0  0  0  0
  -26.4417  -29.9988   20.7748 C   0  0  1  0  0  0  0  0  0  0  0  0
  -28.0593  -18.4799   20.9606 C   0  0  1  0  0  0  0  0  0  0  0  0
  -25.5095  -24.3220   22.2773 C   0  0  0  0  0  0  0  0  0  0  0  0
  -20.4333  -21.5727   21.9584 C   0  0  0  0  0  0  0  0  0  0  0  0
  -23.4733  -35.7244   25.0654 C   0  0  0  0  0  0  0  0  0  0  0  0
  -27.2200  -30.2685   25.3226 C   0  0  0  0  0  0  0  0  0  0  0  0
  -25.9551  -32.0610   26.5289 C   0  0  0  0  0  0  0  0  0  0  0  0
  -27.8828  -32.6663   25.0660 C   0  0  0  0  0  0  0  0  0  0  0  0
  -26.2218  -21.0906   22.7059 C   0  0  0  0  0  0  0  0  0  0  0  0
  -22.3163  -34.6439   21.6057 C   0  0  0  0  0  0  0  0  0  0  0  0
  -20.5422  -24.3855   22.6680 C   0  0  0  0  0  0  0  0  0  0  0  0
  -19.7490  -24.7638   21.4152 C   0  0  0  0  0  0  0  0  0  0  0  0
  -20.5032  -25.7068   20.4849 C   0  0  0  0  0  0  0  0  0  1  0  0
  -25.7159  -31.9051   24.0091 C   0  0  1  0  0  0  0  0  0  0  0  0
  -23.5938  -35.0325   23.7165 C   0  0  2  0  0  0  0  0  0  0  0  0
  -26.6804  -31.7085   25.2127 C   0  0  0  0  0  0  0  0  0  0  0  0
  -27.0379  -16.2552   20.6618 N   0  0  0  0  0  0  0  0  0  0  0  0
  -27.9035  -17.0210   21.3475 N   0  0  0  0  0  0  0  0  0  0  0  0
  -25.7542  -30.5232   21.9566 N   0  0  0  0  0  0  0  0  0  0  0  0
  -26.9112  -20.4809   20.0434 N   0  0  0  0  0  0  0  0  0  0  0  0
  -29.4621  -16.9771   23.1307 N   0  0  0  0  0  0  0  0  0  0  0  0
  -27.9053  -12.7396   23.0031 N   0  0  0  0  0  0  0  0  0  0  0  0
  -27.9800  -28.2139   20.2218 N   0  0  0  0  0  0  0  0  0  0  0  0
  -25.2106  -33.2660   23.8644 N   0  0  0  0  0  0  0  0  0  0  0  0
  -25.4033  -21.5343   21.5727 N   0  0  0  0  0  0  0  0  0  0  0  0
  -22.3278  -35.2514   22.9613 N   0  3  0  0  0  0  0  0  0  0  0  0
  -29.3305  -14.1676   24.0932 O   0  0  0  0  0  0  0  0  0  0  0  0
  -27.1300  -28.4107   22.3808 O   0  0  0  0  0  0  0  0  0  0  0  0
  -27.3629  -32.1706   22.3228 O   0  0  0  0  0  0  0  0  0  0  0  0
  -22.9619  -32.7192   24.0112 O   0  0  0  0  0  0  0  0  0  0  0  0
  -25.6038  -22.2723   19.3826 O   0  0  0  0  0  0  0  0  0  0  0  0
  -24.1014  -10.7338   19.4616 O   0  0  0  0  0  0  0  0  0  0  0  0
  -20.8189  -26.9005   21.2003 O   0  0  0  0  0  0  0  0  0  1  0  0
  -21.6287   -7.5944   23.2608 F   0  0  0  0  0  0  0  0  0  0  0  0
  -25.5791   -9.4016   21.3810 F   0  0  0  0  0  0  0  0  0  0  0  0
  -22.8821  -19.8898   21.3459 Cl  0  0  0  0  0  0  0  0  0  0  0  0
  1  2  1  0  0  0  0
  1  5  2  0  0  0  0
  2  6  2  0  0  0  0
  3  8  2  0  0  0  0
  3 16  1  0  0  0  0
  4  9  1  0  0  0  0
  4 16  2  0  0  0  0
  5 18  1  0  0  0  0
  6 20  1  0  0  0  0
  7 10  2  0  0  0  0
  7 19  1  0  0  0  0
  8 26  1  0  0  0  0
  9 26  2  0  0  0  0
 10 27  1  0  0  0  0
 11 12  2  0  0  0  0
 11 28  1  0  0  0  0
 12 29  1  0  0  0  0
 13 21  1  0  0  0  0
 13 27  2  0  0  0  0
 14 22  1  0  0  0  0
 14 23  2  0  0  0  0
 15 29  2  0  0  0  0
 15 30  1  0  0  0  0
 16 32  1  0  0  0  0
 17 32  1  0  0  0  0
 17 33  2  0  0  0  0
 17 34  1  0  0  0  0
 18 20  2  0  0  0  0
 18 39  1  0  0  0  0
 19 21  2  0  0  0  0
 19 40  1  0  0  0  0
 20 48  1  0  0  0  0
 21 41  1  0  0  0  0
 22 24  2  0  0  0  0
 22 59  1  0  0  0  0
 23 25  1  0  0  0  0
 23 51  1  0  0  0  0
 24 31  1  0  0  0  0
 24 52  1  0  0  0  0
 25 31  2  0  0  0  0
 25 73  1  0  0  0  0
 26 80  1  0  0  0  0
 27 81  1  0  0  0  0
 28 30  2  0  0  0  0
 28 80  1  0  0  0  0
 29 82  1  0  0  0  0
 30 83  1  0  0  0  0
 31 84  1  0  0  0  0
 32 65  2  0  0  0  0
 33 66  1  0  0  0  0
 33 69  1  0  0  0  0
 34 70  1  0  0  0  0
 34 75  2  0  0  0  0
 35 49  1  0  0  0  0
 35 71  1  0  0  0  0
 35 76  2  0  0  0  0
 36 62  1  0  0  0  0
 36 67  1  0  0  0  0
 36 77  2  0  0  0  0
 37 63  1  0  0  0  0
 37 72  1  0  0  0  0
 37 78  2  0  0  0  0
 38 68  1  0  0  0  0
 38 73  1  0  0  0  0
 38 79  2  0  0  0  0
 39 42  1  0  0  0  0
 40 49  1  0  0  0  0
 41 67  1  0  0  0  0
 42 44  1  0  0  0  0
 43 45  1  0  0  0  0
 43 46  1  0  0  0  0
 44 48  1  0  0  0  0
 45 50  1  0  0  0  0
 46 68  1  0  0  0  0
 47 50  1  0  0  0  0
 47 68  1  0  0  0  0
 48 71  1  0  0  0  0
 49 67  1  0  0  0  0
 50 66  1  0  0  0  0
 53 63  1  0  0  0  0
 54 64  1  0  0  0  0
 55 64  1  0  0  0  0
 56 64  1  0  0  0  0
 57 73  1  0  0  0  0
 58 74  1  0  0  0  0
 59 60  1  0  0  0  0
 60 61  1  0  0  0  0
 61 81  1  0  0  0  0
 62 64  1  0  0  0  0
 62 72  1  0  0  0  0
 63 74  1  0  0  0  0
 65 66  1  0  0  0  0
M  CHG  1  74   1
M  ISO  4  38 100  61 101  73 100  81 101
M  END
> <Batch ID>
0021

> <Smiles>
CNC(C)C(=O)NC(C(=O)N1Cc2cc([101O:1][101CH2:1]CCc3cc(C)c([100N:0](C)[100C:0](=O)N4CCCC(n5nc(-c6ccc(Oc7ccc(F)cc7F)cc6)c(C(N)=O)c5N)C4)c(Cl)c3C)ccc2CC1C(=O)NC1CCCc2ccccc21)C(C)(C)C

> <Shape>
0.303

> <Color>
0.087

> <Negative vol penalty>
0.000

$$$$

  -OEChem-04052316123D

 83 91  0     1  0  0  0  0  0999 V2000
  -26.6553  -37.7873   24.4994 C   0  0  0  0  0  0  0  0  0  0  0  0
  -27.4587  -36.7032   24.1606 C   0  0  0  0  0  0  0  0  0  0  0  0
  -23.7289   -9.5528   22.3541 C   0  0  0  0  0  0  0  0  0  0  0  0
  -23.9404   -9.1157   19.9874 C   0  0  0  0  0  0  0  0  0  0  0  0
  -25.2936  -37.5986   24.7318 C   0  0  0  0  0  0  0  0  0  0  0  0
  -26.9009  -35.4295   24.0550 C   0  0  0  0  0  0  0  0  0  0  0  0
  -27.5843  -29.3233   20.3721 C   0  0  0  0  0  0  0  0  0  0  0  0
  -22.7828   -8.5332   22.4578 C   0  0  0  0  0  0  0  0  0  0  0  0
  -22.9943   -8.0960   20.0911 C   0  0  0  0  0  0  0  0  0  0  0  0
  -27.7291  -27.9520   20.5777 C   0  0  0  0  0  0  0  0  0  0  0  0
  -22.7682   -5.1560   22.6229 C   0  0  0  0  0  0  0  0  0  0  0  0
  -22.8904   -4.2642   23.6884 C   0  0  0  0  0  0  0  0  0  0  0  0
  -25.3496  -27.7587   20.9240 C   0  0  0  0  0  0  0  0  0  0  0  0
  -27.8198  -23.3239   22.4841 C   0  0  0  0  0  0  0  0  0  0  0  0
  -20.7015   -4.9109   24.4807 C   0  0  0  0  0  0  0  0  0  0  0  0
  -24.3077   -9.8441   21.1188 C   0  0  0  0  0  0  0  0  0  0  0  0
  -27.8953  -21.0608   21.6418 C   0  0  0  0  0  0  0  0  0  0  0  0
  -26.6800  -10.7814   21.1569 C   0  0  0  0  0  0  0  0  0  0  0  0
  -24.7170  -36.3236   24.6196 C   0  0  0  0  0  0  0  0  0  0  0  0
  -26.3203  -29.9254   20.4519 C   0  0  0  0  0  0  0  0  0  0  0  0
  -25.5304  -35.2234   24.2874 C   0  0  0  0  0  0  0  0  0  0  0  0
  -25.1911  -29.1374   20.7165 C   0  0  0  0  0  0  0  0  0  0  0  0
  -27.7621  -21.9486   22.7094 C   0  0  0  0  0  0  0  0  0  0  0  0
  -28.0107  -23.8115   21.1912 C   0  0  0  0  0  0  0  0  0  0  0  0
  -28.0862  -21.5484   20.3489 C   0  0  0  0  0  0  0  0  0  0  0  0
  -22.4155   -7.8048   21.3264 C   0  0  0  0  0  0  0  0  0  0  0  0
  -26.6121  -27.1699   20.8565 C   0  0  0  0  0  0  0  0  0  0  0  0
  -21.6126   -5.9252   22.4862 C   0  0  0  0  0  0  0  0  0  0  0  0
  -28.1439  -22.9237   20.1237 C   0  0  0  0  0  0  0  0  0  0  0  0
  -21.8571   -4.1417   24.6173 C   0  0  0  0  0  0  0  0  0  0  0  0
  -20.5793   -5.8027   23.4151 C   0  0  0  0  0  0  0  0  0  0  0  0
  -25.2846  -10.8977   21.0109 C   0  0  0  0  0  0  0  0  0  0  0  0
  -27.1530  -12.0562   20.9629 C   0  0  0  0  0  0  0  0  0  0  0  0
  -27.8346  -19.6217   21.8804 C   0  0  0  0  0  0  0  0  0  0  0  0
  -26.7165  -18.8721   21.8335 C   0  0  0  0  0  0  0  0  0  0  0  0
  -27.4773   -9.6244   21.4423 C   0  0  0  0  0  0  0  0  0  0  0  0
  -26.8201  -17.4214   22.0894 C   0  0  0  0  0  0  0  0  0  0  0  0
  -25.0078  -32.1488   22.3059 C   0  0  0  0  0  0  0  0  0  0  0  0
  -22.5130  -31.8292   20.2574 C   0  0  0  0  0  0  0  0  0  0  0  0
  -20.8425  -29.8806   18.0081 C   0  0  0  0  0  0  0  0  0  0  0  0
  -23.2493  -36.1611   24.9264 C   0  0  0  0  0  0  0  0  0  0  0  0
  -26.1773  -31.4016   20.2012 C   0  0  0  0  0  0  0  0  0  0  0  0
  -23.8094  -29.7320   20.7928 C   0  0  0  0  0  0  0  0  0  0  0  0
  -22.6652  -34.8420   24.4274 C   0  0  0  0  0  0  0  0  0  0  0  0
  -24.8626  -16.2053   19.2397 C   0  0  0  0  0  0  0  0  0  0  0  0
  -23.5807  -33.6791   24.7966 C   0  0  0  0  0  0  0  0  0  0  0  0
  -24.8775  -14.7004   19.4940 C   0  0  0  0  0  0  0  0  0  0  0  0
  -24.8336  -17.0049   20.5413 C   0  0  0  0  0  0  0  0  0  0  0  0
  -25.9481  -15.1434   21.7385 C   0  0  0  0  0  0  0  0  0  0  0  0
  -24.9576  -33.8306   24.1389 C   0  0  1  0  0  0  0  0  0  0  0  0
  -24.9114  -31.9920   20.8147 C   0  0  1  0  0  0  0  0  0  0  0  0
  -26.0248  -14.3201   20.4433 C   0  0  1  0  0  0  0  0  0  0  0  0
  -27.5562  -21.4660   24.1098 C   0  0  0  0  0  0  0  0  0  0  0  0
  -28.2315  -20.6116   19.1894 C   0  0  0  0  0  0  0  0  0  0  0  0
  -18.8167  -29.8768   16.5271 C   0  0  0  0  0  0  0  0  0  0  0  0
  -20.7370  -31.3518   22.6921 C   0  0  0  0  0  0  0  0  0  0  0  0
  -18.9907  -30.4332   21.1512 C   0  0  0  0  0  0  0  0  0  0  0  0
  -19.7223  -32.8077   20.9300 C   0  0  0  0  0  0  0  0  0  0  0  0
  -22.4854  -29.5735   15.5657 C   0  0  0  0  0  0  0  0  0  0  0  0
  -27.1612  -23.6549   18.0851 C   0  0  0  0  0  0  0  0  0  0  0  0
  -28.0699  -25.2943   20.9693 C   0  0  0  0  0  0  0  0  0  1  0  0
  -21.2822  -30.9570   20.1996 C   0  0  1  0  0  0  0  0  0  0  0  0
  -20.3040  -30.1797   16.6206 C   0  0  2  0  0  0  0  0  0  0  0  0
  -20.2092  -31.3762   21.2438 C   0  0  0  0  0  0  0  0  0  0  0  0
  -24.8965  -12.1477   20.7448 N   0  0  0  0  0  0  0  0  0  0  0  0
  -26.0549  -12.8286   20.7222 N   0  0  0  0  0  0  0  0  0  0  0  0
  -25.9046  -16.5826   21.4565 N   0  0  0  0  0  0  0  0  0  0  0  0
  -23.7221  -31.1809   20.5466 N   0  0  0  0  0  0  0  0  0  0  0  0
  -28.3968  -12.5806   20.9765 N   0  0  0  0  0  0  0  0  0  0  0  0
  -26.8305   -8.3928   21.6127 N   0  0  0  0  0  0  0  0  0  0  0  0
  -24.8949  -33.4549   22.7427 N   0  0  0  0  0  0  0  0  0  0  0  0
  -20.8181  -30.9970   18.8170 N   0  0  0  0  0  0  0  0  0  0  0  0
  -21.0158  -29.3587   15.6007 N   0  3  0  0  0  0  0  0  0  0  0  0
  -28.7248   -9.6842   21.5595 O   0  0  0  0  0  0  0  0  0  0  0  0
  -27.7094  -17.0408   22.8530 O   0  0  0  0  0  0  0  0  0  0  0  0
  -25.1709  -31.1580   23.0083 O   0  0  0  0  0  0  0  0  0  0  0  0
  -22.4067  -33.0399   20.0465 O   0  0  0  0  0  0  0  0  0  0  0  0
  -21.2412  -28.7670   18.3422 O   0  0  0  0  0  0  0  0  0  0  0  0
  -21.4925   -6.8095   21.4273 O   0  0  0  0  0  0  0  0  0  0  0  0
  -28.3307  -23.4037   18.8603 O   0  0  0  0  0  0  0  0  0  0  0  0
  -26.7508  -25.8313   21.0582 O   0  0  0  0  0  0  0  0  0  1  0  0
  -21.9739   -3.2842   25.6397 F   0  0  0  0  0  0  0  0  0  0  0  0
  -19.4663   -6.5382   23.2883 F   0  0  0  0  0  0  0  0  0  0  0  0
  1  2  1  0  0  0  0
  1  5  2  0  0  0  0
  2  6  2  0  0  0  0
  3  8  2  0  0  0  0
  3 16  1  0  0  0  0
  4  9  1  0  0  0  0
  4 16  2  0  0  0  0
  5 19  1  0  0  0  0
  6 21  1  0  0  0  0
  7 10  2  0  0  0  0
  7 20  1  0  0  0  0
  8 26  1  0  0  0  0
  9 26  2  0  0  0  0
 10 27  1  0  0  0  0
 11 12  2  0  0  0  0
 11 28  1  0  0  0  0
 12 30  1  0  0  0  0
 13 22  1  0  0  0  0
 13 27  2  0  0  0  0
 14 23  2  0  0  0  0
 14 24  1  0  0  0  0
 15 30  2  0  0  0  0
 15 31  1  0  0  0  0
 16 32  1  0  0  0  0
 17 23  1  0  0  0  0
 17 25  2  0  0  0  0
 17 34  1  0  0  0  0
 18 32  1  0  0  0  0
 18 33  2  0  0  0  0
 18 36  1  0  0  0  0
 19 21  2  0  0  0  0
 19 41  1  0  0  0  0
 20 22  2  0  0  0  0
 20 42  1  0  0  0  0
 21 50  1  0  0  0  0
 22 43  1  0  0  0  0
 23 53  1  0  0  0  0
 24 29  2  0  0  0  0
 24 61  1  0  0  0  0
 25 29  1  0  0  0  0
 25 54  1  0  0  0  0
 26 79  1  0  0  0  0
 27 81  1  0  0  0  0
 28 31  2  0  0  0  0
 28 79  1  0  0  0  0
 29 80  1  0  0  0  0
 30 82  1  0  0  0  0
 31 83  1  0  0  0  0
 32 65  2  0  0  0  0
 33 66  1  0  0  0  0
 33 69  1  0  0  0  0
 34 35  2  0  0  0  0
 35 37  1  0  0  0  0
 36 70  1  0  0  0  0
 36 74  2  0  0  0  0
 37 67  1  0  0  0  0
 37 75  2  0  0  0  0
 38 51  1  0  0  0  0
 38 71  1  0  0  0  0
 38 76  2  0  0  0  0
 39 62  1  0  0  0  0
 39 68  1  0  0  0  0
 39 77  2  0  0  0  0
 40 63  1  0  0  0  0
 40 72  1  0  0  0  0
 40 78  2  0  0  0  0
 41 44  1  0  0  0  0
 42 51  1  0  0  0  0
 43 68  1  0  0  0  0
 44 46  1  0  0  0  0
 45 47  1  0  0  0  0
 45 48  1  0  0  0  0
 46 50  1  0  0  0  0
 47 52  1  0  0  0  0
 48 67  1  0  0  0  0
 49 52  1  0  0  0  0
 49 67  1  0  0  0  0
 50 71  1  0  0  0  0
 51 68  1  0  0  0  0
 52 66  1  0  0  0  0
 55 63  1  0  0  0  0
 56 64  1  0  0  0  0
 57 64  1  0  0  0  0
 58 64  1  0  0  0  0
 59 73  1  0  0  0  0
 60 80  1  0  0  0  0
 61 81  1  0  0  0  0
 62 64  1  0  0  0  0
 62 72  1  0  0  0  0
 63 73  1  0  0  0  0
 65 66  1  0  0  0  0
M  CHG  1  73   1
M  ISO  4  35 100  37 100  61 101  81 101
M  END
> <Batch ID>
0021

> <Smiles>
CNC(C)C(=O)NC(C(=O)N1Cc2cc([101O:1][101CH2:1]c3cc(C)c(C=[100CH:0][100C:0](=O)N4CCCC(n5nc(-c6ccc(Oc7ccc(F)cc7F)cc6)c(C(N)=O)c5N)C4)c(C)c3OC)ccc2CC1C(=O)NC1CCCc2ccccc21)C(C)(C)C

> <Shape>
0.272

> <Color>
0.105

> <Negative vol penalty>
0.000

$$$$

  -OEChem-04052316123D

 88 96  0     1  0  0  0  0  0999 V2000
  -26.3641  -11.0592   18.1094 C   0  0  0  0  0  0  0  0  0  0  0  0
  -25.6826  -12.2454   18.3621 C   0  0  0  0  0  0  0  0  0  0  0  0
  -26.6851  -30.5727   22.3429 C   0  0  0  0  0  0  0  0  0  0  0  0
  -26.1108  -31.6587   20.2626 C   0  0  0  0  0  0  0  0  0  0  0  0
  -27.6948  -10.9237   18.5029 C   0  0  0  0  0  0  0  0  0  0  0  0
  -26.3311  -13.2965   19.0095 C   0  0  0  0  0  0  0  0  0  0  0  0
  -25.4483  -17.7724   16.8113 C   0  0  0  0  0  0  0  0  0  0  0  0
  -26.8498  -31.8186   22.9480 C   0  0  0  0  0  0  0  0  0  0  0  0
  -26.2754  -32.9047   20.8676 C   0  0  0  0  0  0  0  0  0  0  0  0
  -24.2203  -18.3788   17.0724 C   0  0  0  0  0  0  0  0  0  0  0  0
  -24.8755  -34.2418   24.2377 C   0  0  0  0  0  0  0  0  0  0  0  0
  -24.3159  -34.4277   25.5017 C   0  0  0  0  0  0  0  0  0  0  0  0
  -25.2787  -19.8058   18.7041 C   0  0  0  0  0  0  0  0  0  0  0  0
  -26.5074  -34.8995   26.4027 C   0  0  0  0  0  0  0  0  0  0  0  0
  -26.3157  -30.4927   21.0002 C   0  0  0  0  0  0  0  0  0  0  0  0
  -27.1163  -28.1962   20.2304 C   0  0  0  0  0  0  0  0  0  0  0  0
  -28.3629  -11.9772   19.1468 C   0  0  0  0  0  0  0  0  0  0  0  0
  -26.6006  -18.1714   17.5037 C   0  0  0  0  0  0  0  0  0  0  0  0
  -27.6716  -13.1745   19.4131 C   0  0  0  0  0  0  0  0  0  0  0  0
  -26.5206  -19.2046   18.4481 C   0  0  0  0  0  0  0  0  0  0  0  0
  -26.6449  -32.9847   22.2103 C   0  0  0  0  0  0  0  0  0  0  0  0
  -24.1348  -19.3937   18.0210 C   0  0  0  0  0  0  0  0  0  0  0  0
  -26.2512  -34.3847   24.0562 C   0  0  0  0  0  0  0  0  0  0  0  0
  -25.1317  -34.7565   26.5842 C   0  0  0  0  0  0  0  0  0  0  0  0
  -27.0671  -34.7136   25.1387 C   0  0  0  0  0  0  0  0  0  0  0  0
  -26.1460  -29.2059   20.3745 C   0  0  0  0  0  0  0  0  0  0  0  0
  -26.4620  -27.1825   19.5740 C   0  0  0  0  0  0  0  0  0  0  0  0
  -28.4864  -28.1762   20.6523 C   0  0  0  0  0  0  0  0  0  0  0  0
  -28.6405  -16.7396   19.4766 C   0  0  0  0  0  0  0  0  0  0  0  0
  -30.2511  -19.5437   19.2208 C   0  0  0  0  0  0  0  0  0  0  0  0
  -30.1567  -22.8879   18.5469 C   0  0  0  0  0  0  0  0  0  0  0  0
  -20.6902  -25.6397   19.1777 C   0  0  0  0  0  0  0  0  0  0  0  0
  -29.7873  -11.7669   19.5957 C   0  0  0  0  0  0  0  0  0  0  0  0
  -27.9226  -17.5256   17.1913 C   0  0  0  0  0  0  0  0  0  0  0  0
  -27.7320  -19.6836   19.2041 C   0  0  0  0  0  0  0  0  0  0  0  0
  -30.5147  -13.0636   19.9414 C   0  0  0  0  0  0  0  0  0  0  0  0
  -22.8887  -26.4146   16.4865 C   0  0  0  0  0  0  0  0  0  0  0  0
  -29.6376  -13.9498   20.8201 C   0  0  0  0  0  0  0  0  0  0  0  0
  -19.6123  -23.6043   23.6496 C   0  0  0  0  0  0  0  0  0  0  0  0
  -24.0603  -27.1267   17.1648 C   0  0  0  0  0  0  0  0  0  0  0  0
  -20.3690  -24.6101   22.7807 C   0  0  0  0  0  0  0  0  0  0  0  0
  -19.2587  -22.1290   21.6233 C   0  0  0  0  0  0  0  0  0  0  0  0
  -21.5571  -26.7636   17.1475 C   0  0  0  0  0  0  0  0  0  0  0  0
  -22.6842  -27.2550   19.2834 C   0  0  0  0  0  0  0  0  0  0  0  0
  -28.3482  -14.3463   20.0908 C   0  0  1  0  0  0  0  0  0  0  0  0
  -28.9351  -17.6583   18.3247 C   0  0  1  0  0  0  0  0  0  0  0  0
  -19.6984  -22.1793   23.0933 C   0  0  2  0  0  0  0  0  0  0  0  0
  -20.0211  -23.1283   20.7284 C   0  0  1  0  0  0  0  0  0  0  0  0
  -24.0546  -26.8907   18.6871 C   0  0  2  0  0  0  0  0  0  0  0  0
  -19.9459  -24.5799   21.2948 C   0  0  1  0  0  0  0  0  0  0  0  0
  -18.4407  -26.5483   21.6205 C   0  0  0  0  0  0  0  0  0  0  0  0
  -19.3689  -18.0247   29.4451 C   0  0  0  0  0  0  0  0  0  0  0  0
  -31.6244  -24.9215   18.4568 C   0  0  0  0  0  0  0  0  0  0  0  0
  -30.2378  -19.6852   22.2687 C   0  0  0  0  0  0  0  0  0  0  0  0
  -30.8351  -22.1100   22.0892 C   0  0  0  0  0  0  0  0  0  0  0  0
  -32.3920  -20.3748   21.2017 C   0  0  0  0  0  0  0  0  0  0  0  0
  -29.6163  -23.2931   15.6654 C   0  0  0  0  0  0  0  0  0  0  0  0
  -18.8565  -21.2226   23.9378 C   0  0  0  0  0  0  0  0  0  0  0  0
  -21.4618  -22.6351   20.5051 C   0  0  0  0  0  0  0  0  0  0  0  0
  -18.5186  -25.1421   21.1403 C   0  0  0  0  0  0  0  0  0  0  0  0
  -18.6159  -18.4673   28.2007 C   0  0  0  0  0  0  0  0  0  0  0  0
  -19.5463  -20.7928   25.2306 C   0  0  0  0  0  0  0  0  0  0  0  0
  -21.5012  -21.5362   19.4565 C   0  0  0  0  0  0  0  0  0  0  0  0
  -19.4460  -19.4361   27.3587 C   0  0  0  0  0  0  0  0  0  0  0  0
  -18.6979  -19.8531   26.0904 C   0  0  0  0  0  0  0  0  0  0  0  0
  -22.9204  -21.0192   19.2614 C   0  0  0  0  0  0  0  0  0  1  0  0
  -30.2386  -20.8557   19.9674 C   0  0  1  0  0  0  0  0  0  0  0  0
  -31.0321  -23.7636   17.6686 C   0  0  2  0  0  0  0  0  0  0  0  0
  -30.9025  -20.7463   21.3691 C   0  0  0  0  0  0  0  0  0  0  0  0
  -24.9652  -28.8648   19.8516 N   0  0  0  0  0  0  0  0  0  0  0  0
  -25.1893  -27.6294   19.3724 N   0  0  0  0  0  0  0  0  0  0  0  0
  -29.0007  -19.0166   18.8678 N   0  0  0  0  0  0  0  0  0  0  0  0
  -21.6177  -26.5156   18.5900 N   0  0  0  0  0  0  0  0  0  0  0  0
  -26.8570  -25.9614   19.1553 N   0  0  0  0  0  0  0  0  0  0  0  0
  -29.4650  -28.6482   19.7669 N   0  0  0  0  0  0  0  0  0  0  0  0
  -28.6118  -15.4009   19.1354 N   0  0  0  0  0  0  0  0  0  0  0  0
  -30.8647  -21.8339   19.0844 N   0  0  0  0  0  0  0  0  0  0  0  0
  -20.8217  -25.4557   20.5487 N   0  0  0  0  0  0  0  0  0  0  0  0
  -30.2376  -24.3222   16.5383 N   0  3  0  0  0  0  0  0  0  0  0  0
  -28.8344  -27.7372   21.7747 O   0  0  0  0  0  0  0  0  0  0  0  0
  -28.4546  -17.2104   20.5926 O   0  0  0  0  0  0  0  0  0  0  0  0
  -31.3307  -19.0099   18.9541 O   0  0  0  0  0  0  0  0  0  0  0  0
  -28.9650  -23.1183   18.7400 O   0  0  0  0  0  0  0  0  0  0  0  0
  -19.8133  -25.0602   18.5279 O   0  0  0  0  0  0  0  0  0  0  0  0
  -26.8052  -34.2006   22.8005 O   0  0  0  0  0  0  0  0  0  0  0  0
  -22.9287  -19.9911   18.2801 O   0  0  0  0  0  0  0  0  0  1  0  0
  -24.5939  -34.9365   27.7977 F   0  0  0  0  0  0  0  0  0  0  0  0
  -28.3891  -34.8534   24.9702 F   0  0  0  0  0  0  0  0  0  0  0  0
  1  2  1  0  0  0  0
  1  5  2  0  0  0  0
  2  6  2  0  0  0  0
  3  8  2  0  0  0  0
  3 15  1  0  0  0  0
  4  9  1  0  0  0  0
  4 15  2  0  0  0  0
  5 17  1  0  0  0  0
  6 19  1  0  0  0  0
  7 10  2  0  0  0  0
  7 18  1  0  0  0  0
  8 21  1  0  0  0  0
  9 21  2  0  0  0  0
 10 22  1  0  0  0  0
 11 12  2  0  0  0  0
 11 23  1  0  0  0  0
 12 24  1  0  0  0  0
 13 20  1  0  0  0  0
 13 22  2  0  0  0  0
 14 24  2  0  0  0  0
 14 25  1  0  0  0  0
 15 26  1  0  0  0  0
 16 26  1  0  0  0  0
 16 27  2  0  0  0  0
 16 28  1  0  0  0  0
 17 19  2  0  0  0  0
 17 33  1  0  0  0  0
 18 20  2  0  0  0  0
 18 34  1  0  0  0  0
 19 45  1  0  0  0  0
 20 35  1  0  0  0  0
 21 85  1  0  0  0  0
 22 86  1  0  0  0  0
 23 25  2  0  0  0  0
 23 85  1  0  0  0  0
 24 87  1  0  0  0  0
 25 88  1  0  0  0  0
 26 70  2  0  0  0  0
 27 71  1  0  0  0  0
 27 74  1  0  0  0  0
 28 75  1  0  0  0  0
 28 80  2  0  0  0  0
 29 46  1  0  0  0  0
 29 76  1  0  0  0  0
 29 81  2  0  0  0  0
 30 67  1  0  0  0  0
 30 72  1  0  0  0  0
 30 82  2  0  0  0  0
 31 68  1  0  0  0  0
 31 77  1  0  0  0  0
 31 83  2  0  0  0  0
 32 73  1  0  0  0  0
 32 78  1  0  0  0  0
 32 84  2  0  0  0  0
 33 36  1  0  0  0  0
 34 46  1  0  0  0  0
 35 72  1  0  0  0  0
 36 38  1  0  0  0  0
 37 40  1  0  0  0  0
 37 43  1  0  0  0  0
 38 45  1  0  0  0  0
 39 41  1  0  0  0  0
 39 47  1  0  0  0  0
 40 49  1  0  0  0  0
 41 50  1  0  0  0  0
 42 47  1  0  0  0  0
 42 48  1  0  0  0  0
 43 73  1  0  0  0  0
 44 49  1  0  0  0  0
 44 73  1  0  0  0  0
 45 76  1  0  0  0  0
 46 72  1  0  0  0  0
 47 58  1  0  0  0  0
 48 50  1  0  0  0  0
 48 59  1  0  0  0  0
 49 71  1  0  0  0  0
 50 60  1  0  0  0  0
 50 78  1  0  0  0  0
 51 60  1  0  0  0  0
 52 61  1  0  0  0  0
 53 68  1  0  0  0  0
 54 69  1  0  0  0  0
 55 69  1  0  0  0  0
 56 69  1  0  0  0  0
 57 79  1  0  0  0  0
 58 62  1  0  0  0  0
 59 63  1  0  0  0  0
 61 64  1  0  0  0  0
 62 65  1  0  0  0  0
 63 66  1  0  0  0  0
 64 65  1  0  0  0  0
 66 86  1  0  0  0  0
 67 69  1  0  0  0  0
 67 77  1  0  0  0  0
 68 79  1  0  0  0  0
 70 71  1  0  0  0  0
M  CHG  1  79   1
M  ISO  4  32 100  66 101  78 100  86 101
M  END
> <Batch ID>
0021

> <Smiles>
CCCCCCC1CCC(CC)([100NH:0][100C:0](=O)N2CCCC(n3nc(-c4ccc(Oc5ccc(F)cc5F)cc4)c(C(N)=O)c3N)C2)C(CC[101CH2:1][101O:1]c2ccc3c(c2)CN(C(=O)C(NC(=O)C(C)NC)C(C)(C)C)C(C(=O)NC2CCCc4ccccc42)C3)C1

> <Shape>
0.234

> <Color>
0.063

> <Negative vol penalty>
0.000

$$$$

  -OEChem-04052316123D

 89 97  0     1  0  0  0  0  0999 V2000
  -14.3237   -8.8679   17.2976 C   0  0  0  0  0  0  0  0  0  0  0  0
  -15.3659   -9.7890   17.2725 C   0  0  0  0  0  0  0  0  0  0  0  0
  -23.0013   -9.8935   19.9811 C   0  0  0  0  0  0  0  0  0  0  0  0
  -23.7313   -9.9423   22.2836 C   0  0  0  0  0  0  0  0  0  0  0  0
  -14.4776   -7.6258   16.6832 C   0  0  0  0  0  0  0  0  0  0  0  0
  -16.5632   -9.4682   16.6337 C   0  0  0  0  0  0  0  0  0  0  0  0
  -18.2934  -13.2456   13.7385 C   0  0  0  0  0  0  0  0  0  0  0  0
  -21.8741  -19.6812   16.1478 C   0  0  0  0  0  0  0  0  0  0  0  0
  -21.0792  -18.6663   15.6152 C   0  0  0  0  0  0  0  0  0  0  0  0
  -22.2365   -8.7579   20.2476 C   0  0  0  0  0  0  0  0  0  0  0  0
  -22.9665   -8.8066   22.5501 C   0  0  0  0  0  0  0  0  0  0  0  0
  -18.9305  -14.3034   14.3857 C   0  0  0  0  0  0  0  0  0  0  0  0
  -23.2133   -5.4686   22.0734 C   0  0  0  0  0  0  0  0  0  0  0  0
  -23.8035   -4.4510   22.8229 C   0  0  0  0  0  0  0  0  0  0  0  0
  -21.0734  -13.3649   13.7973 C   0  0  0  0  0  0  0  0  0  0  0  0
  -22.0829   -4.6900   24.5021 C   0  0  0  0  0  0  0  0  0  0  0  0
  -23.7488  -10.4857   20.9991 C   0  0  0  0  0  0  0  0  0  0  0  0
  -24.1311  -13.0019   20.8255 C   0  0  0  0  0  0  0  0  0  0  0  0
  -15.6739   -7.2933   16.0282 C   0  0  0  0  0  0  0  0  0  0  0  0
  -19.0428  -12.2320   13.1242 C   0  0  0  0  0  0  0  0  0  0  0  0
  -16.7338   -8.2200   16.0111 C   0  0  0  0  0  0  0  0  0  0  0  0
  -20.4434  -12.2966   13.1407 C   0  0  0  0  0  0  0  0  0  0  0  0
  -22.5718  -19.4692   17.3369 C   0  0  0  0  0  0  0  0  0  0  0  0
  -20.9819  -17.4394   16.2717 C   0  0  0  0  0  0  0  0  0  0  0  0
  -22.2191   -8.2145   21.5321 C   0  0  0  0  0  0  0  0  0  0  0  0
  -20.3207  -14.3617   14.4176 C   0  0  0  0  0  0  0  0  0  0  0  0
  -22.0579   -6.0969   22.5382 C   0  0  0  0  0  0  0  0  0  0  0  0
  -23.2383   -4.0617   24.0372 C   0  0  0  0  0  0  0  0  0  0  0  0
  -21.4928   -5.7076   23.7526 C   0  0  0  0  0  0  0  0  0  0  0  0
  -22.4745  -18.2423   17.9934 C   0  0  0  0  0  0  0  0  0  0  0  0
  -21.6796  -17.2274   17.4608 C   0  0  0  0  0  0  0  0  0  0  0  0
  -24.5394  -11.6585   20.7243 C   0  0  0  0  0  0  0  0  0  0  0  0
  -25.2393  -13.7261   20.4597 C   0  0  0  0  0  0  0  0  0  0  0  0
  -22.8634  -13.5465   21.2155 C   0  0  0  0  0  0  0  0  0  0  0  0
  -19.3402   -9.0951   13.5425 C   0  0  0  0  0  0  0  0  0  0  0  0
  -21.1663   -9.3052   10.8698 C   0  0  0  0  0  0  0  0  0  0  0  0
  -23.1196  -11.2311    8.8395 C   0  0  0  0  0  0  0  0  0  0  0  0
  -30.7352  -14.6661   20.6977 C   0  0  0  0  0  0  0  0  0  0  0  0
  -15.8106   -5.9204   15.4190 C   0  0  0  0  0  0  0  0  0  0  0  0
  -18.3404  -11.1118   12.4071 C   0  0  0  0  0  0  0  0  0  0  0  0
  -21.2937  -11.2443   12.4789 C   0  0  0  0  0  0  0  0  0  0  0  0
  -16.9760   -5.8017   14.4401 C   0  0  0  0  0  0  0  0  0  0  0  0
  -29.5921  -12.2443   18.3515 C   0  0  0  0  0  0  0  0  0  0  0  0
  -18.2367   -6.4226   15.0332 C   0  0  0  0  0  0  0  0  0  0  0  0
  -28.1447  -11.9825   18.7719 C   0  0  0  0  0  0  0  0  0  0  0  0
  -30.4968  -12.4791   19.5592 C   0  0  0  0  0  0  0  0  0  0  0  0
  -28.5887  -13.2709   20.9030 C   0  0  0  0  0  0  0  0  0  0  0  0
  -18.0389   -7.9184   15.3068 C   0  0  1  0  0  0  0  0  0  0  0  0
  -19.2041   -9.8631   12.2583 C   0  0  1  0  0  0  0  0  0  0  0  0
  -27.6274  -13.0837   19.7168 C   0  0  2  0  0  0  0  0  0  0  0  0
  -24.5054  -11.1143    6.7506 C   0  0  0  0  0  0  0  0  0  0  0  0
  -23.3744   -7.8772   12.4174 C   0  0  0  0  0  0  0  0  0  0  0  0
  -24.9942   -8.6278   10.6622 C   0  0  0  0  0  0  0  0  0  0  0  0
  -23.1034   -7.1206   10.0492 C   0  0  0  0  0  0  0  0  0  0  0  0
  -21.4300  -13.2366    7.4675 C   0  0  0  0  0  0  0  0  0  0  0  0
  -23.4104  -20.5884   17.8666 C   0  0  0  0  0  0  0  0  0  0  0  0
  -20.1142  -16.3802   15.6580 C   0  0  0  0  0  0  0  0  0  1  0  0
  -28.8601  -19.4120   19.7086 C   0  0  0  0  0  0  0  0  0  0  0  0
  -29.0807  -18.3141   20.7514 C   0  0  0  0  0  0  0  0  0  0  0  0
  -27.3777  -19.7722   19.5842 C   0  0  0  0  0  0  0  0  0  0  0  0
  -30.5677  -17.9770   20.8962 C   0  0  0  0  0  0  0  0  0  0  0  0
  -27.1648  -20.8992   18.5695 C   0  0  0  0  0  0  0  0  0  0  0  0
  -30.8182  -16.8436   21.8856 C   0  0  0  0  0  0  0  0  0  0  0  0
  -25.7136  -21.3507   18.4605 C   0  0  0  0  0  0  0  0  0  0  0  0
  -22.6307   -9.5443   10.5916 C   0  0  1  0  0  0  0  0  0  0  0  0
  -23.1328  -11.4142    7.3326 C   0  0  2  0  0  0  0  0  0  0  0  0
  -23.5100   -8.3114   10.9443 C   0  0  0  0  0  0  0  0  0  0  0  0
  -25.8080  -11.5338   20.3252 N   0  0  0  0  0  0  0  0  0  0  0  0
  -26.2063  -12.8082   20.1724 N   0  0  0  0  0  0  0  0  0  0  0  0
  -20.5602  -10.1657   11.7960 N   0  0  0  0  0  0  0  0  0  0  0  0
  -29.9507  -13.5361   20.4138 N   0  0  0  0  0  0  0  0  0  0  0  0
  -25.4712  -15.0522   20.3589 N   0  0  0  0  0  0  0  0  0  0  0  0
  -21.8333  -12.6608   21.5600 N   0  0  0  0  0  0  0  0  0  0  0  0
  -18.1372   -8.6745   14.0768 N   0  0  0  0  0  0  0  0  0  0  0  0
  -22.7184   -9.9611    9.1963 N   0  0  0  0  0  0  0  0  0  0  0  0
  -30.1396  -15.6232   21.5101 N   0  0  0  0  0  0  0  0  0  0  0  0
  -22.7676  -12.8148    6.9777 N   0  3  0  0  0  0  0  0  0  0  0  0
  -24.8502  -20.2357   17.9895 N   0  3  0  0  0  0  0  0  0  0  0  0
  -22.6455  -14.7816   21.2413 O   0  0  0  0  0  0  0  0  0  0  0  0
  -20.4543   -8.8973   14.0131 O   0  0  0  0  0  0  0  0  0  0  0  0
  -20.5801   -8.3932   10.2815 O   0  0  0  0  0  0  0  0  0  0  0  0
  -23.4374  -12.1242    9.6218 O   0  0  0  0  0  0  0  0  0  0  0  0
  -31.8796  -14.8138   20.2554 O   0  0  0  0  0  0  0  0  0  0  0  0
  -21.4727   -7.1065   21.7925 O   0  0  0  0  0  0  0  0  0  0  0  0
  -20.9451  -15.3927   15.0492 O   0  0  0  0  0  0  0  0  0  1  0  0
  -23.8043   -3.0834   24.7561 F   0  0  0  0  0  0  0  0  0  0  0  0
  -20.3822   -6.3067   24.2037 F   0  0  0  0  0  0  0  0  0  0  0  0
  -23.3556  -18.0111   19.4711 Cl  0  0  0  0  0  0  0  0  0  0  0  0
  -21.5370  -15.6892   18.2525 Cl  0  0  0  0  0  0  0  0  0  0  0  0
  1  2  1  0  0  0  0
  1  5  2  0  0  0  0
  2  6  2  0  0  0  0
  3 10  2  0  0  0  0
  3 17  1  0  0  0  0
  4 11  1  0  0  0  0
  4 17  2  0  0  0  0
  5 19  1  0  0  0  0
  6 21  1  0  0  0  0
  7 12  2  0  0  0  0
  7 20  1  0  0  0  0
  8  9  2  0  0  0  0
  8 23  1  0  0  0  0
  9 24  1  0  0  0  0
 10 25  1  0  0  0  0
 11 25  2  0  0  0  0
 12 26  1  0  0  0  0
 13 14  2  0  0  0  0
 13 27  1  0  0  0  0
 14 28  1  0  0  0  0
 15 22  1  0  0  0  0
 15 26  2  0  0  0  0
 16 28  2  0  0  0  0
 16 29  1  0  0  0  0
 17 32  1  0  0  0  0
 18 32  1  0  0  0  0
 18 33  2  0  0  0  0
 18 34  1  0  0  0  0
 19 21  2  0  0  0  0
 19 39  1  0  0  0  0
 20 22  2  0  0  0  0
 20 40  1  0  0  0  0
 21 48  1  0  0  0  0
 22 41  1  0  0  0  0
 23 30  2  0  0  0  0
 23 56  1  0  0  0  0
 24 31  2  0  0  0  0
 24 57  1  0  0  0  0
 25 84  1  0  0  0  0
 26 85  1  0  0  0  0
 27 29  2  0  0  0  0
 27 84  1  0  0  0  0
 28 86  1  0  0  0  0
 29 87  1  0  0  0  0
 30 31  1  0  0  0  0
 30 88  1  0  0  0  0
 31 89  1  0  0  0  0
 32 68  2  0  0  0  0
 33 69  1  0  0  0  0
 33 72  1  0  0  0  0
 34 73  1  0  0  0  0
 34 79  2  0  0  0  0
 35 49  1  0  0  0  0
 35 74  1  0  0  0  0
 35 80  2  0  0  0  0
 36 65  1  0  0  0  0
 36 70  1  0  0  0  0
 36 81  2  0  0  0  0
 37 66  1  0  0  0  0
 37 75  1  0  0  0  0
 37 82  2  0  0  0  0
 38 71  1  0  0  0  0
 38 76  1  0  0  0  0
 38 83  2  0  0  0  0
 39 42  1  0  0  0  0
 40 49  1  0  0  0  0
 41 70  1  0  0  0  0
 42 44  1  0  0  0  0
 43 45  1  0  0  0  0
 43 46  1  0  0  0  0
 44 48  1  0  0  0  0
 45 50  1  0  0  0  0
 46 71  1  0  0  0  0
 47 50  1  0  0  0  0
 47 71  1  0  0  0  0
 48 74  1  0  0  0  0
 49 70  1  0  0  0  0
 50 69  1  0  0  0  0
 51 66  1  0  0  0  0
 52 67  1  0  0  0  0
 53 67  1  0  0  0  0
 54 67  1  0  0  0  0
 55 77  1  0  0  0  0
 56 78  1  0  0  0  0
 57 85  1  0  0  0  0
 58 59  1  0  0  0  0
 58 60  1  0  0  0  0
 59 61  1  0  0  0  0
 60 62  1  0  0  0  0
 61 63  1  0  0  0  0
 62 64  1  0  0  0  0
 63 76  1  0  0  0  0
 64 78  1  0  0  0  0
 65 67  1  0  0  0  0
 65 75  1  0  0  0  0
 66 77  1  0  0  0  0
 68 69  1  0  0  0  0
M  CHG  2  77   1  78   1
M  ISO  4  38 100  57 101  76 100  85 101
M  END
> <Batch ID>
0021

> <Smiles>
CNC(C)C(=O)NC(C(=O)N1Cc2cc([101O:1][101CH2:1]c3ccc(CNCCCCCCC[100NH:0][100C:0](=O)N4CCCC(n5nc(-c6ccc(Oc7ccc(F)cc7F)cc6)c(C(N)=O)c5N)C4)c(Cl)c3Cl)ccc2CC1C(=O)NC1CCCc2ccccc21)C(C)(C)C

> <Shape>
0.188

> <Color>
0.193

> <Negative vol penalty>
0.000

$$$$

  -OEChem-04052316123D

 83 91  0     1  0  0  0  0  0999 V2000
  -29.5559  -24.8349   17.0111 C   0  0  0  0  0  0  0  0  0  0  0  0
  -28.4772  -24.7660   17.8870 C   0  0  0  0  0  0  0  0  0  0  0  0
  -26.6583  -13.1516   20.1368 C   0  0  0  0  0  0  0  0  0  0  0  0
  -24.3260  -13.6487   20.5246 C   0  0  0  0  0  0  0  0  0  0  0  0
  -30.5859  -25.7449   17.2457 C   0  0  0  0  0  0  0  0  0  0  0  0
  -28.4285  -25.6064   18.9987 C   0  0  0  0  0  0  0  0  0  0  0  0
  -23.8629  -27.6968   19.6551 C   0  0  0  0  0  0  0  0  0  0  0  0
  -26.4952  -11.9090   20.7492 C   0  0  0  0  0  0  0  0  0  0  0  0
  -24.1629  -12.4061   21.1370 C   0  0  0  0  0  0  0  0  0  0  0  0
  -22.8727  -26.8977   20.2248 C   0  0  0  0  0  0  0  0  0  0  0  0
  -23.7791   -9.1889   20.1763 C   0  0  0  0  0  0  0  0  0  0  0  0
  -22.6564   -8.4384   19.8272 C   0  0  0  0  0  0  0  0  0  0  0  0
  -23.2552  -27.9555   22.3588 C   0  0  0  0  0  0  0  0  0  0  0  0
  -21.9222   -8.4660   22.1288 C   0  0  0  0  0  0  0  0  0  0  0  0
  -25.5736  -14.0215   20.0246 C   0  0  0  0  0  0  0  0  0  0  0  0
  -25.5790  -15.6088   18.0276 C   0  0  0  0  0  0  0  0  0  0  0  0
  -30.5450  -26.6035   18.3555 C   0  0  0  0  0  0  0  0  0  0  0  0
  -24.5655  -28.6252   20.4367 C   0  0  0  0  0  0  0  0  0  0  0  0
  -29.4596  -26.5278   19.2491 C   0  0  0  0  0  0  0  0  0  0  0  0
  -24.2521  -28.7670   21.7961 C   0  0  0  0  0  0  0  0  0  0  0  0
  -21.6398  -23.4383   22.9918 C   0  0  0  0  0  0  0  0  0  0  0  0
  -25.2476  -11.5362   21.2492 C   0  0  0  0  0  0  0  0  0  0  0  0
  -22.5707  -27.0249   21.5775 C   0  0  0  0  0  0  0  0  0  0  0  0
  -23.9734   -9.5779   21.5017 C   0  0  0  0  0  0  0  0  0  0  0  0
  -21.7280   -8.0770   20.8034 C   0  0  0  0  0  0  0  0  0  0  0  0
  -23.0449   -9.2165   22.4779 C   0  0  0  0  0  0  0  0  0  0  0  0
  -22.9699  -22.9541   23.0498 C   0  0  0  0  0  0  0  0  0  0  0  0
  -25.7415  -15.3054   19.3926 C   0  0  0  0  0  0  0  0  0  0  0  0
  -20.9669  -22.6816   22.0581 C   0  0  0  0  0  0  0  0  0  0  0  0
  -25.8500  -16.9524   17.9398 C   0  0  0  0  0  0  0  0  0  0  0  0
  -23.0694  -21.9163   22.1496 C   0  0  0  0  0  0  0  0  0  0  0  0
  -25.2156  -14.7526   16.9365 C   0  0  0  0  0  0  0  0  0  0  0  0
  -27.6106  -29.0155   21.2604 C   0  0  0  0  0  0  0  0  0  0  0  0
  -26.4973  -31.7636   22.5761 C   0  0  0  0  0  0  0  0  0  0  0  0
  -23.8543  -33.4953   23.8655 C   0  0  0  0  0  0  0  0  0  0  0  0
  -25.5280  -21.4465   21.8648 C   0  0  0  0  0  0  0  0  0  0  0  0
  -31.7048  -27.5378   18.5936 C   0  0  0  0  0  0  0  0  0  0  0  0
  -25.6123  -29.4985   19.8012 C   0  0  0  0  0  0  0  0  0  0  0  0
  -24.9631  -29.7630   22.6741 C   0  0  0  0  0  0  0  0  0  0  0  0
  -31.3943  -28.6529   19.5889 C   0  0  0  0  0  0  0  0  0  0  0  0
  -28.4110  -20.4021   20.0552 C   0  0  0  0  0  0  0  0  0  0  0  0
  -30.6979  -28.0883   20.8230 C   0  0  0  0  0  0  0  0  0  0  0  0
  -28.0366  -19.0067   19.5506 C   0  0  0  0  0  0  0  0  0  0  0  0
  -27.8518  -20.6692   21.4515 C   0  0  0  0  0  0  0  0  0  0  0  0
  -26.0338  -19.0461   21.0916 C   0  0  0  0  0  0  0  0  0  0  0  0
  -29.3586  -27.4399   20.4524 C   0  0  1  0  0  0  0  0  0  0  0  0
  -26.6204  -30.0497   20.8049 C   0  0  1  0  0  0  0  0  0  0  0  0
  -26.5200  -18.7552   19.6623 C   0  0  2  0  0  0  0  0  0  0  0  0
  -19.5621  -22.7574   21.6037 C   0  0  0  0  0  0  0  0  0  0  0  0
  -22.0563  -21.1595   19.1720 C   0  0  0  0  0  0  0  0  0  0  0  0
  -21.0829  -24.2651   25.3022 C   0  0  0  0  0  0  0  0  0  0  0  0
  -23.2613  -35.7057   24.8951 C   0  0  0  0  0  0  0  0  0  0  0  0
  -27.8004  -30.8913   25.1935 C   0  0  0  0  0  0  0  0  0  0  0  0
  -26.4050  -32.6004   26.3768 C   0  0  0  0  0  0  0  0  0  0  0  0
  -28.0620  -33.3198   24.6565 C   0  0  0  0  0  0  0  0  0  0  0  0
  -21.9411  -34.1234   21.6967 C   0  0  0  0  0  0  0  0  0  0  0  0
  -21.5259  -20.7727   20.5419 C   0  0  0  0  0  0  0  0  0  0  0  0
  -21.7560  -25.9136   23.5159 C   0  0  0  0  0  0  0  0  0  1  0  0
  -21.0512  -24.5811   23.8042 C   0  0  1  0  0  0  0  0  0  0  0  0
  -25.9410  -32.1549   23.9238 C   0  0  1  0  0  0  0  0  0  0  0  0
  -23.3497  -34.9034   23.6062 C   0  0  2  0  0  0  0  0  0  0  0  0
  -27.0399  -32.2214   25.0218 C   0  0  0  0  0  0  0  0  0  0  0  0
  -26.0890  -16.3706   20.1197 N   0  0  0  0  0  0  0  0  0  0  0  0
  -21.8459  -21.7597   21.5524 N   0  0  0  0  0  0  0  0  0  0  0  0
  -26.1471  -17.3564   19.2082 N   0  0  0  0  0  0  0  0  0  0  0  0
  -25.9830  -30.5896   22.0077 N   0  0  0  0  0  0  0  0  0  0  0  0
  -26.4099  -20.4144   21.4804 N   0  0  0  0  0  0  0  0  0  0  0  0
  -25.8608  -17.8159   16.9022 N   0  0  0  0  0  0  0  0  0  0  0  0
  -24.9719  -13.3983   17.2024 N   0  0  0  0  0  0  0  0  0  0  0  0
  -24.1786  -21.0973   21.8227 N   0  0  0  0  0  0  0  0  0  0  0  0
  -28.3488  -28.4538   20.2362 N   0  0  0  0  0  0  0  0  0  0  0  0
  -25.2228  -33.4084   23.7206 N   0  0  0  0  0  0  0  0  0  0  0  0
  -21.9959  -34.8621   22.9845 N   0  3  0  0  0  0  0  0  0  0  0  0
  -25.1260  -15.1726   15.7579 O   0  0  0  0  0  0  0  0  0  0  0  0
  -27.6995  -28.7481   22.4530 O   0  0  0  0  0  0  0  0  0  0  0  0
  -27.3512  -32.4772   22.0439 O   0  0  0  0  0  0  0  0  0  0  0  0
  -23.1095  -32.5663   24.1701 O   0  0  0  0  0  0  0  0  0  0  0  0
  -25.9380  -22.5666   22.1799 O   0  0  0  0  0  0  0  0  0  0  0  0
  -25.0881  -10.3237   21.8466 O   0  0  0  0  0  0  0  0  0  0  0  0
  -21.6051  -26.2456   22.1362 O   0  0  0  0  0  0  0  0  0  1  0  0
  -20.6491   -7.3575   20.4677 F   0  0  0  0  0  0  0  0  0  0  0  0
  -23.2255   -9.5883   23.7526 F   0  0  0  0  0  0  0  0  0  0  0  0
  -24.1972  -23.5649   24.0578 Cl  0  0  0  0  0  0  0  0  0  0  0  0
  1  2  1  0  0  0  0
  1  5  2  0  0  0  0
  2  6  2  0  0  0  0
  3  8  2  0  0  0  0
  3 15  1  0  0  0  0
  4  9  1  0  0  0  0
  4 15  2  0  0  0  0
  5 17  1  0  0  0  0
  6 19  1  0  0  0  0
  7 10  2  0  0  0  0
  7 18  1  0  0  0  0
  8 22  1  0  0  0  0
  9 22  2  0  0  0  0
 10 23  1  0  0  0  0
 11 12  2  0  0  0  0
 11 24  1  0  0  0  0
 12 25  1  0  0  0  0
 13 20  1  0  0  0  0
 13 23  2  0  0  0  0
 14 25  2  0  0  0  0
 14 26  1  0  0  0  0
 15 28  1  0  0  0  0
 16 28  1  0  0  0  0
 16 30  2  0  0  0  0
 16 32  1  0  0  0  0
 17 19  2  0  0  0  0
 17 37  1  0  0  0  0
 18 20  2  0  0  0  0
 18 38  1  0  0  0  0
 19 46  1  0  0  0  0
 20 39  1  0  0  0  0
 21 27  1  0  0  0  0
 21 29  2  0  0  0  0
 21 59  1  0  0  0  0
 22 79  1  0  0  0  0
 23 80  1  0  0  0  0
 24 26  2  0  0  0  0
 24 79  1  0  0  0  0
 25 81  1  0  0  0  0
 26 82  1  0  0  0  0
 27 31  2  0  0  0  0
 27 83  1  0  0  0  0
 28 63  2  0  0  0  0
 29 49  1  0  0  0  0
 29 64  1  0  0  0  0
 30 65  1  0  0  0  0
 30 68  1  0  0  0  0
 31 64  1  0  0  0  0
 31 70  1  0  0  0  0
 32 69  1  0  0  0  0
 32 74  2  0  0  0  0
 33 47  1  0  0  0  0
 33 71  1  0  0  0  0
 33 75  2  0  0  0  0
 34 60  1  0  0  0  0
 34 66  1  0  0  0  0
 34 76  2  0  0  0  0
 35 61  1  0  0  0  0
 35 72  1  0  0  0  0
 35 77  2  0  0  0  0
 36 67  1  0  0  0  0
 36 70  1  0  0  0  0
 36 78  2  0  0  0  0
 37 40  1  0  0  0  0
 38 47  1  0  0  0  0
 39 66  1  0  0  0  0
 40 42  1  0  0  0  0
 41 43  1  0  0  0  0
 41 44  1  0  0  0  0
 42 46  1  0  0  0  0
 43 48  1  0  0  0  0
 44 67  1  0  0  0  0
 45 48  1  0  0  0  0
 45 67  1  0  0  0  0
 46 71  1  0  0  0  0
 47 66  1  0  0  0  0
 48 65  1  0  0  0  0
 50 57  1  0  0  0  0
 51 59  1  0  0  0  0
 52 61  1  0  0  0  0
 53 62  1  0  0  0  0
 54 62  1  0  0  0  0
 55 62  1  0  0  0  0
 56 73  1  0  0  0  0
 57 64  1  0  0  0  0
 58 59  1  0  0  0  0
 58 80  1  0  0  0  0
 60 62  1  0  0  0  0
 60 72  1  0  0  0  0
 61 73  1  0  0  0  0
 63 65  1  0  0  0  0
M  CHG  1  73   1
M  ISO  4  36 100  58 101  70 100  80 101
M  END
> <Batch ID>
0021

> <Smiles>
CCn1c(C)c(C(C)[101CH2:1][101O:1]c2ccc3c(c2)CN(C(=O)C(NC(=O)C(C)NC)C(C)(C)C)C(C(=O)NC2CCCc4ccccc42)C3)c(Cl)c1[100NH:0][100C:0](=O)N1CCCC(n2nc(-c3ccc(Oc4ccc(F)cc4F)cc3)c(C(N)=O)c2N)C1

> <Shape>
0.257

> <Color>
0.075

> <Negative vol penalty>
0.000

$$$$

  -OEChem-04052316123D

 92100  0     1  0  0  0  0  0999 V2000
  -16.8707  -29.4993   24.3860 C   0  0  0  0  0  0  0  0  0  0  0  0
  -17.2898  -28.3596   23.7073 C   0  0  0  0  0  0  0  0  0  0  0  0
  -28.6136  -13.0009   21.7203 C   0  0  0  0  0  0  0  0  0  0  0  0
  -26.4940  -14.1490   21.5589 C   0  0  0  0  0  0  0  0  0  0  0  0
  -17.5142  -30.7165   24.1660 C   0  0  0  0  0  0  0  0  0  0  0  0
  -18.3521  -28.4365   22.8072 C   0  0  0  0  0  0  0  0  0  0  0  0
  -22.5669  -24.1311   21.7099 C   0  0  0  0  0  0  0  0  0  0  0  0
  -28.0281  -11.8468   21.1999 C   0  0  0  0  0  0  0  0  0  0  0  0
  -25.9085  -12.9948   21.0385 C   0  0  0  0  0  0  0  0  0  0  0  0
  -22.6878  -23.1711   20.7061 C   0  0  0  0  0  0  0  0  0  0  0  0
  -23.7703  -10.2438   20.0042 C   0  0  0  0  0  0  0  0  0  0  0  0
  -22.5280   -9.8620   20.5107 C   0  0  0  0  0  0  0  0  0  0  0  0
  -24.1417  -24.6505   19.4746 C   0  0  0  0  0  0  0  0  0  0  0  0
  -25.9834  -20.3084   20.5899 C   0  0  0  0  0  0  0  0  0  0  0  0
  -23.4880   -9.6687   22.7193 C   0  0  0  0  0  0  0  0  0  0  0  0
  -27.8465  -14.1520   21.8998 C   0  0  0  0  0  0  0  0  0  0  0  0
  -29.0683  -16.3839   21.7171 C   0  0  0  0  0  0  0  0  0  0  0  0
  -18.5912  -30.8064   23.2701 C   0  0  0  0  0  0  0  0  0  0  0  0
  -23.2248  -25.3644   21.5982 C   0  0  0  0  0  0  0  0  0  0  0  0
  -19.0098  -29.6563   22.5740 C   0  0  0  0  0  0  0  0  0  0  0  0
  -24.0295  -25.6235   20.4795 C   0  0  0  0  0  0  0  0  0  0  0  0
  -26.9953  -20.8959   21.3492 C   0  0  0  0  0  0  0  0  0  0  0  0
  -28.4494  -20.8852   19.4198 C   0  0  0  0  0  0  0  0  0  0  0  0
  -26.2045  -20.0091   19.2456 C   0  0  0  0  0  0  0  0  0  0  0  0
  -26.6756  -11.8437   20.8590 C   0  0  0  0  0  0  0  0  0  0  0  0
  -23.4729  -23.4318   19.5869 C   0  0  0  0  0  0  0  0  0  0  0  0
  -24.8715  -10.3379   20.8552 C   0  0  0  0  0  0  0  0  0  0  0  0
  -22.3868   -9.5745   21.8683 C   0  0  0  0  0  0  0  0  0  0  0  0
  -24.7303  -10.0504   22.2128 C   0  0  0  0  0  0  0  0  0  0  0  0
  -28.2282  -21.1843   20.7642 C   0  0  0  0  0  0  0  0  0  0  0  0
  -27.4375  -20.2976   18.6605 C   0  0  0  0  0  0  0  0  0  0  0  0
  -28.4506  -15.3443   22.4379 C   0  0  0  0  0  0  0  0  0  0  0  0
  -29.4762  -17.2742   22.6802 C   0  0  0  0  0  0  0  0  0  0  0  0
  -29.2565  -16.5316   20.3034 C   0  0  0  0  0  0  0  0  0  0  0  0
  -22.2907  -28.3981   21.4315 C   0  0  0  0  0  0  0  0  0  0  0  0
  -25.4771  -28.9817   21.5999 C   0  0  0  0  0  0  0  0  0  0  0  0
  -28.6594  -27.8542   21.1012 C   0  0  0  0  0  0  0  0  0  0  0  0
  -27.7832  -19.4287   27.7798 C   0  0  0  0  0  0  0  0  0  0  0  0
  -19.2249  -32.1537   23.0297 C   0  0  0  0  0  0  0  0  0  0  0  0
  -23.1057  -26.3789   22.7022 C   0  0  0  0  0  0  0  0  0  0  0  0
  -24.7728  -26.9239   20.3214 C   0  0  0  0  0  0  0  0  0  0  0  0
  -20.5845  -32.0730   22.3402 C   0  0  0  0  0  0  0  0  0  0  0  0
  -30.3658  -16.9901   27.5351 C   0  0  0  0  0  0  0  0  0  0  0  0
  -20.5253  -31.1162   21.1537 C   0  0  0  0  0  0  0  0  0  0  0  0
  -30.1927  -16.4138   26.1287 C   0  0  0  0  0  0  0  0  0  0  0  0
  -29.0212  -17.3205   28.1791 C   0  0  0  0  0  0  0  0  0  0  0  0
  -27.9741  -17.6182   25.9681 C   0  0  0  0  0  0  0  0  0  0  0  0
  -20.1743  -29.6944   21.6084 C   0  0  1  0  0  0  0  0  0  0  0  0
  -23.4070  -27.8017   22.2414 C   0  0  1  0  0  0  0  0  0  0  0  0
  -29.3050  -17.3215   25.2561 C   0  0  2  0  0  0  0  0  0  0  0  0
  -29.7858  -21.2094   18.8322 C   0  0  0  0  0  0  0  0  0  0  0  0
  -31.0564  -28.5715   21.2942 C   0  0  0  0  0  0  0  0  0  0  0  0
  -26.2482  -24.4857   24.5756 C   0  0  0  0  0  0  0  0  0  0  0  0
  -25.1773  -30.6568   19.0673 C   0  0  0  0  0  0  0  0  0  0  0  0
  -27.6624  -30.5470   18.7841 C   0  0  0  0  0  0  0  0  0  0  0  0
  -26.6859  -31.6456   20.7996 C   0  0  0  0  0  0  0  0  0  0  0  0
  -24.6217  -18.1241   18.9266 C   0  0  0  0  0  0  0  0  0  0  0  0
  -29.2617  -25.7187   23.0597 C   0  0  0  0  0  0  0  0  0  0  0  0
  -26.7558  -21.2140   22.7865 C   0  0  0  0  0  0  0  0  0  0  0  0
  -27.4979  -22.6184   26.8933 C   0  0  0  0  0  0  0  0  0  0  0  0
  -27.8263  -22.6892   25.3960 C   0  0  0  0  0  0  0  0  0  0  0  0
  -23.1271  -20.3805   17.5738 C   0  0  0  0  0  0  0  0  0  0  0  0
  -26.5219  -21.4928   27.2249 C   0  0  0  0  0  0  0  0  0  0  0  0
  -24.6014  -20.0651   17.3516 C   0  0  0  0  0  0  0  0  0  0  0  0
  -22.8853  -21.2705   18.7873 C   0  0  0  0  0  0  0  0  0  1  0  0
  -26.5920  -29.1276   20.5926 C   0  0  1  0  0  0  0  0  0  0  0  0
  -29.8901  -27.8862   21.9892 C   0  0  2  0  0  0  0  0  0  0  0  0
  -26.6091  -23.0069   24.5193 C   0  0  2  0  0  0  0  0  0  0  0  0
  -26.5140  -30.4704   19.8127 C   0  0  0  0  0  0  0  0  0  0  0  0
  -28.4628  -15.5534   23.7570 N   0  0  0  0  0  0  0  0  0  0  0  0
  -29.0933  -16.7346   23.8728 N   0  0  0  0  0  0  0  0  0  0  0  0
  -24.6195  -27.8865   21.4248 N   0  0  0  0  0  0  0  0  0  0  0  0
  -28.2288  -18.1854   27.3016 N   0  0  0  0  0  0  0  0  0  0  0  0
  -30.1217  -18.4581   22.6147 N   0  0  0  0  0  0  0  0  0  0  0  0
  -28.7758  -15.5237   19.4565 N   0  0  0  0  0  0  0  0  0  0  0  0
  -21.3330  -29.0481   22.1864 N   0  0  0  0  0  0  0  0  0  0  0  0
  -27.8361  -28.9364   21.3301 N   0  0  0  0  0  0  0  0  0  0  0  0
  -27.0439  -20.1888   26.8817 N   0  0  0  0  0  0  0  0  0  0  0  0
  -25.1658  -19.4186   18.5116 N   0  0  3  0  0  0  0  0  0  0  0  0
  -30.3056  -26.5009   22.3487 N   0  3  0  0  0  0  0  0  0  0  0  0
  -26.8997  -22.6618   23.1033 N   0  3  0  0  0  0  0  0  0  0  0  0
  -29.8482  -17.5201   19.8072 O   0  0  0  0  0  0  0  0  0  0  0  0
  -22.2984  -28.2787   20.2119 O   0  0  0  0  0  0  0  0  0  0  0  0
  -25.3754  -29.8050   22.5129 O   0  0  0  0  0  0  0  0  0  0  0  0
  -28.4511  -26.9607   20.2834 O   0  0  0  0  0  0  0  0  0  0  0  0
  -28.0307  -19.8339   28.9206 O   0  0  0  0  0  0  0  0  0  0  0  0
  -26.1040  -10.7178   20.3509 O   0  0  0  0  0  0  0  0  0  0  0  0
  -23.5921  -22.4968   18.6054 O   0  0  0  0  0  0  0  0  0  1  0  0
  -21.1935   -9.2094   22.3548 F   0  0  0  0  0  0  0  0  0  0  0  0
  -25.7843  -10.1402   23.0355 F   0  0  0  0  0  0  0  0  0  0  0  0
  -29.2002  -21.7491   21.4963 F   0  0  0  0  0  0  0  0  0  0  0  0
  -27.7182  -19.9276   16.9902 Cl  0  0  0  0  0  0  0  0  0  0  0  0
  1  2  1  0  0  0  0
  1  5  2  0  0  0  0
  2  6  2  0  0  0  0
  3  8  2  0  0  0  0
  3 16  1  0  0  0  0
  4  9  1  0  0  0  0
  4 16  2  0  0  0  0
  5 18  1  0  0  0  0
  6 20  1  0  0  0  0
  7 10  2  0  0  0  0
  7 19  1  0  0  0  0
  8 25  1  0  0  0  0
  9 25  2  0  0  0  0
 10 26  1  0  0  0  0
 11 12  2  0  0  0  0
 11 27  1  0  0  0  0
 12 28  1  0  0  0  0
 13 21  1  0  0  0  0
 13 26  2  0  0  0  0
 14 22  2  0  0  0  0
 14 24  1  0  0  0  0
 15 28  2  0  0  0  0
 15 29  1  0  0  0  0
 16 32  1  0  0  0  0
 17 32  1  0  0  0  0
 17 33  2  0  0  0  0
 17 34  1  0  0  0  0
 18 20  2  0  0  0  0
 18 39  1  0  0  0  0
 19 21  2  0  0  0  0
 19 40  1  0  0  0  0
 20 48  1  0  0  0  0
 21 41  1  0  0  0  0
 22 30  1  0  0  0  0
 22 59  1  0  0  0  0
 23 30  2  0  0  0  0
 23 31  1  0  0  0  0
 23 51  1  0  0  0  0
 24 31  2  0  0  0  0
 24 79  1  0  0  0  0
 25 87  1  0  0  0  0
 26 88  1  0  0  0  0
 27 29  2  0  0  0  0
 27 87  1  0  0  0  0
 28 89  1  0  0  0  0
 29 90  1  0  0  0  0
 30 91  1  0  0  0  0
 31 92  1  0  0  0  0
 32 70  2  0  0  0  0
 33 71  1  0  0  0  0
 33 74  1  0  0  0  0
 34 75  1  0  0  0  0
 34 82  2  0  0  0  0
 35 49  1  0  0  0  0
 35 76  1  0  0  0  0
 35 83  2  0  0  0  0
 36 66  1  0  0  0  0
 36 72  1  0  0  0  0
 36 84  2  0  0  0  0
 37 67  1  0  0  0  0
 37 77  1  0  0  0  0
 37 85  2  0  0  0  0
 38 73  1  0  0  0  0
 38 78  1  0  0  0  0
 38 86  2  0  0  0  0
 39 42  1  0  0  0  0
 40 49  1  0  0  0  0
 41 72  1  0  0  0  0
 42 44  1  0  0  0  0
 43 45  1  0  0  0  0
 43 46  1  0  0  0  0
 44 48  1  0  0  0  0
 45 50  1  0  0  0  0
 46 73  1  0  0  0  0
 47 50  1  0  0  0  0
 47 73  1  0  0  0  0
 48 76  1  0  0  0  0
 49 72  1  0  0  0  0
 50 71  1  0  0  0  0
 52 67  1  0  0  0  0
 53 68  1  0  0  0  0
 54 69  1  0  0  0  0
 55 69  1  0  0  0  0
 56 69  1  0  0  0  0
 57 79  1  0  0  0  0
 58 80  1  0  0  0  0
 59 81  1  0  0  0  0
 60 61  1  0  0  0  0
 60 63  1  0  0  0  0
 61 68  1  0  0  0  0
 62 64  1  0  0  0  0
 62 65  1  0  0  0  0
 63 78  1  0  0  0  0
 64 79  1  0  0  0  0
 65 88  1  0  0  0  0
 66 69  1  0  0  0  0
 66 77  1  0  0  0  0
 67 80  1  0  0  0  0
 68 81  1  0  0  0  0
 70 71  1  0  0  0  0
M  CHG  2  80   1  81   1
M  ISO  4  38 100  65 101  78 100  88 101
M  END
> <Batch ID>
0021

> <Smiles>
CNC(C)C(=O)NC(C(=O)N1Cc2cc([101O:1][101CH2:1]CCN(C)c3cc(CNC(C)CCC[100NH:0][100C:0](=O)N4CCCC(n5nc(-c6ccc(Oc7ccc(F)cc7F)cc6)c(C(N)=O)c5N)C4)c(F)c(C)c3Cl)ccc2CC1C(=O)NC1CCCc2ccccc21)C(C)(C)C

> <Shape>
0.216

> <Color>
0.083

> <Negative vol penalty>
0.000

$$$$

  -OEChem-04052316123D

 91 99  0     1  0  0  0  0  0999 V2000
  -27.5728  -37.7129   21.2917 C   0  0  0  0  0  0  0  0  0  0  0  0
  -28.0133  -36.6173   20.5562 C   0  0  0  0  0  0  0  0  0  0  0  0
  -24.2351  -20.2777   24.9616 C   0  0  0  0  0  0  0  0  0  0  0  0
  -26.4479  -20.3418   23.9940 C   0  0  0  0  0  0  0  0  0  0  0  0
  -26.9446  -37.5188   22.5212 C   0  0  0  0  0  0  0  0  0  0  0  0
  -27.8268  -35.3268   21.0504 C   0  0  0  0  0  0  0  0  0  0  0  0
  -26.5800  -28.6281   18.8392 C   0  0  0  0  0  0  0  0  0  0  0  0
  -24.6984  -20.9887   26.0685 C   0  0  0  0  0  0  0  0  0  0  0  0
  -26.9113  -21.0529   25.1009 C   0  0  0  0  0  0  0  0  0  0  0  0
  -27.0835  -27.3357   18.9811 C   0  0  0  0  0  0  0  0  0  0  0  0
  -25.4313  -24.1985   26.8386 C   0  0  0  0  0  0  0  0  0  0  0  0
  -24.6511  -25.2581   27.3014 C   0  0  0  0  0  0  0  0  0  0  0  0
  -25.9146  -27.1174   21.0800 C   0  0  0  0  0  0  0  0  0  0  0  0
  -24.4356  -24.1634   29.4444 C   0  0  0  0  0  0  0  0  0  0  0  0
  -25.1098  -19.9541   23.9243 C   0  0  0  0  0  0  0  0  0  0  0  0
  -24.0968  -19.7501   21.5920 C   0  0  0  0  0  0  0  0  0  0  0  0
  -26.7417  -36.2247   23.0261 C   0  0  0  0  0  0  0  0  0  0  0  0
  -25.7475  -29.1797   19.8235 C   0  0  0  0  0  0  0  0  0  0  0  0
  -27.1965  -35.1151   22.2884 C   0  0  0  0  0  0  0  0  0  0  0  0
  -25.3998  -28.4160   20.9469 C   0  0  0  0  0  0  0  0  0  0  0  0
  -26.0365  -21.3764   26.1381 C   0  0  0  0  0  0  0  0  0  0  0  0
  -26.7531  -26.5812   20.1030 C   0  0  0  0  0  0  0  0  0  0  0  0
  -25.7136  -23.1213   27.6787 C   0  0  0  0  0  0  0  0  0  0  0  0
  -24.1533  -25.2406   28.6043 C   0  0  0  0  0  0  0  0  0  0  0  0
  -25.2158  -23.1038   28.9815 C   0  0  0  0  0  0  0  0  0  0  0  0
  -24.6319  -19.2191   22.7809 C   0  0  0  0  0  0  0  0  0  0  0  0
  -23.7959  -18.6485   20.8289 C   0  0  0  0  0  0  0  0  0  0  0  0
  -23.8903  -21.1169   21.2114 C   0  0  0  0  0  0  0  0  0  0  0  0
  -25.9363  -31.6794   21.7779 C   0  0  0  0  0  0  0  0  0  0  0  0
  -22.8907  -30.8401   22.5142 C   0  0  0  0  0  0  0  0  0  0  0  0
  -20.5060  -28.4017   22.6347 C   0  0  0  0  0  0  0  0  0  0  0  0
  -25.9313  -13.0556   20.7220 C   0  0  0  0  0  0  0  0  0  0  0  0
  -26.1000  -36.0669   24.3819 C   0  0  0  0  0  0  0  0  0  0  0  0
  -25.1911  -30.5654   19.6426 C   0  0  0  0  0  0  0  0  0  0  0  0
  -24.4933  -28.9546   22.0224 C   0  0  0  0  0  0  0  0  0  0  0  0
  -25.6053  -34.6499   24.6603 C   0  0  0  0  0  0  0  0  0  0  0  0
  -22.5487  -14.0464   21.2246 C   0  0  0  0  0  0  0  0  0  0  0  0
  -26.6707  -33.6276   24.2774 C   0  0  0  0  0  0  0  0  0  0  0  0
  -22.6507  -15.5324   21.5732 C   0  0  0  0  0  0  0  0  0  0  0  0
  -28.8590  -13.9945   18.6904 C   0  0  0  0  0  0  0  0  0  0  0  0
  -30.8409  -14.2359   20.2431 C   0  0  0  0  0  0  0  0  0  0  0  0
  -23.7131  -13.2487   21.8076 C   0  0  0  0  0  0  0  0  0  0  0  0
  -25.1532  -15.2487   21.8090 C   0  0  0  0  0  0  0  0  0  0  0  0
  -26.9903  -33.6986   22.7793 C   0  0  1  0  0  0  0  0  0  0  0  0
  -24.7672  -31.2153   20.9561 C   0  0  1  0  0  0  0  0  0  0  0  0
  -24.0309  -16.1034   21.1958 C   0  0  2  0  0  0  0  0  0  0  0  0
  -28.1744  -13.0222   19.6615 C   0  0  1  0  0  0  0  0  0  0  0  0
  -29.7899  -14.9630   19.4090 C   0  0  1  0  0  0  0  0  0  0  0  0
  -30.2264  -13.2633   21.2915 C   0  0  0  0  0  0  0  0  0  0  0  0
  -29.1920  -12.2676   20.5943 C   0  0  0  0  0  0  0  0  0  0  0  0
  -31.4079  -12.5087   21.9552 C   0  0  0  0  0  0  0  0  0  0  0  0
  -29.5828  -14.1041   22.4230 C   0  0  0  0  0  0  0  0  0  0  0  0
  -28.4094  -11.4201   21.6306 C   0  0  0  0  0  0  0  0  0  0  0  0
  -29.9407  -11.2344   19.6999 C   0  0  0  0  0  0  0  0  0  0  0  0
  -18.1244  -28.0078   23.3201 C   0  0  0  0  0  0  0  0  0  0  0  0
  -32.1173  -17.5517   17.9760 C   0  0  0  0  0  0  0  0  0  0  0  0
  -23.7430  -30.7991   25.4437 C   0  0  0  0  0  0  0  0  0  0  0  0
  -21.6595  -29.5102   25.9595 C   0  0  0  0  0  0  0  0  0  0  0  0
  -21.4975  -31.8173   25.0247 C   0  0  0  0  0  0  0  0  0  0  0  0
  -19.7126  -27.6686   19.8794 C   0  0  0  0  0  0  0  0  0  0  0  0
  -29.4156  -21.6073   20.7268 C   0  0  0  0  0  0  0  0  0  0  0  0
  -29.0828  -20.3841   19.8693 C   0  0  0  0  0  0  0  0  0  0  0  0
  -28.2816  -22.6343   20.6895 C   0  0  0  0  0  0  0  0  0  0  0  0
  -30.1891  -19.3234   19.8610 C   0  0  0  0  0  0  0  0  0  0  0  0
  -28.5960  -23.8413   21.5708 C   0  0  0  0  0  0  0  0  0  0  0  0
  -29.8644  -18.1139   18.9763 C   0  0  0  0  0  0  0  0  0  0  0  0
  -27.4543  -24.8481   21.5728 C   0  0  0  0  0  0  0  0  0  1  0  0
  -22.2498  -29.9235   23.5281 C   0  0  1  0  0  0  0  0  0  0  0  0
  -19.0576  -28.3860   22.1805 C   0  0  2  0  0  0  0  0  0  0  0  0
  -31.0022  -17.0879   18.9045 C   0  0  1  0  0  0  0  0  0  0  0  0
  -22.3061  -30.5028   24.9699 C   0  0  0  0  0  0  0  0  0  0  0  0
  -24.6699  -17.8840   22.7781 N   0  0  0  0  0  0  0  0  0  0  0  0
  -24.1548  -17.5667   21.5780 N   0  0  0  0  0  0  0  0  0  0  0  0
  -23.9798  -30.3169   21.8030 N   0  0  0  0  0  0  0  0  0  0  0  0
  -24.9927  -13.8413   21.4110 N   0  0  0  0  0  0  0  0  0  0  0  0
  -23.2620  -18.5093   19.5968 N   0  0  0  0  0  0  0  0  0  0  0  0
  -24.2553  -22.1244   22.1148 N   0  0  0  0  0  0  0  0  0  0  0  0
  -25.9555  -33.0415   22.0100 N   0  0  0  0  0  0  0  0  0  0  0  0
  -20.8996  -29.6586   23.0429 N   0  0  0  0  0  0  0  0  0  0  0  0
  -27.1153  -13.6964   20.3778 N   0  0  0  0  0  0  0  0  0  0  0  0
  -30.4877  -15.7940   18.3869 N   0  3  0  0  0  0  0  0  0  0  0  0
  -18.8721  -27.4036   21.0753 N   0  3  0  0  0  0  0  0  0  0  0  0
  -23.3815  -21.4349   20.1098 O   0  0  0  0  0  0  0  0  0  0  0  0
  -26.7593  -30.8621   22.1734 O   0  0  0  0  0  0  0  0  0  0  0  0
  -22.4371  -31.9760   22.3540 O   0  0  0  0  0  0  0  0  0  0  0  0
  -21.2161  -27.3986   22.6315 O   0  0  0  0  0  0  0  0  0  0  0  0
  -25.7270  -11.8724   20.4301 O   0  0  0  0  0  0  0  0  0  0  0  0
  -26.4890  -22.0705   27.2180 O   0  0  0  0  0  0  0  0  0  0  0  0
  -27.2472  -25.3105   20.2454 O   0  0  0  0  0  0  0  0  0  1  0  0
  -23.4053  -26.2589   29.0490 F   0  0  0  0  0  0  0  0  0  0  0  0
  -25.4846  -22.0723   29.7936 F   0  0  0  0  0  0  0  0  0  0  0  0
  1  2  1  0  0  0  0
  1  5  2  0  0  0  0
  2  6  2  0  0  0  0
  3  8  2  0  0  0  0
  3 15  1  0  0  0  0
  4  9  1  0  0  0  0
  4 15  2  0  0  0  0
  5 17  1  0  0  0  0
  6 19  1  0  0  0  0
  7 10  2  0  0  0  0
  7 18  1  0  0  0  0
  8 21  1  0  0  0  0
  9 21  2  0  0  0  0
 10 22  1  0  0  0  0
 11 12  2  0  0  0  0
 11 23  1  0  0  0  0
 12 24  1  0  0  0  0
 13 20  1  0  0  0  0
 13 22  2  0  0  0  0
 14 24  2  0  0  0  0
 14 25  1  0  0  0  0
 15 26  1  0  0  0  0
 16 26  1  0  0  0  0
 16 27  2  0  0  0  0
 16 28  1  0  0  0  0
 17 19  2  0  0  0  0
 17 33  1  0  0  0  0
 18 20  2  0  0  0  0
 18 34  1  0  0  0  0
 19 44  1  0  0  0  0
 20 35  1  0  0  0  0
 21 88  1  0  0  0  0
 22 89  1  0  0  0  0
 23 25  2  0  0  0  0
 23 88  1  0  0  0  0
 24 90  1  0  0  0  0
 25 91  1  0  0  0  0
 26 72  2  0  0  0  0
 27 73  1  0  0  0  0
 27 76  1  0  0  0  0
 28 77  1  0  0  0  0
 28 83  2  0  0  0  0
 29 45  1  0  0  0  0
 29 78  1  0  0  0  0
 29 84  2  0  0  0  0
 30 68  1  0  0  0  0
 30 74  1  0  0  0  0
 30 85  2  0  0  0  0
 31 69  1  0  0  0  0
 31 79  1  0  0  0  0
 31 86  2  0  0  0  0
 32 75  1  0  0  0  0
 32 80  1  0  0  0  0
 32 87  2  0  0  0  0
 33 36  1  0  0  0  0
 34 45  1  0  0  0  0
 35 74  1  0  0  0  0
 36 38  1  0  0  0  0
 37 39  1  0  0  0  0
 37 42  1  0  0  0  0
 38 44  1  0  0  0  0
 39 46  1  0  0  0  0
 40 47  1  0  0  0  0
 40 48  1  0  0  0  0
 41 48  1  0  0  0  0
 41 49  1  0  0  0  0
 42 75  1  0  0  0  0
 43 46  1  0  0  0  0
 43 75  1  0  0  0  0
 44 78  1  0  0  0  0
 45 74  1  0  0  0  0
 46 73  1  0  0  0  0
 47 50  1  0  0  0  0
 47 80  1  0  0  0  0
 48 81  1  0  0  0  0
 49 50  1  0  0  0  0
 49 51  1  0  0  0  0
 49 52  1  0  0  0  0
 50 53  1  0  0  0  0
 50 54  1  0  0  0  0
 55 69  1  0  0  0  0
 56 70  1  0  0  0  0
 57 71  1  0  0  0  0
 58 71  1  0  0  0  0
 59 71  1  0  0  0  0
 60 82  1  0  0  0  0
 61 62  1  0  0  0  0
 61 63  1  0  0  0  0
 62 64  1  0  0  0  0
 63 65  1  0  0  0  0
 64 66  1  0  0  0  0
 65 67  1  0  0  0  0
 66 70  1  0  0  0  0
 67 89  1  0  0  0  0
 68 71  1  0  0  0  0
 68 79  1  0  0  0  0
 69 82  1  0  0  0  0
 70 81  1  0  0  0  0
 72 73  1  0  0  0  0
M  CHG  2  81   1  82   1
M  ISO  4  32 100  67 101  80 100  89 101
M  END
> <Batch ID>
0021

> <Smiles>
CNC(C)C(=O)NC(C(=O)N1Cc2cc([101O:1][101CH2:1]CCCCCCC(C)NC3CC([100NH:0][100C:0](=O)N4CCCC(n5nc(-c6ccc(Oc7ccc(F)cc7F)cc6)c(C(N)=O)c5N)C4)C(C)(C)C(C)(C)C3)ccc2CC1C(=O)NC1CCCc2ccccc21)C(C)(C)C

> <Shape>
0.264

> <Color>
0.061

> <Negative vol penalty>
0.000

$$$$

  -OEChem-04052316123D

 84 92  0     1  0  0  0  0  0999 V2000
  -37.7145  -32.2548   18.5307 C   0  0  0  0  0  0  0  0  0  0  0  0
  -37.4869  -31.3227   19.5381 C   0  0  0  0  0  0  0  0  0  0  0  0
  -23.0013   -9.8944   19.9793 C   0  0  0  0  0  0  0  0  0  0  0  0
  -23.7275   -9.9423   22.2830 C   0  0  0  0  0  0  0  0  0  0  0  0
  -36.8024  -32.3855   17.4844 C   0  0  0  0  0  0  0  0  0  0  0  0
  -36.3463  -30.5214   19.5003 C   0  0  0  0  0  0  0  0  0  0  0  0
  -35.8633  -24.7133   21.3813 C   0  0  0  0  0  0  0  0  0  0  0  0
  -22.2351   -8.7593   20.2444 C   0  0  0  0  0  0  0  0  0  0  0  0
  -22.9613   -8.8072   22.5482 C   0  0  0  0  0  0  0  0  0  0  0  0
  -35.3826  -24.1462   22.5608 C   0  0  0  0  0  0  0  0  0  0  0  0
  -23.2062   -5.4690   22.0715 C   0  0  0  0  0  0  0  0  0  0  0  0
  -23.7943   -4.4509   22.8218 C   0  0  0  0  0  0  0  0  0  0  0  0
  -33.2397  -23.7934   21.5108 C   0  0  0  0  0  0  0  0  0  0  0  0
  -32.4464  -17.0926   23.9397 C   0  0  0  0  0  0  0  0  0  0  0  0
  -22.0712   -4.6911   24.4982 C   0  0  0  0  0  0  0  0  0  0  0  0
  -23.7475  -10.4858   20.9986 C   0  0  0  0  0  0  0  0  0  0  0  0
  -24.1322  -13.0017   20.8260 C   0  0  0  0  0  0  0  0  0  0  0  0
  -35.6549  -31.5787   17.4286 C   0  0  0  0  0  0  0  0  0  0  0  0
  -35.0310  -24.8348   20.2593 C   0  0  0  0  0  0  0  0  0  0  0  0
  -35.4172  -30.6424   18.4529 C   0  0  0  0  0  0  0  0  0  0  0  0
  -33.7129  -24.3600   20.3175 C   0  0  0  0  0  0  0  0  0  0  0  0
  -31.8581  -18.3347   24.1778 C   0  0  0  0  0  0  0  0  0  0  0  0
  -30.6780  -18.6848   23.5217 C   0  0  0  0  0  0  0  0  0  0  0  0
  -30.6745  -16.5507   22.3892 C   0  0  0  0  0  0  0  0  0  0  0  0
  -22.2151   -8.2158   21.5288 C   0  0  0  0  0  0  0  0  0  0  0  0
  -34.0698  -23.6888   22.6266 C   0  0  0  0  0  0  0  0  0  0  0  0
  -22.0506   -6.0983   22.5345 C   0  0  0  0  0  0  0  0  0  0  0  0
  -23.2268   -4.0619   24.0352 C   0  0  0  0  0  0  0  0  0  0  0  0
  -21.4831   -5.7092   23.7478 C   0  0  0  0  0  0  0  0  0  0  0  0
  -31.8546  -16.2006   23.0453 C   0  0  0  0  0  0  0  0  0  0  0  0
  -30.0862  -17.7928   22.6274 C   0  0  0  0  0  0  0  0  0  0  0  0
  -24.5396  -11.6580   20.7252 C   0  0  0  0  0  0  0  0  0  0  0  0
  -25.2416  -13.7251   20.4621 C   0  0  0  0  0  0  0  0  0  0  0  0
  -22.8643  -13.5473   21.2138 C   0  0  0  0  0  0  0  0  0  0  0  0
  -33.9109  -27.2697   18.5504 C   0  0  0  0  0  0  0  0  0  0  0  0
  -32.7625  -24.9028   16.6527 C   0  0  0  0  0  0  0  0  0  0  0  0
  -31.7769  -21.6491   16.3551 C   0  0  0  0  0  0  0  0  0  0  0  0
  -30.7210  -14.6871   20.6948 C   0  0  0  0  0  0  0  0  0  0  0  0
  -34.6736  -31.7891   16.3028 C   0  0  0  0  0  0  0  0  0  0  0  0
  -35.5727  -25.4245   18.9860 C   0  0  0  0  0  0  0  0  0  0  0  0
  -32.7851  -24.4488   19.1344 C   0  0  0  0  0  0  0  0  0  0  0  0
  -33.6803  -30.6417   16.1383 C   0  0  0  0  0  0  0  0  0  0  0  0
  -29.6021  -12.2372   18.3659 C   0  0  0  0  0  0  0  0  0  0  0  0
  -33.1028  -30.2374   17.4910 C   0  0  0  0  0  0  0  0  0  0  0  0
  -28.1518  -11.9787   18.7804 C   0  0  0  0  0  0  0  0  0  0  0  0
  -30.5032  -12.4791   19.5756 C   0  0  0  0  0  0  0  0  0  0  0  0
  -28.5883  -13.2657   20.9112 C   0  0  0  0  0  0  0  0  0  0  0  0
  -34.2041  -29.7378   18.4339 C   0  0  1  0  0  0  0  0  0  0  0  0
  -34.4821  -25.9666   18.0673 C   0  0  1  0  0  0  0  0  0  0  0  0
  -27.6301  -13.0808   19.7231 C   0  0  2  0  0  0  0  0  0  0  0  0
  -30.0655  -20.0244   23.7927 C   0  0  0  0  0  0  0  0  0  0  0  0
  -30.8511  -20.0156   14.6901 C   0  0  0  0  0  0  0  0  0  0  0  0
  -30.0121  -26.1974   16.9156 C   0  0  0  0  0  0  0  0  0  0  0  0
  -29.0056  -24.0679   16.0667 C   0  0  0  0  0  0  0  0  0  0  0  0
  -30.5622  -25.3736   14.6192 C   0  0  0  0  0  0  0  0  0  0  0  0
  -34.1384  -19.8823   16.6011 C   0  0  0  0  0  0  0  0  0  0  0  0
  -32.5169  -19.2747   25.1440 C   0  0  0  0  0  0  0  0  0  0  0  0
  -33.8323  -21.3818   25.4054 C   0  0  0  0  0  0  0  0  0  0  0  0
  -34.5409  -22.4573   24.6058 C   0  0  0  0  0  0  0  0  0  1  0  0
  -31.4848  -24.1005   16.5991 C   0  0  1  0  0  0  0  0  0  0  0  0
  -32.1103  -20.5859   15.3242 C   0  0  2  0  0  0  0  0  0  0  0  0
  -30.2828  -24.9348   16.0732 C   0  0  0  0  0  0  0  0  0  0  0  0
  -25.8087  -11.5323   20.3283 N   0  0  0  0  0  0  0  0  0  0  0  0
  -26.2083  -12.8064   20.1763 N   0  0  0  0  0  0  0  0  0  0  0  0
  -33.3594  -25.0391   17.9141 N   0  0  0  0  0  0  0  0  0  0  0  0
  -29.9483  -13.5388   20.4207 N   0  0  0  0  0  0  0  0  0  0  0  0
  -25.4747  -15.0510   20.3617 N   0  0  0  0  0  0  0  0  0  0  0  0
  -21.8329  -12.6625   21.5566 N   0  0  0  0  0  0  0  0  0  0  0  0
  -30.0768  -15.6410   21.4820 N   0  0  0  0  0  0  0  0  0  0  0  0
  -34.5867  -28.3846   18.0920 N   0  0  0  0  0  0  0  0  0  0  0  0
  -31.7813  -22.9133   15.8048 N   0  0  0  0  0  0  0  0  0  0  0  0
  -32.8648  -19.4680   15.9584 N   0  3  0  0  0  0  0  0  0  0  0  0
  -33.2206  -20.4012   24.4735 N   0  3  0  0  0  0  0  0  0  0  0  0
  -22.6473  -14.7826   21.2394 O   0  0  0  0  0  0  0  0  0  0  0  0
  -32.9290  -27.2642   19.2834 O   0  0  0  0  0  0  0  0  0  0  0  0
  -33.2181  -25.3847   15.6126 O   0  0  0  0  0  0  0  0  0  0  0  0
  -31.5329  -21.3842   17.5302 O   0  0  0  0  0  0  0  0  0  0  0  0
  -31.8594  -14.8269   20.2404 O   0  0  0  0  0  0  0  0  0  0  0  0
  -21.4674   -7.1083   21.7879 O   0  0  0  0  0  0  0  0  0  0  0  0
  -33.5980  -23.1355   23.7769 O   0  0  0  0  0  0  0  0  0  1  0  0
  -23.7909   -3.0831   24.7550 F   0  0  0  0  0  0  0  0  0  0  0  0
  -20.3723   -6.3092   24.1972 F   0  0  0  0  0  0  0  0  0  0  0  0
  -32.6220  -14.6740   22.7841 Cl  0  0  0  0  0  0  0  0  0  0  0  0
  -28.6181  -18.2365   21.8150 Cl  0  0  0  0  0  0  0  0  0  0  0  0
  1  2  1  0  0  0  0
  1  5  2  0  0  0  0
  2  6  2  0  0  0  0
  3  8  2  0  0  0  0
  3 16  1  0  0  0  0
  4  9  1  0  0  0  0
  4 16  2  0  0  0  0
  5 18  1  0  0  0  0
  6 20  1  0  0  0  0
  7 10  2  0  0  0  0
  7 19  1  0  0  0  0
  8 25  1  0  0  0  0
  9 25  2  0  0  0  0
 10 26  1  0  0  0  0
 11 12  2  0  0  0  0
 11 27  1  0  0  0  0
 12 28  1  0  0  0  0
 13 21  1  0  0  0  0
 13 26  2  0  0  0  0
 14 22  1  0  0  0  0
 14 30  2  0  0  0  0
 15 28  2  0  0  0  0
 15 29  1  0  0  0  0
 16 32  1  0  0  0  0
 17 32  1  0  0  0  0
 17 33  2  0  0  0  0
 17 34  1  0  0  0  0
 18 20  2  0  0  0  0
 18 39  1  0  0  0  0
 19 21  2  0  0  0  0
 19 40  1  0  0  0  0
 20 48  1  0  0  0  0
 21 41  1  0  0  0  0
 22 23  2  0  0  0  0
 22 57  1  0  0  0  0
 23 31  1  0  0  0  0
 23 51  1  0  0  0  0
 24 30  1  0  0  0  0
 24 31  2  0  0  0  0
 24 69  1  0  0  0  0
 25 79  1  0  0  0  0
 26 80  1  0  0  0  0
 27 29  2  0  0  0  0
 27 79  1  0  0  0  0
 28 81  1  0  0  0  0
 29 82  1  0  0  0  0
 30 83  1  0  0  0  0
 31 84  1  0  0  0  0
 32 63  2  0  0  0  0
 33 64  1  0  0  0  0
 33 67  1  0  0  0  0
 34 68  1  0  0  0  0
 34 74  2  0  0  0  0
 35 49  1  0  0  0  0
 35 70  1  0  0  0  0
 35 75  2  0  0  0  0
 36 60  1  0  0  0  0
 36 65  1  0  0  0  0
 36 76  2  0  0  0  0
 37 61  1  0  0  0  0
 37 71  1  0  0  0  0
 37 77  2  0  0  0  0
 38 66  1  0  0  0  0
 38 69  1  0  0  0  0
 38 78  2  0  0  0  0
 39 42  1  0  0  0  0
 40 49  1  0  0  0  0
 41 65  1  0  0  0  0
 42 44  1  0  0  0  0
 43 45  1  0  0  0  0
 43 46  1  0  0  0  0
 44 48  1  0  0  0  0
 45 50  1  0  0  0  0
 46 66  1  0  0  0  0
 47 50  1  0  0  0  0
 47 66  1  0  0  0  0
 48 70  1  0  0  0  0
 49 65  1  0  0  0  0
 50 64  1  0  0  0  0
 52 61  1  0  0  0  0
 53 62  1  0  0  0  0
 54 62  1  0  0  0  0
 55 62  1  0  0  0  0
 56 72  1  0  0  0  0
 57 73  1  0  0  0  0
 58 59  1  0  0  0  0
 58 73  1  0  0  0  0
 59 80  1  0  0  0  0
 60 62  1  0  0  0  0
 60 71  1  0  0  0  0
 61 72  1  0  0  0  0
 63 64  1  0  0  0  0
M  CHG  2  72   1  73   1
M  ISO  4  38 100  59 101  69 100  80 101
M  END
> <Batch ID>
0021

> <Smiles>
CNC(C)C(=O)NC(C(=O)N1Cc2cc([101O:1][101CH2:1]CNCc3cc(Cl)c([100NH:0][100C:0](=O)N4CCCC(n5nc(-c6ccc(Oc7ccc(F)cc7F)cc6)c(C(N)=O)c5N)C4)c(Cl)c3C)ccc2CC1C(=O)NC1CCCc2ccccc21)C(C)(C)C

> <Shape>
0.193

> <Color>
0.198

> <Negative vol penalty>
0.000

$$$$

  -OEChem-04052316123D

 90 99  0     1  0  0  0  0  0999 V2000
  -21.4601  -12.4658   20.6660 C   0  0  0  0  0  0  0  0  0  0  0  0
  -21.5802  -13.7832   21.0965 C   0  0  0  0  0  0  0  0  0  0  0  0
  -28.5415  -24.4616   21.3856 C   0  0  0  0  0  0  0  0  0  0  0  0
  -26.8033  -24.4087   23.0627 C   0  0  0  0  0  0  0  0  0  0  0  0
  -22.6036  -11.7044   20.4279 C   0  0  0  0  0  0  0  0  0  0  0  0
  -22.8440  -14.3398   21.2902 C   0  0  0  0  0  0  0  0  0  0  0  0
  -23.2311  -19.0026   19.3530 C   0  0  0  0  0  0  0  0  0  0  0  0
  -29.3330  -23.6319   22.1797 C   0  0  0  0  0  0  0  0  0  0  0  0
  -27.5947  -23.5789   23.8568 C   0  0  0  0  0  0  0  0  0  0  0  0
  -22.6674  -20.0456   20.0864 C   0  0  0  0  0  0  0  0  0  0  0  0
  -29.0114  -21.1539   26.1657 C   0  0  0  0  0  0  0  0  0  0  0  0
  -28.4019  -20.0478   26.7578 C   0  0  0  0  0  0  0  0  0  0  0  0
  -24.8504  -20.6185   20.9383 C   0  0  0  0  0  0  0  0  0  0  0  0
  -27.8204  -19.1982   24.5721 C   0  0  0  0  0  0  0  0  0  0  0  0
  -27.2767  -24.8501   21.8271 C   0  0  0  0  0  0  0  0  0  0  0  0
  -25.9906  -25.4456   19.7060 C   0  0  0  0  0  0  0  0  0  0  0  0
  -23.8821  -12.2549   20.6095 C   0  0  0  0  0  0  0  0  0  0  0  0
  -24.6095  -18.7524   19.4153 C   0  0  0  0  0  0  0  0  0  0  0  0
  -24.0057  -13.5846   21.0556 C   0  0  0  0  0  0  0  0  0  0  0  0
  -25.4295  -19.5733   20.2026 C   0  0  0  0  0  0  0  0  0  0  0  0
  -20.7625  -24.5224   21.8484 C   0  0  0  0  0  0  0  0  0  0  0  0
  -21.1138  -23.2353   22.3251 C   0  0  0  0  0  0  0  0  0  0  0  0
  -28.8596  -23.1905   23.4153 C   0  0  0  0  0  0  0  0  0  0  0  0
  -23.4766  -20.8520   20.8815 C   0  0  0  0  0  0  0  0  0  0  0  0
  -29.0253  -21.2823   24.7767 C   0  0  0  0  0  0  0  0  0  0  0  0
  -27.8064  -19.0700   25.9610 C   0  0  0  0  0  0  0  0  0  0  0  0
  -28.4299  -20.3044   23.9800 C   0  0  0  0  0  0  0  0  0  0  0  0
  -26.4588  -25.7077   21.0075 C   0  0  0  0  0  0  0  0  0  0  0  0
  -20.4579  -25.2982   22.9450 C   0  0  0  0  0  0  0  0  0  0  0  0
  -21.0130  -23.2639   23.6986 C   0  0  0  0  0  0  0  0  0  0  0  0
  -25.2644  -26.5622   19.3710 C   0  0  0  0  0  0  0  0  0  0  0  0
  -26.1939  -24.2955   18.8743 C   0  0  0  0  0  0  0  0  0  0  0  0
  -21.4604  -30.1205   22.1370 C   0  0  0  0  0  0  0  0  0  0  0  0
  -26.4050  -16.3101   20.3718 C   0  0  0  0  0  0  0  0  0  0  0  0
  -28.8173  -18.1221   19.1801 C   0  0  0  0  0  0  0  0  0  0  0  0
  -29.9686  -21.2227   18.3388 C   0  0  0  0  0  0  0  0  0  0  0  0
  -25.0885  -11.3782   20.3848 C   0  0  0  0  0  0  0  0  0  0  0  0
  -25.2060  -17.6401   18.5971 C   0  0  0  0  0  0  0  0  0  0  0  0
  -26.9179  -19.3591   20.2881 C   0  0  0  0  0  0  0  0  0  0  0  0
  -26.3934  -12.1595   20.2539 C   0  0  0  0  0  0  0  0  0  0  0  0
  -24.9083  -31.0997   21.5903 C   0  0  0  0  0  0  0  0  0  0  0  0
  -26.4990  -13.2105   21.3544 C   0  0  0  0  0  0  0  0  0  0  0  0
  -25.5367  -29.7064   21.4823 C   0  0  0  0  0  0  0  0  0  0  0  0
  -21.0762  -27.6907   22.4161 C   0  0  0  0  0  0  0  0  0  0  0  0
  -23.4581  -31.1603   21.1168 C   0  0  0  0  0  0  0  0  0  0  0  0
  -23.2673  -28.6711   21.1358 C   0  0  0  0  0  0  0  0  0  0  0  0
  -18.1614  -28.1721   22.6186 C   0  0  0  0  0  0  0  0  0  0  0  0
  -25.3594  -14.2316   21.2533 C   0  0  1  0  0  0  0  0  0  0  0  0
  -20.0224  -26.7450   23.0250 C   0  0  1  0  0  0  0  0  0  0  0  0
  -26.5476  -17.1544   19.1371 C   0  0  1  0  0  0  0  0  0  0  0  0
  -24.7063  -28.7648   20.5983 C   0  0  2  0  0  0  0  0  0  0  0  0
  -20.4633  -29.0115   21.9018 C   0  0  1  0  0  0  0  0  0  0  0  0
  -19.1713  -29.3128   22.6692 C   0  0  0  0  0  0  0  0  0  0  0  0
  -21.2605  -22.1995   24.6948 C   0  0  0  0  0  0  0  0  0  0  0  0
  -20.2022  -28.9392   20.3883 C   0  0  0  0  0  0  0  0  0  0  0  0
  -22.1242  -25.2322   19.8663 C   0  0  0  0  0  0  0  0  0  0  0  0
  -21.5314  -25.8155   25.9496 C   0  0  0  0  0  0  0  0  0  0  0  0
  -31.5213  -22.9523   17.3929 C   0  0  0  0  0  0  0  0  0  0  0  0
  -30.2032  -17.8314   21.8828 C   0  0  0  0  0  0  0  0  0  0  0  0
  -31.6899  -19.7432   21.2477 C   0  0  0  0  0  0  0  0  0  0  0  0
  -31.7225  -17.6408   19.9055 C   0  0  0  0  0  0  0  0  0  0  0  0
  -28.7580  -21.0051   15.6469 C   0  0  0  0  0  0  0  0  0  0  0  0
  -20.7294  -24.9557   20.4363 C   0  0  0  0  0  0  0  0  0  0  0  0
  -21.5181  -22.0559   21.4903 C   0  0  0  0  0  0  0  0  0  1  0  0
  -20.3879  -24.9646   25.4245 C   0  0  0  0  0  0  0  0  0  0  0  0
  -29.7298  -19.1877   19.7375 C   0  0  1  0  0  0  0  0  0  0  0  0
  -30.6622  -21.7348   17.0893 C   0  0  2  0  0  0  0  0  0  0  0  0
  -30.8081  -18.6039   20.6935 C   0  0  0  0  0  0  0  0  0  0  0  0
  -26.0634  -26.8975   21.4678 N   0  0  0  0  0  0  0  0  0  0  0  0
  -20.6133  -24.5227   24.0642 N   0  0  0  0  0  0  0  0  0  0  0  0
  -25.3392  -27.3930   20.4500 N   0  0  0  0  0  0  0  0  0  0  0  0
  -22.7013  -29.9744   21.5115 N   0  0  0  0  0  0  0  0  0  0  0  0
  -27.4529  -18.2548   19.4745 N   0  0  0  0  0  0  0  0  0  0  0  0
  -24.5756  -26.9046   18.2616 N   0  0  0  0  0  0  0  0  0  0  0  0
  -27.3028  -24.2783   18.0173 N   0  0  0  0  0  0  0  0  0  0  0  0
  -25.6255  -15.1829   20.1956 N   0  0  0  0  0  0  0  0  0  0  0  0
  -30.2743  -19.9013   18.5874 N   0  0  0  0  0  0  0  0  0  0  0  0
  -29.6563  -22.1148   16.0574 N   0  3  0  0  0  0  0  0  0  0  0  0
  -25.4061  -23.3193   18.8785 O   0  0  0  0  0  0  0  0  0  0  0  0
  -21.1505  -31.0747   22.8540 O   0  0  0  0  0  0  0  0  0  0  0  0
  -26.9623  -16.6551   21.4073 O   0  0  0  0  0  0  0  0  0  0  0  0
  -29.2964  -17.2096   18.5023 O   0  0  0  0  0  0  0  0  0  0  0  0
  -29.2324  -21.9256   19.0275 O   0  0  0  0  0  0  0  0  0  0  0  0
  -18.7695  -26.9052   22.3549 O   0  0  0  0  0  0  0  0  0  0  0  0
  -29.6316  -22.3806   24.1904 O   0  0  0  0  0  0  0  0  0  0  0  0
  -22.9288  -21.8703   21.5990 O   0  0  0  0  0  0  0  0  0  1  0  0
  -27.2224  -18.0070   26.5297 F   0  0  0  0  0  0  0  0  0  0  0  0
  -28.4412  -20.4216   22.6451 F   0  0  0  0  0  0  0  0  0  0  0  0
  -18.5938  -30.4486   22.2042 F   0  0  0  0  0  0  0  0  0  0  0  0
  -19.4693  -29.5468   23.9787 F   0  0  0  0  0  0  0  0  0  0  0  0
  1  2  1  0  0  0  0
  1  5  2  0  0  0  0
  2  6  2  0  0  0  0
  3  8  2  0  0  0  0
  3 15  1  0  0  0  0
  4  9  1  0  0  0  0
  4 15  2  0  0  0  0
  5 17  1  0  0  0  0
  6 19  1  0  0  0  0
  7 10  2  0  0  0  0
  7 18  1  0  0  0  0
  8 23  1  0  0  0  0
  9 23  2  0  0  0  0
 10 24  1  0  0  0  0
 11 12  2  0  0  0  0
 11 25  1  0  0  0  0
 12 26  1  0  0  0  0
 13 20  1  0  0  0  0
 13 24  2  0  0  0  0
 14 26  2  0  0  0  0
 14 27  1  0  0  0  0
 15 28  1  0  0  0  0
 16 28  1  0  0  0  0
 16 31  2  0  0  0  0
 16 32  1  0  0  0  0
 17 19  2  0  0  0  0
 17 37  1  0  0  0  0
 18 20  2  0  0  0  0
 18 38  1  0  0  0  0
 19 48  1  0  0  0  0
 20 39  1  0  0  0  0
 21 22  1  0  0  0  0
 21 29  2  0  0  0  0
 21 63  1  0  0  0  0
 22 30  2  0  0  0  0
 22 64  1  0  0  0  0
 23 85  1  0  0  0  0
 24 86  1  0  0  0  0
 25 27  2  0  0  0  0
 25 85  1  0  0  0  0
 26 87  1  0  0  0  0
 27 88  1  0  0  0  0
 28 69  2  0  0  0  0
 29 49  1  0  0  0  0
 29 70  1  0  0  0  0
 30 54  1  0  0  0  0
 30 70  1  0  0  0  0
 31 71  1  0  0  0  0
 31 74  1  0  0  0  0
 32 75  1  0  0  0  0
 32 79  2  0  0  0  0
 33 52  1  0  0  0  0
 33 72  1  0  0  0  0
 33 80  2  0  0  0  0
 34 50  1  0  0  0  0
 34 76  1  0  0  0  0
 34 81  2  0  0  0  0
 35 66  1  0  0  0  0
 35 73  1  0  0  0  0
 35 82  2  0  0  0  0
 36 67  1  0  0  0  0
 36 77  1  0  0  0  0
 36 83  2  0  0  0  0
 37 40  1  0  0  0  0
 38 50  1  0  0  0  0
 39 73  1  0  0  0  0
 40 42  1  0  0  0  0
 41 43  1  0  0  0  0
 41 45  1  0  0  0  0
 42 48  1  0  0  0  0
 43 51  1  0  0  0  0
 44 49  1  0  0  0  0
 44 52  1  0  0  0  0
 45 72  1  0  0  0  0
 46 51  1  0  0  0  0
 46 72  1  0  0  0  0
 47 53  1  0  0  0  0
 47 84  1  0  0  0  0
 48 76  1  0  0  0  0
 49 84  1  0  0  0  0
 50 73  1  0  0  0  0
 51 71  1  0  0  0  0
 52 53  1  0  0  0  0
 52 55  1  0  0  0  0
 53 89  1  0  0  0  0
 53 90  1  0  0  0  0
 56 63  1  0  0  0  0
 57 65  1  0  0  0  0
 58 67  1  0  0  0  0
 59 68  1  0  0  0  0
 60 68  1  0  0  0  0
 61 68  1  0  0  0  0
 62 78  1  0  0  0  0
 64 86  1  0  0  0  0
 65 70  1  0  0  0  0
 66 68  1  0  0  0  0
 66 77  1  0  0  0  0
 67 78  1  0  0  0  0
 69 71  1  0  0  0  0
M  CHG  1  78   1
M  ISO  4  33 100  52 100  64 101  86 101
M  END
> <Batch ID>
0021

> <Smiles>
CCc1c([101CH2:1][101O:1]c2ccc3c(c2)CN(C(=O)C(NC(=O)C(C)NC)C(C)(C)C)C(C(=O)NC2CCCc4ccccc42)C3)c(C)n(CC)c1C1C[100C:0](C)([100C:0](=O)N2CCCC(n3nc(-c4ccc(Oc5ccc(F)cc5F)cc4)c(C(N)=O)c3N)C2)C(F)(F)CO1

> <Shape>
0.221

> <Color>
0.071

> <Negative vol penalty>
0.000

$$$$

  -OEChem-04052316123D

 83 91  0     1  0  0  0  0  0999 V2000
  -19.6782  -27.4615   26.3536 C   0  0  0  0  0  0  0  0  0  0  0  0
  -21.0266  -27.3653   26.0248 C   0  0  0  0  0  0  0  0  0  0  0  0
  -23.8037  -13.4835   20.5979 C   0  0  0  0  0  0  0  0  0  0  0  0
  -26.1975  -13.6399   20.8844 C   0  0  0  0  0  0  0  0  0  0  0  0
  -18.7264  -27.6238   25.3478 C   0  0  0  0  0  0  0  0  0  0  0  0
  -21.4238  -27.4303   24.6897 C   0  0  0  0  0  0  0  0  0  0  0  0
  -25.4424  -30.4342   24.0025 C   0  0  0  0  0  0  0  0  0  0  0  0
  -23.9221  -12.1151   20.3552 C   0  0  0  0  0  0  0  0  0  0  0  0
  -26.3160  -12.2715   20.6417 C   0  0  0  0  0  0  0  0  0  0  0  0
  -26.6910  -29.9147   24.3412 C   0  0  0  0  0  0  0  0  0  0  0  0
  -24.3420   -9.2911   22.1668 C   0  0  0  0  0  0  0  0  0  0  0  0
  -23.4413   -8.4391   22.8058 C   0  0  0  0  0  0  0  0  0  0  0  0
  -27.1159  -29.4354   22.0155 C   0  0  0  0  0  0  0  0  0  0  0  0
  -28.5072  -24.0112   20.4167 C   0  0  0  0  0  0  0  0  0  0  0  0
  -22.6544   -7.6603   20.6584 C   0  0  0  0  0  0  0  0  0  0  0  0
  -24.9414  -14.2460   20.8624 C   0  0  0  0  0  0  0  0  0  0  0  0
  -24.6298  -16.2895   22.3573 C   0  0  0  0  0  0  0  0  0  0  0  0
  -19.1131  -27.7004   24.0005 C   0  0  0  0  0  0  0  0  0  0  0  0
  -25.0159  -30.4483   22.6667 C   0  0  0  0  0  0  0  0  0  0  0  0
  -20.4762  -27.5924   23.6648 C   0  0  0  0  0  0  0  0  0  0  0  0
  -25.8624  -29.9580   21.6621 C   0  0  0  0  0  0  0  0  0  0  0  0
  -29.4413  -24.8960   20.9555 C   0  0  0  0  0  0  0  0  0  0  0  0
  -29.7492  -24.8427   22.3149 C   0  0  0  0  0  0  0  0  0  0  0  0
  -29.1229  -23.9046   23.1356 C   0  0  0  0  0  0  0  0  0  0  0  0
  -27.8809  -23.0731   21.2374 C   0  0  0  0  0  0  0  0  0  0  0  0
  -25.1782  -11.5090   20.3771 C   0  0  0  0  0  0  0  0  0  0  0  0
  -27.5268  -29.4125   23.3480 C   0  0  0  0  0  0  0  0  0  0  0  0
  -24.3989   -9.3278   20.7735 C   0  0  0  0  0  0  0  0  0  0  0  0
  -22.5976   -7.6236   22.0517 C   0  0  0  0  0  0  0  0  0  0  0  0
  -23.5551   -8.5124   20.0194 C   0  0  0  0  0  0  0  0  0  0  0  0
  -28.1888  -23.0198   22.5968 C   0  0  0  0  0  0  0  0  0  0  0  0
  -24.8197  -15.6597   21.1127 C   0  0  0  0  0  0  0  0  0  0  0  0
  -24.5787  -17.6294   22.0599 C   0  0  0  0  0  0  0  0  0  0  0  0
  -24.5104  -15.7147   23.6654 C   0  0  0  0  0  0  0  0  0  0  0  0
  -22.6102  -29.1239   21.0661 C   0  0  0  0  0  0  0  0  0  0  0  0
  -23.7494  -30.9340   18.6272 C   0  0  0  0  0  0  0  0  0  0  0  0
  -26.3906  -32.5854   17.2332 C   0  0  0  0  0  0  0  0  0  0  0  0
  -26.5156  -22.0967   19.3589 C   0  0  0  0  0  0  0  0  0  0  0  0
  -18.0438  -27.8288   22.9446 C   0  0  0  0  0  0  0  0  0  0  0  0
  -23.6771  -31.0366   22.3147 C   0  0  0  0  0  0  0  0  0  0  0  0
  -25.4599  -29.9688   20.2108 C   0  0  0  0  0  0  0  0  0  0  0  0
  -18.5809  -28.2643   21.5836 C   0  0  0  0  0  0  0  0  0  0  0  0
  -24.2329  -20.0033   17.6026 C   0  0  0  0  0  0  0  0  0  0  0  0
  -19.8212  -27.4562   21.2157 C   0  0  0  0  0  0  0  0  0  0  0  0
  -24.1665  -18.7385   18.4616 C   0  0  0  0  0  0  0  0  0  0  0  0
  -25.6391  -20.5999   17.5794 C   0  0  0  0  0  0  0  0  0  0  0  0
  -26.1649  -19.5803   19.7596 C   0  0  0  0  0  0  0  0  0  0  0  0
  -20.9486  -27.6833   22.2300 C   0  0  1  0  0  0  0  0  0  0  0  0
  -23.1335  -30.5299   20.9824 C   0  0  1  0  0  0  0  0  0  0  0  0
  -24.7537  -18.9796   19.8662 C   0  0  2  0  0  0  0  0  0  0  0  0
  -30.0980  -25.8907   20.0554 C   0  0  0  0  0  0  0  0  0  0  0  0
  -29.4371  -23.8303   24.5941 C   0  0  0  0  0  0  0  0  0  0  0  0
  -27.0259  -33.9390   15.2178 C   0  0  0  0  0  0  0  0  0  0  0  0
  -23.8618  -28.3851   16.9537 C   0  0  0  0  0  0  0  0  0  0  0  0
  -25.3528  -29.5908   15.3440 C   0  0  0  0  0  0  0  0  0  0  0  0
  -23.0251  -30.3998   15.7309 C   0  0  0  0  0  0  0  0  0  0  0  0
  -27.0519  -34.9499   18.8857 C   0  0  0  0  0  0  0  0  0  0  0  0
  -30.7588  -25.7995   22.8969 C   0  0  0  0  0  0  0  0  0  0  0  0
  -30.1326  -26.9465   23.6931 C   0  0  0  0  0  0  0  0  0  0  0  0
  -29.2614  -27.8654   22.8446 C   0  0  0  0  0  0  0  0  0  1  0  0
  -24.7683  -30.7325   17.5316 C   0  0  1  0  0  0  0  0  0  0  0  0
  -26.5107  -33.9810   16.6480 C   0  0  2  0  0  0  0  0  0  0  0  0
  -24.2591  -29.7749   16.4176 C   0  0  0  0  0  0  0  0  0  0  0  0
  -24.8847  -16.5282   20.0999 N   0  0  0  0  0  0  0  0  0  0  0  0
  -24.7347  -17.7173   20.7078 N   0  0  0  0  0  0  0  0  0  0  0  0
  -24.1387  -30.5487   19.9178 N   0  0  0  0  0  0  0  0  0  0  0  0
  -26.1285  -20.8047   18.9445 N   0  0  0  0  0  0  0  0  0  0  0  0
  -24.4159  -18.7292   22.8256 N   0  0  0  0  0  0  0  0  0  0  0  0
  -24.5856  -14.3209   23.7921 N   0  0  0  0  0  0  0  0  0  0  0  0
  -26.9328  -22.1753   20.6872 N   0  0  0  0  0  0  0  0  0  0  0  0
  -21.5962  -28.9550   21.9895 N   0  0  0  0  0  0  0  0  0  0  0  0
  -25.1261  -32.0648   17.0569 N   0  0  0  0  0  0  0  0  0  0  0  0
  -27.4491  -34.8048   17.4616 N   0  3  0  0  0  0  0  0  0  0  0  0
  -24.3256  -16.4152   24.6894 O   0  0  0  0  0  0  0  0  0  0  0  0
  -23.0898  -28.2568   20.3451 O   0  0  0  0  0  0  0  0  0  0  0  0
  -22.6511  -31.4221   18.3493 O   0  0  0  0  0  0  0  0  0  0  0  0
  -27.3262  -32.0128   17.7876 O   0  0  0  0  0  0  0  0  0  0  0  0
  -26.4540  -23.0673   18.5999 O   0  0  0  0  0  0  0  0  0  0  0  0
  -25.2941  -10.1737   20.1406 O   0  0  0  0  0  0  0  0  0  0  0  0
  -28.7458  -28.9043   23.6760 O   0  0  0  0  0  0  0  0  0  1  0  0
  -21.7338   -6.8044   22.6655 F   0  0  0  0  0  0  0  0  0  0  0  0
  -23.6060   -8.5423   18.6806 F   0  0  0  0  0  0  0  0  0  0  0  0
  -27.5866  -22.1179   23.3868 F   0  0  0  0  0  0  0  0  0  0  0  0
  1  2  1  0  0  0  0
  1  5  2  0  0  0  0
  2  6  2  0  0  0  0
  3  8  2  0  0  0  0
  3 16  1  0  0  0  0
  4  9  1  0  0  0  0
  4 16  2  0  0  0  0
  5 18  1  0  0  0  0
  6 20  1  0  0  0  0
  7 10  2  0  0  0  0
  7 19  1  0  0  0  0
  8 26  1  0  0  0  0
  9 26  2  0  0  0  0
 10 27  1  0  0  0  0
 11 12  2  0  0  0  0
 11 28  1  0  0  0  0
 12 29  1  0  0  0  0
 13 21  1  0  0  0  0
 13 27  2  0  0  0  0
 14 22  2  0  0  0  0
 14 25  1  0  0  0  0
 15 29  2  0  0  0  0
 15 30  1  0  0  0  0
 16 32  1  0  0  0  0
 17 32  1  0  0  0  0
 17 33  2  0  0  0  0
 17 34  1  0  0  0  0
 18 20  2  0  0  0  0
 18 39  1  0  0  0  0
 19 21  2  0  0  0  0
 19 40  1  0  0  0  0
 20 48  1  0  0  0  0
 21 41  1  0  0  0  0
 22 23  1  0  0  0  0
 22 51  1  0  0  0  0
 23 24  2  0  0  0  0
 23 58  1  0  0  0  0
 24 31  1  0  0  0  0
 24 52  1  0  0  0  0
 25 31  2  0  0  0  0
 25 70  1  0  0  0  0
 26 79  1  0  0  0  0
 27 80  1  0  0  0  0
 28 30  2  0  0  0  0
 28 79  1  0  0  0  0
 29 81  1  0  0  0  0
 30 82  1  0  0  0  0
 31 83  1  0  0  0  0
 32 64  2  0  0  0  0
 33 65  1  0  0  0  0
 33 68  1  0  0  0  0
 34 69  1  0  0  0  0
 34 74  2  0  0  0  0
 35 49  1  0  0  0  0
 35 71  1  0  0  0  0
 35 75  2  0  0  0  0
 36 61  1  0  0  0  0
 36 66  1  0  0  0  0
 36 76  2  0  0  0  0
 37 62  1  0  0  0  0
 37 72  1  0  0  0  0
 37 77  2  0  0  0  0
 38 67  1  0  0  0  0
 38 70  1  0  0  0  0
 38 78  2  0  0  0  0
 39 42  1  0  0  0  0
 40 49  1  0  0  0  0
 41 66  1  0  0  0  0
 42 44  1  0  0  0  0
 43 45  1  0  0  0  0
 43 46  1  0  0  0  0
 44 48  1  0  0  0  0
 45 50  1  0  0  0  0
 46 67  1  0  0  0  0
 47 50  1  0  0  0  0
 47 67  1  0  0  0  0
 48 71  1  0  0  0  0
 49 66  1  0  0  0  0
 50 65  1  0  0  0  0
 53 62  1  0  0  0  0
 54 63  1  0  0  0  0
 55 63  1  0  0  0  0
 56 63  1  0  0  0  0
 57 73  1  0  0  0  0
 58 59  1  0  0  0  0
 59 60  1  0  0  0  0
 60 80  1  0  0  0  0
 61 63  1  0  0  0  0
 61 72  1  0  0  0  0
 62 73  1  0  0  0  0
 64 65  1  0  0  0  0
M  CHG  1  73   1
M  ISO  4  38 100  60 101  70 100  80 101
M  END
> <Batch ID>
0021

> <Smiles>
CNC(C)C(=O)NC(C(=O)N1Cc2cc([101O:1][101CH2:1]CCc3c(C)cc([100NH:0][100C:0](=O)N4CCCC(n5nc(-c6ccc(Oc7ccc(F)cc7F)cc6)c(C(N)=O)c5N)C4)c(F)c3C)ccc2CC1C(=O)NC1CCCc2ccccc21)C(C)(C)C

> <Shape>
0.208

> <Color>
0.082

> <Negative vol penalty>
0.000

$$$$

  -OEChem-04052316123D

 82 90  0     1  0  0  0  0  0999 V2000
  -27.9314  -35.2450   24.7322 C   0  0  0  0  0  0  0  0  0  0  0  0
  -28.7191  -34.1978   24.2652 C   0  0  0  0  0  0  0  0  0  0  0  0
  -24.2981   -9.5463   21.4825 C   0  0  0  0  0  0  0  0  0  0  0  0
  -24.7879  -10.6722   23.5633 C   0  0  0  0  0  0  0  0  0  0  0  0
  -26.5799  -35.0329   25.0014 C   0  0  0  0  0  0  0  0  0  0  0  0
  -28.1561  -32.9374   24.0680 C   0  0  0  0  0  0  0  0  0  0  0  0
  -28.6832  -27.1887   19.8264 C   0  0  0  0  0  0  0  0  0  0  0  0
  -23.9237   -8.4034   22.1890 C   0  0  0  0  0  0  0  0  0  0  0  0
  -24.4134   -9.5293   24.2698 C   0  0  0  0  0  0  0  0  0  0  0  0
  -28.8346  -25.8049   19.9018 C   0  0  0  0  0  0  0  0  0  0  0  0
  -22.4956   -5.3112   23.4595 C   0  0  0  0  0  0  0  0  0  0  0  0
  -21.3230   -4.6636   23.0707 C   0  0  0  0  0  0  0  0  0  0  0  0
  -26.4709  -25.5753   20.3250 C   0  0  0  0  0  0  0  0  0  0  0  0
  -20.0603   -6.6697   23.5377 C   0  0  0  0  0  0  0  0  0  0  0  0
  -24.7303  -10.6807   22.1696 C   0  0  0  0  0  0  0  0  0  0  0  0
  -24.2897  -12.9329   21.0557 C   0  0  0  0  0  0  0  0  0  0  0  0
  -25.9978  -33.7717   24.7983 C   0  0  0  0  0  0  0  0  0  0  0  0
  -27.4242  -27.7781   20.0109 C   0  0  0  0  0  0  0  0  0  0  0  0
  -26.7959  -32.7079   24.3360 C   0  0  0  0  0  0  0  0  0  0  0  0
  -26.3056  -26.9667   20.2489 C   0  0  0  0  0  0  0  0  0  0  0  0
  -28.9973  -21.0066   21.3704 C   0  0  0  0  0  0  0  0  0  0  0  0
  -29.2248  -20.8553   18.9700 C   0  0  0  0  0  0  0  0  0  0  0  0
  -29.1360  -21.6267   20.1287 C   0  0  0  0  0  0  0  0  0  0  0  0
  -28.9475  -19.6150   21.4534 C   0  0  0  0  0  0  0  0  0  0  0  0
  -29.1748  -19.4638   19.0529 C   0  0  0  0  0  0  0  0  0  0  0  0
  -29.0362  -18.8436   20.2946 C   0  0  0  0  0  0  0  0  0  0  0  0
  -23.9813   -8.3949   23.5826 C   0  0  0  0  0  0  0  0  0  0  0  0
  -27.7289  -24.9981   20.1540 C   0  0  0  0  0  0  0  0  0  0  0  0
  -22.4506   -6.6381   23.8875 C   0  0  0  0  0  0  0  0  0  0  0  0
  -20.1054   -5.3428   23.1098 C   0  0  0  0  0  0  0  0  0  0  0  0
  -21.2329   -7.3173   23.9266 C   0  0  0  0  0  0  0  0  0  0  0  0
  -25.1178  -11.8614   21.4404 C   0  0  0  0  0  0  0  0  0  0  0  0
  -25.1291  -13.7947   20.3928 C   0  0  0  0  0  0  0  0  0  0  0  0
  -22.8873  -13.1316   21.2778 C   0  0  0  0  0  0  0  0  0  0  0  0
  -26.1901  -29.8225   22.1088 C   0  0  0  0  0  0  0  0  0  0  0  0
  -23.6143  -29.6821   20.1421 C   0  0  0  0  0  0  0  0  0  0  0  0
  -21.8521  -27.9394   17.7959 C   0  0  0  0  0  0  0  0  0  0  0  0
  -29.9639  -16.5240   19.9704 C   0  0  0  0  0  0  0  0  0  0  0  0
  -24.5435  -33.5786   25.1482 C   0  0  0  0  0  0  0  0  0  0  0  0
  -27.2728  -29.2704   19.9000 C   0  0  0  0  0  0  0  0  0  0  0  0
  -24.9288  -27.5485   20.4341 C   0  0  0  0  0  0  0  0  0  0  0  0
  -23.9382  -32.3082   24.5566 C   0  0  0  0  0  0  0  0  0  0  0  0
  -29.8856  -13.1699   18.7783 C   0  0  0  0  0  0  0  0  0  0  0  0
  -24.8665  -31.1191   24.7825 C   0  0  0  0  0  0  0  0  0  0  0  0
  -28.5701  -12.6187   19.3329 C   0  0  0  0  0  0  0  0  0  0  0  0
  -30.5623  -14.1211   19.7637 C   0  0  0  0  0  0  0  0  0  0  0  0
  -28.3980  -14.6635   20.8081 C   0  0  0  0  0  0  0  0  0  0  0  0
  -26.2159  -31.3326   24.0861 C   0  0  1  0  0  0  0  0  0  0  0  0
  -26.0334  -29.8001   20.6146 C   0  0  1  0  0  0  0  0  0  0  0  0
  -27.6472  -13.7510   19.8245 C   0  0  2  0  0  0  0  0  0  0  0  0
  -28.9012  -21.8347   22.6129 C   0  0  0  0  0  0  0  0  0  0  0  0
  -29.3720  -21.5211   17.6377 C   0  0  0  0  0  0  0  0  0  0  0  0
  -28.7987  -18.9539   22.7886 C   0  0  0  0  0  0  0  0  0  0  0  0
  -29.2704  -18.6397   17.8066 C   0  0  0  0  0  0  0  0  0  0  0  0
  -19.7680  -28.0637   16.4035 C   0  0  0  0  0  0  0  0  0  0  0  0
  -21.9375  -28.9834   22.5937 C   0  0  0  0  0  0  0  0  0  0  0  0
  -20.1293  -28.2026   21.0481 C   0  0  0  0  0  0  0  0  0  0  0  0
  -20.8541  -30.5892   21.0120 C   0  0  0  0  0  0  0  0  0  0  0  0
  -23.3946  -27.8573   15.2715 C   0  0  0  0  0  0  0  0  0  0  0  0
  -29.1879  -23.1235   20.0388 C   0  0  0  0  0  0  0  0  0  1  0  0
  -22.3811  -28.8156   20.0558 C   0  0  1  0  0  0  0  0  0  0  0  0
  -21.2583  -28.3606   16.4638 C   0  0  2  0  0  0  0  0  0  0  0  0
  -21.3516  -29.1366   21.1759 C   0  0  0  0  0  0  0  0  0  0  0  0
  -26.3858  -12.0251   21.0539 N   0  0  0  0  0  0  0  0  0  0  0  0
  -26.3608  -13.2096   20.4194 N   0  0  0  0  0  0  0  0  0  0  0  0
  -24.8333  -29.0134   20.3228 N   0  0  0  0  0  0  0  0  0  0  0  0
  -29.6295  -15.1697   20.1822 N   0  0  0  0  0  0  0  0  0  0  0  0
  -24.9263  -14.9883   19.7956 N   0  0  0  0  0  0  0  0  0  0  0  0
  -22.1755  -12.1473   21.9770 N   0  0  0  0  0  0  0  0  0  0  0  0
  -28.9858  -17.4301   20.3790 N   0  0  0  0  0  0  0  0  0  0  0  0
  -26.0964  -31.0838   22.6654 N   0  0  0  0  0  0  0  0  0  0  0  0
  -21.8617  -28.9785   18.7023 N   0  0  0  0  0  0  0  0  0  0  0  0
  -21.9274  -27.6365   15.3463 N   0  3  0  0  0  0  0  0  0  0  0  0
  -22.2798  -14.1440   20.8540 O   0  0  0  0  0  0  0  0  0  0  0  0
  -26.3803  -28.7730   22.7121 O   0  0  0  0  0  0  0  0  0  0  0  0
  -23.5009  -30.9066   20.0454 O   0  0  0  0  0  0  0  0  0  0  0  0
  -22.2626  -26.8013   18.0122 O   0  0  0  0  0  0  0  0  0  0  0  0
  -31.0270  -16.8545   19.4388 O   0  0  0  0  0  0  0  0  0  0  0  0
  -23.6158   -7.2799   24.2724 O   0  0  0  0  0  0  0  0  0  0  0  0
  -27.8741  -23.6471   20.2288 O   0  0  0  0  0  0  0  0  0  1  0  0
  -18.9796   -4.7213   22.7350 F   0  0  0  0  0  0  0  0  0  0  0  0
  -21.1835   -8.5925   24.3357 F   0  0  0  0  0  0  0  0  0  0  0  0
  1  2  1  0  0  0  0
  1  5  2  0  0  0  0
  2  6  2  0  0  0  0
  3  8  2  0  0  0  0
  3 15  1  0  0  0  0
  4  9  1  0  0  0  0
  4 15  2  0  0  0  0
  5 17  1  0  0  0  0
  6 19  1  0  0  0  0
  7 10  2  0  0  0  0
  7 18  1  0  0  0  0
  8 27  1  0  0  0  0
  9 27  2  0  0  0  0
 10 28  1  0  0  0  0
 11 12  2  0  0  0  0
 11 29  1  0  0  0  0
 12 30  1  0  0  0  0
 13 20  1  0  0  0  0
 13 28  2  0  0  0  0
 14 30  2  0  0  0  0
 14 31  1  0  0  0  0
 15 32  1  0  0  0  0
 16 32  1  0  0  0  0
 16 33  2  0  0  0  0
 16 34  1  0  0  0  0
 17 19  2  0  0  0  0
 17 39  1  0  0  0  0
 18 20  2  0  0  0  0
 18 40  1  0  0  0  0
 19 48  1  0  0  0  0
 20 41  1  0  0  0  0
 21 23  1  0  0  0  0
 21 24  2  0  0  0  0
 21 51  1  0  0  0  0
 22 23  2  0  0  0  0
 22 25  1  0  0  0  0
 22 52  1  0  0  0  0
 23 60  1  0  0  0  0
 24 26  1  0  0  0  0
 24 53  1  0  0  0  0
 25 26  2  0  0  0  0
 25 54  1  0  0  0  0
 26 70  1  0  0  0  0
 27 79  1  0  0  0  0
 28 80  1  0  0  0  0
 29 31  2  0  0  0  0
 29 79  1  0  0  0  0
 30 81  1  0  0  0  0
 31 82  1  0  0  0  0
 32 64  2  0  0  0  0
 33 65  1  0  0  0  0
 33 68  1  0  0  0  0
 34 69  1  0  0  0  0
 34 74  2  0  0  0  0
 35 49  1  0  0  0  0
 35 71  1  0  0  0  0
 35 75  2  0  0  0  0
 36 61  1  0  0  0  0
 36 66  1  0  0  0  0
 36 76  2  0  0  0  0
 37 62  1  0  0  0  0
 37 72  1  0  0  0  0
 37 77  2  0  0  0  0
 38 67  1  0  0  0  0
 38 70  1  0  0  0  0
 38 78  2  0  0  0  0
 39 42  1  0  0  0  0
 40 49  1  0  0  0  0
 41 66  1  0  0  0  0
 42 44  1  0  0  0  0
 43 45  1  0  0  0  0
 43 46  1  0  0  0  0
 44 48  1  0  0  0  0
 45 50  1  0  0  0  0
 46 67  1  0  0  0  0
 47 50  1  0  0  0  0
 47 67  1  0  0  0  0
 48 71  1  0  0  0  0
 49 66  1  0  0  0  0
 50 65  1  0  0  0  0
 55 62  1  0  0  0  0
 56 63  1  0  0  0  0
 57 63  1  0  0  0  0
 58 63  1  0  0  0  0
 59 73  1  0  0  0  0
 60 80  1  0  0  0  0
 61 63  1  0  0  0  0
 61 72  1  0  0  0  0
 62 73  1  0  0  0  0
 64 65  1  0  0  0  0
M  CHG  1  73   1
M  ISO  4  38 100  60 101  70 100  80 101
M  END
> <Batch ID>
0021

> <Smiles>
CNC(C)C(=O)NC(C(=O)N1Cc2cc([101O:1][101CH2:1]c3c(C)c(C)c([100NH:0][100C:0](=O)N4CCCC(n5nc(-c6ccc(Oc7ccc(F)cc7F)cc6)c(C(N)=O)c5N)C4)c(C)c3C)ccc2CC1C(=O)NC1CCCc2ccccc21)C(C)(C)C

> <Shape>
0.361

> <Color>
0.123

> <Negative vol penalty>
0.000

$$$$

  -OEChem-04052316123D

 93102  0     1  0  0  0  0  0999 V2000
  -16.9274  -30.1867   19.9651 C   0  0  0  0  0  0  0  0  0  0  0  0
  -18.2147  -29.6911   19.7846 C   0  0  0  0  0  0  0  0  0  0  0  0
  -22.9365  -10.0821   19.9850 C   0  0  0  0  0  0  0  0  0  0  0  0
  -23.7861   -9.9664   22.2437 C   0  0  0  0  0  0  0  0  0  0  0  0
  -16.2883  -30.0324   21.1946 C   0  0  0  0  0  0  0  0  0  0  0  0
  -18.8641  -29.0417   20.8339 C   0  0  0  0  0  0  0  0  0  0  0  0
  -22.7523  -24.3297   20.4038 C   0  0  0  0  0  0  0  0  0  0  0  0
  -30.3507  -19.7852   19.9623 C   0  0  0  0  0  0  0  0  0  0  0  0
  -30.9498  -18.5953   20.3758 C   0  0  0  0  0  0  0  0  0  0  0  0
  -22.1430   -8.9605   20.2260 C   0  0  0  0  0  0  0  0  0  0  0  0
  -22.9925   -8.8449   22.4848 C   0  0  0  0  0  0  0  0  0  0  0  0
  -24.1447  -24.2589   20.4112 C   0  0  0  0  0  0  0  0  0  0  0  0
  -19.7530   -8.1934   23.1931 C   0  0  0  0  0  0  0  0  0  0  0  0
  -19.0421   -8.1500   24.3923 C   0  0  0  0  0  0  0  0  0  0  0  0
  -24.1013  -23.7721   22.7735 C   0  0  0  0  0  0  0  0  0  0  0  0
  -20.2072   -6.1256   25.0099 C   0  0  0  0  0  0  0  0  0  0  0  0
  -23.7581  -10.5850   20.9939 C   0  0  0  0  0  0  0  0  0  0  0  0
  -24.2284  -13.0919   20.9463 C   0  0  0  0  0  0  0  0  0  0  0  0
  -16.9265  -29.3723   22.2565 C   0  0  0  0  0  0  0  0  0  0  0  0
  -22.0233  -24.1327   21.5854 C   0  0  0  0  0  0  0  0  0  0  0  0
  -18.2334  -28.8796   22.0791 C   0  0  0  0  0  0  0  0  0  0  0  0
  -22.6997  -23.8384   22.7779 C   0  0  0  0  0  0  0  0  0  0  0  0
  -29.2291  -20.2715   20.6340 C   0  0  0  0  0  0  0  0  0  0  0  0
  -30.4272  -17.8917   21.4609 C   0  0  0  0  0  0  0  0  0  0  0  0
  -22.1710   -8.3420   21.4759 C   0  0  0  0  0  0  0  0  0  0  0  0
  -24.8196  -23.9829   21.5967 C   0  0  0  0  0  0  0  0  0  0  0  0
  -20.6910   -7.2028   22.9022 C   0  0  0  0  0  0  0  0  0  0  0  0
  -19.2692   -7.1162   25.3008 C   0  0  0  0  0  0  0  0  0  0  0  0
  -20.9181   -6.1689   23.8106 C   0  0  0  0  0  0  0  0  0  0  0  0
  -28.7066  -19.5679   21.7192 C   0  0  0  0  0  0  0  0  0  0  0  0
  -29.3056  -18.3780   22.1326 C   0  0  0  0  0  0  0  0  0  0  0  0
  -24.5784  -11.7432   20.7453 C   0  0  0  0  0  0  0  0  0  0  0  0
  -25.3435  -13.7967   20.5638 C   0  0  0  0  0  0  0  0  0  0  0  0
  -23.0047  -13.6570   21.4350 C   0  0  0  0  0  0  0  0  0  0  0  0
  -20.0521  -25.9157   23.3286 C   0  0  0  0  0  0  0  0  0  0  0  0
  -19.6559  -23.1592   24.9921 C   0  0  0  0  0  0  0  0  0  0  0  0
  -20.9096  -20.1180   25.9007 C   0  0  0  0  0  0  0  0  0  0  0  0
  -30.8767  -14.5238   20.5592 C   0  0  0  0  0  0  0  0  0  0  0  0
  -16.2136  -29.2713   23.5818 C   0  0  0  0  0  0  0  0  0  0  0  0
  -20.5204  -24.1860   21.5553 C   0  0  0  0  0  0  0  0  0  0  0  0
  -21.9625  -23.5989   24.0693 C   0  0  0  0  0  0  0  0  0  0  0  0
  -16.8270  -28.2408   24.5263 C   0  0  0  0  0  0  0  0  0  0  0  0
  -34.5451  -28.6566   22.6638 C   0  0  0  0  0  0  0  0  0  0  0  0
  -34.2057  -27.8582   21.4090 C   0  0  0  0  0  0  0  0  0  0  0  0
  -34.0008  -27.9847   23.9206 C   0  0  0  0  0  0  0  0  0  0  0  0
  -29.5205  -12.2896   18.1415 C   0  0  0  0  0  0  0  0  0  0  0  0
  -18.3443  -28.3914   24.5681 C   0  0  0  0  0  0  0  0  0  0  0  0
  -32.7059  -27.5941   21.2978 C   0  0  0  0  0  0  0  0  0  0  0  0
  -32.5006  -27.7206   23.8136 C   0  0  0  0  0  0  0  0  0  0  0  0
  -28.0878  -12.0549   18.6234 C   0  0  0  0  0  0  0  0  0  0  0  0
  -30.4949  -12.4190   19.3101 C   0  0  0  0  0  0  0  0  0  0  0  0
  -28.6911  -13.1963   20.7987 C   0  0  0  0  0  0  0  0  0  0  0  0
  -18.9613  -28.1474   23.1856 C   0  0  1  0  0  0  0  0  0  0  0  0
  -19.9054  -24.4771   22.9207 C   0  0  1  0  0  0  0  0  0  0  0  0
  -32.1562  -26.9101   22.5569 C   0  0  0  0  0  0  0  0  0  0  0  0
  -27.6631  -13.1152   19.6572 C   0  0  2  0  0  0  0  0  0  0  0  0
  -20.3742  -18.1048   27.2998 C   0  0  0  0  0  0  0  0  0  0  0  0
  -20.3669  -24.7248   27.5126 C   0  0  0  0  0  0  0  0  0  0  0  0
  -20.7453  -22.5415   28.6780 C   0  0  0  0  0  0  0  0  0  0  0  0
  -18.4833  -23.1030   27.7885 C   0  0  0  0  0  0  0  0  0  0  0  0
  -20.9439  -18.3274   23.5446 C   0  0  0  0  0  0  0  0  0  0  0  0
  -28.6185  -21.5626   20.1480 C   0  0  0  0  0  0  0  0  0  0  0  0
  -31.1055  -16.6217   21.8652 C   0  0  0  0  0  0  0  0  0  0  0  0
  -30.6467  -26.7051   22.4440 C   0  0  0  0  0  0  0  0  0  0  0  0
  -28.9310  -22.7758   21.0369 C   0  0  0  0  0  0  0  0  0  0  0  0
  -30.3087  -25.5030   21.5603 C   0  0  0  0  0  0  0  0  0  0  0  0
  -28.7939  -25.2850   21.4782 C   0  0  0  0  0  0  0  0  0  0  0  0
  -26.8495  -24.1347   20.3669 C   0  0  0  0  0  0  0  0  0  1  0  0
  -20.3393  -22.5167   26.1749 C   0  0  1  0  0  0  0  0  0  0  0  0
  -20.2838  -18.7351   25.9188 C   0  0  2  0  0  0  0  0  0  0  0  0
  -28.3806  -24.1311   20.5318 C   0  0  2  0  0  0  0  0  0  0  0  0
  -19.9980  -23.2279   27.5147 C   0  0  0  0  0  0  0  0  0  0  0  0
  -25.8189  -11.5975   20.2719 N   0  0  0  0  0  0  0  0  0  0  0  0
  -26.2579  -12.8637   20.1720 N   0  0  0  0  0  0  0  0  0  0  0  0
  -20.4941  -23.6680   23.9898 N   0  0  0  0  0  0  0  0  0  0  0  0
  -30.0353  -13.4416   20.2529 N   0  0  0  0  0  0  0  0  0  0  0  0
  -25.6212  -15.1173   20.5278 N   0  0  0  0  0  0  0  0  0  0  0  0
  -21.9601  -12.7896   21.7826 N   0  0  0  0  0  0  0  0  0  0  0  0
  -19.0202  -26.7296   22.9016 N   0  0  0  0  0  0  0  0  0  0  0  0
  -19.9759  -21.1043   26.1386 N   0  0  0  0  0  0  0  0  0  0  0  0
  -30.3615  -15.4511   21.4567 N   0  0  0  0  0  0  0  0  0  0  0  0
  -20.9756  -17.8408   24.9479 N   0  3  0  0  0  0  0  0  0  0  0  0
  -22.8365  -14.8953   21.5442 O   0  0  0  0  0  0  0  0  0  0  0  0
  -21.0284  -26.2615   23.9836 O   0  0  0  0  0  0  0  0  0  0  0  0
  -18.4236  -23.2016   24.9552 O   0  0  0  0  0  0  0  0  0  0  0  0
  -22.1077  -20.3044   25.6997 O   0  0  0  0  0  0  0  0  0  0  0  0
  -32.0015  -14.6568   20.0651 O   0  0  0  0  0  0  0  0  0  0  0  0
  -21.3967   -7.2477   21.7115 O   0  0  0  0  0  0  0  0  0  0  0  0
  -26.1786  -23.9139   21.6069 O   0  0  0  0  0  0  0  0  0  1  0  0
  -18.5875   -7.0755   26.4531 F   0  0  0  0  0  0  0  0  0  0  0  0
  -21.8189   -5.2151   23.5372 F   0  0  0  0  0  0  0  0  0  0  0  0
  -27.3100  -20.2006   22.5331 Cl  0  0  0  0  0  0  0  0  0  0  0  0
  -28.6805  -17.4784   23.4791 Cl  0  0  0  0  0  0  0  0  0  0  0  0
  1  2  1  0  0  0  0
  1  5  2  0  0  0  0
  2  6  2  0  0  0  0
  3 10  2  0  0  0  0
  3 17  1  0  0  0  0
  4 11  1  0  0  0  0
  4 17  2  0  0  0  0
  5 19  1  0  0  0  0
  6 21  1  0  0  0  0
  7 12  2  0  0  0  0
  7 20  1  0  0  0  0
  8  9  2  0  0  0  0
  8 23  1  0  0  0  0
  9 24  1  0  0  0  0
 10 25  1  0  0  0  0
 11 25  2  0  0  0  0
 12 26  1  0  0  0  0
 13 14  2  0  0  0  0
 13 27  1  0  0  0  0
 14 28  1  0  0  0  0
 15 22  1  0  0  0  0
 15 26  2  0  0  0  0
 16 28  2  0  0  0  0
 16 29  1  0  0  0  0
 17 32  1  0  0  0  0
 18 32  1  0  0  0  0
 18 33  2  0  0  0  0
 18 34  1  0  0  0  0
 19 21  2  0  0  0  0
 19 39  1  0  0  0  0
 20 22  2  0  0  0  0
 20 40  1  0  0  0  0
 21 53  1  0  0  0  0
 22 41  1  0  0  0  0
 23 30  2  0  0  0  0
 23 62  1  0  0  0  0
 24 31  2  0  0  0  0
 24 63  1  0  0  0  0
 25 88  1  0  0  0  0
 26 89  1  0  0  0  0
 27 29  2  0  0  0  0
 27 88  1  0  0  0  0
 28 90  1  0  0  0  0
 29 91  1  0  0  0  0
 30 31  1  0  0  0  0
 30 92  1  0  0  0  0
 31 93  1  0  0  0  0
 32 73  2  0  0  0  0
 33 74  1  0  0  0  0
 33 77  1  0  0  0  0
 34 78  1  0  0  0  0
 34 83  2  0  0  0  0
 35 54  1  0  0  0  0
 35 79  1  0  0  0  0
 35 84  2  0  0  0  0
 36 69  1  0  0  0  0
 36 75  1  0  0  0  0
 36 85  2  0  0  0  0
 37 70  1  0  0  0  0
 37 80  1  0  0  0  0
 37 86  2  0  0  0  0
 38 76  1  0  0  0  0
 38 81  1  0  0  0  0
 38 87  2  0  0  0  0
 39 42  1  0  0  0  0
 40 54  1  0  0  0  0
 41 75  1  0  0  0  0
 42 47  1  0  0  0  0
 43 44  1  0  0  0  0
 43 45  1  0  0  0  0
 44 48  1  0  0  0  0
 45 49  1  0  0  0  0
 46 50  1  0  0  0  0
 46 51  1  0  0  0  0
 47 53  1  0  0  0  0
 48 55  1  0  0  0  0
 49 55  1  0  0  0  0
 50 56  1  0  0  0  0
 51 76  1  0  0  0  0
 52 56  1  0  0  0  0
 52 76  1  0  0  0  0
 53 79  1  0  0  0  0
 54 75  1  0  0  0  0
 55 64  1  0  0  0  0
 56 74  1  0  0  0  0
 57 70  1  0  0  0  0
 58 72  1  0  0  0  0
 59 72  1  0  0  0  0
 60 72  1  0  0  0  0
 61 82  1  0  0  0  0
 62 65  1  0  0  0  0
 63 81  1  0  0  0  0
 64 66  1  0  0  0  0
 65 71  1  0  0  0  0
 66 67  1  0  0  0  0
 67 71  1  0  0  0  0
 68 71  1  0  0  0  0
 68 89  1  0  0  0  0
 69 72  1  0  0  0  0
 69 80  1  0  0  0  0
 70 82  1  0  0  0  0
 73 74  1  0  0  0  0
M  CHG  1  82   1
M  ISO  4  38 100  68 101  81 100  89 101
M  END
> <Batch ID>
0021

> <Smiles>
CNC(C)C(=O)NC(C(=O)N1Cc2cc([101O:1][101CH2:1]C(CCCC3CCCCC3)CCc3ccc(C[100NH:0][100C:0](=O)N4CCCC(n5nc(-c6ccc(Oc7ccc(F)cc7F)cc6)c(C(N)=O)c5N)C4)c(Cl)c3Cl)ccc2CC1C(=O)NC1CCCc2ccccc21)C(C)(C)C

> <Shape>
0.257

> <Color>
0.193

> <Negative vol penalty>
0.000

$$$$

  -OEChem-04052316123D

 90 98  0     1  0  0  0  0  0999 V2000
  -26.2161  -29.5594   12.1044 C   0  0  0  0  0  0  0  0  0  0  0  0
  -26.5862  -28.6515   13.0913 C   0  0  0  0  0  0  0  0  0  0  0  0
  -23.0006   -9.9431   19.9638 C   0  0  0  0  0  0  0  0  0  0  0  0
  -23.7228   -9.9598   22.2692 C   0  0  0  0  0  0  0  0  0  0  0  0
  -25.5854  -30.7519   12.4568 C   0  0  0  0  0  0  0  0  0  0  0  0
  -26.3267  -28.9361   14.4315 C   0  0  0  0  0  0  0  0  0  0  0  0
  -24.4106  -24.9665   16.9247 C   0  0  0  0  0  0  0  0  0  0  0  0
  -22.2354   -8.8036   20.2117 C   0  0  0  0  0  0  0  0  0  0  0  0
  -22.9575   -8.8203   22.5172 C   0  0  0  0  0  0  0  0  0  0  0  0
  -25.3030  -23.9696   17.3166 C   0  0  0  0  0  0  0  0  0  0  0  0
  -23.2073   -5.4893   21.9945 C   0  0  0  0  0  0  0  0  0  0  0  0
  -23.7954   -4.4616   22.7317 C   0  0  0  0  0  0  0  0  0  0  0  0
  -25.3363  -24.8850   19.5482 C   0  0  0  0  0  0  0  0  0  0  0  0
  -22.0690   -4.6763   24.4082 C   0  0  0  0  0  0  0  0  0  0  0  0
  -23.7444  -10.5212   20.9925 C   0  0  0  0  0  0  0  0  0  0  0  0
  -24.1262  -13.0397   20.8556 C   0  0  0  0  0  0  0  0  0  0  0  0
  -25.3094  -31.0468   13.8012 C   0  0  0  0  0  0  0  0  0  0  0  0
  -23.9821  -25.9382   17.8403 C   0  0  0  0  0  0  0  0  0  0  0  0
  -25.6929  -30.1342   14.8024 C   0  0  0  0  0  0  0  0  0  0  0  0
  -24.4364  -25.8917   19.1660 C   0  0  0  0  0  0  0  0  0  0  0  0
  -27.9680  -21.0136   18.6431 C   0  0  0  0  0  0  0  0  0  0  0  0
  -22.2138   -8.2422   21.4884 C   0  0  0  0  0  0  0  0  0  0  0  0
  -25.7682  -23.9304   18.6277 C   0  0  0  0  0  0  0  0  0  0  0  0
  -22.0501   -6.1107   22.4642 C   0  0  0  0  0  0  0  0  0  0  0  0
  -23.2262   -4.0550   23.9386 C   0  0  0  0  0  0  0  0  0  0  0  0
  -21.4810   -5.7041   23.6710 C   0  0  0  0  0  0  0  0  0  0  0  0
  -24.5355  -11.6980   20.7369 C   0  0  0  0  0  0  0  0  0  0  0  0
  -29.2984  -20.7305   18.2803 C   0  0  0  0  0  0  0  0  0  0  0  0
  -27.7121  -20.1693   19.6958 C   0  0  0  0  0  0  0  0  0  0  0  0
  -25.2354  -13.7694   20.5037 C   0  0  0  0  0  0  0  0  0  0  0  0
  -22.8570  -13.5784   21.2488 C   0  0  0  0  0  0  0  0  0  0  0  0
  -24.2282  -29.1014   18.0336 C   0  0  0  0  0  0  0  0  0  0  0  0
  -22.2768  -28.7066   20.5946 C   0  0  0  0  0  0  0  0  0  0  0  0
  -21.1064  -26.6524   23.0558 C   0  0  0  0  0  0  0  0  0  0  0  0
  -30.7301  -14.7080   20.7736 C   0  0  0  0  0  0  0  0  0  0  0  0
  -24.6682  -32.3699   14.1373 C   0  0  0  0  0  0  0  0  0  0  0  0
  -22.9985  -26.9911   17.4087 C   0  0  0  0  0  0  0  0  0  0  0  0
  -23.9911  -26.8996   20.1928 C   0  0  0  0  0  0  0  0  0  0  0  0
  -24.0922  -32.4262   15.5499 C   0  0  0  0  0  0  0  0  0  0  0  0
  -29.5959  -12.3189   18.3898 C   0  0  0  0  0  0  0  0  0  0  0  0
  -25.0926  -31.8681   16.5571 C   0  0  0  0  0  0  0  0  0  0  0  0
  -28.1473  -12.0507   18.8015 C   0  0  0  0  0  0  0  0  0  0  0  0
  -30.4964  -12.5370   19.6037 C   0  0  0  0  0  0  0  0  0  0  0  0
  -28.5835  -13.3092   20.9520 C   0  0  0  0  0  0  0  0  0  0  0  0
  -25.4063  -30.3957   16.2651 C   0  0  1  0  0  0  0  0  0  0  0  0
  -23.0283  -28.2347   18.2920 C   0  0  1  0  0  0  0  0  0  0  0  0
  -27.6262  -13.1384   19.7600 C   0  0  2  0  0  0  0  0  0  0  0  0
  -30.9233  -23.3643   18.6658 C   0  0  0  0  0  0  0  0  0  0  0  0
  -29.2373  -19.7172   15.3318 C   0  0  0  0  0  0  0  0  0  0  0  0
  -19.5468  -26.6235   25.0215 C   0  0  0  0  0  0  0  0  0  0  0  0
  -31.5704  -20.8134   17.0413 C   0  0  0  0  0  0  0  0  0  0  0  0
  -25.1954  -20.2766   19.7083 C   0  0  0  0  0  0  0  0  0  0  0  0
  -26.4915  -20.9173   21.7688 C   0  0  0  0  0  0  0  0  0  0  0  0
  -26.2904  -18.5313   21.0998 C   0  0  0  0  0  0  0  0  0  0  0  0
  -24.3168  -30.2762   22.2331 C   0  0  0  0  0  0  0  0  0  0  0  0
  -23.2129  -29.4111   24.3070 C   0  0  0  0  0  0  0  0  0  0  0  0
  -21.9300  -30.8438   22.7183 C   0  0  0  0  0  0  0  0  0  0  0  0
  -19.4380  -24.5268   21.8485 C   0  0  0  0  0  0  0  0  0  0  0  0
  -27.0359  -22.0117   18.0215 C   0  0  0  0  0  0  0  0  0  1  0  0
  -30.2410  -22.9272   17.3722 C   0  0  0  0  0  0  0  0  0  0  0  0
  -29.4279  -21.1684   15.7645 C   0  0  0  0  0  0  0  0  0  0  0  0
  -30.5609  -18.0179   21.0173 C   0  0  0  0  0  0  0  0  0  0  0  0
  -29.0911  -18.4401   20.8890 C   0  0  0  0  0  0  0  0  0  0  0  0
  -30.8082  -16.8686   21.9921 C   0  0  0  0  0  0  0  0  0  0  0  0
  -22.4850  -28.4640   22.0700 C   0  0  1  0  0  0  0  0  0  0  0  0
  -19.6965  -26.3533   23.5324 C   0  0  2  0  0  0  0  0  0  0  0  0
  -30.0924  -21.3481   17.2034 C   0  0  0  0  0  0  0  0  0  0  0  0
  -26.5022  -19.9757   20.5173 C   0  0  0  0  0  0  0  0  0  0  0  0
  -22.9963  -29.7308   22.8125 C   0  0  0  0  0  0  0  0  0  0  0  0
  -25.8054  -11.5794   20.3405 N   0  0  0  0  0  0  0  0  0  0  0  0
  -29.8494  -19.7808   19.0409 N   0  0  0  0  0  0  0  0  0  0  0  0
  -28.8602  -19.4598   19.8922 N   0  0  0  0  0  0  0  0  0  0  0  0
  -26.2038  -12.8560   20.2069 N   0  0  0  0  0  0  0  0  0  0  0  0
  -23.0335  -27.9132   19.7206 N   0  0  0  0  0  0  0  0  0  0  0  0
  -29.9470  -13.5818   20.4712 N   0  0  0  0  0  0  0  0  0  0  0  0
  -25.4671  -15.0969   20.4223 N   0  0  0  0  0  0  0  0  0  0  0  0
  -21.8261  -12.6876   21.5774 N   0  0  0  0  0  0  0  0  0  0  0  0
  -24.3295  -29.5478   16.7298 N   0  0  0  0  0  0  0  0  0  0  0  0
  -21.2220  -27.9414   22.5800 N   0  0  0  0  0  0  0  0  0  0  0  0
  -30.1313  -15.6534   21.5973 N   0  0  0  0  0  0  0  0  0  0  0  0
  -19.3554  -24.9252   23.2772 N   0  3  0  0  0  0  0  0  0  0  0  0
  -22.6385  -14.8128   21.2912 O   0  0  0  0  0  0  0  0  0  0  0  0
  -25.0038  -29.3482   18.9497 O   0  0  0  0  0  0  0  0  0  0  0  0
  -21.4672  -29.5633   20.2310 O   0  0  0  0  0  0  0  0  0  0  0  0
  -22.0152  -25.8264   23.1043 O   0  0  0  0  0  0  0  0  0  0  0  0
  -31.8759  -14.8622   20.3373 O   0  0  0  0  0  0  0  0  0  0  0  0
  -21.4670   -7.1303   21.7308 O   0  0  0  0  0  0  0  0  0  0  0  0
  -26.6398  -22.9589   19.0127 O   0  0  0  0  0  0  0  0  0  1  0  0
  -23.7902   -3.0670   24.6456 F   0  0  0  0  0  0  0  0  0  0  0  0
  -20.3686   -6.2965   24.1268 F   0  0  0  0  0  0  0  0  0  0  0  0
  1  2  1  0  0  0  0
  1  5  2  0  0  0  0
  2  6  2  0  0  0  0
  3  8  2  0  0  0  0
  3 15  1  0  0  0  0
  4  9  1  0  0  0  0
  4 15  2  0  0  0  0
  5 17  1  0  0  0  0
  6 19  1  0  0  0  0
  7 10  2  0  0  0  0
  7 18  1  0  0  0  0
  8 22  1  0  0  0  0
  9 22  2  0  0  0  0
 10 23  1  0  0  0  0
 11 12  2  0  0  0  0
 11 24  1  0  0  0  0
 12 25  1  0  0  0  0
 13 20  1  0  0  0  0
 13 23  2  0  0  0  0
 14 25  2  0  0  0  0
 14 26  1  0  0  0  0
 15 27  1  0  0  0  0
 16 27  1  0  0  0  0
 16 30  2  0  0  0  0
 16 31  1  0  0  0  0
 17 19  2  0  0  0  0
 17 36  1  0  0  0  0
 18 20  2  0  0  0  0
 18 37  1  0  0  0  0
 19 45  1  0  0  0  0
 20 38  1  0  0  0  0
 21 28  1  0  0  0  0
 21 29  2  0  0  0  0
 21 59  1  0  0  0  0
 22 87  1  0  0  0  0
 23 88  1  0  0  0  0
 24 26  2  0  0  0  0
 24 87  1  0  0  0  0
 25 89  1  0  0  0  0
 26 90  1  0  0  0  0
 27 70  2  0  0  0  0
 28 67  1  0  0  0  0
 28 71  2  0  0  0  0
 29 68  1  0  0  0  0
 29 72  1  0  0  0  0
 30 73  1  0  0  0  0
 30 76  1  0  0  0  0
 31 77  1  0  0  0  0
 31 82  2  0  0  0  0
 32 46  1  0  0  0  0
 32 78  1  0  0  0  0
 32 83  2  0  0  0  0
 33 65  1  0  0  0  0
 33 74  1  0  0  0  0
 33 84  2  0  0  0  0
 34 66  1  0  0  0  0
 34 79  1  0  0  0  0
 34 85  2  0  0  0  0
 35 75  1  0  0  0  0
 35 80  1  0  0  0  0
 35 86  2  0  0  0  0
 36 39  1  0  0  0  0
 37 46  1  0  0  0  0
 38 74  1  0  0  0  0
 39 41  1  0  0  0  0
 40 42  1  0  0  0  0
 40 43  1  0  0  0  0
 41 45  1  0  0  0  0
 42 47  1  0  0  0  0
 43 75  1  0  0  0  0
 44 47  1  0  0  0  0
 44 75  1  0  0  0  0
 45 78  1  0  0  0  0
 46 74  1  0  0  0  0
 47 73  1  0  0  0  0
 48 60  1  0  0  0  0
 49 61  1  0  0  0  0
 50 66  1  0  0  0  0
 51 67  1  0  0  0  0
 52 68  1  0  0  0  0
 53 68  1  0  0  0  0
 54 68  1  0  0  0  0
 55 69  1  0  0  0  0
 56 69  1  0  0  0  0
 57 69  1  0  0  0  0
 58 81  1  0  0  0  0
 59 88  1  0  0  0  0
 60 67  1  0  0  0  0
 61 67  1  0  0  0  0
 62 63  1  0  0  0  0
 62 64  1  0  0  0  0
 63 72  1  0  0  0  0
 64 80  1  0  0  0  0
 65 69  1  0  0  0  0
 65 79  1  0  0  0  0
 66 81  1  0  0  0  0
 70 73  1  0  0  0  0
 71 72  1  0  0  0  0
M  CHG  1  81   1
M  ISO  4  35 100  59 101  80 100  88 101
M  END
> <Batch ID>
0021

> <Smiles>
CCC(C)(CC)c1nn(CCC[100NH:0][100C:0](=O)N2CCCC(n3nc(-c4ccc(Oc5ccc(F)cc5F)cc4)c(C(N)=O)c3N)C2)c(C(C)(C)C)c1[101CH2:1][101O:1]c1ccc2c(c1)CN(C(=O)C(NC(=O)C(C)NC)C(C)(C)C)C(C(=O)NC1CCCc3ccccc31)C2

> <Shape>
0.303

> <Color>
0.193

> <Negative vol penalty>
0.000

$$$$

  -OEChem-04052316123D

 83 91  0     1  0  0  0  0  0999 V2000
  -19.6971  -34.1807   21.5579 C   0  0  0  0  0  0  0  0  0  0  0  0
  -20.9587  -33.7579   21.1517 C   0  0  0  0  0  0  0  0  0  0  0  0
  -24.2607  -13.6858   19.1759 C   0  0  0  0  0  0  0  0  0  0  0  0
  -23.6275  -15.0003   21.1015 C   0  0  0  0  0  0  0  0  0  0  0  0
  -19.0260  -33.4958   22.5700 C   0  0  0  0  0  0  0  0  0  0  0  0
  -21.5504  -32.6505   21.7583 C   0  0  0  0  0  0  0  0  0  0  0  0
  -25.1830  -28.4988   19.0986 C   0  0  0  0  0  0  0  0  0  0  0  0
  -23.4920  -12.6224   19.6490 C   0  0  0  0  0  0  0  0  0  0  0  0
  -22.8588  -13.9369   21.5747 C   0  0  0  0  0  0  0  0  0  0  0  0
  -26.5689  -28.3529   19.0594 C   0  0  0  0  0  0  0  0  0  0  0  0
  -23.7781  -10.1816   21.9696 C   0  0  0  0  0  0  0  0  0  0  0  0
  -24.3429   -8.9068   21.9302 C   0  0  0  0  0  0  0  0  0  0  0  0
  -26.4516  -26.8019   20.9033 C   0  0  0  0  0  0  0  0  0  0  0  0
  -22.5509   -8.1572   20.4935 C   0  0  0  0  0  0  0  0  0  0  0  0
  -24.3285  -14.8748   19.9022 C   0  0  0  0  0  0  0  0  0  0  0  0
  -24.7027  -17.0150   18.5653 C   0  0  0  0  0  0  0  0  0  0  0  0
  -19.6057  -32.3737   23.1827 C   0  0  0  0  0  0  0  0  0  0  0  0
  -24.4207  -27.8045   20.0490 C   0  0  0  0  0  0  0  0  0  0  0  0
  -20.8870  -31.9508   22.7806 C   0  0  0  0  0  0  0  0  0  0  0  0
  -25.0559  -26.9387   20.9507 C   0  0  0  0  0  0  0  0  0  0  0  0
  -30.0404  -23.0072   18.0166 C   0  0  0  0  0  0  0  0  0  0  0  0
  -29.7915  -22.5872   19.3185 C   0  0  0  0  0  0  0  0  0  0  0  0
  -22.7911  -12.7479   20.8484 C   0  0  0  0  0  0  0  0  0  0  0  0
  -27.2038  -27.5066   19.9637 C   0  0  0  0  0  0  0  0  0  0  0  0
  -22.5997  -10.4442   21.2709 C   0  0  0  0  0  0  0  0  0  0  0  0
  -23.7293   -7.8946   21.1922 C   0  0  0  0  0  0  0  0  0  0  0  0
  -21.9861   -9.4320   20.5329 C   0  0  0  0  0  0  0  0  0  0  0  0
  -30.2726  -24.3537   17.7589 C   0  0  0  0  0  0  0  0  0  0  0  0
  -25.1228  -15.9734   19.4142 C   0  0  0  0  0  0  0  0  0  0  0  0
  -29.7857  -23.5455   20.3192 C   0  0  0  0  0  0  0  0  0  0  0  0
  -30.2451  -25.2329   18.8294 C   0  0  0  0  0  0  0  0  0  0  0  0
  -25.8206  -17.7958   18.4009 C   0  0  0  0  0  0  0  0  0  0  0  0
  -23.4170  -17.2552   17.9781 C   0  0  0  0  0  0  0  0  0  0  0  0
  -22.5154  -28.6506   22.4485 C   0  0  0  0  0  0  0  0  0  0  0  0
  -21.9357  -25.4625   22.5981 C   0  0  0  0  0  0  0  0  0  0  0  0
  -23.0028  -22.2895   21.9344 C   0  0  0  0  0  0  0  0  0  0  0  0
  -30.2903  -20.3988   20.4624 C   0  0  0  0  0  0  0  0  0  0  0  0
  -18.8619  -31.6941   24.3051 C   0  0  0  0  0  0  0  0  0  0  0  0
  -22.9239  -27.9523   20.0608 C   0  0  0  0  0  0  0  0  0  0  0  0
  -24.2810  -26.1552   21.9774 C   0  0  0  0  0  0  0  0  0  0  0  0
  -19.3989  -30.3045   24.6380 C   0  0  0  0  0  0  0  0  0  0  0  0
  -30.6473  -16.9466   19.6674 C   0  0  0  0  0  0  0  0  0  0  0  0
  -20.9211  -30.3292   24.7338 C   0  0  0  0  0  0  0  0  0  0  0  0
  -29.2073  -16.4714   19.4608 C   0  0  0  0  0  0  0  0  0  0  0  0
  -30.7485  -17.9785   20.7894 C   0  0  0  0  0  0  0  0  0  0  0  0
  -28.4026  -18.6517   20.4536 C   0  0  0  0  0  0  0  0  0  0  0  0
  -21.5514  -30.7390   23.3973 C   0  0  1  0  0  0  0  0  0  0  0  0
  -22.2984  -27.5918   21.4047 C   0  0  1  0  0  0  0  0  0  0  0  0
  -28.2406  -17.6597   19.2903 C   0  0  2  0  0  0  0  0  0  0  0  0
  -29.5239  -23.1582   21.7386 C   0  0  0  0  0  0  0  0  0  0  0  0
  -28.7772  -22.0441   16.0767 C   0  0  0  0  0  0  0  0  0  0  0  0
  -22.3301  -19.8874   22.2076 C   0  0  0  0  0  0  0  0  0  0  0  0
  -22.6807  -25.5925   25.5541 C   0  0  0  0  0  0  0  0  0  0  0  0
  -22.9156  -23.1000   25.5329 C   0  0  0  0  0  0  0  0  0  0  0  0
  -20.7060  -24.1470   25.0385 C   0  0  0  0  0  0  0  0  0  0  0  0
  -22.9863  -21.8407   19.0091 C   0  0  0  0  0  0  0  0  0  0  0  0
  -30.0554  -22.0026   16.9057 C   0  0  0  0  0  0  0  0  0  0  0  0
  -30.4861  -26.7097   18.6311 C   0  0  0  0  0  0  0  0  0  0  0  0
  -29.1930  -27.5173   18.6603 C   0  0  0  0  0  0  0  0  0  1  0  0
  -22.5591  -24.2955   23.3250 C   0  0  1  0  0  0  0  0  0  0  0  0
  -22.3021  -21.1041   21.2956 C   0  0  2  0  0  0  0  0  0  0  0  0
  -22.2304  -24.2999   24.8447 C   0  0  0  0  0  0  0  0  0  0  0  0
  -26.4073  -16.0800   19.7644 N   0  0  0  0  0  0  0  0  0  0  0  0
  -30.0069  -24.8622   20.1075 N   0  0  0  0  0  0  0  0  0  0  0  0
  -26.8041  -17.1977   19.1324 N   0  0  0  0  0  0  0  0  0  0  0  0
  -22.8204  -26.3384   21.9530 N   0  0  0  0  0  0  0  0  0  0  0  0
  -29.8074  -19.0765   20.5584 N   0  0  0  0  0  0  0  0  0  0  0  0
  -26.0485  -18.9289   17.7032 N   0  0  0  0  0  0  0  0  0  0  0  0
  -22.3789  -16.3540   18.2510 N   0  0  0  0  0  0  0  0  0  0  0  0
  -29.5514  -21.2223   19.6136 N   0  0  0  0  0  0  0  0  0  0  0  0
  -21.5384  -29.6275   22.4705 N   0  0  0  0  0  0  0  0  0  0  0  0
  -22.1198  -23.0949   22.6221 N   0  0  0  0  0  0  0  0  0  0  0  0
  -22.9632  -20.7429   20.0097 N   0  3  0  0  0  0  0  0  0  0  0  0
  -23.1996  -18.2308   17.2201 O   0  0  0  0  0  0  0  0  0  0  0  0
  -23.4958  -28.5852   23.1808 O   0  0  0  0  0  0  0  0  0  0  0  0
  -20.7086  -25.5882   22.5964 O   0  0  0  0  0  0  0  0  0  0  0  0
  -24.2131  -22.4798   21.8365 O   0  0  0  0  0  0  0  0  0  0  0  0
  -31.3018  -20.7657   21.0660 O   0  0  0  0  0  0  0  0  0  0  0  0
  -22.0407  -11.7105   21.3103 O   0  0  0  0  0  0  0  0  0  0  0  0
  -28.5565  -27.3628   19.9282 O   0  0  0  0  0  0  0  0  0  1  0  0
  -24.2726   -6.6709   21.1533 F   0  0  0  0  0  0  0  0  0  0  0  0
  -20.8546   -9.6787   19.8587 F   0  0  0  0  0  0  0  0  0  0  0  0
  -30.5853  -24.9134   16.1560 Cl  0  0  0  0  0  0  0  0  0  0  0  0
  1  2  1  0  0  0  0
  1  5  2  0  0  0  0
  2  6  2  0  0  0  0
  3  8  2  0  0  0  0
  3 15  1  0  0  0  0
  4  9  1  0  0  0  0
  4 15  2  0  0  0  0
  5 17  1  0  0  0  0
  6 19  1  0  0  0  0
  7 10  2  0  0  0  0
  7 18  1  0  0  0  0
  8 23  1  0  0  0  0
  9 23  2  0  0  0  0
 10 24  1  0  0  0  0
 11 12  2  0  0  0  0
 11 25  1  0  0  0  0
 12 26  1  0  0  0  0
 13 20  1  0  0  0  0
 13 24  2  0  0  0  0
 14 26  2  0  0  0  0
 14 27  1  0  0  0  0
 15 29  1  0  0  0  0
 16 29  1  0  0  0  0
 16 32  2  0  0  0  0
 16 33  1  0  0  0  0
 17 19  2  0  0  0  0
 17 38  1  0  0  0  0
 18 20  2  0  0  0  0
 18 39  1  0  0  0  0
 19 47  1  0  0  0  0
 20 40  1  0  0  0  0
 21 22  2  0  0  0  0
 21 28  1  0  0  0  0
 21 57  1  0  0  0  0
 22 30  1  0  0  0  0
 22 70  1  0  0  0  0
 23 79  1  0  0  0  0
 24 80  1  0  0  0  0
 25 27  2  0  0  0  0
 25 79  1  0  0  0  0
 26 81  1  0  0  0  0
 27 82  1  0  0  0  0
 28 31  2  0  0  0  0
 28 83  1  0  0  0  0
 29 63  2  0  0  0  0
 30 50  1  0  0  0  0
 30 64  2  0  0  0  0
 31 58  1  0  0  0  0
 31 64  1  0  0  0  0
 32 65  1  0  0  0  0
 32 68  1  0  0  0  0
 33 69  1  0  0  0  0
 33 74  2  0  0  0  0
 34 48  1  0  0  0  0
 34 71  1  0  0  0  0
 34 75  2  0  0  0  0
 35 60  1  0  0  0  0
 35 66  1  0  0  0  0
 35 76  2  0  0  0  0
 36 61  1  0  0  0  0
 36 72  1  0  0  0  0
 36 77  2  0  0  0  0
 37 67  1  0  0  0  0
 37 70  1  0  0  0  0
 37 78  2  0  0  0  0
 38 41  1  0  0  0  0
 39 48  1  0  0  0  0
 40 66  1  0  0  0  0
 41 43  1  0  0  0  0
 42 44  1  0  0  0  0
 42 45  1  0  0  0  0
 43 47  1  0  0  0  0
 44 49  1  0  0  0  0
 45 67  1  0  0  0  0
 46 49  1  0  0  0  0
 46 67  1  0  0  0  0
 47 71  1  0  0  0  0
 48 66  1  0  0  0  0
 49 65  1  0  0  0  0
 51 57  1  0  0  0  0
 52 61  1  0  0  0  0
 53 62  1  0  0  0  0
 54 62  1  0  0  0  0
 55 62  1  0  0  0  0
 56 73  1  0  0  0  0
 58 59  1  0  0  0  0
 59 80  1  0  0  0  0
 60 62  1  0  0  0  0
 60 72  1  0  0  0  0
 61 73  1  0  0  0  0
 63 65  1  0  0  0  0
M  CHG  1  73   1
M  ISO  4  37 100  59 101  70 100  80 101
M  END
> <Batch ID>
0021

> <Smiles>
CCc1c(Cl)c(C[101CH2:1][101O:1]c2ccc3c(c2)CN(C(=O)C(NC(=O)C(C)NC)C(C)(C)C)C(C(=O)NC2CCCc4ccccc42)C3)nc(C)c1[100NH:0][100C:0](=O)N1CCCC(n2nc(-c3ccc(Oc4ccc(F)cc4F)cc3)c(C(N)=O)c2N)C1

> <Shape>
0.232

> <Color>
0.089

> <Negative vol penalty>
0.000

$$$$

  -OEChem-04052316123D

 81 89  0     1  0  0  0  0  0999 V2000
  -26.5612  -34.6245   22.9123 C   0  0  0  0  0  0  0  0  0  0  0  0
  -26.7950  -33.4089   22.2774 C   0  0  0  0  0  0  0  0  0  0  0  0
  -26.6593  -12.7591   21.7181 C   0  0  0  0  0  0  0  0  0  0  0  0
  -26.1370  -14.0146   19.7211 C   0  0  0  0  0  0  0  0  0  0  0  0
  -25.6090  -34.7077   23.9273 C   0  0  0  0  0  0  0  0  0  0  0  0
  -26.0774  -32.2754   22.6580 C   0  0  0  0  0  0  0  0  0  0  0  0
  -24.3936  -29.6188   18.6891 C   0  0  0  0  0  0  0  0  0  0  0  0
  -25.3634  -12.2431   21.7327 C   0  0  0  0  0  0  0  0  0  0  0  0
  -24.8412  -13.4986   19.7356 C   0  0  0  0  0  0  0  0  0  0  0  0
  -25.3146  -28.8055   18.0303 C   0  0  0  0  0  0  0  0  0  0  0  0
  -23.6259   -9.8277   20.1265 C   0  0  0  0  0  0  0  0  0  0  0  0
  -23.4749   -8.4612   20.3616 C   0  0  0  0  0  0  0  0  0  0  0  0
  -24.4544  -26.8855   19.2103 C   0  0  0  0  0  0  0  0  0  0  0  0
  -28.6127  -22.6589   17.8690 C   0  0  0  0  0  0  0  0  0  0  0  0
  -29.6279  -22.7878   20.4643 C   0  0  0  0  0  0  0  0  0  0  0  0
  -22.1515   -8.9450   22.3241 C   0  0  0  0  0  0  0  0  0  0  0  0
  -27.0460  -13.6449   20.7124 C   0  0  0  0  0  0  0  0  0  0  0  0
  -29.5113  -13.6295   20.0569 C   0  0  0  0  0  0  0  0  0  0  0  0
  -24.8725  -33.5769   24.3139 C   0  0  0  0  0  0  0  0  0  0  0  0
  -23.5018  -29.0723   19.6231 C   0  0  0  0  0  0  0  0  0  0  0  0
  -25.1153  -32.3433   23.6800 C   0  0  0  0  0  0  0  0  0  0  0  0
  -23.5212  -27.6936   19.8778 C   0  0  0  0  0  0  0  0  0  0  0  0
  -28.6324  -23.8757   18.5505 C   0  0  0  0  0  0  0  0  0  0  0  0
  -29.1006  -21.5065   18.4852 C   0  0  0  0  0  0  0  0  0  0  0  0
  -29.1400  -23.9402   19.8482 C   0  0  0  0  0  0  0  0  0  0  0  0
  -29.6082  -21.5709   19.7828 C   0  0  0  0  0  0  0  0  0  0  0  0
  -24.4544  -12.6128   20.7414 C   0  0  0  0  0  0  0  0  0  0  0  0
  -25.3471  -27.4392   18.2930 C   0  0  0  0  0  0  0  0  0  0  0  0
  -23.0398  -10.7530   20.9903 C   0  0  0  0  0  0  0  0  0  0  0  0
  -22.7377   -8.0198   21.4603 C   0  0  0  0  0  0  0  0  0  0  0  0
  -22.3025  -10.3116   22.0891 C   0  0  0  0  0  0  0  0  0  0  0  0
  -28.3843  -14.1787   20.6972 C   0  0  0  0  0  0  0  0  0  0  0  0
  -30.5292  -14.5067   20.3412 C   0  0  0  0  0  0  0  0  0  0  0  0
  -29.6277  -12.4333   19.2750 C   0  0  0  0  0  0  0  0  0  0  0  0
  -22.9820  -29.4791   22.7325 C   0  0  0  0  0  0  0  0  0  0  0  0
  -20.4676  -27.5074   22.1732 C   0  0  0  0  0  0  0  0  0  0  0  0
  -19.0676  -25.0782   20.2276 C   0  0  0  0  0  0  0  0  0  0  0  0
  -30.6432  -20.3220   21.7103 C   0  0  0  0  0  0  0  0  0  0  0  0
  -23.8873  -33.7053   25.4486 C   0  0  0  0  0  0  0  0  0  0  0  0
  -22.4964  -29.9588   20.3056 C   0  0  0  0  0  0  0  0  0  0  0  0
  -22.5716  -27.0544   20.8566 C   0  0  0  0  0  0  0  0  0  0  0  0
  -22.9038  -32.5411   25.5360 C   0  0  0  0  0  0  0  0  0  0  0  0
  -31.9462  -17.6479   23.6669 C   0  0  0  0  0  0  0  0  0  0  0  0
  -23.6387  -31.2106   25.4069 C   0  0  0  0  0  0  0  0  0  0  0  0
  -31.2879  -16.4042   23.0651 C   0  0  0  0  0  0  0  0  0  0  0  0
  -30.9960  -18.8440   23.6765 C   0  0  0  0  0  0  0  0  0  0  0  0
  -29.7279  -17.9193   21.7776 C   0  0  0  0  0  0  0  0  0  0  0  0
  -24.3395  -31.0971   24.0477 C   0  0  1  0  0  0  0  0  0  0  0  0
  -21.9798  -29.3767   21.6177 C   0  0  1  0  0  0  0  0  0  0  0  0
  -30.6676  -16.7059   21.6868 C   0  0  2  0  0  0  0  0  0  0  0  0
  -29.0673  -20.2166   17.7314 C   0  0  0  0  0  0  0  0  0  0  0  0
  -29.1710  -25.2318   20.5974 C   0  0  0  0  0  0  0  0  0  0  0  0
  -17.0207  -23.6381   20.0433 C   0  0  0  0  0  0  0  0  0  0  0  0
  -21.5063  -25.7456   24.4375 C   0  0  0  0  0  0  0  0  0  0  0  0
  -20.0295  -23.9090   23.5923 C   0  0  0  0  0  0  0  0  0  0  0  0
  -19.0234  -26.0432   24.4022 C   0  0  0  0  0  0  0  0  0  0  0  0
  -18.3599  -26.2200   17.5905 C   0  0  0  0  0  0  0  0  0  0  0  0
  -28.0987  -25.1092   17.8635 C   0  0  0  0  0  0  0  0  0  0  0  0
  -26.7043  -25.4871   18.3513 C   0  0  0  0  0  0  0  0  0  1  0  0
  -20.2555  -26.0129   22.1947 C   0  0  1  0  0  0  0  0  0  0  0  0
  -17.6798  -24.9439   19.6271 C   0  0  2  0  0  0  0  0  0  0  0  0
  -20.2230  -25.4397   23.6396 C   0  0  0  0  0  0  0  0  0  0  0  0
  -28.6599  -15.3166   21.3399 N   0  0  0  0  0  0  0  0  0  0  0  0
  -29.9718  -15.4896   21.1050 N   0  0  0  0  0  0  0  0  0  0  0  0
  -21.6114  -27.9641   21.5031 N   0  0  0  0  0  0  0  0  0  0  0  0
  -30.4506  -19.0725   22.3367 N   0  0  0  0  0  0  0  0  0  0  0  0
  -31.8378  -14.5255   20.0099 N   0  0  0  0  0  0  0  0  0  0  0  0
  -28.4834  -11.6477   19.0813 N   0  0  0  0  0  0  0  0  0  0  0  0
  -30.1085  -20.4115   20.4255 N   0  0  0  0  0  0  0  0  0  0  0  0
  -23.3831  -30.7716   23.0115 N   0  0  0  0  0  0  0  0  0  0  0  0
  -19.0420  -25.7618   21.4248 N   0  0  0  0  0  0  0  0  0  0  0  0
  -17.7537  -24.9796   18.1390 N   0  3  0  0  0  0  0  0  0  0  0  0
  -30.7180  -12.0633   18.7770 O   0  0  0  0  0  0  0  0  0  0  0  0
  -23.3621  -28.4609   23.2986 O   0  0  0  0  0  0  0  0  0  0  0  0
  -19.6449  -28.2430   22.7243 O   0  0  0  0  0  0  0  0  0  0  0  0
  -20.0731  -24.6191   19.6904 O   0  0  0  0  0  0  0  0  0  0  0  0
  -31.2623  -21.2357   22.2615 O   0  0  0  0  0  0  0  0  0  0  0  0
  -23.1899  -12.1094   20.7551 O   0  0  0  0  0  0  0  0  0  0  0  0
  -26.2455  -26.6432   17.6518 O   0  0  0  0  0  0  0  0  0  1  0  0
  -22.5915   -6.7074   21.6851 F   0  0  0  0  0  0  0  0  0  0  0  0
  -21.7361  -11.1957   22.9217 F   0  0  0  0  0  0  0  0  0  0  0  0
  1  2  1  0  0  0  0
  1  5  2  0  0  0  0
  2  6  2  0  0  0  0
  3  8  2  0  0  0  0
  3 17  1  0  0  0  0
  4  9  1  0  0  0  0
  4 17  2  0  0  0  0
  5 19  1  0  0  0  0
  6 21  1  0  0  0  0
  7 10  2  0  0  0  0
  7 20  1  0  0  0  0
  8 27  1  0  0  0  0
  9 27  2  0  0  0  0
 10 28  1  0  0  0  0
 11 12  2  0  0  0  0
 11 29  1  0  0  0  0
 12 30  1  0  0  0  0
 13 22  1  0  0  0  0
 13 28  2  0  0  0  0
 14 23  1  0  0  0  0
 14 24  2  0  0  0  0
 15 25  1  0  0  0  0
 15 26  2  0  0  0  0
 16 30  2  0  0  0  0
 16 31  1  0  0  0  0
 17 32  1  0  0  0  0
 18 32  1  0  0  0  0
 18 33  2  0  0  0  0
 18 34  1  0  0  0  0
 19 21  2  0  0  0  0
 19 39  1  0  0  0  0
 20 22  2  0  0  0  0
 20 40  1  0  0  0  0
 21 48  1  0  0  0  0
 22 41  1  0  0  0  0
 23 25  2  0  0  0  0
 23 58  1  0  0  0  0
 24 26  1  0  0  0  0
 24 51  1  0  0  0  0
 25 52  1  0  0  0  0
 26 69  1  0  0  0  0
 27 78  1  0  0  0  0
 28 79  1  0  0  0  0
 29 31  2  0  0  0  0
 29 78  1  0  0  0  0
 30 80  1  0  0  0  0
 31 81  1  0  0  0  0
 32 63  2  0  0  0  0
 33 64  1  0  0  0  0
 33 67  1  0  0  0  0
 34 68  1  0  0  0  0
 34 73  2  0  0  0  0
 35 49  1  0  0  0  0
 35 70  1  0  0  0  0
 35 74  2  0  0  0  0
 36 60  1  0  0  0  0
 36 65  1  0  0  0  0
 36 75  2  0  0  0  0
 37 61  1  0  0  0  0
 37 71  1  0  0  0  0
 37 76  2  0  0  0  0
 38 66  1  0  0  0  0
 38 69  1  0  0  0  0
 38 77  2  0  0  0  0
 39 42  1  0  0  0  0
 40 49  1  0  0  0  0
 41 65  1  0  0  0  0
 42 44  1  0  0  0  0
 43 45  1  0  0  0  0
 43 46  1  0  0  0  0
 44 48  1  0  0  0  0
 45 50  1  0  0  0  0
 46 66  1  0  0  0  0
 47 50  1  0  0  0  0
 47 66  1  0  0  0  0
 48 70  1  0  0  0  0
 49 65  1  0  0  0  0
 50 64  1  0  0  0  0
 53 61  1  0  0  0  0
 54 62  1  0  0  0  0
 55 62  1  0  0  0  0
 56 62  1  0  0  0  0
 57 72  1  0  0  0  0
 58 59  1  0  0  0  0
 59 79  1  0  0  0  0
 60 62  1  0  0  0  0
 60 71  1  0  0  0  0
 61 72  1  0  0  0  0
 63 64  1  0  0  0  0
M  CHG  1  72   1
M  ISO  4  38 100  59 101  69 100  79 101
M  END
> <Batch ID>
0021

> <Smiles>
CNC(C)C(=O)NC(C(=O)N1Cc2cc([101O:1][101CH2:1]Cc3cc(C)c([100NH:0][100C:0](=O)N4CCCC(n5nc(-c6ccc(Oc7ccc(F)cc7F)cc6)c(C(N)=O)c5N)C4)cc3C)ccc2CC1C(=O)NC1CCCc2ccccc21)C(C)(C)C

> <Shape>
0.333

> <Color>
0.067

> <Negative vol penalty>
0.000

$$$$

  -OEChem-04052316123D

 91 99  0     1  0  0  0  0  0999 V2000
  -24.1053  -33.6739   19.0931 C   0  0  0  0  0  0  0  0  0  0  0  0
  -24.2403  -32.9934   20.0731 C   0  0  0  0  0  0  0  0  0  0  0  0
  -32.3648  -13.9052   20.6834 C   0  0  0  0  0  0  0  0  0  0  0  0
  -31.5476  -14.8277   21.3267 C   0  0  0  0  0  0  0  0  0  0  0  0
  -29.9102  -24.0907   21.7155 C   0  0  0  0  0  0  0  0  0  0  0  0
  -30.0197  -23.7493   19.3263 C   0  0  0  0  0  0  0  0  0  0  0  0
  -31.7994  -12.9346   19.8590 C   0  0  0  0  0  0  0  0  0  0  0  0
  -30.1639  -14.7727   21.1555 C   0  0  0  0  0  0  0  0  0  0  0  0
  -27.4465  -17.7919   23.9310 C   0  0  0  0  0  0  0  0  0  0  0  0
  -30.1419  -22.7307   21.9205 C   0  0  0  0  0  0  0  0  0  0  0  0
  -30.2514  -22.3892   19.5313 C   0  0  0  0  0  0  0  0  0  0  0  0
  -27.3973  -19.1692   23.7205 C   0  0  0  0  0  0  0  0  0  0  0  0
  -28.4370  -19.6399   20.2932 C   0  0  0  0  0  0  0  0  0  0  0  0
  -27.7227  -18.7353   19.5078 C   0  0  0  0  0  0  0  0  0  0  0  0
  -23.1251  -29.9568   23.3932 C   0  0  0  0  0  0  0  0  0  0  0  0
  -25.2307  -18.9279   22.6877 C   0  0  0  0  0  0  0  0  0  0  0  0
  -29.7965  -17.8593   18.6306 C   0  0  0  0  0  0  0  0  0  0  0  0
  -29.8490  -24.6001   20.4184 C   0  0  0  0  0  0  0  0  0  0  0  0
  -23.6118  -31.2637   23.4191 C   0  0  0  0  0  0  0  0  0  0  0  0
  -30.5729  -27.0260   20.1040 C   0  0  0  0  0  0  0  0  0  0  0  0
  -30.4090  -12.8762   19.6682 C   0  0  0  0  0  0  0  0  0  0  0  0
  -26.3913  -16.9695   23.5109 C   0  0  0  0  0  0  0  0  0  0  0  0
  -29.5723  -13.7857   20.3464 C   0  0  0  0  0  0  0  0  0  0  0  0
  -25.2678  -17.5407   22.8963 C   0  0  0  0  0  0  0  0  0  0  0  0
  -23.2285  -29.1514   24.5274 C   0  0  0  0  0  0  0  0  0  0  0  0
  -24.2021  -31.7652   24.5792 C   0  0  0  0  0  0  0  0  0  0  0  0
  -24.3055  -30.9598   25.7134 C   0  0  0  0  0  0  0  0  0  0  0  0
  -23.8187  -29.6529   25.6874 C   0  0  0  0  0  0  0  0  0  0  0  0
  -30.3125  -21.8799   20.8284 C   0  0  0  0  0  0  0  0  0  0  0  0
  -26.2906  -19.7371   23.0962 C   0  0  0  0  0  0  0  0  0  0  0  0
  -29.8311  -19.6544   20.2472 C   0  0  0  0  0  0  0  0  0  0  0  0
  -28.4024  -17.8449   18.6765 C   0  0  0  0  0  0  0  0  0  0  0  0
  -30.5108  -18.7641   19.4160 C   0  0  0  0  0  0  0  0  0  0  0  0
  -29.6091  -26.0049   20.2059 C   0  0  0  0  0  0  0  0  0  0  0  0
  -29.8404  -28.1708   19.9059 C   0  0  0  0  0  0  0  0  0  0  0  0
  -23.4878  -32.0776   22.2166 C   0  0  0  0  0  0  0  0  0  0  0  0
  -24.4054  -32.1845   21.2311 C   0  0  0  0  0  0  0  0  0  0  0  0
  -32.0024  -26.9466   20.1813 C   0  0  0  0  0  0  0  0  0  0  0  0
  -25.6358  -31.3817   21.3811 C   0  0  0  0  0  0  0  0  0  0  0  0
  -26.1029  -14.5688   21.4475 C   0  0  0  0  0  0  0  0  0  0  0  0
  -23.1008  -14.3977   22.6644 C   0  0  0  0  0  0  0  0  0  0  0  0
  -20.5217  -15.9760   24.2467 C   0  0  0  0  0  0  0  0  0  0  0  0
  -29.8497  -11.8002   18.7712 C   0  0  0  0  0  0  0  0  0  0  0  0
  -26.4478  -15.4888   23.7693 C   0  0  0  0  0  0  0  0  0  0  0  0
  -24.0997  -16.7041   22.4447 C   0  0  0  0  0  0  0  0  0  0  0  0
  -28.4286  -12.0960   18.3028 C   0  0  0  0  0  0  0  0  0  0  0  0
  -24.9547  -28.8272   18.8430 C   0  0  0  0  0  0  0  0  0  0  0  0
  -27.5582  -12.4763   19.4912 C   0  0  0  0  0  0  0  0  0  0  0  0
  -26.1729  -27.9216   19.0036 C   0  0  0  0  0  0  0  0  0  0  0  0
  -24.5129  -29.4326   20.1744 C   0  0  0  0  0  0  0  0  0  0  0  0
  -26.8222  -29.2468   21.0535 C   0  0  0  0  0  0  0  0  0  0  0  0
  -28.0671  -13.7643   20.1509 C   0  0  1  0  0  0  0  0  0  0  0  0
  -25.5456  -14.6849   22.8381 C   0  0  1  0  0  0  0  0  0  0  0  0
  -27.3127  -28.6641   19.7189 C   0  0  1  0  0  0  0  0  0  0  0  0
  -22.7001  -27.7553   24.4730 C   0  0  0  0  0  0  0  0  0  0  0  0
  -24.7270  -33.1674   24.6167 C   0  0  0  0  0  0  0  0  0  0  0  0
  -24.9381  -31.4966   26.9584 C   0  0  0  0  0  0  0  0  0  0  0  0
  -18.1834  -15.5881   25.0710 C   0  0  0  0  0  0  0  0  0  0  0  0
  -22.0644  -14.5748   19.8001 C   0  0  0  0  0  0  0  0  0  0  0  0
  -19.8069  -15.1365   20.7256 C   0  0  0  0  0  0  0  0  0  0  0  0
  -20.8541  -12.9335   21.2478 C   0  0  0  0  0  0  0  0  0  0  0  0
  -21.2904  -16.5454   27.0474 C   0  0  0  0  0  0  0  0  0  0  0  0
  -23.9283  -28.7848   26.9062 C   0  0  0  0  0  0  0  0  0  0  0  0
  -26.1476  -25.5243   25.0094 C   0  0  0  0  0  0  0  0  0  0  0  0
  -26.8895  -24.1896   24.9077 C   0  0  0  0  0  0  0  0  0  0  0  0
  -26.8432  -26.4714   25.9915 C   0  0  0  0  0  0  0  0  0  0  0  0
  -26.2169  -23.2550   23.9044 C   0  0  0  0  0  0  0  0  0  0  0  0
  -26.1040  -27.7890   26.1894 C   0  0  0  0  0  0  0  0  0  0  0  0
  -26.9240  -21.9092   23.8287 C   0  0  0  0  0  0  0  0  0  1  0  0
  -21.7720  -15.0286   22.3249 C   0  0  1  0  0  0  0  0  0  0  0  0
  -19.6615  -15.5643   25.4279 C   0  0  2  0  0  0  0  0  0  0  0  0
  -21.1471  -14.4342   21.0313 C   0  0  0  0  0  0  0  0  0  0  0  0
  -28.3598  -26.4609   20.0830 N   0  0  0  0  0  0  0  0  0  0  0  0
  -28.5334  -27.7812   19.9018 N   0  0  0  0  0  0  0  0  0  0  0  0
  -25.6336  -30.0864   20.8668 N   0  0  0  0  0  0  0  0  0  0  0  0
  -24.2049  -15.2605   22.7141 N   0  0  0  0  0  0  0  0  0  0  0  0
  -30.1934  -29.4628   19.7367 N   0  0  0  0  0  0  0  0  0  0  0  0
  -32.5917  -25.6920   20.3884 N   0  0  0  0  0  0  0  0  0  0  0  0
  -27.3497  -13.9760   21.3888 N   0  0  0  0  0  0  0  0  0  0  0  0
  -20.9368  -14.8852   23.5124 N   0  0  0  0  0  0  0  0  0  0  0  0
  -19.8826  -16.4878   26.5765 N   0  3  0  0  0  0  0  0  0  0  0  0
  -24.7239  -27.5480   26.6719 N   0  3  0  0  0  0  0  0  0  0  0  0
  -32.7346  -27.9607   20.0864 O   0  0  0  0  0  0  0  0  0  0  0  0
  -26.5902  -31.9062   21.9579 O   0  0  0  0  0  0  0  0  0  0  0  0
  -25.4494  -14.9849   20.4981 O   0  0  0  0  0  0  0  0  0  0  0  0
  -23.1559  -13.1852   22.8847 O   0  0  0  0  0  0  0  0  0  0  0  0
  -20.7947  -17.1482   23.9981 O   0  0  0  0  0  0  0  0  0  0  0  0
  -30.5389  -20.5527   21.0281 O   0  0  0  0  0  0  0  0  0  0  0  0
  -26.2403  -21.0811   22.8889 O   0  0  0  0  0  0  0  0  0  1  0  0
  -27.7163  -16.9752   17.9235 F   0  0  0  0  0  0  0  0  0  0  0  0
  -31.8500  -18.7725   19.3685 F   0  0  0  0  0  0  0  0  0  0  0  0
  1  2  3  0  0  0  0
  2 37  1  0  0  0  0
  3  4  1  0  0  0  0
  3  7  2  0  0  0  0
  4  8  2  0  0  0  0
  5 10  2  0  0  0  0
  5 18  1  0  0  0  0
  6 11  1  0  0  0  0
  6 18  2  0  0  0  0
  7 21  1  0  0  0  0
  8 23  1  0  0  0  0
  9 12  2  0  0  0  0
  9 22  1  0  0  0  0
 10 29  1  0  0  0  0
 11 29  2  0  0  0  0
 12 30  1  0  0  0  0
 13 14  2  0  0  0  0
 13 31  1  0  0  0  0
 14 32  1  0  0  0  0
 15 19  1  0  0  0  0
 15 25  2  0  0  0  0
 16 24  1  0  0  0  0
 16 30  2  0  0  0  0
 17 32  2  0  0  0  0
 17 33  1  0  0  0  0
 18 34  1  0  0  0  0
 19 26  2  0  0  0  0
 19 36  1  0  0  0  0
 20 34  1  0  0  0  0
 20 35  2  0  0  0  0
 20 38  1  0  0  0  0
 21 23  2  0  0  0  0
 21 43  1  0  0  0  0
 22 24  2  0  0  0  0
 22 44  1  0  0  0  0
 23 52  1  0  0  0  0
 24 45  1  0  0  0  0
 25 28  1  0  0  0  0
 25 55  1  0  0  0  0
 26 27  1  0  0  0  0
 26 56  1  0  0  0  0
 27 28  2  0  0  0  0
 27 57  1  0  0  0  0
 28 63  1  0  0  0  0
 29 88  1  0  0  0  0
 30 89  1  0  0  0  0
 31 33  2  0  0  0  0
 31 88  1  0  0  0  0
 32 90  1  0  0  0  0
 33 91  1  0  0  0  0
 34 73  2  0  0  0  0
 35 74  1  0  0  0  0
 35 77  1  0  0  0  0
 36 37  2  0  0  0  0
 37 39  1  0  0  0  0
 38 78  1  0  0  0  0
 38 83  2  0  0  0  0
 39 75  1  0  0  0  0
 39 84  2  0  0  0  0
 40 53  1  0  0  0  0
 40 79  1  0  0  0  0
 40 85  2  0  0  0  0
 41 70  1  0  0  0  0
 41 76  1  0  0  0  0
 41 86  2  0  0  0  0
 42 71  1  0  0  0  0
 42 80  1  0  0  0  0
 42 87  2  0  0  0  0
 43 46  1  0  0  0  0
 44 53  1  0  0  0  0
 45 76  1  0  0  0  0
 46 48  1  0  0  0  0
 47 49  1  0  0  0  0
 47 50  1  0  0  0  0
 48 52  1  0  0  0  0
 49 54  1  0  0  0  0
 50 75  1  0  0  0  0
 51 54  1  0  0  0  0
 51 75  1  0  0  0  0
 52 79  1  0  0  0  0
 53 76  1  0  0  0  0
 54 74  1  0  0  0  0
 58 71  1  0  0  0  0
 59 72  1  0  0  0  0
 60 72  1  0  0  0  0
 61 72  1  0  0  0  0
 62 81  1  0  0  0  0
 63 82  1  0  0  0  0
 64 65  1  0  0  0  0
 64 66  1  0  0  0  0
 65 67  1  0  0  0  0
 66 68  1  0  0  0  0
 67 69  1  0  0  0  0
 68 82  1  0  0  0  0
 69 89  1  0  0  0  0
 70 72  1  0  0  0  0
 70 80  1  0  0  0  0
 71 81  1  0  0  0  0
 73 74  1  0  0  0  0
M  CHG  2  81   1  82   1
M  ISO  4  37 100  39 100  69 101  89 101
M  END
> <Batch ID>
0021

> <Smiles>
C#C[100C:0](=Cc1cc(C)c(CNCCCCC[101CH2:1][101O:1]c2ccc3c(c2)CN(C(=O)C(NC(=O)C(C)NC)C(C)(C)C)C(C(=O)NC2CCCc4ccccc42)C3)c(C)c1C)[100C:0](=O)N1CCCC(n2nc(-c3ccc(Oc4ccc(F)cc4F)cc3)c(C(N)=O)c2N)C1

> <Shape>
0.262

> <Color>
0.065

> <Negative vol penalty>
0.000

$$$$

  -OEChem-04052316123D

 86 94  0     1  0  0  0  0  0999 V2000
  -32.1957  -32.2298   20.0124 C   0  0  0  0  0  0  0  0  0  0  0  0
  -31.4951  -31.0409   20.1891 C   0  0  0  0  0  0  0  0  0  0  0  0
  -22.2425  -10.4273   20.8821 C   0  0  0  0  0  0  0  0  0  0  0  0
  -24.3147   -9.3293   21.4631 C   0  0  0  0  0  0  0  0  0  0  0  0
  -31.8306  -33.3664   20.7327 C   0  0  0  0  0  0  0  0  0  0  0  0
  -30.4296  -30.9878   21.0871 C   0  0  0  0  0  0  0  0  0  0  0  0
  -26.4054  -28.5718   19.1860 C   0  0  0  0  0  0  0  0  0  0  0  0
  -21.5775   -9.2025   20.9394 C   0  0  0  0  0  0  0  0  0  0  0  0
  -23.6496   -8.1045   21.5205 C   0  0  0  0  0  0  0  0  0  0  0  0
  -26.4497  -27.1784   19.1671 C   0  0  0  0  0  0  0  0  0  0  0  0
  -21.6491   -6.4576   23.6897 C   0  0  0  0  0  0  0  0  0  0  0  0
  -21.9214   -5.6241   24.7745 C   0  0  0  0  0  0  0  0  0  0  0  0
  -25.0852  -27.1142   21.1554 C   0  0  0  0  0  0  0  0  0  0  0  0
  -22.7010   -3.9095   23.2614 C   0  0  0  0  0  0  0  0  0  0  0  0
  -23.6111  -10.4907   21.1439 C   0  0  0  0  0  0  0  0  0  0  0  0
  -24.4885  -12.6704   22.1373 C   0  0  0  0  0  0  0  0  0  0  0  0
  -30.7540  -33.3297   21.6328 C   0  0  0  0  0  0  0  0  0  0  0  0
  -25.7087  -29.2482   20.1977 C   0  0  0  0  0  0  0  0  0  0  0  0
  -30.0506  -32.1246   21.8211 C   0  0  0  0  0  0  0  0  0  0  0  0
  -25.0316  -28.5161   21.1835 C   0  0  0  0  0  0  0  0  0  0  0  0
  -31.6037  -18.0216   21.9009 C   0  0  0  0  0  0  0  0  0  0  0  0
  -30.2174  -16.9207   20.2569 C   0  0  0  0  0  0  0  0  0  0  0  0
  -22.2810   -8.0412   21.2586 C   0  0  0  0  0  0  0  0  0  0  0  0
  -25.7919  -26.4495   20.1535 C   0  0  0  0  0  0  0  0  0  0  0  0
  -21.9026   -6.0170   22.3907 C   0  0  0  0  0  0  0  0  0  0  0  0
  -30.3264  -19.3333   20.3245 C   0  0  0  0  0  0  0  0  0  0  0  0
  -22.4474   -4.3501   24.5603 C   0  0  0  0  0  0  0  0  0  0  0  0
  -22.4286   -4.7430   22.1766 C   0  0  0  0  0  0  0  0  0  0  0  0
  -29.8279  -18.1621   19.7539 C   0  0  0  0  0  0  0  0  0  0  0  0
  -31.1053  -16.8505   21.3304 C   0  0  0  0  0  0  0  0  0  0  0  0
  -31.2143  -19.2631   21.3980 C   0  0  0  0  0  0  0  0  0  0  0  0
  -24.2988  -11.7555   21.0843 C   0  0  0  0  0  0  0  0  0  0  0  0
  -25.1954  -13.7032   21.5715 C   0  0  0  0  0  0  0  0  0  0  0  0
  -24.0639  -12.5935   23.5045 C   0  0  0  0  0  0  0  0  0  0  0  0
  -26.5137  -31.2937   22.4936 C   0  0  0  0  0  0  0  0  0  0  0  0
  -23.3061  -31.4326   22.9569 C   0  0  0  0  0  0  0  0  0  0  0  0
  -20.2618  -29.9284   22.6161 C   0  0  0  0  0  0  0  0  0  0  0  0
  -29.3062  -15.5878   18.3231 C   0  0  0  0  0  0  0  0  0  0  0  0
  -30.4265  -34.5713   22.4238 C   0  0  0  0  0  0  0  0  0  0  0  0
  -25.6483  -30.7510   20.1887 C   0  0  0  0  0  0  0  0  0  0  0  0
  -24.2526  -29.1941   22.2799 C   0  0  0  0  0  0  0  0  0  0  0  0
  -29.0479  -34.5306   23.0782 C   0  0  0  0  0  0  0  0  0  0  0  0
  -26.2499  -14.7064   16.7235 C   0  0  0  0  0  0  0  0  0  0  0  0
  -28.8260  -33.1908   23.7728 C   0  0  0  0  0  0  0  0  0  0  0  0
  -25.4854  -13.9353   17.8020 C   0  0  0  0  0  0  0  0  0  0  0  0
  -27.7496  -14.4205   16.7774 C   0  0  0  0  0  0  0  0  0  0  0  0
  -27.6087  -13.8510   19.1700 C   0  0  0  0  0  0  0  0  0  0  0  0
  -28.8733  -32.0338   22.7676 C   0  0  1  0  0  0  0  0  0  0  0  0
  -25.3380  -31.3447   21.5594 C   0  0  1  0  0  0  0  0  0  0  0  0
  -26.1022  -14.1566   19.1971 C   0  0  2  0  0  0  0  0  0  0  0  0
  -32.5585  -17.9485   23.0545 C   0  0  0  0  0  0  0  0  0  0  0  0
  -17.8280  -30.2696   23.1239 C   0  0  0  0  0  0  0  0  0  0  0  0
  -23.8266  -30.7650   25.8883 C   0  0  0  0  0  0  0  0  0  0  0  0
  -21.4006  -30.1897   26.1159 C   0  0  0  0  0  0  0  0  0  0  0  0
  -22.0783  -32.5130   25.5111 C   0  0  0  0  0  0  0  0  0  0  0  0
  -19.5309  -29.8314   19.7499 C   0  0  0  0  0  0  0  0  0  0  0  0
  -27.2426  -23.1308   20.2394 C   0  0  0  0  0  0  0  0  0  0  0  0
  -28.4921  -22.4533   19.6876 C   0  0  0  0  0  0  0  0  0  0  0  0
  -26.9989  -24.4820   19.5805 C   0  0  0  0  0  0  0  0  0  1  0  0
  -28.7605  -21.1224   20.3758 C   0  0  0  0  0  0  0  0  0  0  0  0
  -22.3134  -30.6678   23.7987 C   0  0  1  0  0  0  0  0  0  0  0  0
  -18.9340  -30.4483   22.0954 C   0  0  2  0  0  0  0  0  0  0  0  0
  -22.4209  -31.0208   25.3091 C   0  0  0  0  0  0  0  0  0  0  0  0
  -24.8412  -12.1706   19.9365 N   0  0  0  0  0  0  0  0  0  0  0  0
  -25.3786  -13.3578   20.2649 N   0  0  0  0  0  0  0  0  0  0  0  0
  -24.2286  -30.6654   22.2316 N   0  0  0  0  0  0  0  0  0  0  0  0
  -28.2651  -14.6558   18.1278 N   0  0  0  0  0  0  0  0  0  0  0  0
  -25.6718  -14.8641   22.0692 N   0  0  0  0  0  0  0  0  0  0  0  0
  -23.3475  -11.4624   23.9190 N   0  0  0  0  0  0  0  0  0  0  0  0
  -29.6915  -15.7516   19.6532 N   0  0  0  0  0  0  0  0  0  0  0  0
  -27.6325  -31.9568   22.0267 N   0  0  0  0  0  0  0  0  0  0  0  0
  -21.0006  -30.9256   23.2168 N   0  0  0  0  0  0  0  0  0  0  0  0
  -18.5437  -29.7212   20.8545 N   0  3  0  0  0  0  0  0  0  0  0  0
  -24.2981  -13.5084   24.3301 O   0  0  0  0  0  0  0  0  0  0  0  0
  -26.4127  -30.6982   23.5599 O   0  0  0  0  0  0  0  0  0  0  0  0
  -23.2600  -32.6652   22.9379 O   0  0  0  0  0  0  0  0  0  0  0  0
  -20.6073  -28.7542   22.5046 O   0  0  0  0  0  0  0  0  0  0  0  0
  -29.7997  -16.2159   17.3829 O   0  0  0  0  0  0  0  0  0  0  0  0
  -21.6323   -6.8459   21.3149 O   0  0  0  0  0  0  0  0  0  0  0  0
  -25.8340  -25.0894   20.1378 O   0  0  0  0  0  0  0  0  0  1  0  0
  -29.9245  -20.5378   19.8082 O   0  0  0  0  0  0  0  0  0  0  0  0
  -22.7104   -3.5504   25.6022 F   0  0  0  0  0  0  0  0  0  0  0  0
  -22.6753   -4.3146   20.9310 F   0  0  0  0  0  0  0  0  0  0  0  0
  -28.9741  -18.2365   18.7218 F   0  0  0  0  0  0  0  0  0  0  0  0
  -31.5902  -15.3061   21.9547 Cl  0  0  0  0  0  0  0  0  0  0  0  0
  -31.8247  -20.7264   22.0953 Cl  0  0  0  0  0  0  0  0  0  0  0  0
  1  2  1  0  0  0  0
  1  5  2  0  0  0  0
  2  6  2  0  0  0  0
  3  8  2  0  0  0  0
  3 15  1  0  0  0  0
  4  9  1  0  0  0  0
  4 15  2  0  0  0  0
  5 17  1  0  0  0  0
  6 19  1  0  0  0  0
  7 10  2  0  0  0  0
  7 18  1  0  0  0  0
  8 23  1  0  0  0  0
  9 23  2  0  0  0  0
 10 24  1  0  0  0  0
 11 12  2  0  0  0  0
 11 25  1  0  0  0  0
 12 27  1  0  0  0  0
 13 20  1  0  0  0  0
 13 24  2  0  0  0  0
 14 27  2  0  0  0  0
 14 28  1  0  0  0  0
 15 32  1  0  0  0  0
 16 32  1  0  0  0  0
 16 33  2  0  0  0  0
 16 34  1  0  0  0  0
 17 19  2  0  0  0  0
 17 39  1  0  0  0  0
 18 20  2  0  0  0  0
 18 40  1  0  0  0  0
 19 48  1  0  0  0  0
 20 41  1  0  0  0  0
 21 30  2  0  0  0  0
 21 31  1  0  0  0  0
 21 51  1  0  0  0  0
 22 29  2  0  0  0  0
 22 30  1  0  0  0  0
 22 70  1  0  0  0  0
 23 79  1  0  0  0  0
 24 80  1  0  0  0  0
 25 28  2  0  0  0  0
 25 79  1  0  0  0  0
 26 29  1  0  0  0  0
 26 31  2  0  0  0  0
 26 81  1  0  0  0  0
 27 82  1  0  0  0  0
 28 83  1  0  0  0  0
 29 84  1  0  0  0  0
 30 85  1  0  0  0  0
 31 86  1  0  0  0  0
 32 64  2  0  0  0  0
 33 65  1  0  0  0  0
 33 68  1  0  0  0  0
 34 69  1  0  0  0  0
 34 74  2  0  0  0  0
 35 49  1  0  0  0  0
 35 71  1  0  0  0  0
 35 75  2  0  0  0  0
 36 61  1  0  0  0  0
 36 66  1  0  0  0  0
 36 76  2  0  0  0  0
 37 62  1  0  0  0  0
 37 72  1  0  0  0  0
 37 77  2  0  0  0  0
 38 67  1  0  0  0  0
 38 70  1  0  0  0  0
 38 78  2  0  0  0  0
 39 42  1  0  0  0  0
 40 49  1  0  0  0  0
 41 66  1  0  0  0  0
 42 44  1  0  0  0  0
 43 45  1  0  0  0  0
 43 46  1  0  0  0  0
 44 48  1  0  0  0  0
 45 50  1  0  0  0  0
 46 67  1  0  0  0  0
 47 50  1  0  0  0  0
 47 67  1  0  0  0  0
 48 71  1  0  0  0  0
 49 66  1  0  0  0  0
 50 65  1  0  0  0  0
 52 62  1  0  0  0  0
 53 63  1  0  0  0  0
 54 63  1  0  0  0  0
 55 63  1  0  0  0  0
 56 73  1  0  0  0  0
 57 58  1  0  0  0  0
 57 59  1  0  0  0  0
 58 60  1  0  0  0  0
 59 80  1  0  0  0  0
 60 81  1  0  0  0  0
 61 63  1  0  0  0  0
 61 72  1  0  0  0  0
 62 73  1  0  0  0  0
 64 65  1  0  0  0  0
M  CHG  1  73   1
M  ISO  4  38 100  59 101  70 100  80 101
M  END
> <Batch ID>
0021

> <Smiles>
CNC(C)C(=O)NC(C(=O)N1Cc2cc([101O:1][101CH2:1]CCCOc3c(F)c([100NH:0][100C:0](=O)N4CCCC(n5nc(-c6ccc(Oc7ccc(F)cc7F)cc6)c(C(N)=O)c5N)C4)c(Cl)c(C)c3Cl)ccc2CC1C(=O)NC1CCCc2ccccc21)C(C)(C)C

> <Shape>
0.283

> <Color>
0.131

> <Negative vol penalty>
0.000

$$$$

  -OEChem-04052316123D

 87 96  0     1  0  0  0  0  0999 V2000
  -32.0116  -34.1157   26.9971 C   0  0  0  0  0  0  0  0  0  0  0  0
  -32.7326  -33.3580   26.0798 C   0  0  0  0  0  0  0  0  0  0  0  0
  -22.6790  -10.2129   20.1673 C   0  0  0  0  0  0  0  0  0  0  0  0
  -24.3340   -9.4432   21.7502 C   0  0  0  0  0  0  0  0  0  0  0  0
  -31.4206  -33.4980   28.0984 C   0  0  0  0  0  0  0  0  0  0  0  0
  -32.8640  -31.9820   26.2641 C   0  0  0  0  0  0  0  0  0  0  0  0
  -30.5648  -27.3349   21.2631 C   0  0  0  0  0  0  0  0  0  0  0  0
  -21.9484   -9.0406   20.3611 C   0  0  0  0  0  0  0  0  0  0  0  0
  -23.6034   -8.2709   21.9441 C   0  0  0  0  0  0  0  0  0  0  0  0
  -30.3420  -26.3889   20.2623 C   0  0  0  0  0  0  0  0  0  0  0  0
  -20.8591   -7.3038   23.6628 C   0  0  0  0  0  0  0  0  0  0  0  0
  -20.6758   -6.8656   24.9743 C   0  0  0  0  0  0  0  0  0  0  0  0
  -30.9903  -24.6184   21.7765 C   0  0  0  0  0  0  0  0  0  0  0  0
  -21.8062   -4.7979   24.4415 C   0  0  0  0  0  0  0  0  0  0  0  0
  -23.8719  -10.4142   20.8618 C   0  0  0  0  0  0  0  0  0  0  0  0
  -24.1969  -12.9442   20.8971 C   0  0  0  0  0  0  0  0  0  0  0  0
  -31.5366  -32.1123   28.2910 C   0  0  0  0  0  0  0  0  0  0  0  0
  -30.9870  -26.9242   22.5306 C   0  0  0  0  0  0  0  0  0  0  0  0
  -32.2751  -31.3453   27.3697 C   0  0  0  0  0  0  0  0  0  0  0  0
  -31.2031  -25.5602   22.7867 C   0  0  0  0  0  0  0  0  0  0  0  0
  -29.6430  -19.8138   20.0390 C   0  0  0  0  0  0  0  0  0  0  0  0
  -29.4861  -18.7756   21.0160 C   0  0  0  0  0  0  0  0  0  0  0  0
  -22.4106   -8.0696   21.2496 C   0  0  0  0  0  0  0  0  0  0  0  0
  -30.5544  -25.0341   20.5183 C   0  0  0  0  0  0  0  0  0  0  0  0
  -21.5159   -6.4890   22.7406 C   0  0  0  0  0  0  0  0  0  0  0  0
  -21.1494   -5.6127   25.3637 C   0  0  0  0  0  0  0  0  0  0  0  0
  -21.9895   -5.2361   23.1300 C   0  0  0  0  0  0  0  0  0  0  0  0
  -24.6273  -11.6247   20.6615 C   0  0  0  0  0  0  0  0  0  0  0  0
  -30.9058  -19.7661   19.4763 C   0  0  0  0  0  0  0  0  0  0  0  0
  -30.6116  -17.9923   21.1427 C   0  0  0  0  0  0  0  0  0  0  0  0
  -25.2747  -13.7233   20.5542 C   0  0  0  0  0  0  0  0  0  0  0  0
  -22.9355  -13.4227   21.3826 C   0  0  0  0  0  0  0  0  0  0  0  0
  -31.9335  -27.9222   26.0212 C   0  0  0  0  0  0  0  0  0  0  0  0
  -30.2635  -25.3591   26.2492 C   0  0  0  0  0  0  0  0  0  0  0  0
  -28.0398  -22.7767   26.0970 C   0  0  0  0  0  0  0  0  0  0  0  0
  -30.7561  -14.7668   20.6615 C   0  0  0  0  0  0  0  0  0  0  0  0
  -30.9201  -31.4964   29.5220 C   0  0  0  0  0  0  0  0  0  0  0  0
  -31.2986  -27.9136   23.6205 C   0  0  0  0  0  0  0  0  0  0  0  0
  -31.6906  -25.1677   24.1546 C   0  0  0  0  0  0  0  0  0  0  0  0
  -31.4285  -20.6882   18.4192 C   0  0  0  0  0  0  0  0  0  0  0  0
  -30.7907  -29.9774   29.4434 C   0  0  0  0  0  0  0  0  0  0  0  0
  -29.5667  -12.5341   18.1561 C   0  0  0  0  0  0  0  0  0  0  0  0
  -32.0886  -29.3565   28.9368 C   0  0  0  0  0  0  0  0  0  0  0  0
  -28.1432  -12.2028   18.6073 C   0  0  0  0  0  0  0  0  0  0  0  0
  -29.1150  -21.7412   18.4691 C   0  0  0  0  0  0  0  0  0  0  0  0
  -30.5150  -12.6830   19.3438 C   0  0  0  0  0  0  0  0  0  0  0  0
  -28.6478  -13.3092   20.8254 C   0  0  0  0  0  0  0  0  0  0  0  0
  -32.4191  -29.8466   27.5218 C   0  0  1  0  0  0  0  0  0  0  0  0
  -30.9420  -27.3960   25.0255 C   0  0  1  0  0  0  0  0  0  0  0  0
  -27.6429  -13.2044   19.6654 C   0  0  2  0  0  0  0  0  0  0  0  0
  -28.6048  -20.8569   19.6566 C   0  0  0  0  0  0  0  0  0  0  0  0
  -30.6456  -22.0254   18.4078 C   0  0  2  0  0  0  0  0  0  0  0  0
  -28.2671  -18.5393   21.8313 C   0  0  0  0  0  0  0  0  0  0  0  0
  -27.3016  -20.1641   19.1911 C   0  0  0  0  0  0  0  0  0  0  0  0
  -28.2458  -21.7386   20.8712 C   0  0  0  0  0  0  0  0  0  0  0  0
  -30.9486  -22.7634   17.0866 C   0  0  0  0  0  0  0  0  0  0  0  0
  -26.8112  -21.1467   27.5568 C   0  0  0  0  0  0  0  0  0  0  0  0
  -32.5825  -23.2831   19.4043 C   0  0  0  0  0  0  0  0  0  0  0  0
  -32.8279  -23.7449   26.5987 C   0  0  0  0  0  0  0  0  0  0  0  0
  -31.4160  -21.7626   27.1861 C   0  0  0  0  0  0  0  0  0  0  0  0
  -31.3502  -23.8060   28.6154 C   0  0  0  0  0  0  0  0  0  0  0  0
  -25.4047  -23.8003   25.2210 C   0  0  0  0  0  0  0  0  0  0  0  0
  -30.8441  -16.8330   22.0334 C   0  0  0  0  0  0  0  0  0  0  0  0
  -30.2620  -23.8537   26.3338 C   0  0  1  0  0  0  0  0  0  0  0  0
  -26.7612  -22.5014   26.8676 C   0  0  2  0  0  0  0  0  0  0  0  0
  -31.1183  -22.9303   19.5602 C   0  0  1  0  0  0  0  0  0  1  0  0
  -31.4604  -23.3053   27.1587 C   0  0  0  0  0  0  0  0  0  0  0  0
  -25.8808  -11.5651   20.2042 N   0  0  0  0  0  0  0  0  0  0  0  0
  -26.2473  -12.8569   20.1495 N   0  0  0  0  0  0  0  0  0  0  0  0
  -30.9686  -25.9320   25.1837 N   0  0  0  0  0  0  0  0  0  0  0  0
  -29.9832  -13.6480   20.3092 N   0  0  0  0  0  0  0  0  0  0  0  0
  -25.4760  -15.0582   20.5623 N   0  0  0  0  0  0  0  0  0  0  0  0
  -22.7663  -13.5758   22.7654 N   0  0  0  0  0  0  0  0  0  0  0  0
  -31.6033  -29.1576   26.5449 N   0  0  0  0  0  0  0  0  0  0  0  0
  -28.9537  -23.4757   26.8570 N   0  0  0  0  0  0  0  0  0  0  0  0
  -30.1751  -15.6348   21.5779 N   0  0  0  0  0  0  0  0  0  0  0  0
  -25.5884  -22.5180   25.9482 N   0  3  0  0  0  0  0  0  0  0  0  0
  -21.9811  -13.6906   20.6139 O   0  0  0  0  0  0  0  0  0  0  0  0
  -32.9250  -27.2566   26.2961 O   0  0  0  0  0  0  0  0  0  0  0  0
  -29.6616  -26.0120   27.1063 O   0  0  0  0  0  0  0  0  0  0  0  0
  -28.2121  -22.4054   24.9382 O   0  0  0  0  0  0  0  0  0  0  0  0
  -31.8783  -14.9793   20.1900 O   0  0  0  0  0  0  0  0  0  0  0  0
  -21.6978   -6.9257   21.4392 O   0  0  0  0  0  0  0  0  0  0  0  0
  -30.3288  -24.1079   19.5299 O   0  0  0  0  0  0  0  0  0  1  0  0
  -20.9746   -5.1927   26.6235 F   0  0  0  0  0  0  0  0  0  0  0  0
  -22.6222   -4.4493   22.2488 F   0  0  0  0  0  0  0  0  0  0  0  0
  -31.8627  -18.4984   20.0950 S   0  0  0  0  0  0  0  0  0  0  0  0
  1  2  1  0  0  0  0
  1  5  2  0  0  0  0
  2  6  2  0  0  0  0
  3  8  2  0  0  0  0
  3 15  1  0  0  0  0
  4  9  1  0  0  0  0
  4 15  2  0  0  0  0
  5 17  1  0  0  0  0
  6 19  1  0  0  0  0
  7 10  2  0  0  0  0
  7 18  1  0  0  0  0
  8 23  1  0  0  0  0
  9 23  2  0  0  0  0
 10 24  1  0  0  0  0
 11 12  2  0  0  0  0
 11 25  1  0  0  0  0
 12 26  1  0  0  0  0
 13 20  1  0  0  0  0
 13 24  2  0  0  0  0
 14 26  2  0  0  0  0
 14 27  1  0  0  0  0
 15 28  1  0  0  0  0
 16 28  1  0  0  0  0
 16 31  2  0  0  0  0
 16 32  1  0  0  0  0
 17 19  2  0  0  0  0
 17 37  1  0  0  0  0
 18 20  2  0  0  0  0
 18 38  1  0  0  0  0
 19 48  1  0  0  0  0
 20 39  1  0  0  0  0
 21 22  1  0  0  0  0
 21 29  2  0  0  0  0
 21 51  1  0  0  0  0
 22 30  2  0  0  0  0
 22 53  1  0  0  0  0
 23 83  1  0  0  0  0
 24 84  1  0  0  0  0
 25 27  2  0  0  0  0
 25 83  1  0  0  0  0
 26 85  1  0  0  0  0
 27 86  1  0  0  0  0
 28 68  2  0  0  0  0
 29 40  1  0  0  0  0
 29 87  1  0  0  0  0
 30 63  1  0  0  0  0
 30 87  1  0  0  0  0
 31 69  1  0  0  0  0
 31 72  1  0  0  0  0
 32 73  1  0  0  0  0
 32 78  2  0  0  0  0
 33 49  1  0  0  0  0
 33 74  1  0  0  0  0
 33 79  2  0  0  0  0
 34 64  1  0  0  0  0
 34 70  1  0  0  0  0
 34 80  2  0  0  0  0
 35 65  1  0  0  0  0
 35 75  1  0  0  0  0
 35 81  2  0  0  0  0
 36 71  1  0  0  0  0
 36 76  1  0  0  0  0
 36 82  2  0  0  0  0
 37 41  1  0  0  0  0
 38 49  1  0  0  0  0
 39 70  1  0  0  0  0
 40 52  1  0  0  0  0
 41 43  1  0  0  0  0
 42 44  1  0  0  0  0
 42 46  1  0  0  0  0
 43 48  1  0  0  0  0
 44 50  1  0  0  0  0
 45 51  1  0  0  0  0
 45 52  1  0  0  0  0
 46 71  1  0  0  0  0
 47 50  1  0  0  0  0
 47 71  1  0  0  0  0
 48 74  1  0  0  0  0
 49 70  1  0  0  0  0
 50 69  1  0  0  0  0
 51 54  1  0  0  0  0
 51 55  1  0  0  0  0
 52 56  1  0  0  0  0
 52 66  1  0  0  0  0
 57 65  1  0  0  0  0
 58 66  1  0  0  0  0
 59 67  1  0  0  0  0
 60 67  1  0  0  0  0
 61 67  1  0  0  0  0
 62 77  1  0  0  0  0
 63 76  1  0  0  0  0
 64 67  1  0  0  0  0
 64 75  1  0  0  0  0
 65 77  1  0  0  0  0
 66 84  1  0  0  0  0
 68 69  1  0  0  0  0
M  CHG  1  77   1
M  ISO  4  36 100  66 101  76 100  84 101
M  END
> <Batch ID>
0021

> <Smiles>
CNC(C)C(=O)NC(C(=O)N1Cc2cc([101O:1][101CH:1](C)C3(C)Cc4sc(C[100NH:0][100C:0](=O)N5CCCC(n6nc(-c7ccc(Oc8ccc(F)cc8F)cc7)c(C(N)=O)c6N)C5)c(C)c4C(C)(C)C3)ccc2CC1C(=O)NC1CCCc2ccccc21)C(C)(C)C

> <Shape>
0.261

> <Color>
0.184

> <Negative vol penalty>
0.000

$$$$

  -OEChem-04052316123D

 90 98  0     1  0  0  0  0  0999 V2000
  -18.4496  -27.1402   22.9388 C   0  0  0  0  0  0  0  0  0  0  0  0
  -19.1438  -26.5652   21.8791 C   0  0  0  0  0  0  0  0  0  0  0  0
  -20.7794  -17.1638   20.9704 C   0  0  0  0  0  0  0  0  0  0  0  0
  -22.6618  -18.4053   20.1031 C   0  0  0  0  0  0  0  0  0  0  0  0
  -18.9641  -28.2675   23.5779 C   0  0  0  0  0  0  0  0  0  0  0  0
  -20.3525  -27.1178   21.4573 C   0  0  0  0  0  0  0  0  0  0  0  0
  -23.9118  -23.6098   20.6386 C   0  0  0  0  0  0  0  0  0  0  0  0
  -20.2945  -18.3226   21.5767 C   0  0  0  0  0  0  0  0  0  0  0  0
  -22.1769  -19.5641   20.7094 C   0  0  0  0  0  0  0  0  0  0  0  0
  -23.8337  -22.8894   19.4475 C   0  0  0  0  0  0  0  0  0  0  0  0
  -20.9455  -20.1416   24.3500 C   0  0  0  0  0  0  0  0  0  0  0  0
  -20.4964  -20.0438   25.6669 C   0  0  0  0  0  0  0  0  0  0  0  0
  -25.5332  -24.3061   18.4863 C   0  0  0  0  0  0  0  0  0  0  0  0
  -18.3018  -20.7783   24.9730 C   0  0  0  0  0  0  0  0  0  0  0  0
  -21.9632  -17.2051   20.2336 C   0  0  0  0  0  0  0  0  0  0  0  0
  -22.1757  -15.5417   18.3112 C   0  0  0  0  0  0  0  0  0  0  0  0
  -20.1846  -28.8284   23.1699 C   0  0  0  0  0  0  0  0  0  0  0  0
  -24.7948  -24.6924   20.7590 C   0  0  0  0  0  0  0  0  0  0  0  0
  -20.8832  -28.2544   22.0906 C   0  0  0  0  0  0  0  0  0  0  0  0
  -25.6224  -25.0370   19.6808 C   0  0  0  0  0  0  0  0  0  0  0  0
  -29.4596  -18.1950   19.0141 C   0  0  0  0  0  0  0  0  0  0  0  0
  -28.8964  -19.4674   18.9177 C   0  0  0  0  0  0  0  0  0  0  0  0
  -29.2582  -19.8067   21.2822 C   0  0  0  0  0  0  0  0  0  0  0  0
  -29.9221  -17.7283   20.2446 C   0  0  0  0  0  0  0  0  0  0  0  0
  -20.9931  -19.5227   21.4462 C   0  0  0  0  0  0  0  0  0  0  0  0
  -24.6424  -23.2393   18.3702 C   0  0  0  0  0  0  0  0  0  0  0  0
  -20.0729  -20.5579   23.3446 C   0  0  0  0  0  0  0  0  0  0  0  0
  -19.1746  -20.3621   25.9784 C   0  0  0  0  0  0  0  0  0  0  0  0
  -18.7510  -20.8762   23.6561 C   0  0  0  0  0  0  0  0  0  0  0  0
  -29.8214  -18.5342   21.3786 C   0  0  0  0  0  0  0  0  0  0  0  0
  -28.7957  -20.2733   20.0517 C   0  0  0  0  0  0  0  0  0  0  0  0
  -22.4649  -16.0083   19.6075 C   0  0  0  0  0  0  0  0  0  0  0  0
  -22.8933  -14.3761   18.1978 C   0  0  0  0  0  0  0  0  0  0  0  0
  -21.3337  -16.1111   17.3000 C   0  0  0  0  0  0  0  0  0  0  0  0
  -24.4640  -27.8079   21.2960 C   0  0  0  0  0  0  0  0  0  0  0  0
  -27.7048  -27.7351   21.4165 C   0  0  0  0  0  0  0  0  0  0  0  0
  -30.6029  -26.1720   20.5198 C   0  0  0  0  0  0  0  0  0  0  0  0
  -27.8427  -12.3561   20.8948 C   0  0  0  0  0  0  0  0  0  0  0  0
  -20.6773  -30.0753   23.8606 C   0  0  0  0  0  0  0  0  0  0  0  0
  -24.8863  -25.4426   22.0596 C   0  0  0  0  0  0  0  0  0  0  0  0
  -26.6016  -26.1782   19.7658 C   0  0  0  0  0  0  0  0  0  0  0  0
  -22.1502  -30.3767   23.5958 C   0  0  0  0  0  0  0  0  0  0  0  0
  -24.6471  -10.7874   20.8314 C   0  0  0  0  0  0  0  0  0  0  0  0
  -22.4639  -30.2411   22.1092 C   0  0  0  0  0  0  0  0  0  0  0  0
  -23.6994  -11.9054   20.3936 C   0  0  0  0  0  0  0  0  0  0  0  0
  -25.7596  -11.3125   21.7362 C   0  0  0  0  0  0  0  0  0  0  0  0
  -25.5796  -13.5611   20.7436 C   0  0  0  0  0  0  0  0  0  0  0  0
  -22.2098  -28.8101   21.6200 C   0  0  1  0  0  0  0  0  0  0  0  0
  -25.4523  -26.8501   21.8990 C   0  0  1  0  0  0  0  0  0  0  0  0
  -24.4733  -13.0899   19.7842 C   0  0  2  0  0  0  0  0  0  0  0  0
  -29.5681  -17.3298   17.7972 C   0  0  0  0  0  0  0  0  0  0  0  0
  -29.1694  -20.6383   22.5217 C   0  0  0  0  0  0  0  0  0  0  0  0
  -33.0655  -25.6940   20.4502 C   0  0  0  0  0  0  0  0  0  0  0  0
  -27.7077  -29.9531   19.3210 C   0  0  0  0  0  0  0  0  0  0  0  0
  -30.1214  -29.4468   18.8896 C   0  0  0  0  0  0  0  0  0  0  0  0
  -29.3977  -30.2366   21.1425 C   0  0  0  0  0  0  0  0  0  0  0  0
  -30.4424  -24.3945   22.8806 C   0  0  0  0  0  0  0  0  0  0  0  0
  -28.4048  -19.9520   17.5856 C   0  0  0  0  0  0  0  0  0  0  0  0
  -30.6348  -14.1390   21.1452 C   0  0  0  0  0  0  0  0  0  0  0  0
  -24.8794  -20.4021   16.1607 C   0  0  0  0  0  0  0  0  0  0  0  0
  -30.2457  -15.5803   21.4721 C   0  0  0  0  0  0  0  0  0  0  0  0
  -29.8386  -13.5252   19.9956 C   0  0  0  0  0  0  0  0  0  0  0  0
  -26.3989  -20.4705   16.1905 C   0  0  0  0  0  0  0  0  0  0  0  0
  -24.2091  -21.1602   17.2999 C   0  0  0  0  0  0  0  0  0  1  0  0
  -28.8159  -27.8890   20.4061 C   0  0  1  0  0  0  0  0  0  0  0  0
  -31.8261  -25.7773   21.3276 C   0  0  2  0  0  0  0  0  0  0  0  0
  -28.9909  -29.3610   19.9373 C   0  0  0  0  0  0  0  0  0  0  0  0
  -23.3009  -15.2046   20.2702 N   0  0  0  0  0  0  0  0  0  0  0  0
  -23.5431  -14.2212   19.3869 N   0  0  0  0  0  0  0  0  0  0  0  0
  -26.6494  -26.8851   21.0564 N   0  0  0  0  0  0  0  0  0  0  0  0
  -26.4551  -12.4334   21.0993 N   0  0  0  0  0  0  0  0  0  0  0  0
  -23.0254  -13.4788   17.1979 N   0  0  0  0  0  0  0  0  0  0  0  0
  -20.6700  -17.3129   17.5820 N   0  0  0  0  0  0  0  0  0  0  0  0
  -30.4952  -16.4425   20.3602 N   0  0  0  0  0  0  0  0  0  0  0  0
  -23.2943  -27.9392   22.0199 N   0  0  0  0  0  0  0  0  0  0  0  0
  -30.0073  -27.3112   21.0185 N   0  0  0  0  0  0  0  0  0  0  0  0
  -28.4223  -13.4587   20.2792 N   0  0  0  0  0  0  0  0  0  0  0  0
  -31.6156  -24.4496   21.9709 N   0  3  0  0  0  0  0  0  0  0  0  0
  -26.9201  -19.9380   17.4712 N   0  3  0  0  0  0  0  0  0  0  0  0
  -21.1617  -15.5617   16.1855 O   0  0  0  0  0  0  0  0  0  0  0  0
  -24.7426  -28.3861   20.2521 O   0  0  0  0  0  0  0  0  0  0  0  0
  -27.7742  -28.3411   22.4887 O   0  0  0  0  0  0  0  0  0  0  0  0
  -30.2168  -25.5357   19.5417 O   0  0  0  0  0  0  0  0  0  0  0  0
  -28.5143  -11.3748   21.2309 O   0  0  0  0  0  0  0  0  0  0  0  0
  -20.5201  -20.6537   22.0375 O   0  0  0  0  0  0  0  0  0  0  0  0
  -24.5678  -22.5382   17.2062 O   0  0  0  0  0  0  0  0  0  1  0  0
  -18.7430  -20.2667   27.2429 F   0  0  0  0  0  0  0  0  0  0  0  0
  -17.9077  -21.2755   22.6942 F   0  0  0  0  0  0  0  0  0  0  0  0
  -30.2663  -18.0859   22.5625 F   0  0  0  0  0  0  0  0  0  0  0  0
  -28.0975  -21.8547   19.9356 Cl  0  0  0  0  0  0  0  0  0  0  0  0
  1  2  1  0  0  0  0
  1  5  2  0  0  0  0
  2  6  2  0  0  0  0
  3  8  2  0  0  0  0
  3 15  1  0  0  0  0
  4  9  1  0  0  0  0
  4 15  2  0  0  0  0
  5 17  1  0  0  0  0
  6 19  1  0  0  0  0
  7 10  2  0  0  0  0
  7 18  1  0  0  0  0
  8 25  1  0  0  0  0
  9 25  2  0  0  0  0
 10 26  1  0  0  0  0
 11 12  2  0  0  0  0
 11 27  1  0  0  0  0
 12 28  1  0  0  0  0
 13 20  1  0  0  0  0
 13 26  2  0  0  0  0
 14 28  2  0  0  0  0
 14 29  1  0  0  0  0
 15 32  1  0  0  0  0
 16 32  1  0  0  0  0
 16 33  2  0  0  0  0
 16 34  1  0  0  0  0
 17 19  2  0  0  0  0
 17 39  1  0  0  0  0
 18 20  2  0  0  0  0
 18 40  1  0  0  0  0
 19 48  1  0  0  0  0
 20 41  1  0  0  0  0
 21 22  1  0  0  0  0
 21 24  2  0  0  0  0
 21 51  1  0  0  0  0
 22 31  2  0  0  0  0
 22 58  1  0  0  0  0
 23 30  2  0  0  0  0
 23 31  1  0  0  0  0
 23 52  1  0  0  0  0
 24 30  1  0  0  0  0
 24 74  1  0  0  0  0
 25 85  1  0  0  0  0
 26 86  1  0  0  0  0
 27 29  2  0  0  0  0
 27 85  1  0  0  0  0
 28 87  1  0  0  0  0
 29 88  1  0  0  0  0
 30 89  1  0  0  0  0
 31 90  1  0  0  0  0
 32 68  2  0  0  0  0
 33 69  1  0  0  0  0
 33 72  1  0  0  0  0
 34 73  1  0  0  0  0
 34 80  2  0  0  0  0
 35 49  1  0  0  0  0
 35 75  1  0  0  0  0
 35 81  2  0  0  0  0
 36 65  1  0  0  0  0
 36 70  1  0  0  0  0
 36 82  2  0  0  0  0
 37 66  1  0  0  0  0
 37 76  1  0  0  0  0
 37 83  2  0  0  0  0
 38 71  1  0  0  0  0
 38 77  1  0  0  0  0
 38 84  2  0  0  0  0
 39 42  1  0  0  0  0
 40 49  1  0  0  0  0
 41 70  1  0  0  0  0
 42 44  1  0  0  0  0
 43 45  1  0  0  0  0
 43 46  1  0  0  0  0
 44 48  1  0  0  0  0
 45 50  1  0  0  0  0
 46 71  1  0  0  0  0
 47 50  1  0  0  0  0
 47 71  1  0  0  0  0
 48 75  1  0  0  0  0
 49 70  1  0  0  0  0
 50 69  1  0  0  0  0
 53 66  1  0  0  0  0
 54 67  1  0  0  0  0
 55 67  1  0  0  0  0
 56 67  1  0  0  0  0
 57 78  1  0  0  0  0
 58 79  1  0  0  0  0
 59 61  1  0  0  0  0
 59 62  1  0  0  0  0
 60 63  1  0  0  0  0
 60 64  1  0  0  0  0
 61 74  1  0  0  0  0
 62 77  1  0  0  0  0
 63 79  1  0  0  0  0
 64 86  1  0  0  0  0
 65 67  1  0  0  0  0
 65 76  1  0  0  0  0
 66 78  1  0  0  0  0
 68 69  1  0  0  0  0
M  CHG  2  78   1  79   1
M  ISO  4  38 100  64 101  77 100  86 101
M  END
> <Batch ID>
0021

> <Smiles>
CNC(C)C(=O)NC(C(=O)N1Cc2cc([101O:1][101CH2:1]CCNCc3c(C)c(NCCC[100NH:0][100C:0](=O)N4CCCC(n5nc(-c6ccc(Oc7ccc(F)cc7F)cc6)c(C(N)=O)c5N)C4)c(F)c(C)c3Cl)ccc2CC1C(=O)NC1CCCc2ccccc21)C(C)(C)C

> <Shape>
0.236

> <Color>
0.049

> <Negative vol penalty>
0.000

$$$$

  -OEChem-04052316123D

 90 98  0     1  0  0  0  0  0999 V2000
  -22.2885   -8.1354   20.7776 C   0  0  0  0  0  0  0  0  0  0  0  0
  -22.0029   -9.4533   20.4357 C   0  0  0  0  0  0  0  0  0  0  0  0
  -30.0502  -26.7893   19.8210 C   0  0  0  0  0  0  0  0  0  0  0  0
  -29.0258  -25.4860   21.5786 C   0  0  0  0  0  0  0  0  0  0  0  0
  -23.3727   -7.8507   21.6066 C   0  0  0  0  0  0  0  0  0  0  0  0
  -22.8009  -10.4875   20.9236 C   0  0  0  0  0  0  0  0  0  0  0  0
  -24.2662  -15.6842   18.0334 C   0  0  0  0  0  0  0  0  0  0  0  0
  -31.2935  -26.2444   20.1416 C   0  0  0  0  0  0  0  0  0  0  0  0
  -30.2692  -24.9411   21.8992 C   0  0  0  0  0  0  0  0  0  0  0  0
  -23.7476  -16.9763   18.1061 C   0  0  0  0  0  0  0  0  0  0  0  0
  -33.1151  -22.9350   22.9453 C   0  0  0  0  0  0  0  0  0  0  0  0
  -33.1837  -21.5595   23.1665 C   0  0  0  0  0  0  0  0  0  0  0  0
  -25.4774  -17.5757   19.6770 C   0  0  0  0  0  0  0  0  0  0  0  0
  -32.3880  -21.1588   20.9207 C   0  0  0  0  0  0  0  0  0  0  0  0
  -28.9163  -26.4101   20.5396 C   0  0  0  0  0  0  0  0  0  0  0  0
  -26.6938  -26.4683   19.2887 C   0  0  0  0  0  0  0  0  0  0  0  0
  -24.1902   -8.8812   22.0971 C   0  0  0  0  0  0  0  0  0  0  0  0
  -25.3897  -15.3244   18.7915 C   0  0  0  0  0  0  0  0  0  0  0  0
  -23.8963  -10.2165   21.7611 C   0  0  0  0  0  0  0  0  0  0  0  0
  -26.0099  -16.2791   19.6102 C   0  0  0  0  0  0  0  0  0  0  0  0
  -20.8558  -23.6018   19.5219 C   0  0  0  0  0  0  0  0  0  0  0  0
  -22.0942  -23.0685   19.8790 C   0  0  0  0  0  0  0  0  0  0  0  0
  -20.3625  -24.7252   20.1857 C   0  0  0  0  0  0  0  0  0  0  0  0
  -22.8393  -23.6585   20.9000 C   0  0  0  0  0  0  0  0  0  0  0  0
  -21.1077  -25.3151   21.2066 C   0  0  0  0  0  0  0  0  0  0  0  0
  -31.4030  -25.3203   21.1807 C   0  0  0  0  0  0  0  0  0  0  0  0
  -24.3514  -17.9214   18.9302 C   0  0  0  0  0  0  0  0  0  0  0  0
  -32.6829  -23.4224   21.7119 C   0  0  0  0  0  0  0  0  0  0  0  0
  -32.8202  -20.6714   22.1541 C   0  0  0  0  0  0  0  0  0  0  0  0
  -32.3194  -22.5343   20.6996 C   0  0  0  0  0  0  0  0  0  0  0  0
  -22.3461  -24.7818   21.5638 C   0  0  0  0  0  0  0  0  0  0  0  0
  -27.6317  -26.9730   20.2092 C   0  0  0  0  0  0  0  0  0  0  0  0
  -25.6488  -27.3581   19.3406 C   0  0  0  0  0  0  0  0  0  0  0  0
  -26.7611  -25.2997   18.4607 C   0  0  0  0  0  0  0  0  0  0  0  0
  -25.9571  -13.2105   21.0965 C   0  0  0  0  0  0  0  0  0  0  0  0
  -29.0233  -14.1966   20.7107 C   0  0  0  0  0  0  0  0  0  0  0  0
  -31.1733  -16.6404   19.6849 C   0  0  0  0  0  0  0  0  0  0  0  0
  -23.7191  -31.1395   23.5630 C   0  0  0  0  0  0  0  0  0  0  0  0
  -25.3228   -8.5284   23.0285 C   0  0  0  0  0  0  0  0  0  0  0  0
  -25.9529  -13.9341   18.6815 C   0  0  0  0  0  0  0  0  0  0  0  0
  -27.2303  -15.9491   20.4288 C   0  0  0  0  0  0  0  0  0  0  0  0
  -26.3429   -9.6510   23.1996 C   0  0  0  0  0  0  0  0  0  0  0  0
  -24.6893  -31.9589   20.2367 C   0  0  0  0  0  0  0  0  0  0  0  0
  -25.6370  -10.9811   23.4437 C   0  0  0  0  0  0  0  0  0  0  0  0
  -25.4688  -30.7285   19.7694 C   0  0  0  0  0  0  0  0  0  0  0  0
  -24.9344  -32.2545   21.7147 C   0  0  0  0  0  0  0  0  0  0  0  0
  -25.4659  -29.8887   22.1556 C   0  0  0  0  0  0  0  0  0  0  0  0
  -24.7533  -11.3638   22.2503 C   0  0  1  0  0  0  0  0  0  0  0  0
  -26.7929  -13.5323   19.8900 C   0  0  1  0  0  0  0  0  0  0  0  0
  -25.2070  -29.5177   20.6853 C   0  0  2  0  0  0  0  0  0  0  0  0
  -20.0569  -22.9686   18.4261 C   0  0  0  0  0  0  0  0  0  0  0  0
  -19.0330  -25.2935   19.7975 C   0  0  0  0  0  0  0  0  0  0  0  0
  -24.1661  -23.0699   21.2693 C   0  0  0  0  0  0  0  0  0  0  0  0
  -33.6207  -17.1728   19.5295 C   0  0  0  0  0  0  0  0  0  0  0  0
  -29.0910  -14.7498   23.7105 C   0  0  0  0  0  0  0  0  0  0  0  0
  -31.1466  -16.1299   23.3390 C   0  0  0  0  0  0  0  0  0  0  0  0
  -31.1665  -13.6950   22.7971 C   0  0  0  0  0  0  0  0  0  0  0  0
  -31.0527  -16.8793   16.7375 C   0  0  0  0  0  0  0  0  0  0  0  0
  -22.6251  -21.8537   19.1608 C   0  0  0  0  0  0  0  0  0  0  0  0
  -21.9606  -20.5442   19.5914 C   0  0  0  0  0  0  0  0  0  0  0  0
  -21.1830  -28.1016   24.2083 C   0  0  0  0  0  0  0  0  0  0  0  0
  -19.7733  -27.7043   23.7676 C   0  0  0  0  0  0  0  0  0  0  0  0
  -21.1829  -29.4642   24.9075 C   0  0  0  0  0  0  0  0  0  0  0  0
  -19.7760  -26.3657   23.0366 C   0  0  0  0  0  0  0  0  0  0  0  0
  -22.5746  -29.8828   25.3713 C   0  0  0  0  0  0  0  0  0  0  0  0
  -22.4425  -19.3339   18.8002 C   0  0  0  0  0  0  0  0  0  1  0  0
  -29.8798  -15.2851   21.3111 C   0  0  1  0  0  0  0  0  0  0  0  0
  -32.4139  -16.5890   18.8115 C   0  0  2  0  0  0  0  0  0  0  0  0
  -30.2968  -14.9710   22.7756 C   0  0  0  0  0  0  0  0  0  0  0  0
  -27.2191  -28.0963   20.8024 N   0  0  0  0  0  0  0  0  0  0  0  0
  -26.0104  -28.3050   20.2532 N   0  0  0  0  0  0  0  0  0  0  0  0
  -27.7396  -14.5745   20.2920 N   0  0  0  0  0  0  0  0  0  0  0  0
  -24.6667  -31.0664   22.5287 N   0  0  0  0  0  0  0  0  0  0  0  0
  -24.4651  -27.4152   18.6940 N   0  0  0  0  0  0  0  0  0  0  0  0
  -27.9070  -24.4959   18.5315 N   0  0  0  0  0  0  0  0  0  0  0  0
  -20.5945  -26.4552   21.8707 N   0  0  0  0  0  0  0  0  0  0  0  0
  -25.5616  -11.8886   21.1706 N   0  0  0  0  0  0  0  0  0  0  0  0
  -31.0017  -15.4724   20.3975 N   0  0  0  0  0  0  0  0  0  0  0  0
  -23.5212  -29.9667   24.2815 N   0  0  0  0  0  0  0  0  0  0  0  0
  -32.1954  -17.3608   17.5555 N   0  3  0  0  0  0  0  0  0  0  0  0
  -25.8396  -24.9868   17.6692 O   0  0  0  0  0  0  0  0  0  0  0  0
  -25.6921  -14.0957   21.9015 O   0  0  0  0  0  0  0  0  0  0  0  0
  -29.4790  -13.0548   20.6100 O   0  0  0  0  0  0  0  0  0  0  0  0
  -30.4329  -17.6201   19.7333 O   0  0  0  0  0  0  0  0  0  0  0  0
  -23.0917  -32.1718   23.8231 O   0  0  0  0  0  0  0  0  0  0  0  0
  -32.6161  -24.7883   21.4937 O   0  0  0  0  0  0  0  0  0  0  0  0
  -23.8469  -19.1831   19.0035 O   0  0  0  0  0  0  0  0  0  1  0  0
  -32.8875  -19.3505   22.3661 F   0  0  0  0  0  0  0  0  0  0  0  0
  -31.9045  -22.9966   19.5122 F   0  0  0  0  0  0  0  0  0  0  0  0
  -23.2764  -25.5124   22.8328 Cl  0  0  0  0  0  0  0  0  0  0  0  0
  1  2  1  0  0  0  0
  1  5  2  0  0  0  0
  2  6  2  0  0  0  0
  3  8  2  0  0  0  0
  3 15  1  0  0  0  0
  4  9  1  0  0  0  0
  4 15  2  0  0  0  0
  5 17  1  0  0  0  0
  6 19  1  0  0  0  0
  7 10  2  0  0  0  0
  7 18  1  0  0  0  0
  8 26  1  0  0  0  0
  9 26  2  0  0  0  0
 10 27  1  0  0  0  0
 11 12  2  0  0  0  0
 11 28  1  0  0  0  0
 12 29  1  0  0  0  0
 13 20  1  0  0  0  0
 13 27  2  0  0  0  0
 14 29  2  0  0  0  0
 14 30  1  0  0  0  0
 15 32  1  0  0  0  0
 16 32  1  0  0  0  0
 16 33  2  0  0  0  0
 16 34  1  0  0  0  0
 17 19  2  0  0  0  0
 17 39  1  0  0  0  0
 18 20  2  0  0  0  0
 18 40  1  0  0  0  0
 19 48  1  0  0  0  0
 20 41  1  0  0  0  0
 21 22  1  0  0  0  0
 21 23  2  0  0  0  0
 21 51  1  0  0  0  0
 22 24  2  0  0  0  0
 22 59  1  0  0  0  0
 23 25  1  0  0  0  0
 23 52  1  0  0  0  0
 24 31  1  0  0  0  0
 24 53  1  0  0  0  0
 25 31  2  0  0  0  0
 25 76  1  0  0  0  0
 26 86  1  0  0  0  0
 27 87  1  0  0  0  0
 28 30  2  0  0  0  0
 28 86  1  0  0  0  0
 29 88  1  0  0  0  0
 30 89  1  0  0  0  0
 31 90  1  0  0  0  0
 32 70  2  0  0  0  0
 33 71  1  0  0  0  0
 33 74  1  0  0  0  0
 34 75  1  0  0  0  0
 34 81  2  0  0  0  0
 35 49  1  0  0  0  0
 35 77  1  0  0  0  0
 35 82  2  0  0  0  0
 36 67  1  0  0  0  0
 36 72  1  0  0  0  0
 36 83  2  0  0  0  0
 37 68  1  0  0  0  0
 37 78  1  0  0  0  0
 37 84  2  0  0  0  0
 38 73  1  0  0  0  0
 38 79  1  0  0  0  0
 38 85  2  0  0  0  0
 39 42  1  0  0  0  0
 40 49  1  0  0  0  0
 41 72  1  0  0  0  0
 42 44  1  0  0  0  0
 43 45  1  0  0  0  0
 43 46  1  0  0  0  0
 44 48  1  0  0  0  0
 45 50  1  0  0  0  0
 46 73  1  0  0  0  0
 47 50  1  0  0  0  0
 47 73  1  0  0  0  0
 48 77  1  0  0  0  0
 49 72  1  0  0  0  0
 50 71  1  0  0  0  0
 54 68  1  0  0  0  0
 55 69  1  0  0  0  0
 56 69  1  0  0  0  0
 57 69  1  0  0  0  0
 58 80  1  0  0  0  0
 59 60  1  0  0  0  0
 60 66  1  0  0  0  0
 61 62  1  0  0  0  0
 61 63  1  0  0  0  0
 62 64  1  0  0  0  0
 63 65  1  0  0  0  0
 64 76  1  0  0  0  0
 65 79  1  0  0  0  0
 66 87  1  0  0  0  0
 67 69  1  0  0  0  0
 67 78  1  0  0  0  0
 68 80  1  0  0  0  0
 70 71  1  0  0  0  0
M  CHG  1  80   1
M  ISO  4  38 100  66 101  79 100  87 101
M  END
> <Batch ID>
0021

> <Smiles>
CNC(C)C(=O)NC(C(=O)N1Cc2cc([101O:1][101CH2:1]CCc3c(C)c(C)c(NCCCCC[100NH:0][100C:0](=O)N4CCCC(n5nc(-c6ccc(Oc7ccc(F)cc7F)cc6)c(C(N)=O)c5N)C4)c(Cl)c3C)ccc2CC1C(=O)NC1CCCc2ccccc21)C(C)(C)C

> <Shape>
0.240

> <Color>
0.071

> <Negative vol penalty>
0.000

$$$$

  -OEChem-04052316123D

 83 91  0     1  0  0  0  0  0999 V2000
  -31.5454  -33.5952   22.3647 C   0  0  0  0  0  0  0  0  0  0  0  0
  -31.1919  -32.6231   21.4344 C   0  0  0  0  0  0  0  0  0  0  0  0
  -23.8660   -9.9412   22.1316 C   0  0  0  0  0  0  0  0  0  0  0  0
  -22.3944  -10.4765   20.2917 C   0  0  0  0  0  0  0  0  0  0  0  0
  -30.9517  -33.5997   23.6263 C   0  0  0  0  0  0  0  0  0  0  0  0
  -30.2453  -31.6543   21.7655 C   0  0  0  0  0  0  0  0  0  0  0  0
  -26.1234  -29.1039   18.0224 C   0  0  0  0  0  0  0  0  0  0  0  0
  -23.3472   -8.6470   22.1701 C   0  0  0  0  0  0  0  0  0  0  0  0
  -21.8757   -9.1822   20.3301 C   0  0  0  0  0  0  0  0  0  0  0  0
  -26.1074  -27.8940   17.3297 C   0  0  0  0  0  0  0  0  0  0  0  0
  -22.1549   -5.3102   22.9870 C   0  0  0  0  0  0  0  0  0  0  0  0
  -21.8343   -4.7751   24.2346 C   0  0  0  0  0  0  0  0  0  0  0  0
  -24.8334  -26.8941   19.1175 C   0  0  0  0  0  0  0  0  0  0  0  0
  -22.4857  -21.0741   19.5039 C   0  0  0  0  0  0  0  0  0  0  0  0
  -20.2583   -6.5696   24.5993 C   0  0  0  0  0  0  0  0  0  0  0  0
  -23.3895  -10.8560   21.1925 C   0  0  0  0  0  0  0  0  0  0  0  0
  -25.0266  -12.6460   20.4028 C   0  0  0  0  0  0  0  0  0  0  0  0
  -29.9903  -32.6362   23.9696 C   0  0  0  0  0  0  0  0  0  0  0  0
  -25.5028  -29.2151   19.2750 C   0  0  0  0  0  0  0  0  0  0  0  0
  -29.6392  -31.6451   23.0333 C   0  0  0  0  0  0  0  0  0  0  0  0
  -24.8407  -28.1072   19.8229 C   0  0  0  0  0  0  0  0  0  0  0  0
  -22.3509  -22.0547   18.5212 C   0  0  0  0  0  0  0  0  0  0  0  0
  -23.8538  -20.8227   17.0857 C   0  0  0  0  0  0  0  0  0  0  0  0
  -23.0349  -21.9290   17.3120 C   0  0  0  0  0  0  0  0  0  0  0  0
  -23.9886  -19.8421   18.0685 C   0  0  0  0  0  0  0  0  0  0  0  0
  -23.3047  -19.9678   19.2777 C   0  0  0  0  0  0  0  0  0  0  0  0
  -22.3521   -8.2675   21.2693 C   0  0  0  0  0  0  0  0  0  0  0  0
  -25.4648  -26.7882   17.8785 C   0  0  0  0  0  0  0  0  0  0  0  0
  -21.5272   -6.4750   22.5455 C   0  0  0  0  0  0  0  0  0  0  0  0
  -20.8860   -5.4047   25.0408 C   0  0  0  0  0  0  0  0  0  0  0  0
  -20.5789   -7.1047   23.3517 C   0  0  0  0  0  0  0  0  0  0  0  0
  -23.9246  -12.1933   21.1527 C   0  0  0  0  0  0  0  0  0  0  0  0
  -25.1261  -13.9809   20.7104 C   0  0  0  0  0  0  0  0  0  0  0  0
  -25.8836  -11.9244   19.5080 C   0  0  0  0  0  0  0  0  0  0  0  0
  -26.4977  -29.8780   22.2202 C   0  0  0  0  0  0  0  0  0  0  0  0
  -23.3234  -29.8233   22.8858 C   0  0  0  0  0  0  0  0  0  0  0  0
  -20.2055  -28.7194   22.0450 C   0  0  0  0  0  0  0  0  0  0  0  0
  -22.8069  -18.9747   21.5387 C   0  0  0  0  0  0  0  0  0  0  0  0
  -29.4108  -32.6531   25.3620 C   0  0  0  0  0  0  0  0  0  0  0  0
  -25.5060  -30.5345   19.9973 C   0  0  0  0  0  0  0  0  0  0  0  0
  -24.1421  -28.1800   21.1552 C   0  0  0  0  0  0  0  0  0  0  0  0
  -28.1416  -31.8168   25.5036 C   0  0  0  0  0  0  0  0  0  0  0  0
  -22.8214  -16.7167   24.2916 C   0  0  0  0  0  0  0  0  0  0  0  0
  -28.3261  -30.4514   24.8489 C   0  0  0  0  0  0  0  0  0  0  0  0
  -23.2004  -15.3758   23.6587 C   0  0  0  0  0  0  0  0  0  0  0  0
  -21.9271  -17.5456   23.3714 C   0  0  0  0  0  0  0  0  0  0  0  0
  -22.8296  -16.4075   21.3816 C   0  0  0  0  0  0  0  0  0  0  0  0
  -28.5983  -30.5922   23.3464 C   0  0  1  0  0  0  0  0  0  0  0  0
  -25.2840  -30.3935   21.5000 C   0  0  1  0  0  0  0  0  0  0  0  0
  -23.7832  -15.5649   22.2444 C   0  0  2  0  0  0  0  0  0  0  0  0
  -21.4707  -23.2313   18.7900 C   0  0  0  0  0  0  0  0  0  0  0  0
  -24.5874  -20.6885   15.7884 C   0  0  0  0  0  0  0  0  0  0  0  0
  -24.8694  -18.6567   17.8240 C   0  0  0  0  0  0  0  0  0  0  0  0
  -17.8141  -28.8083   22.8004 C   0  0  0  0  0  0  0  0  0  0  0  0
  -23.9480  -27.8099   25.0917 C   0  0  0  0  0  0  0  0  0  0  0  0
  -21.5126  -27.2332   25.1589 C   0  0  0  0  0  0  0  0  0  0  0  0
  -22.2602  -29.5477   25.7128 C   0  0  0  0  0  0  0  0  0  0  0  0
  -19.3415  -30.0358   19.5391 C   0  0  0  0  0  0  0  0  0  0  0  0
  -22.8878  -22.9915   16.2523 C   0  0  0  0  0  0  0  0  0  0  0  0
  -24.0912  -23.9313   16.1511 C   0  0  0  0  0  0  0  0  0  0  0  0
  -24.3211  -24.7558   17.4124 C   0  0  0  0  0  0  0  0  0  1  0  0
  -22.3384  -28.7613   23.3112 C   0  0  1  0  0  0  0  0  0  0  0  0
  -18.8787  -29.4466   21.9218 C   0  0  2  0  0  0  0  0  0  0  0  0
  -22.5295  -28.3358   24.7944 C   0  0  0  0  0  0  0  0  0  0  0  0
  -23.3642  -13.1619   21.8820 N   0  0  0  0  0  0  0  0  0  0  0  0
  -24.1172  -14.2365   21.5918 N   0  0  0  0  0  0  0  0  0  0  0  0
  -24.1784  -29.4902   21.8257 N   0  0  0  0  0  0  0  0  0  0  0  0
  -22.5453  -17.6864   22.0512 N   0  0  0  0  0  0  0  0  0  0  0  0
  -25.9774  -14.9491   20.3102 N   0  0  0  0  0  0  0  0  0  0  0  0
  -25.6407  -10.5589   19.3060 N   0  0  0  0  0  0  0  0  0  0  0  0
  -23.4265  -18.9833   20.2894 N   0  0  0  0  0  0  0  0  0  0  0  0
  -27.3691  -30.8675   22.6338 N   0  0  0  0  0  0  0  0  0  0  0  0
  -21.0127  -29.2888   23.0070 N   0  0  0  0  0  0  0  0  0  0  0  0
  -18.4018  -29.4187   20.5102 N   0  3  0  0  0  0  0  0  0  0  0  0
  -26.8465  -12.4705   18.9182 O   0  0  0  0  0  0  0  0  0  0  0  0
  -26.6329  -28.6718   22.3896 O   0  0  0  0  0  0  0  0  0  0  0  0
  -23.3290  -30.9109   23.4677 O   0  0  0  0  0  0  0  0  0  0  0  0
  -20.4953  -27.7415   21.3591 O   0  0  0  0  0  0  0  0  0  0  0  0
  -22.5284  -19.9948   22.1741 O   0  0  0  0  0  0  0  0  0  0  0  0
  -21.8459   -7.0046   21.3063 O   0  0  0  0  0  0  0  0  0  0  0  0
  -25.4483  -25.6059   17.2048 O   0  0  0  0  0  0  0  0  0  1  0  0
  -20.5772   -4.8899   26.2381 F   0  0  0  0  0  0  0  0  0  0  0  0
  -19.9716   -8.2233   22.9325 F   0  0  0  0  0  0  0  0  0  0  0  0
  1  2  1  0  0  0  0
  1  5  2  0  0  0  0
  2  6  2  0  0  0  0
  3  8  2  0  0  0  0
  3 16  1  0  0  0  0
  4  9  1  0  0  0  0
  4 16  2  0  0  0  0
  5 18  1  0  0  0  0
  6 20  1  0  0  0  0
  7 10  2  0  0  0  0
  7 19  1  0  0  0  0
  8 27  1  0  0  0  0
  9 27  2  0  0  0  0
 10 28  1  0  0  0  0
 11 12  2  0  0  0  0
 11 29  1  0  0  0  0
 12 30  1  0  0  0  0
 13 21  1  0  0  0  0
 13 28  2  0  0  0  0
 14 22  2  0  0  0  0
 14 26  1  0  0  0  0
 15 30  2  0  0  0  0
 15 31  1  0  0  0  0
 16 32  1  0  0  0  0
 17 32  1  0  0  0  0
 17 33  2  0  0  0  0
 17 34  1  0  0  0  0
 18 20  2  0  0  0  0
 18 39  1  0  0  0  0
 19 21  2  0  0  0  0
 19 40  1  0  0  0  0
 20 48  1  0  0  0  0
 21 41  1  0  0  0  0
 22 24  1  0  0  0  0
 22 51  1  0  0  0  0
 23 24  2  0  0  0  0
 23 25  1  0  0  0  0
 23 52  1  0  0  0  0
 24 59  1  0  0  0  0
 25 26  2  0  0  0  0
 25 53  1  0  0  0  0
 26 71  1  0  0  0  0
 27 80  1  0  0  0  0
 28 81  1  0  0  0  0
 29 31  2  0  0  0  0
 29 80  1  0  0  0  0
 30 82  1  0  0  0  0
 31 83  1  0  0  0  0
 32 65  2  0  0  0  0
 33 66  1  0  0  0  0
 33 69  1  0  0  0  0
 34 70  1  0  0  0  0
 34 75  2  0  0  0  0
 35 49  1  0  0  0  0
 35 72  1  0  0  0  0
 35 76  2  0  0  0  0
 36 62  1  0  0  0  0
 36 67  1  0  0  0  0
 36 77  2  0  0  0  0
 37 63  1  0  0  0  0
 37 73  1  0  0  0  0
 37 78  2  0  0  0  0
 38 68  1  0  0  0  0
 38 71  1  0  0  0  0
 38 79  2  0  0  0  0
 39 42  1  0  0  0  0
 40 49  1  0  0  0  0
 41 67  1  0  0  0  0
 42 44  1  0  0  0  0
 43 45  1  0  0  0  0
 43 46  1  0  0  0  0
 44 48  1  0  0  0  0
 45 50  1  0  0  0  0
 46 68  1  0  0  0  0
 47 50  1  0  0  0  0
 47 68  1  0  0  0  0
 48 72  1  0  0  0  0
 49 67  1  0  0  0  0
 50 66  1  0  0  0  0
 54 63  1  0  0  0  0
 55 64  1  0  0  0  0
 56 64  1  0  0  0  0
 57 64  1  0  0  0  0
 58 74  1  0  0  0  0
 59 60  1  0  0  0  0
 60 61  1  0  0  0  0
 61 81  1  0  0  0  0
 62 64  1  0  0  0  0
 62 73  1  0  0  0  0
 63 74  1  0  0  0  0
 65 66  1  0  0  0  0
M  CHG  1  74   1
M  ISO  4  38 100  61 101  71 100  81 101
M  END
> <Batch ID>
0021

> <Smiles>
CNC(C)C(=O)NC(C(=O)N1Cc2cc([101O:1][101CH2:1]CCc3c(C)cc([100NH:0][100C:0](=O)N4CCCC(n5nc(-c6ccc(Oc7ccc(F)cc7F)cc6)c(C(N)=O)c5N)C4)c(C)c3C)ccc2CC1C(=O)NC1CCCc2ccccc21)C(C)(C)C

> <Shape>
0.221

> <Color>
0.106

> <Negative vol penalty>
0.000

$$$$

  -OEChem-04052316123D

 86 94  0     1  0  0  0  0  0999 V2000
  -28.4473  -32.8578   28.1616 C   0  0  0  0  0  0  0  0  0  0  0  0
  -28.3101  -31.9518   27.1149 C   0  0  0  0  0  0  0  0  0  0  0  0
  -22.8874  -10.1755   20.0152 C   0  0  0  0  0  0  0  0  0  0  0  0
  -23.7766   -9.9952   22.2544 C   0  0  0  0  0  0  0  0  0  0  0  0
  -27.3745  -33.6720   28.5224 C   0  0  0  0  0  0  0  0  0  0  0  0
  -27.0996  -31.8586   26.4290 C   0  0  0  0  0  0  0  0  0  0  0  0
  -27.7225  -31.6545   21.4075 C   0  0  0  0  0  0  0  0  0  0  0  0
  -22.0683   -9.0715   20.2515 C   0  0  0  0  0  0  0  0  0  0  0  0
  -22.9574   -8.8912   22.4908 C   0  0  0  0  0  0  0  0  0  0  0  0
  -28.1163  -30.4325   20.8639 C   0  0  0  0  0  0  0  0  0  0  0  0
  -19.7155   -8.3145   23.2508 C   0  0  0  0  0  0  0  0  0  0  0  0
  -19.0267   -8.2682   24.4628 C   0  0  0  0  0  0  0  0  0  0  0  0
  -25.8326  -29.9867   20.2272 C   0  0  0  0  0  0  0  0  0  0  0  0
  -30.0890  -17.5205   22.4464 C   0  0  0  0  0  0  0  0  0  0  0  0
  -31.5934  -17.3050   20.5683 C   0  0  0  0  0  0  0  0  0  0  0  0
  -20.1476   -6.2019   25.0208 C   0  0  0  0  0  0  0  0  0  0  0  0
  -23.7416  -10.6373   21.0166 C   0  0  0  0  0  0  0  0  0  0  0  0
  -24.2793  -13.1310   21.0048 C   0  0  0  0  0  0  0  0  0  0  0  0
  -26.1533  -33.5955   27.8344 C   0  0  0  0  0  0  0  0  0  0  0  0
  -26.3768  -32.0475   21.3747 C   0  0  0  0  0  0  0  0  0  0  0  0
  -26.0090  -32.6715   26.7818 C   0  0  0  0  0  0  0  0  0  0  0  0
  -25.4247  -31.2153   20.7688 C   0  0  0  0  0  0  0  0  0  0  0  0
  -30.3680  -18.8855   22.5133 C   0  0  0  0  0  0  0  0  0  0  0  0
  -31.8724  -18.6700   20.6352 C   0  0  0  0  0  0  0  0  0  0  0  0
  -31.2597  -19.4603   21.6077 C   0  0  0  0  0  0  0  0  0  0  0  0
  -30.7017  -16.7302   21.4739 C   0  0  0  0  0  0  0  0  0  0  0  0
  -22.1033   -8.4294   21.4893 C   0  0  0  0  0  0  0  0  0  0  0  0
  -27.1708  -29.5971   20.2762 C   0  0  0  0  0  0  0  0  0  0  0  0
  -20.6203   -7.3045   22.9237 C   0  0  0  0  0  0  0  0  0  0  0  0
  -19.2428   -7.2119   25.3478 C   0  0  0  0  0  0  0  0  0  0  0  0
  -20.8364   -6.2482   23.8088 C   0  0  0  0  0  0  0  0  0  0  0  0
  -24.5885  -11.7773   20.7729 C   0  0  0  0  0  0  0  0  0  0  0  0
  -25.4058  -13.8124   20.6133 C   0  0  0  0  0  0  0  0  0  0  0  0
  -23.0811  -13.7198   21.5275 C   0  0  0  0  0  0  0  0  0  0  0  0
  -24.1759  -32.6989   23.5737 C   0  0  0  0  0  0  0  0  0  0  0  0
  -22.4118  -33.5607   20.9916 C   0  0  0  0  0  0  0  0  0  0  0  0
  -21.8409  -33.2570   17.6407 C   0  0  0  0  0  0  0  0  0  0  0  0
  -30.9396  -14.4183   20.5018 C   0  0  0  0  0  0  0  0  0  0  0  0
  -25.0070  -34.4627   28.2913 C   0  0  0  0  0  0  0  0  0  0  0  0
  -25.9724  -33.3807   21.9417 C   0  0  0  0  0  0  0  0  0  0  0  0
  -23.9707  -31.6001   20.6898 C   0  0  0  0  0  0  0  0  0  0  0  0
  -23.8770  -34.5664   27.2703 C   0  0  0  0  0  0  0  0  0  0  0  0
  -29.4985  -12.2346   18.0870 C   0  0  0  0  0  0  0  0  0  0  0  0
  -23.5238  -33.1871   26.7231 C   0  0  0  0  0  0  0  0  0  0  0  0
  -28.0672  -12.0323   18.5895 C   0  0  0  0  0  0  0  0  0  0  0  0
  -30.4970  -12.3240   19.2397 C   0  0  0  0  0  0  0  0  0  0  0  0
  -28.7379  -13.1163   20.7718 C   0  0  0  0  0  0  0  0  0  0  0  0
  -24.7197  -32.5585   25.9977 C   0  0  1  0  0  0  0  0  0  0  0  0
  -24.4939  -33.4492   22.3114 C   0  0  1  0  0  0  0  0  0  0  0  0
  -27.6879  -13.0853   19.6492 C   0  0  2  0  0  0  0  0  0  0  0  0
  -29.6992  -19.7095   23.5644 C   0  0  0  0  0  0  0  0  0  0  0  0
  -32.8309  -19.2608   19.6536 C   0  0  0  0  0  0  0  0  0  0  0  0
  -20.3050  -34.0553   15.8238 C   0  0  0  0  0  0  0  0  0  0  0  0
  -20.2375  -31.6748   22.0043 C   0  0  0  0  0  0  0  0  0  0  0  0
  -19.1858  -31.7808   19.7347 C   0  0  0  0  0  0  0  0  0  0  0  0
  -19.3952  -33.8525   21.1084 C   0  0  0  0  0  0  0  0  0  0  0  0
  -24.0685  -34.5102   16.1486 C   0  0  0  0  0  0  0  0  0  0  0  0
  -31.5593  -20.9286   21.6794 C   0  0  0  0  0  0  0  0  0  0  0  0
  -29.6910  -25.4942   20.8036 C   0  0  0  0  0  0  0  0  0  0  0  0
  -29.5108  -23.9817   20.6674 C   0  0  0  0  0  0  0  0  0  0  0  0
  -28.5254  -26.2522   20.1723 C   0  0  0  0  0  0  0  0  0  0  0  0
  -30.6930  -23.2348   21.2669 C   0  0  0  0  0  0  0  0  0  0  0  0
  -28.6765  -27.7574   20.3415 C   0  0  0  0  0  0  0  0  0  1  0  0
  -21.4637  -32.8473   20.0582 C   0  0  1  0  0  0  0  0  0  0  0  0
  -21.6139  -34.2978   16.5592 C   0  0  2  0  0  0  0  0  0  0  0  0
  -20.0976  -32.5304   20.7294 C   0  0  0  0  0  0  0  0  0  0  0  0
  -25.8151  -11.6069   20.2726 N   0  0  0  0  0  0  0  0  0  0  0  0
  -26.2867  -12.8625   20.1869 N   0  0  0  0  0  0  0  0  0  0  0  0
  -23.6239  -32.9107   21.2639 N   0  0  0  0  0  0  0  0  0  0  0  0
  -30.0749  -13.3446   20.2016 N   0  0  0  0  0  0  0  0  0  0  0  0
  -25.7188  -15.1255   20.5955 N   0  0  0  0  0  0  0  0  0  0  0  0
  -22.0201  -12.8747   21.8800 N   0  0  0  0  0  0  0  0  0  0  0  0
  -30.4177  -15.3437   21.4050 N   0  0  0  0  0  0  0  0  0  0  0  0
  -24.8747  -33.1397   24.6814 N   0  0  0  0  0  0  0  0  0  0  0  0
  -21.3640  -33.6790   18.8637 N   0  0  0  0  0  0  0  0  0  0  0  0
  -22.7244  -34.2634   15.5659 N   0  3  0  0  0  0  0  0  0  0  0  0
  -30.4541  -21.7759   21.1531 N   0  3  0  0  0  0  0  0  0  0  0  0
  -22.9490  -14.9600   21.6622 O   0  0  0  0  0  0  0  0  0  0  0  0
  -23.3561  -31.7885   23.5453 O   0  0  0  0  0  0  0  0  0  0  0  0
  -22.0918  -34.6577   21.4562 O   0  0  0  0  0  0  0  0  0  0  0  0
  -22.3834  -32.1762   17.4216 O   0  0  0  0  0  0  0  0  0  0  0  0
  -32.0498  -14.5246   19.9743 O   0  0  0  0  0  0  0  0  0  0  0  0
  -21.3039   -7.3523   21.7204 O   0  0  0  0  0  0  0  0  0  0  0  0
  -27.5524  -28.4036   19.7455 O   0  0  0  0  0  0  0  0  0  1  0  0
  -18.5824   -7.1684   26.5124 F   0  0  0  0  0  0  0  0  0  0  0  0
  -21.7053   -5.2757   23.5006 F   0  0  0  0  0  0  0  0  0  0  0  0
  1  2  1  0  0  0  0
  1  5  2  0  0  0  0
  2  6  2  0  0  0  0
  3  8  2  0  0  0  0
  3 17  1  0  0  0  0
  4  9  1  0  0  0  0
  4 17  2  0  0  0  0
  5 19  1  0  0  0  0
  6 21  1  0  0  0  0
  7 10  2  0  0  0  0
  7 20  1  0  0  0  0
  8 27  1  0  0  0  0
  9 27  2  0  0  0  0
 10 28  1  0  0  0  0
 11 12  2  0  0  0  0
 11 29  1  0  0  0  0
 12 30  1  0  0  0  0
 13 22  1  0  0  0  0
 13 28  2  0  0  0  0
 14 23  2  0  0  0  0
 14 26  1  0  0  0  0
 15 24  1  0  0  0  0
 15 26  2  0  0  0  0
 16 30  2  0  0  0  0
 16 31  1  0  0  0  0
 17 32  1  0  0  0  0
 18 32  1  0  0  0  0
 18 33  2  0  0  0  0
 18 34  1  0  0  0  0
 19 21  2  0  0  0  0
 19 39  1  0  0  0  0
 20 22  2  0  0  0  0
 20 40  1  0  0  0  0
 21 48  1  0  0  0  0
 22 41  1  0  0  0  0
 23 25  1  0  0  0  0
 23 51  1  0  0  0  0
 24 25  2  0  0  0  0
 24 52  1  0  0  0  0
 25 58  1  0  0  0  0
 26 73  1  0  0  0  0
 27 83  1  0  0  0  0
 28 84  1  0  0  0  0
 29 31  2  0  0  0  0
 29 83  1  0  0  0  0
 30 85  1  0  0  0  0
 31 86  1  0  0  0  0
 32 67  2  0  0  0  0
 33 68  1  0  0  0  0
 33 71  1  0  0  0  0
 34 72  1  0  0  0  0
 34 78  2  0  0  0  0
 35 49  1  0  0  0  0
 35 74  1  0  0  0  0
 35 79  2  0  0  0  0
 36 64  1  0  0  0  0
 36 69  1  0  0  0  0
 36 80  2  0  0  0  0
 37 65  1  0  0  0  0
 37 75  1  0  0  0  0
 37 81  2  0  0  0  0
 38 70  1  0  0  0  0
 38 73  1  0  0  0  0
 38 82  2  0  0  0  0
 39 42  1  0  0  0  0
 40 49  1  0  0  0  0
 41 69  1  0  0  0  0
 42 44  1  0  0  0  0
 43 45  1  0  0  0  0
 43 46  1  0  0  0  0
 44 48  1  0  0  0  0
 45 50  1  0  0  0  0
 46 70  1  0  0  0  0
 47 50  1  0  0  0  0
 47 70  1  0  0  0  0
 48 74  1  0  0  0  0
 49 69  1  0  0  0  0
 50 68  1  0  0  0  0
 53 65  1  0  0  0  0
 54 66  1  0  0  0  0
 55 66  1  0  0  0  0
 56 66  1  0  0  0  0
 57 76  1  0  0  0  0
 58 77  1  0  0  0  0
 59 60  1  0  0  0  0
 59 61  1  0  0  0  0
 60 62  1  0  0  0  0
 61 63  1  0  0  0  0
 62 77  1  0  0  0  0
 63 84  1  0  0  0  0
 64 66  1  0  0  0  0
 64 75  1  0  0  0  0
 65 76  1  0  0  0  0
 67 68  1  0  0  0  0
M  CHG  2  76   1  77   1
M  ISO  4  38 100  63 101  73 100  84 101
M  END
> <Batch ID>
0021

> <Smiles>
CNC(C)C(=O)NC(C(=O)N1Cc2cc([101O:1][101CH2:1]CCCCNCc3c(C)cc([100NH:0][100C:0](=O)N4CCCC(n5nc(-c6ccc(Oc7ccc(F)cc7F)cc6)c(C(N)=O)c5N)C4)cc3C)ccc2CC1C(=O)NC1CCCc2ccccc21)C(C)(C)C

> <Shape>
0.293

> <Color>
0.201

> <Negative vol penalty>
0.000

$$$$

  -OEChem-04052316123D

 91 99  0     1  0  0  0  0  0999 V2000
  -29.2582  -23.7811   19.0381 C   0  0  0  0  0  0  0  0  0  0  0  0
  -27.8977  -24.0692   19.0003 C   0  0  0  0  0  0  0  0  0  0  0  0
  -26.8811  -13.0100   19.5746 C   0  0  0  0  0  0  0  0  0  0  0  0
  -24.8529  -13.7581   20.6535 C   0  0  0  0  0  0  0  0  0  0  0  0
  -30.0493  -24.2911   20.0667 C   0  0  0  0  0  0  0  0  0  0  0  0
  -27.3272  -24.8666   19.9919 C   0  0  0  0  0  0  0  0  0  0  0  0
  -22.7404  -28.8674   19.3131 C   0  0  0  0  0  0  0  0  0  0  0  0
  -26.6867  -11.7310   20.0961 C   0  0  0  0  0  0  0  0  0  0  0  0
  -24.6585  -12.4791   21.1750 C   0  0  0  0  0  0  0  0  0  0  0  0
  -21.3721  -28.7771   19.5646 C   0  0  0  0  0  0  0  0  0  0  0  0
  -23.5084   -9.4945   20.0842 C   0  0  0  0  0  0  0  0  0  0  0  0
  -22.2258   -8.9519   20.0050 C   0  0  0  0  0  0  0  0  0  0  0  0
  -21.7069  -29.8042   21.7215 C   0  0  0  0  0  0  0  0  0  0  0  0
  -21.4951  -20.9572   24.0107 C   0  0  0  0  0  0  0  0  0  0  0  0
  -22.1511   -8.7766   22.4135 C   0  0  0  0  0  0  0  0  0  0  0  0
  -25.9641  -14.0236   19.8533 C   0  0  0  0  0  0  0  0  0  0  0  0
  -25.6938  -15.8428   18.0855 C   0  0  0  0  0  0  0  0  0  0  0  0
  -29.4901  -25.1031   21.0660 C   0  0  0  0  0  0  0  0  0  0  0  0
  -23.6052  -29.4178   20.2700 C   0  0  0  0  0  0  0  0  0  0  0  0
  -28.1113  -25.3868   21.0356 C   0  0  0  0  0  0  0  0  0  0  0  0
  -23.0855  -29.9027   21.4787 C   0  0  0  0  0  0  0  0  0  0  0  0
  -21.8475  -21.9145   23.0594 C   0  0  0  0  0  0  0  0  0  0  0  0
  -22.4846  -20.3247   24.7634 C   0  0  0  0  0  0  0  0  0  0  0  0
  -23.1894  -22.2393   22.8607 C   0  0  0  0  0  0  0  0  0  0  0  0
  -23.8265  -20.6495   24.5648 C   0  0  0  0  0  0  0  0  0  0  0  0
  -24.1789  -21.6068   23.6134 C   0  0  0  0  0  0  0  0  0  0  0  0
  -25.5755  -11.4655   20.8963 C   0  0  0  0  0  0  0  0  0  0  0  0
  -20.8555  -29.2429   20.7702 C   0  0  0  0  0  0  0  0  0  0  0  0
  -24.1124   -9.6780   21.3281 C   0  0  0  0  0  0  0  0  0  0  0  0
  -21.5472   -8.5930   21.1696 C   0  0  0  0  0  0  0  0  0  0  0  0
  -23.4337   -9.3192   22.4927 C   0  0  0  0  0  0  0  0  0  0  0  0
  -26.1646  -15.3451   19.3154 C   0  0  0  0  0  0  0  0  0  0  0  0
  -26.1479  -17.1383   18.0429 C   0  0  0  0  0  0  0  0  0  0  0  0
  -24.9154  -15.1922   17.0724 C   0  0  0  0  0  0  0  0  0  0  0  0
  -26.0746  -28.3308   21.9507 C   0  0  0  0  0  0  0  0  0  0  0  0
  -26.2952  -31.4265   22.8943 C   0  0  0  0  0  0  0  0  0  0  0  0
  -24.7447  -34.4306   23.3609 C   0  0  0  0  0  0  0  0  0  0  0  0
  -27.6579  -21.0719   22.2971 C   0  0  0  0  0  0  0  0  0  0  0  0
  -30.3762  -25.5924   22.1840 C   0  0  0  0  0  0  0  0  0  0  0  0
  -25.0752  -29.5324   19.9725 C   0  0  0  0  0  0  0  0  0  0  0  0
  -23.9687  -30.5207   22.5306 C   0  0  0  0  0  0  0  0  0  0  0  0
  -29.7660  -26.7374   22.9882 C   0  0  0  0  0  0  0  0  0  0  0  0
  -29.7095  -19.9118   19.6284 C   0  0  0  0  0  0  0  0  0  0  0  0
  -28.3152  -26.4270   23.3426 C   0  0  0  0  0  0  0  0  0  0  0  0
  -28.9912  -18.6547   19.1346 C   0  0  0  0  0  0  0  0  0  0  0  0
  -29.6047  -20.0629   21.1444 C   0  0  0  0  0  0  0  0  0  0  0  0
  -27.5119  -18.7620   21.1837 C   0  0  0  0  0  0  0  0  0  0  0  0
  -27.4605  -26.2684   22.0793 C   0  0  1  0  0  0  0  0  0  0  0  0
  -25.9326  -29.6413   21.2296 C   0  0  1  0  0  0  0  0  0  0  0  0
  -27.5423  -18.5961   19.6547 C   0  0  2  0  0  0  0  0  0  0  0  0
  -23.5646  -23.2666   21.8399 C   0  0  0  0  0  0  0  0  0  0  0  0
  -24.8857  -19.9690   25.3729 C   0  0  0  0  0  0  0  0  0  0  0  0
  -25.1747  -36.7630   24.1810 C   0  0  0  0  0  0  0  0  0  0  0  0
  -20.5320  -19.1229   25.8067 C   0  0  0  0  0  0  0  0  0  0  0  0
  -22.5355  -19.7201   27.2085 C   0  0  0  0  0  0  0  0  0  0  0  0
  -22.6648  -17.8708   25.5518 C   0  0  0  0  0  0  0  0  0  0  0  0
  -26.2348  -30.4221   25.7749 C   0  0  0  0  0  0  0  0  0  0  0  0
  -25.7106  -32.7588   26.5051 C   0  0  0  0  0  0  0  0  0  0  0  0
  -27.8657  -32.2694   25.3482 C   0  0  0  0  0  0  0  0  0  0  0  0
  -24.0688  -35.6048   20.7297 C   0  0  0  0  0  0  0  0  0  0  0  0
  -20.7583  -22.5828   22.2588 C   0  0  0  0  0  0  0  0  0  0  0  0
  -25.6183  -21.9557   23.4007 C   0  0  0  0  0  0  0  0  0  0  0  0
  -20.3844  -23.9819   22.7657 C   0  0  0  0  0  0  0  0  0  0  0  0
  -17.8290  -28.2003   22.4256 C   0  0  0  0  0  0  0  0  0  0  0  0
  -19.2467  -24.6677   22.0154 C   0  0  0  0  0  0  0  0  0  0  0  0
  -17.9592  -26.8011   21.8430 C   0  0  0  0  0  0  0  0  0  0  0  0
  -19.1215  -29.0060   22.3804 C   0  0  0  0  0  0  0  0  0  1  0  0
  -25.7134  -32.2445   24.0218 C   0  0  1  0  0  0  0  0  0  0  0  0
  -25.1451  -35.8421   22.9711 C   0  0  2  0  0  0  0  0  0  0  0  0
  -22.0805  -19.3039   25.7763 C   0  0  0  0  0  0  0  0  0  0  0  0
  -26.3645  -31.9104   25.3937 C   0  0  0  0  0  0  0  0  0  0  0  0
  -26.8644  -16.2507   20.0041 N   0  0  0  0  0  0  0  0  0  0  0  0
  -26.8367  -17.3303   19.2043 N   0  0  0  0  0  0  0  0  0  0  0  0
  -25.3999  -30.6045   22.1954 N   0  0  0  0  0  0  0  0  0  0  0  0
  -28.2051  -20.0002   21.5724 N   0  0  0  0  0  0  0  0  0  0  0  0
  -26.0214  -18.1206   17.1255 N   0  0  0  0  0  0  0  0  0  0  0  0
  -24.5332  -13.8593   17.2764 N   0  0  0  0  0  0  0  0  0  0  0  0
  -27.1403  -27.5641   21.5197 N   0  0  0  0  0  0  0  0  0  0  0  0
  -25.8448  -33.6415   23.6226 N   0  0  0  0  0  0  0  0  0  0  0  0
  -26.3232  -20.9346   22.6583 N   0  0  0  0  0  0  0  0  0  0  0  0
  -24.1813  -36.3989   21.9802 N   0  3  0  0  0  0  0  0  0  0  0  0
  -19.0080  -26.0346   22.5558 N   0  3  0  0  0  0  0  0  0  0  0  0
  -24.5830  -15.7704   16.0100 O   0  0  0  0  0  0  0  0  0  0  0  0
  -25.2771  -28.0376   22.8338 O   0  0  0  0  0  0  0  0  0  0  0  0
  -27.4984  -31.5189   22.6384 O   0  0  0  0  0  0  0  0  0  0  0  0
  -23.5731  -34.0657   23.4302 O   0  0  0  0  0  0  0  0  0  0  0  0
  -28.3090  -22.0790   22.5951 O   0  0  0  0  0  0  0  0  0  0  0  0
  -25.3854  -10.2175   21.4052 O   0  0  0  0  0  0  0  0  0  0  0  0
  -19.5204  -29.1554   21.0185 O   0  0  0  0  0  0  0  0  0  1  0  0
  -20.3149   -8.0735   21.0934 F   0  0  0  0  0  0  0  0  0  0  0  0
  -24.0084   -9.4942   23.6906 F   0  0  0  0  0  0  0  0  0  0  0  0
  1  2  1  0  0  0  0
  1  5  2  0  0  0  0
  2  6  2  0  0  0  0
  3  8  2  0  0  0  0
  3 16  1  0  0  0  0
  4  9  1  0  0  0  0
  4 16  2  0  0  0  0
  5 18  1  0  0  0  0
  6 20  1  0  0  0  0
  7 10  2  0  0  0  0
  7 19  1  0  0  0  0
  8 27  1  0  0  0  0
  9 27  2  0  0  0  0
 10 28  1  0  0  0  0
 11 12  2  0  0  0  0
 11 29  1  0  0  0  0
 12 30  1  0  0  0  0
 13 21  1  0  0  0  0
 13 28  2  0  0  0  0
 14 22  1  0  0  0  0
 14 23  2  0  0  0  0
 15 30  2  0  0  0  0
 15 31  1  0  0  0  0
 16 32  1  0  0  0  0
 17 32  1  0  0  0  0
 17 33  2  0  0  0  0
 17 34  1  0  0  0  0
 18 20  2  0  0  0  0
 18 39  1  0  0  0  0
 19 21  2  0  0  0  0
 19 40  1  0  0  0  0
 20 48  1  0  0  0  0
 21 41  1  0  0  0  0
 22 24  2  0  0  0  0
 22 61  1  0  0  0  0
 23 25  1  0  0  0  0
 23 70  1  0  0  0  0
 24 26  1  0  0  0  0
 24 51  1  0  0  0  0
 25 26  2  0  0  0  0
 25 52  1  0  0  0  0
 26 62  1  0  0  0  0
 27 88  1  0  0  0  0
 28 89  1  0  0  0  0
 29 31  2  0  0  0  0
 29 88  1  0  0  0  0
 30 90  1  0  0  0  0
 31 91  1  0  0  0  0
 32 72  2  0  0  0  0
 33 73  1  0  0  0  0
 33 76  1  0  0  0  0
 34 77  1  0  0  0  0
 34 83  2  0  0  0  0
 35 49  1  0  0  0  0
 35 78  1  0  0  0  0
 35 84  2  0  0  0  0
 36 68  1  0  0  0  0
 36 74  1  0  0  0  0
 36 85  2  0  0  0  0
 37 69  1  0  0  0  0
 37 79  1  0  0  0  0
 37 86  2  0  0  0  0
 38 75  1  0  0  0  0
 38 80  1  0  0  0  0
 38 87  2  0  0  0  0
 39 42  1  0  0  0  0
 40 49  1  0  0  0  0
 41 74  1  0  0  0  0
 42 44  1  0  0  0  0
 43 45  1  0  0  0  0
 43 46  1  0  0  0  0
 44 48  1  0  0  0  0
 45 50  1  0  0  0  0
 46 75  1  0  0  0  0
 47 50  1  0  0  0  0
 47 75  1  0  0  0  0
 48 78  1  0  0  0  0
 49 74  1  0  0  0  0
 50 73  1  0  0  0  0
 53 69  1  0  0  0  0
 54 70  1  0  0  0  0
 55 70  1  0  0  0  0
 56 70  1  0  0  0  0
 57 71  1  0  0  0  0
 58 71  1  0  0  0  0
 59 71  1  0  0  0  0
 60 81  1  0  0  0  0
 61 63  1  0  0  0  0
 62 80  1  0  0  0  0
 63 65  1  0  0  0  0
 64 66  1  0  0  0  0
 64 67  1  0  0  0  0
 65 82  1  0  0  0  0
 66 82  1  0  0  0  0
 67 89  1  0  0  0  0
 68 71  1  0  0  0  0
 68 79  1  0  0  0  0
 69 81  1  0  0  0  0
 72 73  1  0  0  0  0
M  CHG  2  81   1  82   1
M  ISO  4  38 100  67 101  80 100  89 101
M  END
> <Batch ID>
0021

> <Smiles>
CNC(C)C(=O)NC(C(=O)N1Cc2cc([101O:1][101CH2:1]CCNCCCc3cc(C(C)(C)C)c(C)c(C[100NH:0][100C:0](=O)N4CCCC(n5nc(-c6ccc(Oc7ccc(F)cc7F)cc6)c(C(N)=O)c5N)C4)c3C)ccc2CC1C(=O)NC1CCCc2ccccc21)C(C)(C)C

> <Shape>
0.293

> <Color>
0.073

> <Negative vol penalty>
0.000

$$$$

  -OEChem-04052316123D

 85 93  0     1  0  0  0  0  0999 V2000
  -23.5651  -15.7468   24.5186 C   0  0  0  0  0  0  0  0  0  0  0  0
  -24.1249  -16.8880   23.9533 C   0  0  0  0  0  0  0  0  0  0  0  0
  -22.9982   -9.8938   19.9828 C   0  0  0  0  0  0  0  0  0  0  0  0
  -23.7201   -9.9495   22.2877 C   0  0  0  0  0  0  0  0  0  0  0  0
  -22.2051  -15.4856   24.3574 C   0  0  0  0  0  0  0  0  0  0  0  0
  -23.3250  -17.7683   23.2255 C   0  0  0  0  0  0  0  0  0  0  0  0
  -24.2004  -22.6151   24.4035 C   0  0  0  0  0  0  0  0  0  0  0  0
  -22.2306   -8.7603   20.2506 C   0  0  0  0  0  0  0  0  0  0  0  0
  -22.9525   -8.8161   22.5556 C   0  0  0  0  0  0  0  0  0  0  0  0
  -25.3377  -23.2078   23.8567 C   0  0  0  0  0  0  0  0  0  0  0  0
  -21.4675   -5.7266   23.7638 C   0  0  0  0  0  0  0  0  0  0  0  0
  -22.0519   -4.7122   24.5221 C   0  0  0  0  0  0  0  0  0  0  0  0
  -23.9725  -24.2510   22.1634 C   0  0  0  0  0  0  0  0  0  0  0  0
  -30.8511  -19.0185   20.1866 C   0  0  0  0  0  0  0  0  0  0  0  0
  -23.7805   -4.4602   22.8531 C   0  0  0  0  0  0  0  0  0  0  0  0
  -23.7430  -10.4883   21.0014 C   0  0  0  0  0  0  0  0  0  0  0  0
  -24.1300  -13.0033   20.8202 C   0  0  0  0  0  0  0  0  0  0  0  0
  -21.3862  -16.3681   23.6354 C   0  0  0  0  0  0  0  0  0  0  0  0
  -22.9399  -22.8274   23.8268 C   0  0  0  0  0  0  0  0  0  0  0  0
  -21.9529  -17.5181   23.0533 C   0  0  0  0  0  0  0  0  0  0  0  0
  -22.8204  -23.6618   22.7063 C   0  0  0  0  0  0  0  0  0  0  0  0
  -30.6697  -19.8017   21.3264 C   0  0  0  0  0  0  0  0  0  0  0  0
  -30.2885  -19.2058   22.5286 C   0  0  0  0  0  0  0  0  0  0  0  0
  -30.2700  -17.0435   21.4510 C   0  0  0  0  0  0  0  0  0  0  0  0
  -22.2077   -8.2215   21.5370 C   0  0  0  0  0  0  0  0  0  0  0  0
  -25.2243  -24.0236   22.7348 C   0  0  0  0  0  0  0  0  0  0  0  0
  -22.0396   -6.1078   22.5500 C   0  0  0  0  0  0  0  0  0  0  0  0
  -23.2084   -4.0790   24.0668 C   0  0  0  0  0  0  0  0  0  0  0  0
  -30.6513  -17.6394   20.2488 C   0  0  0  0  0  0  0  0  0  0  0  0
  -23.1960   -5.4746   22.0947 C   0  0  0  0  0  0  0  0  0  0  0  0
  -30.0886  -17.8267   22.5909 C   0  0  0  0  0  0  0  0  0  0  0  0
  -24.5365  -11.6589   20.7252 C   0  0  0  0  0  0  0  0  0  0  0  0
  -25.2407  -13.7244   20.4558 C   0  0  0  0  0  0  0  0  0  0  0  0
  -22.8618  -13.5513   21.2037 C   0  0  0  0  0  0  0  0  0  0  0  0
  -20.7487  -20.9631   22.4752 C   0  0  0  0  0  0  0  0  0  0  0  0
  -19.0050  -23.6982   22.4426 C   0  0  0  0  0  0  0  0  0  0  0  0
  -18.9675  -27.1107   22.4650 C   0  0  0  0  0  0  0  0  0  0  0  0
  -30.7204  -14.6829   20.6954 C   0  0  0  0  0  0  0  0  0  0  0  0
  -19.9309  -16.0192   23.4481 C   0  0  0  0  0  0  0  0  0  0  0  0
  -21.7193  -22.2022   24.4446 C   0  0  0  0  0  0  0  0  0  0  0  0
  -21.4875  -23.9380   22.0617 C   0  0  0  0  0  0  0  0  0  0  0  0
  -19.0780  -17.1954   22.9795 C   0  0  0  0  0  0  0  0  0  0  0  0
  -29.6040  -12.2254   18.3734 C   0  0  0  0  0  0  0  0  0  0  0  0
  -19.7652  -17.9297   21.8326 C   0  0  0  0  0  0  0  0  0  0  0  0
  -28.1526  -11.9695   18.7861 C   0  0  0  0  0  0  0  0  0  0  0  0
  -30.5029  -12.4710   19.5839 C   0  0  0  0  0  0  0  0  0  0  0  0
  -28.5861  -13.2640   20.9129 C   0  0  0  0  0  0  0  0  0  0  0  0
  -21.1131  -18.5097   22.2779 C   0  0  1  0  0  0  0  0  0  0  0  0
  -20.5543  -22.0741   23.4680 C   0  0  1  0  0  0  0  0  0  0  0  0
  -27.6300  -13.0755   19.7238 C   0  0  2  0  0  0  0  0  0  0  0  0
  -30.0991  -20.0665   23.7396 C   0  0  0  0  0  0  0  0  0  0  0  0
  -17.3937  -29.0639   22.3928 C   0  0  0  0  0  0  0  0  0  0  0  0
  -18.5905  -23.2505   19.4530 C   0  0  0  0  0  0  0  0  0  0  0  0
  -17.8630  -25.6389   19.2670 C   0  0  0  0  0  0  0  0  0  0  0  0
  -16.5619  -24.0470   20.6797 C   0  0  0  0  0  0  0  0  0  0  0  0
  -19.8699  -28.0842   25.1102 C   0  0  0  0  0  0  0  0  0  0  0  0
  -30.8918  -21.2823   21.2293 C   0  0  0  0  0  0  0  0  0  0  0  0
  -28.4633  -24.2418   21.1576 C   0  0  0  0  0  0  0  0  0  0  0  0
  -29.8090  -23.5326   21.1844 C   0  0  0  0  0  0  0  0  0  0  0  0
  -27.5664  -23.8997   22.3410 C   0  0  0  0  0  0  0  0  0  1  0  0
  -18.8273  -24.8413   21.4727 C   0  0  1  0  0  0  0  0  0  0  0  0
  -18.1644  -28.1038   23.2855 C   0  0  2  0  0  0  0  0  0  0  0  0
  -17.9862  -24.4379   20.2288 C   0  0  0  0  0  0  0  0  0  0  0  0
  -25.8063  -11.5307   20.3311 N   0  0  0  0  0  0  0  0  0  0  0  0
  -26.2072  -12.8039   20.1752 N   0  0  0  0  0  0  0  0  0  0  0  0
  -20.3243  -23.2987   22.6987 N   0  0  0  0  0  0  0  0  0  0  0  0
  -29.9473  -13.5342   20.4240 N   0  0  0  0  0  0  0  0  0  0  0  0
  -25.4751  -15.0498   20.3510 N   0  0  0  0  0  0  0  0  0  0  0  0
  -21.8290  -12.6685   21.5477 N   0  0  0  0  0  0  0  0  0  0  0  0
  -30.0755  -15.6402   21.4779 N   0  0  0  0  0  0  0  0  0  0  0  0
  -20.9133  -19.7174   23.0500 N   0  0  0  0  0  0  0  0  0  0  0  0
  -18.2644  -25.9457   22.2420 N   0  0  0  0  0  0  0  0  0  0  0  0
  -19.0674  -28.9006   24.1634 N   0  3  0  0  0  0  0  0  0  0  0  0
  -29.6238  -22.0629   21.2157 N   0  3  0  0  0  0  0  0  0  0  0  0
  -22.6458  -14.7868   21.2244 O   0  0  0  0  0  0  0  0  0  0  0  0
  -20.7479  -21.2171   21.2764 O   0  0  0  0  0  0  0  0  0  0  0  0
  -18.0102  -23.1836   22.9595 O   0  0  0  0  0  0  0  0  0  0  0  0
  -20.1034  -27.3463   22.0592 O   0  0  0  0  0  0  0  0  0  0  0  0
  -31.8598  -14.8201   20.2427 O   0  0  0  0  0  0  0  0  0  0  0  0
  -21.4587   -7.1156   21.7987 O   0  0  0  0  0  0  0  0  0  0  0  0
  -26.3328  -24.6029   22.1987 O   0  0  0  0  0  0  0  0  0  1  0  0
  -23.7703   -3.1059   24.7959 F   0  0  0  0  0  0  0  0  0  0  0  0
  -30.8288  -16.8980   19.1458 F   0  0  0  0  0  0  0  0  0  0  0  0
  -23.7509   -5.8373   20.9300 F   0  0  0  0  0  0  0  0  0  0  0  0
  -29.6159  -17.0886   24.0877 Cl  0  0  0  0  0  0  0  0  0  0  0  0
  1  2  1  0  0  0  0
  1  5  2  0  0  0  0
  2  6  2  0  0  0  0
  3  8  2  0  0  0  0
  3 16  1  0  0  0  0
  4  9  1  0  0  0  0
  4 16  2  0  0  0  0
  5 18  1  0  0  0  0
  6 20  1  0  0  0  0
  7 10  2  0  0  0  0
  7 19  1  0  0  0  0
  8 25  1  0  0  0  0
  9 25  2  0  0  0  0
 10 26  1  0  0  0  0
 11 12  2  0  0  0  0
 11 27  1  0  0  0  0
 12 28  1  0  0  0  0
 13 21  1  0  0  0  0
 13 26  2  0  0  0  0
 14 22  1  0  0  0  0
 14 29  2  0  0  0  0
 15 28  2  0  0  0  0
 15 30  1  0  0  0  0
 16 32  1  0  0  0  0
 17 32  1  0  0  0  0
 17 33  2  0  0  0  0
 17 34  1  0  0  0  0
 18 20  2  0  0  0  0
 18 39  1  0  0  0  0
 19 21  2  0  0  0  0
 19 40  1  0  0  0  0
 20 48  1  0  0  0  0
 21 41  1  0  0  0  0
 22 23  2  0  0  0  0
 22 57  1  0  0  0  0
 23 31  1  0  0  0  0
 23 51  1  0  0  0  0
 24 29  1  0  0  0  0
 24 31  2  0  0  0  0
 24 70  1  0  0  0  0
 25 80  1  0  0  0  0
 26 81  1  0  0  0  0
 27 30  2  0  0  0  0
 27 80  1  0  0  0  0
 28 82  1  0  0  0  0
 29 83  1  0  0  0  0
 30 84  1  0  0  0  0
 31 85  1  0  0  0  0
 32 64  2  0  0  0  0
 33 65  1  0  0  0  0
 33 68  1  0  0  0  0
 34 69  1  0  0  0  0
 34 75  2  0  0  0  0
 35 49  1  0  0  0  0
 35 71  1  0  0  0  0
 35 76  2  0  0  0  0
 36 61  1  0  0  0  0
 36 66  1  0  0  0  0
 36 77  2  0  0  0  0
 37 62  1  0  0  0  0
 37 72  1  0  0  0  0
 37 78  2  0  0  0  0
 38 67  1  0  0  0  0
 38 70  1  0  0  0  0
 38 79  2  0  0  0  0
 39 42  1  0  0  0  0
 40 49  1  0  0  0  0
 41 66  1  0  0  0  0
 42 44  1  0  0  0  0
 43 45  1  0  0  0  0
 43 46  1  0  0  0  0
 44 48  1  0  0  0  0
 45 50  1  0  0  0  0
 46 67  1  0  0  0  0
 47 50  1  0  0  0  0
 47 67  1  0  0  0  0
 48 71  1  0  0  0  0
 49 66  1  0  0  0  0
 50 65  1  0  0  0  0
 52 62  1  0  0  0  0
 53 63  1  0  0  0  0
 54 63  1  0  0  0  0
 55 63  1  0  0  0  0
 56 73  1  0  0  0  0
 57 74  1  0  0  0  0
 58 59  1  0  0  0  0
 58 60  1  0  0  0  0
 59 74  1  0  0  0  0
 60 81  1  0  0  0  0
 61 63  1  0  0  0  0
 61 72  1  0  0  0  0
 62 73  1  0  0  0  0
 64 65  1  0  0  0  0
M  CHG  2  73   1  74   1
M  ISO  4  38 100  60 101  70 100  81 101
M  END
> <Batch ID>
0021

> <Smiles>
CNC(C)C(=O)NC(C(=O)N1Cc2cc([101O:1][101CH2:1]CCNCc3cc(F)c([100NH:0][100C:0](=O)N4CCCC(n5nc(-c6ccc(Oc7ccc(F)cc7F)cc6)c(C(N)=O)c5N)C4)c(Cl)c3C)ccc2CC1C(=O)NC1CCCc2ccccc21)C(C)(C)C

> <Shape>
0.248

> <Color>
0.198

> <Negative vol penalty>
0.000

$$$$

  -OEChem-04052316123D

 86 94  0     1  0  0  0  0  0999 V2000
  -19.6103  -34.2870   22.8384 C   0  0  0  0  0  0  0  0  0  0  0  0
  -20.9289  -33.9910   22.5081 C   0  0  0  0  0  0  0  0  0  0  0  0
  -24.8635  -13.4645   21.5626 C   0  0  0  0  0  0  0  0  0  0  0  0
  -26.8473  -12.9356   20.2891 C   0  0  0  0  0  0  0  0  0  0  0  0
  -18.8163  -33.3253   23.4618 C   0  0  0  0  0  0  0  0  0  0  0  0
  -21.4546  -32.7334   22.8020 C   0  0  0  0  0  0  0  0  0  0  0  0
  -25.5496  -29.5926   19.5047 C   0  0  0  0  0  0  0  0  0  0  0  0
  -24.2158  -12.3581   21.0132 C   0  0  0  0  0  0  0  0  0  0  0  0
  -26.1996  -11.8291   19.7396 C   0  0  0  0  0  0  0  0  0  0  0  0
  -26.9297  -29.4361   19.6256 C   0  0  0  0  0  0  0  0  0  0  0  0
  -22.1609   -9.4660   20.2205 C   0  0  0  0  0  0  0  0  0  0  0  0
  -21.4313   -8.6474   21.0826 C   0  0  0  0  0  0  0  0  0  0  0  0
  -26.5843  -27.3723   20.8260 C   0  0  0  0  0  0  0  0  0  0  0  0
  -29.9889  -26.1539   17.7738 C   0  0  0  0  0  0  0  0  0  0  0  0
  -23.4384   -8.1909   22.3477 C   0  0  0  0  0  0  0  0  0  0  0  0
  -26.1793  -13.7533   21.2005 C   0  0  0  0  0  0  0  0  0  0  0  0
  -27.6162  -14.9336   22.9469 C   0  0  0  0  0  0  0  0  0  0  0  0
  -19.3296  -32.0520   23.7548 C   0  0  0  0  0  0  0  0  0  0  0  0
  -24.6749  -28.6442   20.0540 C   0  0  0  0  0  0  0  0  0  0  0  0
  -20.6671  -31.7542   23.4312 C   0  0  0  0  0  0  0  0  0  0  0  0
  -25.1936  -27.5178   20.7085 C   0  0  0  0  0  0  0  0  0  0  0  0
  -29.7650  -24.8170   17.4449 C   0  0  0  0  0  0  0  0  0  0  0  0
  -30.6826  -26.4785   18.9397 C   0  0  0  0  0  0  0  0  0  0  0  0
  -30.2348  -23.8047   18.2817 C   0  0  0  0  0  0  0  0  0  0  0  0
  -31.1523  -25.4663   19.7765 C   0  0  0  0  0  0  0  0  0  0  0  0
  -24.8838  -11.5404   20.1017 C   0  0  0  0  0  0  0  0  0  0  0  0
  -27.4472  -28.3273   20.2889 C   0  0  0  0  0  0  0  0  0  0  0  0
  -23.5293   -9.6469   20.4219 C   0  0  0  0  0  0  0  0  0  0  0  0
  -22.0700   -8.0099   22.1462 C   0  0  0  0  0  0  0  0  0  0  0  0
  -24.1680   -9.0094   21.4855 C   0  0  0  0  0  0  0  0  0  0  0  0
  -30.9284  -24.1294   19.4476 C   0  0  0  0  0  0  0  0  0  0  0  0
  -26.8488  -14.8964   21.7673 C   0  0  0  0  0  0  0  0  0  0  0  0
  -28.0295  -16.2396   23.0466 C   0  0  0  0  0  0  0  0  0  0  0  0
  -27.9278  -13.8816   23.8699 C   0  0  0  0  0  0  0  0  0  0  0  0
  -22.4151  -28.7059   22.2886 C   0  0  0  0  0  0  0  0  0  0  0  0
  -21.9061  -25.6568   21.3058 C   0  0  0  0  0  0  0  0  0  0  0  0
  -23.1444  -22.8494   19.8118 C   0  0  0  0  0  0  0  0  0  0  0  0
  -28.8845  -20.4172   18.9635 C   0  0  0  0  0  0  0  0  0  0  0  0
  -18.4475  -31.0612   24.4722 C   0  0  0  0  0  0  0  0  0  0  0  0
  -23.1892  -28.8139   19.8917 C   0  0  0  0  0  0  0  0  0  0  0  0
  -24.2976  -26.4605   21.2981 C   0  0  0  0  0  0  0  0  0  0  0  0
  -18.9670  -29.6271   24.4107 C   0  0  0  0  0  0  0  0  0  0  0  0
  -26.7177  -20.6842   21.8498 C   0  0  0  0  0  0  0  0  0  0  0  0
  -20.4572  -29.5848   24.7332 C   0  0  0  0  0  0  0  0  0  0  0  0
  -26.5827  -19.2182   22.2654 C   0  0  0  0  0  0  0  0  0  0  0  0
  -26.7505  -20.8275   20.3311 C   0  0  0  0  0  0  0  0  0  0  0  0
  -27.6776  -18.5587   20.0731 C   0  0  0  0  0  0  0  0  0  0  0  0
  -21.2660  -30.3930   23.7114 C   0  0  1  0  0  0  0  0  0  0  0  0
  -22.3828  -28.0498   20.9372 C   0  0  1  0  0  0  0  0  0  0  0  0
  -27.6613  -18.3449   21.5976 C   0  0  2  0  0  0  0  0  0  0  0  0
  -29.0192  -24.4987   16.1902 C   0  0  0  0  0  0  0  0  0  0  0  0
  -22.5039  -20.5051   19.1863 C   0  0  0  0  0  0  0  0  0  0  0  0
  -32.0124  -27.3850   21.1638 C   0  0  0  0  0  0  0  0  0  0  0  0
  -33.3374  -25.2502   21.0116 C   0  0  0  0  0  0  0  0  0  0  0  0
  -31.2476  -25.3413   22.3555 C   0  0  0  0  0  0  0  0  0  0  0  0
  -22.2042  -24.8006   24.2192 C   0  0  0  0  0  0  0  0  0  0  0  0
  -22.5069  -22.4461   23.4236 C   0  0  0  0  0  0  0  0  0  0  0  0
  -20.3667  -23.6467   22.9756 C   0  0  0  0  0  0  0  0  0  0  0  0
  -23.5705  -23.3778   16.9312 C   0  0  0  0  0  0  0  0  0  0  0  0
  -30.9102  -27.9336   19.2703 C   0  0  0  0  0  0  0  0  0  0  0  0
  -29.9830  -22.3764   17.9089 C   0  0  0  0  0  0  0  0  0  0  0  0
  -29.6055  -28.7167   19.3690 C   0  0  0  0  0  0  0  0  0  1  0  0
  -22.4470  -24.3029   21.6974 C   0  0  1  0  0  0  0  0  0  0  0  0
  -22.5775  -21.9526   18.7260 C   0  0  2  0  0  0  0  0  0  0  0  0
  -31.8945  -25.8379   21.0230 C   0  0  0  0  0  0  0  0  0  0  0  0
  -21.8983  -23.8198   23.0696 C   0  0  0  0  0  0  0  0  0  0  0  0
  -26.7770  -16.0844   21.1611 N   0  0  0  0  0  0  0  0  0  0  0  0
  -27.5046  -16.8804   21.9631 N   0  0  0  0  0  0  0  0  0  0  0  0
  -22.8520  -26.6746   21.1189 N   0  0  0  0  0  0  0  0  0  0  0  0
  -27.8106  -19.9852   19.7594 N   0  0  0  0  0  0  0  0  0  0  0  0
  -28.7869  -16.8910   23.9546 N   0  0  0  0  0  0  0  0  0  0  0  0
  -27.4223  -12.5991   23.6167 N   0  0  0  0  0  0  0  0  0  0  0  0
  -21.4195  -29.6443   22.4823 N   0  0  0  0  0  0  0  0  0  0  0  0
  -22.1484  -23.4068   20.5855 N   0  0  0  0  0  0  0  0  0  0  0  0
  -28.9340  -21.7820   18.7073 N   0  0  0  0  0  0  0  0  0  0  0  0
  -23.4301  -22.0149   17.5053 N   0  3  0  0  0  0  0  0  0  0  0  0
  -28.6198  -14.0768   24.8977 O   0  0  0  0  0  0  0  0  0  0  0  0
  -23.2785  -28.3836   23.0962 O   0  0  0  0  0  0  0  0  0  0  0  0
  -20.6896  -25.8039   21.1637 O   0  0  0  0  0  0  0  0  0  0  0  0
  -24.3503  -23.0338   19.9612 O   0  0  0  0  0  0  0  0  0  0  0  0
  -29.7397  -19.6443   18.5181 O   0  0  0  0  0  0  0  0  0  0  0  0
  -24.2521  -10.4605   19.5656 O   0  0  0  0  0  0  0  0  0  0  0  0
  -28.7939  -28.1724   20.4089 O   0  0  0  0  0  0  0  0  0  1  0  0
  -21.3690   -7.2251   22.9750 F   0  0  0  0  0  0  0  0  0  0  0  0
  -25.4821   -9.1804   21.6848 F   0  0  0  0  0  0  0  0  0  0  0  0
  -31.5120  -22.8717   20.4873 Cl  0  0  0  0  0  0  0  0  0  0  0  0
  1  2  1  0  0  0  0
  1  5  2  0  0  0  0
  2  6  2  0  0  0  0
  3  8  2  0  0  0  0
  3 16  1  0  0  0  0
  4  9  1  0  0  0  0
  4 16  2  0  0  0  0
  5 18  1  0  0  0  0
  6 20  1  0  0  0  0
  7 10  2  0  0  0  0
  7 19  1  0  0  0  0
  8 26  1  0  0  0  0
  9 26  2  0  0  0  0
 10 27  1  0  0  0  0
 11 12  2  0  0  0  0
 11 28  1  0  0  0  0
 12 29  1  0  0  0  0
 13 21  1  0  0  0  0
 13 27  2  0  0  0  0
 14 22  2  0  0  0  0
 14 23  1  0  0  0  0
 15 29  2  0  0  0  0
 15 30  1  0  0  0  0
 16 32  1  0  0  0  0
 17 32  1  0  0  0  0
 17 33  2  0  0  0  0
 17 34  1  0  0  0  0
 18 20  2  0  0  0  0
 18 39  1  0  0  0  0
 19 21  2  0  0  0  0
 19 40  1  0  0  0  0
 20 48  1  0  0  0  0
 21 41  1  0  0  0  0
 22 24  1  0  0  0  0
 22 51  1  0  0  0  0
 23 25  2  0  0  0  0
 23 60  1  0  0  0  0
 24 31  2  0  0  0  0
 24 61  1  0  0  0  0
 25 31  1  0  0  0  0
 25 65  1  0  0  0  0
 26 82  1  0  0  0  0
 27 83  1  0  0  0  0
 28 30  2  0  0  0  0
 28 82  1  0  0  0  0
 29 84  1  0  0  0  0
 30 85  1  0  0  0  0
 31 86  1  0  0  0  0
 32 67  2  0  0  0  0
 33 68  1  0  0  0  0
 33 71  1  0  0  0  0
 34 72  1  0  0  0  0
 34 77  2  0  0  0  0
 35 49  1  0  0  0  0
 35 73  1  0  0  0  0
 35 78  2  0  0  0  0
 36 63  1  0  0  0  0
 36 69  1  0  0  0  0
 36 79  2  0  0  0  0
 37 64  1  0  0  0  0
 37 74  1  0  0  0  0
 37 80  2  0  0  0  0
 38 70  1  0  0  0  0
 38 75  1  0  0  0  0
 38 81  2  0  0  0  0
 39 42  1  0  0  0  0
 40 49  1  0  0  0  0
 41 69  1  0  0  0  0
 42 44  1  0  0  0  0
 43 45  1  0  0  0  0
 43 46  1  0  0  0  0
 44 48  1  0  0  0  0
 45 50  1  0  0  0  0
 46 70  1  0  0  0  0
 47 50  1  0  0  0  0
 47 70  1  0  0  0  0
 48 73  1  0  0  0  0
 49 69  1  0  0  0  0
 50 68  1  0  0  0  0
 52 64  1  0  0  0  0
 53 65  1  0  0  0  0
 54 65  1  0  0  0  0
 55 65  1  0  0  0  0
 56 66  1  0  0  0  0
 57 66  1  0  0  0  0
 58 66  1  0  0  0  0
 59 76  1  0  0  0  0
 60 62  1  0  0  0  0
 61 75  1  0  0  0  0
 62 83  1  0  0  0  0
 63 66  1  0  0  0  0
 63 74  1  0  0  0  0
 64 76  1  0  0  0  0
 67 68  1  0  0  0  0
M  CHG  1  76   1
M  ISO  4  38 100  62 101  75 100  83 101
M  END
> <Batch ID>
0021

> <Smiles>
CNC(C)C(=O)NC(C(=O)N1Cc2cc([101O:1][101CH2:1]Cc3cc(C)c(C[100NH:0][100C:0](=O)N4CCCC(n5nc(-c6ccc(Oc7ccc(F)cc7F)cc6)c(C(N)=O)c5N)C4)c(Cl)c3C(C)(C)C)ccc2CC1C(=O)NC1CCCc2ccccc21)C(C)(C)C

> <Shape>
0.247

> <Color>
0.089

> <Negative vol penalty>
0.000

$$$$

  -OEChem-04052316123D

 84 92  0     1  0  0  0  0  0999 V2000
  -27.9837  -24.1913   17.1987 C   0  0  0  0  0  0  0  0  0  0  0  0
  -26.8038  -24.4474   17.8899 C   0  0  0  0  0  0  0  0  0  0  0  0
  -24.9158  -17.9694   22.6891 C   0  0  0  0  0  0  0  0  0  0  0  0
  -23.4632  -18.2951   20.7863 C   0  0  0  0  0  0  0  0  0  0  0  0
  -29.1901  -24.7128   17.6641 C   0  0  0  0  0  0  0  0  0  0  0  0
  -26.8298  -25.2244   19.0475 C   0  0  0  0  0  0  0  0  0  0  0  0
  -23.1065  -28.6548   19.1687 C   0  0  0  0  0  0  0  0  0  0  0  0
  -25.4045  -16.7958   22.1153 C   0  0  0  0  0  0  0  0  0  0  0  0
  -23.9519  -17.1215   20.2124 C   0  0  0  0  0  0  0  0  0  0  0  0
  -21.8334  -28.2009   19.5106 C   0  0  0  0  0  0  0  0  0  0  0  0
  -27.6180  -15.9336   19.7090 C   0  0  0  0  0  0  0  0  0  0  0  0
  -28.9975  -15.7285   19.7277 C   0  0  0  0  0  0  0  0  0  0  0  0
  -22.1542  -29.0135   21.7592 C   0  0  0  0  0  0  0  0  0  0  0  0
  -16.8946  -27.6635   20.3207 C   0  0  0  0  0  0  0  0  0  0  0  0
  -28.6787  -13.7003   21.0012 C   0  0  0  0  0  0  0  0  0  0  0  0
  -23.9451  -18.7191   22.0247 C   0  0  0  0  0  0  0  0  0  0  0  0
  -23.9471  -21.2340   22.4525 C   0  0  0  0  0  0  0  0  0  0  0  0
  -29.2295  -25.5046   18.8226 C   0  0  0  0  0  0  0  0  0  0  0  0
  -23.9187  -29.2828   20.1239 C   0  0  0  0  0  0  0  0  0  0  0  0
  -28.0380  -25.7559   19.5295 C   0  0  0  0  0  0  0  0  0  0  0  0
  -23.4362  -29.4768   21.4262 C   0  0  0  0  0  0  0  0  0  0  0  0
  -18.0147  -26.9111   20.6740 C   0  0  0  0  0  0  0  0  0  0  0  0
  -15.6389  -27.3234   20.8239 C   0  0  0  0  0  0  0  0  0  0  0  0
  -17.8792  -25.8185   21.5305 C   0  0  0  0  0  0  0  0  0  0  0  0
  -16.6234  -25.4783   22.0336 C   0  0  0  0  0  0  0  0  0  0  0  0
  -24.9226  -16.3718   20.8769 C   0  0  0  0  0  0  0  0  0  0  0  0
  -21.3582  -28.3776   20.8068 C   0  0  0  0  0  0  0  0  0  0  0  0
  -26.7688  -15.0221   20.3365 C   0  0  0  0  0  0  0  0  0  0  0  0
  -29.5279  -14.6118   20.3737 C   0  0  0  0  0  0  0  0  0  0  0  0
  -27.2992  -13.9054   20.9826 C   0  0  0  0  0  0  0  0  0  0  0  0
  -15.5033  -26.2308   21.6803 C   0  0  0  0  0  0  0  0  0  0  0  0
  -23.4395  -19.9312   22.6172 C   0  0  0  0  0  0  0  0  0  0  0  0
  -23.1221  -22.0230   23.2163 C   0  0  0  0  0  0  0  0  0  0  0  0
  -25.0643  -21.6901   21.6782 C   0  0  0  0  0  0  0  0  0  0  0  0
  -26.7432  -28.6448   21.4349 C   0  0  0  0  0  0  0  0  0  0  0  0
  -26.3367  -31.5638   22.7900 C   0  0  0  0  0  0  0  0  0  0  0  0
  -24.1879  -34.0155   23.7995 C   0  0  0  0  0  0  0  0  0  0  0  0
  -17.4656  -21.4031   25.0793 C   0  0  0  0  0  0  0  0  0  0  0  0
  -30.5641  -26.0072   19.3134 C   0  0  0  0  0  0  0  0  0  0  0  0
  -25.2792  -29.7907   19.7321 C   0  0  0  0  0  0  0  0  0  0  0  0
  -24.2608  -30.1631   22.4833 C   0  0  0  0  0  0  0  0  0  0  0  0
  -30.4517  -27.1320   20.3392 C   0  0  0  0  0  0  0  0  0  0  0  0
  -20.3503  -21.8710   27.1131 C   0  0  0  0  0  0  0  0  0  0  0  0
  -29.4120  -26.7851   21.4001 C   0  0  0  0  0  0  0  0  0  0  0  0
  -21.5149  -21.5445   26.1766 C   0  0  0  0  0  0  0  0  0  0  0  0
  -19.1446  -20.9719   26.8489 C   0  0  0  0  0  0  0  0  0  0  0  0
  -19.8467  -20.6252   24.5121 C   0  0  0  0  0  0  0  0  0  0  0  0
  -28.0219  -26.6149   20.7753 C   0  0  1  0  0  0  0  0  0  0  0  0
  -26.2203  -29.9565   20.9212 C   0  0  1  0  0  0  0  0  0  0  0  0
  -21.0661  -21.5432   24.7029 C   0  0  2  0  0  0  0  0  0  0  0  0
  -14.4669  -28.1583   20.4177 C   0  0  0  0  0  0  0  0  0  0  0  0
  -19.0841  -25.0156   21.9075 C   0  0  0  0  0  0  0  0  0  0  0  0
  -24.1484  -36.2667   24.9076 C   0  0  0  0  0  0  0  0  0  0  0  0
  -26.8301  -30.2388   25.4939 C   0  0  0  0  0  0  0  0  0  0  0  0
  -25.8579  -32.2699   26.5883 C   0  0  0  0  0  0  0  0  0  0  0  0
  -27.9269  -32.4683   25.2090 C   0  0  0  0  0  0  0  0  0  0  0  0
  -22.9710  -35.2928   21.4232 C   0  0  0  0  0  0  0  0  0  0  0  0
  -16.4986  -24.3025   22.9527 C   0  0  0  0  0  0  0  0  0  0  0  0
  -19.3539  -27.2982   20.1188 C   0  0  0  0  0  0  0  0  0  1  0  0
  -15.9779  -23.0229   22.2745 C   0  0  0  0  0  0  0  0  0  0  0  0
  -15.9008  -21.8075   23.1960 C   0  0  0  0  0  0  0  0  0  0  0  0
  -25.7075  -32.0726   24.0645 C   0  0  1  0  0  0  0  0  0  0  0  0
  -24.2019  -35.5183   23.5848 C   0  0  2  0  0  0  0  0  0  0  0  0
  -26.5656  -31.7477   25.3198 C   0  0  0  0  0  0  0  0  0  0  0  0
  -22.3747  -19.8907   23.4226 N   0  0  0  0  0  0  0  0  0  0  0  0
  -22.2065  -21.1778   23.7707 N   0  0  0  0  0  0  0  0  0  0  0  0
  -25.5869  -30.6363   22.0530 N   0  0  0  0  0  0  0  0  0  0  0  0
  -18.7688  -21.0172   25.4337 N   0  0  0  0  0  0  0  0  0  0  0  0
  -23.0979  -23.3504   23.4610 N   0  0  0  0  0  0  0  0  0  0  0  0
  -25.8042  -20.7464   20.9528 N   0  0  0  0  0  0  0  0  0  0  0  0
  -27.4333  -27.9064   20.4926 N   0  0  0  0  0  0  0  0  0  0  0  0
  -25.4639  -33.4963   23.8594 N   0  0  0  0  0  0  0  0  0  0  0  0
  -17.1944  -21.4254   23.7167 N   0  0  0  0  0  0  0  0  0  0  0  0
  -23.0316  -35.9348   22.7615 N   0  3  0  0  0  0  0  0  0  0  0  0
  -25.4065  -22.8964   21.6441 O   0  0  0  0  0  0  0  0  0  0  0  0
  -26.5372  -28.3269   22.6003 O   0  0  0  0  0  0  0  0  0  0  0  0
  -27.4492  -31.9797   22.4569 O   0  0  0  0  0  0  0  0  0  0  0  0
  -23.1491  -33.3677   23.9071 O   0  0  0  0  0  0  0  0  0  0  0  0
  -16.6088  -21.7106   25.9150 O   0  0  0  0  0  0  0  0  0  0  0  0
  -25.3994  -15.2267   20.3165 O   0  0  0  0  0  0  0  0  0  0  0  0
  -20.1162  -27.9349   21.1434 O   0  0  0  0  0  0  0  0  0  1  0  0
  -30.8526  -14.4141   20.3902 F   0  0  0  0  0  0  0  0  0  0  0  0
  -26.4883  -13.0256   21.5861 F   0  0  0  0  0  0  0  0  0  0  0  0
  -13.9420  -25.8107   22.3025 Cl  0  0  0  0  0  0  0  0  0  0  0  0
  1  2  1  0  0  0  0
  1  5  2  0  0  0  0
  2  6  2  0  0  0  0
  3  8  2  0  0  0  0
  3 16  1  0  0  0  0
  4  9  1  0  0  0  0
  4 16  2  0  0  0  0
  5 18  1  0  0  0  0
  6 20  1  0  0  0  0
  7 10  2  0  0  0  0
  7 19  1  0  0  0  0
  8 26  1  0  0  0  0
  9 26  2  0  0  0  0
 10 27  1  0  0  0  0
 11 12  2  0  0  0  0
 11 28  1  0  0  0  0
 12 29  1  0  0  0  0
 13 21  1  0  0  0  0
 13 27  2  0  0  0  0
 14 22  1  0  0  0  0
 14 23  2  0  0  0  0
 15 29  2  0  0  0  0
 15 30  1  0  0  0  0
 16 32  1  0  0  0  0
 17 32  1  0  0  0  0
 17 33  2  0  0  0  0
 17 34  1  0  0  0  0
 18 20  2  0  0  0  0
 18 39  1  0  0  0  0
 19 21  2  0  0  0  0
 19 40  1  0  0  0  0
 20 48  1  0  0  0  0
 21 41  1  0  0  0  0
 22 24  2  0  0  0  0
 22 59  1  0  0  0  0
 23 31  1  0  0  0  0
 23 51  1  0  0  0  0
 24 25  1  0  0  0  0
 24 52  1  0  0  0  0
 25 31  2  0  0  0  0
 25 58  1  0  0  0  0
 26 80  1  0  0  0  0
 27 81  1  0  0  0  0
 28 30  2  0  0  0  0
 28 80  1  0  0  0  0
 29 82  1  0  0  0  0
 30 83  1  0  0  0  0
 31 84  1  0  0  0  0
 32 65  2  0  0  0  0
 33 66  1  0  0  0  0
 33 69  1  0  0  0  0
 34 70  1  0  0  0  0
 34 75  2  0  0  0  0
 35 49  1  0  0  0  0
 35 71  1  0  0  0  0
 35 76  2  0  0  0  0
 36 62  1  0  0  0  0
 36 67  1  0  0  0  0
 36 77  2  0  0  0  0
 37 63  1  0  0  0  0
 37 72  1  0  0  0  0
 37 78  2  0  0  0  0
 38 68  1  0  0  0  0
 38 73  1  0  0  0  0
 38 79  2  0  0  0  0
 39 42  1  0  0  0  0
 40 49  1  0  0  0  0
 41 67  1  0  0  0  0
 42 44  1  0  0  0  0
 43 45  1  0  0  0  0
 43 46  1  0  0  0  0
 44 48  1  0  0  0  0
 45 50  1  0  0  0  0
 46 68  1  0  0  0  0
 47 50  1  0  0  0  0
 47 68  1  0  0  0  0
 48 71  1  0  0  0  0
 49 67  1  0  0  0  0
 50 66  1  0  0  0  0
 53 63  1  0  0  0  0
 54 64  1  0  0  0  0
 55 64  1  0  0  0  0
 56 64  1  0  0  0  0
 57 74  1  0  0  0  0
 58 60  1  0  0  0  0
 59 81  1  0  0  0  0
 60 61  1  0  0  0  0
 61 73  1  0  0  0  0
 62 64  1  0  0  0  0
 62 72  1  0  0  0  0
 63 74  1  0  0  0  0
 65 66  1  0  0  0  0
M  CHG  1  74   1
M  ISO  4  38 100  59 101  73 100  81 101
M  END
> <Batch ID>
0021

> <Smiles>
CNC(C)C(=O)NC(C(=O)N1Cc2cc([101O:1][101CH2:1]c3cc(C)c(Cl)c(CCC[100NH:0][100C:0](=O)N4CCCC(n5nc(-c6ccc(Oc7ccc(F)cc7F)cc6)c(C(N)=O)c5N)C4)c3C)ccc2CC1C(=O)NC1CCCc2ccccc21)C(C)(C)C

> <Shape>
0.239

> <Color>
0.074

> <Negative vol penalty>
0.000

$$$$

  -OEChem-04052316123D

 92100  0     1  0  0  0  0  0999 V2000
  -27.0306  -24.2809   14.0563 C   0  0  0  0  0  0  0  0  0  0  0  0
  -26.1682  -24.3610   15.1450 C   0  0  0  0  0  0  0  0  0  0  0  0
  -27.6925  -16.3409   18.1729 C   0  0  0  0  0  0  0  0  0  0  0  0
  -28.0474  -16.8643   20.5047 C   0  0  0  0  0  0  0  0  0  0  0  0
  -28.3832  -24.5787   14.2166 C   0  0  0  0  0  0  0  0  0  0  0  0
  -26.6581  -24.7380   16.3949 C   0  0  0  0  0  0  0  0  0  0  0  0
  -23.6827  -28.1205   18.7081 C   0  0  0  0  0  0  0  0  0  0  0  0
  -28.4249  -17.4705   17.8079 C   0  0  0  0  0  0  0  0  0  0  0  0
  -28.7799  -17.9938   20.1397 C   0  0  0  0  0  0  0  0  0  0  0  0
  -22.5238  -27.6389   19.3156 C   0  0  0  0  0  0  0  0  0  0  0  0
  -28.1434  -21.1366   19.0678 C   0  0  0  0  0  0  0  0  0  0  0  0
  -27.8787  -22.3272   19.7445 C   0  0  0  0  0  0  0  0  0  0  0  0
  -23.6299  -27.6980   21.4586 C   0  0  0  0  0  0  0  0  0  0  0  0
  -22.1908  -22.9269   22.2184 C   0  0  0  0  0  0  0  0  0  0  0  0
  -30.1714  -22.4063   20.5023 C   0  0  0  0  0  0  0  0  0  0  0  0
  -27.5037  -16.0378   19.5213 C   0  0  0  0  0  0  0  0  0  0  0  0
  -27.2405  -13.5711   20.1159 C   0  0  0  0  0  0  0  0  0  0  0  0
  -28.8881  -24.9689   15.4670 C   0  0  0  0  0  0  0  0  0  0  0  0
  -24.8292  -28.3845   19.4711 C   0  0  0  0  0  0  0  0  0  0  0  0
  -28.0189  -25.0401   16.5724 C   0  0  0  0  0  0  0  0  0  0  0  0
  -24.8012  -28.1852   20.8587 C   0  0  0  0  0  0  0  0  0  0  0  0
  -23.0589  -21.8499   22.0395 C   0  0  0  0  0  0  0  0  0  0  0  0
  -22.0253  -21.3707   19.9089 C   0  0  0  0  0  0  0  0  0  0  0  0
  -21.2398  -23.2258   21.2426 C   0  0  0  0  0  0  0  0  0  0  0  0
  -28.9686  -18.2969   18.7912 C   0  0  0  0  0  0  0  0  0  0  0  0
  -22.4983  -27.4249   20.6906 C   0  0  0  0  0  0  0  0  0  0  0  0
  -29.4221  -20.5808   19.1084 C   0  0  0  0  0  0  0  0  0  0  0  0
  -28.8926  -22.9621   20.4617 C   0  0  0  0  0  0  0  0  0  0  0  0
  -30.4361  -21.2156   19.8256 C   0  0  0  0  0  0  0  0  0  0  0  0
  -22.9762  -21.0718   20.8848 C   0  0  0  0  0  0  0  0  0  0  0  0
  -21.1571  -22.4477   20.0879 C   0  0  0  0  0  0  0  0  0  0  0  0
  -26.7467  -14.8715   19.8990 C   0  0  0  0  0  0  0  0  0  0  0  0
  -26.1310  -12.8340   20.4511 C   0  0  0  0  0  0  0  0  0  0  0  0
  -28.5821  -13.0739   20.0229 C   0  0  0  0  0  0  0  0  0  0  0  0
  -27.7972  -27.2479   19.5269 C   0  0  0  0  0  0  0  0  0  0  0  0
  -28.2475  -29.6164   21.6971 C   0  0  0  0  0  0  0  0  0  0  0  0
  -26.8854  -31.7247   24.0093 C   0  0  0  0  0  0  0  0  0  0  0  0
  -20.8400  -14.2893   22.8466 C   0  0  0  0  0  0  0  0  0  0  0  0
  -30.3665  -25.2353   15.6019 C   0  0  0  0  0  0  0  0  0  0  0  0
  -26.0628  -28.9289   18.8045 C   0  0  0  0  0  0  0  0  0  0  0  0
  -25.9990  -28.4724   21.7255 C   0  0  0  0  0  0  0  0  0  0  0  0
  -30.7357  -25.9896   16.8766 C   0  0  0  0  0  0  0  0  0  0  0  0
  -21.4037  -12.6478   19.7379 C   0  0  0  0  0  0  0  0  0  0  0  0
  -30.0317  -25.3761   18.0828 C   0  0  0  0  0  0  0  0  0  0  0  0
  -22.8815  -12.9142   19.4462 C   0  0  0  0  0  0  0  0  0  0  0  0
  -20.7367  -13.8448   20.4118 C   0  0  0  0  0  0  0  0  0  0  0  0
  -22.8945  -14.5956   21.3361 C   0  0  0  0  0  0  0  0  0  0  0  0
  -28.5079  -25.4694   17.9387 C   0  0  1  0  0  0  0  0  0  0  0  0
  -27.3361  -28.6758   19.6057 C   0  0  1  0  0  0  0  0  0  0  0  0
  -23.6239  -13.3961   20.7071 C   0  0  2  0  0  0  0  0  0  0  0  0
  -21.9372  -20.5383   18.6744 C   0  0  0  0  0  0  0  0  0  0  0  0
  -27.5099  -33.5197   25.6480 C   0  0  0  0  0  0  0  0  0  0  0  0
  -19.0516  -25.8541   22.7240 C   0  0  0  0  0  0  0  0  0  0  0  0
  -29.3488  -27.4967   23.5956 C   0  0  0  0  0  0  0  0  0  0  0  0
  -29.0597  -29.1278   25.4729 C   0  0  0  0  0  0  0  0  0  0  0  0
  -30.6138  -29.6541   23.5939 C   0  0  0  0  0  0  0  0  0  0  0  0
  -25.1964  -33.7289   22.6346 C   0  0  0  0  0  0  0  0  0  0  0  0
  -24.0849  -21.5291   23.0970 C   0  0  0  0  0  0  0  0  0  0  0  0
  -23.4825  -21.2343   24.4755 C   0  0  0  0  0  0  0  0  0  0  0  0
  -22.5354  -20.0292   24.4703 C   0  0  0  0  0  0  0  0  0  0  0  0
  -21.9835  -19.7542   25.8714 C   0  0  0  0  0  0  0  0  0  0  0  0
  -20.9747  -18.6025   25.9126 C   0  0  0  0  0  0  0  0  0  0  0  0
  -21.5743  -17.2527   25.5089 C   0  0  0  0  0  0  0  0  0  0  0  0
  -20.5294  -16.1352   25.5987 C   0  0  0  0  0  0  0  0  0  0  0  0
  -21.1040  -14.7606   25.2689 C   0  0  0  0  0  0  0  0  0  0  0  0
  -21.5366  -26.1581   22.4588 C   0  0  0  0  0  0  0  0  0  1  0  0
  -28.1181  -29.7311   23.1968 C   0  0  1  0  0  0  0  0  0  0  0  0
  -27.0484  -33.2177   24.2308 C   0  0  2  0  0  0  0  0  0  0  0  0
  -20.3957  -25.1511   22.5866 C   0  0  2  0  0  0  0  0  0  0  0  0
  -29.2630  -28.9951   23.9485 C   0  0  0  0  0  0  0  0  0  0  0  0
  -25.4264  -14.9587   20.0809 N   0  0  0  0  0  0  0  0  0  0  0  0
  -25.0810  -13.7037   20.4156 N   0  0  0  0  0  0  0  0  0  0  0  0
  -27.1834  -28.9974   21.0261 N   0  0  0  0  0  0  0  0  0  0  0  0
  -21.4890  -14.2509   21.6015 N   0  0  0  0  0  0  0  0  0  0  0  0
  -25.9609  -11.5333   20.7697 N   0  0  0  0  0  0  0  0  0  0  0  0
  -29.6022  -13.9665   19.6665 N   0  0  0  0  0  0  0  0  0  0  0  0
  -20.3629  -24.3150   21.4267 N   0  0  0  0  0  0  0  0  0  0  0  0
  -28.0526  -26.8093   18.2417 N   0  0  0  0  0  0  0  0  0  0  0  0
  -28.0302  -31.1573   23.4911 N   0  0  0  0  0  0  0  0  0  0  0  0
  -21.6272  -14.6787   23.9234 N   0  0  0  0  0  0  0  0  0  0  0  0
  -25.7549  -33.9201   23.9979 N   0  3  0  0  0  0  0  0  0  0  0  0
  -28.8653  -11.8701   20.2331 O   0  0  0  0  0  0  0  0  0  0  0  0
  -27.9140  -26.5931   20.5561 O   0  0  0  0  0  0  0  0  0  0  0  0
  -29.2525  -30.0660   21.1408 O   0  0  0  0  0  0  0  0  0  0  0  0
  -25.8476  -31.1216   24.2734 O   0  0  0  0  0  0  0  0  0  0  0  0
  -19.6489  -13.9930   22.9891 O   0  0  0  0  0  0  0  0  0  0  0  0
  -29.6836  -19.3991   18.4354 O   0  0  0  0  0  0  0  0  0  0  0  0
  -21.3613  -26.9512   21.2899 O   0  0  0  0  0  0  0  0  0  1  0  0
  -28.6387  -24.1063   21.1102 F   0  0  0  0  0  0  0  0  0  0  0  0
  -31.6669  -20.6871   19.8673 F   0  0  0  0  0  0  0  0  0  0  0  0
  -23.8104  -20.0356   20.7132 F   0  0  0  0  0  0  0  0  0  0  0  0
  -20.2421  -22.7336   19.1494 F   0  0  0  0  0  0  0  0  0  0  0  0
  1  2  1  0  0  0  0
  1  5  2  0  0  0  0
  2  6  2  0  0  0  0
  3  8  2  0  0  0  0
  3 16  1  0  0  0  0
  4  9  1  0  0  0  0
  4 16  2  0  0  0  0
  5 18  1  0  0  0  0
  6 20  1  0  0  0  0
  7 10  2  0  0  0  0
  7 19  1  0  0  0  0
  8 25  1  0  0  0  0
  9 25  2  0  0  0  0
 10 26  1  0  0  0  0
 11 12  2  0  0  0  0
 11 27  1  0  0  0  0
 12 28  1  0  0  0  0
 13 21  1  0  0  0  0
 13 26  2  0  0  0  0
 14 22  2  0  0  0  0
 14 24  1  0  0  0  0
 15 28  2  0  0  0  0
 15 29  1  0  0  0  0
 16 32  1  0  0  0  0
 17 32  1  0  0  0  0
 17 33  2  0  0  0  0
 17 34  1  0  0  0  0
 18 20  2  0  0  0  0
 18 39  1  0  0  0  0
 19 21  2  0  0  0  0
 19 40  1  0  0  0  0
 20 48  1  0  0  0  0
 21 41  1  0  0  0  0
 22 30  1  0  0  0  0
 22 58  1  0  0  0  0
 23 30  2  0  0  0  0
 23 31  1  0  0  0  0
 23 51  1  0  0  0  0
 24 31  2  0  0  0  0
 24 77  1  0  0  0  0
 25 87  1  0  0  0  0
 26 88  1  0  0  0  0
 27 29  2  0  0  0  0
 27 87  1  0  0  0  0
 28 89  1  0  0  0  0
 29 90  1  0  0  0  0
 30 91  1  0  0  0  0
 31 92  1  0  0  0  0
 32 71  2  0  0  0  0
 33 72  1  0  0  0  0
 33 75  1  0  0  0  0
 34 76  1  0  0  0  0
 34 82  2  0  0  0  0
 35 49  1  0  0  0  0
 35 78  1  0  0  0  0
 35 83  2  0  0  0  0
 36 67  1  0  0  0  0
 36 73  1  0  0  0  0
 36 84  2  0  0  0  0
 37 68  1  0  0  0  0
 37 79  1  0  0  0  0
 37 85  2  0  0  0  0
 38 74  1  0  0  0  0
 38 80  1  0  0  0  0
 38 86  2  0  0  0  0
 39 42  1  0  0  0  0
 40 49  1  0  0  0  0
 41 73  1  0  0  0  0
 42 44  1  0  0  0  0
 43 45  1  0  0  0  0
 43 46  1  0  0  0  0
 44 48  1  0  0  0  0
 45 50  1  0  0  0  0
 46 74  1  0  0  0  0
 47 50  1  0  0  0  0
 47 74  1  0  0  0  0
 48 78  1  0  0  0  0
 49 73  1  0  0  0  0
 50 72  1  0  0  0  0
 52 68  1  0  0  0  0
 53 69  1  0  0  0  0
 54 70  1  0  0  0  0
 55 70  1  0  0  0  0
 56 70  1  0  0  0  0
 57 81  1  0  0  0  0
 58 59  1  0  0  0  0
 59 60  1  0  0  0  0
 60 61  1  0  0  0  0
 61 62  1  0  0  0  0
 62 63  1  0  0  0  0
 63 64  1  0  0  0  0
 64 65  1  0  0  0  0
 65 80  1  0  0  0  0
 66 69  1  0  0  0  0
 66 88  1  0  0  0  0
 67 70  1  0  0  0  0
 67 79  1  0  0  0  0
 68 81  1  0  0  0  0
 69 77  1  0  0  0  0
 71 72  1  0  0  0  0
M  CHG  1  81   1
M  ISO  4  38 100  66 101  80 100  88 101
M  END
> <Batch ID>
0021

> <Smiles>
CNC(C)C(=O)NC(C(=O)N1Cc2cc([101O:1][101CH2:1]C(C)Nc3cc(CCCCCCCC[100NH:0][100C:0](=O)N4CCCC(n5nc(-c6ccc(Oc7ccc(F)cc7F)cc6)c(C(N)=O)c5N)C4)c(F)c(C)c3F)ccc2CC1C(=O)NC1CCCc2ccccc21)C(C)(C)C

> <Shape>
0.248

> <Color>
0.084

> <Negative vol penalty>
0.000

$$$$

  -OEChem-04052316123D

 88 96  0     1  0  0  0  0  0999 V2000
  -21.8680  -23.5528   18.2594 C   0  0  0  0  0  0  0  0  0  0  0  0
  -22.6242  -22.3916   18.3826 C   0  0  0  0  0  0  0  0  0  0  0  0
  -23.0558  -30.0490   19.7782 C   0  0  0  0  0  0  0  0  0  0  0  0
  -23.4565  -28.8508   21.8375 C   0  0  0  0  0  0  0  0  0  0  0  0
  -21.8492  -24.4843   19.2966 C   0  0  0  0  0  0  0  0  0  0  0  0
  -23.3628  -22.1617   19.5428 C   0  0  0  0  0  0  0  0  0  0  0  0
  -22.8809  -17.4165   21.2444 C   0  0  0  0  0  0  0  0  0  0  0  0
  -21.7532  -30.3262   20.1929 C   0  0  0  0  0  0  0  0  0  0  0  0
  -22.1539  -29.1281   22.2523 C   0  0  0  0  0  0  0  0  0  0  0  0
  -23.6145  -16.4278   20.5901 C   0  0  0  0  0  0  0  0  0  0  0  0
  -19.0429  -27.9503   21.6479 C   0  0  0  0  0  0  0  0  0  0  0  0
  -18.3052  -26.9073   22.2078 C   0  0  0  0  0  0  0  0  0  0  0  0
  -25.2649  -16.4975   22.3481 C   0  0  0  0  0  0  0  0  0  0  0  0
  -18.0805  -28.1665   24.2574 C   0  0  0  0  0  0  0  0  0  0  0  0
  -23.9074  -29.3112   20.6004 C   0  0  0  0  0  0  0  0  0  0  0  0
  -26.4027  -29.8030   20.4020 C   0  0  0  0  0  0  0  0  0  0  0  0
  -22.5803  -24.2612   20.4740 C   0  0  0  0  0  0  0  0  0  0  0  0
  -23.3401  -17.9617   22.4520 C   0  0  0  0  0  0  0  0  0  0  0  0
  -23.3548  -23.0918   20.5962 C   0  0  0  0  0  0  0  0  0  0  0  0
  -24.5340  -17.4911   23.0171 C   0  0  0  0  0  0  0  0  0  0  0  0
  -30.2597  -16.2337   20.8630 C   0  0  0  0  0  0  0  0  0  0  0  0
  -29.7687  -15.7897   19.6403 C   0  0  0  0  0  0  0  0  0  0  0  0
  -30.8442  -17.4920   20.9556 C   0  0  0  0  0  0  0  0  0  0  0  0
  -21.3023  -29.8658   21.4300 C   0  0  0  0  0  0  0  0  0  0  0  0
  -24.8082  -15.9702   21.1404 C   0  0  0  0  0  0  0  0  0  0  0  0
  -19.2995  -29.1014   22.3927 C   0  0  0  0  0  0  0  0  0  0  0  0
  -17.8240  -27.0154   23.5125 C   0  0  0  0  0  0  0  0  0  0  0  0
  -18.8183  -29.2095   23.6975 C   0  0  0  0  0  0  0  0  0  0  0  0
  -25.2529  -29.0239   20.1722 C   0  0  0  0  0  0  0  0  0  0  0  0
  -29.8855  -16.6352   18.5488 C   0  0  0  0  0  0  0  0  0  0  0  0
  -30.9130  -18.2612   19.8052 C   0  0  0  0  0  0  0  0  0  0  0  0
  -27.4182  -29.1028   19.7980 C   0  0  0  0  0  0  0  0  0  0  0  0
  -26.5405  -31.0482   21.0992 C   0  0  0  0  0  0  0  0  0  0  0  0
  -24.2126  -20.8625   23.4153 C   0  0  0  0  0  0  0  0  0  0  0  0
  -24.3881  -19.4210   26.3159 C   0  0  0  0  0  0  0  0  0  0  0  0
  -24.7748  -16.5372   28.0994 C   0  0  0  0  0  0  0  0  0  0  0  0
  -30.0553  -24.3986   18.8687 C   0  0  0  0  0  0  0  0  0  0  0  0
  -22.5664  -25.3193   21.5487 C   0  0  0  0  0  0  0  0  0  0  0  0
  -22.5235  -19.0085   23.1590 C   0  0  0  0  0  0  0  0  0  0  0  0
  -25.0601  -18.0294   24.3216 C   0  0  0  0  0  0  0  0  0  0  0  0
  -23.0793  -24.8236   22.8983 C   0  0  0  0  0  0  0  0  0  0  0  0
  -27.2741  -25.1287   16.6711 C   0  0  0  0  0  0  0  0  0  0  0  0
  -24.3739  -24.0365   22.7210 C   0  0  0  0  0  0  0  0  0  0  0  0
  -26.5936  -26.2799   17.4139 C   0  0  0  0  0  0  0  0  0  0  0  0
  -27.8195  -24.0883   17.6448 C   0  0  0  0  0  0  0  0  0  0  0  0
  -28.0744  -25.7846   19.4143 C   0  0  0  0  0  0  0  0  0  0  0  0
  -24.1497  -22.7950   21.8492 C   0  0  1  0  0  0  0  0  0  0  0  0
  -23.3465  -19.8586   24.1221 C   0  0  1  0  0  0  0  0  0  0  0  0
  -27.5215  -26.8813   18.4860 C   0  0  2  0  0  0  0  0  0  0  0  0
  -31.3786  -17.9880   22.2587 C   0  0  0  0  0  0  0  0  0  0  0  0
  -29.3766  -16.2132   17.2093 C   0  0  0  0  0  0  0  0  0  0  0  0
  -31.4875  -14.7000   22.4208 C   0  0  0  0  0  0  0  0  0  0  0  0
  -24.9132  -15.6808   30.4541 C   0  0  0  0  0  0  0  0  0  0  0  0
  -27.2395  -20.4852   26.5328 C   0  0  0  0  0  0  0  0  0  0  0  0
  -27.6338  -18.8515   28.3886 C   0  0  0  0  0  0  0  0  0  0  0  0
  -25.9072  -20.6337   28.6440 C   0  0  0  0  0  0  0  0  0  0  0  0
  -22.3794  -14.8357   27.7445 C   0  0  0  0  0  0  0  0  0  0  0  0
  -30.1579  -15.3610   22.0732 C   0  0  0  0  0  0  0  0  0  0  0  0
  -29.1288  -14.4308   19.5079 C   0  0  0  0  0  0  0  0  0  0  0  0
  -27.6016  -14.4748   19.4226 C   0  0  0  0  0  0  0  0  0  0  0  0
  -32.1072  -21.8124   19.2368 C   0  0  0  0  0  0  0  0  0  0  0  0
  -31.2768  -20.5677   18.9258 C   0  0  0  0  0  0  0  0  0  0  0  0
  -31.9503  -22.9363   18.2148 C   0  0  0  0  0  0  0  0  0  0  0  0
  -26.9423  -15.0264   20.6813 C   0  0  0  0  0  0  0  0  0  1  0  0
  -25.4645  -18.6934   27.0848 C   0  0  1  0  0  0  0  0  0  0  0  0
  -23.9990  -15.9669   29.2730 C   0  0  2  0  0  0  0  0  0  0  0  0
  -26.5526  -19.6570   27.6370 C   0  0  0  0  0  0  0  0  0  0  0  0
  -25.5128  -27.9139   19.4764 N   0  0  0  0  0  0  0  0  0  0  0  0
  -30.4470  -17.8639   18.6000 N   0  0  0  0  0  0  0  0  0  0  0  0
  -26.8375  -27.9904   19.2636 N   0  0  0  0  0  0  0  0  0  0  0  0
  -24.2289  -19.0562   24.9715 N   0  0  0  0  0  0  0  0  0  0  0  0
  -28.7098  -24.7225   18.6272 N   0  0  0  0  0  0  0  0  0  0  0  0
  -28.7423  -29.3363   19.6770 N   0  0  0  0  0  0  0  0  0  0  0  0
  -25.3954  -31.6303   21.6599 N   0  0  0  0  0  0  0  0  0  0  0  0
  -31.5100  -19.5438   19.8912 N   0  0  0  0  0  0  0  0  0  0  0  0
  -23.5124  -21.7467   22.6170 N   0  0  0  0  0  0  0  0  0  0  0  0
  -24.7783  -17.9160   28.1110 N   0  0  0  0  0  0  0  0  0  0  0  0
  -30.5791  -23.3771   18.0858 N   0  0  0  0  0  0  0  0  0  0  0  0
  -23.3262  -14.6963   28.8808 N   0  3  0  0  0  0  0  0  0  0  0  0
  -27.6435  -31.6358   21.2073 O   0  0  0  0  0  0  0  0  0  0  0  0
  -25.4263  -20.8377   23.5830 O   0  0  0  0  0  0  0  0  0  0  0  0
  -23.7088  -20.2764   26.8890 O   0  0  0  0  0  0  0  0  0  0  0  0
  -25.3260  -15.8302   27.2586 O   0  0  0  0  0  0  0  0  0  0  0  0
  -30.7411  -24.9806   19.7160 O   0  0  0  0  0  0  0  0  0  0  0  0
  -20.0314  -30.1364   21.8352 O   0  0  0  0  0  0  0  0  0  0  0  0
  -25.5265  -15.0058   20.5035 O   0  0  0  0  0  0  0  0  0  1  0  0
  -17.1143  -26.0144   24.0495 F   0  0  0  0  0  0  0  0  0  0  0  0
  -19.0606  -30.3134   24.4176 F   0  0  0  0  0  0  0  0  0  0  0  0
  1  2  1  0  0  0  0
  1  5  2  0  0  0  0
  2  6  2  0  0  0  0
  3  8  2  0  0  0  0
  3 15  1  0  0  0  0
  4  9  1  0  0  0  0
  4 15  2  0  0  0  0
  5 17  1  0  0  0  0
  6 19  1  0  0  0  0
  7 10  2  0  0  0  0
  7 18  1  0  0  0  0
  8 24  1  0  0  0  0
  9 24  2  0  0  0  0
 10 25  1  0  0  0  0
 11 12  2  0  0  0  0
 11 26  1  0  0  0  0
 12 27  1  0  0  0  0
 13 20  1  0  0  0  0
 13 25  2  0  0  0  0
 14 27  2  0  0  0  0
 14 28  1  0  0  0  0
 15 29  1  0  0  0  0
 16 29  1  0  0  0  0
 16 32  2  0  0  0  0
 16 33  1  0  0  0  0
 17 19  2  0  0  0  0
 17 38  1  0  0  0  0
 18 20  2  0  0  0  0
 18 39  1  0  0  0  0
 19 47  1  0  0  0  0
 20 40  1  0  0  0  0
 21 22  2  0  0  0  0
 21 23  1  0  0  0  0
 21 58  1  0  0  0  0
 22 30  1  0  0  0  0
 22 59  1  0  0  0  0
 23 31  2  0  0  0  0
 23 50  1  0  0  0  0
 24 85  1  0  0  0  0
 25 86  1  0  0  0  0
 26 28  2  0  0  0  0
 26 85  1  0  0  0  0
 27 87  1  0  0  0  0
 28 88  1  0  0  0  0
 29 68  2  0  0  0  0
 30 51  1  0  0  0  0
 30 69  2  0  0  0  0
 31 69  1  0  0  0  0
 31 75  1  0  0  0  0
 32 70  1  0  0  0  0
 32 73  1  0  0  0  0
 33 74  1  0  0  0  0
 33 80  2  0  0  0  0
 34 48  1  0  0  0  0
 34 76  1  0  0  0  0
 34 81  2  0  0  0  0
 35 65  1  0  0  0  0
 35 71  1  0  0  0  0
 35 82  2  0  0  0  0
 36 66  1  0  0  0  0
 36 77  1  0  0  0  0
 36 83  2  0  0  0  0
 37 72  1  0  0  0  0
 37 78  1  0  0  0  0
 37 84  2  0  0  0  0
 38 41  1  0  0  0  0
 39 48  1  0  0  0  0
 40 71  1  0  0  0  0
 41 43  1  0  0  0  0
 42 44  1  0  0  0  0
 42 45  1  0  0  0  0
 43 47  1  0  0  0  0
 44 49  1  0  0  0  0
 45 72  1  0  0  0  0
 46 49  1  0  0  0  0
 46 72  1  0  0  0  0
 47 76  1  0  0  0  0
 48 71  1  0  0  0  0
 49 70  1  0  0  0  0
 52 58  1  0  0  0  0
 53 66  1  0  0  0  0
 54 67  1  0  0  0  0
 55 67  1  0  0  0  0
 56 67  1  0  0  0  0
 57 79  1  0  0  0  0
 59 60  1  0  0  0  0
 60 64  1  0  0  0  0
 61 62  1  0  0  0  0
 61 63  1  0  0  0  0
 62 75  1  0  0  0  0
 63 78  1  0  0  0  0
 64 86  1  0  0  0  0
 65 67  1  0  0  0  0
 65 77  1  0  0  0  0
 66 79  1  0  0  0  0
 68 70  1  0  0  0  0
M  CHG  1  79   1
M  ISO  4  37 100  64 101  78 100  86 101
M  END
> <Batch ID>
0021

> <Smiles>
CCc1c(C)c(NCCC[100NH:0][100C:0](=O)N2CCCC(n3nc(-c4ccc(Oc5ccc(F)cc5F)cc4)c(C(N)=O)c3N)C2)nc(C)c1CC[101CH2:1][101O:1]c1ccc2c(c1)CN(C(=O)C(NC(=O)C(C)NC)C(C)(C)C)C(C(=O)NC1CCCc3ccccc31)C2

> <Shape>
0.199

> <Color>
0.057

> <Negative vol penalty>
0.000

$$$$

  -OEChem-04052316123D

 85 93  0     1  0  0  0  0  0999 V2000
  -29.4532  -31.5061   26.2391 C   0  0  0  0  0  0  0  0  0  0  0  0
  -29.2712  -30.5603   25.2351 C   0  0  0  0  0  0  0  0  0  0  0  0
  -24.0241   -8.9230   20.9901 C   0  0  0  0  0  0  0  0  0  0  0  0
  -22.8502  -11.0291   20.8376 C   0  0  0  0  0  0  0  0  0  0  0  0
  -28.3657  -31.9291   27.0021 C   0  0  0  0  0  0  0  0  0  0  0  0
  -28.0016  -30.0362   24.9944 C   0  0  0  0  0  0  0  0  0  0  0  0
  -26.8902  -29.8270   20.0583 C   0  0  0  0  0  0  0  0  0  0  0  0
  -23.0343   -8.4329   21.8420 C   0  0  0  0  0  0  0  0  0  0  0  0
  -21.8603  -10.5391   21.6895 C   0  0  0  0  0  0  0  0  0  0  0  0
  -27.4521  -28.7845   19.3227 C   0  0  0  0  0  0  0  0  0  0  0  0
  -19.9049   -7.1826   21.5654 C   0  0  0  0  0  0  0  0  0  0  0  0
  -19.4221   -5.8961   21.3258 C   0  0  0  0  0  0  0  0  0  0  0  0
  -25.3720  -27.5712   19.4645 C   0  0  0  0  0  0  0  0  0  0  0  0
  -28.7801  -19.7100   19.1444 C   0  0  0  0  0  0  0  0  0  0  0  0
  -27.3026  -19.6871   21.0559 C   0  0  0  0  0  0  0  0  0  0  0  0
  -20.1457   -5.2145   23.5278 C   0  0  0  0  0  0  0  0  0  0  0  0
  -23.9320  -10.2211   20.4879 C   0  0  0  0  0  0  0  0  0  0  0  0
  -24.9855  -10.6439   18.2034 C   0  0  0  0  0  0  0  0  0  0  0  0
  -27.0804  -31.4171   26.7642 C   0  0  0  0  0  0  0  0  0  0  0  0
  -25.5661  -29.7446   20.5126 C   0  0  0  0  0  0  0  0  0  0  0  0
  -26.8961  -30.4518   25.7559 C   0  0  0  0  0  0  0  0  0  0  0  0
  -24.7947  -28.6152   20.2034 C   0  0  0  0  0  0  0  0  0  0  0  0
  -28.8962  -18.3219   19.2175 C   0  0  0  0  0  0  0  0  0  0  0  0
  -27.4187  -18.2990   21.1289 C   0  0  0  0  0  0  0  0  0  0  0  0
  -27.9833  -20.3926   20.0637 C   0  0  0  0  0  0  0  0  0  0  0  0
  -28.2155  -17.6164   20.2097 C   0  0  0  0  0  0  0  0  0  0  0  0
  -21.9524   -9.2410   22.1917 C   0  0  0  0  0  0  0  0  0  0  0  0
  -26.6939  -27.6551   19.0282 C   0  0  0  0  0  0  0  0  0  0  0  0
  -20.5082   -7.4851   22.7862 C   0  0  0  0  0  0  0  0  0  0  0  0
  -19.5425   -4.9121   22.3070 C   0  0  0  0  0  0  0  0  0  0  0  0
  -20.6285   -6.5011   23.7674 C   0  0  0  0  0  0  0  0  0  0  0  0
  -24.9545  -10.7281   19.6083 C   0  0  0  0  0  0  0  0  0  0  0  0
  -26.1547  -11.2708   17.8477 C   0  0  0  0  0  0  0  0  0  0  0  0
  -24.0419  -10.0521   17.3007 C   0  0  0  0  0  0  0  0  0  0  0  0
  -24.1722  -29.7192   23.3692 C   0  0  0  0  0  0  0  0  0  0  0  0
  -21.4492  -29.8231   21.6094 C   0  0  0  0  0  0  0  0  0  0  0  0
  -19.8951  -29.1954   18.6366 C   0  0  0  0  0  0  0  0  0  0  0  0
  -29.5006  -15.4661   20.4762 C   0  0  0  0  0  0  0  0  0  0  0  0
  -25.9439  -31.8698   27.6463 C   0  0  0  0  0  0  0  0  0  0  0  0
  -24.9662  -30.8894   21.2820 C   0  0  0  0  0  0  0  0  0  0  0  0
  -23.3622  -28.4866   20.6505 C   0  0  0  0  0  0  0  0  0  0  0  0
  -24.5650  -31.5428   27.0789 C   0  0  0  0  0  0  0  0  0  0  0  0
  -30.5523  -12.2089   19.4956 C   0  0  0  0  0  0  0  0  0  0  0  0
  -24.5207  -30.1017   26.5808 C   0  0  0  0  0  0  0  0  0  0  0  0
  -29.2389  -11.4536   19.2794 C   0  0  0  0  0  0  0  0  0  0  0  0
  -30.4603  -13.1821   20.6695 C   0  0  0  0  0  0  0  0  0  0  0  0
  -28.0190  -13.3653   20.3949 C   0  0  0  0  0  0  0  0  0  0  0  0
  -25.5300  -29.8782   25.4481 C   0  0  1  0  0  0  0  0  0  0  0  0
  -23.7706  -30.4751   22.1343 C   0  0  1  0  0  0  0  0  0  0  0  0
  -28.0423  -12.4202   19.1825 C   0  0  2  0  0  0  0  0  0  0  0  0
  -29.7577  -17.6191   18.2188 C   0  0  0  0  0  0  0  0  0  0  0  0
  -27.3582  -17.6997   23.5628 C   0  0  0  0  0  0  0  0  0  0  0  0
  -17.6569  -29.3505   17.5125 C   0  0  0  0  0  0  0  0  0  0  0  0
  -20.5067  -27.3653   23.1524 C   0  0  0  0  0  0  0  0  0  0  0  0
  -18.7667  -27.0107   21.3875 C   0  0  0  0  0  0  0  0  0  0  0  0
  -18.7406  -29.0923   22.7618 C   0  0  0  0  0  0  0  0  0  0  0  0
  -20.9281  -31.0540   16.5781 C   0  0  0  0  0  0  0  0  0  0  0  0
  -26.6781  -17.5707   22.2036 C   0  0  0  0  0  0  0  0  0  0  0  0
  -28.2511  -24.0644   19.2247 C   0  0  0  0  0  0  0  0  0  0  0  0
  -28.9771  -24.9602   18.2199 C   0  0  0  0  0  0  0  0  0  0  0  0
  -28.5344  -22.5813   19.0000 C   0  0  0  0  0  0  0  0  0  0  0  0
  -28.6465  -26.4310   18.4407 C   0  0  0  0  0  0  0  0  0  1  0  0
  -20.5297  -28.7921   21.0007 C   0  0  1  0  0  0  0  0  0  0  0  0
  -18.9808  -30.0502   17.7777 C   0  0  2  0  0  0  0  0  0  0  0  0
  -19.6635  -28.0664   22.0687 C   0  0  0  0  0  0  0  0  0  0  0  0
  -26.0194  -11.3586   20.1108 N   0  0  0  0  0  0  0  0  0  0  0  0
  -26.7306  -11.6762   19.0156 N   0  0  0  0  0  0  0  0  0  0  0  0
  -22.8228  -29.6297   21.4055 N   0  0  0  0  0  0  0  0  0  0  0  0
  -29.3062  -14.0690   20.5071 N   0  0  0  0  0  0  0  0  0  0  0  0
  -26.7361  -11.5092   16.6529 N   0  0  0  0  0  0  0  0  0  0  0  0
  -22.8941   -9.4501   17.8340 N   0  0  0  0  0  0  0  0  0  0  0  0
  -28.3345  -16.2064   20.2845 N   0  0  0  0  0  0  0  0  0  0  0  0
  -27.8674  -21.7717   19.9917 N   0  0  0  0  0  0  0  0  0  0  0  0
  -25.0223  -30.4180   24.2050 N   0  0  0  0  0  0  0  0  0  0  0  0
  -19.7573  -29.4877   19.9770 N   0  0  0  0  0  0  0  0  0  0  0  0
  -19.6271  -30.3452   16.4677 N   0  3  0  0  0  0  0  0  0  0  0  0
  -24.2196  -10.0425   16.0590 O   0  0  0  0  0  0  0  0  0  0  0  0
  -23.7415  -28.5865   23.5510 O   0  0  0  0  0  0  0  0  0  0  0  0
  -20.9662  -30.7692   22.2364 O   0  0  0  0  0  0  0  0  0  0  0  0
  -20.6530  -28.3501   18.1658 O   0  0  0  0  0  0  0  0  0  0  0  0
  -30.6227  -15.9677   20.5827 O   0  0  0  0  0  0  0  0  0  0  0  0
  -20.9863   -8.7630   23.0228 O   0  0  0  0  0  0  0  0  0  0  0  0
  -27.2402  -26.6358   18.3109 O   0  0  0  0  0  0  0  0  0  1  0  0
  -19.0774   -3.6771   22.0774 F   0  0  0  0  0  0  0  0  0  0  0  0
  -21.2060   -6.7860   24.9426 F   0  0  0  0  0  0  0  0  0  0  0  0
  1  2  1  0  0  0  0
  1  5  2  0  0  0  0
  2  6  2  0  0  0  0
  3  8  2  0  0  0  0
  3 17  1  0  0  0  0
  4  9  1  0  0  0  0
  4 17  2  0  0  0  0
  5 19  1  0  0  0  0
  6 21  1  0  0  0  0
  7 10  2  0  0  0  0
  7 20  1  0  0  0  0
  8 27  1  0  0  0  0
  9 27  2  0  0  0  0
 10 28  1  0  0  0  0
 11 12  2  0  0  0  0
 11 29  1  0  0  0  0
 12 30  1  0  0  0  0
 13 22  1  0  0  0  0
 13 28  2  0  0  0  0
 14 23  2  0  0  0  0
 14 25  1  0  0  0  0
 15 24  1  0  0  0  0
 15 25  2  0  0  0  0
 16 30  2  0  0  0  0
 16 31  1  0  0  0  0
 17 32  1  0  0  0  0
 18 32  1  0  0  0  0
 18 33  2  0  0  0  0
 18 34  1  0  0  0  0
 19 21  2  0  0  0  0
 19 39  1  0  0  0  0
 20 22  2  0  0  0  0
 20 40  1  0  0  0  0
 21 48  1  0  0  0  0
 22 41  1  0  0  0  0
 23 26  1  0  0  0  0
 23 51  1  0  0  0  0
 24 26  2  0  0  0  0
 24 58  1  0  0  0  0
 25 73  1  0  0  0  0
 26 72  1  0  0  0  0
 27 82  1  0  0  0  0
 28 83  1  0  0  0  0
 29 31  2  0  0  0  0
 29 82  1  0  0  0  0
 30 84  1  0  0  0  0
 31 85  1  0  0  0  0
 32 66  2  0  0  0  0
 33 67  1  0  0  0  0
 33 70  1  0  0  0  0
 34 71  1  0  0  0  0
 34 77  2  0  0  0  0
 35 49  1  0  0  0  0
 35 74  1  0  0  0  0
 35 78  2  0  0  0  0
 36 63  1  0  0  0  0
 36 68  1  0  0  0  0
 36 79  2  0  0  0  0
 37 64  1  0  0  0  0
 37 75  1  0  0  0  0
 37 80  2  0  0  0  0
 38 69  1  0  0  0  0
 38 72  1  0  0  0  0
 38 81  2  0  0  0  0
 39 42  1  0  0  0  0
 40 49  1  0  0  0  0
 41 68  1  0  0  0  0
 42 44  1  0  0  0  0
 43 45  1  0  0  0  0
 43 46  1  0  0  0  0
 44 48  1  0  0  0  0
 45 50  1  0  0  0  0
 46 69  1  0  0  0  0
 47 50  1  0  0  0  0
 47 69  1  0  0  0  0
 48 74  1  0  0  0  0
 49 68  1  0  0  0  0
 50 67  1  0  0  0  0
 52 58  1  0  0  0  0
 53 64  1  0  0  0  0
 54 65  1  0  0  0  0
 55 65  1  0  0  0  0
 56 65  1  0  0  0  0
 57 76  1  0  0  0  0
 59 60  1  0  0  0  0
 59 61  1  0  0  0  0
 60 62  1  0  0  0  0
 61 73  1  0  0  0  0
 62 83  1  0  0  0  0
 63 65  1  0  0  0  0
 63 75  1  0  0  0  0
 64 76  1  0  0  0  0
 66 67  1  0  0  0  0
M  CHG  1  76   1
M  ISO  4  38 100  62 101  72 100  83 101
M  END
> <Batch ID>
0021

> <Smiles>
CCc1cc(NCCC[101CH2:1][101O:1]c2ccc3c(c2)CN(C(=O)C(NC(=O)C(C)NC)C(C)(C)C)C(C(=O)NC2CCCc4ccccc42)C3)cc(C)c1[100NH:0][100C:0](=O)N1CCCC(n2nc(-c3ccc(Oc4ccc(F)cc4F)cc3)c(C(N)=O)c2N)C1

> <Shape>
0.321

> <Color>
0.088

> <Negative vol penalty>
0.000

$$$$

  -OEChem-04052316123D

 86 94  0     1  0  0  0  0  0999 V2000
  -31.2445  -18.7894   21.4134 C   0  0  0  0  0  0  0  0  0  0  0  0
  -29.9405  -19.1371   21.0753 C   0  0  0  0  0  0  0  0  0  0  0  0
  -26.2049  -29.8344   20.3855 C   0  0  0  0  0  0  0  0  0  0  0  0
  -24.9324  -27.9478   19.5741 C   0  0  0  0  0  0  0  0  0  0  0  0
  -31.6364  -17.4516   21.3897 C   0  0  0  0  0  0  0  0  0  0  0  0
  -29.0280  -18.1471   20.7123 C   0  0  0  0  0  0  0  0  0  0  0  0
  -24.5125  -18.7631   22.9203 C   0  0  0  0  0  0  0  0  0  0  0  0
  -27.3447  -29.0339   20.4594 C   0  0  0  0  0  0  0  0  0  0  0  0
  -26.0722  -27.1472   19.6480 C   0  0  0  0  0  0  0  0  0  0  0  0
  -23.6665  -19.7308   22.3804 C   0  0  0  0  0  0  0  0  0  0  0  0
  -27.8188  -25.5139   22.0381 C   0  0  0  0  0  0  0  0  0  0  0  0
  -27.6843  -24.2452   22.6020 C   0  0  0  0  0  0  0  0  0  0  0  0
  -22.4478  -18.0061   21.2144 C   0  0  0  0  0  0  0  0  0  0  0  0
  -23.0475  -25.0057   21.1476 C   0  0  0  0  0  0  0  0  0  0  0  0
  -28.4257  -23.2460   20.5310 C   0  0  0  0  0  0  0  0  0  0  0  0
  -24.9987  -29.2914   19.9429 C   0  0  0  0  0  0  0  0  0  0  0  0
  -23.3883  -30.8823   18.7669 C   0  0  0  0  0  0  0  0  0  0  0  0
  -30.7256  -16.4438   21.0356 C   0  0  0  0  0  0  0  0  0  0  0  0
  -24.3390  -17.4084   22.6021 C   0  0  0  0  0  0  0  0  0  0  0  0
  -29.4086  -16.7947   20.6825 C   0  0  0  0  0  0  0  0  0  0  0  0
  -23.2914  -17.0229   21.7536 C   0  0  0  0  0  0  0  0  0  0  0  0
  -21.9540  -24.6472   20.3672 C   0  0  0  0  0  0  0  0  0  0  0  0
  -27.2784  -27.6903   20.0906 C   0  0  0  0  0  0  0  0  0  0  0  0
  -22.6357  -19.3527   21.5250 C   0  0  0  0  0  0  0  0  0  0  0  0
  -28.2567  -25.6486   20.7205 C   0  0  0  0  0  0  0  0  0  0  0  0
  -27.9878  -23.1113   21.8485 C   0  0  0  0  0  0  0  0  0  0  0  0
  -28.5602  -24.5147   19.9670 C   0  0  0  0  0  0  0  0  0  0  0  0
  -20.7114  -25.2191   20.6167 C   0  0  0  0  0  0  0  0  0  0  0  0
  -23.8208  -30.1177   19.8669 C   0  0  0  0  0  0  0  0  0  0  0  0
  -22.8474  -25.9333   22.1573 C   0  0  0  0  0  0  0  0  0  0  0  0
  -20.6159  -26.1370   21.6502 C   0  0  0  0  0  0  0  0  0  0  0  0
  -22.2283  -31.4783   19.1978 C   0  0  0  0  0  0  0  0  0  0  0  0
  -23.9819  -31.0397   17.4713 C   0  0  0  0  0  0  0  0  0  0  0  0
  -26.1104  -15.1986   21.1590 C   0  0  0  0  0  0  0  0  0  0  0  0
  -23.6930  -13.2317   22.0591 C   0  0  0  0  0  0  0  0  0  0  0  0
  -18.2748  -29.9505   23.4578 C   0  0  0  0  0  0  0  0  0  0  0  0
  -20.4127  -12.8859   22.9348 C   0  0  0  0  0  0  0  0  0  0  0  0
  -31.2086  -15.0162   20.9787 C   0  0  0  0  0  0  0  0  0  0  0  0
  -25.2436  -16.3741   23.2140 C   0  0  0  0  0  0  0  0  0  0  0  0
  -23.0502  -15.5797   21.3967 C   0  0  0  0  0  0  0  0  0  0  0  0
  -30.0776  -13.9914   20.9452 C   0  0  0  0  0  0  0  0  0  0  0  0
  -20.0597  -33.0429   23.1560 C   0  0  0  0  0  0  0  0  0  0  0  0
  -29.0152  -14.4019   19.9305 C   0  0  0  0  0  0  0  0  0  0  0  0
  -21.2037  -32.7053   22.2008 C   0  0  0  0  0  0  0  0  0  0  0  0
  -19.7217  -31.8627   24.0615 C   0  0  0  0  0  0  0  0  0  0  0  0
  -20.5523  -30.2614   22.3681 C   0  0  0  0  0  0  0  0  0  0  0  0
  -28.3829  -15.7472   20.3073 C   0  0  1  0  0  0  0  0  0  0  0  0
  -25.2936  -15.0759   22.4142 C   0  0  1  0  0  0  0  0  0  0  0  0
  -20.9052  -31.4166   21.4144 C   0  0  2  0  0  0  0  0  0  0  0  0
  -23.9983  -26.3422   23.0146 C   0  0  0  0  0  0  0  0  0  0  0  0
  -18.7179  -11.1505   23.5779 C   0  0  0  0  0  0  0  0  0  0  0  0
  -18.1238  -29.1116   21.1312 C   0  0  0  0  0  0  0  0  0  0  0  0
  -16.7015  -28.1328   22.9435 C   0  0  0  0  0  0  0  0  0  0  0  0
  -23.4887  -12.3544   19.1438 C   0  0  0  0  0  0  0  0  0  0  0  0
  -21.2377  -11.3899   19.6645 C   0  0  0  0  0  0  0  0  0  0  0  0
  -23.2683  -10.5013   20.8088 C   0  0  0  0  0  0  0  0  0  0  0  0
  -19.9670  -14.1346   25.5808 C   0  0  0  0  0  0  0  0  0  0  0  0
  -22.1618  -23.6388   19.2656 C   0  0  0  0  0  0  0  0  0  0  0  0
  -21.6380  -22.2412   19.6031 C   0  0  0  0  0  0  0  0  0  0  0  0
  -19.1691  -27.6860   22.9667 C   0  0  0  0  0  0  0  0  0  0  0  0
  -22.3589  -21.5942   20.7800 C   0  0  0  0  0  0  0  0  0  1  0  0
  -22.3901  -12.7866   21.4400 C   0  0  1  0  0  0  0  0  0  0  0  0
  -19.7492  -12.1474   24.0833 C   0  0  2  0  0  0  0  0  0  0  0  0
  -18.0822  -28.7168   22.6124 C   0  0  0  0  0  0  0  0  0  0  0  0
  -22.6017  -11.7855   20.2693 C   0  0  0  0  0  0  0  0  0  0  0  0
  -23.0023  -30.2172   20.9177 N   0  0  0  0  0  0  0  0  0  0  0  0
  -21.6555  -26.5102   22.4296 N   0  0  0  0  0  0  0  0  0  0  0  0
  -22.0439  -31.0514   20.4799 N   0  0  0  0  0  0  0  0  0  0  0  0
  -23.9653  -14.6063   22.0152 N   0  0  0  0  0  0  0  0  0  0  0  0
  -19.4667  -30.6527   23.2779 N   0  0  0  0  0  0  0  0  0  0  0  0
  -21.3583  -32.3207   18.6013 N   0  0  0  0  0  0  0  0  0  0  0  0
  -25.1736  -30.3557   17.1949 N   0  0  0  0  0  0  0  0  0  0  0  0
  -19.3592  -26.7322   21.9229 N   0  0  0  0  0  0  0  0  0  0  0  0
  -27.4228  -15.5726   21.3760 N   0  0  0  0  0  0  0  0  0  0  0  0
  -21.5762  -12.2648   22.5326 N   0  0  0  0  0  0  0  0  0  0  0  0
  -19.0659  -13.1104   24.9924 N   0  3  0  0  0  0  0  0  0  0  0  0
  -23.4795  -31.7782   16.5906 O   0  0  0  0  0  0  0  0  0  0  0  0
  -25.5888  -14.9693   20.0741 O   0  0  0  0  0  0  0  0  0  0  0  0
  -24.4383  -12.3915   22.5693 O   0  0  0  0  0  0  0  0  0  0  0  0
  -17.3898  -30.2805   24.2517 O   0  0  0  0  0  0  0  0  0  0  0  0
  -19.9437  -13.9091   22.4413 O   0  0  0  0  0  0  0  0  0  0  0  0
  -28.3905  -26.9089   20.1624 O   0  0  0  0  0  0  0  0  0  0  0  0
  -21.8089  -20.2953   20.9962 O   0  0  0  0  0  0  0  0  0  1  0  0
  -27.8600  -21.8932   22.3906 F   0  0  0  0  0  0  0  0  0  0  0  0
  -28.9825  -24.6379   18.7012 F   0  0  0  0  0  0  0  0  0  0  0  0
  -19.3409  -24.7859   19.6564 Cl  0  0  0  0  0  0  0  0  0  0  0  0
  1  2  1  0  0  0  0
  1  5  2  0  0  0  0
  2  6  2  0  0  0  0
  3  8  2  0  0  0  0
  3 16  1  0  0  0  0
  4  9  1  0  0  0  0
  4 16  2  0  0  0  0
  5 18  1  0  0  0  0
  6 20  1  0  0  0  0
  7 10  2  0  0  0  0
  7 19  1  0  0  0  0
  8 23  1  0  0  0  0
  9 23  2  0  0  0  0
 10 24  1  0  0  0  0
 11 12  2  0  0  0  0
 11 25  1  0  0  0  0
 12 26  1  0  0  0  0
 13 21  1  0  0  0  0
 13 24  2  0  0  0  0
 14 22  1  0  0  0  0
 14 30  2  0  0  0  0
 15 26  2  0  0  0  0
 15 27  1  0  0  0  0
 16 29  1  0  0  0  0
 17 29  1  0  0  0  0
 17 32  2  0  0  0  0
 17 33  1  0  0  0  0
 18 20  2  0  0  0  0
 18 38  1  0  0  0  0
 19 21  2  0  0  0  0
 19 39  1  0  0  0  0
 20 47  1  0  0  0  0
 21 40  1  0  0  0  0
 22 28  2  0  0  0  0
 22 58  1  0  0  0  0
 23 82  1  0  0  0  0
 24 83  1  0  0  0  0
 25 27  2  0  0  0  0
 25 82  1  0  0  0  0
 26 84  1  0  0  0  0
 27 85  1  0  0  0  0
 28 31  1  0  0  0  0
 28 86  1  0  0  0  0
 29 66  2  0  0  0  0
 30 50  1  0  0  0  0
 30 67  1  0  0  0  0
 31 67  2  0  0  0  0
 31 73  1  0  0  0  0
 32 68  1  0  0  0  0
 32 71  1  0  0  0  0
 33 72  1  0  0  0  0
 33 77  2  0  0  0  0
 34 48  1  0  0  0  0
 34 74  1  0  0  0  0
 34 78  2  0  0  0  0
 35 62  1  0  0  0  0
 35 69  1  0  0  0  0
 35 79  2  0  0  0  0
 36 64  1  0  0  0  0
 36 70  1  0  0  0  0
 36 80  2  0  0  0  0
 37 63  1  0  0  0  0
 37 75  1  0  0  0  0
 37 81  2  0  0  0  0
 38 41  1  0  0  0  0
 39 48  1  0  0  0  0
 40 69  1  0  0  0  0
 41 43  1  0  0  0  0
 42 44  1  0  0  0  0
 42 45  1  0  0  0  0
 43 47  1  0  0  0  0
 44 49  1  0  0  0  0
 45 70  1  0  0  0  0
 46 49  1  0  0  0  0
 46 70  1  0  0  0  0
 47 74  1  0  0  0  0
 48 69  1  0  0  0  0
 49 68  1  0  0  0  0
 51 63  1  0  0  0  0
 52 64  1  0  0  0  0
 53 64  1  0  0  0  0
 54 65  1  0  0  0  0
 55 65  1  0  0  0  0
 56 65  1  0  0  0  0
 57 76  1  0  0  0  0
 58 59  1  0  0  0  0
 59 61  1  0  0  0  0
 60 64  1  0  0  0  0
 60 73  1  0  0  0  0
 61 83  1  0  0  0  0
 62 65  1  0  0  0  0
 62 75  1  0  0  0  0
 63 76  1  0  0  0  0
 66 68  1  0  0  0  0
M  CHG  1  76   1
M  ISO  4  36 100  61 101  64 100  83 101
M  END
> <Batch ID>
0021

> <Smiles>
CNC(C)C(=O)NC(C(=O)N1Cc2cc([101O:1][101CH2:1]CCc3cc(C)nc(NC[100C:0](C)(C)[100C:0](=O)N4CCCC(n5nc(-c6ccc(Oc7ccc(F)cc7F)cc6)c(C(N)=O)c5N)C4)c3Cl)ccc2CC1C(=O)NC1CCCc2ccccc21)C(C)(C)C

> <Shape>
0.243

> <Color>
0.060

> <Negative vol penalty>
0.000

$$$$

  -OEChem-04052316123D

 82 90  0     1  0  0  0  0  0999 V2000
  -26.5278  -23.3406   28.5621 C   0  0  0  0  0  0  0  0  0  0  0  0
  -26.8317  -23.6157   27.2327 C   0  0  0  0  0  0  0  0  0  0  0  0
  -27.1032  -12.4266   21.3977 C   0  0  0  0  0  0  0  0  0  0  0  0
  -26.6430  -13.4589   19.2624 C   0  0  0  0  0  0  0  0  0  0  0  0
  -25.2198  -23.4880   29.0219 C   0  0  0  0  0  0  0  0  0  0  0  0
  -25.8275  -24.0373   26.3620 C   0  0  0  0  0  0  0  0  0  0  0  0
  -27.2735  -27.9353   23.4706 C   0  0  0  0  0  0  0  0  0  0  0  0
  -26.3438  -11.3175   21.0252 C   0  0  0  0  0  0  0  0  0  0  0  0
  -25.8837  -12.3498   18.8898 C   0  0  0  0  0  0  0  0  0  0  0  0
  -28.0907  -27.6488   22.3779 C   0  0  0  0  0  0  0  0  0  0  0  0
  -23.0721  -10.4924   20.8261 C   0  0  0  0  0  0  0  0  0  0  0  0
  -22.1717   -9.9810   21.7605 C   0  0  0  0  0  0  0  0  0  0  0  0
  -26.1712  -27.7589   20.9211 C   0  0  0  0  0  0  0  0  0  0  0  0
  -23.3262   -7.8592   21.7117 C   0  0  0  0  0  0  0  0  0  0  0  0
  -27.2527  -13.4974   20.5163 C   0  0  0  0  0  0  0  0  0  0  0  0
  -29.4160  -14.8373   20.6970 C   0  0  0  0  0  0  0  0  0  0  0  0
  -24.2010  -23.9209   28.1587 C   0  0  0  0  0  0  0  0  0  0  0  0
  -25.8949  -28.1252   23.2979 C   0  0  0  0  0  0  0  0  0  0  0  0
  -24.5044  -24.1893   26.8103 C   0  0  0  0  0  0  0  0  0  0  0  0
  -25.3391  -28.0502   22.0128 C   0  0  0  0  0  0  0  0  0  0  0  0
  -29.2160  -23.5239   19.7413 C   0  0  0  0  0  0  0  0  0  0  0  0
  -29.9267  -22.4127   20.2583 C   0  0  0  0  0  0  0  0  0  0  0  0
  -25.7341  -11.2790   19.7712 C   0  0  0  0  0  0  0  0  0  0  0  0
  -27.5392  -27.5577   21.1034 C   0  0  0  0  0  0  0  0  0  0  0  0
  -24.0996   -9.6873   20.3344 C   0  0  0  0  0  0  0  0  0  0  0  0
  -22.2987   -8.6644   22.2034 C   0  0  0  0  0  0  0  0  0  0  0  0
  -24.2266   -8.3707   20.7772 C   0  0  0  0  0  0  0  0  0  0  0  0
  -28.0366  -14.6436   20.9008 C   0  0  0  0  0  0  0  0  0  0  0  0
  -30.1086  -24.2819   19.0161 C   0  0  0  0  0  0  0  0  0  0  0  0
  -31.2321  -22.5257   19.8334 C   0  0  0  0  0  0  0  0  0  0  0  0
  -29.6728  -16.0733   21.2382 C   0  0  0  0  0  0  0  0  0  0  0  0
  -30.3790  -13.9770   20.0741 C   0  0  0  0  0  0  0  0  0  0  0  0
  -23.2793  -26.6524   24.3435 C   0  0  0  0  0  0  0  0  0  0  0  0
  -21.7740  -29.1274   22.8837 C   0  0  0  0  0  0  0  0  0  0  0  0
  -21.8585  -31.5729   20.5048 C   0  0  0  0  0  0  0  0  0  0  0  0
  -28.3648  -21.4349   21.9760 C   0  0  0  0  0  0  0  0  0  0  0  0
  -22.7929  -24.0200   28.6898 C   0  0  0  0  0  0  0  0  0  0  0  0
  -25.0313  -28.4599   24.4830 C   0  0  0  0  0  0  0  0  0  0  0  0
  -23.8682  -28.2658   21.7712 C   0  0  0  0  0  0  0  0  0  0  0  0
  -21.8598  -24.8313   27.7946 C   0  0  0  0  0  0  0  0  0  0  0  0
  -26.7874  -19.0710   24.1209 C   0  0  0  0  0  0  0  0  0  0  0  0
  -22.0200  -24.4114   26.3369 C   0  0  0  0  0  0  0  0  0  0  0  0
  -27.0852  -17.7243   23.4576 C   0  0  0  0  0  0  0  0  0  0  0  0
  -26.5386  -20.1691   23.0884 C   0  0  0  0  0  0  0  0  0  0  0  0
  -27.8883  -18.9713   21.4113 C   0  0  0  0  0  0  0  0  0  0  0  0
  -23.4474  -24.6726   25.8411 C   0  0  1  0  0  0  0  0  0  0  0  0
  -23.5590  -28.1265   24.2627 C   0  0  1  0  0  0  0  0  0  0  0  0
  -28.2097  -17.8482   22.4109 C   0  0  2  0  0  0  0  0  0  0  0  0
  -27.7814  -23.8184   19.9400 C   0  0  0  0  0  0  0  0  0  0  0  0
  -32.3966  -21.6470   20.0790 C   0  0  0  0  0  0  0  0  0  0  0  0
  -20.4653  -33.4144   19.5224 C   0  0  0  0  0  0  0  0  0  0  0  0
  -20.1189  -27.0620   21.3656 C   0  0  0  0  0  0  0  0  0  0  0  0
  -19.4578  -28.8705   19.7654 C   0  0  0  0  0  0  0  0  0  0  0  0
  -18.8269  -29.0454   22.1725 C   0  0  0  0  0  0  0  0  0  0  0  0
  -32.5417  -24.1464   18.4468 C   0  0  0  0  0  0  0  0  0  0  0  0
  -23.8264  -33.6389   21.2913 C   0  0  0  0  0  0  0  0  0  0  0  0
  -29.8985  -25.5652   18.2528 C   0  0  0  0  0  0  0  0  0  0  0  0
  -30.4332  -26.8049   18.9731 C   0  0  0  0  0  0  0  0  0  0  0  0
  -29.7252  -27.0887   20.2928 C   0  0  0  0  0  0  0  0  0  1  0  0
  -21.2391  -29.3846   21.4957 C   0  0  1  0  0  0  0  0  0  0  0  0
  -21.5104  -33.0493   20.5651 C   0  0  2  0  0  0  0  0  0  0  0  0
  -19.9381  -28.5846   21.2043 C   0  0  0  0  0  0  0  0  0  0  0  0
  -27.4576  -15.6739   21.5231 N   0  0  0  0  0  0  0  0  0  0  0  0
  -31.3311  -23.6657   19.0794 N   0  0  0  0  0  0  0  0  0  0  0  0
  -28.4782  -16.5269   21.7151 N   0  0  0  0  0  0  0  0  0  0  0  0
  -23.0642  -28.5844   22.9627 N   0  0  0  0  0  0  0  0  0  0  0  0
  -27.6466  -20.2306   22.1327 N   0  0  0  0  0  0  0  0  0  0  0  0
  -30.8017  -16.8054   21.3481 N   0  0  0  0  0  0  0  0  0  0  0  0
  -29.9458  -12.7425   19.5714 N   0  0  0  0  0  0  0  0  0  0  0  0
  -29.4170  -21.3642   21.0636 N   0  0  0  0  0  0  0  0  0  0  0  0
  -23.6319  -26.0782   25.5499 N   0  0  0  0  0  0  0  0  0  0  0  0
  -21.0903  -30.8310   21.3770 N   0  0  0  0  0  0  0  0  0  0  0  0
  -22.7250  -33.8782   20.3234 N   0  3  0  0  0  0  0  0  0  0  0  0
  -31.5910  -14.2865   19.9810 O   0  0  0  0  0  0  0  0  0  0  0  0
  -22.7792  -26.0788   23.3830 O   0  0  0  0  0  0  0  0  0  0  0  0
  -21.0757  -29.4050   23.8619 O   0  0  0  0  0  0  0  0  0  0  0  0
  -22.7227  -31.1224   19.7560 O   0  0  0  0  0  0  0  0  0  0  0  0
  -28.0855  -22.4463   22.6250 O   0  0  0  0  0  0  0  0  0  0  0  0
  -24.9932  -10.1968   19.4073 O   0  0  0  0  0  0  0  0  0  0  0  0
  -28.3344  -27.2776   20.0352 O   0  0  0  0  0  0  0  0  0  1  0  0
  -21.4349   -8.1739   23.1019 F   0  0  0  0  0  0  0  0  0  0  0  0
  -25.2124   -7.5928   20.3094 F   0  0  0  0  0  0  0  0  0  0  0  0
  1  2  1  0  0  0  0
  1  5  2  0  0  0  0
  2  6  2  0  0  0  0
  3  8  2  0  0  0  0
  3 15  1  0  0  0  0
  4  9  1  0  0  0  0
  4 15  2  0  0  0  0
  5 17  1  0  0  0  0
  6 19  1  0  0  0  0
  7 10  2  0  0  0  0
  7 18  1  0  0  0  0
  8 23  1  0  0  0  0
  9 23  2  0  0  0  0
 10 24  1  0  0  0  0
 11 12  2  0  0  0  0
 11 25  1  0  0  0  0
 12 26  1  0  0  0  0
 13 20  1  0  0  0  0
 13 24  2  0  0  0  0
 14 26  2  0  0  0  0
 14 27  1  0  0  0  0
 15 28  1  0  0  0  0
 16 28  1  0  0  0  0
 16 31  2  0  0  0  0
 16 32  1  0  0  0  0
 17 19  2  0  0  0  0
 17 37  1  0  0  0  0
 18 20  2  0  0  0  0
 18 38  1  0  0  0  0
 19 46  1  0  0  0  0
 20 39  1  0  0  0  0
 21 22  1  0  0  0  0
 21 29  2  0  0  0  0
 21 49  1  0  0  0  0
 22 30  2  0  0  0  0
 22 70  1  0  0  0  0
 23 79  1  0  0  0  0
 24 80  1  0  0  0  0
 25 27  2  0  0  0  0
 25 79  1  0  0  0  0
 26 81  1  0  0  0  0
 27 82  1  0  0  0  0
 28 63  2  0  0  0  0
 29 57  1  0  0  0  0
 29 64  1  0  0  0  0
 30 50  1  0  0  0  0
 30 64  1  0  0  0  0
 31 65  1  0  0  0  0
 31 68  1  0  0  0  0
 32 69  1  0  0  0  0
 32 74  2  0  0  0  0
 33 47  1  0  0  0  0
 33 71  1  0  0  0  0
 33 75  2  0  0  0  0
 34 60  1  0  0  0  0
 34 66  1  0  0  0  0
 34 76  2  0  0  0  0
 35 61  1  0  0  0  0
 35 72  1  0  0  0  0
 35 77  2  0  0  0  0
 36 67  1  0  0  0  0
 36 70  1  0  0  0  0
 36 78  2  0  0  0  0
 37 40  1  0  0  0  0
 38 47  1  0  0  0  0
 39 66  1  0  0  0  0
 40 42  1  0  0  0  0
 41 43  1  0  0  0  0
 41 44  1  0  0  0  0
 42 46  1  0  0  0  0
 43 48  1  0  0  0  0
 44 67  1  0  0  0  0
 45 48  1  0  0  0  0
 45 67  1  0  0  0  0
 46 71  1  0  0  0  0
 47 66  1  0  0  0  0
 48 65  1  0  0  0  0
 51 61  1  0  0  0  0
 52 62  1  0  0  0  0
 53 62  1  0  0  0  0
 54 62  1  0  0  0  0
 55 64  1  0  0  0  0
 56 73  1  0  0  0  0
 57 58  1  0  0  0  0
 58 59  1  0  0  0  0
 59 80  1  0  0  0  0
 60 62  1  0  0  0  0
 60 72  1  0  0  0  0
 61 73  1  0  0  0  0
 63 65  1  0  0  0  0
M  CHG  1  73   1
M  ISO  4  36 100  59 101  70 100  80 101
M  END
> <Batch ID>
0021

> <Smiles>
CNC(C)C(=O)NC(C(=O)N1Cc2cc([101O:1][101CH2:1]CCc3c(C)c([100NH:0][100C:0](=O)N4CCCC(n5nc(-c6ccc(Oc7ccc(F)cc7F)cc6)c(C(N)=O)c5N)C4)c(C)n3C)ccc2CC1C(=O)NC1CCCc2ccccc21)C(C)(C)C

> <Shape>
0.237

> <Color>
0.055

> <Negative vol penalty>
0.000

$$$$

  -OEChem-04052316123D

 89 97  0     1  0  0  0  0  0999 V2000
  -32.1342  -21.6155   13.9009 C   0  0  0  0  0  0  0  0  0  0  0  0
  -32.7241  -21.4443   15.1492 C   0  0  0  0  0  0  0  0  0  0  0  0
  -23.1609   -9.8565   19.9765 C   0  0  0  0  0  0  0  0  0  0  0  0
  -23.8361   -9.9774   22.2931 C   0  0  0  0  0  0  0  0  0  0  0  0
  -31.0240  -22.4477   13.7640 C   0  0  0  0  0  0  0  0  0  0  0  0
  -32.2046  -22.1062   16.2612 C   0  0  0  0  0  0  0  0  0  0  0  0
  -31.8310  -19.0944   20.3151 C   0  0  0  0  0  0  0  0  0  0  0  0
  -22.4534   -8.6845   20.2438 C   0  0  0  0  0  0  0  0  0  0  0  0
  -23.1286   -8.8054   22.5604 C   0  0  0  0  0  0  0  0  0  0  0  0
  -33.0021  -18.8349   21.0257 C   0  0  0  0  0  0  0  0  0  0  0  0
  -21.7975   -5.6502   23.7780 C   0  0  0  0  0  0  0  0  0  0  0  0
  -22.4239   -4.6784   24.5584 C   0  0  0  0  0  0  0  0  0  0  0  0
  -32.3710  -20.4933   22.6598 C   0  0  0  0  0  0  0  0  0  0  0  0
  -31.5438  -16.2584   25.3412 C   0  0  0  0  0  0  0  0  0  0  0  0
  -24.1942   -4.5065   22.9233 C   0  0  0  0  0  0  0  0  0  0  0  0
  -23.8523  -10.5029   21.0011 C   0  0  0  0  0  0  0  0  0  0  0  0
  -24.1008  -13.0336   20.7976 C   0  0  0  0  0  0  0  0  0  0  0  0
  -30.4847  -23.1125   14.8767 C   0  0  0  0  0  0  0  0  0  0  0  0
  -30.9248  -20.0647   20.7666 C   0  0  0  0  0  0  0  0  0  0  0  0
  -31.0869  -22.9491   16.1388 C   0  0  0  0  0  0  0  0  0  0  0  0
  -31.1879  -20.7615   21.9546 C   0  0  0  0  0  0  0  0  0  0  0  0
  -32.7104  -15.5454   25.6172 C   0  0  0  0  0  0  0  0  0  0  0  0
  -33.1163  -14.5162   24.7676 C   0  0  0  0  0  0  0  0  0  0  0  0
  -31.1888  -14.9132   23.3660 C   0  0  0  0  0  0  0  0  0  0  0  0
  -22.4372   -8.1590   21.5358 C   0  0  0  0  0  0  0  0  0  0  0  0
  -33.2737  -19.5364   22.1966 C   0  0  0  0  0  0  0  0  0  0  0  0
  -22.3694   -6.0501   22.5703 C   0  0  0  0  0  0  0  0  0  0  0  0
  -23.6222   -4.1066   24.1311 C   0  0  0  0  0  0  0  0  0  0  0  0
  -23.5678   -5.4783   22.1429 C   0  0  0  0  0  0  0  0  0  0  0  0
  -32.3554  -14.2001   23.6420 C   0  0  0  0  0  0  0  0  0  0  0  0
  -30.7830  -15.9423   24.2156 C   0  0  0  0  0  0  0  0  0  0  0  0
  -24.5838  -11.7133   20.7255 C   0  0  0  0  0  0  0  0  0  0  0  0
  -25.1757  -13.8123   20.4445 C   0  0  0  0  0  0  0  0  0  0  0  0
  -22.7970  -13.5134   21.1521 C   0  0  0  0  0  0  0  0  0  0  0  0
  -29.7986  -22.7981   19.5987 C   0  0  0  0  0  0  0  0  0  0  0  0
  -27.8892  -22.6792   22.2183 C   0  0  0  0  0  0  0  0  0  0  0  0
  -27.3890  -21.5192   25.3886 C   0  0  0  0  0  0  0  0  0  0  0  0
  -30.9185  -14.0391   21.0188 C   0  0  0  0  0  0  0  0  0  0  0  0
  -29.3125  -24.0388   14.6710 C   0  0  0  0  0  0  0  0  0  0  0  0
  -29.6531  -20.3139   20.0030 C   0  0  0  0  0  0  0  0  0  0  0  0
  -30.2376  -21.7987   22.4926 C   0  0  0  0  0  0  0  0  0  0  0  0
  -28.5946  -24.4097   15.9662 C   0  0  0  0  0  0  0  0  0  0  0  0
  -29.3869  -13.0234   17.9693 C   0  0  0  0  0  0  0  0  0  0  0  0
  -29.6028  -24.8002   17.0423 C   0  0  0  0  0  0  0  0  0  0  0  0
  -27.9446  -12.7107   18.3744 C   0  0  0  0  0  0  0  0  0  0  0  0
  -30.3820  -12.6152   19.0542 C   0  0  0  0  0  0  0  0  0  0  0  0
  -28.6547  -12.8385   20.7965 C   0  0  0  0  0  0  0  0  0  0  0  0
  -30.5374  -23.6304   17.3733 C   0  0  1  0  0  0  0  0  0  0  0  0
  -29.0496  -21.6875   20.2793 C   0  0  1  0  0  0  0  0  0  0  0  0
  -27.6108  -13.2913   19.7626 C   0  0  2  0  0  0  0  0  0  0  0  0
  -34.3614  -13.7401   25.0467 C   0  0  0  0  0  0  0  0  0  0  0  0
  -26.1845  -21.0888   27.5476 C   0  0  0  0  0  0  0  0  0  0  0  0
  -36.0757  -16.1281   27.4678 C   0  0  0  0  0  0  0  0  0  0  0  0
  -32.8101  -17.0881   27.5857 C   0  0  0  0  0  0  0  0  0  0  0  0
  -33.5996  -14.7639   27.9106 C   0  0  0  0  0  0  0  0  0  0  0  0
  -28.8637  -25.4886   22.9018 C   0  0  0  0  0  0  0  0  0  0  0  0
  -27.9741  -25.1582   25.2186 C   0  0  0  0  0  0  0  0  0  0  0  0
  -26.4184  -25.1145   23.2691 C   0  0  0  0  0  0  0  0  0  0  0  0
  -26.1720  -19.0302   24.3479 C   0  0  0  0  0  0  0  0  0  0  0  0
  -35.9623  -19.6219   24.6946 C   0  0  0  0  0  0  0  0  0  0  0  0
  -36.0367  -18.1431   25.0439 C   0  0  0  0  0  0  0  0  0  0  0  0
  -34.6311  -20.0412   24.0831 C   0  0  0  0  0  0  0  0  0  1  0  0
  -27.9942  -23.1727   23.6411 C   0  0  1  0  0  0  0  0  0  0  0  0
  -26.1863  -20.8642   26.0435 C   0  0  2  0  0  0  0  0  0  0  0  0
  -34.9780  -16.3520   26.4258 C   0  0  1  0  0  0  0  0  0  0  0  0
  -33.5369  -15.9146   26.8732 C   0  0  0  0  0  0  0  0  0  0  0  0
  -27.8316  -24.7154   23.7467 C   0  0  0  0  0  0  0  0  0  0  0  0
  -25.8658  -11.6528   20.3555 N   0  0  0  0  0  0  0  0  0  0  0  0
  -26.1974  -12.9448   20.1919 N   0  0  0  0  0  0  0  0  0  0  0  0
  -29.0108  -22.0110   21.7069 N   0  0  0  0  0  0  0  0  0  0  0  0
  -30.0044  -13.2055   20.3402 N   0  0  0  0  0  0  0  0  0  0  0  0
  -25.3372  -15.1475   20.3285 N   0  0  0  0  0  0  0  0  0  0  0  0
  -21.8093  -12.5775   21.4880 N   0  0  0  0  0  0  0  0  0  0  0  0
  -30.4368  -14.5690   22.2154 N   0  0  0  0  0  0  0  0  0  0  0  0
  -29.8654  -22.6719   18.2242 N   0  0  0  0  0  0  0  0  0  0  0  0
  -27.0131  -22.4144   24.4096 N   0  0  0  0  0  0  0  0  0  0  0  0
  -26.1927  -19.3961   25.7876 N   0  3  0  0  0  0  0  0  0  0  0  0
  -35.0180  -17.7955   26.0622 N   0  3  0  0  0  0  0  0  0  0  0  0
  -22.5116  -14.7349   21.1545 O   0  0  0  0  0  0  0  0  0  0  0  0
  -30.2790  -23.7033   20.2706 O   0  0  0  0  0  0  0  0  0  0  0  0
  -26.8477  -22.8729   21.5863 O   0  0  0  0  0  0  0  0  0  0  0  0
  -28.5462  -21.2650   25.7155 O   0  0  0  0  0  0  0  0  0  0  0  0
  -32.0355  -14.2879   20.5580 O   0  0  0  0  0  0  0  0  0  0  0  0
  -21.7468   -7.0155   21.7971 O   0  0  0  0  0  0  0  0  0  0  0  0
  -34.4164  -19.2856   22.8917 O   0  0  0  0  0  0  0  0  0  1  0  0
  -24.2244   -3.1746   24.8813 F   0  0  0  0  0  0  0  0  0  0  0  0
  -24.1227   -5.8593   20.9842 F   0  0  0  0  0  0  0  0  0  0  0  0
  -32.7479  -13.2096   22.8262 F   0  0  0  0  0  0  0  0  0  0  0  0
  -29.3457  -16.8516   23.9106 Cl  0  0  0  0  0  0  0  0  0  0  0  0
  1  2  1  0  0  0  0
  1  5  2  0  0  0  0
  2  6  2  0  0  0  0
  3  8  2  0  0  0  0
  3 16  1  0  0  0  0
  4  9  1  0  0  0  0
  4 16  2  0  0  0  0
  5 18  1  0  0  0  0
  6 20  1  0  0  0  0
  7 10  2  0  0  0  0
  7 19  1  0  0  0  0
  8 25  1  0  0  0  0
  9 25  2  0  0  0  0
 10 26  1  0  0  0  0
 11 12  2  0  0  0  0
 11 27  1  0  0  0  0
 12 28  1  0  0  0  0
 13 21  1  0  0  0  0
 13 26  2  0  0  0  0
 14 22  1  0  0  0  0
 14 31  2  0  0  0  0
 15 28  2  0  0  0  0
 15 29  1  0  0  0  0
 16 32  1  0  0  0  0
 17 32  1  0  0  0  0
 17 33  2  0  0  0  0
 17 34  1  0  0  0  0
 18 20  2  0  0  0  0
 18 39  1  0  0  0  0
 19 21  2  0  0  0  0
 19 40  1  0  0  0  0
 20 48  1  0  0  0  0
 21 41  1  0  0  0  0
 22 23  2  0  0  0  0
 22 66  1  0  0  0  0
 23 30  1  0  0  0  0
 23 51  1  0  0  0  0
 24 30  2  0  0  0  0
 24 31  1  0  0  0  0
 24 74  1  0  0  0  0
 25 84  1  0  0  0  0
 26 85  1  0  0  0  0
 27 29  2  0  0  0  0
 27 84  1  0  0  0  0
 28 86  1  0  0  0  0
 29 87  1  0  0  0  0
 30 88  1  0  0  0  0
 31 89  1  0  0  0  0
 32 68  2  0  0  0  0
 33 69  1  0  0  0  0
 33 72  1  0  0  0  0
 34 73  1  0  0  0  0
 34 79  2  0  0  0  0
 35 49  1  0  0  0  0
 35 75  1  0  0  0  0
 35 80  2  0  0  0  0
 36 63  1  0  0  0  0
 36 70  1  0  0  0  0
 36 81  2  0  0  0  0
 37 64  1  0  0  0  0
 37 76  1  0  0  0  0
 37 82  2  0  0  0  0
 38 71  1  0  0  0  0
 38 74  1  0  0  0  0
 38 83  2  0  0  0  0
 39 42  1  0  0  0  0
 40 49  1  0  0  0  0
 41 70  1  0  0  0  0
 42 44  1  0  0  0  0
 43 45  1  0  0  0  0
 43 46  1  0  0  0  0
 44 48  1  0  0  0  0
 45 50  1  0  0  0  0
 46 71  1  0  0  0  0
 47 50  1  0  0  0  0
 47 71  1  0  0  0  0
 48 75  1  0  0  0  0
 49 70  1  0  0  0  0
 50 69  1  0  0  0  0
 52 64  1  0  0  0  0
 53 65  1  0  0  0  0
 54 66  1  0  0  0  0
 55 66  1  0  0  0  0
 56 67  1  0  0  0  0
 57 67  1  0  0  0  0
 58 67  1  0  0  0  0
 59 77  1  0  0  0  0
 60 61  1  0  0  0  0
 60 62  1  0  0  0  0
 61 78  1  0  0  0  0
 62 85  1  0  0  0  0
 63 67  1  0  0  0  0
 63 76  1  0  0  0  0
 64 77  1  0  0  0  0
 65 66  1  0  0  0  0
 65 78  1  0  0  0  0
 68 69  1  0  0  0  0
M  CHG  2  77   1  78   1
M  ISO  4  38 100  62 101  74 100  85 101
M  END
> <Batch ID>
0021

> <Smiles>
CNC(C)C(=O)NC(C(=O)N1Cc2cc([101O:1][101CH2:1]CCNC(C)C(C)(C)c3cc(Cl)c([100NH:0][100C:0](=O)N4CCCC(n5nc(-c6ccc(Oc7ccc(F)cc7F)cc6)c(C(N)=O)c5N)C4)c(F)c3C)ccc2CC1C(=O)NC1CCCc2ccccc21)C(C)(C)C

> <Shape>
0.207

> <Color>
0.185

> <Negative vol penalty>
0.000

$$$$

  -OEChem-04052316123D

 88 96  0     1  0  0  0  0  0999 V2000
  -31.9805  -26.8386   19.6367 C   0  0  0  0  0  0  0  0  0  0  0  0
  -30.9036  -27.0600   18.7841 C   0  0  0  0  0  0  0  0  0  0  0  0
  -26.7954  -15.0227   21.5441 C   0  0  0  0  0  0  0  0  0  0  0  0
  -26.5907  -15.0037   19.1369 C   0  0  0  0  0  0  0  0  0  0  0  0
  -31.7574  -26.3884   20.9372 C   0  0  0  0  0  0  0  0  0  0  0  0
  -29.6030  -26.8302   19.2314 C   0  0  0  0  0  0  0  0  0  0  0  0
  -26.4184  -30.5490   17.9377 C   0  0  0  0  0  0  0  0  0  0  0  0
  -21.9045  -25.8536   14.2690 C   0  0  0  0  0  0  0  0  0  0  0  0
  -22.0822  -24.6102   14.8756 C   0  0  0  0  0  0  0  0  0  0  0  0
  -26.4783  -13.6649   21.5818 C   0  0  0  0  0  0  0  0  0  0  0  0
  -26.2736  -13.6459   19.1745 C   0  0  0  0  0  0  0  0  0  0  0  0
  -25.9560  -30.5626   16.6224 C   0  0  0  0  0  0  0  0  0  0  0  0
  -25.3701  -10.2855   22.3401 C   0  0  0  0  0  0  0  0  0  0  0  0
  -24.4505   -9.8590   23.2983 C   0  0  0  0  0  0  0  0  0  0  0  0
  -23.8906  -29.5467   17.3445 C   0  0  0  0  0  0  0  0  0  0  0  0
  -22.7795  -11.3208   22.3453 C   0  0  0  0  0  0  0  0  0  0  0  0
  -26.8515  -15.6921   20.3216 C   0  0  0  0  0  0  0  0  0  0  0  0
  -28.4600  -17.6662   20.1684 C   0  0  0  0  0  0  0  0  0  0  0  0
  -30.4528  -26.1622   21.4037 C   0  0  0  0  0  0  0  0  0  0  0  0
  -25.6233  -30.0233   18.9663 C   0  0  0  0  0  0  0  0  0  0  0  0
  -29.3623  -26.3753   20.5390 C   0  0  0  0  0  0  0  0  0  0  0  0
  -24.3441  -29.5300   18.6723 C   0  0  0  0  0  0  0  0  0  0  0  0
  -22.8072  -26.2925   13.3005 C   0  0  0  0  0  0  0  0  0  0  0  0
  -23.1627  -23.8058   14.5138 C   0  0  0  0  0  0  0  0  0  0  0  0
  -23.8878  -25.4881   12.9386 C   0  0  0  0  0  0  0  0  0  0  0  0
  -24.0655  -24.2447   13.5453 C   0  0  0  0  0  0  0  0  0  0  0  0
  -26.2175  -12.9765   20.3970 C   0  0  0  0  0  0  0  0  0  0  0  0
  -24.6931  -30.0587   16.3252 C   0  0  0  0  0  0  0  0  0  0  0  0
  -24.9944  -11.2297   21.3845 C   0  0  0  0  0  0  0  0  0  0  0  0
  -23.1552  -10.3767   23.3009 C   0  0  0  0  0  0  0  0  0  0  0  0
  -23.6991  -11.7473   21.3871 C   0  0  0  0  0  0  0  0  0  0  0  0
  -27.1785  -17.0949   20.2821 C   0  0  0  0  0  0  0  0  0  0  0  0
  -28.2340  -19.0209   20.1761 C   0  0  0  0  0  0  0  0  0  0  0  0
  -29.7404  -17.0292   20.0649 C   0  0  0  0  0  0  0  0  0  0  0  0
  -25.9116  -27.6086   21.0131 C   0  0  0  0  0  0  0  0  0  0  0  0
  -23.1771  -28.8405   22.2487 C   0  0  0  0  0  0  0  0  0  0  0  0
  -20.3603  -30.7048   21.7620 C   0  0  0  0  0  0  0  0  0  0  0  0
  -25.3468  -23.4829   18.4731 C   0  0  0  0  0  0  0  0  0  0  0  0
  -30.2640  -25.6305   22.8024 C   0  0  0  0  0  0  0  0  0  0  0  0
  -26.1259  -30.0405   20.3838 C   0  0  0  0  0  0  0  0  0  0  0  0
  -23.4435  -28.9732   19.7434 C   0  0  0  0  0  0  0  0  0  0  0  0
  -28.8343  -25.7696   23.3191 C   0  0  0  0  0  0  0  0  0  0  0  0
  -24.0476  -21.6541   21.2379 C   0  0  0  0  0  0  0  0  0  0  0  0
  -27.8373  -25.3038   22.2629 C   0  0  0  0  0  0  0  0  0  0  0  0
  -24.8474  -20.3502   21.2223 C   0  0  0  0  0  0  0  0  0  0  0  0
  -23.7532  -22.1525   19.8248 C   0  0  0  0  0  0  0  0  0  0  0  0
  -25.7381  -20.9883   18.9423 C   0  0  0  0  0  0  0  0  0  0  0  0
  -27.9354  -26.1612   20.9953 C   0  0  1  0  0  0  0  0  0  0  0  0
  -25.4378  -29.0104   21.2742 C   0  0  1  0  0  0  0  0  0  0  0  0
  -26.1074  -20.4758   20.3449 C   0  0  2  0  0  0  0  0  0  0  0  0
  -23.3275  -22.4794   15.1819 C   0  0  0  0  0  0  0  0  0  0  0  0
  -24.8524  -25.9641   11.8977 C   0  0  0  0  0  0  0  0  0  0  0  0
  -18.2964  -31.5017   22.9464 C   0  0  0  0  0  0  0  0  0  0  0  0
  -27.3860  -23.0209   12.3807 C   0  0  0  0  0  0  0  0  0  0  0  0
  -21.9472  -26.0621   21.9699 C   0  0  0  0  0  0  0  0  0  0  0  0
  -19.6903  -27.1093   22.2494 C   0  0  0  0  0  0  0  0  0  0  0  0
  -21.3663  -27.2520   24.0915 C   0  0  0  0  0  0  0  0  0  0  0  0
  -21.1128  -33.5450   21.4073 C   0  0  0  0  0  0  0  0  0  0  0  0
  -22.5903  -27.6403   12.6602 C   0  0  0  0  0  0  0  0  0  0  0  0
  -23.5292  -28.7293   13.1838 C   0  0  0  0  0  0  0  0  0  0  0  0
  -26.5378  -24.8312   15.6811 C   0  0  0  0  0  0  0  0  0  0  0  0
  -26.9734  -23.6649   14.7831 C   0  0  0  0  0  0  0  0  0  0  0  0
  -27.0405  -24.6845   17.1141 C   0  0  0  0  0  0  0  0  0  0  0  0
  -23.3336  -29.0344   14.6643 C   0  0  0  0  0  0  0  0  0  1  0  0
  -21.7027  -28.6322   22.0002 C   0  0  1  0  0  0  0  0  0  0  0  0
  -19.7375  -31.8214   22.5804 C   0  0  2  0  0  0  0  0  0  0  0  0
  -26.5186  -23.8437   13.3278 C   0  0  2  0  0  0  0  0  0  0  0  0
  -21.1941  -27.2726   22.5570 C   0  0  0  0  0  0  0  0  0  0  0  0
  -26.2100  -18.0117   20.3568 N   0  0  0  0  0  0  0  0  0  0  0  0
  -26.8834  -19.1728   20.2899 N   0  0  0  0  0  0  0  0  0  0  0  0
  -23.9824  -29.0061   21.1130 N   0  0  0  0  0  0  0  0  0  0  0  0
  -24.9898  -22.2509   19.0456 N   0  0  0  0  0  0  0  0  0  0  0  0
  -29.0607  -20.0851   20.0967 N   0  0  0  0  0  0  0  0  0  0  0  0
  -29.7924  -15.6287   20.0723 N   0  0  0  0  0  0  0  0  0  0  0  0
  -25.1607  -23.4275   13.1799 N   0  0  0  0  0  0  0  0  0  0  0  0
  -27.2704  -27.4315   21.1917 N   0  0  0  0  0  0  0  0  0  0  0  0
  -21.0259  -29.7976   22.5590 N   0  0  0  0  0  0  0  0  0  0  0  0
  -26.5370  -23.4906   17.7560 N   0  0  0  0  0  0  0  0  0  0  0  0
  -19.7551  -33.0984   21.8124 N   0  3  0  0  0  0  0  0  0  0  0  0
  -30.8081  -17.6828   19.9853 O   0  0  0  0  0  0  0  0  0  0  0  0
  -25.1040  -26.7508   20.6760 O   0  0  0  0  0  0  0  0  0  0  0  0
  -23.5977  -28.8629   23.4082 O   0  0  0  0  0  0  0  0  0  0  0  0
  -20.2627  -30.6416   20.5385 O   0  0  0  0  0  0  0  0  0  0  0  0
  -24.6588  -24.5019   18.5967 O   0  0  0  0  0  0  0  0  0  0  0  0
  -25.9083  -11.6515   20.4334 O   0  0  0  0  0  0  0  0  0  0  0  0
  -24.2396  -30.0701   15.0422 O   0  0  0  0  0  0  0  0  0  1  0  0
  -22.2718   -9.9659   24.2202 F   0  0  0  0  0  0  0  0  0  0  0  0
  -23.3321  -12.6537   20.4709 F   0  0  0  0  0  0  0  0  0  0  0  0
  1  2  1  0  0  0  0
  1  5  2  0  0  0  0
  2  6  2  0  0  0  0
  3 10  2  0  0  0  0
  3 17  1  0  0  0  0
  4 11  1  0  0  0  0
  4 17  2  0  0  0  0
  5 19  1  0  0  0  0
  6 21  1  0  0  0  0
  7 12  2  0  0  0  0
  7 20  1  0  0  0  0
  8  9  2  0  0  0  0
  8 23  1  0  0  0  0
  9 24  1  0  0  0  0
 10 27  1  0  0  0  0
 11 27  2  0  0  0  0
 12 28  1  0  0  0  0
 13 14  2  0  0  0  0
 13 29  1  0  0  0  0
 14 30  1  0  0  0  0
 15 22  1  0  0  0  0
 15 28  2  0  0  0  0
 16 30  2  0  0  0  0
 16 31  1  0  0  0  0
 17 32  1  0  0  0  0
 18 32  1  0  0  0  0
 18 33  2  0  0  0  0
 18 34  1  0  0  0  0
 19 21  2  0  0  0  0
 19 39  1  0  0  0  0
 20 22  2  0  0  0  0
 20 40  1  0  0  0  0
 21 48  1  0  0  0  0
 22 41  1  0  0  0  0
 23 25  2  0  0  0  0
 23 59  1  0  0  0  0
 24 26  2  0  0  0  0
 24 51  1  0  0  0  0
 25 26  1  0  0  0  0
 25 52  1  0  0  0  0
 26 75  1  0  0  0  0
 27 85  1  0  0  0  0
 28 86  1  0  0  0  0
 29 31  2  0  0  0  0
 29 85  1  0  0  0  0
 30 87  1  0  0  0  0
 31 88  1  0  0  0  0
 32 69  2  0  0  0  0
 33 70  1  0  0  0  0
 33 73  1  0  0  0  0
 34 74  1  0  0  0  0
 34 80  2  0  0  0  0
 35 49  1  0  0  0  0
 35 76  1  0  0  0  0
 35 81  2  0  0  0  0
 36 65  1  0  0  0  0
 36 71  1  0  0  0  0
 36 82  2  0  0  0  0
 37 66  1  0  0  0  0
 37 77  1  0  0  0  0
 37 83  2  0  0  0  0
 38 72  1  0  0  0  0
 38 78  1  0  0  0  0
 38 84  2  0  0  0  0
 39 42  1  0  0  0  0
 40 49  1  0  0  0  0
 41 71  1  0  0  0  0
 42 44  1  0  0  0  0
 43 45  1  0  0  0  0
 43 46  1  0  0  0  0
 44 48  1  0  0  0  0
 45 50  1  0  0  0  0
 46 72  1  0  0  0  0
 47 50  1  0  0  0  0
 47 72  1  0  0  0  0
 48 76  1  0  0  0  0
 49 71  1  0  0  0  0
 50 70  1  0  0  0  0
 53 66  1  0  0  0  0
 54 67  1  0  0  0  0
 55 68  1  0  0  0  0
 56 68  1  0  0  0  0
 57 68  1  0  0  0  0
 58 79  1  0  0  0  0
 59 60  1  0  0  0  0
 60 64  1  0  0  0  0
 61 62  1  0  0  0  0
 61 63  1  0  0  0  0
 62 67  1  0  0  0  0
 63 78  1  0  0  0  0
 64 86  1  0  0  0  0
 65 68  1  0  0  0  0
 65 77  1  0  0  0  0
 66 79  1  0  0  0  0
 67 75  1  0  0  0  0
 69 70  1  0  0  0  0
M  CHG  1  79   1
M  ISO  4  38 100  64 101  78 100  86 101
M  END
> <Batch ID>
0021

> <Smiles>
CNC(C)C(=O)NC(C(=O)N1Cc2cc([101O:1][101CH2:1]CCc3ccc(C)c(NC(C)CCC[100NH:0][100C:0](=O)N4CCCC(n5nc(-c6ccc(Oc7ccc(F)cc7F)cc6)c(C(N)=O)c5N)C4)c3C)ccc2CC1C(=O)NC1CCCc2ccccc21)C(C)(C)C

> <Shape>
0.202

> <Color>
0.090

> <Negative vol penalty>
0.000

$$$$

  -OEChem-04052316123D

 83 91  0     1  0  0  0  0  0999 V2000
  -23.4405  -17.2291   33.8033 C   0  0  0  0  0  0  0  0  0  0  0  0
  -24.6661  -16.8005   33.3038 C   0  0  0  0  0  0  0  0  0  0  0  0
  -23.1909   -9.8195   19.9320 C   0  0  0  0  0  0  0  0  0  0  0  0
  -23.5711   -9.9994   22.3111 C   0  0  0  0  0  0  0  0  0  0  0  0
  -22.5261  -16.2990   34.2960 C   0  0  0  0  0  0  0  0  0  0  0  0
  -24.9785  -15.4415   33.2977 C   0  0  0  0  0  0  0  0  0  0  0  0
  -27.0404  -13.9417   28.9223 C   0  0  0  0  0  0  0  0  0  0  0  0
  -22.4253   -8.6725   20.1410 C   0  0  0  0  0  0  0  0  0  0  0  0
  -22.8055   -8.8524   22.5202 C   0  0  0  0  0  0  0  0  0  0  0  0
  -28.3855  -14.2445   28.7155 C   0  0  0  0  0  0  0  0  0  0  0  0
  -23.2078   -5.5059   22.2548 C   0  0  0  0  0  0  0  0  0  0  0  0
  -23.7073   -4.5446   23.1334 C   0  0  0  0  0  0  0  0  0  0  0  0
  -28.9825  -11.9928   29.3422 C   0  0  0  0  0  0  0  0  0  0  0  0
  -21.7518   -4.8034   24.5284 C   0  0  0  0  0  0  0  0  0  0  0  0
  -23.7638  -10.4830   21.0170 C   0  0  0  0  0  0  0  0  0  0  0  0
  -24.1012  -12.9999   20.7736 C   0  0  0  0  0  0  0  0  0  0  0  0
  -22.8235  -14.9271   34.2871 C   0  0  0  0  0  0  0  0  0  0  0  0
  -26.6565  -12.6632   29.3519 C   0  0  0  0  0  0  0  0  0  0  0  0
  -24.0678  -14.4923   33.7920 C   0  0  0  0  0  0  0  0  0  0  0  0
  -27.6316  -11.6756   29.5513 C   0  0  0  0  0  0  0  0  0  0  0  0
  -32.0212  -15.0974   26.0966 C   0  0  0  0  0  0  0  0  0  0  0  0
  -31.5062  -15.7227   24.9611 C   0  0  0  0  0  0  0  0  0  0  0  0
  -32.0575  -13.7049   26.1701 C   0  0  0  0  0  0  0  0  0  0  0  0
  -31.0275  -14.9555   23.8991 C   0  0  0  0  0  0  0  0  0  0  0  0
  -31.5788  -12.9377   25.1081 C   0  0  0  0  0  0  0  0  0  0  0  0
  -31.0637  -13.5630   23.9726 C   0  0  0  0  0  0  0  0  0  0  0  0
  -22.2325   -8.1889   21.4351 C   0  0  0  0  0  0  0  0  0  0  0  0
  -29.3570  -13.2708   28.9282 C   0  0  0  0  0  0  0  0  0  0  0  0
  -21.9803   -6.1161   22.5131 C   0  0  0  0  0  0  0  0  0  0  0  0
  -22.9794   -4.1933   24.2702 C   0  0  0  0  0  0  0  0  0  0  0  0
  -21.2523   -5.7648   23.6499 C   0  0  0  0  0  0  0  0  0  0  0  0
  -24.5553  -11.6676   20.8016 C   0  0  0  0  0  0  0  0  0  0  0  0
  -25.2319  -13.7431   20.5376 C   0  0  0  0  0  0  0  0  0  0  0  0
  -22.7759  -13.5191   20.9457 C   0  0  0  0  0  0  0  0  0  0  0  0
  -25.1871  -11.5080   31.9229 C   0  0  0  0  0  0  0  0  0  0  0  0
  -25.3015   -8.7262   30.2583 C   0  0  0  0  0  0  0  0  0  0  0  0
  -26.8102   -6.8634   27.8292 C   0  0  0  0  0  0  0  0  0  0  0  0
  -31.0376  -12.7847   21.5768 C   0  0  0  0  0  0  0  0  0  0  0  0
  -21.8226  -13.9635   34.8739 C   0  0  0  0  0  0  0  0  0  0  0  0
  -25.1992  -12.3447   29.5447 C   0  0  0  0  0  0  0  0  0  0  0  0
  -27.2700  -10.2818   29.9930 C   0  0  0  0  0  0  0  0  0  0  0  0
  -22.0781  -12.5092   34.4867 C   0  0  0  0  0  0  0  0  0  0  0  0
  -29.5222  -13.4665   18.4278 C   0  0  0  0  0  0  0  0  0  0  0  0
  -23.5534  -12.1622   34.6588 C   0  0  0  0  0  0  0  0  0  0  0  0
  -28.0344  -13.2097   18.6783 C   0  0  0  0  0  0  0  0  0  0  0  0
  -30.4044  -12.4817   19.1930 C   0  0  0  0  0  0  0  0  0  0  0  0
  -28.6462  -12.1390   20.8843 C   0  0  0  0  0  0  0  0  0  0  0  0
  -24.4332  -13.0245   33.7457 C   0  0  1  0  0  0  0  0  0  0  0  0
  -24.9647  -11.1609   30.4780 C   0  0  1  0  0  0  0  0  0  0  0  0
  -27.7193  -13.1473   20.1857 C   0  0  2  0  0  0  0  0  0  0  0  0
  -32.5350  -15.9204   27.2358 C   0  0  0  0  0  0  0  0  0  0  0  0
  -31.4679  -17.2166   24.8828 C   0  0  0  0  0  0  0  0  0  0  0  0
  -30.4756  -15.6313   22.6822 C   0  0  0  0  0  0  0  0  0  0  0  0
  -31.6205  -11.4433   25.1908 C   0  0  0  0  0  0  0  0  0  0  0  0
  -26.7056   -4.6140   26.7217 C   0  0  0  0  0  0  0  0  0  0  0  0
  -26.6282   -7.4652   32.6995 C   0  0  0  0  0  0  0  0  0  0  0  0
  -27.3452   -5.5617   31.2399 C   0  0  0  0  0  0  0  0  0  0  0  0
  -24.9177   -6.0240   31.5808 C   0  0  0  0  0  0  0  0  0  0  0  0
  -26.2498   -8.0636   25.1826 C   0  0  0  0  0  0  0  0  0  0  0  0
  -32.6152  -13.0290   27.3991 C   0  0  0  0  0  0  0  0  0  0  0  0
  -31.5191  -12.4936   28.3141 C   0  0  0  0  0  0  0  0  0  1  0  0
  -26.2875   -7.5889   30.1432 C   0  0  1  0  0  0  0  0  0  0  0  0
  -26.2385   -6.0605   26.6747 C   0  0  2  0  0  0  0  0  0  0  0  0
  -26.3020   -6.6867   31.4094 C   0  0  0  0  0  0  0  0  0  0  0  0
  -25.8717  -11.5672   20.5993 N   0  0  0  0  0  0  0  0  0  0  0  0
  -26.2546  -12.8457   20.4419 N   0  0  0  0  0  0  0  0  0  0  0  0
  -25.8324  -10.0211   30.1742 N   0  0  0  0  0  0  0  0  0  0  0  0
  -30.0519  -12.4797   20.6145 N   0  0  0  0  0  0  0  0  0  0  0  0
  -25.4411  -15.0701   20.4045 N   0  0  0  0  0  0  0  0  0  0  0  0
  -21.7299  -12.6164   21.1804 N   0  0  0  0  0  0  0  0  0  0  0  0
  -30.5780  -12.7839   22.8933 N   0  0  0  0  0  0  0  0  0  0  0  0
  -24.3840  -12.5330   32.3854 N   0  0  0  0  0  0  0  0  0  0  0  0
  -25.9548   -6.8833   28.9105 N   0  0  0  0  0  0  0  0  0  0  0  0
  -26.6635   -6.6496   25.3734 N   0  3  0  0  0  0  0  0  0  0  0  0
  -22.5241  -14.7461   20.8766 O   0  0  0  0  0  0  0  0  0  0  0  0
  -26.0243  -10.8905   32.5707 O   0  0  0  0  0  0  0  0  0  0  0  0
  -24.1034   -8.4748   30.4098 O   0  0  0  0  0  0  0  0  0  0  0  0
  -27.9076   -7.4145   27.7784 O   0  0  0  0  0  0  0  0  0  0  0  0
  -32.1973  -13.0554   21.2545 O   0  0  0  0  0  0  0  0  0  0  0  0
  -21.4853   -7.0698   21.6395 O   0  0  0  0  0  0  0  0  0  0  0  0
  -30.6707  -13.5639   28.7277 O   0  0  0  0  0  0  0  0  0  1  0  0
  -23.4585   -3.2689   25.1129 F   0  0  0  0  0  0  0  0  0  0  0  0
  -20.0719   -6.3466   23.9027 F   0  0  0  0  0  0  0  0  0  0  0  0
  1  2  1  0  0  0  0
  1  5  2  0  0  0  0
  2  6  2  0  0  0  0
  3  8  2  0  0  0  0
  3 15  1  0  0  0  0
  4  9  1  0  0  0  0
  4 15  2  0  0  0  0
  5 17  1  0  0  0  0
  6 19  1  0  0  0  0
  7 10  2  0  0  0  0
  7 18  1  0  0  0  0
  8 27  1  0  0  0  0
  9 27  2  0  0  0  0
 10 28  1  0  0  0  0
 11 12  2  0  0  0  0
 11 29  1  0  0  0  0
 12 30  1  0  0  0  0
 13 20  1  0  0  0  0
 13 28  2  0  0  0  0
 14 30  2  0  0  0  0
 14 31  1  0  0  0  0
 15 32  1  0  0  0  0
 16 32  1  0  0  0  0
 16 33  2  0  0  0  0
 16 34  1  0  0  0  0
 17 19  2  0  0  0  0
 17 39  1  0  0  0  0
 18 20  2  0  0  0  0
 18 40  1  0  0  0  0
 19 48  1  0  0  0  0
 20 41  1  0  0  0  0
 21 22  2  0  0  0  0
 21 23  1  0  0  0  0
 21 51  1  0  0  0  0
 22 24  1  0  0  0  0
 22 52  1  0  0  0  0
 23 25  2  0  0  0  0
 23 60  1  0  0  0  0
 24 26  2  0  0  0  0
 24 53  1  0  0  0  0
 25 26  1  0  0  0  0
 25 54  1  0  0  0  0
 26 71  1  0  0  0  0
 27 80  1  0  0  0  0
 28 81  1  0  0  0  0
 29 31  2  0  0  0  0
 29 80  1  0  0  0  0
 30 82  1  0  0  0  0
 31 83  1  0  0  0  0
 32 65  2  0  0  0  0
 33 66  1  0  0  0  0
 33 69  1  0  0  0  0
 34 70  1  0  0  0  0
 34 75  2  0  0  0  0
 35 49  1  0  0  0  0
 35 72  1  0  0  0  0
 35 76  2  0  0  0  0
 36 62  1  0  0  0  0
 36 67  1  0  0  0  0
 36 77  2  0  0  0  0
 37 63  1  0  0  0  0
 37 73  1  0  0  0  0
 37 78  2  0  0  0  0
 38 68  1  0  0  0  0
 38 71  1  0  0  0  0
 38 79  2  0  0  0  0
 39 42  1  0  0  0  0
 40 49  1  0  0  0  0
 41 67  1  0  0  0  0
 42 44  1  0  0  0  0
 43 45  1  0  0  0  0
 43 46  1  0  0  0  0
 44 48  1  0  0  0  0
 45 50  1  0  0  0  0
 46 68  1  0  0  0  0
 47 50  1  0  0  0  0
 47 68  1  0  0  0  0
 48 72  1  0  0  0  0
 49 67  1  0  0  0  0
 50 66  1  0  0  0  0
 55 63  1  0  0  0  0
 56 64  1  0  0  0  0
 57 64  1  0  0  0  0
 58 64  1  0  0  0  0
 59 74  1  0  0  0  0
 60 61  1  0  0  0  0
 61 81  1  0  0  0  0
 62 64  1  0  0  0  0
 62 73  1  0  0  0  0
 63 74  1  0  0  0  0
 65 66  1  0  0  0  0
M  CHG  1  74   1
M  ISO  4  38 100  61 101  71 100  81 101
M  END
> <Batch ID>
0021

> <Smiles>
CNC(C)C(=O)NC(C(=O)N1Cc2cc([101O:1][101CH2:1]Cc3c(C)c(C)c(C)c([100NH:0][100C:0](=O)N4CCCC(n5nc(-c6ccc(Oc7ccc(F)cc7F)cc6)c(C(N)=O)c5N)C4)c3C)ccc2CC1C(=O)NC1CCCc2ccccc21)C(C)(C)C

> <Shape>
0.147

> <Color>
0.190

> <Negative vol penalty>
0.000

$$$$

  -OEChem-04052316123D

 87 95  0     1  0  0  0  0  0999 V2000
  -21.1195  -30.1518   22.6423 C   0  0  0  0  0  0  0  0  0  0  0  0
  -21.4115  -28.9099   23.1971 C   0  0  0  0  0  0  0  0  0  0  0  0
  -22.9035  -10.1480   19.9483 C   0  0  0  0  0  0  0  0  0  0  0  0
  -23.8636   -9.8327   22.1428 C   0  0  0  0  0  0  0  0  0  0  0  0
  -19.7925  -30.5292   22.4405 C   0  0  0  0  0  0  0  0  0  0  0  0
  -20.3767  -28.0451   23.5515 C   0  0  0  0  0  0  0  0  0  0  0  0
  -21.2389  -23.2773   22.0784 C   0  0  0  0  0  0  0  0  0  0  0  0
  -22.1163   -9.0108   20.1293 C   0  0  0  0  0  0  0  0  0  0  0  0
  -23.0763   -8.6955   22.3239 C   0  0  0  0  0  0  0  0  0  0  0  0
  -22.1232  -22.5231   22.8484 C   0  0  0  0  0  0  0  0  0  0  0  0
  -19.2661   -8.1866   21.7511 C   0  0  0  0  0  0  0  0  0  0  0  0
  -17.9208   -8.2655   21.3912 C   0  0  0  0  0  0  0  0  0  0  0  0
  -20.2545  -21.4567   23.9393 C   0  0  0  0  0  0  0  0  0  0  0  0
  -29.2026  -19.2476   23.6341 C   0  0  0  0  0  0  0  0  0  0  0  0
  -18.2417   -6.4764   19.7996 C   0  0  0  0  0  0  0  0  0  0  0  0
  -23.7772  -10.5589   20.9551 C   0  0  0  0  0  0  0  0  0  0  0  0
  -24.2595  -13.0594   21.1043 C   0  0  0  0  0  0  0  0  0  0  0  0
  -18.7411  -29.6646   22.7837 C   0  0  0  0  0  0  0  0  0  0  0  0
  -19.8534  -23.1346   22.2411 C   0  0  0  0  0  0  0  0  0  0  0  0
  -19.0344  -28.4118   23.3554 C   0  0  0  0  0  0  0  0  0  0  0  0
  -19.3547  -22.2085   23.1683 C   0  0  0  0  0  0  0  0  0  0  0  0
  -29.8886  -18.5045   22.6735 C   0  0  0  0  0  0  0  0  0  0  0  0
  -30.3420  -16.7951   24.3196 C   0  0  0  0  0  0  0  0  0  0  0  0
  -30.4583  -17.2783   23.0162 C   0  0  0  0  0  0  0  0  0  0  0  0
  -29.6560  -17.5383   25.2802 C   0  0  0  0  0  0  0  0  0  0  0  0
  -29.0864  -18.7645   24.9375 C   0  0  0  0  0  0  0  0  0  0  0  0
  -22.2026   -8.2846   21.3171 C   0  0  0  0  0  0  0  0  0  0  0  0
  -21.6311  -21.6147   23.7810 C   0  0  0  0  0  0  0  0  0  0  0  0
  -20.0992   -7.2527   21.1352 C   0  0  0  0  0  0  0  0  0  0  0  0
  -17.4086   -7.4104   20.4155 C   0  0  0  0  0  0  0  0  0  0  0  0
  -19.5870   -6.3976   20.1594 C   0  0  0  0  0  0  0  0  0  0  0  0
  -24.5910  -11.7331   20.7685 C   0  0  0  0  0  0  0  0  0  0  0  0
  -25.3583  -13.7934   20.7299 C   0  0  0  0  0  0  0  0  0  0  0  0
  -23.0649  -13.5813   21.7014 C   0  0  0  0  0  0  0  0  0  0  0  0
  -17.4892  -25.0628   23.1334 C   0  0  0  0  0  0  0  0  0  0  0  0
  -15.6370  -22.5246   22.3275 C   0  0  0  0  0  0  0  0  0  0  0  0
  -15.3831  -19.1521   21.8711 C   0  0  0  0  0  0  0  0  0  0  0  0
  -30.8887  -14.5094   20.5122 C   0  0  0  0  0  0  0  0  0  0  0  0
  -17.3215  -30.1357   22.5906 C   0  0  0  0  0  0  0  0  0  0  0  0
  -18.9127  -23.9363   21.3839 C   0  0  0  0  0  0  0  0  0  0  0  0
  -17.8759  -22.0030   23.3669 C   0  0  0  0  0  0  0  0  0  0  0  0
  -16.2929  -29.0091   22.6467 C   0  0  0  0  0  0  0  0  0  0  0  0
  -29.4006  -12.4988   17.9785 C   0  0  0  0  0  0  0  0  0  0  0  0
  -16.5621  -28.0995   23.8412 C   0  0  0  0  0  0  0  0  0  0  0  0
  -27.9923  -12.2248   18.5091 C   0  0  0  0  0  0  0  0  0  0  0  0
  -30.4328  -12.5233   19.1038 C   0  0  0  0  0  0  0  0  0  0  0  0
  -28.7099  -13.1694   20.7433 C   0  0  0  0  0  0  0  0  0  0  0  0
  -17.9401  -27.4359   23.7299 C   0  0  1  0  0  0  0  0  0  0  0  0
  -17.5229  -24.0812   21.9963 C   0  0  1  0  0  0  0  0  0  0  0  0
  -27.6259  -13.1907   19.6520 C   0  0  2  0  0  0  0  0  0  0  0  0
  -29.9979  -19.0437   21.2847 C   0  0  0  0  0  0  0  0  0  0  0  0
  -30.9537  -15.4798   24.6868 C   0  0  0  0  0  0  0  0  0  0  0  0
  -29.5291  -17.0175   26.6777 C   0  0  0  0  0  0  0  0  0  0  0  0
  -13.7327  -17.3672   21.2485 C   0  0  0  0  0  0  0  0  0  0  0  0
  -14.3912  -22.7106   25.1066 C   0  0  0  0  0  0  0  0  0  0  0  0
  -13.4856  -20.3996   24.7791 C   0  0  0  0  0  0  0  0  0  0  0  0
  -12.7657  -22.2457   23.2638 C   0  0  0  0  0  0  0  0  0  0  0  0
  -29.1093  -20.5124   26.6995 C   0  0  0  0  0  0  0  0  0  0  0  0
  -16.9580  -18.3628   19.4929 C   0  0  0  0  0  0  0  0  0  0  0  0
  -31.1948  -16.4839   21.9843 C   0  0  0  0  0  0  0  0  0  0  0  0
  -26.1880  -20.2766   25.1358 C   0  0  0  0  0  0  0  0  0  0  0  0
  -24.6746  -20.1107   25.2811 C   0  0  0  0  0  0  0  0  0  0  0  0
  -26.9711  -19.3729   26.0846 C   0  0  0  0  0  0  0  0  0  0  0  0
  -23.9169  -21.0513   24.3525 C   0  0  0  0  0  0  0  0  0  1  0  0
  -15.1068  -21.3137   23.0566 C   0  0  1  0  0  0  0  0  0  0  0  0
  -14.7935  -18.3304   20.7390 C   0  0  2  0  0  0  0  0  0  0  0  0
  -13.9652  -21.6725   24.0494 C   0  0  0  0  0  0  0  0  0  0  0  0
  -25.8055  -11.6277   20.2225 N   0  0  0  0  0  0  0  0  0  0  0  0
  -26.2466  -12.8971   20.2124 N   0  0  0  0  0  0  0  0  0  0  0  0
  -16.9965  -22.8149   22.5096 N   0  0  0  0  0  0  0  0  0  0  0  0
  -30.0267  -13.4597   20.1545 N   0  0  0  0  0  0  0  0  0  0  0  0
  -25.6418  -15.1116   20.7961 N   0  0  0  0  0  0  0  0  0  0  0  0
  -22.0338  -12.6883   22.0234 N   0  0  0  0  0  0  0  0  0  0  0  0
  -17.8973  -26.3372   22.7889 N   0  0  0  0  0  0  0  0  0  0  0  0
  -14.7238  -20.3530   22.0277 N   0  0  0  0  0  0  0  0  0  0  0  0
  -30.4244  -15.3549   21.5123 N   0  0  0  0  0  0  0  0  0  0  0  0
  -28.3931  -19.5262   25.8887 N   0  0  3  0  0  0  0  0  0  0  0  0
  -15.8604  -17.5396   20.0628 N   0  3  0  0  0  0  0  0  0  0  0  0
  -22.9098  -14.8054   21.9272 O   0  0  0  0  0  0  0  0  0  0  0  0
  -17.1188  -24.6917   24.2410 O   0  0  0  0  0  0  0  0  0  0  0  0
  -14.8746  -23.1844   21.6168 O   0  0  0  0  0  0  0  0  0  0  0  0
  -16.3311  -18.7656   22.5511 O   0  0  0  0  0  0  0  0  0  0  0  0
  -31.9883  -14.6836   19.9760 O   0  0  0  0  0  0  0  0  0  0  0  0
  -21.4345   -7.1750   21.4941 O   0  0  0  0  0  0  0  0  0  0  0  0
  -22.4921  -20.8777   24.5343 O   0  0  0  0  0  0  0  0  0  1  0  0
  -16.1163   -7.4852   20.0711 F   0  0  0  0  0  0  0  0  0  0  0  0
  -20.3823   -5.4975   19.5651 F   0  0  0  0  0  0  0  0  0  0  0  0
  1  2  1  0  0  0  0
  1  5  2  0  0  0  0
  2  6  2  0  0  0  0
  3  8  2  0  0  0  0
  3 16  1  0  0  0  0
  4  9  1  0  0  0  0
  4 16  2  0  0  0  0
  5 18  1  0  0  0  0
  6 20  1  0  0  0  0
  7 10  2  0  0  0  0
  7 19  1  0  0  0  0
  8 27  1  0  0  0  0
  9 27  2  0  0  0  0
 10 28  1  0  0  0  0
 11 12  2  0  0  0  0
 11 29  1  0  0  0  0
 12 30  1  0  0  0  0
 13 21  1  0  0  0  0
 13 28  2  0  0  0  0
 14 22  2  0  0  0  0
 14 26  1  0  0  0  0
 15 30  2  0  0  0  0
 15 31  1  0  0  0  0
 16 32  1  0  0  0  0
 17 32  1  0  0  0  0
 17 33  2  0  0  0  0
 17 34  1  0  0  0  0
 18 20  2  0  0  0  0
 18 39  1  0  0  0  0
 19 21  2  0  0  0  0
 19 40  1  0  0  0  0
 20 48  1  0  0  0  0
 21 41  1  0  0  0  0
 22 24  1  0  0  0  0
 22 51  1  0  0  0  0
 23 24  2  0  0  0  0
 23 25  1  0  0  0  0
 23 52  1  0  0  0  0
 24 60  1  0  0  0  0
 25 26  2  0  0  0  0
 25 53  1  0  0  0  0
 26 77  1  0  0  0  0
 27 84  1  0  0  0  0
 28 85  1  0  0  0  0
 29 31  2  0  0  0  0
 29 84  1  0  0  0  0
 30 86  1  0  0  0  0
 31 87  1  0  0  0  0
 32 68  2  0  0  0  0
 33 69  1  0  0  0  0
 33 72  1  0  0  0  0
 34 73  1  0  0  0  0
 34 79  2  0  0  0  0
 35 49  1  0  0  0  0
 35 74  1  0  0  0  0
 35 80  2  0  0  0  0
 36 65  1  0  0  0  0
 36 70  1  0  0  0  0
 36 81  2  0  0  0  0
 37 66  1  0  0  0  0
 37 75  1  0  0  0  0
 37 82  2  0  0  0  0
 38 71  1  0  0  0  0
 38 76  1  0  0  0  0
 38 83  2  0  0  0  0
 39 42  1  0  0  0  0
 40 49  1  0  0  0  0
 41 70  1  0  0  0  0
 42 44  1  0  0  0  0
 43 45  1  0  0  0  0
 43 46  1  0  0  0  0
 44 48  1  0  0  0  0
 45 50  1  0  0  0  0
 46 71  1  0  0  0  0
 47 50  1  0  0  0  0
 47 71  1  0  0  0  0
 48 74  1  0  0  0  0
 49 70  1  0  0  0  0
 50 69  1  0  0  0  0
 54 66  1  0  0  0  0
 55 67  1  0  0  0  0
 56 67  1  0  0  0  0
 57 67  1  0  0  0  0
 58 77  1  0  0  0  0
 59 78  1  0  0  0  0
 60 76  1  0  0  0  0
 61 62  1  0  0  0  0
 61 63  1  0  0  0  0
 62 64  1  0  0  0  0
 63 77  1  0  0  0  0
 64 85  1  0  0  0  0
 65 67  1  0  0  0  0
 65 75  1  0  0  0  0
 66 78  1  0  0  0  0
 68 69  1  0  0  0  0
M  CHG  1  78   1
M  ISO  4  38 100  64 101  76 100  85 101
M  END
> <Batch ID>
0021

> <Smiles>
CNC(C)C(=O)NC(C(=O)N1Cc2cc([101O:1][101CH2:1]CCCN(C)c3cc(C)c(C[100NH:0][100C:0](=O)N4CCCC(n5nc(-c6ccc(Oc7ccc(F)cc7F)cc6)c(C(N)=O)c5N)C4)c(C)c3C)ccc2CC1C(=O)NC1CCCc2ccccc21)C(C)(C)C

> <Shape>
0.211

> <Color>
0.199

> <Negative vol penalty>
0.000

$$$$

  -OEChem-04052316123D

 91100  0     1  0  0  0  0  0999 V2000
  -24.5863  -29.6380   27.1834 C   0  0  0  0  0  0  0  0  0  0  0  0
  -24.5846  -28.2791   26.8854 C   0  0  0  0  0  0  0  0  0  0  0  0
  -27.7781  -23.4250   20.7757 C   0  0  0  0  0  0  0  0  0  0  0  0
  -28.7106  -23.3120   18.5497 C   0  0  0  0  0  0  0  0  0  0  0  0
  -23.5102  -30.4363   26.7978 C   0  0  0  0  0  0  0  0  0  0  0  0
  -23.5063  -27.7175   26.2027 C   0  0  0  0  0  0  0  0  0  0  0  0
  -23.7049  -23.1519   22.1256 C   0  0  0  0  0  0  0  0  0  0  0  0
  -27.8175  -24.8182   20.7214 C   0  0  0  0  0  0  0  0  0  0  0  0
  -28.7499  -24.7052   18.4954 C   0  0  0  0  0  0  0  0  0  0  0  0
  -23.4588  -21.7841   22.2364 C   0  0  0  0  0  0  0  0  0  0  0  0
  -25.9932  -27.3100   19.3443 C   0  0  0  0  0  0  0  0  0  0  0  0
  -24.8683  -28.0078   19.7839 C   0  0  0  0  0  0  0  0  0  0  0  0
  -21.2009  -22.1338   21.4627 C   0  0  0  0  0  0  0  0  0  0  0  0
  -27.9465  -13.7227   19.9322 C   0  0  0  0  0  0  0  0  0  0  0  0
  -26.2083  -29.1077   21.4667 C   0  0  0  0  0  0  0  0  0  0  0  0
  -28.2247  -22.6719   19.6898 C   0  0  0  0  0  0  0  0  0  0  0  0
  -27.1266  -20.3953   19.3445 C   0  0  0  0  0  0  0  0  0  0  0  0
  -22.4225  -29.8861   26.1015 C   0  0  0  0  0  0  0  0  0  0  0  0
  -22.6958  -24.0239   21.6923 C   0  0  0  0  0  0  0  0  0  0  0  0
  -22.4140  -28.5089   25.8087 C   0  0  0  0  0  0  0  0  0  0  0  0
  -21.4375  -23.5119   21.3449 C   0  0  0  0  0  0  0  0  0  0  0  0
  -28.8580  -12.8314   19.3773 C   0  0  0  0  0  0  0  0  0  0  0  0
  -27.5541  -13.5721   21.2575 C   0  0  0  0  0  0  0  0  0  0  0  0
  -28.3033  -25.4584   19.5813 C   0  0  0  0  0  0  0  0  0  0  0  0
  -22.2058  -21.2752   21.9077 C   0  0  0  0  0  0  0  0  0  0  0  0
  -27.2257  -27.5109   19.9660 C   0  0  0  0  0  0  0  0  0  0  0  0
  -24.9759  -28.9067   20.8451 C   0  0  0  0  0  0  0  0  0  0  0  0
  -27.3332  -28.4098   21.0271 C   0  0  0  0  0  0  0  0  0  0  0  0
  -28.1849  -21.2326   19.7455 C   0  0  0  0  0  0  0  0  0  0  0  0
  -29.3437  -11.8146   20.1834 C   0  0  0  0  0  0  0  0  0  0  0  0
  -28.0980  -12.5220   21.9795 C   0  0  0  0  0  0  0  0  0  0  0  0
  -24.1260  -16.0861   19.9494 C   0  0  0  0  0  0  0  0  0  0  0  0
  -23.6979  -16.7148   21.0998 C   0  0  0  0  0  0  0  0  0  0  0  0
  -27.5798  -19.1238   19.5980 C   0  0  0  0  0  0  0  0  0  0  0  0
  -25.5751  -15.2268   21.3536 C   0  0  0  0  0  0  0  0  0  0  0  0
  -25.8482  -20.7365   18.7922 C   0  0  0  0  0  0  0  0  0  0  0  0
  -21.1610  -26.4935   22.9765 C   0  0  0  0  0  0  0  0  0  0  0  0
  -19.8731  -26.7365   20.0093 C   0  0  0  0  0  0  0  0  0  0  0  0
  -19.0612  -25.2058   17.0691 C   0  0  0  0  0  0  0  0  0  0  0  0
  -31.6075  -15.2653   19.4120 C   0  0  0  0  0  0  0  0  0  0  0  0
  -21.2604  -30.7797   25.7472 C   0  0  0  0  0  0  0  0  0  0  0  0
  -22.9853  -25.4933   21.5526 C   0  0  0  0  0  0  0  0  0  0  0  0
  -20.3264  -24.4031   20.8552 C   0  0  0  0  0  0  0  0  0  0  0  0
  -20.3285  -30.1795   24.6975 C   0  0  0  0  0  0  0  0  0  0  0  0
  -31.6351  -17.5245   22.1637 C   0  0  0  0  0  0  0  0  0  0  0  0
  -20.0048  -28.7283   25.0383 C   0  0  0  0  0  0  0  0  0  0  0  0
  -30.6579  -18.6240   21.7441 C   0  0  0  0  0  0  0  0  0  0  0  0
  -32.4371  -16.9985   20.9753 C   0  0  0  0  0  0  0  0  0  0  0  0
  -30.6468  -17.6472   19.4107 C   0  0  0  0  0  0  0  0  0  0  0  0
  -21.2739  -27.8676   25.0477 C   0  0  1  0  0  0  0  0  0  0  0  0
  -21.7280  -26.3564   21.5918 C   0  0  1  0  0  0  0  0  0  0  0  0
  -29.7756  -18.1701   20.5656 C   0  0  2  0  0  0  0  0  0  0  0  0
  -30.3252  -10.8281   19.6407 C   0  0  0  0  0  0  0  0  0  0  0  0
  -27.7151  -12.3081   23.4080 C   0  0  0  0  0  0  0  0  0  0  0  0
  -23.5414  -16.2465   18.6023 C   0  0  0  0  0  0  0  0  0  0  0  0
  -21.5043  -17.1326   22.2597 C   0  0  0  0  0  0  0  0  0  0  0  0
  -17.9837  -25.6530   14.8473 C   0  0  0  0  0  0  0  0  0  0  0  0
  -17.1250  -26.6817   21.3338 C   0  0  0  0  0  0  0  0  0  0  0  0
  -16.1317  -26.1744   19.0923 C   0  0  0  0  0  0  0  0  0  0  0  0
  -17.3469  -28.3219   19.4590 C   0  0  0  0  0  0  0  0  0  0  0  0
  -21.5390  -24.5263   15.6001 C   0  0  0  0  0  0  0  0  0  0  0  0
  -29.2825  -12.9874   17.9580 C   0  0  0  0  0  0  0  0  0  0  0  0
  -30.6634  -13.6358   17.7957 C   0  0  0  0  0  0  0  0  0  0  0  0
  -23.0688  -19.0609   21.8176 C   0  0  0  0  0  0  0  0  0  1  0  0
  -22.5621  -17.7036   21.3111 C   0  0  1  0  0  0  0  0  0  0  0  0
  -18.6573  -26.1641   19.3214 C   0  0  1  0  0  0  0  0  0  0  0  0
  -19.2901  -25.6130   15.6247 C   0  0  2  0  0  0  0  0  0  0  0  0
  -17.3354  -26.8187   19.8127 C   0  0  0  0  0  0  0  0  0  0  0  0
  -29.2315  -20.5504   20.2181 N   0  0  0  0  0  0  0  0  0  0  0  0
  -28.9859  -11.6362   21.4749 N   0  0  0  0  0  0  0  0  0  0  0  0
  -25.2026  -15.2328   20.0929 N   0  0  0  0  0  0  0  0  0  0  0  0
  -28.8330  -19.2710   20.1157 N   0  0  0  0  0  0  0  0  0  0  0  0
  -20.6567  -25.8334   20.7416 N   0  0  0  0  0  0  0  0  0  0  0  0
  -31.5414  -16.5833   19.8931 N   0  0  0  0  0  0  0  0  0  0  0  0
  -27.0245  -17.9053   19.4266 N   0  0  0  0  0  0  0  0  0  0  0  0
  -25.5446  -22.0908   18.5970 N   0  0  0  0  0  0  0  0  0  0  0  0
  -26.6084  -14.4919   21.8435 N   0  0  0  0  0  0  0  0  0  0  0  0
  -21.6813  -27.5529   23.6952 N   0  0  0  0  0  0  0  0  0  0  0  0
  -18.8960  -26.3022   17.8888 N   0  0  0  0  0  0  0  0  0  0  0  0
  -30.7195  -14.9528   18.3900 N   0  0  0  0  0  0  0  0  0  0  0  0
  -20.2070  -24.6485   14.9537 N   0  3  0  0  0  0  0  0  0  0  0  0
  -24.9939  -19.8670   18.4962 O   0  0  0  0  0  0  0  0  0  0  0  0
  -20.3132  -25.6979   23.3637 O   0  0  0  0  0  0  0  0  0  0  0  0
  -20.1226  -27.9391   19.8950 O   0  0  0  0  0  0  0  0  0  0  0  0
  -19.0283  -24.0324   17.4331 O   0  0  0  0  0  0  0  0  0  0  0  0
  -32.3956  -14.4275   19.8637 O   0  0  0  0  0  0  0  0  0  0  0  0
  -28.3417  -26.8179   19.5279 O   0  0  0  0  0  0  0  0  0  0  0  0
  -21.9627  -19.9406   22.0155 O   0  0  0  0  0  0  0  0  0  1  0  0
  -23.8959  -29.5780   21.2661 F   0  0  0  0  0  0  0  0  0  0  0  0
  -28.5148  -28.6079   21.6275 F   0  0  0  0  0  0  0  0  0  0  0  0
  -24.6745  -16.2237   22.4213 S   0  0  0  0  0  0  0  0  0  0  0  0
  1  2  1  0  0  0  0
  1  5  2  0  0  0  0
  2  6  2  0  0  0  0
  3  8  2  0  0  0  0
  3 16  1  0  0  0  0
  4  9  1  0  0  0  0
  4 16  2  0  0  0  0
  5 18  1  0  0  0  0
  6 20  1  0  0  0  0
  7 10  2  0  0  0  0
  7 19  1  0  0  0  0
  8 24  1  0  0  0  0
  9 24  2  0  0  0  0
 10 25  1  0  0  0  0
 11 12  2  0  0  0  0
 11 26  1  0  0  0  0
 12 27  1  0  0  0  0
 13 21  1  0  0  0  0
 13 25  2  0  0  0  0
 14 22  2  0  0  0  0
 14 23  1  0  0  0  0
 15 27  2  0  0  0  0
 15 28  1  0  0  0  0
 16 29  1  0  0  0  0
 17 29  1  0  0  0  0
 17 34  2  0  0  0  0
 17 36  1  0  0  0  0
 18 20  2  0  0  0  0
 18 41  1  0  0  0  0
 19 21  2  0  0  0  0
 19 42  1  0  0  0  0
 20 50  1  0  0  0  0
 21 43  1  0  0  0  0
 22 30  1  0  0  0  0
 22 62  1  0  0  0  0
 23 31  2  0  0  0  0
 23 77  1  0  0  0  0
 24 87  1  0  0  0  0
 25 88  1  0  0  0  0
 26 28  2  0  0  0  0
 26 87  1  0  0  0  0
 27 89  1  0  0  0  0
 28 90  1  0  0  0  0
 29 69  2  0  0  0  0
 30 53  1  0  0  0  0
 30 70  2  0  0  0  0
 31 54  1  0  0  0  0
 31 70  1  0  0  0  0
 32 33  2  0  0  0  0
 32 55  1  0  0  0  0
 32 71  1  0  0  0  0
 33 65  1  0  0  0  0
 33 91  1  0  0  0  0
 34 72  1  0  0  0  0
 34 75  1  0  0  0  0
 35 71  2  0  0  0  0
 35 77  1  0  0  0  0
 35 91  1  0  0  0  0
 36 76  1  0  0  0  0
 36 82  2  0  0  0  0
 37 51  1  0  0  0  0
 37 78  1  0  0  0  0
 37 83  2  0  0  0  0
 38 66  1  0  0  0  0
 38 73  1  0  0  0  0
 38 84  2  0  0  0  0
 39 67  1  0  0  0  0
 39 79  1  0  0  0  0
 39 85  2  0  0  0  0
 40 74  1  0  0  0  0
 40 80  1  0  0  0  0
 40 86  2  0  0  0  0
 41 44  1  0  0  0  0
 42 51  1  0  0  0  0
 43 73  1  0  0  0  0
 44 46  1  0  0  0  0
 45 47  1  0  0  0  0
 45 48  1  0  0  0  0
 46 50  1  0  0  0  0
 47 52  1  0  0  0  0
 48 74  1  0  0  0  0
 49 52  1  0  0  0  0
 49 74  1  0  0  0  0
 50 78  1  0  0  0  0
 51 73  1  0  0  0  0
 52 72  1  0  0  0  0
 56 65  1  0  0  0  0
 57 67  1  0  0  0  0
 58 68  1  0  0  0  0
 59 68  1  0  0  0  0
 60 68  1  0  0  0  0
 61 81  1  0  0  0  0
 62 63  1  0  0  0  0
 63 80  1  0  0  0  0
 64 65  1  0  0  0  0
 64 88  1  0  0  0  0
 66 68  1  0  0  0  0
 66 79  1  0  0  0  0
 67 81  1  0  0  0  0
 69 72  1  0  0  0  0
M  CHG  1  81   1
M  ISO  4  40 100  64 101  80 100  88 101
M  END
> <Batch ID>
0021

> <Smiles>
CNC(C)C(=O)NC(C(=O)N1Cc2cc([101O:1][101CH2:1]C(C)c3sc(Nc4cc(CC[100NH:0][100C:0](=O)N5CCCC(n6nc(-c7ccc(Oc8ccc(F)cc8F)cc7)c(C(N)=O)c6N)C5)c(C)nc4C)nc3C)ccc2CC1C(=O)NC1CCCc2ccccc21)C(C)(C)C

> <Shape>
0.230

> <Color>
0.079

> <Negative vol penalty>
0.000

$$$$

  -OEChem-04052316123D

 82 90  0     1  0  0  0  0  0999 V2000
  -23.2179  -30.0684   22.2930 C   0  0  0  0  0  0  0  0  0  0  0  0
  -23.6002  -28.9480   23.0238 C   0  0  0  0  0  0  0  0  0  0  0  0
  -22.8242  -10.1509   20.0527 C   0  0  0  0  0  0  0  0  0  0  0  0
  -23.6270  -10.0605   22.3296 C   0  0  0  0  0  0  0  0  0  0  0  0
  -23.7183  -30.2642   21.0065 C   0  0  0  0  0  0  0  0  0  0  0  0
  -24.4824  -28.0221   22.4680 C   0  0  0  0  0  0  0  0  0  0  0  0
  -29.7247  -23.5018   24.3123 C   0  0  0  0  0  0  0  0  0  0  0  0
  -21.9794   -9.0707   20.3076 C   0  0  0  0  0  0  0  0  0  0  0  0
  -22.7821   -8.9803   22.5846 C   0  0  0  0  0  0  0  0  0  0  0  0
  -30.0949  -22.1655   24.1681 C   0  0  0  0  0  0  0  0  0  0  0  0
  -22.7452   -5.6521   21.9910 C   0  0  0  0  0  0  0  0  0  0  0  0
  -23.2748   -4.5652   22.6865 C   0  0  0  0  0  0  0  0  0  0  0  0
  -30.9571  -22.6482   21.9674 C   0  0  0  0  0  0  0  0  0  0  0  0
  -32.9360  -16.4432   23.9086 C   0  0  0  0  0  0  0  0  0  0  0  0
  -21.6319   -4.8803   24.4298 C   0  0  0  0  0  0  0  0  0  0  0  0
  -23.6481  -10.6458   21.0637 C   0  0  0  0  0  0  0  0  0  0  0  0
  -24.2256  -13.1284   20.9596 C   0  0  0  0  0  0  0  0  0  0  0  0
  -24.6147  -29.3453   20.4383 C   0  0  0  0  0  0  0  0  0  0  0  0
  -29.9584  -24.4207   23.2791 C   0  0  0  0  0  0  0  0  0  0  0  0
  -24.9943  -28.2052   21.1721 C   0  0  0  0  0  0  0  0  0  0  0  0
  -30.5912  -23.9962   22.1021 C   0  0  0  0  0  0  0  0  0  0  0  0
  -32.4564  -17.7184   24.2078 C   0  0  0  0  0  0  0  0  0  0  0  0
  -31.2871  -18.1827   23.6057 C   0  0  0  0  0  0  0  0  0  0  0  0
  -31.0769  -16.0968   22.4051 C   0  0  0  0  0  0  0  0  0  0  0  0
  -21.9583   -8.4854   21.5736 C   0  0  0  0  0  0  0  0  0  0  0  0
  -30.7086  -21.7378   22.9943 C   0  0  0  0  0  0  0  0  0  0  0  0
  -21.6590   -6.3532   22.5149 C   0  0  0  0  0  0  0  0  0  0  0  0
  -22.7181   -4.1793   23.9059 C   0  0  0  0  0  0  0  0  0  0  0  0
  -21.1024   -5.9672   23.7342 C   0  0  0  0  0  0  0  0  0  0  0  0
  -32.2463  -15.6324   23.0072 C   0  0  0  0  0  0  0  0  0  0  0  0
  -30.5973  -17.3719   22.7043 C   0  0  0  0  0  0  0  0  0  0  0  0
  -24.5214  -11.7613   20.8008 C   0  0  0  0  0  0  0  0  0  0  0  0
  -25.3765  -13.7750   20.5804 C   0  0  0  0  0  0  0  0  0  0  0  0
  -23.0184  -13.7576   21.4097 C   0  0  0  0  0  0  0  0  0  0  0  0
  -28.1162  -26.2473   21.4424 C   0  0  0  0  0  0  0  0  0  0  0  0
  -30.9646  -27.4054   20.4092 C   0  0  0  0  0  0  0  0  0  0  0  0
  -34.3144  -26.9063   19.9886 C   0  0  0  0  0  0  0  0  0  0  0  0
  -30.9196  -14.2962   20.6502 C   0  0  0  0  0  0  0  0  0  0  0  0
  -25.0920  -29.5750   19.0263 C   0  0  0  0  0  0  0  0  0  0  0  0
  -29.5773  -25.8643   23.4610 C   0  0  0  0  0  0  0  0  0  0  0  0
  -30.8828  -24.9472   20.9712 C   0  0  0  0  0  0  0  0  0  0  0  0
  -26.3146  -28.7405   18.6532 C   0  0  0  0  0  0  0  0  0  0  0  0
  -29.5340  -12.0252   18.2838 C   0  0  0  0  0  0  0  0  0  0  0  0
  -26.1256  -27.2915   19.0910 C   0  0  0  0  0  0  0  0  0  0  0  0
  -28.0821  -11.8665   18.7408 C   0  0  0  0  0  0  0  0  0  0  0  0
  -30.4906  -12.1529   19.4681 C   0  0  0  0  0  0  0  0  0  0  0  0
  -28.6889  -13.0394   20.8955 C   0  0  0  0  0  0  0  0  0  0  0  0
  -25.9686  -27.1911   20.6131 C   0  0  1  0  0  0  0  0  0  0  0  0
  -29.3978  -26.6059   22.1399 C   0  0  1  0  0  0  0  0  0  0  0  0
  -27.6807  -12.9721   19.7368 C   0  0  2  0  0  0  0  0  0  0  0  0
  -34.0353  -19.6471   24.4790 C   0  0  0  0  0  0  0  0  0  0  0  0
  -36.3730  -28.0181   19.0812 C   0  0  0  0  0  0  0  0  0  0  0  0
  -30.0439  -26.7853   17.5671 C   0  0  0  0  0  0  0  0  0  0  0  0
  -32.4236  -27.0087   16.8219 C   0  0  0  0  0  0  0  0  0  0  0  0
  -31.2431  -28.9650   17.8230 C   0  0  0  0  0  0  0  0  0  0  0  0
  -35.6406  -26.8706   22.6341 C   0  0  0  0  0  0  0  0  0  0  0  0
  -33.2159  -18.5656   25.1762 C   0  0  0  0  0  0  0  0  0  0  0  0
  -30.7912  -19.5583   23.9424 C   0  0  0  0  0  0  0  0  0  1  0  0
  -31.9320  -27.0395   19.3096 C   0  0  1  0  0  0  0  0  0  0  0  0
  -35.5117  -27.7817   20.3121 C   0  0  2  0  0  0  0  0  0  0  0  0
  -31.4036  -27.4310   17.9007 C   0  0  0  0  0  0  0  0  0  0  0  0
  -25.7628  -11.5507   20.3553 N   0  0  0  0  0  0  0  0  0  0  0  0
  -26.2573  -12.7941   20.2308 N   0  0  0  0  0  0  0  0  0  0  0  0
  -30.4855  -26.3472   21.1942 N   0  0  0  0  0  0  0  0  0  0  0  0
  -30.0496  -13.2223   20.3664 N   0  0  0  0  0  0  0  0  0  0  0  0
  -25.7108  -15.0813   20.5152 N   0  0  0  0  0  0  0  0  0  0  0  0
  -21.9317  -12.9447   21.7598 N   0  0  0  0  0  0  0  0  0  0  0  0
  -30.3795  -15.2693   21.4904 N   0  0  0  0  0  0  0  0  0  0  0  0
  -27.2558  -27.3136   21.2631 N   0  0  0  0  0  0  0  0  0  0  0  0
  -33.2051  -27.6580   19.6633 N   0  0  0  0  0  0  0  0  0  0  0  0
  -36.3550  -27.1396   21.3596 N   0  3  0  0  0  0  0  0  0  0  0  0
  -22.9012  -15.0043   21.4832 O   0  0  0  0  0  0  0  0  0  0  0  0
  -27.9229  -25.0892   21.0915 O   0  0  0  0  0  0  0  0  0  0  0  0
  -30.6513  -28.5876   20.5704 O   0  0  0  0  0  0  0  0  0  0  0  0
  -34.3597  -25.6785   20.0177 O   0  0  0  0  0  0  0  0  0  0  0  0
  -32.0501  -14.3624   20.1606 O   0  0  0  0  0  0  0  0  0  0  0  0
  -21.1338   -7.4315   21.8228 O   0  0  0  0  0  0  0  0  0  0  0  0
  -31.0704  -20.4339   22.8507 O   0  0  0  0  0  0  0  0  0  1  0  0
  -23.2258   -3.1346   24.5729 F   0  0  0  0  0  0  0  0  0  0  0  0
  -20.0580   -6.6361   24.2420 F   0  0  0  0  0  0  0  0  0  0  0  0
  -32.8809  -14.0605   22.6694 Cl  0  0  0  0  0  0  0  0  0  0  0  0
  -29.1433  -17.9576   21.9593 Cl  0  0  0  0  0  0  0  0  0  0  0  0
  1  2  1  0  0  0  0
  1  5  2  0  0  0  0
  2  6  2  0  0  0  0
  3  8  2  0  0  0  0
  3 16  1  0  0  0  0
  4  9  1  0  0  0  0
  4 16  2  0  0  0  0
  5 18  1  0  0  0  0
  6 20  1  0  0  0  0
  7 10  2  0  0  0  0
  7 19  1  0  0  0  0
  8 25  1  0  0  0  0
  9 25  2  0  0  0  0
 10 26  1  0  0  0  0
 11 12  2  0  0  0  0
 11 27  1  0  0  0  0
 12 28  1  0  0  0  0
 13 21  1  0  0  0  0
 13 26  2  0  0  0  0
 14 22  1  0  0  0  0
 14 30  2  0  0  0  0
 15 28  2  0  0  0  0
 15 29  1  0  0  0  0
 16 32  1  0  0  0  0
 17 32  1  0  0  0  0
 17 33  2  0  0  0  0
 17 34  1  0  0  0  0
 18 20  2  0  0  0  0
 18 39  1  0  0  0  0
 19 21  2  0  0  0  0
 19 40  1  0  0  0  0
 20 48  1  0  0  0  0
 21 41  1  0  0  0  0
 22 23  2  0  0  0  0
 22 57  1  0  0  0  0
 23 31  1  0  0  0  0
 23 58  1  0  0  0  0
 24 30  1  0  0  0  0
 24 31  2  0  0  0  0
 24 68  1  0  0  0  0
 25 77  1  0  0  0  0
 26 78  1  0  0  0  0
 27 29  2  0  0  0  0
 27 77  1  0  0  0  0
 28 79  1  0  0  0  0
 29 80  1  0  0  0  0
 30 81  1  0  0  0  0
 31 82  1  0  0  0  0
 32 62  2  0  0  0  0
 33 63  1  0  0  0  0
 33 66  1  0  0  0  0
 34 67  1  0  0  0  0
 34 72  2  0  0  0  0
 35 49  1  0  0  0  0
 35 69  1  0  0  0  0
 35 73  2  0  0  0  0
 36 59  1  0  0  0  0
 36 64  1  0  0  0  0
 36 74  2  0  0  0  0
 37 60  1  0  0  0  0
 37 70  1  0  0  0  0
 37 75  2  0  0  0  0
 38 65  1  0  0  0  0
 38 68  1  0  0  0  0
 38 76  2  0  0  0  0
 39 42  1  0  0  0  0
 40 49  1  0  0  0  0
 41 64  1  0  0  0  0
 42 44  1  0  0  0  0
 43 45  1  0  0  0  0
 43 46  1  0  0  0  0
 44 48  1  0  0  0  0
 45 50  1  0  0  0  0
 46 65  1  0  0  0  0
 47 50  1  0  0  0  0
 47 65  1  0  0  0  0
 48 69  1  0  0  0  0
 49 64  1  0  0  0  0
 50 63  1  0  0  0  0
 51 57  1  0  0  0  0
 52 60  1  0  0  0  0
 53 61  1  0  0  0  0
 54 61  1  0  0  0  0
 55 61  1  0  0  0  0
 56 71  1  0  0  0  0
 58 78  1  0  0  0  0
 59 61  1  0  0  0  0
 59 70  1  0  0  0  0
 60 71  1  0  0  0  0
 62 63  1  0  0  0  0
M  CHG  1  71   1
M  ISO  4  38 100  58 101  68 100  78 101
M  END
> <Batch ID>
0021

> <Smiles>
CCc1cc(Cl)c([100NH:0][100C:0](=O)N2CCCC(n3nc(-c4ccc(Oc5ccc(F)cc5F)cc4)c(C(N)=O)c3N)C2)c(Cl)c1[101CH2:1][101O:1]c1ccc2c(c1)CN(C(=O)C(NC(=O)C(C)NC)C(C)(C)C)C(C(=O)NC1CCCc3ccccc31)C2

> <Shape>
0.284

> <Color>
0.207

> <Negative vol penalty>
0.000

$$$$

  -OEChem-04052316123D

 92100  0     1  0  0  0  0  0999 V2000
  -28.1400  -21.8215   15.5679 C   0  0  0  0  0  0  0  0  0  0  0  0
  -26.9488  -22.2050   16.1757 C   0  0  0  0  0  0  0  0  0  0  0  0
  -25.7633  -13.3903   21.5845 C   0  0  0  0  0  0  0  0  0  0  0  0
  -26.0736  -13.6154   19.1991 C   0  0  0  0  0  0  0  0  0  0  0  0
  -29.3590  -22.1223   16.1740 C   0  0  0  0  0  0  0  0  0  0  0  0
  -26.9760  -22.8887   17.3907 C   0  0  0  0  0  0  0  0  0  0  0  0
  -23.1003  -27.2519   19.2473 C   0  0  0  0  0  0  0  0  0  0  0  0
  -25.4599  -12.0391   21.4176 C   0  0  0  0  0  0  0  0  0  0  0  0
  -25.7703  -12.2641   19.0322 C   0  0  0  0  0  0  0  0  0  0  0  0
  -21.9812  -27.2209   20.0782 C   0  0  0  0  0  0  0  0  0  0  0  0
  -24.2521   -8.6130   21.5805 C   0  0  0  0  0  0  0  0  0  0  0  0
  -23.1549   -8.1026   22.2743 C   0  0  0  0  0  0  0  0  0  0  0  0
  -23.3536  -27.9012   21.9418 C   0  0  0  0  0  0  0  0  0  0  0  0
  -21.7085   -9.6709   21.1405 C   0  0  0  0  0  0  0  0  0  0  0  0
  -26.0701  -14.1784   20.4753 C   0  0  0  0  0  0  0  0  0  0  0  0
  -27.6535  -16.1402   20.8654 C   0  0  0  0  0  0  0  0  0  0  0  0
  -29.4014  -22.8185   17.3923 C   0  0  0  0  0  0  0  0  0  0  0  0
  -24.3586  -27.5979   19.7606 C   0  0  0  0  0  0  0  0  0  0  0  0
  -28.1967  -23.1980   18.0144 C   0  0  0  0  0  0  0  0  0  0  0  0
  -24.4866  -27.9384   21.1148 C   0  0  0  0  0  0  0  0  0  0  0  0
  -18.8647  -28.7305   23.8167 C   0  0  0  0  0  0  0  0  0  0  0  0
  -25.4634  -11.4760   20.1415 C   0  0  0  0  0  0  0  0  0  0  0  0
  -22.1083  -27.5427   21.4263 C   0  0  0  0  0  0  0  0  0  0  0  0
  -24.0775   -9.6524   20.6668 C   0  0  0  0  0  0  0  0  0  0  0  0
  -21.8831   -8.6315   22.0542 C   0  0  0  0  0  0  0  0  0  0  0  0
  -22.8057  -10.1813   20.4468 C   0  0  0  0  0  0  0  0  0  0  0  0
  -26.3831  -15.5744   20.6470 C   0  0  0  0  0  0  0  0  0  0  0  0
  -18.7933  -30.0881   24.0123 C   0  0  0  0  0  0  0  0  0  0  0  0
  -17.7638  -28.4356   22.9903 C   0  0  0  0  0  0  0  0  0  0  0  0
  -27.4165  -17.4897   20.9611 C   0  0  0  0  0  0  0  0  0  0  0  0
  -28.9334  -15.5029   20.9723 C   0  0  0  0  0  0  0  0  0  0  0  0
  -27.1557  -26.1128   20.0326 C   0  0  0  0  0  0  0  0  0  0  0  0
  -28.1556  -29.0177   21.0737 C   0  0  0  0  0  0  0  0  0  0  0  0
  -27.3585  -32.0230   22.4808 C   0  0  0  0  0  0  0  0  0  0  0  0
  -23.1260  -20.8955   18.7595 C   0  0  0  0  0  0  0  0  0  0  0  0
  -30.7416  -23.0796   18.0329 C   0  0  0  0  0  0  0  0  0  0  0  0
  -25.5510  -27.6526   18.8454 C   0  0  0  0  0  0  0  0  0  0  0  0
  -25.8114  -28.3362   21.7106 C   0  0  0  0  0  0  0  0  0  0  0  0
  -30.6950  -24.1362   19.1337 C   0  0  0  0  0  0  0  0  0  0  0  0
  -24.0292  -20.6147   22.2527 C   0  0  0  0  0  0  0  0  0  0  0  0
  -29.5199  -23.8786   20.0715 C   0  0  0  0  0  0  0  0  0  0  0  0
  -24.8626  -19.3318   22.2492 C   0  0  0  0  0  0  0  0  0  0  0  0
  -22.8547  -20.5136   21.2840 C   0  0  0  0  0  0  0  0  0  0  0  0
  -24.0710  -18.8959   19.8778 C   0  0  0  0  0  0  0  0  0  0  0  0
  -28.1858  -23.9628   19.3202 C   0  0  1  0  0  0  0  0  0  0  0  0
  -26.8786  -27.5201   19.5852 C   0  0  1  0  0  0  0  0  0  0  0  0
  -25.2872  -18.9434   20.8206 C   0  0  2  0  0  0  0  0  0  0  0  0
  -21.4562  -32.8040   24.6737 C   0  0  0  0  0  0  0  0  0  0  0  0
  -28.3944  -34.1777   23.2432 C   0  0  0  0  0  0  0  0  0  0  0  0
  -15.1091  -26.7628   22.5704 C   0  0  0  0  0  0  0  0  0  0  0  0
  -29.2373  -27.6157   23.5586 C   0  0  0  0  0  0  0  0  0  0  0  0
  -29.3850  -29.8534   24.6716 C   0  0  0  0  0  0  0  0  0  0  0  0
  -30.7347  -29.3884   22.6259 C   0  0  0  0  0  0  0  0  0  0  0  0
  -17.1994  -31.8599   23.2148 C   0  0  0  0  0  0  0  0  0  0  0  0
  -25.7522  -33.6075   20.5656 C   0  0  0  0  0  0  0  0  0  0  0  0
  -19.8762  -27.8042   24.3592 C   0  0  0  0  0  0  0  0  0  0  0  0
  -19.6525  -31.0080   24.7819 C   0  0  0  0  0  0  0  0  0  0  0  0
  -20.5986  -31.8294   23.8823 C   0  0  0  0  0  0  0  0  0  0  0  0
  -19.3613  -24.0130   18.6489 C   0  0  0  0  0  0  0  0  0  0  0  0
  -18.1196  -24.0675   19.5449 C   0  0  0  0  0  0  0  0  0  0  0  0
  -19.5717  -22.6477   17.9891 C   0  0  0  0  0  0  0  0  0  0  0  0
  -17.8929  -25.4393   20.1858 C   0  0  0  0  0  0  0  0  0  0  0  0
  -20.8104  -22.5955   17.0860 C   0  0  0  0  0  0  0  0  0  0  0  0
  -16.6179  -25.4472   21.0385 C   0  0  0  0  0  0  0  0  0  0  0  0
  -22.1241  -22.9435   17.7802 C   0  0  0  0  0  0  0  0  0  0  0  0
  -21.2188  -27.8535   23.6099 C   0  0  0  0  0  0  0  0  0  1  0  0
  -28.2348  -29.7030   22.4165 C   0  0  1  0  0  0  0  0  0  0  0  0
  -27.7219  -33.4449   22.0928 C   0  0  2  0  0  0  0  0  0  0  0  0
  -16.3728  -26.8015   21.7173 C   0  0  2  0  0  0  0  0  0  0  0  0
  -29.3732  -29.1308   23.3077 C   0  0  0  0  0  0  0  0  0  0  0  0
  -25.4111  -16.4896   20.6064 N   0  0  0  0  0  0  0  0  0  0  0  0
  -17.0456  -29.5188   22.6822 N   0  0  0  0  0  0  0  0  0  0  0  0
  -17.6965  -30.5075   23.3185 N   0  0  0  0  0  0  0  0  0  0  0  0
  -26.0709  -17.6441   20.8007 N   0  0  0  0  0  0  0  0  0  0  0  0
  -26.9489  -28.3686   20.7765 N   0  0  0  0  0  0  0  0  0  0  0  0
  -23.3287  -20.1594   19.9386 N   0  0  0  0  0  0  0  0  0  0  0  0
  -28.2299  -18.5474   21.1660 N   0  0  0  0  0  0  0  0  0  0  0  0
  -28.9976  -14.1082   20.8498 N   0  0  0  0  0  0  0  0  0  0  0  0
  -17.4936  -27.1467   22.5668 N   0  0  0  0  0  0  0  0  0  0  0  0
  -27.8189  -25.3445   19.0948 N   0  0  0  0  0  0  0  0  0  0  0  0
  -28.3528  -31.1306   22.1399 N   0  0  0  0  0  0  0  0  0  0  0  0
  -22.4076  -22.0763   18.9021 N   0  0  0  0  0  0  0  0  0  0  0  0
  -26.5001  -34.2036   21.7023 N   0  3  0  0  0  0  0  0  0  0  0  0
  -29.9867  -16.1494   21.1868 O   0  0  0  0  0  0  0  0  0  0  0  0
  -26.7959  -25.7511   21.1468 O   0  0  0  0  0  0  0  0  0  0  0  0
  -29.1260  -29.0629   20.3135 O   0  0  0  0  0  0  0  0  0  0  0  0
  -26.3001  -31.7334   23.0345 O   0  0  0  0  0  0  0  0  0  0  0  0
  -23.5581  -20.5301   17.6609 O   0  0  0  0  0  0  0  0  0  0  0  0
  -25.1677  -10.1575   19.9782 O   0  0  0  0  0  0  0  0  0  0  0  0
  -21.0100  -27.5124   22.2454 O   0  0  0  0  0  0  0  0  0  1  0  0
  -20.8294   -8.1402   22.7194 F   0  0  0  0  0  0  0  0  0  0  0  0
  -22.6315  -11.1791   19.5693 F   0  0  0  0  0  0  0  0  0  0  0  0
  1  2  1  0  0  0  0
  1  5  2  0  0  0  0
  2  6  2  0  0  0  0
  3  8  2  0  0  0  0
  3 15  1  0  0  0  0
  4  9  1  0  0  0  0
  4 15  2  0  0  0  0
  5 17  1  0  0  0  0
  6 19  1  0  0  0  0
  7 10  2  0  0  0  0
  7 18  1  0  0  0  0
  8 22  1  0  0  0  0
  9 22  2  0  0  0  0
 10 23  1  0  0  0  0
 11 12  2  0  0  0  0
 11 24  1  0  0  0  0
 12 25  1  0  0  0  0
 13 20  1  0  0  0  0
 13 23  2  0  0  0  0
 14 25  2  0  0  0  0
 14 26  1  0  0  0  0
 15 27  1  0  0  0  0
 16 27  1  0  0  0  0
 16 30  2  0  0  0  0
 16 31  1  0  0  0  0
 17 19  2  0  0  0  0
 17 36  1  0  0  0  0
 18 20  2  0  0  0  0
 18 37  1  0  0  0  0
 19 45  1  0  0  0  0
 20 38  1  0  0  0  0
 21 28  2  0  0  0  0
 21 29  1  0  0  0  0
 21 56  1  0  0  0  0
 22 89  1  0  0  0  0
 23 90  1  0  0  0  0
 24 26  2  0  0  0  0
 24 89  1  0  0  0  0
 25 91  1  0  0  0  0
 26 92  1  0  0  0  0
 27 71  2  0  0  0  0
 28 57  1  0  0  0  0
 28 73  1  0  0  0  0
 29 72  2  0  0  0  0
 29 79  1  0  0  0  0
 30 74  1  0  0  0  0
 30 77  1  0  0  0  0
 31 78  1  0  0  0  0
 31 84  2  0  0  0  0
 32 46  1  0  0  0  0
 32 80  1  0  0  0  0
 32 85  2  0  0  0  0
 33 67  1  0  0  0  0
 33 75  1  0  0  0  0
 33 86  2  0  0  0  0
 34 68  1  0  0  0  0
 34 81  1  0  0  0  0
 34 87  2  0  0  0  0
 35 76  1  0  0  0  0
 35 82  1  0  0  0  0
 35 88  2  0  0  0  0
 36 39  1  0  0  0  0
 37 46  1  0  0  0  0
 38 75  1  0  0  0  0
 39 41  1  0  0  0  0
 40 42  1  0  0  0  0
 40 43  1  0  0  0  0
 41 45  1  0  0  0  0
 42 47  1  0  0  0  0
 43 76  1  0  0  0  0
 44 47  1  0  0  0  0
 44 76  1  0  0  0  0
 45 80  1  0  0  0  0
 46 75  1  0  0  0  0
 47 74  1  0  0  0  0
 48 58  1  0  0  0  0
 49 68  1  0  0  0  0
 50 69  1  0  0  0  0
 51 70  1  0  0  0  0
 52 70  1  0  0  0  0
 53 70  1  0  0  0  0
 54 73  1  0  0  0  0
 55 83  1  0  0  0  0
 56 66  1  0  0  0  0
 57 58  1  0  0  0  0
 59 60  1  0  0  0  0
 59 61  1  0  0  0  0
 60 62  1  0  0  0  0
 61 63  1  0  0  0  0
 62 64  1  0  0  0  0
 63 65  1  0  0  0  0
 64 69  1  0  0  0  0
 65 82  1  0  0  0  0
 66 90  1  0  0  0  0
 67 70  1  0  0  0  0
 67 81  1  0  0  0  0
 68 83  1  0  0  0  0
 69 79  1  0  0  0  0
 71 74  1  0  0  0  0
 72 73  1  0  0  0  0
M  CHG  1  83   1
M  ISO  4  35 100  66 101  82 100  90 101
M  END
> <Batch ID>
0021

> <Smiles>
CCCc1c(C[101CH2:1][101O:1]c2ccc3c(c2)CN(C(=O)C(NC(=O)C(C)NC)C(C)(C)C)C(C(=O)NC2CCCc4ccccc42)C3)c(NC(C)CCCCCCC[100NH:0][100C:0](=O)N2CCCC(n3nc(-c4ccc(Oc5ccc(F)cc5F)cc4)c(C(N)=O)c3N)C2)nn1C

> <Shape>
0.259

> <Color>
0.064

> <Negative vol penalty>
0.000

$$$$

  -OEChem-04052316123D

 86 94  0     1  0  0  0  0  0999 V2000
  -22.4397   -8.2727   17.7797 C   0  0  0  0  0  0  0  0  0  0  0  0
  -22.1276   -9.5431   17.3064 C   0  0  0  0  0  0  0  0  0  0  0  0
  -29.3297  -28.1189   19.9755 C   0  0  0  0  0  0  0  0  0  0  0  0
  -27.5571  -26.7533   19.0645 C   0  0  0  0  0  0  0  0  0  0  0  0
  -22.7797   -8.0935   19.1199 C   0  0  0  0  0  0  0  0  0  0  0  0
  -22.1540  -10.6349   18.1734 C   0  0  0  0  0  0  0  0  0  0  0  0
  -23.5955  -17.6512   18.2730 C   0  0  0  0  0  0  0  0  0  0  0  0
  -30.1928  -27.0238   19.9377 C   0  0  0  0  0  0  0  0  0  0  0  0
  -28.4202  -25.6582   19.0266 C   0  0  0  0  0  0  0  0  0  0  0  0
  -23.0249  -18.8626   18.6612 C   0  0  0  0  0  0  0  0  0  0  0  0
  -29.6606  -23.3873   21.2027 C   0  0  0  0  0  0  0  0  0  0  0  0
  -29.1762  -22.1641   21.6659 C   0  0  0  0  0  0  0  0  0  0  0  0
  -23.7036  -18.4456   20.9382 C   0  0  0  0  0  0  0  0  0  0  0  0
  -29.5681  -21.1857   19.4919 C   0  0  0  0  0  0  0  0  0  0  0  0
  -28.0118  -27.9836   19.5390 C   0  0  0  0  0  0  0  0  0  0  0  0
  -26.9081  -30.0661   18.5629 C   0  0  0  0  0  0  0  0  0  0  0  0
  -22.8197   -9.1851   20.0016 C   0  0  0  0  0  0  0  0  0  0  0  0
  -24.2159  -16.8214   19.2179 C   0  0  0  0  0  0  0  0  0  0  0  0
  -22.4935  -10.4699   19.5270 C   0  0  0  0  0  0  0  0  0  0  0  0
  -24.2836  -17.2254   20.5589 C   0  0  0  0  0  0  0  0  0  0  0  0
  -22.0582  -23.6880   19.7477 C   0  0  0  0  0  0  0  0  0  0  0  0
  -21.3754  -22.4918   19.9680 C   0  0  0  0  0  0  0  0  0  0  0  0
  -19.7462  -23.6687   21.3087 C   0  0  0  0  0  0  0  0  0  0  0  0
  -20.4289  -24.8649   21.0884 C   0  0  0  0  0  0  0  0  0  0  0  0
  -29.7381  -25.7935   19.4632 C   0  0  0  0  0  0  0  0  0  0  0  0
  -23.0764  -19.2586   19.9945 C   0  0  0  0  0  0  0  0  0  0  0  0
  -30.0987  -23.5098   19.8840 C   0  0  0  0  0  0  0  0  0  0  0  0
  -29.1300  -21.0633   20.8106 C   0  0  0  0  0  0  0  0  0  0  0  0
  -30.0524  -22.4090   19.0287 C   0  0  0  0  0  0  0  0  0  0  0  0
  -21.5849  -24.8746   20.3079 C   0  0  0  0  0  0  0  0  0  0  0  0
  -20.2194  -22.4821   20.7485 C   0  0  0  0  0  0  0  0  0  0  0  0
  -27.1196  -29.1144   19.5784 C   0  0  0  0  0  0  0  0  0  0  0  0
  -25.9746  -30.9263   19.0876 C   0  0  0  0  0  0  0  0  0  0  0  0
  -27.5021  -30.1638   17.2617 C   0  0  0  0  0  0  0  0  0  0  0  0
  -23.7037  -13.8754   20.2959 C   0  0  0  0  0  0  0  0  0  0  0  0
  -26.4844  -14.3920   21.8844 C   0  0  0  0  0  0  0  0  0  0  0  0
  -28.6929  -16.6333   23.2056 C   0  0  0  0  0  0  0  0  0  0  0  0
  -21.7682  -30.3014   23.3026 C   0  0  0  0  0  0  0  0  0  0  0  0
  -23.1468   -8.9347   21.4525 C   0  0  0  0  0  0  0  0  0  0  0  0
  -24.8502  -15.5303   18.7784 C   0  0  0  0  0  0  0  0  0  0  0  0
  -24.9559  -16.3803   21.6088 C   0  0  0  0  0  0  0  0  0  0  0  0
  -23.5159  -10.2011   22.2210 C   0  0  0  0  0  0  0  0  0  0  0  0
  -24.4222  -32.6745   23.2619 C   0  0  0  0  0  0  0  0  0  0  0  0
  -22.5206  -11.3172   21.9202 C   0  0  0  0  0  0  0  0  0  0  0  0
  -25.3954  -32.1170   22.2216 C   0  0  0  0  0  0  0  0  0  0  0  0
  -23.7594  -31.5602   24.0688 C   0  0  0  0  0  0  0  0  0  0  0  0
  -24.0722  -29.9611   22.2198 C   0  0  0  0  0  0  0  0  0  0  0  0
  -22.5352  -11.6828   20.4310 C   0  0  1  0  0  0  0  0  0  0  0  0
  -25.0044  -14.5234   19.9141 C   0  0  1  0  0  0  0  0  0  0  0  0
  -24.7235  -31.0445   21.3432 C   0  0  2  0  0  0  0  0  0  0  0  0
  -23.2979  -23.6790   18.9066 C   0  0  0  0  0  0  0  0  0  0  0  0
  -18.5053  -23.6727   22.1489 C   0  0  0  0  0  0  0  0  0  0  0  0
  -30.7915  -17.4644   24.3022 C   0  0  0  0  0  0  0  0  0  0  0  0
  -25.0183  -13.6213   24.4469 C   0  0  0  0  0  0  0  0  0  0  0  0
  -26.8909  -14.6564   25.7469 C   0  0  0  0  0  0  0  0  0  0  0  0
  -27.3380  -12.7065   24.2568 C   0  0  0  0  0  0  0  0  0  0  0  0
  -30.0935  -16.8713   20.6094 C   0  0  0  0  0  0  0  0  0  0  0  0
  -21.8990  -21.2247   19.3584 C   0  0  0  0  0  0  0  0  0  1  0  0
  -19.5891  -27.7939   23.3406 C   0  0  0  0  0  0  0  0  0  0  0  0
  -20.3345  -26.5162   22.9565 C   0  0  0  0  0  0  0  0  0  0  0  0
  -19.8657  -28.9773   22.4158 C   0  0  0  0  0  0  0  0  0  0  0  0
  -26.8560  -14.9661   23.2302 C   0  0  1  0  0  0  0  0  0  0  0  0
  -30.2036  -16.7400   23.1012 C   0  0  2  0  0  0  0  0  0  0  0  0
  -26.5114  -14.0028   24.4010 C   0  0  0  0  0  0  0  0  0  0  0  0
  -26.3802  -29.3477   20.6660 N   0  0  0  0  0  0  0  0  0  0  0  0
  -25.6950  -30.4560   20.3369 N   0  0  0  0  0  0  0  0  0  0  0  0
  -25.5557  -15.1237   21.1306 N   0  0  0  0  0  0  0  0  0  0  0  0
  -23.1398  -30.5772   23.1768 N   0  0  0  0  0  0  0  0  0  0  0  0
  -25.3741  -32.0316   18.5976 N   0  0  0  0  0  0  0  0  0  0  0  0
  -28.4430  -29.1968   16.8824 N   0  0  0  0  0  0  0  0  0  0  0  0
  -19.9379  -26.0625   21.6629 N   0  0  0  0  0  0  0  0  0  0  0  0
  -23.6862  -12.5044   20.1235 N   0  0  0  0  0  0  0  0  0  0  0  0
  -28.2681  -15.3229   23.1459 N   0  0  0  0  0  0  0  0  0  0  0  0
  -21.2596  -29.3620   22.4140 N   0  0  0  0  0  0  0  0  0  0  0  0
  -30.5863  -17.4857   21.8690 N   0  3  0  0  0  0  0  0  0  0  0  0
  -27.2195  -31.0909   16.4653 O   0  0  0  0  0  0  0  0  0  0  0  0
  -22.7845  -14.5677   20.7171 O   0  0  0  0  0  0  0  0  0  0  0  0
  -27.0044  -13.3371   21.5124 O   0  0  0  0  0  0  0  0  0  0  0  0
  -27.9630  -17.6141   23.3315 O   0  0  0  0  0  0  0  0  0  0  0  0
  -21.0491  -30.8554   24.1410 O   0  0  0  0  0  0  0  0  0  0  0  0
  -30.5801  -24.7247   19.4259 O   0  0  0  0  0  0  0  0  0  0  0  0
  -22.5196  -20.4402   20.3762 O   0  0  0  0  0  0  0  0  0  1  0  0
  -28.6662  -19.8882   21.2560 F   0  0  0  0  0  0  0  0  0  0  0  0
  -30.4730  -22.5202   17.7612 F   0  0  0  0  0  0  0  0  0  0  0  0
  -22.4373  -26.3599   20.0301 Cl  0  0  0  0  0  0  0  0  0  0  0  0
  -19.3719  -20.9953   21.0230 Cl  0  0  0  0  0  0  0  0  0  0  0  0
  1  2  1  0  0  0  0
  1  5  2  0  0  0  0
  2  6  2  0  0  0  0
  3  8  2  0  0  0  0
  3 15  1  0  0  0  0
  4  9  1  0  0  0  0
  4 15  2  0  0  0  0
  5 17  1  0  0  0  0
  6 19  1  0  0  0  0
  7 10  2  0  0  0  0
  7 18  1  0  0  0  0
  8 25  1  0  0  0  0
  9 25  2  0  0  0  0
 10 26  1  0  0  0  0
 11 12  2  0  0  0  0
 11 27  1  0  0  0  0
 12 28  1  0  0  0  0
 13 20  1  0  0  0  0
 13 26  2  0  0  0  0
 14 28  2  0  0  0  0
 14 29  1  0  0  0  0
 15 32  1  0  0  0  0
 16 32  1  0  0  0  0
 16 33  2  0  0  0  0
 16 34  1  0  0  0  0
 17 19  2  0  0  0  0
 17 39  1  0  0  0  0
 18 20  2  0  0  0  0
 18 40  1  0  0  0  0
 19 48  1  0  0  0  0
 20 41  1  0  0  0  0
 21 22  1  0  0  0  0
 21 30  2  0  0  0  0
 21 51  1  0  0  0  0
 22 31  2  0  0  0  0
 22 58  1  0  0  0  0
 23 24  2  0  0  0  0
 23 31  1  0  0  0  0
 23 52  1  0  0  0  0
 24 30  1  0  0  0  0
 24 71  1  0  0  0  0
 25 81  1  0  0  0  0
 26 82  1  0  0  0  0
 27 29  2  0  0  0  0
 27 81  1  0  0  0  0
 28 83  1  0  0  0  0
 29 84  1  0  0  0  0
 30 85  1  0  0  0  0
 31 86  1  0  0  0  0
 32 65  2  0  0  0  0
 33 66  1  0  0  0  0
 33 69  1  0  0  0  0
 34 70  1  0  0  0  0
 34 76  2  0  0  0  0
 35 49  1  0  0  0  0
 35 72  1  0  0  0  0
 35 77  2  0  0  0  0
 36 62  1  0  0  0  0
 36 67  1  0  0  0  0
 36 78  2  0  0  0  0
 37 63  1  0  0  0  0
 37 73  1  0  0  0  0
 37 79  2  0  0  0  0
 38 68  1  0  0  0  0
 38 74  1  0  0  0  0
 38 80  2  0  0  0  0
 39 42  1  0  0  0  0
 40 49  1  0  0  0  0
 41 67  1  0  0  0  0
 42 44  1  0  0  0  0
 43 45  1  0  0  0  0
 43 46  1  0  0  0  0
 44 48  1  0  0  0  0
 45 50  1  0  0  0  0
 46 68  1  0  0  0  0
 47 50  1  0  0  0  0
 47 68  1  0  0  0  0
 48 72  1  0  0  0  0
 49 67  1  0  0  0  0
 50 66  1  0  0  0  0
 53 63  1  0  0  0  0
 54 64  1  0  0  0  0
 55 64  1  0  0  0  0
 56 64  1  0  0  0  0
 57 75  1  0  0  0  0
 58 82  1  0  0  0  0
 59 60  1  0  0  0  0
 59 61  1  0  0  0  0
 60 71  1  0  0  0  0
 61 74  1  0  0  0  0
 62 64  1  0  0  0  0
 62 73  1  0  0  0  0
 63 75  1  0  0  0  0
 65 66  1  0  0  0  0
M  CHG  1  75   1
M  ISO  4  38 100  58 101  74 100  82 101
M  END
> <Batch ID>
0021

> <Smiles>
CNC(C)C(=O)NC(C(=O)N1Cc2cc([101O:1][101CH2:1]c3c(C)c(Cl)c(NCCC[100NH:0][100C:0](=O)N4CCCC(n5nc(-c6ccc(Oc7ccc(F)cc7F)cc6)c(C(N)=O)c5N)C4)c(C)c3Cl)ccc2CC1C(=O)NC1CCCc2ccccc21)C(C)(C)C

> <Shape>
0.251

> <Color>
0.054

> <Negative vol penalty>
0.000

$$$$

  -OEChem-04052316123D

 91100  0     1  0  0  0  0  0999 V2000
  -18.8516  -32.5109   25.6924 C   0  0  0  0  0  0  0  0  0  0  0  0
  -20.2286  -32.5412   25.4967 C   0  0  0  0  0  0  0  0  0  0  0  0
  -24.5562  -12.2029   19.7000 C   0  0  0  0  0  0  0  0  0  0  0  0
  -25.5045  -12.9616   21.7886 C   0  0  0  0  0  0  0  0  0  0  0  0
  -18.1145  -31.4010   25.2814 C   0  0  0  0  0  0  0  0  0  0  0  0
  -20.8696  -31.4611   24.8909 C   0  0  0  0  0  0  0  0  0  0  0  0
  -26.4063  -29.9422   20.6067 C   0  0  0  0  0  0  0  0  0  0  0  0
  -25.2629  -11.0057   19.8140 C   0  0  0  0  0  0  0  0  0  0  0  0
  -26.2112  -11.7644   21.9026 C   0  0  0  0  0  0  0  0  0  0  0  0
  -27.5299  -29.1187   20.5498 C   0  0  0  0  0  0  0  0  0  0  0  0
  -24.9797   -8.0984   21.5170 C   0  0  0  0  0  0  0  0  0  0  0  0
  -24.2944   -6.9132   21.2502 C   0  0  0  0  0  0  0  0  0  0  0  0
  -26.1437  -27.2888   19.8089 C   0  0  0  0  0  0  0  0  0  0  0  0
  -29.5473  -22.1194   21.6377 C   0  0  0  0  0  0  0  0  0  0  0  0
  -28.2812  -21.9106   23.6847 C   0  0  0  0  0  0  0  0  0  0  0  0
  -25.8502   -6.4143   19.4703 C   0  0  0  0  0  0  0  0  0  0  0  0
  -24.6770  -13.1809   20.6873 C   0  0  0  0  0  0  0  0  0  0  0  0
  -22.6558  -14.6927   21.0568 C   0  0  0  0  0  0  0  0  0  0  0  0
  -18.7454  -30.3109   24.6615 C   0  0  0  0  0  0  0  0  0  0  0  0
  -25.1392  -29.4413   20.2751 C   0  0  0  0  0  0  0  0  0  0  0  0
  -20.1405  -30.3351   24.4725 C   0  0  0  0  0  0  0  0  0  0  0  0
  -25.0060  -28.1086   19.8599 C   0  0  0  0  0  0  0  0  0  0  0  0
  -29.4273  -22.3325   23.0109 C   0  0  0  0  0  0  0  0  0  0  0  0
  -27.3749  -21.0623   21.6120 C   0  0  0  0  0  0  0  0  0  0  0  0
  -26.0904  -10.7865   20.9153 C   0  0  0  0  0  0  0  0  0  0  0  0
  -27.3983  -27.7910   20.1536 C   0  0  0  0  0  0  0  0  0  0  0  0
  -26.1002   -8.4417   20.7604 C   0  0  0  0  0  0  0  0  0  0  0  0
  -24.7297   -6.0711   20.2269 C   0  0  0  0  0  0  0  0  0  0  0  0
  -28.5210  -21.4843   20.9382 C   0  0  0  0  0  0  0  0  0  0  0  0
  -26.5354   -7.5996   19.7371 C   0  0  0  0  0  0  0  0  0  0  0  0
  -27.2550  -21.2755   22.9853 C   0  0  0  0  0  0  0  0  0  0  0  0
  -23.9477  -14.4179   20.5698 C   0  0  0  0  0  0  0  0  0  0  0  0
  -22.4208  -15.9956   20.6911 C   0  0  0  0  0  0  0  0  0  0  0  0
  -31.3323  -25.5966   20.6026 C   0  0  0  0  0  0  0  0  0  0  0  0
  -21.7491  -13.8458   21.7755 C   0  0  0  0  0  0  0  0  0  0  0  0
  -30.2792  -25.9864   21.3407 C   0  0  0  0  0  0  0  0  0  0  0  0
  -22.3973  -29.0629   21.8379 C   0  0  0  0  0  0  0  0  0  0  0  0
  -21.3012  -28.1873   18.9131 C   0  0  0  0  0  0  0  0  0  0  0  0
  -21.9992  -26.9650   15.8041 C   0  0  0  0  0  0  0  0  0  0  0  0
  -26.0198  -20.6231   19.5343 C   0  0  0  0  0  0  0  0  0  0  0  0
  -17.9134  -29.1132   24.2771 C   0  0  0  0  0  0  0  0  0  0  0  0
  -23.9411  -30.3498   20.3159 C   0  0  0  0  0  0  0  0  0  0  0  0
  -23.6710  -27.5279   19.4740 C   0  0  0  0  0  0  0  0  0  0  0  0
  -18.6164  -28.1702   23.3040 C   0  0  0  0  0  0  0  0  0  0  0  0
  -23.5911  -19.2149   17.3444 C   0  0  0  0  0  0  0  0  0  0  0  0
  -20.0461  -27.8996   23.7617 C   0  0  0  0  0  0  0  0  0  0  0  0
  -23.2849  -17.8525   17.9707 C   0  0  0  0  0  0  0  0  0  0  0  0
  -25.0660  -19.5862   17.4873 C   0  0  0  0  0  0  0  0  0  0  0  0
  -25.2867  -18.1583   19.4827 C   0  0  0  0  0  0  0  0  0  0  0  0
  -20.8684  -29.1935   23.7965 C   0  0  1  0  0  0  0  0  0  0  0  0
  -22.6226  -29.5942   20.4506 C   0  0  1  0  0  0  0  0  0  0  0  0
  -30.8215  -24.4152   23.2652 C   0  0  1  0  0  0  0  0  0  0  0  0
  -23.8003  -17.7703   19.4209 C   0  0  2  0  0  0  0  0  0  0  0  0
  -29.7748  -25.2184   22.5056 C   0  0  1  0  0  0  0  0  0  0  0  0
  -30.2428  -25.6671   23.9044 C   0  0  0  0  0  0  0  0  0  0  0  0
  -28.3897  -24.6703   22.2837 C   0  0  0  0  0  0  0  0  0  0  0  0
  -31.1836  -26.8481   24.0472 C   0  0  0  0  0  0  0  0  0  0  0  0
  -29.2931  -25.5661   25.0763 C   0  0  0  0  0  0  0  0  0  0  0  0
  -20.8921  -26.3233   13.6455 C   0  0  0  0  0  0  0  0  0  0  0  0
  -31.8528  -22.1547   23.6682 C   0  0  0  0  0  0  0  0  0  0  0  0
  -30.2702  -23.1284   25.3200 C   0  0  0  0  0  0  0  0  0  0  0  0
  -20.2817  -25.6169   20.2028 C   0  0  0  0  0  0  0  0  0  0  0  0
  -20.0610  -24.6363   17.9098 C   0  0  0  0  0  0  0  0  0  0  0  0
  -18.7184  -26.6416   18.5413 C   0  0  0  0  0  0  0  0  0  0  0  0
  -23.5395  -28.9812   14.2805 C   0  0  0  0  0  0  0  0  0  0  0  0
  -29.5531  -27.2648   21.0114 C   0  0  0  0  0  0  0  0  0  1  0  0
  -21.2046  -26.8866   18.1529 C   0  0  1  0  0  0  0  0  0  0  0  0
  -21.5842  -27.4334   14.4211 C   0  0  2  0  0  0  0  0  0  0  0  0
  -30.5727  -23.0423   23.7898 C   0  0  0  0  0  0  0  0  0  0  0  0
  -20.0914  -25.9555   18.7108 C   0  0  0  0  0  0  0  0  0  0  0  0
  -24.4952  -15.4623   19.9424 N   0  0  0  0  0  0  0  0  0  0  0  0
  -23.5425  -16.4060   20.0327 N   0  0  0  0  0  0  0  0  0  0  0  0
  -22.5285  -28.4544   19.5362 N   0  0  0  0  0  0  0  0  0  0  0  0
  -25.4825  -19.4898   18.8880 N   0  0  0  0  0  0  0  0  0  0  0  0
  -21.3662  -16.8187   20.8717 N   0  0  0  0  0  0  0  0  0  0  0  0
  -22.1494  -12.5351   22.0690 N   0  0  0  0  0  0  0  0  0  0  0  0
  -26.3495  -20.4207   20.8740 N   0  0  0  0  0  0  0  0  0  0  0  0
  -21.2728  -29.5715   22.4594 N   0  0  0  0  0  0  0  0  0  0  0  0
  -21.0352  -27.2458   16.7491 N   0  0  0  0  0  0  0  0  0  0  0  0
  -22.7766  -27.8763   13.6447 N   0  3  0  0  0  0  0  0  0  0  0  0
  -20.6110  -14.2346   22.1321 O   0  0  0  0  0  0  0  0  0  0  0  0
  -23.1844  -28.2504   22.3089 O   0  0  0  0  0  0  0  0  0  0  0  0
  -20.3260  -28.9421   18.9465 O   0  0  0  0  0  0  0  0  0  0  0  0
  -23.0698  -26.4027   16.0236 O   0  0  0  0  0  0  0  0  0  0  0  0
  -26.1505  -21.7020   18.9503 O   0  0  0  0  0  0  0  0  0  0  0  0
  -26.7799   -9.6183   21.0270 O   0  0  0  0  0  0  0  0  0  0  0  0
  -28.4932  -26.9849   20.0978 O   0  0  0  0  0  0  0  0  0  1  0  0
  -24.0724   -4.9322   19.9718 F   0  0  0  0  0  0  0  0  0  0  0  0
  -28.6486  -21.2859   19.6183 F   0  0  0  0  0  0  0  0  0  0  0  0
  -27.6119   -7.9234   19.0076 F   0  0  0  0  0  0  0  0  0  0  0  0
  -25.8525  -20.7704   23.8589 Cl  0  0  0  0  0  0  0  0  0  0  0  0
  1  2  1  0  0  0  0
  1  5  2  0  0  0  0
  2  6  2  0  0  0  0
  3  8  2  0  0  0  0
  3 17  1  0  0  0  0
  4  9  1  0  0  0  0
  4 17  2  0  0  0  0
  5 19  1  0  0  0  0
  6 21  1  0  0  0  0
  7 10  2  0  0  0  0
  7 20  1  0  0  0  0
  8 25  1  0  0  0  0
  9 25  2  0  0  0  0
 10 26  1  0  0  0  0
 11 12  2  0  0  0  0
 11 27  1  0  0  0  0
 12 28  1  0  0  0  0
 13 22  1  0  0  0  0
 13 26  2  0  0  0  0
 14 23  1  0  0  0  0
 14 29  2  0  0  0  0
 15 23  2  0  0  0  0
 15 31  1  0  0  0  0
 16 28  2  0  0  0  0
 16 30  1  0  0  0  0
 17 32  1  0  0  0  0
 18 32  1  0  0  0  0
 18 33  2  0  0  0  0
 18 35  1  0  0  0  0
 19 21  2  0  0  0  0
 19 41  1  0  0  0  0
 20 22  2  0  0  0  0
 20 42  1  0  0  0  0
 21 50  1  0  0  0  0
 22 43  1  0  0  0  0
 23 69  1  0  0  0  0
 24 29  1  0  0  0  0
 24 31  2  0  0  0  0
 24 77  1  0  0  0  0
 25 86  1  0  0  0  0
 26 87  1  0  0  0  0
 27 30  2  0  0  0  0
 27 86  1  0  0  0  0
 28 88  1  0  0  0  0
 29 89  1  0  0  0  0
 30 90  1  0  0  0  0
 31 91  1  0  0  0  0
 32 71  2  0  0  0  0
 33 72  1  0  0  0  0
 33 75  1  0  0  0  0
 34 36  2  0  0  0  0
 35 76  1  0  0  0  0
 35 81  2  0  0  0  0
 36 54  1  0  0  0  0
 36 66  1  0  0  0  0
 37 51  1  0  0  0  0
 37 78  1  0  0  0  0
 37 82  2  0  0  0  0
 38 67  1  0  0  0  0
 38 73  1  0  0  0  0
 38 83  2  0  0  0  0
 39 68  1  0  0  0  0
 39 79  1  0  0  0  0
 39 84  2  0  0  0  0
 40 74  1  0  0  0  0
 40 77  1  0  0  0  0
 40 85  2  0  0  0  0
 41 44  1  0  0  0  0
 42 51  1  0  0  0  0
 43 73  1  0  0  0  0
 44 46  1  0  0  0  0
 45 47  1  0  0  0  0
 45 48  1  0  0  0  0
 46 50  1  0  0  0  0
 47 53  1  0  0  0  0
 48 74  1  0  0  0  0
 49 53  1  0  0  0  0
 49 74  1  0  0  0  0
 50 78  1  0  0  0  0
 51 73  1  0  0  0  0
 52 54  1  0  0  0  0
 52 55  1  0  0  0  0
 52 69  1  0  0  0  0
 53 72  1  0  0  0  0
 54 55  1  0  0  0  0
 54 56  1  0  0  0  0
 55 57  1  0  0  0  0
 55 58  1  0  0  0  0
 59 68  1  0  0  0  0
 60 69  1  0  0  0  0
 61 69  1  0  0  0  0
 62 70  1  0  0  0  0
 63 70  1  0  0  0  0
 64 70  1  0  0  0  0
 65 80  1  0  0  0  0
 66 87  1  0  0  0  0
 67 70  1  0  0  0  0
 67 79  1  0  0  0  0
 68 80  1  0  0  0  0
 71 72  1  0  0  0  0
M  CHG  1  80   1
M  ISO  4  40 100  66 101  77 100  87 101
M  END
> <Batch ID>
0021

> <Smiles>
C=C(C1(C)C(C(C)(C)c2cc(F)c([100NH:0][100C:0](=O)N3CCCC(n4nc(-c5ccc(Oc6ccc(F)cc6F)cc5)c(C(N)=O)c4N)C3)c(Cl)c2)C1(C)C)[101CH2:1][101O:1]c1ccc2c(c1)CN(C(=O)C(NC(=O)C(C)NC)C(C)(C)C)C(C(=O)NC1CCCc3ccccc31)C2

> <Shape>
0.198

> <Color>
0.095

> <Negative vol penalty>
0.000

$$$$

  -OEChem-04052316123D

 96105  0     1  0  0  0  0  0999 V2000
  -27.5555  -32.6862   27.2722 C   0  0  0  0  0  0  0  0  0  0  0  0
  -27.6053  -31.3307   26.9633 C   0  0  0  0  0  0  0  0  0  0  0  0
  -23.2121   -9.2515   21.2158 C   0  0  0  0  0  0  0  0  0  0  0  0
  -24.7858   -9.9688   22.9027 C   0  0  0  0  0  0  0  0  0  0  0  0
  -26.5293  -33.4793   26.7607 C   0  0  0  0  0  0  0  0  0  0  0  0
  -26.6281  -30.7672   26.1435 C   0  0  0  0  0  0  0  0  0  0  0  0
  -28.4001  -27.4768   19.9852 C   0  0  0  0  0  0  0  0  0  0  0  0
  -23.2801   -7.9477   21.7066 C   0  0  0  0  0  0  0  0  0  0  0  0
  -24.8539   -8.6650   23.3936 C   0  0  0  0  0  0  0  0  0  0  0  0
  -28.6770  -26.6472   18.8984 C   0  0  0  0  0  0  0  0  0  0  0  0
  -22.7635   -4.5017   22.7426 C   0  0  0  0  0  0  0  0  0  0  0  0
  -21.5654   -3.8061   22.9039 C   0  0  0  0  0  0  0  0  0  0  0  0
  -24.8682  -20.1022   19.2163 C   0  0  0  0  0  0  0  0  0  0  0  0
  -26.7558  -21.2499   18.2381 C   0  0  0  0  0  0  0  0  0  0  0  0
  -26.3090  -26.3367   18.5185 C   0  0  0  0  0  0  0  0  0  0  0  0
  -20.7953   -5.4921   24.4537 C   0  0  0  0  0  0  0  0  0  0  0  0
  -23.9650  -10.2621   21.8138 C   0  0  0  0  0  0  0  0  0  0  0  0
  -22.7532  -12.4274   21.2214 C   0  0  0  0  0  0  0  0  0  0  0  0
  -25.5445  -32.9273   25.9264 C   0  0  0  0  0  0  0  0  0  0  0  0
  -27.0749  -27.7522   20.3337 C   0  0  0  0  0  0  0  0  0  0  0  0
  -25.5870  -31.5534   25.6214 C   0  0  0  0  0  0  0  0  0  0  0  0
  -26.1355  -20.6704   19.3450 C   0  0  0  0  0  0  0  0  0  0  0  0
  -26.0255  -27.1770   19.5984 C   0  0  0  0  0  0  0  0  0  0  0  0
  -24.2211  -20.1132   17.9806 C   0  0  0  0  0  0  0  0  0  0  0  0
  -26.1087  -21.2610   17.0024 C   0  0  0  0  0  0  0  0  0  0  0  0
  -24.8414  -20.6927   16.8737 C   0  0  0  0  0  0  0  0  0  0  0  0
  -24.1010   -7.6544   22.7955 C   0  0  0  0  0  0  0  0  0  0  0  0
  -27.6340  -26.0784   18.1670 C   0  0  0  0  0  0  0  0  0  0  0  0
  -22.9777   -5.6924   23.4368 C   0  0  0  0  0  0  0  0  0  0  0  0
  -20.5812   -4.3013   23.7595 C   0  0  0  0  0  0  0  0  0  0  0  0
  -21.9936   -6.1876   24.2923 C   0  0  0  0  0  0  0  0  0  0  0  0
  -23.8955  -11.6091   21.3069 C   0  0  0  0  0  0  0  0  0  0  0  0
  -23.2117  -13.6011   20.6749 C   0  0  0  0  0  0  0  0  0  0  0  0
  -21.3987  -12.1513   21.6021 C   0  0  0  0  0  0  0  0  0  0  0  0
  -24.7243  -29.5581   22.6335 C   0  0  0  0  0  0  0  0  0  0  0  0
  -23.5448  -29.7680   19.8095 C   0  0  0  0  0  0  0  0  0  0  0  0
  -21.9235  -30.7267   16.9653 C   0  0  0  0  0  0  0  0  0  0  0  0
  -27.1844  -17.5700   20.9391 C   0  0  0  0  0  0  0  0  0  0  0  0
  -24.4279  -33.8146   25.4357 C   0  0  0  0  0  0  0  0  0  0  0  0
  -26.7300  -28.5908   21.5344 C   0  0  0  0  0  0  0  0  0  0  0  0
  -24.6156  -27.4735   20.0310 C   0  0  0  0  0  0  0  0  0  0  0  0
  -23.6431  -33.2179   24.2703 C   0  0  0  0  0  0  0  0  0  0  0  0
  -27.6381  -14.7422   18.5329 C   0  0  0  0  0  0  0  0  0  0  0  0
  -23.2932  -31.7603   24.5530 C   0  0  0  0  0  0  0  0  0  0  0  0
  -29.0607  -21.3434   22.5373 C   0  0  0  0  0  0  0  0  0  0  0  0
  -26.6469  -13.7224   19.0914 C   0  0  0  0  0  0  0  0  0  0  0  0
  -28.8633  -19.9134   22.0392 C   0  0  0  0  0  0  0  0  0  0  0  0
  -27.0511  -22.0957   21.2075 C   0  0  0  0  0  0  0  0  0  0  0  0
  -28.1764  -15.6485   19.6335 C   0  0  0  0  0  0  0  0  0  0  0  0
  -26.1174  -15.3435   20.9692 C   0  0  0  0  0  0  0  0  0  0  0  0
  -26.8414  -20.6577   20.6923 C   0  0  2  0  0  0  0  0  0  0  0  0
  -24.5593  -30.9105   24.7155 C   0  0  1  0  0  0  0  0  0  0  0  0
  -25.4630  -29.4412   21.3327 C   0  0  1  0  0  0  0  0  0  0  0  0
  -27.7362  -22.1137   22.5813 C   0  0  2  0  0  0  0  0  0  0  0  0
  -25.5314  -14.4190   19.8891 C   0  0  2  0  0  0  0  0  0  0  0  0
  -28.1783  -19.8806   20.6693 C   0  0  2  0  0  0  0  0  0  0  0  0
  -22.8639  -19.4990   17.8697 C   0  0  0  0  0  0  0  0  0  0  0  0
  -24.1472  -20.7048   15.5491 C   0  0  0  0  0  0  0  0  0  0  0  0
  -32.6299  -16.9236   19.2887 C   0  0  0  0  0  0  0  0  0  0  0  0
  -19.6624  -31.4184   16.1248 C   0  0  0  0  0  0  0  0  0  0  0  0
  -28.6136  -23.5429   24.4452 C   0  0  0  0  0  0  0  0  0  0  0  0
  -26.6185  -24.2913   23.1239 C   0  0  0  0  0  0  0  0  0  0  0  0
  -28.8907  -24.2784   22.0642 C   0  0  0  0  0  0  0  0  0  0  0  0
  -22.6211  -26.8630   19.9149 C   0  0  0  0  0  0  0  0  0  0  0  0
  -20.8408  -27.4429   18.2528 C   0  0  0  0  0  0  0  0  0  0  0  0
  -20.8583  -28.5401   20.4930 C   0  0  0  0  0  0  0  0  0  0  0  0
  -22.9237  -33.3780   16.1111 C   0  0  0  0  0  0  0  0  0  0  0  0
  -26.8008  -21.8937   15.8216 C   0  0  0  0  0  0  0  0  0  0  0  0
  -31.2507  -17.1970   18.7091 C   0  0  0  0  0  0  0  0  0  0  0  0
  -27.7169  -23.0604   16.1972 C   0  0  0  0  0  0  0  0  0  0  0  0
  -30.2762  -17.6753   19.7877 C   0  0  0  0  0  0  0  0  0  0  0  0
  -28.9000  -18.0151   19.2251 C   0  0  0  0  0  0  0  0  0  0  0  0
  -26.9716  -24.2399   16.8109 C   0  0  0  0  0  0  0  0  0  1  0  0
  -22.6066  -29.1839   18.7839 C   0  0  1  0  0  0  0  0  0  0  0  0
  -20.9964  -31.8941   16.6789 C   0  0  2  0  0  0  0  0  0  0  0  0
  -27.9636  -23.5494   23.0513 C   0  0  0  0  0  0  0  0  0  0  0  0
  -21.7591  -28.0122   19.3552 C   0  0  0  0  0  0  0  0  0  0  0  0
  -24.9968  -12.2118   20.8510 N   0  0  0  0  0  0  0  0  0  0  0  0
  -24.5486  -13.4213   20.4737 N   0  0  0  0  0  0  0  0  0  0  0  0
  -24.4848  -28.8980   20.3751 N   0  0  0  0  0  0  0  0  0  0  0  0
  -27.0908  -16.2771   20.3980 N   0  0  0  0  0  0  0  0  0  0  0  0
  -22.5976  -14.7590   20.3515 N   0  0  0  0  0  0  0  0  0  0  0  0
  -21.1010  -10.8953   22.1481 N   0  0  0  0  0  0  0  0  0  0  0  0
  -25.1384  -30.6141   23.4227 N   0  0  0  0  0  0  0  0  0  0  0  0
  -21.8167  -30.2983   18.2715 N   0  0  0  0  0  0  0  0  0  0  0  0
  -27.9836  -18.4945   20.2499 N   0  0  0  0  0  0  0  0  0  0  0  0
  -21.6160  -32.8161   15.6854 N   0  3  0  0  0  0  0  0  0  0  0  0
  -20.4767  -12.9875   21.4471 O   0  0  0  0  0  0  0  0  0  0  0  0
  -23.8421  -28.7511   22.9020 O   0  0  0  0  0  0  0  0  0  0  0  0
  -23.4454  -30.9617   20.1072 O   0  0  0  0  0  0  0  0  0  0  0  0
  -22.6654  -30.2409   16.1143 O   0  0  0  0  0  0  0  0  0  0  0  0
  -26.5796  -17.8828   21.9727 O   0  0  0  0  0  0  0  0  0  0  0  0
  -24.1675   -6.3823   23.2749 O   0  0  0  0  0  0  0  0  0  0  0  0
  -27.9113  -25.2730   17.1044 O   0  0  0  0  0  0  0  0  0  1  0  0
  -19.4300   -3.6340   23.9132 F   0  0  0  0  0  0  0  0  0  0  0  0
  -22.1931   -7.3317   24.9610 F   0  0  0  0  0  0  0  0  0  0  0  0
  1  2  1  0  0  0  0
  1  5  2  0  0  0  0
  2  6  2  0  0  0  0
  3  8  2  0  0  0  0
  3 17  1  0  0  0  0
  4  9  1  0  0  0  0
  4 17  2  0  0  0  0
  5 19  1  0  0  0  0
  6 21  1  0  0  0  0
  7 10  2  0  0  0  0
  7 20  1  0  0  0  0
  8 27  1  0  0  0  0
  9 27  2  0  0  0  0
 10 28  1  0  0  0  0
 11 12  2  0  0  0  0
 11 29  1  0  0  0  0
 12 30  1  0  0  0  0
 13 22  1  0  0  0  0
 13 24  2  0  0  0  0
 14 22  2  0  0  0  0
 14 25  1  0  0  0  0
 15 23  1  0  0  0  0
 15 28  2  0  0  0  0
 16 30  2  0  0  0  0
 16 31  1  0  0  0  0
 17 32  1  0  0  0  0
 18 32  1  0  0  0  0
 18 33  2  0  0  0  0
 18 34  1  0  0  0  0
 19 21  2  0  0  0  0
 19 39  1  0  0  0  0
 20 23  2  0  0  0  0
 20 40  1  0  0  0  0
 21 52  1  0  0  0  0
 22 51  1  0  0  0  0
 23 41  1  0  0  0  0
 24 26  1  0  0  0  0
 24 57  1  0  0  0  0
 25 26  2  0  0  0  0
 25 68  1  0  0  0  0
 26 58  1  0  0  0  0
 27 93  1  0  0  0  0
 28 94  1  0  0  0  0
 29 31  2  0  0  0  0
 29 93  1  0  0  0  0
 30 95  1  0  0  0  0
 31 96  1  0  0  0  0
 32 78  2  0  0  0  0
 33 79  1  0  0  0  0
 33 82  1  0  0  0  0
 34 83  1  0  0  0  0
 34 88  2  0  0  0  0
 35 53  1  0  0  0  0
 35 84  1  0  0  0  0
 35 89  2  0  0  0  0
 36 74  1  0  0  0  0
 36 80  1  0  0  0  0
 36 90  2  0  0  0  0
 37 75  1  0  0  0  0
 37 85  1  0  0  0  0
 37 91  2  0  0  0  0
 38 81  1  0  0  0  0
 38 86  1  0  0  0  0
 38 92  2  0  0  0  0
 39 42  1  0  0  0  0
 40 53  1  0  0  0  0
 41 80  1  0  0  0  0
 42 44  1  0  0  0  0
 43 46  1  0  0  0  0
 43 49  1  0  0  0  0
 44 52  1  0  0  0  0
 45 47  1  0  0  0  0
 45 54  1  0  0  0  0
 46 55  1  0  0  0  0
 47 56  1  0  0  0  0
 48 51  1  0  0  0  0
 48 54  1  0  0  0  0
 49 81  1  0  0  0  0
 50 55  1  0  0  0  0
 50 81  1  0  0  0  0
 51 56  1  0  0  0  0
 52 84  1  0  0  0  0
 53 80  1  0  0  0  0
 54 76  1  0  0  0  0
 55 79  1  0  0  0  0
 56 86  1  0  0  0  0
 59 69  1  0  0  0  0
 60 75  1  0  0  0  0
 61 76  1  0  0  0  0
 62 76  1  0  0  0  0
 63 76  1  0  0  0  0
 64 77  1  0  0  0  0
 65 77  1  0  0  0  0
 66 77  1  0  0  0  0
 67 87  1  0  0  0  0
 68 70  1  0  0  0  0
 69 71  1  0  0  0  0
 70 73  1  0  0  0  0
 71 72  1  0  0  0  0
 72 86  1  0  0  0  0
 73 94  1  0  0  0  0
 74 77  1  0  0  0  0
 74 85  1  0  0  0  0
 75 87  1  0  0  0  0
 78 79  1  0  0  0  0
M  CHG  1  87   1
M  ISO  4  38 100  73 101  86 100  94 101
M  END
> <Batch ID>
0021

> <Smiles>
CCCC[100N:0](C1CCC(C(C)(C)C)CC1c1cc(C)c(C)c(CC[101CH2:1][101O:1]c2ccc3c(c2)CN(C(=O)C(NC(=O)C(C)NC)C(C)(C)C)C(C(=O)NC2CCCc4ccccc42)C3)c1)[100C:0](=O)N1CCCC(n2nc(-c3ccc(Oc4ccc(F)cc4F)cc3)c(C(N)=O)c2N)C1

> <Shape>
0.281

> <Color>
0.074

> <Negative vol penalty>
0.000

$$$$

  -OEChem-04052316123D

 89 97  0     1  0  0  0  0  0999 V2000
  -32.6462  -15.7177   21.1568 C   0  0  0  0  0  0  0  0  0  0  0  0
  -31.5725  -16.3751   21.7488 C   0  0  0  0  0  0  0  0  0  0  0  0
  -30.1159  -24.1245   19.8150 C   0  0  0  0  0  0  0  0  0  0  0  0
  -27.8479  -23.8410   19.0323 C   0  0  0  0  0  0  0  0  0  0  0  0
  -32.4251  -14.8348   20.1007 C   0  0  0  0  0  0  0  0  0  0  0  0
  -30.2770  -16.1507   21.2842 C   0  0  0  0  0  0  0  0  0  0  0  0
  -25.1384  -16.0440   24.6141 C   0  0  0  0  0  0  0  0  0  0  0  0
  -30.2105  -22.7510   20.0387 C   0  0  0  0  0  0  0  0  0  0  0  0
  -27.9424  -22.4674   19.2559 C   0  0  0  0  0  0  0  0  0  0  0  0
  -24.1504  -17.0001   24.8452 C   0  0  0  0  0  0  0  0  0  0  0  0
  -29.2870  -19.7804   17.7091 C   0  0  0  0  0  0  0  0  0  0  0  0
  -28.8065  -18.9288   16.7144 C   0  0  0  0  0  0  0  0  0  0  0  0
  -22.8134  -16.0355   23.0842 C   0  0  0  0  0  0  0  0  0  0  0  0
  -27.2283  -17.9872   18.2828 C   0  0  0  0  0  0  0  0  0  0  0  0
  -19.0977  -20.4545   26.6570 C   0  0  0  0  0  0  0  0  0  0  0  0
  -28.9346  -24.6695   19.3119 C   0  0  0  0  0  0  0  0  0  0  0  0
  -29.1572  -26.7818   17.8989 C   0  0  0  0  0  0  0  0  0  0  0  0
  -31.1253  -14.5921   19.6292 C   0  0  0  0  0  0  0  0  0  0  0  0
  -24.9758  -15.0815   23.6074 C   0  0  0  0  0  0  0  0  0  0  0  0
  -30.0385  -15.2647   20.2198 C   0  0  0  0  0  0  0  0  0  0  0  0
  -23.7997  -15.0666   22.8441 C   0  0  0  0  0  0  0  0  0  0  0  0
  -21.0829  -19.7981   25.4467 C   0  0  0  0  0  0  0  0  0  0  0  0
  -19.7338  -21.6363   24.6481 C   0  0  0  0  0  0  0  0  0  0  0  0
  -29.1238  -21.9224   19.7591 C   0  0  0  0  0  0  0  0  0  0  0  0
  -22.9889  -16.9978   24.0783 C   0  0  0  0  0  0  0  0  0  0  0  0
  -28.7382  -19.7354   18.9907 C   0  0  0  0  0  0  0  0  0  0  0  0
  -27.7772  -18.0322   17.0012 C   0  0  0  0  0  0  0  0  0  0  0  0
  -27.7089  -18.8388   19.2775 C   0  0  0  0  0  0  0  0  0  0  0  0
  -20.2091  -19.6229   26.5198 C   0  0  0  0  0  0  0  0  0  0  0  0
  -18.8600  -21.4611   25.7212 C   0  0  0  0  0  0  0  0  0  0  0  0
  -20.8453  -20.8048   24.5109 C   0  0  0  0  0  0  0  0  0  0  0  0
  -28.8360  -26.0884   19.0812 C   0  0  0  0  0  0  0  0  0  0  0  0
  -28.8914  -28.0976   18.1895 C   0  0  0  0  0  0  0  0  0  0  0  0
  -29.6514  -26.2811   16.6495 C   0  0  0  0  0  0  0  0  0  0  0  0
  -26.5317  -14.3460   20.9349 C   0  0  0  0  0  0  0  0  0  0  0  0
  -24.4548  -11.8550   20.8731 C   0  0  0  0  0  0  0  0  0  0  0  0
  -21.4435  -10.5690   21.8350 C   0  0  0  0  0  0  0  0  0  0  0  0
  -25.2330  -30.7467   22.1200 C   0  0  0  0  0  0  0  0  0  0  0  0
  -30.9406  -13.6651   18.4540 C   0  0  0  0  0  0  0  0  0  0  0  0
  -26.0391  -14.0404   23.3885 C   0  0  0  0  0  0  0  0  0  0  0  0
  -23.5677  -14.0421   21.7647 C   0  0  0  0  0  0  0  0  0  0  0  0
  -29.4994  -13.1978   18.2673 C   0  0  0  0  0  0  0  0  0  0  0  0
  -28.7583  -31.1696   21.8550 C   0  0  0  0  0  0  0  0  0  0  0  0
  -28.5378  -14.3770   18.3743 C   0  0  0  0  0  0  0  0  0  0  0  0
  -29.2069  -29.9779   21.0074 C   0  0  0  0  0  0  0  0  0  0  0  0
  -27.6156  -30.7945   22.7961 C   0  0  0  0  0  0  0  0  0  0  0  0
  -26.9009  -28.9779   21.2918 C   0  0  0  0  0  0  0  0  0  0  0  0
  -28.6161  -15.0288   19.7602 C   0  0  1  0  0  0  0  0  0  0  0  0
  -25.9944  -13.4247   21.9934 C   0  0  1  0  0  0  0  0  0  0  0  0
  -28.0139  -29.3213   20.2870 C   0  0  2  0  0  0  0  0  0  0  0  0
  -20.0086   -8.5239   21.5981 C   0  0  0  0  0  0  0  0  0  0  0  0
  -23.7097  -12.7088   18.0401 C   0  0  0  0  0  0  0  0  0  0  0  0
  -21.6655  -11.2747   18.2203 C   0  0  0  0  0  0  0  0  0  0  0  0
  -23.9302  -10.2384   18.3612 C   0  0  0  0  0  0  0  0  0  0  0  0
  -21.4786  -10.0648   24.7511 C   0  0  0  0  0  0  0  0  0  0  0  0
  -19.4739  -22.7194   23.6454 C   0  0  0  0  0  0  0  0  0  0  0  0
  -22.2658  -18.8815   25.3371 C   0  0  0  0  0  0  0  0  0  1  0  0
  -21.9691  -28.3729   22.2298 C   0  0  0  0  0  0  0  0  0  0  0  0
  -21.0079  -27.2001   22.0124 C   0  0  0  0  0  0  0  0  0  0  0  0
  -21.8829  -29.4397   21.1334 C   0  0  0  0  0  0  0  0  0  0  0  0
  -21.1444  -26.0985   23.0654 C   0  0  0  0  0  0  0  0  0  0  0  0
  -22.8821  -30.5739   21.3438 C   0  0  0  0  0  0  0  0  0  0  0  0
  -20.1835  -24.9526   22.7804 C   0  0  0  0  0  0  0  0  0  0  0  0
  -23.0787  -11.6244   20.2967 C   0  0  1  0  0  0  0  0  0  0  0  0
  -21.0669   -9.2262   22.4346 C   0  0  2  0  0  0  0  0  0  0  0  0
  -23.1010  -11.4822   18.7485 C   0  0  0  0  0  0  0  0  0  0  0  0
  -28.3998  -26.8969   20.0508 N   0  0  0  0  0  0  0  0  0  0  0  0
  -28.4450  -28.1119   19.4782 N   0  0  0  0  0  0  0  0  0  0  0  0
  -24.6394  -13.0489   21.5846 N   0  0  0  0  0  0  0  0  0  0  0  0
  -26.5156  -30.1784   22.0503 N   0  0  0  0  0  0  0  0  0  0  0  0
  -28.9985  -29.2322   17.4659 N   0  0  0  0  0  0  0  0  0  0  0  0
  -29.8688  -24.9025   16.5212 N   0  0  0  0  0  0  0  0  0  0  0  0
  -27.8943  -14.2365   20.7327 N   0  0  0  0  0  0  0  0  0  0  0  0
  -22.5323  -10.4661   20.9953 N   0  0  0  0  0  0  0  0  0  0  0  0
  -24.2493  -30.1044   21.3781 N   0  0  0  0  0  0  0  0  0  0  0  0
  -20.5323   -9.4065   23.8140 N   0  3  0  0  0  0  0  0  0  0  0  0
  -20.3812  -23.8864   23.7984 N   0  3  0  0  0  0  0  0  0  0  0  0
  -29.9085  -27.0359   15.6812 O   0  0  0  0  0  0  0  0  0  0  0  0
  -25.7665  -15.0991   20.3443 O   0  0  0  0  0  0  0  0  0  0  0  0
  -25.3314  -11.0037   20.7046 O   0  0  0  0  0  0  0  0  0  0  0  0
  -20.8306  -11.6050   22.0836 O   0  0  0  0  0  0  0  0  0  0  0  0
  -24.9842  -31.7553   22.7892 O   0  0  0  0  0  0  0  0  0  0  0  0
  -29.2158  -20.5820   19.9770 O   0  0  0  0  0  0  0  0  0  0  0  0
  -22.0233  -17.9303   24.3013 O   0  0  0  0  0  0  0  0  0  1  0  0
  -27.3148  -17.2156   16.0454 F   0  0  0  0  0  0  0  0  0  0  0  0
  -27.1769  -18.7918   20.5066 F   0  0  0  0  0  0  0  0  0  0  0  0
  -20.4275  -18.6585   27.4250 F   0  0  0  0  0  0  0  0  0  0  0  0
  -17.4719  -22.4670   25.9305 Cl  0  0  0  0  0  0  0  0  0  0  0  0
  -21.9344  -21.0174   23.1799 Cl  0  0  0  0  0  0  0  0  0  0  0  0
  1  2  1  0  0  0  0
  1  5  2  0  0  0  0
  2  6  2  0  0  0  0
  3  8  2  0  0  0  0
  3 16  1  0  0  0  0
  4  9  1  0  0  0  0
  4 16  2  0  0  0  0
  5 18  1  0  0  0  0
  6 20  1  0  0  0  0
  7 10  2  0  0  0  0
  7 19  1  0  0  0  0
  8 24  1  0  0  0  0
  9 24  2  0  0  0  0
 10 25  1  0  0  0  0
 11 12  2  0  0  0  0
 11 26  1  0  0  0  0
 12 27  1  0  0  0  0
 13 21  1  0  0  0  0
 13 25  2  0  0  0  0
 14 27  2  0  0  0  0
 14 28  1  0  0  0  0
 15 29  2  0  0  0  0
 15 30  1  0  0  0  0
 16 32  1  0  0  0  0
 17 32  1  0  0  0  0
 17 33  2  0  0  0  0
 17 34  1  0  0  0  0
 18 20  2  0  0  0  0
 18 39  1  0  0  0  0
 19 21  2  0  0  0  0
 19 40  1  0  0  0  0
 20 48  1  0  0  0  0
 21 41  1  0  0  0  0
 22 29  1  0  0  0  0
 22 31  2  0  0  0  0
 22 57  1  0  0  0  0
 23 30  2  0  0  0  0
 23 31  1  0  0  0  0
 23 56  1  0  0  0  0
 24 83  1  0  0  0  0
 25 84  1  0  0  0  0
 26 28  2  0  0  0  0
 26 83  1  0  0  0  0
 27 85  1  0  0  0  0
 28 86  1  0  0  0  0
 29 87  1  0  0  0  0
 30 88  1  0  0  0  0
 31 89  1  0  0  0  0
 32 67  2  0  0  0  0
 33 68  1  0  0  0  0
 33 71  1  0  0  0  0
 34 72  1  0  0  0  0
 34 78  2  0  0  0  0
 35 49  1  0  0  0  0
 35 73  1  0  0  0  0
 35 79  2  0  0  0  0
 36 64  1  0  0  0  0
 36 69  1  0  0  0  0
 36 80  2  0  0  0  0
 37 65  1  0  0  0  0
 37 74  1  0  0  0  0
 37 81  2  0  0  0  0
 38 70  1  0  0  0  0
 38 75  1  0  0  0  0
 38 82  2  0  0  0  0
 39 42  1  0  0  0  0
 40 49  1  0  0  0  0
 41 69  1  0  0  0  0
 42 44  1  0  0  0  0
 43 45  1  0  0  0  0
 43 46  1  0  0  0  0
 44 48  1  0  0  0  0
 45 50  1  0  0  0  0
 46 70  1  0  0  0  0
 47 50  1  0  0  0  0
 47 70  1  0  0  0  0
 48 73  1  0  0  0  0
 49 69  1  0  0  0  0
 50 68  1  0  0  0  0
 51 65  1  0  0  0  0
 52 66  1  0  0  0  0
 53 66  1  0  0  0  0
 54 66  1  0  0  0  0
 55 76  1  0  0  0  0
 56 77  1  0  0  0  0
 57 84  1  0  0  0  0
 58 59  1  0  0  0  0
 58 60  1  0  0  0  0
 59 61  1  0  0  0  0
 60 62  1  0  0  0  0
 61 63  1  0  0  0  0
 62 75  1  0  0  0  0
 63 77  1  0  0  0  0
 64 66  1  0  0  0  0
 64 74  1  0  0  0  0
 65 76  1  0  0  0  0
 67 68  1  0  0  0  0
M  CHG  2  76   1  77   1
M  ISO  4  38 100  57 101  75 100  84 101
M  END
> <Batch ID>
0021

> <Smiles>
CNC(C)C(=O)NC(C(=O)N1Cc2cc([101O:1][101CH2:1]c3c(F)cc(Cl)c(CNCCCCCC[100NH:0][100C:0](=O)N4CCCC(n5nc(-c6ccc(Oc7ccc(F)cc7F)cc6)c(C(N)=O)c5N)C4)c3Cl)ccc2CC1C(=O)NC1CCCc2ccccc21)C(C)(C)C

> <Shape>
0.243

> <Color>
0.062

> <Negative vol penalty>
0.000

$$$$

  -OEChem-04052316123D

 83 91  0     1  0  0  0  0  0999 V2000
  -28.4288  -24.9711   16.5771 C   0  0  0  0  0  0  0  0  0  0  0  0
  -27.2624  -25.0598   17.3300 C   0  0  0  0  0  0  0  0  0  0  0  0
  -25.6612  -14.6503   19.3985 C   0  0  0  0  0  0  0  0  0  0  0  0
  -24.3238  -14.3689   21.3908 C   0  0  0  0  0  0  0  0  0  0  0  0
  -29.5983  -25.5794   17.0313 C   0  0  0  0  0  0  0  0  0  0  0  0
  -27.2650  -25.7560   18.5383 C   0  0  0  0  0  0  0  0  0  0  0  0
  -23.2328  -28.7769   19.0486 C   0  0  0  0  0  0  0  0  0  0  0  0
  -26.0402  -13.3095   19.4635 C   0  0  0  0  0  0  0  0  0  0  0  0
  -24.7027  -13.0280   21.4557 C   0  0  0  0  0  0  0  0  0  0  0  0
  -22.0273  -28.1747   19.4064 C   0  0  0  0  0  0  0  0  0  0  0  0
  -27.6455  -10.0502   19.3105 C   0  0  0  0  0  0  0  0  0  0  0  0
  -28.9919   -9.7449   19.1121 C   0  0  0  0  0  0  0  0  0  0  0  0
  -22.3694  -28.8627   21.6931 C   0  0  0  0  0  0  0  0  0  0  0  0
  -29.5827  -11.1158   21.0117 C   0  0  0  0  0  0  0  0  0  0  0  0
  -24.8031  -15.1800   20.3622 C   0  0  0  0  0  0  0  0  0  0  0  0
  -23.2974  -17.1025   19.6240 C   0  0  0  0  0  0  0  0  0  0  0  0
  -29.6128  -26.2915   18.2410 C   0  0  0  0  0  0  0  0  0  0  0  0
  -24.0223  -29.4181   20.0140 C   0  0  0  0  0  0  0  0  0  0  0  0
  -28.4361  -26.3732   19.0098 C   0  0  0  0  0  0  0  0  0  0  0  0
  -23.5832  -29.4744   21.3445 C   0  0  0  0  0  0  0  0  0  0  0  0
  -20.0809  -25.0453   22.3855 C   0  0  0  0  0  0  0  0  0  0  0  0
  -21.0568  -24.0675   22.1929 C   0  0  0  0  0  0  0  0  0  0  0  0
  -19.8743  -25.5838   23.6556 C   0  0  0  0  0  0  0  0  0  0  0  0
  -21.6194  -24.1665   24.5404 C   0  0  0  0  0  0  0  0  0  0  0  0
  -21.8260  -23.6281   23.2703 C   0  0  0  0  0  0  0  0  0  0  0  0
  -25.5609  -12.4984   20.4921 C   0  0  0  0  0  0  0  0  0  0  0  0
  -21.5968  -28.2151   20.7294 C   0  0  0  0  0  0  0  0  0  0  0  0
  -27.2676  -10.8884   20.3595 C   0  0  0  0  0  0  0  0  0  0  0  0
  -29.9606  -10.2777   19.9627 C   0  0  0  0  0  0  0  0  0  0  0  0
  -28.2362  -11.4212   21.2101 C   0  0  0  0  0  0  0  0  0  0  0  0
  -20.6435  -25.1444   24.7330 C   0  0  0  0  0  0  0  0  0  0  0  0
  -24.4117  -16.5651   20.2959 C   0  0  0  0  0  0  0  0  0  0  0  0
  -23.3698  -18.4528   19.8644 C   0  0  0  0  0  0  0  0  0  0  0  0
  -22.2872  -16.4402   18.8517 C   0  0  0  0  0  0  0  0  0  0  0  0
  -26.9528  -28.9820   21.1654 C   0  0  0  0  0  0  0  0  0  0  0  0
  -26.3244  -31.7473   22.7403 C   0  0  0  0  0  0  0  0  0  0  0  0
  -23.9941  -33.8961   24.0048 C   0  0  0  0  0  0  0  0  0  0  0  0
  -24.1869  -22.7500   23.3097 C   0  0  0  0  0  0  0  0  0  0  0  0
  -30.9128  -26.8922   18.7142 C   0  0  0  0  0  0  0  0  0  0  0  0
  -25.3071  -30.0859   19.6069 C   0  0  0  0  0  0  0  0  0  0  0  0
  -24.3841  -30.1679   22.4151 C   0  0  0  0  0  0  0  0  0  0  0  0
  -30.7376  -27.9285   19.8213 C   0  0  0  0  0  0  0  0  0  0  0  0
  -27.0796  -21.2455   21.8794 C   0  0  0  0  0  0  0  0  0  0  0  0
  -29.7866  -27.4078   20.8943 C   0  0  0  0  0  0  0  0  0  0  0  0
  -26.5517  -19.9379   21.2847 C   0  0  0  0  0  0  0  0  0  0  0  0
  -26.3829  -21.5928   23.1938 C   0  0  0  0  0  0  0  0  0  0  0  0
  -24.3879  -20.3047   22.5378 C   0  0  0  0  0  0  0  0  0  0  0  0
  -28.3928  -27.1404   20.3134 C   0  0  1  0  0  0  0  0  0  0  0  0
  -26.2809  -30.2656   20.7674 C   0  0  1  0  0  0  0  0  0  0  0  0
  -25.0140  -19.9467   21.1800 C   0  0  2  0  0  0  0  0  0  0  0  0
  -21.2745  -23.4927   20.8276 C   0  0  0  0  0  0  0  0  0  0  0  0
  -18.8219  -26.6332   23.8419 C   0  0  0  0  0  0  0  0  0  0  0  0
  -22.4534  -23.6845   25.6886 C   0  0  0  0  0  0  0  0  0  0  0  0
  -23.7847  -36.0522   25.2716 C   0  0  0  0  0  0  0  0  0  0  0  0
  -27.0686  -30.3003   25.3214 C   0  0  0  0  0  0  0  0  0  0  0  0
  -25.9529  -32.1446   26.5950 C   0  0  0  0  0  0  0  0  0  0  0  0
  -27.9273  -32.6432   25.1541 C   0  0  0  0  0  0  0  0  0  0  0  0
  -22.5503  -35.2006   21.7749 C   0  0  0  0  0  0  0  0  0  0  0  0
  -19.2493  -25.5203   21.2188 C   0  0  0  0  0  0  0  0  0  0  0  0
  -20.0096  -26.4915   20.3222 C   0  0  0  0  0  0  0  0  0  1  0  0
  -25.7074  -32.1032   24.0713 C   0  0  1  0  0  0  0  0  0  0  0  0
  -23.8508  -35.4036   23.8977 C   0  0  2  0  0  0  0  0  0  0  0  0
  -26.6496  -31.7830   25.2659 C   0  0  0  0  0  0  0  0  0  0  0  0
  -25.1388  -17.4980   20.9165 N   0  0  0  0  0  0  0  0  0  0  0  0
  -24.4801  -18.6352   20.6354 N   0  0  0  0  0  0  0  0  0  0  0  0
  -25.6362  -30.8004   21.9685 N   0  0  0  0  0  0  0  0  0  0  0  0
  -24.9290  -21.5862   23.0173 N   0  0  0  0  0  0  0  0  0  0  0  0
  -22.5916  -19.4901   19.4894 N   0  0  0  0  0  0  0  0  0  0  0  0
  -22.3633  -15.0484   18.7053 N   0  0  0  0  0  0  0  0  0  0  0  0
  -22.8175  -22.6353   23.0726 N   0  0  0  0  0  0  0  0  0  0  0  0
  -27.6681  -28.3820   20.1467 N   0  0  0  0  0  0  0  0  0  0  0  0
  -25.3162  -33.5056   23.9780 N   0  0  0  0  0  0  0  0  0  0  0  0
  -22.6088  -35.7542   23.1523 N   0  3  0  0  0  0  0  0  0  0  0  0
  -21.3541  -17.0660   18.2939 O   0  0  0  0  0  0  0  0  0  0  0  0
  -26.8324  -28.5673   22.3123 O   0  0  0  0  0  0  0  0  0  0  0  0
  -27.3744  -32.2948   22.3948 O   0  0  0  0  0  0  0  0  0  0  0  0
  -23.0298  -33.1409   24.1062 O   0  0  0  0  0  0  0  0  0  0  0  0
  -24.7299  -23.7817   23.7129 O   0  0  0  0  0  0  0  0  0  0  0  0
  -25.9303  -11.1899   20.5556 O   0  0  0  0  0  0  0  0  0  0  0  0
  -20.4209  -27.6276   21.0815 O   0  0  0  0  0  0  0  0  0  1  0  0
  -31.2534   -9.9832   19.7730 F   0  0  0  0  0  0  0  0  0  0  0  0
  -27.8791  -12.2261   22.2203 F   0  0  0  0  0  0  0  0  0  0  0  0
  -20.3863  -25.8145   26.3107 Cl  0  0  0  0  0  0  0  0  0  0  0  0
  1  2  1  0  0  0  0
  1  5  2  0  0  0  0
  2  6  2  0  0  0  0
  3  8  2  0  0  0  0
  3 15  1  0  0  0  0
  4  9  1  0  0  0  0
  4 15  2  0  0  0  0
  5 17  1  0  0  0  0
  6 19  1  0  0  0  0
  7 10  2  0  0  0  0
  7 18  1  0  0  0  0
  8 26  1  0  0  0  0
  9 26  2  0  0  0  0
 10 27  1  0  0  0  0
 11 12  2  0  0  0  0
 11 28  1  0  0  0  0
 12 29  1  0  0  0  0
 13 20  1  0  0  0  0
 13 27  2  0  0  0  0
 14 29  2  0  0  0  0
 14 30  1  0  0  0  0
 15 32  1  0  0  0  0
 16 32  1  0  0  0  0
 16 33  2  0  0  0  0
 16 34  1  0  0  0  0
 17 19  2  0  0  0  0
 17 39  1  0  0  0  0
 18 20  2  0  0  0  0
 18 40  1  0  0  0  0
 19 48  1  0  0  0  0
 20 41  1  0  0  0  0
 21 22  2  0  0  0  0
 21 23  1  0  0  0  0
 21 59  1  0  0  0  0
 22 25  1  0  0  0  0
 22 51  1  0  0  0  0
 23 31  2  0  0  0  0
 23 52  1  0  0  0  0
 24 25  2  0  0  0  0
 24 31  1  0  0  0  0
 24 53  1  0  0  0  0
 25 70  1  0  0  0  0
 26 79  1  0  0  0  0
 27 80  1  0  0  0  0
 28 30  2  0  0  0  0
 28 79  1  0  0  0  0
 29 81  1  0  0  0  0
 30 82  1  0  0  0  0
 31 83  1  0  0  0  0
 32 64  2  0  0  0  0
 33 65  1  0  0  0  0
 33 68  1  0  0  0  0
 34 69  1  0  0  0  0
 34 74  2  0  0  0  0
 35 49  1  0  0  0  0
 35 71  1  0  0  0  0
 35 75  2  0  0  0  0
 36 61  1  0  0  0  0
 36 66  1  0  0  0  0
 36 76  2  0  0  0  0
 37 62  1  0  0  0  0
 37 72  1  0  0  0  0
 37 77  2  0  0  0  0
 38 67  1  0  0  0  0
 38 70  1  0  0  0  0
 38 78  2  0  0  0  0
 39 42  1  0  0  0  0
 40 49  1  0  0  0  0
 41 66  1  0  0  0  0
 42 44  1  0  0  0  0
 43 45  1  0  0  0  0
 43 46  1  0  0  0  0
 44 48  1  0  0  0  0
 45 50  1  0  0  0  0
 46 67  1  0  0  0  0
 47 50  1  0  0  0  0
 47 67  1  0  0  0  0
 48 71  1  0  0  0  0
 49 66  1  0  0  0  0
 50 65  1  0  0  0  0
 54 62  1  0  0  0  0
 55 63  1  0  0  0  0
 56 63  1  0  0  0  0
 57 63  1  0  0  0  0
 58 73  1  0  0  0  0
 59 60  1  0  0  0  0
 60 80  1  0  0  0  0
 61 63  1  0  0  0  0
 61 72  1  0  0  0  0
 62 73  1  0  0  0  0
 64 65  1  0  0  0  0
M  CHG  1  73   1
M  ISO  4  38 100  60 101  70 100  80 101
M  END
> <Batch ID>
0021

> <Smiles>
CNC(C)C(=O)NC(C(=O)N1Cc2cc([101O:1][101CH2:1]Cc3c(C)c(Cl)c(C)c([100NH:0][100C:0](=O)N4CCCC(n5nc(-c6ccc(Oc7ccc(F)cc7F)cc6)c(C(N)=O)c5N)C4)c3C)ccc2CC1C(=O)NC1CCCc2ccccc21)C(C)(C)C

> <Shape>
0.248

> <Color>
0.077

> <Negative vol penalty>
0.000

$$$$

  -OEChem-04052316123D

 89 97  0     1  0  0  0  0  0999 V2000
  -21.4654  -30.1031   20.7226 C   0  0  0  0  0  0  0  0  0  0  0  0
  -22.3718  -29.5742   21.6358 C   0  0  0  0  0  0  0  0  0  0  0  0
  -23.0234   -9.8229   19.9894 C   0  0  0  0  0  0  0  0  0  0  0  0
  -23.6653   -9.9868   22.3128 C   0  0  0  0  0  0  0  0  0  0  0  0
  -20.1217  -29.7362   20.7836 C   0  0  0  0  0  0  0  0  0  0  0  0
  -21.9348  -28.6787   22.6113 C   0  0  0  0  0  0  0  0  0  0  0  0
  -25.0157  -24.6904   23.1076 C   0  0  0  0  0  0  0  0  0  0  0  0
  -22.2478   -8.7013   20.2828 C   0  0  0  0  0  0  0  0  0  0  0  0
  -22.8896   -8.8652   22.6062 C   0  0  0  0  0  0  0  0  0  0  0  0
  -26.1964  -24.8831   23.8236 C   0  0  0  0  0  0  0  0  0  0  0  0
  -23.1508   -5.5078   22.3060 C   0  0  0  0  0  0  0  0  0  0  0  0
  -23.7109   -4.5293   23.1272 C   0  0  0  0  0  0  0  0  0  0  0  0
  -25.1787  -23.8704   25.7623 C   0  0  0  0  0  0  0  0  0  0  0  0
  -21.9279   -4.8502   24.7257 C   0  0  0  0  0  0  0  0  0  0  0  0
  -23.7322  -10.4656   21.0044 C   0  0  0  0  0  0  0  0  0  0  0  0
  -24.1236  -12.9704   20.7204 C   0  0  0  0  0  0  0  0  0  0  0  0
  -19.6697  -28.8284   21.7543 C   0  0  0  0  0  0  0  0  0  0  0  0
  -23.9023  -24.0952   23.7178 C   0  0  0  0  0  0  0  0  0  0  0  0
  -20.5835  -28.3004   22.6862 C   0  0  0  0  0  0  0  0  0  0  0  0
  -23.9860  -23.6690   25.0510 C   0  0  0  0  0  0  0  0  0  0  0  0
  -29.9154  -18.0776   21.4072 C   0  0  0  0  0  0  0  0  0  0  0  0
  -31.6625  -16.9983   22.6798 C   0  0  0  0  0  0  0  0  0  0  0  0
  -31.5262  -19.4096   22.6188 C   0  0  0  0  0  0  0  0  0  0  0  0
  -30.5432  -16.9140   21.8516 C   0  0  0  0  0  0  0  0  0  0  0  0
  -22.1809   -8.2225   21.5912 C   0  0  0  0  0  0  0  0  0  0  0  0
  -26.2771  -24.4757   25.1520 C   0  0  0  0  0  0  0  0  0  0  0  0
  -21.9793   -6.1576   22.6946 C   0  0  0  0  0  0  0  0  0  0  0  0
  -23.0995   -4.2004   24.3370 C   0  0  0  0  0  0  0  0  0  0  0  0
  -21.3678   -5.8287   23.9044 C   0  0  0  0  0  0  0  0  0  0  0  0
  -30.4069  -19.3254   21.7907 C   0  0  0  0  0  0  0  0  0  0  0  0
  -32.1540  -18.2461   23.0633 C   0  0  0  0  0  0  0  0  0  0  0  0
  -24.5340  -11.6239   20.7018 C   0  0  0  0  0  0  0  0  0  0  0  0
  -25.2457  -13.6764   20.3615 C   0  0  0  0  0  0  0  0  0  0  0  0
  -22.8425  -13.5327   21.0342 C   0  0  0  0  0  0  0  0  0  0  0  0
  -20.9345  -25.0293   24.3684 C   0  0  0  0  0  0  0  0  0  0  0  0
  -20.5825  -21.9418   25.2989 C   0  0  0  0  0  0  0  0  0  0  0  0
  -22.0463  -19.0652   26.4076 C   0  0  0  0  0  0  0  0  0  0  0  0
  -30.7132  -14.6573   20.7450 C   0  0  0  0  0  0  0  0  0  0  0  0
  -18.1992  -28.4982   21.8106 C   0  0  0  0  0  0  0  0  0  0  0  0
  -22.6448  -23.8702   22.9237 C   0  0  0  0  0  0  0  0  0  0  0  0
  -22.8257  -23.0065   25.7462 C   0  0  0  0  0  0  0  0  0  0  0  0
  -17.8853  -27.2552   22.6393 C   0  0  0  0  0  0  0  0  0  0  0  0
  -29.6793  -12.0925   18.5023 C   0  0  0  0  0  0  0  0  0  0  0  0
  -18.6354  -27.2954   23.9669 C   0  0  0  0  0  0  0  0  0  0  0  0
  -28.2147  -11.8527   18.8761 C   0  0  0  0  0  0  0  0  0  0  0  0
  -30.5357  -12.3959   19.7303 C   0  0  0  0  0  0  0  0  0  0  0  0
  -28.5737  -13.2452   20.9544 C   0  0  0  0  0  0  0  0  0  0  0  0
  -20.1524  -27.3072   23.7434 C   0  0  1  0  0  0  0  0  0  0  0  0
  -21.4042  -23.7206   23.7989 C   0  0  1  0  0  0  0  0  0  0  0  0
  -27.6593  -12.9997   19.7430 C   0  0  2  0  0  0  0  0  0  0  0  0
  -28.7144  -18.0161   20.5195 C   0  0  0  0  0  0  0  0  0  0  0  0
  -32.3267  -15.7397   23.1493 C   0  0  0  0  0  0  0  0  0  0  0  0
  -21.4964  -16.7218   27.1172 C   0  0  0  0  0  0  0  0  0  0  0  0
  -33.7029  -22.2978   25.1337 C   0  0  0  0  0  0  0  0  0  0  0  0
  -19.5509  -22.9954   27.9702 C   0  0  0  0  0  0  0  0  0  0  0  0
  -19.9230  -20.7149   28.9341 C   0  0  0  0  0  0  0  0  0  0  0  0
  -18.2957  -21.0288   27.0696 C   0  0  0  0  0  0  0  0  0  0  0  0
  -23.6860  -17.8993   24.2371 C   0  0  0  0  0  0  0  0  0  0  0  0
  -32.0221  -20.7712   23.0076 C   0  0  0  0  0  0  0  0  0  0  0  0
  -29.9427  -23.1108   25.8250 C   0  0  0  0  0  0  0  0  0  0  0  0
  -29.2250  -23.5884   27.0919 C   0  0  0  0  0  0  0  0  0  0  0  0
  -31.4480  -22.9540   26.0684 C   0  0  0  0  0  0  0  0  0  0  0  0
  -27.7200  -23.7223   26.8859 C   0  0  0  0  0  0  0  0  0  1  0  0
  -20.7734  -21.1866   26.5920 C   0  0  1  0  0  0  0  0  0  0  0  0
  -21.8985  -17.6223   25.9596 C   0  0  2  0  0  0  0  0  0  0  0  0
  -32.2173  -22.4586   24.8388 C   0  0  2  0  0  0  0  0  0  0  0  0
  -19.6572  -21.4956   27.6293 C   0  0  0  0  0  0  0  0  0  0  0  0
  -25.8167  -11.4806   20.3581 N   0  0  0  0  0  0  0  0  0  0  0  0
  -26.2219  -12.7461   20.1573 N   0  0  0  0  0  0  0  0  0  0  0  0
  -21.6159  -22.8144   24.9294 N   0  0  0  0  0  0  0  0  0  0  0  0
  -29.9507  -13.4955   20.5007 N   0  0  0  0  0  0  0  0  0  0  0  0
  -25.4827  -14.9960   20.2036 N   0  0  0  0  0  0  0  0  0  0  0  0
  -21.7991  -12.6644   21.3830 N   0  0  0  0  0  0  0  0  0  0  0  0
  -30.0411  -15.6484   21.4597 N   0  0  0  0  0  0  0  0  0  0  0  0
  -20.6251  -25.9795   23.4141 N   0  0  0  0  0  0  0  0  0  0  0  0
  -20.8790  -19.7773   26.2299 N   0  0  0  0  0  0  0  0  0  0  0  0
  -23.1843  -17.1200   25.3981 N   0  3  0  0  0  0  0  0  0  0  0  0
  -31.6898  -21.1334   24.4099 N   0  3  0  0  0  0  0  0  0  0  0  0
  -22.6251  -14.7673   20.9902 O   0  0  0  0  0  0  0  0  0  0  0  0
  -20.8570  -25.1663   25.5837 O   0  0  0  0  0  0  0  0  0  0  0  0
  -19.5576  -21.7588   24.6374 O   0  0  0  0  0  0  0  0  0  0  0  0
  -23.0915  -19.5146   26.8724 O   0  0  0  0  0  0  0  0  0  0  0  0
  -31.8674  -14.7760   20.3260 O   0  0  0  0  0  0  0  0  0  0  0  0
  -21.4240   -7.1282   21.8779 O   0  0  0  0  0  0  0  0  0  0  0  0
  -27.4281  -24.6632   25.8534 O   0  0  0  0  0  0  0  0  0  1  0  0
  -23.6367   -3.2597   25.1248 F   0  0  0  0  0  0  0  0  0  0  0  0
  -20.2416   -6.4487   24.2826 F   0  0  0  0  0  0  0  0  0  0  0  0
  -29.8026  -20.4442   21.3628 F   0  0  0  0  0  0  0  0  0  0  0  0
  -33.5442  -18.3552   24.0918 Cl  0  0  0  0  0  0  0  0  0  0  0  0
  1  2  1  0  0  0  0
  1  5  2  0  0  0  0
  2  6  2  0  0  0  0
  3  8  2  0  0  0  0
  3 15  1  0  0  0  0
  4  9  1  0  0  0  0
  4 15  2  0  0  0  0
  5 17  1  0  0  0  0
  6 19  1  0  0  0  0
  7 10  2  0  0  0  0
  7 18  1  0  0  0  0
  8 25  1  0  0  0  0
  9 25  2  0  0  0  0
 10 26  1  0  0  0  0
 11 12  2  0  0  0  0
 11 27  1  0  0  0  0
 12 28  1  0  0  0  0
 13 20  1  0  0  0  0
 13 26  2  0  0  0  0
 14 28  2  0  0  0  0
 14 29  1  0  0  0  0
 15 32  1  0  0  0  0
 16 32  1  0  0  0  0
 16 33  2  0  0  0  0
 16 34  1  0  0  0  0
 17 19  2  0  0  0  0
 17 39  1  0  0  0  0
 18 20  2  0  0  0  0
 18 40  1  0  0  0  0
 19 48  1  0  0  0  0
 20 41  1  0  0  0  0
 21 24  1  0  0  0  0
 21 30  2  0  0  0  0
 21 51  1  0  0  0  0
 22 24  2  0  0  0  0
 22 31  1  0  0  0  0
 22 52  1  0  0  0  0
 23 30  1  0  0  0  0
 23 31  2  0  0  0  0
 23 59  1  0  0  0  0
 24 74  1  0  0  0  0
 25 84  1  0  0  0  0
 26 85  1  0  0  0  0
 27 29  2  0  0  0  0
 27 84  1  0  0  0  0
 28 86  1  0  0  0  0
 29 87  1  0  0  0  0
 30 88  1  0  0  0  0
 31 89  1  0  0  0  0
 32 68  2  0  0  0  0
 33 69  1  0  0  0  0
 33 72  1  0  0  0  0
 34 73  1  0  0  0  0
 34 79  2  0  0  0  0
 35 49  1  0  0  0  0
 35 75  1  0  0  0  0
 35 80  2  0  0  0  0
 36 64  1  0  0  0  0
 36 70  1  0  0  0  0
 36 81  2  0  0  0  0
 37 65  1  0  0  0  0
 37 76  1  0  0  0  0
 37 82  2  0  0  0  0
 38 71  1  0  0  0  0
 38 74  1  0  0  0  0
 38 83  2  0  0  0  0
 39 42  1  0  0  0  0
 40 49  1  0  0  0  0
 41 70  1  0  0  0  0
 42 44  1  0  0  0  0
 43 45  1  0  0  0  0
 43 46  1  0  0  0  0
 44 48  1  0  0  0  0
 45 50  1  0  0  0  0
 46 71  1  0  0  0  0
 47 50  1  0  0  0  0
 47 71  1  0  0  0  0
 48 75  1  0  0  0  0
 49 70  1  0  0  0  0
 50 69  1  0  0  0  0
 53 65  1  0  0  0  0
 54 66  1  0  0  0  0
 55 67  1  0  0  0  0
 56 67  1  0  0  0  0
 57 67  1  0  0  0  0
 58 77  1  0  0  0  0
 59 78  1  0  0  0  0
 60 61  1  0  0  0  0
 60 62  1  0  0  0  0
 61 63  1  0  0  0  0
 62 66  1  0  0  0  0
 63 85  1  0  0  0  0
 64 67  1  0  0  0  0
 64 76  1  0  0  0  0
 65 77  1  0  0  0  0
 66 78  1  0  0  0  0
 68 69  1  0  0  0  0
M  CHG  2  77   1  78   1
M  ISO  4  38 100  63 101  74 100  85 101
M  END
> <Batch ID>
0021

> <Smiles>
CNC(C)C(=O)NC(C(=O)N1Cc2cc([101O:1][101CH2:1]CCCC(C)NCc3c(F)c(C)c([100NH:0][100C:0](=O)N4CCCC(n5nc(-c6ccc(Oc7ccc(F)cc7F)cc6)c(C(N)=O)c5N)C4)c(C)c3Cl)ccc2CC1C(=O)NC1CCCc2ccccc21)C(C)(C)C

> <Shape>
0.249

> <Color>
0.217

> <Negative vol penalty>
0.000

$$$$

  -OEChem-04052316123D

 81 89  0     1  0  0  0  0  0999 V2000
  -17.6645  -25.7988   22.7266 C   0  0  0  0  0  0  0  0  0  0  0  0
  -18.9328  -25.4386   22.2828 C   0  0  0  0  0  0  0  0  0  0  0  0
  -26.6316  -16.1399   21.9610 C   0  0  0  0  0  0  0  0  0  0  0  0
  -25.9859  -16.1458   19.6328 C   0  0  0  0  0  0  0  0  0  0  0  0
  -17.2768  -27.1380   22.7132 C   0  0  0  0  0  0  0  0  0  0  0  0
  -19.8139  -26.4174   21.8243 C   0  0  0  0  0  0  0  0  0  0  0  0
  -25.9043  -26.4796   22.4639 C   0  0  0  0  0  0  0  0  0  0  0  0
  -26.3272  -14.7811   22.0419 C   0  0  0  0  0  0  0  0  0  0  0  0
  -25.6815  -14.7870   19.7138 C   0  0  0  0  0  0  0  0  0  0  0  0
  -26.9414  -26.1217   21.6036 C   0  0  0  0  0  0  0  0  0  0  0  0
  -25.3787  -11.3915   22.9554 C   0  0  0  0  0  0  0  0  0  0  0  0
  -24.6519  -10.9529   24.0622 C   0  0  0  0  0  0  0  0  0  0  0  0
  -27.1707  -28.4270   20.9309 C   0  0  0  0  0  0  0  0  0  0  0  0
  -22.8334  -12.4210   23.4499 C   0  0  0  0  0  0  0  0  0  0  0  0
  -26.4609  -16.8223   20.7564 C   0  0  0  0  0  0  0  0  0  0  0  0
  -28.0130  -18.8014   20.3301 C   0  0  0  0  0  0  0  0  0  0  0  0
  -18.1570  -28.1348   22.2634 C   0  0  0  0  0  0  0  0  0  0  0  0
  -25.4845  -27.8144   22.5561 C   0  0  0  0  0  0  0  0  0  0  0  0
  -19.4371  -27.7710   21.8037 C   0  0  0  0  0  0  0  0  0  0  0  0
  -26.1297  -28.7995   21.7950 C   0  0  0  0  0  0  0  0  0  0  0  0
  -25.8522  -14.1046   20.9184 C   0  0  0  0  0  0  0  0  0  0  0  0
  -27.5729  -27.0950   20.8348 C   0  0  0  0  0  0  0  0  0  0  0  0
  -24.8329  -12.3448   22.0958 C   0  0  0  0  0  0  0  0  0  0  0  0
  -23.3793  -11.4677   24.3095 C   0  0  0  0  0  0  0  0  0  0  0  0
  -23.5602  -12.8596   22.3430 C   0  0  0  0  0  0  0  0  0  0  0  0
  -24.9910  -26.0050   16.4200 C   0  0  0  0  0  0  0  0  0  0  0  0
  -26.7746  -18.2261   20.6723 C   0  0  0  0  0  0  0  0  0  0  0  0
  -25.7682  -26.6975   15.4723 C   0  0  0  0  0  0  0  0  0  0  0  0
  -27.7920  -20.1554   20.3940 C   0  0  0  0  0  0  0  0  0  0  0  0
  -25.9096  -25.4383   17.2694 C   0  0  0  0  0  0  0  0  0  0  0  0
  -29.2524  -18.1684   19.9852 C   0  0  0  0  0  0  0  0  0  0  0  0
  -22.7700  -29.3582   21.9635 C   0  0  0  0  0  0  0  0  0  0  0  0
  -24.3714  -31.8686   23.2501 C   0  0  0  0  0  0  0  0  0  0  0  0
  -27.3701  -33.3303   23.9700 C   0  0  0  0  0  0  0  0  0  0  0  0
  -24.6708  -24.6377   19.3116 C   0  0  0  0  0  0  0  0  0  0  0  0
  -17.6761  -29.5637   22.2233 C   0  0  0  0  0  0  0  0  0  0  0  0
  -24.3821  -28.1881   23.5087 C   0  0  0  0  0  0  0  0  0  0  0  0
  -25.7303  -30.2497   21.8725 C   0  0  0  0  0  0  0  0  0  0  0  0
  -18.8035  -30.5818   22.0735 C   0  0  0  0  0  0  0  0  0  0  0  0
  -23.8670  -22.7691   22.2339 C   0  0  0  0  0  0  0  0  0  0  0  0
  -19.7722  -30.1483   20.9778 C   0  0  0  0  0  0  0  0  0  0  0  0
  -24.6537  -21.4679   22.0600 C   0  0  0  0  0  0  0  0  0  0  0  0
  -23.3236  -23.2855   20.9028 C   0  0  0  0  0  0  0  0  0  0  0  0
  -25.1108  -22.1281   19.6637 C   0  0  0  0  0  0  0  0  0  0  0  0
  -20.4300  -28.8066   21.3222 C   0  0  1  0  0  0  0  0  0  0  0  0
  -23.6931  -29.4985   23.1406 C   0  0  1  0  0  0  0  0  0  0  0  0
  -25.7330  -21.6036   20.9681 C   0  0  2  0  0  0  0  0  0  0  0  0
  -25.3039  -27.4912   14.3200 C   0  0  0  0  0  0  0  0  0  0  0  0
  -28.3587  -35.3988   24.9906 C   0  0  0  0  0  0  0  0  0  0  0  0
  -23.6852  -33.4392   20.7258 C   0  0  0  0  0  0  0  0  0  0  0  0
  -25.4499  -35.0974   21.3616 C   0  0  0  0  0  0  0  0  0  0  0  0
  -23.4815  -34.7405   22.8517 C   0  0  0  0  0  0  0  0  0  0  0  0
  -28.7376  -31.7742   26.0836 C   0  0  0  0  0  0  0  0  0  0  0  0
  -29.3463  -26.6631   17.7202 C   0  0  0  0  0  0  0  0  0  0  0  0
  -28.4791  -25.4506   17.3744 C   0  0  0  0  0  0  0  0  0  0  0  0
  -28.7511  -27.5383   18.8171 C   0  0  0  0  0  0  0  0  0  1  0  0
  -25.2671  -32.9564   22.7083 C   0  0  1  0  0  0  0  0  0  0  0  0
  -27.8993  -33.9708   25.2406 C   0  0  2  0  0  0  0  0  0  0  0  0
  -24.4774  -34.0308   21.9087 C   0  0  0  0  0  0  0  0  0  0  0  0
  -25.8364  -19.1399   20.9343 N   0  0  0  0  0  0  0  0  0  0  0  0
  -27.0797  -26.5827   15.6981 N   0  0  0  0  0  0  0  0  0  0  0  0
  -26.4856  -20.3032   20.7568 N   0  0  0  0  0  0  0  0  0  0  0  0
  -27.1336  -25.8116   16.7974 N   0  0  0  0  0  0  0  0  0  0  0  0
  -24.6429  -30.5641   22.8139 N   0  0  0  0  0  0  0  0  0  0  0  0
  -24.4030  -23.3925   19.9187 N   0  0  0  0  0  0  0  0  0  0  0  0
  -28.5896  -21.2223   20.1748 N   0  0  0  0  0  0  0  0  0  0  0  0
  -29.3052  -16.7679   19.9678 N   0  0  0  0  0  0  0  0  0  0  0  0
  -25.7406  -24.6248   18.4172 N   0  0  0  0  0  0  0  0  0  0  0  0
  -21.4800  -28.9948   22.3002 N   0  0  0  0  0  0  0  0  0  0  0  0
  -26.0051  -33.4843   23.8507 N   0  0  0  0  0  0  0  0  0  0  0  0
  -29.0535  -33.1918   25.7714 N   0  3  0  0  0  0  0  0  0  0  0  0
  -30.2869  -18.8251   19.7169 O   0  0  0  0  0  0  0  0  0  0  0  0
  -23.1960  -29.5659   20.8334 O   0  0  0  0  0  0  0  0  0  0  0  0
  -23.4689  -32.1646   24.0372 O   0  0  0  0  0  0  0  0  0  0  0  0
  -28.0957  -32.7545   23.1622 O   0  0  0  0  0  0  0  0  0  0  0  0
  -24.0180  -25.6476   19.5869 O   0  0  0  0  0  0  0  0  0  0  0  0
  -25.5553  -12.7786   20.9969 O   0  0  0  0  0  0  0  0  0  0  0  0
  -28.5851  -26.7484   19.9939 O   0  0  0  0  0  0  0  0  0  1  0  0
  -22.6809  -11.0453   25.3715 F   0  0  0  0  0  0  0  0  0  0  0  0
  -23.0301  -13.7748   21.5201 F   0  0  0  0  0  0  0  0  0  0  0  0
  -23.3007  -25.9121   16.4722 Cl  0  0  0  0  0  0  0  0  0  0  0  0
  1  2  1  0  0  0  0
  1  5  2  0  0  0  0
  2  6  2  0  0  0  0
  3  8  2  0  0  0  0
  3 15  1  0  0  0  0
  4  9  1  0  0  0  0
  4 15  2  0  0  0  0
  5 17  1  0  0  0  0
  6 19  1  0  0  0  0
  7 10  2  0  0  0  0
  7 18  1  0  0  0  0
  8 21  1  0  0  0  0
  9 21  2  0  0  0  0
 10 22  1  0  0  0  0
 11 12  2  0  0  0  0
 11 23  1  0  0  0  0
 12 24  1  0  0  0  0
 13 20  1  0  0  0  0
 13 22  2  0  0  0  0
 14 24  2  0  0  0  0
 14 25  1  0  0  0  0
 15 27  1  0  0  0  0
 16 27  1  0  0  0  0
 16 29  2  0  0  0  0
 16 31  1  0  0  0  0
 17 19  2  0  0  0  0
 17 36  1  0  0  0  0
 18 20  2  0  0  0  0
 18 37  1  0  0  0  0
 19 45  1  0  0  0  0
 20 38  1  0  0  0  0
 21 77  1  0  0  0  0
 22 78  1  0  0  0  0
 23 25  2  0  0  0  0
 23 77  1  0  0  0  0
 24 79  1  0  0  0  0
 25 80  1  0  0  0  0
 26 28  1  0  0  0  0
 26 30  2  0  0  0  0
 26 81  1  0  0  0  0
 27 60  2  0  0  0  0
 28 48  1  0  0  0  0
 28 61  2  0  0  0  0
 29 62  1  0  0  0  0
 29 66  1  0  0  0  0
 30 63  1  0  0  0  0
 30 68  1  0  0  0  0
 31 67  1  0  0  0  0
 31 72  2  0  0  0  0
 32 46  1  0  0  0  0
 32 69  1  0  0  0  0
 32 73  2  0  0  0  0
 33 57  1  0  0  0  0
 33 64  1  0  0  0  0
 33 74  2  0  0  0  0
 34 58  1  0  0  0  0
 34 70  1  0  0  0  0
 34 75  2  0  0  0  0
 35 65  1  0  0  0  0
 35 68  1  0  0  0  0
 35 76  2  0  0  0  0
 36 39  1  0  0  0  0
 37 46  1  0  0  0  0
 38 64  1  0  0  0  0
 39 41  1  0  0  0  0
 40 42  1  0  0  0  0
 40 43  1  0  0  0  0
 41 45  1  0  0  0  0
 42 47  1  0  0  0  0
 43 65  1  0  0  0  0
 44 47  1  0  0  0  0
 44 65  1  0  0  0  0
 45 69  1  0  0  0  0
 46 64  1  0  0  0  0
 47 62  1  0  0  0  0
 49 58  1  0  0  0  0
 50 59  1  0  0  0  0
 51 59  1  0  0  0  0
 52 59  1  0  0  0  0
 53 71  1  0  0  0  0
 54 55  1  0  0  0  0
 54 56  1  0  0  0  0
 55 63  1  0  0  0  0
 56 78  1  0  0  0  0
 57 59  1  0  0  0  0
 57 70  1  0  0  0  0
 58 71  1  0  0  0  0
 60 62  1  0  0  0  0
 61 63  1  0  0  0  0
M  CHG  1  71   1
M  ISO  4  35 100  56 101  68 100  78 101
M  END
> <Batch ID>
0021

> <Smiles>
CNC(C)C(=O)NC(C(=O)N1Cc2cc([101O:1][101CH2:1]CCn3nc(C)c(Cl)c3[100NH:0][100C:0](=O)N3CCCC(n4nc(-c5ccc(Oc6ccc(F)cc6F)cc5)c(C(N)=O)c4N)C3)ccc2CC1C(=O)NC1CCCc2ccccc21)C(C)(C)C

> <Shape>
0.238

> <Color>
0.090

> <Negative vol penalty>
0.000

$$$$

  -OEChem-04052316123D

 85 93  0     1  0  0  0  0  0999 V2000
  -35.1207  -28.2878   20.6261 C   0  0  0  0  0  0  0  0  0  0  0  0
  -34.4976  -27.0916   20.2851 C   0  0  0  0  0  0  0  0  0  0  0  0
  -23.0027  -10.0300   19.8637 C   0  0  0  0  0  0  0  0  0  0  0  0
  -23.9200   -9.7142   22.0764 C   0  0  0  0  0  0  0  0  0  0  0  0
  -34.3528  -29.3947   20.9853 C   0  0  0  0  0  0  0  0  0  0  0  0
  -33.1062  -27.0013   20.3042 C   0  0  0  0  0  0  0  0  0  0  0  0
  -29.5781  -23.7131   16.5298 C   0  0  0  0  0  0  0  0  0  0  0  0
  -22.2569   -8.8599   20.0059 C   0  0  0  0  0  0  0  0  0  0  0  0
  -23.1741   -8.5441   22.2186 C   0  0  0  0  0  0  0  0  0  0  0  0
  -28.9724  -22.4644   16.6620 C   0  0  0  0  0  0  0  0  0  0  0  0
  -21.2368   -5.6662   23.3061 C   0  0  0  0  0  0  0  0  0  0  0  0
  -20.5630   -5.4682   24.5113 C   0  0  0  0  0  0  0  0  0  0  0  0
  -26.9238  -23.5373   17.3483 C   0  0  0  0  0  0  0  0  0  0  0  0
  -25.2428  -20.0487   19.7545 C   0  0  0  0  0  0  0  0  0  0  0  0
  -19.3065   -7.4985   24.1423 C   0  0  0  0  0  0  0  0  0  0  0  0
  -23.8343  -10.4571   20.8989 C   0  0  0  0  0  0  0  0  0  0  0  0
  -24.2133  -12.9717   21.1015 C   0  0  0  0  0  0  0  0  0  0  0  0
  -32.9511  -29.3208   20.9994 C   0  0  0  0  0  0  0  0  0  0  0  0
  -28.8632  -24.8849   16.8169 C   0  0  0  0  0  0  0  0  0  0  0  0
  -32.3189  -28.1079   20.6652 C   0  0  0  0  0  0  0  0  0  0  0  0
  -27.5219  -24.7999   17.2165 C   0  0  0  0  0  0  0  0  0  0  0  0
  -26.5868  -19.6996   19.6821 C   0  0  0  0  0  0  0  0  0  0  0  0
  -27.4197  -19.9337   20.7706 C   0  0  0  0  0  0  0  0  0  0  0  0
  -22.3426   -8.1170   21.1833 C   0  0  0  0  0  0  0  0  0  0  0  0
  -27.6459  -22.3762   17.0740 C   0  0  0  0  0  0  0  0  0  0  0  0
  -20.9455   -6.7805   22.5191 C   0  0  0  0  0  0  0  0  0  0  0  0
  -19.5978   -6.3843   24.9294 C   0  0  0  0  0  0  0  0  0  0  0  0
  -19.9803   -7.6966   22.9372 C   0  0  0  0  0  0  0  0  0  0  0  0
  -24.6054  -11.6655   20.7524 C   0  0  0  0  0  0  0  0  0  0  0  0
  -24.7847  -20.6246   20.9284 C   0  0  0  0  0  0  0  0  0  0  0  0
  -26.8641  -20.5149   21.8990 C   0  0  0  0  0  0  0  0  0  0  0  0
  -25.2912  -13.7546   20.7673 C   0  0  0  0  0  0  0  0  0  0  0  0
  -22.9847  -13.4358   21.6766 C   0  0  0  0  0  0  0  0  0  0  0  0
  -29.1767  -27.2444   18.9235 C   0  0  0  0  0  0  0  0  0  0  0  0
  -26.7138  -28.5380   17.2553 C   0  0  0  0  0  0  0  0  0  0  0  0
  -24.0276  -28.0485   15.2080 C   0  0  0  0  0  0  0  0  0  0  0  0
  -30.7926  -14.6904   20.7018 C   0  0  0  0  0  0  0  0  0  0  0  0
  -32.1648  -30.5300   21.4402 C   0  0  0  0  0  0  0  0  0  0  0  0
  -29.5229  -26.2255   16.6437 C   0  0  0  0  0  0  0  0  0  0  0  0
  -26.7046  -26.0287   17.5173 C   0  0  0  0  0  0  0  0  0  0  0  0
  -30.6847  -30.4612   21.0730 C   0  0  0  0  0  0  0  0  0  0  0  0
  -29.4484  -12.6675   18.0985 C   0  0  0  0  0  0  0  0  0  0  0  0
  -30.1088  -29.0949   21.4314 C   0  0  0  0  0  0  0  0  0  0  0  0
  -28.0393  -12.3294   18.5885 C   0  0  0  0  0  0  0  0  0  0  0  0
  -30.4506  -12.7128   19.2498 C   0  0  0  0  0  0  0  0  0  0  0  0
  -28.6634  -13.2622   20.8554 C   0  0  0  0  0  0  0  0  0  0  0  0
  -30.8113  -27.9779   20.6501 C   0  0  1  0  0  0  0  0  0  0  0  0
  -28.8557  -27.3295   17.4581 C   0  0  1  0  0  0  0  0  0  0  0  0
  -27.6068  -13.2601   19.7375 C   0  0  2  0  0  0  0  0  0  0  0  0
  -22.1860  -29.2929   14.0429 C   0  0  0  0  0  0  0  0  0  0  0  0
  -25.2299  -28.8193   19.9065 C   0  0  0  0  0  0  0  0  0  0  0  0
  -23.1158  -29.1547   18.6078 C   0  0  0  0  0  0  0  0  0  0  0  0
  -24.9959  -30.7765   18.3672 C   0  0  0  0  0  0  0  0  0  0  0  0
  -24.9723  -27.1822   12.5404 C   0  0  0  0  0  0  0  0  0  0  0  0
  -27.1145  -19.0702   18.4158 C   0  0  0  0  0  0  0  0  0  0  0  0
  -28.8649  -19.5657   20.7107 C   0  0  0  0  0  0  0  0  0  0  0  0
  -29.1667  -18.2713   21.4812 C   0  0  0  0  0  0  0  0  0  0  0  0
  -30.6581  -17.9249   21.4433 C   0  0  0  0  0  0  0  0  0  0  0  0
  -30.9837  -16.6493   22.2135 C   0  0  0  0  0  0  0  0  0  0  0  0
  -27.8933  -20.0607   17.5570 C   0  0  0  0  0  0  0  0  0  1  0  0
  -25.2084  -28.4725   17.3481 C   0  0  1  0  0  0  0  0  0  0  0  0
  -23.5981  -28.7404   13.9269 C   0  0  2  0  0  0  0  0  0  0  0  0
  -24.6532  -29.2823   18.5537 C   0  0  0  0  0  0  0  0  0  0  0  0
  -25.8361  -11.6172   20.2358 N   0  0  0  0  0  0  0  0  0  0  0  0
  -25.5634  -20.8676   22.0064 N   0  0  0  0  0  0  0  0  0  0  0  0
  -26.2268  -12.9029   20.2578 N   0  0  0  0  0  0  0  0  0  0  0  0
  -27.3963  -27.3161   17.3393 N   0  0  0  0  0  0  0  0  0  0  0  0
  -29.9818  -13.6141   20.3052 N   0  0  0  0  0  0  0  0  0  0  0  0
  -23.4132  -20.9756   20.9878 N   0  0  0  0  0  0  0  0  0  0  0  0
  -25.5205  -15.0815   20.8624 N   0  0  0  0  0  0  0  0  0  0  0  0
  -21.9821  -12.4977   21.9576 N   0  0  0  0  0  0  0  0  0  0  0  0
  -30.3209  -27.9274   19.2894 N   0  0  0  0  0  0  0  0  0  0  0  0
  -24.7002  -28.9071   16.0515 N   0  0  0  0  0  0  0  0  0  0  0  0
  -30.2705  -15.4995   21.7036 N   0  0  0  0  0  0  0  0  0  0  0  0
  -23.6364  -27.7847   12.7840 N   0  3  0  0  0  0  0  0  0  0  0  0
  -22.7756  -14.6488   21.9185 O   0  0  0  0  0  0  0  0  0  0  0  0
  -28.4400  -26.6077   19.6675 O   0  0  0  0  0  0  0  0  0  0  0  0
  -27.2634  -29.6322   17.1063 O   0  0  0  0  0  0  0  0  0  0  0  0
  -23.7869  -26.8656   15.4390 O   0  0  0  0  0  0  0  0  0  0  0  0
  -31.8973  -14.9169   20.1967 O   0  0  0  0  0  0  0  0  0  0  0  0
  -21.6148   -6.9752   21.3225 O   0  0  0  0  0  0  0  0  0  0  0  0
  -27.0525  -21.1585   17.2044 O   0  0  0  0  0  0  0  0  0  1  0  0
  -18.9497   -6.1932   26.0859 F   0  0  0  0  0  0  0  0  0  0  0  0
  -19.6953   -8.7682   22.1848 F   0  0  0  0  0  0  0  0  0  0  0  0
  -27.7881  -20.8555   23.3096 Cl  0  0  0  0  0  0  0  0  0  0  0  0
  1  2  1  0  0  0  0
  1  5  2  0  0  0  0
  2  6  2  0  0  0  0
  3  8  2  0  0  0  0
  3 16  1  0  0  0  0
  4  9  1  0  0  0  0
  4 16  2  0  0  0  0
  5 18  1  0  0  0  0
  6 20  1  0  0  0  0
  7 10  2  0  0  0  0
  7 19  1  0  0  0  0
  8 24  1  0  0  0  0
  9 24  2  0  0  0  0
 10 25  1  0  0  0  0
 11 12  2  0  0  0  0
 11 26  1  0  0  0  0
 12 27  1  0  0  0  0
 13 21  1  0  0  0  0
 13 25  2  0  0  0  0
 14 22  1  0  0  0  0
 14 30  2  0  0  0  0
 15 27  2  0  0  0  0
 15 28  1  0  0  0  0
 16 29  1  0  0  0  0
 17 29  1  0  0  0  0
 17 32  2  0  0  0  0
 17 33  1  0  0  0  0
 18 20  2  0  0  0  0
 18 38  1  0  0  0  0
 19 21  2  0  0  0  0
 19 39  1  0  0  0  0
 20 47  1  0  0  0  0
 21 40  1  0  0  0  0
 22 23  2  0  0  0  0
 22 55  1  0  0  0  0
 23 31  1  0  0  0  0
 23 56  1  0  0  0  0
 24 81  1  0  0  0  0
 25 82  1  0  0  0  0
 26 28  2  0  0  0  0
 26 81  1  0  0  0  0
 27 83  1  0  0  0  0
 28 84  1  0  0  0  0
 29 64  2  0  0  0  0
 30 65  1  0  0  0  0
 30 69  1  0  0  0  0
 31 65  2  0  0  0  0
 31 85  1  0  0  0  0
 32 66  1  0  0  0  0
 32 70  1  0  0  0  0
 33 71  1  0  0  0  0
 33 76  2  0  0  0  0
 34 48  1  0  0  0  0
 34 72  1  0  0  0  0
 34 77  2  0  0  0  0
 35 61  1  0  0  0  0
 35 67  1  0  0  0  0
 35 78  2  0  0  0  0
 36 62  1  0  0  0  0
 36 73  1  0  0  0  0
 36 79  2  0  0  0  0
 37 68  1  0  0  0  0
 37 74  1  0  0  0  0
 37 80  2  0  0  0  0
 38 41  1  0  0  0  0
 39 48  1  0  0  0  0
 40 67  1  0  0  0  0
 41 43  1  0  0  0  0
 42 44  1  0  0  0  0
 42 45  1  0  0  0  0
 43 47  1  0  0  0  0
 44 49  1  0  0  0  0
 45 68  1  0  0  0  0
 46 49  1  0  0  0  0
 46 68  1  0  0  0  0
 47 72  1  0  0  0  0
 48 67  1  0  0  0  0
 49 66  1  0  0  0  0
 50 62  1  0  0  0  0
 51 63  1  0  0  0  0
 52 63  1  0  0  0  0
 53 63  1  0  0  0  0
 54 75  1  0  0  0  0
 55 60  1  0  0  0  0
 56 57  1  0  0  0  0
 57 58  1  0  0  0  0
 58 59  1  0  0  0  0
 59 74  1  0  0  0  0
 60 82  1  0  0  0  0
 61 63  1  0  0  0  0
 61 73  1  0  0  0  0
 62 75  1  0  0  0  0
 64 66  1  0  0  0  0
M  CHG  1  75   1
M  ISO  4  37 100  60 101  74 100  82 101
M  END
> <Batch ID>
0021

> <Smiles>
CNC(C)C(=O)NC(C(=O)N1Cc2cc([101O:1][101CH2:1]Cc3cc(N)nc(Cl)c3CCCC[100NH:0][100C:0](=O)N3CCCC(n4nc(-c5ccc(Oc6ccc(F)cc6F)cc5)c(C(N)=O)c4N)C3)ccc2CC1C(=O)NC1CCCc2ccccc21)C(C)(C)C

> <Shape>
0.244

> <Color>
0.193

> <Negative vol penalty>
0.000

$$$$

  -OEChem-04052316123D

 89 98  0     1  0  0  0  0  0999 V2000
  -28.8540  -36.7618   18.3283 C   0  0  0  0  0  0  0  0  0  0  0  0
  -29.1059  -35.3940   18.3625 C   0  0  0  0  0  0  0  0  0  0  0  0
  -22.8066   -9.9516   22.3474 C   0  0  0  0  0  0  0  0  0  0  0  0
  -24.2701   -9.3611   20.5181 C   0  0  0  0  0  0  0  0  0  0  0  0
  -28.0413  -37.3443   19.3000 C   0  0  0  0  0  0  0  0  0  0  0  0
  -28.5462  -34.6081   19.3692 C   0  0  0  0  0  0  0  0  0  0  0  0
  -26.6176  -28.8166   18.8747 C   0  0  0  0  0  0  0  0  0  0  0  0
  -22.1809   -8.7090   22.2480 C   0  0  0  0  0  0  0  0  0  0  0  0
  -23.6445   -8.1184   20.4187 C   0  0  0  0  0  0  0  0  0  0  0  0
  -27.2107  -27.5990   19.2054 C   0  0  0  0  0  0  0  0  0  0  0  0
  -20.4379   -5.5529   22.7127 C   0  0  0  0  0  0  0  0  0  0  0  0
  -20.1905   -4.8550   23.8948 C   0  0  0  0  0  0  0  0  0  0  0  0
  -26.0485  -27.6140   21.3193 C   0  0  0  0  0  0  0  0  0  0  0  0
  -22.5587   -4.8235   24.3719 C   0  0  0  0  0  0  0  0  0  0  0  0
  -23.8512  -10.2778   21.4824 C   0  0  0  0  0  0  0  0  0  0  0  0
  -25.6163  -11.8898   22.3731 C   0  0  0  0  0  0  0  0  0  0  0  0
  -27.4635  -36.5635   20.3135 C   0  0  0  0  0  0  0  0  0  0  0  0
  -25.7424  -29.4485   19.7698 C   0  0  0  0  0  0  0  0  0  0  0  0
  -27.7261  -35.1809   20.3561 C   0  0  0  0  0  0  0  0  0  0  0  0
  -25.4436  -28.8383   20.9964 C   0  0  0  0  0  0  0  0  0  0  0  0
  -22.5998   -7.7924   21.2837 C   0  0  0  0  0  0  0  0  0  0  0  0
  -26.9284  -26.9989   20.4291 C   0  0  0  0  0  0  0  0  0  0  0  0
  -21.7458   -5.8860   22.3601 C   0  0  0  0  0  0  0  0  0  0  0  0
  -21.2509   -4.4903   24.7244 C   0  0  0  0  0  0  0  0  0  0  0  0
  -22.8061   -5.5213   23.1897 C   0  0  0  0  0  0  0  0  0  0  0  0
  -24.4975  -11.5615   21.5842 C   0  0  0  0  0  0  0  0  0  0  0  0
  -25.8370  -13.2213   22.1187 C   0  0  0  0  0  0  0  0  0  0  0  0
  -26.3872  -11.0648   23.2567 C   0  0  0  0  0  0  0  0  0  0  0  0
  -25.7424  -32.2190   21.3280 C   0  0  0  0  0  0  0  0  0  0  0  0
  -22.7599  -31.2848   22.1968 C   0  0  0  0  0  0  0  0  0  0  0  0
  -20.5537  -28.7286   22.6921 C   0  0  0  0  0  0  0  0  0  0  0  0
  -26.2930  -17.2068   18.0907 C   0  0  0  0  0  0  0  0  0  0  0  0
  -26.6302  -37.2457   21.3694 C   0  0  0  0  0  0  0  0  0  0  0  0
  -25.0901  -30.7485   19.3868 C   0  0  0  0  0  0  0  0  0  0  0  0
  -24.4951  -29.4657   21.9840 C   0  0  0  0  0  0  0  0  0  0  0  0
  -25.7718  -36.2819   22.1845 C   0  0  0  0  0  0  0  0  0  0  0  0
  -23.0122  -16.6436   19.7096 C   0  0  0  0  0  0  0  0  0  0  0  0
  -26.5956  -35.0767   22.6270 C   0  0  0  0  0  0  0  0  0  0  0  0
  -23.1857  -15.2641   20.3428 C   0  0  0  0  0  0  0  0  0  0  0  0
  -29.8430  -19.9285   17.8762 C   0  0  0  0  0  0  0  0  0  0  0  0
  -29.1280  -12.4475   19.5738 C   0  0  0  0  0  0  0  0  0  0  0  0
  -27.9002  -13.9492   18.1323 C   0  0  0  0  0  0  0  0  0  0  0  0
  -23.8863  -16.8129   18.4707 C   0  0  0  0  0  0  0  0  0  0  0  0
  -25.5026  -15.1570   19.3423 C   0  0  0  0  0  0  0  0  0  0  0  0
  -27.1170  -34.2910   21.4178 C   0  0  1  0  0  0  0  0  0  0  0  0
  -24.6137  -31.5555   20.5907 C   0  0  1  0  0  0  0  0  0  0  0  0
  -29.0996  -18.7967   18.5357 C   0  0  1  0  0  0  0  0  0  0  0  0
  -28.4119  -20.1177   18.3060 C   0  0  1  0  0  0  0  0  0  0  0  0
  -29.1104  -13.8522   20.2090 C   0  0  2  0  0  0  0  0  0  0  0  0
  -28.7432  -14.8179   19.0643 C   0  0  2  0  0  0  0  0  0  0  0  0
  -24.6704  -14.9705   20.6199 C   0  0  2  0  0  0  0  0  0  0  0  0
  -28.6748  -12.6495   18.1380 C   0  0  0  0  0  0  0  0  0  0  0  0
  -30.4283  -14.2087   20.8835 C   0  0  0  0  0  0  0  0  0  0  0  0
  -18.2022  -28.2732   23.4406 C   0  0  0  0  0  0  0  0  0  0  0  0
  -26.7352  -20.6493   20.0670 C   0  0  0  0  0  0  0  0  0  0  0  0
  -23.5965  -31.7423   25.0952 C   0  0  0  0  0  0  0  0  0  0  0  0
  -21.6069  -30.4001   25.8083 C   0  0  0  0  0  0  0  0  0  0  0  0
  -21.2868  -32.5244   24.5403 C   0  0  0  0  0  0  0  0  0  0  0  0
  -19.8299  -27.5378   20.0812 C   0  0  0  0  0  0  0  0  0  0  0  0
  -28.7022  -17.5998   17.7432 C   0  0  0  0  0  0  0  0  0  0  0  0
  -28.0182  -16.0365   19.5247 C   0  0  0  0  0  0  0  0  0  0  0  0
  -27.7871  -23.4837   20.1706 C   0  0  0  0  0  0  0  0  0  0  0  0
  -28.1266  -22.5014   19.0476 C   0  0  0  0  0  0  0  0  0  0  0  0
  -27.8228  -24.9263   19.6804 C   0  0  0  0  0  0  0  0  0  1  0  0
  -22.1800  -30.4866   23.3394 C   0  0  1  0  0  0  0  0  0  0  0  0
  -19.1127  -28.5424   22.2526 C   0  0  2  0  0  0  0  0  0  0  0  0
  -28.0780  -21.0274   19.4929 C   0  0  2  0  0  0  0  0  0  0  0  0
  -22.1870  -31.2772   24.6782 C   0  0  0  0  0  0  0  0  0  0  0  0
  -24.0393  -12.6008   20.8815 N   0  0  0  0  0  0  0  0  0  0  0  0
  -24.8743  -13.5952   21.2279 N   0  0  0  0  0  0  0  0  0  0  0  0
  -23.8874  -30.7399   21.5662 N   0  0  0  0  0  0  0  0  0  0  0  0
  -25.2847  -16.4859   18.7513 N   0  0  0  0  0  0  0  0  0  0  0  0
  -26.7587  -14.0972   22.5724 N   0  0  0  0  0  0  0  0  0  0  0  0
  -26.0238   -9.7190   23.4014 N   0  0  0  0  0  0  0  0  0  0  0  0
  -26.0633  -33.4759   20.8521 N   0  0  0  0  0  0  0  0  0  0  0  0
  -20.8548  -30.0571   22.9061 N   0  0  0  0  0  0  0  0  0  0  0  0
  -27.6216  -16.8727   18.3939 N   0  0  0  0  0  0  0  0  0  0  0  0
  -19.0035  -27.3953   21.3075 N   0  3  0  0  0  0  0  0  0  0  0  0
  -27.3592  -11.5121   23.9115 O   0  0  0  0  0  0  0  0  0  0  0  0
  -26.2811  -31.6344   22.2607 O   0  0  0  0  0  0  0  0  0  0  0  0
  -22.2277  -32.3489   21.8710 O   0  0  0  0  0  0  0  0  0  0  0  0
  -21.3332  -27.7892   22.8352 O   0  0  0  0  0  0  0  0  0  0  0  0
  -26.0212  -18.1049   17.2834 O   0  0  0  0  0  0  0  0  0  0  0  0
  -21.9897   -6.5796   21.1866 O   0  0  0  0  0  0  0  0  0  0  0  0
  -27.5065  -25.8107   20.7547 O   0  0  0  0  0  0  0  0  0  1  0  0
  -21.0130   -3.8215   25.8603 F   0  0  0  0  0  0  0  0  0  0  0  0
  -24.0646   -5.8396   22.8569 F   0  0  0  0  0  0  0  0  0  0  0  0
  -27.9367  -11.6175   17.6909 F   0  0  0  0  0  0  0  0  0  0  0  0
  -29.7568  -12.7587   17.3292 F   0  0  0  0  0  0  0  0  0  0  0  0
  1  2  1  0  0  0  0
  1  5  2  0  0  0  0
  2  6  2  0  0  0  0
  3  8  2  0  0  0  0
  3 15  1  0  0  0  0
  4  9  1  0  0  0  0
  4 15  2  0  0  0  0
  5 17  1  0  0  0  0
  6 19  1  0  0  0  0
  7 10  2  0  0  0  0
  7 18  1  0  0  0  0
  8 21  1  0  0  0  0
  9 21  2  0  0  0  0
 10 22  1  0  0  0  0
 11 12  2  0  0  0  0
 11 23  1  0  0  0  0
 12 24  1  0  0  0  0
 13 20  1  0  0  0  0
 13 22  2  0  0  0  0
 14 24  2  0  0  0  0
 14 25  1  0  0  0  0
 15 26  1  0  0  0  0
 16 26  1  0  0  0  0
 16 27  2  0  0  0  0
 16 28  1  0  0  0  0
 17 19  2  0  0  0  0
 17 33  1  0  0  0  0
 18 20  2  0  0  0  0
 18 34  1  0  0  0  0
 19 45  1  0  0  0  0
 20 35  1  0  0  0  0
 21 84  1  0  0  0  0
 22 85  1  0  0  0  0
 23 25  2  0  0  0  0
 23 84  1  0  0  0  0
 24 86  1  0  0  0  0
 25 87  1  0  0  0  0
 26 69  2  0  0  0  0
 27 70  1  0  0  0  0
 27 73  1  0  0  0  0
 28 74  1  0  0  0  0
 28 79  2  0  0  0  0
 29 46  1  0  0  0  0
 29 75  1  0  0  0  0
 29 80  2  0  0  0  0
 30 65  1  0  0  0  0
 30 71  1  0  0  0  0
 30 81  2  0  0  0  0
 31 66  1  0  0  0  0
 31 76  1  0  0  0  0
 31 82  2  0  0  0  0
 32 72  1  0  0  0  0
 32 77  1  0  0  0  0
 32 83  2  0  0  0  0
 33 36  1  0  0  0  0
 34 46  1  0  0  0  0
 35 71  1  0  0  0  0
 36 38  1  0  0  0  0
 37 39  1  0  0  0  0
 37 43  1  0  0  0  0
 38 45  1  0  0  0  0
 39 51  1  0  0  0  0
 40 47  1  0  0  0  0
 40 48  1  0  0  0  0
 41 49  1  0  0  0  0
 41 52  1  0  0  0  0
 42 50  1  0  0  0  0
 42 52  1  0  0  0  0
 43 72  1  0  0  0  0
 44 51  1  0  0  0  0
 44 72  1  0  0  0  0
 45 75  1  0  0  0  0
 46 71  1  0  0  0  0
 47 48  1  0  0  0  0
 47 60  1  0  0  0  0
 48 67  1  0  0  0  0
 49 50  1  0  0  0  0
 49 53  1  0  0  0  0
 50 61  1  0  0  0  0
 51 70  1  0  0  0  0
 52 88  1  0  0  0  0
 52 89  1  0  0  0  0
 54 66  1  0  0  0  0
 55 67  1  0  0  0  0
 56 68  1  0  0  0  0
 57 68  1  0  0  0  0
 58 68  1  0  0  0  0
 59 78  1  0  0  0  0
 60 77  1  0  0  0  0
 61 77  1  0  0  0  0
 62 63  1  0  0  0  0
 62 64  1  0  0  0  0
 63 67  1  0  0  0  0
 64 85  1  0  0  0  0
 65 68  1  0  0  0  0
 65 76  1  0  0  0  0
 66 78  1  0  0  0  0
 69 70  1  0  0  0  0
M  CHG  1  78   1
M  ISO  4  32 100  64 101  77 100  85 101
M  END
> <Batch ID>
0021

> <Smiles>
CNC(C)C(=O)NC(C(=O)N1Cc2cc([101O:1][101CH2:1]CCC(C)C3CC3C[100N:0](CC3CC(F)(F)CC3C)[100C:0](=O)N3CCCC(n4nc(-c5ccc(Oc6ccc(F)cc6F)cc5)c(C(N)=O)c4N)C3)ccc2CC1C(=O)NC1CCCc2ccccc21)C(C)(C)C

> <Shape>
0.301

> <Color>
0.117

> <Negative vol penalty>
0.000

$$$$
