
  -OEChem-04052316153D

 85 93  0     1  0  0  0  0  0999 V2000
  -32.9409  -20.5418   11.6723 C   0  0  0  0  0  0  0  0  0  0  0  0
  -32.0956  -20.3584   12.7620 C   0  0  0  0  0  0  0  0  0  0  0  0
  -23.0757   -9.8668   19.9402 C   0  0  0  0  0  0  0  0  0  0  0  0
  -23.8352   -9.8730   22.2337 C   0  0  0  0  0  0  0  0  0  0  0  0
  -34.0965  -21.3097   11.8094 C   0  0  0  0  0  0  0  0  0  0  0  0
  -32.4061  -20.9421   13.9897 C   0  0  0  0  0  0  0  0  0  0  0  0
  -28.4601  -23.1665   18.1112 C   0  0  0  0  0  0  0  0  0  0  0  0
  -22.3319   -8.7135   20.1895 C   0  0  0  0  0  0  0  0  0  0  0  0
  -23.0914   -8.7196   22.4831 C   0  0  0  0  0  0  0  0  0  0  0  0
  -27.9247  -22.6306   19.2816 C   0  0  0  0  0  0  0  0  0  0  0  0
  -19.8632   -7.9212   23.0847 C   0  0  0  0  0  0  0  0  0  0  0  0
  -19.1061   -7.8807   24.2555 C   0  0  0  0  0  0  0  0  0  0  0  0
  -29.6242  -23.7592   20.5688 C   0  0  0  0  0  0  0  0  0  0  0  0
  -30.6139  -19.8649   21.4648 C   0  0  0  0  0  0  0  0  0  0  0  0
  -31.1546  -17.6775   20.5932 C   0  0  0  0  0  0  0  0  0  0  0  0
  -20.3476   -5.9431   24.9914 C   0  0  0  0  0  0  0  0  0  0  0  0
  -23.8274  -10.4465   20.9622 C   0  0  0  0  0  0  0  0  0  0  0  0
  -24.1689  -12.9718   20.8433 C   0  0  0  0  0  0  0  0  0  0  0  0
  -34.4162  -21.9110   13.0369 C   0  0  0  0  0  0  0  0  0  0  0  0
  -29.5901  -23.9955   18.1599 C   0  0  0  0  0  0  0  0  0  0  0  0
  -33.5677  -21.7177   14.1437 C   0  0  0  0  0  0  0  0  0  0  0  0
  -30.1705  -24.3065   19.3978 C   0  0  0  0  0  0  0  0  0  0  0  0
  -31.3366  -19.0604   20.5839 C   0  0  0  0  0  0  0  0  0  0  0  0
  -29.7092  -19.2865   22.3551 C   0  0  0  0  0  0  0  0  0  0  0  0
  -29.5271  -17.9036   22.3644 C   0  0  0  0  0  0  0  0  0  0  0  0
  -30.2498  -17.0990   21.4834 C   0  0  0  0  0  0  0  0  0  0  0  0
  -22.3397   -8.1399   21.4610 C   0  0  0  0  0  0  0  0  0  0  0  0
  -28.5084  -22.9245   20.5104 C   0  0  0  0  0  0  0  0  0  0  0  0
  -20.8625   -6.9726   22.8672 C   0  0  0  0  0  0  0  0  0  0  0  0
  -19.3483   -6.8917   25.2088 C   0  0  0  0  0  0  0  0  0  0  0  0
  -21.1047   -5.9836   23.8205 C   0  0  0  0  0  0  0  0  0  0  0  0
  -24.5964  -11.6376   20.7051 C   0  0  0  0  0  0  0  0  0  0  0  0
  -25.2611  -13.7215   20.4805 C   0  0  0  0  0  0  0  0  0  0  0  0
  -22.8983  -13.4873   21.2622 C   0  0  0  0  0  0  0  0  0  0  0  0
  -32.5429  -23.8333   16.9945 C   0  0  0  0  0  0  0  0  0  0  0  0
  -32.7576  -26.8458   18.1782 C   0  0  0  0  0  0  0  0  0  0  0  0
  -31.6280  -29.1701   20.4072 C   0  0  0  0  0  0  0  0  0  0  0  0
  -30.7271  -14.7678   20.6566 C   0  0  0  0  0  0  0  0  0  0  0  0
  -35.7008  -22.6933   13.1493 C   0  0  0  0  0  0  0  0  0  0  0  0
  -30.1394  -24.5872   16.8908 C   0  0  0  0  0  0  0  0  0  0  0  0
  -31.3725  -25.2075   19.5061 C   0  0  0  0  0  0  0  0  0  0  0  0
  -35.7636  -23.5870   14.3852 C   0  0  0  0  0  0  0  0  0  0  0  0
  -29.6134  -12.3548   18.2871 C   0  0  0  0  0  0  0  0  0  0  0  0
  -35.3127  -22.8184   15.6233 C   0  0  0  0  0  0  0  0  0  0  0  0
  -28.1737  -12.0628   18.7163 C   0  0  0  0  0  0  0  0  0  0  0  0
  -30.5283  -12.5832   19.4890 C   0  0  0  0  0  0  0  0  0  0  0  0
  -28.6210  -13.3069   20.8702 C   0  0  0  0  0  0  0  0  0  0  0  0
  -33.8575  -22.3550   15.4853 C   0  0  1  0  0  0  0  0  0  0  0  0
  -31.6019  -25.0046   17.0103 C   0  0  1  0  0  0  0  0  0  0  0  0
  -27.6484  -13.1340   19.6922 C   0  0  2  0  0  0  0  0  0  0  0  0
  -28.5558  -17.2879   23.3223 C   0  0  0  0  0  0  0  0  0  0  0  0
  -32.0236  -31.5303   21.1625 C   0  0  0  0  0  0  0  0  0  0  0  0
  -35.2582  -25.9446   19.6766 C   0  0  0  0  0  0  0  0  0  0  0  0
  -35.0524  -27.9884   21.1079 C   0  0  0  0  0  0  0  0  0  0  0  0
  -35.4195  -28.2200   18.6515 C   0  0  0  0  0  0  0  0  0  0  0  0
  -28.8841  -29.9914   19.6621 C   0  0  0  0  0  0  0  0  0  0  0  0
  -28.9423  -20.1788   23.2981 C   0  0  0  0  0  0  0  0  0  0  0  0
  -27.4863  -20.4048   22.8849 C   0  0  0  0  0  0  0  0  0  0  0  0
  -27.3425  -21.1337   21.5540 C   0  0  0  0  0  0  0  0  0  1  0  0
  -33.1667  -27.4482   19.5006 C   0  0  1  0  0  0  0  0  0  0  0  0
  -31.2320  -30.6250   20.2316 C   0  0  2  0  0  0  0  0  0  0  0  0
  -32.3050  -19.6787   19.6330 C   0  0  0  0  0  0  0  0  0  0  0  0
  -34.7027  -27.3817   19.7323 C   0  0  0  0  0  0  0  0  0  0  0  0
  -25.8613  -11.5421   20.2870 N   0  0  0  0  0  0  0  0  0  0  0  0
  -26.2381  -12.8258   20.1593 N   0  0  0  0  0  0  0  0  0  0  0  0
  -31.8767  -25.7565   18.2364 N   0  0  0  0  0  0  0  0  0  0  0  0
  -29.9690  -13.6136   20.3667 N   0  0  0  0  0  0  0  0  0  0  0  0
  -25.4713  -15.0531   20.4081 N   0  0  0  0  0  0  0  0  0  0  0  0
  -21.8864  -12.5778   21.5989 N   0  0  0  0  0  0  0  0  0  0  0  0
  -30.0795  -15.6924   21.4752 N   0  0  0  0  0  0  0  0  0  0  0  0
  -32.9510  -23.4566   15.7292 N   0  0  0  0  0  0  0  0  0  0  0  0
  -32.6173  -28.7995   19.5210 N   0  0  0  0  0  0  0  0  0  0  0  0
  -29.7814  -30.8057   20.5215 N   0  3  0  0  0  0  0  0  0  0  0  0
  -22.6619  -14.7178   21.3200 O   0  0  0  0  0  0  0  0  0  0  0  0
  -32.8753  -23.3109   18.0520 O   0  0  0  0  0  0  0  0  0  0  0  0
  -33.1976  -27.3285   17.1318 O   0  0  0  0  0  0  0  0  0  0  0  0
  -31.1141  -28.4368   21.2490 O   0  0  0  0  0  0  0  0  0  0  0  0
  -31.8562  -14.9368   20.1892 O   0  0  0  0  0  0  0  0  0  0  0  0
  -21.6139   -7.0146   21.7047 O   0  0  0  0  0  0  0  0  0  0  0  0
  -27.9882  -22.4022   21.6543 O   0  0  0  0  0  0  0  0  0  1  0  0
  -18.6221   -6.8538   26.3337 F   0  0  0  0  0  0  0  0  0  0  0  0
  -22.0642   -5.0703   23.6177 F   0  0  0  0  0  0  0  0  0  0  0  0
  -32.3809  -21.0387   19.7359 F   0  0  0  0  0  0  0  0  0  0  0  0
  -33.5875  -19.2374   19.7946 F   0  0  0  0  0  0  0  0  0  0  0  0
  -31.9930  -19.4273   18.3282 F   0  0  0  0  0  0  0  0  0  0  0  0
  1  2  1  0  0  0  0
  1  5  2  0  0  0  0
  2  6  2  0  0  0  0
  3  8  2  0  0  0  0
  3 17  1  0  0  0  0
  4  9  1  0  0  0  0
  4 17  2  0  0  0  0
  5 19  1  0  0  0  0
  6 21  1  0  0  0  0
  7 10  2  0  0  0  0
  7 20  1  0  0  0  0
  8 27  1  0  0  0  0
  9 27  2  0  0  0  0
 10 28  1  0  0  0  0
 11 12  2  0  0  0  0
 11 29  1  0  0  0  0
 12 30  1  0  0  0  0
 13 22  1  0  0  0  0
 13 28  2  0  0  0  0
 14 23  2  0  0  0  0
 14 24  1  0  0  0  0
 15 23  1  0  0  0  0
 15 26  2  0  0  0  0
 16 30  2  0  0  0  0
 16 31  1  0  0  0  0
 17 32  1  0  0  0  0
 18 32  1  0  0  0  0
 18 33  2  0  0  0  0
 18 34  1  0  0  0  0
 19 21  2  0  0  0  0
 19 39  1  0  0  0  0
 20 22  2  0  0  0  0
 20 40  1  0  0  0  0
 21 48  1  0  0  0  0
 22 41  1  0  0  0  0
 23 62  1  0  0  0  0
 24 25  2  0  0  0  0
 24 57  1  0  0  0  0
 25 26  1  0  0  0  0
 25 51  1  0  0  0  0
 26 70  1  0  0  0  0
 27 79  1  0  0  0  0
 28 80  1  0  0  0  0
 29 31  2  0  0  0  0
 29 79  1  0  0  0  0
 30 81  1  0  0  0  0
 31 82  1  0  0  0  0
 32 64  2  0  0  0  0
 33 65  1  0  0  0  0
 33 68  1  0  0  0  0
 34 69  1  0  0  0  0
 34 74  2  0  0  0  0
 35 49  1  0  0  0  0
 35 71  1  0  0  0  0
 35 75  2  0  0  0  0
 36 60  1  0  0  0  0
 36 66  1  0  0  0  0
 36 76  2  0  0  0  0
 37 61  1  0  0  0  0
 37 72  1  0  0  0  0
 37 77  2  0  0  0  0
 38 67  1  0  0  0  0
 38 70  1  0  0  0  0
 38 78  2  0  0  0  0
 39 42  1  0  0  0  0
 40 49  1  0  0  0  0
 41 66  1  0  0  0  0
 42 44  1  0  0  0  0
 43 45  1  0  0  0  0
 43 46  1  0  0  0  0
 44 48  1  0  0  0  0
 45 50  1  0  0  0  0
 46 67  1  0  0  0  0
 47 50  1  0  0  0  0
 47 67  1  0  0  0  0
 48 71  1  0  0  0  0
 49 66  1  0  0  0  0
 50 65  1  0  0  0  0
 52 61  1  0  0  0  0
 53 63  1  0  0  0  0
 54 63  1  0  0  0  0
 55 63  1  0  0  0  0
 56 73  1  0  0  0  0
 57 58  1  0  0  0  0
 58 59  1  0  0  0  0
 59 80  1  0  0  0  0
 60 63  1  0  0  0  0
 60 72  1  0  0  0  0
 61 73  1  0  0  0  0
 62 83  1  0  0  0  0
 62 84  1  0  0  0  0
 62 85  1  0  0  0  0
 64 65  1  0  0  0  0
M  CHG  1  73   1
M  ISO  4  38 100  59 101  70 100  80 101
M  END
> <Batch ID>
0022

> <Smiles>
CNC(C)C(=O)NC(C(=O)N1Cc2cc([101O:1][101CH2:1]CCc3cc(C(F)(F)F)cc([100NH:0][100C:0](=O)N4CCCC(n5nc(-c6ccc(Oc7ccc(F)cc7F)cc6)c(C(N)=O)c5N)C4)c3C)ccc2CC1C(=O)NC1CCCc2ccccc21)C(C)(C)C

> <Shape>
0.245

> <Color>
0.200

> <Negative vol penalty>
0.000

$$$$

  -OEChem-04052316153D

 86 94  0     1  0  0  0  0  0999 V2000
  -22.5429  -31.7003   18.6768 C   0  0  0  0  0  0  0  0  0  0  0  0
  -22.2182  -30.3832   18.3681 C   0  0  0  0  0  0  0  0  0  0  0  0
  -30.2965  -19.8318   19.5432 C   0  0  0  0  0  0  0  0  0  0  0  0
  -28.3297  -20.0382   20.9310 C   0  0  0  0  0  0  0  0  0  0  0  0
  -23.5597  -31.9703   19.5917 C   0  0  0  0  0  0  0  0  0  0  0  0
  -22.9109  -29.3353   18.9734 C   0  0  0  0  0  0  0  0  0  0  0  0
  -20.6508  -23.8795   20.5959 C   0  0  0  0  0  0  0  0  0  0  0  0
  -30.0636  -21.1051   19.0237 C   0  0  0  0  0  0  0  0  0  0  0  0
  -28.0968  -21.3117   20.4116 C   0  0  0  0  0  0  0  0  0  0  0  0
  -20.6826  -22.6299   19.9786 C   0  0  0  0  0  0  0  0  0  0  0  0
  -30.5302  -24.3123   19.9878 C   0  0  0  0  0  0  0  0  0  0  0  0
  -31.6183  -25.1787   19.8833 C   0  0  0  0  0  0  0  0  0  0  0  0
  -22.6017  -22.0276   21.3104 C   0  0  0  0  0  0  0  0  0  0  0  0
  -31.2799  -25.3156   17.4950 C   0  0  0  0  0  0  0  0  0  0  0  0
  -29.4295  -19.2983   20.4969 C   0  0  0  0  0  0  0  0  0  0  0  0
  -30.4350  -17.6539   22.1680 C   0  0  0  0  0  0  0  0  0  0  0  0
  -24.2587  -30.9250   20.2158 C   0  0  0  0  0  0  0  0  0  0  0  0
  -21.6025  -24.2172   21.5689 C   0  0  0  0  0  0  0  0  0  0  0  0
  -23.9390  -29.5915   19.8965 C   0  0  0  0  0  0  0  0  0  0  0  0
  -22.5782  -23.2813   21.9404 C   0  0  0  0  0  0  0  0  0  0  0  0
  -28.9638  -21.8451   19.4579 C   0  0  0  0  0  0  0  0  0  0  0  0
  -21.6599  -21.7047   20.3337 C   0  0  0  0  0  0  0  0  0  0  0  0
  -29.8170  -23.9475   18.8459 C   0  0  0  0  0  0  0  0  0  0  0  0
  -31.9932  -25.6804   18.6369 C   0  0  0  0  0  0  0  0  0  0  0  0
  -30.1918  -24.4491   17.5995 C   0  0  0  0  0  0  0  0  0  0  0  0
  -29.6692  -17.9827   21.0334 C   0  0  0  0  0  0  0  0  0  0  0  0
  -30.3511  -16.2857   22.2541 C   0  0  0  0  0  0  0  0  0  0  0  0
  -31.1575  -18.5089   23.0640 C   0  0  0  0  0  0  0  0  0  0  0  0
  -23.8630  -26.4377   21.8202 C   0  0  0  0  0  0  0  0  0  0  0  0
  -24.1611  -25.2390   24.8196 C   0  0  0  0  0  0  0  0  0  0  0  0
  -22.6973  -14.1064   20.6876 C   0  0  0  0  0  0  0  0  0  0  0  0
  -23.7220  -22.6040   26.9435 C   0  0  0  0  0  0  0  0  0  0  0  0
  -26.3013  -12.3194   20.3257 C   0  0  0  0  0  0  0  0  0  0  0  0
  -25.3819  -31.2666   21.1626 C   0  0  0  0  0  0  0  0  0  0  0  0
  -21.5382  -25.5595   22.2446 C   0  0  0  0  0  0  0  0  0  0  0  0
  -23.6103  -23.5872   22.9938 C   0  0  0  0  0  0  0  0  0  0  0  0
  -25.8148  -30.0960   22.0417 C   0  0  0  0  0  0  0  0  0  0  0  0
  -29.7723  -12.3912   19.5359 C   0  0  0  0  0  0  0  0  0  0  0  0
  -25.9779  -28.8314   21.2044 C   0  0  0  0  0  0  0  0  0  0  0  0
  -20.7077  -17.9383   20.7998 C   0  0  0  0  0  0  0  0  0  0  0  0
  -21.6602  -17.8921   18.4594 C   0  0  0  0  0  0  0  0  0  0  0  0
  -30.2086  -13.8027   19.9326 C   0  0  0  0  0  0  0  0  0  0  0  0
  -20.6856  -16.4089   20.9049 C   0  0  0  0  0  0  0  0  0  0  0  0
  -22.1693  -16.5026   18.8598 C   0  0  0  0  0  0  0  0  0  0  0  0
  -28.3615  -12.3798   18.9515 C   0  0  0  0  0  0  0  0  0  0  0  0
  -27.7704  -14.4222   20.1977 C   0  0  0  0  0  0  0  0  0  0  0  0
  -24.6509  -28.4274   20.5509 C   0  0  1  0  0  0  0  0  0  0  0  0
  -22.8702  -25.9862   22.8537 C   0  0  1  0  0  0  0  0  0  0  0  0
  -20.5293  -18.4204   19.3586 C   0  0  0  0  0  0  0  0  0  0  0  0
  -29.1653  -14.4767   20.8439 C   0  0  2  0  0  0  0  0  0  0  0  0
  -21.1091  -15.7020   19.6106 C   0  0  0  0  0  0  0  0  0  0  0  0
  -24.0960  -21.9109   29.3261 C   0  0  0  0  0  0  0  0  0  0  0  0
  -20.2332  -20.4058   17.8501 C   0  0  0  0  0  0  0  0  0  0  0  0
  -19.3391  -20.4731   20.1964 C   0  0  0  0  0  0  0  0  0  0  0  0
  -27.1363  -24.8799   24.2456 C   0  0  0  0  0  0  0  0  0  0  0  0
  -27.2628  -23.3529   26.2256 C   0  0  0  0  0  0  0  0  0  0  0  0
  -26.6119  -25.7411   26.5342 C   0  0  0  0  0  0  0  0  0  0  0  0
  -20.7879  -13.2842   19.2715 C   0  0  0  0  0  0  0  0  0  0  0  0
  -20.8280  -22.1810   27.3964 C   0  0  0  0  0  0  0  0  0  0  0  0
  -23.0485  -12.6343   20.8801 C   0  0  0  0  0  0  0  0  0  0  0  0
  -24.2755  -12.4083   21.7566 C   0  0  0  0  0  0  0  0  0  0  0  0
  -24.9786  -24.1408   25.4556 C   0  0  1  0  0  0  0  0  0  0  0  0
  -23.1182  -22.5207   28.3338 C   0  0  2  0  0  0  0  0  0  0  0  0
  -20.4494  -19.9439   19.2896 C   0  0  0  0  0  0  0  0  0  1  0  0
  -26.4793  -24.5233   25.5940 C   0  0  0  0  0  0  0  0  0  0  0  0
  -29.1380  -16.9098   20.4412 N   0  0  0  0  0  0  0  0  0  0  0  0
  -29.5708  -15.8934   21.2066 N   0  0  0  0  0  0  0  0  0  0  0  0
  -23.5097  -24.9154   23.6210 N   0  0  0  0  0  0  0  0  0  0  0  0
  -27.4205  -13.0323   19.8652 N   0  0  0  0  0  0  0  0  0  0  0  0
  -30.8695  -15.3919   23.1230 N   0  0  0  0  0  0  0  0  0  0  0  0
  -31.1384  -19.8906   22.8301 N   0  0  0  0  0  0  0  0  0  0  0  0
  -23.7869  -27.7838   21.5172 N   0  0  0  0  0  0  0  0  0  0  0  0
  -24.3236  -23.8245   26.7203 N   0  0  0  0  0  0  0  0  0  0  0  0
  -25.4637  -13.0097   21.1933 N   0  0  0  0  0  0  0  0  0  0  0  0
  -21.5688  -14.3622   19.8835 N   0  0  0  0  0  0  0  0  0  0  0  0
  -21.8854  -21.6835   28.3138 N   0  3  0  0  0  0  0  0  0  0  0  0
  -31.8144  -18.0593   24.0334 O   0  0  0  0  0  0  0  0  0  0  0  0
  -24.6414  -25.6253   21.3347 O   0  0  0  0  0  0  0  0  0  0  0  0
  -24.0969  -26.3412   25.3699 O   0  0  0  0  0  0  0  0  0  0  0  0
  -23.3776  -14.9884   21.2182 O   0  0  0  0  0  0  0  0  0  0  0  0
  -23.6687  -21.6777   26.1375 O   0  0  0  0  0  0  0  0  0  0  0  0
  -26.0688  -11.1523   19.9929 O   0  0  0  0  0  0  0  0  0  0  0  0
  -28.7365  -23.0878   18.9514 O   0  0  0  0  0  0  0  0  0  0  0  0
  -21.6937  -20.4845   19.7323 O   0  0  0  0  0  0  0  0  0  1  0  0
  -33.0372  -26.5136   18.5369 F   0  0  0  0  0  0  0  0  0  0  0  0
  -29.5097  -24.1032   16.4991 F   0  0  0  0  0  0  0  0  0  0  0  0
  1  2  1  0  0  0  0
  1  5  2  0  0  0  0
  2  6  2  0  0  0  0
  3  8  2  0  0  0  0
  3 15  1  0  0  0  0
  4  9  1  0  0  0  0
  4 15  2  0  0  0  0
  5 17  1  0  0  0  0
  6 19  1  0  0  0  0
  7 10  2  0  0  0  0
  7 18  1  0  0  0  0
  8 21  1  0  0  0  0
  9 21  2  0  0  0  0
 10 22  1  0  0  0  0
 11 12  2  0  0  0  0
 11 23  1  0  0  0  0
 12 24  1  0  0  0  0
 13 20  1  0  0  0  0
 13 22  2  0  0  0  0
 14 24  2  0  0  0  0
 14 25  1  0  0  0  0
 15 26  1  0  0  0  0
 16 26  1  0  0  0  0
 16 27  2  0  0  0  0
 16 28  1  0  0  0  0
 17 19  2  0  0  0  0
 17 34  1  0  0  0  0
 18 20  2  0  0  0  0
 18 35  1  0  0  0  0
 19 47  1  0  0  0  0
 20 36  1  0  0  0  0
 21 83  1  0  0  0  0
 22 84  1  0  0  0  0
 23 25  2  0  0  0  0
 23 83  1  0  0  0  0
 24 85  1  0  0  0  0
 25 86  1  0  0  0  0
 26 66  2  0  0  0  0
 27 67  1  0  0  0  0
 27 70  1  0  0  0  0
 28 71  1  0  0  0  0
 28 77  2  0  0  0  0
 29 48  1  0  0  0  0
 29 72  1  0  0  0  0
 29 78  2  0  0  0  0
 30 62  1  0  0  0  0
 30 68  1  0  0  0  0
 30 79  2  0  0  0  0
 31 60  1  0  0  0  0
 31 75  1  0  0  0  0
 31 80  2  0  0  0  0
 32 63  1  0  0  0  0
 32 73  1  0  0  0  0
 32 81  2  0  0  0  0
 33 69  1  0  0  0  0
 33 74  1  0  0  0  0
 33 82  2  0  0  0  0
 34 37  1  0  0  0  0
 35 48  1  0  0  0  0
 36 68  1  0  0  0  0
 37 39  1  0  0  0  0
 38 42  1  0  0  0  0
 38 45  1  0  0  0  0
 39 47  1  0  0  0  0
 40 43  1  0  0  0  0
 40 49  1  0  0  0  0
 41 44  1  0  0  0  0
 41 49  1  0  0  0  0
 42 50  1  0  0  0  0
 43 51  1  0  0  0  0
 44 51  1  0  0  0  0
 45 69  1  0  0  0  0
 46 50  1  0  0  0  0
 46 69  1  0  0  0  0
 47 72  1  0  0  0  0
 48 68  1  0  0  0  0
 49 64  1  0  0  0  0
 50 67  1  0  0  0  0
 51 75  1  0  0  0  0
 52 63  1  0  0  0  0
 53 64  1  0  0  0  0
 54 64  1  0  0  0  0
 55 65  1  0  0  0  0
 56 65  1  0  0  0  0
 57 65  1  0  0  0  0
 58 75  1  0  0  0  0
 59 76  1  0  0  0  0
 60 61  1  0  0  0  0
 61 74  1  0  0  0  0
 62 65  1  0  0  0  0
 62 73  1  0  0  0  0
 63 76  1  0  0  0  0
 64 84  1  0  0  0  0
 66 67  1  0  0  0  0
M  CHG  1  76   1
M  ISO  4  33 100  64 101  74 100  84 101
M  END
> <Batch ID>
0022

> <Smiles>
CNC(C)C(=O)NC(C(=O)N1Cc2cc([101O:1][101C:1](C)(C)C3CCC(N(C)C(=O)CC[100NH:0][100C:0](=O)N4CCCC(n5nc(-c6ccc(Oc7ccc(F)cc7F)cc6)c(C(N)=O)c5N)C4)CC3)ccc2CC1C(=O)NC1CCCc2ccccc21)C(C)(C)C

> <Shape>
0.214

> <Color>
0.061

> <Negative vol penalty>
0.000

$$$$

  -OEChem-04052316153D

 85 93  0     1  0  0  0  0  0999 V2000
  -34.8511  -31.2670   12.7239 C   0  0  0  0  0  0  0  0  0  0  0  0
  -34.8480  -30.0727   13.4373 C   0  0  0  0  0  0  0  0  0  0  0  0
  -23.0034   -9.8941   19.9769 C   0  0  0  0  0  0  0  0  0  0  0  0
  -23.7339   -9.9362   22.2794 C   0  0  0  0  0  0  0  0  0  0  0  0
  -34.0349  -32.3221   13.1296 C   0  0  0  0  0  0  0  0  0  0  0  0
  -34.0295  -29.9331   14.5576 C   0  0  0  0  0  0  0  0  0  0  0  0
  -31.1796  -24.8438   16.4238 C   0  0  0  0  0  0  0  0  0  0  0  0
  -22.2392   -8.7573   20.2401 C   0  0  0  0  0  0  0  0  0  0  0  0
  -22.9697   -8.7994   22.5427 C   0  0  0  0  0  0  0  0  0  0  0  0
  -31.4970  -23.8925   17.3923 C   0  0  0  0  0  0  0  0  0  0  0  0
  -23.2178   -5.4629   22.0557 C   0  0  0  0  0  0  0  0  0  0  0  0
  -23.8086   -4.4433   22.8020 C   0  0  0  0  0  0  0  0  0  0  0  0
  -30.0885  -25.0441   18.9763 C   0  0  0  0  0  0  0  0  0  0  0  0
  -22.0883   -4.6764   24.4823 C   0  0  0  0  0  0  0  0  0  0  0  0
  -31.8567  -17.4530   21.6682 C   0  0  0  0  0  0  0  0  0  0  0  0
  -23.7508  -10.4835   20.9965 C   0  0  0  0  0  0  0  0  0  0  0  0
  -24.1320  -13.0004   20.8305 C   0  0  0  0  0  0  0  0  0  0  0  0
  -33.1988  -32.1920   14.2497 C   0  0  0  0  0  0  0  0  0  0  0  0
  -30.3214  -25.9103   16.7280 C   0  0  0  0  0  0  0  0  0  0  0  0
  -33.2024  -30.9879   14.9794 C   0  0  0  0  0  0  0  0  0  0  0  0
  -29.7597  -26.0062   18.0092 C   0  0  0  0  0  0  0  0  0  0  0  0
  -30.5918  -16.8895   21.9216 C   0  0  0  0  0  0  0  0  0  0  0  0
  -22.2223   -8.2100   21.5230 C   0  0  0  0  0  0  0  0  0  0  0  0
  -30.9537  -23.9942   18.6697 C   0  0  0  0  0  0  0  0  0  0  0  0
  -22.0623   -6.0893   22.5227 C   0  0  0  0  0  0  0  0  0  0  0  0
  -23.2439   -4.0500   24.0153 C   0  0  0  0  0  0  0  0  0  0  0  0
  -21.4975   -5.6960   23.7360 C   0  0  0  0  0  0  0  0  0  0  0  0
  -24.5409  -11.6575   20.7251 C   0  0  0  0  0  0  0  0  0  0  0  0
  -29.9503  -17.8217   22.7000 C   0  0  0  0  0  0  0  0  0  0  0  0
  -25.2399  -13.7262   20.4667 C   0  0  0  0  0  0  0  0  0  0  0  0
  -22.8642  -13.5432   21.2224 C   0  0  0  0  0  0  0  0  0  0  0  0
  -30.6112  -29.0751   16.7905 C   0  0  0  0  0  0  0  0  0  0  0  0
  -27.4220  -28.9657   17.3729 C   0  0  0  0  0  0  0  0  0  0  0  0
  -24.7491  -27.1936   18.5400 C   0  0  0  0  0  0  0  0  0  0  0  0
  -30.7184  -14.6945   20.6918 C   0  0  0  0  0  0  0  0  0  0  0  0
  -32.3693  -33.3766   14.6778 C   0  0  0  0  0  0  0  0  0  0  0  0
  -29.9678  -26.9133   15.6642 C   0  0  0  0  0  0  0  0  0  0  0  0
  -28.8171  -27.1207   18.3804 C   0  0  0  0  0  0  0  0  0  0  0  0
  -31.2529  -33.0172   15.6549 C   0  0  0  0  0  0  0  0  0  0  0  0
  -29.5983  -12.2499   18.3581 C   0  0  0  0  0  0  0  0  0  0  0  0
  -31.7828  -32.1097   16.7605 C   0  0  0  0  0  0  0  0  0  0  0  0
  -28.1491  -11.9883   18.7745 C   0  0  0  0  0  0  0  0  0  0  0  0
  -30.5013  -12.4895   19.5668 C   0  0  0  0  0  0  0  0  0  0  0  0
  -28.5879  -13.2698   20.9081 C   0  0  0  0  0  0  0  0  0  0  0  0
  -32.3099  -30.7895   16.1854 C   0  0  1  0  0  0  0  0  0  0  0  0
  -29.4892  -28.2450   16.2341 C   0  0  1  0  0  0  0  0  0  0  0  0
  -27.6278  -13.0870   19.7214 C   0  0  2  0  0  0  0  0  0  0  0  0
  -28.6010  -17.8328   23.2978 C   0  0  0  0  0  0  0  0  0  0  0  0
  -22.2764  -27.3824   18.9239 C   0  0  0  0  0  0  0  0  0  0  0  0
  -27.9384  -30.6974   19.8315 C   0  0  0  0  0  0  0  0  0  0  0  0
  -25.6649  -30.0652   20.6682 C   0  0  0  0  0  0  0  0  0  0  0  0
  -25.8988  -31.3214   18.5257 C   0  0  0  0  0  0  0  0  0  0  0  0
  -28.5441  -20.8047   22.1712 C   0  0  0  0  0  0  0  0  0  0  0  0
  -29.5760  -22.5577   23.5971 C   0  0  0  0  0  0  0  0  0  0  0  0
  -31.9683  -20.6786   24.2312 C   0  0  0  0  0  0  0  0  0  0  0  0
  -29.7864  -19.8374   24.9452 C   0  0  0  0  0  0  0  0  0  0  0  0
  -24.1739  -24.9549   16.6918 C   0  0  0  0  0  0  0  0  0  0  0  0
  -30.8142  -21.7209   21.5511 C   0  0  0  0  0  0  0  0  0  0  0  0
  -30.2730  -22.7991   20.6099 C   0  0  0  0  0  0  0  0  0  1  0  0
  -26.5638  -28.8837   18.6122 C   0  0  1  0  0  0  0  0  0  0  0  0
  -23.3685  -26.9522   17.9570 C   0  0  2  0  0  0  0  0  0  0  0  0
  -26.5357  -30.2219   19.4033 C   0  0  0  0  0  0  0  0  0  0  0  0
  -29.8954  -21.2982   22.7501 C   0  0  0  0  0  0  0  0  0  0  0  0
  -30.6108  -20.1607   23.6591 C   0  0  0  0  0  0  0  0  0  0  0  0
  -32.0114  -18.6506   22.2391 N   0  0  0  0  0  0  0  0  0  0  0  0
  -25.8094  -11.5345   20.3254 N   0  0  0  0  0  0  0  0  0  0  0  0
  -30.8353  -18.8472   22.8590 N   0  0  0  0  0  0  0  0  0  0  0  0
  -26.2072  -12.8096   20.1764 N   0  0  0  0  0  0  0  0  0  0  0  0
  -28.5070  -28.0801   17.3076 N   0  0  0  0  0  0  0  0  0  0  0  0
  -29.9467  -13.5460   20.4159 N   0  0  0  0  0  0  0  0  0  0  0  0
  -25.4711  -15.0527   20.3698 N   0  0  0  0  0  0  0  0  0  0  0  0
  -21.8345  -12.6561   21.5645 N   0  0  0  0  0  0  0  0  0  0  0  0
  -30.0745  -15.6454   21.4829 N   0  0  0  0  0  0  0  0  0  0  0  0
  -31.2113  -29.9045   15.8624 N   0  0  0  0  0  0  0  0  0  0  0  0
  -25.2518  -28.4232   18.1703 N   0  0  0  0  0  0  0  0  0  0  0  0
  -23.1814  -25.5059   17.6501 N   0  3  0  0  0  0  0  0  0  0  0  0
  -22.6457  -14.7781   21.2520 O   0  0  0  0  0  0  0  0  0  0  0  0
  -30.9095  -28.9718   17.9746 O   0  0  0  0  0  0  0  0  0  0  0  0
  -27.1359  -29.7804   16.4920 O   0  0  0  0  0  0  0  0  0  0  0  0
  -25.3226  -26.3750   19.2552 O   0  0  0  0  0  0  0  0  0  0  0  0
  -31.8558  -14.8371   20.2357 O   0  0  0  0  0  0  0  0  0  0  0  0
  -21.4765   -7.1009   21.7803 O   0  0  0  0  0  0  0  0  0  0  0  0
  -31.2623  -23.0674   19.6171 O   0  0  0  0  0  0  0  0  0  1  0  0
  -23.8105   -3.0699   24.7311 F   0  0  0  0  0  0  0  0  0  0  0  0
  -20.3868   -6.2933   24.1892 F   0  0  0  0  0  0  0  0  0  0  0  0
  1  2  1  0  0  0  0
  1  5  2  0  0  0  0
  2  6  2  0  0  0  0
  3  8  2  0  0  0  0
  3 16  1  0  0  0  0
  4  9  1  0  0  0  0
  4 16  2  0  0  0  0
  5 18  1  0  0  0  0
  6 20  1  0  0  0  0
  7 10  2  0  0  0  0
  7 19  1  0  0  0  0
  8 23  1  0  0  0  0
  9 23  2  0  0  0  0
 10 24  1  0  0  0  0
 11 12  2  0  0  0  0
 11 25  1  0  0  0  0
 12 26  1  0  0  0  0
 13 21  1  0  0  0  0
 13 24  2  0  0  0  0
 14 26  2  0  0  0  0
 14 27  1  0  0  0  0
 15 22  1  0  0  0  0
 15 65  2  0  0  0  0
 16 28  1  0  0  0  0
 17 28  1  0  0  0  0
 17 30  2  0  0  0  0
 17 31  1  0  0  0  0
 18 20  2  0  0  0  0
 18 36  1  0  0  0  0
 19 21  2  0  0  0  0
 19 37  1  0  0  0  0
 20 45  1  0  0  0  0
 21 38  1  0  0  0  0
 22 29  2  0  0  0  0
 22 73  1  0  0  0  0
 23 82  1  0  0  0  0
 24 83  1  0  0  0  0
 25 27  2  0  0  0  0
 25 82  1  0  0  0  0
 26 84  1  0  0  0  0
 27 85  1  0  0  0  0
 28 66  2  0  0  0  0
 29 48  1  0  0  0  0
 29 67  1  0  0  0  0
 30 68  1  0  0  0  0
 30 71  1  0  0  0  0
 31 72  1  0  0  0  0
 31 77  2  0  0  0  0
 32 46  1  0  0  0  0
 32 74  1  0  0  0  0
 32 78  2  0  0  0  0
 33 60  1  0  0  0  0
 33 69  1  0  0  0  0
 33 79  2  0  0  0  0
 34 61  1  0  0  0  0
 34 75  1  0  0  0  0
 34 80  2  0  0  0  0
 35 70  1  0  0  0  0
 35 73  1  0  0  0  0
 35 81  2  0  0  0  0
 36 39  1  0  0  0  0
 37 46  1  0  0  0  0
 38 69  1  0  0  0  0
 39 41  1  0  0  0  0
 40 42  1  0  0  0  0
 40 43  1  0  0  0  0
 41 45  1  0  0  0  0
 42 47  1  0  0  0  0
 43 70  1  0  0  0  0
 44 47  1  0  0  0  0
 44 70  1  0  0  0  0
 45 74  1  0  0  0  0
 46 69  1  0  0  0  0
 47 68  1  0  0  0  0
 49 61  1  0  0  0  0
 50 62  1  0  0  0  0
 51 62  1  0  0  0  0
 52 62  1  0  0  0  0
 53 63  1  0  0  0  0
 54 63  1  0  0  0  0
 55 64  1  0  0  0  0
 56 64  1  0  0  0  0
 57 76  1  0  0  0  0
 58 59  1  0  0  0  0
 58 63  1  0  0  0  0
 59 83  1  0  0  0  0
 60 62  1  0  0  0  0
 60 75  1  0  0  0  0
 61 76  1  0  0  0  0
 63 64  1  0  0  0  0
 64 67  1  0  0  0  0
 65 67  1  0  0  0  0
 66 68  1  0  0  0  0
M  CHG  1  76   1
M  ISO  4  35 100  59 101  73 100  83 101
M  END
> <Batch ID>
0022

> <Smiles>
CNC(C)C(=O)NC(C(=O)N1Cc2cc([101O:1][101CH2:1]CC(C)(C)C(C)(C)n3ncc([100NH:0][100C:0](=O)N4CCCC(n5nc(-c6ccc(Oc7ccc(F)cc7F)cc6)c(C(N)=O)c5N)C4)c3C)ccc2CC1C(=O)NC1CCCc2ccccc21)C(C)(C)C

> <Shape>
0.257

> <Color>
0.194

> <Negative vol penalty>
0.000

$$$$

  -OEChem-04052316153D

 88 96  0     1  0  0  0  0  0999 V2000
  -16.5658  -29.5385   23.8347 C   0  0  0  0  0  0  0  0  0  0  0  0
  -17.6110  -30.1963   24.4753 C   0  0  0  0  0  0  0  0  0  0  0  0
  -22.7995  -13.5368   22.2848 C   0  0  0  0  0  0  0  0  0  0  0  0
  -23.6421  -14.2985   20.1525 C   0  0  0  0  0  0  0  0  0  0  0  0
  -16.8377  -28.4940   22.9521 C   0  0  0  0  0  0  0  0  0  0  0  0
  -18.9288  -29.8092   24.2343 C   0  0  0  0  0  0  0  0  0  0  0  0
  -25.5496  -32.5092   23.7977 C   0  0  0  0  0  0  0  0  0  0  0  0
  -24.8030  -25.2756   24.0572 C   0  0  0  0  0  0  0  0  0  0  0  0
  -25.1221  -25.6344   25.3668 C   0  0  0  0  0  0  0  0  0  0  0  0
  -22.4664  -12.3082   21.7144 C   0  0  0  0  0  0  0  0  0  0  0  0
  -23.3090  -13.0699   19.5820 C   0  0  0  0  0  0  0  0  0  0  0  0
  -26.8311  -32.3069   24.3081 C   0  0  0  0  0  0  0  0  0  0  0  0
  -24.0600   -9.4633   20.8201 C   0  0  0  0  0  0  0  0  0  0  0  0
  -24.3940   -8.3084   21.5273 C   0  0  0  0  0  0  0  0  0  0  0  0
  -27.1853  -30.5415   22.7028 C   0  0  0  0  0  0  0  0  0  0  0  0
  -22.0612   -7.6855   21.6120 C   0  0  0  0  0  0  0  0  0  0  0  0
  -23.3872  -14.5319   21.5039 C   0  0  0  0  0  0  0  0  0  0  0  0
  -24.9508  -16.1542   22.7002 C   0  0  0  0  0  0  0  0  0  0  0  0
  -18.1600  -28.1003   22.6928 C   0  0  0  0  0  0  0  0  0  0  0  0
  -25.0715  -31.7205   22.7414 C   0  0  0  0  0  0  0  0  0  0  0  0
  -19.2186  -28.7576   23.3484 C   0  0  0  0  0  0  0  0  0  0  0  0
  -25.8983  -30.7375   22.1791 C   0  0  0  0  0  0  0  0  0  0  0  0
  -25.5093  -24.2541   23.4221 C   0  0  0  0  0  0  0  0  0  0  0  0
  -26.1476  -24.9718   26.0413 C   0  0  0  0  0  0  0  0  0  0  0  0
  -22.7212  -12.0748   20.3630 C   0  0  0  0  0  0  0  0  0  0  0  0
  -27.6481  -31.3210   23.7626 C   0  0  0  0  0  0  0  0  0  0  0  0
  -22.7265   -9.7294   20.5089 C   0  0  0  0  0  0  0  0  0  0  0  0
  -23.3947   -7.4195   21.9233 C   0  0  0  0  0  0  0  0  0  0  0  0
  -21.7272   -8.8405   20.9049 C   0  0  0  0  0  0  0  0  0  0  0  0
  -26.5348  -23.5915   24.0966 C   0  0  0  0  0  0  0  0  0  0  0  0
  -26.8540  -23.9503   25.4062 C   0  0  0  0  0  0  0  0  0  0  0  0
  -23.7310  -15.8014   22.0924 C   0  0  0  0  0  0  0  0  0  0  0  0
  -24.7734  -17.4578   23.0949 C   0  0  0  0  0  0  0  0  0  0  0  0
  -26.1381  -15.3734   22.8910 C   0  0  0  0  0  0  0  0  0  0  0  0
  -22.6633  -29.6778   22.3788 C   0  0  0  0  0  0  0  0  0  0  0  0
  -23.6302  -29.6916   19.2825 C   0  0  0  0  0  0  0  0  0  0  0  0
  -26.1440  -30.2161   17.0346 C   0  0  0  0  0  0  0  0  0  0  0  0
  -22.9906  -22.6488   22.0847 C   0  0  0  0  0  0  0  0  0  0  0  0
  -18.4020  -26.9346   21.7669 C   0  0  0  0  0  0  0  0  0  0  0  0
  -23.6966  -31.9692   22.1844 C   0  0  0  0  0  0  0  0  0  0  0  0
  -25.4398  -29.8776   21.0307 C   0  0  0  0  0  0  0  0  0  0  0  0
  -19.8453  -26.8328   21.2802 C   0  0  0  0  0  0  0  0  0  0  0  0
  -20.5945  -20.3020   23.2797 C   0  0  0  0  0  0  0  0  0  0  0  0
  -20.8149  -27.0018   22.4456 C   0  0  0  0  0  0  0  0  0  0  0  0
  -21.2950  -18.9513   23.1217 C   0  0  0  0  0  0  0  0  0  0  0  0
  -20.9431  -21.2554   22.1390 C   0  0  0  0  0  0  0  0  0  0  0  0
  -23.0881  -20.1030   21.7589 C   0  0  0  0  0  0  0  0  0  0  0  0
  -20.6626  -28.3831   23.0941 C   0  0  1  0  0  0  0  0  0  0  0  0
  -23.1235  -30.7630   21.4469 C   0  0  1  0  0  0  0  0  0  0  0  0
  -22.8115  -19.1269   22.9152 C   0  0  2  0  0  0  0  0  0  0  0  0
  -25.2525  -25.1348   28.3784 C   0  0  0  0  0  0  0  0  0  0  0  0
  -26.6434  -30.1100   14.5777 C   0  0  0  0  0  0  0  0  0  0  0  0
  -23.7846  -26.6488   19.4478 C   0  0  0  0  0  0  0  0  0  0  0  0
  -25.1603  -26.6745   17.3561 C   0  0  0  0  0  0  0  0  0  0  0  0
  -22.8174  -27.5300   17.3165 C   0  0  0  0  0  0  0  0  0  0  0  0
  -26.7689  -33.1066   16.9187 C   0  0  0  0  0  0  0  0  0  0  0  0
  -25.1288  -23.9068   22.0182 C   0  0  0  0  0  0  0  0  0  0  0  0
  -28.5470  -28.6611   26.8820 C   0  0  0  0  0  0  0  0  0  0  0  0
  -29.8189  -29.0230   26.1088 C   0  0  0  0  0  0  0  0  0  0  0  0
  -28.1563  -27.1862   26.7560 C   0  0  0  0  0  0  0  0  0  0  0  0
  -30.1911  -30.5060   26.2094 C   0  0  0  0  0  0  0  0  0  0  0  0
  -26.8956  -26.8760   27.5741 C   0  0  0  0  0  0  0  0  0  0  0  0
  -29.1031  -31.4108   25.6417 C   0  0  0  0  0  0  0  0  0  1  0  0
  -26.4560  -25.4001   27.4657 C   0  0  2  0  0  0  0  0  0  0  0  0
  -24.6135  -28.8882   18.4660 C   0  0  1  0  0  0  0  0  0  0  0  0
  -26.1827  -30.9900   15.7292 C   0  0  2  0  0  0  0  0  0  0  0  0
  -24.1022  -27.4501   18.1695 C   0  0  0  0  0  0  0  0  0  0  0  0
  -22.8441  -16.8001   22.0982 N   0  0  0  0  0  0  0  0  0  0  0  0
  -23.5073  -17.7933   22.7146 N   0  0  0  0  0  0  0  0  0  0  0  0
  -24.0851  -30.1548   20.5252 N   0  0  0  0  0  0  0  0  0  0  0  0
  -22.3958  -21.3792   21.9972 N   0  0  0  0  0  0  0  0  0  0  0  0
  -25.5784  -18.3382   23.7267 N   0  0  0  0  0  0  0  0  0  0  0  0
  -26.1507  -14.0518   22.4247 N   0  0  0  0  0  0  0  0  0  0  0  0
  -21.3139  -29.3940   22.2889 N   0  0  0  0  0  0  0  0  0  0  0  0
  -24.8965  -29.6795   17.2734 N   0  0  0  0  0  0  0  0  0  0  0  0
  -24.3728  -22.6764   21.9456 N   0  0  0  0  0  0  0  0  0  0  0  0
  -27.1165  -32.1462   15.8399 N   0  3  0  0  0  0  0  0  0  0  0  0
  -27.1518  -15.8289   23.4728 O   0  0  0  0  0  0  0  0  0  0  0  0
  -23.4727  -29.1371   23.1231 O   0  0  0  0  0  0  0  0  0  0  0  0
  -22.5026  -29.9065   18.8311 O   0  0  0  0  0  0  0  0  0  0  0  0
  -27.1235  -30.0963   17.7672 O   0  0  0  0  0  0  0  0  0  0  0  0
  -22.3386  -23.6805   22.2781 O   0  0  0  0  0  0  0  0  0  0  0  0
  -22.3966  -10.8761   19.8061 O   0  0  0  0  0  0  0  0  0  0  0  0
  -28.8992  -31.1210   24.2594 O   0  0  0  0  0  0  0  0  0  1  0  0
  -23.7158   -6.3096   22.6010 F   0  0  0  0  0  0  0  0  0  0  0  0
  -20.4445   -9.0902   20.6078 F   0  0  0  0  0  0  0  0  0  0  0  0
  -27.3941  -22.3249   23.2776 Cl  0  0  0  0  0  0  0  0  0  0  0  0
  -28.1242  -23.1459   26.2737 Cl  0  0  0  0  0  0  0  0  0  0  0  0
  1  2  1  0  0  0  0
  1  5  2  0  0  0  0
  2  6  2  0  0  0  0
  3 10  2  0  0  0  0
  3 17  1  0  0  0  0
  4 11  1  0  0  0  0
  4 17  2  0  0  0  0
  5 19  1  0  0  0  0
  6 21  1  0  0  0  0
  7 12  2  0  0  0  0
  7 20  1  0  0  0  0
  8  9  2  0  0  0  0
  8 23  1  0  0  0  0
  9 24  1  0  0  0  0
 10 25  1  0  0  0  0
 11 25  2  0  0  0  0
 12 26  1  0  0  0  0
 13 14  2  0  0  0  0
 13 27  1  0  0  0  0
 14 28  1  0  0  0  0
 15 22  1  0  0  0  0
 15 26  2  0  0  0  0
 16 28  2  0  0  0  0
 16 29  1  0  0  0  0
 17 32  1  0  0  0  0
 18 32  1  0  0  0  0
 18 33  2  0  0  0  0
 18 34  1  0  0  0  0
 19 21  2  0  0  0  0
 19 39  1  0  0  0  0
 20 22  2  0  0  0  0
 20 40  1  0  0  0  0
 21 48  1  0  0  0  0
 22 41  1  0  0  0  0
 23 30  2  0  0  0  0
 23 57  1  0  0  0  0
 24 31  2  0  0  0  0
 24 64  1  0  0  0  0
 25 83  1  0  0  0  0
 26 84  1  0  0  0  0
 27 29  2  0  0  0  0
 27 83  1  0  0  0  0
 28 85  1  0  0  0  0
 29 86  1  0  0  0  0
 30 31  1  0  0  0  0
 30 87  1  0  0  0  0
 31 88  1  0  0  0  0
 32 68  2  0  0  0  0
 33 69  1  0  0  0  0
 33 72  1  0  0  0  0
 34 73  1  0  0  0  0
 34 78  2  0  0  0  0
 35 49  1  0  0  0  0
 35 74  1  0  0  0  0
 35 79  2  0  0  0  0
 36 65  1  0  0  0  0
 36 70  1  0  0  0  0
 36 80  2  0  0  0  0
 37 66  1  0  0  0  0
 37 75  1  0  0  0  0
 37 81  2  0  0  0  0
 38 71  1  0  0  0  0
 38 76  1  0  0  0  0
 38 82  2  0  0  0  0
 39 42  1  0  0  0  0
 40 49  1  0  0  0  0
 41 70  1  0  0  0  0
 42 44  1  0  0  0  0
 43 45  1  0  0  0  0
 43 46  1  0  0  0  0
 44 48  1  0  0  0  0
 45 50  1  0  0  0  0
 46 71  1  0  0  0  0
 47 50  1  0  0  0  0
 47 71  1  0  0  0  0
 48 74  1  0  0  0  0
 49 70  1  0  0  0  0
 50 69  1  0  0  0  0
 51 64  1  0  0  0  0
 52 66  1  0  0  0  0
 53 67  1  0  0  0  0
 54 67  1  0  0  0  0
 55 67  1  0  0  0  0
 56 77  1  0  0  0  0
 57 76  1  0  0  0  0
 58 59  1  0  0  0  0
 58 60  1  0  0  0  0
 59 61  1  0  0  0  0
 60 62  1  0  0  0  0
 61 63  1  0  0  0  0
 62 64  1  0  0  0  0
 63 84  1  0  0  0  0
 65 67  1  0  0  0  0
 65 75  1  0  0  0  0
 66 77  1  0  0  0  0
 68 69  1  0  0  0  0
M  CHG  1  77   1
M  ISO  4  38 100  63 101  76 100  84 101
M  END
> <Batch ID>
0022

> <Smiles>
CNC(C)C(=O)NC(C(=O)N1Cc2cc([101O:1][101CH2:1]CCCCCC(C)c3ccc(C[100NH:0][100C:0](=O)N4CCCC(n5nc(-c6ccc(Oc7ccc(F)cc7F)cc6)c(C(N)=O)c5N)C4)c(Cl)c3Cl)ccc2CC1C(=O)NC1CCCc2ccccc21)C(C)(C)C

> <Shape>
0.226

> <Color>
0.091

> <Negative vol penalty>
0.000

$$$$

  -OEChem-04052316153D

 86 94  0     1  0  0  0  0  0999 V2000
  -22.9106   -8.0927   20.5540 C   0  0  0  0  0  0  0  0  0  0  0  0
  -22.3684   -9.2500   20.0042 C   0  0  0  0  0  0  0  0  0  0  0  0
  -29.0765  -25.3002   18.6445 C   0  0  0  0  0  0  0  0  0  0  0  0
  -28.5634  -24.5583   20.8858 C   0  0  0  0  0  0  0  0  0  0  0  0
  -23.7225   -8.1735   21.6845 C   0  0  0  0  0  0  0  0  0  0  0  0
  -22.6371  -10.4887   20.5853 C   0  0  0  0  0  0  0  0  0  0  0  0
  -23.5687  -17.3793   18.8623 C   0  0  0  0  0  0  0  0  0  0  0  0
  -30.3126  -24.6578   18.7148 C   0  0  0  0  0  0  0  0  0  0  0  0
  -29.7995  -23.9158   20.9561 C   0  0  0  0  0  0  0  0  0  0  0  0
  -23.1014  -18.6476   19.2039 C   0  0  0  0  0  0  0  0  0  0  0  0
  -33.4529  -22.9098   18.1692 C   0  0  0  0  0  0  0  0  0  0  0  0
  -33.8542  -22.1533   17.0681 C   0  0  0  0  0  0  0  0  0  0  0  0
  -24.5821  -18.6738   21.1081 C   0  0  0  0  0  0  0  0  0  0  0  0
  -18.9594  -26.3174   23.7003 C   0  0  0  0  0  0  0  0  0  0  0  0
  -18.6769  -28.2293   21.6885 C   0  0  0  0  0  0  0  0  0  0  0  0
  -31.9046  -20.7492   17.3224 C   0  0  0  0  0  0  0  0  0  0  0  0
  -28.2019  -25.2505   19.7300 C   0  0  0  0  0  0  0  0  0  0  0  0
  -25.7094  -25.3718   19.2006 C   0  0  0  0  0  0  0  0  0  0  0  0
  -24.0092   -9.4149   22.2741 C   0  0  0  0  0  0  0  0  0  0  0  0
  -24.5400  -16.7430   19.6486 C   0  0  0  0  0  0  0  0  0  0  0  0
  -23.4526  -10.5861   21.7256 C   0  0  0  0  0  0  0  0  0  0  0  0
  -25.0620  -17.3985   20.7729 C   0  0  0  0  0  0  0  0  0  0  0  0
  -18.0772  -26.0927   22.6436 C   0  0  0  0  0  0  0  0  0  0  0  0
  -19.5591  -28.4541   22.7453 C   0  0  0  0  0  0  0  0  0  0  0  0
  -30.6741  -23.9656   19.8705 C   0  0  0  0  0  0  0  0  0  0  0  0
  -23.6059  -19.2939   20.3285 C   0  0  0  0  0  0  0  0  0  0  0  0
  -32.2775  -22.5859   18.8469 C   0  0  0  0  0  0  0  0  0  0  0  0
  -33.0800  -21.0730   16.6447 C   0  0  0  0  0  0  0  0  0  0  0  0
  -31.5034  -21.5057   18.4235 C   0  0  0  0  0  0  0  0  0  0  0  0
  -17.9359  -27.0486   21.6377 C   0  0  0  0  0  0  0  0  0  0  0  0
  -19.7004  -27.4981   23.7512 C   0  0  0  0  0  0  0  0  0  0  0  0
  -26.9251  -25.9144   19.6583 C   0  0  0  0  0  0  0  0  0  0  0  0
  -24.8045  -26.3965   19.3335 C   0  0  0  0  0  0  0  0  0  0  0  0
  -25.4236  -24.0590   18.7001 C   0  0  0  0  0  0  0  0  0  0  0  0
  -24.6401  -14.0658   21.3592 C   0  0  0  0  0  0  0  0  0  0  0  0
  -27.7681  -14.8572   21.6933 C   0  0  0  0  0  0  0  0  0  0  0  0
  -30.1579  -17.2935   21.6777 C   0  0  0  0  0  0  0  0  0  0  0  0
  -22.6084  -30.5987   22.2770 C   0  0  0  0  0  0  0  0  0  0  0  0
  -24.8537   -9.4475   23.5232 C   0  0  0  0  0  0  0  0  0  0  0  0
  -25.0531  -15.3860   19.2515 C   0  0  0  0  0  0  0  0  0  0  0  0
  -26.1205  -16.7671   21.6386 C   0  0  0  0  0  0  0  0  0  0  0  0
  -25.3944  -10.8355   23.8568 C   0  0  0  0  0  0  0  0  0  0  0  0
  -25.5111  -31.3032   20.3393 C   0  0  0  0  0  0  0  0  0  0  0  0
  -24.2890  -11.8805   23.7432 C   0  0  0  0  0  0  0  0  0  0  0  0
  -26.0405  -29.9198   19.9572 C   0  0  0  0  0  0  0  0  0  0  0  0
  -24.9207  -31.3124   21.7476 C   0  0  0  0  0  0  0  0  0  0  0  0
  -24.4193  -28.9033   21.6117 C   0  0  0  0  0  0  0  0  0  0  0  0
  -23.7411  -11.9507   22.3126 C   0  0  1  0  0  0  0  0  0  0  0  0
  -25.6710  -14.6169   20.4151 C   0  0  1  0  0  0  0  0  0  0  0  0
  -24.9739  -28.8304   20.1787 C   0  0  2  0  0  0  0  0  0  0  0  0
  -32.4537  -18.3037   21.7558 C   0  0  0  0  0  0  0  0  0  0  0  0
  -27.3794  -14.6095   24.7095 C   0  0  0  0  0  0  0  0  0  0  0  0
  -29.5255  -15.8612   25.0187 C   0  0  0  0  0  0  0  0  0  0  0  0
  -29.5267  -13.6560   23.8526 C   0  0  0  0  0  0  0  0  0  0  0  0
  -30.5074  -17.0126   18.7523 C   0  0  0  0  0  0  0  0  0  0  0  0
  -17.2954  -24.8033   22.6259 C   0  0  0  0  0  0  0  0  0  0  0  0
  -20.3345  -29.7320   22.7642 C   0  0  0  0  0  0  0  0  0  0  0  0
  -17.8624  -23.7482   21.6691 C   0  0  0  0  0  0  0  0  0  0  0  0
  -19.2962  -23.3324   22.0166 C   0  0  0  0  0  0  0  0  0  0  0  0
  -19.8080  -22.2576   21.0540 C   0  0  0  0  0  0  0  0  0  0  0  0
  -21.2602  -21.8555   21.3134 C   0  0  0  0  0  0  0  0  0  0  0  0
  -21.8050  -20.8470   20.3108 C   0  0  0  0  0  0  0  0  0  1  0  0
  -28.5638  -15.6779   22.6793 C   0  0  1  0  0  0  0  0  0  0  0  0
  -31.5187  -17.3654   21.0087 C   0  0  2  0  0  0  0  0  0  0  0  0
  -28.7275  -14.9625   24.0500 C   0  0  0  0  0  0  0  0  0  0  0  0
  -26.8067  -27.1851   20.0523 N   0  0  0  0  0  0  0  0  0  0  0  0
  -25.5059  -27.4496   19.8426 N   0  0  0  0  0  0  0  0  0  0  0  0
  -26.5854  -15.4367   21.2125 N   0  0  0  0  0  0  0  0  0  0  0  0
  -23.9150  -30.2569   21.8911 N   0  0  0  0  0  0  0  0  0  0  0  0
  -23.4851  -26.4904   19.0634 N   0  0  0  0  0  0  0  0  0  0  0  0
  -26.4692  -23.1282   18.6306 N   0  0  0  0  0  0  0  0  0  0  0  0
  -24.6486  -12.6877   21.4595 N   0  0  0  0  0  0  0  0  0  0  0  0
  -29.8243  -15.9999   22.0191 N   0  0  0  0  0  0  0  0  0  0  0  0
  -21.7160  -29.5390   22.3833 N   0  0  0  0  0  0  0  0  0  0  0  0
  -31.3820  -17.8552   19.6079 N   0  3  0  0  0  0  0  0  0  0  0  0
  -24.2787  -23.7263   18.3103 O   0  0  0  0  0  0  0  0  0  0  0  0
  -23.8933  -14.8342   21.9538 O   0  0  0  0  0  0  0  0  0  0  0  0
  -28.1844  -13.7460   21.3564 O   0  0  0  0  0  0  0  0  0  0  0  0
  -29.4621  -18.2861   21.8807 O   0  0  0  0  0  0  0  0  0  0  0  0
  -22.2613  -31.7627   22.5044 O   0  0  0  0  0  0  0  0  0  0  0  0
  -31.8801  -23.3384   19.9394 O   0  0  0  0  0  0  0  0  0  0  0  0
  -23.1510  -20.5316   20.6646 O   0  0  0  0  0  0  0  0  0  1  0  0
  -33.4646  -20.3476   15.5864 F   0  0  0  0  0  0  0  0  0  0  0  0
  -30.3726  -21.1904   19.0699 F   0  0  0  0  0  0  0  0  0  0  0  0
  -16.8550  -26.8039   20.3145 Cl  0  0  0  0  0  0  0  0  0  0  0  0
  -20.7822  -27.7419   25.0740 Cl  0  0  0  0  0  0  0  0  0  0  0  0
  1  2  1  0  0  0  0
  1  5  2  0  0  0  0
  2  6  2  0  0  0  0
  3  8  2  0  0  0  0
  3 17  1  0  0  0  0
  4  9  1  0  0  0  0
  4 17  2  0  0  0  0
  5 19  1  0  0  0  0
  6 21  1  0  0  0  0
  7 10  2  0  0  0  0
  7 20  1  0  0  0  0
  8 25  1  0  0  0  0
  9 25  2  0  0  0  0
 10 26  1  0  0  0  0
 11 12  2  0  0  0  0
 11 27  1  0  0  0  0
 12 28  1  0  0  0  0
 13 22  1  0  0  0  0
 13 26  2  0  0  0  0
 14 23  1  0  0  0  0
 14 31  2  0  0  0  0
 15 24  2  0  0  0  0
 15 30  1  0  0  0  0
 16 28  2  0  0  0  0
 16 29  1  0  0  0  0
 17 32  1  0  0  0  0
 18 32  1  0  0  0  0
 18 33  2  0  0  0  0
 18 34  1  0  0  0  0
 19 21  2  0  0  0  0
 19 39  1  0  0  0  0
 20 22  2  0  0  0  0
 20 40  1  0  0  0  0
 21 48  1  0  0  0  0
 22 41  1  0  0  0  0
 23 30  2  0  0  0  0
 23 56  1  0  0  0  0
 24 31  1  0  0  0  0
 24 57  1  0  0  0  0
 25 81  1  0  0  0  0
 26 82  1  0  0  0  0
 27 29  2  0  0  0  0
 27 81  1  0  0  0  0
 28 83  1  0  0  0  0
 29 84  1  0  0  0  0
 30 85  1  0  0  0  0
 31 86  1  0  0  0  0
 32 66  2  0  0  0  0
 33 67  1  0  0  0  0
 33 70  1  0  0  0  0
 34 71  1  0  0  0  0
 34 76  2  0  0  0  0
 35 49  1  0  0  0  0
 35 72  1  0  0  0  0
 35 77  2  0  0  0  0
 36 63  1  0  0  0  0
 36 68  1  0  0  0  0
 36 78  2  0  0  0  0
 37 64  1  0  0  0  0
 37 73  1  0  0  0  0
 37 79  2  0  0  0  0
 38 69  1  0  0  0  0
 38 74  1  0  0  0  0
 38 80  2  0  0  0  0
 39 42  1  0  0  0  0
 40 49  1  0  0  0  0
 41 68  1  0  0  0  0
 42 44  1  0  0  0  0
 43 45  1  0  0  0  0
 43 46  1  0  0  0  0
 44 48  1  0  0  0  0
 45 50  1  0  0  0  0
 46 69  1  0  0  0  0
 47 50  1  0  0  0  0
 47 69  1  0  0  0  0
 48 72  1  0  0  0  0
 49 68  1  0  0  0  0
 50 67  1  0  0  0  0
 51 64  1  0  0  0  0
 52 65  1  0  0  0  0
 53 65  1  0  0  0  0
 54 65  1  0  0  0  0
 55 75  1  0  0  0  0
 56 58  1  0  0  0  0
 57 74  1  0  0  0  0
 58 59  1  0  0  0  0
 59 60  1  0  0  0  0
 60 61  1  0  0  0  0
 61 62  1  0  0  0  0
 62 82  1  0  0  0  0
 63 65  1  0  0  0  0
 63 73  1  0  0  0  0
 64 75  1  0  0  0  0
 66 67  1  0  0  0  0
M  CHG  1  75   1
M  ISO  4  38 100  62 101  74 100  82 101
M  END
> <Batch ID>
0022

> <Smiles>
CNC(C)C(=O)NC(C(=O)N1Cc2cc([101O:1][101CH2:1]CCCCCc3cc(Cl)c(C[100NH:0][100C:0](=O)N4CCCC(n5nc(-c6ccc(Oc7ccc(F)cc7F)cc6)c(C(N)=O)c5N)C4)cc3Cl)ccc2CC1C(=O)NC1CCCc2ccccc21)C(C)(C)C

> <Shape>
0.250

> <Color>
0.071

> <Negative vol penalty>
0.000

$$$$

  -OEChem-04052316153D

 86 94  0     1  0  0  0  0  0999 V2000
  -21.8732  -13.5267   23.0435 C   0  0  0  0  0  0  0  0  0  0  0  0
  -22.1259  -14.8755   23.2723 C   0  0  0  0  0  0  0  0  0  0  0  0
  -29.0311  -17.7005   19.3927 C   0  0  0  0  0  0  0  0  0  0  0  0
  -30.4627  -18.1272   21.2914 C   0  0  0  0  0  0  0  0  0  0  0  0
  -22.0936  -12.9821   21.7791 C   0  0  0  0  0  0  0  0  0  0  0  0
  -22.6001  -15.6802   22.2370 C   0  0  0  0  0  0  0  0  0  0  0  0
  -21.3004  -21.5871   21.2747 C   0  0  0  0  0  0  0  0  0  0  0  0
  -29.5566  -16.4129   19.2858 C   0  0  0  0  0  0  0  0  0  0  0  0
  -30.9882  -16.8396   21.1846 C   0  0  0  0  0  0  0  0  0  0  0  0
  -21.9898  -22.7605   21.5773 C   0  0  0  0  0  0  0  0  0  0  0  0
  -30.2615  -12.8891   18.7367 C   0  0  0  0  0  0  0  0  0  0  0  0
  -29.3668  -11.8383   18.5350 C   0  0  0  0  0  0  0  0  0  0  0  0
  -22.9103  -22.7877   19.3477 C   0  0  0  0  0  0  0  0  0  0  0  0
  -26.9651  -28.9254   21.9586 C   0  0  0  0  0  0  0  0  0  0  0  0
  -28.2677  -12.3740   20.6188 C   0  0  0  0  0  0  0  0  0  0  0  0
  -29.4842  -18.5577   20.3955 C   0  0  0  0  0  0  0  0  0  0  0  0
  -27.8231  -20.2903   21.2596 C   0  0  0  0  0  0  0  0  0  0  0  0
  -22.5616  -13.7827   20.7252 C   0  0  0  0  0  0  0  0  0  0  0  0
  -21.4196  -20.9982   20.0077 C   0  0  0  0  0  0  0  0  0  0  0  0
  -22.8282  -15.1455   20.9576 C   0  0  0  0  0  0  0  0  0  0  0  0
  -22.2194  -21.6081   19.0307 C   0  0  0  0  0  0  0  0  0  0  0  0
  -27.6574  -28.0041   22.7444 C   0  0  0  0  0  0  0  0  0  0  0  0
  -25.6009  -27.4175   23.8685 C   0  0  0  0  0  0  0  0  0  0  0  0
  -24.9086  -28.3389   23.0827 C   0  0  0  0  0  0  0  0  0  0  0  0
  -30.5351  -15.9824   20.1818 C   0  0  0  0  0  0  0  0  0  0  0  0
  -22.7971  -23.3595   20.6147 C   0  0  0  0  0  0  0  0  0  0  0  0
  -30.1594  -13.6824   19.8795 C   0  0  0  0  0  0  0  0  0  0  0  0
  -28.3699  -11.5807   19.4760 C   0  0  0  0  0  0  0  0  0  0  0  0
  -29.1625  -13.4249   20.8205 C   0  0  0  0  0  0  0  0  0  0  0  0
  -25.5907  -29.0929   22.1278 C   0  0  0  0  0  0  0  0  0  0  0  0
  -26.9753  -27.2501   23.6993 C   0  0  0  0  0  0  0  0  0  0  0  0
  -28.9421  -19.8882   20.5060 C   0  0  0  0  0  0  0  0  0  0  0  0
  -27.7235  -21.6412   21.0322 C   0  0  0  0  0  0  0  0  0  0  0  0
  -26.9517  -19.5124   22.0909 C   0  0  0  0  0  0  0  0  0  0  0  0
  -22.4949  -18.2110   18.9218 C   0  0  0  0  0  0  0  0  0  0  0  0
  -22.6960  -27.7752   22.5720 C   0  0  0  0  0  0  0  0  0  0  0  0
  -21.3558  -19.3165   16.0929 C   0  0  0  0  0  0  0  0  0  0  0  0
  -20.4918  -21.9977   14.1664 C   0  0  0  0  0  0  0  0  0  0  0  0
  -30.0699  -26.6823   20.5559 C   0  0  0  0  0  0  0  0  0  0  0  0
  -22.8297  -13.1387   19.3881 C   0  0  0  0  0  0  0  0  0  0  0  0
  -20.6485  -19.7468   19.6884 C   0  0  0  0  0  0  0  0  0  0  0  0
  -22.3650  -21.0269   17.6489 C   0  0  0  0  0  0  0  0  0  0  0  0
  -22.9770  -14.1423   18.2473 C   0  0  0  0  0  0  0  0  0  0  0  0
  -30.0798  -24.5965   17.6705 C   0  0  0  0  0  0  0  0  0  0  0  0
  -23.8968  -15.2873   18.6590 C   0  0  0  0  0  0  0  0  0  0  0  0
  -29.6987  -23.2183   18.2141 C   0  0  0  0  0  0  0  0  0  0  0  0
  -30.9579  -25.3677   18.6534 C   0  0  0  0  0  0  0  0  0  0  0  0
  -30.0214  -24.1144   20.5575 C   0  0  0  0  0  0  0  0  0  0  0  0
  -23.3196  -16.0564   19.8536 C   0  0  1  0  0  0  0  0  0  0  0  0
  -21.2486  -18.9540   18.5315 C   0  0  1  0  0  0  0  0  0  0  0  0
  -29.0897  -23.3210   19.6254 C   0  0  2  0  0  0  0  0  0  0  0  0
  -24.8522  -26.6165   24.8895 C   0  0  0  0  0  0  0  0  0  0  0  0
  -21.1887  -27.8554   22.6715 C   0  0  0  0  0  0  0  0  0  0  0  0
  -19.6290  -22.5879   11.8850 C   0  0  0  0  0  0  0  0  0  0  0  0
  -24.1141  -18.7663   14.9101 C   0  0  0  0  0  0  0  0  0  0  0  0
  -23.4942  -20.2194   12.9678 C   0  0  0  0  0  0  0  0  0  0  0  0
  -22.1995  -18.1376   13.4289 C   0  0  0  0  0  0  0  0  0  0  0  0
  -18.0647  -23.2686   15.2859 C   0  0  0  0  0  0  0  0  0  0  0  0
  -29.1298  -27.8588   22.5285 C   0  0  0  0  0  0  0  0  0  0  0  0
  -23.2824  -26.8146   21.5511 C   0  0  0  0  0  0  0  0  0  0  0  0
  -22.8764  -25.3828   21.8620 C   0  0  0  0  0  0  0  0  0  1  0  0
  -21.9239  -20.1328   14.9572 C   0  0  1  0  0  0  0  0  0  0  0  0
  -19.2585  -22.2796   13.3274 C   0  0  2  0  0  0  0  0  0  0  0  0
  -22.9319  -19.3242   14.0926 C   0  0  0  0  0  0  0  0  0  0  0  0
  -29.5125  -20.9015   19.8489 N   0  0  0  0  0  0  0  0  0  0  0  0
  -23.5260  -28.5016   23.2600 N   0  0  0  0  0  0  0  0  0  0  0  0
  -28.7487  -21.9538   20.1888 N   0  0  0  0  0  0  0  0  0  0  0  0
  -21.5960  -19.7991   17.3872 N   0  0  0  0  0  0  0  0  0  0  0  0
  -30.3226  -25.4301   19.9719 N   0  0  0  0  0  0  0  0  0  0  0  0
  -26.8597  -22.5802   21.4733 N   0  0  0  0  0  0  0  0  0  0  0  0
  -27.1969  -18.1379   22.2140 N   0  0  0  0  0  0  0  0  0  0  0  0
  -22.2615  -16.9434   19.4200 N   0  0  0  0  0  0  0  0  0  0  0  0
  -20.7800  -20.6502   14.2142 N   0  0  0  0  0  0  0  0  0  0  0  0
  -29.4594  -26.6518   21.8038 N   0  0  0  0  0  0  0  0  0  0  0  0
  -18.5113  -23.4446   13.8800 N   0  3  0  0  0  0  0  0  0  0  0  0
  -25.9745  -20.0180   22.6933 O   0  0  0  0  0  0  0  0  0  0  0  0
  -23.5875  -18.7474   18.7799 O   0  0  0  0  0  0  0  0  0  0  0  0
  -20.7161  -18.2924   15.8406 O   0  0  0  0  0  0  0  0  0  0  0  0
  -21.1373  -22.8846   14.7207 O   0  0  0  0  0  0  0  0  0  0  0  0
  -30.3616  -27.7486   20.0038 O   0  0  0  0  0  0  0  0  0  0  0  0
  -31.0479  -14.7259   20.0780 O   0  0  0  0  0  0  0  0  0  0  0  0
  -23.4715  -24.5045   20.9077 O   0  0  0  0  0  0  0  0  0  1  0  0
  -27.5098  -10.5724   19.2814 F   0  0  0  0  0  0  0  0  0  0  0  0
  -29.0587  -14.1843   21.9198 F   0  0  0  0  0  0  0  0  0  0  0  0
  -24.7702  -30.2434   21.1351 Cl  0  0  0  0  0  0  0  0  0  0  0  0
  -27.8391  -26.1063   24.6728 Cl  0  0  0  0  0  0  0  0  0  0  0  0
  1  2  1  0  0  0  0
  1  5  2  0  0  0  0
  2  6  2  0  0  0  0
  3  8  2  0  0  0  0
  3 16  1  0  0  0  0
  4  9  1  0  0  0  0
  4 16  2  0  0  0  0
  5 18  1  0  0  0  0
  6 20  1  0  0  0  0
  7 10  2  0  0  0  0
  7 19  1  0  0  0  0
  8 25  1  0  0  0  0
  9 25  2  0  0  0  0
 10 26  1  0  0  0  0
 11 12  2  0  0  0  0
 11 27  1  0  0  0  0
 12 28  1  0  0  0  0
 13 21  1  0  0  0  0
 13 26  2  0  0  0  0
 14 22  1  0  0  0  0
 14 30  2  0  0  0  0
 15 28  2  0  0  0  0
 15 29  1  0  0  0  0
 16 32  1  0  0  0  0
 17 32  1  0  0  0  0
 17 33  2  0  0  0  0
 17 34  1  0  0  0  0
 18 20  2  0  0  0  0
 18 40  1  0  0  0  0
 19 21  2  0  0  0  0
 19 41  1  0  0  0  0
 20 49  1  0  0  0  0
 21 42  1  0  0  0  0
 22 31  2  0  0  0  0
 22 59  1  0  0  0  0
 23 24  2  0  0  0  0
 23 31  1  0  0  0  0
 23 52  1  0  0  0  0
 24 30  1  0  0  0  0
 24 66  1  0  0  0  0
 25 81  1  0  0  0  0
 26 82  1  0  0  0  0
 27 29  2  0  0  0  0
 27 81  1  0  0  0  0
 28 83  1  0  0  0  0
 29 84  1  0  0  0  0
 30 85  1  0  0  0  0
 31 86  1  0  0  0  0
 32 65  2  0  0  0  0
 33 67  1  0  0  0  0
 33 70  1  0  0  0  0
 34 71  1  0  0  0  0
 34 76  2  0  0  0  0
 35 50  1  0  0  0  0
 35 72  1  0  0  0  0
 35 77  2  0  0  0  0
 36 53  1  0  0  0  0
 36 60  1  0  0  0  0
 36 66  2  0  0  0  0
 37 62  1  0  0  0  0
 37 68  1  0  0  0  0
 37 78  2  0  0  0  0
 38 63  1  0  0  0  0
 38 73  1  0  0  0  0
 38 79  2  0  0  0  0
 39 69  1  0  0  0  0
 39 74  1  0  0  0  0
 39 80  2  0  0  0  0
 40 43  1  0  0  0  0
 41 50  1  0  0  0  0
 42 68  1  0  0  0  0
 43 45  1  0  0  0  0
 44 46  1  0  0  0  0
 44 47  1  0  0  0  0
 45 49  1  0  0  0  0
 46 51  1  0  0  0  0
 47 69  1  0  0  0  0
 48 51  1  0  0  0  0
 48 69  1  0  0  0  0
 49 72  1  0  0  0  0
 50 68  1  0  0  0  0
 51 67  1  0  0  0  0
 54 63  1  0  0  0  0
 55 64  1  0  0  0  0
 56 64  1  0  0  0  0
 57 64  1  0  0  0  0
 58 75  1  0  0  0  0
 59 74  1  0  0  0  0
 60 61  1  0  0  0  0
 61 82  1  0  0  0  0
 62 64  1  0  0  0  0
 62 73  1  0  0  0  0
 63 75  1  0  0  0  0
 65 67  1  0  0  0  0
M  CHG  1  75   1
M  ISO  4  39 100  61 101  74 100  82 101
M  END
> <Batch ID>
0022

> <Smiles>
C=C(C[101CH2:1][101O:1]c1ccc2c(c1)CN(C(=O)C(NC(=O)C(C)NC)C(C)(C)C)C(C(=O)NC1CCCc3ccccc31)C2)Nc1c(Cl)cc(C[100NH:0][100C:0](=O)N2CCCC(n3nc(-c4ccc(Oc5ccc(F)cc5F)cc4)c(C(N)=O)c3N)C2)c(Cl)c1C

> <Shape>
0.212

> <Color>
0.061

> <Negative vol penalty>
0.000

$$$$

  -OEChem-04052316153D

 84 92  0     1  0  0  0  0  0999 V2000
  -18.0621  -32.3589   20.6544 C   0  0  0  0  0  0  0  0  0  0  0  0
  -19.3435  -32.1788   20.1436 C   0  0  0  0  0  0  0  0  0  0  0  0
  -26.6029  -11.9335   21.1186 C   0  0  0  0  0  0  0  0  0  0  0  0
  -25.9766  -13.4948   19.3844 C   0  0  0  0  0  0  0  0  0  0  0  0
  -17.7707  -31.9617   21.9588 C   0  0  0  0  0  0  0  0  0  0  0  0
  -20.3347  -31.6023   20.9372 C   0  0  0  0  0  0  0  0  0  0  0  0
  -24.8657  -27.9261   19.0769 C   0  0  0  0  0  0  0  0  0  0  0  0
  -25.4368  -11.2049   20.8838 C   0  0  0  0  0  0  0  0  0  0  0  0
  -24.8106  -12.7662   19.1496 C   0  0  0  0  0  0  0  0  0  0  0  0
  -26.2073  -28.1659   18.7828 C   0  0  0  0  0  0  0  0  0  0  0  0
  -22.1551  -11.4397   21.6581 C   0  0  0  0  0  0  0  0  0  0  0  0
  -21.4173  -11.0240   22.7664 C   0  0  0  0  0  0  0  0  0  0  0  0
  -26.8129  -27.4810   21.0151 C   0  0  0  0  0  0  0  0  0  0  0  0
  -29.1290  -23.6103   20.1255 C   0  0  0  0  0  0  0  0  0  0  0  0
  -21.7093   -8.7210   22.0969 C   0  0  0  0  0  0  0  0  0  0  0  0
  -26.8727  -13.0785   20.3690 C   0  0  0  0  0  0  0  0  0  0  0  0
  -29.3304  -13.6521   19.9966 C   0  0  0  0  0  0  0  0  0  0  0  0
  -18.7562  -31.3712   22.7655 C   0  0  0  0  0  0  0  0  0  0  0  0
  -24.4860  -27.4716   20.3480 C   0  0  0  0  0  0  0  0  0  0  0  0
  -20.0565  -31.1981   22.2540 C   0  0  0  0  0  0  0  0  0  0  0  0
  -25.4662  -27.2337   21.3220 C   0  0  0  0  0  0  0  0  0  0  0  0
  -29.8618  -23.7688   18.9494 C   0  0  0  0  0  0  0  0  0  0  0  0
  -30.6759  -22.7335   18.4899 C   0  0  0  0  0  0  0  0  0  0  0  0
  -30.0243  -21.3811   20.3830 C   0  0  0  0  0  0  0  0  0  0  0  0
  -24.5407  -11.6212   19.8993 C   0  0  0  0  0  0  0  0  0  0  0  0
  -27.1808  -27.9461   19.7528 C   0  0  0  0  0  0  0  0  0  0  0  0
  -22.6699  -10.4961   20.7691 C   0  0  0  0  0  0  0  0  0  0  0  0
  -21.1944   -9.6646   22.9859 C   0  0  0  0  0  0  0  0  0  0  0  0
  -29.2102  -22.4165   20.8424 C   0  0  0  0  0  0  0  0  0  0  0  0
  -22.4470   -9.1368   20.9886 C   0  0  0  0  0  0  0  0  0  0  0  0
  -30.7571  -21.5396   19.2067 C   0  0  0  0  0  0  0  0  0  0  0  0
  -28.0768  -13.8318   20.6114 C   0  0  0  0  0  0  0  0  0  0  0  0
  -30.1332  -14.6093   20.5674 C   0  0  0  0  0  0  0  0  0  0  0  0
  -29.7331  -12.7046   18.9987 C   0  0  0  0  0  0  0  0  0  0  0  0
  -22.6640  -28.6162   22.6876 C   0  0  0  0  0  0  0  0  0  0  0  0
  -23.2181  -25.7084   24.0142 C   0  0  0  0  0  0  0  0  0  0  0  0
  -25.2234  -22.9551   24.2258 C   0  0  0  0  0  0  0  0  0  0  0  0
  -29.9266  -20.0429   22.5151 C   0  0  0  0  0  0  0  0  0  0  0  0
  -18.4065  -31.0013   24.1852 C   0  0  0  0  0  0  0  0  0  0  0  0
  -23.0373  -27.1922   20.6410 C   0  0  0  0  0  0  0  0  0  0  0  0
  -25.1127  -26.7267   22.6955 C   0  0  0  0  0  0  0  0  0  0  0  0
  -19.4139  -30.0556   24.8340 C   0  0  0  0  0  0  0  0  0  0  0  0
  -29.9642  -17.2634   24.7400 C   0  0  0  0  0  0  0  0  0  0  0  0
  -20.8389  -30.5353   24.5766 C   0  0  0  0  0  0  0  0  0  0  0  0
  -29.6041  -16.0765   23.8435 C   0  0  0  0  0  0  0  0  0  0  0  0
  -29.2001  -18.5256   24.3440 C   0  0  0  0  0  0  0  0  0  0  0  0
  -28.9505  -17.7128   22.0318 C   0  0  0  0  0  0  0  0  0  0  0  0
  -21.1520  -30.5538   23.0756 C   0  0  1  0  0  0  0  0  0  0  0  0
  -22.7128  -27.2213   22.1313 C   0  0  1  0  0  0  0  0  0  0  0  0
  -29.7434  -16.4349   22.3509 C   0  0  2  0  0  0  0  0  0  0  0  0
  -31.4540  -22.9262   17.2248 C   0  0  0  0  0  0  0  0  0  0  0  0
  -25.4367  -20.7609   25.4247 C   0  0  0  0  0  0  0  0  0  0  0  0
  -24.1744  -27.1708   26.5156 C   0  0  0  0  0  0  0  0  0  0  0  0
  -25.2369  -25.0344   27.2738 C   0  0  0  0  0  0  0  0  0  0  0  0
  -22.7649  -25.1537   26.9613 C   0  0  0  0  0  0  0  0  0  0  0  0
  -25.0595  -21.4255   21.6975 C   0  0  0  0  0  0  0  0  0  0  0  0
  -29.7541  -25.0705   18.1957 C   0  0  0  0  0  0  0  0  0  0  0  0
  -30.5409  -26.2215   18.8323 C   0  0  0  0  0  0  0  0  0  0  0  0
  -30.3575  -27.5503   18.0978 C   0  0  0  0  0  0  0  0  0  0  0  0
  -28.9035  -28.0020   18.1141 C   0  0  0  0  0  0  0  0  0  1  0  0
  -24.2714  -25.1347   24.9310 C   0  0  1  0  0  0  0  0  0  0  0  0
  -24.9044  -21.4714   24.1900 C   0  0  2  0  0  0  0  0  0  0  0  0
  -24.1187  -25.6348   26.3952 C   0  0  0  0  0  0  0  0  0  0  0  0
  -28.0782  -14.8250   21.5045 N   0  0  0  0  0  0  0  0  0  0  0  0
  -29.3425  -15.2779   21.4550 N   0  0  0  0  0  0  0  0  0  0  0  0
  -23.6822  -26.4745   22.9356 N   0  0  0  0  0  0  0  0  0  0  0  0
  -29.3820  -18.8052   22.9180 N   0  0  0  0  0  0  0  0  0  0  0  0
  -31.4312  -14.9358   20.3916 N   0  0  0  0  0  0  0  0  0  0  0  0
  -28.7825  -11.7920   18.5215 N   0  0  0  0  0  0  0  0  0  0  0  0
  -30.0830  -20.1826   21.1364 N   0  0  0  0  0  0  0  0  0  0  0  0
  -21.4214  -29.2142   22.5989 N   0  0  0  0  0  0  0  0  0  0  0  0
  -24.1953  -23.6853   24.7836 N   0  0  0  0  0  0  0  0  0  0  0  0
  -25.5129  -20.8396   22.9852 N   0  3  0  0  0  0  0  0  0  0  0  0
  -30.9058  -12.6576   18.5557 O   0  0  0  0  0  0  0  0  0  0  0  0
  -23.6782  -29.1127   23.1635 O   0  0  0  0  0  0  0  0  0  0  0  0
  -22.0278  -25.4791   24.2425 O   0  0  0  0  0  0  0  0  0  0  0  0
  -26.2806  -23.4194   23.8048 O   0  0  0  0  0  0  0  0  0  0  0  0
  -30.2571  -20.9040   23.3344 O   0  0  0  0  0  0  0  0  0  0  0  0
  -23.4029  -10.9104   19.6697 O   0  0  0  0  0  0  0  0  0  0  0  0
  -28.4909  -28.1800   19.4685 O   0  0  0  0  0  0  0  0  0  1  0  0
  -20.4872   -9.2655   24.0511 F   0  0  0  0  0  0  0  0  0  0  0  0
  -28.5008  -22.2771   21.9716 F   0  0  0  0  0  0  0  0  0  0  0  0
  -22.9401   -8.2255   20.1386 F   0  0  0  0  0  0  0  0  0  0  0  0
  -31.7692  -20.2536   18.6321 Cl  0  0  0  0  0  0  0  0  0  0  0  0
  1  2  1  0  0  0  0
  1  5  2  0  0  0  0
  2  6  2  0  0  0  0
  3  8  2  0  0  0  0
  3 16  1  0  0  0  0
  4  9  1  0  0  0  0
  4 16  2  0  0  0  0
  5 18  1  0  0  0  0
  6 20  1  0  0  0  0
  7 10  2  0  0  0  0
  7 19  1  0  0  0  0
  8 25  1  0  0  0  0
  9 25  2  0  0  0  0
 10 26  1  0  0  0  0
 11 12  2  0  0  0  0
 11 27  1  0  0  0  0
 12 28  1  0  0  0  0
 13 21  1  0  0  0  0
 13 26  2  0  0  0  0
 14 22  1  0  0  0  0
 14 29  2  0  0  0  0
 15 28  2  0  0  0  0
 15 30  1  0  0  0  0
 16 32  1  0  0  0  0
 17 32  1  0  0  0  0
 17 33  2  0  0  0  0
 17 34  1  0  0  0  0
 18 20  2  0  0  0  0
 18 39  1  0  0  0  0
 19 21  2  0  0  0  0
 19 40  1  0  0  0  0
 20 48  1  0  0  0  0
 21 41  1  0  0  0  0
 22 23  2  0  0  0  0
 22 57  1  0  0  0  0
 23 31  1  0  0  0  0
 23 51  1  0  0  0  0
 24 29  1  0  0  0  0
 24 31  2  0  0  0  0
 24 70  1  0  0  0  0
 25 79  1  0  0  0  0
 26 80  1  0  0  0  0
 27 30  2  0  0  0  0
 27 79  1  0  0  0  0
 28 81  1  0  0  0  0
 29 82  1  0  0  0  0
 30 83  1  0  0  0  0
 31 84  1  0  0  0  0
 32 64  2  0  0  0  0
 33 65  1  0  0  0  0
 33 68  1  0  0  0  0
 34 69  1  0  0  0  0
 34 74  2  0  0  0  0
 35 49  1  0  0  0  0
 35 71  1  0  0  0  0
 35 75  2  0  0  0  0
 36 61  1  0  0  0  0
 36 66  1  0  0  0  0
 36 76  2  0  0  0  0
 37 62  1  0  0  0  0
 37 72  1  0  0  0  0
 37 77  2  0  0  0  0
 38 67  1  0  0  0  0
 38 70  1  0  0  0  0
 38 78  2  0  0  0  0
 39 42  1  0  0  0  0
 40 49  1  0  0  0  0
 41 66  1  0  0  0  0
 42 44  1  0  0  0  0
 43 45  1  0  0  0  0
 43 46  1  0  0  0  0
 44 48  1  0  0  0  0
 45 50  1  0  0  0  0
 46 67  1  0  0  0  0
 47 50  1  0  0  0  0
 47 67  1  0  0  0  0
 48 71  1  0  0  0  0
 49 66  1  0  0  0  0
 50 65  1  0  0  0  0
 52 62  1  0  0  0  0
 53 63  1  0  0  0  0
 54 63  1  0  0  0  0
 55 63  1  0  0  0  0
 56 73  1  0  0  0  0
 57 58  1  0  0  0  0
 58 59  1  0  0  0  0
 59 60  1  0  0  0  0
 60 80  1  0  0  0  0
 61 63  1  0  0  0  0
 61 72  1  0  0  0  0
 62 73  1  0  0  0  0
 64 65  1  0  0  0  0
M  CHG  1  73   1
M  ISO  4  38 100  60 101  70 100  80 101
M  END
> <Batch ID>
0022

> <Smiles>
CNC(C)C(=O)NC(C(=O)N1Cc2cc([101O:1][101CH2:1]CCCc3cc(F)c([100NH:0][100C:0](=O)N4CCCC(n5nc(-c6ccc(Oc7ccc(F)cc7F)cc6)c(C(N)=O)c5N)C4)c(Cl)c3C)ccc2CC1C(=O)NC1CCCc2ccccc21)C(C)(C)C

> <Shape>
0.247

> <Color>
0.079

> <Negative vol penalty>
0.000

$$$$

  -OEChem-04052316153D

 82 90  0     1  0  0  0  0  0999 V2000
  -16.4648  -29.6272   23.7414 C   0  0  0  0  0  0  0  0  0  0  0  0
  -17.1083  -28.5424   23.1544 C   0  0  0  0  0  0  0  0  0  0  0  0
  -26.7534  -12.2918   21.7736 C   0  0  0  0  0  0  0  0  0  0  0  0
  -26.0490  -13.7658   19.9936 C   0  0  0  0  0  0  0  0  0  0  0  0
  -17.0787  -30.8790   23.7506 C   0  0  0  0  0  0  0  0  0  0  0  0
  -18.3658  -28.7091   22.5752 C   0  0  0  0  0  0  0  0  0  0  0  0
  -24.5096  -25.1975   21.4622 C   0  0  0  0  0  0  0  0  0  0  0  0
  -25.4843  -11.7136   21.7970 C   0  0  0  0  0  0  0  0  0  0  0  0
  -24.7798  -13.1875   20.0169 C   0  0  0  0  0  0  0  0  0  0  0  0
  -25.3870  -24.8620   20.4320 C   0  0  0  0  0  0  0  0  0  0  0  0
  -23.7491   -9.4402   19.9931 C   0  0  0  0  0  0  0  0  0  0  0  0
  -23.6717   -8.0489   20.0550 C   0  0  0  0  0  0  0  0  0  0  0  0
  -26.3855  -27.0531   20.5770 C   0  0  0  0  0  0  0  0  0  0  0  0
  -28.9926  -22.7135   18.6648 C   0  0  0  0  0  0  0  0  0  0  0  0
  -30.3191  -22.5716   21.1149 C   0  0  0  0  0  0  0  0  0  0  0  0
  -22.4602   -8.2090   22.1392 C   0  0  0  0  0  0  0  0  0  0  0  0
  -27.0357  -13.3180   20.8719 C   0  0  0  0  0  0  0  0  0  0  0  0
  -29.4513  -13.5114   20.0749 C   0  0  0  0  0  0  0  0  0  0  0  0
  -18.3485  -31.0590   23.1797 C   0  0  0  0  0  0  0  0  0  0  0  0
  -24.5564  -26.4693   22.0511 C   0  0  0  0  0  0  0  0  0  0  0  0
  -18.9966  -29.9648   22.5756 C   0  0  0  0  0  0  0  0  0  0  0  0
  -25.5093  -27.4014   21.6162 C   0  0  0  0  0  0  0  0  0  0  0  0
  -29.5957  -23.8525   19.1983 C   0  0  0  0  0  0  0  0  0  0  0  0
  -29.7159  -21.4326   20.5813 C   0  0  0  0  0  0  0  0  0  0  0  0
  -24.4975  -12.1614   20.9187 C   0  0  0  0  0  0  0  0  0  0  0  0
  -26.3232  -25.7908   19.9872 C   0  0  0  0  0  0  0  0  0  0  0  0
  -23.1821  -10.2160   21.0043 C   0  0  0  0  0  0  0  0  0  0  0  0
  -29.0527  -21.5036   19.3563 C   0  0  0  0  0  0  0  0  0  0  0  0
  -23.0272   -7.4333   21.1280 C   0  0  0  0  0  0  0  0  0  0  0  0
  -22.5376   -9.6003   22.0773 C   0  0  0  0  0  0  0  0  0  0  0  0
  -30.2589  -23.7815   20.4234 C   0  0  0  0  0  0  0  0  0  0  0  0
  -28.3464  -13.9161   20.8476 C   0  0  0  0  0  0  0  0  0  0  0  0
  -30.4476  -14.3950   20.4112 C   0  0  0  0  0  0  0  0  0  0  0  0
  -29.5668  -12.4331   19.1369 C   0  0  0  0  0  0  0  0  0  0  0  0
  -22.5246  -28.9007   22.3030 C   0  0  0  0  0  0  0  0  0  0  0  0
  -24.8420  -30.1322   24.2097 C   0  0  0  0  0  0  0  0  0  0  0  0
  -28.1398  -30.2019   25.0855 C   0  0  0  0  0  0  0  0  0  0  0  0
  -30.4049  -19.9842   22.5239 C   0  0  0  0  0  0  0  0  0  0  0  0
  -18.9515  -32.4413   23.1719 C   0  0  0  0  0  0  0  0  0  0  0  0
  -23.6207  -26.8064   23.1795 C   0  0  0  0  0  0  0  0  0  0  0  0
  -25.6140  -28.7732   22.2291 C   0  0  0  0  0  0  0  0  0  0  0  0
  -20.4476  -32.4515   22.8686 C   0  0  0  0  0  0  0  0  0  0  0  0
  -31.9450  -17.1498   24.0310 C   0  0  0  0  0  0  0  0  0  0  0  0
  -20.7558  -31.5569   21.6721 C   0  0  0  0  0  0  0  0  0  0  0  0
  -31.3019  -15.9622   23.3111 C   0  0  0  0  0  0  0  0  0  0  0  0
  -30.9478  -18.2853   24.2543 C   0  0  0  0  0  0  0  0  0  0  0  0
  -29.5984  -17.5497   22.3288 C   0  0  0  0  0  0  0  0  0  0  0  0
  -20.3720  -30.1003   21.9590 C   0  0  1  0  0  0  0  0  0  0  0  0
  -23.4157  -28.3077   23.3574 C   0  0  1  0  0  0  0  0  0  0  0  0
  -30.5806  -16.4070   22.0237 C   0  0  2  0  0  0  0  0  0  0  0  0
  -29.7381  -31.3361   26.6527 C   0  0  0  0  0  0  0  0  0  0  0  0
  -24.7735  -32.6344   22.4649 C   0  0  0  0  0  0  0  0  0  0  0  0
  -26.9753  -33.2995   23.4537 C   0  0  0  0  0  0  0  0  0  0  0  0
  -24.9682  -33.0784   24.9183 C   0  0  0  0  0  0  0  0  0  0  0  0
  -28.8643  -27.6429   26.3836 C   0  0  0  0  0  0  0  0  0  0  0  0
  -27.0918  -20.1717   19.1650 C   0  0  0  0  0  0  0  0  0  0  0  0
  -29.5068  -25.1425   18.4198 C   0  0  0  0  0  0  0  0  0  0  0  0
  -28.4617  -26.0942   18.9919 C   0  0  0  0  0  0  0  0  0  1  0  0
  -26.0605  -30.9959   23.9897 C   0  0  1  0  0  0  0  0  0  0  0  0
  -28.8240  -30.1397   26.4391 C   0  0  2  0  0  0  0  0  0  0  0  0
  -25.6914  -32.4769   23.6936 C   0  0  0  0  0  0  0  0  0  0  0  0
  -28.6150  -14.9744   21.6169 N   0  0  0  0  0  0  0  0  0  0  0  0
  -29.9002  -15.2421   21.3293 N   0  0  0  0  0  0  0  0  0  0  0  0
  -24.6730  -29.0576   23.3251 N   0  0  0  0  0  0  0  0  0  0  0  0
  -30.3067  -18.6564   22.9909 N   0  0  0  0  0  0  0  0  0  0  0  0
  -31.7297  -14.5222   20.0082 N   0  0  0  0  0  0  0  0  0  0  0  0
  -28.4464  -11.6222   18.9099 N   0  0  0  0  0  0  0  0  0  0  0  0
  -29.7840  -20.2111   21.2961 N   0  0  0  0  0  0  0  0  0  0  0  0
  -21.3682  -29.4713   22.7996 N   0  0  0  0  0  0  0  0  0  0  0  0
  -26.9069  -30.8144   25.1641 N   0  0  0  0  0  0  0  0  0  0  0  0
  -29.6410  -28.8982   26.5499 N   0  3  0  0  0  0  0  0  0  0  0  0
  -30.6367  -12.1857   18.5308 O   0  0  0  0  0  0  0  0  0  0  0  0
  -22.8620  -28.8461   21.1262 O   0  0  0  0  0  0  0  0  0  0  0  0
  -24.0725  -30.3968   25.1367 O   0  0  0  0  0  0  0  0  0  0  0  0
  -28.6497  -29.7555   24.0602 O   0  0  0  0  0  0  0  0  0  0  0  0
  -31.0196  -20.8495   23.1528 O   0  0  0  0  0  0  0  0  0  0  0  0
  -23.2591  -11.5972   20.9411 O   0  0  0  0  0  0  0  0  0  0  0  0
  -28.4555  -20.4026   18.8186 O   0  0  0  0  0  0  0  0  0  0  0  0
  -27.1804  -25.4661   18.9814 O   0  0  0  0  0  0  0  0  0  1  0  0
  -22.9517   -6.0972   21.1864 F   0  0  0  0  0  0  0  0  0  0  0  0
  -21.9900  -10.3403   23.0512 F   0  0  0  0  0  0  0  0  0  0  0  0
  -31.0156  -25.1704   21.1146 Cl  0  0  0  0  0  0  0  0  0  0  0  0
  1  2  1  0  0  0  0
  1  5  2  0  0  0  0
  2  6  2  0  0  0  0
  3  8  2  0  0  0  0
  3 17  1  0  0  0  0
  4  9  1  0  0  0  0
  4 17  2  0  0  0  0
  5 19  1  0  0  0  0
  6 21  1  0  0  0  0
  7 10  2  0  0  0  0
  7 20  1  0  0  0  0
  8 25  1  0  0  0  0
  9 25  2  0  0  0  0
 10 26  1  0  0  0  0
 11 12  2  0  0  0  0
 11 27  1  0  0  0  0
 12 29  1  0  0  0  0
 13 22  1  0  0  0  0
 13 26  2  0  0  0  0
 14 23  1  0  0  0  0
 14 28  2  0  0  0  0
 15 24  2  0  0  0  0
 15 31  1  0  0  0  0
 16 29  2  0  0  0  0
 16 30  1  0  0  0  0
 17 32  1  0  0  0  0
 18 32  1  0  0  0  0
 18 33  2  0  0  0  0
 18 34  1  0  0  0  0
 19 21  2  0  0  0  0
 19 39  1  0  0  0  0
 20 22  2  0  0  0  0
 20 40  1  0  0  0  0
 21 48  1  0  0  0  0
 22 41  1  0  0  0  0
 23 31  2  0  0  0  0
 23 57  1  0  0  0  0
 24 28  1  0  0  0  0
 24 68  1  0  0  0  0
 25 77  1  0  0  0  0
 26 79  1  0  0  0  0
 27 30  2  0  0  0  0
 27 77  1  0  0  0  0
 28 78  1  0  0  0  0
 29 80  1  0  0  0  0
 30 81  1  0  0  0  0
 31 82  1  0  0  0  0
 32 62  2  0  0  0  0
 33 63  1  0  0  0  0
 33 66  1  0  0  0  0
 34 67  1  0  0  0  0
 34 72  2  0  0  0  0
 35 49  1  0  0  0  0
 35 69  1  0  0  0  0
 35 73  2  0  0  0  0
 36 59  1  0  0  0  0
 36 64  1  0  0  0  0
 36 74  2  0  0  0  0
 37 60  1  0  0  0  0
 37 70  1  0  0  0  0
 37 75  2  0  0  0  0
 38 65  1  0  0  0  0
 38 68  1  0  0  0  0
 38 76  2  0  0  0  0
 39 42  1  0  0  0  0
 40 49  1  0  0  0  0
 41 64  1  0  0  0  0
 42 44  1  0  0  0  0
 43 45  1  0  0  0  0
 43 46  1  0  0  0  0
 44 48  1  0  0  0  0
 45 50  1  0  0  0  0
 46 65  1  0  0  0  0
 47 50  1  0  0  0  0
 47 65  1  0  0  0  0
 48 69  1  0  0  0  0
 49 64  1  0  0  0  0
 50 63  1  0  0  0  0
 51 60  1  0  0  0  0
 52 61  1  0  0  0  0
 53 61  1  0  0  0  0
 54 61  1  0  0  0  0
 55 71  1  0  0  0  0
 56 78  1  0  0  0  0
 57 58  1  0  0  0  0
 58 79  1  0  0  0  0
 59 61  1  0  0  0  0
 59 70  1  0  0  0  0
 60 71  1  0  0  0  0
 62 63  1  0  0  0  0
M  CHG  1  71   1
M  ISO  4  38 100  58 101  68 100  79 101
M  END
> <Batch ID>
0022

> <Smiles>
CNC(C)C(=O)NC(C(=O)N1Cc2cc([101O:1][101CH2:1]Cc3cc(OC)c([100NH:0][100C:0](=O)N4CCCC(n5nc(-c6ccc(Oc7ccc(F)cc7F)cc6)c(C(N)=O)c5N)C4)cc3Cl)ccc2CC1C(=O)NC1CCCc2ccccc21)C(C)(C)C

> <Shape>
0.338

> <Color>
0.085

> <Negative vol penalty>
0.000

$$$$

  -OEChem-04052316153D

 90 98  0     1  0  0  0  0  0999 V2000
  -19.1396  -25.0530   20.6973 C   0  0  0  0  0  0  0  0  0  0  0  0
  -20.0617  -24.4401   21.5381 C   0  0  0  0  0  0  0  0  0  0  0  0
  -26.0279  -13.3587   21.9009 C   0  0  0  0  0  0  0  0  0  0  0  0
  -25.8781  -13.2568   19.4917 C   0  0  0  0  0  0  0  0  0  0  0  0
  -19.3913  -26.3330   20.2082 C   0  0  0  0  0  0  0  0  0  0  0  0
  -21.2301  -25.1116   21.8996 C   0  0  0  0  0  0  0  0  0  0  0  0
  -26.0070  -23.2561   25.1960 C   0  0  0  0  0  0  0  0  0  0  0  0
  -24.8442  -12.6283   22.0054 C   0  0  0  0  0  0  0  0  0  0  0  0
  -24.6944  -12.5263   19.5962 C   0  0  0  0  0  0  0  0  0  0  0  0
  -27.2448  -22.6568   24.9671 C   0  0  0  0  0  0  0  0  0  0  0  0
  -23.0943   -9.3743   19.8275 C   0  0  0  0  0  0  0  0  0  0  0  0
  -23.1922   -7.9838   19.8782 C   0  0  0  0  0  0  0  0  0  0  0  0
  -28.2952  -24.8282   24.9997 C   0  0  0  0  0  0  0  0  0  0  0  0
  -23.3426   -8.0824   22.2876 C   0  0  0  0  0  0  0  0  0  0  0  0
  -26.5448  -13.6730   20.6441 C   0  0  0  0  0  0  0  0  0  0  0  0
  -29.0784  -13.9188   20.4753 C   0  0  0  0  0  0  0  0  0  0  0  0
  -20.5695  -27.0149   20.5544 C   0  0  0  0  0  0  0  0  0  0  0  0
  -25.9022  -24.6491   25.3178 C   0  0  0  0  0  0  0  0  0  0  0  0
  -21.4911  -26.4136   21.4355 C   0  0  0  0  0  0  0  0  0  0  0  0
  -27.0553  -25.4424   25.2327 C   0  0  0  0  0  0  0  0  0  0  0  0
  -24.1774  -12.2121   20.8531 C   0  0  0  0  0  0  0  0  0  0  0  0
  -28.3888  -23.4431   24.8661 C   0  0  0  0  0  0  0  0  0  0  0  0
  -23.1206  -10.1188   21.0067 C   0  0  0  0  0  0  0  0  0  0  0  0
  -23.3164   -7.3378   21.1083 C   0  0  0  0  0  0  0  0  0  0  0  0
  -23.2447   -9.4729   22.2368 C   0  0  0  0  0  0  0  0  0  0  0  0
  -27.7673  -14.4279   20.5355 C   0  0  0  0  0  0  0  0  0  0  0  0
  -29.8753  -15.0331   20.3778 C   0  0  0  0  0  0  0  0  0  0  0  0
  -29.5350  -12.5600   20.5048 C   0  0  0  0  0  0  0  0  0  0  0  0
  -24.4009  -26.9358   23.6989 C   0  0  0  0  0  0  0  0  0  0  0  0
  -25.4787  -28.8137   26.1143 C   0  0  0  0  0  0  0  0  0  0  0  0
  -27.7691  -29.3139   28.5943 C   0  0  0  0  0  0  0  0  0  0  0  0
  -29.0424  -20.3673   18.2658 C   0  0  0  0  0  0  0  0  0  0  0  0
  -20.7878  -28.4017   20.0026 C   0  0  0  0  0  0  0  0  0  0  0  0
  -24.5635  -25.2779   25.5913 C   0  0  0  0  0  0  0  0  0  0  0  0
  -26.9994  -26.9407   25.3765 C   0  0  0  0  0  0  0  0  0  0  0  0
  -22.2435  -28.8502   20.0804 C   0  0  0  0  0  0  0  0  0  0  0  0
  -30.0322  -19.6529   21.5797 C   0  0  0  0  0  0  0  0  0  0  0  0
  -22.7876  -28.6090   21.4805 C   0  0  0  0  0  0  0  0  0  0  0  0
  -29.6806  -18.1698   21.6875 C   0  0  0  0  0  0  0  0  0  0  0  0
  -26.7780  -25.2043   19.3117 C   0  0  0  0  0  0  0  0  0  0  0  0
  -26.9124  -22.9431   18.2264 C   0  0  0  0  0  0  0  0  0  0  0  0
  -28.9751  -20.4390   20.8019 C   0  0  0  0  0  0  0  0  0  0  0  0
  -28.3215  -18.3924   19.5744 C   0  0  0  0  0  0  0  0  0  0  0  0
  -28.0583  -24.9118   20.0774 C   0  0  0  0  0  0  0  0  0  0  0  0
  -22.7832  -27.1126   21.8178 C   0  0  1  0  0  0  0  0  0  0  0  0
  -24.4996  -26.7474   25.1863 C   0  0  1  0  0  0  0  0  0  0  0  0
  -26.0117  -23.9202   18.9885 C   0  0  2  0  0  0  0  0  0  0  0  0
  -29.3973  -17.5693   20.2996 C   0  0  2  0  0  0  0  0  0  0  0  0
  -28.2116  -22.6492   18.9782 C   0  0  1  0  0  0  0  0  0  0  0  0
  -28.4159  -30.9584   30.3761 C   0  0  0  0  0  0  0  0  0  0  0  0
  -24.0054  -22.9423   17.8385 C   0  0  0  0  0  0  0  0  0  0  0  0
  -23.8397  -25.1792   18.9667 C   0  0  0  0  0  0  0  0  0  0  0  0
  -31.2164  -22.0521   17.0538 C   0  0  0  0  0  0  0  0  0  0  0  0
  -29.0717  -21.9906   15.7423 C   0  0  0  0  0  0  0  0  0  0  0  0
  -26.6928  -30.6354   23.9888 C   0  0  0  0  0  0  0  0  0  0  0  0
  -28.0892  -31.6827   25.7837 C   0  0  0  0  0  0  0  0  0  0  0  0
  -25.6017  -31.8360   25.8921 C   0  0  0  0  0  0  0  0  0  0  0  0
  -30.6917  -25.1092   20.5375 C   0  0  0  0  0  0  0  0  0  0  0  0
  -31.2418  -23.2576   18.9315 C   0  0  0  0  0  0  0  0  0  0  0  0
  -27.3335  -27.3297   30.7466 C   0  0  0  0  0  0  0  0  0  0  0  0
  -31.1682  -22.6448   22.1642 C   0  0  0  0  0  0  0  0  0  0  0  0
  -30.9278  -21.4976   23.1533 C   0  0  0  0  0  0  0  0  0  0  0  0
  -30.0742  -22.6811   21.0884 C   0  0  0  0  0  0  0  0  0  0  0  0
  -29.6051  -21.6444   23.8960 C   0  0  0  0  0  0  0  0  0  1  0  0
  -26.7288  -29.6225   26.3634 C   0  0  1  0  0  0  0  0  0  0  0  0
  -27.6067  -29.7127   30.0500 C   0  0  2  0  0  0  0  0  0  0  0  0
  -24.7479  -24.2299   18.1886 C   0  0  0  0  0  0  0  0  0  0  0  0
  -29.7329  -22.3992   17.0524 C   0  0  0  0  0  0  0  0  0  0  0  0
  -26.7792  -30.9161   25.5023 C   0  0  0  0  0  0  0  0  0  0  0  0
  -30.2475  -23.7515   19.9891 C   0  0  0  0  0  0  0  0  0  0  0  0
  -27.7292  -15.7619   20.4809 N   0  0  0  0  0  0  0  0  0  0  0  0
  -29.0263  -16.1005   20.3855 N   0  0  0  0  0  0  0  0  0  0  0  0
  -25.6664  -27.5089   25.6367 N   0  0  0  0  0  0  0  0  0  0  0  0
  -28.7006  -19.8057   19.5048 N   0  0  0  0  0  0  0  0  0  0  0  0
  -31.2126  -15.1943   20.2871 N   0  0  0  0  0  0  0  0  0  0  0  0
  -28.5824  -11.5371   20.6081 N   0  0  0  0  0  0  0  0  0  0  0  0
  -23.1057  -26.9432   23.2175 N   0  0  0  0  0  0  0  0  0  0  0  0
  -26.7816  -29.8598   27.8019 N   0  0  0  0  0  0  0  0  0  0  0  0
  -29.0591  -21.7674   18.1780 N   0  0  0  0  0  0  0  0  0  0  0  0
  -28.9353  -23.9534   19.2944 N   0  3  2  0  0  0  0  0  0  0  0  0
  -28.0614  -28.6098   30.9431 N   0  3  0  0  0  0  0  0  0  0  0  0
  -30.7527  -12.2624   20.4581 O   0  0  0  0  0  0  0  0  0  0  0  0
  -25.4240  -27.0664   23.0372 O   0  0  0  0  0  0  0  0  0  0  0  0
  -24.3765  -29.3186   26.3420 O   0  0  0  0  0  0  0  0  0  0  0  0
  -28.6830  -28.5933   28.1991 O   0  0  0  0  0  0  0  0  0  0  0  0
  -29.3103  -19.6574   17.2878 O   0  0  0  0  0  0  0  0  0  0  0  0
  -23.0224  -11.4992   20.9547 O   0  0  0  0  0  0  0  0  0  0  0  0
  -29.5982  -22.8608   24.6420 O   0  0  0  0  0  0  0  0  0  1  0  0
  -23.4089   -6.0025   21.1570 F   0  0  0  0  0  0  0  0  0  0  0  0
  -23.2694  -10.1828   23.3731 F   0  0  0  0  0  0  0  0  0  0  0  0
  1  2  1  0  0  0  0
  1  5  2  0  0  0  0
  2  6  2  0  0  0  0
  3  8  2  0  0  0  0
  3 15  1  0  0  0  0
  4  9  1  0  0  0  0
  4 15  2  0  0  0  0
  5 17  1  0  0  0  0
  6 19  1  0  0  0  0
  7 10  2  0  0  0  0
  7 18  1  0  0  0  0
  8 21  1  0  0  0  0
  9 21  2  0  0  0  0
 10 22  1  0  0  0  0
 11 12  2  0  0  0  0
 11 23  1  0  0  0  0
 12 24  1  0  0  0  0
 13 20  1  0  0  0  0
 13 22  2  0  0  0  0
 14 24  2  0  0  0  0
 14 25  1  0  0  0  0
 15 26  1  0  0  0  0
 16 26  1  0  0  0  0
 16 27  2  0  0  0  0
 16 28  1  0  0  0  0
 17 19  2  0  0  0  0
 17 33  1  0  0  0  0
 18 20  2  0  0  0  0
 18 34  1  0  0  0  0
 19 45  1  0  0  0  0
 20 35  1  0  0  0  0
 21 87  1  0  0  0  0
 22 88  1  0  0  0  0
 23 25  2  0  0  0  0
 23 87  1  0  0  0  0
 24 89  1  0  0  0  0
 25 90  1  0  0  0  0
 26 71  2  0  0  0  0
 27 72  1  0  0  0  0
 27 75  1  0  0  0  0
 28 76  1  0  0  0  0
 28 82  2  0  0  0  0
 29 46  1  0  0  0  0
 29 77  1  0  0  0  0
 29 83  2  0  0  0  0
 30 65  1  0  0  0  0
 30 73  1  0  0  0  0
 30 84  2  0  0  0  0
 31 66  1  0  0  0  0
 31 78  1  0  0  0  0
 31 85  2  0  0  0  0
 32 74  1  0  0  0  0
 32 79  1  0  0  0  0
 32 86  2  0  0  0  0
 33 36  1  0  0  0  0
 34 46  1  0  0  0  0
 35 73  1  0  0  0  0
 36 38  1  0  0  0  0
 37 39  1  0  0  0  0
 37 42  1  0  0  0  0
 38 45  1  0  0  0  0
 39 48  1  0  0  0  0
 40 44  1  0  0  0  0
 40 47  1  0  0  0  0
 41 47  1  0  0  0  0
 41 49  1  0  0  0  0
 42 74  1  0  0  0  0
 43 48  1  0  0  0  0
 43 74  1  0  0  0  0
 44 80  1  0  0  0  0
 45 77  1  0  0  0  0
 46 73  1  0  0  0  0
 47 67  1  0  0  0  0
 48 72  1  0  0  0  0
 49 79  1  0  0  0  0
 49 80  1  0  0  0  0
 50 66  1  0  0  0  0
 51 67  1  0  0  0  0
 52 67  1  0  0  0  0
 53 68  1  0  0  0  0
 54 68  1  0  0  0  0
 55 69  1  0  0  0  0
 56 69  1  0  0  0  0
 57 69  1  0  0  0  0
 58 70  1  0  0  0  0
 59 70  1  0  0  0  0
 60 81  1  0  0  0  0
 61 62  1  0  0  0  0
 61 63  1  0  0  0  0
 62 64  1  0  0  0  0
 63 70  1  0  0  0  0
 64 88  1  0  0  0  0
 65 69  1  0  0  0  0
 65 78  1  0  0  0  0
 66 81  1  0  0  0  0
 68 79  1  0  0  0  0
 70 80  1  0  0  0  0
 71 72  1  0  0  0  0
M  CHG  2  80   1  81   1
M  ISO  4  32 100  64 101  79 100  88 101
M  END
> <Batch ID>
0022

> <Smiles>
CNC(C)C(=O)NC(C(=O)N1Cc2cc([101O:1][101CH2:1]CCCC(C)(C)N3CCC(C(C)C)CC3[100N:0](C(C)C)[100C:0](=O)N3CCCC(n4nc(-c5ccc(Oc6ccc(F)cc6F)cc5)c(C(N)=O)c4N)C3)ccc2CC1C(=O)NC1CCCc2ccccc21)C(C)(C)C

> <Shape>
0.243

> <Color>
0.057

> <Negative vol penalty>
0.000

$$$$

  -OEChem-04052316153D

 85 93  0     1  0  0  0  0  0999 V2000
  -27.6898  -31.6472   27.7857 C   0  0  0  0  0  0  0  0  0  0  0  0
  -28.0627  -30.6286   26.9146 C   0  0  0  0  0  0  0  0  0  0  0  0
  -23.0001   -9.8916   19.9877 C   0  0  0  0  0  0  0  0  0  0  0  0
  -23.7200   -9.9574   22.2930 C   0  0  0  0  0  0  0  0  0  0  0  0
  -26.3971  -31.6785   28.3071 C   0  0  0  0  0  0  0  0  0  0  0  0
  -27.1434  -29.6401   26.5652 C   0  0  0  0  0  0  0  0  0  0  0  0
  -26.6624  -26.8054   21.1579 C   0  0  0  0  0  0  0  0  0  0  0  0
  -22.2336   -8.7584   20.2593 C   0  0  0  0  0  0  0  0  0  0  0  0
  -22.9534   -8.8241   22.5647 C   0  0  0  0  0  0  0  0  0  0  0  0
  -27.1216  -25.5703   20.7022 C   0  0  0  0  0  0  0  0  0  0  0  0
  -23.2006   -5.4824   22.1142 C   0  0  0  0  0  0  0  0  0  0  0  0
  -23.7870   -4.4703   22.8740 C   0  0  0  0  0  0  0  0  0  0  0  0
  -24.9723  -24.5945   21.1998 C   0  0  0  0  0  0  0  0  0  0  0  0
  -22.0591   -4.7227   24.5437 C   0  0  0  0  0  0  0  0  0  0  0  0
  -28.4140  -21.5214   17.9822 C   0  0  0  0  0  0  0  0  0  0  0  0
  -23.7434  -10.4911   21.0045 C   0  0  0  0  0  0  0  0  0  0  0  0
  -24.1277  -13.0057   20.8136 C   0  0  0  0  0  0  0  0  0  0  0  0
  -25.4585  -30.6953   27.9564 C   0  0  0  0  0  0  0  0  0  0  0  0
  -25.3560  -26.9420   21.6490 C   0  0  0  0  0  0  0  0  0  0  0  0
  -25.8373  -29.6575   27.0835 C   0  0  0  0  0  0  0  0  0  0  0  0
  -24.4982  -25.8329   21.6588 C   0  0  0  0  0  0  0  0  0  0  0  0
  -28.3578  -21.8006   19.3382 C   0  0  0  0  0  0  0  0  0  0  0  0
  -28.5777  -20.7549   20.2277 C   0  0  0  0  0  0  0  0  0  0  0  0
  -28.8433  -19.4798   19.7410 C   0  0  0  0  0  0  0  0  0  0  0  0
  -22.2102   -8.2247   21.5478 C   0  0  0  0  0  0  0  0  0  0  0  0
  -26.2774  -24.4640   20.7258 C   0  0  0  0  0  0  0  0  0  0  0  0
  -22.0435   -6.1148   22.5692 C   0  0  0  0  0  0  0  0  0  0  0  0
  -23.2162   -4.0904   24.0887 C   0  0  0  0  0  0  0  0  0  0  0  0
  -21.4728   -5.7349   23.7839 C   0  0  0  0  0  0  0  0  0  0  0  0
  -24.5358  -11.6614   20.7243 C   0  0  0  0  0  0  0  0  0  0  0  0
  -28.8775  -19.3043   18.3670 C   0  0  0  0  0  0  0  0  0  0  0  0
  -25.2379  -13.7266   20.4472 C   0  0  0  0  0  0  0  0  0  0  0  0
  -22.8586  -13.5539   21.1938 C   0  0  0  0  0  0  0  0  0  0  0  0
  -24.0849  -27.7508   24.4479 C   0  0  0  0  0  0  0  0  0  0  0  0
  -21.3035  -27.6091   22.7847 C   0  0  0  0  0  0  0  0  0  0  0  0
  -19.5872  -26.3644   20.1104 C   0  0  0  0  0  0  0  0  0  0  0  0
  -30.7332  -14.6658   20.7024 C   0  0  0  0  0  0  0  0  0  0  0  0
  -24.0874  -30.7444   28.5826 C   0  0  0  0  0  0  0  0  0  0  0  0
  -24.8674  -28.2871   22.1120 C   0  0  0  0  0  0  0  0  0  0  0  0
  -23.0803  -25.9314   22.1572 C   0  0  0  0  0  0  0  0  0  0  0  0
  -23.0600  -29.8696   27.8687 C   0  0  0  0  0  0  0  0  0  0  0  0
  -29.5992  -12.2269   18.3695 C   0  0  0  0  0  0  0  0  0  0  0  0
  -23.6405  -28.4878   27.5850 C   0  0  0  0  0  0  0  0  0  0  0  0
  -28.1499  -11.9690   18.7855 C   0  0  0  0  0  0  0  0  0  0  0  0
  -30.4987  -12.4703   19.5793 C   0  0  0  0  0  0  0  0  0  0  0  0
  -28.5851  -13.2731   20.9088 C   0  0  0  0  0  0  0  0  0  0  0  0
  -24.8610  -28.5812   26.6613 C   0  0  1  0  0  0  0  0  0  0  0  0
  -23.6835  -28.1954   23.0699 C   0  0  1  0  0  0  0  0  0  0  0  0
  -27.6289  -13.0775   19.7198 C   0  0  2  0  0  0  0  0  0  0  0  0
  -27.1823  -20.7296   23.8273 C   0  0  0  0  0  0  0  0  0  0  0  0
  -17.3192  -26.3972   19.0369 C   0  0  0  0  0  0  0  0  0  0  0  0
  -20.2636  -25.7041   24.9294 C   0  0  0  0  0  0  0  0  0  0  0  0
  -18.4310  -25.0446   23.3561 C   0  0  0  0  0  0  0  0  0  0  0  0
  -18.6028  -27.4034   24.1493 C   0  0  0  0  0  0  0  0  0  0  0  0
  -20.6554  -27.5535   17.6196 C   0  0  0  0  0  0  0  0  0  0  0  0
  -28.5280  -21.0043   21.7012 C   0  0  0  0  0  0  0  0  0  0  0  0
  -29.0821  -18.3437   20.6794 C   0  0  0  0  0  0  0  0  0  0  0  0
  -28.0671  -23.1963   19.8060 C   0  0  0  0  0  0  0  0  0  1  0  0
  -27.2170  -20.5052   22.3239 C   0  0  0  0  0  0  0  0  0  0  0  0
  -30.5669  -17.9804   20.8745 C   0  0  0  0  0  0  0  0  0  0  0  0
  -30.8121  -16.8521   21.8741 C   0  0  0  0  0  0  0  0  0  0  0  0
  -20.2920  -26.5298   22.4833 C   0  0  1  0  0  0  0  0  0  0  0  0
  -18.6971  -27.0391   19.0823 C   0  0  2  0  0  0  0  0  0  0  0  0
  -19.4246  -26.1678   23.7219 C   0  0  0  0  0  0  0  0  0  0  0  0
  -28.6691  -20.2958   17.4719 N   0  0  0  0  0  0  0  0  0  0  0  0
  -25.8061  -11.5331   20.3318 N   0  0  0  0  0  0  0  0  0  0  0  0
  -26.2057  -12.8061   20.1712 N   0  0  0  0  0  0  0  0  0  0  0  0
  -22.6512  -27.2665   22.6053 N   0  0  0  0  0  0  0  0  0  0  0  0
  -29.9494  -13.5340   20.4236 N   0  0  0  0  0  0  0  0  0  0  0  0
  -25.4709  -15.0518   20.3374 N   0  0  0  0  0  0  0  0  0  0  0  0
  -21.8265  -12.6713   21.5405 N   0  0  0  0  0  0  0  0  0  0  0  0
  -24.4431  -28.7855   25.2908 N   0  0  0  0  0  0  0  0  0  0  0  0
  -19.5257  -26.9981   21.3335 N   0  0  0  0  0  0  0  0  0  0  0  0
  -30.1345  -15.6293   21.5049 N   0  0  0  0  0  0  0  0  0  0  0  0
  -19.3062  -26.9408   17.7257 N   0  3  0  0  0  0  0  0  0  0  0  0
  -22.6412  -14.7892   21.2094 O   0  0  0  0  0  0  0  0  0  0  0  0
  -24.0693  -26.5575   24.7262 O   0  0  0  0  0  0  0  0  0  0  0  0
  -20.9120  -28.7175   23.1585 O   0  0  0  0  0  0  0  0  0  0  0  0
  -20.2660  -25.3722   19.8552 O   0  0  0  0  0  0  0  0  0  0  0  0
  -31.8796  -14.8096   20.2640 O   0  0  0  0  0  0  0  0  0  0  0  0
  -21.4621   -7.1190   21.8133 O   0  0  0  0  0  0  0  0  0  0  0  0
  -26.7232  -23.2572   20.2821 O   0  0  0  0  0  0  0  0  0  1  0  0
  -23.7786   -3.1173   24.8175 F   0  0  0  0  0  0  0  0  0  0  0  0
  -20.3606   -6.3380   24.2256 F   0  0  0  0  0  0  0  0  0  0  0  0
  -29.1952  -17.7773   17.6405 Cl  0  0  0  0  0  0  0  0  0  0  0  0
  1  2  1  0  0  0  0
  1  5  2  0  0  0  0
  2  6  2  0  0  0  0
  3  8  2  0  0  0  0
  3 16  1  0  0  0  0
  4  9  1  0  0  0  0
  4 16  2  0  0  0  0
  5 18  1  0  0  0  0
  6 20  1  0  0  0  0
  7 10  2  0  0  0  0
  7 19  1  0  0  0  0
  8 25  1  0  0  0  0
  9 25  2  0  0  0  0
 10 26  1  0  0  0  0
 11 12  2  0  0  0  0
 11 27  1  0  0  0  0
 12 28  1  0  0  0  0
 13 21  1  0  0  0  0
 13 26  2  0  0  0  0
 14 28  2  0  0  0  0
 14 29  1  0  0  0  0
 15 22  2  0  0  0  0
 15 65  1  0  0  0  0
 16 30  1  0  0  0  0
 17 30  1  0  0  0  0
 17 32  2  0  0  0  0
 17 33  1  0  0  0  0
 18 20  2  0  0  0  0
 18 38  1  0  0  0  0
 19 21  2  0  0  0  0
 19 39  1  0  0  0  0
 20 47  1  0  0  0  0
 21 40  1  0  0  0  0
 22 23  1  0  0  0  0
 22 58  1  0  0  0  0
 23 24  2  0  0  0  0
 23 56  1  0  0  0  0
 24 31  1  0  0  0  0
 24 57  1  0  0  0  0
 25 81  1  0  0  0  0
 26 82  1  0  0  0  0
 27 29  2  0  0  0  0
 27 81  1  0  0  0  0
 28 83  1  0  0  0  0
 29 84  1  0  0  0  0
 30 66  2  0  0  0  0
 31 65  2  0  0  0  0
 31 85  1  0  0  0  0
 32 67  1  0  0  0  0
 32 70  1  0  0  0  0
 33 71  1  0  0  0  0
 33 76  2  0  0  0  0
 34 48  1  0  0  0  0
 34 72  1  0  0  0  0
 34 77  2  0  0  0  0
 35 62  1  0  0  0  0
 35 68  1  0  0  0  0
 35 78  2  0  0  0  0
 36 63  1  0  0  0  0
 36 73  1  0  0  0  0
 36 79  2  0  0  0  0
 37 69  1  0  0  0  0
 37 74  1  0  0  0  0
 37 80  2  0  0  0  0
 38 41  1  0  0  0  0
 39 48  1  0  0  0  0
 40 68  1  0  0  0  0
 41 43  1  0  0  0  0
 42 44  1  0  0  0  0
 42 45  1  0  0  0  0
 43 47  1  0  0  0  0
 44 49  1  0  0  0  0
 45 69  1  0  0  0  0
 46 49  1  0  0  0  0
 46 69  1  0  0  0  0
 47 72  1  0  0  0  0
 48 68  1  0  0  0  0
 49 67  1  0  0  0  0
 50 59  1  0  0  0  0
 51 63  1  0  0  0  0
 52 64  1  0  0  0  0
 53 64  1  0  0  0  0
 54 64  1  0  0  0  0
 55 75  1  0  0  0  0
 56 59  1  0  0  0  0
 57 60  1  0  0  0  0
 58 82  1  0  0  0  0
 60 61  1  0  0  0  0
 61 74  1  0  0  0  0
 62 64  1  0  0  0  0
 62 73  1  0  0  0  0
 63 75  1  0  0  0  0
 66 67  1  0  0  0  0
M  CHG  1  75   1
M  ISO  4  37 100  58 101  74 100  82 101
M  END
> <Batch ID>
0022

> <Smiles>
CCCc1c([101CH2:1][101O:1]c2ccc3c(c2)CN(C(=O)C(NC(=O)C(C)NC)C(C)(C)C)C(C(=O)NC2CCCc4ccccc42)C3)cnc(Cl)c1CCC[100NH:0][100C:0](=O)N1CCCC(n2nc(-c3ccc(Oc4ccc(F)cc4F)cc3)c(C(N)=O)c2N)C1

> <Shape>
0.315

> <Color>
0.197

> <Negative vol penalty>
0.000

$$$$

  -OEChem-04052316153D

 81 89  0     1  0  0  0  0  0999 V2000
  -26.5612  -34.6245   22.9123 C   0  0  0  0  0  0  0  0  0  0  0  0
  -26.7950  -33.4089   22.2774 C   0  0  0  0  0  0  0  0  0  0  0  0
  -26.6593  -12.7591   21.7181 C   0  0  0  0  0  0  0  0  0  0  0  0
  -26.1370  -14.0146   19.7211 C   0  0  0  0  0  0  0  0  0  0  0  0
  -25.6090  -34.7077   23.9273 C   0  0  0  0  0  0  0  0  0  0  0  0
  -26.0774  -32.2754   22.6580 C   0  0  0  0  0  0  0  0  0  0  0  0
  -24.3936  -29.6188   18.6891 C   0  0  0  0  0  0  0  0  0  0  0  0
  -25.3634  -12.2431   21.7327 C   0  0  0  0  0  0  0  0  0  0  0  0
  -24.8412  -13.4986   19.7356 C   0  0  0  0  0  0  0  0  0  0  0  0
  -25.3146  -28.8055   18.0303 C   0  0  0  0  0  0  0  0  0  0  0  0
  -23.6259   -9.8277   20.1265 C   0  0  0  0  0  0  0  0  0  0  0  0
  -23.4749   -8.4612   20.3616 C   0  0  0  0  0  0  0  0  0  0  0  0
  -24.4544  -26.8855   19.2103 C   0  0  0  0  0  0  0  0  0  0  0  0
  -28.6127  -22.6589   17.8690 C   0  0  0  0  0  0  0  0  0  0  0  0
  -29.6279  -22.7878   20.4643 C   0  0  0  0  0  0  0  0  0  0  0  0
  -22.1515   -8.9450   22.3241 C   0  0  0  0  0  0  0  0  0  0  0  0
  -27.0460  -13.6449   20.7124 C   0  0  0  0  0  0  0  0  0  0  0  0
  -29.5113  -13.6295   20.0569 C   0  0  0  0  0  0  0  0  0  0  0  0
  -24.8725  -33.5769   24.3139 C   0  0  0  0  0  0  0  0  0  0  0  0
  -23.5018  -29.0723   19.6231 C   0  0  0  0  0  0  0  0  0  0  0  0
  -25.1153  -32.3433   23.6800 C   0  0  0  0  0  0  0  0  0  0  0  0
  -23.5212  -27.6936   19.8778 C   0  0  0  0  0  0  0  0  0  0  0  0
  -28.6324  -23.8757   18.5505 C   0  0  0  0  0  0  0  0  0  0  0  0
  -29.1006  -21.5065   18.4852 C   0  0  0  0  0  0  0  0  0  0  0  0
  -29.1400  -23.9402   19.8482 C   0  0  0  0  0  0  0  0  0  0  0  0
  -29.6082  -21.5709   19.7828 C   0  0  0  0  0  0  0  0  0  0  0  0
  -24.4544  -12.6128   20.7414 C   0  0  0  0  0  0  0  0  0  0  0  0
  -25.3471  -27.4392   18.2930 C   0  0  0  0  0  0  0  0  0  0  0  0
  -23.0398  -10.7530   20.9903 C   0  0  0  0  0  0  0  0  0  0  0  0
  -22.7377   -8.0198   21.4603 C   0  0  0  0  0  0  0  0  0  0  0  0
  -22.3025  -10.3116   22.0891 C   0  0  0  0  0  0  0  0  0  0  0  0
  -28.3843  -14.1787   20.6972 C   0  0  0  0  0  0  0  0  0  0  0  0
  -30.5292  -14.5067   20.3412 C   0  0  0  0  0  0  0  0  0  0  0  0
  -29.6277  -12.4333   19.2750 C   0  0  0  0  0  0  0  0  0  0  0  0
  -22.9820  -29.4791   22.7325 C   0  0  0  0  0  0  0  0  0  0  0  0
  -20.4676  -27.5074   22.1732 C   0  0  0  0  0  0  0  0  0  0  0  0
  -19.0676  -25.0782   20.2276 C   0  0  0  0  0  0  0  0  0  0  0  0
  -30.6432  -20.3220   21.7103 C   0  0  0  0  0  0  0  0  0  0  0  0
  -23.8873  -33.7053   25.4486 C   0  0  0  0  0  0  0  0  0  0  0  0
  -22.4964  -29.9588   20.3056 C   0  0  0  0  0  0  0  0  0  0  0  0
  -22.5716  -27.0544   20.8566 C   0  0  0  0  0  0  0  0  0  0  0  0
  -22.9038  -32.5411   25.5360 C   0  0  0  0  0  0  0  0  0  0  0  0
  -31.9462  -17.6479   23.6669 C   0  0  0  0  0  0  0  0  0  0  0  0
  -23.6387  -31.2106   25.4069 C   0  0  0  0  0  0  0  0  0  0  0  0
  -31.2879  -16.4042   23.0651 C   0  0  0  0  0  0  0  0  0  0  0  0
  -30.9960  -18.8440   23.6765 C   0  0  0  0  0  0  0  0  0  0  0  0
  -29.7279  -17.9193   21.7776 C   0  0  0  0  0  0  0  0  0  0  0  0
  -24.3395  -31.0971   24.0477 C   0  0  1  0  0  0  0  0  0  0  0  0
  -21.9798  -29.3767   21.6177 C   0  0  1  0  0  0  0  0  0  0  0  0
  -30.6676  -16.7059   21.6868 C   0  0  2  0  0  0  0  0  0  0  0  0
  -29.0673  -20.2166   17.7314 C   0  0  0  0  0  0  0  0  0  0  0  0
  -29.1710  -25.2318   20.5974 C   0  0  0  0  0  0  0  0  0  0  0  0
  -17.0207  -23.6381   20.0433 C   0  0  0  0  0  0  0  0  0  0  0  0
  -21.5063  -25.7456   24.4375 C   0  0  0  0  0  0  0  0  0  0  0  0
  -20.0295  -23.9090   23.5923 C   0  0  0  0  0  0  0  0  0  0  0  0
  -19.0234  -26.0432   24.4022 C   0  0  0  0  0  0  0  0  0  0  0  0
  -18.3599  -26.2200   17.5905 C   0  0  0  0  0  0  0  0  0  0  0  0
  -28.0987  -25.1092   17.8635 C   0  0  0  0  0  0  0  0  0  0  0  0
  -26.7043  -25.4871   18.3513 C   0  0  0  0  0  0  0  0  0  1  0  0
  -20.2555  -26.0129   22.1947 C   0  0  1  0  0  0  0  0  0  0  0  0
  -17.6798  -24.9439   19.6271 C   0  0  2  0  0  0  0  0  0  0  0  0
  -20.2230  -25.4397   23.6396 C   0  0  0  0  0  0  0  0  0  0  0  0
  -28.6599  -15.3166   21.3399 N   0  0  0  0  0  0  0  0  0  0  0  0
  -29.9718  -15.4896   21.1050 N   0  0  0  0  0  0  0  0  0  0  0  0
  -21.6114  -27.9641   21.5031 N   0  0  0  0  0  0  0  0  0  0  0  0
  -30.4506  -19.0725   22.3367 N   0  0  0  0  0  0  0  0  0  0  0  0
  -31.8378  -14.5255   20.0099 N   0  0  0  0  0  0  0  0  0  0  0  0
  -28.4834  -11.6477   19.0813 N   0  0  0  0  0  0  0  0  0  0  0  0
  -30.1085  -20.4115   20.4255 N   0  0  0  0  0  0  0  0  0  0  0  0
  -23.3831  -30.7716   23.0115 N   0  0  0  0  0  0  0  0  0  0  0  0
  -19.0420  -25.7618   21.4248 N   0  0  0  0  0  0  0  0  0  0  0  0
  -17.7537  -24.9796   18.1390 N   0  3  0  0  0  0  0  0  0  0  0  0
  -30.7180  -12.0633   18.7770 O   0  0  0  0  0  0  0  0  0  0  0  0
  -23.3621  -28.4609   23.2986 O   0  0  0  0  0  0  0  0  0  0  0  0
  -19.6449  -28.2430   22.7243 O   0  0  0  0  0  0  0  0  0  0  0  0
  -20.0731  -24.6191   19.6904 O   0  0  0  0  0  0  0  0  0  0  0  0
  -31.2623  -21.2357   22.2615 O   0  0  0  0  0  0  0  0  0  0  0  0
  -23.1899  -12.1094   20.7551 O   0  0  0  0  0  0  0  0  0  0  0  0
  -26.2455  -26.6432   17.6518 O   0  0  0  0  0  0  0  0  0  1  0  0
  -22.5915   -6.7074   21.6851 F   0  0  0  0  0  0  0  0  0  0  0  0
  -21.7361  -11.1957   22.9217 F   0  0  0  0  0  0  0  0  0  0  0  0
  1  2  1  0  0  0  0
  1  5  2  0  0  0  0
  2  6  2  0  0  0  0
  3  8  2  0  0  0  0
  3 17  1  0  0  0  0
  4  9  1  0  0  0  0
  4 17  2  0  0  0  0
  5 19  1  0  0  0  0
  6 21  1  0  0  0  0
  7 10  2  0  0  0  0
  7 20  1  0  0  0  0
  8 27  1  0  0  0  0
  9 27  2  0  0  0  0
 10 28  1  0  0  0  0
 11 12  2  0  0  0  0
 11 29  1  0  0  0  0
 12 30  1  0  0  0  0
 13 22  1  0  0  0  0
 13 28  2  0  0  0  0
 14 23  1  0  0  0  0
 14 24  2  0  0  0  0
 15 25  1  0  0  0  0
 15 26  2  0  0  0  0
 16 30  2  0  0  0  0
 16 31  1  0  0  0  0
 17 32  1  0  0  0  0
 18 32  1  0  0  0  0
 18 33  2  0  0  0  0
 18 34  1  0  0  0  0
 19 21  2  0  0  0  0
 19 39  1  0  0  0  0
 20 22  2  0  0  0  0
 20 40  1  0  0  0  0
 21 48  1  0  0  0  0
 22 41  1  0  0  0  0
 23 25  2  0  0  0  0
 23 58  1  0  0  0  0
 24 26  1  0  0  0  0
 24 51  1  0  0  0  0
 25 52  1  0  0  0  0
 26 69  1  0  0  0  0
 27 78  1  0  0  0  0
 28 79  1  0  0  0  0
 29 31  2  0  0  0  0
 29 78  1  0  0  0  0
 30 80  1  0  0  0  0
 31 81  1  0  0  0  0
 32 63  2  0  0  0  0
 33 64  1  0  0  0  0
 33 67  1  0  0  0  0
 34 68  1  0  0  0  0
 34 73  2  0  0  0  0
 35 49  1  0  0  0  0
 35 70  1  0  0  0  0
 35 74  2  0  0  0  0
 36 60  1  0  0  0  0
 36 65  1  0  0  0  0
 36 75  2  0  0  0  0
 37 61  1  0  0  0  0
 37 71  1  0  0  0  0
 37 76  2  0  0  0  0
 38 66  1  0  0  0  0
 38 69  1  0  0  0  0
 38 77  2  0  0  0  0
 39 42  1  0  0  0  0
 40 49  1  0  0  0  0
 41 65  1  0  0  0  0
 42 44  1  0  0  0  0
 43 45  1  0  0  0  0
 43 46  1  0  0  0  0
 44 48  1  0  0  0  0
 45 50  1  0  0  0  0
 46 66  1  0  0  0  0
 47 50  1  0  0  0  0
 47 66  1  0  0  0  0
 48 70  1  0  0  0  0
 49 65  1  0  0  0  0
 50 64  1  0  0  0  0
 53 61  1  0  0  0  0
 54 62  1  0  0  0  0
 55 62  1  0  0  0  0
 56 62  1  0  0  0  0
 57 72  1  0  0  0  0
 58 59  1  0  0  0  0
 59 79  1  0  0  0  0
 60 62  1  0  0  0  0
 60 71  1  0  0  0  0
 61 72  1  0  0  0  0
 63 64  1  0  0  0  0
M  CHG  1  72   1
M  ISO  4  38 100  59 101  69 100  79 101
M  END
> <Batch ID>
0022

> <Smiles>
CNC(C)C(=O)NC(C(=O)N1Cc2cc([101O:1][101CH2:1]Cc3cc(C)c([100NH:0][100C:0](=O)N4CCCC(n5nc(-c6ccc(Oc7ccc(F)cc7F)cc6)c(C(N)=O)c5N)C4)cc3C)ccc2CC1C(=O)NC1CCCc2ccccc21)C(C)(C)C

> <Shape>
0.333

> <Color>
0.067

> <Negative vol penalty>
0.000

$$$$

  -OEChem-04052316153D

 94102  0     1  0  0  0  0  0999 V2000
  -24.2286  -16.3635   10.6980 C   0  0  0  0  0  0  0  0  0  0  0  0
  -24.2570  -16.9523   11.9581 C   0  0  0  0  0  0  0  0  0  0  0  0
  -23.0737   -9.8707   19.9405 C   0  0  0  0  0  0  0  0  0  0  0  0
  -23.8386   -9.8734   22.2322 C   0  0  0  0  0  0  0  0  0  0  0  0
  -24.9794  -16.9094    9.6577 C   0  0  0  0  0  0  0  0  0  0  0  0
  -25.0372  -18.0868   12.1789 C   0  0  0  0  0  0  0  0  0  0  0  0
  -23.7487  -22.7727   15.9056 C   0  0  0  0  0  0  0  0  0  0  0  0
  -22.3307   -8.7169   20.1898 C   0  0  0  0  0  0  0  0  0  0  0  0
  -23.0956   -8.7196   22.4816 C   0  0  0  0  0  0  0  0  0  0  0  0
  -24.1608  -23.0815   17.2012 C   0  0  0  0  0  0  0  0  0  0  0  0
  -21.1143   -5.9793   23.8171 C   0  0  0  0  0  0  0  0  0  0  0  0
  -20.3606   -5.9332   24.9899 C   0  0  0  0  0  0  0  0  0  0  0  0
  -25.8892  -24.5060   16.3054 C   0  0  0  0  0  0  0  0  0  0  0  0
  -28.2602  -21.7388   18.2223 C   0  0  0  0  0  0  0  0  0  0  0  0
  -19.1139   -7.8716   24.2649 C   0  0  0  0  0  0  0  0  0  0  0  0
  -23.8278  -10.4490   20.9617 C   0  0  0  0  0  0  0  0  0  0  0  0
  -24.1687  -12.9745   20.8459 C   0  0  0  0  0  0  0  0  0  0  0  0
  -25.7616  -18.0568    9.8634 C   0  0  0  0  0  0  0  0  0  0  0  0
  -24.4118  -23.3205   14.7982 C   0  0  0  0  0  0  0  0  0  0  0  0
  -25.8002  -18.6477   11.1407 C   0  0  0  0  0  0  0  0  0  0  0  0
  -25.4820  -24.2045   14.9968 C   0  0  0  0  0  0  0  0  0  0  0  0
  -28.2393  -21.9025   19.6073 C   0  0  0  0  0  0  0  0  0  0  0  0
  -28.4920  -20.8140   20.4422 C   0  0  0  0  0  0  0  0  0  0  0  0
  -28.7655  -19.5617   19.8919 C   0  0  0  0  0  0  0  0  0  0  0  0
  -28.7863  -19.3980   18.5069 C   0  0  0  0  0  0  0  0  0  0  0  0
  -22.3416   -8.1413   21.4604 C   0  0  0  0  0  0  0  0  0  0  0  0
  -25.2331  -23.9460   17.4012 C   0  0  0  0  0  0  0  0  0  0  0  0
  -20.8679   -6.9716   22.8682 C   0  0  0  0  0  0  0  0  0  0  0  0
  -19.3604   -6.8793   25.2138 C   0  0  0  0  0  0  0  0  0  0  0  0
  -19.8677   -7.9177   23.0921 C   0  0  0  0  0  0  0  0  0  0  0  0
  -28.5336  -20.4865   17.6720 C   0  0  0  0  0  0  0  0  0  0  0  0
  -24.5960  -11.6406   20.7047 C   0  0  0  0  0  0  0  0  0  0  0  0
  -25.2598  -13.7249   20.4817 C   0  0  0  0  0  0  0  0  0  0  0  0
  -22.8990  -13.4891   21.2686 C   0  0  0  0  0  0  0  0  0  0  0  0
  -26.0565  -22.1287   12.3531 C   0  0  0  0  0  0  0  0  0  0  0  0
  -26.0547  -25.2144   11.3526 C   0  0  0  0  0  0  0  0  0  0  0  0
  -25.8143  -28.5216   12.1595 C   0  0  0  0  0  0  0  0  0  0  0  0
  -30.7437  -14.7451   20.6601 C   0  0  0  0  0  0  0  0  0  0  0  0
  -26.5932  -18.5828    8.7204 C   0  0  0  0  0  0  0  0  0  0  0  0
  -23.9380  -22.9984   13.4074 C   0  0  0  0  0  0  0  0  0  0  0  0
  -26.2144  -24.8353   13.8418 C   0  0  0  0  0  0  0  0  0  0  0  0
  -27.1006  -20.0056    8.9408 C   0  0  0  0  0  0  0  0  0  0  0  0
  -29.6015  -12.3650   18.2711 C   0  0  0  0  0  0  0  0  0  0  0  0
  -27.6820  -20.1539   10.3432 C   0  0  0  0  0  0  0  0  0  0  0  0
  -28.1651  -12.0700   18.7066 C   0  0  0  0  0  0  0  0  0  0  0  0
  -30.5212  -12.5837   19.4704 C   0  0  0  0  0  0  0  0  0  0  0  0
  -28.6223  -13.3115   20.8626 C   0  0  0  0  0  0  0  0  0  0  0  0
  -26.6148  -19.8936   11.4132 C   0  0  1  0  0  0  0  0  0  0  0  0
  -25.0131  -23.2099   12.3459 C   0  0  1  0  0  0  0  0  0  0  0  0
  -27.6456  -13.1390   19.6868 C   0  0  2  0  0  0  0  0  0  0  0  0
  -28.4687  -20.9929   21.9274 C   0  0  0  0  0  0  0  0  0  0  0  0
  -29.7984  -14.9522   14.8273 C   0  0  0  0  0  0  0  0  0  0  0  0
  -25.8887  -30.8103   11.1329 C   0  0  0  0  0  0  0  0  0  0  0  0
  -29.0909  -25.0123   11.1279 C   0  0  0  0  0  0  0  0  0  0  0  0
  -29.1808  -27.5126   11.0360 C   0  0  0  0  0  0  0  0  0  0  0  0
  -27.9857  -26.2428    9.2521 C   0  0  0  0  0  0  0  0  0  0  0  0
  -32.7212  -15.2327   16.4264 C   0  0  0  0  0  0  0  0  0  0  0  0
  -32.9672  -17.6426   16.9809 C   0  0  0  0  0  0  0  0  0  0  0  0
  -32.3988  -16.9553   14.6448 C   0  0  0  0  0  0  0  0  0  0  0  0
  -23.0466  -29.1233   13.0177 C   0  0  0  0  0  0  0  0  0  0  0  0
  -27.9411  -23.2665   20.1767 C   0  0  0  0  0  0  0  0  0  0  0  0
  -29.0368  -18.3951   20.7891 C   0  0  0  0  0  0  0  0  0  0  0  0
  -29.0813  -18.0479   17.9298 C   0  0  0  0  0  0  0  0  0  0  0  0
  -29.6569  -16.3691   15.3748 C   0  0  0  0  0  0  0  0  0  0  0  0
  -26.5213  -23.4059   20.7301 C   0  0  0  0  0  0  0  0  0  0  0  0
  -30.5288  -18.0491   20.9440 C   0  0  0  0  0  0  0  0  0  0  0  0
  -30.8117  -16.8932   21.9011 C   0  0  0  0  0  0  0  0  0  0  0  0
  -25.4407  -23.2513   19.6662 C   0  0  0  0  0  0  0  0  0  1  0  0
  -26.9598  -26.4051   11.5572 C   0  0  1  0  0  0  0  0  0  0  0  0
  -24.9999  -29.6499   11.5528 C   0  0  2  0  0  0  0  0  0  0  0  0
  -30.6360  -16.6933   16.5203 C   0  0  1  0  0  0  0  0  0  0  0  0
  -28.2919  -26.2800   10.7652 C   0  0  0  0  0  0  0  0  0  0  0  0
  -32.1534  -16.6388   16.1326 C   0  0  0  0  0  0  0  0  0  0  0  0
  -25.8599  -11.5459   20.2834 N   0  0  0  0  0  0  0  0  0  0  0  0
  -26.2362  -12.8298   20.1568 N   0  0  0  0  0  0  0  0  0  0  0  0
  -25.7176  -24.4842   12.5011 N   0  0  0  0  0  0  0  0  0  0  0  0
  -29.9723  -13.6103   20.3597 N   0  0  0  0  0  0  0  0  0  0  0  0
  -25.4697  -15.0566   20.4109 N   0  0  0  0  0  0  0  0  0  0  0  0
  -21.8880  -12.5790   21.6063 N   0  0  0  0  0  0  0  0  0  0  0  0
  -25.7487  -21.0445   11.5536 N   0  0  0  0  0  0  0  0  0  0  0  0
  -26.1693  -27.5824   11.2145 N   0  0  0  0  0  0  0  0  0  0  0  0
  -30.1462  -15.6721   21.5053 N   0  0  0  0  0  0  0  0  0  0  0  0
  -24.0011  -30.1550   12.5368 N   0  3  0  0  0  0  0  0  0  0  0  0
  -30.2875  -18.0341   17.0610 N   0  3  0  0  0  0  0  0  0  0  0  0
  -22.6625  -14.7196   21.3289 O   0  0  0  0  0  0  0  0  0  0  0  0
  -27.0667  -22.2685   13.0325 O   0  0  0  0  0  0  0  0  0  0  0  0
  -25.6555  -24.9463   10.2166 O   0  0  0  0  0  0  0  0  0  0  0  0
  -26.1095  -28.4797   13.3519 O   0  0  0  0  0  0  0  0  0  0  0  0
  -31.8786  -14.9217   20.2043 O   0  0  0  0  0  0  0  0  0  0  0  0
  -21.6165   -7.0156   21.7041 O   0  0  0  0  0  0  0  0  0  0  0  0
  -25.6378  -24.2486   18.6648 O   0  0  0  0  0  0  0  0  0  1  0  0
  -18.6357   -6.8340   26.3393 F   0  0  0  0  0  0  0  0  0  0  0  0
  -19.6255   -8.8726   22.1837 F   0  0  0  0  0  0  0  0  0  0  0  0
  -28.5508  -20.3261   15.9529 Cl  0  0  0  0  0  0  0  0  0  0  0  0
  1  2  1  0  0  0  0
  1  5  2  0  0  0  0
  2  6  2  0  0  0  0
  3  8  2  0  0  0  0
  3 16  1  0  0  0  0
  4  9  1  0  0  0  0
  4 16  2  0  0  0  0
  5 18  1  0  0  0  0
  6 20  1  0  0  0  0
  7 10  2  0  0  0  0
  7 19  1  0  0  0  0
  8 26  1  0  0  0  0
  9 26  2  0  0  0  0
 10 27  1  0  0  0  0
 11 12  2  0  0  0  0
 11 28  1  0  0  0  0
 12 29  1  0  0  0  0
 13 21  1  0  0  0  0
 13 27  2  0  0  0  0
 14 22  1  0  0  0  0
 14 31  2  0  0  0  0
 15 29  2  0  0  0  0
 15 30  1  0  0  0  0
 16 32  1  0  0  0  0
 17 32  1  0  0  0  0
 17 33  2  0  0  0  0
 17 34  1  0  0  0  0
 18 20  2  0  0  0  0
 18 39  1  0  0  0  0
 19 21  2  0  0  0  0
 19 40  1  0  0  0  0
 20 48  1  0  0  0  0
 21 41  1  0  0  0  0
 22 23  2  0  0  0  0
 22 61  1  0  0  0  0
 23 24  1  0  0  0  0
 23 51  1  0  0  0  0
 24 25  2  0  0  0  0
 24 62  1  0  0  0  0
 25 31  1  0  0  0  0
 25 63  1  0  0  0  0
 26 90  1  0  0  0  0
 27 91  1  0  0  0  0
 28 30  2  0  0  0  0
 28 90  1  0  0  0  0
 29 92  1  0  0  0  0
 30 93  1  0  0  0  0
 31 94  1  0  0  0  0
 32 74  2  0  0  0  0
 33 75  1  0  0  0  0
 33 78  1  0  0  0  0
 34 79  1  0  0  0  0
 34 85  2  0  0  0  0
 35 49  1  0  0  0  0
 35 80  1  0  0  0  0
 35 86  2  0  0  0  0
 36 69  1  0  0  0  0
 36 76  1  0  0  0  0
 36 87  2  0  0  0  0
 37 70  1  0  0  0  0
 37 81  1  0  0  0  0
 37 88  2  0  0  0  0
 38 77  1  0  0  0  0
 38 82  1  0  0  0  0
 38 89  2  0  0  0  0
 39 42  1  0  0  0  0
 40 49  1  0  0  0  0
 41 76  1  0  0  0  0
 42 44  1  0  0  0  0
 43 45  1  0  0  0  0
 43 46  1  0  0  0  0
 44 48  1  0  0  0  0
 45 50  1  0  0  0  0
 46 77  1  0  0  0  0
 47 50  1  0  0  0  0
 47 77  1  0  0  0  0
 48 80  1  0  0  0  0
 49 76  1  0  0  0  0
 50 75  1  0  0  0  0
 52 64  1  0  0  0  0
 53 70  1  0  0  0  0
 54 72  1  0  0  0  0
 55 72  1  0  0  0  0
 56 72  1  0  0  0  0
 57 73  1  0  0  0  0
 58 73  1  0  0  0  0
 59 73  1  0  0  0  0
 60 83  1  0  0  0  0
 61 65  1  0  0  0  0
 62 66  1  0  0  0  0
 63 84  1  0  0  0  0
 64 71  1  0  0  0  0
 65 68  1  0  0  0  0
 66 67  1  0  0  0  0
 67 82  1  0  0  0  0
 68 91  1  0  0  0  0
 69 72  1  0  0  0  0
 69 81  1  0  0  0  0
 70 83  1  0  0  0  0
 71 73  1  0  0  0  0
 71 84  1  0  0  0  0
 74 75  1  0  0  0  0
M  CHG  2  83   1  84   1
M  ISO  4  38 100  68 101  82 100  91 101
M  END
> <Batch ID>
0022

> <Smiles>
CCC(NCc1c(Cl)cc(CC[101CH2:1][101O:1]c2ccc3c(c2)CN(C(=O)C(NC(=O)C(C)NC)C(C)(C)C)C(C(=O)NC2CCCc4ccccc42)C3)c(C)c1CCC[100NH:0][100C:0](=O)N1CCCC(n2nc(-c3ccc(Oc4ccc(F)cc4F)cc3)c(C(N)=O)c2N)C1)C(C)(C)C

> <Shape>
0.205

> <Color>
0.184

> <Negative vol penalty>
0.000

$$$$

  -OEChem-04052316153D

 83 91  0     1  0  0  0  0  0999 V2000
  -27.2656  -33.5517   27.2290 C   0  0  0  0  0  0  0  0  0  0  0  0
  -27.6614  -32.5890   26.3060 C   0  0  0  0  0  0  0  0  0  0  0  0
  -26.8778  -14.8505   21.7383 C   0  0  0  0  0  0  0  0  0  0  0  0
  -26.3744  -14.8088   19.3757 C   0  0  0  0  0  0  0  0  0  0  0  0
  -25.9327  -33.6232   27.6319 C   0  0  0  0  0  0  0  0  0  0  0  0
  -26.7247  -31.6963   25.7862 C   0  0  0  0  0  0  0  0  0  0  0  0
  -27.1642  -31.1188   20.7744 C   0  0  0  0  0  0  0  0  0  0  0  0
  -26.6463  -13.4770   21.8119 C   0  0  0  0  0  0  0  0  0  0  0  0
  -26.1429  -13.4353   19.4493 C   0  0  0  0  0  0  0  0  0  0  0  0
  -28.1920  -30.2959   20.3160 C   0  0  0  0  0  0  0  0  0  0  0  0
  -23.6620  -11.3782   20.4714 C   0  0  0  0  0  0  0  0  0  0  0  0
  -22.5298  -10.8765   19.8297 C   0  0  0  0  0  0  0  0  0  0  0  0
  -26.6104  -28.5000   20.0120 C   0  0  0  0  0  0  0  0  0  0  0  0
  -23.9332   -9.4796   18.4455 C   0  0  0  0  0  0  0  0  0  0  0  0
  -26.7418  -15.5165   20.5202 C   0  0  0  0  0  0  0  0  0  0  0  0
  -28.2026  -17.5785   20.1716 C   0  0  0  0  0  0  0  0  0  0  0  0
  -24.9773  -32.7372   27.1094 C   0  0  0  0  0  0  0  0  0  0  0  0
  -25.8514  -30.6343   20.8655 C   0  0  0  0  0  0  0  0  0  0  0  0
  -25.3780  -31.7551   26.1835 C   0  0  0  0  0  0  0  0  0  0  0  0
  -25.5673  -29.3196   20.4694 C   0  0  0  0  0  0  0  0  0  0  0  0
  -28.1896  -26.5725   17.2975 C   0  0  0  0  0  0  0  0  0  0  0  0
  -27.5126  -25.9450   16.2519 C   0  0  0  0  0  0  0  0  0  0  0  0
  -28.0492  -26.0999   18.6024 C   0  0  0  0  0  0  0  0  0  0  0  0
  -26.6951  -24.8450   16.5110 C   0  0  0  0  0  0  0  0  0  0  0  0
  -27.2317  -24.9999   18.8616 C   0  0  0  0  0  0  0  0  0  0  0  0
  -26.5547  -24.3724   17.8159 C   0  0  0  0  0  0  0  0  0  0  0  0
  -26.2788  -12.7694   20.6674 C   0  0  0  0  0  0  0  0  0  0  0  0
  -27.9157  -28.9854   19.9374 C   0  0  0  0  0  0  0  0  0  0  0  0
  -24.9300  -10.9306   20.1002 C   0  0  0  0  0  0  0  0  0  0  0  0
  -22.6653   -9.9272   18.8168 C   0  0  0  0  0  0  0  0  0  0  0  0
  -25.0655   -9.9813   19.0872 C   0  0  0  0  0  0  0  0  0  0  0  0
  -26.9803  -16.9354   20.4436 C   0  0  0  0  0  0  0  0  0  0  0  0
  -27.9020  -18.9181   20.2112 C   0  0  0  0  0  0  0  0  0  0  0  0
  -29.4943  -17.0154   19.9068 C   0  0  0  0  0  0  0  0  0  0  0  0
  -23.7804  -30.1994   23.2373 C   0  0  0  0  0  0  0  0  0  0  0  0
  -21.7602  -29.4439   20.8144 C   0  0  0  0  0  0  0  0  0  0  0  0
  -21.3650  -28.3454   17.6076 C   0  0  0  0  0  0  0  0  0  0  0  0
  -24.6039  -23.2106   18.9074 C   0  0  0  0  0  0  0  0  0  0  0  0
  -23.5574  -32.8226   27.6107 C   0  0  0  0  0  0  0  0  0  0  0  0
  -24.7492  -31.5429   21.3367 C   0  0  0  0  0  0  0  0  0  0  0  0
  -24.1712  -28.7576   20.5290 C   0  0  0  0  0  0  0  0  0  0  0  0
  -22.5550  -32.0813   26.7299 C   0  0  0  0  0  0  0  0  0  0  0  0
  -23.7319  -21.3131   21.7911 C   0  0  0  0  0  0  0  0  0  0  0  0
  -23.0797  -30.6936   26.3753 C   0  0  0  0  0  0  0  0  0  0  0  0
  -24.5998  -20.0579   21.6753 C   0  0  0  0  0  0  0  0  0  0  0  0
  -23.2416  -21.7916   20.4257 C   0  0  0  0  0  0  0  0  0  0  0  0
  -25.1628  -20.7318   19.3055 C   0  0  0  0  0  0  0  0  0  0  0  0
  -24.3866  -30.7851   25.5783 C   0  0  1  0  0  0  0  0  0  0  0  0
  -23.5393  -30.7854   21.8749 C   0  0  1  0  0  0  0  0  0  0  0  0
  -25.7337  -20.2496   20.6490 C   0  0  2  0  0  0  0  0  0  0  0  0
  -29.0668  -27.7525   17.0194 C   0  0  0  0  0  0  0  0  0  0  0  0
  -27.6639  -26.4523   14.8522 C   0  0  0  0  0  0  0  0  0  0  0  0
  -25.9704  -24.1745   15.3853 C   0  0  0  0  0  0  0  0  0  0  0  0
  -27.0846  -24.4954   20.2637 C   0  0  0  0  0  0  0  0  0  0  0  0
  -30.1716  -26.1928   19.9553 C   0  0  0  0  0  0  0  0  0  0  0  0
  -19.5930  -27.7929   15.9188 C   0  0  0  0  0  0  0  0  0  0  0  0
  -21.1888  -26.8261   22.2741 C   0  0  0  0  0  0  0  0  0  0  0  0
  -20.2026  -25.9384   20.1509 C   0  0  0  0  0  0  0  0  0  0  0  0
  -19.1776  -27.9197   21.2674 C   0  0  0  0  0  0  0  0  0  0  0  0
  -22.3411  -30.4177   15.7336 C   0  0  0  0  0  0  0  0  0  0  0  0
  -28.7834  -26.7804   19.7350 C   0  0  1  0  0  0  0  0  0  1  0  0
  -21.3962  -28.1748   20.0823 C   0  0  1  0  0  0  0  0  0  0  0  0
  -20.5206  -28.8696   16.4601 C   0  0  2  0  0  0  0  0  0  0  0  0
  -20.5181  -27.2244   20.9443 C   0  0  0  0  0  0  0  0  0  0  0  0
  -25.9778  -17.7957   20.6415 N   0  0  0  0  0  0  0  0  0  0  0  0
  -26.5699  -18.9931   20.4938 N   0  0  0  0  0  0  0  0  0  0  0  0
  -23.1288  -29.6832   21.0026 N   0  0  0  0  0  0  0  0  0  0  0  0
  -24.3706  -21.9551   19.5073 N   0  0  0  0  0  0  0  0  0  0  0  0
  -28.6500  -20.0275   20.0315 N   0  0  0  0  0  0  0  0  0  0  0  0
  -29.6270  -15.6201   19.9039 N   0  0  0  0  0  0  0  0  0  0  0  0
  -25.7247  -23.2544   18.0789 N   0  0  0  0  0  0  0  0  0  0  0  0
  -24.1148  -31.1326   24.2000 N   0  0  0  0  0  0  0  0  0  0  0  0
  -20.7748  -28.5902   18.8294 N   0  0  0  0  0  0  0  0  0  0  0  0
  -21.3934  -29.3407   15.3478 N   0  3  0  0  0  0  0  0  0  0  0  0
  -30.5044  -17.7286   19.6957 O   0  0  0  0  0  0  0  0  0  0  0  0
  -23.6697  -28.9903   23.4032 O   0  0  0  0  0  0  0  0  0  0  0  0
  -20.8634  -30.1987   21.1988 O   0  0  0  0  0  0  0  0  0  0  0  0
  -22.4389  -27.7725   17.4368 O   0  0  0  0  0  0  0  0  0  0  0  0
  -23.8797  -24.1831   19.1348 O   0  0  0  0  0  0  0  0  0  0  0  0
  -26.0531  -11.4290   20.7388 O   0  0  0  0  0  0  0  0  0  0  0  0
  -28.9172  -28.1799   19.4903 O   0  0  0  0  0  0  0  0  0  1  0  0
  -21.5778   -9.4444   18.2017 F   0  0  0  0  0  0  0  0  0  0  0  0
  -26.2809   -9.5466   18.7270 F   0  0  0  0  0  0  0  0  0  0  0  0
  1  2  1  0  0  0  0
  1  5  2  0  0  0  0
  2  6  2  0  0  0  0
  3  8  2  0  0  0  0
  3 15  1  0  0  0  0
  4  9  1  0  0  0  0
  4 15  2  0  0  0  0
  5 17  1  0  0  0  0
  6 19  1  0  0  0  0
  7 10  2  0  0  0  0
  7 18  1  0  0  0  0
  8 27  1  0  0  0  0
  9 27  2  0  0  0  0
 10 28  1  0  0  0  0
 11 12  2  0  0  0  0
 11 29  1  0  0  0  0
 12 30  1  0  0  0  0
 13 20  1  0  0  0  0
 13 28  2  0  0  0  0
 14 30  2  0  0  0  0
 14 31  1  0  0  0  0
 15 32  1  0  0  0  0
 16 32  1  0  0  0  0
 16 33  2  0  0  0  0
 16 34  1  0  0  0  0
 17 19  2  0  0  0  0
 17 39  1  0  0  0  0
 18 20  2  0  0  0  0
 18 40  1  0  0  0  0
 19 48  1  0  0  0  0
 20 41  1  0  0  0  0
 21 22  2  0  0  0  0
 21 23  1  0  0  0  0
 21 51  1  0  0  0  0
 22 24  1  0  0  0  0
 22 52  1  0  0  0  0
 23 25  2  0  0  0  0
 23 61  1  0  0  0  0
 24 26  2  0  0  0  0
 24 53  1  0  0  0  0
 25 26  1  0  0  0  0
 25 54  1  0  0  0  0
 26 71  1  0  0  0  0
 27 80  1  0  0  0  0
 28 81  1  0  0  0  0
 29 31  2  0  0  0  0
 29 80  1  0  0  0  0
 30 82  1  0  0  0  0
 31 83  1  0  0  0  0
 32 65  2  0  0  0  0
 33 66  1  0  0  0  0
 33 69  1  0  0  0  0
 34 70  1  0  0  0  0
 34 75  2  0  0  0  0
 35 49  1  0  0  0  0
 35 72  1  0  0  0  0
 35 76  2  0  0  0  0
 36 62  1  0  0  0  0
 36 67  1  0  0  0  0
 36 77  2  0  0  0  0
 37 63  1  0  0  0  0
 37 73  1  0  0  0  0
 37 78  2  0  0  0  0
 38 68  1  0  0  0  0
 38 71  1  0  0  0  0
 38 79  2  0  0  0  0
 39 42  1  0  0  0  0
 40 49  1  0  0  0  0
 41 67  1  0  0  0  0
 42 44  1  0  0  0  0
 43 45  1  0  0  0  0
 43 46  1  0  0  0  0
 44 48  1  0  0  0  0
 45 50  1  0  0  0  0
 46 68  1  0  0  0  0
 47 50  1  0  0  0  0
 47 68  1  0  0  0  0
 48 72  1  0  0  0  0
 49 67  1  0  0  0  0
 50 66  1  0  0  0  0
 55 61  1  0  0  0  0
 56 63  1  0  0  0  0
 57 64  1  0  0  0  0
 58 64  1  0  0  0  0
 59 64  1  0  0  0  0
 60 74  1  0  0  0  0
 61 81  1  0  0  0  0
 62 64  1  0  0  0  0
 62 73  1  0  0  0  0
 63 74  1  0  0  0  0
 65 66  1  0  0  0  0
M  CHG  1  74   1
M  ISO  4  38 100  61 101  71 100  81 101
M  END
> <Batch ID>
0022

> <Smiles>
CNC(C)C(=O)NC(C(=O)N1Cc2cc([101O:1][101CH:1](C)c3c(C)c(C)c(C)c([100NH:0][100C:0](=O)N4CCCC(n5nc(-c6ccc(Oc7ccc(F)cc7F)cc6)c(C(N)=O)c5N)C4)c3C)ccc2CC1C(=O)NC1CCCc2ccccc21)C(C)(C)C

> <Shape>
0.230

> <Color>
0.087

> <Negative vol penalty>
0.000

$$$$

  -OEChem-04052316153D

 84 92  0     1  0  0  0  0  0999 V2000
  -17.9452  -28.0382   23.4949 C   0  0  0  0  0  0  0  0  0  0  0  0
  -19.3064  -28.2918   23.6301 C   0  0  0  0  0  0  0  0  0  0  0  0
  -26.9137  -13.0285   20.8211 C   0  0  0  0  0  0  0  0  0  0  0  0
  -27.3898  -12.5963   18.4922 C   0  0  0  0  0  0  0  0  0  0  0  0
  -17.5046  -27.0594   22.6051 C   0  0  0  0  0  0  0  0  0  0  0  0
  -20.2279  -27.5660   22.8761 C   0  0  0  0  0  0  0  0  0  0  0  0
  -25.5260  -29.6056   20.5792 C   0  0  0  0  0  0  0  0  0  0  0  0
  -26.3018  -11.7796   20.9278 C   0  0  0  0  0  0  0  0  0  0  0  0
  -26.7779  -11.3474   18.5989 C   0  0  0  0  0  0  0  0  0  0  0  0
  -26.8435  -29.4985   21.0222 C   0  0  0  0  0  0  0  0  0  0  0  0
  -23.3323  -10.3839   20.1165 C   0  0  0  0  0  0  0  0  0  0  0  0
  -22.1097  -10.3170   20.7846 C   0  0  0  0  0  0  0  0  0  0  0  0
  -27.1651  -27.5881   19.5846 C   0  0  0  0  0  0  0  0  0  0  0  0
  -29.9011  -23.6185   21.5562 C   0  0  0  0  0  0  0  0  0  0  0  0
  -23.0700   -8.7868   22.3888 C   0  0  0  0  0  0  0  0  0  0  0  0
  -27.4577  -13.4369   19.6033 C   0  0  0  0  0  0  0  0  0  0  0  0
  -29.4461  -15.0312   19.7130 C   0  0  0  0  0  0  0  0  0  0  0  0
  -18.4206  -26.3279   21.8328 C   0  0  0  0  0  0  0  0  0  0  0  0
  -25.0139  -28.6967   19.6421 C   0  0  0  0  0  0  0  0  0  0  0  0
  -19.7992  -26.5756   21.9761 C   0  0  0  0  0  0  0  0  0  0  0  0
  -25.8415  -27.6875   19.1294 C   0  0  0  0  0  0  0  0  0  0  0  0
  -30.3002  -24.5092   22.5526 C   0  0  0  0  0  0  0  0  0  0  0  0
  -28.9738  -23.2968   24.1675 C   0  0  0  0  0  0  0  0  0  0  0  0
  -29.0383  -22.5670   21.8653 C   0  0  0  0  0  0  0  0  0  0  0  0
  -26.2339  -10.9390   19.8167 C   0  0  0  0  0  0  0  0  0  0  0  0
  -27.6625  -28.4878   20.5271 C   0  0  0  0  0  0  0  0  0  0  0  0
  -24.4238   -9.6521   20.5845 C   0  0  0  0  0  0  0  0  0  0  0  0
  -21.9785   -9.5185   21.9207 C   0  0  0  0  0  0  0  0  0  0  0  0
  -24.2926   -8.8536   21.7206 C   0  0  0  0  0  0  0  0  0  0  0  0
  -29.8366  -24.3484   23.8583 C   0  0  0  0  0  0  0  0  0  0  0  0
  -28.5747  -22.4061   23.1710 C   0  0  0  0  0  0  0  0  0  0  0  0
  -28.0894  -14.7271   19.4923 C   0  0  0  0  0  0  0  0  0  0  0  0
  -29.5376  -16.3817   19.4801 C   0  0  0  0  0  0  0  0  0  0  0  0
  -30.5270  -14.1699   20.0942 C   0  0  0  0  0  0  0  0  0  0  0  0
  -22.6683  -26.5515   19.6479 C   0  0  0  0  0  0  0  0  0  0  0  0
  -23.4399  -26.2747   16.5094 C   0  0  0  0  0  0  0  0  0  0  0  0
  -25.7872  -26.6431   14.0595 C   0  0  0  0  0  0  0  0  0  0  0  0
  -27.2939  -21.5035   20.4436 C   0  0  0  0  0  0  0  0  0  0  0  0
  -17.8996  -25.2472   20.9189 C   0  0  0  0  0  0  0  0  0  0  0  0
  -23.5985  -28.8422   19.1544 C   0  0  0  0  0  0  0  0  0  0  0  0
  -25.3460  -26.6988   18.1069 C   0  0  0  0  0  0  0  0  0  0  0  0
  -18.9192  -24.7822   19.8823 C   0  0  0  0  0  0  0  0  0  0  0  0
  -26.2387  -19.6213   17.4513 C   0  0  0  0  0  0  0  0  0  0  0  0
  -20.2742  -24.5374   20.5387 C   0  0  0  0  0  0  0  0  0  0  0  0
  -26.6827  -18.1951   17.7720 C   0  0  0  0  0  0  0  0  0  0  0  0
  -25.8995  -20.4070   18.7145 C   0  0  0  0  0  0  0  0  0  0  0  0
  -27.4424  -18.9991   20.0440 C   0  0  0  0  0  0  0  0  0  0  0  0
  -20.8283  -25.8264   21.1576 C   0  0  1  0  0  0  0  0  0  0  0  0
  -23.0277  -27.5482   18.5824 C   0  0  1  0  0  0  0  0  0  0  0  0
  -27.8324  -18.1953   18.7944 C   0  0  1  0  0  0  0  0  0  0  0  0
  -28.5024  -23.1593   25.5799 C   0  0  0  0  0  0  0  0  0  0  0  0
  -26.1368  -26.2985   11.5986 C   0  0  0  0  0  0  0  0  0  0  0  0
  -23.7215  -23.2719   16.9723 C   0  0  0  0  0  0  0  0  0  0  0  0
  -24.9626  -23.1244   14.8029 C   0  0  0  0  0  0  0  0  0  0  0  0
  -22.5905  -23.8958   14.8307 C   0  0  0  0  0  0  0  0  0  0  0  0
  -29.6943  -21.1005   19.9482 C   0  0  0  0  0  0  0  0  0  0  0  0
  -26.2919  -29.5244   13.6099 C   0  0  0  0  0  0  0  0  0  0  0  0
  -31.2347  -25.6437   22.2163 C   0  0  0  0  0  0  0  0  0  0  0  0
  -30.5400  -27.0030   22.1101 C   0  0  0  0  0  0  0  0  0  0  0  0
  -29.5196  -27.0729   20.9799 C   0  0  0  0  0  0  0  0  0  1  0  0
  -24.4009  -25.4227   15.7158 C   0  0  1  0  0  0  0  0  0  0  0  0
  -25.7149  -27.2781   12.6826 C   0  0  2  0  0  0  0  0  0  0  0  0
  -23.9279  -23.9460   15.6011 C   0  0  0  0  0  0  0  0  0  0  0  0
  -27.3706  -15.7983   19.1460 N   0  0  0  0  0  0  0  0  0  0  0  0
  -28.2790  -16.7887   19.1475 N   0  0  0  0  0  0  0  0  0  0  0  0
  -23.9529  -26.8787   17.6660 N   0  0  0  0  0  0  0  0  0  0  0  0
  -26.9907  -20.3530   19.6881 N   0  0  0  0  0  0  0  0  0  0  0  0
  -30.5709  -17.2490   19.5297 N   0  0  0  0  0  0  0  0  0  0  0  0
  -30.2586  -12.8087   20.2927 N   0  0  0  0  0  0  0  0  0  0  0  0
  -21.3802  -26.6835   20.1304 N   0  0  0  0  0  0  0  0  0  0  0  0
  -24.5785  -26.0945   14.4330 N   0  0  0  0  0  0  0  0  0  0  0  0
  -28.6484  -21.6653   20.8071 N   0  0  0  0  0  0  0  0  0  0  0  0
  -26.6085  -28.4688   12.6137 N   0  3  0  0  0  0  0  0  0  0  0  0
  -31.6930  -14.5977   20.2701 O   0  0  0  0  0  0  0  0  0  0  0  0
  -23.4978  -25.7230   20.0046 O   0  0  0  0  0  0  0  0  0  0  0  0
  -22.2790  -26.4054   16.1136 O   0  0  0  0  0  0  0  0  0  0  0  0
  -26.8142  -26.6313   14.7346 O   0  0  0  0  0  0  0  0  0  0  0  0
  -26.4281  -22.3343   20.7431 O   0  0  0  0  0  0  0  0  0  0  0  0
  -25.6371   -9.7202   19.9206 O   0  0  0  0  0  0  0  0  0  0  0  0
  -28.9487  -28.3806   20.9583 O   0  0  0  0  0  0  0  0  0  1  0  0
  -20.8048   -9.4556   22.5631 F   0  0  0  0  0  0  0  0  0  0  0  0
  -25.3379   -8.1493   22.1757 F   0  0  0  0  0  0  0  0  0  0  0  0
  -30.2224  -25.2052   24.8157 F   0  0  0  0  0  0  0  0  0  0  0  0
  -27.5025  -21.1007   23.5611 Cl  0  0  0  0  0  0  0  0  0  0  0  0
  1  2  1  0  0  0  0
  1  5  2  0  0  0  0
  2  6  2  0  0  0  0
  3  8  2  0  0  0  0
  3 16  1  0  0  0  0
  4  9  1  0  0  0  0
  4 16  2  0  0  0  0
  5 18  1  0  0  0  0
  6 20  1  0  0  0  0
  7 10  2  0  0  0  0
  7 19  1  0  0  0  0
  8 25  1  0  0  0  0
  9 25  2  0  0  0  0
 10 26  1  0  0  0  0
 11 12  2  0  0  0  0
 11 27  1  0  0  0  0
 12 28  1  0  0  0  0
 13 21  1  0  0  0  0
 13 26  2  0  0  0  0
 14 22  1  0  0  0  0
 14 24  2  0  0  0  0
 15 28  2  0  0  0  0
 15 29  1  0  0  0  0
 16 32  1  0  0  0  0
 17 32  1  0  0  0  0
 17 33  2  0  0  0  0
 17 34  1  0  0  0  0
 18 20  2  0  0  0  0
 18 39  1  0  0  0  0
 19 21  2  0  0  0  0
 19 40  1  0  0  0  0
 20 48  1  0  0  0  0
 21 41  1  0  0  0  0
 22 30  2  0  0  0  0
 22 58  1  0  0  0  0
 23 30  1  0  0  0  0
 23 31  2  0  0  0  0
 23 51  1  0  0  0  0
 24 31  1  0  0  0  0
 24 72  1  0  0  0  0
 25 79  1  0  0  0  0
 26 80  1  0  0  0  0
 27 29  2  0  0  0  0
 27 79  1  0  0  0  0
 28 81  1  0  0  0  0
 29 82  1  0  0  0  0
 30 83  1  0  0  0  0
 31 84  1  0  0  0  0
 32 64  2  0  0  0  0
 33 65  1  0  0  0  0
 33 68  1  0  0  0  0
 34 69  1  0  0  0  0
 34 74  2  0  0  0  0
 35 49  1  0  0  0  0
 35 70  1  0  0  0  0
 35 75  2  0  0  0  0
 36 61  1  0  0  0  0
 36 66  1  0  0  0  0
 36 76  2  0  0  0  0
 37 62  1  0  0  0  0
 37 71  1  0  0  0  0
 37 77  2  0  0  0  0
 38 67  1  0  0  0  0
 38 72  1  0  0  0  0
 38 78  2  0  0  0  0
 39 42  1  0  0  0  0
 40 49  1  0  0  0  0
 41 66  1  0  0  0  0
 42 44  1  0  0  0  0
 43 45  1  0  0  0  0
 43 46  1  0  0  0  0
 44 48  1  0  0  0  0
 45 50  1  0  0  0  0
 46 67  1  0  0  0  0
 47 50  1  0  0  0  0
 47 67  1  0  0  0  0
 48 70  1  0  0  0  0
 49 66  1  0  0  0  0
 50 65  1  0  0  0  0
 52 62  1  0  0  0  0
 53 63  1  0  0  0  0
 54 63  1  0  0  0  0
 55 63  1  0  0  0  0
 56 72  1  0  0  0  0
 57 73  1  0  0  0  0
 58 59  1  0  0  0  0
 59 60  1  0  0  0  0
 60 80  1  0  0  0  0
 61 63  1  0  0  0  0
 61 71  1  0  0  0  0
 62 73  1  0  0  0  0
 64 65  1  0  0  0  0
M  CHG  1  73   1
M  ISO  4  38 100  60 101  72 100  80 101
M  END
> <Batch ID>
0022

> <Smiles>
CNC(C)C(=O)NC(C(=O)N1Cc2cc([101O:1][101CH2:1]CCc3cc([100N:0](C)[100C:0](=O)N4CCCC(n5nc(-c6ccc(Oc7ccc(F)cc7F)cc6)c(C(N)=O)c5N)C4)c(Cl)c(C)c3F)ccc2CC1C(=O)NC1CCCc2ccccc21)C(C)(C)C

> <Shape>
0.243

> <Color>
0.083

> <Negative vol penalty>
0.000

$$$$

  -OEChem-04052316153D

 77 84  0     1  0  0  0  0  0999 V2000
  -31.8270  -23.4145   16.7930 C   0  0  0  0  0  0  0  0  0  0  0  0
  -30.4383  -23.4788   16.8462 C   0  0  0  0  0  0  0  0  0  0  0  0
  -27.9730  -15.0403   21.1134 C   0  0  0  0  0  0  0  0  0  0  0  0
  -25.8352  -15.5261   20.0982 C   0  0  0  0  0  0  0  0  0  0  0  0
  -32.5763  -23.5770   17.9576 C   0  0  0  0  0  0  0  0  0  0  0  0
  -29.7980  -23.7045   18.0641 C   0  0  0  0  0  0  0  0  0  0  0  0
  -26.0862  -27.1303   17.7020 C   0  0  0  0  0  0  0  0  0  0  0  0
  -27.6764  -13.6776   21.0861 C   0  0  0  0  0  0  0  0  0  0  0  0
  -25.5386  -14.1634   20.0708 C   0  0  0  0  0  0  0  0  0  0  0  0
  -24.8773  -26.7037   17.1538 C   0  0  0  0  0  0  0  0  0  0  0  0
  -24.4754  -11.8011   22.2433 C   0  0  0  0  0  0  0  0  0  0  0  0
  -23.2033  -11.4063   22.6575 C   0  0  0  0  0  0  0  0  0  0  0  0
  -23.9556  -26.4842   19.3723 C   0  0  0  0  0  0  0  0  0  0  0  0
  -22.7925  -10.4445   20.4796 C   0  0  0  0  0  0  0  0  0  0  0  0
  -27.0524  -15.9646   20.6196 C   0  0  0  0  0  0  0  0  0  0  0  0
  -28.4378  -18.0208   20.0192 C   0  0  0  0  0  0  0  0  0  0  0  0
  -31.9452  -23.8144   19.1888 C   0  0  0  0  0  0  0  0  0  0  0  0
  -26.2426  -27.2267   19.0922 C   0  0  0  0  0  0  0  0  0  0  0  0
  -30.5395  -23.8690   19.2465 C   0  0  0  0  0  0  0  0  0  0  0  0
  -25.1666  -26.9147   19.9355 C   0  0  0  0  0  0  0  0  0  0  0  0
  -26.4592  -13.2392   20.5647 C   0  0  0  0  0  0  0  0  0  0  0  0
  -23.8128  -26.3778   17.9890 C   0  0  0  0  0  0  0  0  0  0  0  0
  -24.9060  -11.5177   20.9472 C   0  0  0  0  0  0  0  0  0  0  0  0
  -22.3619  -10.7280   21.7757 C   0  0  0  0  0  0  0  0  0  0  0  0
  -24.0646  -10.8394   20.0653 C   0  0  0  0  0  0  0  0  0  0  0  0
  -27.3580  -17.3724   20.6481 C   0  0  0  0  0  0  0  0  0  0  0  0
  -28.2822  -19.3450   20.3488 C   0  0  0  0  0  0  0  0  0  0  0  0
  -29.4876  -17.4748   19.2095 C   0  0  0  0  0  0  0  0  0  0  0  0
  -28.1253  -25.8313   21.2398 C   0  0  0  0  0  0  0  0  0  0  0  0
  -26.7428  -27.9597   23.2600 C   0  0  0  0  0  0  0  0  0  0  0  0
  -24.0829  -29.9783   23.9651 C   0  0  0  0  0  0  0  0  0  0  0  0
  -23.5211  -22.6291   21.8974 C   0  0  0  0  0  0  0  0  0  0  0  0
  -32.7954  -23.9367   20.4286 C   0  0  0  0  0  0  0  0  0  0  0  0
  -27.5444  -27.7140   19.6669 C   0  0  0  0  0  0  0  0  0  0  0  0
  -25.2768  -27.0208   21.4339 C   0  0  0  0  0  0  0  0  0  0  0  0
  -32.0554  -24.5455   21.6169 C   0  0  0  0  0  0  0  0  0  0  0  0
  -26.5066  -22.1658   23.7812 C   0  0  0  0  0  0  0  0  0  0  0  0
  -30.6843  -23.8974   21.7810 C   0  0  0  0  0  0  0  0  0  0  0  0
  -27.1608  -20.9432   23.1351 C   0  0  0  0  0  0  0  0  0  0  0  0
  -24.9847  -22.0433   23.8082 C   0  0  0  0  0  0  0  0  0  0  0  0
  -25.0167  -20.5416   21.8543 C   0  0  0  0  0  0  0  0  0  0  0  0
  -29.8094  -24.1369   20.5447 C   0  0  1  0  0  0  0  0  0  0  0  0
  -27.7571  -27.2827   21.1147 C   0  0  1  0  0  0  0  0  0  0  0  0
  -26.5483  -20.6440   21.7536 C   0  0  2  0  0  0  0  0  0  0  0  0
  -22.7273  -31.7029   25.1838 C   0  0  0  0  0  0  0  0  0  0  0  0
  -26.0201  -25.5988   25.0527 C   0  0  0  0  0  0  0  0  0  0  0  0
  -24.3887  -27.0853   26.2346 C   0  0  0  0  0  0  0  0  0  0  0  0
  -26.8231  -27.6283   26.2736 C   0  0  0  0  0  0  0  0  0  0  0  0
  -21.0509  -24.1631   17.2790 C   0  0  0  0  0  0  0  0  0  0  0  0
  -25.2708  -32.1889   22.3963 C   0  0  0  0  0  0  0  0  0  0  0  0
  -22.8108  -24.1675   19.0637 C   0  0  0  0  0  0  0  0  0  0  0  0
  -22.1209  -23.0910   19.9011 C   0  0  0  0  0  0  0  0  0  0  0  0
  -20.9388  -25.8872   19.1577 C   0  0  0  0  0  0  0  0  0  0  0  0
  -25.5136  -27.9588   24.1364 C   0  0  1  0  0  0  0  0  0  0  0  0
  -24.0085  -31.4270   24.4125 C   0  0  2  0  0  0  0  0  0  0  0  0
  -25.6846  -27.0638   25.3962 C   0  0  0  0  0  0  0  0  0  0  0  0
  -21.8506  -25.0572   18.2373 C   0  0  2  0  0  0  0  0  0  1  0  0
  -26.5744  -18.2152   21.3260 N   0  0  0  0  0  0  0  0  0  0  0  0
  -27.1625  -19.4068   21.1251 N   0  0  0  0  0  0  0  0  0  0  0  0
  -26.5720  -27.4959   21.9479 N   0  0  0  0  0  0  0  0  0  0  0  0
  -24.4671  -21.7611   22.4672 N   0  0  0  0  0  0  0  0  0  0  0  0
  -28.9953  -20.4509   20.0475 N   0  0  0  0  0  0  0  0  0  0  0  0
  -29.2881  -17.3903   17.8248 N   0  0  0  0  0  0  0  0  0  0  0  0
  -29.2745  -25.4815   20.5568 N   0  0  0  0  0  0  0  0  0  0  0  0
  -25.2220  -29.3574   24.4320 N   0  0  0  0  0  0  0  0  0  0  0  0
  -23.0875  -22.2921   20.6210 N   0  0  0  0  0  0  0  0  0  0  0  0
  -24.0518  -32.3364   23.2326 N   0  3  0  0  0  0  0  0  0  0  0  0
  -30.5639  -17.0587   19.7012 O   0  0  0  0  0  0  0  0  0  0  0  0
  -27.4198  -25.0845   21.9078 O   0  0  0  0  0  0  0  0  0  0  0  0
  -27.8134  -28.3639   23.7204 O   0  0  0  0  0  0  0  0  0  0  0  0
  -23.2152  -29.4492   23.2739 O   0  0  0  0  0  0  0  0  0  0  0  0
  -23.0986  -23.6332   22.4806 O   0  0  0  0  0  0  0  0  0  0  0  0
  -26.1695  -11.9096   20.5377 O   0  0  0  0  0  0  0  0  0  0  0  0
  -22.6320  -25.9606   17.4566 O   0  0  0  0  0  0  0  0  0  1  0  0
  -21.1410  -10.3476   22.1741 F   0  0  0  0  0  0  0  0  0  0  0  0
  -24.4732  -10.5632   18.8193 F   0  0  0  0  0  0  0  0  0  0  0  0
  -19.8545  -26.9928   18.2660 Cl  0  0  0  0  0  0  0  0  0  0  0  0
  1  2  1  0  0  0  0
  1  5  2  0  0  0  0
  2  6  2  0  0  0  0
  3  8  2  0  0  0  0
  3 15  1  0  0  0  0
  4  9  1  0  0  0  0
  4 15  2  0  0  0  0
  5 17  1  0  0  0  0
  6 19  1  0  0  0  0
  7 10  2  0  0  0  0
  7 18  1  0  0  0  0
  8 21  1  0  0  0  0
  9 21  2  0  0  0  0
 10 22  1  0  0  0  0
 11 12  2  0  0  0  0
 11 23  1  0  0  0  0
 12 24  1  0  0  0  0
 13 20  1  0  0  0  0
 13 22  2  0  0  0  0
 14 24  2  0  0  0  0
 14 25  1  0  0  0  0
 15 26  1  0  0  0  0
 16 26  1  0  0  0  0
 16 27  2  0  0  0  0
 16 28  1  0  0  0  0
 17 19  2  0  0  0  0
 17 33  1  0  0  0  0
 18 20  2  0  0  0  0
 18 34  1  0  0  0  0
 19 42  1  0  0  0  0
 20 35  1  0  0  0  0
 21 73  1  0  0  0  0
 22 74  1  0  0  0  0
 23 25  2  0  0  0  0
 23 73  1  0  0  0  0
 24 75  1  0  0  0  0
 25 76  1  0  0  0  0
 26 58  2  0  0  0  0
 27 59  1  0  0  0  0
 27 62  1  0  0  0  0
 28 63  1  0  0  0  0
 28 68  2  0  0  0  0
 29 43  1  0  0  0  0
 29 64  1  0  0  0  0
 29 69  2  0  0  0  0
 30 54  1  0  0  0  0
 30 60  1  0  0  0  0
 30 70  2  0  0  0  0
 31 55  1  0  0  0  0
 31 65  1  0  0  0  0
 31 71  2  0  0  0  0
 32 61  1  0  0  0  0
 32 66  1  0  0  0  0
 32 72  2  0  0  0  0
 33 36  1  0  0  0  0
 34 43  1  0  0  0  0
 35 60  1  0  0  0  0
 36 38  1  0  0  0  0
 37 39  1  0  0  0  0
 37 40  1  0  0  0  0
 38 42  1  0  0  0  0
 39 44  1  0  0  0  0
 40 61  1  0  0  0  0
 41 44  1  0  0  0  0
 41 61  1  0  0  0  0
 42 64  1  0  0  0  0
 43 60  1  0  0  0  0
 44 59  1  0  0  0  0
 45 55  1  0  0  0  0
 46 56  1  0  0  0  0
 47 56  1  0  0  0  0
 48 56  1  0  0  0  0
 49 57  1  0  0  0  0
 50 67  1  0  0  0  0
 51 52  1  0  0  0  0
 51 57  1  0  0  0  0
 52 66  1  0  0  0  0
 53 57  1  0  0  0  0
 53 77  1  0  0  0  0
 54 56  1  0  0  0  0
 54 65  1  0  0  0  0
 55 67  1  0  0  0  0
 57 74  1  0  0  0  0
 58 59  1  0  0  0  0
M  CHG  1  67   1
M  ISO  4  32 100  57 101  66 100  74 101
M  END
> <Batch ID>
0022

> <Smiles>
CNC(C)C(=O)NC(C(=O)N1Cc2cc([101O:1][101C:1](C)(CCl)CC[100NH:0][100C:0](=O)N3CCCC(n4nc(-c5ccc(Oc6ccc(F)cc6F)cc5)c(C(N)=O)c4N)C3)ccc2CC1C(=O)NC1CCCc2ccccc21)C(C)(C)C

> <Shape>
0.190

> <Color>
0.067

> <Negative vol penalty>
0.000

$$$$

  -OEChem-04052316153D

 81 89  0     1  0  0  0  0  0999 V2000
  -27.5697  -32.2672   22.4521 C   0  0  0  0  0  0  0  0  0  0  0  0
  -27.9703  -31.0051   22.0254 C   0  0  0  0  0  0  0  0  0  0  0  0
  -23.1191   -9.7650   20.6124 C   0  0  0  0  0  0  0  0  0  0  0  0
  -23.7224  -10.3472   22.8782 C   0  0  0  0  0  0  0  0  0  0  0  0
  -27.2704  -32.4849   23.7963 C   0  0  0  0  0  0  0  0  0  0  0  0
  -28.0727  -29.9601   22.9430 C   0  0  0  0  0  0  0  0  0  0  0  0
  -26.8672  -24.0415   21.9319 C   0  0  0  0  0  0  0  0  0  0  0  0
  -22.3656   -8.6922   21.0886 C   0  0  0  0  0  0  0  0  0  0  0  0
  -22.9689   -9.2744   23.3545 C   0  0  0  0  0  0  0  0  0  0  0  0
  -27.6891  -22.9527   21.6441 C   0  0  0  0  0  0  0  0  0  0  0  0
  -19.9904   -6.0160   21.7303 C   0  0  0  0  0  0  0  0  0  0  0  0
  -18.7209   -5.8227   21.1857 C   0  0  0  0  0  0  0  0  0  0  0  0
  -27.7134  -22.3608   23.9826 C   0  0  0  0  0  0  0  0  0  0  0  0
  -31.8800  -17.1083   22.0527 C   0  0  0  0  0  0  0  0  0  0  0  0
  -18.0586   -8.0165   21.9511 C   0  0  0  0  0  0  0  0  0  0  0  0
  -23.7975  -10.5925   21.5072 C   0  0  0  0  0  0  0  0  0  0  0  0
  -24.1346  -13.0188   20.7949 C   0  0  0  0  0  0  0  0  0  0  0  0
  -27.3599  -31.4397   24.7292 C   0  0  0  0  0  0  0  0  0  0  0  0
  -26.4705  -24.3049   23.2508 C   0  0  0  0  0  0  0  0  0  0  0  0
  -27.7756  -30.1643   24.3012 C   0  0  0  0  0  0  0  0  0  0  0  0
  -26.8844  -23.4521   24.2840 C   0  0  0  0  0  0  0  0  0  0  0  0
  -30.2135  -19.1405   22.9885 C   0  0  0  0  0  0  0  0  0  0  0  0
  -29.6720  -18.0587   22.2939 C   0  0  0  0  0  0  0  0  0  0  0  0
  -31.5882  -19.2061   23.2151 C   0  0  0  0  0  0  0  0  0  0  0  0
  -30.5053  -17.0427   21.8261 C   0  0  0  0  0  0  0  0  0  0  0  0
  -22.2904   -8.4469   22.4597 C   0  0  0  0  0  0  0  0  0  0  0  0
  -28.1147  -22.1138   22.6699 C   0  0  0  0  0  0  0  0  0  0  0  0
  -20.2940   -7.2095   22.3854 C   0  0  0  0  0  0  0  0  0  0  0  0
  -17.7550   -6.8230   21.2961 C   0  0  0  0  0  0  0  0  0  0  0  0
  -19.3281   -8.2098   22.4957 C   0  0  0  0  0  0  0  0  0  0  0  0
  -32.4215  -18.1900   22.7473 C   0  0  0  0  0  0  0  0  0  0  0  0
  -24.5765  -11.7006   21.0157 C   0  0  0  0  0  0  0  0  0  0  0  0
  -25.2451  -13.6800   20.3302 C   0  0  0  0  0  0  0  0  0  0  0  0
  -22.8362  -13.5942   20.9923 C   0  0  0  0  0  0  0  0  0  0  0  0
  -26.8941  -26.7127   25.2822 C   0  0  0  0  0  0  0  0  0  0  0  0
  -24.8528  -24.9992   27.1314 C   0  0  0  0  0  0  0  0  0  0  0  0
  -23.4974  -21.9643   27.9051 C   0  0  0  0  0  0  0  0  0  0  0  0
  -30.6820  -14.8521   20.5946 C   0  0  0  0  0  0  0  0  0  0  0  0
  -27.0717  -31.7347   26.1799 C   0  0  0  0  0  0  0  0  0  0  0  0
  -25.5619  -25.4679   23.5410 C   0  0  0  0  0  0  0  0  0  0  0  0
  -26.4699  -23.6796   25.7141 C   0  0  0  0  0  0  0  0  0  0  0  0
  -26.8440  -30.4824   27.0226 C   0  0  0  0  0  0  0  0  0  0  0  0
  -29.7416  -11.9105   18.8226 C   0  0  0  0  0  0  0  0  0  0  0  0
  -27.9183  -29.4397   26.7303 C   0  0  0  0  0  0  0  0  0  0  0  0
  -28.2776  -11.7021   19.2171 C   0  0  0  0  0  0  0  0  0  0  0  0
  -30.5724  -12.4448   19.9880 C   0  0  0  0  0  0  0  0  0  0  0  0
  -28.5731  -13.4438   21.0244 C   0  0  0  0  0  0  0  0  0  0  0  0
  -27.8748  -28.9994   25.2620 C   0  0  1  0  0  0  0  0  0  0  0  0
  -25.6393  -25.9397   24.9898 C   0  0  1  0  0  0  0  0  0  0  0  0
  -27.6828  -12.9679   19.8648 C   0  0  2  0  0  0  0  0  0  0  0  0
  -28.1964  -17.9900   22.0516 C   0  0  0  0  0  0  0  0  0  0  0  0
  -32.1559  -20.3730   23.9621 C   0  0  0  0  0  0  0  0  0  0  0  0
  -21.8848  -20.8730   29.4881 C   0  0  0  0  0  0  0  0  0  0  0  0
  -26.9341  -25.1575   29.3569 C   0  0  0  0  0  0  0  0  0  0  0  0
  -25.7248  -23.3023   30.5247 C   0  0  0  0  0  0  0  0  0  0  0  0
  -24.5717  -25.4757   30.1134 C   0  0  0  0  0  0  0  0  0  0  0  0
  -21.7428  -21.0806   25.6917 C   0  0  0  0  0  0  0  0  0  0  0  0
  -29.3159  -20.2328   23.4912 C   0  0  0  0  0  0  0  0  0  1  0  0
  -25.0056  -23.9159   28.1716 C   0  0  1  0  0  0  0  0  0  0  0  0
  -22.0598  -21.5305   28.1281 C   0  0  2  0  0  0  0  0  0  0  0  0
  -25.5686  -24.4594   29.5151 C   0  0  0  0  0  0  0  0  0  0  0  0
  -25.8672  -11.5324   20.7158 N   0  0  0  0  0  0  0  0  0  0  0  0
  -26.2457  -12.7536   20.3017 N   0  0  0  0  0  0  0  0  0  0  0  0
  -25.5862  -24.8336   25.9479 N   0  0  0  0  0  0  0  0  0  0  0  0
  -29.9505  -13.6464   20.5486 N   0  0  0  0  0  0  0  0  0  0  0  0
  -25.4536  -14.9576   19.9472 N   0  0  0  0  0  0  0  0  0  0  0  0
  -21.8082  -12.7735   21.4761 N   0  0  0  0  0  0  0  0  0  0  0  0
  -29.9764  -15.9349   21.1183 N   0  0  0  0  0  0  0  0  0  0  0  0
  -26.7869  -28.0699   25.0452 N   0  0  0  0  0  0  0  0  0  0  0  0
  -23.7008  -23.2736   28.2867 N   0  0  0  0  0  0  0  0  0  0  0  0
  -21.6437  -20.5576   27.0787 N   0  3  0  0  0  0  0  0  0  0  0  0
  -22.5907  -14.7963   20.7313 O   0  0  0  0  0  0  0  0  0  0  0  0
  -27.8856  -26.1219   25.6939 O   0  0  0  0  0  0  0  0  0  0  0  0
  -24.1047  -25.9536   27.3576 O   0  0  0  0  0  0  0  0  0  0  0  0
  -24.3551  -21.2154   27.4425 O   0  0  0  0  0  0  0  0  0  0  0  0
  -31.8392  -14.9255   20.1735 O   0  0  0  0  0  0  0  0  0  0  0  0
  -21.5551   -7.4002   22.9248 O   0  0  0  0  0  0  0  0  0  0  0  0
  -28.9175  -21.0507   22.3919 O   0  0  0  0  0  0  0  0  0  1  0  0
  -16.5364   -6.6378   20.7717 F   0  0  0  0  0  0  0  0  0  0  0  0
  -19.6143   -9.3590   23.1228 F   0  0  0  0  0  0  0  0  0  0  0  0
  -34.1280  -18.2338   23.0070 Cl  0  0  0  0  0  0  0  0  0  0  0  0
  1  2  1  0  0  0  0
  1  5  2  0  0  0  0
  2  6  2  0  0  0  0
  3  8  2  0  0  0  0
  3 16  1  0  0  0  0
  4  9  1  0  0  0  0
  4 16  2  0  0  0  0
  5 18  1  0  0  0  0
  6 20  1  0  0  0  0
  7 10  2  0  0  0  0
  7 19  1  0  0  0  0
  8 26  1  0  0  0  0
  9 26  2  0  0  0  0
 10 27  1  0  0  0  0
 11 12  2  0  0  0  0
 11 28  1  0  0  0  0
 12 29  1  0  0  0  0
 13 21  1  0  0  0  0
 13 27  2  0  0  0  0
 14 25  2  0  0  0  0
 14 31  1  0  0  0  0
 15 29  2  0  0  0  0
 15 30  1  0  0  0  0
 16 32  1  0  0  0  0
 17 32  1  0  0  0  0
 17 33  2  0  0  0  0
 17 34  1  0  0  0  0
 18 20  2  0  0  0  0
 18 39  1  0  0  0  0
 19 21  2  0  0  0  0
 19 40  1  0  0  0  0
 20 48  1  0  0  0  0
 21 41  1  0  0  0  0
 22 23  2  0  0  0  0
 22 24  1  0  0  0  0
 22 58  1  0  0  0  0
 23 25  1  0  0  0  0
 23 51  1  0  0  0  0
 24 31  2  0  0  0  0
 24 52  1  0  0  0  0
 25 68  1  0  0  0  0
 26 77  1  0  0  0  0
 27 78  1  0  0  0  0
 28 30  2  0  0  0  0
 28 77  1  0  0  0  0
 29 79  1  0  0  0  0
 30 80  1  0  0  0  0
 31 81  1  0  0  0  0
 32 62  2  0  0  0  0
 33 63  1  0  0  0  0
 33 66  1  0  0  0  0
 34 67  1  0  0  0  0
 34 72  2  0  0  0  0
 35 49  1  0  0  0  0
 35 69  1  0  0  0  0
 35 73  2  0  0  0  0
 36 59  1  0  0  0  0
 36 64  1  0  0  0  0
 36 74  2  0  0  0  0
 37 60  1  0  0  0  0
 37 70  1  0  0  0  0
 37 75  2  0  0  0  0
 38 65  1  0  0  0  0
 38 68  1  0  0  0  0
 38 76  2  0  0  0  0
 39 42  1  0  0  0  0
 40 49  1  0  0  0  0
 41 64  1  0  0  0  0
 42 44  1  0  0  0  0
 43 45  1  0  0  0  0
 43 46  1  0  0  0  0
 44 48  1  0  0  0  0
 45 50  1  0  0  0  0
 46 65  1  0  0  0  0
 47 50  1  0  0  0  0
 47 65  1  0  0  0  0
 48 69  1  0  0  0  0
 49 64  1  0  0  0  0
 50 63  1  0  0  0  0
 53 60  1  0  0  0  0
 54 61  1  0  0  0  0
 55 61  1  0  0  0  0
 56 61  1  0  0  0  0
 57 71  1  0  0  0  0
 58 78  1  0  0  0  0
 59 61  1  0  0  0  0
 59 70  1  0  0  0  0
 60 71  1  0  0  0  0
 62 63  1  0  0  0  0
M  CHG  1  71   1
M  ISO  4  38 100  58 101  68 100  78 101
M  END
> <Batch ID>
0022

> <Smiles>
CNC(C)C(=O)NC(C(=O)N1Cc2cc([101O:1][101CH2:1]c3c(C)c(Cl)cc([100NH:0][100C:0](=O)N4CCCC(n5nc(-c6ccc(Oc7ccc(F)cc7F)cc6)c(C(N)=O)c5N)C4)c3C)ccc2CC1C(=O)NC1CCCc2ccccc21)C(C)(C)C

> <Shape>
0.202

> <Color>
0.161

> <Negative vol penalty>
0.000

$$$$

  -OEChem-04052316153D

 98107  0     1  0  0  0  0  0999 V2000
  -28.9962  -33.6375   15.1067 C   0  0  0  0  0  0  0  0  0  0  0  0
  -28.4425  -32.3753   15.2956 C   0  0  0  0  0  0  0  0  0  0  0  0
  -30.1723  -21.6220   20.6748 C   0  0  0  0  0  0  0  0  0  0  0  0
  -28.1833  -20.9241   21.8555 C   0  0  0  0  0  0  0  0  0  0  0  0
  -29.4594  -34.3653   16.2020 C   0  0  0  0  0  0  0  0  0  0  0  0
  -28.3525  -31.8398   16.5799 C   0  0  0  0  0  0  0  0  0  0  0  0
  -23.9053  -28.2404   18.7645 C   0  0  0  0  0  0  0  0  0  0  0  0
  -29.7529  -22.9500   20.7532 C   0  0  0  0  0  0  0  0  0  0  0  0
  -27.7640  -22.2521   21.9341 C   0  0  0  0  0  0  0  0  0  0  0  0
  -23.8119  -26.8589   18.9278 C   0  0  0  0  0  0  0  0  0  0  0  0
  -27.5573  -24.9665   19.1604 C   0  0  0  0  0  0  0  0  0  0  0  0
  -27.6602  -25.7470   18.0090 C   0  0  0  0  0  0  0  0  0  0  0  0
  -24.5049  -27.0900   21.2269 C   0  0  0  0  0  0  0  0  0  0  0  0
  -21.9591  -16.2691   19.7779 C   0  0  0  0  0  0  0  0  0  0  0  0
  -29.1328  -27.2688   19.1721 C   0  0  0  0  0  0  0  0  0  0  0  0
  -29.3874  -20.6090   21.2259 C   0  0  0  0  0  0  0  0  0  0  0  0
  -30.6156  -18.5400   22.0735 C   0  0  0  0  0  0  0  0  0  0  0  0
  -29.3662  -33.8425   17.5014 C   0  0  0  0  0  0  0  0  0  0  0  0
  -24.3103  -29.0573   19.8299 C   0  0  0  0  0  0  0  0  0  0  0  0
  -28.8160  -32.5608   17.6935 C   0  0  0  0  0  0  0  0  0  0  0  0
  -24.6001  -28.4817   21.0752 C   0  0  0  0  0  0  0  0  0  0  0  0
  -22.3759  -16.1124   21.0997 C   0  0  0  0  0  0  0  0  0  0  0  0
  -20.8955  -17.8970   21.7782 C   0  0  0  0  0  0  0  0  0  0  0  0
  -20.4787  -18.0538   20.4563 C   0  0  0  0  0  0  0  0  0  0  0  0
  -28.5488  -23.2651   21.3829 C   0  0  0  0  0  0  0  0  0  0  0  0
  -24.1145  -26.2832   20.1583 C   0  0  0  0  0  0  0  0  0  0  0  0
  -28.2420  -25.3372   20.3178 C   0  0  0  0  0  0  0  0  0  0  0  0
  -28.4480  -26.8981   18.0148 C   0  0  0  0  0  0  0  0  0  0  0  0
  -29.0298  -26.4883   20.3236 C   0  0  0  0  0  0  0  0  0  0  0  0
  -21.0105  -17.2399   19.4561 C   0  0  0  0  0  0  0  0  0  0  0  0
  -21.8441  -16.9263   22.0999 C   0  0  0  0  0  0  0  0  0  0  0  0
  -29.8198  -19.2370   21.1446 C   0  0  0  0  0  0  0  0  0  0  0  0
  -30.7407  -17.2800   21.5412 C   0  0  0  0  0  0  0  0  0  0  0  0
  -31.1902  -18.9912   23.3071 C   0  0  0  0  0  0  0  0  0  0  0  0
  -26.7551  -31.0220   20.3464 C   0  0  0  0  0  0  0  0  0  0  0  0
  -25.1280  -31.7029   23.0687 C   0  0  0  0  0  0  0  0  0  0  0  0
  -22.8514  -30.7089   25.4088 C   0  0  0  0  0  0  0  0  0  0  0  0
  -27.6981  -13.3721   18.5437 C   0  0  0  0  0  0  0  0  0  0  0  0
  -29.9235  -34.6467   18.6492 C   0  0  0  0  0  0  0  0  0  0  0  0
  -24.3803  -30.5484   19.6451 C   0  0  0  0  0  0  0  0  0  0  0  0
  -25.0200  -29.3167   22.2563 C   0  0  0  0  0  0  0  0  0  0  0  0
  -29.4493  -34.1645   20.0177 C   0  0  0  0  0  0  0  0  0  0  0  0
  -30.2426  -15.3422   17.0203 C   0  0  0  0  0  0  0  0  0  0  0  0
  -29.5641  -32.6467   20.1181 C   0  0  0  0  0  0  0  0  0  0  0  0
  -30.4670  -16.4826   18.0149 C   0  0  0  0  0  0  0  0  0  0  0  0
  -25.0912  -12.9801   21.9868 C   0  0  0  0  0  0  0  0  0  0  0  0
  -26.2365  -11.9968   21.7441 C   0  0  0  0  0  0  0  0  0  0  0  0
  -25.3993  -11.6002   19.3923 C   0  0  0  0  0  0  0  0  0  0  0  0
  -28.7724  -14.9353   16.9504 C   0  0  0  0  0  0  0  0  0  0  0  0
  -28.3829  -15.7461   19.2449 C   0  0  0  0  0  0  0  0  0  0  0  0
  -28.6784  -31.9562   19.0739 C   0  0  1  0  0  0  0  0  0  0  0  0
  -25.2992  -31.2328   20.6523 C   0  0  1  0  0  0  0  0  0  0  0  0
  -29.8589  -16.1536   19.3916 C   0  0  2  0  0  0  0  0  0  0  0  0
  -23.8761  -12.6268   21.1291 C   0  0  2  0  0  0  0  0  0  0  0  0
  -26.6411  -11.9103   20.2594 C   0  0  2  0  0  0  0  0  0  0  0  0
  -24.2208  -12.5612   19.6337 C   0  0  2  0  0  0  0  0  0  0  0  0
  -20.3140  -18.7793   22.8401 C   0  0  0  0  0  0  0  0  0  0  0  0
  -27.6862  -10.8012   20.0749 C   0  0  0  0  0  0  0  0  0  0  0  0
  -23.0308  -12.1538   18.7653 C   0  0  0  0  0  0  0  0  0  0  0  0
  -21.7564  -31.4635   27.5369 C   0  0  0  0  0  0  0  0  0  0  0  0
  -27.6835  -31.0622   24.6078 C   0  0  0  0  0  0  0  0  0  0  0  0
  -26.3053  -30.9022   26.6919 C   0  0  0  0  0  0  0  0  0  0  0  0
  -26.4338  -33.0596   25.4462 C   0  0  0  0  0  0  0  0  0  0  0  0
  -20.1573  -30.6328   24.1860 C   0  0  0  0  0  0  0  0  0  0  0  0
  -22.0155  -13.3734   22.6058 C   0  0  0  0  0  0  0  0  0  0  0  0
  -23.3984  -15.0559   21.3986 C   0  0  0  0  0  0  0  0  0  0  0  0
  -19.4608  -19.1004   20.1229 C   0  0  0  0  0  0  0  0  0  0  0  0
  -21.5293  -22.2410   19.4923 C   0  0  0  0  0  0  0  0  0  0  0  0
  -22.5842  -23.0121   20.2821 C   0  0  0  0  0  0  0  0  0  0  0  0
  -21.0340  -21.0344   20.2755 C   0  0  0  0  0  0  0  0  0  0  0  0
  -23.0588  -24.2471   19.5294 C   0  0  0  0  0  0  0  0  0  1  0  0
  -25.1065  -31.1419   24.4701 C   0  0  1  0  0  0  0  0  0  0  0  0
  -21.6584  -31.4215   26.0199 C   0  0  2  0  0  0  0  0  0  0  0  0
  -26.3763  -31.5253   25.2814 C   0  0  0  0  0  0  0  0  0  0  0  0
  -29.4646  -18.4824   20.1013 N   0  0  0  0  0  0  0  0  0  0  0  0
  -30.0399  -17.2983   20.3713 N   0  0  0  0  0  0  0  0  0  0  0  0
  -25.0796  -30.7693   22.0238 N   0  0  0  0  0  0  0  0  0  0  0  0
  -28.2571  -14.6352   18.2884 N   0  0  0  0  0  0  0  0  0  0  0  0
  -31.3808  -16.1694   21.9645 N   0  0  0  0  0  0  0  0  0  0  0  0
  -30.9628  -20.3156   23.7052 N   0  0  0  0  0  0  0  0  0  0  0  0
  -27.2945  -31.9692   19.4970 N   0  0  0  0  0  0  0  0  0  0  0  0
  -23.8553  -31.5915   25.0707 N   0  0  0  0  0  0  0  0  0  0  0  0
  -27.2395  -13.1680   19.8394 N   0  0  0  0  0  0  0  0  0  0  0  0
  -20.3938  -30.7254   25.6497 N   0  3  0  0  0  0  0  0  0  0  0  0
  -20.0447  -20.2910   19.4509 N   0  3  0  0  0  0  0  0  0  0  0  0
  -22.8308  -13.6606   21.3718 N   0  3  1  0  0  0  0  0  0  0  0  0
  -31.8985  -18.2468   24.0268 O   0  0  0  0  0  0  0  0  0  0  0  0
  -27.3458  -30.0712   20.8452 O   0  0  0  0  0  0  0  0  0  0  0  0
  -25.1784  -32.9248   22.9072 O   0  0  0  0  0  0  0  0  0  0  0  0
  -22.8903  -29.4907   25.2508 O   0  0  0  0  0  0  0  0  0  0  0  0
  -27.6188  -12.4897   17.6823 O   0  0  0  0  0  0  0  0  0  0  0  0
  -28.1394  -24.5609   21.4599 O   0  0  0  0  0  0  0  0  0  0  0  0
  -24.0242  -24.9251   20.3214 O   0  0  0  0  0  0  0  0  0  1  0  0
  -28.5480  -27.6466   16.9085 F   0  0  0  0  0  0  0  0  0  0  0  0
  -29.6909  -26.8488   21.4321 F   0  0  0  0  0  0  0  0  0  0  0  0
  -24.6052  -13.8074   19.2236 F   0  0  0  0  0  0  0  0  0  0  0  0
  -20.5231  -17.4030   17.8077 Cl  0  0  0  0  0  0  0  0  0  0  0  0
  -22.3640  -16.7275   23.7407 Cl  0  0  0  0  0  0  0  0  0  0  0  0
  1  2  1  0  0  0  0
  1  5  2  0  0  0  0
  2  6  2  0  0  0  0
  3  8  2  0  0  0  0
  3 16  1  0  0  0  0
  4  9  1  0  0  0  0
  4 16  2  0  0  0  0
  5 18  1  0  0  0  0
  6 20  1  0  0  0  0
  7 10  2  0  0  0  0
  7 19  1  0  0  0  0
  8 25  1  0  0  0  0
  9 25  2  0  0  0  0
 10 26  1  0  0  0  0
 11 12  2  0  0  0  0
 11 27  1  0  0  0  0
 12 28  1  0  0  0  0
 13 21  1  0  0  0  0
 13 26  2  0  0  0  0
 14 22  1  0  0  0  0
 14 30  2  0  0  0  0
 15 28  2  0  0  0  0
 15 29  1  0  0  0  0
 16 32  1  0  0  0  0
 17 32  1  0  0  0  0
 17 33  2  0  0  0  0
 17 34  1  0  0  0  0
 18 20  2  0  0  0  0
 18 39  1  0  0  0  0
 19 21  2  0  0  0  0
 19 40  1  0  0  0  0
 20 51  1  0  0  0  0
 21 41  1  0  0  0  0
 22 31  2  0  0  0  0
 22 66  1  0  0  0  0
 23 24  2  0  0  0  0
 23 31  1  0  0  0  0
 23 57  1  0  0  0  0
 24 30  1  0  0  0  0
 24 67  1  0  0  0  0
 25 92  1  0  0  0  0
 26 93  1  0  0  0  0
 27 29  2  0  0  0  0
 27 92  1  0  0  0  0
 28 94  1  0  0  0  0
 29 95  1  0  0  0  0
 30 97  1  0  0  0  0
 31 98  1  0  0  0  0
 32 75  2  0  0  0  0
 33 76  1  0  0  0  0
 33 79  1  0  0  0  0
 34 80  1  0  0  0  0
 34 87  2  0  0  0  0
 35 52  1  0  0  0  0
 35 81  1  0  0  0  0
 35 88  2  0  0  0  0
 36 72  1  0  0  0  0
 36 77  1  0  0  0  0
 36 89  2  0  0  0  0
 37 73  1  0  0  0  0
 37 82  1  0  0  0  0
 37 90  2  0  0  0  0
 38 78  1  0  0  0  0
 38 83  1  0  0  0  0
 38 91  2  0  0  0  0
 39 42  1  0  0  0  0
 40 52  1  0  0  0  0
 41 77  1  0  0  0  0
 42 44  1  0  0  0  0
 43 45  1  0  0  0  0
 43 49  1  0  0  0  0
 44 51  1  0  0  0  0
 45 53  1  0  0  0  0
 46 47  1  0  0  0  0
 46 54  1  0  0  0  0
 47 55  1  0  0  0  0
 48 55  1  0  0  0  0
 48 56  1  0  0  0  0
 49 78  1  0  0  0  0
 50 53  1  0  0  0  0
 50 78  1  0  0  0  0
 51 81  1  0  0  0  0
 52 77  1  0  0  0  0
 53 76  1  0  0  0  0
 54 56  1  0  0  0  0
 54 86  1  0  0  0  0
 55 58  1  0  0  0  0
 55 83  1  0  0  0  0
 56 59  1  0  0  0  0
 56 96  1  0  0  0  0
 60 73  1  0  0  0  0
 61 74  1  0  0  0  0
 62 74  1  0  0  0  0
 63 74  1  0  0  0  0
 64 84  1  0  0  0  0
 65 86  1  0  0  0  0
 66 86  1  0  0  0  0
 67 85  1  0  0  0  0
 68 69  1  0  0  0  0
 68 70  1  0  0  0  0
 69 71  1  0  0  0  0
 70 85  1  0  0  0  0
 71 93  1  0  0  0  0
 72 74  1  0  0  0  0
 72 82  1  0  0  0  0
 73 84  1  0  0  0  0
 75 76  1  0  0  0  0
M  CHG  3  84   1  85   1  86   1
M  ISO  4  38 100  71 101  83 100  93 101
M  END
> <Batch ID>
0022

> <Smiles>
CNC(C)C(=O)NC(C(=O)N1Cc2cc([101O:1][101CH2:1]CCCNCc3c(Cl)cc(CN(C)C4CCC(C)([100NH:0][100C:0](=O)N5CCCC(n6nc(-c7ccc(Oc8ccc(F)cc8F)cc7)c(C(N)=O)c6N)C5)CC4(C)F)c(Cl)c3C)ccc2CC1C(=O)NC1CCCc2ccccc21)C(C)(C)C

> <Shape>
0.250

> <Color>
0.059

> <Negative vol penalty>
0.000

$$$$

  -OEChem-04052316153D

 89 97  0     1  0  0  0  0  0999 V2000
  -31.5327  -24.8222   18.7172 C   0  0  0  0  0  0  0  0  0  0  0  0
  -30.8008  -24.3896   19.8184 C   0  0  0  0  0  0  0  0  0  0  0  0
  -23.0717   -9.7519   20.0957 C   0  0  0  0  0  0  0  0  0  0  0  0
  -23.6002  -10.1585   22.4179 C   0  0  0  0  0  0  0  0  0  0  0  0
  -31.4643  -26.1558   18.3163 C   0  0  0  0  0  0  0  0  0  0  0  0
  -30.0008  -25.2908   20.5200 C   0  0  0  0  0  0  0  0  0  0  0  0
  -25.4304  -23.3974   21.6019 C   0  0  0  0  0  0  0  0  0  0  0  0
  -22.3009   -8.6493   20.4641 C   0  0  0  0  0  0  0  0  0  0  0  0
  -22.8294   -9.0558   22.7863 C   0  0  0  0  0  0  0  0  0  0  0  0
  -25.3476  -22.5041   22.6692 C   0  0  0  0  0  0  0  0  0  0  0  0
  -23.1576   -5.6912   22.8354 C   0  0  0  0  0  0  0  0  0  0  0  0
  -23.6936   -4.8106   23.7750 C   0  0  0  0  0  0  0  0  0  0  0  0
  -24.5385  -24.2811   24.0859 C   0  0  0  0  0  0  0  0  0  0  0  0
  -28.5818  -19.5543   23.6332 C   0  0  0  0  0  0  0  0  0  0  0  0
  -21.8321   -5.2518   25.2505 C   0  0  0  0  0  0  0  0  0  0  0  0
  -23.7214  -10.5065   21.0726 C   0  0  0  0  0  0  0  0  0  0  0  0
  -24.0861  -12.9782   20.5578 C   0  0  0  0  0  0  0  0  0  0  0  0
  -30.6556  -27.0716   19.0075 C   0  0  0  0  0  0  0  0  0  0  0  0
  -25.0776  -24.7439   21.7718 C   0  0  0  0  0  0  0  0  0  0  0  0
  -29.9226  -26.6383   20.1288 C   0  0  0  0  0  0  0  0  0  0  0  0
  -24.6153  -25.1889   23.0186 C   0  0  0  0  0  0  0  0  0  0  0  0
  -29.1446  -18.8875   22.5450 C   0  0  0  0  0  0  0  0  0  0  0  0
  -30.0065  -17.8114   22.7562 C   0  0  0  0  0  0  0  0  0  0  0  0
  -30.3058  -17.4021   24.0557 C   0  0  0  0  0  0  0  0  0  0  0  0
  -28.8810  -19.1450   24.9327 C   0  0  0  0  0  0  0  0  0  0  0  0
  -22.1797   -8.3013   21.8094 C   0  0  0  0  0  0  0  0  0  0  0  0
  -24.9044  -22.9465   23.9121 C   0  0  0  0  0  0  0  0  0  0  0  0
  -21.9588   -6.3522   23.1034 C   0  0  0  0  0  0  0  0  0  0  0  0
  -23.0309   -4.5909   24.9825 C   0  0  0  0  0  0  0  0  0  0  0  0
  -21.2960   -6.1325   24.3109 C   0  0  0  0  0  0  0  0  0  0  0  0
  -29.7430  -18.0689   25.1439 C   0  0  0  0  0  0  0  0  0  0  0  0
  -24.5182  -11.6452   20.6926 C   0  0  0  0  0  0  0  0  0  0  0  0
  -25.2126  -13.6680   20.1815 C   0  0  0  0  0  0  0  0  0  0  0  0
  -22.7829  -13.5425   20.7551 C   0  0  0  0  0  0  0  0  0  0  0  0
  -26.6183  -27.5138   21.5317 C   0  0  0  0  0  0  0  0  0  0  0  0
  -23.6613  -28.7553   22.0190 C   0  0  0  0  0  0  0  0  0  0  0  0
  -20.5132  -28.3366   23.2682 C   0  0  0  0  0  0  0  0  0  0  0  0
  -30.6556  -14.7702   20.7334 C   0  0  0  0  0  0  0  0  0  0  0  0
  -30.6506  -28.5136   18.5654 C   0  0  0  0  0  0  0  0  0  0  0  0
  -25.1471  -25.6889   20.6036 C   0  0  0  0  0  0  0  0  0  0  0  0
  -24.2053  -26.6199   23.2477 C   0  0  0  0  0  0  0  0  0  0  0  0
  -29.4878  -29.3215   19.1359 C   0  0  0  0  0  0  0  0  0  0  0  0
  -29.7487  -12.0005   18.6880 C   0  0  0  0  0  0  0  0  0  0  0  0
  -29.3365  -29.0570   20.6305 C   0  0  0  0  0  0  0  0  0  0  0  0
  -28.2739  -11.7676   19.0208 C   0  0  0  0  0  0  0  0  0  0  0  0
  -30.5432  -12.4336   19.9182 C   0  0  0  0  0  0  0  0  0  0  0  0
  -28.5168  -13.3672   20.9652 C   0  0  0  0  0  0  0  0  0  0  0  0
  -29.0242  -27.5802   20.9006 C   0  0  1  0  0  0  0  0  0  0  0  0
  -25.2513  -27.1518   21.0239 C   0  0  1  0  0  0  0  0  0  0  0  0
  -27.6635  -12.9829   19.7443 C   0  0  2  0  0  0  0  0  0  0  0  0
  -28.8079  -19.3461   21.1637 C   0  0  0  0  0  0  0  0  0  0  0  0
  -31.2348  -16.2453   24.2615 C   0  0  0  0  0  0  0  0  0  0  0  0
  -18.3300  -29.5411   23.5517 C   0  0  0  0  0  0  0  0  0  0  0  0
  -28.6258  -21.0766   28.0665 C   0  0  0  0  0  0  0  0  0  0  0  0
  -28.5496  -22.2452   25.8361 C   0  0  0  0  0  0  0  0  0  0  0  0
  -27.2021  -19.0356   28.0032 C   0  0  0  0  0  0  0  0  0  0  0  0
  -24.8566  -30.3771   24.3105 C   0  0  0  0  0  0  0  0  0  0  0  0
  -22.5298  -30.8013   25.1316 C   0  0  0  0  0  0  0  0  0  0  0  0
  -23.2279  -31.6295   22.8845 C   0  0  0  0  0  0  0  0  0  0  0  0
  -19.0660  -26.3398   21.6318 C   0  0  0  0  0  0  0  0  0  0  0  0
  -30.6091  -17.1006   21.5855 C   0  0  0  0  0  0  0  0  0  0  0  0
  -26.0149  -20.5920   26.4179 C   0  0  0  0  0  0  0  0  0  0  0  0
  -25.7491  -20.9911   24.9698 C   0  0  0  0  0  0  0  0  0  1  0  0
  -22.8555  -29.1531   23.2320 C   0  0  1  0  0  0  0  0  0  0  0  0
  -19.1464  -28.6113   22.6675 C   0  0  2  0  0  0  0  0  0  0  0  0
  -28.9749  -20.9923   26.5877 C   0  0  0  0  0  0  0  0  0  0  0  0
  -27.0163  -19.4397   26.5440 C   0  0  1  0  0  0  0  0  0  0  0  0
  -23.3769  -30.4637   23.8862 C   0  0  0  0  0  0  0  0  0  0  0  0
  -25.8179  -11.4948   20.4236 N   0  0  0  0  0  0  0  0  0  0  0  0
  -26.2121  -12.7422   20.1160 N   0  0  0  0  0  0  0  0  0  0  0  0
  -24.2970  -27.5069   22.0762 N   0  0  0  0  0  0  0  0  0  0  0  0
  -29.9125  -13.5913   20.5570 N   0  0  0  0  0  0  0  0  0  0  0  0
  -25.4359  -14.9700   19.9035 N   0  0  0  0  0  0  0  0  0  0  0  0
  -21.7380  -12.6920   21.1410 N   0  0  0  0  0  0  0  0  0  0  0  0
  -27.6330  -27.2981   20.6188 N   0  0  0  0  0  0  0  0  0  0  0  0
  -21.4648  -29.2154   22.7956 N   0  0  0  0  0  0  0  0  0  0  0  0
  -29.9805  -15.8215   21.3413 N   0  0  0  0  0  0  0  0  0  0  0  0
  -28.2990  -19.8363   26.0015 N   0  0  3  0  0  0  0  0  0  0  0  0
  -18.3895  -27.3387   22.4987 N   0  3  0  0  0  0  0  0  0  0  0  0
  -22.5483  -14.7620   20.5780 O   0  0  0  0  0  0  0  0  0  0  0  0
  -26.7431  -27.9575   22.6672 O   0  0  0  0  0  0  0  0  0  0  0  0
  -23.7187  -29.5207   21.0534 O   0  0  0  0  0  0  0  0  0  0  0  0
  -20.7156  -27.4350   24.0786 O   0  0  0  0  0  0  0  0  0  0  0  0
  -31.8319  -14.8795   20.3708 O   0  0  0  0  0  0  0  0  0  0  0  0
  -21.4275   -7.2256   22.1693 O   0  0  0  0  0  0  0  0  0  0  0  0
  -24.8232  -22.0769   24.9557 O   0  0  0  0  0  0  0  0  0  1  0  0
  -23.5449   -3.7440   25.8840 F   0  0  0  0  0  0  0  0  0  0  0  0
  -20.1435   -6.7636   24.5736 F   0  0  0  0  0  0  0  0  0  0  0  0
  -30.1180  -17.5608   26.7590 Cl  0  0  0  0  0  0  0  0  0  0  0  0
  1  2  1  0  0  0  0
  1  5  2  0  0  0  0
  2  6  2  0  0  0  0
  3  8  2  0  0  0  0
  3 16  1  0  0  0  0
  4  9  1  0  0  0  0
  4 16  2  0  0  0  0
  5 18  1  0  0  0  0
  6 20  1  0  0  0  0
  7 10  2  0  0  0  0
  7 19  1  0  0  0  0
  8 26  1  0  0  0  0
  9 26  2  0  0  0  0
 10 27  1  0  0  0  0
 11 12  2  0  0  0  0
 11 28  1  0  0  0  0
 12 29  1  0  0  0  0
 13 21  1  0  0  0  0
 13 27  2  0  0  0  0
 14 22  2  0  0  0  0
 14 25  1  0  0  0  0
 15 29  2  0  0  0  0
 15 30  1  0  0  0  0
 16 32  1  0  0  0  0
 17 32  1  0  0  0  0
 17 33  2  0  0  0  0
 17 34  1  0  0  0  0
 18 20  2  0  0  0  0
 18 39  1  0  0  0  0
 19 21  2  0  0  0  0
 19 40  1  0  0  0  0
 20 48  1  0  0  0  0
 21 41  1  0  0  0  0
 22 23  1  0  0  0  0
 22 51  1  0  0  0  0
 23 24  2  0  0  0  0
 23 61  1  0  0  0  0
 24 31  1  0  0  0  0
 24 52  1  0  0  0  0
 25 31  2  0  0  0  0
 25 78  1  0  0  0  0
 26 85  1  0  0  0  0
 27 86  1  0  0  0  0
 28 30  2  0  0  0  0
 28 85  1  0  0  0  0
 29 87  1  0  0  0  0
 30 88  1  0  0  0  0
 31 89  1  0  0  0  0
 32 69  2  0  0  0  0
 33 70  1  0  0  0  0
 33 73  1  0  0  0  0
 34 74  1  0  0  0  0
 34 80  2  0  0  0  0
 35 49  1  0  0  0  0
 35 75  1  0  0  0  0
 35 81  2  0  0  0  0
 36 64  1  0  0  0  0
 36 71  1  0  0  0  0
 36 82  2  0  0  0  0
 37 65  1  0  0  0  0
 37 76  1  0  0  0  0
 37 83  2  0  0  0  0
 38 72  1  0  0  0  0
 38 77  1  0  0  0  0
 38 84  2  0  0  0  0
 39 42  1  0  0  0  0
 40 49  1  0  0  0  0
 41 71  1  0  0  0  0
 42 44  1  0  0  0  0
 43 45  1  0  0  0  0
 43 46  1  0  0  0  0
 44 48  1  0  0  0  0
 45 50  1  0  0  0  0
 46 72  1  0  0  0  0
 47 50  1  0  0  0  0
 47 72  1  0  0  0  0
 48 75  1  0  0  0  0
 49 71  1  0  0  0  0
 50 70  1  0  0  0  0
 53 65  1  0  0  0  0
 54 66  1  0  0  0  0
 55 66  1  0  0  0  0
 56 67  1  0  0  0  0
 57 68  1  0  0  0  0
 58 68  1  0  0  0  0
 59 68  1  0  0  0  0
 60 79  1  0  0  0  0
 61 77  1  0  0  0  0
 62 63  1  0  0  0  0
 62 67  1  0  0  0  0
 63 86  1  0  0  0  0
 64 68  1  0  0  0  0
 64 76  1  0  0  0  0
 65 79  1  0  0  0  0
 66 78  1  0  0  0  0
 67 78  1  0  0  0  0
 69 70  1  0  0  0  0
M  CHG  1  79   1
M  ISO  4  38 100  63 101  77 100  86 101
M  END
> <Batch ID>
0022

> <Smiles>
CNC(C)C(=O)NC(C(=O)N1Cc2cc([101O:1][101CH2:1]CC(C)N(c3cc(C)c(C[100NH:0][100C:0](=O)N4CCCC(n5nc(-c6ccc(Oc7ccc(F)cc7F)cc6)c(C(N)=O)c5N)C4)c(C)c3Cl)C(C)C)ccc2CC1C(=O)NC1CCCc2ccccc21)C(C)(C)C

> <Shape>
0.321

> <Color>
0.197

> <Negative vol penalty>
0.000

$$$$

  -OEChem-04052316153D

 88 96  0     1  0  0  0  0  0999 V2000
  -28.0155  -36.1329   27.4179 C   0  0  0  0  0  0  0  0  0  0  0  0
  -28.2137  -35.1072   26.4992 C   0  0  0  0  0  0  0  0  0  0  0  0
  -23.1062   -9.7579   20.2128 C   0  0  0  0  0  0  0  0  0  0  0  0
  -23.7690  -10.0797   22.5137 C   0  0  0  0  0  0  0  0  0  0  0  0
  -26.7396  -36.3766   27.9245 C   0  0  0  0  0  0  0  0  0  0  0  0
  -27.1361  -34.3238   26.0873 C   0  0  0  0  0  0  0  0  0  0  0  0
  -26.2597  -31.8964   20.5335 C   0  0  0  0  0  0  0  0  0  0  0  0
  -22.3570   -8.6417   20.5847 C   0  0  0  0  0  0  0  0  0  0  0  0
  -23.0198   -8.9635   22.8857 C   0  0  0  0  0  0  0  0  0  0  0  0
  -26.4939  -30.6218   20.0193 C   0  0  0  0  0  0  0  0  0  0  0  0
  -19.7723   -8.2231   23.4568 C   0  0  0  0  0  0  0  0  0  0  0  0
  -18.9670   -8.3335   24.5903 C   0  0  0  0  0  0  0  0  0  0  0  0
  -24.1917  -30.0362   20.4388 C   0  0  0  0  0  0  0  0  0  0  0  0
  -20.1839   -6.5242   25.6310 C   0  0  0  0  0  0  0  0  0  0  0  0
  -23.8123  -10.4769   21.1773 C   0  0  0  0  0  0  0  0  0  0  0  0
  -24.1490  -12.9662   20.7330 C   0  0  0  0  0  0  0  0  0  0  0  0
  -25.6441  -35.6020   27.5113 C   0  0  0  0  0  0  0  0  0  0  0  0
  -24.9904  -32.2475   21.0150 C   0  0  0  0  0  0  0  0  0  0  0  0
  -25.8446  -34.5565   26.5898 C   0  0  0  0  0  0  0  0  0  0  0  0
  -23.9433  -31.3167   20.9562 C   0  0  0  0  0  0  0  0  0  0  0  0
  -30.5253  -19.9364   20.6461 C   0  0  0  0  0  0  0  0  0  0  0  0
  -30.7519  -19.0397   19.6019 C   0  0  0  0  0  0  0  0  0  0  0  0
  -30.1273  -19.4642   21.8969 C   0  0  0  0  0  0  0  0  0  0  0  0
  -30.1823  -17.1988   21.0592 C   0  0  0  0  0  0  0  0  0  0  0  0
  -22.3137   -8.2445   21.9212 C   0  0  0  0  0  0  0  0  0  0  0  0
  -25.4605  -29.6905   19.9745 C   0  0  0  0  0  0  0  0  0  0  0  0
  -20.7834   -7.2633   23.4103 C   0  0  0  0  0  0  0  0  0  0  0  0
  -19.1728   -7.4841   25.6774 C   0  0  0  0  0  0  0  0  0  0  0  0
  -20.9892   -6.4139   24.4974 C   0  0  0  0  0  0  0  0  0  0  0  0
  -30.5804  -17.6710   19.8084 C   0  0  0  0  0  0  0  0  0  0  0  0
  -29.9558  -18.0954   22.1034 C   0  0  0  0  0  0  0  0  0  0  0  0
  -24.5869  -11.6297   20.7936 C   0  0  0  0  0  0  0  0  0  0  0  0
  -25.2525  -13.6705   20.3174 C   0  0  0  0  0  0  0  0  0  0  0  0
  -22.8601  -13.5215   21.0262 C   0  0  0  0  0  0  0  0  0  0  0  0
  -23.8292  -33.1382   23.8368 C   0  0  0  0  0  0  0  0  0  0  0  0
  -21.1058  -33.5944   22.1347 C   0  0  0  0  0  0  0  0  0  0  0  0
  -19.2483  -32.8213   19.3781 C   0  0  0  0  0  0  0  0  0  0  0  0
  -30.7025  -14.7820   20.5745 C   0  0  0  0  0  0  0  0  0  0  0  0
  -24.2921  -35.8725   28.1224 C   0  0  0  0  0  0  0  0  0  0  0  0
  -24.7473  -33.6352   21.5419 C   0  0  0  0  0  0  0  0  0  0  0  0
  -22.5573  -31.6506   21.4419 C   0  0  0  0  0  0  0  0  0  0  0  0
  -23.1372  -35.2387   27.3511 C   0  0  0  0  0  0  0  0  0  0  0  0
  -29.6979  -12.0618   18.5084 C   0  0  0  0  0  0  0  0  0  0  0  0
  -23.4599  -33.7892   27.0025 C   0  0  0  0  0  0  0  0  0  0  0  0
  -28.2426  -11.8168   18.9138 C   0  0  0  0  0  0  0  0  0  0  0  0
  -30.5608  -12.4584   19.7050 C   0  0  0  0  0  0  0  0  0  0  0  0
  -28.5948  -13.3435   20.8968 C   0  0  0  0  0  0  0  0  0  0  0  0
  -24.6965  -33.7010   26.0999 C   0  0  1  0  0  0  0  0  0  0  0  0
  -23.5463  -33.7166   22.4792 C   0  0  1  0  0  0  0  0  0  0  0  0
  -27.6729  -13.0046   19.7140 C   0  0  2  0  0  0  0  0  0  0  0  0
  -31.1787  -19.5229   18.2543 C   0  0  0  0  0  0  0  0  0  0  0  0
  -29.8892  -20.4433   23.0051 C   0  0  0  0  0  0  0  0  0  0  0  0
  -17.0487  -33.3251   18.2802 C   0  0  0  0  0  0  0  0  0  0  0  0
  -19.6873  -31.8109   24.1637 C   0  0  0  0  0  0  0  0  0  0  0  0
  -17.7993  -31.5793   22.5358 C   0  0  0  0  0  0  0  0  0  0  0  0
  -18.3843  -33.8239   23.4535 C   0  0  0  0  0  0  0  0  0  0  0  0
  -20.5704  -33.9140   16.9663 C   0  0  0  0  0  0  0  0  0  0  0  0
  -30.7110  -21.4078   20.4193 C   0  0  0  0  0  0  0  0  0  0  0  0
  -28.2934  -25.7625   19.8784 C   0  0  0  0  0  0  0  0  0  0  0  0
  -28.1937  -24.2416   20.0027 C   0  0  0  0  0  0  0  0  0  0  0  0
  -26.9158  -26.3978   19.7031 C   0  0  0  0  0  0  0  0  0  0  0  0
  -29.5725  -23.6134   20.1410 C   0  0  0  0  0  0  0  0  0  0  0  0
  -27.0031  -27.9152   19.6215 C   0  0  0  0  0  0  0  0  0  1  0  0
  -19.9199  -32.7366   21.7647 C   0  0  1  0  0  0  0  0  0  0  0  0
  -18.5198  -33.6985   18.3759 C   0  0  2  0  0  0  0  0  0  0  0  0
  -18.9742  -32.4804   22.9720 C   0  0  0  0  0  0  0  0  0  0  0  0
  -25.8685  -11.4906   20.4443 N   0  0  0  0  0  0  0  0  0  0  0  0
  -26.2455  -12.7489   20.1602 N   0  0  0  0  0  0  0  0  0  0  0  0
  -22.3712  -33.0183   21.9540 N   0  0  0  0  0  0  0  0  0  0  0  0
  -29.9615  -13.5923   20.4121 N   0  0  0  0  0  0  0  0  0  0  0  0
  -25.4606  -14.9821   20.0748 N   0  0  0  0  0  0  0  0  0  0  0  0
  -21.8384  -12.6562   21.4407 N   0  0  0  0  0  0  0  0  0  0  0  0
  -30.0177  -15.8023   21.2338 N   0  0  0  0  0  0  0  0  0  0  0  0
  -24.3531  -34.0462   24.7371 N   0  0  0  0  0  0  0  0  0  0  0  0
  -19.2779  -33.3944   20.6318 N   0  0  0  0  0  0  0  0  0  0  0  0
  -19.1297  -33.5564   17.0236 N   0  3  0  0  0  0  0  0  0  0  0  0
  -29.4241  -22.1472   20.3036 N   0  3  0  0  0  0  0  0  0  0  0  0
  -22.6168  -14.7464   20.9078 O   0  0  0  0  0  0  0  0  0  0  0  0
  -23.5886  -31.9560   24.0520 O   0  0  0  0  0  0  0  0  0  0  0  0
  -20.9166  -34.7363   22.5612 O   0  0  0  0  0  0  0  0  0  0  0  0
  -19.7386  -31.7346   19.0795 O   0  0  0  0  0  0  0  0  0  0  0  0
  -31.8495  -14.8972   20.1352 O   0  0  0  0  0  0  0  0  0  0  0  0
  -21.5825   -7.1555   22.2845 O   0  0  0  0  0  0  0  0  0  0  0  0
  -25.6865  -28.4455   19.4738 O   0  0  0  0  0  0  0  0  0  1  0  0
  -18.4004   -7.5912   26.7665 F   0  0  0  0  0  0  0  0  0  0  0  0
  -21.9597   -5.4906   24.4590 F   0  0  0  0  0  0  0  0  0  0  0  0
  -30.7989  -16.8105   18.8021 F   0  0  0  0  0  0  0  0  0  0  0  0
  -29.4608  -17.5111   23.6596 Cl  0  0  0  0  0  0  0  0  0  0  0  0
  1  2  1  0  0  0  0
  1  5  2  0  0  0  0
  2  6  2  0  0  0  0
  3  8  2  0  0  0  0
  3 15  1  0  0  0  0
  4  9  1  0  0  0  0
  4 15  2  0  0  0  0
  5 17  1  0  0  0  0
  6 19  1  0  0  0  0
  7 10  2  0  0  0  0
  7 18  1  0  0  0  0
  8 25  1  0  0  0  0
  9 25  2  0  0  0  0
 10 26  1  0  0  0  0
 11 12  2  0  0  0  0
 11 27  1  0  0  0  0
 12 28  1  0  0  0  0
 13 20  1  0  0  0  0
 13 26  2  0  0  0  0
 14 28  2  0  0  0  0
 14 29  1  0  0  0  0
 15 32  1  0  0  0  0
 16 32  1  0  0  0  0
 16 33  2  0  0  0  0
 16 34  1  0  0  0  0
 17 19  2  0  0  0  0
 17 39  1  0  0  0  0
 18 20  2  0  0  0  0
 18 40  1  0  0  0  0
 19 48  1  0  0  0  0
 20 41  1  0  0  0  0
 21 22  1  0  0  0  0
 21 23  2  0  0  0  0
 21 58  1  0  0  0  0
 22 30  2  0  0  0  0
 22 51  1  0  0  0  0
 23 31  1  0  0  0  0
 23 52  1  0  0  0  0
 24 30  1  0  0  0  0
 24 31  2  0  0  0  0
 24 73  1  0  0  0  0
 25 83  1  0  0  0  0
 26 84  1  0  0  0  0
 27 29  2  0  0  0  0
 27 83  1  0  0  0  0
 28 85  1  0  0  0  0
 29 86  1  0  0  0  0
 30 87  1  0  0  0  0
 31 88  1  0  0  0  0
 32 67  2  0  0  0  0
 33 68  1  0  0  0  0
 33 71  1  0  0  0  0
 34 72  1  0  0  0  0
 34 78  2  0  0  0  0
 35 49  1  0  0  0  0
 35 74  1  0  0  0  0
 35 79  2  0  0  0  0
 36 64  1  0  0  0  0
 36 69  1  0  0  0  0
 36 80  2  0  0  0  0
 37 65  1  0  0  0  0
 37 75  1  0  0  0  0
 37 81  2  0  0  0  0
 38 70  1  0  0  0  0
 38 73  1  0  0  0  0
 38 82  2  0  0  0  0
 39 42  1  0  0  0  0
 40 49  1  0  0  0  0
 41 69  1  0  0  0  0
 42 44  1  0  0  0  0
 43 45  1  0  0  0  0
 43 46  1  0  0  0  0
 44 48  1  0  0  0  0
 45 50  1  0  0  0  0
 46 70  1  0  0  0  0
 47 50  1  0  0  0  0
 47 70  1  0  0  0  0
 48 74  1  0  0  0  0
 49 69  1  0  0  0  0
 50 68  1  0  0  0  0
 53 65  1  0  0  0  0
 54 66  1  0  0  0  0
 55 66  1  0  0  0  0
 56 66  1  0  0  0  0
 57 76  1  0  0  0  0
 58 77  1  0  0  0  0
 59 60  1  0  0  0  0
 59 61  1  0  0  0  0
 60 62  1  0  0  0  0
 61 63  1  0  0  0  0
 62 77  1  0  0  0  0
 63 84  1  0  0  0  0
 64 66  1  0  0  0  0
 64 75  1  0  0  0  0
 65 76  1  0  0  0  0
 67 68  1  0  0  0  0
M  CHG  2  76   1  77   1
M  ISO  4  38 100  63 101  73 100  84 101
M  END
> <Batch ID>
0022

> <Smiles>
CNC(C)C(=O)NC(C(=O)N1Cc2cc([101O:1][101CH2:1]CCCCNCc3c(C)c(F)c([100NH:0][100C:0](=O)N4CCCC(n5nc(-c6ccc(Oc7ccc(F)cc7F)cc6)c(C(N)=O)c5N)C4)c(Cl)c3C)ccc2CC1C(=O)NC1CCCc2ccccc21)C(C)(C)C

> <Shape>
0.293

> <Color>
0.211

> <Negative vol penalty>
0.000

$$$$

  -OEChem-04052316153D

 83 91  0     1  0  0  0  0  0999 V2000
  -29.7920  -25.4517   16.5120 C   0  0  0  0  0  0  0  0  0  0  0  0
  -28.4107  -25.5272   16.6595 C   0  0  0  0  0  0  0  0  0  0  0  0
  -28.3334  -17.7480   22.0627 C   0  0  0  0  0  0  0  0  0  0  0  0
  -25.9260  -17.6031   22.2059 C   0  0  0  0  0  0  0  0  0  0  0  0
  -30.6249  -25.7794   17.5811 C   0  0  0  0  0  0  0  0  0  0  0  0
  -27.8615  -25.9293   17.8765 C   0  0  0  0  0  0  0  0  0  0  0  0
  -22.7587  -29.2122   18.7071 C   0  0  0  0  0  0  0  0  0  0  0  0
  -28.4043  -16.3697   21.8607 C   0  0  0  0  0  0  0  0  0  0  0  0
  -25.9969  -16.2248   22.0038 C   0  0  0  0  0  0  0  0  0  0  0  0
  -21.4506  -28.8486   19.0241 C   0  0  0  0  0  0  0  0  0  0  0  0
  -29.1948  -12.9410   20.9474 C   0  0  0  0  0  0  0  0  0  0  0  0
  -30.0404  -12.4758   19.9403 C   0  0  0  0  0  0  0  0  0  0  0  0
  -21.8979  -29.2925   21.3526 C   0  0  0  0  0  0  0  0  0  0  0  0
  -20.9465  -25.1239   25.2999 C   0  0  0  0  0  0  0  0  0  0  0  0
  -28.7826  -13.7319   18.3040 C   0  0  0  0  0  0  0  0  0  0  0  0
  -27.0942  -18.3647   22.2353 C   0  0  0  0  0  0  0  0  0  0  0  0
  -27.4706  -20.7999   21.5752 C   0  0  0  0  0  0  0  0  0  0  0  0
  -30.0858  -26.1950   18.8088 C   0  0  0  0  0  0  0  0  0  0  0  0
  -23.6509  -29.6089   19.7136 C   0  0  0  0  0  0  0  0  0  0  0  0
  -28.6879  -26.2615   18.9633 C   0  0  0  0  0  0  0  0  0  0  0  0
  -23.2160  -29.6631   21.0455 C   0  0  0  0  0  0  0  0  0  0  0  0
  -19.9196  -25.9202   24.7931 C   0  0  0  0  0  0  0  0  0  0  0  0
  -19.1289  -25.4537   23.7430 C   0  0  0  0  0  0  0  0  0  0  0  0
  -19.3652  -24.1909   23.1996 C   0  0  0  0  0  0  0  0  0  0  0  0
  -21.1829  -23.8611   24.7565 C   0  0  0  0  0  0  0  0  0  0  0  0
  -27.2361  -15.6081   21.8312 C   0  0  0  0  0  0  0  0  0  0  0  0
  -21.0209  -28.8859   20.3473 C   0  0  0  0  0  0  0  0  0  0  0  0
  -28.1431  -13.8015   20.6328 C   0  0  0  0  0  0  0  0  0  0  0  0
  -29.8343  -12.8713   18.6186 C   0  0  0  0  0  0  0  0  0  0  0  0
  -27.9370  -14.1970   19.3112 C   0  0  0  0  0  0  0  0  0  0  0  0
  -20.3922  -23.3946   23.7064 C   0  0  0  0  0  0  0  0  0  0  0  0
  -27.0203  -19.7884   22.4446 C   0  0  0  0  0  0  0  0  0  0  0  0
  -27.1725  -21.9712   22.2276 C   0  0  0  0  0  0  0  0  0  0  0  0
  -28.1018  -20.6905   20.2925 C   0  0  0  0  0  0  0  0  0  0  0  0
  -26.4139  -28.4997   20.8267 C   0  0  0  0  0  0  0  0  0  0  0  0
  -26.3484  -31.2204   22.5919 C   0  0  0  0  0  0  0  0  0  0  0  0
  -24.4945  -33.7117   24.0073 C   0  0  0  0  0  0  0  0  0  0  0  0
  -23.0917  -23.4274   26.3424 C   0  0  0  0  0  0  0  0  0  0  0  0
  -31.0252  -26.4935   19.9503 C   0  0  0  0  0  0  0  0  0  0  0  0
  -25.0507  -30.0237   19.3519 C   0  0  0  0  0  0  0  0  0  0  0  0
  -24.1287  -30.1013   22.1606 C   0  0  0  0  0  0  0  0  0  0  0  0
  -30.3714  -27.2706   21.0900 C   0  0  0  0  0  0  0  0  0  0  0  0
  -26.6238  -23.7694   26.6321 C   0  0  0  0  0  0  0  0  0  0  0  0
  -29.0217  -26.6572   21.4489 C   0  0  0  0  0  0  0  0  0  0  0  0
  -27.1672  -22.8842   25.5082 C   0  0  0  0  0  0  0  0  0  0  0  0
  -25.3786  -23.1650   27.2784 C   0  0  0  0  0  0  0  0  0  0  0  0
  -24.8483  -21.9218   25.2187 C   0  0  0  0  0  0  0  0  0  0  0  0
  -28.0548  -26.7172   20.2601 C   0  0  1  0  0  0  0  0  0  0  0  0
  -26.0258  -29.9186   20.5205 C   0  0  1  0  0  0  0  0  0  0  0  0
  -26.0648  -22.5208   24.4941 C   0  0  2  0  0  0  0  0  0  0  0  0
  -19.6879  -27.2690   25.3923 C   0  0  0  0  0  0  0  0  0  0  0  0
  -18.5062  -23.7093   22.0712 C   0  0  0  0  0  0  0  0  0  0  0  0
  -24.0152  -35.8521   25.2264 C   0  0  0  0  0  0  0  0  0  0  0  0
  -26.7457  -29.4773   25.0644 C   0  0  0  0  0  0  0  0  0  0  0  0
  -26.0176  -31.4202   26.4655 C   0  0  0  0  0  0  0  0  0  0  0  0
  -28.0705  -31.5984   25.0596 C   0  0  0  0  0  0  0  0  0  0  0  0
  -24.6102  -35.2955   21.5099 C   0  0  0  0  0  0  0  0  0  0  0  0
  -18.0215  -26.3190   23.1966 C   0  0  0  0  0  0  0  0  0  0  0  0
  -18.3604  -26.9818   21.8596 C   0  0  0  0  0  0  0  0  0  0  0  0
  -19.5266  -27.9592   21.9487 C   0  0  0  0  0  0  0  0  0  1  0  0
  -25.8009  -31.6036   23.9455 C   0  0  1  0  0  0  0  0  0  0  0  0
  -24.6660  -35.2200   24.0059 C   0  0  2  0  0  0  0  0  0  0  0  0
  -26.6418  -31.0147   25.1132 C   0  0  0  0  0  0  0  0  0  0  0  0
  -26.4776  -20.2745   23.5640 N   0  0  0  0  0  0  0  0  0  0  0  0
  -26.5850  -21.6044   23.4025 N   0  0  0  0  0  0  0  0  0  0  0  0
  -25.4899  -30.4911   21.7571 N   0  0  0  0  0  0  0  0  0  0  0  0
  -24.3764  -22.8503   26.2579 N   0  0  0  0  0  0  0  0  0  0  0  0
  -27.3583  -23.2689   21.9052 N   0  0  0  0  0  0  0  0  0  0  0  0
  -27.2915  -20.6624   19.1493 N   0  0  0  0  0  0  0  0  0  0  0  0
  -22.2342  -23.0810   25.2987 N   0  0  0  0  0  0  0  0  0  0  0  0
  -27.5116  -28.0510   20.1173 N   0  0  0  0  0  0  0  0  0  0  0  0
  -25.7081  -33.0596   23.9510 N   0  0  0  0  0  0  0  0  0  0  0  0
  -24.0481  -35.8104   22.7851 N   0  3  0  0  0  0  0  0  0  0  0  0
  -29.3467  -20.6033   20.1649 O   0  0  0  0  0  0  0  0  0  0  0  0
  -25.7664  -27.8598   21.6471 O   0  0  0  0  0  0  0  0  0  0  0  0
  -27.4929  -31.5620   22.2836 O   0  0  0  0  0  0  0  0  0  0  0  0
  -23.3941  -33.1665   24.0574 O   0  0  0  0  0  0  0  0  0  0  0  0
  -22.7842  -24.1956   27.2575 O   0  0  0  0  0  0  0  0  0  0  0  0
  -27.3050  -14.2631   21.6339 O   0  0  0  0  0  0  0  0  0  0  0  0
  -19.7448  -28.5309   20.6596 O   0  0  0  0  0  0  0  0  0  1  0  0
  -30.6473  -12.4257   17.6518 F   0  0  0  0  0  0  0  0  0  0  0  0
  -26.9290  -15.0245   19.0030 F   0  0  0  0  0  0  0  0  0  0  0  0
  -20.6839  -21.8242   23.0304 Cl  0  0  0  0  0  0  0  0  0  0  0  0
  1  2  1  0  0  0  0
  1  5  2  0  0  0  0
  2  6  2  0  0  0  0
  3  8  2  0  0  0  0
  3 16  1  0  0  0  0
  4  9  1  0  0  0  0
  4 16  2  0  0  0  0
  5 18  1  0  0  0  0
  6 20  1  0  0  0  0
  7 10  2  0  0  0  0
  7 19  1  0  0  0  0
  8 26  1  0  0  0  0
  9 26  2  0  0  0  0
 10 27  1  0  0  0  0
 11 12  2  0  0  0  0
 11 28  1  0  0  0  0
 12 29  1  0  0  0  0
 13 21  1  0  0  0  0
 13 27  2  0  0  0  0
 14 22  2  0  0  0  0
 14 25  1  0  0  0  0
 15 29  2  0  0  0  0
 15 30  1  0  0  0  0
 16 32  1  0  0  0  0
 17 32  1  0  0  0  0
 17 33  2  0  0  0  0
 17 34  1  0  0  0  0
 18 20  2  0  0  0  0
 18 39  1  0  0  0  0
 19 21  2  0  0  0  0
 19 40  1  0  0  0  0
 20 48  1  0  0  0  0
 21 41  1  0  0  0  0
 22 23  1  0  0  0  0
 22 51  1  0  0  0  0
 23 24  2  0  0  0  0
 23 58  1  0  0  0  0
 24 31  1  0  0  0  0
 24 52  1  0  0  0  0
 25 31  2  0  0  0  0
 25 70  1  0  0  0  0
 26 79  1  0  0  0  0
 27 80  1  0  0  0  0
 28 30  2  0  0  0  0
 28 79  1  0  0  0  0
 29 81  1  0  0  0  0
 30 82  1  0  0  0  0
 31 83  1  0  0  0  0
 32 64  2  0  0  0  0
 33 65  1  0  0  0  0
 33 68  1  0  0  0  0
 34 69  1  0  0  0  0
 34 74  2  0  0  0  0
 35 49  1  0  0  0  0
 35 71  1  0  0  0  0
 35 75  2  0  0  0  0
 36 61  1  0  0  0  0
 36 66  1  0  0  0  0
 36 76  2  0  0  0  0
 37 62  1  0  0  0  0
 37 72  1  0  0  0  0
 37 77  2  0  0  0  0
 38 67  1  0  0  0  0
 38 70  1  0  0  0  0
 38 78  2  0  0  0  0
 39 42  1  0  0  0  0
 40 49  1  0  0  0  0
 41 66  1  0  0  0  0
 42 44  1  0  0  0  0
 43 45  1  0  0  0  0
 43 46  1  0  0  0  0
 44 48  1  0  0  0  0
 45 50  1  0  0  0  0
 46 67  1  0  0  0  0
 47 50  1  0  0  0  0
 47 67  1  0  0  0  0
 48 71  1  0  0  0  0
 49 66  1  0  0  0  0
 50 65  1  0  0  0  0
 53 62  1  0  0  0  0
 54 63  1  0  0  0  0
 55 63  1  0  0  0  0
 56 63  1  0  0  0  0
 57 73  1  0  0  0  0
 58 59  1  0  0  0  0
 59 60  1  0  0  0  0
 60 80  1  0  0  0  0
 61 63  1  0  0  0  0
 61 72  1  0  0  0  0
 62 73  1  0  0  0  0
 64 65  1  0  0  0  0
M  CHG  1  73   1
M  ISO  4  38 100  60 101  70 100  80 101
M  END
> <Batch ID>
0022

> <Smiles>
CNC(C)C(=O)NC(C(=O)N1Cc2cc([101O:1][101CH2:1]CCc3c(C)cc([100NH:0][100C:0](=O)N4CCCC(n5nc(-c6ccc(Oc7ccc(F)cc7F)cc6)c(C(N)=O)c5N)C4)c(Cl)c3C)ccc2CC1C(=O)NC1CCCc2ccccc21)C(C)(C)C

> <Shape>
0.286

> <Color>
0.080

> <Negative vol penalty>
0.000

$$$$

  -OEChem-04052316153D

 84 92  0     1  0  0  0  0  0999 V2000
  -42.2391  -27.8529   19.7775 C   0  0  0  0  0  0  0  0  0  0  0  0
  -41.5407  -26.8808   20.4864 C   0  0  0  0  0  0  0  0  0  0  0  0
  -23.0047   -9.8857   19.9909 C   0  0  0  0  0  0  0  0  0  0  0  0
  -23.7236   -9.9581   22.2963 C   0  0  0  0  0  0  0  0  0  0  0  0
  -41.6300  -29.0722   19.4837 C   0  0  0  0  0  0  0  0  0  0  0  0
  -40.2331  -27.1278   20.9029 C   0  0  0  0  0  0  0  0  0  0  0  0
  -37.1460  -23.2073   20.0399 C   0  0  0  0  0  0  0  0  0  0  0  0
  -22.2394   -8.7522   20.2651 C   0  0  0  0  0  0  0  0  0  0  0  0
  -22.9582   -8.8247   22.5706 C   0  0  0  0  0  0  0  0  0  0  0  0
  -37.2178  -22.1333   20.9260 C   0  0  0  0  0  0  0  0  0  0  0  0
  -23.2095   -5.4822   22.1287 C   0  0  0  0  0  0  0  0  0  0  0  0
  -23.7967   -4.4726   22.8913 C   0  0  0  0  0  0  0  0  0  0  0  0
  -35.2558  -22.9512   22.0667 C   0  0  0  0  0  0  0  0  0  0  0  0
  -32.0463  -16.5518   22.5139 C   0  0  0  0  0  0  0  0  0  0  0  0
  -22.0679   -4.7273   24.5597 C   0  0  0  0  0  0  0  0  0  0  0  0
  -23.7468  -10.4886   21.0065 C   0  0  0  0  0  0  0  0  0  0  0  0
  -24.1283  -13.0032   20.8094 C   0  0  0  0  0  0  0  0  0  0  0  0
  -40.3109  -29.3306   19.8884 C   0  0  0  0  0  0  0  0  0  0  0  0
  -36.1333  -24.1689   20.1674 C   0  0  0  0  0  0  0  0  0  0  0  0
  -39.6062  -28.3522   20.6154 C   0  0  0  0  0  0  0  0  0  0  0  0
  -35.1719  -24.0350   21.1793 C   0  0  0  0  0  0  0  0  0  0  0  0
  -32.6657  -17.4416   23.3914 C   0  0  0  0  0  0  0  0  0  0  0  0
  -30.5135  -18.3834   23.9555 C   0  0  0  0  0  0  0  0  0  0  0  0
  -30.6604  -16.5778   22.3571 C   0  0  0  0  0  0  0  0  0  0  0  0
  -22.2161   -8.2218   21.5550 C   0  0  0  0  0  0  0  0  0  0  0  0
  -36.2743  -22.0067   21.9414 C   0  0  0  0  0  0  0  0  0  0  0  0
  -22.0515   -6.1144   22.5816 C   0  0  0  0  0  0  0  0  0  0  0  0
  -23.2259   -4.0952   24.1068 C   0  0  0  0  0  0  0  0  0  0  0  0
  -21.4807   -5.7369   23.7971 C   0  0  0  0  0  0  0  0  0  0  0  0
  -31.8994  -18.3574   24.1122 C   0  0  0  0  0  0  0  0  0  0  0  0
  -29.8941  -17.4936   23.0780 C   0  0  0  0  0  0  0  0  0  0  0  0
  -24.5381  -11.6591   20.7237 C   0  0  0  0  0  0  0  0  0  0  0  0
  -25.2379  -13.7245   20.4417 C   0  0  0  0  0  0  0  0  0  0  0  0
  -22.8584  -13.5508   21.1877 C   0  0  0  0  0  0  0  0  0  0  0  0
  -36.0677  -27.2954   20.7367 C   0  0  0  0  0  0  0  0  0  0  0  0
  -32.8937  -26.9370   20.1710 C   0  0  0  0  0  0  0  0  0  0  0  0
  -30.1767  -24.8728   20.1099 C   0  0  0  0  0  0  0  0  0  0  0  0
  -30.7150  -14.6970   20.6819 C   0  0  0  0  0  0  0  0  0  0  0  0
  -39.7110  -30.6815   19.5887 C   0  0  0  0  0  0  0  0  0  0  0  0
  -36.0541  -25.3068   19.1871 C   0  0  0  0  0  0  0  0  0  0  0  0
  -34.0530  -25.0292   21.3465 C   0  0  0  0  0  0  0  0  0  0  0  0
  -38.1926  -30.7209   19.7406 C   0  0  0  0  0  0  0  0  0  0  0  0
  -29.6072  -12.2219   18.3746 C   0  0  0  0  0  0  0  0  0  0  0  0
  -37.7689  -30.0511   21.0439 C   0  0  0  0  0  0  0  0  0  0  0  0
  -28.1560  -11.9654   18.7871 C   0  0  0  0  0  0  0  0  0  0  0  0
  -30.5040  -12.4775   19.5846 C   0  0  0  0  0  0  0  0  0  0  0  0
  -28.5838  -13.2747   20.9060 C   0  0  0  0  0  0  0  0  0  0  0  0
  -38.1776  -28.5732   21.0629 C   0  0  1  0  0  0  0  0  0  0  0  0
  -35.2827  -26.5075   19.7264 C   0  0  1  0  0  0  0  0  0  0  0  0
  -27.6296  -13.0763   19.7169 C   0  0  2  0  0  0  0  0  0  0  0  0
  -29.7295  -19.3793   24.7489 C   0  0  0  0  0  0  0  0  0  0  0  0
  -27.7109  -24.8755   19.6439 C   0  0  0  0  0  0  0  0  0  0  0  0
  -32.3893  -28.2866   22.8606 C   0  0  0  0  0  0  0  0  0  0  0  0
  -30.0424  -27.4185   22.7773 C   0  0  0  0  0  0  0  0  0  0  0  0
  -30.8467  -29.0044   21.0277 C   0  0  0  0  0  0  0  0  0  0  0  0
  -30.4743  -22.9247   17.9019 C   0  0  0  0  0  0  0  0  0  0  0  0
  -34.1562  -17.4102   23.5598 C   0  0  0  0  0  0  0  0  0  0  0  0
  -36.3149  -18.5703   23.0772 C   0  0  0  0  0  0  0  0  0  0  0  0
  -36.8990  -19.7424   22.3136 C   0  0  0  0  0  0  0  0  0  1  0  0
  -31.6858  -26.6194   21.0190 C   0  0  1  0  0  0  0  0  0  0  0  0
  -29.0991  -24.6569   19.0627 C   0  0  2  0  0  0  0  0  0  0  0  0
  -31.2632  -27.8144   21.9195 C   0  0  0  0  0  0  0  0  0  0  0  0
  -25.8086  -11.5313   20.3321 N   0  0  0  0  0  0  0  0  0  0  0  0
  -26.2068  -12.8044   20.1684 N   0  0  0  0  0  0  0  0  0  0  0  0
  -34.0219  -26.1279   20.3670 N   0  0  0  0  0  0  0  0  0  0  0  0
  -29.9449  -13.5448   20.4171 N   0  0  0  0  0  0  0  0  0  0  0  0
  -25.4693  -15.0496   20.3286 N   0  0  0  0  0  0  0  0  0  0  0  0
  -21.8272  -12.6679   21.5362 N   0  0  0  0  0  0  0  0  0  0  0  0
  -30.0670  -15.6580   21.4573 N   0  0  0  0  0  0  0  0  0  0  0  0
  -37.2673  -27.7867   20.2583 N   0  0  0  0  0  0  0  0  0  0  0  0
  -30.6478  -26.1687   20.0982 N   0  0  0  0  0  0  0  0  0  0  0  0
  -29.1702  -23.2688   18.5249 N   0  3  0  0  0  0  0  0  0  0  0  0
  -34.8438  -18.5403   22.8788 N   0  3  0  0  0  0  0  0  0  0  0  0
  -22.6395  -14.7859   21.2000 O   0  0  0  0  0  0  0  0  0  0  0  0
  -35.6175  -27.4476   21.8663 O   0  0  0  0  0  0  0  0  0  0  0  0
  -32.8360  -27.8641   19.3594 O   0  0  0  0  0  0  0  0  0  0  0  0
  -30.5594  -23.9822   20.8654 O   0  0  0  0  0  0  0  0  0  0  0  0
  -31.8547  -14.8339   20.2298 O   0  0  0  0  0  0  0  0  0  0  0  0
  -21.4692   -7.1159   21.8230 O   0  0  0  0  0  0  0  0  0  0  0  0
  -36.3423  -20.9598   22.8081 O   0  0  0  0  0  0  0  0  0  1  0  0
  -23.7891   -3.1246   24.8383 F   0  0  0  0  0  0  0  0  0  0  0  0
  -20.3676   -6.3397   24.2368 F   0  0  0  0  0  0  0  0  0  0  0  0
  -32.4966  -19.2117   24.9567 F   0  0  0  0  0  0  0  0  0  0  0  0
  -28.1713  -17.5300   22.8875 Cl  0  0  0  0  0  0  0  0  0  0  0  0
  1  2  1  0  0  0  0
  1  5  2  0  0  0  0
  2  6  2  0  0  0  0
  3  8  2  0  0  0  0
  3 16  1  0  0  0  0
  4  9  1  0  0  0  0
  4 16  2  0  0  0  0
  5 18  1  0  0  0  0
  6 20  1  0  0  0  0
  7 10  2  0  0  0  0
  7 19  1  0  0  0  0
  8 25  1  0  0  0  0
  9 25  2  0  0  0  0
 10 26  1  0  0  0  0
 11 12  2  0  0  0  0
 11 27  1  0  0  0  0
 12 28  1  0  0  0  0
 13 21  1  0  0  0  0
 13 26  2  0  0  0  0
 14 22  1  0  0  0  0
 14 24  2  0  0  0  0
 15 28  2  0  0  0  0
 15 29  1  0  0  0  0
 16 32  1  0  0  0  0
 17 32  1  0  0  0  0
 17 33  2  0  0  0  0
 17 34  1  0  0  0  0
 18 20  2  0  0  0  0
 18 39  1  0  0  0  0
 19 21  2  0  0  0  0
 19 40  1  0  0  0  0
 20 48  1  0  0  0  0
 21 41  1  0  0  0  0
 22 30  2  0  0  0  0
 22 57  1  0  0  0  0
 23 30  1  0  0  0  0
 23 31  2  0  0  0  0
 23 51  1  0  0  0  0
 24 31  1  0  0  0  0
 24 69  1  0  0  0  0
 25 79  1  0  0  0  0
 26 80  1  0  0  0  0
 27 29  2  0  0  0  0
 27 79  1  0  0  0  0
 28 81  1  0  0  0  0
 29 82  1  0  0  0  0
 30 83  1  0  0  0  0
 31 84  1  0  0  0  0
 32 63  2  0  0  0  0
 33 64  1  0  0  0  0
 33 67  1  0  0  0  0
 34 68  1  0  0  0  0
 34 74  2  0  0  0  0
 35 49  1  0  0  0  0
 35 70  1  0  0  0  0
 35 75  2  0  0  0  0
 36 60  1  0  0  0  0
 36 65  1  0  0  0  0
 36 76  2  0  0  0  0
 37 61  1  0  0  0  0
 37 71  1  0  0  0  0
 37 77  2  0  0  0  0
 38 66  1  0  0  0  0
 38 69  1  0  0  0  0
 38 78  2  0  0  0  0
 39 42  1  0  0  0  0
 40 49  1  0  0  0  0
 41 65  1  0  0  0  0
 42 44  1  0  0  0  0
 43 45  1  0  0  0  0
 43 46  1  0  0  0  0
 44 48  1  0  0  0  0
 45 50  1  0  0  0  0
 46 66  1  0  0  0  0
 47 50  1  0  0  0  0
 47 66  1  0  0  0  0
 48 70  1  0  0  0  0
 49 65  1  0  0  0  0
 50 64  1  0  0  0  0
 52 61  1  0  0  0  0
 53 62  1  0  0  0  0
 54 62  1  0  0  0  0
 55 62  1  0  0  0  0
 56 72  1  0  0  0  0
 57 73  1  0  0  0  0
 58 59  1  0  0  0  0
 58 73  1  0  0  0  0
 59 80  1  0  0  0  0
 60 62  1  0  0  0  0
 60 71  1  0  0  0  0
 61 72  1  0  0  0  0
 63 64  1  0  0  0  0
M  CHG  2  72   1  73   1
M  ISO  4  38 100  59 101  69 100  80 101
M  END
> <Batch ID>
0022

> <Smiles>
CNC(C)C(=O)NC(C(=O)N1Cc2cc([101O:1][101CH2:1]CNCc3cc([100NH:0][100C:0](=O)N4CCCC(n5nc(-c6ccc(Oc7ccc(F)cc7F)cc6)c(C(N)=O)c5N)C4)c(Cl)c(C)c3F)ccc2CC1C(=O)NC1CCCc2ccccc21)C(C)(C)C

> <Shape>
0.223

> <Color>
0.198

> <Negative vol penalty>
0.000

$$$$

  -OEChem-04052316153D

 89 97  0     1  0  0  0  0  0999 V2000
  -32.7478  -32.9850   16.5579 C   0  0  0  0  0  0  0  0  0  0  0  0
  -32.7068  -32.4630   17.8468 C   0  0  0  0  0  0  0  0  0  0  0  0
  -22.9896   -9.9014   19.9828 C   0  0  0  0  0  0  0  0  0  0  0  0
  -23.7152   -9.9472   22.2868 C   0  0  0  0  0  0  0  0  0  0  0  0
  -31.6734  -32.7860   15.6919 C   0  0  0  0  0  0  0  0  0  0  0  0
  -31.5907  -31.7426   18.2708 C   0  0  0  0  0  0  0  0  0  0  0  0
  -31.5329  -26.9507   22.0840 C   0  0  0  0  0  0  0  0  0  0  0  0
  -22.2183   -8.7699   20.2482 C   0  0  0  0  0  0  0  0  0  0  0  0
  -22.9439   -8.8157   22.5522 C   0  0  0  0  0  0  0  0  0  0  0  0
  -31.2639  -26.8402   23.4475 C   0  0  0  0  0  0  0  0  0  0  0  0
  -23.1742   -5.4762   22.0771 C   0  0  0  0  0  0  0  0  0  0  0  0
  -23.7575   -4.4559   22.8282 C   0  0  0  0  0  0  0  0  0  0  0  0
  -28.9842  -26.2344   22.9426 C   0  0  0  0  0  0  0  0  0  0  0  0
  -31.9160  -18.2960   24.1660 C   0  0  0  0  0  0  0  0  0  0  0  0
  -32.0764  -16.5018   22.5562 C   0  0  0  0  0  0  0  0  0  0  0  0
  -22.0349   -4.7044   24.5038 C   0  0  0  0  0  0  0  0  0  0  0  0
  -23.7381  -10.4901   21.0021 C   0  0  0  0  0  0  0  0  0  0  0  0
  -24.1339  -13.0042   20.8284 C   0  0  0  0  0  0  0  0  0  0  0  0
  -30.5477  -32.0546   16.1024 C   0  0  0  0  0  0  0  0  0  0  0  0
  -30.5249  -26.7141   21.1382 C   0  0  0  0  0  0  0  0  0  0  0  0
  -30.4996  -31.5348   17.4100 C   0  0  0  0  0  0  0  0  0  0  0  0
  -29.2436  -26.3400   21.5676 C   0  0  0  0  0  0  0  0  0  0  0  0
  -32.6887  -17.3873   23.4431 C   0  0  0  0  0  0  0  0  0  0  0  0
  -30.5309  -18.3191   24.0023 C   0  0  0  0  0  0  0  0  0  0  0  0
  -29.9186  -17.4336   23.1154 C   0  0  0  0  0  0  0  0  0  0  0  0
  -30.6913  -16.5249   22.3923 C   0  0  0  0  0  0  0  0  0  0  0  0
  -22.1955   -8.2271   21.5328 C   0  0  0  0  0  0  0  0  0  0  0  0
  -29.9886  -26.4848   23.8771 C   0  0  0  0  0  0  0  0  0  0  0  0
  -22.0212   -6.1108   22.5394 C   0  0  0  0  0  0  0  0  0  0  0  0
  -23.1879   -4.0699   24.0415 C   0  0  0  0  0  0  0  0  0  0  0  0
  -21.4515   -5.7249   23.7528 C   0  0  0  0  0  0  0  0  0  0  0  0
  -24.5354  -11.6586   20.7285 C   0  0  0  0  0  0  0  0  0  0  0  0
  -25.2467  -13.7224   20.4645 C   0  0  0  0  0  0  0  0  0  0  0  0
  -22.8683  -13.5555   21.2156 C   0  0  0  0  0  0  0  0  0  0  0  0
  -29.0933  -28.4605   18.9013 C   0  0  0  0  0  0  0  0  0  0  0  0
  -27.6921  -25.6347   18.1436 C   0  0  0  0  0  0  0  0  0  0  0  0
  -26.7318  -22.5167   19.1447 C   0  0  0  0  0  0  0  0  0  0  0  0
  -30.7301  -14.6603   20.6988 C   0  0  0  0  0  0  0  0  0  0  0  0
  -29.3905  -31.9060   15.1466 C   0  0  0  0  0  0  0  0  0  0  0  0
  -30.8382  -26.8114   19.6703 C   0  0  0  0  0  0  0  0  0  0  0  0
  -28.1319  -26.0556   20.5920 C   0  0  0  0  0  0  0  0  0  0  0  0
  -28.4052  -30.8115   15.5485 C   0  0  0  0  0  0  0  0  0  0  0  0
  -29.6013  -12.2143   18.3707 C   0  0  0  0  0  0  0  0  0  0  0  0
  -28.0663  -30.9168   17.0320 C   0  0  0  0  0  0  0  0  0  0  0  0
  -28.1497  -11.9624   18.7847 C   0  0  0  0  0  0  0  0  0  0  0  0
  -30.5030  -12.4528   19.5806 C   0  0  0  0  0  0  0  0  0  0  0  0
  -28.5911  -13.2485   20.9150 C   0  0  0  0  0  0  0  0  0  0  0  0
  -29.3171  -30.7266   17.8985 C   0  0  1  0  0  0  0  0  0  0  0  0
  -29.6012  -27.0494   18.8098 C   0  0  1  0  0  0  0  0  0  0  0  0
  -27.6325  -13.0672   19.7268 C   0  0  2  0  0  0  0  0  0  0  0  0
  -28.4321  -17.4619   22.9440 C   0  0  0  0  0  0  0  0  0  0  0  0
  -25.5750  -20.4503   18.3144 C   0  0  0  0  0  0  0  0  0  0  0  0
  -24.9990  -27.0484   18.3853 C   0  0  0  0  0  0  0  0  0  0  0  0
  -23.9063  -24.7984   18.4935 C   0  0  0  0  0  0  0  0  0  0  0  0
  -25.1783  -25.4684   16.4550 C   0  0  0  0  0  0  0  0  0  0  0  0
  -29.1342  -20.8489   19.5986 C   0  0  0  0  0  0  0  0  0  0  0  0
  -29.7190  -19.3102   24.7976 C   0  0  0  0  0  0  0  0  0  0  0  0
  -30.4591  -20.6185   25.0980 C   0  0  0  0  0  0  0  0  0  0  0  0
  -29.6128  -21.6165   25.8947 C   0  0  0  0  0  0  0  0  0  0  0  0
  -30.3794  -22.9180   26.1445 C   0  0  0  0  0  0  0  0  0  0  0  0
  -29.5220  -23.9264   26.9123 C   0  0  0  0  0  0  0  0  0  0  0  0
  -30.2697  -25.2187   27.2599 C   0  0  0  0  0  0  0  0  0  0  0  0
  -30.8024  -25.9863   26.0555 C   0  0  0  0  0  0  0  0  0  1  0  0
  -26.4383  -24.9134   18.5755 C   0  0  1  0  0  0  0  0  0  0  0  0
  -26.9106  -21.1529   18.5023 C   0  0  2  0  0  0  0  0  0  0  0  0
  -34.1694  -17.3615   23.6192 C   0  0  0  0  0  0  0  0  0  0  0  0
  -25.1507  -25.5643   17.9960 C   0  0  0  0  0  0  0  0  0  0  0  0
  -25.8041  -11.5271   20.3320 N   0  0  0  0  0  0  0  0  0  0  0  0
  -26.2094  -12.7994   20.1796 N   0  0  0  0  0  0  0  0  0  0  0  0
  -28.4861  -26.1702   19.1676 N   0  0  0  0  0  0  0  0  0  0  0  0
  -29.9525  -13.5153   20.4249 N   0  0  0  0  0  0  0  0  0  0  0  0
  -25.4857  -15.0472   20.3637 N   0  0  0  0  0  0  0  0  0  0  0  0
  -21.8329  -12.6754   21.5584 N   0  0  0  0  0  0  0  0  0  0  0  0
  -30.0900  -15.6175   21.4853 N   0  0  0  0  0  0  0  0  0  0  0  0
  -29.6633  -29.3241   17.9854 N   0  0  0  0  0  0  0  0  0  0  0  0
  -26.6219  -23.5155   18.2005 N   0  0  0  0  0  0  0  0  0  0  0  0
  -27.7800  -20.2903   19.3514 N   0  3  0  0  0  0  0  0  0  0  0  0
  -22.6568  -14.7917   21.2405 O   0  0  0  0  0  0  0  0  0  0  0  0
  -28.2458  -28.7445   19.7397 O   0  0  0  0  0  0  0  0  0  0  0  0
  -27.9610  -25.7138   16.9423 O   0  0  0  0  0  0  0  0  0  0  0  0
  -26.6899  -22.6791   20.3622 O   0  0  0  0  0  0  0  0  0  0  0  0
  -31.8693  -14.7949   20.2447 O   0  0  0  0  0  0  0  0  0  0  0  0
  -21.4428   -7.1231   21.7922 O   0  0  0  0  0  0  0  0  0  0  0  0
  -29.7232  -26.3769   25.2075 O   0  0  0  0  0  0  0  0  0  1  0  0
  -23.7473   -3.0890   24.7619 F   0  0  0  0  0  0  0  0  0  0  0  0
  -20.3432   -6.3300   24.2015 F   0  0  0  0  0  0  0  0  0  0  0  0
  -34.6299  -18.2811   24.5184 F   0  0  0  0  0  0  0  0  0  0  0  0
  -34.6465  -16.1608   24.0622 F   0  0  0  0  0  0  0  0  0  0  0  0
  -34.8409  -17.6166   22.4586 F   0  0  0  0  0  0  0  0  0  0  0  0
  1  2  1  0  0  0  0
  1  5  2  0  0  0  0
  2  6  2  0  0  0  0
  3  8  2  0  0  0  0
  3 17  1  0  0  0  0
  4  9  1  0  0  0  0
  4 17  2  0  0  0  0
  5 19  1  0  0  0  0
  6 21  1  0  0  0  0
  7 10  2  0  0  0  0
  7 20  1  0  0  0  0
  8 27  1  0  0  0  0
  9 27  2  0  0  0  0
 10 28  1  0  0  0  0
 11 12  2  0  0  0  0
 11 29  1  0  0  0  0
 12 30  1  0  0  0  0
 13 22  1  0  0  0  0
 13 28  2  0  0  0  0
 14 23  2  0  0  0  0
 14 24  1  0  0  0  0
 15 23  1  0  0  0  0
 15 26  2  0  0  0  0
 16 30  2  0  0  0  0
 16 31  1  0  0  0  0
 17 32  1  0  0  0  0
 18 32  1  0  0  0  0
 18 33  2  0  0  0  0
 18 34  1  0  0  0  0
 19 21  2  0  0  0  0
 19 39  1  0  0  0  0
 20 22  2  0  0  0  0
 20 40  1  0  0  0  0
 21 48  1  0  0  0  0
 22 41  1  0  0  0  0
 23 66  1  0  0  0  0
 24 25  2  0  0  0  0
 24 57  1  0  0  0  0
 25 26  1  0  0  0  0
 25 51  1  0  0  0  0
 26 74  1  0  0  0  0
 27 83  1  0  0  0  0
 28 84  1  0  0  0  0
 29 31  2  0  0  0  0
 29 83  1  0  0  0  0
 30 85  1  0  0  0  0
 31 86  1  0  0  0  0
 32 68  2  0  0  0  0
 33 69  1  0  0  0  0
 33 72  1  0  0  0  0
 34 73  1  0  0  0  0
 34 78  2  0  0  0  0
 35 49  1  0  0  0  0
 35 75  1  0  0  0  0
 35 79  2  0  0  0  0
 36 64  1  0  0  0  0
 36 70  1  0  0  0  0
 36 80  2  0  0  0  0
 37 65  1  0  0  0  0
 37 76  1  0  0  0  0
 37 81  2  0  0  0  0
 38 71  1  0  0  0  0
 38 74  1  0  0  0  0
 38 82  2  0  0  0  0
 39 42  1  0  0  0  0
 40 49  1  0  0  0  0
 41 70  1  0  0  0  0
 42 44  1  0  0  0  0
 43 45  1  0  0  0  0
 43 46  1  0  0  0  0
 44 48  1  0  0  0  0
 45 50  1  0  0  0  0
 46 71  1  0  0  0  0
 47 50  1  0  0  0  0
 47 71  1  0  0  0  0
 48 75  1  0  0  0  0
 49 70  1  0  0  0  0
 50 69  1  0  0  0  0
 52 65  1  0  0  0  0
 53 67  1  0  0  0  0
 54 67  1  0  0  0  0
 55 67  1  0  0  0  0
 56 77  1  0  0  0  0
 57 58  1  0  0  0  0
 58 59  1  0  0  0  0
 59 60  1  0  0  0  0
 60 61  1  0  0  0  0
 61 62  1  0  0  0  0
 62 63  1  0  0  0  0
 63 84  1  0  0  0  0
 64 67  1  0  0  0  0
 64 76  1  0  0  0  0
 65 77  1  0  0  0  0
 66 87  1  0  0  0  0
 66 88  1  0  0  0  0
 66 89  1  0  0  0  0
 68 69  1  0  0  0  0
M  CHG  1  77   1
M  ISO  4  38 100  63 101  74 100  84 101
M  END
> <Batch ID>
0022

> <Smiles>
CNC(C)C(=O)NC(C(=O)N1Cc2cc([101O:1][101CH2:1]CCCCCCc3cc(C(F)(F)F)cc([100NH:0][100C:0](=O)N4CCCC(n5nc(-c6ccc(Oc7ccc(F)cc7F)cc6)c(C(N)=O)c5N)C4)c3C)ccc2CC1C(=O)NC1CCCc2ccccc21)C(C)(C)C

> <Shape>
0.240

> <Color>
0.198

> <Negative vol penalty>
0.000

$$$$

  -OEChem-04052316153D

 84 92  0     1  0  0  0  0  0999 V2000
  -29.0463  -30.1349   19.3486 C   0  0  0  0  0  0  0  0  0  0  0  0
  -28.5073  -28.9238   19.7707 C   0  0  0  0  0  0  0  0  0  0  0  0
  -22.5883  -11.4523   19.0399 C   0  0  0  0  0  0  0  0  0  0  0  0
  -23.3032   -9.8664   20.7165 C   0  0  0  0  0  0  0  0  0  0  0  0
  -28.5214  -31.3347   19.8270 C   0  0  0  0  0  0  0  0  0  0  0  0
  -27.4437  -28.9118   20.6723 C   0  0  0  0  0  0  0  0  0  0  0  0
  -23.8089  -25.6449   19.3456 C   0  0  0  0  0  0  0  0  0  0  0  0
  -21.5946  -10.5659   18.6251 C   0  0  0  0  0  0  0  0  0  0  0  0
  -22.3094   -8.9799   20.3017 C   0  0  0  0  0  0  0  0  0  0  0  0
  -24.0384  -24.2953   19.6095 C   0  0  0  0  0  0  0  0  0  0  0  0
  -21.8283   -6.7791   17.7806 C   0  0  0  0  0  0  0  0  0  0  0  0
  -22.1812   -5.4393   17.6196 C   0  0  0  0  0  0  0  0  0  0  0  0
  -22.6620  -24.4537   21.5843 C   0  0  0  0  0  0  0  0  0  0  0  0
  -26.0676  -16.4837   17.9902 C   0  0  0  0  0  0  0  0  0  0  0  0
  -27.8987  -17.0126   19.4747 C   0  0  0  0  0  0  0  0  0  0  0  0
  -20.5472   -4.8090   19.2839 C   0  0  0  0  0  0  0  0  0  0  0  0
  -23.4427  -11.1026   20.0857 C   0  0  0  0  0  0  0  0  0  0  0  0
  -24.3621  -13.0141   21.5030 C   0  0  0  0  0  0  0  0  0  0  0  0
  -27.4445  -31.3376   20.7275 C   0  0  0  0  0  0  0  0  0  0  0  0
  -23.0117  -26.4130   20.2064 C   0  0  0  0  0  0  0  0  0  0  0  0
  -26.9047  -30.1128   21.1643 C   0  0  0  0  0  0  0  0  0  0  0  0
  -22.4218  -25.8122   21.3276 C   0  0  0  0  0  0  0  0  0  0  0  0
  -26.5508  -17.1211   19.1329 C   0  0  0  0  0  0  0  0  0  0  0  0
  -26.9323  -15.7376   17.1894 C   0  0  0  0  0  0  0  0  0  0  0  0
  -28.2803  -15.6291   17.5312 C   0  0  0  0  0  0  0  0  0  0  0  0
  -21.4551   -9.3297   19.2559 C   0  0  0  0  0  0  0  0  0  0  0  0
  -23.4673  -23.7002   20.7306 C   0  0  0  0  0  0  0  0  0  0  0  0
  -20.8350   -7.1339   18.6934 C   0  0  0  0  0  0  0  0  0  0  0  0
  -21.5406   -4.4542   18.3712 C   0  0  0  0  0  0  0  0  0  0  0  0
  -20.1944   -6.1488   19.4450 C   0  0  0  0  0  0  0  0  0  0  0  0
  -28.7635  -16.2666   18.6739 C   0  0  0  0  0  0  0  0  0  0  0  0
  -24.4698  -12.0177   20.5143 C   0  0  0  0  0  0  0  0  0  0  0  0
  -25.6023  -13.6035   21.5330 C   0  0  0  0  0  0  0  0  0  0  0  0
  -23.2412  -13.3745   22.3212 C   0  0  0  0  0  0  0  0  0  0  0  0
  -23.4991  -28.9703   22.0301 C   0  0  0  0  0  0  0  0  0  0  0  0
  -20.2944  -28.7703   22.4906 C   0  0  0  0  0  0  0  0  0  0  0  0
  -17.4834  -26.8350   22.4956 C   0  0  0  0  0  0  0  0  0  0  0  0
  -29.8792  -13.7335   17.1552 C   0  0  0  0  0  0  0  0  0  0  0  0
  -26.9416  -32.6587   21.2535 C   0  0  0  0  0  0  0  0  0  0  0  0
  -22.7520  -27.8610   19.8931 C   0  0  0  0  0  0  0  0  0  0  0  0
  -21.5415  -26.5880   22.2719 C   0  0  0  0  0  0  0  0  0  0  0  0
  -25.5701  -32.5676   21.9174 C   0  0  0  0  0  0  0  0  0  0  0  0
  -30.2218  -12.7071   20.6939 C   0  0  0  0  0  0  0  0  0  0  0  0
  -25.5170  -31.3790   22.8720 C   0  0  0  0  0  0  0  0  0  0  0  0
  -28.7792  -12.4180   21.1045 C   0  0  0  0  0  0  0  0  0  0  0  0
  -30.4454  -12.4675   19.2038 C   0  0  0  0  0  0  0  0  0  0  0  0
  -28.0574  -12.9410   18.7408 C   0  0  0  0  0  0  0  0  0  0  0  0
  -25.7345  -30.0591   22.1223 C   0  0  1  0  0  0  0  0  0  0  0  0
  -22.3428  -28.6733   21.1179 C   0  0  1  0  0  0  0  0  0  0  0  0
  -27.7964  -13.2138   20.2297 C   0  0  1  0  0  0  0  0  0  0  0  0
  -26.3828  -15.0672   15.9718 C   0  0  0  0  0  0  0  0  0  0  0  0
  -15.0179  -26.9437   22.9501 C   0  0  0  0  0  0  0  0  0  0  0  0
  -20.8506  -28.7864   25.4906 C   0  0  0  0  0  0  0  0  0  0  0  0
  -18.5193  -27.9501   25.8567 C   0  0  0  0  0  0  0  0  0  0  0  0
  -18.8917  -30.1719   24.7854 C   0  0  0  0  0  0  0  0  0  0  0  0
  -29.5293  -15.4058   15.3909 C   0  0  0  0  0  0  0  0  0  0  0  0
  -16.8195  -26.0623   19.7170 C   0  0  0  0  0  0  0  0  0  0  0  0
  -25.6162  -17.9285   19.9981 C   0  0  0  0  0  0  0  0  0  0  0  0
  -25.5171  -19.4036   19.5938 C   0  0  0  0  0  0  0  0  0  0  0  0
  -24.6255  -20.2220   20.5287 C   0  0  0  0  0  0  0  0  0  0  0  0
  -24.5194  -21.6711   20.0734 C   0  0  0  0  0  0  0  0  0  1  0  0
  -19.3985  -28.0663   23.4809 C   0  0  1  0  0  0  0  0  0  0  0  0
  -16.1070  -27.0564   21.8948 C   0  0  2  0  0  0  0  0  0  0  0  0
  -19.4332  -28.7293   24.8869 C   0  0  0  0  0  0  0  0  0  0  0  0
  -25.6826  -11.9739   19.9565 N   0  0  0  0  0  0  0  0  0  0  0  0
  -26.3483  -12.9501   20.5967 N   0  0  0  0  0  0  0  0  0  0  0  0
  -21.3227  -28.0022   21.9261 N   0  0  0  0  0  0  0  0  0  0  0  0
  -29.4653  -13.1835   18.3858 N   0  0  0  0  0  0  0  0  0  0  0  0
  -26.1165  -14.6119   22.2686 N   0  0  0  0  0  0  0  0  0  0  0  0
  -22.0423  -12.6663   22.1614 N   0  0  0  0  0  0  0  0  0  0  0  0
  -24.5274  -29.6684   21.4261 N   0  0  0  0  0  0  0  0  0  0  0  0
  -18.0729  -28.0230   22.8732 N   0  0  0  0  0  0  0  0  0  0  0  0
  -29.1634  -14.8547   16.6938 N   0  0  0  0  0  0  0  0  0  0  0  0
  -15.8376  -26.0474   20.8317 N   0  3  0  0  0  0  0  0  0  0  0  0
  -23.2961  -14.3080   23.1572 O   0  0  0  0  0  0  0  0  0  0  0  0
  -23.4607  -28.5953   23.1961 O   0  0  0  0  0  0  0  0  0  0  0  0
  -20.0850  -29.9559   22.2221 O   0  0  0  0  0  0  0  0  0  0  0  0
  -17.9839  -25.7196   22.6212 O   0  0  0  0  0  0  0  0  0  0  0  0
  -30.7879  -13.2278   16.4851 O   0  0  0  0  0  0  0  0  0  0  0  0
  -20.4853   -8.4645   18.8515 O   0  0  0  0  0  0  0  0  0  0  0  0
  -23.6903  -22.3832   20.9909 O   0  0  0  0  0  0  0  0  0  1  0  0
  -21.8784   -3.1674   18.2154 F   0  0  0  0  0  0  0  0  0  0  0  0
  -19.2385   -6.4835   20.3226 F   0  0  0  0  0  0  0  0  0  0  0  0
  -30.4254  -16.1604   19.1366 Cl  0  0  0  0  0  0  0  0  0  0  0  0
  1  2  1  0  0  0  0
  1  5  2  0  0  0  0
  2  6  2  0  0  0  0
  3  8  2  0  0  0  0
  3 17  1  0  0  0  0
  4  9  1  0  0  0  0
  4 17  2  0  0  0  0
  5 19  1  0  0  0  0
  6 21  1  0  0  0  0
  7 10  2  0  0  0  0
  7 20  1  0  0  0  0
  8 26  1  0  0  0  0
  9 26  2  0  0  0  0
 10 27  1  0  0  0  0
 11 12  2  0  0  0  0
 11 28  1  0  0  0  0
 12 29  1  0  0  0  0
 13 22  1  0  0  0  0
 13 27  2  0  0  0  0
 14 23  1  0  0  0  0
 14 24  2  0  0  0  0
 15 23  2  0  0  0  0
 15 31  1  0  0  0  0
 16 29  2  0  0  0  0
 16 30  1  0  0  0  0
 17 32  1  0  0  0  0
 18 32  1  0  0  0  0
 18 33  2  0  0  0  0
 18 34  1  0  0  0  0
 19 21  2  0  0  0  0
 19 39  1  0  0  0  0
 20 22  2  0  0  0  0
 20 40  1  0  0  0  0
 21 48  1  0  0  0  0
 22 41  1  0  0  0  0
 23 58  1  0  0  0  0
 24 25  1  0  0  0  0
 24 51  1  0  0  0  0
 25 31  2  0  0  0  0
 25 73  1  0  0  0  0
 26 80  1  0  0  0  0
 27 81  1  0  0  0  0
 28 30  2  0  0  0  0
 28 80  1  0  0  0  0
 29 82  1  0  0  0  0
 30 83  1  0  0  0  0
 31 84  1  0  0  0  0
 32 65  2  0  0  0  0
 33 66  1  0  0  0  0
 33 69  1  0  0  0  0
 34 70  1  0  0  0  0
 34 75  2  0  0  0  0
 35 49  1  0  0  0  0
 35 71  1  0  0  0  0
 35 76  2  0  0  0  0
 36 62  1  0  0  0  0
 36 67  1  0  0  0  0
 36 77  2  0  0  0  0
 37 63  1  0  0  0  0
 37 72  1  0  0  0  0
 37 78  2  0  0  0  0
 38 68  1  0  0  0  0
 38 73  1  0  0  0  0
 38 79  2  0  0  0  0
 39 42  1  0  0  0  0
 40 49  1  0  0  0  0
 41 67  1  0  0  0  0
 42 44  1  0  0  0  0
 43 45  1  0  0  0  0
 43 46  1  0  0  0  0
 44 48  1  0  0  0  0
 45 50  1  0  0  0  0
 46 68  1  0  0  0  0
 47 50  1  0  0  0  0
 47 68  1  0  0  0  0
 48 71  1  0  0  0  0
 49 67  1  0  0  0  0
 50 66  1  0  0  0  0
 52 63  1  0  0  0  0
 53 64  1  0  0  0  0
 54 64  1  0  0  0  0
 55 64  1  0  0  0  0
 56 73  1  0  0  0  0
 57 74  1  0  0  0  0
 58 59  1  0  0  0  0
 59 60  1  0  0  0  0
 60 61  1  0  0  0  0
 61 81  1  0  0  0  0
 62 64  1  0  0  0  0
 62 72  1  0  0  0  0
 63 74  1  0  0  0  0
 65 66  1  0  0  0  0
M  CHG  1  74   1
M  ISO  4  38 100  61 101  73 100  81 101
M  END
> <Batch ID>
0022

> <Smiles>
CNC(C)C(=O)NC(C(=O)N1Cc2cc([101O:1][101CH2:1]CCCc3cc(C)c([100N:0](C)[100C:0](=O)N4CCCC(n5nc(-c6ccc(Oc7ccc(F)cc7F)cc6)c(C(N)=O)c5N)C4)c(Cl)c3)ccc2CC1C(=O)NC1CCCc2ccccc21)C(C)(C)C

> <Shape>
0.235

> <Color>
0.092

> <Negative vol penalty>
0.000

$$$$

  -OEChem-04052316153D

 85 93  0     1  0  0  0  0  0999 V2000
  -27.0702  -17.9092   14.3576 C   0  0  0  0  0  0  0  0  0  0  0  0
  -27.8467  -17.3440   15.3640 C   0  0  0  0  0  0  0  0  0  0  0  0
  -27.6264  -30.2127   20.7480 C   0  0  0  0  0  0  0  0  0  0  0  0
  -26.6661  -28.6736   22.3437 C   0  0  0  0  0  0  0  0  0  0  0  0
  -25.7088  -18.1251   14.5672 C   0  0  0  0  0  0  0  0  0  0  0  0
  -27.2625  -16.9954   16.5812 C   0  0  0  0  0  0  0  0  0  0  0  0
  -28.7321  -12.4292   18.2044 C   0  0  0  0  0  0  0  0  0  0  0  0
  -26.7084  -31.1883   21.1365 C   0  0  0  0  0  0  0  0  0  0  0  0
  -25.7481  -29.6493   22.7322 C   0  0  0  0  0  0  0  0  0  0  0  0
  -29.9932  -12.3377   18.7918 C   0  0  0  0  0  0  0  0  0  0  0  0
  -22.8529  -30.9505   21.5679 C   0  0  0  0  0  0  0  0  0  0  0  0
  -21.5205  -30.5648   21.7146 C   0  0  0  0  0  0  0  0  0  0  0  0
  -28.9718  -12.3771   20.9768 C   0  0  0  0  0  0  0  0  0  0  0  0
  -32.3158  -18.9950   21.6032 C   0  0  0  0  0  0  0  0  0  0  0  0
  -21.5839  -31.2291   24.0366 C   0  0  0  0  0  0  0  0  0  0  0  0
  -27.6053  -28.9553   21.3516 C   0  0  0  0  0  0  0  0  0  0  0  0
  -29.8299  -27.7153   21.4957 C   0  0  0  0  0  0  0  0  0  0  0  0
  -25.1056  -17.7701   15.7841 C   0  0  0  0  0  0  0  0  0  0  0  0
  -27.5802  -12.5064   19.0003 C   0  0  0  0  0  0  0  0  0  0  0  0
  -25.8921  -17.2080   16.8078 C   0  0  0  0  0  0  0  0  0  0  0  0
  -27.6971  -12.4669   20.3971 C   0  0  0  0  0  0  0  0  0  0  0  0
  -31.4722  -17.8883   21.5086 C   0  0  0  0  0  0  0  0  0  0  0  0
  -30.2867  -17.9754   20.7788 C   0  0  0  0  0  0  0  0  0  0  0  0
  -30.7883  -20.2761   20.2384 C   0  0  0  0  0  0  0  0  0  0  0  0
  -25.7692  -30.9066   22.1286 C   0  0  0  0  0  0  0  0  0  0  0  0
  -30.1134  -12.3146   20.1782 C   0  0  0  0  0  0  0  0  0  0  0  0
  -23.5509  -31.4753   22.6556 C   0  0  0  0  0  0  0  0  0  0  0  0
  -20.8860  -30.7041   22.9489 C   0  0  0  0  0  0  0  0  0  0  0  0
  -22.9163  -31.6147   23.8899 C   0  0  0  0  0  0  0  0  0  0  0  0
  -31.9738  -20.1890   20.9682 C   0  0  0  0  0  0  0  0  0  0  0  0
  -29.9447  -19.1693   20.1437 C   0  0  0  0  0  0  0  0  0  0  0  0
  -28.5530  -27.9469   20.9503 C   0  0  0  0  0  0  0  0  0  0  0  0
  -30.3248  -26.6568   20.7738 C   0  0  0  0  0  0  0  0  0  0  0  0
  -30.5081  -28.3961   22.5598 C   0  0  0  0  0  0  0  0  0  0  0  0
  -25.2783  -14.6595   19.4120 C   0  0  0  0  0  0  0  0  0  0  0  0
  -23.9743  -12.3380   21.2646 C   0  0  0  0  0  0  0  0  0  0  0  0
  -24.4448   -9.5460   23.1700 C   0  0  0  0  0  0  0  0  0  0  0  0
  -29.7018  -21.6468   18.4254 C   0  0  0  0  0  0  0  0  0  0  0  0
  -23.6400  -18.0662   15.9815 C   0  0  0  0  0  0  0  0  0  0  0  0
  -26.2253  -12.5778   18.3510 C   0  0  0  0  0  0  0  0  0  0  0  0
  -26.4900  -12.5266   21.2959 C   0  0  0  0  0  0  0  0  0  0  0  0
  -23.0224  -17.3236   17.1636 C   0  0  0  0  0  0  0  0  0  0  0  0
  -28.6120  -24.4664   16.5441 C   0  0  0  0  0  0  0  0  0  0  0  0
  -23.9206  -17.4340   18.3916 C   0  0  0  0  0  0  0  0  0  0  0  0
  -28.6045  -25.6042   17.5676 C   0  0  0  0  0  0  0  0  0  0  0  0
  -28.1694  -23.1425   17.1646 C   0  0  0  0  0  0  0  0  0  0  0  0
  -28.8941  -23.8865   19.3986 C   0  0  0  0  0  0  0  0  0  0  0  0
  -25.2898  -16.7937   18.1329 C   0  0  1  0  0  0  0  0  0  0  0  0
  -25.1556  -13.1693   19.2639 C   0  0  1  0  0  0  0  0  0  0  0  0
  -29.3949  -25.2266   18.8358 C   0  0  2  0  0  0  0  0  0  0  0  0
  -29.3963  -16.7741   20.6923 C   0  0  0  0  0  0  0  0  0  0  0  0
  -23.1950   -7.8948   24.5873 C   0  0  0  0  0  0  0  0  0  0  0  0
  -23.7926  -14.4018   23.5046 C   0  0  0  0  0  0  0  0  0  0  0  0
  -23.4517  -12.5180   25.1181 C   0  0  0  0  0  0  0  0  0  0  0  0
  -21.7953  -12.9114   23.2948 C   0  0  0  0  0  0  0  0  0  0  0  0
  -25.2187   -7.2855   21.4235 C   0  0  0  0  0  0  0  0  0  0  0  0
  -31.8666  -16.6107   22.2060 C   0  0  0  0  0  0  0  0  0  0  0  0
  -32.4655  -15.5539   21.2711 C   0  0  0  0  0  0  0  0  0  0  0  0
  -32.9301  -14.2945   22.0094 C   0  0  0  0  0  0  0  0  0  0  0  0
  -33.4907  -13.2582   21.0369 C   0  0  0  0  0  0  0  0  0  0  0  0
  -32.4380  -12.7973   20.0389 C   0  0  0  0  0  0  0  0  0  1  0  0
  -24.0652  -11.9564   22.7224 C   0  0  1  0  0  0  0  0  0  0  0  0
  -23.7225   -8.2111   23.1964 C   0  0  2  0  0  0  0  0  0  0  0  0
  -23.2993  -12.9477   23.6433 C   0  0  0  0  0  0  0  0  0  0  0  0
  -28.2552  -27.1034   19.9583 N   0  0  0  0  0  0  0  0  0  0  0  0
  -29.3522  -26.3316   19.8747 N   0  0  0  0  0  0  0  0  0  0  0  0
  -25.1876  -12.6021   20.6135 N   0  0  0  0  0  0  0  0  0  0  0  0
  -28.9647  -22.8481   18.3586 N   0  0  0  0  0  0  0  0  0  0  0  0
  -31.4927  -25.9818   20.8268 N   0  0  0  0  0  0  0  0  0  0  0  0
  -29.8555  -29.4620   23.1940 N   0  0  0  0  0  0  0  0  0  0  0  0
  -30.4455  -21.4909   19.5947 N   0  0  0  0  0  0  0  0  0  0  0  0
  -25.1979  -15.3519   18.2188 N   0  0  0  0  0  0  0  0  0  0  0  0
  -23.6009  -10.5764   22.8128 N   0  0  0  0  0  0  0  0  0  0  0  0
  -24.6439   -7.1153   22.7827 N   0  3  0  0  0  0  0  0  0  0  0  0
  -31.6653  -28.0794   22.9261 O   0  0  0  0  0  0  0  0  0  0  0  0
  -25.4330  -15.1453   20.5263 O   0  0  0  0  0  0  0  0  0  0  0  0
  -22.8680  -12.3925   20.7217 O   0  0  0  0  0  0  0  0  0  0  0  0
  -25.6374   -9.6636   23.4427 O   0  0  0  0  0  0  0  0  0  0  0  0
  -29.6966  -20.8300   17.5009 O   0  0  0  0  0  0  0  0  0  0  0  0
  -24.8734  -31.8585   22.5082 O   0  0  0  0  0  0  0  0  0  0  0  0
  -31.3432  -12.2260   20.7541 O   0  0  0  0  0  0  0  0  0  1  0  0
  -19.6060  -30.3352   23.0893 F   0  0  0  0  0  0  0  0  0  0  0  0
  -23.5813  -32.1194   24.9382 F   0  0  0  0  0  0  0  0  0  0  0  0
  -33.0521  -21.5319   21.1153 Cl  0  0  0  0  0  0  0  0  0  0  0  0
  -28.4676  -19.2693   19.2380 Cl  0  0  0  0  0  0  0  0  0  0  0  0
  1  2  1  0  0  0  0
  1  5  2  0  0  0  0
  2  6  2  0  0  0  0
  3  8  2  0  0  0  0
  3 16  1  0  0  0  0
  4  9  1  0  0  0  0
  4 16  2  0  0  0  0
  5 18  1  0  0  0  0
  6 20  1  0  0  0  0
  7 10  2  0  0  0  0
  7 19  1  0  0  0  0
  8 25  1  0  0  0  0
  9 25  2  0  0  0  0
 10 26  1  0  0  0  0
 11 12  2  0  0  0  0
 11 27  1  0  0  0  0
 12 28  1  0  0  0  0
 13 21  1  0  0  0  0
 13 26  2  0  0  0  0
 14 22  1  0  0  0  0
 14 30  2  0  0  0  0
 15 28  2  0  0  0  0
 15 29  1  0  0  0  0
 16 32  1  0  0  0  0
 17 32  1  0  0  0  0
 17 33  2  0  0  0  0
 17 34  1  0  0  0  0
 18 20  2  0  0  0  0
 18 39  1  0  0  0  0
 19 21  2  0  0  0  0
 19 40  1  0  0  0  0
 20 48  1  0  0  0  0
 21 41  1  0  0  0  0
 22 23  2  0  0  0  0
 22 57  1  0  0  0  0
 23 31  1  0  0  0  0
 23 51  1  0  0  0  0
 24 30  1  0  0  0  0
 24 31  2  0  0  0  0
 24 71  1  0  0  0  0
 25 80  1  0  0  0  0
 26 81  1  0  0  0  0
 27 29  2  0  0  0  0
 27 80  1  0  0  0  0
 28 82  1  0  0  0  0
 29 83  1  0  0  0  0
 30 84  1  0  0  0  0
 31 85  1  0  0  0  0
 32 65  2  0  0  0  0
 33 66  1  0  0  0  0
 33 69  1  0  0  0  0
 34 70  1  0  0  0  0
 34 75  2  0  0  0  0
 35 49  1  0  0  0  0
 35 72  1  0  0  0  0
 35 76  2  0  0  0  0
 36 62  1  0  0  0  0
 36 67  1  0  0  0  0
 36 77  2  0  0  0  0
 37 63  1  0  0  0  0
 37 73  1  0  0  0  0
 37 78  2  0  0  0  0
 38 68  1  0  0  0  0
 38 71  1  0  0  0  0
 38 79  2  0  0  0  0
 39 42  1  0  0  0  0
 40 49  1  0  0  0  0
 41 67  1  0  0  0  0
 42 44  1  0  0  0  0
 43 45  1  0  0  0  0
 43 46  1  0  0  0  0
 44 48  1  0  0  0  0
 45 50  1  0  0  0  0
 46 68  1  0  0  0  0
 47 50  1  0  0  0  0
 47 68  1  0  0  0  0
 48 72  1  0  0  0  0
 49 67  1  0  0  0  0
 50 66  1  0  0  0  0
 52 63  1  0  0  0  0
 53 64  1  0  0  0  0
 54 64  1  0  0  0  0
 55 64  1  0  0  0  0
 56 74  1  0  0  0  0
 57 58  1  0  0  0  0
 58 59  1  0  0  0  0
 59 60  1  0  0  0  0
 60 61  1  0  0  0  0
 61 81  1  0  0  0  0
 62 64  1  0  0  0  0
 62 73  1  0  0  0  0
 63 74  1  0  0  0  0
 65 66  1  0  0  0  0
M  CHG  1  74   1
M  ISO  4  38 100  61 101  71 100  81 101
M  END
> <Batch ID>
0022

> <Smiles>
CNC(C)C(=O)NC(C(=O)N1Cc2cc([101O:1][101CH2:1]CCCCc3cc(Cl)c([100NH:0][100C:0](=O)N4CCCC(n5nc(-c6ccc(Oc7ccc(F)cc7F)cc6)c(C(N)=O)c5N)C4)c(Cl)c3C)ccc2CC1C(=O)NC1CCCc2ccccc21)C(C)(C)C

> <Shape>
0.276

> <Color>
0.057

> <Negative vol penalty>
0.000

$$$$

  -OEChem-04052316153D

 89 97  0     1  0  0  0  0  0999 V2000
  -21.2369  -32.0870   21.2736 C   0  0  0  0  0  0  0  0  0  0  0  0
  -21.8140  -31.0361   21.9793 C   0  0  0  0  0  0  0  0  0  0  0  0
  -23.3138   -9.8237   19.9338 C   0  0  0  0  0  0  0  0  0  0  0  0
  -23.7835   -9.9912   22.2978 C   0  0  0  0  0  0  0  0  0  0  0  0
  -20.9093  -31.9249   19.9282 C   0  0  0  0  0  0  0  0  0  0  0  0
  -22.0630  -29.8221   21.3402 C   0  0  0  0  0  0  0  0  0  0  0  0
  -26.6509  -27.9664   22.4135 C   0  0  0  0  0  0  0  0  0  0  0  0
  -22.6021   -8.6454   20.1586 C   0  0  0  0  0  0  0  0  0  0  0  0
  -23.0717   -8.8129   22.5226 C   0  0  0  0  0  0  0  0  0  0  0  0
  -26.8116  -27.3406   23.6490 C   0  0  0  0  0  0  0  0  0  0  0  0
  -19.8368   -7.8688   22.7767 C   0  0  0  0  0  0  0  0  0  0  0  0
  -18.9439   -7.8473   23.8481 C   0  0  0  0  0  0  0  0  0  0  0  0
  -26.5979  -25.1887   22.5800 C   0  0  0  0  0  0  0  0  0  0  0  0
  -27.6384  -22.8489   25.9896 C   0  0  0  0  0  0  0  0  0  0  0  0
  -20.1782   -6.0225   24.8400 C   0  0  0  0  0  0  0  0  0  0  0  0
  -23.9046  -10.4966   21.0033 C   0  0  0  0  0  0  0  0  0  0  0  0
  -24.1347  -13.0273   20.7792 C   0  0  0  0  0  0  0  0  0  0  0  0
  -21.1632  -30.7114   19.2696 C   0  0  0  0  0  0  0  0  0  0  0  0
  -26.4513  -27.2070   21.2517 C   0  0  0  0  0  0  0  0  0  0  0  0
  -21.7373  -29.6431   19.9849 C   0  0  0  0  0  0  0  0  0  0  0  0
  -26.4376  -25.8071   21.3307 C   0  0  0  0  0  0  0  0  0  0  0  0
  -26.3263  -23.0840   25.5792 C   0  0  0  0  0  0  0  0  0  0  0  0
  -25.4638  -22.0116   25.3520 C   0  0  0  0  0  0  0  0  0  0  0  0
  -27.2257  -20.4688   25.9455 C   0  0  0  0  0  0  0  0  0  0  0  0
  -22.4810   -8.1400   21.4531 C   0  0  0  0  0  0  0  0  0  0  0  0
  -26.7822  -25.9516   23.7328 C   0  0  0  0  0  0  0  0  0  0  0  0
  -20.9003   -6.9671   22.7369 C   0  0  0  0  0  0  0  0  0  0  0  0
  -19.1146   -6.9241   24.8798 C   0  0  0  0  0  0  0  0  0  0  0  0
  -21.0710   -6.0440   23.7685 C   0  0  0  0  0  0  0  0  0  0  0  0
  -28.0882  -21.5412   26.1727 C   0  0  0  0  0  0  0  0  0  0  0  0
  -25.9135  -20.7039   25.5351 C   0  0  0  0  0  0  0  0  0  0  0  0
  -24.6404  -11.7135   20.7716 C   0  0  0  0  0  0  0  0  0  0  0  0
  -25.2253  -13.8167   20.5074 C   0  0  0  0  0  0  0  0  0  0  0  0
  -22.7985  -13.4925   21.0112 C   0  0  0  0  0  0  0  0  0  0  0  0
  -24.1138  -26.9516   19.1129 C   0  0  0  0  0  0  0  0  0  0  0  0
  -26.2453  -25.0395   17.5887 C   0  0  0  0  0  0  0  0  0  0  0  0
  -28.9776  -23.0051   17.7958 C   0  0  0  0  0  0  0  0  0  0  0  0
  -31.1120  -13.0448   21.2835 C   0  0  0  0  0  0  0  0  0  0  0  0
  -20.7484  -30.5678   17.8267 C   0  0  0  0  0  0  0  0  0  0  0  0
  -26.3064  -27.8964   19.9227 C   0  0  0  0  0  0  0  0  0  0  0  0
  -26.2467  -24.9458   20.1100 C   0  0  0  0  0  0  0  0  0  0  0  0
  -21.3888  -29.3731   17.1248 C   0  0  0  0  0  0  0  0  0  0  0  0
  -29.4287  -13.7378   18.2236 C   0  0  0  0  0  0  0  0  0  0  0  0
  -21.2925  -28.1262   17.9983 C   0  0  0  0  0  0  0  0  0  0  0  0
  -27.9651  -13.4161   18.5303 C   0  0  0  0  0  0  0  0  0  0  0  0
  -30.3787  -12.7752   18.9327 C   0  0  0  0  0  0  0  0  0  0  0  0
  -28.7120  -12.3439   20.6962 C   0  0  0  0  0  0  0  0  0  0  0  0
  -22.0455  -28.3191   19.3201 C   0  0  1  0  0  0  0  0  0  0  0  0
  -25.5955  -27.0398   18.8796 C   0  0  1  0  0  0  0  0  0  0  0  0
  -27.7177  -13.3224   20.0480 C   0  0  2  0  0  0  0  0  0  0  0  0
  -24.0593  -22.2885   24.9120 C   0  0  0  0  0  0  0  0  0  0  0  0
  -25.3009  -25.1088   26.6711 C   0  0  0  0  0  0  0  0  0  0  0  0
  -30.4648  -21.5547   16.3881 C   0  0  0  0  0  0  0  0  0  0  0  0
  -24.0763  -22.8949   17.5112 C   0  0  0  0  0  0  0  0  0  0  0  0
  -25.8554  -21.2133   16.9866 C   0  0  0  0  0  0  0  0  0  0  0  0
  -25.4188  -23.0972   15.4109 C   0  0  0  0  0  0  0  0  0  0  0  0
  -31.3655  -24.6319   18.4364 C   0  0  0  0  0  0  0  0  0  0  0  0
  -30.3670  -16.7352   24.9287 C   0  0  0  0  0  0  0  0  0  0  0  0
  -30.3214  -15.2554   24.5393 C   0  0  0  0  0  0  0  0  0  0  0  0
  -28.9846  -17.2401   25.3541 C   0  0  0  0  0  0  0  0  0  0  0  0
  -31.6949  -14.7620   24.0743 C   0  0  0  0  0  0  0  0  0  0  0  0
  -28.9905  -18.7170   25.7392 C   0  0  0  0  0  0  0  0  0  0  0  0
  -31.6923  -13.2870   23.6843 C   0  0  0  0  0  0  0  0  0  0  0  0
  -25.8663  -24.5113   25.3889 C   0  0  1  0  0  0  0  0  0  1  0  0
  -26.5676  -23.5649   17.6141 C   0  0  1  0  0  0  0  0  0  0  0  0
  -30.2514  -22.9424   16.9725 C   0  0  2  0  0  0  0  0  0  0  0  0
  -25.4812  -22.7086   16.9042 C   0  0  0  0  0  0  0  0  0  0  0  0
  -25.9504  -11.6668   20.5152 N   0  0  0  0  0  0  0  0  0  0  0  0
  -26.2770  -12.9610   20.3590 N   0  0  0  0  0  0  0  0  0  0  0  0
  -26.1031  -25.6670   18.8345 N   0  0  0  0  0  0  0  0  0  0  0  0
  -30.0924  -12.7339   20.3688 N   0  0  0  0  0  0  0  0  0  0  0  0
  -25.3778  -15.1522   20.3833 N   0  0  0  0  0  0  0  0  0  0  0  0
  -21.7984  -12.5471   21.2762 N   0  0  0  0  0  0  0  0  0  0  0  0
  -27.6866  -19.1424   26.1327 N   0  0  0  0  0  0  0  0  0  0  0  0
  -23.4709  -28.1748   19.1154 N   0  0  0  0  0  0  0  0  0  0  0  0
  -27.9031  -23.4291   17.0428 N   0  0  0  0  0  0  0  0  0  0  0  0
  -30.7546  -12.9877   22.6250 N   0  0  0  0  0  0  0  0  0  0  0  0
  -31.4312  -23.2833   17.8168 N   0  3  0  0  0  0  0  0  0  0  0  0
  -22.4970  -14.7094   20.9682 O   0  0  0  0  0  0  0  0  0  0  0  0
  -23.5922  -25.8549   19.2769 O   0  0  0  0  0  0  0  0  0  0  0  0
  -26.1312  -25.6150   16.5036 O   0  0  0  0  0  0  0  0  0  0  0  0
  -28.9387  -22.7043   18.9869 O   0  0  0  0  0  0  0  0  0  0  0  0
  -32.2547  -13.3559   20.9305 O   0  0  0  0  0  0  0  0  0  0  0  0
  -21.7864   -6.9903   21.6729 O   0  0  0  0  0  0  0  0  0  0  0  0
  -26.9381  -25.3383   24.9376 O   0  0  0  0  0  0  0  0  0  1  0  0
  -18.2580   -6.9046   25.9093 F   0  0  0  0  0  0  0  0  0  0  0  0
  -22.0916   -5.1761   23.7364 F   0  0  0  0  0  0  0  0  0  0  0  0
  -29.7224  -21.3008   26.6819 Cl  0  0  0  0  0  0  0  0  0  0  0  0
  -24.8349  -19.3751   25.2506 Cl  0  0  0  0  0  0  0  0  0  0  0  0
  1  2  1  0  0  0  0
  1  5  2  0  0  0  0
  2  6  2  0  0  0  0
  3  8  2  0  0  0  0
  3 16  1  0  0  0  0
  4  9  1  0  0  0  0
  4 16  2  0  0  0  0
  5 18  1  0  0  0  0
  6 20  1  0  0  0  0
  7 10  2  0  0  0  0
  7 19  1  0  0  0  0
  8 25  1  0  0  0  0
  9 25  2  0  0  0  0
 10 26  1  0  0  0  0
 11 12  2  0  0  0  0
 11 27  1  0  0  0  0
 12 28  1  0  0  0  0
 13 21  1  0  0  0  0
 13 26  2  0  0  0  0
 14 22  1  0  0  0  0
 14 30  2  0  0  0  0
 15 28  2  0  0  0  0
 15 29  1  0  0  0  0
 16 32  1  0  0  0  0
 17 32  1  0  0  0  0
 17 33  2  0  0  0  0
 17 34  1  0  0  0  0
 18 20  2  0  0  0  0
 18 39  1  0  0  0  0
 19 21  2  0  0  0  0
 19 40  1  0  0  0  0
 20 48  1  0  0  0  0
 21 41  1  0  0  0  0
 22 23  2  0  0  0  0
 22 64  1  0  0  0  0
 23 31  1  0  0  0  0
 23 51  1  0  0  0  0
 24 30  1  0  0  0  0
 24 31  2  0  0  0  0
 24 74  1  0  0  0  0
 25 84  1  0  0  0  0
 26 85  1  0  0  0  0
 27 29  2  0  0  0  0
 27 84  1  0  0  0  0
 28 86  1  0  0  0  0
 29 87  1  0  0  0  0
 30 88  1  0  0  0  0
 31 89  1  0  0  0  0
 32 68  2  0  0  0  0
 33 69  1  0  0  0  0
 33 72  1  0  0  0  0
 34 73  1  0  0  0  0
 34 79  2  0  0  0  0
 35 49  1  0  0  0  0
 35 75  1  0  0  0  0
 35 80  2  0  0  0  0
 36 65  1  0  0  0  0
 36 70  1  0  0  0  0
 36 81  2  0  0  0  0
 37 66  1  0  0  0  0
 37 76  1  0  0  0  0
 37 82  2  0  0  0  0
 38 71  1  0  0  0  0
 38 77  1  0  0  0  0
 38 83  2  0  0  0  0
 39 42  1  0  0  0  0
 40 49  1  0  0  0  0
 41 70  1  0  0  0  0
 42 44  1  0  0  0  0
 43 45  1  0  0  0  0
 43 46  1  0  0  0  0
 44 48  1  0  0  0  0
 45 50  1  0  0  0  0
 46 71  1  0  0  0  0
 47 50  1  0  0  0  0
 47 71  1  0  0  0  0
 48 75  1  0  0  0  0
 49 70  1  0  0  0  0
 50 69  1  0  0  0  0
 52 64  1  0  0  0  0
 53 66  1  0  0  0  0
 54 67  1  0  0  0  0
 55 67  1  0  0  0  0
 56 67  1  0  0  0  0
 57 78  1  0  0  0  0
 58 59  1  0  0  0  0
 58 60  1  0  0  0  0
 59 61  1  0  0  0  0
 60 62  1  0  0  0  0
 61 63  1  0  0  0  0
 62 74  1  0  0  0  0
 63 77  1  0  0  0  0
 64 85  1  0  0  0  0
 65 67  1  0  0  0  0
 65 76  1  0  0  0  0
 66 78  1  0  0  0  0
 68 69  1  0  0  0  0
M  CHG  1  78   1
M  ISO  4  38 100  64 101  77 100  85 101
M  END
> <Batch ID>
0022

> <Smiles>
CNC(C)C(=O)NC(C(=O)N1Cc2cc([101O:1][101CH:1](C)c3cc(Cl)c(NCCCCCC[100NH:0][100C:0](=O)N4CCCC(n5nc(-c6ccc(Oc7ccc(F)cc7F)cc6)c(C(N)=O)c5N)C4)c(Cl)c3C)ccc2CC1C(=O)NC1CCCc2ccccc21)C(C)(C)C

> <Shape>
0.213

> <Color>
0.197

> <Negative vol penalty>
0.000

$$$$

  -OEChem-04052316153D

 85 93  0     1  0  0  0  0  0999 V2000
  -23.9884  -26.3314   28.3904 C   0  0  0  0  0  0  0  0  0  0  0  0
  -24.8046  -26.1373   27.2807 C   0  0  0  0  0  0  0  0  0  0  0  0
  -24.5407   -9.7745   21.6028 C   0  0  0  0  0  0  0  0  0  0  0  0
  -24.8023  -10.9444   23.7004 C   0  0  0  0  0  0  0  0  0  0  0  0
  -22.6410  -25.9774   28.3338 C   0  0  0  0  0  0  0  0  0  0  0  0
  -24.2741  -25.5879   26.1140 C   0  0  0  0  0  0  0  0  0  0  0  0
  -25.7640  -28.0578   21.9517 C   0  0  0  0  0  0  0  0  0  0  0  0
  -24.2184   -8.6068   22.2942 C   0  0  0  0  0  0  0  0  0  0  0  0
  -24.4800   -9.7766   24.3919 C   0  0  0  0  0  0  0  0  0  0  0  0
  -27.0501  -27.7956   21.4818 C   0  0  0  0  0  0  0  0  0  0  0  0
  -22.9744   -5.4105   23.4991 C   0  0  0  0  0  0  0  0  0  0  0  0
  -21.8867   -4.6660   23.0430 C   0  0  0  0  0  0  0  0  0  0  0  0
  -26.1330  -26.3056   19.8210 C   0  0  0  0  0  0  0  0  0  0  0  0
  -29.8332  -21.0899   22.4162 C   0  0  0  0  0  0  0  0  0  0  0  0
  -20.4346   -6.5613   23.4122 C   0  0  0  0  0  0  0  0  0  0  0  0
  -24.8327  -10.9433   22.3059 C   0  0  0  0  0  0  0  0  0  0  0  0
  -24.2781  -13.1472   21.1470 C   0  0  0  0  0  0  0  0  0  0  0  0
  -22.0915  -25.4324   27.1626 C   0  0  0  0  0  0  0  0  0  0  0  0
  -24.6517  -27.4365   21.3659 C   0  0  0  0  0  0  0  0  0  0  0  0
  -22.9184  -25.2250   26.0421 C   0  0  0  0  0  0  0  0  0  0  0  0
  -24.8336  -26.5636   20.2837 C   0  0  0  0  0  0  0  0  0  0  0  0
  -28.7948  -21.9782   22.1366 C   0  0  0  0  0  0  0  0  0  0  0  0
  -27.6962  -21.5538   21.3891 C   0  0  0  0  0  0  0  0  0  0  0  0
  -28.6746  -19.3528   21.2009 C   0  0  0  0  0  0  0  0  0  0  0  0
  -24.1880   -8.6078   23.6888 C   0  0  0  0  0  0  0  0  0  0  0  0
  -27.2350  -26.9171   20.4182 C   0  0  0  0  0  0  0  0  0  0  0  0
  -22.7923   -6.7305   23.9119 C   0  0  0  0  0  0  0  0  0  0  0  0
  -20.6168   -5.2414   22.9995 C   0  0  0  0  0  0  0  0  0  0  0  0
  -21.5224   -7.3059   23.8684 C   0  0  0  0  0  0  0  0  0  0  0  0
  -29.7731  -19.7771   21.9483 C   0  0  0  0  0  0  0  0  0  0  0  0
  -27.6361  -20.2410   20.9212 C   0  0  0  0  0  0  0  0  0  0  0  0
  -25.1662  -12.1498   21.5923 C   0  0  0  0  0  0  0  0  0  0  0  0
  -25.0833  -14.0737   20.5308 C   0  0  0  0  0  0  0  0  0  0  0  0
  -22.8527  -13.2289   21.2787 C   0  0  0  0  0  0  0  0  0  0  0  0
  -22.3975  -25.4434   22.3905 C   0  0  0  0  0  0  0  0  0  0  0  0
  -21.1544  -25.9504   19.4376 C   0  0  0  0  0  0  0  0  0  0  0  0
  -21.6807  -26.8505   16.1880 C   0  0  0  0  0  0  0  0  0  0  0  0
  -29.6917  -17.1955   20.3897 C   0  0  0  0  0  0  0  0  0  0  0  0
  -20.6404  -25.0213   27.1646 C   0  0  0  0  0  0  0  0  0  0  0  0
  -23.2687  -27.7505   21.8671 C   0  0  0  0  0  0  0  0  0  0  0  0
  -23.6709  -25.8865   19.6069 C   0  0  0  0  0  0  0  0  0  0  0  0
  -20.0702  -24.7925   25.7672 C   0  0  0  0  0  0  0  0  0  0  0  0
  -29.9681  -13.8425   19.2242 C   0  0  0  0  0  0  0  0  0  0  0  0
  -21.0264  -23.9465   24.9325 C   0  0  0  0  0  0  0  0  0  0  0  0
  -28.6704  -13.1853   19.6998 C   0  0  0  0  0  0  0  0  0  0  0  0
  -30.4996  -14.8502   20.2420 C   0  0  0  0  0  0  0  0  0  0  0  0
  -28.2358  -15.2136   21.1434 C   0  0  0  0  0  0  0  0  0  0  0  0
  -22.3742  -24.6548   24.7503 C   0  0  1  0  0  0  0  0  0  0  0  0
  -22.2502  -26.6660   21.5296 C   0  0  1  0  0  0  0  0  0  0  0  0
  -27.6274  -14.2384   20.1224 C   0  0  2  0  0  0  0  0  0  0  0  0
  -26.5939  -22.5258   21.1006 C   0  0  0  0  0  0  0  0  0  0  0  0
  -20.4793  -27.1337   14.0031 C   0  0  0  0  0  0  0  0  0  0  0  0
  -30.8802  -26.4659   20.1994 C   0  0  0  0  0  0  0  0  0  0  0  0
  -21.1027  -22.9211   19.0761 C   0  0  0  0  0  0  0  0  0  0  0  0
  -20.8157  -23.2894   16.6164 C   0  0  0  0  0  0  0  0  0  0  0  0
  -19.0802  -24.1097   18.2095 C   0  0  0  0  0  0  0  0  0  0  0  0
  -22.3448  -29.7319   16.0635 C   0  0  0  0  0  0  0  0  0  0  0  0
  -28.8863  -23.3843   22.6516 C   0  0  0  0  0  0  0  0  0  0  0  0
  -29.2608  -25.7814   22.0576 C   0  0  0  0  0  0  0  0  0  0  0  0
  -21.3092  -25.2965   18.0857 C   0  0  1  0  0  0  0  0  0  0  0  0
  -20.9446  -27.8181   15.2789 C   0  0  2  0  0  0  0  0  0  0  0  0
  -29.5560  -26.7332   20.9030 C   0  0  2  0  0  0  0  0  0  1  0  0
  -20.5992  -23.9153   18.0107 C   0  0  0  0  0  0  0  0  0  0  0  0
  -26.4382  -12.4174   21.2849 N   0  0  0  0  0  0  0  0  0  0  0  0
  -26.3552  -13.5935   20.6399 N   0  0  0  0  0  0  0  0  0  0  0  0
  -22.3388  -26.2210   20.1373 N   0  0  0  0  0  0  0  0  0  0  0  0
  -29.4583  -15.8188   20.5919 N   0  0  0  0  0  0  0  0  0  0  0  0
  -24.8204  -15.2441   19.9116 N   0  0  0  0  0  0  0  0  0  0  0  0
  -22.1823  -12.1910   21.9402 N   0  0  0  0  0  0  0  0  0  0  0  0
  -28.6178  -18.0182   20.7282 N   0  0  0  0  0  0  0  0  0  0  0  0
  -22.2693  -25.6898   23.7442 N   0  0  0  0  0  0  0  0  0  0  0  0
  -20.8332  -26.2670   17.1059 N   0  0  0  0  0  0  0  0  0  0  0  0
  -21.8325  -28.9553   14.9054 N   0  3  0  0  0  0  0  0  0  0  0  0
  -29.2223  -24.3729   21.5913 N   0  3  0  0  0  0  0  0  0  0  0  0
  -22.1914  -14.1856   20.8087 O   0  0  0  0  0  0  0  0  0  0  0  0
  -22.6101  -24.3567   21.8655 O   0  0  0  0  0  0  0  0  0  0  0  0
  -20.0245  -26.2180   19.8541 O   0  0  0  0  0  0  0  0  0  0  0  0
  -22.8861  -26.6313   16.0909 O   0  0  0  0  0  0  0  0  0  0  0  0
  -30.7553  -17.6118   19.9233 O   0  0  0  0  0  0  0  0  0  0  0  0
  -23.8733   -7.4686   24.3638 O   0  0  0  0  0  0  0  0  0  0  0  0
  -28.4894  -26.6589   19.9580 O   0  0  0  0  0  0  0  0  0  1  0  0
  -19.5726   -4.5268   22.5599 F   0  0  0  0  0  0  0  0  0  0  0  0
  -21.3414   -8.5738   24.2625 F   0  0  0  0  0  0  0  0  0  0  0  0
  -31.0847  -18.7148   22.3212 Cl  0  0  0  0  0  0  0  0  0  0  0  0
  -26.2658  -19.7212   19.9917 Cl  0  0  0  0  0  0  0  0  0  0  0  0
  1  2  1  0  0  0  0
  1  5  2  0  0  0  0
  2  6  2  0  0  0  0
  3  8  2  0  0  0  0
  3 16  1  0  0  0  0
  4  9  1  0  0  0  0
  4 16  2  0  0  0  0
  5 18  1  0  0  0  0
  6 20  1  0  0  0  0
  7 10  2  0  0  0  0
  7 19  1  0  0  0  0
  8 25  1  0  0  0  0
  9 25  2  0  0  0  0
 10 26  1  0  0  0  0
 11 12  2  0  0  0  0
 11 27  1  0  0  0  0
 12 28  1  0  0  0  0
 13 21  1  0  0  0  0
 13 26  2  0  0  0  0
 14 22  1  0  0  0  0
 14 30  2  0  0  0  0
 15 28  2  0  0  0  0
 15 29  1  0  0  0  0
 16 32  1  0  0  0  0
 17 32  1  0  0  0  0
 17 33  2  0  0  0  0
 17 34  1  0  0  0  0
 18 20  2  0  0  0  0
 18 39  1  0  0  0  0
 19 21  2  0  0  0  0
 19 40  1  0  0  0  0
 20 48  1  0  0  0  0
 21 41  1  0  0  0  0
 22 23  2  0  0  0  0
 22 58  1  0  0  0  0
 23 31  1  0  0  0  0
 23 51  1  0  0  0  0
 24 30  1  0  0  0  0
 24 31  2  0  0  0  0
 24 70  1  0  0  0  0
 25 80  1  0  0  0  0
 26 81  1  0  0  0  0
 27 29  2  0  0  0  0
 27 80  1  0  0  0  0
 28 82  1  0  0  0  0
 29 83  1  0  0  0  0
 30 84  1  0  0  0  0
 31 85  1  0  0  0  0
 32 64  2  0  0  0  0
 33 65  1  0  0  0  0
 33 68  1  0  0  0  0
 34 69  1  0  0  0  0
 34 75  2  0  0  0  0
 35 49  1  0  0  0  0
 35 71  1  0  0  0  0
 35 76  2  0  0  0  0
 36 60  1  0  0  0  0
 36 66  1  0  0  0  0
 36 77  2  0  0  0  0
 37 61  1  0  0  0  0
 37 72  1  0  0  0  0
 37 78  2  0  0  0  0
 38 67  1  0  0  0  0
 38 70  1  0  0  0  0
 38 79  2  0  0  0  0
 39 42  1  0  0  0  0
 40 49  1  0  0  0  0
 41 66  1  0  0  0  0
 42 44  1  0  0  0  0
 43 45  1  0  0  0  0
 43 46  1  0  0  0  0
 44 48  1  0  0  0  0
 45 50  1  0  0  0  0
 46 67  1  0  0  0  0
 47 50  1  0  0  0  0
 47 67  1  0  0  0  0
 48 71  1  0  0  0  0
 49 66  1  0  0  0  0
 50 65  1  0  0  0  0
 52 61  1  0  0  0  0
 53 62  1  0  0  0  0
 54 63  1  0  0  0  0
 55 63  1  0  0  0  0
 56 63  1  0  0  0  0
 57 73  1  0  0  0  0
 58 74  1  0  0  0  0
 59 62  1  0  0  0  0
 59 74  1  0  0  0  0
 60 63  1  0  0  0  0
 60 72  1  0  0  0  0
 61 73  1  0  0  0  0
 62 81  1  0  0  0  0
 64 65  1  0  0  0  0
M  CHG  2  73   1  74   1
M  ISO  4  38 100  62 101  70 100  81 101
M  END
> <Batch ID>
0022

> <Smiles>
CNC(C)C(=O)NC(C(=O)N1Cc2cc([101O:1][101CH:1](C)CNCc3cc(Cl)c([100NH:0][100C:0](=O)N4CCCC(n5nc(-c6ccc(Oc7ccc(F)cc7F)cc6)c(C(N)=O)c5N)C4)c(Cl)c3C)ccc2CC1C(=O)NC1CCCc2ccccc21)C(C)(C)C

> <Shape>
0.213

> <Color>
0.122

> <Negative vol penalty>
0.000

$$$$

  -OEChem-04052316153D

 96104  0     1  0  0  0  0  0999 V2000
  -21.7697  -10.3650   26.7944 C   0  0  0  0  0  0  0  0  0  0  0  0
  -22.4104  -11.4473   27.3890 C   0  0  0  0  0  0  0  0  0  0  0  0
  -23.2884   -9.7996   19.9126 C   0  0  0  0  0  0  0  0  0  0  0  0
  -23.7387   -9.9399   22.2821 C   0  0  0  0  0  0  0  0  0  0  0  0
  -20.9366   -9.5457   27.5550 C   0  0  0  0  0  0  0  0  0  0  0  0
  -22.2175  -11.7115   28.7445 C   0  0  0  0  0  0  0  0  0  0  0  0
  -26.5441  -12.7764   31.1511 C   0  0  0  0  0  0  0  0  0  0  0  0
  -22.5619   -8.6271   20.1201 C   0  0  0  0  0  0  0  0  0  0  0  0
  -23.0122   -8.7673   22.4896 C   0  0  0  0  0  0  0  0  0  0  0  0
  -27.0674  -14.0577   30.9831 C   0  0  0  0  0  0  0  0  0  0  0  0
  -19.7651   -7.8564   22.7062 C   0  0  0  0  0  0  0  0  0  0  0  0
  -18.8625   -7.8346   23.7694 C   0  0  0  0  0  0  0  0  0  0  0  0
  -26.1513  -14.7052   33.1188 C   0  0  0  0  0  0  0  0  0  0  0  0
  -20.0679   -5.9872   24.7548 C   0  0  0  0  0  0  0  0  0  0  0  0
  -23.8768  -10.4560   20.9937 C   0  0  0  0  0  0  0  0  0  0  0  0
  -24.1363  -12.9860   20.7955 C   0  0  0  0  0  0  0  0  0  0  0  0
  -20.7410   -9.7943   28.9227 C   0  0  0  0  0  0  0  0  0  0  0  0
  -25.8099  -12.4525   32.3011 C   0  0  0  0  0  0  0  0  0  0  0  0
  -21.3800  -10.8956   29.5239 C   0  0  0  0  0  0  0  0  0  0  0  0
  -25.6220  -13.4183   33.3001 C   0  0  0  0  0  0  0  0  0  0  0  0
  -24.5260  -21.6628   28.2705 C   0  0  0  0  0  0  0  0  0  0  0  0
  -26.0897  -21.0901   30.0208 C   0  0  0  0  0  0  0  0  0  0  0  0
  -22.4238   -8.1109   21.4085 C   0  0  0  0  0  0  0  0  0  0  0  0
  -26.8686  -15.0232   31.9657 C   0  0  0  0  0  0  0  0  0  0  0  0
  -20.8191   -6.9435   22.6672 C   0  0  0  0  0  0  0  0  0  0  0  0
  -26.6813  -20.7282   27.7065 C   0  0  0  0  0  0  0  0  0  0  0  0
  -19.0139   -6.9000   24.7937 C   0  0  0  0  0  0  0  0  0  0  0  0
  -20.9705   -6.0090   23.6916 C   0  0  0  0  0  0  0  0  0  0  0  0
  -25.4417  -21.2307   27.3110 C   0  0  0  0  0  0  0  0  0  0  0  0
  -27.0054  -20.6579   29.0614 C   0  0  0  0  0  0  0  0  0  0  0  0
  -24.8501  -21.5926   29.6254 C   0  0  0  0  0  0  0  0  0  0  0  0
  -24.6278  -11.6669   20.7799 C   0  0  0  0  0  0  0  0  0  0  0  0
  -25.2379  -13.7659   20.5408 C   0  0  0  0  0  0  0  0  0  0  0  0
  -22.8032  -13.4636   21.0201 C   0  0  0  0  0  0  0  0  0  0  0  0
  -22.8260  -11.5148   32.8673 C   0  0  0  0  0  0  0  0  0  0  0  0
  -23.9153  -11.1997   35.9064 C   0  0  0  0  0  0  0  0  0  0  0  0
  -26.1918  -12.1165   38.2779 C   0  0  0  0  0  0  0  0  0  0  0  0
  -31.1087  -12.9226   21.3616 C   0  0  0  0  0  0  0  0  0  0  0  0
  -19.7940   -8.9089   29.6933 C   0  0  0  0  0  0  0  0  0  0  0  0
  -25.2749  -11.0581   32.4794 C   0  0  0  0  0  0  0  0  0  0  0  0
  -24.8585  -13.1153   34.5625 C   0  0  0  0  0  0  0  0  0  0  0  0
  -19.9378   -9.0356   31.2078 C   0  0  0  0  0  0  0  0  0  0  0  0
  -29.4604  -13.6624   18.2936 C   0  0  0  0  0  0  0  0  0  0  0  0
  -19.9980  -10.5038   31.6173 C   0  0  0  0  0  0  0  0  0  0  0  0
  -27.9907  -13.3539   18.5843 C   0  0  0  0  0  0  0  0  0  0  0  0
  -30.3935  -12.6829   19.0020 C   0  0  0  0  0  0  0  0  0  0  0  0
  -28.7065  -12.2534   20.7465 C   0  0  0  0  0  0  0  0  0  0  0  0
  -21.2154  -11.2001   30.9971 C   0  0  1  0  0  0  0  0  0  0  0  0
  -24.1043  -10.9875   33.4552 C   0  0  1  0  0  0  0  0  0  0  0  0
  -27.7287  -13.2487   20.0988 C   0  0  2  0  0  0  0  0  0  0  0  0
  -23.2096  -22.1961   27.8034 C   0  0  0  0  0  0  0  0  0  0  0  0
  -26.8043  -11.7185   40.6786 C   0  0  0  0  0  0  0  0  0  0  0  0
  -28.4924  -21.6513   32.5192 C   0  0  0  0  0  0  0  0  0  0  0  0
  -26.2682  -22.6474   33.1569 C   0  0  0  0  0  0  0  0  0  0  0  0
  -21.5896  -12.9660   36.7901 C   0  0  0  0  0  0  0  0  0  0  0  0
  -22.7696  -13.3086   38.9715 C   0  0  0  0  0  0  0  0  0  0  0  0
  -22.0498  -11.0192   38.2909 C   0  0  0  0  0  0  0  0  0  0  0  0
  -28.8550  -11.0551   37.5433 C   0  0  0  0  0  0  0  0  0  0  0  0
  -30.2939  -16.5665   25.0780 C   0  0  0  0  0  0  0  0  0  0  0  0
  -30.2889  -15.1035   24.6295 C   0  0  0  0  0  0  0  0  0  0  0  0
  -28.9039  -17.0085   25.5413 C   0  0  0  0  0  0  0  0  0  0  0  0
  -31.6546  -14.6136   24.1425 C   0  0  0  0  0  0  0  0  0  0  0  0
  -28.8982  -18.4775   25.9586 C   0  0  0  0  0  0  0  0  0  0  0  0
  -26.8955  -18.6165   31.5974 C   0  0  0  0  0  0  0  0  0  0  0  0
  -31.6700  -13.1359   23.7696 C   0  0  0  0  0  0  0  0  0  0  0  0
  -26.1579  -19.8272   32.1564 C   0  0  0  0  0  0  0  0  0  0  0  0
  -27.5094  -18.9363   26.3802 C   0  0  0  0  0  0  0  0  0  0  0  0
  -26.6640  -17.3500   32.4130 C   0  0  0  0  0  0  0  0  0  1  0  0
  -24.0031  -12.1066   37.1101 C   0  0  1  0  0  0  0  0  0  0  0  0
  -27.0344  -11.2945   39.2364 C   0  0  2  0  0  0  0  0  0  0  0  0
  -27.1346  -22.1242   32.0206 C   0  0  0  0  0  0  0  0  0  0  0  0
  -22.6158  -12.3567   37.7661 C   0  0  0  0  0  0  0  0  0  0  0  0
  -25.9395  -11.6082   20.5347 N   0  0  0  0  0  0  0  0  0  0  0  0
  -26.2815  -12.9002   20.3936 N   0  0  0  0  0  0  0  0  0  0  0  0
  -24.3496  -11.7394   34.6875 N   0  0  0  0  0  0  0  0  0  0  0  0
  -30.0939  -12.6313   20.4350 N   0  0  0  0  0  0  0  0  0  0  0  0
  -25.4059  -15.1008   20.4306 N   0  0  0  0  0  0  0  0  0  0  0  0
  -21.7906  -12.5267   21.2672 N   0  0  0  0  0  0  0  0  0  0  0  0
  -22.4190  -10.8555   31.7231 N   0  0  0  0  0  0  0  0  0  0  0  0
  -24.9868  -11.5049   38.0037 N   0  0  0  0  0  0  0  0  0  0  0  0
  -30.7387  -12.8568   22.6993 N   0  0  0  0  0  0  0  0  0  0  0  0
  -26.4448  -21.0057   31.3747 N   0  0  3  0  0  0  0  0  0  0  0  0
  -28.4824  -11.4577   38.9239 N   0  3  0  0  0  0  0  0  0  0  0  0
  -22.5154  -14.6841   20.9859 O   0  0  0  0  0  0  0  0  0  0  0  0
  -22.2507  -12.4495   33.4123 O   0  0  0  0  0  0  0  0  0  0  0  0
  -23.4841  -10.0521   36.0440 O   0  0  0  0  0  0  0  0  0  0  0  0
  -26.5637  -13.1952   37.8211 O   0  0  0  0  0  0  0  0  0  0  0  0
  -32.2577  -13.2244   21.0217 O   0  0  0  0  0  0  0  0  0  0  0  0
  -21.7148   -6.9670   21.6114 O   0  0  0  0  0  0  0  0  0  0  0  0
  -27.3777  -16.2748   31.8040 O   0  0  0  0  0  0  0  0  0  1  0  0
  -27.5753  -20.3071   26.7703 O   0  0  0  0  0  0  0  0  0  0  0  0
  -18.1480   -6.8802   25.8154 F   0  0  0  0  0  0  0  0  0  0  0  0
  -21.9818   -5.1303   23.6602 F   0  0  0  0  0  0  0  0  0  0  0  0
  -25.1353  -21.2964   26.0070 F   0  0  0  0  0  0  0  0  0  0  0  0
  -28.1993  -20.1737   29.4349 F   0  0  0  0  0  0  0  0  0  0  0  0
  -23.7078  -22.1304   30.8136 Cl  0  0  0  0  0  0  0  0  0  0  0  0
  1  2  1  0  0  0  0
  1  5  2  0  0  0  0
  2  6  2  0  0  0  0
  3  8  2  0  0  0  0
  3 15  1  0  0  0  0
  4  9  1  0  0  0  0
  4 15  2  0  0  0  0
  5 17  1  0  0  0  0
  6 19  1  0  0  0  0
  7 10  2  0  0  0  0
  7 18  1  0  0  0  0
  8 23  1  0  0  0  0
  9 23  2  0  0  0  0
 10 24  1  0  0  0  0
 11 12  2  0  0  0  0
 11 25  1  0  0  0  0
 12 27  1  0  0  0  0
 13 20  1  0  0  0  0
 13 24  2  0  0  0  0
 14 27  2  0  0  0  0
 14 28  1  0  0  0  0
 15 32  1  0  0  0  0
 16 32  1  0  0  0  0
 16 33  2  0  0  0  0
 16 34  1  0  0  0  0
 17 19  2  0  0  0  0
 17 39  1  0  0  0  0
 18 20  2  0  0  0  0
 18 40  1  0  0  0  0
 19 48  1  0  0  0  0
 20 41  1  0  0  0  0
 21 29  2  0  0  0  0
 21 31  1  0  0  0  0
 21 51  1  0  0  0  0
 22 30  1  0  0  0  0
 22 31  2  0  0  0  0
 22 82  1  0  0  0  0
 23 89  1  0  0  0  0
 24 90  1  0  0  0  0
 25 28  2  0  0  0  0
 25 89  1  0  0  0  0
 26 29  1  0  0  0  0
 26 30  2  0  0  0  0
 26 91  1  0  0  0  0
 27 92  1  0  0  0  0
 28 93  1  0  0  0  0
 29 94  1  0  0  0  0
 30 95  1  0  0  0  0
 31 96  1  0  0  0  0
 32 73  2  0  0  0  0
 33 74  1  0  0  0  0
 33 77  1  0  0  0  0
 34 78  1  0  0  0  0
 34 84  2  0  0  0  0
 35 49  1  0  0  0  0
 35 79  1  0  0  0  0
 35 85  2  0  0  0  0
 36 69  1  0  0  0  0
 36 75  1  0  0  0  0
 36 86  2  0  0  0  0
 37 70  1  0  0  0  0
 37 80  1  0  0  0  0
 37 87  2  0  0  0  0
 38 76  1  0  0  0  0
 38 81  1  0  0  0  0
 38 88  2  0  0  0  0
 39 42  1  0  0  0  0
 40 49  1  0  0  0  0
 41 75  1  0  0  0  0
 42 44  1  0  0  0  0
 43 45  1  0  0  0  0
 43 46  1  0  0  0  0
 44 48  1  0  0  0  0
 45 50  1  0  0  0  0
 46 76  1  0  0  0  0
 47 50  1  0  0  0  0
 47 76  1  0  0  0  0
 48 79  1  0  0  0  0
 49 75  1  0  0  0  0
 50 74  1  0  0  0  0
 52 70  1  0  0  0  0
 53 71  1  0  0  0  0
 54 71  1  0  0  0  0
 55 72  1  0  0  0  0
 56 72  1  0  0  0  0
 57 72  1  0  0  0  0
 58 83  1  0  0  0  0
 59 60  1  0  0  0  0
 59 61  1  0  0  0  0
 60 62  1  0  0  0  0
 61 63  1  0  0  0  0
 62 65  1  0  0  0  0
 63 67  1  0  0  0  0
 64 66  1  0  0  0  0
 64 68  1  0  0  0  0
 65 81  1  0  0  0  0
 66 82  1  0  0  0  0
 67 91  1  0  0  0  0
 68 90  1  0  0  0  0
 69 72  1  0  0  0  0
 69 80  1  0  0  0  0
 70 83  1  0  0  0  0
 71 82  1  0  0  0  0
 73 74  1  0  0  0  0
M  CHG  1  83   1
M  ISO  4  38 100  68 101  81 100  90 101
M  END
> <Batch ID>
0022

> <Smiles>
CNC(C)C(=O)NC(C(=O)N1Cc2cc([101O:1][101CH2:1]CCN(c3c(F)c(OCCCCCCC[100NH:0][100C:0](=O)N4CCCC(n5nc(-c6ccc(Oc7ccc(F)cc7F)cc6)c(C(N)=O)c5N)C4)c(F)c(C)c3Cl)C(C)C)ccc2CC1C(=O)NC1CCCc2ccccc21)C(C)(C)C

> <Shape>
0.129

> <Color>
0.170

> <Negative vol penalty>
0.000

$$$$

  -OEChem-04052316153D

 86 94  0     1  0  0  0  0  0999 V2000
  -27.5275  -32.8491   27.2420 C   0  0  0  0  0  0  0  0  0  0  0  0
  -27.7878  -31.7966   26.3701 C   0  0  0  0  0  0  0  0  0  0  0  0
  -26.1230  -11.9703   21.4268 C   0  0  0  0  0  0  0  0  0  0  0  0
  -25.6244  -13.2536   19.4415 C   0  0  0  0  0  0  0  0  0  0  0  0
  -26.2115  -33.1695   27.5728 C   0  0  0  0  0  0  0  0  0  0  0  0
  -26.7322  -31.0633   25.8294 C   0  0  0  0  0  0  0  0  0  0  0  0
  -27.2911  -30.2238   20.8668 C   0  0  0  0  0  0  0  0  0  0  0  0
  -24.7686  -11.9598   21.7601 C   0  0  0  0  0  0  0  0  0  0  0  0
  -24.2700  -13.2430   19.7747 C   0  0  0  0  0  0  0  0  0  0  0  0
  -28.1763  -29.2158   20.4873 C   0  0  0  0  0  0  0  0  0  0  0  0
  -21.9868  -10.2793   20.8272 C   0  0  0  0  0  0  0  0  0  0  0  0
  -21.4316   -9.0701   21.2460 C   0  0  0  0  0  0  0  0  0  0  0  0
  -26.3164  -27.7158   20.1556 C   0  0  0  0  0  0  0  0  0  0  0  0
  -30.4370  -20.3376   16.1337 C   0  0  0  0  0  0  0  0  0  0  0  0
  -31.9984  -20.1876   18.4407 C   0  0  0  0  0  0  0  0  0  0  0  0
  -20.8419  -10.0740   23.3629 C   0  0  0  0  0  0  0  0  0  0  0  0
  -26.5509  -12.6173   20.2675 C   0  0  0  0  0  0  0  0  0  0  0  0
  -28.6404  -11.6852   19.1393 C   0  0  0  0  0  0  0  0  0  0  0  0
  -25.1389  -32.4459   27.0283 C   0  0  0  0  0  0  0  0  0  0  0  0
  -25.9104  -29.9818   20.9041 C   0  0  0  0  0  0  0  0  0  0  0  0
  -25.4007  -31.3736   26.1543 C   0  0  0  0  0  0  0  0  0  0  0  0
  -25.4156  -28.7232   20.5334 C   0  0  0  0  0  0  0  0  0  0  0  0
  -31.0302  -21.4894   16.6504 C   0  0  0  0  0  0  0  0  0  0  0  0
  -30.6244  -19.1107   16.7705 C   0  0  0  0  0  0  0  0  0  0  0  0
  -31.8110  -21.4144   17.8039 C   0  0  0  0  0  0  0  0  0  0  0  0
  -31.4051  -19.0357   17.9240 C   0  0  0  0  0  0  0  0  0  0  0  0
  -23.8421  -12.5961   20.9341 C   0  0  0  0  0  0  0  0  0  0  0  0
  -27.6892  -27.9607   20.1344 C   0  0  0  0  0  0  0  0  0  0  0  0
  -21.9695  -11.3858   21.6764 C   0  0  0  0  0  0  0  0  0  0  0  0
  -20.8592   -8.9675   22.5138 C   0  0  0  0  0  0  0  0  0  0  0  0
  -21.3970  -11.2832   22.9442 C   0  0  0  0  0  0  0  0  0  0  0  0
  -27.9499  -12.6290   19.9230 C   0  0  0  0  0  0  0  0  0  0  0  0
  -29.9346  -12.1441   19.1099 C   0  0  0  0  0  0  0  0  0  0  0  0
  -28.1552  -10.4996   18.4953 C   0  0  0  0  0  0  0  0  0  0  0  0
  -23.6887  -30.0103   23.1771 C   0  0  0  0  0  0  0  0  0  0  0  0
  -21.6795  -29.5288   20.6764 C   0  0  0  0  0  0  0  0  0  0  0  0
  -21.2427  -28.3936   17.4878 C   0  0  0  0  0  0  0  0  0  0  0  0
  -32.3568  -17.5702   19.7386 C   0  0  0  0  0  0  0  0  0  0  0  0
  -23.7353  -32.7992   27.4524 C   0  0  0  0  0  0  0  0  0  0  0  0
  -24.9668  -31.0877   21.2900 C   0  0  0  0  0  0  0  0  0  0  0  0
  -23.9407  -28.4184   20.5373 C   0  0  0  0  0  0  0  0  0  0  0  0
  -22.6584  -32.2123   26.5434 C   0  0  0  0  0  0  0  0  0  0  0  0
  -33.0676  -14.6814   21.6947 C   0  0  0  0  0  0  0  0  0  0  0  0
  -22.9440  -30.7413   26.2583 C   0  0  0  0  0  0  0  0  0  0  0  0
  -31.9019  -13.7389   21.3864 C   0  0  0  0  0  0  0  0  0  0  0  0
  -32.6173  -16.1400   21.7539 C   0  0  0  0  0  0  0  0  0  0  0  0
  -30.7101  -15.6666   20.2680 C   0  0  0  0  0  0  0  0  0  0  0  0
  -24.2815  -30.5704   25.5278 C   0  0  1  0  0  0  0  0  0  0  0  0
  -23.6182  -30.5763   21.7871 C   0  0  1  0  0  0  0  0  0  0  0  0
  -31.1264  -14.1927   20.1340 C   0  0  2  0  0  0  0  0  0  0  0  0
  -29.9771  -17.8931   16.1949 C   0  0  0  0  0  0  0  0  0  0  0  0
  -32.4558  -22.6342   18.3755 C   0  0  0  0  0  0  0  0  0  0  0  0
  -19.4799  -28.0966   15.7266 C   0  0  0  0  0  0  0  0  0  0  0  0
  -28.6505  -24.8481   14.8894 C   0  0  0  0  0  0  0  0  0  0  0  0
  -20.5858  -27.1109   22.1823 C   0  0  0  0  0  0  0  0  0  0  0  0
  -19.5559  -26.3291   20.0384 C   0  0  0  0  0  0  0  0  0  0  0  0
  -18.8491  -28.5016   21.0402 C   0  0  0  0  0  0  0  0  0  0  0  0
  -22.6562  -30.1877   15.6056 C   0  0  0  0  0  0  0  0  0  0  0  0
  -30.8142  -22.7977   15.9486 C   0  0  0  0  0  0  0  0  0  0  0  0
  -30.2277  -26.2975   18.1590 C   0  0  0  0  0  0  0  0  0  0  0  0
  -29.1993  -26.0412   17.0495 C   0  0  0  0  0  0  0  0  0  0  0  0
  -29.7652  -27.3772   19.1315 C   0  0  0  0  0  0  0  0  0  1  0  0
  -21.1297  -28.3162   19.9648 C   0  0  1  0  0  0  0  0  0  0  0  0
  -20.5583  -29.0134   16.2828 C   0  0  2  0  0  0  0  0  0  0  0  0
  -29.6678  -25.0159   16.0104 C   0  0  1  0  0  0  0  0  0  0  0  0
  -20.0581  -27.5693   20.8081 C   0  0  0  0  0  0  0  0  0  0  0  0
  -28.7401  -13.6132   20.3601 N   0  0  0  0  0  0  0  0  0  0  0  0
  -29.9405  -13.2902   19.8493 N   0  0  0  0  0  0  0  0  0  0  0  0
  -23.0588  -29.5306   20.9281 N   0  0  0  0  0  0  0  0  0  0  0  0
  -31.8935  -16.4999   20.5327 N   0  0  0  0  0  0  0  0  0  0  0  0
  -31.0568  -11.6751   18.5241 N   0  0  0  0  0  0  0  0  0  0  0  0
  -26.7981  -10.1752   18.6273 N   0  0  0  0  0  0  0  0  0  0  0  0
  -31.6074  -17.7989   18.5851 N   0  0  0  0  0  0  0  0  0  0  0  0
  -24.1391  -30.9067   24.1274 N   0  0  0  0  0  0  0  0  0  0  0  0
  -20.6501  -28.7857   18.6694 N   0  0  0  0  0  0  0  0  0  0  0  0
  -21.5509  -29.2801   15.2036 N   0  3  0  0  0  0  0  0  0  0  0  0
  -29.8595  -23.6883   16.6580 N   0  3  0  0  0  0  0  0  0  0  0  0
  -28.9064   -9.7412   17.8364 O   0  0  0  0  0  0  0  0  0  0  0  0
  -23.3574  -28.8469   23.3733 O   0  0  0  0  0  0  0  0  0  0  0  0
  -20.9144  -30.4440   20.9908 O   0  0  0  0  0  0  0  0  0  0  0  0
  -22.2044  -27.6345   17.3903 O   0  0  0  0  0  0  0  0  0  0  0  0
  -33.3615  -18.2176   20.0444 O   0  0  0  0  0  0  0  0  0  0  0  0
  -22.5204  -12.5858   21.2589 O   0  0  0  0  0  0  0  0  0  0  0  0
  -28.5511  -26.9748   19.7642 O   0  0  0  0  0  0  0  0  0  1  0  0
  -20.3247   -7.8067   22.9152 F   0  0  0  0  0  0  0  0  0  0  0  0
  -21.3764  -12.3431   23.7639 F   0  0  0  0  0  0  0  0  0  0  0  0
  1  2  1  0  0  0  0
  1  5  2  0  0  0  0
  2  6  2  0  0  0  0
  3  8  2  0  0  0  0
  3 17  1  0  0  0  0
  4  9  1  0  0  0  0
  4 17  2  0  0  0  0
  5 19  1  0  0  0  0
  6 21  1  0  0  0  0
  7 10  2  0  0  0  0
  7 20  1  0  0  0  0
  8 27  1  0  0  0  0
  9 27  2  0  0  0  0
 10 28  1  0  0  0  0
 11 12  2  0  0  0  0
 11 29  1  0  0  0  0
 12 30  1  0  0  0  0
 13 22  1  0  0  0  0
 13 28  2  0  0  0  0
 14 23  1  0  0  0  0
 14 24  2  0  0  0  0
 15 25  1  0  0  0  0
 15 26  2  0  0  0  0
 16 30  2  0  0  0  0
 16 31  1  0  0  0  0
 17 32  1  0  0  0  0
 18 32  1  0  0  0  0
 18 33  2  0  0  0  0
 18 34  1  0  0  0  0
 19 21  2  0  0  0  0
 19 39  1  0  0  0  0
 20 22  2  0  0  0  0
 20 40  1  0  0  0  0
 21 48  1  0  0  0  0
 22 41  1  0  0  0  0
 23 25  2  0  0  0  0
 23 59  1  0  0  0  0
 24 26  1  0  0  0  0
 24 51  1  0  0  0  0
 25 52  1  0  0  0  0
 26 73  1  0  0  0  0
 27 83  1  0  0  0  0
 28 84  1  0  0  0  0
 29 31  2  0  0  0  0
 29 83  1  0  0  0  0
 30 85  1  0  0  0  0
 31 86  1  0  0  0  0
 32 67  2  0  0  0  0
 33 68  1  0  0  0  0
 33 71  1  0  0  0  0
 34 72  1  0  0  0  0
 34 78  2  0  0  0  0
 35 49  1  0  0  0  0
 35 74  1  0  0  0  0
 35 79  2  0  0  0  0
 36 63  1  0  0  0  0
 36 69  1  0  0  0  0
 36 80  2  0  0  0  0
 37 64  1  0  0  0  0
 37 75  1  0  0  0  0
 37 81  2  0  0  0  0
 38 70  1  0  0  0  0
 38 73  1  0  0  0  0
 38 82  2  0  0  0  0
 39 42  1  0  0  0  0
 40 49  1  0  0  0  0
 41 69  1  0  0  0  0
 42 44  1  0  0  0  0
 43 45  1  0  0  0  0
 43 46  1  0  0  0  0
 44 48  1  0  0  0  0
 45 50  1  0  0  0  0
 46 70  1  0  0  0  0
 47 50  1  0  0  0  0
 47 70  1  0  0  0  0
 48 74  1  0  0  0  0
 49 69  1  0  0  0  0
 50 68  1  0  0  0  0
 53 64  1  0  0  0  0
 54 65  1  0  0  0  0
 55 66  1  0  0  0  0
 56 66  1  0  0  0  0
 57 66  1  0  0  0  0
 58 76  1  0  0  0  0
 59 77  1  0  0  0  0
 60 61  1  0  0  0  0
 60 62  1  0  0  0  0
 61 65  1  0  0  0  0
 62 84  1  0  0  0  0
 63 66  1  0  0  0  0
 63 75  1  0  0  0  0
 64 76  1  0  0  0  0
 65 77  1  0  0  0  0
 67 68  1  0  0  0  0
M  CHG  2  76   1  77   1
M  ISO  4  38 100  62 101  73 100  84 101
M  END
> <Batch ID>
0022

> <Smiles>
CNC(C)C(=O)NC(C(=O)N1Cc2cc([101O:1][101CH2:1]CCC(C)NCc3cc(C)c([100NH:0][100C:0](=O)N4CCCC(n5nc(-c6ccc(Oc7ccc(F)cc7F)cc6)c(C(N)=O)c5N)C4)cc3C)ccc2CC1C(=O)NC1CCCc2ccccc21)C(C)(C)C

> <Shape>
0.283

> <Color>
0.097

> <Negative vol penalty>
0.000

$$$$

  -OEChem-04052316153D

 86 94  0     1  0  0  0  0  0999 V2000
  -23.6645  -28.8061   25.0412 C   0  0  0  0  0  0  0  0  0  0  0  0
  -24.5109  -28.1526   24.1512 C   0  0  0  0  0  0  0  0  0  0  0  0
  -23.0018   -9.7847   20.0725 C   0  0  0  0  0  0  0  0  0  0  0  0
  -23.6812  -10.0014   22.3809 C   0  0  0  0  0  0  0  0  0  0  0  0
  -23.2611  -30.1156   24.7839 C   0  0  0  0  0  0  0  0  0  0  0  0
  -24.9535  -28.8081   23.0028 C   0  0  0  0  0  0  0  0  0  0  0  0
  -29.9066  -28.1511   22.1779 C   0  0  0  0  0  0  0  0  0  0  0  0
  -22.2397   -8.6639   20.4019 C   0  0  0  0  0  0  0  0  0  0  0  0
  -22.9190   -8.8806   22.7103 C   0  0  0  0  0  0  0  0  0  0  0  0
  -30.3044  -26.9335   21.6276 C   0  0  0  0  0  0  0  0  0  0  0  0
  -23.2006   -5.5196   22.4749 C   0  0  0  0  0  0  0  0  0  0  0  0
  -23.7817   -4.5624   23.3065 C   0  0  0  0  0  0  0  0  0  0  0  0
  -30.4571  -27.9719   19.4556 C   0  0  0  0  0  0  0  0  0  0  0  0
  -29.6258  -19.3483   21.8425 C   0  0  0  0  0  0  0  0  0  0  0  0
  -31.1198  -17.5841   20.2810 C   0  0  0  0  0  0  0  0  0  0  0  0
  -22.0233   -4.9034   24.9279 C   0  0  0  0  0  0  0  0  0  0  0  0
  -23.7226  -10.4535   21.0619 C   0  0  0  0  0  0  0  0  0  0  0  0
  -24.0902  -12.9546   20.7199 C   0  0  0  0  0  0  0  0  0  0  0  0
  -23.7067  -30.7908   23.6367 C   0  0  0  0  0  0  0  0  0  0  0  0
  -29.7703  -29.2876   21.3679 C   0  0  0  0  0  0  0  0  0  0  0  0
  -24.5546  -30.1274   22.7292 C   0  0  0  0  0  0  0  0  0  0  0  0
  -30.0599  -29.2034   19.9986 C   0  0  0  0  0  0  0  0  0  0  0  0
  -30.5644  -19.8421   20.9366 C   0  0  0  0  0  0  0  0  0  0  0  0
  -30.1812  -17.0902   21.1869 C   0  0  0  0  0  0  0  0  0  0  0  0
  -22.1983   -8.2118   21.7208 C   0  0  0  0  0  0  0  0  0  0  0  0
  -30.5770  -26.8430   20.2657 C   0  0  0  0  0  0  0  0  0  0  0  0
  -22.0308   -6.1688   22.8698 C   0  0  0  0  0  0  0  0  0  0  0  0
  -29.4342  -17.9723   21.9677 C   0  0  0  0  0  0  0  0  0  0  0  0
  -23.1931   -4.2542   24.5330 C   0  0  0  0  0  0  0  0  0  0  0  0
  -21.4422   -5.8606   24.0963 C   0  0  0  0  0  0  0  0  0  0  0  0
  -31.3114  -18.9601   20.1558 C   0  0  0  0  0  0  0  0  0  0  0  0
  -24.5105  -11.6110   20.7221 C   0  0  0  0  0  0  0  0  0  0  0  0
  -25.2008  -13.6611   20.3276 C   0  0  0  0  0  0  0  0  0  0  0  0
  -22.8104  -13.5140   21.0436 C   0  0  0  0  0  0  0  0  0  0  0  0
  -27.3600  -31.2039   20.5790 C   0  0  0  0  0  0  0  0  0  0  0  0
  -29.7045  -32.9099   19.1246 C   0  0  0  0  0  0  0  0  0  0  0  0
  -32.8126  -32.9461   17.7155 C   0  0  0  0  0  0  0  0  0  0  0  0
  -30.6664  -14.6892   20.5987 C   0  0  0  0  0  0  0  0  0  0  0  0
  -23.2058  -32.1895   23.3770 C   0  0  0  0  0  0  0  0  0  0  0  0
  -29.3660  -30.6000   21.9817 C   0  0  0  0  0  0  0  0  0  0  0  0
  -29.9484  -30.3990   19.0894 C   0  0  0  0  0  0  0  0  0  0  0  0
  -24.0198  -32.9431   22.3283 C   0  0  0  0  0  0  0  0  0  0  0  0
  -29.6146  -12.0711   18.4270 C   0  0  0  0  0  0  0  0  0  0  0  0
  -24.2669  -32.0607   21.1089 C   0  0  0  0  0  0  0  0  0  0  0  0
  -28.1583  -11.8285   18.8303 C   0  0  0  0  0  0  0  0  0  0  0  0
  -30.4891  -12.4060   19.6339 C   0  0  0  0  0  0  0  0  0  0  0  0
  -28.5414  -13.2663   20.8731 C   0  0  0  0  0  0  0  0  0  0  0  0
  -25.0759  -30.8135   21.4852 C   0  0  1  0  0  0  0  0  0  0  0  0
  -28.7631  -31.5714   20.9716 C   0  0  1  0  0  0  0  0  0  0  0  0
  -27.6088  -12.9892   19.6827 C   0  0  2  0  0  0  0  0  0  0  0  0
  -27.4286  -22.7976   19.3092 C   0  0  0  0  0  0  0  0  0  0  0  0
  -34.4426  -34.4789   16.5794 C   0  0  0  0  0  0  0  0  0  0  0  0
  -28.0399  -32.7830   16.5705 C   0  0  0  0  0  0  0  0  0  0  0  0
  -30.0810  -33.4622   15.2895 C   0  0  0  0  0  0  0  0  0  0  0  0
  -29.1184  -34.9974   17.0039 C   0  0  0  0  0  0  0  0  0  0  0  0
  -34.8495  -32.5306   19.8220 C   0  0  0  0  0  0  0  0  0  0  0  0
  -27.1818  -17.3311   22.3820 C   0  0  0  0  0  0  0  0  0  0  0  0
  -30.7429  -21.3386   20.8323 C   0  0  0  0  0  0  0  0  0  0  0  0
  -28.3849  -22.1739   20.3177 C   0  0  0  0  0  0  0  0  0  0  0  0
  -30.3733  -23.3744   19.2905 C   0  0  0  0  0  0  0  0  0  0  0  0
  -30.4747  -24.4684   20.3478 C   0  0  0  0  0  0  0  0  0  1  0  0
  -30.3323  -32.9095   17.7517 C   0  0  1  0  0  0  0  0  0  0  0  0
  -33.9931  -33.8818   17.9038 C   0  0  2  0  0  0  0  0  0  0  0  0
  -29.8266  -22.0153   19.7856 C   0  0  1  0  0  0  0  0  0  0  0  0
  -29.3932  -33.5149   16.6704 C   0  0  0  0  0  0  0  0  0  0  0  0
  -25.7883  -11.4698   20.3598 N   0  0  0  0  0  0  0  0  0  0  0  0
  -26.1805  -12.7338   20.1262 N   0  0  0  0  0  0  0  0  0  0  0  0
  -29.5434  -31.6583   19.7356 N   0  0  0  0  0  0  0  0  0  0  0  0
  -29.9087  -13.5171   20.3912 N   0  0  0  0  0  0  0  0  0  0  0  0
  -25.4251  -14.9788   20.1387 N   0  0  0  0  0  0  0  0  0  0  0  0
  -21.7795  -12.6456   21.4277 N   0  0  0  0  0  0  0  0  0  0  0  0
  -29.9988  -15.6899   21.3040 N   0  0  0  0  0  0  0  0  0  0  0  0
  -26.4758  -31.1467   21.6393 N   0  0  0  0  0  0  0  0  0  0  0  0
  -31.6105  -33.5995   17.8871 N   0  0  0  0  0  0  0  0  0  0  0  0
  -35.1439  -33.1495   18.5039 N   0  3  0  0  0  0  0  0  0  0  0  0
  -22.5829  -14.7458   20.9779 O   0  0  0  0  0  0  0  0  0  0  0  0
  -27.0987  -30.9897   19.4011 O   0  0  0  0  0  0  0  0  0  0  0  0
  -29.3759  -33.9819   19.6389 O   0  0  0  0  0  0  0  0  0  0  0  0
  -32.9436  -31.7556   17.4399 O   0  0  0  0  0  0  0  0  0  0  0  0
  -31.8125  -14.8075   20.1579 O   0  0  0  0  0  0  0  0  0  0  0  0
  -21.4546   -7.1183   22.0427 O   0  0  0  0  0  0  0  0  0  0  0  0
  -28.5133  -17.5098   22.8599 O   0  0  0  0  0  0  0  0  0  0  0  0
  -30.9648  -25.6556   19.7259 O   0  0  0  0  0  0  0  0  0  1  0  0
  -23.7505   -3.3339   25.3308 F   0  0  0  0  0  0  0  0  0  0  0  0
  -20.3177   -6.4801   24.4806 F   0  0  0  0  0  0  0  0  0  0  0  0
  -32.4823  -19.5350   19.0254 Cl  0  0  0  0  0  0  0  0  0  0  0  0
  1  2  1  0  0  0  0
  1  5  2  0  0  0  0
  2  6  2  0  0  0  0
  3  8  2  0  0  0  0
  3 17  1  0  0  0  0
  4  9  1  0  0  0  0
  4 17  2  0  0  0  0
  5 19  1  0  0  0  0
  6 21  1  0  0  0  0
  7 10  2  0  0  0  0
  7 20  1  0  0  0  0
  8 25  1  0  0  0  0
  9 25  2  0  0  0  0
 10 26  1  0  0  0  0
 11 12  2  0  0  0  0
 11 27  1  0  0  0  0
 12 29  1  0  0  0  0
 13 22  1  0  0  0  0
 13 26  2  0  0  0  0
 14 23  1  0  0  0  0
 14 28  2  0  0  0  0
 15 24  2  0  0  0  0
 15 31  1  0  0  0  0
 16 29  2  0  0  0  0
 16 30  1  0  0  0  0
 17 32  1  0  0  0  0
 18 32  1  0  0  0  0
 18 33  2  0  0  0  0
 18 34  1  0  0  0  0
 19 21  2  0  0  0  0
 19 39  1  0  0  0  0
 20 22  2  0  0  0  0
 20 40  1  0  0  0  0
 21 48  1  0  0  0  0
 22 41  1  0  0  0  0
 23 31  2  0  0  0  0
 23 58  1  0  0  0  0
 24 28  1  0  0  0  0
 24 72  1  0  0  0  0
 25 81  1  0  0  0  0
 26 83  1  0  0  0  0
 27 30  2  0  0  0  0
 27 81  1  0  0  0  0
 28 82  1  0  0  0  0
 29 84  1  0  0  0  0
 30 85  1  0  0  0  0
 31 86  1  0  0  0  0
 32 66  2  0  0  0  0
 33 67  1  0  0  0  0
 33 70  1  0  0  0  0
 34 71  1  0  0  0  0
 34 76  2  0  0  0  0
 35 49  1  0  0  0  0
 35 73  1  0  0  0  0
 35 77  2  0  0  0  0
 36 62  1  0  0  0  0
 36 68  1  0  0  0  0
 36 78  2  0  0  0  0
 37 63  1  0  0  0  0
 37 74  1  0  0  0  0
 37 79  2  0  0  0  0
 38 69  1  0  0  0  0
 38 72  1  0  0  0  0
 38 80  2  0  0  0  0
 39 42  1  0  0  0  0
 40 49  1  0  0  0  0
 41 68  1  0  0  0  0
 42 44  1  0  0  0  0
 43 45  1  0  0  0  0
 43 46  1  0  0  0  0
 44 48  1  0  0  0  0
 45 50  1  0  0  0  0
 46 69  1  0  0  0  0
 47 50  1  0  0  0  0
 47 69  1  0  0  0  0
 48 73  1  0  0  0  0
 49 68  1  0  0  0  0
 50 67  1  0  0  0  0
 51 59  1  0  0  0  0
 52 63  1  0  0  0  0
 53 65  1  0  0  0  0
 54 65  1  0  0  0  0
 55 65  1  0  0  0  0
 56 75  1  0  0  0  0
 57 82  1  0  0  0  0
 58 64  1  0  0  0  0
 59 64  1  0  0  0  0
 60 61  1  0  0  0  0
 60 64  1  0  0  0  0
 61 83  1  0  0  0  0
 62 65  1  0  0  0  0
 62 74  1  0  0  0  0
 63 75  1  0  0  0  0
 66 67  1  0  0  0  0
M  CHG  1  75   1
M  ISO  4  38 100  61 101  72 100  83 101
M  END
> <Batch ID>
0022

> <Smiles>
CCC(Cc1cc(OC)c([100NH:0][100C:0](=O)N2CCCC(n3nc(-c4ccc(Oc5ccc(F)cc5F)cc4)c(C(N)=O)c3N)C2)cc1Cl)C[101CH2:1][101O:1]c1ccc2c(c1)CN(C(=O)C(NC(=O)C(C)NC)C(C)(C)C)C(C(=O)NC1CCCc3ccccc31)C2

> <Shape>
0.299

> <Color>
0.207

> <Negative vol penalty>
0.000

$$$$

  -OEChem-04052316153D

 81 89  0     1  0  0  0  0  0999 V2000
  -28.1496  -37.0333   21.2706 C   0  0  0  0  0  0  0  0  0  0  0  0
  -28.5492  -35.7141   21.0823 C   0  0  0  0  0  0  0  0  0  0  0  0
  -26.8721  -12.7094   21.7983 C   0  0  0  0  0  0  0  0  0  0  0  0
  -26.2247  -14.3159   20.1140 C   0  0  0  0  0  0  0  0  0  0  0  0
  -27.0352  -37.3170   22.0589 C   0  0  0  0  0  0  0  0  0  0  0  0
  -27.8352  -34.6779   21.6831 C   0  0  0  0  0  0  0  0  0  0  0  0
  -26.8478  -29.0810   19.4014 C   0  0  0  0  0  0  0  0  0  0  0  0
  -25.5543  -12.2588   21.8751 C   0  0  0  0  0  0  0  0  0  0  0  0
  -24.9068  -13.8653   20.1908 C   0  0  0  0  0  0  0  0  0  0  0  0
  -27.4724  -27.8543   19.6226 C   0  0  0  0  0  0  0  0  0  0  0  0
  -22.4296  -10.4401   22.2541 C   0  0  0  0  0  0  0  0  0  0  0  0
  -22.2157   -9.0619   22.2760 C   0  0  0  0  0  0  0  0  0  0  0  0
  -25.7800  -27.2924   21.2472 C   0  0  0  0  0  0  0  0  0  0  0  0
  -30.3461  -22.6446   21.9249 C   0  0  0  0  0  0  0  0  0  0  0  0
  -23.2894   -8.8611   20.1210 C   0  0  0  0  0  0  0  0  0  0  0  0
  -27.2073  -13.7380   20.9178 C   0  0  0  0  0  0  0  0  0  0  0  0
  -29.5834  -13.7238   19.9897 C   0  0  0  0  0  0  0  0  0  0  0  0
  -26.3014  -36.2832   22.6618 C   0  0  0  0  0  0  0  0  0  0  0  0
  -25.6888  -29.4277   20.1107 C   0  0  0  0  0  0  0  0  0  0  0  0
  -26.7107  -34.9482   22.4813 C   0  0  0  0  0  0  0  0  0  0  0  0
  -25.1412  -28.5230   21.0314 C   0  0  0  0  0  0  0  0  0  0  0  0
  -29.8771  -23.9145   21.5888 C   0  0  0  0  0  0  0  0  0  0  0  0
  -29.2285  -24.1186   20.3708 C   0  0  0  0  0  0  0  0  0  0  0  0
  -29.0490  -23.0528   19.4890 C   0  0  0  0  0  0  0  0  0  0  0  0
  -30.1666  -21.5788   21.0431 C   0  0  0  0  0  0  0  0  0  0  0  0
  -24.5716  -12.8367   21.0713 C   0  0  0  0  0  0  0  0  0  0  0  0
  -26.9402  -26.9610   20.5477 C   0  0  0  0  0  0  0  0  0  0  0  0
  -23.0733  -11.0288   21.1657 C   0  0  0  0  0  0  0  0  0  0  0  0
  -22.6456   -8.2724   21.2095 C   0  0  0  0  0  0  0  0  0  0  0  0
  -23.5033  -10.2393   20.0992 C   0  0  0  0  0  0  0  0  0  0  0  0
  -29.5180  -21.7829   19.8252 C   0  0  0  0  0  0  0  0  0  0  0  0
  -28.5683  -14.2043   20.8385 C   0  0  0  0  0  0  0  0  0  0  0  0
  -30.6804  -14.4905   20.2981 C   0  0  0  0  0  0  0  0  0  0  0  0
  -29.5387  -12.6779   19.0099 C   0  0  0  0  0  0  0  0  0  0  0  0
  -24.9174  -31.7338   22.1577 C   0  0  0  0  0  0  0  0  0  0  0  0
  -21.9500  -30.4533   21.8791 C   0  0  0  0  0  0  0  0  0  0  0  0
  -20.0259  -27.7351   21.1337 C   0  0  0  0  0  0  0  0  0  0  0  0
  -31.3159  -19.9673   22.6015 C   0  0  0  0  0  0  0  0  0  0  0  0
  -25.1318  -36.6420   23.5439 C   0  0  0  0  0  0  0  0  0  0  0  0
  -25.0120  -30.7437   19.8411 C   0  0  0  0  0  0  0  0  0  0  0  0
  -23.8875  -28.8389   21.8038 C   0  0  0  0  0  0  0  0  0  0  0  0
  -24.2078  -35.4634   23.8395 C   0  0  0  0  0  0  0  0  0  0  0  0
  -32.6415  -16.9365   23.9183 C   0  0  0  0  0  0  0  0  0  0  0  0
  -25.0200  -34.2346   24.2357 C   0  0  0  0  0  0  0  0  0  0  0  0
  -31.8440  -15.8481   23.1962 C   0  0  0  0  0  0  0  0  0  0  0  0
  -31.7774  -18.1550   24.2379 C   0  0  0  0  0  0  0  0  0  0  0  0
  -30.2586  -17.6341   22.3694 C   0  0  0  0  0  0  0  0  0  0  0  0
  -25.9473  -33.7952   23.0961 C   0  0  1  0  0  0  0  0  0  0  0  0
  -24.1265  -31.2073   20.9937 C   0  0  1  0  0  0  0  0  0  0  0  0
  -31.1027  -16.4132   21.9687 C   0  0  2  0  0  0  0  0  0  0  0  0
  -30.0829  -25.0391   22.5505 C   0  0  0  0  0  0  0  0  0  0  0  0
  -28.3518  -23.2933   18.1855 C   0  0  0  0  0  0  0  0  0  0  0  0
  -17.6341  -26.9824   21.0338 C   0  0  0  0  0  0  0  0  0  0  0  0
  -21.8924  -30.2406   24.9224 C   0  0  0  0  0  0  0  0  0  0  0  0
  -19.9649  -28.6576   24.7056 C   0  0  0  0  0  0  0  0  0  0  0  0
  -19.7469  -31.0047   23.8892 C   0  0  0  0  0  0  0  0  0  0  0  0
  -20.2023  -27.1740   18.2332 C   0  0  0  0  0  0  0  0  0  0  0  0
  -28.7280  -25.4869   20.0123 C   0  0  0  0  0  0  0  0  0  1  0  0
  -21.1808  -29.3712   22.5978 C   0  0  1  0  0  0  0  0  0  0  0  0
  -18.7962  -27.5813   20.2570 C   0  0  2  0  0  0  0  0  0  0  0  0
  -20.7210  -29.8131   24.0158 C   0  0  0  0  0  0  0  0  0  0  0  0
  -28.9835  -15.1992   21.6270 N   0  0  0  0  0  0  0  0  0  0  0  0
  -30.2718  -15.3500   21.2751 N   0  0  0  0  0  0  0  0  0  0  0  0
  -23.2660  -30.1408   21.5097 N   0  0  0  0  0  0  0  0  0  0  0  0
  -31.1096  -18.6380   23.0272 N   0  0  0  0  0  0  0  0  0  0  0  0
  -31.9452  -14.5066   19.8263 N   0  0  0  0  0  0  0  0  0  0  0  0
  -28.3316  -11.9914   18.8202 N   0  0  0  0  0  0  0  0  0  0  0  0
  -30.6555  -20.3035   21.4202 N   0  0  0  0  0  0  0  0  0  0  0  0
  -25.1993  -33.0844   22.0814 N   0  0  0  0  0  0  0  0  0  0  0  0
  -20.0900  -28.9867   21.7086 N   0  0  0  0  0  0  0  0  0  0  0  0
  -19.0942  -26.6932   19.0979 N   0  3  0  0  0  0  0  0  0  0  0  0
  -30.5439  -12.3505   18.3347 O   0  0  0  0  0  0  0  0  0  0  0  0
  -25.2461  -30.9716   23.0591 O   0  0  0  0  0  0  0  0  0  0  0  0
  -21.4011  -31.5334   21.6476 O   0  0  0  0  0  0  0  0  0  0  0  0
  -20.8455  -26.8336   21.2955 O   0  0  0  0  0  0  0  0  0  0  0  0
  -32.0478  -20.7417   23.2233 O   0  0  0  0  0  0  0  0  0  0  0  0
  -23.2857  -12.3971   21.1458 O   0  0  0  0  0  0  0  0  0  0  0  0
  -27.5482  -25.7633   20.7659 O   0  0  0  0  0  0  0  0  0  1  0  0
  -22.4415   -6.9488   21.2313 F   0  0  0  0  0  0  0  0  0  0  0  0
  -24.1234  -10.7990   19.0513 F   0  0  0  0  0  0  0  0  0  0  0  0
  -29.2928  -20.4585   18.7282 Cl  0  0  0  0  0  0  0  0  0  0  0  0
  1  2  1  0  0  0  0
  1  5  2  0  0  0  0
  2  6  2  0  0  0  0
  3  8  2  0  0  0  0
  3 16  1  0  0  0  0
  4  9  1  0  0  0  0
  4 16  2  0  0  0  0
  5 18  1  0  0  0  0
  6 20  1  0  0  0  0
  7 10  2  0  0  0  0
  7 19  1  0  0  0  0
  8 26  1  0  0  0  0
  9 26  2  0  0  0  0
 10 27  1  0  0  0  0
 11 12  2  0  0  0  0
 11 28  1  0  0  0  0
 12 29  1  0  0  0  0
 13 21  1  0  0  0  0
 13 27  2  0  0  0  0
 14 22  2  0  0  0  0
 14 25  1  0  0  0  0
 15 29  2  0  0  0  0
 15 30  1  0  0  0  0
 16 32  1  0  0  0  0
 17 32  1  0  0  0  0
 17 33  2  0  0  0  0
 17 34  1  0  0  0  0
 18 20  2  0  0  0  0
 18 39  1  0  0  0  0
 19 21  2  0  0  0  0
 19 40  1  0  0  0  0
 20 48  1  0  0  0  0
 21 41  1  0  0  0  0
 22 23  1  0  0  0  0
 22 51  1  0  0  0  0
 23 24  2  0  0  0  0
 23 58  1  0  0  0  0
 24 31  1  0  0  0  0
 24 52  1  0  0  0  0
 25 31  2  0  0  0  0
 25 68  1  0  0  0  0
 26 77  1  0  0  0  0
 27 78  1  0  0  0  0
 28 30  2  0  0  0  0
 28 77  1  0  0  0  0
 29 79  1  0  0  0  0
 30 80  1  0  0  0  0
 31 81  1  0  0  0  0
 32 62  2  0  0  0  0
 33 63  1  0  0  0  0
 33 66  1  0  0  0  0
 34 67  1  0  0  0  0
 34 72  2  0  0  0  0
 35 49  1  0  0  0  0
 35 69  1  0  0  0  0
 35 73  2  0  0  0  0
 36 59  1  0  0  0  0
 36 64  1  0  0  0  0
 36 74  2  0  0  0  0
 37 60  1  0  0  0  0
 37 70  1  0  0  0  0
 37 75  2  0  0  0  0
 38 65  1  0  0  0  0
 38 68  1  0  0  0  0
 38 76  2  0  0  0  0
 39 42  1  0  0  0  0
 40 49  1  0  0  0  0
 41 64  1  0  0  0  0
 42 44  1  0  0  0  0
 43 45  1  0  0  0  0
 43 46  1  0  0  0  0
 44 48  1  0  0  0  0
 45 50  1  0  0  0  0
 46 65  1  0  0  0  0
 47 50  1  0  0  0  0
 47 65  1  0  0  0  0
 48 69  1  0  0  0  0
 49 64  1  0  0  0  0
 50 63  1  0  0  0  0
 53 60  1  0  0  0  0
 54 61  1  0  0  0  0
 55 61  1  0  0  0  0
 56 61  1  0  0  0  0
 57 71  1  0  0  0  0
 58 78  1  0  0  0  0
 59 61  1  0  0  0  0
 59 70  1  0  0  0  0
 60 71  1  0  0  0  0
 62 63  1  0  0  0  0
M  CHG  1  71   1
M  ISO  4  38 100  58 101  68 100  78 101
M  END
> <Batch ID>
0022

> <Smiles>
CNC(C)C(=O)NC(C(=O)N1Cc2cc([101O:1][101CH2:1]c3c(C)cc([100NH:0][100C:0](=O)N4CCCC(n5nc(-c6ccc(Oc7ccc(F)cc7F)cc6)c(C(N)=O)c5N)C4)c(Cl)c3C)ccc2CC1C(=O)NC1CCCc2ccccc21)C(C)(C)C

> <Shape>
0.349

> <Color>
0.081

> <Negative vol penalty>
0.000

$$$$

  -OEChem-04052316153D

 88 96  0     1  0  0  0  0  0999 V2000
  -28.4087  -23.8522   17.8255 C   0  0  0  0  0  0  0  0  0  0  0  0
  -27.1747  -24.1666   18.3858 C   0  0  0  0  0  0  0  0  0  0  0  0
  -29.0559  -17.2635   21.1836 C   0  0  0  0  0  0  0  0  0  0  0  0
  -26.8785  -16.8732   22.1550 C   0  0  0  0  0  0  0  0  0  0  0  0
  -29.5782  -24.3644   18.3858 C   0  0  0  0  0  0  0  0  0  0  0  0
  -27.1096  -24.9925   19.5075 C   0  0  0  0  0  0  0  0  0  0  0  0
  -23.4907  -28.5135   19.1201 C   0  0  0  0  0  0  0  0  0  0  0  0
  -29.0492  -15.9747   20.6504 C   0  0  0  0  0  0  0  0  0  0  0  0
  -26.8717  -15.5843   21.6217 C   0  0  0  0  0  0  0  0  0  0  0  0
  -22.1780  -28.1057   19.3531 C   0  0  0  0  0  0  0  0  0  0  0  0
  -28.2338  -12.5778   22.3545 C   0  0  0  0  0  0  0  0  0  0  0  0
  -27.8235  -11.5350   23.1850 C   0  0  0  0  0  0  0  0  0  0  0  0
  -22.3008  -29.0076   21.5871 C   0  0  0  0  0  0  0  0  0  0  0  0
  -21.1247  -23.7162   26.0749 C   0  0  0  0  0  0  0  0  0  0  0  0
  -26.0279  -11.0208   21.6526 C   0  0  0  0  0  0  0  0  0  0  0  0
  -27.9706  -17.7128   21.9360 C   0  0  0  0  0  0  0  0  0  0  0  0
  -28.0660  -20.2572   21.7791 C   0  0  0  0  0  0  0  0  0  0  0  0
  -29.5268  -25.2047   19.5091 C   0  0  0  0  0  0  0  0  0  0  0  0
  -24.2232  -29.1629   20.1242 C   0  0  0  0  0  0  0  0  0  0  0  0
  -28.2796  -25.5153   20.0841 C   0  0  0  0  0  0  0  0  0  0  0  0
  -23.6217  -29.4250   21.3634 C   0  0  0  0  0  0  0  0  0  0  0  0
  -22.0480  -23.3072   27.0371 C   0  0  0  0  0  0  0  0  0  0  0  0
  -22.3385  -21.9519   27.1933 C   0  0  0  0  0  0  0  0  0  0  0  0
  -21.7056  -21.0055   26.3874 C   0  0  0  0  0  0  0  0  0  0  0  0
  -20.4917  -22.7698   25.2690 C   0  0  0  0  0  0  0  0  0  0  0  0
  -27.9571  -15.1350   20.8694 C   0  0  0  0  0  0  0  0  0  0  0  0
  -21.5838  -28.3502   20.5877 C   0  0  0  0  0  0  0  0  0  0  0  0
  -27.5410  -12.8422   21.1730 C   0  0  0  0  0  0  0  0  0  0  0  0
  -26.7206  -10.7565   22.8341 C   0  0  0  0  0  0  0  0  0  0  0  0
  -26.4381  -12.0637   20.8220 C   0  0  0  0  0  0  0  0  0  0  0  0
  -20.7822  -21.4145   25.4253 C   0  0  0  0  0  0  0  0  0  0  0  0
  -27.9772  -19.0439   22.4875 C   0  0  0  0  0  0  0  0  0  0  0  0
  -28.0317  -21.2261   22.7520 C   0  0  0  0  0  0  0  0  0  0  0  0
  -28.1700  -20.4878   20.3678 C   0  0  0  0  0  0  0  0  0  0  0  0
  -26.8872  -28.5148   21.7324 C   0  0  0  0  0  0  0  0  0  0  0  0
  -26.4331  -31.4991   22.9199 C   0  0  0  0  0  0  0  0  0  0  0  0
  -24.2662  -34.0435   23.6111 C   0  0  0  0  0  0  0  0  0  0  0  0
  -25.8030  -21.3485   28.3080 C   0  0  0  0  0  0  0  0  0  0  0  0
  -30.8208  -25.6959   20.1081 C   0  0  0  0  0  0  0  0  0  0  0  0
  -25.6292  -29.6203   19.8480 C   0  0  0  0  0  0  0  0  0  0  0  0
  -24.3583  -30.1366   22.4677 C   0  0  0  0  0  0  0  0  0  0  0  0
  -30.6407  -26.8668   21.0708 C   0  0  0  0  0  0  0  0  0  0  0  0
  -29.1723  -21.9690   27.3387 C   0  0  0  0  0  0  0  0  0  0  0  0
  -29.4931  -26.5916   22.0373 C   0  0  0  0  0  0  0  0  0  0  0  0
  -29.2561  -21.3992   25.9216 C   0  0  0  0  0  0  0  0  0  0  0  0
  -28.2689  -21.1240   28.2342 C   0  0  0  0  0  0  0  0  0  0  0  0
  -26.9988  -20.3163   26.2828 C   0  0  0  0  0  0  0  0  0  0  0  0
  -28.1663  -26.4278   21.2860 C   0  0  1  0  0  0  0  0  0  0  0  0
  -26.4542  -29.8150   21.1163 C   0  0  1  0  0  0  0  0  0  0  0  0
  -27.8541  -21.1657   25.3273 C   0  0  2  0  0  0  0  0  0  0  0  0
  -22.7115  -24.3409   27.8872 C   0  0  0  0  0  0  0  0  0  0  0  0
  -22.0300  -19.5549   26.5717 C   0  0  0  0  0  0  0  0  0  0  0  0
  -24.1824  -36.3411   24.6167 C   0  0  0  0  0  0  0  0  0  0  0  0
  -17.6153  -24.0921   25.4231 C   0  0  0  0  0  0  0  0  0  0  0  0
  -26.6229  -30.2817   25.7113 C   0  0  0  0  0  0  0  0  0  0  0  0
  -25.6063  -32.3813   26.6203 C   0  0  0  0  0  0  0  0  0  0  0  0
  -27.8047  -32.4695   25.4448 C   0  0  0  0  0  0  0  0  0  0  0  0
  -23.3233  -35.2448   21.0760 C   0  0  0  0  0  0  0  0  0  0  0  0
  -23.3284  -21.5181   28.2281 C   0  0  0  0  0  0  0  0  0  0  0  0
  -19.3320  -25.6330   22.3172 C   0  0  0  0  0  0  0  0  0  0  0  0
  -18.7942  -26.0689   20.9503 C   0  0  0  0  0  0  0  0  0  0  0  0
  -18.2641  -24.8773   23.1173 C   0  0  0  0  0  0  0  0  0  0  0  0
  -19.8471  -26.7939   20.1209 C   0  0  0  0  0  0  0  0  0  1  0  0
  -25.6972  -32.0779   24.1042 C   0  0  1  0  0  0  0  0  0  0  0  0
  -24.3435  -35.5346   23.3374 C   0  0  2  0  0  0  0  0  0  0  0  0
  -18.7766  -24.4029   24.4836 C   0  0  2  0  0  0  0  0  0  0  0  0
  -26.4193  -31.7875   25.4502 C   0  0  0  0  0  0  0  0  0  0  0  0
  -27.8931  -19.2230   23.8085 N   0  0  0  0  0  0  0  0  0  0  0  0
  -27.9288  -20.5602   23.9378 N   0  0  0  0  0  0  0  0  0  0  0  0
  -25.7328  -30.5586   22.1512 N   0  0  0  0  0  0  0  0  0  0  0  0
  -26.9544  -20.9416   27.6139 N   0  0  0  0  0  0  0  0  0  0  0  0
  -28.0798  -22.5742   22.7002 N   0  0  0  0  0  0  0  0  0  0  0  0
  -26.9900  -20.6361   19.6263 N   0  0  0  0  0  0  0  0  0  0  0  0
  -19.5814  -23.2096   24.3248 N   0  0  0  0  0  0  0  0  0  0  0  0
  -27.6448  -27.7196   20.8938 N   0  0  0  0  0  0  0  0  0  0  0  0
  -25.5151  -33.4968   23.8179 N   0  0  0  0  0  0  0  0  0  0  0  0
  -24.5984  -21.1455   27.6459 N   0  0  0  0  0  0  0  0  0  0  0  0
  -23.2713  -35.9429   22.3863 N   0  3  0  0  0  0  0  0  0  0  0  0
  -29.2762  -20.5438   19.7791 O   0  0  0  0  0  0  0  0  0  0  0  0
  -26.5596  -28.2531   22.8839 O   0  0  0  0  0  0  0  0  0  0  0  0
  -27.5841  -31.8731   22.6814 O   0  0  0  0  0  0  0  0  0  0  0  0
  -23.2039  -33.4261   23.6423 O   0  0  0  0  0  0  0  0  0  0  0  0
  -25.8458  -21.8599   29.4321 O   0  0  0  0  0  0  0  0  0  0  0  0
  -27.9500  -13.8774   20.3491 O   0  0  0  0  0  0  0  0  0  0  0  0
  -20.3029  -27.9526   20.8181 O   0  0  0  0  0  0  0  0  0  1  0  0
  -26.3277   -9.7541   23.6310 F   0  0  0  0  0  0  0  0  0  0  0  0
  -25.7694  -12.3122   19.6876 F   0  0  0  0  0  0  0  0  0  0  0  0
  -19.9939  -20.2367   24.4259 Cl  0  0  0  0  0  0  0  0  0  0  0  0
  1  2  1  0  0  0  0
  1  5  2  0  0  0  0
  2  6  2  0  0  0  0
  3  8  2  0  0  0  0
  3 16  1  0  0  0  0
  4  9  1  0  0  0  0
  4 16  2  0  0  0  0
  5 18  1  0  0  0  0
  6 20  1  0  0  0  0
  7 10  2  0  0  0  0
  7 19  1  0  0  0  0
  8 26  1  0  0  0  0
  9 26  2  0  0  0  0
 10 27  1  0  0  0  0
 11 12  2  0  0  0  0
 11 28  1  0  0  0  0
 12 29  1  0  0  0  0
 13 21  1  0  0  0  0
 13 27  2  0  0  0  0
 14 22  2  0  0  0  0
 14 25  1  0  0  0  0
 15 29  2  0  0  0  0
 15 30  1  0  0  0  0
 16 32  1  0  0  0  0
 17 32  1  0  0  0  0
 17 33  2  0  0  0  0
 17 34  1  0  0  0  0
 18 20  2  0  0  0  0
 18 39  1  0  0  0  0
 19 21  2  0  0  0  0
 19 40  1  0  0  0  0
 20 48  1  0  0  0  0
 21 41  1  0  0  0  0
 22 23  1  0  0  0  0
 22 51  1  0  0  0  0
 23 24  2  0  0  0  0
 23 59  1  0  0  0  0
 24 31  1  0  0  0  0
 24 52  1  0  0  0  0
 25 31  2  0  0  0  0
 25 74  1  0  0  0  0
 26 84  1  0  0  0  0
 27 85  1  0  0  0  0
 28 30  2  0  0  0  0
 28 84  1  0  0  0  0
 29 86  1  0  0  0  0
 30 87  1  0  0  0  0
 31 88  1  0  0  0  0
 32 68  2  0  0  0  0
 33 69  1  0  0  0  0
 33 72  1  0  0  0  0
 34 73  1  0  0  0  0
 34 79  2  0  0  0  0
 35 49  1  0  0  0  0
 35 75  1  0  0  0  0
 35 80  2  0  0  0  0
 36 64  1  0  0  0  0
 36 70  1  0  0  0  0
 36 81  2  0  0  0  0
 37 65  1  0  0  0  0
 37 76  1  0  0  0  0
 37 82  2  0  0  0  0
 38 71  1  0  0  0  0
 38 77  1  0  0  0  0
 38 83  2  0  0  0  0
 39 42  1  0  0  0  0
 40 49  1  0  0  0  0
 41 70  1  0  0  0  0
 42 44  1  0  0  0  0
 43 45  1  0  0  0  0
 43 46  1  0  0  0  0
 44 48  1  0  0  0  0
 45 50  1  0  0  0  0
 46 71  1  0  0  0  0
 47 50  1  0  0  0  0
 47 71  1  0  0  0  0
 48 75  1  0  0  0  0
 49 70  1  0  0  0  0
 50 69  1  0  0  0  0
 53 65  1  0  0  0  0
 54 66  1  0  0  0  0
 55 67  1  0  0  0  0
 56 67  1  0  0  0  0
 57 67  1  0  0  0  0
 58 78  1  0  0  0  0
 59 77  1  0  0  0  0
 60 61  1  0  0  0  0
 60 62  1  0  0  0  0
 61 63  1  0  0  0  0
 62 66  1  0  0  0  0
 63 85  1  0  0  0  0
 64 67  1  0  0  0  0
 64 76  1  0  0  0  0
 65 78  1  0  0  0  0
 66 74  1  0  0  0  0
 68 69  1  0  0  0  0
M  CHG  1  78   1
M  ISO  4  38 100  63 101  77 100  85 101
M  END
> <Batch ID>
0022

> <Smiles>
CNC(C)C(=O)NC(C(=O)N1Cc2cc([101O:1][101CH2:1]CCCC(C)Nc3cc(C)c(C[100NH:0][100C:0](=O)N4CCCC(n5nc(-c6ccc(Oc7ccc(F)cc7F)cc6)c(C(N)=O)c5N)C4)c(C)c3Cl)ccc2CC1C(=O)NC1CCCc2ccccc21)C(C)(C)C

> <Shape>
0.253

> <Color>
0.067

> <Negative vol penalty>
0.000

$$$$

  -OEChem-04052316153D

 82 90  0     1  0  0  0  0  0999 V2000
  -44.5880  -26.1198   26.6973 C   0  0  0  0  0  0  0  0  0  0  0  0
  -44.0510  -24.8679   26.4149 C   0  0  0  0  0  0  0  0  0  0  0  0
  -23.0755   -9.8682   19.9406 C   0  0  0  0  0  0  0  0  0  0  0  0
  -23.8350   -9.8748   22.2341 C   0  0  0  0  0  0  0  0  0  0  0  0
  -43.7429  -27.2107   26.8966 C   0  0  0  0  0  0  0  0  0  0  0  0
  -42.6684  -24.7060   26.3326 C   0  0  0  0  0  0  0  0  0  0  0  0
  -37.6897  -20.9023   22.8598 C   0  0  0  0  0  0  0  0  0  0  0  0
  -22.3313   -8.7152   20.1904 C   0  0  0  0  0  0  0  0  0  0  0  0
  -23.0908   -8.7218   22.4839 C   0  0  0  0  0  0  0  0  0  0  0  0
  -36.5799  -20.0967   23.1114 C   0  0  0  0  0  0  0  0  0  0  0  0
  -19.8623   -7.9248   23.0858 C   0  0  0  0  0  0  0  0  0  0  0  0
  -19.1052   -7.8850   24.2566 C   0  0  0  0  0  0  0  0  0  0  0  0
  -35.2204  -22.0690   23.3958 C   0  0  0  0  0  0  0  0  0  0  0  0
  -32.4642  -17.1241   23.9298 C   0  0  0  0  0  0  0  0  0  0  0  0
  -20.3460   -5.9471   24.9931 C   0  0  0  0  0  0  0  0  0  0  0  0
  -23.8274  -10.4480   20.9625 C   0  0  0  0  0  0  0  0  0  0  0  0
  -24.1699  -12.9731   20.8427 C   0  0  0  0  0  0  0  0  0  0  0  0
  -42.3497  -27.0641   26.8073 C   0  0  0  0  0  0  0  0  0  0  0  0
  -37.5753  -22.2996   22.8851 C   0  0  0  0  0  0  0  0  0  0  0  0
  -41.8039  -25.7957   26.5323 C   0  0  0  0  0  0  0  0  0  0  0  0
  -36.3296  -22.8900   23.1417 C   0  0  0  0  0  0  0  0  0  0  0  0
  -31.8601  -18.3508   24.2053 C   0  0  0  0  0  0  0  0  0  0  0  0
  -30.6651  -18.6969   23.5747 C   0  0  0  0  0  0  0  0  0  0  0  0
  -30.6782  -16.5896   22.3931 C   0  0  0  0  0  0  0  0  0  0  0  0
  -22.3389   -8.1420   21.4620 C   0  0  0  0  0  0  0  0  0  0  0  0
  -35.3457  -20.6801   23.3823 C   0  0  0  0  0  0  0  0  0  0  0  0
  -20.8613   -6.9758   22.8686 C   0  0  0  0  0  0  0  0  0  0  0  0
  -19.3470   -6.8962   25.2103 C   0  0  0  0  0  0  0  0  0  0  0  0
  -21.1031   -5.9870   23.8223 C   0  0  0  0  0  0  0  0  0  0  0  0
  -31.8733  -16.2435   23.0237 C   0  0  0  0  0  0  0  0  0  0  0  0
  -30.0741  -17.8163   22.6685 C   0  0  0  0  0  0  0  0  0  0  0  0
  -24.5969  -11.6387   20.7050 C   0  0  0  0  0  0  0  0  0  0  0  0
  -25.2623  -13.7223   20.4797 C   0  0  0  0  0  0  0  0  0  0  0  0
  -22.8995  -13.4892   21.2615 C   0  0  0  0  0  0  0  0  0  0  0  0
  -38.8595  -24.6241   24.6320 C   0  0  0  0  0  0  0  0  0  0  0  0
  -37.3034  -26.5368   22.5244 C   0  0  0  0  0  0  0  0  0  0  0  0
  -34.7516  -26.9115   20.2895 C   0  0  0  0  0  0  0  0  0  0  0  0
  -30.7288  -14.7664   20.6553 C   0  0  0  0  0  0  0  0  0  0  0  0
  -41.4748  -28.2626   27.0772 C   0  0  0  0  0  0  0  0  0  0  0  0
  -38.7761  -23.1544   22.5853 C   0  0  0  0  0  0  0  0  0  0  0  0
  -36.1495  -24.3852   23.1605 C   0  0  0  0  0  0  0  0  0  0  0  0
  -40.0349  -28.0849   26.6025 C   0  0  0  0  0  0  0  0  0  0  0  0
  -29.6141  -12.3531   18.2867 C   0  0  0  0  0  0  0  0  0  0  0  0
  -39.4949  -26.7248   27.0331 C   0  0  0  0  0  0  0  0  0  0  0  0
  -28.1743  -12.0619   18.7160 C   0  0  0  0  0  0  0  0  0  0  0  0
  -30.5291  -12.5816   19.4885 C   0  0  0  0  0  0  0  0  0  0  0  0
  -28.6221  -13.3064   20.8695 C   0  0  0  0  0  0  0  0  0  0  0  0
  -40.3102  -25.5852   26.4104 C   0  0  1  0  0  0  0  0  0  0  0  0
  -38.6572  -24.5689   23.1442 C   0  0  1  0  0  0  0  0  0  0  0  0
  -27.6494  -13.1335   19.6915 C   0  0  2  0  0  0  0  0  0  0  0  0
  -30.0357  -20.0200   23.8855 C   0  0  0  0  0  0  0  0  0  0  0  0
  -33.7113  -28.6005   18.7524 C   0  0  0  0  0  0  0  0  0  0  0  0
  -36.0275  -27.9286   24.9212 C   0  0  0  0  0  0  0  0  0  0  0  0
  -34.3364  -28.9143   23.3603 C   0  0  0  0  0  0  0  0  0  0  0  0
  -36.7538  -29.4659   23.0872 C   0  0  0  0  0  0  0  0  0  0  0  0
  -35.2825  -25.2405   17.9052 C   0  0  0  0  0  0  0  0  0  0  0  0
  -32.5223  -19.2844   25.1893 C   0  0  0  0  0  0  0  0  0  0  0  0
  -33.2613  -20.4255   24.4988 C   0  0  0  0  0  0  0  0  0  1  0  0
  -35.9299  -27.1598   22.4584 C   0  0  1  0  0  0  0  0  0  0  0  0
  -34.7222  -27.4714   18.8788 C   0  0  2  0  0  0  0  0  0  0  0  0
  -35.7654  -28.3390   23.4584 C   0  0  0  0  0  0  0  0  0  0  0  0
  -25.8618  -11.5426   20.2869 N   0  0  0  0  0  0  0  0  0  0  0  0
  -26.2390  -12.8260   20.1587 N   0  0  0  0  0  0  0  0  0  0  0  0
  -37.3548  -25.1784   22.8675 N   0  0  0  0  0  0  0  0  0  0  0  0
  -29.9702  -13.6125   20.3659 N   0  0  0  0  0  0  0  0  0  0  0  0
  -25.4731  -15.0537   20.4068 N   0  0  0  0  0  0  0  0  0  0  0  0
  -21.8873  -12.5802   21.5985 N   0  0  0  0  0  0  0  0  0  0  0  0
  -30.0815  -15.6916   21.4737 N   0  0  0  0  0  0  0  0  0  0  0  0
  -39.9369  -25.3949   25.0251 N   0  0  0  0  0  0  0  0  0  0  0  0
  -35.7141  -27.5255   21.0627 N   0  0  0  0  0  0  0  0  0  0  0  0
  -34.3582  -26.4035   17.9051 N   0  3  0  0  0  0  0  0  0  0  0  0
  -22.6636  -14.7198   21.3189 O   0  0  0  0  0  0  0  0  0  0  0  0
  -38.0939  -24.0137   25.3689 O   0  0  0  0  0  0  0  0  0  0  0  0
  -38.2937  -27.2282   22.2735 O   0  0  0  0  0  0  0  0  0  0  0  0
  -33.9938  -26.0213   20.6687 O   0  0  0  0  0  0  0  0  0  0  0  0
  -31.8580  -14.9349   20.1879 O   0  0  0  0  0  0  0  0  0  0  0  0
  -21.6126   -7.0171   21.7061 O   0  0  0  0  0  0  0  0  0  0  0  0
  -34.2610  -19.8962   23.6288 O   0  0  0  0  0  0  0  0  0  1  0  0
  -18.6209   -6.8590   26.3352 F   0  0  0  0  0  0  0  0  0  0  0  0
  -22.0622   -5.0732   23.6197 F   0  0  0  0  0  0  0  0  0  0  0  0
  -32.6606  -14.7358   22.7160 Cl  0  0  0  0  0  0  0  0  0  0  0  0
  -28.5873  -18.2549   21.8880 Cl  0  0  0  0  0  0  0  0  0  0  0  0
  1  2  1  0  0  0  0
  1  5  2  0  0  0  0
  2  6  2  0  0  0  0
  3  8  2  0  0  0  0
  3 16  1  0  0  0  0
  4  9  1  0  0  0  0
  4 16  2  0  0  0  0
  5 18  1  0  0  0  0
  6 20  1  0  0  0  0
  7 10  2  0  0  0  0
  7 19  1  0  0  0  0
  8 25  1  0  0  0  0
  9 25  2  0  0  0  0
 10 26  1  0  0  0  0
 11 12  2  0  0  0  0
 11 27  1  0  0  0  0
 12 28  1  0  0  0  0
 13 21  1  0  0  0  0
 13 26  2  0  0  0  0
 14 22  1  0  0  0  0
 14 30  2  0  0  0  0
 15 28  2  0  0  0  0
 15 29  1  0  0  0  0
 16 32  1  0  0  0  0
 17 32  1  0  0  0  0
 17 33  2  0  0  0  0
 17 34  1  0  0  0  0
 18 20  2  0  0  0  0
 18 39  1  0  0  0  0
 19 21  2  0  0  0  0
 19 40  1  0  0  0  0
 20 48  1  0  0  0  0
 21 41  1  0  0  0  0
 22 23  2  0  0  0  0
 22 57  1  0  0  0  0
 23 31  1  0  0  0  0
 23 51  1  0  0  0  0
 24 30  1  0  0  0  0
 24 31  2  0  0  0  0
 24 68  1  0  0  0  0
 25 77  1  0  0  0  0
 26 78  1  0  0  0  0
 27 29  2  0  0  0  0
 27 77  1  0  0  0  0
 28 79  1  0  0  0  0
 29 80  1  0  0  0  0
 30 81  1  0  0  0  0
 31 82  1  0  0  0  0
 32 62  2  0  0  0  0
 33 63  1  0  0  0  0
 33 66  1  0  0  0  0
 34 67  1  0  0  0  0
 34 72  2  0  0  0  0
 35 49  1  0  0  0  0
 35 69  1  0  0  0  0
 35 73  2  0  0  0  0
 36 59  1  0  0  0  0
 36 64  1  0  0  0  0
 36 74  2  0  0  0  0
 37 60  1  0  0  0  0
 37 70  1  0  0  0  0
 37 75  2  0  0  0  0
 38 65  1  0  0  0  0
 38 68  1  0  0  0  0
 38 76  2  0  0  0  0
 39 42  1  0  0  0  0
 40 49  1  0  0  0  0
 41 64  1  0  0  0  0
 42 44  1  0  0  0  0
 43 45  1  0  0  0  0
 43 46  1  0  0  0  0
 44 48  1  0  0  0  0
 45 50  1  0  0  0  0
 46 65  1  0  0  0  0
 47 50  1  0  0  0  0
 47 65  1  0  0  0  0
 48 69  1  0  0  0  0
 49 64  1  0  0  0  0
 50 63  1  0  0  0  0
 52 60  1  0  0  0  0
 53 61  1  0  0  0  0
 54 61  1  0  0  0  0
 55 61  1  0  0  0  0
 56 71  1  0  0  0  0
 57 58  1  0  0  0  0
 58 78  1  0  0  0  0
 59 61  1  0  0  0  0
 59 70  1  0  0  0  0
 60 71  1  0  0  0  0
 62 63  1  0  0  0  0
M  CHG  1  71   1
M  ISO  4  38 100  58 101  68 100  78 101
M  END
> <Batch ID>
0022

> <Smiles>
CNC(C)C(=O)NC(C(=O)N1Cc2cc([101O:1][101CH2:1]Cc3cc(Cl)c([100NH:0][100C:0](=O)N4CCCC(n5nc(-c6ccc(Oc7ccc(F)cc7F)cc6)c(C(N)=O)c5N)C4)c(Cl)c3C)ccc2CC1C(=O)NC1CCCc2ccccc21)C(C)(C)C

> <Shape>
0.173

> <Color>
0.200

> <Negative vol penalty>
0.000

$$$$

  -OEChem-04052316153D

 86 94  0     1  0  0  0  0  0999 V2000
  -28.1773  -33.5468   25.9636 C   0  0  0  0  0  0  0  0  0  0  0  0
  -28.3193  -32.3542   25.2615 C   0  0  0  0  0  0  0  0  0  0  0  0
  -24.3619   -8.9140   21.4767 C   0  0  0  0  0  0  0  0  0  0  0  0
  -24.2591  -10.5201   23.2786 C   0  0  0  0  0  0  0  0  0  0  0  0
  -26.9236  -33.9296   26.4388 C   0  0  0  0  0  0  0  0  0  0  0  0
  -27.2079  -31.5431   25.0351 C   0  0  0  0  0  0  0  0  0  0  0  0
  -26.9910  -29.8289   20.2749 C   0  0  0  0  0  0  0  0  0  0  0  0
  -23.9366   -7.9104   22.3470 C   0  0  0  0  0  0  0  0  0  0  0  0
  -23.8337   -9.5165   24.1489 C   0  0  0  0  0  0  0  0  0  0  0  0
  -27.8269  -28.7637   19.9431 C   0  0  0  0  0  0  0  0  0  0  0  0
  -21.0248   -6.8662   23.7123 C   0  0  0  0  0  0  0  0  0  0  0  0
  -20.0319   -5.9960   23.2625 C   0  0  0  0  0  0  0  0  0  0  0  0
  -25.9718  -27.2406   20.1841 C   0  0  0  0  0  0  0  0  0  0  0  0
  -31.2245  -18.6082   24.1310 C   0  0  0  0  0  0  0  0  0  0  0  0
  -21.5350   -4.1278   23.5591 C   0  0  0  0  0  0  0  0  0  0  0  0
  -24.5231  -10.2189   21.9425 C   0  0  0  0  0  0  0  0  0  0  0  0
  -24.1550  -12.0934   20.2518 C   0  0  0  0  0  0  0  0  0  0  0  0
  -25.7945  -33.1275   26.2097 C   0  0  0  0  0  0  0  0  0  0  0  0
  -25.6394  -29.6063   20.5750 C   0  0  0  0  0  0  0  0  0  0  0  0
  -25.9382  -31.9148   25.5089 C   0  0  0  0  0  0  0  0  0  0  0  0
  -25.1202  -28.3051   20.5169 C   0  0  0  0  0  0  0  0  0  0  0  0
  -31.0092  -18.7390   22.7591 C   0  0  0  0  0  0  0  0  0  0  0  0
  -30.3809  -16.4093   22.6357 C   0  0  0  0  0  0  0  0  0  0  0  0
  -23.6725   -8.2116   23.6831 C   0  0  0  0  0  0  0  0  0  0  0  0
  -27.3181  -27.4689   19.9004 C   0  0  0  0  0  0  0  0  0  0  0  0
  -22.2728   -6.3674   24.0855 C   0  0  0  0  0  0  0  0  0  0  0  0
  -20.2870   -4.6268   23.1859 C   0  0  0  0  0  0  0  0  0  0  0  0
  -22.5279   -4.9982   24.0089 C   0  0  0  0  0  0  0  0  0  0  0  0
  -31.0181  -17.3780   24.7552 C   0  0  0  0  0  0  0  0  0  0  0  0
  -30.5874  -17.6395   22.0114 C   0  0  0  0  0  0  0  0  0  0  0  0
  -30.5963  -16.2786   24.0076 C   0  0  0  0  0  0  0  0  0  0  0  0
  -24.9630  -11.2560   21.0441 C   0  0  0  0  0  0  0  0  0  0  0  0
  -25.0454  -12.8992   19.5853 C   0  0  0  0  0  0  0  0  0  0  0  0
  -22.7272  -12.1388   20.1292 C   0  0  0  0  0  0  0  0  0  0  0  0
  -23.8063  -30.0539   23.1330 C   0  0  0  0  0  0  0  0  0  0  0  0
  -21.4370  -29.1474   21.1113 C   0  0  0  0  0  0  0  0  0  0  0  0
  -20.5253  -27.4649   18.2855 C   0  0  0  0  0  0  0  0  0  0  0  0
  -30.6114  -14.7059   20.7940 C   0  0  0  0  0  0  0  0  0  0  0  0
  -24.4685  -33.5597   26.7838 C   0  0  0  0  0  0  0  0  0  0  0  0
  -24.7446  -30.7694   20.9050 C   0  0  0  0  0  0  0  0  0  0  0  0
  -23.6717  -28.0154   20.8107 C   0  0  0  0  0  0  0  0  0  0  0  0
  -23.2744  -32.8272   26.1772 C   0  0  0  0  0  0  0  0  0  0  0  0
  -29.5283  -12.9354   17.9010 C   0  0  0  0  0  0  0  0  0  0  0  0
  -23.5438  -31.3271   26.1149 C   0  0  0  0  0  0  0  0  0  0  0  0
  -28.1584  -12.3851   18.3045 C   0  0  0  0  0  0  0  0  0  0  0  0
  -30.5124  -12.9196   19.0694 C   0  0  0  0  0  0  0  0  0  0  0  0
  -28.6650  -13.0274   20.6957 C   0  0  0  0  0  0  0  0  0  0  0  0
  -24.7519  -31.0202   25.2217 C   0  0  1  0  0  0  0  0  0  0  0  0
  -23.5036  -30.3635   21.6942 C   0  0  1  0  0  0  0  0  0  0  0  0
  -27.6207  -13.0836   19.5688 C   0  0  2  0  0  0  0  0  0  0  0  0
  -18.5125  -26.8702   16.9100 C   0  0  0  0  0  0  0  0  0  0  0  0
  -20.6502  -27.0437   23.1766 C   0  0  0  0  0  0  0  0  0  0  0  0
  -19.3109  -25.8990   21.3978 C   0  0  0  0  0  0  0  0  0  0  0  0
  -18.7238  -28.2198   22.0994 C   0  0  0  0  0  0  0  0  0  0  0  0
  -21.5821  -28.8856   15.9140 C   0  0  0  0  0  0  0  0  0  0  0  0
  -31.2452  -20.0886   22.1292 C   0  0  0  0  0  0  0  0  0  0  0  0
  -29.9603  -20.8812   21.8631 C   0  0  0  0  0  0  0  0  0  0  0  0
  -30.2205  -22.2435   21.2105 C   0  0  0  0  0  0  0  0  0  0  0  0
  -28.9089  -22.9843   20.9371 C   0  0  0  0  0  0  0  0  0  0  0  0
  -29.1142  -24.3805   20.3486 C   0  0  0  0  0  0  0  0  0  0  0  0
  -27.8199  -25.1576   20.1492 C   0  0  0  0  0  0  0  0  0  1  0  0
  -20.8085  -27.8310   20.7228 C   0  0  1  0  0  0  0  0  0  0  0  0
  -19.6448  -27.8644   17.1152 C   0  0  2  0  0  0  0  0  0  0  0  0
  -19.9012  -27.2533   21.8455 C   0  0  0  0  0  0  0  0  0  0  0  0
  -26.2665  -11.5065   20.8957 N   0  0  0  0  0  0  0  0  0  0  0  0
  -26.2844  -12.5104   20.0025 N   0  0  0  0  0  0  0  0  0  0  0  0
  -22.8384  -29.1851   21.1346 N   0  0  0  0  0  0  0  0  0  0  0  0
  -29.9367  -13.6026   20.2300 N   0  0  0  0  0  0  0  0  0  0  0  0
  -24.8817  -13.8953   18.6890 N   0  0  0  0  0  0  0  0  0  0  0  0
  -21.9628  -11.2400   20.8857 N   0  0  0  0  0  0  0  0  0  0  0  0
  -29.9525  -15.2948   21.8727 N   0  0  0  0  0  0  0  0  0  0  0  0
  -24.3817  -31.1024   23.8251 N   0  0  0  0  0  0  0  0  0  0  0  0
  -20.1191  -28.0651   19.4585 N   0  0  0  0  0  0  0  0  0  0  0  0
  -20.4474  -27.9281   15.8612 N   0  3  0  0  0  0  0  0  0  0  0  0
  -22.1472  -12.9412   19.3590 O   0  0  0  0  0  0  0  0  0  0  0  0
  -23.5363  -28.9463   23.5823 O   0  0  0  0  0  0  0  0  0  0  0  0
  -20.7114  -30.1089   21.3771 O   0  0  0  0  0  0  0  0  0  0  0  0
  -21.4760  -26.6944   18.1713 O   0  0  0  0  0  0  0  0  0  0  0  0
  -31.6807  -15.1163   20.3354 O   0  0  0  0  0  0  0  0  0  0  0  0
  -23.2573   -7.2326   24.5326 O   0  0  0  0  0  0  0  0  0  0  0  0
  -28.1320  -26.4273   19.5774 O   0  0  0  0  0  0  0  0  0  1  0  0
  -19.3329   -3.7910   22.7554 F   0  0  0  0  0  0  0  0  0  0  0  0
  -23.7246   -4.5129   24.3671 F   0  0  0  0  0  0  0  0  0  0  0  0
  -31.3037  -17.2894   26.4590 Cl  0  0  0  0  0  0  0  0  0  0  0  0
  -30.3206  -17.8166   20.3061 Cl  0  0  0  0  0  0  0  0  0  0  0  0
  -30.3374  -14.7401   24.7743 Cl  0  0  0  0  0  0  0  0  0  0  0  0
  1  2  1  0  0  0  0
  1  5  2  0  0  0  0
  2  6  2  0  0  0  0
  3  8  2  0  0  0  0
  3 16  1  0  0  0  0
  4  9  1  0  0  0  0
  4 16  2  0  0  0  0
  5 18  1  0  0  0  0
  6 20  1  0  0  0  0
  7 10  2  0  0  0  0
  7 19  1  0  0  0  0
  8 24  1  0  0  0  0
  9 24  2  0  0  0  0
 10 25  1  0  0  0  0
 11 12  2  0  0  0  0
 11 26  1  0  0  0  0
 12 27  1  0  0  0  0
 13 21  1  0  0  0  0
 13 25  2  0  0  0  0
 14 22  1  0  0  0  0
 14 29  2  0  0  0  0
 15 27  2  0  0  0  0
 15 28  1  0  0  0  0
 16 32  1  0  0  0  0
 17 32  1  0  0  0  0
 17 33  2  0  0  0  0
 17 34  1  0  0  0  0
 18 20  2  0  0  0  0
 18 39  1  0  0  0  0
 19 21  2  0  0  0  0
 19 40  1  0  0  0  0
 20 48  1  0  0  0  0
 21 41  1  0  0  0  0
 22 30  2  0  0  0  0
 22 56  1  0  0  0  0
 23 30  1  0  0  0  0
 23 31  2  0  0  0  0
 23 71  1  0  0  0  0
 24 80  1  0  0  0  0
 25 81  1  0  0  0  0
 26 28  2  0  0  0  0
 26 80  1  0  0  0  0
 27 82  1  0  0  0  0
 28 83  1  0  0  0  0
 29 31  1  0  0  0  0
 29 84  1  0  0  0  0
 30 85  1  0  0  0  0
 31 86  1  0  0  0  0
 32 65  2  0  0  0  0
 33 66  1  0  0  0  0
 33 69  1  0  0  0  0
 34 70  1  0  0  0  0
 34 75  2  0  0  0  0
 35 49  1  0  0  0  0
 35 72  1  0  0  0  0
 35 76  2  0  0  0  0
 36 62  1  0  0  0  0
 36 67  1  0  0  0  0
 36 77  2  0  0  0  0
 37 63  1  0  0  0  0
 37 73  1  0  0  0  0
 37 78  2  0  0  0  0
 38 68  1  0  0  0  0
 38 71  1  0  0  0  0
 38 79  2  0  0  0  0
 39 42  1  0  0  0  0
 40 49  1  0  0  0  0
 41 67  1  0  0  0  0
 42 44  1  0  0  0  0
 43 45  1  0  0  0  0
 43 46  1  0  0  0  0
 44 48  1  0  0  0  0
 45 50  1  0  0  0  0
 46 68  1  0  0  0  0
 47 50  1  0  0  0  0
 47 68  1  0  0  0  0
 48 72  1  0  0  0  0
 49 67  1  0  0  0  0
 50 66  1  0  0  0  0
 51 63  1  0  0  0  0
 52 64  1  0  0  0  0
 53 64  1  0  0  0  0
 54 64  1  0  0  0  0
 55 74  1  0  0  0  0
 56 57  1  0  0  0  0
 57 58  1  0  0  0  0
 58 59  1  0  0  0  0
 59 60  1  0  0  0  0
 60 61  1  0  0  0  0
 61 81  1  0  0  0  0
 62 64  1  0  0  0  0
 62 73  1  0  0  0  0
 63 74  1  0  0  0  0
 65 66  1  0  0  0  0
M  CHG  1  74   1
M  ISO  4  38 100  61 101  71 100  81 101
M  END
> <Batch ID>
0022

> <Smiles>
CNC(C)C(=O)NC(C(=O)N1Cc2cc([101O:1][101CH2:1]CCCCCc3cc(Cl)c(Cl)c([100NH:0][100C:0](=O)N4CCCC(n5nc(-c6ccc(Oc7ccc(F)cc7F)cc6)c(C(N)=O)c5N)C4)c3Cl)ccc2CC1C(=O)NC1CCCc2ccccc21)C(C)(C)C

> <Shape>
0.356

> <Color>
0.140

> <Negative vol penalty>
0.000

$$$$

  -OEChem-04052316153D

 85 93  0     1  0  0  0  0  0999 V2000
  -19.9120  -30.6902   21.8181 C   0  0  0  0  0  0  0  0  0  0  0  0
  -21.2369  -30.2664   21.8330 C   0  0  0  0  0  0  0  0  0  0  0  0
  -25.1338  -13.3505   22.0747 C   0  0  0  0  0  0  0  0  0  0  0  0
  -26.0800  -13.0395   19.8735 C   0  0  0  0  0  0  0  0  0  0  0  0
  -18.8853  -29.7732   22.0394 C   0  0  0  0  0  0  0  0  0  0  0  0
  -21.5361  -28.9252   22.0703 C   0  0  0  0  0  0  0  0  0  0  0  0
  -25.0373  -27.1229   18.8862 C   0  0  0  0  0  0  0  0  0  0  0  0
  -23.9430  -12.7644   21.6456 C   0  0  0  0  0  0  0  0  0  0  0  0
  -24.8892  -12.4533   19.4445 C   0  0  0  0  0  0  0  0  0  0  0  0
  -26.3657  -27.4576   19.1449 C   0  0  0  0  0  0  0  0  0  0  0  0
  -21.8178  -13.4774   18.4704 C   0  0  0  0  0  0  0  0  0  0  0  0
  -21.3059  -13.8784   17.2364 C   0  0  0  0  0  0  0  0  0  0  0  0
  -26.7069  -25.2951   20.1580 C   0  0  0  0  0  0  0  0  0  0  0  0
  -31.6130  -25.3389   19.9828 C   0  0  0  0  0  0  0  0  0  0  0  0
  -21.4613  -11.6051   16.4332 C   0  0  0  0  0  0  0  0  0  0  0  0
  -26.2023  -13.4881   21.1886 C   0  0  0  0  0  0  0  0  0  0  0  0
  -28.5437  -13.4437   22.2003 C   0  0  0  0  0  0  0  0  0  0  0  0
  -19.1716  -28.4184   22.2700 C   0  0  0  0  0  0  0  0  0  0  0  0
  -24.5298  -25.8739   19.2719 C   0  0  0  0  0  0  0  0  0  0  0  0
  -20.5124  -27.9894   22.2962 C   0  0  0  0  0  0  0  0  0  0  0  0
  -25.3723  -24.9460   19.9008 C   0  0  0  0  0  0  0  0  0  0  0  0
  -30.8436  -25.9073   18.9677 C   0  0  0  0  0  0  0  0  0  0  0  0
  -31.2713  -23.1510   19.0167 C   0  0  0  0  0  0  0  0  0  0  0  0
  -23.8207  -12.3158   20.3306 C   0  0  0  0  0  0  0  0  0  0  0  0
  -27.2000  -26.5447   19.7835 C   0  0  0  0  0  0  0  0  0  0  0  0
  -22.1516  -12.1403   18.6858 C   0  0  0  0  0  0  0  0  0  0  0  0
  -21.1276  -12.9423   16.2178 C   0  0  0  0  0  0  0  0  0  0  0  0
  -21.9733  -11.2041   17.6672 C   0  0  0  0  0  0  0  0  0  0  0  0
  -31.8269  -23.9607   20.0073 C   0  0  0  0  0  0  0  0  0  0  0  0
  -30.2880  -25.0976   17.9771 C   0  0  0  0  0  0  0  0  0  0  0  0
  -30.5018  -23.7194   18.0016 C   0  0  0  0  0  0  0  0  0  0  0  0
  -27.4325  -14.0940   21.6310 C   0  0  0  0  0  0  0  0  0  0  0  0
  -29.4439  -14.4521   22.4439 C   0  0  0  0  0  0  0  0  0  0  0  0
  -28.7443  -12.0526   22.4836 C   0  0  0  0  0  0  0  0  0  0  0  0
  -22.2400  -24.8960   21.2478 C   0  0  0  0  0  0  0  0  0  0  0  0
  -22.9554  -21.9838   20.0110 C   0  0  0  0  0  0  0  0  0  0  0  0
  -25.2430  -19.9719   18.4729 C   0  0  0  0  0  0  0  0  0  0  0  0
  -30.2259  -19.7248   19.9057 C   0  0  0  0  0  0  0  0  0  0  0  0
  -18.0306  -27.4729   22.5510 C   0  0  0  0  0  0  0  0  0  0  0  0
  -23.1017  -25.5180   18.9616 C   0  0  0  0  0  0  0  0  0  0  0  0
  -24.8817  -23.5842   20.3168 C   0  0  0  0  0  0  0  0  0  0  0  0
  -18.4138  -26.0008   22.4231 C   0  0  0  0  0  0  0  0  0  0  0  0
  -29.6498  -19.1313   23.4290 C   0  0  0  0  0  0  0  0  0  0  0  0
  -19.7304  -25.7274   23.1433 C   0  0  0  0  0  0  0  0  0  0  0  0
  -29.1177  -17.6971   23.4128 C   0  0  0  0  0  0  0  0  0  0  0  0
  -29.1442  -19.9221   22.2260 C   0  0  0  0  0  0  0  0  0  0  0  0
  -28.9159  -17.8647   20.8887 C   0  0  0  0  0  0  0  0  0  0  0  0
  -20.8759  -26.5384   22.5255 C   0  0  1  0  0  0  0  0  0  0  0  0
  -22.5525  -24.4137   19.8595 C   0  0  1  0  0  0  0  0  0  0  0  0
  -29.4096  -17.0063   22.0675 C   0  0  2  0  0  0  0  0  0  0  0  0
  -25.5519  -17.6306   17.6241 C   0  0  0  0  0  0  0  0  0  0  0  0
  -31.1713  -28.1475   17.7215 C   0  0  0  0  0  0  0  0  0  0  0  0
  -31.3956  -28.0312   20.1941 C   0  0  0  0  0  0  0  0  0  0  0  0
  -23.3222  -20.9966   22.8747 C   0  0  0  0  0  0  0  0  0  0  0  0
  -24.5230  -18.9999   21.9586 C   0  0  0  0  0  0  0  0  0  0  0  0
  -22.1332  -19.3970   21.3641 C   0  0  0  0  0  0  0  0  0  0  0  0
  -25.6653  -20.9098   15.6978 C   0  0  0  0  0  0  0  0  0  0  0  0
  -31.5069  -21.6709   19.0520 C   0  0  0  0  0  0  0  0  0  0  0  0
  -29.1307  -27.7706   19.1312 C   0  0  0  0  0  0  0  0  0  1  0  0
  -23.9215  -20.8795   20.3661 C   0  0  1  0  0  0  0  0  0  0  0  0
  -25.1271  -19.0482   17.2738 C   0  0  2  0  0  0  0  0  0  0  0  0
  -30.6373  -27.4336   18.9865 C   0  0  0  0  0  0  0  0  0  0  0  0
  -23.4840  -20.0946   21.6349 C   0  0  0  0  0  0  0  0  0  0  0  0
  -27.6083  -15.4134   21.5196 N   0  0  0  0  0  0  0  0  0  0  0  0
  -28.8406  -15.6003   22.0224 N   0  0  0  0  0  0  0  0  0  0  0  0
  -23.4759  -23.2856   19.9972 N   0  0  0  0  0  0  0  0  0  0  0  0
  -29.4703  -19.2197   20.9769 N   0  0  0  0  0  0  0  0  0  0  0  0
  -30.6848  -14.4597   22.9754 N   0  0  0  0  0  0  0  0  0  0  0  0
  -27.7171  -11.1521   22.1701 N   0  0  0  0  0  0  0  0  0  0  0  0
  -21.3203  -25.9264   21.2917 N   0  0  0  0  0  0  0  0  0  0  0  0
  -24.0564  -20.0549   19.1702 N   0  0  0  0  0  0  0  0  0  0  0  0
  -30.7086  -21.0179   20.0656 N   0  0  0  0  0  0  0  0  0  0  0  0
  -25.9886  -19.5353   16.1596 N   0  3  0  0  0  0  0  0  0  0  0  0
  -29.7965  -11.6231   23.0145 O   0  0  0  0  0  0  0  0  0  0  0  0
  -22.7912  -24.3711   22.2082 O   0  0  0  0  0  0  0  0  0  0  0  0
  -21.7838  -21.7010   19.7484 O   0  0  0  0  0  0  0  0  0  0  0  0
  -26.2833  -20.5580   18.7641 O   0  0  0  0  0  0  0  0  0  0  0  0
  -30.4580  -19.0697   18.8840 O   0  0  0  0  0  0  0  0  0  0  0  0
  -22.6590  -11.7436   19.9117 O   0  0  0  0  0  0  0  0  0  0  0  0
  -28.4969  -26.8690   20.0378 O   0  0  0  0  0  0  0  0  0  1  0  0
  -20.6345  -13.3272   15.0334 F   0  0  0  0  0  0  0  0  0  0  0  0
  -22.2909   -9.9179   17.8686 F   0  0  0  0  0  0  0  0  0  0  0  0
  -32.7871  -23.3002   21.2818 Cl  0  0  0  0  0  0  0  0  0  0  0  0
  -29.3344  -25.8375   16.7289 Cl  0  0  0  0  0  0  0  0  0  0  0  0
  -29.8208  -22.6890   16.7800 Cl  0  0  0  0  0  0  0  0  0  0  0  0
  1  2  1  0  0  0  0
  1  5  2  0  0  0  0
  2  6  2  0  0  0  0
  3  8  2  0  0  0  0
  3 16  1  0  0  0  0
  4  9  1  0  0  0  0
  4 16  2  0  0  0  0
  5 18  1  0  0  0  0
  6 20  1  0  0  0  0
  7 10  2  0  0  0  0
  7 19  1  0  0  0  0
  8 24  1  0  0  0  0
  9 24  2  0  0  0  0
 10 25  1  0  0  0  0
 11 12  2  0  0  0  0
 11 26  1  0  0  0  0
 12 27  1  0  0  0  0
 13 21  1  0  0  0  0
 13 25  2  0  0  0  0
 14 22  1  0  0  0  0
 14 29  2  0  0  0  0
 15 27  2  0  0  0  0
 15 28  1  0  0  0  0
 16 32  1  0  0  0  0
 17 32  1  0  0  0  0
 17 33  2  0  0  0  0
 17 34  1  0  0  0  0
 18 20  2  0  0  0  0
 18 39  1  0  0  0  0
 19 21  2  0  0  0  0
 19 40  1  0  0  0  0
 20 48  1  0  0  0  0
 21 41  1  0  0  0  0
 22 30  2  0  0  0  0
 22 62  1  0  0  0  0
 23 29  1  0  0  0  0
 23 31  2  0  0  0  0
 23 58  1  0  0  0  0
 24 79  1  0  0  0  0
 25 80  1  0  0  0  0
 26 28  2  0  0  0  0
 26 79  1  0  0  0  0
 27 81  1  0  0  0  0
 28 82  1  0  0  0  0
 29 83  1  0  0  0  0
 30 31  1  0  0  0  0
 30 84  1  0  0  0  0
 31 85  1  0  0  0  0
 32 64  2  0  0  0  0
 33 65  1  0  0  0  0
 33 68  1  0  0  0  0
 34 69  1  0  0  0  0
 34 74  2  0  0  0  0
 35 49  1  0  0  0  0
 35 70  1  0  0  0  0
 35 75  2  0  0  0  0
 36 60  1  0  0  0  0
 36 66  1  0  0  0  0
 36 76  2  0  0  0  0
 37 61  1  0  0  0  0
 37 71  1  0  0  0  0
 37 77  2  0  0  0  0
 38 67  1  0  0  0  0
 38 72  1  0  0  0  0
 38 78  2  0  0  0  0
 39 42  1  0  0  0  0
 40 49  1  0  0  0  0
 41 66  1  0  0  0  0
 42 44  1  0  0  0  0
 43 45  1  0  0  0  0
 43 46  1  0  0  0  0
 44 48  1  0  0  0  0
 45 50  1  0  0  0  0
 46 67  1  0  0  0  0
 47 50  1  0  0  0  0
 47 67  1  0  0  0  0
 48 70  1  0  0  0  0
 49 66  1  0  0  0  0
 50 65  1  0  0  0  0
 51 61  1  0  0  0  0
 52 62  1  0  0  0  0
 53 62  1  0  0  0  0
 54 63  1  0  0  0  0
 55 63  1  0  0  0  0
 56 63  1  0  0  0  0
 57 73  1  0  0  0  0
 58 72  1  0  0  0  0
 59 62  1  0  0  0  0
 59 80  1  0  0  0  0
 60 63  1  0  0  0  0
 60 71  1  0  0  0  0
 61 73  1  0  0  0  0
 64 65  1  0  0  0  0
M  CHG  1  73   1
M  ISO  4  38 100  59 101  72 100  80 101
M  END
> <Batch ID>
0022

> <Smiles>
CNC(C)C(=O)NC(C(=O)N1Cc2cc([101O:1][101CH2:1]C(C)(C)c3cc(Cl)c(C[100NH:0][100C:0](=O)N4CCCC(n5nc(-c6ccc(Oc7ccc(F)cc7F)cc6)c(C(N)=O)c5N)C4)c(Cl)c3Cl)ccc2CC1C(=O)NC1CCCc2ccccc21)C(C)(C)C

> <Shape>
0.209

> <Color>
0.050

> <Negative vol penalty>
0.000

$$$$

  -OEChem-04052316153D

 84 92  0     1  0  0  0  0  0999 V2000
  -24.7514  -22.5763   31.9761 C   0  0  0  0  0  0  0  0  0  0  0  0
  -24.3048  -23.7379   31.3542 C   0  0  0  0  0  0  0  0  0  0  0  0
  -26.7858  -15.4490   21.8124 C   0  0  0  0  0  0  0  0  0  0  0  0
  -26.5919  -15.8861   19.4442 C   0  0  0  0  0  0  0  0  0  0  0  0
  -25.3040  -21.5475   31.2144 C   0  0  0  0  0  0  0  0  0  0  0  0
  -24.4116  -23.8717   29.9703 C   0  0  0  0  0  0  0  0  0  0  0  0
  -21.0625  -26.8333   24.3731 C   0  0  0  0  0  0  0  0  0  0  0  0
  -25.6080  -14.7029   21.7711 C   0  0  0  0  0  0  0  0  0  0  0  0
  -25.4141  -15.1400   19.4029 C   0  0  0  0  0  0  0  0  0  0  0  0
  -21.3148  -27.6679   23.2852 C   0  0  0  0  0  0  0  0  0  0  0  0
  -24.6564  -11.6011   20.8195 C   0  0  0  0  0  0  0  0  0  0  0  0
  -24.6424  -10.3746   21.4837 C   0  0  0  0  0  0  0  0  0  0  0  0
  -22.2138  -25.7927   22.0626 C   0  0  0  0  0  0  0  0  0  0  0  0
  -22.8322  -11.1525   22.8820 C   0  0  0  0  0  0  0  0  0  0  0  0
  -24.9563  -28.1805   19.3072 C   0  0  0  0  0  0  0  0  0  0  0  0
  -27.2777  -16.0407   20.6489 C   0  0  0  0  0  0  0  0  0  0  0  0
  -29.8064  -16.3412   20.4965 C   0  0  0  0  0  0  0  0  0  0  0  0
  -25.4087  -21.6648   29.8195 C   0  0  0  0  0  0  0  0  0  0  0  0
  -21.3944  -25.4719   24.3178 C   0  0  0  0  0  0  0  0  0  0  0  0
  -24.9673  -22.8440   29.1894 C   0  0  0  0  0  0  0  0  0  0  0  0
  -21.9622  -24.9424   23.1502 C   0  0  0  0  0  0  0  0  0  0  0  0
  -24.7090  -29.1067   20.3076 C   0  0  0  0  0  0  0  0  0  0  0  0
  -25.6876  -29.2940   21.2775 C   0  0  0  0  0  0  0  0  0  0  0  0
  -26.8669  -28.5597   21.2181 C   0  0  0  0  0  0  0  0  0  0  0  0
  -24.9222  -14.5484   20.5664 C   0  0  0  0  0  0  0  0  0  0  0  0
  -21.8932  -27.1483   22.1309 C   0  0  0  0  0  0  0  0  0  0  0  0
  -23.7584  -12.6033   21.1866 C   0  0  0  0  0  0  0  0  0  0  0  0
  -23.7303  -10.1503   22.5149 C   0  0  0  0  0  0  0  0  0  0  0  0
  -22.8463  -12.3790   22.2179 C   0  0  0  0  0  0  0  0  0  0  0  0
  -28.4940  -16.8120   20.6910 C   0  0  0  0  0  0  0  0  0  0  0  0
  -27.0174  -27.6578   20.1771 C   0  0  0  0  0  0  0  0  0  0  0  0
  -30.5956  -17.4565   20.6369 C   0  0  0  0  0  0  0  0  0  0  0  0
  -30.2705  -15.0144   20.2141 C   0  0  0  0  0  0  0  0  0  0  0  0
  -23.3581  -23.5741   25.9444 C   0  0  0  0  0  0  0  0  0  0  0  0
  -21.9667  -21.2524   24.1565 C   0  0  0  0  0  0  0  0  0  0  0  0
  -20.2922  -20.4024   21.3069 C   0  0  0  0  0  0  0  0  0  0  0  0
  -29.4797  -23.1944   19.8082 C   0  0  0  0  0  0  0  0  0  0  0  0
  -26.0564  -20.5454   29.0434 C   0  0  0  0  0  0  0  0  0  0  0  0
  -21.0912  -24.5794   25.4899 C   0  0  0  0  0  0  0  0  0  0  0  0
  -22.3186  -23.4837   23.0327 C   0  0  0  0  0  0  0  0  0  0  0  0
  -25.7901  -20.6118   27.5418 C   0  0  0  0  0  0  0  0  0  0  0  0
  -30.7283  -21.6950   22.8561 C   0  0  0  0  0  0  0  0  0  0  0  0
  -26.0100  -22.0292   27.0227 C   0  0  0  0  0  0  0  0  0  0  0  0
  -30.4157  -20.2166   22.6181 C   0  0  0  0  0  0  0  0  0  0  0  0
  -29.6251  -22.5900   22.2994 C   0  0  0  0  0  0  0  0  0  0  0  0
  -29.0142  -20.8977   20.6151 C   0  0  0  0  0  0  0  0  0  0  0  0
  -25.0433  -23.0164   27.6879 C   0  0  1  0  0  0  0  0  0  0  0  0
  -21.9425  -23.3137   25.5131 C   0  0  1  0  0  0  0  0  0  0  0  0
  -30.1031  -19.9417   21.1352 C   0  0  2  0  0  0  0  0  0  0  0  0
  -25.4692  -30.2821   22.3784 C   0  0  0  0  0  0  0  0  0  0  0  0
  -27.9306  -28.7453   22.2498 C   0  0  0  0  0  0  0  0  0  0  0  0
  -19.3235  -18.4223   20.1076 C   0  0  0  0  0  0  0  0  0  0  0  0
  -24.7714  -20.3899   23.3200 C   0  0  0  0  0  0  0  0  0  0  0  0
  -23.7373  -19.0889   21.4475 C   0  0  0  0  0  0  0  0  0  0  0  0
  -23.2038  -18.5047   23.8133 C   0  0  0  0  0  0  0  0  0  0  0  0
  -17.5603  -21.5367   21.3991 C   0  0  0  0  0  0  0  0  0  0  0  0
  -23.4100  -29.8753   20.3212 C   0  0  0  0  0  0  0  0  0  0  0  0
  -28.6669  -26.2791   18.9107 C   0  0  0  0  0  0  0  0  0  0  0  0
  -29.9722  -25.5357   19.1503 C   0  0  0  0  0  0  0  0  0  0  0  0
  -22.4249  -29.3308   21.3498 C   0  0  0  0  0  0  0  0  0  1  0  0
  -22.2502  -20.6224   22.8143 C   0  0  1  0  0  0  0  0  0  0  0  0
  -19.0510  -19.5579   21.0818 C   0  0  2  0  0  0  0  0  0  0  0  0
  -23.4859  -19.6794   22.8514 C   0  0  0  0  0  0  0  0  0  0  0  0
  -26.0893  -27.4486   19.2167 N   0  0  0  0  0  0  0  0  0  0  0  0
  -28.4480  -18.1242   20.9364 N   0  0  0  0  0  0  0  0  0  0  0  0
  -29.7413  -18.4874   20.8971 N   0  0  0  0  0  0  0  0  0  0  0  0
  -22.0085  -22.6529   24.2080 N   0  0  0  0  0  0  0  0  0  0  0  0
  -29.3895  -22.2907   20.8799 N   0  0  0  0  0  0  0  0  0  0  0  0
  -31.9301  -17.6462   20.5619 N   0  0  0  0  0  0  0  0  0  0  0  0
  -29.3253  -13.9856   20.1023 N   0  0  0  0  0  0  0  0  0  0  0  0
  -28.2171  -26.9058   20.1104 N   0  0  0  0  0  0  0  0  0  0  0  0
  -23.7260  -22.9088   27.0983 N   0  0  0  0  0  0  0  0  0  0  0  0
  -21.0129  -19.9700   22.4000 N   0  0  0  0  0  0  0  0  0  0  0  0
  -29.8336  -24.4952   20.1448 N   0  0  0  0  0  0  0  0  0  0  0  0
  -17.9478  -20.3950   20.5312 N   0  3  0  0  0  0  0  0  0  0  0  0
  -31.4887  -14.7460   20.0815 O   0  0  0  0  0  0  0  0  0  0  0  0
  -24.0646  -24.3219   25.2787 O   0  0  0  0  0  0  0  0  0  0  0  0
  -21.7103  -20.5289   25.1221 O   0  0  0  0  0  0  0  0  0  0  0  0
  -20.5944  -21.3486   20.5830 O   0  0  0  0  0  0  0  0  0  0  0  0
  -29.2658  -22.8651   18.6365 O   0  0  0  0  0  0  0  0  0  0  0  0
  -23.7730  -13.8202   20.5257 O   0  0  0  0  0  0  0  0  0  0  0  0
  -22.1412  -27.9610   21.0679 O   0  0  0  0  0  0  0  0  0  1  0  0
  -23.7159   -8.9719   23.1516 F   0  0  0  0  0  0  0  0  0  0  0  0
  -21.9803  -13.3377   22.5742 F   0  0  0  0  0  0  0  0  0  0  0  0
  1  2  1  0  0  0  0
  1  5  2  0  0  0  0
  2  6  2  0  0  0  0
  3  8  2  0  0  0  0
  3 16  1  0  0  0  0
  4  9  1  0  0  0  0
  4 16  2  0  0  0  0
  5 18  1  0  0  0  0
  6 20  1  0  0  0  0
  7 10  2  0  0  0  0
  7 19  1  0  0  0  0
  8 25  1  0  0  0  0
  9 25  2  0  0  0  0
 10 26  1  0  0  0  0
 11 12  2  0  0  0  0
 11 27  1  0  0  0  0
 12 28  1  0  0  0  0
 13 21  1  0  0  0  0
 13 26  2  0  0  0  0
 14 28  2  0  0  0  0
 14 29  1  0  0  0  0
 15 22  1  0  0  0  0
 15 64  2  0  0  0  0
 16 30  1  0  0  0  0
 17 30  1  0  0  0  0
 17 32  2  0  0  0  0
 17 33  1  0  0  0  0
 18 20  2  0  0  0  0
 18 38  1  0  0  0  0
 19 21  2  0  0  0  0
 19 39  1  0  0  0  0
 20 47  1  0  0  0  0
 21 40  1  0  0  0  0
 22 23  2  0  0  0  0
 22 57  1  0  0  0  0
 23 24  1  0  0  0  0
 23 50  1  0  0  0  0
 24 31  2  0  0  0  0
 24 51  1  0  0  0  0
 25 81  1  0  0  0  0
 26 82  1  0  0  0  0
 27 29  2  0  0  0  0
 27 81  1  0  0  0  0
 28 83  1  0  0  0  0
 29 84  1  0  0  0  0
 30 65  2  0  0  0  0
 31 64  1  0  0  0  0
 31 71  1  0  0  0  0
 32 66  1  0  0  0  0
 32 69  1  0  0  0  0
 33 70  1  0  0  0  0
 33 76  2  0  0  0  0
 34 48  1  0  0  0  0
 34 72  1  0  0  0  0
 34 77  2  0  0  0  0
 35 61  1  0  0  0  0
 35 67  1  0  0  0  0
 35 78  2  0  0  0  0
 36 62  1  0  0  0  0
 36 73  1  0  0  0  0
 36 79  2  0  0  0  0
 37 68  1  0  0  0  0
 37 74  1  0  0  0  0
 37 80  2  0  0  0  0
 38 41  1  0  0  0  0
 39 48  1  0  0  0  0
 40 67  1  0  0  0  0
 41 43  1  0  0  0  0
 42 44  1  0  0  0  0
 42 45  1  0  0  0  0
 43 47  1  0  0  0  0
 44 49  1  0  0  0  0
 45 68  1  0  0  0  0
 46 49  1  0  0  0  0
 46 68  1  0  0  0  0
 47 72  1  0  0  0  0
 48 67  1  0  0  0  0
 49 66  1  0  0  0  0
 52 62  1  0  0  0  0
 53 63  1  0  0  0  0
 54 63  1  0  0  0  0
 55 63  1  0  0  0  0
 56 75  1  0  0  0  0
 57 60  1  0  0  0  0
 58 59  1  0  0  0  0
 58 71  1  0  0  0  0
 59 74  1  0  0  0  0
 60 82  1  0  0  0  0
 61 63  1  0  0  0  0
 61 73  1  0  0  0  0
 62 75  1  0  0  0  0
 65 66  1  0  0  0  0
M  CHG  1  75   1
M  ISO  4  37 100  60 101  74 100  82 101
M  END
> <Batch ID>
0022

> <Smiles>
CNC(C)C(=O)NC(C(=O)N1Cc2cc([101O:1][101CH2:1]Cc3cnc(NCC[100NH:0][100C:0](=O)N4CCCC(n5nc(-c6ccc(Oc7ccc(F)cc7F)cc6)c(C(N)=O)c5N)C4)c(C)c3C)ccc2CC1C(=O)NC1CCCc2ccccc21)C(C)(C)C

> <Shape>
0.224

> <Color>
0.055

> <Negative vol penalty>
0.000

$$$$

  -OEChem-04052316153D

 86 94  0     1  0  0  0  0  0999 V2000
  -35.2277  -29.4703   14.5122 C   0  0  0  0  0  0  0  0  0  0  0  0
  -35.5877  -28.3715   15.2859 C   0  0  0  0  0  0  0  0  0  0  0  0
  -23.1038   -9.8091   19.9009 C   0  0  0  0  0  0  0  0  0  0  0  0
  -23.8782   -9.7742   22.1892 C   0  0  0  0  0  0  0  0  0  0  0  0
  -34.3125  -30.3991   15.0058 C   0  0  0  0  0  0  0  0  0  0  0  0
  -35.0336  -28.2016   16.5541 C   0  0  0  0  0  0  0  0  0  0  0  0
  -33.6172  -22.8997   19.2726 C   0  0  0  0  0  0  0  0  0  0  0  0
  -22.3902   -8.6317   20.1244 C   0  0  0  0  0  0  0  0  0  0  0  0
  -23.1645   -8.5968   22.4127 C   0  0  0  0  0  0  0  0  0  0  0  0
  -34.2864  -22.1212   20.2160 C   0  0  0  0  0  0  0  0  0  0  0  0
  -19.9610   -7.7035   23.0127 C   0  0  0  0  0  0  0  0  0  0  0  0
  -19.2128   -7.6138   24.1865 C   0  0  0  0  0  0  0  0  0  0  0  0
  -33.0001  -23.1571   21.9743 C   0  0  0  0  0  0  0  0  0  0  0  0
  -32.3329  -17.1987   24.0248 C   0  0  0  0  0  0  0  0  0  0  0  0
  -30.4908  -18.7307   23.7147 C   0  0  0  0  0  0  0  0  0  0  0  0
  -20.5064   -5.6889   24.8638 C   0  0  0  0  0  0  0  0  0  0  0  0
  -23.8478  -10.3804   20.9333 C   0  0  0  0  0  0  0  0  0  0  0  0
  -24.1266  -12.9155   20.8786 C   0  0  0  0  0  0  0  0  0  0  0  0
  -33.7395  -30.2353   16.2768 C   0  0  0  0  0  0  0  0  0  0  0  0
  -32.6406  -23.8222   19.6746 C   0  0  0  0  0  0  0  0  0  0  0  0
  -34.1109  -29.1298   17.0657 C   0  0  0  0  0  0  0  0  0  0  0  0
  -32.3182  -23.9443   21.0338 C   0  0  0  0  0  0  0  0  0  0  0  0
  -31.6981  -18.4023   24.3312 C   0  0  0  0  0  0  0  0  0  0  0  0
  -30.5530  -16.6518   22.4853 C   0  0  0  0  0  0  0  0  0  0  0  0
  -22.4205   -8.0255   21.3803 C   0  0  0  0  0  0  0  0  0  0  0  0
  -33.9799  -22.2519   21.5673 C   0  0  0  0  0  0  0  0  0  0  0  0
  -20.9817   -6.7858   22.7643 C   0  0  0  0  0  0  0  0  0  0  0  0
  -19.4855   -6.6066   25.1121 C   0  0  0  0  0  0  0  0  0  0  0  0
  -21.2544   -5.7786   23.6899 C   0  0  0  0  0  0  0  0  0  0  0  0
  -31.7603  -16.3234   23.1018 C   0  0  0  0  0  0  0  0  0  0  0  0
  -29.9182  -17.8555   22.7917 C   0  0  0  0  0  0  0  0  0  0  0  0
  -24.5856  -11.5964   20.7029 C   0  0  0  0  0  0  0  0  0  0  0  0
  -25.1975  -13.7012   20.5290 C   0  0  0  0  0  0  0  0  0  0  0  0
  -22.8465  -13.3884   21.3185 C   0  0  0  0  0  0  0  0  0  0  0  0
  -32.3197  -26.9784   19.4773 C   0  0  0  0  0  0  0  0  0  0  0  0
  -29.3759  -26.3641   20.6936 C   0  0  0  0  0  0  0  0  0  0  0  0
  -27.3594  -24.2718   22.4831 C   0  0  0  0  0  0  0  0  0  0  0  0
  -30.6373  -14.8770   20.6995 C   0  0  0  0  0  0  0  0  0  0  0  0
  -32.7906  -31.2908   16.7868 C   0  0  0  0  0  0  0  0  0  0  0  0
  -31.9090  -24.6353   18.6422 C   0  0  0  0  0  0  0  0  0  0  0  0
  -31.2634  -24.9055   21.5154 C   0  0  0  0  0  0  0  0  0  0  0  0
  -31.9655  -30.8386   17.9889 C   0  0  0  0  0  0  0  0  0  0  0  0
  -29.5673  -12.4998   18.2744 C   0  0  0  0  0  0  0  0  0  0  0  0
  -32.8563  -30.1542   19.0208 C   0  0  0  0  0  0  0  0  0  0  0  0
  -28.1381  -12.1614   18.7044 C   0  0  0  0  0  0  0  0  0  0  0  0
  -30.4843  -12.7194   19.4763 C   0  0  0  0  0  0  0  0  0  0  0  0
  -28.5691  -13.3595   20.8875 C   0  0  0  0  0  0  0  0  0  0  0  0
  -33.5128  -28.8977   18.4363 C   0  0  1  0  0  0  0  0  0  0  0  0
  -31.2960  -25.9113   19.2111 C   0  0  1  0  0  0  0  0  0  0  0  0
  -27.5932  -13.1934   19.7112 C   0  0  2  0  0  0  0  0  0  0  0  0
  -31.1797  -18.4585   27.9442 C   0  0  0  0  0  0  0  0  0  0  0  0
  -25.0116  -24.0566   23.3427 C   0  0  0  0  0  0  0  0  0  0  0  0
  -29.9942  -28.3964   22.8839 C   0  0  0  0  0  0  0  0  0  0  0  0
  -28.0809  -27.4580   24.1980 C   0  0  0  0  0  0  0  0  0  0  0  0
  -27.6665  -28.5156   21.9771 C   0  0  0  0  0  0  0  0  0  0  0  0
  -26.8955  -21.7934   20.9334 C   0  0  0  0  0  0  0  0  0  0  0  0
  -30.4591  -19.3611   26.9528 C   0  0  0  0  0  0  0  0  0  0  0  0
  -34.3972  -19.7960   24.1700 C   0  0  0  0  0  0  0  0  0  0  0  0
  -31.4183  -20.1508   26.0704 C   0  0  0  0  0  0  0  0  0  0  0  0
  -33.7024  -19.3468   25.4498 C   0  0  0  0  0  0  0  0  0  0  0  0
  -33.9145  -21.1548   23.6763 C   0  0  0  0  0  0  0  0  0  1  0  0
  -28.7944  -26.2553   22.0825 C   0  0  1  0  0  0  0  0  0  0  0  0
  -25.9678  -23.7325   22.2054 C   0  0  2  0  0  0  0  0  0  0  0  0
  -28.6553  -27.6395   22.7768 C   0  0  0  0  0  0  0  0  0  0  0  0
  -25.8497  -11.5430   20.2748 N   0  0  0  0  0  0  0  0  0  0  0  0
  -26.1941  -12.8385   20.1785 N   0  0  0  0  0  0  0  0  0  0  0  0
  -30.5804  -25.6829   20.4681 N   0  0  0  0  0  0  0  0  0  0  0  0
  -29.9059  -13.7124   20.3841 N   0  0  0  0  0  0  0  0  0  0  0  0
  -25.3746  -15.0389   20.4902 N   0  0  0  0  0  0  0  0  0  0  0  0
  -21.8595  -12.4458   21.6374 N   0  0  0  0  0  0  0  0  0  0  0  0
  -29.9727  -15.7637   21.5460 N   0  0  0  0  0  0  0  0  0  0  0  0
  -32.5655  -27.8042   18.3970 N   0  0  0  0  0  0  0  0  0  0  0  0
  -27.5376  -25.5278   21.9430 N   0  0  0  0  0  0  0  0  0  0  0  0
  -32.2735  -19.2821   25.2593 N   0  0  3  0  0  0  0  0  0  0  0  0
  -26.0103  -22.2527   22.0345 N   0  3  0  0  0  0  0  0  0  0  0  0
  -22.5804  -14.6108   21.4100 O   0  0  0  0  0  0  0  0  0  0  0  0
  -32.8464  -27.0483   20.5816 O   0  0  0  0  0  0  0  0  0  0  0  0
  -28.7796  -27.0232   19.8383 O   0  0  0  0  0  0  0  0  0  0  0  0
  -28.2027  -23.6433   23.1190 O   0  0  0  0  0  0  0  0  0  0  0  0
  -31.7589  -15.0860   20.2300 O   0  0  0  0  0  0  0  0  0  0  0  0
  -21.7241   -6.8767   21.5989 O   0  0  0  0  0  0  0  0  0  0  0  0
  -34.6320  -21.4937   22.4902 O   0  0  0  0  0  0  0  0  0  1  0  0
  -18.7681   -6.5215   26.2400 F   0  0  0  0  0  0  0  0  0  0  0  0
  -22.2346   -4.8948   23.4574 F   0  0  0  0  0  0  0  0  0  0  0  0
  -32.5849  -14.8440   22.7560 Cl  0  0  0  0  0  0  0  0  0  0  0  0
  -28.4198  -18.3051   22.0563 Cl  0  0  0  0  0  0  0  0  0  0  0  0
  1  2  1  0  0  0  0
  1  5  2  0  0  0  0
  2  6  2  0  0  0  0
  3  8  2  0  0  0  0
  3 17  1  0  0  0  0
  4  9  1  0  0  0  0
  4 17  2  0  0  0  0
  5 19  1  0  0  0  0
  6 21  1  0  0  0  0
  7 10  2  0  0  0  0
  7 20  1  0  0  0  0
  8 25  1  0  0  0  0
  9 25  2  0  0  0  0
 10 26  1  0  0  0  0
 11 12  2  0  0  0  0
 11 27  1  0  0  0  0
 12 28  1  0  0  0  0
 13 22  1  0  0  0  0
 13 26  2  0  0  0  0
 14 23  1  0  0  0  0
 14 30  2  0  0  0  0
 15 23  2  0  0  0  0
 15 31  1  0  0  0  0
 16 28  2  0  0  0  0
 16 29  1  0  0  0  0
 17 32  1  0  0  0  0
 18 32  1  0  0  0  0
 18 33  2  0  0  0  0
 18 34  1  0  0  0  0
 19 21  2  0  0  0  0
 19 39  1  0  0  0  0
 20 22  2  0  0  0  0
 20 40  1  0  0  0  0
 21 48  1  0  0  0  0
 22 41  1  0  0  0  0
 23 74  1  0  0  0  0
 24 30  1  0  0  0  0
 24 31  2  0  0  0  0
 24 71  1  0  0  0  0
 25 81  1  0  0  0  0
 26 82  1  0  0  0  0
 27 29  2  0  0  0  0
 27 81  1  0  0  0  0
 28 83  1  0  0  0  0
 29 84  1  0  0  0  0
 30 85  1  0  0  0  0
 31 86  1  0  0  0  0
 32 65  2  0  0  0  0
 33 66  1  0  0  0  0
 33 69  1  0  0  0  0
 34 70  1  0  0  0  0
 34 76  2  0  0  0  0
 35 49  1  0  0  0  0
 35 72  1  0  0  0  0
 35 77  2  0  0  0  0
 36 62  1  0  0  0  0
 36 67  1  0  0  0  0
 36 78  2  0  0  0  0
 37 63  1  0  0  0  0
 37 73  1  0  0  0  0
 37 79  2  0  0  0  0
 38 68  1  0  0  0  0
 38 71  1  0  0  0  0
 38 80  2  0  0  0  0
 39 42  1  0  0  0  0
 40 49  1  0  0  0  0
 41 67  1  0  0  0  0
 42 44  1  0  0  0  0
 43 45  1  0  0  0  0
 43 46  1  0  0  0  0
 44 48  1  0  0  0  0
 45 50  1  0  0  0  0
 46 68  1  0  0  0  0
 47 50  1  0  0  0  0
 47 68  1  0  0  0  0
 48 72  1  0  0  0  0
 49 67  1  0  0  0  0
 50 66  1  0  0  0  0
 51 57  1  0  0  0  0
 52 63  1  0  0  0  0
 53 64  1  0  0  0  0
 54 64  1  0  0  0  0
 55 64  1  0  0  0  0
 56 75  1  0  0  0  0
 57 59  1  0  0  0  0
 58 60  1  0  0  0  0
 58 61  1  0  0  0  0
 59 74  1  0  0  0  0
 60 74  1  0  0  0  0
 61 82  1  0  0  0  0
 62 64  1  0  0  0  0
 62 73  1  0  0  0  0
 63 75  1  0  0  0  0
 65 66  1  0  0  0  0
M  CHG  1  75   1
M  ISO  4  38 100  61 101  71 100  82 101
M  END
> <Batch ID>
0022

> <Smiles>
CCCN(CC[101CH2:1][101O:1]c1ccc2c(c1)CN(C(=O)C(NC(=O)C(C)NC)C(C)(C)C)C(C(=O)NC1CCCc3ccccc31)C2)c1cc(Cl)c([100NH:0][100C:0](=O)N2CCCC(n3nc(-c4ccc(Oc5ccc(F)cc5F)cc4)c(C(N)=O)c3N)C2)c(Cl)c1

> <Shape>
0.222

> <Color>
0.212

> <Negative vol penalty>
0.000

$$$$

  -OEChem-04052316153D

 82 90  0     1  0  0  0  0  0999 V2000
  -36.2663  -31.6066   17.3128 C   0  0  0  0  0  0  0  0  0  0  0  0
  -36.0431  -30.9219   18.5031 C   0  0  0  0  0  0  0  0  0  0  0  0
  -23.0755   -9.8505   19.9370 C   0  0  0  0  0  0  0  0  0  0  0  0
  -23.8353   -9.8575   22.2304 C   0  0  0  0  0  0  0  0  0  0  0  0
  -35.3998  -31.4294   16.2350 C   0  0  0  0  0  0  0  0  0  0  0  0
  -34.9525  -30.0604   18.6165 C   0  0  0  0  0  0  0  0  0  0  0  0
  -32.9629  -23.9628   21.8068 C   0  0  0  0  0  0  0  0  0  0  0  0
  -22.3358   -8.6944   20.1855 C   0  0  0  0  0  0  0  0  0  0  0  0
  -23.0955   -8.7013   22.4789 C   0  0  0  0  0  0  0  0  0  0  0  0
  -31.9445  -23.4493   22.6086 C   0  0  0  0  0  0  0  0  0  0  0  0
  -19.8703   -7.8911   23.0804 C   0  0  0  0  0  0  0  0  0  0  0  0
  -19.1135   -7.8470   24.2512 C   0  0  0  0  0  0  0  0  0  0  0  0
  -30.5596  -23.1611   20.6546 C   0  0  0  0  0  0  0  0  0  0  0  0
  -31.5241  -19.3717   22.7216 C   0  0  0  0  0  0  0  0  0  0  0  0
  -20.3619   -5.9131   24.9853 C   0  0  0  0  0  0  0  0  0  0  0  0
  -23.8253  -10.4321   20.9594 C   0  0  0  0  0  0  0  0  0  0  0  0
  -24.1579  -12.9586   20.8424 C   0  0  0  0  0  0  0  0  0  0  0  0
  -34.3035  -30.5580   16.3321 C   0  0  0  0  0  0  0  0  0  0  0  0
  -32.7829  -24.0897   20.4219 C   0  0  0  0  0  0  0  0  0  0  0  0
  -34.0697  -29.8725   17.5395 C   0  0  0  0  0  0  0  0  0  0  0  0
  -31.5782  -23.6741   19.8371 C   0  0  0  0  0  0  0  0  0  0  0  0
  -30.2585  -18.9733   23.1373 C   0  0  0  0  0  0  0  0  0  0  0  0
  -22.3458   -8.1198   21.4565 C   0  0  0  0  0  0  0  0  0  0  0  0
  -30.7415  -23.0510   22.0329 C   0  0  0  0  0  0  0  0  0  0  0  0
  -20.8729   -6.9462   22.8620 C   0  0  0  0  0  0  0  0  0  0  0  0
  -19.3593   -6.8580   25.2037 C   0  0  0  0  0  0  0  0  0  0  0  0
  -21.1187   -5.9572   23.8144 C   0  0  0  0  0  0  0  0  0  0  0  0
  -29.7533  -17.7441   22.7283 C   0  0  0  0  0  0  0  0  0  0  0  0
  -24.5900  -11.6261   20.7031 C   0  0  0  0  0  0  0  0  0  0  0  0
  -32.2387  -18.5113   21.9037 C   0  0  0  0  0  0  0  0  0  0  0  0
  -30.5472  -16.9567   21.9100 C   0  0  0  0  0  0  0  0  0  0  0  0
  -25.2473  -13.7125   20.4801 C   0  0  0  0  0  0  0  0  0  0  0  0
  -22.8855  -13.4693   21.2620 C   0  0  0  0  0  0  0  0  0  0  0  0
  -32.7525  -26.5235   18.3776 C   0  0  0  0  0  0  0  0  0  0  0  0
  -32.5436  -24.1578   16.1680 C   0  0  0  0  0  0  0  0  0  0  0  0
  -31.6596  -20.9429   15.4403 C   0  0  0  0  0  0  0  0  0  0  0  0
  -30.7097  -14.7777   20.6563 C   0  0  0  0  0  0  0  0  0  0  0  0
  -33.3674  -30.4351   15.1559 C   0  0  0  0  0  0  0  0  0  0  0  0
  -33.9011  -24.6207   19.5674 C   0  0  0  0  0  0  0  0  0  0  0  0
  -31.3425  -23.7708   18.3527 C   0  0  0  0  0  0  0  0  0  0  0  0
  -32.4493  -29.2180   15.2328 C   0  0  0  0  0  0  0  0  0  0  0  0
  -29.6041  -12.3628   18.2850 C   0  0  0  0  0  0  0  0  0  0  0  0
  -31.8309  -29.1027   16.6225 C   0  0  0  0  0  0  0  0  0  0  0  0
  -28.1655  -12.0654   18.7142 C   0  0  0  0  0  0  0  0  0  0  0  0
  -30.5184  -12.5934   19.4870 C   0  0  0  0  0  0  0  0  0  0  0  0
  -28.6088  -13.3093   20.8691 C   0  0  0  0  0  0  0  0  0  0  0  0
  -32.9118  -28.9103   17.6931 C   0  0  1  0  0  0  0  0  0  0  0  0
  -33.4186  -25.1843   18.2344 C   0  0  1  0  0  0  0  0  0  0  0  0
  -27.6366  -13.1339   19.6910 C   0  0  2  0  0  0  0  0  0  0  0  0
  -33.6005  -18.9067   21.4380 C   0  0  0  0  0  0  0  0  0  0  0  0
  -31.5706  -19.3064   13.5400 C   0  0  0  0  0  0  0  0  0  0  0  0
  -30.0779  -25.5768   15.0648 C   0  0  0  0  0  0  0  0  0  0  0  0
  -29.4991  -23.4705   13.8413 C   0  0  0  0  0  0  0  0  0  0  0  0
  -31.6252  -24.6679   13.3229 C   0  0  0  0  0  0  0  0  0  0  0  0
  -33.5157  -19.0830   16.8023 C   0  0  0  0  0  0  0  0  0  0  0  0
  -29.4728  -19.9029   24.0274 C   0  0  0  0  0  0  0  0  0  0  0  0
  -28.3565  -20.6552   23.2996 C   0  0  0  0  0  0  0  0  0  0  0  0
  -28.8696  -21.5955   22.2152 C   0  0  0  0  0  0  0  0  0  1  0  0
  -31.4115  -23.4104   15.5058 C   0  0  1  0  0  0  0  0  0  0  0  0
  -32.3946  -19.8386   14.7021 C   0  0  2  0  0  0  0  0  0  0  0  0
  -30.6569  -24.2813   14.4619 C   0  0  0  0  0  0  0  0  0  0  0  0
  -25.8552  -11.5353   20.2848 N   0  0  0  0  0  0  0  0  0  0  0  0
  -31.7813  -17.3098   21.4857 N   0  0  0  0  0  0  0  0  0  0  0  0
  -26.2275  -12.8204   20.1580 N   0  0  0  0  0  0  0  0  0  0  0  0
  -32.4637  -24.3023   17.5603 N   0  0  0  0  0  0  0  0  0  0  0  0
  -29.9556  -13.6212   20.3656 N   0  0  0  0  0  0  0  0  0  0  0  0
  -25.4529  -15.0448   20.4087 N   0  0  0  0  0  0  0  0  0  0  0  0
  -21.8769  -12.5560   21.5981 N   0  0  0  0  0  0  0  0  0  0  0  0
  -30.0589  -15.6994   21.4758 N   0  0  0  0  0  0  0  0  0  0  0  0
  -33.3858  -27.5430   17.6926 N   0  0  0  0  0  0  0  0  0  0  0  0
  -31.9936  -22.1903   14.9571 N   0  0  0  0  0  0  0  0  0  0  0  0
  -32.6912  -18.7068   15.6251 N   0  3  0  0  0  0  0  0  0  0  0  0
  -22.6448  -14.6990   21.3208 O   0  0  0  0  0  0  0  0  0  0  0  0
  -31.7381  -26.6242   19.0577 O   0  0  0  0  0  0  0  0  0  0  0  0
  -33.4685  -24.5911   15.4763 O   0  0  0  0  0  0  0  0  0  0  0  0
  -30.8657  -20.7208   16.3519 O   0  0  0  0  0  0  0  0  0  0  0  0
  -31.8382  -14.9511   20.1889 O   0  0  0  0  0  0  0  0  0  0  0  0
  -21.6239   -6.9918   21.6994 O   0  0  0  0  0  0  0  0  0  0  0  0
  -29.7456  -22.5500   22.8133 O   0  0  0  0  0  0  0  0  0  1  0  0
  -18.6334   -6.8167   26.3287 F   0  0  0  0  0  0  0  0  0  0  0  0
  -22.0813   -5.0475   23.6107 F   0  0  0  0  0  0  0  0  0  0  0  0
  -28.1829  -17.2303   23.2365 Cl  0  0  0  0  0  0  0  0  0  0  0  0
  1  2  1  0  0  0  0
  1  5  2  0  0  0  0
  2  6  2  0  0  0  0
  3  8  2  0  0  0  0
  3 16  1  0  0  0  0
  4  9  1  0  0  0  0
  4 16  2  0  0  0  0
  5 18  1  0  0  0  0
  6 20  1  0  0  0  0
  7 10  2  0  0  0  0
  7 19  1  0  0  0  0
  8 23  1  0  0  0  0
  9 23  2  0  0  0  0
 10 24  1  0  0  0  0
 11 12  2  0  0  0  0
 11 25  1  0  0  0  0
 12 26  1  0  0  0  0
 13 21  1  0  0  0  0
 13 24  2  0  0  0  0
 14 22  1  0  0  0  0
 14 30  2  0  0  0  0
 15 26  2  0  0  0  0
 15 27  1  0  0  0  0
 16 29  1  0  0  0  0
 17 29  1  0  0  0  0
 17 32  2  0  0  0  0
 17 33  1  0  0  0  0
 18 20  2  0  0  0  0
 18 38  1  0  0  0  0
 19 21  2  0  0  0  0
 19 39  1  0  0  0  0
 20 47  1  0  0  0  0
 21 40  1  0  0  0  0
 22 28  2  0  0  0  0
 22 56  1  0  0  0  0
 23 78  1  0  0  0  0
 24 79  1  0  0  0  0
 25 27  2  0  0  0  0
 25 78  1  0  0  0  0
 26 80  1  0  0  0  0
 27 81  1  0  0  0  0
 28 31  1  0  0  0  0
 28 82  1  0  0  0  0
 29 62  2  0  0  0  0
 30 50  1  0  0  0  0
 30 63  1  0  0  0  0
 31 63  2  0  0  0  0
 31 69  1  0  0  0  0
 32 64  1  0  0  0  0
 32 67  1  0  0  0  0
 33 68  1  0  0  0  0
 33 73  2  0  0  0  0
 34 48  1  0  0  0  0
 34 70  1  0  0  0  0
 34 74  2  0  0  0  0
 35 59  1  0  0  0  0
 35 65  1  0  0  0  0
 35 75  2  0  0  0  0
 36 60  1  0  0  0  0
 36 71  1  0  0  0  0
 36 76  2  0  0  0  0
 37 66  1  0  0  0  0
 37 69  1  0  0  0  0
 37 77  2  0  0  0  0
 38 41  1  0  0  0  0
 39 48  1  0  0  0  0
 40 65  1  0  0  0  0
 41 43  1  0  0  0  0
 42 44  1  0  0  0  0
 42 45  1  0  0  0  0
 43 47  1  0  0  0  0
 44 49  1  0  0  0  0
 45 66  1  0  0  0  0
 46 49  1  0  0  0  0
 46 66  1  0  0  0  0
 47 70  1  0  0  0  0
 48 65  1  0  0  0  0
 49 64  1  0  0  0  0
 51 60  1  0  0  0  0
 52 61  1  0  0  0  0
 53 61  1  0  0  0  0
 54 61  1  0  0  0  0
 55 72  1  0  0  0  0
 56 57  1  0  0  0  0
 57 58  1  0  0  0  0
 58 79  1  0  0  0  0
 59 61  1  0  0  0  0
 59 71  1  0  0  0  0
 60 72  1  0  0  0  0
 62 64  1  0  0  0  0
M  CHG  1  72   1
M  ISO  4  37 100  58 101  69 100  79 101
M  END
> <Batch ID>
0022

> <Smiles>
CNC(C)C(=O)NC(C(=O)N1Cc2cc([101O:1][101CH2:1]CCc3cc(C)nc([100NH:0][100C:0](=O)N4CCCC(n5nc(-c6ccc(Oc7ccc(F)cc7F)cc6)c(C(N)=O)c5N)C4)c3Cl)ccc2CC1C(=O)NC1CCCc2ccccc21)C(C)(C)C

> <Shape>
0.202

> <Color>
0.197

> <Negative vol penalty>
0.000

$$$$

  -OEChem-04052316153D

 82 90  0     1  0  0  0  0  0999 V2000
  -29.1976  -11.5296   37.8820 C   0  0  0  0  0  0  0  0  0  0  0  0
  -29.6975  -11.4586   36.5856 C   0  0  0  0  0  0  0  0  0  0  0  0
  -23.2885   -9.8001   19.9134 C   0  0  0  0  0  0  0  0  0  0  0  0
  -23.7425   -9.9401   22.2823 C   0  0  0  0  0  0  0  0  0  0  0  0
  -27.9648  -10.9531   38.1851 C   0  0  0  0  0  0  0  0  0  0  0  0
  -28.9653  -10.8100   35.5918 C   0  0  0  0  0  0  0  0  0  0  0  0
  -28.8213  -13.4314   31.2614 C   0  0  0  0  0  0  0  0  0  0  0  0
  -22.5632   -8.6271   20.1217 C   0  0  0  0  0  0  0  0  0  0  0  0
  -23.0171   -8.7670   22.4906 C   0  0  0  0  0  0  0  0  0  0  0  0
  -29.9535  -13.3821   30.4493 C   0  0  0  0  0  0  0  0  0  0  0  0
  -20.9814   -6.0051   23.6931 C   0  0  0  0  0  0  0  0  0  0  0  0
  -20.0813   -5.9788   24.7583 C   0  0  0  0  0  0  0  0  0  0  0  0
  -28.8754  -11.7338   29.0565 C   0  0  0  0  0  0  0  0  0  0  0  0
  -32.8288  -14.6916   25.1478 C   0  0  0  0  0  0  0  0  0  0  0  0
  -18.8693   -7.8256   23.7797 C   0  0  0  0  0  0  0  0  0  0  0  0
  -23.8783  -10.4566   20.9937 C   0  0  0  0  0  0  0  0  0  0  0  0
  -24.1358  -12.9869   20.7958 C   0  0  0  0  0  0  0  0  0  0  0  0
  -27.2127  -10.3055   37.1923 C   0  0  0  0  0  0  0  0  0  0  0  0
  -27.7099  -12.6228   30.9829 C   0  0  0  0  0  0  0  0  0  0  0  0
  -27.7219  -10.2231   35.8822 C   0  0  0  0  0  0  0  0  0  0  0  0
  -27.7293  -11.7766   29.8651 C   0  0  0  0  0  0  0  0  0  0  0  0
  -32.9986  -13.7052   26.1192 C   0  0  0  0  0  0  0  0  0  0  0  0
  -32.0618  -14.4282   24.0129 C   0  0  0  0  0  0  0  0  0  0  0  0
  -32.4014  -12.4553   25.9558 C   0  0  0  0  0  0  0  0  0  0  0  0
  -31.6344  -12.1918   24.8209 C   0  0  0  0  0  0  0  0  0  0  0  0
  -31.4646  -13.1782   23.8494 C   0  0  0  0  0  0  0  0  0  0  0  0
  -22.4274   -8.1105   21.4103 C   0  0  0  0  0  0  0  0  0  0  0  0
  -29.9818  -12.5311   29.3484 C   0  0  0  0  0  0  0  0  0  0  0  0
  -20.8255   -6.9417   22.6712 C   0  0  0  0  0  0  0  0  0  0  0  0
  -19.0252   -6.8891   24.8016 C   0  0  0  0  0  0  0  0  0  0  0  0
  -19.7694   -7.8519   22.7145 C   0  0  0  0  0  0  0  0  0  0  0  0
  -24.6282  -11.6681   20.7792 C   0  0  0  0  0  0  0  0  0  0  0  0
  -25.2364  -13.7675   20.5396 C   0  0  0  0  0  0  0  0  0  0  0  0
  -22.8028  -13.4636   21.0227 C   0  0  0  0  0  0  0  0  0  0  0  0
  -26.1878  -10.2948   32.5215 C   0  0  0  0  0  0  0  0  0  0  0  0
  -24.1141  -10.5402   30.0392 C   0  0  0  0  0  0  0  0  0  0  0  0
  -23.5692  -11.4662   26.8000 C   0  0  0  0  0  0  0  0  0  0  0  0
  -31.0984  -12.9565   21.3669 C   0  0  0  0  0  0  0  0  0  0  0  0
  -25.9073   -9.6562   37.5783 C   0  0  0  0  0  0  0  0  0  0  0  0
  -26.4860  -12.7074   31.8532 C   0  0  0  0  0  0  0  0  0  0  0  0
  -26.5544  -10.9032   29.5112 C   0  0  0  0  0  0  0  0  0  0  0  0
  -25.0209   -9.3133   36.3837 C   0  0  0  0  0  0  0  0  0  0  0  0
  -29.4602  -13.6612   18.2852 C   0  0  0  0  0  0  0  0  0  0  0  0
  -25.8371   -8.6276   35.2927 C   0  0  0  0  0  0  0  0  0  0  0  0
  -27.9895  -13.3559   18.5783 C   0  0  0  0  0  0  0  0  0  0  0  0
  -30.3950  -12.6863   18.9989 C   0  0  0  0  0  0  0  0  0  0  0  0
  -28.7045  -12.2564   20.7387 C   0  0  0  0  0  0  0  0  0  0  0  0
  -26.9458   -9.5497   34.7712 C   0  0  1  0  0  0  0  0  0  0  0  0
  -25.6087  -11.4619   31.7730 C   0  0  1  0  0  0  0  0  0  0  0  0
  -27.7267  -13.2520   20.0935 C   0  0  2  0  0  0  0  0  0  0  0  0
  -33.8235  -14.0137   27.3257 C   0  0  0  0  0  0  0  0  0  0  0  0
  -31.8973  -15.5058   22.9904 C   0  0  0  0  0  0  0  0  0  0  0  0
  -30.9959  -10.8486   24.6503 C   0  0  0  0  0  0  0  0  0  0  0  0
  -21.7834  -11.5097   25.0374 C   0  0  0  0  0  0  0  0  0  0  0  0
  -24.4684   -7.5402   29.6096 C   0  0  0  0  0  0  0  0  0  0  0  0
  -23.4588   -7.8172   27.3353 C   0  0  0  0  0  0  0  0  0  0  0  0
  -22.1175   -8.3582   29.3678 C   0  0  0  0  0  0  0  0  0  0  0  0
  -23.6857  -14.4160   26.5902 C   0  0  0  0  0  0  0  0  0  0  0  0
  -32.5873  -11.3901   27.0090 C   0  0  0  0  0  0  0  0  0  0  0  0
  -31.3625  -11.2405   27.9048 C   0  0  0  0  0  0  0  0  0  1  0  0
  -23.9974   -9.9010   28.6765 C   0  0  1  0  0  0  0  0  0  0  0  0
  -22.4615  -12.2821   26.1583 C   0  0  2  0  0  0  0  0  0  0  0  0
  -23.5336   -8.4190   28.7548 C   0  0  0  0  0  0  0  0  0  0  0  0
  -25.9394  -11.6104   20.5318 N   0  0  0  0  0  0  0  0  0  0  0  0
  -26.2804  -12.9026   20.3905 N   0  0  0  0  0  0  0  0  0  0  0  0
  -25.3834  -11.0169   30.3963 N   0  0  0  0  0  0  0  0  0  0  0  0
  -30.0902  -12.6436   20.4308 N   0  0  0  0  0  0  0  0  0  0  0  0
  -25.4034  -15.1026   20.4295 N   0  0  0  0  0  0  0  0  0  0  0  0
  -21.7911  -12.5259   21.2712 N   0  0  0  0  0  0  0  0  0  0  0  0
  -30.6831  -12.9141   22.6974 N   0  0  0  0  0  0  0  0  0  0  0  0
  -26.3979  -10.5368   33.8657 N   0  0  0  0  0  0  0  0  0  0  0  0
  -23.1160  -10.7625   27.8958 N   0  0  0  0  0  0  0  0  0  0  0  0
  -23.0108  -13.5465   25.5924 N   0  3  0  0  0  0  0  0  0  0  0  0
  -22.5141  -14.6838   20.9893 O   0  0  0  0  0  0  0  0  0  0  0  0
  -26.4250   -9.2515   31.9241 O   0  0  0  0  0  0  0  0  0  0  0  0
  -23.1144  -10.6201   30.7573 O   0  0  0  0  0  0  0  0  0  0  0  0
  -24.7204  -11.4514   26.3698 O   0  0  0  0  0  0  0  0  0  0  0  0
  -32.2386  -13.2676   21.0130 O   0  0  0  0  0  0  0  0  0  0  0  0
  -21.7195   -6.9660   21.6139 O   0  0  0  0  0  0  0  0  0  0  0  0
  -31.0859  -12.4806   28.5545 O   0  0  0  0  0  0  0  0  0  1  0  0
  -18.1600   -6.8627   25.8238 F   0  0  0  0  0  0  0  0  0  0  0  0
  -19.6138   -8.7532   21.7351 F   0  0  0  0  0  0  0  0  0  0  0  0
  1  2  1  0  0  0  0
  1  5  2  0  0  0  0
  2  6  2  0  0  0  0
  3  8  2  0  0  0  0
  3 16  1  0  0  0  0
  4  9  1  0  0  0  0
  4 16  2  0  0  0  0
  5 18  1  0  0  0  0
  6 20  1  0  0  0  0
  7 10  2  0  0  0  0
  7 19  1  0  0  0  0
  8 27  1  0  0  0  0
  9 27  2  0  0  0  0
 10 28  1  0  0  0  0
 11 12  2  0  0  0  0
 11 29  1  0  0  0  0
 12 30  1  0  0  0  0
 13 21  1  0  0  0  0
 13 28  2  0  0  0  0
 14 22  2  0  0  0  0
 14 23  1  0  0  0  0
 15 30  2  0  0  0  0
 15 31  1  0  0  0  0
 16 32  1  0  0  0  0
 17 32  1  0  0  0  0
 17 33  2  0  0  0  0
 17 34  1  0  0  0  0
 18 20  2  0  0  0  0
 18 39  1  0  0  0  0
 19 21  2  0  0  0  0
 19 40  1  0  0  0  0
 20 48  1  0  0  0  0
 21 41  1  0  0  0  0
 22 24  1  0  0  0  0
 22 51  1  0  0  0  0
 23 26  2  0  0  0  0
 23 52  1  0  0  0  0
 24 25  2  0  0  0  0
 24 59  1  0  0  0  0
 25 26  1  0  0  0  0
 25 53  1  0  0  0  0
 26 70  1  0  0  0  0
 27 79  1  0  0  0  0
 28 80  1  0  0  0  0
 29 31  2  0  0  0  0
 29 79  1  0  0  0  0
 30 81  1  0  0  0  0
 31 82  1  0  0  0  0
 32 64  2  0  0  0  0
 33 65  1  0  0  0  0
 33 68  1  0  0  0  0
 34 69  1  0  0  0  0
 34 74  2  0  0  0  0
 35 49  1  0  0  0  0
 35 71  1  0  0  0  0
 35 75  2  0  0  0  0
 36 61  1  0  0  0  0
 36 66  1  0  0  0  0
 36 76  2  0  0  0  0
 37 62  1  0  0  0  0
 37 72  1  0  0  0  0
 37 77  2  0  0  0  0
 38 67  1  0  0  0  0
 38 70  1  0  0  0  0
 38 78  2  0  0  0  0
 39 42  1  0  0  0  0
 40 49  1  0  0  0  0
 41 66  1  0  0  0  0
 42 44  1  0  0  0  0
 43 45  1  0  0  0  0
 43 46  1  0  0  0  0
 44 48  1  0  0  0  0
 45 50  1  0  0  0  0
 46 67  1  0  0  0  0
 47 50  1  0  0  0  0
 47 67  1  0  0  0  0
 48 71  1  0  0  0  0
 49 66  1  0  0  0  0
 50 65  1  0  0  0  0
 54 62  1  0  0  0  0
 55 63  1  0  0  0  0
 56 63  1  0  0  0  0
 57 63  1  0  0  0  0
 58 73  1  0  0  0  0
 59 60  1  0  0  0  0
 60 80  1  0  0  0  0
 61 63  1  0  0  0  0
 61 72  1  0  0  0  0
 62 73  1  0  0  0  0
 64 65  1  0  0  0  0
M  CHG  1  73   1
M  ISO  4  38 100  60 101  70 100  80 101
M  END
> <Batch ID>
0022

> <Smiles>
CNC(C)C(=O)NC(C(=O)N1Cc2cc([101O:1][101CH2:1]Cc3c(C)cc(C)c([100NH:0][100C:0](=O)N4CCCC(n5nc(-c6ccc(Oc7ccc(F)cc7F)cc6)c(C(N)=O)c5N)C4)c3C)ccc2CC1C(=O)NC1CCCc2ccccc21)C(C)(C)C

> <Shape>
0.132

> <Color>
0.182

> <Negative vol penalty>
0.000

$$$$

  -OEChem-04052316153D

 90 98  0     1  0  0  0  0  0999 V2000
  -20.8641  -18.3095   20.5051 C   0  0  0  0  0  0  0  0  0  0  0  0
  -20.8427  -19.4806   21.2540 C   0  0  0  0  0  0  0  0  0  0  0  0
  -23.2875   -9.8028   19.9085 C   0  0  0  0  0  0  0  0  0  0  0  0
  -23.7414   -9.9350   22.2778 C   0  0  0  0  0  0  0  0  0  0  0  0
  -21.8650  -18.1116   19.5563 C   0  0  0  0  0  0  0  0  0  0  0  0
  -21.8151  -20.4594   21.0460 C   0  0  0  0  0  0  0  0  0  0  0  0
  -21.2372  -24.7256   23.4270 C   0  0  0  0  0  0  0  0  0  0  0  0
  -22.5615   -8.6295   20.1130 C   0  0  0  0  0  0  0  0  0  0  0  0
  -23.0153   -8.7617   22.4823 C   0  0  0  0  0  0  0  0  0  0  0  0
  -21.4313  -24.8539   24.8016 C   0  0  0  0  0  0  0  0  0  0  0  0
  -19.7686   -7.8496   22.7007 C   0  0  0  0  0  0  0  0  0  0  0  0
  -18.8677   -7.8241   23.7652 C   0  0  0  0  0  0  0  0  0  0  0  0
  -23.5637  -25.9063   24.3962 C   0  0  0  0  0  0  0  0  0  0  0  0
  -25.4794  -24.8224   28.4208 C   0  0  0  0  0  0  0  0  0  0  0  0
  -27.0513  -23.1228   27.7299 C   0  0  0  0  0  0  0  0  0  0  0  0
  -20.0748   -5.9734   24.7425 C   0  0  0  0  0  0  0  0  0  0  0  0
  -23.8775  -10.4555   20.9909 C   0  0  0  0  0  0  0  0  0  0  0  0
  -24.1365  -12.9862   20.8010 C   0  0  0  0  0  0  0  0  0  0  0  0
  -22.8570  -19.0835   19.3460 C   0  0  0  0  0  0  0  0  0  0  0  0
  -22.2114  -25.1776   22.5254 C   0  0  0  0  0  0  0  0  0  0  0  0
  -22.8196  -20.2888   20.0762 C   0  0  0  0  0  0  0  0  0  0  0  0
  -23.3784  -25.7849   23.0106 C   0  0  0  0  0  0  0  0  0  0  0  0
  -26.7833  -24.4385   28.1077 C   0  0  0  0  0  0  0  0  0  0  0  0
  -24.4435  -23.8905   28.3564 C   0  0  0  0  0  0  0  0  0  0  0  0
  -26.0154  -22.1909   27.6653 C   0  0  0  0  0  0  0  0  0  0  0  0
  -22.4254   -8.1089   21.3999 C   0  0  0  0  0  0  0  0  0  0  0  0
  -22.5959  -25.4417   25.2865 C   0  0  0  0  0  0  0  0  0  0  0  0
  -20.8227   -6.9370   22.6570 C   0  0  0  0  0  0  0  0  0  0  0  0
  -19.0208   -6.8860   24.7861 C   0  0  0  0  0  0  0  0  0  0  0  0
  -20.9758   -5.9990   23.6779 C   0  0  0  0  0  0  0  0  0  0  0  0
  -24.7114  -22.5748   27.9786 C   0  0  0  0  0  0  0  0  0  0  0  0
  -24.6281  -11.6673   20.7802 C   0  0  0  0  0  0  0  0  0  0  0  0
  -25.2376  -13.7671   20.5473 C   0  0  0  0  0  0  0  0  0  0  0  0
  -22.8037  -13.4629   21.0292 C   0  0  0  0  0  0  0  0  0  0  0  0
  -24.0359  -23.7995   20.3172 C   0  0  0  0  0  0  0  0  0  0  0  0
  -24.8799  -26.8623   19.6620 C   0  0  0  0  0  0  0  0  0  0  0  0
  -25.1729  -30.0831   20.7516 C   0  0  0  0  0  0  0  0  0  0  0  0
  -31.1097  -12.9216   21.3562 C   0  0  0  0  0  0  0  0  0  0  0  0
  -23.9124  -18.8211   18.3007 C   0  0  0  0  0  0  0  0  0  0  0  0
  -21.9750  -25.0561   21.0449 C   0  0  0  0  0  0  0  0  0  0  0  0
  -24.4459  -26.3049   22.0840 C   0  0  0  0  0  0  0  0  0  0  0  0
  -25.1433  -19.7069   18.4632 C   0  0  0  0  0  0  0  0  0  0  0  0
  -29.4567  -13.6718   18.2933 C   0  0  0  0  0  0  0  0  0  0  0  0
  -24.7210  -21.1603   18.6175 C   0  0  0  0  0  0  0  0  0  0  0  0
  -27.9874  -13.3622   18.5852 C   0  0  0  0  0  0  0  0  0  0  0  0
  -30.3910  -12.6900   18.9969 C   0  0  0  0  0  0  0  0  0  0  0  0
  -28.7067  -12.2543   20.7425 C   0  0  0  0  0  0  0  0  0  0  0  0
  -23.8847  -21.3540   19.8888 C   0  0  1  0  0  0  0  0  0  0  0  0
  -23.2640  -25.0857   20.2295 C   0  0  1  0  0  0  0  0  0  0  0  0
  -27.7278  -13.2517   20.0997 C   0  0  2  0  0  0  0  0  0  0  0  0
  -27.8913  -25.4345   28.1773 C   0  0  0  0  0  0  0  0  0  0  0  0
  -25.9293  -32.3553   20.0017 C   0  0  0  0  0  0  0  0  0  0  0  0
  -27.7882  -25.9980   19.9851 C   0  0  0  0  0  0  0  0  0  0  0  0
  -28.4128  -28.4152   20.1734 C   0  0  0  0  0  0  0  0  0  0  0  0
  -27.3695  -27.5581   18.0758 C   0  0  0  0  0  0  0  0  0  0  0  0
  -22.4751  -31.2368   21.1391 C   0  0  0  0  0  0  0  0  0  0  0  0
  -23.0622  -24.3473   28.7006 C   0  0  0  0  0  0  0  0  0  0  0  0
  -29.0091  -17.0203   25.6150 C   0  0  0  0  0  0  0  0  0  0  0  0
  -30.3778  -16.5369   25.1297 C   0  0  0  0  0  0  0  0  0  0  0  0
  -29.0155  -18.4711   26.1068 C   0  0  0  0  0  0  0  0  0  0  0  0
  -30.3207  -15.0747   24.6797 C   0  0  0  0  0  0  0  0  0  0  0  0
  -27.6288  -18.9786   26.5172 C   0  0  0  0  0  0  0  0  0  0  0  0
  -31.6823  -14.5983   24.1650 C   0  0  0  0  0  0  0  0  0  0  0  0
  -27.6463  -20.4424   26.9524 C   0  0  0  0  0  0  0  0  0  0  0  0
  -31.6747  -13.1268   23.7641 C   0  0  0  0  0  0  0  0  0  0  0  0
  -22.1888  -24.5815   27.4660 C   0  0  0  0  0  0  0  0  0  1  0  0
  -25.9515  -27.8047   20.1544 C   0  0  1  0  0  0  0  0  0  0  0  0
  -24.7521  -31.4005   20.1255 C   0  0  2  0  0  0  0  0  0  0  0  0
  -27.3615  -27.4325   19.6150 C   0  0  0  0  0  0  0  0  0  0  0  0
  -25.9394  -11.6096   20.5327 N   0  0  0  0  0  0  0  0  0  0  0  0
  -26.2811  -12.9021   20.3956 N   0  0  0  0  0  0  0  0  0  0  0  0
  -24.1713  -26.1573   20.6452 N   0  0  0  0  0  0  0  0  0  0  0  0
  -30.0936  -12.6334   20.4302 N   0  0  0  0  0  0  0  0  0  0  0  0
  -25.4053  -15.1024   20.4414 N   0  0  0  0  0  0  0  0  0  0  0  0
  -21.7915  -12.5251   21.2747 N   0  0  0  0  0  0  0  0  0  0  0  0
  -26.3163  -20.8920   27.2865 N   0  0  0  0  0  0  0  0  0  0  0  0
  -23.3311  -22.6902   19.8906 N   0  0  0  0  0  0  0  0  0  0  0  0
  -25.5100  -29.1481   19.7959 N   0  0  0  0  0  0  0  0  0  0  0  0
  -30.7418  -12.8513   22.6943 N   0  0  0  0  0  0  0  0  0  0  0  0
  -23.7009  -32.0555   20.9543 N   0  3  0  0  0  0  0  0  0  0  0  0
  -22.5157  -14.6835   20.9996 O   0  0  0  0  0  0  0  0  0  0  0  0
  -25.1863  -23.8129   20.7392 O   0  0  0  0  0  0  0  0  0  0  0  0
  -24.6740  -26.7610   18.4499 O   0  0  0  0  0  0  0  0  0  0  0  0
  -25.2033  -29.9028   21.9670 O   0  0  0  0  0  0  0  0  0  0  0  0
  -32.2582  -13.2247   21.0157 O   0  0  0  0  0  0  0  0  0  0  0  0
  -21.7168   -6.9642   21.5999 O   0  0  0  0  0  0  0  0  0  0  0  0
  -22.7895  -25.5684   26.6372 O   0  0  0  0  0  0  0  0  0  1  0  0
  -18.1564   -6.8626   25.8091 F   0  0  0  0  0  0  0  0  0  0  0  0
  -21.9871   -5.1205   23.6420 F   0  0  0  0  0  0  0  0  0  0  0  0
  -23.4201  -21.4210   27.9002 Cl  0  0  0  0  0  0  0  0  0  0  0  0
  1  2  1  0  0  0  0
  1  5  2  0  0  0  0
  2  6  2  0  0  0  0
  3  8  2  0  0  0  0
  3 17  1  0  0  0  0
  4  9  1  0  0  0  0
  4 17  2  0  0  0  0
  5 19  1  0  0  0  0
  6 21  1  0  0  0  0
  7 10  2  0  0  0  0
  7 20  1  0  0  0  0
  8 26  1  0  0  0  0
  9 26  2  0  0  0  0
 10 27  1  0  0  0  0
 11 12  2  0  0  0  0
 11 28  1  0  0  0  0
 12 29  1  0  0  0  0
 13 22  1  0  0  0  0
 13 27  2  0  0  0  0
 14 23  2  0  0  0  0
 14 24  1  0  0  0  0
 15 23  1  0  0  0  0
 15 25  2  0  0  0  0
 16 29  2  0  0  0  0
 16 30  1  0  0  0  0
 17 32  1  0  0  0  0
 18 32  1  0  0  0  0
 18 33  2  0  0  0  0
 18 34  1  0  0  0  0
 19 21  2  0  0  0  0
 19 39  1  0  0  0  0
 20 22  2  0  0  0  0
 20 40  1  0  0  0  0
 21 48  1  0  0  0  0
 22 41  1  0  0  0  0
 23 51  1  0  0  0  0
 24 31  2  0  0  0  0
 24 57  1  0  0  0  0
 25 31  1  0  0  0  0
 25 76  1  0  0  0  0
 26 86  1  0  0  0  0
 27 87  1  0  0  0  0
 28 30  2  0  0  0  0
 28 86  1  0  0  0  0
 29 88  1  0  0  0  0
 30 89  1  0  0  0  0
 31 90  1  0  0  0  0
 32 70  2  0  0  0  0
 33 71  1  0  0  0  0
 33 74  1  0  0  0  0
 34 75  1  0  0  0  0
 34 81  2  0  0  0  0
 35 49  1  0  0  0  0
 35 77  1  0  0  0  0
 35 82  2  0  0  0  0
 36 67  1  0  0  0  0
 36 72  1  0  0  0  0
 36 83  2  0  0  0  0
 37 68  1  0  0  0  0
 37 78  1  0  0  0  0
 37 84  2  0  0  0  0
 38 73  1  0  0  0  0
 38 79  1  0  0  0  0
 38 85  2  0  0  0  0
 39 42  1  0  0  0  0
 40 49  1  0  0  0  0
 41 72  1  0  0  0  0
 42 44  1  0  0  0  0
 43 45  1  0  0  0  0
 43 46  1  0  0  0  0
 44 48  1  0  0  0  0
 45 50  1  0  0  0  0
 46 73  1  0  0  0  0
 47 50  1  0  0  0  0
 47 73  1  0  0  0  0
 48 77  1  0  0  0  0
 49 72  1  0  0  0  0
 50 71  1  0  0  0  0
 52 68  1  0  0  0  0
 53 69  1  0  0  0  0
 54 69  1  0  0  0  0
 55 69  1  0  0  0  0
 56 80  1  0  0  0  0
 57 66  1  0  0  0  0
 58 59  1  0  0  0  0
 58 60  1  0  0  0  0
 59 61  1  0  0  0  0
 60 62  1  0  0  0  0
 61 63  1  0  0  0  0
 62 64  1  0  0  0  0
 63 65  1  0  0  0  0
 64 76  1  0  0  0  0
 65 79  1  0  0  0  0
 66 87  1  0  0  0  0
 67 69  1  0  0  0  0
 67 78  1  0  0  0  0
 68 80  1  0  0  0  0
 70 71  1  0  0  0  0
M  CHG  1  80   1
M  ISO  4  38 100  66 101  79 100  87 101
M  END
> <Batch ID>
0022

> <Smiles>
CNC(C)C(=O)NC(C(=O)N1Cc2cc([101O:1][101CH2:1]Cc3cc(C)cc(NCCCCCCCC[100NH:0][100C:0](=O)N4CCCC(n5nc(-c6ccc(Oc7ccc(F)cc7F)cc6)c(C(N)=O)c5N)C4)c3Cl)ccc2CC1C(=O)NC1CCCc2ccccc21)C(C)(C)C

> <Shape>
0.202

> <Color>
0.170

> <Negative vol penalty>
0.000

$$$$

  -OEChem-04052316153D

 86 94  0     1  0  0  0  0  0999 V2000
  -22.4870  -11.8474   18.8542 C   0  0  0  0  0  0  0  0  0  0  0  0
  -22.2740  -13.2222   18.8536 C   0  0  0  0  0  0  0  0  0  0  0  0
  -28.9728  -30.2447   22.0521 C   0  0  0  0  0  0  0  0  0  0  0  0
  -27.2602  -30.2525   20.3481 C   0  0  0  0  0  0  0  0  0  0  0  0
  -23.5917  -11.3146   19.5173 C   0  0  0  0  0  0  0  0  0  0  0  0
  -23.1651  -14.0650   19.5169 C   0  0  0  0  0  0  0  0  0  0  0  0
  -24.3819  -18.1477   16.7791 C   0  0  0  0  0  0  0  0  0  0  0  0
  -29.8471  -29.6091   21.1705 C   0  0  0  0  0  0  0  0  0  0  0  0
  -28.1345  -29.6169   19.4664 C   0  0  0  0  0  0  0  0  0  0  0  0
  -23.4495  -19.1832   16.7312 C   0  0  0  0  0  0  0  0  0  0  0  0
  -29.7961  -27.6734   16.8835 C   0  0  0  0  0  0  0  0  0  0  0  0
  -29.3004  -26.6047   16.1366 C   0  0  0  0  0  0  0  0  0  0  0  0
  -24.7078  -20.3854   18.4017 C   0  0  0  0  0  0  0  0  0  0  0  0
  -28.7908  -25.4153   18.1769 C   0  0  0  0  0  0  0  0  0  0  0  0
  -27.6793  -30.5664   21.6409 C   0  0  0  0  0  0  0  0  0  0  0  0
  -26.6051  -32.6085   22.7287 C   0  0  0  0  0  0  0  0  0  0  0  0
  -24.5021  -12.1521   20.1810 C   0  0  0  0  0  0  0  0  0  0  0  0
  -25.4802  -18.2185   17.6482 C   0  0  0  0  0  0  0  0  0  0  0  0
  -24.2823  -13.5428   20.1907 C   0  0  0  0  0  0  0  0  0  0  0  0
  -25.6540  -19.3507   18.4570 C   0  0  0  0  0  0  0  0  0  0  0  0
  -19.2107  -27.4139   23.6902 C   0  0  0  0  0  0  0  0  0  0  0  0
  -19.7154  -28.7228   23.4928 C   0  0  0  0  0  0  0  0  0  0  0  0
  -29.4280  -29.2952   19.8777 C   0  0  0  0  0  0  0  0  0  0  0  0
  -23.6108  -20.3009   17.5446 C   0  0  0  0  0  0  0  0  0  0  0  0
  -29.7892  -27.6131   18.2770 C   0  0  0  0  0  0  0  0  0  0  0  0
  -28.7978  -25.4756   16.7833 C   0  0  0  0  0  0  0  0  0  0  0  0
  -29.2865  -26.4840   18.9237 C   0  0  0  0  0  0  0  0  0  0  0  0
  -26.7755  -31.2224   22.5513 C   0  0  0  0  0  0  0  0  0  0  0  0
  -18.1589  -27.2426   22.8174 C   0  0  0  0  0  0  0  0  0  0  0  0
  -18.9565  -29.3117   22.5055 C   0  0  0  0  0  0  0  0  0  0  0  0
  -25.6389  -32.7143   23.6991 C   0  0  0  0  0  0  0  0  0  0  0  0
  -27.2614  -33.7027   22.0746 C   0  0  0  0  0  0  0  0  0  0  0  0
  -26.5038  -16.4944   20.1146 C   0  0  0  0  0  0  0  0  0  0  0  0
  -29.0726  -18.4663   19.9265 C   0  0  0  0  0  0  0  0  0  0  0  0
  -30.3513  -21.4723   18.9388 C   0  0  0  0  0  0  0  0  0  0  0  0
  -21.2238  -29.1005   25.4748 C   0  0  0  0  0  0  0  0  0  0  0  0
  -25.6557  -11.5261   20.9238 C   0  0  0  0  0  0  0  0  0  0  0  0
  -26.4914  -17.1052   17.6686 C   0  0  0  0  0  0  0  0  0  0  0  0
  -26.8268  -19.4844   19.3924 C   0  0  0  0  0  0  0  0  0  0  0  0
  -26.7574  -12.5188   21.2860 C   0  0  0  0  0  0  0  0  0  0  0  0
  -23.8659  -30.3828   27.4879 C   0  0  0  0  0  0  0  0  0  0  0  0
  -26.1575  -13.7871   21.8846 C   0  0  0  0  0  0  0  0  0  0  0  0
  -24.8937  -30.8753   26.4665 C   0  0  0  0  0  0  0  0  0  0  0  0
  -23.1692  -29.1059   27.0209 C   0  0  0  0  0  0  0  0  0  0  0  0
  -23.5960  -29.6728   24.6618 C   0  0  0  0  0  0  0  0  0  0  0  0
  -25.2400  -14.4917   20.8780 C   0  0  1  0  0  0  0  0  0  0  0  0
  -27.2945  -17.0512   18.9646 C   0  0  1  0  0  0  0  0  0  0  0  0
  -24.2775  -30.9926   25.0586 C   0  0  2  0  0  0  0  0  0  0  0  0
  -19.7169  -26.4134   24.6530 C   0  0  0  0  0  0  0  0  0  0  0  0
  -19.0462  -30.6622   21.9084 C   0  0  0  0  0  0  0  0  0  0  0  0
  -32.4734  -22.8116   18.9556 C   0  0  0  0  0  0  0  0  0  0  0  0
  -28.6517  -19.0914   22.8832 C   0  0  0  0  0  0  0  0  0  0  0  0
  -30.1400  -21.0849   22.6020 C   0  0  0  0  0  0  0  0  0  0  0  0
  -31.0417  -18.7923   22.2101 C   0  0  0  0  0  0  0  0  0  0  0  0
  -17.0153  -28.6327   21.0790 C   0  0  0  0  0  0  0  0  0  0  0  0
  -30.4475  -21.5736   15.9825 C   0  0  0  0  0  0  0  0  0  0  0  0
  -17.2624  -26.0501   22.5979 C   0  0  0  0  0  0  0  0  0  0  0  0
  -17.5897  -25.2538   21.3296 C   0  0  0  0  0  0  0  0  0  0  0  0
  -19.0193  -24.7032   21.3198 C   0  0  0  0  0  0  0  0  0  0  0  0
  -19.3115  -23.9429   20.0234 C   0  0  0  0  0  0  0  0  0  0  0  0
  -20.7498  -23.4210   20.0004 C   0  0  0  0  0  0  0  0  0  0  0  0
  -21.0715  -22.5821   18.7585 C   0  0  0  0  0  0  0  0  0  0  0  0
  -22.5023  -22.0596   18.6997 C   0  0  0  0  0  0  0  0  0  1  0  0
  -29.4433  -19.7995   20.5299 C   0  0  1  0  0  0  0  0  0  0  0  0
  -31.6147  -21.8278   18.1761 C   0  0  2  0  0  0  0  0  0  0  0  0
  -29.7959  -19.6889   22.0402 C   0  0  0  0  0  0  0  0  0  0  0  0
  -25.9814  -30.4995   23.3455 N   0  0  0  0  0  0  0  0  0  0  0  0
  -18.0133  -28.4027   22.1025 N   0  0  0  0  0  0  0  0  0  0  0  0
  -25.3027  -31.4349   24.0313 N   0  0  0  0  0  0  0  0  0  0  0  0
  -27.7849  -18.3667   19.3808 N   0  0  0  0  0  0  0  0  0  0  0  0
  -22.6062  -29.2930   25.6820 N   0  0  0  0  0  0  0  0  0  0  0  0
  -25.0526  -33.7759   24.2922 N   0  0  0  0  0  0  0  0  0  0  0  0
  -28.2290  -33.4163   21.1019 N   0  0  0  0  0  0  0  0  0  0  0  0
  -20.7980  -29.3386   24.1684 N   0  0  0  0  0  0  0  0  0  0  0  0
  -26.0238  -15.2163   19.9008 N   0  0  0  0  0  0  0  0  0  0  0  0
  -30.5185  -20.3369   19.7031 N   0  0  0  0  0  0  0  0  0  0  0  0
  -31.2713  -22.4421   16.8624 N   0  3  0  0  0  0  0  0  0  0  0  0
  -27.0095  -34.8988   22.3565 O   0  0  0  0  0  0  0  0  0  0  0  0
  -26.3425  -17.1734   21.1219 O   0  0  0  0  0  0  0  0  0  0  0  0
  -29.8977  -17.5493   19.9325 O   0  0  0  0  0  0  0  0  0  0  0  0
  -29.3203  -22.1375   18.8668 O   0  0  0  0  0  0  0  0  0  0  0  0
  -20.4686  -28.7767   26.3950 O   0  0  0  0  0  0  0  0  0  0  0  0
  -30.2809  -28.6752   19.0171 O   0  0  0  0  0  0  0  0  0  0  0  0
  -22.7019  -21.3127   17.5002 O   0  0  0  0  0  0  0  0  0  1  0  0
  -28.3204  -24.4501   16.0661 F   0  0  0  0  0  0  0  0  0  0  0  0
  -29.2762  -26.4207   20.2623 F   0  0  0  0  0  0  0  0  0  0  0  0
  1  2  1  0  0  0  0
  1  5  2  0  0  0  0
  2  6  2  0  0  0  0
  3  8  2  0  0  0  0
  3 15  1  0  0  0  0
  4  9  1  0  0  0  0
  4 15  2  0  0  0  0
  5 17  1  0  0  0  0
  6 19  1  0  0  0  0
  7 10  2  0  0  0  0
  7 18  1  0  0  0  0
  8 23  1  0  0  0  0
  9 23  2  0  0  0  0
 10 24  1  0  0  0  0
 11 12  2  0  0  0  0
 11 25  1  0  0  0  0
 12 26  1  0  0  0  0
 13 20  1  0  0  0  0
 13 24  2  0  0  0  0
 14 26  2  0  0  0  0
 14 27  1  0  0  0  0
 15 28  1  0  0  0  0
 16 28  1  0  0  0  0
 16 31  2  0  0  0  0
 16 32  1  0  0  0  0
 17 19  2  0  0  0  0
 17 37  1  0  0  0  0
 18 20  2  0  0  0  0
 18 38  1  0  0  0  0
 19 46  1  0  0  0  0
 20 39  1  0  0  0  0
 21 22  1  0  0  0  0
 21 29  2  0  0  0  0
 21 49  1  0  0  0  0
 22 30  2  0  0  0  0
 22 74  1  0  0  0  0
 23 83  1  0  0  0  0
 24 84  1  0  0  0  0
 25 27  2  0  0  0  0
 25 83  1  0  0  0  0
 26 85  1  0  0  0  0
 27 86  1  0  0  0  0
 28 67  2  0  0  0  0
 29 57  1  0  0  0  0
 29 68  1  0  0  0  0
 30 50  1  0  0  0  0
 30 68  1  0  0  0  0
 31 69  1  0  0  0  0
 31 72  1  0  0  0  0
 32 73  1  0  0  0  0
 32 78  2  0  0  0  0
 33 47  1  0  0  0  0
 33 75  1  0  0  0  0
 33 79  2  0  0  0  0
 34 64  1  0  0  0  0
 34 70  1  0  0  0  0
 34 80  2  0  0  0  0
 35 65  1  0  0  0  0
 35 76  1  0  0  0  0
 35 81  2  0  0  0  0
 36 71  1  0  0  0  0
 36 74  1  0  0  0  0
 36 82  2  0  0  0  0
 37 40  1  0  0  0  0
 38 47  1  0  0  0  0
 39 70  1  0  0  0  0
 40 42  1  0  0  0  0
 41 43  1  0  0  0  0
 41 44  1  0  0  0  0
 42 46  1  0  0  0  0
 43 48  1  0  0  0  0
 44 71  1  0  0  0  0
 45 48  1  0  0  0  0
 45 71  1  0  0  0  0
 46 75  1  0  0  0  0
 47 70  1  0  0  0  0
 48 69  1  0  0  0  0
 51 65  1  0  0  0  0
 52 66  1  0  0  0  0
 53 66  1  0  0  0  0
 54 66  1  0  0  0  0
 55 68  1  0  0  0  0
 56 77  1  0  0  0  0
 57 58  1  0  0  0  0
 58 59  1  0  0  0  0
 59 60  1  0  0  0  0
 60 61  1  0  0  0  0
 61 62  1  0  0  0  0
 62 63  1  0  0  0  0
 63 84  1  0  0  0  0
 64 66  1  0  0  0  0
 64 76  1  0  0  0  0
 65 77  1  0  0  0  0
 67 69  1  0  0  0  0
M  CHG  1  77   1
M  ISO  4  36 100  63 101  74 100  84 101
M  END
> <Batch ID>
0022

> <Smiles>
CNC(C)C(=O)NC(C(=O)N1Cc2cc([101O:1][101CH2:1]CCCCCCc3c(C)c([100NH:0][100C:0](=O)N4CCCC(n5nc(-c6ccc(Oc7ccc(F)cc7F)cc6)c(C(N)=O)c5N)C4)c(C)n3C)ccc2CC1C(=O)NC1CCCc2ccccc21)C(C)(C)C

> <Shape>
0.229

> <Color>
0.093

> <Negative vol penalty>
0.000

$$$$

  -OEChem-04052316153D

 89 97  0     1  0  0  0  0  0999 V2000
  -27.0099  -32.5866   14.3787 C   0  0  0  0  0  0  0  0  0  0  0  0
  -27.3772  -31.5668   15.2507 C   0  0  0  0  0  0  0  0  0  0  0  0
  -23.3915   -9.6129   20.8278 C   0  0  0  0  0  0  0  0  0  0  0  0
  -24.0406  -10.3267   23.0427 C   0  0  0  0  0  0  0  0  0  0  0  0
  -26.6594  -33.8391   14.8810 C   0  0  0  0  0  0  0  0  0  0  0  0
  -27.3953  -31.7992   16.6255 C   0  0  0  0  0  0  0  0  0  0  0  0
  -25.2674  -28.0345   19.2606 C   0  0  0  0  0  0  0  0  0  0  0  0
  -22.7501   -8.5012   21.3740 C   0  0  0  0  0  0  0  0  0  0  0  0
  -23.3992   -9.2150   23.5890 C   0  0  0  0  0  0  0  0  0  0  0  0
  -26.0286  -26.8823   19.4527 C   0  0  0  0  0  0  0  0  0  0  0  0
  -20.2374   -8.2804   24.3307 C   0  0  0  0  0  0  0  0  0  0  0  0
  -19.4345   -8.4839   25.4529 C   0  0  0  0  0  0  0  0  0  0  0  0
  -26.5862  -27.6289   21.6777 C   0  0  0  0  0  0  0  0  0  0  0  0
  -28.9937  -19.9772   20.6383 C   0  0  0  0  0  0  0  0  0  0  0  0
  -30.6558  -18.0894   19.4315 C   0  0  0  0  0  0  0  0  0  0  0  0
  -20.8196   -6.9626   26.7196 C   0  0  0  0  0  0  0  0  0  0  0  0
  -24.0368  -10.5257   21.6621 C   0  0  0  0  0  0  0  0  0  0  0  0
  -24.1416  -12.9428   20.8534 C   0  0  0  0  0  0  0  0  0  0  0  0
  -26.6639  -34.0842   16.2632 C   0  0  0  0  0  0  0  0  0  0  0  0
  -25.1687  -28.9993   20.2734 C   0  0  0  0  0  0  0  0  0  0  0  0
  -27.0458  -33.0566   17.1466 C   0  0  0  0  0  0  0  0  0  0  0  0
  -25.8211  -28.7912   21.4969 C   0  0  0  0  0  0  0  0  0  0  0  0
  -29.8831  -20.3692   19.6379 C   0  0  0  0  0  0  0  0  0  0  0  0
  -29.7664  -17.6974   20.4320 C   0  0  0  0  0  0  0  0  0  0  0  0
  -22.7540   -8.3023   22.7546 C   0  0  0  0  0  0  0  0  0  0  0  0
  -26.6904  -26.6807   20.6603 C   0  0  0  0  0  0  0  0  0  0  0  0
  -21.3314   -7.4180   24.4028 C   0  0  0  0  0  0  0  0  0  0  0  0
  -19.7256   -7.8250   26.6474 C   0  0  0  0  0  0  0  0  0  0  0  0
  -21.6225   -6.7591   25.5973 C   0  0  0  0  0  0  0  0  0  0  0  0
  -28.9354  -18.6413   21.0354 C   0  0  0  0  0  0  0  0  0  0  0  0
  -30.7141  -19.4253   19.0345 C   0  0  0  0  0  0  0  0  0  0  0  0
  -24.7000  -11.6740   21.0984 C   0  0  0  0  0  0  0  0  0  0  0  0
  -25.1730  -13.6739   20.3164 C   0  0  0  0  0  0  0  0  0  0  0  0
  -22.8098  -13.4182   21.0900 C   0  0  0  0  0  0  0  0  0  0  0  0
  -25.9805  -32.0608   20.5417 C   0  0  0  0  0  0  0  0  0  0  0  0
  -24.4408  -31.8166   23.3864 C   0  0  0  0  0  0  0  0  0  0  0  0
  -23.3595  -29.8191   25.9333 C   0  0  0  0  0  0  0  0  0  0  0  0
  -30.5008  -15.2916   20.2931 C   0  0  0  0  0  0  0  0  0  0  0  0
  -26.3229  -35.4682   16.7562 C   0  0  0  0  0  0  0  0  0  0  0  0
  -24.3220  -30.2241   20.0602 C   0  0  0  0  0  0  0  0  0  0  0  0
  -25.7306  -29.7869   22.6233 C   0  0  0  0  0  0  0  0  0  0  0  0
  -26.0064  -35.5224   18.2485 C   0  0  0  0  0  0  0  0  0  0  0  0
  -29.7319  -12.2191   18.6666 C   0  0  0  0  0  0  0  0  0  0  0  0
  -27.0492  -34.7435   19.0440 C   0  0  0  0  0  0  0  0  0  0  0  0
  -28.3083  -11.9077   19.1341 C   0  0  0  0  0  0  0  0  0  0  0  0
  -30.5646  -12.8623   19.7741 C   0  0  0  0  0  0  0  0  0  0  0  0
  -28.5356  -13.7342   20.8660 C   0  0  0  0  0  0  0  0  0  0  0  0
  -27.0539  -33.2627   18.6458 C   0  0  1  0  0  0  0  0  0  0  0  0
  -24.7096  -31.3844   20.9717 C   0  0  1  0  0  0  0  0  0  0  0  0
  -27.6391  -13.1446   19.7649 C   0  0  2  0  0  0  0  0  0  0  0  0
  -22.1645  -29.9116   28.1381 C   0  0  0  0  0  0  0  0  0  0  0  0
  -33.0078  -26.2270   17.9663 C   0  0  0  0  0  0  0  0  0  0  0  0
  -31.9747  -25.4678   15.8179 C   0  0  0  0  0  0  0  0  0  0  0  0
  -26.9614  -32.9221   24.7034 C   0  0  0  0  0  0  0  0  0  0  0  0
  -26.0840  -32.1103   26.9032 C   0  0  0  0  0  0  0  0  0  0  0  0
  -24.8203  -33.8349   25.6181 C   0  0  0  0  0  0  0  0  0  0  0  0
  -21.1760  -28.0773   24.9546 C   0  0  0  0  0  0  0  0  0  0  0  0
  -29.9149  -21.8237   19.2368 C   0  0  0  0  0  0  0  0  0  0  0  0
  -31.1258  -22.5429   19.8426 C   0  0  0  0  0  0  0  0  0  0  0  0
  -29.6476  -24.6810   21.2994 C   0  0  0  0  0  0  0  0  0  0  0  0
  -30.1242  -24.9336   19.8625 C   0  0  0  0  0  0  0  0  0  0  0  0
  -31.5529  -24.1247   17.8992 C   0  0  0  0  0  0  0  0  0  0  0  0
  -28.5562  -25.6583   21.7232 C   0  0  0  0  0  0  0  0  0  1  0  0
  -24.8454  -31.4454   24.7926 C   0  0  1  0  0  0  0  0  0  0  0  0
  -22.0176  -29.7210   26.6364 C   0  0  2  0  0  0  0  0  0  0  0  0
  -31.7940  -25.5422   17.3377 C   0  0  0  0  0  0  0  0  0  0  0  0
  -31.2931  -24.0242   19.4231 C   0  0  2  0  0  0  0  0  0  0  0  0
  -25.6813  -32.5601   25.4826 C   0  0  0  0  0  0  0  0  0  0  0  0
  -25.9861  -11.5997   20.7459 N   0  0  0  0  0  0  0  0  0  0  0  0
  -26.2445  -12.8312   20.2738 N   0  0  0  0  0  0  0  0  0  0  0  0
  -24.8957  -30.9715   22.3642 N   0  0  0  0  0  0  0  0  0  0  0  0
  -29.8701  -14.0298   20.3213 N   0  0  0  0  0  0  0  0  0  0  0  0
  -25.2587  -14.9489   19.8812 N   0  0  0  0  0  0  0  0  0  0  0  0
  -21.8746  -12.5357   21.6477 N   0  0  0  0  0  0  0  0  0  0  0  0
  -29.7312  -16.3326   20.8113 N   0  0  0  0  0  0  0  0  0  0  0  0
  -25.9397  -32.5712   19.2582 N   0  0  0  0  0  0  0  0  0  0  0  0
  -23.6136  -31.1012   25.4944 N   0  0  0  0  0  0  0  0  0  0  0  0
  -21.4000  -28.3873   26.3901 N   0  3  0  0  0  0  0  0  0  0  0  0
  -22.4550  -14.5858   20.7999 O   0  0  0  0  0  0  0  0  0  0  0  0
  -26.9274  -32.1169   21.3175 O   0  0  0  0  0  0  0  0  0  0  0  0
  -23.7408  -32.8155   23.2023 O   0  0  0  0  0  0  0  0  0  0  0  0
  -24.1090  -28.8554   25.7912 O   0  0  0  0  0  0  0  0  0  0  0  0
  -31.6290  -15.4427   19.8174 O   0  0  0  0  0  0  0  0  0  0  0  0
  -22.1280   -7.2177   23.2879 O   0  0  0  0  0  0  0  0  0  0  0  0
  -27.4402  -25.5487   20.8516 O   0  0  0  0  0  0  0  0  0  1  0  0
  -18.9554   -8.0216   27.7255 F   0  0  0  0  0  0  0  0  0  0  0  0
  -22.6728   -5.9303   25.6730 F   0  0  0  0  0  0  0  0  0  0  0  0
  -27.8202  -18.1986   22.2784 Cl  0  0  0  0  0  0  0  0  0  0  0  0
  -31.8275  -19.8746   17.7942 Cl  0  0  0  0  0  0  0  0  0  0  0  0
  1  2  1  0  0  0  0
  1  5  2  0  0  0  0
  2  6  2  0  0  0  0
  3  8  2  0  0  0  0
  3 17  1  0  0  0  0
  4  9  1  0  0  0  0
  4 17  2  0  0  0  0
  5 19  1  0  0  0  0
  6 21  1  0  0  0  0
  7 10  2  0  0  0  0
  7 20  1  0  0  0  0
  8 25  1  0  0  0  0
  9 25  2  0  0  0  0
 10 26  1  0  0  0  0
 11 12  2  0  0  0  0
 11 27  1  0  0  0  0
 12 28  1  0  0  0  0
 13 22  1  0  0  0  0
 13 26  2  0  0  0  0
 14 23  1  0  0  0  0
 14 30  2  0  0  0  0
 15 24  2  0  0  0  0
 15 31  1  0  0  0  0
 16 28  2  0  0  0  0
 16 29  1  0  0  0  0
 17 32  1  0  0  0  0
 18 32  1  0  0  0  0
 18 33  2  0  0  0  0
 18 34  1  0  0  0  0
 19 21  2  0  0  0  0
 19 39  1  0  0  0  0
 20 22  2  0  0  0  0
 20 40  1  0  0  0  0
 21 48  1  0  0  0  0
 22 41  1  0  0  0  0
 23 31  2  0  0  0  0
 23 58  1  0  0  0  0
 24 30  1  0  0  0  0
 24 75  1  0  0  0  0
 25 84  1  0  0  0  0
 26 85  1  0  0  0  0
 27 29  2  0  0  0  0
 27 84  1  0  0  0  0
 28 86  1  0  0  0  0
 29 87  1  0  0  0  0
 30 88  1  0  0  0  0
 31 89  1  0  0  0  0
 32 69  2  0  0  0  0
 33 70  1  0  0  0  0
 33 73  1  0  0  0  0
 34 74  1  0  0  0  0
 34 79  2  0  0  0  0
 35 49  1  0  0  0  0
 35 76  1  0  0  0  0
 35 80  2  0  0  0  0
 36 64  1  0  0  0  0
 36 71  1  0  0  0  0
 36 81  2  0  0  0  0
 37 65  1  0  0  0  0
 37 77  1  0  0  0  0
 37 82  2  0  0  0  0
 38 72  1  0  0  0  0
 38 75  1  0  0  0  0
 38 83  2  0  0  0  0
 39 42  1  0  0  0  0
 40 49  1  0  0  0  0
 41 71  1  0  0  0  0
 42 44  1  0  0  0  0
 43 45  1  0  0  0  0
 43 46  1  0  0  0  0
 44 48  1  0  0  0  0
 45 50  1  0  0  0  0
 46 72  1  0  0  0  0
 47 50  1  0  0  0  0
 47 72  1  0  0  0  0
 48 76  1  0  0  0  0
 49 71  1  0  0  0  0
 50 70  1  0  0  0  0
 51 65  1  0  0  0  0
 52 66  1  0  0  0  0
 53 66  1  0  0  0  0
 54 68  1  0  0  0  0
 55 68  1  0  0  0  0
 56 68  1  0  0  0  0
 57 78  1  0  0  0  0
 58 59  1  0  0  0  0
 59 67  1  0  0  0  0
 60 61  1  0  0  0  0
 60 63  1  0  0  0  0
 61 67  1  0  0  0  0
 62 66  1  0  0  0  0
 62 67  1  0  0  0  0
 63 85  1  0  0  0  0
 64 68  1  0  0  0  0
 64 77  1  0  0  0  0
 65 78  1  0  0  0  0
 69 70  1  0  0  0  0
M  CHG  1  78   1
M  ISO  4  38 100  63 101  75 100  85 101
M  END
> <Batch ID>
0022

> <Smiles>
CNC(C)C(=O)NC(C(=O)N1Cc2cc([101O:1][101CH2:1]CCC(CCc3cc(Cl)c([100NH:0][100C:0](=O)N4CCCC(n5nc(-c6ccc(Oc7ccc(F)cc7F)cc6)c(C(N)=O)c5N)C4)cc3Cl)CC(C)C)ccc2CC1C(=O)NC1CCCc2ccccc21)C(C)(C)C

> <Shape>
0.318

> <Color>
0.180

> <Negative vol penalty>
0.000

$$$$

  -OEChem-04052316153D

 91100  0     1  0  0  0  0  0999 V2000
  -20.6876  -36.1274   24.7205 C   0  0  0  0  0  0  0  0  0  0  0  0
  -21.3377  -35.0255   25.2669 C   0  0  0  0  0  0  0  0  0  0  0  0
  -23.7908  -11.8747   24.0267 C   0  0  0  0  0  0  0  0  0  0  0  0
  -24.5378   -9.9666   22.7469 C   0  0  0  0  0  0  0  0  0  0  0  0
  -19.9888  -35.9988   23.5209 C   0  0  0  0  0  0  0  0  0  0  0  0
  -21.2884  -33.7940   24.6146 C   0  0  0  0  0  0  0  0  0  0  0  0
  -27.1090  -29.1936   22.1684 C   0  0  0  0  0  0  0  0  0  0  0  0
  -29.4562  -20.6449   22.0791 C   0  0  0  0  0  0  0  0  0  0  0  0
  -29.2009  -21.9099   21.5499 C   0  0  0  0  0  0  0  0  0  0  0  0
  -23.3194  -11.0213   25.0241 C   0  0  0  0  0  0  0  0  0  0  0  0
  -24.0665   -9.1130   23.7444 C   0  0  0  0  0  0  0  0  0  0  0  0
  -28.0513  -28.3710   21.5508 C   0  0  0  0  0  0  0  0  0  0  0  0
  -21.0938   -7.8474   24.7405 C   0  0  0  0  0  0  0  0  0  0  0  0
  -20.3670   -6.7252   24.3430 C   0  0  0  0  0  0  0  0  0  0  0  0
  -26.3858  -27.6424   19.9561 C   0  0  0  0  0  0  0  0  0  0  0  0
  -22.0078   -5.2924   25.3882 C   0  0  0  0  0  0  0  0  0  0  0  0
  -24.4000  -11.3474   22.8880 C   0  0  0  0  0  0  0  0  0  0  0  0
  -24.1363  -13.1504   21.1027 C   0  0  0  0  0  0  0  0  0  0  0  0
  -19.9390  -34.7676   22.8485 C   0  0  0  0  0  0  0  0  0  0  0  0
  -25.8039  -29.2554   21.6721 C   0  0  0  0  0  0  0  0  0  0  0  0
  -20.5872  -33.6486   23.4055 C   0  0  0  0  0  0  0  0  0  0  0  0
  -25.4409  -28.4740   20.5629 C   0  0  0  0  0  0  0  0  0  0  0  0
  -29.4881  -19.5312   21.2398 C   0  0  0  0  0  0  0  0  0  0  0  0
  -29.0091  -20.9476   19.3421 C   0  0  0  0  0  0  0  0  0  0  0  0
  -28.9773  -22.0613   20.1814 C   0  0  0  0  0  0  0  0  0  0  0  0
  -23.4573   -9.6404   24.8830 C   0  0  0  0  0  0  0  0  0  0  0  0
  -27.6905  -27.5971   20.4475 C   0  0  0  0  0  0  0  0  0  0  0  0
  -22.2776   -7.6921   25.4617 C   0  0  0  0  0  0  0  0  0  0  0  0
  -20.8240   -5.4477   24.6669 C   0  0  0  0  0  0  0  0  0  0  0  0
  -22.7346   -6.4147   25.7856 C   0  0  0  0  0  0  0  0  0  0  0  0
  -29.2645  -19.6825   19.8714 C   0  0  0  0  0  0  0  0  0  0  0  0
  -24.8866  -12.2285   21.8570 C   0  0  0  0  0  0  0  0  0  0  0  0
  -25.0537  -13.7358   20.2648 C   0  0  0  0  0  0  0  0  0  0  0  0
  -22.7353  -13.4506   21.1547 C   0  0  0  0  0  0  0  0  0  0  0  0
  -22.3742  -30.7442   21.9828 C   0  0  0  0  0  0  0  0  0  0  0  0
  -23.0194  -30.6104   18.9868 C   0  0  0  0  0  0  0  0  0  0  0  0
  -24.2820  -30.6785   15.8184 C   0  0  0  0  0  0  0  0  0  0  0  0
  -30.9783  -14.5257   20.6203 C   0  0  0  0  0  0  0  0  0  0  0  0
  -19.1316  -34.6660   21.5787 C   0  0  0  0  0  0  0  0  0  0  0  0
  -24.7399  -30.0808   22.3433 C   0  0  0  0  0  0  0  0  0  0  0  0
  -24.0164  -28.5462   20.0848 C   0  0  0  0  0  0  0  0  0  0  0  0
  -19.4415  -33.4165   20.7582 C   0  0  0  0  0  0  0  0  0  0  0  0
  -29.1936  -12.8457   18.0378 C   0  0  0  0  0  0  0  0  0  0  0  0
  -19.4753  -32.1834   21.6555 C   0  0  0  0  0  0  0  0  0  0  0  0
  -27.8197  -12.5802   18.6557 C   0  0  0  0  0  0  0  0  0  0  0  0
  -29.3729  -25.2175   18.2079 C   0  0  0  0  0  0  0  0  0  0  0  0
  -27.0566  -25.0864   19.1573 C   0  0  0  0  0  0  0  0  0  0  0  0
  -30.3117  -12.7127   19.0694 C   0  0  0  0  0  0  0  0  0  0  0  0
  -29.8437  -24.1697   19.2197 C   0  0  0  0  0  0  0  0  0  0  0  0
  -27.5352  -24.0439   20.1694 C   0  0  0  0  0  0  0  0  0  0  0  0
  -28.7594  -13.2636   20.9026 C   0  0  0  0  0  0  0  0  0  0  0  0
  -20.5776  -32.3021   22.7149 C   0  0  1  0  0  0  0  0  0  0  0  0
  -23.7341  -30.6913   21.3510 C   0  0  1  0  0  0  0  0  0  0  0  0
  -27.5948  -13.4409   19.9134 C   0  0  2  0  0  0  0  0  0  0  0  0
  -28.1815  -26.0328   18.7213 C   0  0  0  0  0  0  0  0  0  1  0  0
  -28.7711  -21.0850   17.8733 C   0  0  0  0  0  0  0  0  0  0  0  0
  -28.3084  -28.9434   16.1734 C   0  0  0  0  0  0  0  0  0  0  0  0
  -23.6726  -31.3136   13.4684 C   0  0  0  0  0  0  0  0  0  0  0  0
  -21.3121  -28.0936   18.7533 C   0  0  0  0  0  0  0  0  0  0  0  0
  -21.5288  -28.2630   16.2648 C   0  0  0  0  0  0  0  0  0  0  0  0
  -20.4049  -30.0859   17.5441 C   0  0  0  0  0  0  0  0  0  0  0  0
  -26.4580  -32.6790   15.6713 C   0  0  0  0  0  0  0  0  0  0  0  0
  -29.7622  -18.1807   21.8104 C   0  0  0  0  0  0  0  0  0  0  0  0
  -27.6917  -27.0067   17.6494 C   0  0  0  0  0  0  0  0  0  0  0  0
  -28.8026  -27.9581   17.2205 C   0  0  0  0  0  0  0  0  0  0  0  0
  -31.2098  -17.6878   21.6160 C   0  0  0  0  0  0  0  0  0  0  0  0
  -31.5002  -16.3271   22.2457 C   0  0  0  0  0  0  0  0  0  0  0  0
  -22.9146  -29.8249   17.7041 C   0  0  1  0  0  0  0  0  0  0  0  0
  -24.3116  -31.7750   14.7690 C   0  0  2  0  0  0  0  0  0  0  0  0
  -21.5633  -29.0654   17.5831 C   0  0  0  0  0  0  0  0  0  0  0  0
  -26.1809  -12.2249   21.5274 N   0  0  0  0  0  0  0  0  0  0  0  0
  -26.2511  -13.1516   20.5567 N   0  0  0  0  0  0  0  0  0  0  0  0
  -28.7220  -23.3392   19.6680 N   0  0  0  0  0  0  0  0  0  0  0  0
  -23.5531  -29.9426   20.0957 N   0  0  0  0  0  0  0  0  0  0  0  0
  -30.0383  -13.5551   20.2363 N   0  0  0  0  0  0  0  0  0  0  0  0
  -24.9450  -14.6882   19.3143 N   0  0  0  0  0  0  0  0  0  0  0  0
  -21.9368  -12.7564   22.0738 N   0  0  0  0  0  0  0  0  0  0  0  0
  -21.8720  -32.0230   22.1309 N   0  0  0  0  0  0  0  0  0  0  0  0
  -23.1665  -30.7721   16.6235 N   0  0  0  0  0  0  0  0  0  0  0  0
  -30.6384  -15.2853   21.7330 N   0  0  0  0  0  0  0  0  0  0  0  0
  -25.7168  -32.1814   14.4839 N   0  3  0  0  0  0  0  0  0  0  0  0
  -22.2042  -14.2974   20.3968 O   0  0  0  0  0  0  0  0  0  0  0  0
  -21.8195  -29.7019   22.3109 O   0  0  0  0  0  0  0  0  0  0  0  0
  -22.6341  -31.7828   19.0093 O   0  0  0  0  0  0  0  0  0  0  0  0
  -25.1587  -29.8222   15.9121 O   0  0  0  0  0  0  0  0  0  0  0  0
  -32.0394  -14.7058   20.0130 O   0  0  0  0  0  0  0  0  0  0  0  0
  -22.9977   -8.8073   25.8563 O   0  0  0  0  0  0  0  0  0  0  0  0
  -28.6166  -26.7996   19.8466 O   0  0  0  0  0  0  0  0  0  1  0  0
  -20.1251   -4.3701   24.2865 F   0  0  0  0  0  0  0  0  0  0  0  0
  -23.8705   -6.2593   26.4794 F   0  0  0  0  0  0  0  0  0  0  0  0
  -29.2978  -18.6111   19.0649 F   0  0  0  0  0  0  0  0  0  0  0  0
  1  2  1  0  0  0  0
  1  5  2  0  0  0  0
  2  6  2  0  0  0  0
  3 10  2  0  0  0  0
  3 17  1  0  0  0  0
  4 11  1  0  0  0  0
  4 17  2  0  0  0  0
  5 19  1  0  0  0  0
  6 21  1  0  0  0  0
  7 12  2  0  0  0  0
  7 20  1  0  0  0  0
  8  9  2  0  0  0  0
  8 23  1  0  0  0  0
  9 25  1  0  0  0  0
 10 26  1  0  0  0  0
 11 26  2  0  0  0  0
 12 27  1  0  0  0  0
 13 14  2  0  0  0  0
 13 28  1  0  0  0  0
 14 29  1  0  0  0  0
 15 22  1  0  0  0  0
 15 27  2  0  0  0  0
 16 29  2  0  0  0  0
 16 30  1  0  0  0  0
 17 32  1  0  0  0  0
 18 32  1  0  0  0  0
 18 33  2  0  0  0  0
 18 34  1  0  0  0  0
 19 21  2  0  0  0  0
 19 39  1  0  0  0  0
 20 22  2  0  0  0  0
 20 40  1  0  0  0  0
 21 52  1  0  0  0  0
 22 41  1  0  0  0  0
 23 31  2  0  0  0  0
 23 63  1  0  0  0  0
 24 25  2  0  0  0  0
 24 31  1  0  0  0  0
 24 56  1  0  0  0  0
 25 73  1  0  0  0  0
 26 87  1  0  0  0  0
 27 88  1  0  0  0  0
 28 30  2  0  0  0  0
 28 87  1  0  0  0  0
 29 89  1  0  0  0  0
 30 90  1  0  0  0  0
 31 91  1  0  0  0  0
 32 71  2  0  0  0  0
 33 72  1  0  0  0  0
 33 76  1  0  0  0  0
 34 77  1  0  0  0  0
 34 82  2  0  0  0  0
 35 53  1  0  0  0  0
 35 78  1  0  0  0  0
 35 83  2  0  0  0  0
 36 68  1  0  0  0  0
 36 74  1  0  0  0  0
 36 84  2  0  0  0  0
 37 69  1  0  0  0  0
 37 79  1  0  0  0  0
 37 85  2  0  0  0  0
 38 75  1  0  0  0  0
 38 80  1  0  0  0  0
 38 86  2  0  0  0  0
 39 42  1  0  0  0  0
 40 53  1  0  0  0  0
 41 74  1  0  0  0  0
 42 44  1  0  0  0  0
 43 45  1  0  0  0  0
 43 48  1  0  0  0  0
 44 52  1  0  0  0  0
 45 54  1  0  0  0  0
 46 49  1  0  0  0  0
 46 55  1  0  0  0  0
 47 50  1  0  0  0  0
 47 55  1  0  0  0  0
 48 75  1  0  0  0  0
 49 73  1  0  0  0  0
 50 73  1  0  0  0  0
 51 54  1  0  0  0  0
 51 75  1  0  0  0  0
 52 78  1  0  0  0  0
 53 74  1  0  0  0  0
 54 72  1  0  0  0  0
 55 64  1  0  0  0  0
 55 88  1  0  0  0  0
 57 65  1  0  0  0  0
 58 69  1  0  0  0  0
 59 70  1  0  0  0  0
 60 70  1  0  0  0  0
 61 70  1  0  0  0  0
 62 81  1  0  0  0  0
 63 66  1  0  0  0  0
 64 65  1  0  0  0  0
 66 67  1  0  0  0  0
 67 80  1  0  0  0  0
 68 70  1  0  0  0  0
 68 79  1  0  0  0  0
 69 81  1  0  0  0  0
 71 72  1  0  0  0  0
M  CHG  1  81   1
M  ISO  4  38 100  55 101  80 100  88 101
M  END
> <Batch ID>
0022

> <Smiles>
CCC[101C:1]1([101O:1]c2ccc3c(c2)CN(C(=O)C(NC(=O)C(C)NC)C(C)(C)C)C(C(=O)NC2CCCc4ccccc42)C3)CCN(c2ccc(CCC[100NH:0][100C:0](=O)N3CCCC(n4nc(-c5ccc(Oc6ccc(F)cc6F)cc5)c(C(N)=O)c4N)C3)c(F)c2C)CC1

> <Shape>
0.291

> <Color>
0.142

> <Negative vol penalty>
0.000

$$$$

  -OEChem-04052316153D

 89 97  0     1  0  0  0  0  0999 V2000
  -30.0517  -22.1023   10.4304 C   0  0  0  0  0  0  0  0  0  0  0  0
  -29.3424  -21.1514   11.1570 C   0  0  0  0  0  0  0  0  0  0  0  0
  -23.0009   -9.8945   19.9806 C   0  0  0  0  0  0  0  0  0  0  0  0
  -23.7323   -9.9419   22.2827 C   0  0  0  0  0  0  0  0  0  0  0  0
  -30.2458  -23.3784   10.9575 C   0  0  0  0  0  0  0  0  0  0  0  0
  -28.8275  -21.4757   12.4116 C   0  0  0  0  0  0  0  0  0  0  0  0
  -23.2746  -20.0487   16.7065 C   0  0  0  0  0  0  0  0  0  0  0  0
  -22.2365   -8.7586   20.2468 C   0  0  0  0  0  0  0  0  0  0  0  0
  -22.9679   -8.8060   22.5490 C   0  0  0  0  0  0  0  0  0  0  0  0
  -22.9989  -19.6378   18.0099 C   0  0  0  0  0  0  0  0  0  0  0  0
  -23.2150   -5.4682   22.0699 C   0  0  0  0  0  0  0  0  0  0  0  0
  -23.8058   -4.4503   22.8184 C   0  0  0  0  0  0  0  0  0  0  0  0
  -23.3279  -21.8981   18.7856 C   0  0  0  0  0  0  0  0  0  0  0  0
  -28.7719  -20.3261   20.4444 C   0  0  0  0  0  0  0  0  0  0  0  0
  -22.0862   -4.6879   24.4988 C   0  0  0  0  0  0  0  0  0  0  0  0
  -23.7489  -10.4862   20.9985 C   0  0  0  0  0  0  0  0  0  0  0  0
  -24.1307  -13.0026   20.8264 C   0  0  0  0  0  0  0  0  0  0  0  0
  -29.7247  -23.7215   12.2151 C   0  0  0  0  0  0  0  0  0  0  0  0
  -23.5903  -21.3875   16.4340 C   0  0  0  0  0  0  0  0  0  0  0  0
  -29.0159  -22.7571   12.9566 C   0  0  0  0  0  0  0  0  0  0  0  0
  -23.6048  -22.3240   17.4775 C   0  0  0  0  0  0  0  0  0  0  0  0
  -28.2734  -19.6201   21.5391 C   0  0  0  0  0  0  0  0  0  0  0  0
  -29.9410  -19.9004   19.8136 C   0  0  0  0  0  0  0  0  0  0  0  0
  -28.9438  -18.4885   22.0033 C   0  0  0  0  0  0  0  0  0  0  0  0
  -30.1129  -18.0627   21.3726 C   0  0  0  0  0  0  0  0  0  0  0  0
  -22.2199   -8.2143   21.5310 C   0  0  0  0  0  0  0  0  0  0  0  0
  -23.0283  -20.5620   19.0501 C   0  0  0  0  0  0  0  0  0  0  0  0
  -22.0598   -6.0961   22.5358 C   0  0  0  0  0  0  0  0  0  0  0  0
  -23.2414   -4.0601   24.0328 C   0  0  0  0  0  0  0  0  0  0  0  0
  -21.4954   -5.7058   23.7502 C   0  0  0  0  0  0  0  0  0  0  0  0
  -30.6115  -18.7688   20.2777 C   0  0  0  0  0  0  0  0  0  0  0  0
  -24.5392  -11.6593   20.7240 C   0  0  0  0  0  0  0  0  0  0  0  0
  -25.2385  -13.7272   20.4604 C   0  0  0  0  0  0  0  0  0  0  0  0
  -22.8631  -13.5467   21.2174 C   0  0  0  0  0  0  0  0  0  0  0  0
  -26.1255  -22.8990   15.2541 C   0  0  0  0  0  0  0  0  0  0  0  0
  -24.1631  -25.4785   15.3881 C   0  0  0  0  0  0  0  0  0  0  0  0
  -21.4359  -26.9742   16.7923 C   0  0  0  0  0  0  0  0  0  0  0  0
  -30.7344  -14.6681   20.6958 C   0  0  0  0  0  0  0  0  0  0  0  0
  -30.0007  -25.0989   12.7640 C   0  0  0  0  0  0  0  0  0  0  0  0
  -23.8591  -21.8200   15.0187 C   0  0  0  0  0  0  0  0  0  0  0  0
  -23.9182  -23.7770   17.2348 C   0  0  0  0  0  0  0  0  0  0  0  0
  -29.1012  -25.4784   13.9375 C   0  0  0  0  0  0  0  0  0  0  0  0
  -29.5903  -12.2476   18.3487 C   0  0  0  0  0  0  0  0  0  0  0  0
  -29.0277  -24.3356   14.9452 C   0  0  0  0  0  0  0  0  0  0  0  0
  -28.1433  -11.9853   18.7697 C   0  0  0  0  0  0  0  0  0  0  0  0
  -30.4957  -12.4817   19.5560 C   0  0  0  0  0  0  0  0  0  0  0  0
  -28.5883  -13.2723   20.9015 C   0  0  0  0  0  0  0  0  0  0  0  0
  -28.4207  -23.0786   14.3103 C   0  0  1  0  0  0  0  0  0  0  0  0
  -24.6728  -23.1075   14.9316 C   0  0  1  0  0  0  0  0  0  0  0  0
  -27.6263  -13.0858   19.7157 C   0  0  2  0  0  0  0  0  0  0  0  0
  -28.4041  -17.7339   23.1771 C   0  0  0  0  0  0  0  0  0  0  0  0
  -20.1007  -29.0978   16.7247 C   0  0  0  0  0  0  0  0  0  0  0  0
  -29.5014  -21.8974   18.3423 C   0  0  0  0  0  0  0  0  0  0  0  0
  -30.5031  -19.8076   17.3596 C   0  0  0  0  0  0  0  0  0  0  0  0
  -31.8686  -21.2967   18.8085 C   0  0  0  0  0  0  0  0  0  0  0  0
  -26.3423  -26.8966   16.9850 C   0  0  0  0  0  0  0  0  0  0  0  0
  -24.6325  -28.5861   17.6853 C   0  0  0  0  0  0  0  0  0  0  0  0
  -25.2082  -28.3232   15.2724 C   0  0  0  0  0  0  0  0  0  0  0  0
  -18.9875  -25.5443   15.9440 C   0  0  0  0  0  0  0  0  0  0  0  0
  -30.8177  -16.8448   21.8850 C   0  0  0  0  0  0  0  0  0  0  0  0
  -27.0143  -20.0992   22.1996 C   0  0  0  0  0  0  0  0  0  0  0  0
  -23.4257  -18.7646   22.1547 C   0  0  0  0  0  0  0  0  0  0  0  0
  -24.5806  -19.6680   22.5601 C   0  0  0  0  0  0  0  0  0  0  0  0
  -23.0965  -18.8201   20.6679 C   0  0  0  0  0  0  0  0  0  1  0  0
  -23.8488  -26.5299   16.4247 C   0  0  1  0  0  0  0  0  0  0  0  0
  -20.2482  -27.6884   16.1729 C   0  0  2  0  0  0  0  0  0  0  0  0
  -30.4381  -20.6884   18.6441 C   0  0  0  0  0  0  0  0  0  0  0  0
  -25.0039  -27.5563   16.5970 C   0  0  0  0  0  0  0  0  0  0  0  0
  -25.8075  -11.5351   20.3242 N   0  0  0  0  0  0  0  0  0  0  0  0
  -26.2055  -12.8097   20.1720 N   0  0  0  0  0  0  0  0  0  0  0  0
  -24.1803  -24.1496   15.8348 N   0  0  0  0  0  0  0  0  0  0  0  0
  -29.9500  -13.5381   20.4116 N   0  0  0  0  0  0  0  0  0  0  0  0
  -25.4701  -15.0534   20.3603 N   0  0  0  0  0  0  0  0  0  0  0  0
  -21.8333  -12.6606   21.5620 N   0  0  0  0  0  0  0  0  0  0  0  0
  -26.9822  -23.2053   14.2141 N   0  0  0  0  0  0  0  0  0  0  0  0
  -22.5757  -27.1237   16.0309 N   0  0  0  0  0  0  0  0  0  0  0  0
  -30.1391  -15.6245   21.5092 N   0  0  0  0  0  0  0  0  0  0  0  0
  -18.9902  -26.9401   16.4529 N   0  3  0  0  0  0  0  0  0  0  0  0
  -25.8285  -19.2596   21.8734 N   0  3  0  0  0  0  0  0  0  0  0  0
  -22.6449  -14.7817   21.2442 O   0  0  0  0  0  0  0  0  0  0  0  0
  -26.4454  -22.4919   16.3647 O   0  0  0  0  0  0  0  0  0  0  0  0
  -24.3783  -25.8229   14.2233 O   0  0  0  0  0  0  0  0  0  0  0  0
  -21.3610  -26.3495   17.8481 O   0  0  0  0  0  0  0  0  0  0  0  0
  -31.8785  -14.8162   20.2529 O   0  0  0  0  0  0  0  0  0  0  0  0
  -21.4739   -7.1060   21.7911 O   0  0  0  0  0  0  0  0  0  0  0  0
  -22.7602  -20.1635   20.3234 O   0  0  0  0  0  0  0  0  0  1  0  0
  -23.8080   -3.0815   24.7508 F   0  0  0  0  0  0  0  0  0  0  0  0
  -20.3850   -6.3045   24.2024 F   0  0  0  0  0  0  0  0  0  0  0  0
  -32.0636  -18.2436   19.4924 Cl  0  0  0  0  0  0  0  0  0  0  0  0
  1  2  1  0  0  0  0
  1  5  2  0  0  0  0
  2  6  2  0  0  0  0
  3  8  2  0  0  0  0
  3 16  1  0  0  0  0
  4  9  1  0  0  0  0
  4 16  2  0  0  0  0
  5 18  1  0  0  0  0
  6 20  1  0  0  0  0
  7 10  2  0  0  0  0
  7 19  1  0  0  0  0
  8 26  1  0  0  0  0
  9 26  2  0  0  0  0
 10 27  1  0  0  0  0
 11 12  2  0  0  0  0
 11 28  1  0  0  0  0
 12 29  1  0  0  0  0
 13 21  1  0  0  0  0
 13 27  2  0  0  0  0
 14 22  1  0  0  0  0
 14 23  2  0  0  0  0
 15 29  2  0  0  0  0
 15 30  1  0  0  0  0
 16 32  1  0  0  0  0
 17 32  1  0  0  0  0
 17 33  2  0  0  0  0
 17 34  1  0  0  0  0
 18 20  2  0  0  0  0
 18 39  1  0  0  0  0
 19 21  2  0  0  0  0
 19 40  1  0  0  0  0
 20 48  1  0  0  0  0
 21 41  1  0  0  0  0
 22 24  2  0  0  0  0
 22 61  1  0  0  0  0
 23 31  1  0  0  0  0
 23 67  1  0  0  0  0
 24 25  1  0  0  0  0
 24 51  1  0  0  0  0
 25 31  2  0  0  0  0
 25 60  1  0  0  0  0
 26 85  1  0  0  0  0
 27 86  1  0  0  0  0
 28 30  2  0  0  0  0
 28 85  1  0  0  0  0
 29 87  1  0  0  0  0
 30 88  1  0  0  0  0
 31 89  1  0  0  0  0
 32 69  2  0  0  0  0
 33 70  1  0  0  0  0
 33 73  1  0  0  0  0
 34 74  1  0  0  0  0
 34 80  2  0  0  0  0
 35 49  1  0  0  0  0
 35 75  1  0  0  0  0
 35 81  2  0  0  0  0
 36 65  1  0  0  0  0
 36 71  1  0  0  0  0
 36 82  2  0  0  0  0
 37 66  1  0  0  0  0
 37 76  1  0  0  0  0
 37 83  2  0  0  0  0
 38 72  1  0  0  0  0
 38 77  1  0  0  0  0
 38 84  2  0  0  0  0
 39 42  1  0  0  0  0
 40 49  1  0  0  0  0
 41 71  1  0  0  0  0
 42 44  1  0  0  0  0
 43 45  1  0  0  0  0
 43 46  1  0  0  0  0
 44 48  1  0  0  0  0
 45 50  1  0  0  0  0
 46 72  1  0  0  0  0
 47 50  1  0  0  0  0
 47 72  1  0  0  0  0
 48 75  1  0  0  0  0
 49 71  1  0  0  0  0
 50 70  1  0  0  0  0
 52 66  1  0  0  0  0
 53 67  1  0  0  0  0
 54 67  1  0  0  0  0
 55 67  1  0  0  0  0
 56 68  1  0  0  0  0
 57 68  1  0  0  0  0
 58 68  1  0  0  0  0
 59 78  1  0  0  0  0
 60 77  1  0  0  0  0
 61 79  1  0  0  0  0
 62 63  1  0  0  0  0
 62 64  1  0  0  0  0
 63 79  1  0  0  0  0
 64 86  1  0  0  0  0
 65 68  1  0  0  0  0
 65 76  1  0  0  0  0
 66 78  1  0  0  0  0
 69 70  1  0  0  0  0
M  CHG  2  78   1  79   1
M  ISO  4  38 100  64 101  77 100  86 101
M  END
> <Batch ID>
0022

> <Smiles>
CNC(C)C(=O)NC(C(=O)N1Cc2cc([101O:1][101CH2:1]CCNCc3cc(C(C)(C)C)c(Cl)c(C[100NH:0][100C:0](=O)N4CCCC(n5nc(-c6ccc(Oc7ccc(F)cc7F)cc6)c(C(N)=O)c5N)C4)c3C)ccc2CC1C(=O)NC1CCCc2ccccc21)C(C)(C)C

> <Shape>
0.205

> <Color>
0.193

> <Negative vol penalty>
0.000

$$$$

  -OEChem-04052316153D

 85 93  0     1  0  0  0  0  0999 V2000
  -18.2628  -28.9195   22.6049 C   0  0  0  0  0  0  0  0  0  0  0  0
  -19.3481  -28.9015   21.7347 C   0  0  0  0  0  0  0  0  0  0  0  0
  -25.8311  -12.8206   21.7753 C   0  0  0  0  0  0  0  0  0  0  0  0
  -25.2708  -13.7205   19.6042 C   0  0  0  0  0  0  0  0  0  0  0  0
  -18.0709  -27.8678   23.4999 C   0  0  0  0  0  0  0  0  0  0  0  0
  -20.2428  -27.8323   21.7598 C   0  0  0  0  0  0  0  0  0  0  0  0
  -23.2099  -25.4020   16.9852 C   0  0  0  0  0  0  0  0  0  0  0  0
  -30.5865  -23.7430   18.3278 C   0  0  0  0  0  0  0  0  0  0  0  0
  -30.1230  -24.4940   17.2477 C   0  0  0  0  0  0  0  0  0  0  0  0
  -24.7437  -11.9506   21.6953 C   0  0  0  0  0  0  0  0  0  0  0  0
  -24.1835  -12.8504   19.5242 C   0  0  0  0  0  0  0  0  0  0  0  0
  -24.5040  -25.5775   16.4970 C   0  0  0  0  0  0  0  0  0  0  0  0
  -24.0026   -9.0230   20.1746 C   0  0  0  0  0  0  0  0  0  0  0  0
  -24.2085   -7.6928   20.5403 C   0  0  0  0  0  0  0  0  0  0  0  0
  -25.2199  -23.6174   17.7072 C   0  0  0  0  0  0  0  0  0  0  0  0
  -22.5345   -7.9090   22.2689 C   0  0  0  0  0  0  0  0  0  0  0  0
  -26.0946  -13.7056   20.7297 C   0  0  0  0  0  0  0  0  0  0  0  0
  -28.5330  -14.3646   20.3727 C   0  0  0  0  0  0  0  0  0  0  0  0
  -18.9583  -26.7804   23.5293 C   0  0  0  0  0  0  0  0  0  0  0  0
  -22.9131  -24.3374   17.8483 C   0  0  0  0  0  0  0  0  0  0  0  0
  -20.0634  -26.7657   22.6569 C   0  0  0  0  0  0  0  0  0  0  0  0
  -23.9207  -23.4292   18.2030 C   0  0  0  0  0  0  0  0  0  0  0  0
  -30.1437  -24.0311   19.6188 C   0  0  0  0  0  0  0  0  0  0  0  0
  -29.2168  -25.5332   17.4585 C   0  0  0  0  0  0  0  0  0  0  0  0
  -23.9200  -11.9655   20.5698 C   0  0  0  0  0  0  0  0  0  0  0  0
  -25.5098  -24.6868   16.8603 C   0  0  0  0  0  0  0  0  0  0  0  0
  -23.0628   -9.7963   20.8561 C   0  0  0  0  0  0  0  0  0  0  0  0
  -23.4744   -7.1358   21.5874 C   0  0  0  0  0  0  0  0  0  0  0  0
  -22.3287   -9.2393   21.9032 C   0  0  0  0  0  0  0  0  0  0  0  0
  -29.2375  -25.0703   19.8296 C   0  0  0  0  0  0  0  0  0  0  0  0
  -28.7741  -25.8214   18.7495 C   0  0  0  0  0  0  0  0  0  0  0  0
  -27.2173  -14.6049   20.8120 C   0  0  0  0  0  0  0  0  0  0  0  0
  -29.2123  -15.5194   20.6751 C   0  0  0  0  0  0  0  0  0  0  0  0
  -29.0912  -13.2015   19.7471 C   0  0  0  0  0  0  0  0  0  0  0  0
  -21.8654  -24.1003   20.8400 C   0  0  0  0  0  0  0  0  0  0  0  0
  -21.7652  -20.9342   20.1414 C   0  0  0  0  0  0  0  0  0  0  0  0
  -22.9149  -18.3512   18.2300 C   0  0  0  0  0  0  0  0  0  0  0  0
  -29.5576  -20.9808   20.6480 C   0  0  0  0  0  0  0  0  0  0  0  0
  -18.7363  -25.6895   24.5468 C   0  0  0  0  0  0  0  0  0  0  0  0
  -21.5062  -24.1466   18.3450 C   0  0  0  0  0  0  0  0  0  0  0  0
  -23.6493  -22.2582   19.1106 C   0  0  0  0  0  0  0  0  0  0  0  0
  -19.5199  -24.4131   24.2521 C   0  0  0  0  0  0  0  0  0  0  0  0
  -27.8508  -19.5049   23.4775 C   0  0  0  0  0  0  0  0  0  0  0  0
  -20.9665  -24.7442   23.8993 C   0  0  0  0  0  0  0  0  0  0  0  0
  -27.6433  -18.0691   22.9923 C   0  0  0  0  0  0  0  0  0  0  0  0
  -27.6829  -20.5037   22.3363 C   0  0  0  0  0  0  0  0  0  0  0  0
  -28.3551  -18.8139   20.6732 C   0  0  0  0  0  0  0  0  0  0  0  0
  -21.0419  -25.6115   22.6369 C   0  0  1  0  0  0  0  0  0  0  0  0
  -21.4319  -23.3248   19.6282 C   0  0  1  0  0  0  0  0  0  0  0  0
  -28.5338  -17.7544   21.7758 C   0  0  2  0  0  0  0  0  0  0  0  0
  -30.5332  -28.1980   16.5654 C   0  0  0  0  0  0  0  0  0  0  0  0
  -22.6751  -15.8728   17.9178 C   0  0  0  0  0  0  0  0  0  0  0  0
  -29.3509  -25.8473   14.8936 C   0  0  0  0  0  0  0  0  0  0  0  0
  -23.4630  -20.4587   22.6316 C   0  0  0  0  0  0  0  0  0  0  0  0
  -23.9773  -18.1692   21.7587 C   0  0  0  0  0  0  0  0  0  0  0  0
  -21.6231  -18.7994   22.2909 C   0  0  0  0  0  0  0  0  0  0  0  0
  -21.9442  -18.6779   15.4533 C   0  0  0  0  0  0  0  0  0  0  0  0
  -30.6700  -23.1968   20.7428 C   0  0  0  0  0  0  0  0  0  0  0  0
  -29.0556  -27.8527   16.4017 C   0  0  0  0  0  0  0  0  0  0  0  0
  -27.1897  -26.1926   16.1076 C   0  0  0  0  0  0  0  0  0  1  0  0
  -22.7381  -19.7848   20.2470 C   0  0  1  0  0  0  0  0  0  0  0  0
  -22.1863  -17.2466   17.4860 C   0  0  2  0  0  0  0  0  0  0  0  0
  -28.7354  -26.3328   16.2307 C   0  0  2  0  0  0  0  0  0  0  0  0
  -22.9563  -19.3261   21.7165 C   0  0  0  0  0  0  0  0  0  0  0  0
  -27.0675  -15.8171   21.3525 N   0  0  0  0  0  0  0  0  0  0  0  0
  -28.2979  -16.3488   21.2549 N   0  0  0  0  0  0  0  0  0  0  0  0
  -22.2593  -22.1178   19.5752 N   0  0  0  0  0  0  0  0  0  0  0  0
  -28.5715  -20.1584   21.2178 N   0  0  0  0  0  0  0  0  0  0  0  0
  -30.4966  -15.8961   20.4990 N   0  0  0  0  0  0  0  0  0  0  0  0
  -28.2531  -12.1037   19.5092 N   0  0  0  0  0  0  0  0  0  0  0  0
  -20.8450  -24.8008   21.4543 N   0  0  0  0  0  0  0  0  0  0  0  0
  -22.2326  -18.7396   19.3636 N   0  0  0  0  0  0  0  0  0  0  0  0
  -29.6941  -22.2410   21.2172 N   0  0  0  0  0  0  0  0  0  0  0  0
  -22.4016  -17.3819   16.0175 N   0  3  0  0  0  0  0  0  0  0  0  0
  -30.3012  -13.1315   19.4240 O   0  0  0  0  0  0  0  0  0  0  0  0
  -23.0385  -24.0645   21.1924 O   0  0  0  0  0  0  0  0  0  0  0  0
  -20.6073  -20.7850   20.5398 O   0  0  0  0  0  0  0  0  0  0  0  0
  -23.9842  -18.8199   17.8462 O   0  0  0  0  0  0  0  0  0  0  0  0
  -30.2682  -20.6169   19.7047 O   0  0  0  0  0  0  0  0  0  0  0  0
  -22.8590  -11.1165   20.4913 O   0  0  0  0  0  0  0  0  0  0  0  0
  -26.7739  -24.8561   16.3856 O   0  0  0  0  0  0  0  0  0  1  0  0
  -23.6711   -5.8579   21.9375 F   0  0  0  0  0  0  0  0  0  0  0  0
  -21.4235   -9.9768   22.5609 F   0  0  0  0  0  0  0  0  0  0  0  0
  -28.7066  -25.4028   21.4485 Cl  0  0  0  0  0  0  0  0  0  0  0  0
  -27.6462  -27.1211   18.9773 Cl  0  0  0  0  0  0  0  0  0  0  0  0
  1  2  1  0  0  0  0
  1  5  2  0  0  0  0
  2  6  2  0  0  0  0
  3 10  2  0  0  0  0
  3 17  1  0  0  0  0
  4 11  1  0  0  0  0
  4 17  2  0  0  0  0
  5 19  1  0  0  0  0
  6 21  1  0  0  0  0
  7 12  2  0  0  0  0
  7 20  1  0  0  0  0
  8  9  2  0  0  0  0
  8 23  1  0  0  0  0
  9 24  1  0  0  0  0
 10 25  1  0  0  0  0
 11 25  2  0  0  0  0
 12 26  1  0  0  0  0
 13 14  2  0  0  0  0
 13 27  1  0  0  0  0
 14 28  1  0  0  0  0
 15 22  1  0  0  0  0
 15 26  2  0  0  0  0
 16 28  2  0  0  0  0
 16 29  1  0  0  0  0
 17 32  1  0  0  0  0
 18 32  1  0  0  0  0
 18 33  2  0  0  0  0
 18 34  1  0  0  0  0
 19 21  2  0  0  0  0
 19 39  1  0  0  0  0
 20 22  2  0  0  0  0
 20 40  1  0  0  0  0
 21 48  1  0  0  0  0
 22 41  1  0  0  0  0
 23 30  2  0  0  0  0
 23 58  1  0  0  0  0
 24 31  2  0  0  0  0
 24 63  1  0  0  0  0
 25 80  1  0  0  0  0
 26 81  1  0  0  0  0
 27 29  2  0  0  0  0
 27 80  1  0  0  0  0
 28 82  1  0  0  0  0
 29 83  1  0  0  0  0
 30 31  1  0  0  0  0
 30 84  1  0  0  0  0
 31 85  1  0  0  0  0
 32 65  2  0  0  0  0
 33 66  1  0  0  0  0
 33 69  1  0  0  0  0
 34 70  1  0  0  0  0
 34 75  2  0  0  0  0
 35 49  1  0  0  0  0
 35 71  1  0  0  0  0
 35 76  2  0  0  0  0
 36 61  1  0  0  0  0
 36 67  1  0  0  0  0
 36 77  2  0  0  0  0
 37 62  1  0  0  0  0
 37 72  1  0  0  0  0
 37 78  2  0  0  0  0
 38 68  1  0  0  0  0
 38 73  1  0  0  0  0
 38 79  2  0  0  0  0
 39 42  1  0  0  0  0
 40 49  1  0  0  0  0
 41 67  1  0  0  0  0
 42 44  1  0  0  0  0
 43 45  1  0  0  0  0
 43 46  1  0  0  0  0
 44 48  1  0  0  0  0
 45 50  1  0  0  0  0
 46 68  1  0  0  0  0
 47 50  1  0  0  0  0
 47 68  1  0  0  0  0
 48 71  1  0  0  0  0
 49 67  1  0  0  0  0
 50 66  1  0  0  0  0
 51 59  1  0  0  0  0
 52 62  1  0  0  0  0
 53 63  1  0  0  0  0
 54 64  1  0  0  0  0
 55 64  1  0  0  0  0
 56 64  1  0  0  0  0
 57 74  1  0  0  0  0
 58 73  1  0  0  0  0
 59 63  1  0  0  0  0
 60 63  1  0  0  0  0
 60 81  1  0  0  0  0
 61 64  1  0  0  0  0
 61 72  1  0  0  0  0
 62 74  1  0  0  0  0
 65 66  1  0  0  0  0
M  CHG  1  74   1
M  ISO  4  38 100  60 101  73 100  81 101
M  END
> <Batch ID>
0022

> <Smiles>
CCC(C)(c1ccc(C[100NH:0][100C:0](=O)N2CCCC(n3nc(-c4ccc(Oc5ccc(F)cc5F)cc4)c(C(N)=O)c3N)C2)c(Cl)c1Cl)[101CH2:1][101O:1]c1ccc2c(c1)CN(C(=O)C(NC(=O)C(C)NC)C(C)(C)C)C(C(=O)NC1CCCc3ccccc31)C2

> <Shape>
0.205

> <Color>
0.054

> <Negative vol penalty>
0.000

$$$$

  -OEChem-04052316153D

 88 97  0     1  0  0  0  0  0999 V2000
  -40.1042  -23.4177   18.7604 C   0  0  0  0  0  0  0  0  0  0  0  0
  -39.4814  -23.0009   19.9326 C   0  0  0  0  0  0  0  0  0  0  0  0
  -23.0735   -9.8723   19.9404 C   0  0  0  0  0  0  0  0  0  0  0  0
  -23.8368   -9.8771   22.2327 C   0  0  0  0  0  0  0  0  0  0  0  0
  -39.4773  -24.3476   17.9320 C   0  0  0  0  0  0  0  0  0  0  0  0
  -38.2319  -23.5148   20.2776 C   0  0  0  0  0  0  0  0  0  0  0  0
  -33.7010  -20.5595   23.1488 C   0  0  0  0  0  0  0  0  0  0  0  0
  -22.3304   -8.7187   20.1903 C   0  0  0  0  0  0  0  0  0  0  0  0
  -23.0936   -8.7235   22.4826 C   0  0  0  0  0  0  0  0  0  0  0  0
  -33.2929  -20.5364   24.4817 C   0  0  0  0  0  0  0  0  0  0  0  0
  -19.3845   -7.9196   21.6451 C   0  0  0  0  0  0  0  0  0  0  0  0
  -18.0770   -7.8734   21.1617 C   0  0  0  0  0  0  0  0  0  0  0  0
  -31.6401  -22.2257   23.9986 C   0  0  0  0  0  0  0  0  0  0  0  0
  -29.4715  -18.4884   23.2470 C   0  0  0  0  0  0  0  0  0  0  0  0
  -18.6353   -5.9319   19.8366 C   0  0  0  0  0  0  0  0  0  0  0  0
  -23.8268  -10.4515   20.9616 C   0  0  0  0  0  0  0  0  0  0  0  0
  -24.1676  -12.9769   20.8437 C   0  0  0  0  0  0  0  0  0  0  0  0
  -38.2151  -24.8658   18.2622 C   0  0  0  0  0  0  0  0  0  0  0  0
  -33.0880  -21.4252   22.2316 C   0  0  0  0  0  0  0  0  0  0  0  0
  -37.5882  -24.4535   19.4535 C   0  0  0  0  0  0  0  0  0  0  0  0
  -32.0405  -22.2560   22.6540 C   0  0  0  0  0  0  0  0  0  0  0  0
  -30.3359  -17.3940   23.2285 C   0  0  0  0  0  0  0  0  0  0  0  0
  -29.3991  -18.3907   25.6599 C   0  0  0  0  0  0  0  0  0  0  0  0
  -22.3404   -8.1442   21.4613 C   0  0  0  0  0  0  0  0  0  0  0  0
  -32.2643  -21.3717   24.9074 C   0  0  0  0  0  0  0  0  0  0  0  0
  -20.3176   -6.9719   21.2242 C   0  0  0  0  0  0  0  0  0  0  0  0
  -17.7023   -6.8796   20.2575 C   0  0  0  0  0  0  0  0  0  0  0  0
  -19.9430   -5.9781   20.3200 C   0  0  0  0  0  0  0  0  0  0  0  0
  -29.0031  -18.9869   24.4627 C   0  0  0  0  0  0  0  0  0  0  0  0
  -30.7320  -16.7978   24.4258 C   0  0  0  0  0  0  0  0  0  0  0  0
  -30.2636  -17.2962   25.6415 C   0  0  0  0  0  0  0  0  0  0  0  0
  -24.5951  -11.6429   20.7040 C   0  0  0  0  0  0  0  0  0  0  0  0
  -25.2590  -13.7271   20.4796 C   0  0  0  0  0  0  0  0  0  0  0  0
  -22.8976  -13.4919   21.2651 C   0  0  0  0  0  0  0  0  0  0  0  0
  -34.0763  -23.8518   20.4320 C   0  0  0  0  0  0  0  0  0  0  0  0
  -31.0605  -23.6931   19.2477 C   0  0  0  0  0  0  0  0  0  0  0  0
  -27.8106  -22.7612   19.7129 C   0  0  0  0  0  0  0  0  0  0  0  0
  -30.7427  -14.7477   20.6609 C   0  0  0  0  0  0  0  0  0  0  0  0
  -37.5981  -25.9045   17.3593 C   0  0  0  0  0  0  0  0  0  0  0  0
  -33.5218  -21.4188   20.7914 C   0  0  0  0  0  0  0  0  0  0  0  0
  -31.3362  -23.1891   21.7045 C   0  0  0  0  0  0  0  0  0  0  0  0
  -36.1071  -26.1186   17.6072 C   0  0  0  0  0  0  0  0  0  0  0  0
  -29.6023  -12.3654   18.2733 C   0  0  0  0  0  0  0  0  0  0  0  0
  -29.5937  -21.1978   29.5598 C   0  0  0  0  0  0  0  0  0  0  0  0
  -35.8276  -26.2485   19.1012 C   0  0  0  0  0  0  0  0  0  0  0  0
  -28.1656  -12.0707   18.7081 C   0  0  0  0  0  0  0  0  0  0  0  0
  -31.0053  -21.1518   29.0096 C   0  0  0  0  0  0  0  0  0  0  0  0
  -30.5211  -12.5852   19.4731 C   0  0  0  0  0  0  0  0  0  0  0  0
  -28.6212  -13.3142   20.8633 C   0  0  0  0  0  0  0  0  0  0  0  0
  -28.7234  -21.0525   28.3264 C   0  0  0  0  0  0  0  0  0  0  0  0
  -36.2217  -24.9693   19.8494 C   0  0  1  0  0  0  0  0  0  0  0  0
  -33.1743  -22.7101   20.0570 C   0  0  1  0  0  0  0  0  0  0  0  0
  -27.6454  -13.1406   19.6869 C   0  0  2  0  0  0  0  0  0  0  0  0
  -30.9276  -20.0347   27.9796 C   0  0  2  0  0  0  0  0  0  0  0  0
  -25.5702  -22.7964   18.5829 C   0  0  0  0  0  0  0  0  0  0  0  0
  -30.7865  -26.6636   19.8889 C   0  0  0  0  0  0  0  0  0  0  0  0
  -28.3072  -26.4167   19.6432 C   0  0  0  0  0  0  0  0  0  0  0  0
  -29.8020  -25.9746   17.6956 C   0  0  0  0  0  0  0  0  0  0  0  0
  -27.6291  -19.8073   19.7239 C   0  0  0  0  0  0  0  0  0  0  0  0
  -30.8097  -16.8970   21.9000 C   0  0  0  0  0  0  0  0  0  0  0  0
  -28.8896  -18.9341   26.9622 C   0  0  0  0  0  0  0  0  0  0  0  0
  -32.0018  -20.1173   26.9108 C   0  0  0  0  0  0  0  0  0  1  0  0
  -29.7361  -24.3219   19.6078 C   0  0  1  0  0  0  0  0  0  0  0  0
  -26.8437  -22.0007   18.8235 C   0  0  2  0  0  0  0  0  0  0  0  0
  -29.6723  -25.8281   19.2274 C   0  0  0  0  0  0  0  0  0  0  0  0
  -25.8593  -11.5479   20.2837 N   0  0  0  0  0  0  0  0  0  0  0  0
  -26.2356  -12.8318   20.1562 N   0  0  0  0  0  0  0  0  0  0  0  0
  -31.8007  -23.1509   20.3079 N   0  0  0  0  0  0  0  0  0  0  0  0
  -29.9716  -13.6126   20.3610 N   0  0  0  0  0  0  0  0  0  0  0  0
  -25.4688  -15.0587   20.4077 N   0  0  0  0  0  0  0  0  0  0  0  0
  -21.8865  -12.5820   21.6029 N   0  0  0  0  0  0  0  0  0  0  0  0
  -35.2186  -23.9435   19.6598 N   0  0  0  0  0  0  0  0  0  0  0  0
  -28.7093  -23.5017   18.9744 N   0  0  0  0  0  0  0  0  0  0  0  0
  -30.1445  -15.6755   21.5048 N   0  0  0  0  0  0  0  0  0  0  0  0
  -29.5488  -20.2194   27.3602 N   0  3  1  0  0  0  0  0  0  0  0  0
  -26.4740  -20.7012   19.4525 N   0  3  0  0  0  0  0  0  0  0  0  0
  -22.6610  -14.7223   21.3241 O   0  0  0  0  0  0  0  0  0  0  0  0
  -33.7586  -24.5955   21.3527 O   0  0  0  0  0  0  0  0  0  0  0  0
  -31.4216  -23.6771   18.0684 O   0  0  0  0  0  0  0  0  0  0  0  0
  -27.7702  -22.7071   20.9401 O   0  0  0  0  0  0  0  0  0  0  0  0
  -31.8779  -14.9241   20.2058 O   0  0  0  0  0  0  0  0  0  0  0  0
  -21.6152   -7.0186   21.7056 O   0  0  0  0  0  0  0  0  0  0  0  0
  -31.8644  -21.3516   26.2080 O   0  0  0  0  0  0  0  0  0  1  0  0
  -16.4462   -6.8345   19.7946 F   0  0  0  0  0  0  0  0  0  0  0  0
  -20.8346   -5.0643   19.9128 F   0  0  0  0  0  0  0  0  0  0  0  0
  -27.9357  -20.3443   24.4384 Cl  0  0  0  0  0  0  0  0  0  0  0  0
  -31.8079  -15.4364   24.3668 Cl  0  0  0  0  0  0  0  0  0  0  0  0
  -30.7414  -16.5716   27.1463 Cl  0  0  0  0  0  0  0  0  0  0  0  0
  1  2  1  0  0  0  0
  1  5  2  0  0  0  0
  2  6  2  0  0  0  0
  3  8  2  0  0  0  0
  3 16  1  0  0  0  0
  4  9  1  0  0  0  0
  4 16  2  0  0  0  0
  5 18  1  0  0  0  0
  6 20  1  0  0  0  0
  7 10  2  0  0  0  0
  7 19  1  0  0  0  0
  8 24  1  0  0  0  0
  9 24  2  0  0  0  0
 10 25  1  0  0  0  0
 11 12  2  0  0  0  0
 11 26  1  0  0  0  0
 12 27  1  0  0  0  0
 13 21  1  0  0  0  0
 13 25  2  0  0  0  0
 14 22  1  0  0  0  0
 14 29  2  0  0  0  0
 15 27  2  0  0  0  0
 15 28  1  0  0  0  0
 16 32  1  0  0  0  0
 17 32  1  0  0  0  0
 17 33  2  0  0  0  0
 17 34  1  0  0  0  0
 18 20  2  0  0  0  0
 18 39  1  0  0  0  0
 19 21  2  0  0  0  0
 19 40  1  0  0  0  0
 20 51  1  0  0  0  0
 21 41  1  0  0  0  0
 22 30  2  0  0  0  0
 22 60  1  0  0  0  0
 23 29  1  0  0  0  0
 23 31  2  0  0  0  0
 23 61  1  0  0  0  0
 24 82  1  0  0  0  0
 25 83  1  0  0  0  0
 26 28  2  0  0  0  0
 26 82  1  0  0  0  0
 27 84  1  0  0  0  0
 28 85  1  0  0  0  0
 29 86  1  0  0  0  0
 30 31  1  0  0  0  0
 30 87  1  0  0  0  0
 31 88  1  0  0  0  0
 32 66  2  0  0  0  0
 33 67  1  0  0  0  0
 33 70  1  0  0  0  0
 34 71  1  0  0  0  0
 34 77  2  0  0  0  0
 35 52  1  0  0  0  0
 35 72  1  0  0  0  0
 35 78  2  0  0  0  0
 36 63  1  0  0  0  0
 36 68  1  0  0  0  0
 36 79  2  0  0  0  0
 37 64  1  0  0  0  0
 37 73  1  0  0  0  0
 37 80  2  0  0  0  0
 38 69  1  0  0  0  0
 38 74  1  0  0  0  0
 38 81  2  0  0  0  0
 39 42  1  0  0  0  0
 40 52  1  0  0  0  0
 41 68  1  0  0  0  0
 42 45  1  0  0  0  0
 43 46  1  0  0  0  0
 43 48  1  0  0  0  0
 44 47  1  0  0  0  0
 44 50  1  0  0  0  0
 45 51  1  0  0  0  0
 46 53  1  0  0  0  0
 47 54  1  0  0  0  0
 48 69  1  0  0  0  0
 49 53  1  0  0  0  0
 49 69  1  0  0  0  0
 50 75  1  0  0  0  0
 51 72  1  0  0  0  0
 52 68  1  0  0  0  0
 53 67  1  0  0  0  0
 54 62  1  0  0  0  0
 54 75  1  0  0  0  0
 55 64  1  0  0  0  0
 56 65  1  0  0  0  0
 57 65  1  0  0  0  0
 58 65  1  0  0  0  0
 59 76  1  0  0  0  0
 60 74  1  0  0  0  0
 61 75  1  0  0  0  0
 62 83  1  0  0  0  0
 63 65  1  0  0  0  0
 63 73  1  0  0  0  0
 64 76  1  0  0  0  0
 66 67  1  0  0  0  0
M  CHG  2  75   1  76   1
M  ISO  4  38 100  62 101  74 100  83 101
M  END
> <Batch ID>
0022

> <Smiles>
CNC(C)C(=O)NC(C(=O)N1Cc2cc([101O:1][101CH2:1]C3CCCN3Cc3c(Cl)cc(C[100NH:0][100C:0](=O)N4CCCC(n5nc(-c6ccc(Oc7ccc(F)cc7F)cc6)c(C(N)=O)c5N)C4)c(Cl)c3Cl)ccc2CC1C(=O)NC1CCCc2ccccc21)C(C)(C)C

> <Shape>
0.208

> <Color>
0.188

> <Negative vol penalty>
0.000

$$$$

  -OEChem-04052316153D

 96104  0     1  0  0  0  0  0999 V2000
  -29.2393  -22.7376   26.1972 C   0  0  0  0  0  0  0  0  0  0  0  0
  -29.1543  -23.2792   24.9186 C   0  0  0  0  0  0  0  0  0  0  0  0
  -23.0020   -9.8939   19.9799 C   0  0  0  0  0  0  0  0  0  0  0  0
  -23.7328   -9.9415   22.2823 C   0  0  0  0  0  0  0  0  0  0  0  0
  -28.8413  -21.4206   26.4230 C   0  0  0  0  0  0  0  0  0  0  0  0
  -28.6722  -22.5037   23.8648 C   0  0  0  0  0  0  0  0  0  0  0  0
  -25.3700  -25.0126   20.9585 C   0  0  0  0  0  0  0  0  0  0  0  0
  -22.2380   -8.7577   20.2459 C   0  0  0  0  0  0  0  0  0  0  0  0
  -22.9688   -8.8052   22.5483 C   0  0  0  0  0  0  0  0  0  0  0  0
  -25.8928  -25.9223   20.0404 C   0  0  0  0  0  0  0  0  0  0  0  0
  -23.2173   -5.4676   22.0691 C   0  0  0  0  0  0  0  0  0  0  0  0
  -23.8083   -4.4499   22.8177 C   0  0  0  0  0  0  0  0  0  0  0  0
  -25.6331  -24.2895   18.2838 C   0  0  0  0  0  0  0  0  0  0  0  0
  -30.5488  -27.1007   18.3180 C   0  0  0  0  0  0  0  0  0  0  0  0
  -32.0507  -26.0205   16.7643 C   0  0  0  0  0  0  0  0  0  0  0  0
  -22.0882   -4.6867   24.4977 C   0  0  0  0  0  0  0  0  0  0  0  0
  -23.7495  -10.4858   20.9981 C   0  0  0  0  0  0  0  0  0  0  0  0
  -24.1304  -13.0024   20.8262 C   0  0  0  0  0  0  0  0  0  0  0  0
  -28.3450  -20.6316   25.3733 C   0  0  0  0  0  0  0  0  0  0  0  0
  -24.9844  -23.7286   20.5475 C   0  0  0  0  0  0  0  0  0  0  0  0
  -28.2684  -21.1744   24.0765 C   0  0  0  0  0  0  0  0  0  0  0  0
  -25.1034  -23.3662   19.1982 C   0  0  0  0  0  0  0  0  0  0  0  0
  -31.1552  -27.0474   17.0630 C   0  0  0  0  0  0  0  0  0  0  0  0
  -31.7335  -25.1004   18.9756 C   0  0  0  0  0  0  0  0  0  0  0  0
  -22.2213   -8.2133   21.5301 C   0  0  0  0  0  0  0  0  0  0  0  0
  -26.0271  -25.5598   18.7034 C   0  0  0  0  0  0  0  0  0  0  0  0
  -22.0617   -6.0950   22.5348 C   0  0  0  0  0  0  0  0  0  0  0  0
  -23.2438   -4.0594   24.0320 C   0  0  0  0  0  0  0  0  0  0  0  0
  -21.4972   -5.7045   23.7490 C   0  0  0  0  0  0  0  0  0  0  0  0
  -30.8380  -26.1273   19.2744 C   0  0  0  0  0  0  0  0  0  0  0  0
  -32.3399  -25.0470   17.7206 C   0  0  0  0  0  0  0  0  0  0  0  0
  -24.5394  -11.6593   20.7239 C   0  0  0  0  0  0  0  0  0  0  0  0
  -25.2381  -13.7275   20.4605 C   0  0  0  0  0  0  0  0  0  0  0  0
  -22.8625  -13.5460   21.2169 C   0  0  0  0  0  0  0  0  0  0  0  0
  -25.9113  -20.7726   21.2594 C   0  0  0  0  0  0  0  0  0  0  0  0
  -23.3945  -19.9497   19.3857 C   0  0  0  0  0  0  0  0  0  0  0  0
  -21.2517  -20.8070   16.8718 C   0  0  0  0  0  0  0  0  0  0  0  0
  -30.7335  -14.6704   20.6973 C   0  0  0  0  0  0  0  0  0  0  0  0
  -27.9713  -19.1981   25.6566 C   0  0  0  0  0  0  0  0  0  0  0  0
  -24.3974  -22.7682   21.5453 C   0  0  0  0  0  0  0  0  0  0  0  0
  -24.6851  -22.0070   18.7023 C   0  0  0  0  0  0  0  0  0  0  0  0
  -27.1201  -18.5625   24.5603 C   0  0  0  0  0  0  0  0  0  0  0  0
  -29.5909  -12.2496   18.3498 C   0  0  0  0  0  0  0  0  0  0  0  0
  -27.7083  -18.8640   23.1856 C   0  0  0  0  0  0  0  0  0  0  0  0
  -28.1439  -11.9867   18.7704 C   0  0  0  0  0  0  0  0  0  0  0  0
  -30.4959  -12.4840   19.5573 C   0  0  0  0  0  0  0  0  0  0  0  0
  -28.5879  -13.2738   20.9023 C   0  0  0  0  0  0  0  0  0  0  0  0
  -27.7275  -20.3728   22.9125 C   0  0  1  0  0  0  0  0  0  0  0  0
  -24.5159  -21.3101   21.1123 C   0  0  1  0  0  0  0  0  0  0  0  0
  -27.6262  -13.0869   19.7163 C   0  0  2  0  0  0  0  0  0  0  0  0
  -32.8814  -29.6047   16.6293 C   0  0  0  0  0  0  0  0  0  0  0  0
  -19.3253  -19.9131   15.5347 C   0  0  0  0  0  0  0  0  0  0  0  0
  -29.8264  -29.1368   16.5817 C   0  0  0  0  0  0  0  0  0  0  0  0
  -25.3194  -18.2099   17.7801 C   0  0  0  0  0  0  0  0  0  0  0  0
  -23.6044  -18.1155   15.9585 C   0  0  0  0  0  0  0  0  0  0  0  0
  -23.0848  -17.1719   18.2084 C   0  0  0  0  0  0  0  0  0  0  0  0
  -28.3058  -26.3750   13.8169 C   0  0  0  0  0  0  0  0  0  0  0  0
  -29.9730  -25.2055   15.2885 C   0  0  0  0  0  0  0  0  0  0  0  0
  -19.4511  -22.9605   17.8093 C   0  0  0  0  0  0  0  0  0  0  0  0
  -32.0447  -24.0552   20.0030 C   0  0  0  0  0  0  0  0  0  0  0  0
  -32.1128  -28.8686   15.5347 C   0  0  0  0  0  0  0  0  0  0  0  0
  -31.3018  -19.2696   21.2889 C   0  0  0  0  0  0  0  0  0  0  0  0
  -30.5664  -17.9837   20.9001 C   0  0  0  0  0  0  0  0  0  0  0  0
  -31.0216  -20.3931   20.2891 C   0  0  0  0  0  0  0  0  0  0  0  0
  -28.3303  -26.9015   16.2795 C   0  0  0  0  0  0  0  0  0  0  0  0
  -30.8157  -16.8471   21.8866 C   0  0  0  0  0  0  0  0  0  0  0  0
  -31.7258  -21.6778   20.6995 C   0  0  0  0  0  0  0  0  0  0  0  0
  -27.2503  -25.9052   16.6933 C   0  0  0  0  0  0  0  0  0  1  0  0
  -23.2011  -19.6801   17.9130 C   0  0  1  0  0  0  0  0  0  0  0  0
  -19.7407  -20.7124   16.7600 C   0  0  2  0  0  0  0  0  0  0  0  0
  -30.8367  -28.1215   16.0084 C   0  0  1  0  0  0  0  0  0  0  0  0
  -23.8122  -18.3194   17.4744 C   0  0  0  0  0  0  0  0  0  0  0  0
  -29.1884  -26.4998   15.0640 C   0  0  0  0  0  0  0  0  0  0  0  0
  -25.8079  -11.5356   20.3243 N   0  0  0  0  0  0  0  0  0  0  0  0
  -26.2055  -12.8103   20.1722 N   0  0  0  0  0  0  0  0  0  0  0  0
  -24.1227  -21.1010   19.7174 N   0  0  0  0  0  0  0  0  0  0  0  0
  -29.9496  -13.5401   20.4128 N   0  0  0  0  0  0  0  0  0  0  0  0
  -25.4692  -15.0538   20.3605 N   0  0  0  0  0  0  0  0  0  0  0  0
  -21.8330  -12.6595   21.5612 N   0  0  0  0  0  0  0  0  0  0  0  0
  -26.4062  -20.8373   22.5480 N   0  0  0  0  0  0  0  0  0  0  0  0
  -21.7694  -19.8013   17.6604 N   0  0  0  0  0  0  0  0  0  0  0  0
  -30.1376  -15.6266   21.5105 N   0  0  0  0  0  0  0  0  0  0  0  0
  -19.1427  -22.0736   16.6580 N   0  3  0  0  0  0  0  0  0  0  0  0
  -31.3887  -22.7505   19.7261 N   0  3  0  0  0  0  0  0  0  0  0  0
  -30.1821  -27.5874   14.7905 N   0  3  0  0  0  0  0  0  0  0  0  0
  -22.6439  -14.7809   21.2437 O   0  0  0  0  0  0  0  0  0  0  0  0
  -26.4952  -20.3305   20.2769 O   0  0  0  0  0  0  0  0  0  0  0  0
  -22.9109  -19.1713   20.2116 O   0  0  0  0  0  0  0  0  0  0  0  0
  -21.9075  -21.6829   16.3122 O   0  0  0  0  0  0  0  0  0  0  0  0
  -31.8776  -14.8190   20.2547 O   0  0  0  0  0  0  0  0  0  0  0  0
  -21.4757   -7.1047   21.7900 O   0  0  0  0  0  0  0  0  0  0  0  0
  -26.5377  -26.4456   17.8053 O   0  0  0  0  0  0  0  0  0  1  0  0
  -23.8106   -3.0810   24.7500 F   0  0  0  0  0  0  0  0  0  0  0  0
  -20.3864   -6.3027   24.2010 F   0  0  0  0  0  0  0  0  0  0  0  0
  -30.0653  -26.2317   20.8154 Cl  0  0  0  0  0  0  0  0  0  0  0  0
  -33.4550  -23.7941   17.3091 Cl  0  0  0  0  0  0  0  0  0  0  0  0
  1  2  1  0  0  0  0
  1  5  2  0  0  0  0
  2  6  2  0  0  0  0
  3  8  2  0  0  0  0
  3 17  1  0  0  0  0
  4  9  1  0  0  0  0
  4 17  2  0  0  0  0
  5 19  1  0  0  0  0
  6 21  1  0  0  0  0
  7 10  2  0  0  0  0
  7 20  1  0  0  0  0
  8 25  1  0  0  0  0
  9 25  2  0  0  0  0
 10 26  1  0  0  0  0
 11 12  2  0  0  0  0
 11 27  1  0  0  0  0
 12 28  1  0  0  0  0
 13 22  1  0  0  0  0
 13 26  2  0  0  0  0
 14 23  1  0  0  0  0
 14 30  2  0  0  0  0
 15 23  2  0  0  0  0
 15 31  1  0  0  0  0
 16 28  2  0  0  0  0
 16 29  1  0  0  0  0
 17 32  1  0  0  0  0
 18 32  1  0  0  0  0
 18 33  2  0  0  0  0
 18 34  1  0  0  0  0
 19 21  2  0  0  0  0
 19 39  1  0  0  0  0
 20 22  2  0  0  0  0
 20 40  1  0  0  0  0
 21 48  1  0  0  0  0
 22 41  1  0  0  0  0
 23 71  1  0  0  0  0
 24 30  1  0  0  0  0
 24 31  2  0  0  0  0
 24 60  1  0  0  0  0
 25 91  1  0  0  0  0
 26 92  1  0  0  0  0
 27 29  2  0  0  0  0
 27 91  1  0  0  0  0
 28 93  1  0  0  0  0
 29 94  1  0  0  0  0
 30 95  1  0  0  0  0
 31 96  1  0  0  0  0
 32 74  2  0  0  0  0
 33 75  1  0  0  0  0
 33 78  1  0  0  0  0
 34 79  1  0  0  0  0
 34 86  2  0  0  0  0
 35 49  1  0  0  0  0
 35 80  1  0  0  0  0
 35 87  2  0  0  0  0
 36 69  1  0  0  0  0
 36 76  1  0  0  0  0
 36 88  2  0  0  0  0
 37 70  1  0  0  0  0
 37 81  1  0  0  0  0
 37 89  2  0  0  0  0
 38 77  1  0  0  0  0
 38 82  1  0  0  0  0
 38 90  2  0  0  0  0
 39 42  1  0  0  0  0
 40 49  1  0  0  0  0
 41 76  1  0  0  0  0
 42 44  1  0  0  0  0
 43 45  1  0  0  0  0
 43 46  1  0  0  0  0
 44 48  1  0  0  0  0
 45 50  1  0  0  0  0
 46 77  1  0  0  0  0
 47 50  1  0  0  0  0
 47 77  1  0  0  0  0
 48 80  1  0  0  0  0
 49 76  1  0  0  0  0
 50 75  1  0  0  0  0
 51 61  1  0  0  0  0
 52 70  1  0  0  0  0
 53 71  1  0  0  0  0
 54 72  1  0  0  0  0
 55 72  1  0  0  0  0
 56 72  1  0  0  0  0
 57 73  1  0  0  0  0
 58 73  1  0  0  0  0
 59 83  1  0  0  0  0
 60 84  1  0  0  0  0
 61 71  1  0  0  0  0
 62 63  1  0  0  0  0
 62 64  1  0  0  0  0
 63 66  1  0  0  0  0
 64 67  1  0  0  0  0
 65 68  1  0  0  0  0
 65 73  1  0  0  0  0
 66 82  1  0  0  0  0
 67 84  1  0  0  0  0
 68 92  1  0  0  0  0
 69 72  1  0  0  0  0
 69 81  1  0  0  0  0
 70 83  1  0  0  0  0
 71 85  1  0  0  0  0
 73 85  1  0  0  0  0
 74 75  1  0  0  0  0
M  CHG  3  83   1  84   1  85   1
M  ISO  4  38 100  68 101  82 100  92 101
M  END
> <Batch ID>
0022

> <Smiles>
CCC(C)(NC(C)(C)C[101CH2:1][101O:1]c1ccc2c(c1)CN(C(=O)C(NC(=O)C(C)NC)C(C)(C)C)C(C(=O)NC1CCCc3ccccc31)C2)c1cc(Cl)c(CNCCCCC[100NH:0][100C:0](=O)N2CCCC(n3nc(-c4ccc(Oc5ccc(F)cc5F)cc4)c(C(N)=O)c3N)C2)c(Cl)c1

> <Shape>
0.213

> <Color>
0.182

> <Negative vol penalty>
0.000

$$$$

  -OEChem-04052316153D

 88 96  0     1  0  0  0  0  0999 V2000
  -21.0362  -30.0421   26.1020 C   0  0  0  0  0  0  0  0  0  0  0  0
  -21.4666  -28.9687   25.3287 C   0  0  0  0  0  0  0  0  0  0  0  0
  -30.6526  -19.7334   20.1091 C   0  0  0  0  0  0  0  0  0  0  0  0
  -28.3138  -19.2889   19.6975 C   0  0  0  0  0  0  0  0  0  0  0  0
  -20.9105  -31.3067   25.5285 C   0  0  0  0  0  0  0  0  0  0  0  0
  -21.7707  -29.1591   23.9812 C   0  0  0  0  0  0  0  0  0  0  0  0
  -26.0829  -26.8785   22.6216 C   0  0  0  0  0  0  0  0  0  0  0  0
  -30.5273  -20.9731   19.4822 C   0  0  0  0  0  0  0  0  0  0  0  0
  -28.1885  -20.5286   19.0706 C   0  0  0  0  0  0  0  0  0  0  0  0
  -26.0353  -25.5015   22.4088 C   0  0  0  0  0  0  0  0  0  0  0  0
  -30.7381  -24.4077   18.3099 C   0  0  0  0  0  0  0  0  0  0  0  0
  -31.3220  -25.5110   18.9321 C   0  0  0  0  0  0  0  0  0  0  0  0
  -25.9175  -25.8793   20.0292 C   0  0  0  0  0  0  0  0  0  0  0  0
  -22.3470  -13.2979   22.7356 C   0  0  0  0  0  0  0  0  0  0  0  0
  -29.9318  -25.1511   20.8751 C   0  0  0  0  0  0  0  0  0  0  0  0
  -29.5459  -18.8912   20.2167 C   0  0  0  0  0  0  0  0  0  0  0  0
  -30.0667  -17.3651   22.1934 C   0  0  0  0  0  0  0  0  0  0  0  0
  -21.2224  -31.5147   24.1757 C   0  0  0  0  0  0  0  0  0  0  0  0
  -26.0371  -27.7681   21.5385 C   0  0  0  0  0  0  0  0  0  0  0  0
  -21.6478  -30.4274   23.3888 C   0  0  0  0  0  0  0  0  0  0  0  0
  -25.9673  -27.2672   20.2308 C   0  0  0  0  0  0  0  0  0  0  0  0
  -23.2862  -12.4577   22.1480 C   0  0  0  0  0  0  0  0  0  0  0  0
  -23.6122  -12.6193   20.8060 C   0  0  0  0  0  0  0  0  0  0  0  0
  -29.2953  -21.3707   18.9630 C   0  0  0  0  0  0  0  0  0  0  0  0
  -25.9497  -25.0018   21.1127 C   0  0  0  0  0  0  0  0  0  0  0  0
  -29.7509  -23.6761   18.9702 C   0  0  0  0  0  0  0  0  0  0  0  0
  -30.9190  -25.8827   20.2147 C   0  0  0  0  0  0  0  0  0  0  0  0
  -29.3478  -24.0478   20.2528 C   0  0  0  0  0  0  0  0  0  0  0  0
  -29.6748  -17.6102   20.8637 C   0  0  0  0  0  0  0  0  0  0  0  0
  -21.7671  -14.2764   21.9443 C   0  0  0  0  0  0  0  0  0  0  0  0
  -22.9755  -13.6280   20.1010 C   0  0  0  0  0  0  0  0  0  0  0  0
  -30.0310  -15.9974   22.3153 C   0  0  0  0  0  0  0  0  0  0  0  0
  -30.4306  -18.2908   23.2260 C   0  0  0  0  0  0  0  0  0  0  0  0
  -24.0424  -30.0577   20.5992 C   0  0  0  0  0  0  0  0  0  0  0  0
  -26.3179  -30.5770   18.3465 C   0  0  0  0  0  0  0  0  0  0  0  0
  -28.9219  -29.3402   16.5199 C   0  0  0  0  0  0  0  0  0  0  0  0
  -26.9894  -11.7246   19.4268 C   0  0  0  0  0  0  0  0  0  0  0  0
  -21.0258  -32.8900   23.5886 C   0  0  0  0  0  0  0  0  0  0  0  0
  -26.1164  -29.2501   21.7834 C   0  0  0  0  0  0  0  0  0  0  0  0
  -25.9357  -28.1794   19.0328 C   0  0  0  0  0  0  0  0  0  0  0  0
  -21.7267  -33.0852   22.2466 C   0  0  0  0  0  0  0  0  0  0  0  0
  -30.5256  -11.9946   19.7417 C   0  0  0  0  0  0  0  0  0  0  0  0
  -21.4603  -31.8974   21.3274 C   0  0  0  0  0  0  0  0  0  0  0  0
  -30.7439  -13.4423   20.1849 C   0  0  0  0  0  0  0  0  0  0  0  0
  -29.3683  -11.8756   18.7525 C   0  0  0  0  0  0  0  0  0  0  0  0
  -28.3152  -13.9123   19.6563 C   0  0  0  0  0  0  0  0  0  0  0  0
  -22.0109  -30.5992   21.9298 C   0  0  1  0  0  0  0  0  0  0  0  0
  -25.5444  -30.0767   20.6358 C   0  0  1  0  0  0  0  0  0  0  0  0
  -29.4361  -14.0751   20.6972 C   0  0  2  0  0  0  0  0  0  0  0  0
  -23.9265  -11.3927   22.9761 C   0  0  0  0  0  0  0  0  0  0  0  0
  -30.8579  -29.3493   14.9233 C   0  0  0  0  0  0  0  0  0  0  0  0
  -24.1187  -30.3255   16.2465 C   0  0  0  0  0  0  0  0  0  0  0  0
  -25.9025  -30.0303   14.5146 C   0  0  0  0  0  0  0  0  0  0  0  0
  -25.7687  -32.1547   15.8152 C   0  0  0  0  0  0  0  0  0  0  0  0
  -30.8363  -30.0457   18.6637 C   0  0  0  0  0  0  0  0  0  0  0  0
  -24.6179  -11.7264   20.1585 C   0  0  0  0  0  0  0  0  0  0  0  0
  -20.7444  -15.2060   22.5476 C   0  0  0  0  0  0  0  0  0  0  0  0
  -21.3476  -16.4806   23.1506 C   0  0  0  0  0  0  0  0  0  0  0  0
  -22.1177  -17.3190   22.1244 C   0  0  0  0  0  0  0  0  0  0  0  0
  -22.7333  -18.5894   22.7193 C   0  0  0  0  0  0  0  0  0  0  0  0
  -23.4394  -19.4649   21.6815 C   0  0  0  0  0  0  0  0  0  0  0  0
  -24.0143  -20.7297   22.3234 C   0  0  0  0  0  0  0  0  0  0  0  0
  -24.6905  -21.6221   21.2849 C   0  0  0  0  0  0  0  0  0  0  0  0
  -25.3019  -22.8616   21.9226 C   0  0  0  0  0  0  0  0  0  1  0  0
  -26.5859  -30.0520   16.9567 C   0  0  1  0  0  0  0  0  0  0  0  0
  -30.3028  -29.8991   16.2280 C   0  0  2  0  0  0  0  0  0  0  0  0
  -25.5926  -30.6232   15.9057 C   0  0  0  0  0  0  0  0  0  0  0  0
  -29.4096  -16.4884   20.1891 N   0  0  0  0  0  0  0  0  0  0  0  0
  -22.0582  -14.4638   20.6375 N   0  0  0  0  0  0  0  0  0  0  0  0
  -29.6355  -15.5250   21.0985 N   0  0  0  0  0  0  0  0  0  0  0  0
  -26.0092  -29.6206   19.3242 N   0  0  0  0  0  0  0  0  0  0  0  0
  -28.1580  -12.4936   19.2995 N   0  0  0  0  0  0  0  0  0  0  0  0
  -30.2996  -15.1650   23.3435 N   0  0  0  0  0  0  0  0  0  0  0  0
  -29.4230  -18.7848   24.0658 N   0  0  0  0  0  0  0  0  0  0  0  0
  -23.4455  -30.5286   21.7531 N   0  0  0  0  0  0  0  0  0  0  0  0
  -27.9874  -30.3423   16.6738 N   0  0  0  0  0  0  0  0  0  0  0  0
  -25.8896  -12.3855   19.9601 N   0  0  0  0  0  0  0  0  0  0  0  0
  -31.2469  -29.5468   17.3260 N   0  3  0  0  0  0  0  0  0  0  0  0
  -31.6115  -18.6813   23.3885 O   0  0  0  0  0  0  0  0  0  0  0  0
  -23.4676  -29.6477   19.5976 O   0  0  0  0  0  0  0  0  0  0  0  0
  -26.3872  -31.7902   18.5585 O   0  0  0  0  0  0  0  0  0  0  0  0
  -28.6942  -28.1350   16.5993 O   0  0  0  0  0  0  0  0  0  0  0  0
  -26.9321  -10.5357   19.0951 O   0  0  0  0  0  0  0  0  0  0  0  0
  -29.1726  -22.5805   18.3514 O   0  0  0  0  0  0  0  0  0  0  0  0
  -25.9024  -23.6581   20.9022 O   0  0  0  0  0  0  0  0  0  1  0  0
  -31.4810  -26.9413   20.8127 F   0  0  0  0  0  0  0  0  0  0  0  0
  -28.4008  -23.3481   20.8926 F   0  0  0  0  0  0  0  0  0  0  0  0
  -23.2930  -13.9320   18.4376 Cl  0  0  0  0  0  0  0  0  0  0  0  0
  1  2  1  0  0  0  0
  1  5  2  0  0  0  0
  2  6  2  0  0  0  0
  3  8  2  0  0  0  0
  3 16  1  0  0  0  0
  4  9  1  0  0  0  0
  4 16  2  0  0  0  0
  5 18  1  0  0  0  0
  6 20  1  0  0  0  0
  7 10  2  0  0  0  0
  7 19  1  0  0  0  0
  8 24  1  0  0  0  0
  9 24  2  0  0  0  0
 10 25  1  0  0  0  0
 11 12  2  0  0  0  0
 11 26  1  0  0  0  0
 12 27  1  0  0  0  0
 13 21  1  0  0  0  0
 13 25  2  0  0  0  0
 14 22  2  0  0  0  0
 14 30  1  0  0  0  0
 15 27  2  0  0  0  0
 15 28  1  0  0  0  0
 16 29  1  0  0  0  0
 17 29  1  0  0  0  0
 17 32  2  0  0  0  0
 17 33  1  0  0  0  0
 18 20  2  0  0  0  0
 18 38  1  0  0  0  0
 19 21  2  0  0  0  0
 19 39  1  0  0  0  0
 20 47  1  0  0  0  0
 21 40  1  0  0  0  0
 22 23  1  0  0  0  0
 22 50  1  0  0  0  0
 23 31  2  0  0  0  0
 23 56  1  0  0  0  0
 24 84  1  0  0  0  0
 25 85  1  0  0  0  0
 26 28  2  0  0  0  0
 26 84  1  0  0  0  0
 27 86  1  0  0  0  0
 28 87  1  0  0  0  0
 29 68  2  0  0  0  0
 30 57  1  0  0  0  0
 30 69  2  0  0  0  0
 31 69  1  0  0  0  0
 31 88  1  0  0  0  0
 32 70  1  0  0  0  0
 32 73  1  0  0  0  0
 33 74  1  0  0  0  0
 33 79  2  0  0  0  0
 34 48  1  0  0  0  0
 34 75  1  0  0  0  0
 34 80  2  0  0  0  0
 35 65  1  0  0  0  0
 35 71  1  0  0  0  0
 35 81  2  0  0  0  0
 36 66  1  0  0  0  0
 36 76  1  0  0  0  0
 36 82  2  0  0  0  0
 37 72  1  0  0  0  0
 37 77  1  0  0  0  0
 37 83  2  0  0  0  0
 38 41  1  0  0  0  0
 39 48  1  0  0  0  0
 40 71  1  0  0  0  0
 41 43  1  0  0  0  0
 42 44  1  0  0  0  0
 42 45  1  0  0  0  0
 43 47  1  0  0  0  0
 44 49  1  0  0  0  0
 45 72  1  0  0  0  0
 46 49  1  0  0  0  0
 46 72  1  0  0  0  0
 47 75  1  0  0  0  0
 48 71  1  0  0  0  0
 49 70  1  0  0  0  0
 51 66  1  0  0  0  0
 52 67  1  0  0  0  0
 53 67  1  0  0  0  0
 54 67  1  0  0  0  0
 55 78  1  0  0  0  0
 56 77  1  0  0  0  0
 57 58  1  0  0  0  0
 58 59  1  0  0  0  0
 59 60  1  0  0  0  0
 60 61  1  0  0  0  0
 61 62  1  0  0  0  0
 62 63  1  0  0  0  0
 63 64  1  0  0  0  0
 64 85  1  0  0  0  0
 65 67  1  0  0  0  0
 65 76  1  0  0  0  0
 66 78  1  0  0  0  0
 68 70  1  0  0  0  0
M  CHG  1  78   1
M  ISO  4  37 100  64 101  77 100  85 101
M  END
> <Batch ID>
0022

> <Smiles>
CNC(C)C(=O)NC(C(=O)N1Cc2cc([101O:1][101CH2:1]CCCCCCCc3cc(C)c(C[100NH:0][100C:0](=O)N4CCCC(n5nc(-c6ccc(Oc7ccc(F)cc7F)cc6)c(C(N)=O)c5N)C4)c(Cl)n3)ccc2CC1C(=O)NC1CCCc2ccccc21)C(C)(C)C

> <Shape>
0.256

> <Color>
0.062

> <Negative vol penalty>
0.000

$$$$

  -OEChem-04052316153D

 91100  0     1  0  0  0  0  0999 V2000
  -20.2892  -23.9239   23.7874 C   0  0  0  0  0  0  0  0  0  0  0  0
  -21.5826  -24.3542   23.5093 C   0  0  0  0  0  0  0  0  0  0  0  0
  -26.7552  -15.4043   20.1700 C   0  0  0  0  0  0  0  0  0  0  0  0
  -25.0253  -15.2716   21.8514 C   0  0  0  0  0  0  0  0  0  0  0  0
  -19.2065  -24.7656   23.5357 C   0  0  0  0  0  0  0  0  0  0  0  0
  -21.7940  -25.6262   22.9784 C   0  0  0  0  0  0  0  0  0  0  0  0
  -25.6094  -28.0672   25.2431 C   0  0  0  0  0  0  0  0  0  0  0  0
  -26.7058  -14.0196   20.0099 C   0  0  0  0  0  0  0  0  0  0  0  0
  -24.9760  -13.8868   21.6912 C   0  0  0  0  0  0  0  0  0  0  0  0
  -26.9045  -27.7059   24.8745 C   0  0  0  0  0  0  0  0  0  0  0  0
  -23.6439  -11.6797   19.5062 C   0  0  0  0  0  0  0  0  0  0  0  0
  -22.3860  -11.0833   19.4197 C   0  0  0  0  0  0  0  0  0  0  0  0
  -27.0224  -29.6307   23.4251 C   0  0  0  0  0  0  0  0  0  0  0  0
  -22.8789   -9.7596   21.3798 C   0  0  0  0  0  0  0  0  0  0  0  0
  -25.9150  -16.0304   21.0908 C   0  0  0  0  0  0  0  0  0  0  0  0
  -27.0751  -18.2315   21.6537 C   0  0  0  0  0  0  0  0  0  0  0  0
  -19.4055  -26.0521   23.0104 C   0  0  0  0  0  0  0  0  0  0  0  0
  -25.0060  -29.2089   24.6964 C   0  0  0  0  0  0  0  0  0  0  0  0
  -20.7129  -26.4853   22.7181 C   0  0  0  0  0  0  0  0  0  0  0  0
  -25.7204  -30.0057   23.7904 C   0  0  0  0  0  0  0  0  0  0  0  0
  -26.9203  -25.4970   18.5844 C   0  0  0  0  0  0  0  0  0  0  0  0
  -27.4470  -26.4688   17.7107 C   0  0  0  0  0  0  0  0  0  0  0  0
  -25.4907  -26.2277   16.2786 C   0  0  0  0  0  0  0  0  0  0  0  0
  -25.6810  -24.9054   18.2838 C   0  0  0  0  0  0  0  0  0  0  0  0
  -25.8162  -13.2609   20.7705 C   0  0  0  0  0  0  0  0  0  0  0  0
  -27.6101  -28.4861   23.9631 C   0  0  0  0  0  0  0  0  0  0  0  0
  -24.5194  -11.3160   20.5294 C   0  0  0  0  0  0  0  0  0  0  0  0
  -22.0034  -10.1232   20.3565 C   0  0  0  0  0  0  0  0  0  0  0  0
  -24.1369  -10.3560   21.4662 C   0  0  0  0  0  0  0  0  0  0  0  0
  -26.7200  -26.8220   16.5605 C   0  0  0  0  0  0  0  0  0  0  0  0
  -24.9711  -25.2692   17.1404 C   0  0  0  0  0  0  0  0  0  0  0  0
  -25.9659  -17.4607   21.2570 C   0  0  0  0  0  0  0  0  0  0  0  0
  -26.6108  -19.5241   21.6590 C   0  0  0  0  0  0  0  0  0  0  0  0
  -28.9619  -27.1291   20.4948 C   0  0  0  0  0  0  0  0  0  0  0  0
  -28.4062  -17.8161   21.9875 C   0  0  0  0  0  0  0  0  0  0  0  0
  -30.0566  -27.2292   21.2661 C   0  0  0  0  0  0  0  0  0  0  0  0
  -22.4385  -29.7475   22.9015 C   0  0  0  0  0  0  0  0  0  0  0  0
  -23.1936  -32.8556   23.4415 C   0  0  0  0  0  0  0  0  0  0  0  0
  -26.1947  -34.8550   23.5548 C   0  0  0  0  0  0  0  0  0  0  0  0
  -23.7376  -23.6772   19.3138 C   0  0  0  0  0  0  0  0  0  0  0  0
  -18.2005  -26.9083   22.7108 C   0  0  0  0  0  0  0  0  0  0  0  0
  -23.6181  -29.5998   25.1247 C   0  0  0  0  0  0  0  0  0  0  0  0
  -27.6530  -25.0615   19.8324 C   0  0  0  0  0  0  0  0  0  0  0  0
  -28.7780  -27.1376   17.9664 C   0  0  0  0  0  0  0  0  0  0  0  0
  -25.1253  -31.2522   23.1900 C   0  0  0  0  0  0  0  0  0  0  0  0
  -27.8353  -26.1906   20.8508 C   0  0  0  0  0  0  0  0  0  0  0  0
  -28.7988  -27.9693   19.2521 C   0  0  0  0  0  0  0  0  0  0  0  0
  -18.5380  -28.3817   22.4977 C   0  0  0  0  0  0  0  0  0  0  0  0
  -21.8999  -21.3336   21.2652 C   0  0  0  0  0  0  0  0  0  0  0  0
  -19.7363  -28.5254   21.5648 C   0  0  0  0  0  0  0  0  0  0  0  0
  -22.8851  -20.1805   21.4696 C   0  0  0  0  0  0  0  0  0  0  0  0
  -22.0357  -21.9561   19.8767 C   0  0  0  0  0  0  0  0  0  0  0  0
  -24.3814  -21.2200   19.7182 C   0  0  0  0  0  0  0  0  0  0  0  0
  -20.9847  -27.8674   22.1648 C   0  0  1  0  0  0  0  0  0  0  0  0
  -22.9117  -30.4981   24.1140 C   0  0  1  0  0  0  0  0  0  0  0  0
  -24.3268  -20.6033   21.1254 C   0  0  2  0  0  0  0  0  0  0  0  0
  -24.7347  -26.6201   15.0542 C   0  0  0  0  0  0  0  0  0  0  0  0
  -31.1407  -28.1929   20.8400 C   0  0  0  0  0  0  0  0  0  0  0  0
  -26.6975  -36.9738   24.8020 C   0  0  0  0  0  0  0  0  0  0  0  0
  -30.2835  -24.8874   22.3358 C   0  0  0  0  0  0  0  0  0  0  0  0
  -31.6588  -26.7848   23.1635 C   0  0  0  0  0  0  0  0  0  0  0  0
  -22.3392  -34.2369   20.8585 C   0  0  0  0  0  0  0  0  0  0  0  0
  -24.1676  -35.9068   21.2287 C   0  0  0  0  0  0  0  0  0  0  0  0
  -22.3125  -35.7036   22.8840 C   0  0  0  0  0  0  0  0  0  0  0  0
  -28.9975  -35.6504   26.0302 C   0  0  0  0  0  0  0  0  0  0  0  0
  -29.1908  -26.7440   23.6133 C   0  0  0  0  0  0  0  0  0  1  0  0
  -24.0596  -33.8810   22.7505 C   0  0  1  0  0  0  0  0  0  0  0  0
  -26.8379  -35.4596   24.7899 C   0  0  2  0  0  0  0  0  0  0  0  0
  -30.2832  -26.4200   22.5639 C   0  0  0  0  0  0  0  0  0  0  0  0
  -23.2256  -34.9043   21.9290 C   0  0  0  0  0  0  0  0  0  0  0  0
  -24.8787  -18.2018   21.0271 N   0  0  0  0  0  0  0  0  0  0  0  0
  -25.3025  -19.4518   21.2802 N   0  0  0  0  0  0  0  0  0  0  0  0
  -23.7631  -31.5891   23.6355 N   0  0  0  0  0  0  0  0  0  0  0  0
  -23.4271  -22.3358   19.6223 N   0  0  0  0  0  0  0  0  0  0  0  0
  -27.1980  -20.7041   21.9506 N   0  0  0  0  0  0  0  0  0  0  0  0
  -29.3612  -17.7477   20.9640 N   0  0  0  0  0  0  0  0  0  0  0  0
  -25.0966  -23.9255   19.1241 N   0  0  0  0  0  0  0  0  0  0  0  0
  -21.5630  -28.7164   23.1842 N   0  0  0  0  0  0  0  0  0  0  0  0
  -24.8881  -34.4827   23.7898 N   0  0  0  0  0  0  0  0  0  0  0  0
  -28.2886  -35.1217   24.8365 N   0  3  0  0  0  0  0  0  0  0  0  0
  -28.7346  -17.4988   23.1558 O   0  0  0  0  0  0  0  0  0  0  0  0
  -22.8369  -30.0801   21.7914 O   0  0  0  0  0  0  0  0  0  0  0  0
  -22.0565  -33.1690   23.8025 O   0  0  0  0  0  0  0  0  0  0  0  0
  -26.7907  -34.7294   22.4873 O   0  0  0  0  0  0  0  0  0  0  0  0
  -22.8653  -24.5473   19.2514 O   0  0  0  0  0  0  0  0  0  0  0  0
  -25.7676  -11.9096   20.6143 O   0  0  0  0  0  0  0  0  0  0  0  0
  -28.8741  -28.1353   23.6011 O   0  0  0  0  0  0  0  0  0  1  0  0
  -20.7948   -9.5517   20.2743 F   0  0  0  0  0  0  0  0  0  0  0  0
  -24.9732  -10.0034   22.4522 F   0  0  0  0  0  0  0  0  0  0  0  0
  -27.2065  -27.7448   15.7159 F   0  0  0  0  0  0  0  0  0  0  0  0
  -23.7877  -24.6979   16.8686 F   0  0  0  0  0  0  0  0  0  0  0  0
  1  2  1  0  0  0  0
  1  5  2  0  0  0  0
  2  6  2  0  0  0  0
  3  8  2  0  0  0  0
  3 15  1  0  0  0  0
  4  9  1  0  0  0  0
  4 15  2  0  0  0  0
  5 17  1  0  0  0  0
  6 19  1  0  0  0  0
  7 10  2  0  0  0  0
  7 18  1  0  0  0  0
  8 25  1  0  0  0  0
  9 25  2  0  0  0  0
 10 26  1  0  0  0  0
 11 12  2  0  0  0  0
 11 27  1  0  0  0  0
 12 28  1  0  0  0  0
 13 20  1  0  0  0  0
 13 26  2  0  0  0  0
 14 28  2  0  0  0  0
 14 29  1  0  0  0  0
 15 32  1  0  0  0  0
 16 32  1  0  0  0  0
 16 33  2  0  0  0  0
 16 35  1  0  0  0  0
 17 19  2  0  0  0  0
 17 41  1  0  0  0  0
 18 20  2  0  0  0  0
 18 42  1  0  0  0  0
 19 54  1  0  0  0  0
 20 45  1  0  0  0  0
 21 22  2  0  0  0  0
 21 24  1  0  0  0  0
 21 43  1  0  0  0  0
 22 30  1  0  0  0  0
 22 44  1  0  0  0  0
 23 30  2  0  0  0  0
 23 31  1  0  0  0  0
 23 57  1  0  0  0  0
 24 31  2  0  0  0  0
 24 77  1  0  0  0  0
 25 86  1  0  0  0  0
 26 87  1  0  0  0  0
 27 29  2  0  0  0  0
 27 86  1  0  0  0  0
 28 88  1  0  0  0  0
 29 89  1  0  0  0  0
 30 90  1  0  0  0  0
 31 91  1  0  0  0  0
 32 71  2  0  0  0  0
 33 72  1  0  0  0  0
 33 75  1  0  0  0  0
 34 36  2  0  0  0  0
 34 46  1  0  0  0  0
 34 47  1  0  0  0  0
 35 76  1  0  0  0  0
 35 81  2  0  0  0  0
 36 58  1  0  0  0  0
 36 69  1  0  0  0  0
 37 55  1  0  0  0  0
 37 78  1  0  0  0  0
 37 82  2  0  0  0  0
 38 67  1  0  0  0  0
 38 73  1  0  0  0  0
 38 83  2  0  0  0  0
 39 68  1  0  0  0  0
 39 79  1  0  0  0  0
 39 84  2  0  0  0  0
 40 74  1  0  0  0  0
 40 77  1  0  0  0  0
 40 85  2  0  0  0  0
 41 48  1  0  0  0  0
 42 55  1  0  0  0  0
 43 46  1  0  0  0  0
 44 47  1  0  0  0  0
 45 73  1  0  0  0  0
 48 50  1  0  0  0  0
 49 51  1  0  0  0  0
 49 52  1  0  0  0  0
 50 54  1  0  0  0  0
 51 56  1  0  0  0  0
 52 74  1  0  0  0  0
 53 56  1  0  0  0  0
 53 74  1  0  0  0  0
 54 78  1  0  0  0  0
 55 73  1  0  0  0  0
 56 72  1  0  0  0  0
 59 68  1  0  0  0  0
 60 69  1  0  0  0  0
 61 69  1  0  0  0  0
 62 70  1  0  0  0  0
 63 70  1  0  0  0  0
 64 70  1  0  0  0  0
 65 80  1  0  0  0  0
 66 69  1  0  0  0  0
 66 87  1  0  0  0  0
 67 70  1  0  0  0  0
 67 79  1  0  0  0  0
 68 80  1  0  0  0  0
 71 72  1  0  0  0  0
M  CHG  1  80   1
M  ISO  4  40 100  66 101  77 100  87 101
M  END
> <Batch ID>
0022

> <Smiles>
CNC(C)C(=O)NC(C(=O)N1Cc2cc([101O:1][101CH2:1]C(C)(C)C(C)=C3CCc4c(F)c(C)c(F)c([100NH:0][100C:0](=O)N5CCCC(n6nc(-c7ccc(Oc8ccc(F)cc8F)cc7)c(C(N)=O)c6N)C5)c4CC3)ccc2CC1C(=O)NC1CCCc2ccccc21)C(C)(C)C

> <Shape>
0.235

> <Color>
0.066

> <Negative vol penalty>
0.000

$$$$

  -OEChem-04052316153D

 88 96  0     1  0  0  0  0  0999 V2000
  -30.3439  -22.7398   23.8623 C   0  0  0  0  0  0  0  0  0  0  0  0
  -29.3177  -21.8091   23.9793 C   0  0  0  0  0  0  0  0  0  0  0  0
  -28.7537  -26.3754   19.8860 C   0  0  0  0  0  0  0  0  0  0  0  0
  -26.7336  -25.6555   18.7733 C   0  0  0  0  0  0  0  0  0  0  0  0
  -31.3064  -22.5888   22.8664 C   0  0  0  0  0  0  0  0  0  0  0  0
  -29.2605  -20.7207   23.1082 C   0  0  0  0  0  0  0  0  0  0  0  0
  -25.8602  -17.2892   24.0392 C   0  0  0  0  0  0  0  0  0  0  0  0
  -19.8267  -21.3817   22.0380 C   0  0  0  0  0  0  0  0  0  0  0  0
  -29.3191  -25.1182   19.6730 C   0  0  0  0  0  0  0  0  0  0  0  0
  -27.2990  -24.3983   18.5602 C   0  0  0  0  0  0  0  0  0  0  0  0
  -24.4982  -17.5017   23.8307 C   0  0  0  0  0  0  0  0  0  0  0  0
  -28.3448  -21.1137   17.4044 C   0  0  0  0  0  0  0  0  0  0  0  0
  -28.1997  -20.5424   16.1403 C   0  0  0  0  0  0  0  0  0  0  0  0
  -20.0448  -20.0452   21.7225 C   0  0  0  0  0  0  0  0  0  0  0  0
  -24.6066  -16.1797   21.8158 C   0  0  0  0  0  0  0  0  0  0  0  0
  -29.3638  -22.4183   15.1589 C   0  0  0  0  0  0  0  0  0  0  0  0
  -27.4609  -26.6440   19.4363 C   0  0  0  0  0  0  0  0  0  0  0  0
  -26.9458  -29.0616   18.8056 C   0  0  0  0  0  0  0  0  0  0  0  0
  -31.2531  -21.5045   21.9751 C   0  0  0  0  0  0  0  0  0  0  0  0
  -26.6093  -16.5282   23.1303 C   0  0  0  0  0  0  0  0  0  0  0  0
  -30.2362  -20.5378   22.1116 C   0  0  0  0  0  0  0  0  0  0  0  0
  -25.9774  -15.9569   22.0165 C   0  0  0  0  0  0  0  0  0  0  0  0
  -19.0138  -21.7119   23.1167 C   0  0  0  0  0  0  0  0  0  0  0  0
  -28.5918  -24.1297   19.0100 C   0  0  0  0  0  0  0  0  0  0  0  0
  -23.8718  -16.9493   22.7173 C   0  0  0  0  0  0  0  0  0  0  0  0
  -28.9994  -22.3373   17.5459 C   0  0  0  0  0  0  0  0  0  0  0  0
  -28.7092  -21.1946   15.0175 C   0  0  0  0  0  0  0  0  0  0  0  0
  -29.5089  -22.9896   16.4231 C   0  0  0  0  0  0  0  0  0  0  0  0
  -26.8761  -27.9423   19.6566 C   0  0  0  0  0  0  0  0  0  0  0  0
  -19.4318  -19.0844   22.5106 C   0  0  0  0  0  0  0  0  0  0  0  0
  -18.4469  -20.6765   23.8422 C   0  0  0  0  0  0  0  0  0  0  0  0
  -26.2356  -30.0368   19.4621 C   0  0  0  0  0  0  0  0  0  0  0  0
  -27.5944  -29.2067   17.5352 C   0  0  0  0  0  0  0  0  0  0  0  0
  -29.0892  -17.1075   21.2282 C   0  0  0  0  0  0  0  0  0  0  0  0
  -28.9257  -13.9127   20.6908 C   0  0  0  0  0  0  0  0  0  0  0  0
  -27.0387  -11.0691   20.6819 C   0  0  0  0  0  0  0  0  0  0  0  0
  -21.8491  -29.8445   23.5330 C   0  0  0  0  0  0  0  0  0  0  0  0
  -32.3252  -21.3854   20.9207 C   0  0  0  0  0  0  0  0  0  0  0  0
  -28.0720  -16.2860   23.3837 C   0  0  0  0  0  0  0  0  0  0  0  0
  -26.7325  -15.1151   21.0216 C   0  0  0  0  0  0  0  0  0  0  0  0
  -31.9327  -20.4569   19.7760 C   0  0  0  0  0  0  0  0  0  0  0  0
  -25.0081  -31.4529   23.8643 C   0  0  0  0  0  0  0  0  0  0  0  0
  -31.4100  -19.1402   20.3307 C   0  0  0  0  0  0  0  0  0  0  0  0
  -25.8514  -30.8366   22.7467 C   0  0  0  0  0  0  0  0  0  0  0  0
  -24.0597  -30.4298   24.4853 C   0  0  0  0  0  0  0  0  0  0  0  0
  -24.0360  -29.1085   22.4051 C   0  0  0  0  0  0  0  0  0  0  0  0
  -30.1363  -19.3625   21.1560 C   0  0  1  0  0  0  0  0  0  0  0  0
  -28.8453  -15.9229   22.1198 C   0  0  1  0  0  0  0  0  0  0  0  0
  -24.9683  -30.1157   21.7105 C   0  0  2  0  0  0  0  0  0  0  0  0
  -18.3236  -16.9479   21.8054 C   0  0  0  0  0  0  0  0  0  0  0  0
  -27.1716   -8.6184   20.1588 C   0  0  0  0  0  0  0  0  0  0  0  0
  -28.8221  -14.5462   17.7079 C   0  0  0  0  0  0  0  0  0  0  0  0
  -28.0119  -12.2108   17.3110 C   0  0  0  0  0  0  0  0  0  0  0  0
  -30.2650  -12.5945   18.3103 C   0  0  0  0  0  0  0  0  0  0  0  0
  -26.3800  -10.3202   23.4684 C   0  0  0  0  0  0  0  0  0  0  0  0
  -19.5618  -26.6584   22.5691 C   0  0  0  0  0  0  0  0  0  0  0  0
  -18.9556  -25.4742   23.3239 C   0  0  0  0  0  0  0  0  0  0  0  0
  -19.1132  -27.9915   23.1748 C   0  0  0  0  0  0  0  0  0  0  0  0
  -20.3159  -16.8415   23.3504 C   0  0  0  0  0  0  0  0  0  0  0  0
  -19.3696  -24.1459   22.6990 C   0  0  0  0  0  0  0  0  0  0  0  0
  -19.7127  -29.1931   22.4510 C   0  0  0  0  0  0  0  0  0  0  0  0
  -21.7255  -17.3319   23.6677 C   0  0  0  0  0  0  0  0  0  1  0  0
  -19.6482  -17.6141   22.1964 C   0  0  2  0  0  0  0  0  0  0  0  0
  -28.2008  -13.0304   19.7034 C   0  0  1  0  0  0  0  0  0  0  0  0
  -27.3050   -9.6818   21.2378 C   0  0  2  0  0  0  0  0  0  0  0  0
  -28.8108  -13.1129   18.2757 C   0  0  0  0  0  0  0  0  0  0  0  0
  -26.1770  -28.1830   20.7690 N   0  0  0  0  0  0  0  0  0  0  0  0
  -18.6357  -19.3666   23.5661 N   0  0  0  0  0  0  0  0  0  0  0  0
  -25.8010  -29.4648   20.6215 N   0  0  0  0  0  0  0  0  0  0  0  0
  -28.1620  -14.9124   21.3098 N   0  0  0  0  0  0  0  0  0  0  0  0
  -23.2499  -29.7835   23.4497 N   0  0  0  0  0  0  0  0  0  0  0  0
  -25.9469  -31.3193   19.1551 N   0  0  0  0  0  0  0  0  0  0  0  0
  -28.2798  -28.1050   17.0052 N   0  0  0  0  0  0  0  0  0  0  0  0
  -18.7920  -23.0634   23.4377 N   0  0  0  0  0  0  0  0  0  0  0  0
  -29.7918  -18.1319   21.8333 N   0  0  0  0  0  0  0  0  0  0  0  0
  -28.2020  -11.6890   20.2771 N   0  0  0  0  0  0  0  0  0  0  0  0
  -21.1574  -29.2114   22.5075 N   0  0  0  0  0  0  0  0  0  0  0  0
  -26.3404   -9.3672   22.3294 N   0  3  0  0  0  0  0  0  0  0  0  0
  -27.5808  -30.2864   16.8968 O   0  0  0  0  0  0  0  0  0  0  0  0
  -28.6721  -17.0925   20.0760 O   0  0  0  0  0  0  0  0  0  0  0  0
  -30.1238  -13.7174   20.9103 O   0  0  0  0  0  0  0  0  0  0  0  0
  -25.9112  -11.5529   20.6104 O   0  0  0  0  0  0  0  0  0  0  0  0
  -21.2585  -30.4250   24.4502 O   0  0  0  0  0  0  0  0  0  0  0  0
  -29.1433  -22.9029   18.8017 O   0  0  0  0  0  0  0  0  0  0  0  0
  -22.5426  -17.1557   22.5111 O   0  0  0  0  0  0  0  0  0  1  0  0
  -28.5712  -20.6451   13.8038 F   0  0  0  0  0  0  0  0  0  0  0  0
  -30.1397  -24.1648   16.5528 F   0  0  0  0  0  0  0  0  0  0  0  0
  -17.4229  -20.9510   25.1982 Cl  0  0  0  0  0  0  0  0  0  0  0  0
  1  2  1  0  0  0  0
  1  5  2  0  0  0  0
  2  6  2  0  0  0  0
  3  9  2  0  0  0  0
  3 17  1  0  0  0  0
  4 10  1  0  0  0  0
  4 17  2  0  0  0  0
  5 19  1  0  0  0  0
  6 21  1  0  0  0  0
  7 11  2  0  0  0  0
  7 20  1  0  0  0  0
  8 14  2  0  0  0  0
  8 23  1  0  0  0  0
  9 24  1  0  0  0  0
 10 24  2  0  0  0  0
 11 25  1  0  0  0  0
 12 13  2  0  0  0  0
 12 26  1  0  0  0  0
 13 27  1  0  0  0  0
 14 30  1  0  0  0  0
 15 22  1  0  0  0  0
 15 25  2  0  0  0  0
 16 27  2  0  0  0  0
 16 28  1  0  0  0  0
 17 29  1  0  0  0  0
 18 29  1  0  0  0  0
 18 32  2  0  0  0  0
 18 33  1  0  0  0  0
 19 21  2  0  0  0  0
 19 38  1  0  0  0  0
 20 22  2  0  0  0  0
 20 39  1  0  0  0  0
 21 47  1  0  0  0  0
 22 40  1  0  0  0  0
 23 31  2  0  0  0  0
 23 74  1  0  0  0  0
 24 84  1  0  0  0  0
 25 85  1  0  0  0  0
 26 28  2  0  0  0  0
 26 84  1  0  0  0  0
 27 86  1  0  0  0  0
 28 87  1  0  0  0  0
 29 67  2  0  0  0  0
 30 63  1  0  0  0  0
 30 68  2  0  0  0  0
 31 68  1  0  0  0  0
 31 88  1  0  0  0  0
 32 69  1  0  0  0  0
 32 72  1  0  0  0  0
 33 73  1  0  0  0  0
 33 79  2  0  0  0  0
 34 48  1  0  0  0  0
 34 75  1  0  0  0  0
 34 80  2  0  0  0  0
 35 64  1  0  0  0  0
 35 70  1  0  0  0  0
 35 81  2  0  0  0  0
 36 65  1  0  0  0  0
 36 76  1  0  0  0  0
 36 82  2  0  0  0  0
 37 71  1  0  0  0  0
 37 77  1  0  0  0  0
 37 83  2  0  0  0  0
 38 41  1  0  0  0  0
 39 48  1  0  0  0  0
 40 70  1  0  0  0  0
 41 43  1  0  0  0  0
 42 44  1  0  0  0  0
 42 45  1  0  0  0  0
 43 47  1  0  0  0  0
 44 49  1  0  0  0  0
 45 71  1  0  0  0  0
 46 49  1  0  0  0  0
 46 71  1  0  0  0  0
 47 75  1  0  0  0  0
 48 70  1  0  0  0  0
 49 69  1  0  0  0  0
 50 63  1  0  0  0  0
 51 65  1  0  0  0  0
 52 66  1  0  0  0  0
 53 66  1  0  0  0  0
 54 66  1  0  0  0  0
 55 78  1  0  0  0  0
 56 57  1  0  0  0  0
 56 58  1  0  0  0  0
 57 60  1  0  0  0  0
 58 61  1  0  0  0  0
 59 62  1  0  0  0  0
 59 63  1  0  0  0  0
 60 74  1  0  0  0  0
 61 77  1  0  0  0  0
 62 85  1  0  0  0  0
 64 66  1  0  0  0  0
 64 76  1  0  0  0  0
 65 78  1  0  0  0  0
 67 69  1  0  0  0  0
M  CHG  1  78   1
M  ISO  4  37 100  62 101  77 100  85 101
M  END
> <Batch ID>
0022

> <Smiles>
CNC(C)C(=O)NC(C(=O)N1Cc2cc([101O:1][101CH2:1]CC(C)c3ccc(NCCCCC[100NH:0][100C:0](=O)N4CCCC(n5nc(-c6ccc(Oc7ccc(F)cc7F)cc6)c(C(N)=O)c5N)C4)c(Cl)n3)ccc2CC1C(=O)NC1CCCc2ccccc21)C(C)(C)C

> <Shape>
0.211

> <Color>
0.064

> <Negative vol penalty>
0.000

$$$$

  -OEChem-04052316153D

 89 97  0     1  0  0  0  0  0999 V2000
  -32.1904  -21.2744   27.3925 C   0  0  0  0  0  0  0  0  0  0  0  0
  -31.3747  -21.8726   26.4374 C   0  0  0  0  0  0  0  0  0  0  0  0
  -29.1658  -17.8275   19.2940 C   0  0  0  0  0  0  0  0  0  0  0  0
  -30.7208  -18.3048   21.0804 C   0  0  0  0  0  0  0  0  0  0  0  0
  -31.7180  -20.1899   28.1305 C   0  0  0  0  0  0  0  0  0  0  0  0
  -30.0863  -21.3859   26.2190 C   0  0  0  0  0  0  0  0  0  0  0  0
  -26.6460  -25.0853   25.8671 C   0  0  0  0  0  0  0  0  0  0  0  0
  -29.6397  -16.5171   19.2316 C   0  0  0  0  0  0  0  0  0  0  0  0
  -31.1947  -16.9944   21.0180 C   0  0  0  0  0  0  0  0  0  0  0  0
  -26.5800  -25.7808   24.6605 C   0  0  0  0  0  0  0  0  0  0  0  0
  -30.1900  -12.9445   18.8466 C   0  0  0  0  0  0  0  0  0  0  0  0
  -29.2495  -11.9183   18.7570 C   0  0  0  0  0  0  0  0  0  0  0  0
  -24.6760  -24.4521   24.0058 C   0  0  0  0  0  0  0  0  0  0  0  0
  -28.2944  -12.6094   20.8658 C   0  0  0  0  0  0  0  0  0  0  0  0
  -29.7064  -18.7214   20.2184 C   0  0  0  0  0  0  0  0  0  0  0  0
  -28.1595  -20.5602   21.0749 C   0  0  0  0  0  0  0  0  0  0  0  0
  -30.4197  -19.6958   27.9278 C   0  0  0  0  0  0  0  0  0  0  0  0
  -25.7327  -24.0589   26.1479 C   0  0  0  0  0  0  0  0  0  0  0  0
  -29.5965  -20.2930   26.9541 C   0  0  0  0  0  0  0  0  0  0  0  0
  -24.7309  -23.7469   25.2177 C   0  0  0  0  0  0  0  0  0  0  0  0
  -30.6541  -16.1006   20.0936 C   0  0  0  0  0  0  0  0  0  0  0  0
  -25.5967  -25.4623   23.7284 C   0  0  0  0  0  0  0  0  0  0  0  0
  -30.1828  -13.8031   19.9459 C   0  0  0  0  0  0  0  0  0  0  0  0
  -28.3017  -11.7508   19.7665 C   0  0  0  0  0  0  0  0  0  0  0  0
  -29.2350  -13.6356   20.9555 C   0  0  0  0  0  0  0  0  0  0  0  0
  -29.2176  -20.0753   20.2831 C   0  0  0  0  0  0  0  0  0  0  0  0
  -28.0928  -21.8992   20.7763 C   0  0  0  0  0  0  0  0  0  0  0  0
  -27.3125  -19.8627   21.9979 C   0  0  0  0  0  0  0  0  0  0  0  0
  -25.9668  -20.9383   26.7051 C   0  0  0  0  0  0  0  0  0  0  0  0
  -22.7926  -21.2050   27.3176 C   0  0  0  0  0  0  0  0  0  0  0  0
  -19.8832  -22.9227   26.8358 C   0  0  0  0  0  0  0  0  0  0  0  0
  -31.0868  -26.6880   20.0958 C   0  0  0  0  0  0  0  0  0  0  0  0
  -29.9700  -18.4915   28.7165 C   0  0  0  0  0  0  0  0  0  0  0  0
  -25.8007  -23.3363   27.4653 C   0  0  0  0  0  0  0  0  0  0  0  0
  -23.7140  -22.6672   25.4796 C   0  0  0  0  0  0  0  0  0  0  0  0
  -28.4593  -18.2738   28.6874 C   0  0  0  0  0  0  0  0  0  0  0  0
  -30.3185  -24.5945   17.1347 C   0  0  0  0  0  0  0  0  0  0  0  0
  -27.9285  -18.4041   27.2633 C   0  0  0  0  0  0  0  0  0  0  0  0
  -29.9519  -23.2525   17.7656 C   0  0  0  0  0  0  0  0  0  0  0  0
  -29.4347  -29.4261   21.4412 C   0  0  0  0  0  0  0  0  0  0  0  0
  -27.7646  -27.6604   20.7516 C   0  0  0  0  0  0  0  0  0  0  0  0
  -31.2865  -25.3859   18.0087 C   0  0  0  0  0  0  0  0  0  0  0  0
  -30.4004  -28.3119   21.8357 C   0  0  0  0  0  0  0  0  0  0  0  0
  -28.7772  -26.5776   21.1362 C   0  0  0  0  0  0  0  0  0  0  0  0
  -30.4390  -24.2479   20.0357 C   0  0  0  0  0  0  0  0  0  0  0  0
  -28.1842  -19.8095   26.7057 C   0  0  1  0  0  0  0  0  0  0  0  0
  -25.1385  -21.9625   27.4281 C   0  0  1  0  0  0  0  0  0  0  0  0
  -29.4302  -23.4460   19.1997 C   0  0  2  0  0  0  0  0  0  0  0  0
  -27.9922  -28.9378   21.5571 C   0  0  0  0  0  0  0  0  0  0  0  0
  -26.4713  -31.5613   17.6150 C   0  0  0  0  0  0  0  0  0  0  0  0
  -26.6471  -30.9127   25.3358 C   0  0  0  0  0  0  0  0  0  0  0  0
  -17.4465  -22.8771   27.4339 C   0  0  0  0  0  0  0  0  0  0  0  0
  -25.6841  -32.1187   22.7938 C   0  0  0  0  0  0  0  0  0  0  0  0
  -22.3425  -18.9580   25.3029 C   0  0  0  0  0  0  0  0  0  0  0  0
  -19.9234  -19.5995   25.2330 C   0  0  0  0  0  0  0  0  0  0  0  0
  -20.9399  -18.8043   27.3678 C   0  0  0  0  0  0  0  0  0  0  0  0
  -23.6842  -28.3259   21.9555 C   0  0  0  0  0  0  0  0  0  0  0  0
  -25.3135  -27.7460   20.1635 C   0  0  0  0  0  0  0  0  0  0  0  0
  -20.0515  -25.5408   28.2055 C   0  0  0  0  0  0  0  0  0  0  0  0
  -26.5586  -31.4478   19.1284 C   0  0  0  0  0  0  0  0  0  0  0  0
  -26.7236  -30.1661   24.0087 C   0  0  0  0  0  0  0  0  0  0  0  0
  -27.0548  -30.0737   19.5492 C   0  0  0  0  0  0  0  0  0  0  0  0
  -25.9754  -27.4939   22.5516 C   0  0  0  0  0  0  0  0  0  1  0  0
  -21.5322  -21.1012   26.4930 C   0  0  1  0  0  0  0  0  0  0  0  0
  -18.8232  -23.4020   27.8109 C   0  0  2  0  0  0  0  0  0  0  0  0
  -25.6257  -30.5938   23.0062 C   0  0  2  0  0  0  0  0  0  0  0  0
  -25.6862  -29.8760   21.6201 C   0  0  2  0  0  0  0  0  0  0  0  0
  -21.2047  -19.6348   26.0931 C   0  0  0  0  0  0  0  0  0  0  0  0
  -25.1812  -28.3867   21.5571 C   0  0  0  0  0  0  0  0  0  0  0  0
  -29.7825  -21.0286   19.5373 N   0  0  0  0  0  0  0  0  0  0  0  0
  -29.0766  -22.1260   19.8592 N   0  0  0  0  0  0  0  0  0  0  0  0
  -23.8259  -21.9851   26.7795 N   0  0  0  0  0  0  0  0  0  0  0  0
  -30.7915  -25.5162   19.3793 N   0  0  0  0  0  0  0  0  0  0  0  0
  -30.1507  -27.0968   21.0578 N   0  0  0  0  0  0  0  0  0  0  0  0
  -27.2893  -22.8929   21.2112 N   0  0  0  0  0  0  0  0  0  0  0  0
  -27.5174  -18.4890   22.1856 N   0  0  0  0  0  0  0  0  0  0  0  0
  -27.2248  -20.7494   27.2448 N   0  0  0  0  0  0  0  0  0  0  0  0
  -20.4837  -21.7583   27.2658 N   0  0  0  0  0  0  0  0  0  0  0  0
  -18.7700  -24.8912   27.8274 N   0  3  0  0  0  0  0  0  0  0  0  0
  -27.0794  -29.9974   21.0554 N   0  3  1  0  0  0  0  0  0  0  0  0
  -26.3905  -20.4372   22.6249 O   0  0  0  0  0  0  0  0  0  0  0  0
  -25.4988  -20.3611   25.7307 O   0  0  0  0  0  0  0  0  0  0  0  0
  -22.8551  -20.6214   28.4025 O   0  0  0  0  0  0  0  0  0  0  0  0
  -20.1492  -23.5193   25.7947 O   0  0  0  0  0  0  0  0  0  0  0  0
  -32.1234  -27.3303   19.8858 O   0  0  0  0  0  0  0  0  0  0  0  0
  -31.1166  -14.8219   20.0331 O   0  0  0  0  0  0  0  0  0  0  0  0
  -25.5300  -26.1439   22.5413 O   0  0  0  0  0  0  0  0  0  1  0  0
  -27.3977  -10.7663   19.6795 F   0  0  0  0  0  0  0  0  0  0  0  0
  -29.2223  -14.4581   22.0134 F   0  0  0  0  0  0  0  0  0  0  0  0
  1  2  1  0  0  0  0
  1  5  2  0  0  0  0
  2  6  2  0  0  0  0
  3  8  2  0  0  0  0
  3 15  1  0  0  0  0
  4  9  1  0  0  0  0
  4 15  2  0  0  0  0
  5 17  1  0  0  0  0
  6 19  1  0  0  0  0
  7 10  2  0  0  0  0
  7 18  1  0  0  0  0
  8 21  1  0  0  0  0
  9 21  2  0  0  0  0
 10 22  1  0  0  0  0
 11 12  2  0  0  0  0
 11 23  1  0  0  0  0
 12 24  1  0  0  0  0
 13 20  1  0  0  0  0
 13 22  2  0  0  0  0
 14 24  2  0  0  0  0
 14 25  1  0  0  0  0
 15 26  1  0  0  0  0
 16 26  1  0  0  0  0
 16 27  2  0  0  0  0
 16 28  1  0  0  0  0
 17 19  2  0  0  0  0
 17 33  1  0  0  0  0
 18 20  2  0  0  0  0
 18 34  1  0  0  0  0
 19 46  1  0  0  0  0
 20 35  1  0  0  0  0
 21 86  1  0  0  0  0
 22 87  1  0  0  0  0
 23 25  2  0  0  0  0
 23 86  1  0  0  0  0
 24 88  1  0  0  0  0
 25 89  1  0  0  0  0
 26 70  2  0  0  0  0
 27 71  1  0  0  0  0
 27 75  1  0  0  0  0
 28 76  1  0  0  0  0
 28 81  2  0  0  0  0
 29 47  1  0  0  0  0
 29 77  1  0  0  0  0
 29 82  2  0  0  0  0
 30 64  1  0  0  0  0
 30 72  1  0  0  0  0
 30 83  2  0  0  0  0
 31 65  1  0  0  0  0
 31 78  1  0  0  0  0
 31 84  2  0  0  0  0
 32 73  1  0  0  0  0
 32 74  1  0  0  0  0
 32 85  2  0  0  0  0
 33 36  1  0  0  0  0
 34 47  1  0  0  0  0
 35 72  1  0  0  0  0
 36 38  1  0  0  0  0
 37 39  1  0  0  0  0
 37 42  1  0  0  0  0
 38 46  1  0  0  0  0
 39 48  1  0  0  0  0
 40 43  1  0  0  0  0
 40 49  1  0  0  0  0
 41 44  1  0  0  0  0
 41 49  1  0  0  0  0
 42 73  1  0  0  0  0
 43 74  1  0  0  0  0
 44 74  1  0  0  0  0
 45 48  1  0  0  0  0
 45 73  1  0  0  0  0
 46 77  1  0  0  0  0
 47 72  1  0  0  0  0
 48 71  1  0  0  0  0
 49 80  1  0  0  0  0
 50 60  1  0  0  0  0
 51 61  1  0  0  0  0
 52 65  1  0  0  0  0
 53 66  1  0  0  0  0
 54 68  1  0  0  0  0
 55 68  1  0  0  0  0
 56 68  1  0  0  0  0
 57 69  1  0  0  0  0
 58 69  1  0  0  0  0
 59 79  1  0  0  0  0
 60 62  1  0  0  0  0
 61 66  1  0  0  0  0
 62 80  1  0  0  0  0
 63 69  1  0  0  0  0
 63 87  1  0  0  0  0
 64 68  1  0  0  0  0
 64 78  1  0  0  0  0
 65 79  1  0  0  0  0
 66 67  1  0  0  0  0
 67 69  1  0  0  0  0
 67 80  1  0  0  0  0
 70 71  1  0  0  0  0
M  CHG  2  79   1  80   1
M  ISO  4  32 100  63 101  74 100  87 101
M  END
> <Batch ID>
0022

> <Smiles>
CCCN(C1CC[100N:0]([100C:0](=O)N2CCCC(n3nc(-c4ccc(Oc5ccc(F)cc5F)cc4)c(C(N)=O)c3N)C2)CC1)C(C(C)CC)C(C)(C)[101CH2:1][101O:1]c1ccc2c(c1)CN(C(=O)C(NC(=O)C(C)NC)C(C)(C)C)C(C(=O)NC1CCCc3ccccc31)C2

> <Shape>
0.224

> <Color>
0.050

> <Negative vol penalty>
0.000

$$$$

  -OEChem-04052316153D

 84 92  0     1  0  0  0  0  0999 V2000
  -27.9941  -23.7302   17.9041 C   0  0  0  0  0  0  0  0  0  0  0  0
  -26.8256  -24.0325   18.5960 C   0  0  0  0  0  0  0  0  0  0  0  0
  -26.3005  -13.4420   19.7920 C   0  0  0  0  0  0  0  0  0  0  0  0
  -24.2174  -13.6824   20.9920 C   0  0  0  0  0  0  0  0  0  0  0  0
  -29.2015  -24.3106   18.2904 C   0  0  0  0  0  0  0  0  0  0  0  0
  -26.8640  -24.9146   19.6752 C   0  0  0  0  0  0  0  0  0  0  0  0
  -23.0871  -28.2862   19.5641 C   0  0  0  0  0  0  0  0  0  0  0  0
  -26.3576  -12.0979   20.1604 C   0  0  0  0  0  0  0  0  0  0  0  0
  -24.2745  -12.3383   21.3604 C   0  0  0  0  0  0  0  0  0  0  0  0
  -21.8297  -27.8475   19.9767 C   0  0  0  0  0  0  0  0  0  0  0  0
  -23.6288   -9.3392   19.9429 C   0  0  0  0  0  0  0  0  0  0  0  0
  -22.4607   -8.5862   19.8244 C   0  0  0  0  0  0  0  0  0  0  0  0
  -22.1862  -28.8714   22.1316 C   0  0  0  0  0  0  0  0  0  0  0  0
  -20.3176  -23.1585   22.6467 C   0  0  0  0  0  0  0  0  0  0  0  0
  -22.9756  -23.7661   23.2370 C   0  0  0  0  0  0  0  0  0  0  0  0
  -22.5165   -8.1263   22.1956 C   0  0  0  0  0  0  0  0  0  0  0  0
  -25.2304  -14.2343   20.2079 C   0  0  0  0  0  0  0  0  0  0  0  0
  -24.5697  -16.1643   18.6761 C   0  0  0  0  0  0  0  0  0  0  0  0
  -29.2531  -25.2078   19.3688 C   0  0  0  0  0  0  0  0  0  0  0  0
  -23.9094  -29.0126   20.4373 C   0  0  0  0  0  0  0  0  0  0  0  0
  -28.0735  -25.5065   20.0771 C   0  0  0  0  0  0  0  0  0  0  0  0
  -23.4526  -29.3203   21.7268 C   0  0  0  0  0  0  0  0  0  0  0  0
  -20.6477  -24.4090   23.1689 C   0  0  0  0  0  0  0  0  0  0  0  0
  -22.6455  -22.5155   22.7148 C   0  0  0  0  0  0  0  0  0  0  0  0
  -25.3447  -11.5461   20.9445 C   0  0  0  0  0  0  0  0  0  0  0  0
  -21.3802  -28.1376   21.2616 C   0  0  0  0  0  0  0  0  0  0  0  0
  -24.2408   -9.4858   21.1878 C   0  0  0  0  0  0  0  0  0  0  0  0
  -21.3165  -22.2117   22.4197 C   0  0  0  0  0  0  0  0  0  0  0  0
  -21.9046   -7.9797   20.9507 C   0  0  0  0  0  0  0  0  0  0  0  0
  -23.6846   -8.8794   22.3141 C   0  0  0  0  0  0  0  0  0  0  0  0
  -21.9767  -24.7129   23.4641 C   0  0  0  0  0  0  0  0  0  0  0  0
  -25.1711  -15.6230   19.8281 C   0  0  0  0  0  0  0  0  0  0  0  0
  -24.7846  -17.5169   18.7800 C   0  0  0  0  0  0  0  0  0  0  0  0
  -23.8785  -15.5036   17.6078 C   0  0  0  0  0  0  0  0  0  0  0  0
  -26.7725  -28.5415   21.7352 C   0  0  0  0  0  0  0  0  0  0  0  0
  -26.3469  -31.5682   22.8218 C   0  0  0  0  0  0  0  0  0  0  0  0
  -24.1799  -34.0716   23.6488 C   0  0  0  0  0  0  0  0  0  0  0  0
  -25.0351  -21.7181   22.7357 C   0  0  0  0  0  0  0  0  0  0  0  0
  -30.5896  -25.7736   19.7791 C   0  0  0  0  0  0  0  0  0  0  0  0
  -25.2522  -29.5015   19.9680 C   0  0  0  0  0  0  0  0  0  0  0  0
  -24.2886  -30.1145   22.6958 C   0  0  0  0  0  0  0  0  0  0  0  0
  -30.4808  -26.9877   20.6981 C   0  0  0  0  0  0  0  0  0  0  0  0
  -27.9808  -20.3566   21.2708 C   0  0  0  0  0  0  0  0  0  0  0  0
  -29.4708  -26.7261   21.8108 C   0  0  0  0  0  0  0  0  0  0  0  0
  -27.4994  -19.0498   20.6362 C   0  0  0  0  0  0  0  0  0  0  0  0
  -27.2698  -20.6407   22.5927 C   0  0  0  0  0  0  0  0  0  0  0  0
  -25.3217  -19.3050   21.8928 C   0  0  0  0  0  0  0  0  0  0  0  0
  -28.0703  -26.4778   21.2376 C   0  0  1  0  0  0  0  0  0  0  0  0
  -26.2164  -29.7916   21.1140 C   0  0  1  0  0  0  0  0  0  0  0  0
  -25.9626  -19.0089   20.5271 C   0  0  2  0  0  0  0  0  0  0  0  0
  -18.5470  -24.8832   24.4543 C   0  0  0  0  0  0  0  0  0  0  0  0
  -24.1270  -36.4157   24.5431 C   0  0  0  0  0  0  0  0  0  0  0  0
  -26.9221  -30.5091   25.6249 C   0  0  0  0  0  0  0  0  0  0  0  0
  -25.9401  -32.6191   26.5480 C   0  0  0  0  0  0  0  0  0  0  0  0
  -27.9746  -32.7180   25.1079 C   0  0  0  0  0  0  0  0  0  0  0  0
  -22.8895  -35.1031   21.1932 C   0  0  0  0  0  0  0  0  0  0  0  0
  -20.9690  -20.8652   20.4904 C   0  0  0  0  0  0  0  0  0  0  0  0
  -18.7804  -25.7923   22.1119 C   0  0  0  0  0  0  0  0  0  0  0  0
  -19.6633  -26.5010   21.0890 C   0  0  0  0  0  0  0  0  0  1  0  0
  -19.5305  -25.4111   23.4029 C   0  0  2  0  0  0  0  0  0  0  0  0
  -25.7375  -32.1845   24.0578 C   0  0  1  0  0  0  0  0  0  0  0  0
  -24.1638  -35.5477   23.2949 C   0  0  2  0  0  0  0  0  0  0  0  0
  -26.6284  -31.9910   25.3173 C   0  0  0  0  0  0  0  0  0  0  0  0
  -25.7265  -16.5555   20.6065 N   0  0  0  0  0  0  0  0  0  0  0  0
  -25.4751  -17.6965   19.9424 N   0  0  0  0  0  0  0  0  0  0  0  0
  -25.5967  -30.5648   22.1921 N   0  0  0  0  0  0  0  0  0  0  0  0
  -25.8174  -20.5895   22.4115 N   0  0  0  0  0  0  0  0  0  0  0  0
  -24.4485  -18.5583   17.9894 N   0  0  0  0  0  0  0  0  0  0  0  0
  -23.7475  -14.1091   17.6583 N   0  0  0  0  0  0  0  0  0  0  0  0
  -23.6709  -21.5636   22.4911 N   0  0  0  0  0  0  0  0  0  0  0  0
  -27.4540  -27.7285   20.8497 N   0  0  0  0  0  0  0  0  0  0  0  0
  -25.4655  -33.5791   23.7268 N   0  0  0  0  0  0  0  0  0  0  0  0
  -22.9688  -35.8682   22.4641 N   0  3  0  0  0  0  0  0  0  0  0  0
  -23.4057  -16.1296   16.6289 O   0  0  0  0  0  0  0  0  0  0  0  0
  -26.5976  -28.3310   22.9296 O   0  0  0  0  0  0  0  0  0  0  0  0
  -27.4446  -31.9674   22.4253 O   0  0  0  0  0  0  0  0  0  0  0  0
  -23.1548  -33.4214   23.8407 O   0  0  0  0  0  0  0  0  0  0  0  0
  -25.5415  -22.7555   23.1708 O   0  0  0  0  0  0  0  0  0  0  0  0
  -25.4000  -10.2345   21.3040 O   0  0  0  0  0  0  0  0  0  0  0  0
  -20.9730  -20.9950   21.9104 O   0  0  0  0  0  0  0  0  0  0  0  0
  -20.1536  -27.7101   21.6671 O   0  0  0  0  0  0  0  0  0  1  0  0
  -20.7820   -7.2578   20.8370 F   0  0  0  0  0  0  0  0  0  0  0  0
  -24.2674   -9.0176   23.5129 F   0  0  0  0  0  0  0  0  0  0  0  0
  -22.4221  -26.2493   24.1123 Cl  0  0  0  0  0  0  0  0  0  0  0  0
  1  2  1  0  0  0  0
  1  5  2  0  0  0  0
  2  6  2  0  0  0  0
  3  8  2  0  0  0  0
  3 17  1  0  0  0  0
  4  9  1  0  0  0  0
  4 17  2  0  0  0  0
  5 19  1  0  0  0  0
  6 21  1  0  0  0  0
  7 10  2  0  0  0  0
  7 20  1  0  0  0  0
  8 25  1  0  0  0  0
  9 25  2  0  0  0  0
 10 26  1  0  0  0  0
 11 12  2  0  0  0  0
 11 27  1  0  0  0  0
 12 29  1  0  0  0  0
 13 22  1  0  0  0  0
 13 26  2  0  0  0  0
 14 23  1  0  0  0  0
 14 28  2  0  0  0  0
 15 24  2  0  0  0  0
 15 31  1  0  0  0  0
 16 29  2  0  0  0  0
 16 30  1  0  0  0  0
 17 32  1  0  0  0  0
 18 32  1  0  0  0  0
 18 33  2  0  0  0  0
 18 34  1  0  0  0  0
 19 21  2  0  0  0  0
 19 39  1  0  0  0  0
 20 22  2  0  0  0  0
 20 40  1  0  0  0  0
 21 48  1  0  0  0  0
 22 41  1  0  0  0  0
 23 31  2  0  0  0  0
 23 60  1  0  0  0  0
 24 28  1  0  0  0  0
 24 70  1  0  0  0  0
 25 79  1  0  0  0  0
 26 81  1  0  0  0  0
 27 30  2  0  0  0  0
 27 79  1  0  0  0  0
 28 80  1  0  0  0  0
 29 82  1  0  0  0  0
 30 83  1  0  0  0  0
 31 84  1  0  0  0  0
 32 64  2  0  0  0  0
 33 65  1  0  0  0  0
 33 68  1  0  0  0  0
 34 69  1  0  0  0  0
 34 74  2  0  0  0  0
 35 49  1  0  0  0  0
 35 71  1  0  0  0  0
 35 75  2  0  0  0  0
 36 61  1  0  0  0  0
 36 66  1  0  0  0  0
 36 76  2  0  0  0  0
 37 62  1  0  0  0  0
 37 72  1  0  0  0  0
 37 77  2  0  0  0  0
 38 67  1  0  0  0  0
 38 70  1  0  0  0  0
 38 78  2  0  0  0  0
 39 42  1  0  0  0  0
 40 49  1  0  0  0  0
 41 66  1  0  0  0  0
 42 44  1  0  0  0  0
 43 45  1  0  0  0  0
 43 46  1  0  0  0  0
 44 48  1  0  0  0  0
 45 50  1  0  0  0  0
 46 67  1  0  0  0  0
 47 50  1  0  0  0  0
 47 67  1  0  0  0  0
 48 71  1  0  0  0  0
 49 66  1  0  0  0  0
 50 65  1  0  0  0  0
 51 60  1  0  0  0  0
 52 62  1  0  0  0  0
 53 63  1  0  0  0  0
 54 63  1  0  0  0  0
 55 63  1  0  0  0  0
 56 73  1  0  0  0  0
 57 80  1  0  0  0  0
 58 59  1  0  0  0  0
 58 60  1  0  0  0  0
 59 81  1  0  0  0  0
 61 63  1  0  0  0  0
 61 72  1  0  0  0  0
 62 73  1  0  0  0  0
 64 65  1  0  0  0  0
M  CHG  1  73   1
M  ISO  4  38 100  59 101  70 100  81 101
M  END
> <Batch ID>
0022

> <Smiles>
CNC(C)C(=O)NC(C(=O)N1Cc2cc([101O:1][101CH2:1]CC(C)c3cc(OC)c([100NH:0][100C:0](=O)N4CCCC(n5nc(-c6ccc(Oc7ccc(F)cc7F)cc6)c(C(N)=O)c5N)C4)cc3Cl)ccc2CC1C(=O)NC1CCCc2ccccc21)C(C)(C)C

> <Shape>
0.289

> <Color>
0.080

> <Negative vol penalty>
0.000

$$$$

  -OEChem-04052316153D

 88 96  0     1  0  0  0  0  0999 V2000
  -16.5743  -31.9577   23.1371 C   0  0  0  0  0  0  0  0  0  0  0  0
  -17.7341  -32.7160   23.0127 C   0  0  0  0  0  0  0  0  0  0  0  0
  -24.4367  -13.6337   20.2649 C   0  0  0  0  0  0  0  0  0  0  0  0
  -26.6150  -13.4414   21.2920 C   0  0  0  0  0  0  0  0  0  0  0  0
  -16.6592  -30.6038   23.4589 C   0  0  0  0  0  0  0  0  0  0  0  0
  -18.9794  -32.1209   23.2112 C   0  0  0  0  0  0  0  0  0  0  0  0
  -25.7619  -32.4734   20.9329 C   0  0  0  0  0  0  0  0  0  0  0  0
  -24.3855  -12.2480   20.1139 C   0  0  0  0  0  0  0  0  0  0  0  0
  -26.5639  -12.0557   21.1411 C   0  0  0  0  0  0  0  0  0  0  0  0
  -27.0597  -32.5919   21.4283 C   0  0  0  0  0  0  0  0  0  0  0  0
  -23.5243   -8.7315   19.7855 C   0  0  0  0  0  0  0  0  0  0  0  0
  -22.3364   -8.0853   20.1273 C   0  0  0  0  0  0  0  0  0  0  0  0
  -27.0881  -30.2268   21.9025 C   0  0  0  0  0  0  0  0  0  0  0  0
  -30.7024  -23.2433   21.2362 C   0  0  0  0  0  0  0  0  0  0  0  0
  -22.5408   -8.9064   22.3903 C   0  0  0  0  0  0  0  0  0  0  0  0
  -25.5514  -14.2304   20.8539 C   0  0  0  0  0  0  0  0  0  0  0  0
  -25.1530  -16.4148   22.1099 C   0  0  0  0  0  0  0  0  0  0  0  0
  -17.9067  -29.9896   23.6519 C   0  0  0  0  0  0  0  0  0  0  0  0
  -25.1123  -31.2306   20.9287 C   0  0  0  0  0  0  0  0  0  0  0  0
  -19.0810  -30.7578   23.5372 C   0  0  0  0  0  0  0  0  0  0  0  0
  -25.7830  -30.0947   21.4041 C   0  0  0  0  0  0  0  0  0  0  0  0
  -30.4785  -23.3164   24.0160 C   0  0  0  0  0  0  0  0  0  0  0  0
  -31.4682  -24.0626   23.3762 C   0  0  0  0  0  0  0  0  0  0  0  0
  -29.7127  -22.4971   21.8761 C   0  0  0  0  0  0  0  0  0  0  0  0
  -25.4491  -11.4590   20.5520 C   0  0  0  0  0  0  0  0  0  0  0  0
  -27.7220  -31.4690   21.9158 C   0  0  0  0  0  0  0  0  0  0  0  0
  -24.2206   -9.4651   20.7461 C   0  0  0  0  0  0  0  0  0  0  0  0
  -21.8446   -8.1728   21.4296 C   0  0  0  0  0  0  0  0  0  0  0  0
  -23.7288   -9.5526   22.0485 C   0  0  0  0  0  0  0  0  0  0  0  0
  -31.5802  -24.0260   21.9863 C   0  0  0  0  0  0  0  0  0  0  0  0
  -29.6007  -22.5337   23.2659 C   0  0  0  0  0  0  0  0  0  0  0  0
  -25.6051  -15.6618   21.0097 C   0  0  0  0  0  0  0  0  0  0  0  0
  -25.4285  -17.7170   21.7713 C   0  0  0  0  0  0  0  0  0  0  0  0
  -24.5389  -15.9762   23.3290 C   0  0  0  0  0  0  0  0  0  0  0  0
  -22.4931  -30.0639   22.3004 C   0  0  0  0  0  0  0  0  0  0  0  0
  -23.1626  -27.4693   20.4723 C   0  0  0  0  0  0  0  0  0  0  0  0
  -25.4939  -25.6460   18.7730 C   0  0  0  0  0  0  0  0  0  0  0  0
  -28.8452  -21.5906   19.6916 C   0  0  0  0  0  0  0  0  0  0  0  0
  -17.9461  -28.5340   24.0448 C   0  0  0  0  0  0  0  0  0  0  0  0
  -23.7222  -31.1147   20.3662 C   0  0  0  0  0  0  0  0  0  0  0  0
  -25.1374  -28.7340   21.4028 C   0  0  0  0  0  0  0  0  0  0  0  0
  -19.3207  -27.8932   23.8707 C   0  0  0  0  0  0  0  0  0  0  0  0
  -26.8886  -19.7365   17.3654 C   0  0  0  0  0  0  0  0  0  0  0  0
  -20.4069  -28.7942   24.4494 C   0  0  0  0  0  0  0  0  0  0  0  0
  -26.3431  -18.5731   18.1966 C   0  0  0  0  0  0  0  0  0  0  0  0
  -28.3144  -20.1045   17.7720 C   0  0  0  0  0  0  0  0  0  0  0  0
  -27.9584  -19.2009   20.0361 C   0  0  0  0  0  0  0  0  0  0  0  0
  -20.4515  -30.1426   23.7205 C   0  0  1  0  0  0  0  0  0  0  0  0
  -22.9676  -29.8944   20.8849 C   0  0  1  0  0  0  0  0  0  0  0  0
  -26.5015  -18.8366   19.7069 C   0  0  2  0  0  0  0  0  0  0  0  0
  -30.3734  -23.3683   25.5095 C   0  0  0  0  0  0  0  0  0  0  0  0
  -25.7483  -23.5542   17.4103 C   0  0  0  0  0  0  0  0  0  0  0  0
  -23.0343  -25.7963   23.0208 C   0  0  0  0  0  0  0  0  0  0  0  0
  -24.2040  -23.9570   21.7892 C   0  0  0  0  0  0  0  0  0  0  0  0
  -21.9623  -24.7392   21.0239 C   0  0  0  0  0  0  0  0  0  0  0  0
  -26.3841  -27.1652   16.3943 C   0  0  0  0  0  0  0  0  0  0  0  0
  -32.4078  -24.8994   24.1934 C   0  0  0  0  0  0  0  0  0  0  0  0
  -31.5193  -29.1471   24.9116 C   0  0  0  0  0  0  0  0  0  0  0  0
  -30.8681  -30.4241   25.4479 C   0  0  0  0  0  0  0  0  0  0  0  0
  -31.9368  -28.2163   26.0538 C   0  0  0  0  0  0  0  0  0  0  0  0
  -30.4209  -31.3398   24.3103 C   0  0  0  0  0  0  0  0  0  0  0  0
  -32.6600  -26.9618   25.5796 C   0  0  0  0  0  0  0  0  0  0  0  0
  -29.3733  -30.6724   23.4305 C   0  0  0  0  0  0  0  0  0  1  0  0
  -23.9820  -26.2148   20.6559 C   0  0  1  0  0  0  0  0  0  0  0  0
  -25.4855  -25.0517   17.3761 C   0  0  2  0  0  0  0  0  0  0  0  0
  -23.3074  -25.2027   21.6244 C   0  0  0  0  0  0  0  0  0  0  0  0
  -26.1280  -16.4224   20.0443 N   0  0  0  0  0  0  0  0  0  0  0  0
  -26.0061  -17.6669   20.5367 N   0  0  0  0  0  0  0  0  0  0  0  0
  -23.7748  -28.6732   20.8485 N   0  0  0  0  0  0  0  0  0  0  0  0
  -28.3872  -20.3440   19.2150 N   0  0  0  0  0  0  0  0  0  0  0  0
  -25.2306  -18.8886   22.4120 N   0  0  0  0  0  0  0  0  0  0  0  0
  -24.3291  -14.6030   23.5152 N   0  0  0  0  0  0  0  0  0  0  0  0
  -28.8399  -21.7140   21.0806 N   0  0  0  0  0  0  0  0  0  0  0  0
  -21.1200  -30.0054   22.4443 N   0  0  0  0  0  0  0  0  0  0  0  0
  -24.2279  -25.6883   19.3177 N   0  0  0  0  0  0  0  0  0  0  0  0
  -26.5338  -25.6938   16.5337 N   0  3  0  0  0  0  0  0  0  0  0  0
  -31.7775  -26.1435   24.7153 N   0  3  0  0  0  0  0  0  0  0  0  0
  -24.1718  -16.7796   24.2197 O   0  0  0  0  0  0  0  0  0  0  0  0
  -23.3121  -30.2335   23.1960 O   0  0  0  0  0  0  0  0  0  0  0  0
  -22.0239  -27.3849   20.0054 O   0  0  0  0  0  0  0  0  0  0  0  0
  -26.5213  -26.0306   19.3271 O   0  0  0  0  0  0  0  0  0  0  0  0
  -29.1892  -22.4925   18.9233 O   0  0  0  0  0  0  0  0  0  0  0  0
  -25.3994  -10.1067   20.4050 O   0  0  0  0  0  0  0  0  0  0  0  0
  -28.9885  -31.5820   22.4005 O   0  0  0  0  0  0  0  0  0  1  0  0
  -20.7030   -7.5535   21.7573 F   0  0  0  0  0  0  0  0  0  0  0  0
  -24.3927  -10.2569   22.9753 F   0  0  0  0  0  0  0  0  0  0  0  0
  -32.7946  -24.9302   21.1564 Cl  0  0  0  0  0  0  0  0  0  0  0  0
  -28.3709  -21.6062   24.0633 Cl  0  0  0  0  0  0  0  0  0  0  0  0
  1  2  1  0  0  0  0
  1  5  2  0  0  0  0
  2  6  2  0  0  0  0
  3  8  2  0  0  0  0
  3 16  1  0  0  0  0
  4  9  1  0  0  0  0
  4 16  2  0  0  0  0
  5 18  1  0  0  0  0
  6 20  1  0  0  0  0
  7 10  2  0  0  0  0
  7 19  1  0  0  0  0
  8 25  1  0  0  0  0
  9 25  2  0  0  0  0
 10 26  1  0  0  0  0
 11 12  2  0  0  0  0
 11 27  1  0  0  0  0
 12 28  1  0  0  0  0
 13 21  1  0  0  0  0
 13 26  2  0  0  0  0
 14 24  1  0  0  0  0
 14 30  2  0  0  0  0
 15 28  2  0  0  0  0
 15 29  1  0  0  0  0
 16 32  1  0  0  0  0
 17 32  1  0  0  0  0
 17 33  2  0  0  0  0
 17 34  1  0  0  0  0
 18 20  2  0  0  0  0
 18 39  1  0  0  0  0
 19 21  2  0  0  0  0
 19 40  1  0  0  0  0
 20 48  1  0  0  0  0
 21 41  1  0  0  0  0
 22 23  2  0  0  0  0
 22 31  1  0  0  0  0
 22 51  1  0  0  0  0
 23 30  1  0  0  0  0
 23 57  1  0  0  0  0
 24 31  2  0  0  0  0
 24 73  1  0  0  0  0
 25 83  1  0  0  0  0
 26 84  1  0  0  0  0
 27 29  2  0  0  0  0
 27 83  1  0  0  0  0
 28 85  1  0  0  0  0
 29 86  1  0  0  0  0
 30 87  1  0  0  0  0
 31 88  1  0  0  0  0
 32 67  2  0  0  0  0
 33 68  1  0  0  0  0
 33 71  1  0  0  0  0
 34 72  1  0  0  0  0
 34 78  2  0  0  0  0
 35 49  1  0  0  0  0
 35 74  1  0  0  0  0
 35 79  2  0  0  0  0
 36 64  1  0  0  0  0
 36 69  1  0  0  0  0
 36 80  2  0  0  0  0
 37 65  1  0  0  0  0
 37 75  1  0  0  0  0
 37 81  2  0  0  0  0
 38 70  1  0  0  0  0
 38 73  1  0  0  0  0
 38 82  2  0  0  0  0
 39 42  1  0  0  0  0
 40 49  1  0  0  0  0
 41 69  1  0  0  0  0
 42 44  1  0  0  0  0
 43 45  1  0  0  0  0
 43 46  1  0  0  0  0
 44 48  1  0  0  0  0
 45 50  1  0  0  0  0
 46 70  1  0  0  0  0
 47 50  1  0  0  0  0
 47 70  1  0  0  0  0
 48 74  1  0  0  0  0
 49 69  1  0  0  0  0
 50 68  1  0  0  0  0
 52 65  1  0  0  0  0
 53 66  1  0  0  0  0
 54 66  1  0  0  0  0
 55 66  1  0  0  0  0
 56 76  1  0  0  0  0
 57 77  1  0  0  0  0
 58 59  1  0  0  0  0
 58 60  1  0  0  0  0
 59 61  1  0  0  0  0
 60 62  1  0  0  0  0
 61 63  1  0  0  0  0
 62 77  1  0  0  0  0
 63 84  1  0  0  0  0
 64 66  1  0  0  0  0
 64 75  1  0  0  0  0
 65 76  1  0  0  0  0
 67 68  1  0  0  0  0
M  CHG  2  76   1  77   1
M  ISO  4  38 100  63 101  73 100  84 101
M  END
> <Batch ID>
0022

> <Smiles>
CNC(C)C(=O)NC(C(=O)N1Cc2cc([101O:1][101CH2:1]CCCCCNCc3c(Cl)cc([100NH:0][100C:0](=O)N4CCCC(n5nc(-c6ccc(Oc7ccc(F)cc7F)cc6)c(C(N)=O)c5N)C4)c(Cl)c3C)ccc2CC1C(=O)NC1CCCc2ccccc21)C(C)(C)C

> <Shape>
0.229

> <Color>
0.085

> <Negative vol penalty>
0.000

$$$$

  -OEChem-04052316153D

 88 96  0     1  0  0  0  0  0999 V2000
  -31.6082  -29.0508   23.3348 C   0  0  0  0  0  0  0  0  0  0  0  0
  -30.9653  -27.8397   23.5703 C   0  0  0  0  0  0  0  0  0  0  0  0
  -23.3065   -9.7458   19.9417 C   0  0  0  0  0  0  0  0  0  0  0  0
  -23.7486   -9.9315   22.3097 C   0  0  0  0  0  0  0  0  0  0  0  0
  -31.8641  -29.4600   22.0268 C   0  0  0  0  0  0  0  0  0  0  0  0
  -30.5769  -27.0377   22.4977 C   0  0  0  0  0  0  0  0  0  0  0  0
  -31.7086  -22.1540   23.2142 C   0  0  0  0  0  0  0  0  0  0  0  0
  -22.5983   -8.5653   20.1665 C   0  0  0  0  0  0  0  0  0  0  0  0
  -23.0404   -8.7510   22.5345 C   0  0  0  0  0  0  0  0  0  0  0  0
  -30.8706  -21.4229   24.0549 C   0  0  0  0  0  0  0  0  0  0  0  0
  -21.0423   -5.9782   23.7744 C   0  0  0  0  0  0  0  0  0  0  0  0
  -20.1384   -5.9555   24.8365 C   0  0  0  0  0  0  0  0  0  0  0  0
  -29.7526  -20.4990   22.1273 C   0  0  0  0  0  0  0  0  0  0  0  0
  -31.7817  -17.4707   24.6274 C   0  0  0  0  0  0  0  0  0  0  0  0
  -32.7430  -15.4871   23.6382 C   0  0  0  0  0  0  0  0  0  0  0  0
  -18.9023   -7.7671   23.8230 C   0  0  0  0  0  0  0  0  0  0  0  0
  -23.8817  -10.4289   21.0133 C   0  0  0  0  0  0  0  0  0  0  0  0
  -24.1013  -12.9592   20.7748 C   0  0  0  0  0  0  0  0  0  0  0  0
  -31.4873  -28.6581   20.9379 C   0  0  0  0  0  0  0  0  0  0  0  0
  -31.5676  -22.0713   21.8214 C   0  0  0  0  0  0  0  0  0  0  0  0
  -30.8268  -27.4373   21.1739 C   0  0  0  0  0  0  0  0  0  0  0  0
  -30.5918  -21.2281   21.2710 C   0  0  0  0  0  0  0  0  0  0  0  0
  -30.6903  -16.7221   25.0680 C   0  0  0  0  0  0  0  0  0  0  0  0
  -31.6516  -14.7385   24.0788 C   0  0  0  0  0  0  0  0  0  0  0  0
  -32.8080  -16.8532   23.9124 C   0  0  0  0  0  0  0  0  0  0  0  0
  -22.4653   -8.0679   21.4628 C   0  0  0  0  0  0  0  0  0  0  0  0
  -29.8905  -20.5975   23.5116 C   0  0  0  0  0  0  0  0  0  0  0  0
  -20.8763   -6.8954   22.7367 C   0  0  0  0  0  0  0  0  0  0  0  0
  -19.0684   -6.8500   24.8608 C   0  0  0  0  0  0  0  0  0  0  0  0
  -19.8062   -7.7898   22.7610 C   0  0  0  0  0  0  0  0  0  0  0  0
  -30.6253  -15.3560   24.7937 C   0  0  0  0  0  0  0  0  0  0  0  0
  -24.6138  -11.6481   20.7817 C   0  0  0  0  0  0  0  0  0  0  0  0
  -25.1909  -13.7524   20.5100 C   0  0  0  0  0  0  0  0  0  0  0  0
  -22.7602  -13.4190   20.9887 C   0  0  0  0  0  0  0  0  0  0  0  0
  -30.8588  -24.1372   19.5121 C   0  0  0  0  0  0  0  0  0  0  0  0
  -31.5342  -21.6170   17.5847 C   0  0  0  0  0  0  0  0  0  0  0  0
  -31.7697  -18.2324   17.2168 C   0  0  0  0  0  0  0  0  0  0  0  0
  -31.0723  -13.0165   21.3572 C   0  0  0  0  0  0  0  0  0  0  0  0
  -31.7429  -29.1646   19.5405 C   0  0  0  0  0  0  0  0  0  0  0  0
  -32.4970  -22.8458   20.9278 C   0  0  0  0  0  0  0  0  0  0  0  0
  -30.4128  -21.0885   19.7821 C   0  0  0  0  0  0  0  0  0  0  0  0
  -31.6345  -28.0812   18.4706 C   0  0  0  0  0  0  0  0  0  0  0  0
  -29.4201  -13.6803   18.2741 C   0  0  0  0  0  0  0  0  0  0  0  0
  -30.3762  -27.2455   18.6827 C   0  0  0  0  0  0  0  0  0  0  0  0
  -27.9547  -13.3530   18.5665 C   0  0  0  0  0  0  0  0  0  0  0  0
  -30.3669  -12.7274   19.0003 C   0  0  0  0  0  0  0  0  0  0  0  0
  -28.6827  -12.2991   20.7478 C   0  0  0  0  0  0  0  0  0  0  0  0
  -30.4124  -26.5279   20.0374 C   0  0  1  0  0  0  0  0  0  0  0  0
  -31.9268  -23.0805   19.5324 C   0  0  1  0  0  0  0  0  0  0  0  0
  -27.6907  -13.2681   20.0819 C   0  0  2  0  0  0  0  0  0  0  0  0
  -32.2909  -16.0411   16.1104 C   0  0  0  0  0  0  0  0  0  0  0  0
  -28.8020  -22.0340   16.2918 C   0  0  0  0  0  0  0  0  0  0  0  0
  -28.9944  -19.7394   15.3090 C   0  0  0  0  0  0  0  0  0  0  0  0
  -30.6453  -21.5030   14.6872 C   0  0  0  0  0  0  0  0  0  0  0  0
  -34.8593  -17.0273   25.6287 C   0  0  0  0  0  0  0  0  0  0  0  0
  -36.3021  -17.2037   23.5853 C   0  0  0  0  0  0  0  0  0  0  0  0
  -35.2924  -19.2664   24.5925 C   0  0  0  0  0  0  0  0  0  0  0  0
  -33.8844  -18.2471   22.1635 C   0  0  0  0  0  0  0  0  0  0  0  0
  -34.5567  -18.2601   18.2124 C   0  0  0  0  0  0  0  0  0  0  0  0
  -29.6034  -17.4321   25.8347 C   0  0  0  0  0  0  0  0  0  0  0  0
  -31.6243  -13.2776   23.7627 C   0  0  0  0  0  0  0  0  0  0  0  0
  -28.3426  -17.7007   25.0101 C   0  0  0  0  0  0  0  0  0  0  0  0
  -28.5798  -18.6391   23.8326 C   0  0  0  0  0  0  0  0  0  1  0  0
  -30.7377  -20.4775   16.9963 C   0  0  1  0  0  0  0  0  0  0  0  0
  -32.8572  -17.3573   16.6201 C   0  0  2  0  0  0  0  0  0  0  0  0
  -29.7967  -20.9424   15.8492 C   0  0  0  0  0  0  0  0  0  0  0  0
  -35.0781  -17.7752   24.3085 C   0  0  0  0  0  0  0  0  0  0  0  0
  -25.9268  -11.6064   20.5403 N   0  0  0  0  0  0  0  0  0  0  0  0
  -26.2485  -12.9013   20.3792 N   0  0  0  0  0  0  0  0  0  0  0  0
  -31.3418  -21.8710   18.9501 N   0  0  0  0  0  0  0  0  0  0  0  0
  -30.0647  -12.6941   20.4333 N   0  0  0  0  0  0  0  0  0  0  0  0
  -25.3378  -15.0879   20.3786 N   0  0  0  0  0  0  0  0  0  0  0  0
  -21.7620  -12.4701   21.2487 N   0  0  0  0  0  0  0  0  0  0  0  0
  -31.2786  -25.3703   19.9732 N   0  0  0  0  0  0  0  0  0  0  0  0
  -31.7084  -19.4635   16.5989 N   0  0  0  0  0  0  0  0  0  0  0  0
  -30.7001  -12.9664   22.6950 N   0  0  0  0  0  0  0  0  0  0  0  0
  -33.9104  -17.6110   23.4656 N   0  0  3  0  0  0  0  0  0  0  0  0
  -33.8989  -17.0562   17.6424 N   0  3  0  0  0  0  0  0  0  0  0  0
  -22.4530  -14.6340   20.9341 O   0  0  0  0  0  0  0  0  0  0  0  0
  -29.7373  -23.8551   19.1065 O   0  0  0  0  0  0  0  0  0  0  0  0
  -32.3041  -22.2537   16.8611 O   0  0  0  0  0  0  0  0  0  0  0  0
  -31.0445  -17.8596   18.1365 O   0  0  0  0  0  0  0  0  0  0  0  0
  -32.2173  -13.3311   21.0151 O   0  0  0  0  0  0  0  0  0  0  0  0
  -21.7741   -6.9161   21.6826 O   0  0  0  0  0  0  0  0  0  0  0  0
  -29.0707  -19.8833   24.3300 O   0  0  0  0  0  0  0  0  0  1  0  0
  -18.1995   -6.8271   25.8800 F   0  0  0  0  0  0  0  0  0  0  0  0
  -19.6408   -8.6724   21.7663 F   0  0  0  0  0  0  0  0  0  0  0  0
  -29.2703  -14.4265   25.3407 Cl  0  0  0  0  0  0  0  0  0  0  0  0
  1  2  1  0  0  0  0
  1  5  2  0  0  0  0
  2  6  2  0  0  0  0
  3  8  2  0  0  0  0
  3 17  1  0  0  0  0
  4  9  1  0  0  0  0
  4 17  2  0  0  0  0
  5 19  1  0  0  0  0
  6 21  1  0  0  0  0
  7 10  2  0  0  0  0
  7 20  1  0  0  0  0
  8 26  1  0  0  0  0
  9 26  2  0  0  0  0
 10 27  1  0  0  0  0
 11 12  2  0  0  0  0
 11 28  1  0  0  0  0
 12 29  1  0  0  0  0
 13 22  1  0  0  0  0
 13 27  2  0  0  0  0
 14 23  1  0  0  0  0
 14 25  2  0  0  0  0
 15 24  2  0  0  0  0
 15 25  1  0  0  0  0
 16 29  2  0  0  0  0
 16 30  1  0  0  0  0
 17 32  1  0  0  0  0
 18 32  1  0  0  0  0
 18 33  2  0  0  0  0
 18 34  1  0  0  0  0
 19 21  2  0  0  0  0
 19 39  1  0  0  0  0
 20 22  2  0  0  0  0
 20 40  1  0  0  0  0
 21 48  1  0  0  0  0
 22 41  1  0  0  0  0
 23 31  2  0  0  0  0
 23 60  1  0  0  0  0
 24 31  1  0  0  0  0
 24 61  1  0  0  0  0
 25 77  1  0  0  0  0
 26 84  1  0  0  0  0
 27 85  1  0  0  0  0
 28 30  2  0  0  0  0
 28 84  1  0  0  0  0
 29 86  1  0  0  0  0
 30 87  1  0  0  0  0
 31 88  1  0  0  0  0
 32 68  2  0  0  0  0
 33 69  1  0  0  0  0
 33 72  1  0  0  0  0
 34 73  1  0  0  0  0
 34 79  2  0  0  0  0
 35 49  1  0  0  0  0
 35 74  1  0  0  0  0
 35 80  2  0  0  0  0
 36 64  1  0  0  0  0
 36 70  1  0  0  0  0
 36 81  2  0  0  0  0
 37 65  1  0  0  0  0
 37 75  1  0  0  0  0
 37 82  2  0  0  0  0
 38 71  1  0  0  0  0
 38 76  1  0  0  0  0
 38 83  2  0  0  0  0
 39 42  1  0  0  0  0
 40 49  1  0  0  0  0
 41 70  1  0  0  0  0
 42 44  1  0  0  0  0
 43 45  1  0  0  0  0
 43 46  1  0  0  0  0
 44 48  1  0  0  0  0
 45 50  1  0  0  0  0
 46 71  1  0  0  0  0
 47 50  1  0  0  0  0
 47 71  1  0  0  0  0
 48 74  1  0  0  0  0
 49 70  1  0  0  0  0
 50 69  1  0  0  0  0
 51 65  1  0  0  0  0
 52 66  1  0  0  0  0
 53 66  1  0  0  0  0
 54 66  1  0  0  0  0
 55 67  1  0  0  0  0
 56 67  1  0  0  0  0
 57 67  1  0  0  0  0
 58 77  1  0  0  0  0
 59 78  1  0  0  0  0
 60 62  1  0  0  0  0
 61 76  1  0  0  0  0
 62 63  1  0  0  0  0
 63 85  1  0  0  0  0
 64 66  1  0  0  0  0
 64 75  1  0  0  0  0
 65 78  1  0  0  0  0
 67 77  1  0  0  0  0
 68 69  1  0  0  0  0
M  CHG  1  78   1
M  ISO  4  38 100  63 101  76 100  85 101
M  END
> <Batch ID>
0022

> <Smiles>
CNC(C)C(=O)NC(C(=O)N1Cc2cc([101O:1][101CH2:1]CCc3cc(N(C)C(C)(C)C)cc(C[100NH:0][100C:0](=O)N4CCCC(n5nc(-c6ccc(Oc7ccc(F)cc7F)cc6)c(C(N)=O)c5N)C4)c3Cl)ccc2CC1C(=O)NC1CCCc2ccccc21)C(C)(C)C

> <Shape>
0.190

> <Color>
0.185

> <Negative vol penalty>
0.000

$$$$

  -OEChem-04052316153D

 83 91  0     1  0  0  0  0  0999 V2000
  -22.6340   -7.9452   20.5545 C   0  0  0  0  0  0  0  0  0  0  0  0
  -21.9570   -9.1519   20.4093 C   0  0  0  0  0  0  0  0  0  0  0  0
  -28.8730  -27.7933   20.4916 C   0  0  0  0  0  0  0  0  0  0  0  0
  -27.7030  -26.2086   19.0927 C   0  0  0  0  0  0  0  0  0  0  0  0
  -23.7843   -7.8827   21.3398 C   0  0  0  0  0  0  0  0  0  0  0  0
  -22.4295  -10.2966   21.0503 C   0  0  0  0  0  0  0  0  0  0  0  0
  -22.1744  -16.0512   18.9705 C   0  0  0  0  0  0  0  0  0  0  0  0
  -30.0553  -27.0739   20.3178 C   0  0  0  0  0  0  0  0  0  0  0  0
  -28.8853  -25.4893   18.9187 C   0  0  0  0  0  0  0  0  0  0  0  0
  -21.2984  -17.1043   19.2299 C   0  0  0  0  0  0  0  0  0  0  0  0
  -31.6972  -25.7337   17.0601 C   0  0  0  0  0  0  0  0  0  0  0  0
  -32.0120  -25.3095   15.7692 C   0  0  0  0  0  0  0  0  0  0  0  0
  -22.8300  -17.9628   20.8841 C   0  0  0  0  0  0  0  0  0  0  0  0
  -17.3448  -24.7804   21.0970 C   0  0  0  0  0  0  0  0  0  0  0  0
  -31.9890  -23.0127   16.5182 C   0  0  0  0  0  0  0  0  0  0  0  0
  -27.6968  -27.3606   19.8791 C   0  0  0  0  0  0  0  0  0  0  0  0
  -25.9972  -29.1598   19.2610 C   0  0  0  0  0  0  0  0  0  0  0  0
  -24.2766   -9.0293   21.9829 C   0  0  0  0  0  0  0  0  0  0  0  0
  -23.3818  -15.9397   19.6749 C   0  0  0  0  0  0  0  0  0  0  0  0
  -23.5868  -10.2490   21.8460 C   0  0  0  0  0  0  0  0  0  0  0  0
  -23.7208  -16.9087   20.6300 C   0  0  0  0  0  0  0  0  0  0  0  0
  -17.5282  -23.4131   20.8909 C   0  0  0  0  0  0  0  0  0  0  0  0
  -18.4195  -25.5764   21.4936 C   0  0  0  0  0  0  0  0  0  0  0  0
  -18.7863  -22.8417   21.0815 C   0  0  0  0  0  0  0  0  0  0  0  0
  -19.8610  -23.6376   21.4782 C   0  0  0  0  0  0  0  0  0  0  0  0
  -19.6776  -25.0049   21.6842 C   0  0  0  0  0  0  0  0  0  0  0  0
  -30.0615  -25.9220   19.5313 C   0  0  0  0  0  0  0  0  0  0  0  0
  -21.6248  -18.0588   20.1889 C   0  0  0  0  0  0  0  0  0  0  0  0
  -31.5284  -24.7973   18.0802 C   0  0  0  0  0  0  0  0  0  0  0  0
  -32.1579  -23.9490   15.4982 C   0  0  0  0  0  0  0  0  0  0  0  0
  -31.6742  -23.4368   17.8092 C   0  0  0  0  0  0  0  0  0  0  0  0
  -26.4750  -28.1029   20.0589 C   0  0  0  0  0  0  0  0  0  0  0  0
  -24.8078  -29.5207   19.8454 C   0  0  0  0  0  0  0  0  0  0  0  0
  -26.5767  -29.7614   18.0957 C   0  0  0  0  0  0  0  0  0  0  0  0
  -24.6383  -13.7855   21.6458 C   0  0  0  0  0  0  0  0  0  0  0  0
  -27.2561  -15.6891   21.4312 C   0  0  0  0  0  0  0  0  0  0  0  0
  -28.5427  -18.7849   20.7931 C   0  0  0  0  0  0  0  0  0  0  0  0
  -20.8725  -26.5792   23.2463 C   0  0  0  0  0  0  0  0  0  0  0  0
  -25.4972   -8.9023   22.8596 C   0  0  0  0  0  0  0  0  0  0  0  0
  -24.3282  -14.8126   19.3644 C   0  0  0  0  0  0  0  0  0  0  0  0
  -25.0141  -16.8457   21.3992 C   0  0  0  0  0  0  0  0  0  0  0  0
  -26.1434  -10.2422   23.2020 C   0  0  0  0  0  0  0  0  0  0  0  0
  -22.5874  -29.5838   24.0881 C   0  0  0  0  0  0  0  0  0  0  0  0
  -25.0840  -11.2506   23.6352 C   0  0  0  0  0  0  0  0  0  0  0  0
  -23.7318  -29.6444   23.0739 C   0  0  0  0  0  0  0  0  0  0  0  0
  -22.3012  -28.1515   24.5354 C   0  0  0  0  0  0  0  0  0  0  0  0
  -23.2164  -27.2552   22.4311 C   0  0  0  0  0  0  0  0  0  0  0  0
  -24.0820  -11.5179   22.5055 C   0  0  1  0  0  0  0  0  0  0  0  0
  -25.2945  -14.5120   20.5059 C   0  0  1  0  0  0  0  0  0  0  0  0
  -23.4984  -28.6709   21.9020 C   0  0  2  0  0  0  0  0  0  0  0  0
  -16.3614  -22.5837   20.4649 C   0  0  0  0  0  0  0  0  0  0  0  0
  -18.1917  -27.0382   21.7052 C   0  0  0  0  0  0  0  0  0  0  0  0
  -21.2091  -23.0194   21.6816 C   0  0  0  0  0  0  0  0  0  0  0  0
  -30.7137  -20.0423   20.7350 C   0  0  0  0  0  0  0  0  0  0  0  0
  -27.2696  -15.8018   24.4803 C   0  0  0  0  0  0  0  0  0  0  0  0
  -28.8068  -17.7723   24.3312 C   0  0  0  0  0  0  0  0  0  0  0  0
  -29.5287  -15.5590   23.4354 C   0  0  0  0  0  0  0  0  0  0  0  0
  -28.2453  -19.3961   17.9126 C   0  0  0  0  0  0  0  0  0  0  0  0
  -18.9812  -21.3633   20.8580 C   0  0  0  0  0  0  0  0  0  0  0  0
  -19.6854  -21.0270   19.5417 C   0  0  0  0  0  0  0  0  0  0  0  0
  -19.9543  -19.5371   19.3644 C   0  0  0  0  0  0  0  0  0  1  0  0
  -27.7726  -16.8864   22.1920 C   0  0  1  0  0  0  0  0  0  0  0  0
  -29.7086  -19.2329   19.9303 C   0  0  2  0  0  0  0  0  0  0  0  0
  -28.3191  -16.5053   23.5968 C   0  0  0  0  0  0  0  0  0  0  0  0
  -25.6561  -27.8115   21.0730 N   0  0  0  0  0  0  0  0  0  0  0  0
  -24.6517  -28.6906   20.9163 N   0  0  0  0  0  0  0  0  0  0  0  0
  -25.9033  -15.7211   21.0642 N   0  0  0  0  0  0  0  0  0  0  0  0
  -22.0862  -27.2876   23.3725 N   0  0  0  0  0  0  0  0  0  0  0  0
  -23.8908  -30.4639   19.5427 N   0  0  0  0  0  0  0  0  0  0  0  0
  -27.8031  -29.2689   17.6292 N   0  0  0  0  0  0  0  0  0  0  0  0
  -20.7684  -25.8162   22.0838 N   0  0  0  0  0  0  0  0  0  0  0  0
  -24.6565  -12.4095   21.5209 N   0  0  0  0  0  0  0  0  0  0  0  0
  -28.7528  -17.5298   21.3239 N   0  0  0  0  0  0  0  0  0  0  0  0
  -29.2234  -20.0754   18.8008 N   0  3  0  0  0  0  0  0  0  0  0  0
  -26.0313  -30.7186   17.4958 O   0  0  0  0  0  0  0  0  0  0  0  0
  -24.1528  -14.4260   22.5709 O   0  0  0  0  0  0  0  0  0  0  0  0
  -28.0264  -14.7628   21.1660 O   0  0  0  0  0  0  0  0  0  0  0  0
  -27.5470  -19.4805   20.9807 O   0  0  0  0  0  0  0  0  0  0  0  0
  -19.9793  -26.6661   24.0929 O   0  0  0  0  0  0  0  0  0  0  0  0
  -31.2151  -25.2199   19.3612 O   0  0  0  0  0  0  0  0  0  0  0  0
  -20.7713  -19.0874   20.4445 O   0  0  0  0  0  0  0  0  0  1  0  0
  -32.4587  -23.5418   14.2581 F   0  0  0  0  0  0  0  0  0  0  0  0
  -31.5121  -22.5325   18.7848 F   0  0  0  0  0  0  0  0  0  0  0  0
  1  2  1  0  0  0  0
  1  5  2  0  0  0  0
  2  6  2  0  0  0  0
  3  8  2  0  0  0  0
  3 16  1  0  0  0  0
  4  9  1  0  0  0  0
  4 16  2  0  0  0  0
  5 18  1  0  0  0  0
  6 20  1  0  0  0  0
  7 10  2  0  0  0  0
  7 19  1  0  0  0  0
  8 27  1  0  0  0  0
  9 27  2  0  0  0  0
 10 28  1  0  0  0  0
 11 12  2  0  0  0  0
 11 29  1  0  0  0  0
 12 30  1  0  0  0  0
 13 21  1  0  0  0  0
 13 28  2  0  0  0  0
 14 22  2  0  0  0  0
 14 23  1  0  0  0  0
 15 30  2  0  0  0  0
 15 31  1  0  0  0  0
 16 32  1  0  0  0  0
 17 32  1  0  0  0  0
 17 33  2  0  0  0  0
 17 34  1  0  0  0  0
 18 20  2  0  0  0  0
 18 39  1  0  0  0  0
 19 21  2  0  0  0  0
 19 40  1  0  0  0  0
 20 48  1  0  0  0  0
 21 41  1  0  0  0  0
 22 24  1  0  0  0  0
 22 51  1  0  0  0  0
 23 26  2  0  0  0  0
 23 52  1  0  0  0  0
 24 25  2  0  0  0  0
 24 59  1  0  0  0  0
 25 26  1  0  0  0  0
 25 53  1  0  0  0  0
 26 71  1  0  0  0  0
 27 80  1  0  0  0  0
 28 81  1  0  0  0  0
 29 31  2  0  0  0  0
 29 80  1  0  0  0  0
 30 82  1  0  0  0  0
 31 83  1  0  0  0  0
 32 65  2  0  0  0  0
 33 66  1  0  0  0  0
 33 69  1  0  0  0  0
 34 70  1  0  0  0  0
 34 75  2  0  0  0  0
 35 49  1  0  0  0  0
 35 72  1  0  0  0  0
 35 76  2  0  0  0  0
 36 62  1  0  0  0  0
 36 67  1  0  0  0  0
 36 77  2  0  0  0  0
 37 63  1  0  0  0  0
 37 73  1  0  0  0  0
 37 78  2  0  0  0  0
 38 68  1  0  0  0  0
 38 71  1  0  0  0  0
 38 79  2  0  0  0  0
 39 42  1  0  0  0  0
 40 49  1  0  0  0  0
 41 67  1  0  0  0  0
 42 44  1  0  0  0  0
 43 45  1  0  0  0  0
 43 46  1  0  0  0  0
 44 48  1  0  0  0  0
 45 50  1  0  0  0  0
 46 68  1  0  0  0  0
 47 50  1  0  0  0  0
 47 68  1  0  0  0  0
 48 72  1  0  0  0  0
 49 67  1  0  0  0  0
 50 66  1  0  0  0  0
 54 63  1  0  0  0  0
 55 64  1  0  0  0  0
 56 64  1  0  0  0  0
 57 64  1  0  0  0  0
 58 74  1  0  0  0  0
 59 60  1  0  0  0  0
 60 61  1  0  0  0  0
 61 81  1  0  0  0  0
 62 64  1  0  0  0  0
 62 73  1  0  0  0  0
 63 74  1  0  0  0  0
 65 66  1  0  0  0  0
M  CHG  1  74   1
M  ISO  4  38 100  61 101  71 100  81 101
M  END
> <Batch ID>
0022

> <Smiles>
CNC(C)C(=O)NC(C(=O)N1Cc2cc([101O:1][101CH2:1]CCc3c(C)cc(C)c([100NH:0][100C:0](=O)N4CCCC(n5nc(-c6ccc(Oc7ccc(F)cc7F)cc6)c(C(N)=O)c5N)C4)c3C)ccc2CC1C(=O)NC1CCCc2ccccc21)C(C)(C)C

> <Shape>
0.233

> <Color>
0.048

> <Negative vol penalty>
0.000

$$$$

  -OEChem-04052316153D

 96103  0     1  0  0  0  0  0999 V2000
  -19.1590  -26.4108   25.8273 C   0  0  0  0  0  0  0  0  0  0  0  0
  -20.4201  -26.1080   25.3239 C   0  0  0  0  0  0  0  0  0  0  0  0
  -23.9221  -14.8860   22.8168 C   0  0  0  0  0  0  0  0  0  0  0  0
  -26.2474  -14.2948   23.1012 C   0  0  0  0  0  0  0  0  0  0  0  0
  -18.2962  -27.2277   25.0978 C   0  0  0  0  0  0  0  0  0  0  0  0
  -20.8187  -26.6211   24.0901 C   0  0  0  0  0  0  0  0  0  0  0  0
  -26.4684  -28.3429   22.4707 C   0  0  0  0  0  0  0  0  0  0  0  0
  -24.0783  -15.9357   23.7220 C   0  0  0  0  0  0  0  0  0  0  0  0
  -26.4036  -15.3445   24.0063 C   0  0  0  0  0  0  0  0  0  0  0  0
  -27.4752  -27.6997   21.7521 C   0  0  0  0  0  0  0  0  0  0  0  0
  -25.3431  -19.0714   23.7058 C   0  0  0  0  0  0  0  0  0  0  0  0
  -24.7931  -20.3074   23.3663 C   0  0  0  0  0  0  0  0  0  0  0  0
  -26.7530  -28.8254   19.7445 C   0  0  0  0  0  0  0  0  0  0  0  0
  -23.4054  -20.2328   25.3426 C   0  0  0  0  0  0  0  0  0  0  0  0
  -25.0067  -14.0655   22.5064 C   0  0  0  0  0  0  0  0  0  0  0  0
  -25.0283  -13.0264   20.1767 C   0  0  0  0  0  0  0  0  0  0  0  0
  -18.6881  -27.7590   23.8589 C   0  0  0  0  0  0  0  0  0  0  0  0
  -25.5880  -29.2253   21.8284 C   0  0  0  0  0  0  0  0  0  0  0  0
  -19.9598  -27.4448   23.3427 C   0  0  0  0  0  0  0  0  0  0  0  0
  -25.7375  -29.4805   20.4578 C   0  0  0  0  0  0  0  0  0  0  0  0
  -25.3190  -16.1650   24.3167 C   0  0  0  0  0  0  0  0  0  0  0  0
  -27.6158  -27.9387   20.3882 C   0  0  0  0  0  0  0  0  0  0  0  0
  -24.9242  -18.4160   24.8637 C   0  0  0  0  0  0  0  0  0  0  0  0
  -23.8243  -20.8881   24.1847 C   0  0  0  0  0  0  0  0  0  0  0  0
  -23.9554  -18.9967   25.6821 C   0  0  0  0  0  0  0  0  0  0  0  0
  -24.8458  -12.9807   21.5719 C   0  0  0  0  0  0  0  0  0  0  0  0
  -24.7561  -11.7486   19.7528 C   0  0  0  0  0  0  0  0  0  0  0  0
  -25.4098  -14.1255   19.3389 C   0  0  0  0  0  0  0  0  0  0  0  0
  -22.4482  -29.3010   21.3389 C   0  0  0  0  0  0  0  0  0  0  0  0
  -23.1032  -32.2317   20.1123 C   0  0  0  0  0  0  0  0  0  0  0  0
  -29.4301  -11.2955   20.1480 C   0  0  0  0  0  0  0  0  0  0  0  0
  -25.3853  -34.3333   18.6902 C   0  0  0  0  0  0  0  0  0  0  0  0
  -24.9243   -6.5473   22.9865 C   0  0  0  0  0  0  0  0  0  0  0  0
  -17.7031  -28.5987   23.0848 C   0  0  0  0  0  0  0  0  0  0  0  0
  -24.5240  -29.9316   22.6231 C   0  0  0  0  0  0  0  0  0  0  0  0
  -24.8310  -30.4344   19.7252 C   0  0  0  0  0  0  0  0  0  0  0  0
  -18.3439  -29.4070   21.9595 C   0  0  0  0  0  0  0  0  0  0  0  0
  -22.1853   -7.8829   20.8851 C   0  0  0  0  0  0  0  0  0  0  0  0
  -19.2932  -28.5318   21.1473 C   0  0  0  0  0  0  0  0  0  0  0  0
  -22.5451   -9.3632   20.7703 C   0  0  0  0  0  0  0  0  0  0  0  0
  -22.7061   -7.2715   22.1823 C   0  0  0  0  0  0  0  0  0  0  0  0
  -24.5267   -8.9420   22.2790 C   0  0  0  0  0  0  0  0  0  0  0  0
  -20.4379  -28.0025   22.0196 C   0  0  1  0  0  0  0  0  0  0  0  0
  -23.3601  -30.4168   21.7645 C   0  0  1  0  0  0  0  0  0  0  0  0
  -24.0567   -9.5768   20.9616 C   0  0  2  0  0  0  0  0  0  0  0  0
  -28.1408   -4.5903   25.3634 C   0  0  0  0  0  0  0  0  0  0  0  0
  -25.6162  -36.6533   17.7620 C   0  0  0  0  0  0  0  0  0  0  0  0
  -27.3417   -6.0714   20.4318 C   0  0  0  0  0  0  0  0  0  0  0  0
  -21.6345  -31.3632   17.5827 C   0  0  0  0  0  0  0  0  0  0  0  0
  -22.6977  -33.2895   16.3879 C   0  0  0  0  0  0  0  0  0  0  0  0
  -21.1631  -33.7094   18.3092 C   0  0  0  0  0  0  0  0  0  0  0  0
  -27.4363  -35.0571   20.6973 C   0  0  0  0  0  0  0  0  0  0  0  0
  -29.2274  -10.1816   21.1597 C   0  0  0  0  0  0  0  0  0  0  0  0
  -27.2283   -5.6234   24.7172 C   0  0  0  0  0  0  0  0  0  0  0  0
  -28.1363   -9.1998   20.7361 C   0  0  0  0  0  0  0  0  0  0  0  0
  -28.9958  -22.0304   18.9603 C   0  0  0  0  0  0  0  0  0  0  0  0
  -29.3778  -23.2944   18.1845 C   0  0  0  0  0  0  0  0  0  0  0  0
  -29.7513  -20.7820   18.4994 C   0  0  0  0  0  0  0  0  0  0  0  0
  -28.6402  -24.5479   18.6619 C   0  0  0  0  0  0  0  0  0  0  0  0
  -29.3149  -19.5466   19.2912 C   0  0  0  0  0  0  0  0  0  0  0  0
  -29.9994  -14.5707   20.1099 C   0  0  0  0  0  0  0  0  0  0  0  0
  -29.0812  -25.7838   17.8705 C   0  0  0  0  0  0  0  0  0  0  0  0
  -27.9305   -8.1084   21.7920 C   0  0  0  0  0  0  0  0  0  0  0  0
  -30.0941  -18.3019   18.8539 C   0  0  0  0  0  0  0  0  0  0  0  0
  -30.4230  -15.7896   19.2850 C   0  0  0  0  0  0  0  0  0  0  0  0
  -27.1232   -5.4537   23.2063 C   0  0  0  0  0  0  0  0  0  0  0  0
  -30.8071  -13.3234   19.7610 C   0  0  0  0  0  0  0  0  0  0  0  0
  -28.3420  -27.0426   18.3084 C   0  0  0  0  0  0  0  0  0  1  0  0
  -23.4661  -32.7622   18.7464 C   0  0  1  0  0  0  0  0  0  0  0  0
  -25.7549  -35.7738   18.9949 C   0  0  2  0  0  0  0  0  0  0  0  0
  -26.8204   -7.1187   21.4114 C   0  0  2  0  0  0  0  0  0  0  0  0
  -22.2564  -32.7616   17.7697 C   0  0  0  0  0  0  0  0  0  0  0  0
  -29.6892  -17.0734   19.6622 C   0  0  0  0  0  0  0  0  0  0  0  0
  -24.4854  -11.7698   22.0054 N   0  0  0  0  0  0  0  0  0  0  0  0
  -24.4391  -11.0428   20.8760 N   0  0  0  0  0  0  0  0  0  0  0  0
  -23.8021  -31.0958   20.5447 N   0  0  0  0  0  0  0  0  0  0  0  0
  -24.1360   -7.5265   22.3599 N   0  0  0  0  0  0  0  0  0  0  0  0
  -24.7593  -11.1712   18.5326 N   0  0  0  0  0  0  0  0  0  0  0  0
  -25.6520  -15.3694   19.9377 N   0  0  0  0  0  0  0  0  0  0  0  0
  -21.4294  -29.0348   22.2336 N   0  0  0  0  0  0  0  0  0  0  0  0
  -30.4257  -12.1815   20.5461 N   0  0  0  0  0  0  0  0  0  0  0  0
  -24.0581  -34.0778   18.9635 N   0  0  0  0  0  0  0  0  0  0  0  0
  -26.2685   -6.4607   22.5937 N   0  0  0  0  0  0  0  0  0  0  0  0
  -27.1632  -35.8566   19.4753 N   0  3  0  0  0  0  0  0  0  0  0  0
  -25.5162  -14.0122   18.0942 O   0  0  0  0  0  0  0  0  0  0  0  0
  -22.6529  -28.7253   20.2767 O   0  0  0  0  0  0  0  0  0  0  0  0
  -22.2366  -32.8083   20.7743 O   0  0  0  0  0  0  0  0  0  0  0  0
  -28.7831  -11.3881   19.1084 O   0  0  0  0  0  0  0  0  0  0  0  0
  -26.1921  -33.5173   18.2501 O   0  0  0  0  0  0  0  0  0  0  0  0
  -24.4510   -5.7871   23.8409 O   0  0  0  0  0  0  0  0  0  0  0  0
  -25.4718  -17.1893   25.1999 O   0  0  0  0  0  0  0  0  0  0  0  0
  -28.6047  -27.3069   19.6789 O   0  0  0  0  0  0  0  0  0  1  0  0
  -23.2973  -22.0758   23.8593 F   0  0  0  0  0  0  0  0  0  0  0  0
  -23.5498  -18.3724   26.7963 F   0  0  0  0  0  0  0  0  0  0  0  0
  -28.3512  -16.8715   19.5425 F   0  0  0  0  0  0  0  0  0  0  0  0
  -29.9238  -17.3155   20.9812 F   0  0  0  0  0  0  0  0  0  0  0  0
  1  2  1  0  0  0  0
  1  5  2  0  0  0  0
  2  6  2  0  0  0  0
  3  8  2  0  0  0  0
  3 15  1  0  0  0  0
  4  9  1  0  0  0  0
  4 15  2  0  0  0  0
  5 17  1  0  0  0  0
  6 19  1  0  0  0  0
  7 10  2  0  0  0  0
  7 18  1  0  0  0  0
  8 21  1  0  0  0  0
  9 21  2  0  0  0  0
 10 22  1  0  0  0  0
 11 12  2  0  0  0  0
 11 23  1  0  0  0  0
 12 24  1  0  0  0  0
 13 20  1  0  0  0  0
 13 22  2  0  0  0  0
 14 24  2  0  0  0  0
 14 25  1  0  0  0  0
 15 26  1  0  0  0  0
 16 26  1  0  0  0  0
 16 27  2  0  0  0  0
 16 28  1  0  0  0  0
 17 19  2  0  0  0  0
 17 34  1  0  0  0  0
 18 20  2  0  0  0  0
 18 35  1  0  0  0  0
 19 43  1  0  0  0  0
 20 36  1  0  0  0  0
 21 91  1  0  0  0  0
 22 92  1  0  0  0  0
 23 25  2  0  0  0  0
 23 91  1  0  0  0  0
 24 93  1  0  0  0  0
 25 94  1  0  0  0  0
 26 74  2  0  0  0  0
 27 75  1  0  0  0  0
 27 78  1  0  0  0  0
 28 79  1  0  0  0  0
 28 85  2  0  0  0  0
 29 44  1  0  0  0  0
 29 80  1  0  0  0  0
 29 86  2  0  0  0  0
 30 69  1  0  0  0  0
 30 76  1  0  0  0  0
 30 87  2  0  0  0  0
 31 53  1  0  0  0  0
 31 81  1  0  0  0  0
 31 88  2  0  0  0  0
 32 70  1  0  0  0  0
 32 82  1  0  0  0  0
 32 89  2  0  0  0  0
 33 77  1  0  0  0  0
 33 83  1  0  0  0  0
 33 90  2  0  0  0  0
 34 37  1  0  0  0  0
 35 44  1  0  0  0  0
 36 76  1  0  0  0  0
 37 39  1  0  0  0  0
 38 40  1  0  0  0  0
 38 41  1  0  0  0  0
 39 43  1  0  0  0  0
 40 45  1  0  0  0  0
 41 77  1  0  0  0  0
 42 45  1  0  0  0  0
 42 77  1  0  0  0  0
 43 80  1  0  0  0  0
 44 76  1  0  0  0  0
 45 75  1  0  0  0  0
 46 54  1  0  0  0  0
 47 70  1  0  0  0  0
 48 71  1  0  0  0  0
 49 72  1  0  0  0  0
 50 72  1  0  0  0  0
 51 72  1  0  0  0  0
 52 84  1  0  0  0  0
 53 55  1  0  0  0  0
 54 66  1  0  0  0  0
 55 63  1  0  0  0  0
 56 57  1  0  0  0  0
 56 58  1  0  0  0  0
 57 59  1  0  0  0  0
 58 60  1  0  0  0  0
 59 62  1  0  0  0  0
 60 64  1  0  0  0  0
 61 65  1  0  0  0  0
 61 67  1  0  0  0  0
 62 68  1  0  0  0  0
 63 71  1  0  0  0  0
 64 73  1  0  0  0  0
 65 73  1  0  0  0  0
 66 83  1  0  0  0  0
 67 81  1  0  0  0  0
 68 92  1  0  0  0  0
 69 72  1  0  0  0  0
 69 82  1  0  0  0  0
 70 84  1  0  0  0  0
 71 83  1  0  0  0  0
 73 95  1  0  0  0  0
 73 96  1  0  0  0  0
 74 75  1  0  0  0  0
M  CHG  1  84   1
M  ISO  4  33 100  68 101  83 100  92 101
M  END
> <Batch ID>
0022

> <Smiles>
CCC[100N:0](C(C)CCCC(=O)NCCCC(F)(F)CCCCCCC[101CH2:1][101O:1]c1ccc2c(c1)CN(C(=O)C(NC(=O)C(C)NC)C(C)(C)C)C(C(=O)NC1CCCc3ccccc31)C2)[100C:0](=O)N1CCCC(n2nc(-c3ccc(Oc4ccc(F)cc4F)cc3)c(C(N)=O)c2N)C1

> <Shape>
0.246

> <Color>
0.102

> <Negative vol penalty>
0.000

$$$$

  -OEChem-04052316153D

 97106  0     1  0  0  0  0  0999 V2000
  -25.9463  -39.3150   21.6585 C   0  0  0  0  0  0  0  0  0  0  0  0
  -26.4416  -38.3746   20.7609 C   0  0  0  0  0  0  0  0  0  0  0  0
  -24.4087   -7.7922   19.7659 C   0  0  0  0  0  0  0  0  0  0  0  0
  -22.9651   -9.6915   20.1480 C   0  0  0  0  0  0  0  0  0  0  0  0
  -25.7709  -38.9729   22.9987 C   0  0  0  0  0  0  0  0  0  0  0  0
  -26.7628  -37.0918   21.2032 C   0  0  0  0  0  0  0  0  0  0  0  0
  -26.8180  -30.2765   18.9972 C   0  0  0  0  0  0  0  0  0  0  0  0
  -23.5415   -6.9850   20.5022 C   0  0  0  0  0  0  0  0  0  0  0  0
  -22.0979   -8.8843   20.8842 C   0  0  0  0  0  0  0  0  0  0  0  0
  -27.6738  -29.1794   18.9107 C   0  0  0  0  0  0  0  0  0  0  0  0
  -20.5897   -5.4091   20.0168 C   0  0  0  0  0  0  0  0  0  0  0  0
  -20.2645   -4.1587   19.4910 C   0  0  0  0  0  0  0  0  0  0  0  0
  -27.2549  -28.6770   21.2326 C   0  0  0  0  0  0  0  0  0  0  0  0
  -28.0142  -21.4406   22.5157 C   0  0  0  0  0  0  0  0  0  0  0  0
  -21.1961   -3.0931   21.4491 C   0  0  0  0  0  0  0  0  0  0  0  0
  -24.1205   -9.1455   19.5889 C   0  0  0  0  0  0  0  0  0  0  0  0
  -24.9767  -10.2288   17.4439 C   0  0  0  0  0  0  0  0  0  0  0  0
  -26.0810  -37.6823   23.4557 C   0  0  0  0  0  0  0  0  0  0  0  0
  -26.1815  -30.5891   20.2071 C   0  0  0  0  0  0  0  0  0  0  0  0
  -26.5926  -36.7325   22.5510 C   0  0  0  0  0  0  0  0  0  0  0  0
  -26.3894  -29.7771   21.3312 C   0  0  0  0  0  0  0  0  0  0  0  0
  -29.1295  -22.2309   22.7934 C   0  0  0  0  0  0  0  0  0  0  0  0
  -28.5554  -23.6877   20.9535 C   0  0  0  0  0  0  0  0  0  0  0  0
  -29.4001  -23.3544   22.0124 C   0  0  0  0  0  0  0  0  0  0  0  0
  -27.4401  -22.8973   20.6758 C   0  0  0  0  0  0  0  0  0  0  0  0
  -27.1695  -21.7738   21.4569 C   0  0  0  0  0  0  0  0  0  0  0  0
  -22.3861   -7.5311   21.0613 C   0  0  0  0  0  0  0  0  0  0  0  0
  -27.8947  -28.3811   20.0292 C   0  0  0  0  0  0  0  0  0  0  0  0
  -21.2181   -5.5015   21.2586 C   0  0  0  0  0  0  0  0  0  0  0  0
  -20.5677   -3.0007   20.2072 C   0  0  0  0  0  0  0  0  0  0  0  0
  -21.5213   -4.3436   21.9748 C   0  0  0  0  0  0  0  0  0  0  0  0
  -25.0162   -9.9800   18.8289 C   0  0  0  0  0  0  0  0  0  0  0  0
  -26.0324  -11.0778   17.2173 C   0  0  0  0  0  0  0  0  0  0  0  0
  -24.0671   -9.7366   16.4509 C   0  0  0  0  0  0  0  0  0  0  0  0
  -26.2274  -33.0734   22.1894 C   0  0  0  0  0  0  0  0  0  0  0  0
  -23.8662  -31.4270   23.6848 C   0  0  0  0  0  0  0  0  0  0  0  0
  -22.3742  -28.4208   24.3038 C   0  0  0  0  0  0  0  0  0  0  0  0
  -28.9657  -14.9585   20.7084 C   0  0  0  0  0  0  0  0  0  0  0  0
  -25.9192  -37.3734   24.9231 C   0  0  0  0  0  0  0  0  0  0  0  0
  -25.2404  -31.7603   20.2769 C   0  0  0  0  0  0  0  0  0  0  0  0
  -25.7144  -30.0580   22.6480 C   0  0  0  0  0  0  0  0  0  0  0  0
  -25.9304  -35.8793   25.2358 C   0  0  0  0  0  0  0  0  0  0  0  0
  -30.3573  -12.2122   18.9201 C   0  0  0  0  0  0  0  0  0  0  0  0
  -27.0801  -35.1901   24.5078 C   0  0  0  0  0  0  0  0  0  0  0  0
  -29.1427  -11.3511   18.5690 C   0  0  0  0  0  0  0  0  0  0  0  0
  -26.0781  -18.7176   22.1370 C   0  0  0  0  0  0  0  0  0  0  0  0
  -27.4628  -19.3115   20.1074 C   0  0  0  0  0  0  0  0  0  0  0  0
  -26.2737  -17.2308   21.8371 C   0  0  0  0  0  0  0  0  0  0  0  0
  -27.6600  -17.8253   19.8058 C   0  0  0  0  0  0  0  0  0  0  0  0
  -30.2124  -12.8579   20.2963 C   0  0  0  0  0  0  0  0  0  0  0  0
  -27.7546  -12.7659   20.1407 C   0  0  0  0  0  0  0  0  0  0  0  0
  -26.9292  -35.3231   22.9876 C   0  0  1  0  0  0  0  0  0  0  0  0
  -25.0462  -32.2870   21.6955 C   0  0  1  0  0  0  0  0  0  0  0  0
  -27.8294  -12.1385   18.7382 C   0  0  2  0  0  0  0  0  0  0  0  0
  -26.1535  -19.5565   20.8596 C   0  0  0  0  0  0  0  0  0  0  0  0
  -27.5801  -16.9804   21.0800 C   0  0  0  0  0  0  0  0  0  0  0  0
  -30.0175  -21.8529   23.9336 C   0  0  0  0  0  0  0  0  0  0  0  0
  -31.9159  -23.4215   22.1534 C   0  0  0  0  0  0  0  0  0  0  0  0
  -30.5279  -24.8381   23.7096 C   0  0  0  0  0  0  0  0  0  0  0  0
  -20.4871  -27.3869   25.5951 C   0  0  0  0  0  0  0  0  0  0  0  0
  -25.9000  -24.6925   19.7352 C   0  0  0  0  0  0  0  0  0  0  0  0
  -25.2441  -22.3435   19.5137 C   0  0  0  0  0  0  0  0  0  0  0  0
  -25.4924  -31.6745   26.2547 C   0  0  0  0  0  0  0  0  0  0  0  0
  -24.0757  -29.8624   27.2433 C   0  0  0  0  0  0  0  0  0  0  0  0
  -23.0315  -32.0161   26.5404 C   0  0  0  0  0  0  0  0  0  0  0  0
  -28.7464  -22.7650   18.2111 C   0  0  0  0  0  0  0  0  0  0  0  0
  -27.2538  -24.5413   17.3243 C   0  0  0  0  0  0  0  0  0  0  0  0
  -26.5827  -22.1559   17.1546 C   0  0  0  0  0  0  0  0  0  0  0  0
  -21.0629  -27.4496   21.8347 C   0  0  0  0  0  0  0  0  0  0  0  0
  -28.8490  -24.9033   20.1083 C   0  0  0  0  0  0  0  0  0  0  0  0
  -28.4503  -26.2015   20.8016 C   0  0  0  0  0  0  0  0  0  1  0  0
  -30.5979  -24.1995   22.3115 C   0  0  0  0  0  0  0  0  0  0  0  0
  -23.8151  -30.3844   24.7754 C   0  0  1  0  0  0  0  0  0  0  0  0
  -20.9182  -27.9926   24.2685 C   0  0  2  0  0  0  0  0  0  0  0  0
  -26.5326  -23.2577   19.5414 C   0  0  0  0  0  0  0  0  0  0  0  0
  -24.1180  -30.9799   26.1793 C   0  0  0  0  0  0  0  0  0  0  0  0
  -27.2623  -23.1912   18.0852 C   0  0  0  0  0  0  0  0  0  0  0  0
  -26.0177  -10.6190   19.4393 N   0  0  0  0  0  0  0  0  0  0  0  0
  -26.6174  -11.2778   18.4330 N   0  0  0  0  0  0  0  0  0  0  0  0
  -24.8082  -31.2181   22.6676 N   0  0  0  0  0  0  0  0  0  0  0  0
  -28.9473  -13.5903   20.3907 N   0  0  0  0  0  0  0  0  0  0  0  0
  -26.5081  -11.6652   16.0988 N   0  0  0  0  0  0  0  0  0  0  0  0
  -23.0396   -8.8734   16.8552 N   0  0  0  0  0  0  0  0  0  0  0  0
  -26.0451  -20.9608   21.1916 N   0  0  0  0  0  0  0  0  0  0  0  0
  -25.9391  -34.3900   22.4944 N   0  0  0  0  0  0  0  0  0  0  0  0
  -22.5087  -29.7441   24.6671 N   0  0  0  0  0  0  0  0  0  0  0  0
  -27.7236  -15.5781   20.7714 N   0  0  0  0  0  0  0  0  0  0  0  0
  -20.7021  -26.9795   23.1970 N   0  3  0  0  0  0  0  0  0  0  0  0
  -24.1726  -10.0399   15.2383 O   0  0  0  0  0  0  0  0  0  0  0  0
  -27.3193  -32.5259   22.2880 O   0  0  0  0  0  0  0  0  0  0  0  0
  -23.0936  -32.3876   23.7299 O   0  0  0  0  0  0  0  0  0  0  0  0
  -23.2999  -27.6567   24.0395 O   0  0  0  0  0  0  0  0  0  0  0  0
  -30.0119  -15.5828   20.9149 O   0  0  0  0  0  0  0  0  0  0  0  0
  -21.5396   -6.7437   21.7796 O   0  0  0  0  0  0  0  0  0  0  0  0
  -28.7301  -27.3100   19.9476 O   0  0  0  0  0  0  0  0  0  1  0  0
  -20.2540   -1.8001   19.7029 F   0  0  0  0  0  0  0  0  0  0  0  0
  -22.1240   -4.4261   23.1689 F   0  0  0  0  0  0  0  0  0  0  0  0
  1  2  1  0  0  0  0
  1  5  2  0  0  0  0
  2  6  2  0  0  0  0
  3  8  2  0  0  0  0
  3 16  1  0  0  0  0
  4  9  1  0  0  0  0
  4 16  2  0  0  0  0
  5 18  1  0  0  0  0
  6 20  1  0  0  0  0
  7 10  2  0  0  0  0
  7 19  1  0  0  0  0
  8 27  1  0  0  0  0
  9 27  2  0  0  0  0
 10 28  1  0  0  0  0
 11 12  2  0  0  0  0
 11 29  1  0  0  0  0
 12 30  1  0  0  0  0
 13 21  1  0  0  0  0
 13 28  2  0  0  0  0
 14 22  1  0  0  0  0
 14 26  2  0  0  0  0
 15 30  2  0  0  0  0
 15 31  1  0  0  0  0
 16 32  1  0  0  0  0
 17 32  1  0  0  0  0
 17 33  2  0  0  0  0
 17 34  1  0  0  0  0
 18 20  2  0  0  0  0
 18 39  1  0  0  0  0
 19 21  2  0  0  0  0
 19 40  1  0  0  0  0
 20 52  1  0  0  0  0
 21 41  1  0  0  0  0
 22 24  2  0  0  0  0
 22 57  1  0  0  0  0
 23 24  1  0  0  0  0
 23 25  2  0  0  0  0
 23 70  1  0  0  0  0
 24 72  1  0  0  0  0
 25 26  1  0  0  0  0
 25 75  1  0  0  0  0
 26 84  1  0  0  0  0
 27 94  1  0  0  0  0
 28 95  1  0  0  0  0
 29 31  2  0  0  0  0
 29 94  1  0  0  0  0
 30 96  1  0  0  0  0
 31 97  1  0  0  0  0
 32 78  2  0  0  0  0
 33 79  1  0  0  0  0
 33 82  1  0  0  0  0
 34 83  1  0  0  0  0
 34 89  2  0  0  0  0
 35 53  1  0  0  0  0
 35 85  1  0  0  0  0
 35 90  2  0  0  0  0
 36 73  1  0  0  0  0
 36 80  1  0  0  0  0
 36 91  2  0  0  0  0
 37 74  1  0  0  0  0
 37 86  1  0  0  0  0
 37 92  2  0  0  0  0
 38 81  1  0  0  0  0
 38 87  1  0  0  0  0
 38 93  2  0  0  0  0
 39 42  1  0  0  0  0
 40 53  1  0  0  0  0
 41 80  1  0  0  0  0
 42 44  1  0  0  0  0
 43 45  1  0  0  0  0
 43 50  1  0  0  0  0
 44 52  1  0  0  0  0
 45 54  1  0  0  0  0
 46 48  1  0  0  0  0
 46 55  1  0  0  0  0
 47 49  1  0  0  0  0
 47 55  1  0  0  0  0
 48 56  1  0  0  0  0
 49 56  1  0  0  0  0
 50 81  1  0  0  0  0
 51 54  1  0  0  0  0
 51 81  1  0  0  0  0
 52 85  1  0  0  0  0
 53 80  1  0  0  0  0
 54 79  1  0  0  0  0
 55 84  1  0  0  0  0
 56 87  1  0  0  0  0
 58 72  1  0  0  0  0
 59 72  1  0  0  0  0
 60 74  1  0  0  0  0
 61 75  1  0  0  0  0
 62 75  1  0  0  0  0
 63 76  1  0  0  0  0
 64 76  1  0  0  0  0
 65 76  1  0  0  0  0
 66 77  1  0  0  0  0
 67 77  1  0  0  0  0
 68 77  1  0  0  0  0
 69 88  1  0  0  0  0
 70 71  1  0  0  0  0
 71 95  1  0  0  0  0
 73 76  1  0  0  0  0
 73 86  1  0  0  0  0
 74 88  1  0  0  0  0
 75 77  1  0  0  0  0
 78 79  1  0  0  0  0
M  CHG  1  88   1
M  ISO  4  38 100  71 101  87 100  95 101
M  END
> <Batch ID>
0022

> <Smiles>
CNC(C)C(=O)NC(C(=O)N1Cc2cc([101O:1][101CH2:1]Cc3c(C(C)C)c(C)cc(NC4CCC([100NH:0][100C:0](=O)N5CCCC(n6nc(-c7ccc(Oc8ccc(F)cc8F)cc7)c(C(N)=O)c6N)C5)CC4)c3C(C)(C)C(C)(C)C)ccc2CC1C(=O)NC1CCCc2ccccc21)C(C)(C)C

> <Shape>
0.272

> <Color>
0.072

> <Negative vol penalty>
0.000

$$$$

  -OEChem-04052316153D

 91100  0     1  0  0  0  0  0999 V2000
  -20.5842  -31.5129   22.6509 C   0  0  0  0  0  0  0  0  0  0  0  0
  -21.7814  -30.8091   22.5687 C   0  0  0  0  0  0  0  0  0  0  0  0
  -25.7795  -15.4715   21.5689 C   0  0  0  0  0  0  0  0  0  0  0  0
  -25.0481  -16.7588   19.6597 C   0  0  0  0  0  0  0  0  0  0  0  0
  -19.3725  -30.8239   22.6815 C   0  0  0  0  0  0  0  0  0  0  0  0
  -21.7676  -29.4157   22.5181 C   0  0  0  0  0  0  0  0  0  0  0  0
  -24.9137  -27.5680   19.0063 C   0  0  0  0  0  0  0  0  0  0  0  0
  -24.5509  -14.8116   21.5947 C   0  0  0  0  0  0  0  0  0  0  0  0
  -23.8195  -16.0988   19.6854 C   0  0  0  0  0  0  0  0  0  0  0  0
  -26.2715  -27.5359   19.3213 C   0  0  0  0  0  0  0  0  0  0  0  0
  -23.0375  -12.2986   19.9132 C   0  0  0  0  0  0  0  0  0  0  0  0
  -23.0489  -10.9137   20.0782 C   0  0  0  0  0  0  0  0  0  0  0  0
  -26.0856  -25.1913   19.8571 C   0  0  0  0  0  0  0  0  0  0  0  0
  -21.7516  -11.1443   22.1034 C   0  0  0  0  0  0  0  0  0  0  0  0
  -26.0281  -16.4452   20.6014 C   0  0  0  0  0  0  0  0  0  0  0  0
  -28.4543  -16.7430   19.8717 C   0  0  0  0  0  0  0  0  0  0  0  0
  -19.3434  -29.4216   22.6215 C   0  0  0  0  0  0  0  0  0  0  0  0
  -24.1280  -26.4125   19.1249 C   0  0  0  0  0  0  0  0  0  0  0  0
  -20.5545  -28.7071   22.5493 C   0  0  0  0  0  0  0  0  0  0  0  0
  -24.7187  -25.2107   19.5405 C   0  0  0  0  0  0  0  0  0  0  0  0
  -33.4081  -22.9237   18.5359 C   0  0  0  0  0  0  0  0  0  0  0  0
  -34.2360  -23.4870   17.5752 C   0  0  0  0  0  0  0  0  0  0  0  0
  -32.5773  -25.2295   17.2425 C   0  0  0  0  0  0  0  0  0  0  0  0
  -33.8105  -24.6448   16.9227 C   0  0  0  0  0  0  0  0  0  0  0  0
  -31.7521  -24.6653   18.2187 C   0  0  0  0  0  0  0  0  0  0  0  0
  -32.1812  -23.5108   18.8579 C   0  0  0  0  0  0  0  0  0  0  0  0
  -23.5709  -15.1252   20.6529 C   0  0  0  0  0  0  0  0  0  0  0  0
  -26.8570  -26.3482   19.7496 C   0  0  0  0  0  0  0  0  0  0  0  0
  -22.3832  -13.1065   20.8433 C   0  0  0  0  0  0  0  0  0  0  0  0
  -22.4060  -10.3364   21.1733 C   0  0  0  0  0  0  0  0  0  0  0  0
  -21.7402  -12.5293   21.9383 C   0  0  0  0  0  0  0  0  0  0  0  0
  -27.2968  -17.1276   20.5746 C   0  0  0  0  0  0  0  0  0  0  0  0
  -29.3773  -17.7148   20.1722 C   0  0  0  0  0  0  0  0  0  0  0  0
  -28.6754  -15.6089   19.0229 C   0  0  0  0  0  0  0  0  0  0  0  0
  -21.5996  -25.5883   20.8660 C   0  0  0  0  0  0  0  0  0  0  0  0
  -21.7060  -22.9076   19.0426 C   0  0  0  0  0  0  0  0  0  0  0  0
  -23.5554  -20.7941   17.1036 C   0  0  0  0  0  0  0  0  0  0  0  0
  -30.4552  -23.2240   20.6251 C   0  0  0  0  0  0  0  0  0  0  0  0
  -18.0116  -28.7189   22.7052 C   0  0  0  0  0  0  0  0  0  0  0  0
  -22.6706  -26.4573   18.7556 C   0  0  0  0  0  0  0  0  0  0  0  0
  -23.9234  -23.9377   19.6651 C   0  0  0  0  0  0  0  0  0  0  0  0
  -18.0659  -27.2569   22.2696 C   0  0  0  0  0  0  0  0  0  0  0  0
  -29.2779  -21.4265   23.6090 C   0  0  0  0  0  0  0  0  0  0  0  0
  -19.2590  -26.5534   22.9086 C   0  0  0  0  0  0  0  0  0  0  0  0
  -28.7101  -20.1353   23.0159 C   0  0  0  0  0  0  0  0  0  0  0  0
  -29.1617  -22.6018   22.6405 C   0  0  0  0  0  0  0  0  0  0  0  0
  -32.3116  -21.5211   20.0764 C   0  0  0  0  0  0  0  0  0  0  0  0
  -29.1494  -21.0640   20.7146 C   0  0  0  0  0  0  0  0  0  0  0  0
  -33.6874  -21.7391   19.4165 C   0  0  1  0  0  0  0  0  0  0  0  0
  -20.5795  -27.1962   22.4675 C   0  0  1  0  0  0  0  0  0  0  0  0
  -21.8551  -25.3438   19.4057 C   0  0  1  0  0  0  0  0  0  0  0  0
  -29.3173  -19.8442   21.6301 C   0  0  2  0  0  0  0  0  0  0  0  0
  -35.5760  -22.9096   17.2643 C   0  0  0  0  0  0  0  0  0  0  0  0
  -32.1387  -26.4647   16.5168 C   0  0  0  0  0  0  0  0  0  0  0  0
  -34.9446  -18.1176   18.9025 C   0  0  0  0  0  0  0  0  0  0  0  0
  -23.3755  -18.6687   15.7816 C   0  0  0  0  0  0  0  0  0  0  0  0
  -35.5485  -24.2012   15.1539 C   0  0  0  0  0  0  0  0  0  0  0  0
  -35.6485  -26.3181   16.5122 C   0  0  0  0  0  0  0  0  0  0  0  0
  -33.9198  -26.0355   14.7478 C   0  0  0  0  0  0  0  0  0  0  0  0
  -21.7280  -21.2967   21.6339 C   0  0  0  0  0  0  0  0  0  0  0  0
  -22.4960  -19.3135   20.3128 C   0  0  0  0  0  0  0  0  0  0  0  0
  -20.2790  -20.3496   19.8290 C   0  0  0  0  0  0  0  0  0  0  0  0
  -24.2880  -22.1629   14.5839 C   0  0  0  0  0  0  0  0  0  0  0  0
  -30.4023  -25.2659   18.4339 C   0  0  0  0  0  0  0  0  0  0  0  0
  -34.1806  -20.5043   18.6776 C   0  0  0  0  0  0  0  0  0  0  0  0
  -34.4774  -19.3604   19.6431 C   0  0  0  0  0  0  0  0  0  0  0  0
  -30.4172  -26.5862   19.2193 C   0  0  0  0  0  0  0  0  0  0  0  0
  -29.0362  -27.2163   19.3579 C   0  0  0  0  0  0  0  0  0  1  0  0
  -22.3896  -21.5661   19.1528 C   0  0  1  0  0  0  0  0  0  0  0  0
  -23.2883  -20.1864   15.7384 C   0  0  2  0  0  0  0  0  0  0  0  0
  -34.6814  -25.2734   15.8792 C   0  0  0  0  0  0  0  0  0  0  0  0
  -21.7380  -20.6557   20.2318 C   0  0  0  0  0  0  0  0  0  0  0  0
  -27.4665  -18.2556   21.2695 N   0  0  0  0  0  0  0  0  0  0  0  0
  -28.7414  -18.5881   21.0048 N   0  0  0  0  0  0  0  0  0  0  0  0
  -31.5220  -22.7569   19.8545 N   0  0  0  0  0  0  0  0  0  0  0  0
  -22.5008  -24.0339   19.2985 N   0  0  0  0  0  0  0  0  0  0  0  0
  -29.7271  -22.2594   21.3364 N   0  0  0  0  0  0  0  0  0  0  0  0
  -30.6626  -17.8988   19.8029 N   0  0  0  0  0  0  0  0  0  0  0  0
  -27.6198  -14.7091   18.8216 N   0  0  0  0  0  0  0  0  0  0  0  0
  -20.9286  -26.7670   21.1302 N   0  0  0  0  0  0  0  0  0  0  0  0
  -22.3885  -20.9959   17.8100 N   0  0  0  0  0  0  0  0  0  0  0  0
  -24.2812  -20.6861   14.7457 N   0  3  0  0  0  0  0  0  0  0  0  0
  -29.7814  -15.3907   18.4727 O   0  0  0  0  0  0  0  0  0  0  0  0
  -21.9816  -24.7675   21.6919 O   0  0  0  0  0  0  0  0  0  0  0  0
  -20.5127  -22.9546   18.7337 O   0  0  0  0  0  0  0  0  0  0  0  0
  -24.6864  -21.0596   17.5048 O   0  0  0  0  0  0  0  0  0  0  0  0
  -30.1984  -24.4278   20.7463 O   0  0  0  0  0  0  0  0  0  0  0  0
  -22.3721  -14.4813   20.6776 O   0  0  0  0  0  0  0  0  0  0  0  0
  -28.1913  -26.3141   20.0605 O   0  0  0  0  0  0  0  0  0  1  0  0
  -22.4157   -9.0063   21.3308 F   0  0  0  0  0  0  0  0  0  0  0  0
  -21.1090  -13.3001   22.8345 F   0  0  0  0  0  0  0  0  0  0  0  0
  1  2  1  0  0  0  0
  1  5  2  0  0  0  0
  2  6  2  0  0  0  0
  3  8  2  0  0  0  0
  3 15  1  0  0  0  0
  4  9  1  0  0  0  0
  4 15  2  0  0  0  0
  5 17  1  0  0  0  0
  6 19  1  0  0  0  0
  7 10  2  0  0  0  0
  7 18  1  0  0  0  0
  8 27  1  0  0  0  0
  9 27  2  0  0  0  0
 10 28  1  0  0  0  0
 11 12  2  0  0  0  0
 11 29  1  0  0  0  0
 12 30  1  0  0  0  0
 13 20  1  0  0  0  0
 13 28  2  0  0  0  0
 14 30  2  0  0  0  0
 14 31  1  0  0  0  0
 15 32  1  0  0  0  0
 16 32  1  0  0  0  0
 16 33  2  0  0  0  0
 16 34  1  0  0  0  0
 17 19  2  0  0  0  0
 17 39  1  0  0  0  0
 18 20  2  0  0  0  0
 18 40  1  0  0  0  0
 19 50  1  0  0  0  0
 20 41  1  0  0  0  0
 21 22  1  0  0  0  0
 21 26  2  0  0  0  0
 21 49  1  0  0  0  0
 22 24  2  0  0  0  0
 22 53  1  0  0  0  0
 23 24  1  0  0  0  0
 23 25  2  0  0  0  0
 23 54  1  0  0  0  0
 24 71  1  0  0  0  0
 25 26  1  0  0  0  0
 25 64  1  0  0  0  0
 26 75  1  0  0  0  0
 27 88  1  0  0  0  0
 28 89  1  0  0  0  0
 29 31  2  0  0  0  0
 29 88  1  0  0  0  0
 30 90  1  0  0  0  0
 31 91  1  0  0  0  0
 32 73  2  0  0  0  0
 33 74  1  0  0  0  0
 33 78  1  0  0  0  0
 34 79  1  0  0  0  0
 34 83  2  0  0  0  0
 35 51  1  0  0  0  0
 35 80  1  0  0  0  0
 35 84  2  0  0  0  0
 36 69  1  0  0  0  0
 36 76  1  0  0  0  0
 36 85  2  0  0  0  0
 37 70  1  0  0  0  0
 37 81  1  0  0  0  0
 37 86  2  0  0  0  0
 38 75  1  0  0  0  0
 38 77  1  0  0  0  0
 38 87  2  0  0  0  0
 39 42  1  0  0  0  0
 40 51  1  0  0  0  0
 41 76  1  0  0  0  0
 42 44  1  0  0  0  0
 43 45  1  0  0  0  0
 43 46  1  0  0  0  0
 44 50  1  0  0  0  0
 45 52  1  0  0  0  0
 46 77  1  0  0  0  0
 47 49  1  0  0  0  0
 47 75  1  0  0  0  0
 48 52  1  0  0  0  0
 48 77  1  0  0  0  0
 49 65  1  0  0  0  0
 50 80  1  0  0  0  0
 51 76  1  0  0  0  0
 52 74  1  0  0  0  0
 55 66  1  0  0  0  0
 56 70  1  0  0  0  0
 57 71  1  0  0  0  0
 58 71  1  0  0  0  0
 59 71  1  0  0  0  0
 60 72  1  0  0  0  0
 61 72  1  0  0  0  0
 62 72  1  0  0  0  0
 63 82  1  0  0  0  0
 64 67  1  0  0  0  0
 65 66  1  0  0  0  0
 67 68  1  0  0  0  0
 68 89  1  0  0  0  0
 69 72  1  0  0  0  0
 69 81  1  0  0  0  0
 70 82  1  0  0  0  0
 73 74  1  0  0  0  0
M  CHG  1  82   1
M  ISO  4  38 100  68 101  75 100  89 101
M  END
> <Batch ID>
0022

> <Smiles>
CCCC1C[100N:0]([100C:0](=O)N2CCCC(n3nc(-c4ccc(Oc5ccc(F)cc5F)cc4)c(C(N)=O)c3N)C2)c2c(CC[101CH2:1][101O:1]c3ccc4c(c3)CN(C(=O)C(NC(=O)C(C)NC)C(C)(C)C)C(C(=O)NC3CCCc5ccccc53)C4)c(C)c(C(C)(C)C)c(C)c21

> <Shape>
0.214

> <Color>
0.069

> <Negative vol penalty>
0.000

$$$$

  -OEChem-04052316153D

 95103  0     1  0  0  0  0  0999 V2000
  -20.4062  -23.6250   17.2130 C   0  0  0  0  0  0  0  0  0  0  0  0
  -21.6387  -23.2200   17.7153 C   0  0  0  0  0  0  0  0  0  0  0  0
  -24.0041   -9.6569   21.9641 C   0  0  0  0  0  0  0  0  0  0  0  0
  -22.2278  -10.3197   20.4666 C   0  0  0  0  0  0  0  0  0  0  0  0
  -20.0646  -24.9767   17.2135 C   0  0  0  0  0  0  0  0  0  0  0  0
  -22.5308  -24.1667   18.2176 C   0  0  0  0  0  0  0  0  0  0  0  0
  -26.4032  -23.4518   22.9079 C   0  0  0  0  0  0  0  0  0  0  0  0
  -23.4867   -8.3623   22.0049 C   0  0  0  0  0  0  0  0  0  0  0  0
  -21.7104   -9.0250   20.5074 C   0  0  0  0  0  0  0  0  0  0  0  0
  -27.7637  -23.1521   22.9638 C   0  0  0  0  0  0  0  0  0  0  0  0
  -20.9632   -6.7367   23.5584 C   0  0  0  0  0  0  0  0  0  0  0  0
  -20.8688   -6.1162   24.8041 C   0  0  0  0  0  0  0  0  0  0  0  0
  -28.2684  -25.5043   23.1421 C   0  0  0  0  0  0  0  0  0  0  0  0
  -22.3315   -4.3530   24.0367 C   0  0  0  0  0  0  0  0  0  0  0  0
  -23.3746  -10.6357   21.1950 C   0  0  0  0  0  0  0  0  0  0  0  0
  -24.8601  -12.4809   20.2483 C   0  0  0  0  0  0  0  0  0  0  0  0
  -20.9490  -25.9395   17.7249 C   0  0  0  0  0  0  0  0  0  0  0  0
  -25.9650  -24.7830   22.9579 C   0  0  0  0  0  0  0  0  0  0  0  0
  -22.2013  -25.5328   18.2238 C   0  0  0  0  0  0  0  0  0  0  0  0
  -26.9017  -25.8181   23.0893 C   0  0  0  0  0  0  0  0  0  0  0  0
  -22.3399   -8.0462   21.2765 C   0  0  0  0  0  0  0  0  0  0  0  0
  -28.6967  -24.1786   23.0780 C   0  0  0  0  0  0  0  0  0  0  0  0
  -21.7416   -6.1653   22.5518 C   0  0  0  0  0  0  0  0  0  0  0  0
  -21.5530   -4.9244   25.0432 C   0  0  0  0  0  0  0  0  0  0  0  0
  -22.4258   -4.9735   22.7909 C   0  0  0  0  0  0  0  0  0  0  0  0
  -23.9083  -11.9734   21.1529 C   0  0  0  0  0  0  0  0  0  0  0  0
  -25.0289  -13.7905   20.6263 C   0  0  0  0  0  0  0  0  0  0  0  0
  -25.5314  -11.8270   19.1632 C   0  0  0  0  0  0  0  0  0  0  0  0
  -24.3661  -26.6937   20.9839 C   0  0  0  0  0  0  0  0  0  0  0  0
  -24.4585  -28.7310   23.5064 C   0  0  0  0  0  0  0  0  0  0  0  0
  -26.0000  -29.7003   26.3928 C   0  0  0  0  0  0  0  0  0  0  0  0
  -22.9219  -18.7049   22.2246 C   0  0  0  0  0  0  0  0  0  0  0  0
  -20.5550  -27.3939   17.6609 C   0  0  0  0  0  0  0  0  0  0  0  0
  -24.4925  -25.0879   22.9234 C   0  0  0  0  0  0  0  0  0  0  0  0
  -26.4817  -27.2624   23.1673 C   0  0  0  0  0  0  0  0  0  0  0  0
  -21.4032  -28.2947   18.5550 C   0  0  0  0  0  0  0  0  0  0  0  0
  -23.4539  -16.2553   24.7531 C   0  0  0  0  0  0  0  0  0  0  0  0
  -22.8846  -27.9726   18.3856 C   0  0  0  0  0  0  0  0  0  0  0  0
  -23.6916  -14.9645   23.9675 C   0  0  0  0  0  0  0  0  0  0  0  0
  -31.3938  -21.5084   18.5293 C   0  0  0  0  0  0  0  0  0  0  0  0
  -30.7414  -23.6887   19.6159 C   0  0  0  0  0  0  0  0  0  0  0  0
  -22.4105  -17.1428   24.0779 C   0  0  0  0  0  0  0  0  0  0  0  0
  -22.9207  -16.1603   21.8760 C   0  0  0  0  0  0  0  0  0  0  0  0
  -29.9245  -21.2181   18.2463 C   0  0  0  0  0  0  0  0  0  0  0  0
  -29.2759  -23.3862   19.3263 C   0  0  0  0  0  0  0  0  0  0  0  0
  -23.1858  -26.5272   18.7999 C   0  0  1  0  0  0  0  0  0  0  0  0
  -24.1876  -26.5106   22.4646 C   0  0  1  0  0  0  0  0  0  0  0  0
  -24.0058  -15.2581   22.4882 C   0  0  2  0  0  0  0  0  0  0  0  0
  -31.7159  -23.0155   18.6253 C   0  0  0  0  0  0  0  0  0  0  0  0
  -25.8690  -31.4221   28.2137 C   0  0  0  0  0  0  0  0  0  0  0  0
  -32.9238  -20.6141   22.1772 C   0  0  0  0  0  0  0  0  0  0  0  0
  -27.2835  -21.5844   17.6417 C   0  0  0  0  0  0  0  0  0  0  0  0
  -25.6542  -30.8117   21.6219 C   0  0  0  0  0  0  0  0  0  0  0  0
  -26.3674  -32.1214   23.6329 C   0  0  0  0  0  0  0  0  0  0  0  0
  -23.9439  -31.7055   23.2127 C   0  0  0  0  0  0  0  0  0  0  0  0
  -34.8437  -22.7592   20.9311 C   0  0  0  0  0  0  0  0  0  0  0  0
  -34.1525  -20.8963   19.4258 C   0  0  0  0  0  0  0  0  0  0  0  0
  -25.5757  -27.6374   28.4720 C   0  0  0  0  0  0  0  0  0  0  0  0
  -33.1570  -23.1906   19.1395 C   0  0  0  0  0  0  0  0  0  0  0  0
  -25.8916  -19.6694   19.6717 C   0  0  0  0  0  0  0  0  0  0  0  0
  -24.9142  -20.6145   20.3773 C   0  0  0  0  0  0  0  0  0  0  0  0
  -27.3480  -20.1500   19.7210 C   0  0  0  0  0  0  0  0  0  0  0  0
  -31.9047  -22.9211   21.9855 C   0  0  0  0  0  0  0  0  0  0  0  0
  -23.4676  -20.1399   20.2747 C   0  0  0  0  0  0  0  0  0  0  0  0
  -30.4629  -22.7169   22.4457 C   0  0  0  0  0  0  0  0  0  1  0  0
  -25.4133  -29.7982   23.9843 C   0  0  1  0  0  0  0  0  0  0  0  0
  -25.4479  -30.0304   27.7678 C   0  0  2  0  0  0  0  0  0  0  0  0
  -32.4915  -21.7225   21.1988 C   0  0  1  0  0  0  0  0  0  0  0  0
  -27.6158  -21.5382   19.1281 C   0  0  1  0  0  0  0  0  0  0  0  0
  -31.6239  -23.6795   17.2378 C   0  0  0  0  0  0  0  0  0  0  0  0
  -25.3531  -31.0822   23.1096 C   0  0  0  0  0  0  0  0  0  0  0  0
  -33.6363  -22.1396   20.1907 C   0  0  0  0  0  0  0  0  0  0  0  0
  -23.5012  -12.8862   22.0390 N   0  0  0  0  0  0  0  0  0  0  0  0
  -24.2005  -13.9804   21.6930 N   0  0  0  0  0  0  0  0  0  0  0  0
  -25.0311  -27.5099   23.1232 N   0  0  0  0  0  0  0  0  0  0  0  0
  -22.7684  -17.3844   22.6781 N   0  0  0  0  0  0  0  0  0  0  0  0
  -25.8037  -14.7867   20.1469 N   0  0  0  0  0  0  0  0  0  0  0  0
  -25.2407  -10.4790   18.9128 N   0  0  0  0  0  0  0  0  0  0  0  0
  -23.2343  -26.4145   20.2420 N   0  0  0  0  0  0  0  0  0  0  0  0
  -25.1058  -30.0200   25.3931 N   0  0  0  0  0  0  0  0  0  0  0  0
  -23.2680  -18.8449   20.8862 N   0  0  0  0  0  0  0  0  0  0  0  0
  -29.0687  -21.8926   19.2894 N   0  3  0  0  0  0  0  0  0  0  0  0
  -25.9390  -29.0461   28.7732 N   0  3  0  0  0  0  0  0  0  0  0  0
  -26.3767  -12.4159   18.4476 O   0  0  0  0  0  0  0  0  0  0  0  0
  -25.4501  -27.0625   20.5471 O   0  0  0  0  0  0  0  0  0  0  0  0
  -23.2485  -28.9696   23.4811 O   0  0  0  0  0  0  0  0  0  0  0  0
  -27.1147  -29.2115   26.2223 O   0  0  0  0  0  0  0  0  0  0  0  0
  -22.7675  -19.6863   22.9595 O   0  0  0  0  0  0  0  0  0  0  0  0
  -21.8349   -6.7829   21.3159 O   0  0  0  0  0  0  0  0  0  0  0  0
  -30.0341  -23.8869   23.1324 O   0  0  0  0  0  0  0  0  0  1  0  0
  -21.4635   -4.3295   26.2400 F   0  0  0  0  0  0  0  0  0  0  0  0
  -23.1761   -4.4205   21.8282 F   0  0  0  0  0  0  0  0  0  0  0  0
  -30.3866  -23.5314   16.7535 F   0  0  0  0  0  0  0  0  0  0  0  0
  -31.9067  -24.9816   17.3467 F   0  0  0  0  0  0  0  0  0  0  0  0
  -32.4988  -23.1016   16.4081 F   0  0  0  0  0  0  0  0  0  0  0  0
  1  2  1  0  0  0  0
  1  5  2  0  0  0  0
  2  6  2  0  0  0  0
  3  8  2  0  0  0  0
  3 15  1  0  0  0  0
  4  9  1  0  0  0  0
  4 15  2  0  0  0  0
  5 17  1  0  0  0  0
  6 19  1  0  0  0  0
  7 10  2  0  0  0  0
  7 18  1  0  0  0  0
  8 21  1  0  0  0  0
  9 21  2  0  0  0  0
 10 22  1  0  0  0  0
 11 12  2  0  0  0  0
 11 23  1  0  0  0  0
 12 24  1  0  0  0  0
 13 20  1  0  0  0  0
 13 22  2  0  0  0  0
 14 24  2  0  0  0  0
 14 25  1  0  0  0  0
 15 26  1  0  0  0  0
 16 26  1  0  0  0  0
 16 27  2  0  0  0  0
 16 28  1  0  0  0  0
 17 19  2  0  0  0  0
 17 33  1  0  0  0  0
 18 20  2  0  0  0  0
 18 34  1  0  0  0  0
 19 46  1  0  0  0  0
 20 35  1  0  0  0  0
 21 89  1  0  0  0  0
 22 90  1  0  0  0  0
 23 25  2  0  0  0  0
 23 89  1  0  0  0  0
 24 91  1  0  0  0  0
 25 92  1  0  0  0  0
 26 73  2  0  0  0  0
 27 74  1  0  0  0  0
 27 77  1  0  0  0  0
 28 78  1  0  0  0  0
 28 84  2  0  0  0  0
 29 47  1  0  0  0  0
 29 79  1  0  0  0  0
 29 85  2  0  0  0  0
 30 66  1  0  0  0  0
 30 75  1  0  0  0  0
 30 86  2  0  0  0  0
 31 67  1  0  0  0  0
 31 80  1  0  0  0  0
 31 87  2  0  0  0  0
 32 76  1  0  0  0  0
 32 81  1  0  0  0  0
 32 88  2  0  0  0  0
 33 36  1  0  0  0  0
 34 47  1  0  0  0  0
 35 75  1  0  0  0  0
 36 38  1  0  0  0  0
 37 39  1  0  0  0  0
 37 42  1  0  0  0  0
 38 46  1  0  0  0  0
 39 48  1  0  0  0  0
 40 44  1  0  0  0  0
 40 49  1  0  0  0  0
 41 45  1  0  0  0  0
 41 49  1  0  0  0  0
 42 76  1  0  0  0  0
 43 48  1  0  0  0  0
 43 76  1  0  0  0  0
 44 82  1  0  0  0  0
 45 82  1  0  0  0  0
 46 79  1  0  0  0  0
 47 75  1  0  0  0  0
 48 74  1  0  0  0  0
 49 59  1  0  0  0  0
 49 70  1  0  0  0  0
 50 67  1  0  0  0  0
 51 68  1  0  0  0  0
 52 69  1  0  0  0  0
 53 71  1  0  0  0  0
 54 71  1  0  0  0  0
 55 71  1  0  0  0  0
 56 72  1  0  0  0  0
 57 72  1  0  0  0  0
 58 83  1  0  0  0  0
 59 72  1  0  0  0  0
 60 61  1  0  0  0  0
 60 62  1  0  0  0  0
 61 64  1  0  0  0  0
 62 69  1  0  0  0  0
 63 65  1  0  0  0  0
 63 68  1  0  0  0  0
 64 81  1  0  0  0  0
 65 90  1  0  0  0  0
 66 71  1  0  0  0  0
 66 80  1  0  0  0  0
 67 83  1  0  0  0  0
 68 72  1  0  0  0  0
 69 82  1  0  0  0  0
 70 93  1  0  0  0  0
 70 94  1  0  0  0  0
 70 95  1  0  0  0  0
 73 74  1  0  0  0  0
M  CHG  2  82   1  83   1
M  ISO  4  32 100  65 101  81 100  90 101
M  END
> <Batch ID>
0022

> <Smiles>
CNC(C)C(=O)NC(C(=O)N1Cc2cc([101O:1][101CH2:1]CC(C)C(C)(C)CC3(C(F)(F)F)CCN(C(C)CCCC[100NH:0][100C:0](=O)N4CCCC(n5nc(-c6ccc(Oc7ccc(F)cc7F)cc6)c(C(N)=O)c5N)C4)CC3)ccc2CC1C(=O)NC1CCCc2ccccc21)C(C)(C)C

> <Shape>
0.205

> <Color>
0.097

> <Negative vol penalty>
0.000

$$$$

  -OEChem-04052316153D

 83 91  0     1  0  0  0  0  0999 V2000
  -17.0285  -28.8388   22.3884 C   0  0  0  0  0  0  0  0  0  0  0  0
  -18.1674  -28.7286   21.5970 C   0  0  0  0  0  0  0  0  0  0  0  0
  -26.6235  -12.6025   21.8022 C   0  0  0  0  0  0  0  0  0  0  0  0
  -26.0148  -14.0416   19.9595 C   0  0  0  0  0  0  0  0  0  0  0  0
  -17.1527  -29.0301   23.7638 C   0  0  0  0  0  0  0  0  0  0  0  0
  -19.4312  -28.8106   22.1806 C   0  0  0  0  0  0  0  0  0  0  0  0
  -24.4731  -25.7758   20.4850 C   0  0  0  0  0  0  0  0  0  0  0  0
  -25.3402  -12.0560   21.7993 C   0  0  0  0  0  0  0  0  0  0  0  0
  -24.7314  -13.4950   19.9566 C   0  0  0  0  0  0  0  0  0  0  0  0
  -25.5686  -26.1398   19.7032 C   0  0  0  0  0  0  0  0  0  0  0  0
  -23.6082   -9.7746   20.0024 C   0  0  0  0  0  0  0  0  0  0  0  0
  -23.4940   -8.3879   20.1002 C   0  0  0  0  0  0  0  0  0  0  0  0
  -26.7991  -26.7029   21.7001 C   0  0  0  0  0  0  0  0  0  0  0  0
  -28.6195  -23.4035   19.3711 C   0  0  0  0  0  0  0  0  0  0  0  0
  -22.2196   -8.6366   22.1377 C   0  0  0  0  0  0  0  0  0  0  0  0
  -26.9608  -13.5953   20.8822 C   0  0  0  0  0  0  0  0  0  0  0  0
  -29.4052  -13.7074   20.1611 C   0  0  0  0  0  0  0  0  0  0  0  0
  -18.4186  -29.1048   24.3659 C   0  0  0  0  0  0  0  0  0  0  0  0
  -24.5287  -25.8832   21.8821 C   0  0  0  0  0  0  0  0  0  0  0  0
  -19.5724  -29.0043   23.5652 C   0  0  0  0  0  0  0  0  0  0  0  0
  -25.7039  -26.3373   22.4976 C   0  0  0  0  0  0  0  0  0  0  0  0
  -29.8191  -24.0013   18.9849 C   0  0  0  0  0  0  0  0  0  0  0  0
  -28.6359  -22.2185   20.1068 C   0  0  0  0  0  0  0  0  0  0  0  0
  -31.0352  -23.4140   19.3343 C   0  0  0  0  0  0  0  0  0  0  0  0
  -31.0515  -22.2289   20.0699 C   0  0  0  0  0  0  0  0  0  0  0  0
  -29.8519  -21.6312   20.4561 C   0  0  0  0  0  0  0  0  0  0  0  0
  -24.3942  -12.5022   20.8766 C   0  0  0  0  0  0  0  0  0  0  0  0
  -26.7308  -26.6062   20.3105 C   0  0  0  0  0  0  0  0  0  0  0  0
  -23.0282  -10.5924   20.9723 C   0  0  0  0  0  0  0  0  0  0  0  0
  -22.7997   -7.8189   21.1678 C   0  0  0  0  0  0  0  0  0  0  0  0
  -22.3339  -10.0234   22.0399 C   0  0  0  0  0  0  0  0  0  0  0  0
  -28.2861  -14.1607   20.8850 C   0  0  0  0  0  0  0  0  0  0  0  0
  -30.4118  -14.5760   20.5058 C   0  0  0  0  0  0  0  0  0  0  0  0
  -29.5241  -12.6003   19.2578 C   0  0  0  0  0  0  0  0  0  0  0  0
  -22.9291  -27.5444   24.0696 C   0  0  0  0  0  0  0  0  0  0  0  0
  -24.6829  -25.7655   26.1389 C   0  0  0  0  0  0  0  0  0  0  0  0
  -27.4993  -23.9252   26.7114 C   0  0  0  0  0  0  0  0  0  0  0  0
  -30.4405  -20.2226   22.4601 C   0  0  0  0  0  0  0  0  0  0  0  0
  -18.5027  -29.3596   25.8501 C   0  0  0  0  0  0  0  0  0  0  0  0
  -23.3479  -25.4613   22.7127 C   0  0  0  0  0  0  0  0  0  0  0  0
  -25.8217  -26.4520   23.9947 C   0  0  0  0  0  0  0  0  0  0  0  0
  -19.8774  -29.0606   26.4425 C   0  0  0  0  0  0  0  0  0  0  0  0
  -31.8590  -17.3960   24.0957 C   0  0  0  0  0  0  0  0  0  0  0  0
  -20.9759  -29.6663   25.5746 C   0  0  0  0  0  0  0  0  0  0  0  0
  -31.2102  -16.2042   23.3880 C   0  0  0  0  0  0  0  0  0  0  0  0
  -30.8838  -18.5612   24.2540 C   0  0  0  0  0  0  0  0  0  0  0  0
  -29.5800  -17.8037   22.3058 C   0  0  0  0  0  0  0  0  0  0  0  0
  -20.9606  -29.0633   24.1648 C   0  0  1  0  0  0  0  0  0  0  0  0
  -23.3345  -26.0979   24.0991 C   0  0  1  0  0  0  0  0  0  0  0  0
  -30.5427  -16.6294   22.0654 C   0  0  2  0  0  0  0  0  0  0  0  0
  -27.3341  -21.6028   20.5069 C   0  0  0  0  0  0  0  0  0  0  0  0
  -32.3200  -24.0576   18.9184 C   0  0  0  0  0  0  0  0  0  0  0  0
  -32.3593  -21.6026   20.4421 C   0  0  0  0  0  0  0  0  0  0  0  0
  -28.6734  -22.6289   28.5110 C   0  0  0  0  0  0  0  0  0  0  0  0
  -25.5648  -28.3793   27.4429 C   0  0  0  0  0  0  0  0  0  0  0  0
  -27.4137  -27.1158   28.5626 C   0  0  0  0  0  0  0  0  0  0  0  0
  -25.0366  -26.5377   29.0504 C   0  0  0  0  0  0  0  0  0  0  0  0
  -27.3639  -21.4137   25.1518 C   0  0  0  0  0  0  0  0  0  0  0  0
  -29.7733  -25.2827   18.1916 C   0  0  0  0  0  0  0  0  0  0  0  0
  -30.1000  -26.5297   19.0163 C   0  0  0  0  0  0  0  0  0  0  0  0
  -29.0944  -26.7975   20.1300 C   0  0  0  0  0  0  0  0  0  1  0  0
  -26.0274  -25.9198   26.8079 C   0  0  1  0  0  0  0  0  0  0  0  0
  -27.6992  -22.5604   27.3452 C   0  0  2  0  0  0  0  0  0  0  0  0
  -26.0080  -26.9879   27.9376 C   0  0  0  0  0  0  0  0  0  0  0  0
  -28.5560  -15.2337   21.6332 N   0  0  0  0  0  0  0  0  0  0  0  0
  -29.8563  -15.4619   21.3813 N   0  0  0  0  0  0  0  0  0  0  0  0
  -24.6379  -26.0332   24.7633 N   0  0  0  0  0  0  0  0  0  0  0  0
  -30.2938  -18.9115   22.9601 N   0  0  0  0  0  0  0  0  0  0  0  0
  -31.7092  -14.6606   20.1423 N   0  0  0  0  0  0  0  0  0  0  0  0
  -28.3917  -11.8106   19.0161 N   0  0  0  0  0  0  0  0  0  0  0  0
  -29.8659  -20.4293   21.2064 N   0  0  0  0  0  0  0  0  0  0  0  0
  -21.5662  -27.7489   24.1706 N   0  0  0  0  0  0  0  0  0  0  0  0
  -26.4172  -24.5863   27.2530 N   0  0  0  0  0  0  0  0  0  0  0  0
  -28.2339  -21.5967   26.3420 N   0  3  0  0  0  0  0  0  0  0  0  0
  -30.6067  -12.3099   18.6947 O   0  0  0  0  0  0  0  0  0  0  0  0
  -23.7892  -28.4109   23.9645 O   0  0  0  0  0  0  0  0  0  0  0  0
  -23.7100  -25.4133   26.8106 O   0  0  0  0  0  0  0  0  0  0  0  0
  -28.2322  -24.3628   25.8272 O   0  0  0  0  0  0  0  0  0  0  0  0
  -31.0559  -21.0904   23.0848 O   0  0  0  0  0  0  0  0  0  0  0  0
  -23.1419  -11.9690   20.8733 O   0  0  0  0  0  0  0  0  0  0  0  0
  -27.8013  -26.9627   19.5497 O   0  0  0  0  0  0  0  0  0  1  0  0
  -22.6887   -6.4873   21.2608 F   0  0  0  0  0  0  0  0  0  0  0  0
  -21.7735  -10.8039   22.9740 F   0  0  0  0  0  0  0  0  0  0  0  0
  1  2  1  0  0  0  0
  1  5  2  0  0  0  0
  2  6  2  0  0  0  0
  3  8  2  0  0  0  0
  3 16  1  0  0  0  0
  4  9  1  0  0  0  0
  4 16  2  0  0  0  0
  5 18  1  0  0  0  0
  6 20  1  0  0  0  0
  7 10  2  0  0  0  0
  7 19  1  0  0  0  0
  8 27  1  0  0  0  0
  9 27  2  0  0  0  0
 10 28  1  0  0  0  0
 11 12  2  0  0  0  0
 11 29  1  0  0  0  0
 12 30  1  0  0  0  0
 13 21  1  0  0  0  0
 13 28  2  0  0  0  0
 14 22  1  0  0  0  0
 14 23  2  0  0  0  0
 15 30  2  0  0  0  0
 15 31  1  0  0  0  0
 16 32  1  0  0  0  0
 17 32  1  0  0  0  0
 17 33  2  0  0  0  0
 17 34  1  0  0  0  0
 18 20  2  0  0  0  0
 18 39  1  0  0  0  0
 19 21  2  0  0  0  0
 19 40  1  0  0  0  0
 20 48  1  0  0  0  0
 21 41  1  0  0  0  0
 22 24  2  0  0  0  0
 22 59  1  0  0  0  0
 23 26  1  0  0  0  0
 23 51  1  0  0  0  0
 24 25  1  0  0  0  0
 24 52  1  0  0  0  0
 25 26  2  0  0  0  0
 25 53  1  0  0  0  0
 26 71  1  0  0  0  0
 27 80  1  0  0  0  0
 28 81  1  0  0  0  0
 29 31  2  0  0  0  0
 29 80  1  0  0  0  0
 30 82  1  0  0  0  0
 31 83  1  0  0  0  0
 32 65  2  0  0  0  0
 33 66  1  0  0  0  0
 33 69  1  0  0  0  0
 34 70  1  0  0  0  0
 34 75  2  0  0  0  0
 35 49  1  0  0  0  0
 35 72  1  0  0  0  0
 35 76  2  0  0  0  0
 36 62  1  0  0  0  0
 36 67  1  0  0  0  0
 36 77  2  0  0  0  0
 37 63  1  0  0  0  0
 37 73  1  0  0  0  0
 37 78  2  0  0  0  0
 38 68  1  0  0  0  0
 38 71  1  0  0  0  0
 38 79  2  0  0  0  0
 39 42  1  0  0  0  0
 40 49  1  0  0  0  0
 41 67  1  0  0  0  0
 42 44  1  0  0  0  0
 43 45  1  0  0  0  0
 43 46  1  0  0  0  0
 44 48  1  0  0  0  0
 45 50  1  0  0  0  0
 46 68  1  0  0  0  0
 47 50  1  0  0  0  0
 47 68  1  0  0  0  0
 48 72  1  0  0  0  0
 49 67  1  0  0  0  0
 50 66  1  0  0  0  0
 54 63  1  0  0  0  0
 55 64  1  0  0  0  0
 56 64  1  0  0  0  0
 57 64  1  0  0  0  0
 58 74  1  0  0  0  0
 59 60  1  0  0  0  0
 60 61  1  0  0  0  0
 61 81  1  0  0  0  0
 62 64  1  0  0  0  0
 62 73  1  0  0  0  0
 63 74  1  0  0  0  0
 65 66  1  0  0  0  0
M  CHG  1  74   1
M  ISO  4  38 100  61 101  71 100  81 101
M  END
> <Batch ID>
0022

> <Smiles>
CNC(C)C(=O)NC(C(=O)N1Cc2cc([101O:1][101CH2:1]CCc3cc(C)c([100NH:0][100C:0](=O)N4CCCC(n5nc(-c6ccc(Oc7ccc(F)cc7F)cc6)c(C(N)=O)c5N)C4)c(C)c3C)ccc2CC1C(=O)NC1CCCc2ccccc21)C(C)(C)C

> <Shape>
0.253

> <Color>
0.084

> <Negative vol penalty>
0.000

$$$$

  -OEChem-04052316153D

 86 94  0     1  0  0  0  0  0999 V2000
  -22.7504  -16.9287   18.8086 C   0  0  0  0  0  0  0  0  0  0  0  0
  -23.4510  -17.7961   19.6406 C   0  0  0  0  0  0  0  0  0  0  0  0
  -27.5266  -14.6585   21.8938 C   0  0  0  0  0  0  0  0  0  0  0  0
  -27.0903  -14.9125   19.5311 C   0  0  0  0  0  0  0  0  0  0  0  0
  -21.7832  -17.4289   17.9378 C   0  0  0  0  0  0  0  0  0  0  0  0
  -23.1855  -19.1644   19.6015 C   0  0  0  0  0  0  0  0  0  0  0  0
  -23.0203  -24.9423   23.8329 C   0  0  0  0  0  0  0  0  0  0  0  0
  -26.9311  -13.3975   21.8683 C   0  0  0  0  0  0  0  0  0  0  0  0
  -26.4948  -13.6514   19.5056 C   0  0  0  0  0  0  0  0  0  0  0  0
  -23.5191  -26.2425   23.9005 C   0  0  0  0  0  0  0  0  0  0  0  0
  -23.5257  -12.2806   20.3637 C   0  0  0  0  0  0  0  0  0  0  0  0
  -22.3166  -12.1486   19.6810 C   0  0  0  0  0  0  0  0  0  0  0  0
  -21.7707  -26.9840   22.4130 C   0  0  0  0  0  0  0  0  0  0  0  0
  -25.0029  -28.3839   19.8099 C   0  0  0  0  0  0  0  0  0  0  0  0
  -23.3251  -10.5190   18.2098 C   0  0  0  0  0  0  0  0  0  0  0  0
  -27.6062  -15.4161   20.7252 C   0  0  0  0  0  0  0  0  0  0  0  0
  -29.5778  -17.0234   20.5330 C   0  0  0  0  0  0  0  0  0  0  0  0
  -21.4990  -18.8029   17.8950 C   0  0  0  0  0  0  0  0  0  0  0  0
  -21.8976  -24.6507   23.0450 C   0  0  0  0  0  0  0  0  0  0  0  0
  -22.2146  -19.6837   18.7284 C   0  0  0  0  0  0  0  0  0  0  0  0
  -21.2581  -25.6798   22.3392 C   0  0  0  0  0  0  0  0  0  0  0  0
  -27.0278  -29.2144   20.8329 C   0  0  0  0  0  0  0  0  0  0  0  0
  -27.0299  -27.0727   19.7147 C   0  0  0  0  0  0  0  0  0  0  0  0
  -25.6771  -29.3746   20.5236 C   0  0  0  0  0  0  0  0  0  0  0  0
  -26.4152  -12.8939   20.6742 C   0  0  0  0  0  0  0  0  0  0  0  0
  -22.8960  -27.2630   23.1882 C   0  0  0  0  0  0  0  0  0  0  0  0
  -24.6346  -11.5318   19.9695 C   0  0  0  0  0  0  0  0  0  0  0  0
  -22.2162  -11.2678   18.6041 C   0  0  0  0  0  0  0  0  0  0  0  0
  -24.5343  -10.6510   18.8925 C   0  0  0  0  0  0  0  0  0  0  0  0
  -27.7042  -28.0635   20.4285 C   0  0  0  0  0  0  0  0  0  0  0  0
  -25.6793  -27.2329   19.4054 C   0  0  0  0  0  0  0  0  0  0  0  0
  -28.2208  -16.7191   20.7511 C   0  0  0  0  0  0  0  0  0  0  0  0
  -29.6492  -18.3886   20.6657 C   0  0  0  0  0  0  0  0  0  0  0  0
  -30.6757  -16.1501   20.2369 C   0  0  0  0  0  0  0  0  0  0  0  0
  -21.3474  -22.7944   20.5240 C   0  0  0  0  0  0  0  0  0  0  0  0
  -18.2694  -23.6843   21.0300 C   0  0  0  0  0  0  0  0  0  0  0  0
  -16.5122  -26.7153   21.8917 C   0  0  0  0  0  0  0  0  0  0  0  0
  -27.7236  -23.3847   19.5354 C   0  0  0  0  0  0  0  0  0  0  0  0
  -20.4782  -19.3025   16.9035 C   0  0  0  0  0  0  0  0  0  0  0  0
  -21.3559  -23.2481   23.0039 C   0  0  0  0  0  0  0  0  0  0  0  0
  -20.0377  -25.4228   21.4948 C   0  0  0  0  0  0  0  0  0  0  0  0
  -19.9930  -20.7210   17.1911 C   0  0  0  0  0  0  0  0  0  0  0  0
  -26.2470  -21.7138   22.3859 C   0  0  0  0  0  0  0  0  0  0  0  0
  -21.1742  -21.6393   17.4879 C   0  0  0  0  0  0  0  0  0  0  0  0
  -26.7471  -20.2813   22.1914 C   0  0  0  0  0  0  0  0  0  0  0  0
  -25.9148  -22.3697   21.0489 C   0  0  0  0  0  0  0  0  0  0  0  0
  -27.5362  -20.9362   19.8701 C   0  0  0  0  0  0  0  0  0  0  0  0
  -21.9376  -21.1714   18.7328 C   0  0  1  0  0  0  0  0  0  0  0  0
  -20.5146  -22.9686   21.7624 C   0  0  1  0  0  0  0  0  0  0  0  0
  -27.9105  -20.2259   21.1837 C   0  0  2  0  0  0  0  0  0  0  0  0
  -27.7713  -30.2618   21.5966 C   0  0  0  0  0  0  0  0  0  0  0  0
  -14.3216  -27.0528   23.0686 C   0  0  0  0  0  0  0  0  0  0  0  0
  -17.1008  -23.7763   18.2130 C   0  0  0  0  0  0  0  0  0  0  0  0
  -15.5512  -25.5827   18.9900 C   0  0  0  0  0  0  0  0  0  0  0  0
  -15.4341  -23.3134   20.0191 C   0  0  0  0  0  0  0  0  0  0  0  0
  -24.3661  -31.3920   19.9144 C   0  0  0  0  0  0  0  0  0  0  0  0
  -17.7463  -28.4675   23.9328 C   0  0  0  0  0  0  0  0  0  0  0  0
  -27.7869  -25.8536   19.2960 C   0  0  0  0  0  0  0  0  0  0  0  0
  -23.3735  -30.8742   22.7254 C   0  0  0  0  0  0  0  0  0  0  0  0
  -24.8408  -30.8766   22.3138 C   0  0  0  0  0  0  0  0  0  0  0  0
  -22.6935  -29.5294   22.4965 C   0  0  0  0  0  0  0  0  0  1  0  0
  -17.3929  -24.8187   20.5569 C   0  0  1  0  0  0  0  0  0  0  0  0
  -15.8353  -27.0287   23.2138 C   0  0  2  0  0  0  0  0  0  0  0  0
  -16.3979  -24.3758   19.4473 C   0  0  0  0  0  0  0  0  0  0  0  0
  -27.4832  -17.8037   21.0034 N   0  0  0  0  0  0  0  0  0  0  0  0
  -28.3801  -18.8028   20.9447 N   0  0  0  0  0  0  0  0  0  0  0  0
  -19.5498  -24.0338   21.4818 N   0  0  0  0  0  0  0  0  0  0  0  0
  -27.0696  -22.2997   20.1425 N   0  0  0  0  0  0  0  0  0  0  0  0
  -30.6732  -19.2631   20.5699 N   0  0  0  0  0  0  0  0  0  0  0  0
  -30.4268  -14.7745   20.1357 N   0  0  0  0  0  0  0  0  0  0  0  0
  -21.2258  -21.5506   19.9344 N   0  0  0  0  0  0  0  0  0  0  0  0
  -16.7538  -25.3653   21.7491 N   0  0  0  0  0  0  0  0  0  0  0  0
  -27.2156  -24.6417   19.8398 N   0  0  0  0  0  0  0  0  0  0  0  0
  -24.9812  -30.5252   20.9213 N   0  0  3  0  0  0  0  0  0  0  0  0
  -16.2799  -28.3576   23.7212 N   0  3  0  0  0  0  0  0  0  0  0  0
  -31.8458  -16.5752   20.0832 O   0  0  0  0  0  0  0  0  0  0  0  0
  -22.0475  -23.7205   20.1315 O   0  0  0  0  0  0  0  0  0  0  0  0
  -17.8314  -22.5313   21.0065 O   0  0  0  0  0  0  0  0  0  0  0  0
  -16.7947  -27.5810   21.0663 O   0  0  0  0  0  0  0  0  0  0  0  0
  -28.6927  -23.2441   18.7816 O   0  0  0  0  0  0  0  0  0  0  0  0
  -25.8342  -11.6633   20.6488 O   0  0  0  0  0  0  0  0  0  0  0  0
  -23.3811  -28.5328   23.2518 O   0  0  0  0  0  0  0  0  0  1  0  0
  -21.0546  -11.1401   17.9495 F   0  0  0  0  0  0  0  0  0  0  0  0
  -25.5958   -9.9281   18.5099 F   0  0  0  0  0  0  0  0  0  0  0  0
  -29.0033  -27.9098   20.7263 F   0  0  0  0  0  0  0  0  0  0  0  0
  -24.8115  -26.0284   18.5248 Cl  0  0  0  0  0  0  0  0  0  0  0  0
  1  2  1  0  0  0  0
  1  5  2  0  0  0  0
  2  6  2  0  0  0  0
  3  8  2  0  0  0  0
  3 16  1  0  0  0  0
  4  9  1  0  0  0  0
  4 16  2  0  0  0  0
  5 18  1  0  0  0  0
  6 20  1  0  0  0  0
  7 10  2  0  0  0  0
  7 19  1  0  0  0  0
  8 25  1  0  0  0  0
  9 25  2  0  0  0  0
 10 26  1  0  0  0  0
 11 12  2  0  0  0  0
 11 27  1  0  0  0  0
 12 28  1  0  0  0  0
 13 21  1  0  0  0  0
 13 26  2  0  0  0  0
 14 24  1  0  0  0  0
 14 31  2  0  0  0  0
 15 28  2  0  0  0  0
 15 29  1  0  0  0  0
 16 32  1  0  0  0  0
 17 32  1  0  0  0  0
 17 33  2  0  0  0  0
 17 34  1  0  0  0  0
 18 20  2  0  0  0  0
 18 39  1  0  0  0  0
 19 21  2  0  0  0  0
 19 40  1  0  0  0  0
 20 48  1  0  0  0  0
 21 41  1  0  0  0  0
 22 24  2  0  0  0  0
 22 30  1  0  0  0  0
 22 51  1  0  0  0  0
 23 30  2  0  0  0  0
 23 31  1  0  0  0  0
 23 58  1  0  0  0  0
 24 74  1  0  0  0  0
 25 81  1  0  0  0  0
 26 82  1  0  0  0  0
 27 29  2  0  0  0  0
 27 81  1  0  0  0  0
 28 83  1  0  0  0  0
 29 84  1  0  0  0  0
 30 85  1  0  0  0  0
 31 86  1  0  0  0  0
 32 65  2  0  0  0  0
 33 66  1  0  0  0  0
 33 69  1  0  0  0  0
 34 70  1  0  0  0  0
 34 76  2  0  0  0  0
 35 49  1  0  0  0  0
 35 71  1  0  0  0  0
 35 77  2  0  0  0  0
 36 62  1  0  0  0  0
 36 67  1  0  0  0  0
 36 78  2  0  0  0  0
 37 63  1  0  0  0  0
 37 72  1  0  0  0  0
 37 79  2  0  0  0  0
 38 68  1  0  0  0  0
 38 73  1  0  0  0  0
 38 80  2  0  0  0  0
 39 42  1  0  0  0  0
 40 49  1  0  0  0  0
 41 67  1  0  0  0  0
 42 44  1  0  0  0  0
 43 45  1  0  0  0  0
 43 46  1  0  0  0  0
 44 48  1  0  0  0  0
 45 50  1  0  0  0  0
 46 68  1  0  0  0  0
 47 50  1  0  0  0  0
 47 68  1  0  0  0  0
 48 71  1  0  0  0  0
 49 67  1  0  0  0  0
 50 66  1  0  0  0  0
 52 63  1  0  0  0  0
 53 64  1  0  0  0  0
 54 64  1  0  0  0  0
 55 64  1  0  0  0  0
 56 74  1  0  0  0  0
 57 75  1  0  0  0  0
 58 73  1  0  0  0  0
 59 60  1  0  0  0  0
 59 61  1  0  0  0  0
 60 74  1  0  0  0  0
 61 82  1  0  0  0  0
 62 64  1  0  0  0  0
 62 72  1  0  0  0  0
 63 75  1  0  0  0  0
 65 66  1  0  0  0  0
M  CHG  1  75   1
M  ISO  4  38 100  61 101  73 100  82 101
M  END
> <Batch ID>
0022

> <Smiles>
CNC(C)C(=O)NC(C(=O)N1Cc2cc([101O:1][101CH2:1]CCN(C)c3cc(Cl)c(C[100NH:0][100C:0](=O)N4CCCC(n5nc(-c6ccc(Oc7ccc(F)cc7F)cc6)c(C(N)=O)c5N)C4)c(F)c3C)ccc2CC1C(=O)NC1CCCc2ccccc21)C(C)(C)C

> <Shape>
0.215

> <Color>
0.076

> <Negative vol penalty>
0.000

$$$$

  -OEChem-04052316153D

 90 99  0     1  0  0  0  0  0999 V2000
  -26.4458  -38.2746   24.0512 C   0  0  0  0  0  0  0  0  0  0  0  0
  -27.1673  -37.4643   23.1804 C   0  0  0  0  0  0  0  0  0  0  0  0
  -25.7241   -8.4745   21.1433 C   0  0  0  0  0  0  0  0  0  0  0  0
  -27.7692   -9.7447   21.3463 C   0  0  0  0  0  0  0  0  0  0  0  0
  -25.6691  -37.6985   25.0556 C   0  0  0  0  0  0  0  0  0  0  0  0
  -27.1134  -36.0773   23.3142 C   0  0  0  0  0  0  0  0  0  0  0  0
  -27.3224  -30.0790   19.4037 C   0  0  0  0  0  0  0  0  0  0  0  0
  -26.4574   -7.2885   21.1762 C   0  0  0  0  0  0  0  0  0  0  0  0
  -28.5026   -8.5587   21.3792 C   0  0  0  0  0  0  0  0  0  0  0  0
  -27.9969  -28.8608   19.3353 C   0  0  0  0  0  0  0  0  0  0  0  0
  -29.2461   -6.1536   23.6338 C   0  0  0  0  0  0  0  0  0  0  0  0
  -30.2519   -6.0418   24.5937 C   0  0  0  0  0  0  0  0  0  0  0  0
  -26.5590  -27.9748   21.0576 C   0  0  0  0  0  0  0  0  0  0  0  0
  -31.2763  -23.4764   20.3239 C   0  0  0  0  0  0  0  0  0  0  0  0
  -31.8900   -5.7458   22.8427 C   0  0  0  0  0  0  0  0  0  0  0  0
  -26.3799   -9.7026   21.2283 C   0  0  0  0  0  0  0  0  0  0  0  0
  -24.6195  -11.3332   22.0943 C   0  0  0  0  0  0  0  0  0  0  0  0
  -25.5980  -36.3035   25.1957 C   0  0  0  0  0  0  0  0  0  0  0  0
  -26.2663  -30.2580   20.3087 C   0  0  0  0  0  0  0  0  0  0  0  0
  -26.3360  -35.4821   24.3223 C   0  0  0  0  0  0  0  0  0  0  0  0
  -25.8709  -29.1954   21.1337 C   0  0  0  0  0  0  0  0  0  0  0  0
  -30.7365  -24.7616   20.2759 C   0  0  0  0  0  0  0  0  0  0  0  0
  -30.9978  -22.5644   19.3059 C   0  0  0  0  0  0  0  0  0  0  0  0
  -29.9180  -25.1349   19.2099 C   0  0  0  0  0  0  0  0  0  0  0  0
  -29.6394  -24.2229   18.1918 C   0  0  0  0  0  0  0  0  0  0  0  0
  -27.8467   -7.3305   21.2942 C   0  0  0  0  0  0  0  0  0  0  0  0
  -27.6172  -27.8094   20.1644 C   0  0  0  0  0  0  0  0  0  0  0  0
  -29.5622   -6.0614   22.2783 C   0  0  0  0  0  0  0  0  0  0  0  0
  -31.5739   -5.8379   24.1982 C   0  0  0  0  0  0  0  0  0  0  0  0
  -30.8842   -5.8575   21.8828 C   0  0  0  0  0  0  0  0  0  0  0  0
  -30.1793  -22.9376   18.2398 C   0  0  0  0  0  0  0  0  0  0  0  0
  -25.6230  -10.9282   21.1938 C   0  0  0  0  0  0  0  0  0  0  0  0
  -24.2165  -12.5612   21.6296 C   0  0  0  0  0  0  0  0  0  0  0  0
  -24.0983  -10.6596   23.2477 C   0  0  0  0  0  0  0  0  0  0  0  0
  -25.7392  -32.1730   22.7904 C   0  0  0  0  0  0  0  0  0  0  0  0
  -22.7892  -30.8267   22.7054 C   0  0  0  0  0  0  0  0  0  0  0  0
  -20.8370  -28.1817   21.7891 C   0  0  0  0  0  0  0  0  0  0  0  0
  -26.9234  -16.7617   18.3310 C   0  0  0  0  0  0  0  0  0  0  0  0
  -24.7823  -35.7281   26.3263 C   0  0  0  0  0  0  0  0  0  0  0  0
  -25.5314  -31.5697   20.3514 C   0  0  0  0  0  0  0  0  0  0  0  0
  -24.7304  -29.3299   22.1082 C   0  0  0  0  0  0  0  0  0  0  0  0
  -24.4826  -34.2400   26.1653 C   0  0  0  0  0  0  0  0  0  0  0  0
  -23.8597  -15.1046   17.5929 C   0  0  0  0  0  0  0  0  0  0  0  0
  -25.7450  -33.4811   25.7688 C   0  0  0  0  0  0  0  0  0  0  0  0
  -23.8737  -13.8829   18.5133 C   0  0  0  0  0  0  0  0  0  0  0  0
  -29.9040  -17.8947   18.9035 C   0  0  0  0  0  0  0  0  0  0  0  0
  -28.7898  -18.1118   21.2175 C   0  0  0  0  0  0  0  0  0  0  0  0
  -25.2562  -15.4329   17.0695 C   0  0  0  0  0  0  0  0  0  0  0  0
  -26.3008  -14.3708   19.0328 C   0  0  0  0  0  0  0  0  0  0  0  0
  -31.0619  -18.7651   19.3710 C   0  0  0  0  0  0  0  0  0  0  0  0
  -30.3168  -20.2094   21.2874 C   0  0  0  0  0  0  0  0  0  0  0  0
  -26.2835  -33.9728   24.4199 C   0  0  1  0  0  0  0  0  0  0  0  0
  -24.8053  -31.8051   21.6723 C   0  0  1  0  0  0  0  0  0  0  0  0
  -28.9748  -19.5742   21.6635 C   0  0  2  0  0  0  0  0  0  0  0  0
  -24.9237  -14.0343   19.6303 C   0  0  2  0  0  0  0  0  0  0  0  0
  -28.6004  -17.9711   19.7036 C   0  0  2  0  0  0  0  0  0  0  0  0
  -31.0502  -25.7188   21.3785 C   0  0  0  0  0  0  0  0  0  0  0  0
  -28.7594  -24.6430   17.0552 C   0  0  0  0  0  0  0  0  0  0  0  0
  -28.8023  -19.6673   23.1859 C   0  0  0  0  0  0  0  0  0  0  0  0
  -18.4706  -27.3523   21.8882 C   0  0  0  0  0  0  0  0  0  0  0  0
  -23.1596  -30.1294   25.6527 C   0  0  0  0  0  0  0  0  0  0  0  0
  -21.2540  -28.5197   25.4395 C   0  0  0  0  0  0  0  0  0  0  0  0
  -20.8759  -30.9552   25.0551 C   0  0  0  0  0  0  0  0  0  0  0  0
  -20.6200  -28.0983   18.8387 C   0  0  0  0  0  0  0  0  0  0  0  0
  -31.6002  -21.1935   19.3999 C   0  0  0  0  0  0  0  0  0  0  0  0
  -29.3426  -26.5152   19.1623 C   0  0  0  0  0  0  0  0  0  1  0  0
  -22.1500  -29.6118   23.3335 C   0  0  1  0  0  0  0  0  0  0  0  0
  -19.5008  -28.1168   21.0716 C   0  0  2  0  0  0  0  0  0  0  0  0
  -21.8827  -29.8018   24.8533 C   0  0  0  0  0  0  0  0  0  0  0  0
  -25.8438  -11.8260   20.2299 N   0  0  0  0  0  0  0  0  0  0  0  0
  -24.9734  -12.8074   20.5220 N   0  0  0  0  0  0  0  0  0  0  0  0
  -24.0472  -30.6340   22.1170 N   0  0  0  0  0  0  0  0  0  0  0  0
  -26.2039  -15.5649   18.1788 N   0  0  0  0  0  0  0  0  0  0  0  0
  -23.2921  -13.4437   22.0644 N   0  0  0  0  0  0  0  0  0  0  0  0
  -24.7070  -10.8914   24.4887 N   0  0  0  0  0  0  0  0  0  0  0  0
  -25.5030  -33.4218   23.3328 N   0  0  0  0  0  0  0  0  0  0  0  0
  -20.9544  -29.3273   22.5475 N   0  0  0  0  0  0  0  0  0  0  0  0
  -27.7955  -16.8058   19.4118 N   0  0  0  0  0  0  0  0  0  0  0  0
  -30.6019  -20.1349   19.8043 N   0  3  1  0  0  0  0  0  0  0  0  0
  -19.6531  -27.4385   19.7534 N   0  3  0  0  0  0  0  0  0  0  0  0
  -23.1322   -9.8627   23.1771 O   0  0  0  0  0  0  0  0  0  0  0  0
  -26.6087  -31.3818   23.1364 O   0  0  0  0  0  0  0  0  0  0  0  0
  -22.1911  -31.9053   22.7295 O   0  0  0  0  0  0  0  0  0  0  0  0
  -21.6897  -27.3022   21.6900 O   0  0  0  0  0  0  0  0  0  0  0  0
  -26.7939  -17.7217   17.5639 O   0  0  0  0  0  0  0  0  0  0  0  0
  -28.5626   -6.1734   21.3266 O   0  0  0  0  0  0  0  0  0  0  0  0
  -28.2792  -26.6106   20.0996 O   0  0  0  0  0  0  0  0  0  1  0  0
  -32.5399   -5.7321   25.1200 F   0  0  0  0  0  0  0  0  0  0  0  0
  -31.1941   -5.7694   20.5820 F   0  0  0  0  0  0  0  0  0  0  0  0
  -29.8347  -21.8020   16.9778 Cl  0  0  0  0  0  0  0  0  0  0  0  0
  1  2  1  0  0  0  0
  1  5  2  0  0  0  0
  2  6  2  0  0  0  0
  3  8  2  0  0  0  0
  3 16  1  0  0  0  0
  4  9  1  0  0  0  0
  4 16  2  0  0  0  0
  5 18  1  0  0  0  0
  6 20  1  0  0  0  0
  7 10  2  0  0  0  0
  7 19  1  0  0  0  0
  8 26  1  0  0  0  0
  9 26  2  0  0  0  0
 10 27  1  0  0  0  0
 11 12  2  0  0  0  0
 11 28  1  0  0  0  0
 12 29  1  0  0  0  0
 13 21  1  0  0  0  0
 13 27  2  0  0  0  0
 14 22  2  0  0  0  0
 14 23  1  0  0  0  0
 15 29  2  0  0  0  0
 15 30  1  0  0  0  0
 16 32  1  0  0  0  0
 17 32  1  0  0  0  0
 17 33  2  0  0  0  0
 17 34  1  0  0  0  0
 18 20  2  0  0  0  0
 18 39  1  0  0  0  0
 19 21  2  0  0  0  0
 19 40  1  0  0  0  0
 20 52  1  0  0  0  0
 21 41  1  0  0  0  0
 22 24  1  0  0  0  0
 22 57  1  0  0  0  0
 23 31  2  0  0  0  0
 23 65  1  0  0  0  0
 24 25  2  0  0  0  0
 24 66  1  0  0  0  0
 25 31  1  0  0  0  0
 25 58  1  0  0  0  0
 26 86  1  0  0  0  0
 27 87  1  0  0  0  0
 28 30  2  0  0  0  0
 28 86  1  0  0  0  0
 29 88  1  0  0  0  0
 30 89  1  0  0  0  0
 31 90  1  0  0  0  0
 32 70  2  0  0  0  0
 33 71  1  0  0  0  0
 33 74  1  0  0  0  0
 34 75  1  0  0  0  0
 34 81  2  0  0  0  0
 35 53  1  0  0  0  0
 35 76  1  0  0  0  0
 35 82  2  0  0  0  0
 36 67  1  0  0  0  0
 36 72  1  0  0  0  0
 36 83  2  0  0  0  0
 37 68  1  0  0  0  0
 37 77  1  0  0  0  0
 37 84  2  0  0  0  0
 38 73  1  0  0  0  0
 38 78  1  0  0  0  0
 38 85  2  0  0  0  0
 39 42  1  0  0  0  0
 40 53  1  0  0  0  0
 41 72  1  0  0  0  0
 42 44  1  0  0  0  0
 43 45  1  0  0  0  0
 43 48  1  0  0  0  0
 44 52  1  0  0  0  0
 45 55  1  0  0  0  0
 46 50  1  0  0  0  0
 46 56  1  0  0  0  0
 47 54  1  0  0  0  0
 47 56  1  0  0  0  0
 48 73  1  0  0  0  0
 49 55  1  0  0  0  0
 49 73  1  0  0  0  0
 50 79  1  0  0  0  0
 51 54  1  0  0  0  0
 51 79  1  0  0  0  0
 52 76  1  0  0  0  0
 53 72  1  0  0  0  0
 54 59  1  0  0  0  0
 55 71  1  0  0  0  0
 56 78  1  0  0  0  0
 60 68  1  0  0  0  0
 61 69  1  0  0  0  0
 62 69  1  0  0  0  0
 63 69  1  0  0  0  0
 64 80  1  0  0  0  0
 65 79  1  0  0  0  0
 66 87  1  0  0  0  0
 67 69  1  0  0  0  0
 67 77  1  0  0  0  0
 68 80  1  0  0  0  0
 70 71  1  0  0  0  0
M  CHG  2  79   1  80   1
M  ISO  4  38 100  66 101  78 100  87 101
M  END
> <Batch ID>
0022

> <Smiles>
CNC(C)C(=O)NC(C(=O)N1Cc2cc([101O:1][101CH2:1]c3c(C)cc(CN4CCC([100NH:0][100C:0](=O)N5CCCC(n6nc(-c7ccc(Oc8ccc(F)cc8F)cc7)c(C(N)=O)c6N)C5)CC(C)C4)c(Cl)c3C)ccc2CC1C(=O)NC1CCCc2ccccc21)C(C)(C)C

> <Shape>
0.277

> <Color>
0.086

> <Negative vol penalty>
0.000

$$$$

  -OEChem-04052316153D

 86 94  0     1  0  0  0  0  0999 V2000
  -27.9266  -33.2218   25.7092 C   0  0  0  0  0  0  0  0  0  0  0  0
  -28.1420  -32.0137   25.0539 C   0  0  0  0  0  0  0  0  0  0  0  0
  -24.0975   -9.7263   21.0718 C   0  0  0  0  0  0  0  0  0  0  0  0
  -24.6178  -10.5866   23.2686 C   0  0  0  0  0  0  0  0  0  0  0  0
  -26.6454  -33.5593   26.1435 C   0  0  0  0  0  0  0  0  0  0  0  0
  -27.0764  -31.1417   24.8335 C   0  0  0  0  0  0  0  0  0  0  0  0
  -27.0517  -29.2530   20.1349 C   0  0  0  0  0  0  0  0  0  0  0  0
  -23.6817   -8.5229   21.6415 C   0  0  0  0  0  0  0  0  0  0  0  0
  -24.2020   -9.3833   23.8384 C   0  0  0  0  0  0  0  0  0  0  0  0
  -27.9454  -28.2189   19.8596 C   0  0  0  0  0  0  0  0  0  0  0  0
  -20.9505   -7.3385   23.2449 C   0  0  0  0  0  0  0  0  0  0  0  0
  -19.7560   -6.7830   22.7867 C   0  0  0  0  0  0  0  0  0  0  0  0
  -26.1607  -26.6164   20.1161 C   0  0  0  0  0  0  0  0  0  0  0  0
  -31.7214  -18.3529   24.4818 C   0  0  0  0  0  0  0  0  0  0  0  0
  -20.9462   -4.7998   22.0885 C   0  0  0  0  0  0  0  0  0  0  0  0
  -24.5656  -10.7582   21.8853 C   0  0  0  0  0  0  0  0  0  0  0  0
  -24.2063  -13.1379   21.0394 C   0  0  0  0  0  0  0  0  0  0  0  0
  -25.5618  -32.6954   25.9197 C   0  0  0  0  0  0  0  0  0  0  0  0
  -25.7059  -28.9752   20.4140 C   0  0  0  0  0  0  0  0  0  0  0  0
  -25.7797  -31.4673   25.2664 C   0  0  0  0  0  0  0  0  0  0  0  0
  -25.2514  -27.6489   20.3920 C   0  0  0  0  0  0  0  0  0  0  0  0
  -31.5409  -18.4669   23.1034 C   0  0  0  0  0  0  0  0  0  0  0  0
  -31.5516  -17.1179   25.1076 C   0  0  0  0  0  0  0  0  0  0  0  0
  -31.0206  -16.1110   22.9766 C   0  0  0  0  0  0  0  0  0  0  0  0
  -23.7339   -8.3514   23.0248 C   0  0  0  0  0  0  0  0  0  0  0  0
  -27.5006  -26.9002   19.8530 C   0  0  0  0  0  0  0  0  0  0  0  0
  -22.1430   -6.6248   23.1249 C   0  0  0  0  0  0  0  0  0  0  0  0
  -19.7538   -5.5136   22.2085 C   0  0  0  0  0  0  0  0  0  0  0  0
  -22.1408   -5.3554   22.5467 C   0  0  0  0  0  0  0  0  0  0  0  0
  -31.1905  -17.3460   22.3508 C   0  0  0  0  0  0  0  0  0  0  0  0
  -31.2011  -15.9970   24.3550 C   0  0  0  0  0  0  0  0  0  0  0  0
  -24.9958  -12.0012   21.2973 C   0  0  0  0  0  0  0  0  0  0  0  0
  -25.0770  -14.0411   20.4804 C   0  0  0  0  0  0  0  0  0  0  0  0
  -22.8106  -13.3576   21.2835 C   0  0  0  0  0  0  0  0  0  0  0  0
  -23.7951  -29.4221   22.9146 C   0  0  0  0  0  0  0  0  0  0  0  0
  -21.5193  -28.3304   20.8771 C   0  0  0  0  0  0  0  0  0  0  0  0
  -20.7548  -26.5072   18.0953 C   0  0  0  0  0  0  0  0  0  0  0  0
  -30.9967  -14.7680   20.8454 C   0  0  0  0  0  0  0  0  0  0  0  0
  -24.2037  -33.0821   26.4494 C   0  0  0  0  0  0  0  0  0  0  0  0
  -24.7488  -30.1040   20.6827 C   0  0  0  0  0  0  0  0  0  0  0  0
  -23.8121  -27.2992   20.6653 C   0  0  0  0  0  0  0  0  0  0  0  0
  -23.0605  -32.2712   25.8445 C   0  0  0  0  0  0  0  0  0  0  0  0
  -29.0931  -14.2549   17.8806 C   0  0  0  0  0  0  0  0  0  0  0  0
  -23.4031  -30.7848   25.8423 C   0  0  0  0  0  0  0  0  0  0  0  0
  -27.7524  -13.7280   18.3972 C   0  0  0  0  0  0  0  0  0  0  0  0
  -30.2653  -13.7315   18.7086 C   0  0  0  0  0  0  0  0  0  0  0  0
  -28.8098  -13.4252   20.6725 C   0  0  0  0  0  0  0  0  0  0  0  0
  -24.6448  -30.5062   24.9866 C   0  0  1  0  0  0  0  0  0  0  0  0
  -23.5110  -29.6658   21.4594 C   0  0  1  0  0  0  0  0  0  0  0  0
  -27.5942  -13.9770   19.9100 C   0  0  2  0  0  0  0  0  0  0  0  0
  -31.7547  -17.0440   26.5870 C   0  0  0  0  0  0  0  0  0  0  0  0
  -18.8051  -25.7667   16.6997 C   0  0  0  0  0  0  0  0  0  0  0  0
  -20.7874  -26.2645   23.0000 C   0  0  0  0  0  0  0  0  0  0  0  0
  -19.5459  -24.9939   21.2358 C   0  0  0  0  0  0  0  0  0  0  0  0
  -18.8319  -27.3064   21.8402 C   0  0  0  0  0  0  0  0  0  0  0  0
  -21.7961  -27.8937   15.6970 C   0  0  0  0  0  0  0  0  0  0  0  0
  -31.7261  -19.8035   22.4302 C   0  0  0  0  0  0  0  0  0  0  0  0
  -30.4110  -20.5225   22.1084 C   0  0  0  0  0  0  0  0  0  0  0  0
  -30.6203  -21.8722   21.4126 C   0  0  0  0  0  0  0  0  0  0  0  0
  -29.2812  -22.5378   21.0848 C   0  0  0  0  0  0  0  0  0  0  0  0
  -29.4325  -23.9209   20.4507 C   0  0  0  0  0  0  0  0  0  0  0  0
  -28.1072  -24.6263   20.1958 C   0  0  0  0  0  0  0  0  0  1  0  0
  -20.9639  -26.9719   20.5232 C   0  0  1  0  0  0  0  0  0  0  0  0
  -19.8832  -26.8218   16.8929 C   0  0  2  0  0  0  0  0  0  0  0  0
  -20.0599  -26.3903   21.6465 C   0  0  0  0  0  0  0  0  0  0  0  0
  -26.2701  -12.1649   20.9320 N   0  0  0  0  0  0  0  0  0  0  0  0
  -26.2879  -13.4149   20.4387 N   0  0  0  0  0  0  0  0  0  0  0  0
  -22.9163  -28.4374   20.9288 N   0  0  0  0  0  0  0  0  0  0  0  0
  -30.0480  -14.0067   20.1306 N   0  0  0  0  0  0  0  0  0  0  0  0
  -24.9172  -15.3020   20.0252 N   0  0  0  0  0  0  0  0  0  0  0  0
  -22.0631  -12.3241   21.8644 N   0  0  0  0  0  0  0  0  0  0  0  0
  -30.6672  -14.9926   22.1816 N   0  0  0  0  0  0  0  0  0  0  0  0
  -24.3033  -30.5211   23.5804 N   0  0  0  0  0  0  0  0  0  0  0  0
  -20.2933  -27.1276   19.2370 N   0  0  0  0  0  0  0  0  0  0  0  0
  -20.7104  -26.8806   15.6547 N   0  3  0  0  0  0  0  0  0  0  0  0
  -22.2396  -14.4324   20.9798 O   0  0  0  0  0  0  0  0  0  0  0  0
  -23.5685  -28.3190   23.3979 O   0  0  0  0  0  0  0  0  0  0  0  0
  -20.7423  -29.2639   21.0925 O   0  0  0  0  0  0  0  0  0  0  0  0
  -21.7438  -25.7806   18.0292 O   0  0  0  0  0  0  0  0  0  0  0  0
  -32.0124  -15.2128   20.3045 O   0  0  0  0  0  0  0  0  0  0  0  0
  -23.3280   -7.1774   23.5811 O   0  0  0  0  0  0  0  0  0  0  0  0
  -28.3709  -25.8889   19.5853 O   0  0  0  0  0  0  0  0  0  1  0  0
  -18.6064   -4.9795   21.7699 F   0  0  0  0  0  0  0  0  0  0  0  0
  -23.2830   -4.6644   22.4298 F   0  0  0  0  0  0  0  0  0  0  0  0
  -31.0209  -17.4589   21.0245 F   0  0  0  0  0  0  0  0  0  0  0  0
  -30.9906  -14.4647   25.1386 Cl  0  0  0  0  0  0  0  0  0  0  0  0
  1  2  1  0  0  0  0
  1  5  2  0  0  0  0
  2  6  2  0  0  0  0
  3  8  2  0  0  0  0
  3 16  1  0  0  0  0
  4  9  1  0  0  0  0
  4 16  2  0  0  0  0
  5 18  1  0  0  0  0
  6 20  1  0  0  0  0
  7 10  2  0  0  0  0
  7 19  1  0  0  0  0
  8 25  1  0  0  0  0
  9 25  2  0  0  0  0
 10 26  1  0  0  0  0
 11 12  2  0  0  0  0
 11 27  1  0  0  0  0
 12 28  1  0  0  0  0
 13 21  1  0  0  0  0
 13 26  2  0  0  0  0
 14 22  1  0  0  0  0
 14 23  2  0  0  0  0
 15 28  2  0  0  0  0
 15 29  1  0  0  0  0
 16 32  1  0  0  0  0
 17 32  1  0  0  0  0
 17 33  2  0  0  0  0
 17 34  1  0  0  0  0
 18 20  2  0  0  0  0
 18 39  1  0  0  0  0
 19 21  2  0  0  0  0
 19 40  1  0  0  0  0
 20 48  1  0  0  0  0
 21 41  1  0  0  0  0
 22 30  2  0  0  0  0
 22 57  1  0  0  0  0
 23 31  1  0  0  0  0
 23 51  1  0  0  0  0
 24 30  1  0  0  0  0
 24 31  2  0  0  0  0
 24 72  1  0  0  0  0
 25 81  1  0  0  0  0
 26 82  1  0  0  0  0
 27 29  2  0  0  0  0
 27 81  1  0  0  0  0
 28 83  1  0  0  0  0
 29 84  1  0  0  0  0
 30 85  1  0  0  0  0
 31 86  1  0  0  0  0
 32 66  2  0  0  0  0
 33 67  1  0  0  0  0
 33 70  1  0  0  0  0
 34 71  1  0  0  0  0
 34 76  2  0  0  0  0
 35 49  1  0  0  0  0
 35 73  1  0  0  0  0
 35 77  2  0  0  0  0
 36 63  1  0  0  0  0
 36 68  1  0  0  0  0
 36 78  2  0  0  0  0
 37 64  1  0  0  0  0
 37 74  1  0  0  0  0
 37 79  2  0  0  0  0
 38 69  1  0  0  0  0
 38 72  1  0  0  0  0
 38 80  2  0  0  0  0
 39 42  1  0  0  0  0
 40 49  1  0  0  0  0
 41 68  1  0  0  0  0
 42 44  1  0  0  0  0
 43 45  1  0  0  0  0
 43 46  1  0  0  0  0
 44 48  1  0  0  0  0
 45 50  1  0  0  0  0
 46 69  1  0  0  0  0
 47 50  1  0  0  0  0
 47 69  1  0  0  0  0
 48 73  1  0  0  0  0
 49 68  1  0  0  0  0
 50 67  1  0  0  0  0
 52 64  1  0  0  0  0
 53 65  1  0  0  0  0
 54 65  1  0  0  0  0
 55 65  1  0  0  0  0
 56 75  1  0  0  0  0
 57 58  1  0  0  0  0
 58 59  1  0  0  0  0
 59 60  1  0  0  0  0
 60 61  1  0  0  0  0
 61 62  1  0  0  0  0
 62 82  1  0  0  0  0
 63 65  1  0  0  0  0
 63 74  1  0  0  0  0
 64 75  1  0  0  0  0
 66 67  1  0  0  0  0
M  CHG  1  75   1
M  ISO  4  38 100  62 101  72 100  82 101
M  END
> <Batch ID>
0022

> <Smiles>
CNC(C)C(=O)NC(C(=O)N1Cc2cc([101O:1][101CH2:1]CCCCCc3cc(C)c(Cl)c([100NH:0][100C:0](=O)N4CCCC(n5nc(-c6ccc(Oc7ccc(F)cc7F)cc6)c(C(N)=O)c5N)C4)c3F)ccc2CC1C(=O)NC1CCCc2ccccc21)C(C)(C)C

> <Shape>
0.344

> <Color>
0.159

> <Negative vol penalty>
0.000

$$$$

  -OEChem-04052316153D

 93101  0     1  0  0  0  0  0999 V2000
  -27.1772  -17.1445   24.1665 C   0  0  0  0  0  0  0  0  0  0  0  0
  -27.1172  -17.9621   25.2906 C   0  0  0  0  0  0  0  0  0  0  0  0
  -22.9982   -9.8972   19.9868 C   0  0  0  0  0  0  0  0  0  0  0  0
  -23.7577   -9.9394   22.2799 C   0  0  0  0  0  0  0  0  0  0  0  0
  -26.4344  -17.4664   23.0314 C   0  0  0  0  0  0  0  0  0  0  0  0
  -26.3151  -19.1027   25.2796 C   0  0  0  0  0  0  0  0  0  0  0  0
  -23.2042  -21.4610   29.9983 C   0  0  0  0  0  0  0  0  0  0  0  0
  -22.2395   -8.7588   20.2589 C   0  0  0  0  0  0  0  0  0  0  0  0
  -22.9990   -8.8010   22.5521 C   0  0  0  0  0  0  0  0  0  0  0  0
  -23.4839  -22.5059   30.8779 C   0  0  0  0  0  0  0  0  0  0  0  0
  -23.2474   -5.4653   22.0600 C   0  0  0  0  0  0  0  0  0  0  0  0
  -23.8495   -4.4464   22.7982 C   0  0  0  0  0  0  0  0  0  0  0  0
  -22.1802  -24.0017   29.5059 C   0  0  0  0  0  0  0  0  0  0  0  0
  -28.8603  -26.8215   28.6404 C   0  0  0  0  0  0  0  0  0  0  0  0
  -27.2277  -25.9246   27.1019 C   0  0  0  0  0  0  0  0  0  0  0  0
  -22.1501   -4.6752   24.5002 C   0  0  0  0  0  0  0  0  0  0  0  0
  -23.7573  -10.4875   20.9972 C   0  0  0  0  0  0  0  0  0  0  0  0
  -24.1315  -13.0052   20.8279 C   0  0  0  0  0  0  0  0  0  0  0  0
  -25.6154  -18.6063   23.0100 C   0  0  0  0  0  0  0  0  0  0  0  0
  -22.4180  -21.6814   28.8582 C   0  0  0  0  0  0  0  0  0  0  0  0
  -25.5618  -19.4409   24.1427 C   0  0  0  0  0  0  0  0  0  0  0  0
  -21.8898  -22.9573   28.6148 C   0  0  0  0  0  0  0  0  0  0  0  0
  -27.5304  -26.6372   28.2622 C   0  0  0  0  0  0  0  0  0  0  0  0
  -29.5847  -25.5808   26.6980 C   0  0  0  0  0  0  0  0  0  0  0  0
  -22.2399   -8.2107   21.5416 C   0  0  0  0  0  0  0  0  0  0  0  0
  -22.9743  -23.7772   30.6302 C   0  0  0  0  0  0  0  0  0  0  0  0
  -22.0966   -6.0892   22.5420 C   0  0  0  0  0  0  0  0  0  0  0  0
  -23.3009   -4.0514   24.0183 C   0  0  0  0  0  0  0  0  0  0  0  0
  -29.8875  -26.2934   27.8582 C   0  0  0  0  0  0  0  0  0  0  0  0
  -21.5480   -5.6941   23.7621 C   0  0  0  0  0  0  0  0  0  0  0  0
  -28.2548  -25.3964   26.3198 C   0  0  0  0  0  0  0  0  0  0  0  0
  -24.5417  -11.6631   20.7166 C   0  0  0  0  0  0  0  0  0  0  0  0
  -25.2333  -13.7334   20.4505 C   0  0  0  0  0  0  0  0  0  0  0  0
  -22.8677  -13.5454   21.2361 C   0  0  0  0  0  0  0  0  0  0  0  0
  -22.8986  -21.4556   25.7243 C   0  0  0  0  0  0  0  0  0  0  0  0
  -30.7496  -14.6207   20.7196 C   0  0  0  0  0  0  0  0  0  0  0  0
  -19.7213  -22.0942   25.5848 C   0  0  0  0  0  0  0  0  0  0  0  0
  -16.9716  -23.4562   27.0785 C   0  0  0  0  0  0  0  0  0  0  0  0
  -24.8675  -18.9392   21.7432 C   0  0  0  0  0  0  0  0  0  0  0  0
  -22.1033  -20.5376   27.9335 C   0  0  0  0  0  0  0  0  0  0  0  0
  -21.0237  -23.2415   27.4159 C   0  0  0  0  0  0  0  0  0  0  0  0
  -23.7521  -19.9615   21.9452 C   0  0  0  0  0  0  0  0  0  0  0  0
  -29.5559  -12.2908   18.2728 C   0  0  0  0  0  0  0  0  0  0  0  0
  -24.2493  -21.1358   22.7823 C   0  0  0  0  0  0  0  0  0  0  0  0
  -28.1216  -12.0071   18.7171 C   0  0  0  0  0  0  0  0  0  0  0  0
  -30.4787  -12.5051   19.4685 C   0  0  0  0  0  0  0  0  0  0  0  0
  -28.5847  -13.2915   20.8527 C   0  0  0  0  0  0  0  0  0  0  0  0
  -24.6842  -20.6733   24.1781 C   0  0  1  0  0  0  0  0  0  0  0  0
  -21.7174  -20.9931   26.5296 C   0  0  1  0  0  0  0  0  0  0  0  0
  -27.6132  -13.0993   19.6747 C   0  0  2  0  0  0  0  0  0  0  0  0
  -14.5232  -23.8594   26.7044 C   0  0  0  0  0  0  0  0  0  0  0  0
  -20.3916  -24.3795   23.6774 C   0  0  0  0  0  0  0  0  0  0  0  0
  -18.1021  -25.3041   24.0917 C   0  0  0  0  0  0  0  0  0  0  0  0
  -18.3665  -23.0543   23.0469 C   0  0  0  0  0  0  0  0  0  0  0  0
  -16.2248  -21.8251   29.4324 C   0  0  0  0  0  0  0  0  0  0  0  0
  -26.4326  -27.2021   29.0987 C   0  0  0  0  0  0  0  0  0  0  0  0
  -30.1342  -15.6410   21.6438 C   0  0  0  0  0  0  0  0  0  0  0  0
  -31.1140  -16.7705   21.9478 C   0  0  0  0  0  0  0  0  0  0  0  0
  -30.5934  -17.8415   22.9141 C   0  0  0  0  0  0  0  0  0  0  0  0
  -31.5726  -18.9987   23.1291 C   0  0  0  0  0  0  0  0  0  0  0  0
  -31.0117  -20.0179   24.1248 C   0  0  0  0  0  0  0  0  0  0  0  0
  -31.9556  -21.1948   24.3887 C   0  0  0  0  0  0  0  0  0  0  0  0
  -31.3651  -22.2508   25.3266 C   0  0  0  0  0  0  0  0  0  0  0  0
  -32.3662  -23.3826   25.5841 C   0  0  0  0  0  0  0  0  0  0  0  0
  -24.9533  -26.1693   32.4769 C   0  0  0  0  0  0  0  0  0  0  0  0
  -31.8068  -24.4619   26.5077 C   0  0  0  0  0  0  0  0  0  0  0  0
  -25.1412  -27.0186   31.2287 C   0  0  0  0  0  0  0  0  0  0  0  0
  -24.4879  -24.7477   32.1868 C   0  0  0  0  0  0  0  0  0  1  0  0
  -18.8855  -23.3487   25.5038 C   0  0  1  0  0  0  0  0  0  0  0  0
  -15.5672  -22.9183   27.2850 C   0  0  2  0  0  0  0  0  0  0  0  0
  -18.9543  -24.0171   24.1016 C   0  0  0  0  0  0  0  0  0  0  0  0
  -25.8053  -11.5429   20.3008 N   0  0  0  0  0  0  0  0  0  0  0  0
  -26.1986  -12.8188   20.1475 N   0  0  0  0  0  0  0  0  0  0  0  0
  -20.7496  -22.0919   26.5379 N   0  0  0  0  0  0  0  0  0  0  0  0
  -29.9496  -13.5341   20.3655 N   0  0  0  0  0  0  0  0  0  0  0  0
  -25.4608  -15.0603   20.3515 N   0  0  0  0  0  0  0  0  0  0  0  0
  -21.8441  -12.6560   21.5906 N   0  0  0  0  0  0  0  0  0  0  0  0
  -30.6246  -25.0657   25.9404 N   0  0  0  0  0  0  0  0  0  0  0  0
  -23.5280  -20.4478   25.0188 N   0  0  0  0  0  0  0  0  0  0  0  0
  -17.5395  -22.9701   25.9198 N   0  0  0  0  0  0  0  0  0  0  0  0
  -15.2873  -22.7452   28.7385 N   0  3  0  0  0  0  0  0  0  0  0  0
  -26.1933  -26.4381   30.3542 N   0  3  0  0  0  0  0  0  0  0  0  0
  -22.6472  -14.7798   21.2692 O   0  0  0  0  0  0  0  0  0  0  0  0
  -23.2146  -22.6395   25.7405 O   0  0  0  0  0  0  0  0  0  0  0  0
  -31.9059  -14.7877   20.3230 O   0  0  0  0  0  0  0  0  0  0  0  0
  -19.4665  -21.1483   24.8352 O   0  0  0  0  0  0  0  0  0  0  0  0
  -17.5096  -24.2330   27.8644 O   0  0  0  0  0  0  0  0  0  0  0  0
  -21.4995   -7.1000   21.8076 O   0  0  0  0  0  0  0  0  0  0  0  0
  -23.2482  -24.8062   31.4928 O   0  0  0  0  0  0  0  0  0  1  0  0
  -23.8784   -3.0719   24.7263 F   0  0  0  0  0  0  0  0  0  0  0  0
  -31.1616  -26.4769   28.2331 F   0  0  0  0  0  0  0  0  0  0  0  0
  -20.4420   -6.2890   24.2296 F   0  0  0  0  0  0  0  0  0  0  0  0
  -27.8358  -24.5200   24.8911 Cl  0  0  0  0  0  0  0  0  0  0  0  0
  1  2  1  0  0  0  0
  1  5  2  0  0  0  0
  2  6  2  0  0  0  0
  3  8  2  0  0  0  0
  3 17  1  0  0  0  0
  4  9  1  0  0  0  0
  4 17  2  0  0  0  0
  5 19  1  0  0  0  0
  6 21  1  0  0  0  0
  7 10  2  0  0  0  0
  7 20  1  0  0  0  0
  8 25  1  0  0  0  0
  9 25  2  0  0  0  0
 10 26  1  0  0  0  0
 11 12  2  0  0  0  0
 11 27  1  0  0  0  0
 12 28  1  0  0  0  0
 13 22  1  0  0  0  0
 13 26  2  0  0  0  0
 14 23  1  0  0  0  0
 14 29  2  0  0  0  0
 15 23  2  0  0  0  0
 15 31  1  0  0  0  0
 16 28  2  0  0  0  0
 16 30  1  0  0  0  0
 17 32  1  0  0  0  0
 18 32  1  0  0  0  0
 18 33  2  0  0  0  0
 18 34  1  0  0  0  0
 19 21  2  0  0  0  0
 19 39  1  0  0  0  0
 20 22  2  0  0  0  0
 20 40  1  0  0  0  0
 21 48  1  0  0  0  0
 22 41  1  0  0  0  0
 23 56  1  0  0  0  0
 24 29  1  0  0  0  0
 24 31  2  0  0  0  0
 24 78  1  0  0  0  0
 25 88  1  0  0  0  0
 26 89  1  0  0  0  0
 27 30  2  0  0  0  0
 27 88  1  0  0  0  0
 28 90  1  0  0  0  0
 29 91  1  0  0  0  0
 30 92  1  0  0  0  0
 31 93  1  0  0  0  0
 32 72  2  0  0  0  0
 33 73  1  0  0  0  0
 33 76  1  0  0  0  0
 34 77  1  0  0  0  0
 34 83  2  0  0  0  0
 35 49  1  0  0  0  0
 35 79  1  0  0  0  0
 35 84  2  0  0  0  0
 36 57  1  0  0  0  0
 36 75  1  0  0  0  0
 36 85  2  0  0  0  0
 37 69  1  0  0  0  0
 37 74  1  0  0  0  0
 37 86  2  0  0  0  0
 38 70  1  0  0  0  0
 38 80  1  0  0  0  0
 38 87  2  0  0  0  0
 39 42  1  0  0  0  0
 40 49  1  0  0  0  0
 41 74  1  0  0  0  0
 42 44  1  0  0  0  0
 43 45  1  0  0  0  0
 43 46  1  0  0  0  0
 44 48  1  0  0  0  0
 45 50  1  0  0  0  0
 46 75  1  0  0  0  0
 47 50  1  0  0  0  0
 47 75  1  0  0  0  0
 48 79  1  0  0  0  0
 49 74  1  0  0  0  0
 50 73  1  0  0  0  0
 51 70  1  0  0  0  0
 52 71  1  0  0  0  0
 53 71  1  0  0  0  0
 54 71  1  0  0  0  0
 55 81  1  0  0  0  0
 56 82  1  0  0  0  0
 57 58  1  0  0  0  0
 58 59  1  0  0  0  0
 59 60  1  0  0  0  0
 60 61  1  0  0  0  0
 61 62  1  0  0  0  0
 62 63  1  0  0  0  0
 63 64  1  0  0  0  0
 64 66  1  0  0  0  0
 65 67  1  0  0  0  0
 65 68  1  0  0  0  0
 66 78  1  0  0  0  0
 67 82  1  0  0  0  0
 68 89  1  0  0  0  0
 69 71  1  0  0  0  0
 69 80  1  0  0  0  0
 70 81  1  0  0  0  0
 72 73  1  0  0  0  0
M  CHG  2  81   1  82   1
M  ISO  4  36 100  57 100  68 101  89 101
M  END
> <Batch ID>
0022

> <Smiles>
CNC(C)C(=O)NC(C(=O)N1Cc2cc([101O:1][101CH2:1]CCNCc3cc(F)c(NCCCCCCCC[100CH2:0][100C:0](=O)N4CCCC(n5nc(-c6ccc(Oc7ccc(F)cc7F)cc6)c(C(N)=O)c5N)C4)c(Cl)c3)ccc2CC1C(=O)NC1CCCc2ccccc21)C(C)(C)C

> <Shape>
0.165

> <Color>
0.196

> <Negative vol penalty>
0.000

$$$$

  -OEChem-04052316153D

 86 94  0     1  0  0  0  0  0999 V2000
  -30.0764  -34.5832   18.8583 C   0  0  0  0  0  0  0  0  0  0  0  0
  -30.5511  -33.4579   19.5245 C   0  0  0  0  0  0  0  0  0  0  0  0
  -23.0727   -9.8729   19.9374 C   0  0  0  0  0  0  0  0  0  0  0  0
  -23.8369   -9.8701   22.2293 C   0  0  0  0  0  0  0  0  0  0  0  0
  -28.7199  -34.6917   18.5549 C   0  0  0  0  0  0  0  0  0  0  0  0
  -29.6694  -32.4409   19.8886 C   0  0  0  0  0  0  0  0  0  0  0  0
  -30.8406  -26.4316   20.0394 C   0  0  0  0  0  0  0  0  0  0  0  0
  -22.3280   -8.7196   20.1842 C   0  0  0  0  0  0  0  0  0  0  0  0
  -23.0922   -8.7168   22.4762 C   0  0  0  0  0  0  0  0  0  0  0  0
  -31.1800  -25.5679   21.0798 C   0  0  0  0  0  0  0  0  0  0  0  0
  -19.8643   -7.9201   23.0817 C   0  0  0  0  0  0  0  0  0  0  0  0
  -19.1096   -7.8764   24.2539 C   0  0  0  0  0  0  0  0  0  0  0  0
  -28.8624  -24.9373   21.3043 C   0  0  0  0  0  0  0  0  0  0  0  0
  -31.1624  -17.6711   20.6008 C   0  0  0  0  0  0  0  0  0  0  0  0
  -20.3503   -5.9348   24.9804 C   0  0  0  0  0  0  0  0  0  0  0  0
  -23.8272  -10.4481   20.9599 C   0  0  0  0  0  0  0  0  0  0  0  0
  -24.1715  -12.9734   20.8491 C   0  0  0  0  0  0  0  0  0  0  0  0
  -27.8226  -33.6711   18.9070 C   0  0  0  0  0  0  0  0  0  0  0  0
  -29.5058  -26.5630   19.6301 C   0  0  0  0  0  0  0  0  0  0  0  0
  -28.2994  -32.5365   19.5909 C   0  0  0  0  0  0  0  0  0  0  0  0
  -28.5090  -25.8014   20.2567 C   0  0  0  0  0  0  0  0  0  0  0  0
  -31.3479  -19.0536   20.5971 C   0  0  0  0  0  0  0  0  0  0  0  0
  -30.6297  -19.8560   21.4837 C   0  0  0  0  0  0  0  0  0  0  0  0
  -29.7260  -19.2760   22.3740 C   0  0  0  0  0  0  0  0  0  0  0  0
  -29.5406  -17.8935   22.3777 C   0  0  0  0  0  0  0  0  0  0  0  0
  -30.2587  -17.0911   21.4911 C   0  0  0  0  0  0  0  0  0  0  0  0
  -22.3378   -8.1415   21.4536 C   0  0  0  0  0  0  0  0  0  0  0  0
  -30.1905  -24.8228   21.7144 C   0  0  0  0  0  0  0  0  0  0  0  0
  -20.8620   -6.9711   22.8588 C   0  0  0  0  0  0  0  0  0  0  0  0
  -19.3525   -6.8838   25.2033 C   0  0  0  0  0  0  0  0  0  0  0  0
  -21.1050   -5.9784   23.8082 C   0  0  0  0  0  0  0  0  0  0  0  0
  -24.5970  -11.6392   20.7054 C   0  0  0  0  0  0  0  0  0  0  0  0
  -25.2638  -13.7231   20.4867 C   0  0  0  0  0  0  0  0  0  0  0  0
  -22.9024  -13.4889   21.2724 C   0  0  0  0  0  0  0  0  0  0  0  0
  -27.4090  -28.9506   19.5492 C   0  0  0  0  0  0  0  0  0  0  0  0
  -25.5715  -26.7678   18.0060 C   0  0  0  0  0  0  0  0  0  0  0  0
  -24.8650  -23.4841   17.4021 C   0  0  0  0  0  0  0  0  0  0  0  0
  -30.7314  -14.7621   20.6551 C   0  0  0  0  0  0  0  0  0  0  0  0
  -26.3575  -33.8548   18.5998 C   0  0  0  0  0  0  0  0  0  0  0  0
  -29.1597  -27.4790   18.4884 C   0  0  0  0  0  0  0  0  0  0  0  0
  -27.0640  -25.8909   19.8415 C   0  0  0  0  0  0  0  0  0  0  0  0
  -25.5500  -32.5623   18.6880 C   0  0  0  0  0  0  0  0  0  0  0  0
  -29.6099  -12.3588   18.2795 C   0  0  0  0  0  0  0  0  0  0  0  0
  -25.8980  -31.8014   19.9635 C   0  0  0  0  0  0  0  0  0  0  0  0
  -28.1708  -12.0671   18.7107 C   0  0  0  0  0  0  0  0  0  0  0  0
  -30.5275  -12.5819   19.4803 C   0  0  0  0  0  0  0  0  0  0  0  0
  -28.6240  -13.3030   20.8680 C   0  0  0  0  0  0  0  0  0  0  0  0
  -27.3781  -31.4009   19.9805 C   0  0  1  0  0  0  0  0  0  0  0  0
  -27.6988  -27.9183   18.4965 C   0  0  1  0  0  0  0  0  0  0  0  0
  -27.6488  -13.1354   19.6914 C   0  0  2  0  0  0  0  0  0  0  0  0
  -28.5690  -17.2735   23.3329 C   0  0  0  0  0  0  0  0  0  0  0  0
  -31.6231  -20.3033   18.4409 C   0  0  0  0  0  0  0  0  0  0  0  0
  -27.5132  -20.3426   22.8762 C   0  0  0  0  0  0  0  0  0  0  0  0
  -23.2831  -22.0118   16.1265 C   0  0  0  0  0  0  0  0  0  0  0  0
  -32.5940  -23.8356   23.9281 C   0  0  0  0  0  0  0  0  0  0  0  0
  -23.3871  -27.3414   20.0577 C   0  0  0  0  0  0  0  0  0  0  0  0
  -22.2528  -25.2289   19.3374 C   0  0  0  0  0  0  0  0  0  0  0  0
  -22.5707  -27.0901   17.7072 C   0  0  0  0  0  0  0  0  0  0  0  0
  -27.0672  -22.2791   15.8344 C   0  0  0  0  0  0  0  0  0  0  0  0
  -32.3188  -19.6501   19.6312 C   0  0  0  0  0  0  0  0  0  0  0  0
  -28.9559  -20.1374   23.3247 C   0  0  0  0  0  0  0  0  0  0  0  0
  -30.8318  -21.3502   21.4761 C   0  0  0  0  0  0  0  0  0  0  0  0
  -31.6830  -21.8659   22.6455 C   0  0  0  0  0  0  0  0  0  0  0  0
  -24.5695  -25.7218   18.4314 C   0  0  1  0  0  0  0  0  0  0  0  0
  -24.6252  -22.7267   16.1085 C   0  0  2  0  0  0  0  0  0  0  0  0
  -31.8193  -23.3928   22.6933 C   0  0  1  0  0  0  0  0  0  1  0  0
  -23.2219  -26.3451   18.8928 C   0  0  0  0  0  0  0  0  0  0  0  0
  -25.8610  -11.5436   20.2843 N   0  0  0  0  0  0  0  0  0  0  0  0
  -26.2391  -12.8273   20.1603 N   0  0  0  0  0  0  0  0  0  0  0  0
  -26.7751  -26.8052   18.7243 N   0  0  0  0  0  0  0  0  0  0  0  0
  -29.9713  -13.6099   20.3628 N   0  0  0  0  0  0  0  0  0  0  0  0
  -25.4755  -15.0546   20.4184 N   0  0  0  0  0  0  0  0  0  0  0  0
  -21.8901  -12.5795   21.6081 N   0  0  0  0  0  0  0  0  0  0  0  0
  -30.0866  -15.6847   21.4783 N   0  0  0  0  0  0  0  0  0  0  0  0
  -27.6008  -30.2527   19.1282 N   0  0  0  0  0  0  0  0  0  0  0  0
  -24.4468  -24.7948   17.3116 N   0  0  0  0  0  0  0  0  0  0  0  0
  -25.6956  -21.7117   15.8964 N   0  3  0  0  0  0  0  0  0  0  0  0
  -22.6676  -14.7196   21.3350 O   0  0  0  0  0  0  0  0  0  0  0  0
  -27.0374  -28.5924   20.6606 O   0  0  0  0  0  0  0  0  0  0  0  0
  -25.2994  -27.5191   17.0663 O   0  0  0  0  0  0  0  0  0  0  0  0
  -25.3692  -22.9638   18.3949 O   0  0  0  0  0  0  0  0  0  0  0  0
  -31.8598  -14.9315   20.1860 O   0  0  0  0  0  0  0  0  0  0  0  0
  -21.6111   -7.0163   21.6950 O   0  0  0  0  0  0  0  0  0  0  0  0
  -30.5190  -23.9795   22.7308 O   0  0  0  0  0  0  0  0  0  1  0  0
  -18.6287   -6.8429   26.3295 F   0  0  0  0  0  0  0  0  0  0  0  0
  -22.0630   -5.0647   23.6002 F   0  0  0  0  0  0  0  0  0  0  0  0
  1  2  1  0  0  0  0
  1  5  2  0  0  0  0
  2  6  2  0  0  0  0
  3  8  2  0  0  0  0
  3 16  1  0  0  0  0
  4  9  1  0  0  0  0
  4 16  2  0  0  0  0
  5 18  1  0  0  0  0
  6 20  1  0  0  0  0
  7 10  2  0  0  0  0
  7 19  1  0  0  0  0
  8 27  1  0  0  0  0
  9 27  2  0  0  0  0
 10 28  1  0  0  0  0
 11 12  2  0  0  0  0
 11 29  1  0  0  0  0
 12 30  1  0  0  0  0
 13 21  1  0  0  0  0
 13 28  2  0  0  0  0
 14 22  1  0  0  0  0
 14 26  2  0  0  0  0
 15 30  2  0  0  0  0
 15 31  1  0  0  0  0
 16 32  1  0  0  0  0
 17 32  1  0  0  0  0
 17 33  2  0  0  0  0
 17 34  1  0  0  0  0
 18 20  2  0  0  0  0
 18 39  1  0  0  0  0
 19 21  2  0  0  0  0
 19 40  1  0  0  0  0
 20 48  1  0  0  0  0
 21 41  1  0  0  0  0
 22 23  2  0  0  0  0
 22 60  1  0  0  0  0
 23 24  1  0  0  0  0
 23 62  1  0  0  0  0
 24 25  2  0  0  0  0
 24 61  1  0  0  0  0
 25 26  1  0  0  0  0
 25 51  1  0  0  0  0
 26 74  1  0  0  0  0
 27 83  1  0  0  0  0
 28 84  1  0  0  0  0
 29 31  2  0  0  0  0
 29 83  1  0  0  0  0
 30 85  1  0  0  0  0
 31 86  1  0  0  0  0
 32 68  2  0  0  0  0
 33 69  1  0  0  0  0
 33 72  1  0  0  0  0
 34 73  1  0  0  0  0
 34 78  2  0  0  0  0
 35 49  1  0  0  0  0
 35 75  1  0  0  0  0
 35 79  2  0  0  0  0
 36 64  1  0  0  0  0
 36 70  1  0  0  0  0
 36 80  2  0  0  0  0
 37 65  1  0  0  0  0
 37 76  1  0  0  0  0
 37 81  2  0  0  0  0
 38 71  1  0  0  0  0
 38 74  1  0  0  0  0
 38 82  2  0  0  0  0
 39 42  1  0  0  0  0
 40 49  1  0  0  0  0
 41 70  1  0  0  0  0
 42 44  1  0  0  0  0
 43 45  1  0  0  0  0
 43 46  1  0  0  0  0
 44 48  1  0  0  0  0
 45 50  1  0  0  0  0
 46 71  1  0  0  0  0
 47 50  1  0  0  0  0
 47 71  1  0  0  0  0
 48 75  1  0  0  0  0
 49 70  1  0  0  0  0
 50 69  1  0  0  0  0
 52 60  1  0  0  0  0
 53 61  1  0  0  0  0
 54 65  1  0  0  0  0
 55 66  1  0  0  0  0
 56 67  1  0  0  0  0
 57 67  1  0  0  0  0
 58 67  1  0  0  0  0
 59 77  1  0  0  0  0
 62 63  1  0  0  0  0
 63 66  1  0  0  0  0
 64 67  1  0  0  0  0
 64 76  1  0  0  0  0
 65 77  1  0  0  0  0
 66 84  1  0  0  0  0
 68 69  1  0  0  0  0
M  CHG  1  77   1
M  ISO  4  38 100  66 101  74 100  84 101
M  END
> <Batch ID>
0022

> <Smiles>
CCc1cc([100NH:0][100C:0](=O)N2CCCC(n3nc(-c4ccc(Oc5ccc(F)cc5F)cc4)c(C(N)=O)c3N)C2)c(C)c(CC)c1CC[101CH:1](C)[101O:1]c1ccc2c(c1)CN(C(=O)C(NC(=O)C(C)NC)C(C)(C)C)C(C(=O)NC1CCCc3ccccc31)C2

> <Shape>
0.249

> <Color>
0.192

> <Negative vol penalty>
0.000

$$$$

  -OEChem-04052316153D

 82 90  0     1  0  0  0  0  0999 V2000
  -28.9592  -25.6661   16.0906 C   0  0  0  0  0  0  0  0  0  0  0  0
  -27.7651  -25.6311   16.8036 C   0  0  0  0  0  0  0  0  0  0  0  0
  -28.0250  -14.7944   21.2722 C   0  0  0  0  0  0  0  0  0  0  0  0
  -26.2201  -15.4201   19.7930 C   0  0  0  0  0  0  0  0  0  0  0  0
  -30.0815  -26.2824   16.6425 C   0  0  0  0  0  0  0  0  0  0  0  0
  -27.6929  -26.2114   18.0695 C   0  0  0  0  0  0  0  0  0  0  0  0
  -23.5025  -28.9843   18.6992 C   0  0  0  0  0  0  0  0  0  0  0  0
  -27.5001  -13.5056   21.3675 C   0  0  0  0  0  0  0  0  0  0  0  0
  -25.6952  -14.1312   19.8883 C   0  0  0  0  0  0  0  0  0  0  0  0
  -22.3167  -28.2970   18.9546 C   0  0  0  0  0  0  0  0  0  0  0  0
  -24.0794  -10.9033   19.4548 C   0  0  0  0  0  0  0  0  0  0  0  0
  -23.6603  -10.2843   18.2772 C   0  0  0  0  0  0  0  0  0  0  0  0
  -22.5475  -28.7847   21.3058 C   0  0  0  0  0  0  0  0  0  0  0  0
  -25.8988  -10.4637   17.3862 C   0  0  0  0  0  0  0  0  0  0  0  0
  -27.3849  -15.7517   20.4850 C   0  0  0  0  0  0  0  0  0  0  0  0
  -28.8609  -17.5536   19.4448 C   0  0  0  0  0  0  0  0  0  0  0  0
  -30.0203  -26.8791   17.9117 C   0  0  0  0  0  0  0  0  0  0  0  0
  -24.2267  -29.5685   19.7484 C   0  0  0  0  0  0  0  0  0  0  0  0
  -28.8158  -26.8351   18.6394 C   0  0  0  0  0  0  0  0  0  0  0  0
  -23.7409  -29.4810   21.0608 C   0  0  0  0  0  0  0  0  0  0  0  0
  -26.3353  -13.1740   20.6756 C   0  0  0  0  0  0  0  0  0  0  0  0
  -21.8405  -28.1947   20.2584 C   0  0  0  0  0  0  0  0  0  0  0  0
  -25.4083  -11.3026   19.5981 C   0  0  0  0  0  0  0  0  0  0  0  0
  -24.5700  -10.0644   17.2429 C   0  0  0  0  0  0  0  0  0  0  0  0
  -26.3179  -11.0828   18.5638 C   0  0  0  0  0  0  0  0  0  0  0  0
  -22.7053  -23.9475   22.0267 C   0  0  0  0  0  0  0  0  0  0  0  0
  -27.9263  -17.0834   20.3866 C   0  0  0  0  0  0  0  0  0  0  0  0
  -21.5222  -24.0781   21.2749 C   0  0  0  0  0  0  0  0  0  0  0  0
  -29.0467  -18.8738   19.7751 C   0  0  0  0  0  0  0  0  0  0  0  0
  -23.5133  -23.1451   21.2588 C   0  0  0  0  0  0  0  0  0  0  0  0
  -29.5036  -16.8592   18.3676 C   0  0  0  0  0  0  0  0  0  0  0  0
  -27.1346  -29.1620   20.9658 C   0  0  0  0  0  0  0  0  0  0  0  0
  -26.3187  -31.7376   22.7611 C   0  0  0  0  0  0  0  0  0  0  0  0
  -23.8445  -33.6508   24.1266 C   0  0  0  0  0  0  0  0  0  0  0  0
  -25.6391  -22.8966   22.5876 C   0  0  0  0  0  0  0  0  0  0  0  0
  -31.2726  -27.4921   18.4868 C   0  0  0  0  0  0  0  0  0  0  0  0
  -25.4901  -30.3294   19.4530 C   0  0  0  0  0  0  0  0  0  0  0  0
  -24.4702  -30.1080   22.2198 C   0  0  0  0  0  0  0  0  0  0  0  0
  -31.0097  -28.4121   19.6762 C   0  0  0  0  0  0  0  0  0  0  0  0
  -28.9112  -21.8509   23.5238 C   0  0  0  0  0  0  0  0  0  0  0  0
  -30.0498  -27.7511   20.6603 C   0  0  0  0  0  0  0  0  0  0  0  0
  -29.1174  -20.5557   22.7351 C   0  0  0  0  0  0  0  0  0  0  0  0
  -27.4695  -21.9971   24.0072 C   0  0  0  0  0  0  0  0  0  0  0  0
  -26.6536  -20.5699   22.1725 C   0  0  0  0  0  0  0  0  0  0  0  0
  -28.6911  -27.4753   20.0050 C   0  0  1  0  0  0  0  0  0  0  0  0
  -26.4143  -30.4450   20.6612 C   0  0  1  0  0  0  0  0  0  0  0  0
  -28.0751  -20.4095   21.6092 C   0  0  2  0  0  0  0  0  0  0  0  0
  -24.1677  -22.7748   18.0972 C   0  0  0  0  0  0  0  0  0  0  0  0
  -23.4872  -35.6682   25.5757 C   0  0  0  0  0  0  0  0  0  0  0  0
  -27.0457  -30.0928   25.2260 C   0  0  0  0  0  0  0  0  0  0  0  0
  -25.7987  -31.7580   26.6190 C   0  0  0  0  0  0  0  0  0  0  0  0
  -27.7935  -32.4779   25.3057 C   0  0  0  0  0  0  0  0  0  0  0  0
  -22.4144  -35.0893   21.9715 C   0  0  0  0  0  0  0  0  0  0  0  0
  -20.2765  -24.8511   21.6270 C   0  0  0  0  0  0  0  0  0  0  0  0
  -19.5390  -25.4176   20.4118 C   0  0  0  0  0  0  0  0  0  0  0  0
  -23.2113  -22.0395   19.0202 C   0  0  0  0  0  0  0  0  0  0  0  0
  -20.3542  -26.4455   19.6359 C   0  0  0  0  0  0  0  0  0  1  0  0
  -25.6405  -31.9397   24.0946 C   0  0  1  0  0  0  0  0  0  0  0  0
  -23.6311  -35.1536   24.1519 C   0  0  2  0  0  0  0  0  0  0  0  0
  -26.5566  -31.5535   25.2899 C   0  0  0  0  0  0  0  0  0  0  0  0
  -27.5450  -18.0279   21.2506 N   0  0  0  0  0  0  0  0  0  0  0  0
  -21.5703  -23.4121   20.1181 N   0  0  0  0  0  0  0  0  0  0  0  0
  -28.2436  -19.1049   20.8530 N   0  0  0  0  0  0  0  0  0  0  0  0
  -22.7933  -22.8553   20.1372 N   0  0  0  0  0  0  0  0  0  0  0  0
  -25.7042  -30.8359   21.8807 N   0  0  0  0  0  0  0  0  0  0  0  0
  -26.5386  -21.8514   22.8860 N   0  0  0  0  0  0  0  0  0  0  0  0
  -29.8171  -19.8478   19.2459 N   0  0  0  0  0  0  0  0  0  0  0  0
  -29.1985  -15.5058   18.1686 N   0  0  0  0  0  0  0  0  0  0  0  0
  -24.8256  -22.6586   21.4802 N   0  0  0  0  0  0  0  0  0  0  0  0
  -27.9124  -28.6925   19.9246 N   0  0  0  0  0  0  0  0  0  0  0  0
  -25.1844  -33.3254   24.1146 N   0  0  0  0  0  0  0  0  0  0  0  0
  -22.3993  -35.5147   23.3949 N   0  3  0  0  0  0  0  0  0  0  0  0
  -30.3366  -17.4179   17.6142 O   0  0  0  0  0  0  0  0  0  0  0  0
  -26.9962  -28.6376   22.0647 O   0  0  0  0  0  0  0  0  0  0  0  0
  -27.3516  -32.3623   22.5071 O   0  0  0  0  0  0  0  0  0  0  0  0
  -22.9156  -32.8461   24.1221 O   0  0  0  0  0  0  0  0  0  0  0  0
  -25.6125  -23.9384   23.2480 O   0  0  0  0  0  0  0  0  0  0  0  0
  -25.8230  -11.9164   20.7681 O   0  0  0  0  0  0  0  0  0  0  0  0
  -20.6836  -27.5239   20.5105 O   0  0  0  0  0  0  0  0  0  1  0  0
  -24.1677   -9.4686   16.1128 F   0  0  0  0  0  0  0  0  0  0  0  0
  -27.5961  -11.4631   18.6960 F   0  0  0  0  0  0  0  0  0  0  0  0
  -23.0277  -24.6396   23.5384 Cl  0  0  0  0  0  0  0  0  0  0  0  0
  1  2  1  0  0  0  0
  1  5  2  0  0  0  0
  2  6  2  0  0  0  0
  3  8  2  0  0  0  0
  3 15  1  0  0  0  0
  4  9  1  0  0  0  0
  4 15  2  0  0  0  0
  5 17  1  0  0  0  0
  6 19  1  0  0  0  0
  7 10  2  0  0  0  0
  7 18  1  0  0  0  0
  8 21  1  0  0  0  0
  9 21  2  0  0  0  0
 10 22  1  0  0  0  0
 11 12  2  0  0  0  0
 11 23  1  0  0  0  0
 12 24  1  0  0  0  0
 13 20  1  0  0  0  0
 13 22  2  0  0  0  0
 14 24  2  0  0  0  0
 14 25  1  0  0  0  0
 15 27  1  0  0  0  0
 16 27  1  0  0  0  0
 16 29  2  0  0  0  0
 16 31  1  0  0  0  0
 17 19  2  0  0  0  0
 17 36  1  0  0  0  0
 18 20  2  0  0  0  0
 18 37  1  0  0  0  0
 19 45  1  0  0  0  0
 20 38  1  0  0  0  0
 21 78  1  0  0  0  0
 22 79  1  0  0  0  0
 23 25  2  0  0  0  0
 23 78  1  0  0  0  0
 24 80  1  0  0  0  0
 25 81  1  0  0  0  0
 26 28  1  0  0  0  0
 26 30  2  0  0  0  0
 26 82  1  0  0  0  0
 27 61  2  0  0  0  0
 28 54  1  0  0  0  0
 28 62  2  0  0  0  0
 29 63  1  0  0  0  0
 29 67  1  0  0  0  0
 30 64  1  0  0  0  0
 30 69  1  0  0  0  0
 31 68  1  0  0  0  0
 31 73  2  0  0  0  0
 32 46  1  0  0  0  0
 32 70  1  0  0  0  0
 32 74  2  0  0  0  0
 33 58  1  0  0  0  0
 33 65  1  0  0  0  0
 33 75  2  0  0  0  0
 34 59  1  0  0  0  0
 34 71  1  0  0  0  0
 34 76  2  0  0  0  0
 35 66  1  0  0  0  0
 35 69  1  0  0  0  0
 35 77  2  0  0  0  0
 36 39  1  0  0  0  0
 37 46  1  0  0  0  0
 38 65  1  0  0  0  0
 39 41  1  0  0  0  0
 40 42  1  0  0  0  0
 40 43  1  0  0  0  0
 41 45  1  0  0  0  0
 42 47  1  0  0  0  0
 43 66  1  0  0  0  0
 44 47  1  0  0  0  0
 44 66  1  0  0  0  0
 45 70  1  0  0  0  0
 46 65  1  0  0  0  0
 47 63  1  0  0  0  0
 48 56  1  0  0  0  0
 49 59  1  0  0  0  0
 50 60  1  0  0  0  0
 51 60  1  0  0  0  0
 52 60  1  0  0  0  0
 53 72  1  0  0  0  0
 54 55  1  0  0  0  0
 55 57  1  0  0  0  0
 56 64  1  0  0  0  0
 57 79  1  0  0  0  0
 58 60  1  0  0  0  0
 58 71  1  0  0  0  0
 59 72  1  0  0  0  0
 61 63  1  0  0  0  0
 62 64  1  0  0  0  0
M  CHG  1  72   1
M  ISO  4  35 100  57 101  69 100  79 101
M  END
> <Batch ID>
0022

> <Smiles>
CCn1nc(CC[101CH2:1][101O:1]c2ccc3c(c2)CN(C(=O)C(NC(=O)C(C)NC)C(C)(C)C)C(C(=O)NC2CCCc4ccccc42)C3)c(Cl)c1[100NH:0][100C:0](=O)N1CCCC(n2nc(-c3ccc(Oc4ccc(F)cc4F)cc3)c(C(N)=O)c2N)C1

> <Shape>
0.251

> <Color>
0.080

> <Negative vol penalty>
0.000

$$$$

  -OEChem-04052316153D

 86 94  0     1  0  0  0  0  0999 V2000
  -27.8344  -23.9485   17.1088 C   0  0  0  0  0  0  0  0  0  0  0  0
  -26.7109  -24.6816   17.4738 C   0  0  0  0  0  0  0  0  0  0  0  0
  -24.7370  -12.4320   19.5996 C   0  0  0  0  0  0  0  0  0  0  0  0
  -25.4241  -13.8861   21.4025 C   0  0  0  0  0  0  0  0  0  0  0  0
  -29.0019  -24.0478   17.8625 C   0  0  0  0  0  0  0  0  0  0  0  0
  -26.7582  -25.5234   18.5856 C   0  0  0  0  0  0  0  0  0  0  0  0
  -22.8499  -28.4053   19.3749 C   0  0  0  0  0  0  0  0  0  0  0  0
  -25.3308  -11.3486   20.2471 C   0  0  0  0  0  0  0  0  0  0  0  0
  -26.0178  -12.8027   22.0500 C   0  0  0  0  0  0  0  0  0  0  0  0
  -21.6275  -27.9103   19.8272 C   0  0  0  0  0  0  0  0  0  0  0  0
  -28.8767  -11.0146   21.8035 C   0  0  0  0  0  0  0  0  0  0  0  0
  -30.1519  -11.1985   22.3379 C   0  0  0  0  0  0  0  0  0  0  0  0
  -22.1095  -28.7545   22.0350 C   0  0  0  0  0  0  0  0  0  0  0  0
  -20.8611  -22.8755   18.2000 C   0  0  0  0  0  0  0  0  0  0  0  0
  -29.3053  -10.6728   24.5388 C   0  0  0  0  0  0  0  0  0  0  0  0
  -24.7837  -13.7008   20.1772 C   0  0  0  0  0  0  0  0  0  0  0  0
  -22.8454  -15.2729   19.6491 C   0  0  0  0  0  0  0  0  0  0  0  0
  -29.0589  -24.8819   18.9913 C   0  0  0  0  0  0  0  0  0  0  0  0
  -23.7175  -29.0701   20.2534 C   0  0  0  0  0  0  0  0  0  0  0  0
  -27.9348  -25.6555   19.3452 C   0  0  0  0  0  0  0  0  0  0  0  0
  -23.3411  -29.2592   21.5908 C   0  0  0  0  0  0  0  0  0  0  0  0
  -22.1902  -22.9159   18.6213 C   0  0  0  0  0  0  0  0  0  0  0  0
  -22.4884  -23.0884   19.9730 C   0  0  0  0  0  0  0  0  0  0  0  0
  -20.1284  -23.1803   20.4819 C   0  0  0  0  0  0  0  0  0  0  0  0
  -25.9712  -11.5339   21.4723 C   0  0  0  0  0  0  0  0  0  0  0  0
  -21.2584  -28.0824   21.1581 C   0  0  0  0  0  0  0  0  0  0  0  0
  -27.8157  -10.6599   22.6367 C   0  0  0  0  0  0  0  0  0  0  0  0
  -30.3662  -11.0276   23.7055 C   0  0  0  0  0  0  0  0  0  0  0  0
  -28.0301  -10.4890   24.0044 C   0  0  0  0  0  0  0  0  0  0  0  0
  -19.8302  -23.0078   19.1303 C   0  0  0  0  0  0  0  0  0  0  0  0
  -21.4574  -23.2206   20.9033 C   0  0  0  0  0  0  0  0  0  0  0  0
  -24.1710  -14.8204   19.5086 C   0  0  0  0  0  0  0  0  0  0  0  0
  -22.7614  -16.3560   18.8086 C   0  0  0  0  0  0  0  0  0  0  0  0
  -21.7848  -14.7601   20.4663 C   0  0  0  0  0  0  0  0  0  0  0  0
  -26.6644  -28.5435   21.3223 C   0  0  0  0  0  0  0  0  0  0  0  0
  -26.2710  -31.4590   22.6888 C   0  0  0  0  0  0  0  0  0  0  0  0
  -24.1300  -33.8433   23.8627 C   0  0  0  0  0  0  0  0  0  0  0  0
  -24.8793  -21.0871   16.7405 C   0  0  0  0  0  0  0  0  0  0  0  0
  -30.3505  -24.9575   19.7666 C   0  0  0  0  0  0  0  0  0  0  0  0
  -25.0208  -29.6216   19.7436 C   0  0  0  0  0  0  0  0  0  0  0  0
  -24.2278  -29.9837   22.5693 C   0  0  0  0  0  0  0  0  0  0  0  0
  -30.1688  -25.5254   21.1705 C   0  0  0  0  0  0  0  0  0  0  0  0
  -25.9616  -18.0316   15.2677 C   0  0  0  0  0  0  0  0  0  0  0  0
  -29.3648  -26.8155   21.1093 C   0  0  0  0  0  0  0  0  0  0  0  0
  -25.4885  -16.9623   16.2541 C   0  0  0  0  0  0  0  0  0  0  0  0
  -26.4190  -19.2992   15.9860 C   0  0  0  0  0  0  0  0  0  0  0  0
  -24.9600  -18.8012   17.9088 C   0  0  0  0  0  0  0  0  0  0  0  0
  -27.9534  -26.5542   20.5685 C   0  0  1  0  0  0  0  0  0  0  0  0
  -26.0533  -29.8312   20.8469 C   0  0  1  0  0  0  0  0  0  0  0  0
  -24.4362  -17.5247   17.2286 C   0  0  2  0  0  0  0  0  0  0  0  0
  -23.9226  -23.1286   20.4019 C   0  0  0  0  0  0  0  0  0  0  0  0
  -24.1048  -36.1019   24.9560 C   0  0  0  0  0  0  0  0  0  0  0  0
  -16.8790  -23.9254   22.1278 C   0  0  0  0  0  0  0  0  0  0  0  0
  -27.0397  -30.1772   25.3489 C   0  0  0  0  0  0  0  0  0  0  0  0
  -26.0924  -32.1831   26.5096 C   0  0  0  0  0  0  0  0  0  0  0  0
  -28.0281  -32.4409   24.9574 C   0  0  0  0  0  0  0  0  0  0  0  0
  -22.6704  -35.0551   21.5911 C   0  0  0  0  0  0  0  0  0  0  0  0
  -23.2739  -22.7716   17.6032 C   0  0  0  0  0  0  0  0  0  0  0  0
  -18.7008  -25.6560   21.9500 C   0  0  0  0  0  0  0  0  0  0  0  0
  -19.5552  -26.4351   20.9550 C   0  0  0  0  0  0  0  0  0  1  0  0
  -25.7349  -31.9572   24.0092 C   0  0  1  0  0  0  0  0  0  0  0  0
  -24.0721  -35.3436   23.6382 C   0  0  2  0  0  0  0  0  0  0  0  0
  -18.1169  -24.3705   21.3555 C   0  0  1  0  0  0  0  0  0  0  0  0
  -26.7077  -31.6742   25.1885 C   0  0  0  0  0  0  0  0  0  0  0  0
  -24.8783  -15.5558   18.6466 N   0  0  0  0  0  0  0  0  0  0  0  0
  -23.9937  -16.4813   18.2378 N   0  0  0  0  0  0  0  0  0  0  0  0
  -25.4947  -30.4990   22.0243 N   0  0  0  0  0  0  0  0  0  0  0  0
  -25.3752  -19.7818   16.8935 N   0  0  0  0  0  0  0  0  0  0  0  0
  -21.7544  -17.2038   18.5096 N   0  0  0  0  0  0  0  0  0  0  0  0
  -22.0419  -13.6410   21.2699 N   0  0  0  0  0  0  0  0  0  0  0  0
  -19.1029  -23.3110   21.4012 N   0  0  0  0  0  0  0  0  0  0  0  0
  -27.2976  -27.8209   20.3291 N   0  0  0  0  0  0  0  0  0  0  0  0
  -25.4241  -33.3696   23.8167 N   0  0  0  0  0  0  0  0  0  0  0  0
  -23.8872  -21.4626   17.6379 N   0  0  0  0  0  0  0  0  0  0  0  0
  -22.8219  -35.7113   22.9153 N   0  3  0  0  0  0  0  0  0  0  0  0
  -20.6382  -15.2689   20.4710 O   0  0  0  0  0  0  0  0  0  0  0  0
  -26.5698  -28.2294   22.5030 O   0  0  0  0  0  0  0  0  0  0  0  0
  -27.3356  -31.9103   22.2593 O   0  0  0  0  0  0  0  0  0  0  0  0
  -23.1278  -33.1606   24.0627 O   0  0  0  0  0  0  0  0  0  0  0  0
  -25.2866  -21.8586   15.8655 O   0  0  0  0  0  0  0  0  0  0  0  0
  -26.5505  -10.4769   22.1045 O   0  0  0  0  0  0  0  0  0  0  0  0
  -20.0661  -27.5997   21.6023 O   0  0  0  0  0  0  0  0  0  1  0  0
  -31.5912  -11.2027   24.2184 F   0  0  0  0  0  0  0  0  0  0  0  0
  -27.0150  -10.1470   24.8097 F   0  0  0  0  0  0  0  0  0  0  0  0
  -18.1997  -22.9513   18.5596 Cl  0  0  0  0  0  0  0  0  0  0  0  0
  -21.8361  -23.4349   22.5829 Cl  0  0  0  0  0  0  0  0  0  0  0  0
  1  2  1  0  0  0  0
  1  5  2  0  0  0  0
  2  6  2  0  0  0  0
  3  8  2  0  0  0  0
  3 16  1  0  0  0  0
  4  9  1  0  0  0  0
  4 16  2  0  0  0  0
  5 18  1  0  0  0  0
  6 20  1  0  0  0  0
  7 10  2  0  0  0  0
  7 19  1  0  0  0  0
  8 25  1  0  0  0  0
  9 25  2  0  0  0  0
 10 26  1  0  0  0  0
 11 12  2  0  0  0  0
 11 27  1  0  0  0  0
 12 28  1  0  0  0  0
 13 21  1  0  0  0  0
 13 26  2  0  0  0  0
 14 22  1  0  0  0  0
 14 30  2  0  0  0  0
 15 28  2  0  0  0  0
 15 29  1  0  0  0  0
 16 32  1  0  0  0  0
 17 32  1  0  0  0  0
 17 33  2  0  0  0  0
 17 34  1  0  0  0  0
 18 20  2  0  0  0  0
 18 39  1  0  0  0  0
 19 21  2  0  0  0  0
 19 40  1  0  0  0  0
 20 48  1  0  0  0  0
 21 41  1  0  0  0  0
 22 23  2  0  0  0  0
 22 58  1  0  0  0  0
 23 31  1  0  0  0  0
 23 51  1  0  0  0  0
 24 30  1  0  0  0  0
 24 31  2  0  0  0  0
 24 71  1  0  0  0  0
 25 81  1  0  0  0  0
 26 82  1  0  0  0  0
 27 29  2  0  0  0  0
 27 81  1  0  0  0  0
 28 83  1  0  0  0  0
 29 84  1  0  0  0  0
 30 85  1  0  0  0  0
 31 86  1  0  0  0  0
 32 65  2  0  0  0  0
 33 66  1  0  0  0  0
 33 69  1  0  0  0  0
 34 70  1  0  0  0  0
 34 76  2  0  0  0  0
 35 49  1  0  0  0  0
 35 72  1  0  0  0  0
 35 77  2  0  0  0  0
 36 61  1  0  0  0  0
 36 67  1  0  0  0  0
 36 78  2  0  0  0  0
 37 62  1  0  0  0  0
 37 73  1  0  0  0  0
 37 79  2  0  0  0  0
 38 68  1  0  0  0  0
 38 74  1  0  0  0  0
 38 80  2  0  0  0  0
 39 42  1  0  0  0  0
 40 49  1  0  0  0  0
 41 67  1  0  0  0  0
 42 44  1  0  0  0  0
 43 45  1  0  0  0  0
 43 46  1  0  0  0  0
 44 48  1  0  0  0  0
 45 50  1  0  0  0  0
 46 68  1  0  0  0  0
 47 50  1  0  0  0  0
 47 68  1  0  0  0  0
 48 72  1  0  0  0  0
 49 67  1  0  0  0  0
 50 66  1  0  0  0  0
 52 62  1  0  0  0  0
 53 63  1  0  0  0  0
 54 64  1  0  0  0  0
 55 64  1  0  0  0  0
 56 64  1  0  0  0  0
 57 75  1  0  0  0  0
 58 74  1  0  0  0  0
 59 60  1  0  0  0  0
 59 63  1  0  0  0  0
 60 82  1  0  0  0  0
 61 64  1  0  0  0  0
 61 73  1  0  0  0  0
 62 75  1  0  0  0  0
 63 71  1  0  0  0  0
 65 66  1  0  0  0  0
M  CHG  1  75   1
M  ISO  4  38 100  60 101  74 100  82 101
M  END
> <Batch ID>
0022

> <Smiles>
CNC(C)C(=O)NC(C(=O)N1Cc2cc([101O:1][101CH2:1]CC(C)Nc3c(Cl)cc(C[100NH:0][100C:0](=O)N4CCCC(n5nc(-c6ccc(Oc7ccc(F)cc7F)cc6)c(C(N)=O)c5N)C4)c(C)c3Cl)ccc2CC1C(=O)NC1CCCc2ccccc21)C(C)(C)C

> <Shape>
0.221

> <Color>
0.076

> <Negative vol penalty>
0.000

$$$$

  -OEChem-04052316153D

 91 99  0     1  0  0  0  0  0999 V2000
  -20.4695   -7.3100   21.1604 C   0  0  0  0  0  0  0  0  0  0  0  0
  -20.5503   -8.6260   21.6045 C   0  0  0  0  0  0  0  0  0  0  0  0
  -29.2250  -25.5413   21.0289 C   0  0  0  0  0  0  0  0  0  0  0  0
  -27.2549  -24.1444   20.9627 C   0  0  0  0  0  0  0  0  0  0  0  0
  -21.6286   -6.5455   21.0345 C   0  0  0  0  0  0  0  0  0  0  0  0
  -21.7904   -9.1779   21.9239 C   0  0  0  0  0  0  0  0  0  0  0  0
  -23.5578  -14.9837   21.1026 C   0  0  0  0  0  0  0  0  0  0  0  0
  -29.9390  -24.5059   21.6319 C   0  0  0  0  0  0  0  0  0  0  0  0
  -27.9689  -23.1089   21.5657 C   0  0  0  0  0  0  0  0  0  0  0  0
  -23.6216  -16.0759   21.9668 C   0  0  0  0  0  0  0  0  0  0  0  0
  -30.2125  -20.7599   20.6333 C   0  0  0  0  0  0  0  0  0  0  0  0
  -30.0677  -19.4789   20.1005 C   0  0  0  0  0  0  0  0  0  0  0  0
  -25.9548  -15.6137   22.3690 C   0  0  0  0  0  0  0  0  0  0  0  0
  -24.9164  -20.2987   24.1974 C   0  0  0  0  0  0  0  0  0  0  0  0
  -23.5362  -20.5625   26.6074 C   0  0  0  0  0  0  0  0  0  0  0  0
  -29.2258  -18.6911   22.2237 C   0  0  0  0  0  0  0  0  0  0  0  0
  -27.8829  -25.3606   20.6944 C   0  0  0  0  0  0  0  0  0  0  0  0
  -27.0123  -26.6816   18.6932 C   0  0  0  0  0  0  0  0  0  0  0  0
  -22.8845   -7.0914   21.3433 C   0  0  0  0  0  0  0  0  0  0  0  0
  -24.6911  -14.1904   20.8732 C   0  0  0  0  0  0  0  0  0  0  0  0
  -22.9673   -8.4195   21.8032 C   0  0  0  0  0  0  0  0  0  0  0  0
  -25.9034  -14.5135   21.4995 C   0  0  0  0  0  0  0  0  0  0  0  0
  -25.1846  -21.3773   25.0402 C   0  0  0  0  0  0  0  0  0  0  0  0
  -23.9581  -19.3520   24.5596 C   0  0  0  0  0  0  0  0  0  0  0  0
  -24.4945  -21.5092   26.2452 C   0  0  0  0  0  0  0  0  0  0  0  0
  -23.2680  -19.4839   25.7646 C   0  0  0  0  0  0  0  0  0  0  0  0
  -29.3110  -23.2896   21.9003 C   0  0  0  0  0  0  0  0  0  0  0  0
  -24.8195  -16.3893   22.6023 C   0  0  0  0  0  0  0  0  0  0  0  0
  -29.8639  -21.0065   21.9612 C   0  0  0  0  0  0  0  0  0  0  0  0
  -29.5744  -18.4446   20.8957 C   0  0  0  0  0  0  0  0  0  0  0  0
  -29.3706  -19.9721   22.7564 C   0  0  0  0  0  0  0  0  0  0  0  0
  -27.1446  -26.4300   20.0720 C   0  0  0  0  0  0  0  0  0  0  0  0
  -26.2198  -27.8012   18.6230 C   0  0  0  0  0  0  0  0  0  0  0  0
  -27.5570  -25.9671   17.5759 C   0  0  0  0  0  0  0  0  0  0  0  0
  -25.4308  -11.1389   21.3681 C   0  0  0  0  0  0  0  0  0  0  0  0
  -28.1328  -11.9376   19.7608 C   0  0  0  0  0  0  0  0  0  0  0  0
  -30.8570  -14.1621   18.9557 C   0  0  0  0  0  0  0  0  0  0  0  0
  -22.1547  -30.1584   22.3338 C   0  0  0  0  0  0  0  0  0  0  0  0
  -24.1046   -6.2113   21.2366 C   0  0  0  0  0  0  0  0  0  0  0  0
  -24.6126  -13.0316   19.9175 C   0  0  0  0  0  0  0  0  0  0  0  0
  -27.1538  -13.7056   21.2711 C   0  0  0  0  0  0  0  0  0  0  0  0
  -25.4184   -6.9887   21.2378 C   0  0  0  0  0  0  0  0  0  0  0  0
  -25.0852  -31.7459   21.0813 C   0  0  0  0  0  0  0  0  0  0  0  0
  -25.4177   -8.0365   22.3463 C   0  0  0  0  0  0  0  0  0  0  0  0
  -25.9334  -30.5862   20.5562 C   0  0  0  0  0  0  0  0  0  0  0  0
  -24.3214  -31.3591   22.3458 C   0  0  0  0  0  0  0  0  0  0  0  0
  -24.3474  -28.9811   21.6993 C   0  0  0  0  0  0  0  0  0  0  0  0
  -24.2967   -9.0615   22.1358 C   0  0  1  0  0  0  0  0  0  0  0  0
  -25.6974  -11.9859   20.1559 C   0  0  1  0  0  0  0  0  0  0  0  0
  -25.0928  -29.3055   20.3934 C   0  0  2  0  0  0  0  0  0  0  0  0
  -26.2146  -22.3785   24.6311 C   0  0  0  0  0  0  0  0  0  0  0  0
  -32.8660  -14.6067   17.5192 C   0  0  0  0  0  0  0  0  0  0  0  0
  -29.7157  -10.8072   22.1116 C   0  0  0  0  0  0  0  0  0  0  0  0
  -31.7322  -12.0093   21.2417 C   0  0  0  0  0  0  0  0  0  0  0  0
  -30.6443  -10.2404   19.8597 C   0  0  0  0  0  0  0  0  0  0  0  0
  -20.9080  -18.7154   25.7659 C   0  0  0  0  0  0  0  0  0  0  0  0
  -22.6722  -17.3653   26.9120 C   0  0  0  0  0  0  0  0  0  0  0  0
  -29.3153  -15.9206   17.1419 C   0  0  0  0  0  0  0  0  0  0  0  0
  -24.7671  -22.6677   27.1722 C   0  0  0  0  0  0  0  0  0  0  0  0
  -23.6890  -18.2081   23.6367 C   0  0  0  0  0  0  0  0  0  1  0  0
  -24.1549  -24.0013   26.7249 C   0  0  0  0  0  0  0  0  0  0  0  0
  -22.6237  -24.0273   26.6417 C   0  0  0  0  0  0  0  0  0  0  0  0
  -22.0647  -25.3486   26.1088 C   0  0  0  0  0  0  0  0  0  0  0  0
  -20.5335  -25.3747   26.0363 C   0  0  0  0  0  0  0  0  0  0  0  0
  -19.9118  -26.6961   25.5713 C   0  0  0  0  0  0  0  0  0  0  0  0
  -20.2859  -27.0690   24.1351 C   0  0  0  0  0  0  0  0  0  0  0  0
  -19.6748  -28.3973   23.6727 C   0  0  0  0  0  0  0  0  0  0  0  0
  -20.0623  -28.8259   22.2604 C   0  0  0  0  0  0  0  0  0  0  0  0
  -29.4903  -12.4710   20.1503 C   0  0  1  0  0  0  0  0  0  0  0  0
  -31.3478  -14.5327   17.5678 C   0  0  2  0  0  0  0  0  0  0  0  0
  -30.3718  -11.3962   20.8468 C   0  0  0  0  0  0  0  0  0  0  0  0
  -26.4889  -27.3184   20.8235 N   0  0  0  0  0  0  0  0  0  0  0  0
  -25.9369  -28.1392   19.9137 N   0  0  0  0  0  0  0  0  0  0  0  0
  -27.0247  -12.5786   20.3328 N   0  0  0  0  0  0  0  0  0  0  0  0
  -23.5435  -30.1379   22.1240 N   0  0  0  0  0  0  0  0  0  0  0  0
  -25.7443  -28.5197   17.5837 N   0  0  0  0  0  0  0  0  0  0  0  0
  -28.3496  -24.8388   17.8264 N   0  0  0  0  0  0  0  0  0  0  0  0
  -24.6691  -10.0146   21.1124 N   0  0  0  0  0  0  0  0  0  0  0  0
  -30.0747  -13.0268   18.9345 N   0  0  0  0  0  0  0  0  0  0  0  0
  -21.4924  -28.9606   22.0947 N   0  0  0  0  0  0  0  0  0  0  0  0
  -22.2939  -18.5355   26.1468 N   0  0  0  0  0  0  0  0  0  0  0  0
  -30.7994  -15.8573   17.1610 N   0  3  0  0  0  0  0  0  0  0  0  0
  -27.3606  -26.3285   16.3908 O   0  0  0  0  0  0  0  0  0  0  0  0
  -25.8838  -11.4794   22.4546 O   0  0  0  0  0  0  0  0  0  0  0  0
  -28.0581  -10.9919   18.9723 O   0  0  0  0  0  0  0  0  0  0  0  0
  -31.1423  -14.8123   19.9588 O   0  0  0  0  0  0  0  0  0  0  0  0
  -21.5491  -31.1709   22.7014 O   0  0  0  0  0  0  0  0  0  0  0  0
  -30.0075  -22.2789   22.4884 O   0  0  0  0  0  0  0  0  0  0  0  0
  -24.8849  -17.4622   23.4529 O   0  0  0  0  0  0  0  0  0  1  0  0
  -29.4340  -17.2149   20.3836 F   0  0  0  0  0  0  0  0  0  0  0  0
  -29.0330  -20.2032   24.0325 F   0  0  0  0  0  0  0  0  0  0  0  0
  1  2  1  0  0  0  0
  1  5  2  0  0  0  0
  2  6  2  0  0  0  0
  3  8  2  0  0  0  0
  3 17  1  0  0  0  0
  4  9  1  0  0  0  0
  4 17  2  0  0  0  0
  5 19  1  0  0  0  0
  6 21  1  0  0  0  0
  7 10  2  0  0  0  0
  7 20  1  0  0  0  0
  8 27  1  0  0  0  0
  9 27  2  0  0  0  0
 10 28  1  0  0  0  0
 11 12  2  0  0  0  0
 11 29  1  0  0  0  0
 12 30  1  0  0  0  0
 13 22  1  0  0  0  0
 13 28  2  0  0  0  0
 14 23  2  0  0  0  0
 14 24  1  0  0  0  0
 15 25  2  0  0  0  0
 15 26  1  0  0  0  0
 16 30  2  0  0  0  0
 16 31  1  0  0  0  0
 17 32  1  0  0  0  0
 18 32  1  0  0  0  0
 18 33  2  0  0  0  0
 18 34  1  0  0  0  0
 19 21  2  0  0  0  0
 19 39  1  0  0  0  0
 20 22  2  0  0  0  0
 20 40  1  0  0  0  0
 21 48  1  0  0  0  0
 22 41  1  0  0  0  0
 23 25  1  0  0  0  0
 23 51  1  0  0  0  0
 24 26  2  0  0  0  0
 24 60  1  0  0  0  0
 25 59  1  0  0  0  0
 26 81  1  0  0  0  0
 27 88  1  0  0  0  0
 28 89  1  0  0  0  0
 29 31  2  0  0  0  0
 29 88  1  0  0  0  0
 30 90  1  0  0  0  0
 31 91  1  0  0  0  0
 32 72  2  0  0  0  0
 33 73  1  0  0  0  0
 33 76  1  0  0  0  0
 34 77  1  0  0  0  0
 34 83  2  0  0  0  0
 35 49  1  0  0  0  0
 35 78  1  0  0  0  0
 35 84  2  0  0  0  0
 36 69  1  0  0  0  0
 36 74  1  0  0  0  0
 36 85  2  0  0  0  0
 37 70  1  0  0  0  0
 37 79  1  0  0  0  0
 37 86  2  0  0  0  0
 38 75  1  0  0  0  0
 38 80  1  0  0  0  0
 38 87  2  0  0  0  0
 39 42  1  0  0  0  0
 40 49  1  0  0  0  0
 41 74  1  0  0  0  0
 42 44  1  0  0  0  0
 43 45  1  0  0  0  0
 43 46  1  0  0  0  0
 44 48  1  0  0  0  0
 45 50  1  0  0  0  0
 46 75  1  0  0  0  0
 47 50  1  0  0  0  0
 47 75  1  0  0  0  0
 48 78  1  0  0  0  0
 49 74  1  0  0  0  0
 50 73  1  0  0  0  0
 52 70  1  0  0  0  0
 53 71  1  0  0  0  0
 54 71  1  0  0  0  0
 55 71  1  0  0  0  0
 56 81  1  0  0  0  0
 57 81  1  0  0  0  0
 58 82  1  0  0  0  0
 59 61  1  0  0  0  0
 60 89  1  0  0  0  0
 61 62  1  0  0  0  0
 62 63  1  0  0  0  0
 63 64  1  0  0  0  0
 64 65  1  0  0  0  0
 65 66  1  0  0  0  0
 66 67  1  0  0  0  0
 67 68  1  0  0  0  0
 68 80  1  0  0  0  0
 69 71  1  0  0  0  0
 69 79  1  0  0  0  0
 70 82  1  0  0  0  0
 72 73  1  0  0  0  0
M  CHG  1  82   1
M  ISO  4  38 100  60 101  80 100  89 101
M  END
> <Batch ID>
0022

> <Smiles>
CNC(C)C(=O)NC(C(=O)N1Cc2cc([101O:1][101CH2:1]c3cc(C)c(CCCCCCCCC[100NH:0][100C:0](=O)N4CCCC(n5nc(-c6ccc(Oc7ccc(F)cc7F)cc6)c(C(N)=O)c5N)C4)cc3N(C)C)ccc2CC1C(=O)NC1CCCc2ccccc21)C(C)(C)C

> <Shape>
0.248

> <Color>
0.059

> <Negative vol penalty>
0.000

$$$$

  -OEChem-04052316153D

 85 93  0     1  0  0  0  0  0999 V2000
  -26.3410  -33.1150   19.3597 C   0  0  0  0  0  0  0  0  0  0  0  0
  -27.4084  -32.4429   19.9465 C   0  0  0  0  0  0  0  0  0  0  0  0
  -23.0335   -9.9037   19.9627 C   0  0  0  0  0  0  0  0  0  0  0  0
  -23.8000   -9.9056   22.2538 C   0  0  0  0  0  0  0  0  0  0  0  0
  -25.0424  -32.6335   19.5202 C   0  0  0  0  0  0  0  0  0  0  0  0
  -27.1776  -31.2893   20.6951 C   0  0  0  0  0  0  0  0  0  0  0  0
  -30.8105  -26.3758   21.1010 C   0  0  0  0  0  0  0  0  0  0  0  0
  -22.2630   -8.7701   20.2213 C   0  0  0  0  0  0  0  0  0  0  0  0
  -23.0295   -8.7720   22.5126 C   0  0  0  0  0  0  0  0  0  0  0  0
  -31.7460  -25.9771   22.0548 C   0  0  0  0  0  0  0  0  0  0  0  0
  -20.9837   -6.0908   23.8704 C   0  0  0  0  0  0  0  0  0  0  0  0
  -20.2301   -6.0719   25.0440 C   0  0  0  0  0  0  0  0  0  0  0  0
  -30.0715  -24.6007   23.1132 C   0  0  0  0  0  0  0  0  0  0  0  0
  -32.1886  -16.4146   22.4804 C   0  0  0  0  0  0  0  0  0  0  0  0
  -19.0300   -8.0342   24.3047 C   0  0  0  0  0  0  0  0  0  0  0  0
  -23.8020  -10.4715   20.9789 C   0  0  0  0  0  0  0  0  0  0  0  0
  -24.2037  -12.9870   20.8434 C   0  0  0  0  0  0  0  0  0  0  0  0
  -24.7966  -31.4681   20.2631 C   0  0  0  0  0  0  0  0  0  0  0  0
  -29.4933  -25.8975   21.1527 C   0  0  0  0  0  0  0  0  0  0  0  0
  -25.8744  -30.7925   20.8668 C   0  0  0  0  0  0  0  0  0  0  0  0
  -29.1218  -24.9927   22.1574 C   0  0  0  0  0  0  0  0  0  0  0  0
  -30.7041  -18.2205   24.0028 C   0  0  0  0  0  0  0  0  0  0  0  0
  -32.0925  -18.1773   24.1298 C   0  0  0  0  0  0  0  0  0  0  0  0
  -30.8003  -16.4577   22.3534 C   0  0  0  0  0  0  0  0  0  0  0  0
  -22.2610   -8.2043   21.4963 C   0  0  0  0  0  0  0  0  0  0  0  0
  -31.3758  -25.0917   23.0628 C   0  0  0  0  0  0  0  0  0  0  0  0
  -20.7606   -7.0814   22.9140 C   0  0  0  0  0  0  0  0  0  0  0  0
  -19.2532   -7.0436   25.2611 C   0  0  0  0  0  0  0  0  0  0  0  0
  -19.7837   -8.0530   23.1312 C   0  0  0  0  0  0  0  0  0  0  0  0
  -32.8348  -17.2744   23.3687 C   0  0  0  0  0  0  0  0  0  0  0  0
  -30.0580  -17.3607   23.1145 C   0  0  0  0  0  0  0  0  0  0  0  0
  -24.5986  -11.6422   20.7122 C   0  0  0  0  0  0  0  0  0  0  0  0
  -25.3123  -13.7081   20.4728 C   0  0  0  0  0  0  0  0  0  0  0  0
  -22.9471  -13.5354   21.2629 C   0  0  0  0  0  0  0  0  0  0  0  0
  -26.6337  -27.2359   21.5203 C   0  0  0  0  0  0  0  0  0  0  0  0
  -25.5804  -24.2244   20.9340 C   0  0  0  0  0  0  0  0  0  0  0  0
  -26.2226  -20.8728   20.9667 C   0  0  0  0  0  0  0  0  0  0  0  0
  -30.8024  -14.6238   20.6262 C   0  0  0  0  0  0  0  0  0  0  0  0
  -23.3709  -31.0124   20.4483 C   0  0  0  0  0  0  0  0  0  0  0  0
  -28.5032  -26.3163   20.1007 C   0  0  0  0  0  0  0  0  0  0  0  0
  -27.7258  -24.4344   22.2451 C   0  0  0  0  0  0  0  0  0  0  0  0
  -23.2508  -29.5736   20.9440 C   0  0  0  0  0  0  0  0  0  0  0  0
  -29.6238  -12.2239   18.2750 C   0  0  0  0  0  0  0  0  0  0  0  0
  -24.2107  -29.3266   22.1034 C   0  0  0  0  0  0  0  0  0  0  0  0
  -28.1789  -11.9692   18.7103 C   0  0  0  0  0  0  0  0  0  0  0  0
  -30.5476  -12.4376   19.4728 C   0  0  0  0  0  0  0  0  0  0  0  0
  -28.6625  -13.2153   20.8551 C   0  0  0  0  0  0  0  0  0  0  0  0
  -25.6670  -29.5239   21.6656 C   0  0  1  0  0  0  0  0  0  0  0  0
  -27.0534  -26.1669   20.5514 C   0  0  1  0  0  0  0  0  0  0  0  0
  -27.6824  -13.0586   19.6810 C   0  0  2  0  0  0  0  0  0  0  0  0
  -29.9236  -19.1969   24.8284 C   0  0  0  0  0  0  0  0  0  0  0  0
  -25.1547  -18.6575   20.4668 C   0  0  0  0  0  0  0  0  0  0  0  0
  -23.9797  -24.4142   23.5247 C   0  0  0  0  0  0  0  0  0  0  0  0
  -23.7186  -21.9249   23.4640 C   0  0  0  0  0  0  0  0  0  0  0  0
  -22.7694  -23.3220   21.6283 C   0  0  0  0  0  0  0  0  0  0  0  0
  -28.2358  -20.2395   18.8919 C   0  0  0  0  0  0  0  0  0  0  0  0
  -32.7765  -19.1057   25.0897 C   0  0  0  0  0  0  0  0  0  0  0  0
  -33.4954  -22.8641   24.9526 C   0  0  0  0  0  0  0  0  0  0  0  0
  -33.4572  -21.4648   25.5482 C   0  0  0  0  0  0  0  0  0  0  0  0
  -32.1249  -23.3995   24.5565 C   0  0  0  0  0  0  0  0  0  1  0  0
  -25.2741  -23.0146   21.7835 C   0  0  1  0  0  0  0  0  0  0  0  0
  -26.0035  -19.7950   19.9203 C   0  0  2  0  0  0  0  0  0  0  0  0
  -23.9613  -23.1808   22.5999 C   0  0  0  0  0  0  0  0  0  0  0  0
  -25.8595  -11.5138   20.2909 N   0  0  0  0  0  0  0  0  0  0  0  0
  -26.2666  -12.7872   20.1542 N   0  0  0  0  0  0  0  0  0  0  0  0
  -26.7922  -24.8789   21.1971 N   0  0  0  0  0  0  0  0  0  0  0  0
  -30.0160  -13.4865   20.3457 N   0  0  0  0  0  0  0  0  0  0  0  0
  -25.5542  -15.0337   20.3915 N   0  0  0  0  0  0  0  0  0  0  0  0
  -21.9148  -12.6526   21.6082 N   0  0  0  0  0  0  0  0  0  0  0  0
  -30.1797  -15.5687   21.4411 N   0  0  0  0  0  0  0  0  0  0  0  0
  -26.1307  -28.3739   20.9193 N   0  0  0  0  0  0  0  0  0  0  0  0
  -25.2744  -21.8700   20.8789 N   0  0  0  0  0  0  0  0  0  0  0  0
  -27.3097  -19.2339   19.4733 N   0  3  0  0  0  0  0  0  0  0  0  0
  -32.8440  -20.5091   24.5963 N   0  3  0  0  0  0  0  0  0  0  0  0
  -22.7404  -14.7716   21.3138 O   0  0  0  0  0  0  0  0  0  0  0  0
  -26.7559  -27.0420   22.7241 O   0  0  0  0  0  0  0  0  0  0  0  0
  -24.7777  -24.5715   20.0642 O   0  0  0  0  0  0  0  0  0  0  0  0
  -27.1406  -20.8321   21.7827 O   0  0  0  0  0  0  0  0  0  0  0  0
  -31.9338  -14.7629   20.1545 O   0  0  0  0  0  0  0  0  0  0  0  0
  -21.5091   -7.0982   21.7491 O   0  0  0  0  0  0  0  0  0  0  0  0
  -32.2868  -24.7015   23.9954 O   0  0  0  0  0  0  0  0  0  1  0  0
  -18.5284   -7.0245   26.3874 F   0  0  0  0  0  0  0  0  0  0  0  0
  -19.5639   -9.0065   22.2155 F   0  0  0  0  0  0  0  0  0  0  0  0
  -34.5541  -17.1854   23.5002 Cl  0  0  0  0  0  0  0  0  0  0  0  0
  -28.3314  -17.4155   22.9582 Cl  0  0  0  0  0  0  0  0  0  0  0  0
  1  2  1  0  0  0  0
  1  5  2  0  0  0  0
  2  6  2  0  0  0  0
  3  8  2  0  0  0  0
  3 16  1  0  0  0  0
  4  9  1  0  0  0  0
  4 16  2  0  0  0  0
  5 18  1  0  0  0  0
  6 20  1  0  0  0  0
  7 10  2  0  0  0  0
  7 19  1  0  0  0  0
  8 25  1  0  0  0  0
  9 25  2  0  0  0  0
 10 26  1  0  0  0  0
 11 12  2  0  0  0  0
 11 27  1  0  0  0  0
 12 28  1  0  0  0  0
 13 21  1  0  0  0  0
 13 26  2  0  0  0  0
 14 24  1  0  0  0  0
 14 30  2  0  0  0  0
 15 28  2  0  0  0  0
 15 29  1  0  0  0  0
 16 32  1  0  0  0  0
 17 32  1  0  0  0  0
 17 33  2  0  0  0  0
 17 34  1  0  0  0  0
 18 20  2  0  0  0  0
 18 39  1  0  0  0  0
 19 21  2  0  0  0  0
 19 40  1  0  0  0  0
 20 48  1  0  0  0  0
 21 41  1  0  0  0  0
 22 23  2  0  0  0  0
 22 31  1  0  0  0  0
 22 51  1  0  0  0  0
 23 30  1  0  0  0  0
 23 57  1  0  0  0  0
 24 31  2  0  0  0  0
 24 70  1  0  0  0  0
 25 80  1  0  0  0  0
 26 81  1  0  0  0  0
 27 29  2  0  0  0  0
 27 80  1  0  0  0  0
 28 82  1  0  0  0  0
 29 83  1  0  0  0  0
 30 84  1  0  0  0  0
 31 85  1  0  0  0  0
 32 64  2  0  0  0  0
 33 65  1  0  0  0  0
 33 68  1  0  0  0  0
 34 69  1  0  0  0  0
 34 75  2  0  0  0  0
 35 49  1  0  0  0  0
 35 71  1  0  0  0  0
 35 76  2  0  0  0  0
 36 61  1  0  0  0  0
 36 66  1  0  0  0  0
 36 77  2  0  0  0  0
 37 62  1  0  0  0  0
 37 72  1  0  0  0  0
 37 78  2  0  0  0  0
 38 67  1  0  0  0  0
 38 70  1  0  0  0  0
 38 79  2  0  0  0  0
 39 42  1  0  0  0  0
 40 49  1  0  0  0  0
 41 66  1  0  0  0  0
 42 44  1  0  0  0  0
 43 45  1  0  0  0  0
 43 46  1  0  0  0  0
 44 48  1  0  0  0  0
 45 50  1  0  0  0  0
 46 67  1  0  0  0  0
 47 50  1  0  0  0  0
 47 67  1  0  0  0  0
 48 71  1  0  0  0  0
 49 66  1  0  0  0  0
 50 65  1  0  0  0  0
 52 62  1  0  0  0  0
 53 63  1  0  0  0  0
 54 63  1  0  0  0  0
 55 63  1  0  0  0  0
 56 73  1  0  0  0  0
 57 74  1  0  0  0  0
 58 59  1  0  0  0  0
 58 60  1  0  0  0  0
 59 74  1  0  0  0  0
 60 81  1  0  0  0  0
 61 63  1  0  0  0  0
 61 72  1  0  0  0  0
 62 73  1  0  0  0  0
 64 65  1  0  0  0  0
M  CHG  2  73   1  74   1
M  ISO  4  38 100  60 101  70 100  81 101
M  END
> <Batch ID>
0022

> <Smiles>
CNC(C)C(=O)NC(C(=O)N1Cc2cc([101O:1][101CH2:1]CCNCc3c(Cl)cc([100NH:0][100C:0](=O)N4CCCC(n5nc(-c6ccc(Oc7ccc(F)cc7F)cc6)c(C(N)=O)c5N)C4)c(Cl)c3C)ccc2CC1C(=O)NC1CCCc2ccccc21)C(C)(C)C

> <Shape>
0.254

> <Color>
0.213

> <Negative vol penalty>
0.000

$$$$

  -OEChem-04052316153D

 96104  0     1  0  0  0  0  0999 V2000
  -15.8106  -19.2718   16.5190 C   0  0  0  0  0  0  0  0  0  0  0  0
  -16.9066  -18.5676   16.0307 C   0  0  0  0  0  0  0  0  0  0  0  0
  -23.1904   -9.8188   19.9320 C   0  0  0  0  0  0  0  0  0  0  0  0
  -23.5687   -9.9995   22.3114 C   0  0  0  0  0  0  0  0  0  0  0  0
  -15.9946  -20.5164   17.1198 C   0  0  0  0  0  0  0  0  0  0  0  0
  -18.1871  -19.1082   16.1421 C   0  0  0  0  0  0  0  0  0  0  0  0
  -25.0150  -17.1455   17.0613 C   0  0  0  0  0  0  0  0  0  0  0  0
  -22.4243   -8.6720   20.1409 C   0  0  0  0  0  0  0  0  0  0  0  0
  -22.8026   -8.8527   22.5203 C   0  0  0  0  0  0  0  0  0  0  0  0
  -26.2734  -17.3238   16.4883 C   0  0  0  0  0  0  0  0  0  0  0  0
  -23.2043   -5.5061   22.2566 C   0  0  0  0  0  0  0  0  0  0  0  0
  -23.7029   -4.5449   23.1359 C   0  0  0  0  0  0  0  0  0  0  0  0
  -26.4796  -19.4462   17.6163 C   0  0  0  0  0  0  0  0  0  0  0  0
  -31.0791  -18.9230   20.5798 C   0  0  0  0  0  0  0  0  0  0  0  0
  -21.7463   -4.8047   24.5293 C   0  0  0  0  0  0  0  0  0  0  0  0
  -23.7626  -10.4825   21.0173 C   0  0  0  0  0  0  0  0  0  0  0  0
  -24.1009  -12.9992   20.7732 C   0  0  0  0  0  0  0  0  0  0  0  0
  -17.2791  -21.0682   17.2473 C   0  0  0  0  0  0  0  0  0  0  0  0
  -24.4738  -18.1228   17.9089 C   0  0  0  0  0  0  0  0  0  0  0  0
  -18.3883  -20.3619   16.7440 C   0  0  0  0  0  0  0  0  0  0  0  0
  -25.2152  -19.2766   18.2008 C   0  0  0  0  0  0  0  0  0  0  0  0
  -30.4954  -19.7491   21.5402 C   0  0  0  0  0  0  0  0  0  0  0  0
  -32.2127  -21.4054   21.1592 C   0  0  0  0  0  0  0  0  0  0  0  0
  -32.2296  -19.3380   19.9091 C   0  0  0  0  0  0  0  0  0  0  0  0
  -22.2304   -8.1890   21.4350 C   0  0  0  0  0  0  0  0  0  0  0  0
  -27.0047  -18.4756   16.7635 C   0  0  0  0  0  0  0  0  0  0  0  0
  -21.9767   -6.1166   22.5136 C   0  0  0  0  0  0  0  0  0  0  0  0
  -22.9739   -4.1942   24.2722 C   0  0  0  0  0  0  0  0  0  0  0  0
  -21.2478   -5.7659   23.6499 C   0  0  0  0  0  0  0  0  0  0  0  0
  -31.0622  -20.9903   21.8299 C   0  0  0  0  0  0  0  0  0  0  0  0
  -32.7964  -20.5792   20.1988 C   0  0  0  0  0  0  0  0  0  0  0  0
  -24.5546  -11.6668   20.8021 C   0  0  0  0  0  0  0  0  0  0  0  0
  -25.2319  -13.7420   20.5378 C   0  0  0  0  0  0  0  0  0  0  0  0
  -22.7756  -13.5189   20.9440 C   0  0  0  0  0  0  0  0  0  0  0  0
  -21.9011  -19.9878   17.8271 C   0  0  0  0  0  0  0  0  0  0  0  0
  -22.8730  -20.7977   20.8140 C   0  0  0  0  0  0  0  0  0  0  0  0
  -25.4275  -21.0369   23.0644 C   0  0  0  0  0  0  0  0  0  0  0  0
  -31.0469  -12.7532   21.5669 C   0  0  0  0  0  0  0  0  0  0  0  0
  -17.4231  -22.4379   17.8618 C   0  0  0  0  0  0  0  0  0  0  0  0
  -23.1264  -17.9031   18.5402 C   0  0  0  0  0  0  0  0  0  0  0  0
  -24.6877  -20.3465   19.1204 C   0  0  0  0  0  0  0  0  0  0  0  0
  -18.8535  -22.7719   18.2771 C   0  0  0  0  0  0  0  0  0  0  0  0
  -29.5193  -13.4700   18.4317 C   0  0  0  0  0  0  0  0  0  0  0  0
  -19.8313  -22.4082   17.1642 C   0  0  0  0  0  0  0  0  0  0  0  0
  -28.0327  -13.2094   18.6811 C   0  0  0  0  0  0  0  0  0  0  0  0
  -30.4008  -12.4808   19.1910 C   0  0  0  0  0  0  0  0  0  0  0  0
  -28.6474  -12.1379   20.8886 C   0  0  0  0  0  0  0  0  0  0  0  0
  -19.7958  -20.9039   16.8685 C   0  0  1  0  0  0  0  0  0  0  0  0
  -22.4543  -19.1999   18.9807 C   0  0  1  0  0  0  0  0  0  0  0  0
  -27.7197  -13.1455   20.1882 C   0  0  2  0  0  0  0  0  0  0  0  0
  -32.7887  -22.7425   21.5009 C   0  0  0  0  0  0  0  0  0  0  0  0
  -26.5600  -21.4404   25.2671 C   0  0  0  0  0  0  0  0  0  0  0  0
  -35.0904  -17.7883   18.5906 C   0  0  0  0  0  0  0  0  0  0  0  0
  -33.2690  -16.1062   19.0364 C   0  0  0  0  0  0  0  0  0  0  0  0
  -32.7184  -19.9221   17.0127 C   0  0  0  0  0  0  0  0  0  0  0  0
  -22.7671  -23.7138   19.9224 C   0  0  0  0  0  0  0  0  0  0  0  0
  -24.1449  -24.3044   21.9277 C   0  0  0  0  0  0  0  0  0  0  0  0
  -21.8834  -23.2939   22.2240 C   0  0  0  0  0  0  0  0  0  0  0  0
  -25.0090  -18.2361   23.9243 C   0  0  0  0  0  0  0  0  0  0  0  0
  -29.2657  -19.3021   22.2559 C   0  0  0  0  0  0  0  0  0  0  0  0
  -29.4102  -17.9518   22.9830 C   0  0  0  0  0  0  0  0  0  0  0  0
  -30.4617  -17.9903   24.0974 C   0  0  0  0  0  0  0  0  0  0  0  0
  -30.5725  -16.6732   24.8719 C   0  0  0  0  0  0  0  0  0  0  0  0
  -31.0302  -15.4965   24.0061 C   0  0  0  0  0  0  0  0  0  0  0  0
  -31.0961  -14.2018   24.8233 C   0  0  0  0  0  0  0  0  0  0  0  0
  -30.4835  -17.7841   16.0323 C   0  0  0  0  0  0  0  0  0  0  0  0
  -30.8775  -18.2532   17.4398 C   0  0  0  0  0  0  0  0  0  0  0  0
  -31.5371  -13.0048   23.9867 C   0  0  0  0  0  0  0  0  0  0  0  0
  -28.9939  -17.4785   15.9240 C   0  0  0  0  0  0  0  0  0  1  0  0
  -23.7861  -21.8517   21.3922 C   0  0  1  0  0  0  0  0  0  0  0  0
  -25.5350  -20.6051   24.5158 C   0  0  2  0  0  0  0  0  0  0  0  0
  -33.7979  -17.5003   19.3405 C   0  0  0  0  0  0  0  0  0  0  0  0
  -32.3804  -18.5404   17.5636 C   0  0  2  0  0  0  0  0  0  0  0  0
  -23.1548  -23.2719   21.3477 C   0  0  0  0  0  0  0  0  0  0  0  0
  -25.8711  -11.5660   20.6009 N   0  0  0  0  0  0  0  0  0  0  0  0
  -26.2544  -12.8444   20.4433 N   0  0  0  0  0  0  0  0  0  0  0  0
  -23.3628  -20.0885   19.7082 N   0  0  0  0  0  0  0  0  0  0  0  0
  -30.0543  -12.4698   20.6143 N   0  0  0  0  0  0  0  0  0  0  0  0
  -25.4416  -15.0689   20.4044 N   0  0  0  0  0  0  0  0  0  0  0  0
  -21.7291  -12.6165   21.1782 N   0  0  0  0  0  0  0  0  0  0  0  0
  -20.5327  -20.1730   17.8770 N   0  0  0  0  0  0  0  0  0  0  0  0
  -24.1382  -21.3961   22.7326 N   0  0  0  0  0  0  0  0  0  0  0  0
  -30.6328  -12.7279   22.8930 N   0  0  0  0  0  0  0  0  0  0  0  0
  -32.7894  -18.4843   18.9516 N   0  0  3  0  0  0  0  0  0  0  0  0
  -25.9412  -19.1738   24.6017 N   0  3  0  0  0  0  0  0  0  0  0  0
  -22.5241  -14.7458   20.8742 O   0  0  0  0  0  0  0  0  0  0  0  0
  -22.6599  -20.3986   16.9569 O   0  0  0  0  0  0  0  0  0  0  0  0
  -21.7687  -20.6056   21.3292 O   0  0  0  0  0  0  0  0  0  0  0  0
  -26.3915  -21.0573   22.3023 O   0  0  0  0  0  0  0  0  0  0  0  0
  -32.2145  -13.0150   21.2581 O   0  0  0  0  0  0  0  0  0  0  0  0
  -21.4827   -7.0701   21.6393 O   0  0  0  0  0  0  0  0  0  0  0  0
  -28.2330  -18.6525   16.2050 O   0  0  0  0  0  0  0  0  0  1  0  0
  -23.4521   -3.2701   25.1157 F   0  0  0  0  0  0  0  0  0  0  0  0
  -20.0673   -6.3482   23.9016 F   0  0  0  0  0  0  0  0  0  0  0  0
  -30.4995  -21.7831   22.7542 F   0  0  0  0  0  0  0  0  0  0  0  0
  -34.2264  -21.1002   19.3686 Cl  0  0  0  0  0  0  0  0  0  0  0  0
  1  2  1  0  0  0  0
  1  5  2  0  0  0  0
  2  6  2  0  0  0  0
  3  8  2  0  0  0  0
  3 16  1  0  0  0  0
  4  9  1  0  0  0  0
  4 16  2  0  0  0  0
  5 18  1  0  0  0  0
  6 20  1  0  0  0  0
  7 10  2  0  0  0  0
  7 19  1  0  0  0  0
  8 25  1  0  0  0  0
  9 25  2  0  0  0  0
 10 26  1  0  0  0  0
 11 12  2  0  0  0  0
 11 27  1  0  0  0  0
 12 28  1  0  0  0  0
 13 21  1  0  0  0  0
 13 26  2  0  0  0  0
 14 22  2  0  0  0  0
 14 24  1  0  0  0  0
 15 28  2  0  0  0  0
 15 29  1  0  0  0  0
 16 32  1  0  0  0  0
 17 32  1  0  0  0  0
 17 33  2  0  0  0  0
 17 34  1  0  0  0  0
 18 20  2  0  0  0  0
 18 39  1  0  0  0  0
 19 21  2  0  0  0  0
 19 40  1  0  0  0  0
 20 48  1  0  0  0  0
 21 41  1  0  0  0  0
 22 30  1  0  0  0  0
 22 60  1  0  0  0  0
 23 30  2  0  0  0  0
 23 31  1  0  0  0  0
 23 51  1  0  0  0  0
 24 31  2  0  0  0  0
 24 84  1  0  0  0  0
 25 91  1  0  0  0  0
 26 92  1  0  0  0  0
 27 29  2  0  0  0  0
 27 91  1  0  0  0  0
 28 93  1  0  0  0  0
 29 94  1  0  0  0  0
 30 95  1  0  0  0  0
 31 96  1  0  0  0  0
 32 75  2  0  0  0  0
 33 76  1  0  0  0  0
 33 79  1  0  0  0  0
 34 80  1  0  0  0  0
 34 86  2  0  0  0  0
 35 49  1  0  0  0  0
 35 81  1  0  0  0  0
 35 87  2  0  0  0  0
 36 70  1  0  0  0  0
 36 77  1  0  0  0  0
 36 88  2  0  0  0  0
 37 71  1  0  0  0  0
 37 82  1  0  0  0  0
 37 89  2  0  0  0  0
 38 78  1  0  0  0  0
 38 83  1  0  0  0  0
 38 90  2  0  0  0  0
 39 42  1  0  0  0  0
 40 49  1  0  0  0  0
 41 77  1  0  0  0  0
 42 44  1  0  0  0  0
 43 45  1  0  0  0  0
 43 46  1  0  0  0  0
 44 48  1  0  0  0  0
 45 50  1  0  0  0  0
 46 78  1  0  0  0  0
 47 50  1  0  0  0  0
 47 78  1  0  0  0  0
 48 81  1  0  0  0  0
 49 77  1  0  0  0  0
 50 76  1  0  0  0  0
 52 71  1  0  0  0  0
 53 72  1  0  0  0  0
 54 72  1  0  0  0  0
 55 73  1  0  0  0  0
 56 74  1  0  0  0  0
 57 74  1  0  0  0  0
 58 74  1  0  0  0  0
 59 85  1  0  0  0  0
 60 61  1  0  0  0  0
 61 62  1  0  0  0  0
 62 63  1  0  0  0  0
 63 64  1  0  0  0  0
 64 65  1  0  0  0  0
 65 68  1  0  0  0  0
 66 67  1  0  0  0  0
 66 69  1  0  0  0  0
 67 73  1  0  0  0  0
 68 83  1  0  0  0  0
 69 92  1  0  0  0  0
 70 74  1  0  0  0  0
 70 82  1  0  0  0  0
 71 85  1  0  0  0  0
 72 84  1  0  0  0  0
 73 84  1  0  0  0  0
 75 76  1  0  0  0  0
M  CHG  1  85   1
M  ISO  4  38 100  69 101  83 100  92 101
M  END
> <Batch ID>
0022

> <Smiles>
CNC(C)C(=O)NC(C(=O)N1Cc2cc([101O:1][101CH2:1]CCC(C)N(c3cc(CCCCCCC[100NH:0][100C:0](=O)N4CCCC(n5nc(-c6ccc(Oc7ccc(F)cc7F)cc6)c(C(N)=O)c5N)C4)c(F)c(C)c3Cl)C(C)C)ccc2CC1C(=O)NC1CCCc2ccccc21)C(C)(C)C

> <Shape>
0.155

> <Color>
0.178

> <Negative vol penalty>
0.000

$$$$

  -OEChem-04052316153D

 93101  0     1  0  0  0  0  0999 V2000
  -19.1649   -8.1417   20.7499 C   0  0  0  0  0  0  0  0  0  0  0  0
  -18.8828   -9.4951   20.9050 C   0  0  0  0  0  0  0  0  0  0  0  0
  -23.1483  -29.5217   21.2648 C   0  0  0  0  0  0  0  0  0  0  0  0
  -25.3241  -30.4818   20.8392 C   0  0  0  0  0  0  0  0  0  0  0  0
  -20.3344   -7.6082   21.2900 C   0  0  0  0  0  0  0  0  0  0  0  0
  -19.7694  -10.3157   21.6014 C   0  0  0  0  0  0  0  0  0  0  0  0
  -22.2431  -17.0377   21.7098 C   0  0  0  0  0  0  0  0  0  0  0  0
  -22.9353  -30.4542   22.2800 C   0  0  0  0  0  0  0  0  0  0  0  0
  -25.1111  -31.4144   21.8544 C   0  0  0  0  0  0  0  0  0  0  0  0
  -22.4188  -18.1067   22.5873 C   0  0  0  0  0  0  0  0  0  0  0  0
  -25.2404  -31.4934   25.2320 C   0  0  0  0  0  0  0  0  0  0  0  0
  -26.2828  -31.7235   26.1297 C   0  0  0  0  0  0  0  0  0  0  0  0
  -24.4469  -17.0911   23.4089 C   0  0  0  0  0  0  0  0  0  0  0  0
  -29.0496  -28.0141   23.2462 C   0  0  0  0  0  0  0  0  0  0  0  0
  -26.3338  -34.0484   25.4745 C   0  0  0  0  0  0  0  0  0  0  0  0
  -24.3427  -29.5355   20.5444 C   0  0  0  0  0  0  0  0  0  0  0  0
  -24.2370  -28.7086   18.1335 C   0  0  0  0  0  0  0  0  0  0  0  0
  -21.2406   -8.4246   21.9850 C   0  0  0  0  0  0  0  0  0  0  0  0
  -23.1637  -15.9802   21.6828 C   0  0  0  0  0  0  0  0  0  0  0  0
  -20.9515   -9.7924   22.1524 C   0  0  0  0  0  0  0  0  0  0  0  0
  -24.2819  -16.0111   22.5282 C   0  0  0  0  0  0  0  0  0  0  0  0
  -28.5620  -27.2358   24.2960 C   0  0  0  0  0  0  0  0  0  0  0  0
  -29.3774  -26.2693   24.8848 C   0  0  0  0  0  0  0  0  0  0  0  0
  -30.6804  -26.0811   24.4238 C   0  0  0  0  0  0  0  0  0  0  0  0
  -31.1680  -26.8594   23.3739 C   0  0  0  0  0  0  0  0  0  0  0  0
  -23.9167  -31.4006   22.5748 C   0  0  0  0  0  0  0  0  0  0  0  0
  -23.5193  -18.1321   23.4391 C   0  0  0  0  0  0  0  0  0  0  0  0
  -24.7447  -32.5408   24.4554 C   0  0  0  0  0  0  0  0  0  0  0  0
  -26.8295  -33.0010   26.2510 C   0  0  0  0  0  0  0  0  0  0  0  0
  -30.3526  -27.8258   22.7851 C   0  0  0  0  0  0  0  0  0  0  0  0
  -25.2914  -33.8183   24.5767 C   0  0  0  0  0  0  0  0  0  0  0  0
  -24.5635  -28.5721   19.4960 C   0  0  0  0  0  0  0  0  0  0  0  0
  -24.6469  -27.5287   17.5622 C   0  0  0  0  0  0  0  0  0  0  0  0
  -23.6186  -29.8041   17.4456 C   0  0  0  0  0  0  0  0  0  0  0  0
  -23.0112  -12.8581   22.2597 C   0  0  0  0  0  0  0  0  0  0  0  0
  -26.0748  -12.9070   21.1947 C   0  0  0  0  0  0  0  0  0  0  0  0
  -28.9374  -14.6943   20.6867 C   0  0  0  0  0  0  0  0  0  0  0  0
  -28.7861  -23.4809   19.0894 C   0  0  0  0  0  0  0  0  0  0  0  0
  -22.4685   -7.7933   22.5918 C   0  0  0  0  0  0  0  0  0  0  0  0
  -22.9742  -14.8475   20.7115 C   0  0  0  0  0  0  0  0  0  0  0  0
  -25.3100  -14.9104   22.5238 C   0  0  0  0  0  0  0  0  0  0  0  0
  -23.5387   -8.8052   22.9928 C   0  0  0  0  0  0  0  0  0  0  0  0
  -25.3088  -22.9029   18.5889 C   0  0  0  0  0  0  0  0  0  0  0  0
  -22.9136   -9.9701   23.7537 C   0  0  0  0  0  0  0  0  0  0  0  0
  -24.6940  -24.3026   18.6417 C   0  0  0  0  0  0  0  0  0  0  0  0
  -26.4669  -22.7576   19.5737 C   0  0  0  0  0  0  0  0  0  0  0  0
  -26.9056  -25.1816   19.4989 C   0  0  0  0  0  0  0  0  0  0  0  0
  -21.9007  -10.7197   22.8799 C   0  0  1  0  0  0  0  0  0  0  0  0
  -23.6995  -13.5727   21.1313 C   0  0  1  0  0  0  0  0  0  0  0  0
  -25.7698  -25.3938   18.4834 C   0  0  2  0  0  0  0  0  0  0  0  0
  -28.8504  -25.4343   26.0088 C   0  0  0  0  0  0  0  0  0  0  0  0
  -31.5553  -25.0442   25.0540 C   0  0  0  0  0  0  0  0  0  0  0  0
  -31.2856  -14.4528   19.8355 C   0  0  0  0  0  0  0  0  0  0  0  0
  -26.8644  -11.4938   23.7811 C   0  0  0  0  0  0  0  0  0  0  0  0
  -29.2422  -12.1274   23.3195 C   0  0  0  0  0  0  0  0  0  0  0  0
  -28.0186  -10.6418   21.7326 C   0  0  0  0  0  0  0  0  0  0  0  0
  -28.4862  -16.6791   18.5382 C   0  0  0  0  0  0  0  0  0  0  0  0
  -32.5603  -26.6765   22.8648 C   0  0  0  0  0  0  0  0  0  0  0  0
  -27.1561  -27.4572   24.7708 C   0  0  0  0  0  0  0  0  0  0  0  0
  -32.6913  -25.4363   21.9692 C   0  0  0  0  0  0  0  0  0  0  0  0
  -31.8071  -25.5409   20.7249 C   0  0  0  0  0  0  0  0  0  0  0  0
  -24.4439  -24.0230   24.7103 C   0  0  0  0  0  0  0  0  0  0  0  0
  -23.5589  -22.9297   24.1071 C   0  0  0  0  0  0  0  0  0  0  0  0
  -31.9157  -24.2822   19.8592 C   0  0  0  0  0  0  0  0  0  0  0  0
  -23.9429  -25.4175   24.3238 C   0  0  0  0  0  0  0  0  0  0  0  0
  -24.0366  -21.5385   24.5177 C   0  0  0  0  0  0  0  0  0  0  0  0
  -31.0554  -24.3596   18.6022 C   0  0  0  0  0  0  0  0  0  0  0  0
  -24.8321  -26.5442   24.8352 C   0  0  0  0  0  0  0  0  0  0  0  0
  -23.1872  -20.4440   23.8874 C   0  0  0  0  0  0  0  0  0  1  0  0
  -27.4273  -13.0977   21.8378 C   0  0  1  0  0  0  0  0  0  0  0  0
  -29.8511  -14.8113   19.4801 C   0  0  2  0  0  0  0  0  0  0  0  0
  -27.8679  -11.8601   22.6694 C   0  0  0  0  0  0  0  0  0  0  0  0
  -25.1365  -27.3980   19.7738 N   0  0  0  0  0  0  0  0  0  0  0  0
  -25.1731  -26.7859   18.5779 N   0  0  0  0  0  0  0  0  0  0  0  0
  -25.0772  -13.8216   21.5607 N   0  0  0  0  0  0  0  0  0  0  0  0
  -27.4526  -23.8219   19.3696 N   0  0  0  0  0  0  0  0  0  0  0  0
  -24.6047  -27.0645   16.2953 N   0  0  0  0  0  0  0  0  0  0  0  0
  -23.2608  -30.9403   18.1841 N   0  0  0  0  0  0  0  0  0  0  0  0
  -22.5844  -11.5831   21.9410 N   0  0  0  0  0  0  0  0  0  0  0  0
  -28.3453  -13.4512   20.7604 N   0  0  0  0  0  0  0  0  0  0  0  0
  -29.6540  -24.5499   18.9035 N   0  0  0  0  0  0  0  0  0  0  0  0
  -29.8324  -16.2037   18.9493 N   0  3  0  0  0  0  0  0  0  0  0  0
  -26.2164  -26.3894   24.3301 N   0  3  0  0  0  0  0  0  0  0  0  0
  -23.3751  -29.7697   16.2156 O   0  0  0  0  0  0  0  0  0  0  0  0
  -22.8786  -13.4212   23.3400 O   0  0  0  0  0  0  0  0  0  0  0  0
  -25.9117  -11.9849   20.3917 O   0  0  0  0  0  0  0  0  0  0  0  0
  -28.7688  -15.6125   21.4861 O   0  0  0  0  0  0  0  0  0  0  0  0
  -29.1733  -22.3104   19.0055 O   0  0  0  0  0  0  0  0  0  0  0  0
  -23.7092  -32.3109   23.5652 O   0  0  0  0  0  0  0  0  0  0  0  0
  -23.6928  -19.1740   24.2971 O   0  0  0  0  0  0  0  0  0  1  0  0
  -27.8296  -33.2221   27.1143 F   0  0  0  0  0  0  0  0  0  0  0  0
  -30.8118  -28.5792   21.7759 F   0  0  0  0  0  0  0  0  0  0  0  0
  -24.8186  -34.8287   23.8343 F   0  0  0  0  0  0  0  0  0  0  0  0
  1  2  1  0  0  0  0
  1  5  2  0  0  0  0
  2  6  2  0  0  0  0
  3  8  2  0  0  0  0
  3 16  1  0  0  0  0
  4  9  1  0  0  0  0
  4 16  2  0  0  0  0
  5 18  1  0  0  0  0
  6 20  1  0  0  0  0
  7 10  2  0  0  0  0
  7 19  1  0  0  0  0
  8 26  1  0  0  0  0
  9 26  2  0  0  0  0
 10 27  1  0  0  0  0
 11 12  2  0  0  0  0
 11 28  1  0  0  0  0
 12 29  1  0  0  0  0
 13 21  1  0  0  0  0
 13 27  2  0  0  0  0
 14 22  1  0  0  0  0
 14 30  2  0  0  0  0
 15 29  2  0  0  0  0
 15 31  1  0  0  0  0
 16 32  1  0  0  0  0
 17 32  1  0  0  0  0
 17 33  2  0  0  0  0
 17 34  1  0  0  0  0
 18 20  2  0  0  0  0
 18 39  1  0  0  0  0
 19 21  2  0  0  0  0
 19 40  1  0  0  0  0
 20 48  1  0  0  0  0
 21 41  1  0  0  0  0
 22 23  2  0  0  0  0
 22 59  1  0  0  0  0
 23 24  1  0  0  0  0
 23 51  1  0  0  0  0
 24 25  2  0  0  0  0
 24 52  1  0  0  0  0
 25 30  1  0  0  0  0
 25 58  1  0  0  0  0
 26 89  1  0  0  0  0
 27 90  1  0  0  0  0
 28 31  2  0  0  0  0
 28 89  1  0  0  0  0
 29 91  1  0  0  0  0
 30 92  1  0  0  0  0
 31 93  1  0  0  0  0
 32 73  2  0  0  0  0
 33 74  1  0  0  0  0
 33 77  1  0  0  0  0
 34 78  1  0  0  0  0
 34 84  2  0  0  0  0
 35 49  1  0  0  0  0
 35 79  1  0  0  0  0
 35 85  2  0  0  0  0
 36 70  1  0  0  0  0
 36 75  1  0  0  0  0
 36 86  2  0  0  0  0
 37 71  1  0  0  0  0
 37 80  1  0  0  0  0
 37 87  2  0  0  0  0
 38 76  1  0  0  0  0
 38 81  1  0  0  0  0
 38 88  2  0  0  0  0
 39 42  1  0  0  0  0
 40 49  1  0  0  0  0
 41 75  1  0  0  0  0
 42 44  1  0  0  0  0
 43 45  1  0  0  0  0
 43 46  1  0  0  0  0
 44 48  1  0  0  0  0
 45 50  1  0  0  0  0
 46 76  1  0  0  0  0
 47 50  1  0  0  0  0
 47 76  1  0  0  0  0
 48 79  1  0  0  0  0
 49 75  1  0  0  0  0
 50 74  1  0  0  0  0
 53 71  1  0  0  0  0
 54 72  1  0  0  0  0
 55 72  1  0  0  0  0
 56 72  1  0  0  0  0
 57 82  1  0  0  0  0
 58 60  1  0  0  0  0
 59 83  1  0  0  0  0
 60 61  1  0  0  0  0
 61 64  1  0  0  0  0
 62 63  1  0  0  0  0
 62 65  1  0  0  0  0
 63 66  1  0  0  0  0
 64 67  1  0  0  0  0
 65 68  1  0  0  0  0
 66 69  1  0  0  0  0
 67 81  1  0  0  0  0
 68 83  1  0  0  0  0
 69 90  1  0  0  0  0
 70 72  1  0  0  0  0
 70 80  1  0  0  0  0
 71 82  1  0  0  0  0
 73 74  1  0  0  0  0
M  CHG  2  82   1  83   1
M  ISO  4  38 100  69 101  81 100  90 101
M  END
> <Batch ID>
0022

> <Smiles>
CNC(C)C(=O)NC(C(=O)N1Cc2cc([101O:1][101CH2:1]CCCCCNCc3cc(F)c(CCCCC[100NH:0][100C:0](=O)N4CCCC(n5nc(-c6ccc(Oc7ccc(F)cc7F)cc6)c(C(N)=O)c5N)C4)c(C)c3C)ccc2CC1C(=O)NC1CCCc2ccccc21)C(C)(C)C

> <Shape>
0.225

> <Color>
0.056

> <Negative vol penalty>
0.000

$$$$

  -OEChem-04052316153D

 88 96  0     1  0  0  0  0  0999 V2000
  -29.3061  -24.3728   17.7132 C   0  0  0  0  0  0  0  0  0  0  0  0
  -28.0845  -24.4799   18.3701 C   0  0  0  0  0  0  0  0  0  0  0  0
  -28.0786  -14.7816   19.1841 C   0  0  0  0  0  0  0  0  0  0  0  0
  -27.6581  -15.8133   21.3280 C   0  0  0  0  0  0  0  0  0  0  0  0
  -30.4086  -25.0924   18.1722 C   0  0  0  0  0  0  0  0  0  0  0  0
  -27.9649  -25.3058   19.4872 C   0  0  0  0  0  0  0  0  0  0  0  0
  -23.7664  -28.1350   19.3709 C   0  0  0  0  0  0  0  0  0  0  0  0
  -29.1503  -15.6499   18.9765 C   0  0  0  0  0  0  0  0  0  0  0  0
  -28.7299  -16.6815   21.1203 C   0  0  0  0  0  0  0  0  0  0  0  0
  -22.5680  -27.5104   19.7134 C   0  0  0  0  0  0  0  0  0  0  0  0
  -31.1302  -19.4080   20.9977 C   0  0  0  0  0  0  0  0  0  0  0  0
  -30.9391  -20.7569   21.2968 C   0  0  0  0  0  0  0  0  0  0  0  0
  -22.7076  -28.4678   21.9232 C   0  0  0  0  0  0  0  0  0  0  0  0
  -18.1820  -18.5608   23.0212 C   0  0  0  0  0  0  0  0  0  0  0  0
  -29.1506  -20.8630   19.6760 C   0  0  0  0  0  0  0  0  0  0  0  0
  -27.3324  -14.8634   20.3599 C   0  0  0  0  0  0  0  0  0  0  0  0
  -26.2622  -12.7020   21.1911 C   0  0  0  0  0  0  0  0  0  0  0  0
  -30.3000  -25.9350   19.2897 C   0  0  0  0  0  0  0  0  0  0  0  0
  -24.4512  -28.9233   20.3070 C   0  0  0  0  0  0  0  0  0  0  0  0
  -29.0673  -26.0363   19.9624 C   0  0  0  0  0  0  0  0  0  0  0  0
  -23.9132  -29.1035   21.5893 C   0  0  0  0  0  0  0  0  0  0  0  0
  -18.2913  -18.5483   24.4117 C   0  0  0  0  0  0  0  0  0  0  0  0
  -19.0179  -17.5400   25.0450 C   0  0  0  0  0  0  0  0  0  0  0  0
  -19.5257  -16.5568   22.8974 C   0  0  0  0  0  0  0  0  0  0  0  0
  -29.4760  -16.5998   19.9446 C   0  0  0  0  0  0  0  0  0  0  0  0
  -22.0399  -27.6743   20.9907 C   0  0  0  0  0  0  0  0  0  0  0  0
  -30.3315  -18.7865   20.0377 C   0  0  0  0  0  0  0  0  0  0  0  0
  -29.9493  -21.4844   20.6360 C   0  0  0  0  0  0  0  0  0  0  0  0
  -18.7992  -17.5651   22.2640 C   0  0  0  0  0  0  0  0  0  0  0  0
  -29.3417  -19.5140   19.3769 C   0  0  0  0  0  0  0  0  0  0  0  0
  -19.6351  -16.5443   24.2879 C   0  0  0  0  0  0  0  0  0  0  0  0
  -26.2249  -13.9671   20.5747 C   0  0  0  0  0  0  0  0  0  0  0  0
  -24.9621  -12.2611   21.1492 C   0  0  0  0  0  0  0  0  0  0  0  0
  -27.3729  -11.9891   21.7514 C   0  0  0  0  0  0  0  0  0  0  0  0
  -27.3064  -28.7830   21.6968 C   0  0  0  0  0  0  0  0  0  0  0  0
  -26.4325  -31.6677   22.8955 C   0  0  0  0  0  0  0  0  0  0  0  0
  -23.9154  -33.8110   23.7426 C   0  0  0  0  0  0  0  0  0  0  0  0
  -19.7023  -15.0820   20.8627 C   0  0  0  0  0  0  0  0  0  0  0  0
  -31.5314  -26.6565   19.7773 C   0  0  0  0  0  0  0  0  0  0  0  0
  -25.7291  -29.6121   19.9134 C   0  0  0  0  0  0  0  0  0  0  0  0
  -24.5990  -29.9559   22.6244 C   0  0  0  0  0  0  0  0  0  0  0  0
  -31.2260  -27.7987   20.7428 C   0  0  0  0  0  0  0  0  0  0  0  0
  -20.9516  -12.6674   18.5636 C   0  0  0  0  0  0  0  0  0  0  0  0
  -30.2244  -27.3490   21.8019 C   0  0  0  0  0  0  0  0  0  0  0  0
  -22.4480  -12.6071   18.8786 C   0  0  0  0  0  0  0  0  0  0  0  0
  -20.4009  -14.0862   18.6958 C   0  0  0  0  0  0  0  0  0  0  0  0
  -22.1787  -14.6841   20.2930 C   0  0  0  0  0  0  0  0  0  0  0  0
  -28.8916  -26.9410   21.1628 C   0  0  1  0  0  0  0  0  0  0  0  0
  -26.6051  -29.9745   21.1086 C   0  0  1  0  0  0  0  0  0  0  0  0
  -22.7650  -13.2639   20.2364 C   0  0  2  0  0  0  0  0  0  0  0  0
  -19.1215  -17.5464   26.5391 C   0  0  0  0  0  0  0  0  0  0  0  0
  -23.5107  -36.0802   24.7347 C   0  0  0  0  0  0  0  0  0  0  0  0
  -27.0528  -30.5623   25.6709 C   0  0  0  0  0  0  0  0  0  0  0  0
  -25.7597  -32.4723   26.6444 C   0  0  0  0  0  0  0  0  0  0  0  0
  -27.8087  -32.9160   25.2926 C   0  0  0  0  0  0  0  0  0  0  0  0
  -22.5791  -34.7753   21.2843 C   0  0  0  0  0  0  0  0  0  0  0  0
  -17.6169  -19.6322   25.1999 C   0  0  0  0  0  0  0  0  0  0  0  0
  -18.7016  -23.7699   24.2746 C   0  0  0  0  0  0  0  0  0  0  0  0
  -19.5793  -25.0221   24.2119 C   0  0  0  0  0  0  0  0  0  0  0  0
  -18.4620  -23.3331   25.7227 C   0  0  0  0  0  0  0  0  0  0  0  0
  -19.7930  -25.4793   22.7704 C   0  0  0  0  0  0  0  0  0  0  0  0
  -17.6558  -22.0457   25.8419 C   0  0  0  0  0  0  0  0  0  0  0  0
  -20.7000  -26.6994   22.6966 C   0  0  0  0  0  0  0  0  0  1  0  0
  -25.7028  -32.1352   24.1316 C   0  0  1  0  0  0  0  0  0  0  0  0
  -23.7086  -35.2866   23.4526 C   0  0  2  0  0  0  0  0  0  0  0  0
  -26.5688  -32.0037   25.4162 C   0  0  0  0  0  0  0  0  0  0  0  0
  -24.9982  -14.3079   20.1707 N   0  0  0  0  0  0  0  0  0  0  0  0
  -24.2527  -13.2503   20.5339 N   0  0  0  0  0  0  0  0  0  0  0  0
  -25.8490  -30.6035   22.1935 N   0  0  0  0  0  0  0  0  0  0  0  0
  -20.7358  -14.6426   20.0085 N   0  0  0  0  0  0  0  0  0  0  0  0
  -24.3679  -11.1277   21.5789 N   0  0  0  0  0  0  0  0  0  0  0  0
  -28.6397  -12.5874   21.7112 N   0  0  0  0  0  0  0  0  0  0  0  0
  -20.1392  -15.5614   22.0971 N   0  0  0  0  0  0  0  0  0  0  0  0
  -28.1226  -28.1137   20.8050 N   0  0  0  0  0  0  0  0  0  0  0  0
  -25.2531  -33.4943   23.8507 N   0  0  0  0  0  0  0  0  0  0  0  0
  -22.5096  -35.4818   22.5893 N   0  3  0  0  0  0  0  0  0  0  0  0
  -18.3299  -20.9373   25.1259 N   0  3  0  0  0  0  0  0  0  0  0  0
  -27.2485  -10.8482   22.2577 O   0  0  0  0  0  0  0  0  0  0  0  0
  -27.1219  -28.4931   22.8731 O   0  0  0  0  0  0  0  0  0  0  0  0
  -27.4777  -32.2309   22.5609 O   0  0  0  0  0  0  0  0  0  0  0  0
  -22.9834  -33.0192   23.8651 O   0  0  0  0  0  0  0  0  0  0  0  0
  -18.5151  -15.0112   20.5346 O   0  0  0  0  0  0  0  0  0  0  0  0
  -30.5219  -17.4470   19.7424 O   0  0  0  0  0  0  0  0  0  0  0  0
  -20.8706  -27.0652   21.3278 O   0  0  0  0  0  0  0  0  0  1  0  0
  -29.7649  -22.7794   20.9245 F   0  0  0  0  0  0  0  0  0  0  0  0
  -18.6861  -17.5886   20.9282 F   0  0  0  0  0  0  0  0  0  0  0  0
  -28.5705  -18.9222   18.4545 F   0  0  0  0  0  0  0  0  0  0  0  0
  -20.5390  -15.2926   25.0784 Cl  0  0  0  0  0  0  0  0  0  0  0  0
  1  2  1  0  0  0  0
  1  5  2  0  0  0  0
  2  6  2  0  0  0  0
  3  8  2  0  0  0  0
  3 16  1  0  0  0  0
  4  9  1  0  0  0  0
  4 16  2  0  0  0  0
  5 18  1  0  0  0  0
  6 20  1  0  0  0  0
  7 10  2  0  0  0  0
  7 19  1  0  0  0  0
  8 25  1  0  0  0  0
  9 25  2  0  0  0  0
 10 26  1  0  0  0  0
 11 12  2  0  0  0  0
 11 27  1  0  0  0  0
 12 28  1  0  0  0  0
 13 21  1  0  0  0  0
 13 26  2  0  0  0  0
 14 22  1  0  0  0  0
 14 29  2  0  0  0  0
 15 28  2  0  0  0  0
 15 30  1  0  0  0  0
 16 32  1  0  0  0  0
 17 32  1  0  0  0  0
 17 33  2  0  0  0  0
 17 34  1  0  0  0  0
 18 20  2  0  0  0  0
 18 39  1  0  0  0  0
 19 21  2  0  0  0  0
 19 40  1  0  0  0  0
 20 48  1  0  0  0  0
 21 41  1  0  0  0  0
 22 23  2  0  0  0  0
 22 57  1  0  0  0  0
 23 31  1  0  0  0  0
 23 51  1  0  0  0  0
 24 29  1  0  0  0  0
 24 31  2  0  0  0  0
 24 73  1  0  0  0  0
 25 83  1  0  0  0  0
 26 84  1  0  0  0  0
 27 30  2  0  0  0  0
 27 83  1  0  0  0  0
 28 85  1  0  0  0  0
 29 86  1  0  0  0  0
 30 87  1  0  0  0  0
 31 88  1  0  0  0  0
 32 67  2  0  0  0  0
 33 68  1  0  0  0  0
 33 71  1  0  0  0  0
 34 72  1  0  0  0  0
 34 78  2  0  0  0  0
 35 49  1  0  0  0  0
 35 74  1  0  0  0  0
 35 79  2  0  0  0  0
 36 64  1  0  0  0  0
 36 69  1  0  0  0  0
 36 80  2  0  0  0  0
 37 65  1  0  0  0  0
 37 75  1  0  0  0  0
 37 81  2  0  0  0  0
 38 70  1  0  0  0  0
 38 73  1  0  0  0  0
 38 82  2  0  0  0  0
 39 42  1  0  0  0  0
 40 49  1  0  0  0  0
 41 69  1  0  0  0  0
 42 44  1  0  0  0  0
 43 45  1  0  0  0  0
 43 46  1  0  0  0  0
 44 48  1  0  0  0  0
 45 50  1  0  0  0  0
 46 70  1  0  0  0  0
 47 50  1  0  0  0  0
 47 70  1  0  0  0  0
 48 74  1  0  0  0  0
 49 69  1  0  0  0  0
 50 68  1  0  0  0  0
 52 65  1  0  0  0  0
 53 66  1  0  0  0  0
 54 66  1  0  0  0  0
 55 66  1  0  0  0  0
 56 76  1  0  0  0  0
 57 77  1  0  0  0  0
 58 59  1  0  0  0  0
 58 60  1  0  0  0  0
 59 61  1  0  0  0  0
 60 62  1  0  0  0  0
 61 63  1  0  0  0  0
 62 77  1  0  0  0  0
 63 84  1  0  0  0  0
 64 66  1  0  0  0  0
 64 75  1  0  0  0  0
 65 76  1  0  0  0  0
 67 68  1  0  0  0  0
M  CHG  2  76   1  77   1
M  ISO  4  38 100  63 101  73 100  84 101
M  END
> <Batch ID>
0022

> <Smiles>
CNC(C)C(=O)NC(C(=O)N1Cc2cc([101O:1][101CH2:1]CCCCCNCc3cc(F)c([100NH:0][100C:0](=O)N4CCCC(n5nc(-c6ccc(Oc7ccc(F)cc7F)cc6)c(C(N)=O)c5N)C4)c(Cl)c3C)ccc2CC1C(=O)NC1CCCc2ccccc21)C(C)(C)C

> <Shape>
0.305

> <Color>
0.079

> <Negative vol penalty>
0.000

$$$$

  -OEChem-04052316153D

 92102  0     1  0  0  0  0  0999 V2000
  -26.2076  -15.2583   13.7835 C   0  0  0  0  0  0  0  0  0  0  0  0
  -26.3655  -16.6375   13.6928 C   0  0  0  0  0  0  0  0  0  0  0  0
  -21.7188  -21.5110   21.0204 C   0  0  0  0  0  0  0  0  0  0  0  0
  -21.5738  -21.2606   18.6218 C   0  0  0  0  0  0  0  0  0  0  0  0
  -26.0758  -14.6535   15.0328 C   0  0  0  0  0  0  0  0  0  0  0  0
  -26.3905  -17.4130   14.8514 C   0  0  0  0  0  0  0  0  0  0  0  0
  -29.3698  -23.3505   17.5320 C   0  0  0  0  0  0  0  0  0  0  0  0
  -21.6317  -20.1270   21.1702 C   0  0  0  0  0  0  0  0  0  0  0  0
  -21.4868  -19.8765   18.7716 C   0  0  0  0  0  0  0  0  0  0  0  0
  -29.0160  -24.5441   18.1598 C   0  0  0  0  0  0  0  0  0  0  0  0
  -19.1250  -17.6042   19.6019 C   0  0  0  0  0  0  0  0  0  0  0  0
  -18.1609  -16.9306   18.8520 C   0  0  0  0  0  0  0  0  0  0  0  0
  -28.8586  -23.3816   20.2677 C   0  0  0  0  0  0  0  0  0  0  0  0
  -19.8968  -15.6285   17.7899 C   0  0  0  0  0  0  0  0  0  0  0  0
  -21.6898  -22.0778   19.7462 C   0  0  0  0  0  0  0  0  0  0  0  0
  -20.8973  -24.4755   20.1077 C   0  0  0  0  0  0  0  0  0  0  0  0
  -26.1089  -15.4209   16.2078 C   0  0  0  0  0  0  0  0  0  0  0  0
  -29.4601  -22.1595   18.2666 C   0  0  0  0  0  0  0  0  0  0  0  0
  -26.2577  -16.8181   16.1176 C   0  0  0  0  0  0  0  0  0  0  0  0
  -29.2162  -22.1748   19.6473 C   0  0  0  0  0  0  0  0  0  0  0  0
  -24.7720  -31.0174   21.9742 C   0  0  0  0  0  0  0  0  0  0  0  0
  -26.7667  -29.6459   21.9852 C   0  0  0  0  0  0  0  0  0  0  0  0
  -25.1019  -31.4712   23.2623 C   0  0  0  0  0  0  0  0  0  0  0  0
  -27.0869  -30.1123   23.2620 C   0  0  0  0  0  0  0  0  0  0  0  0
  -26.2589  -31.0292   23.8979 C   0  0  0  0  0  0  0  0  0  0  0  0
  -25.6218  -30.1051   21.3134 C   0  0  0  0  0  0  0  0  0  0  0  0
  -21.5157  -19.3097   20.0458 C   0  0  0  0  0  0  0  0  0  0  0  0
  -28.7576  -24.5592   19.5273 C   0  0  0  0  0  0  0  0  0  0  0  0
  -20.4750  -17.2900   19.4458 C   0  0  0  0  0  0  0  0  0  0  0  0
  -18.5467  -15.9427   17.9460 C   0  0  0  0  0  0  0  0  0  0  0  0
  -20.8609  -16.3021   18.5398 C   0  0  0  0  0  0  0  0  0  0  0  0
  -21.7792  -23.5075   19.5909 C   0  0  0  0  0  0  0  0  0  0  0  0
  -21.4169  -25.6743   19.6842 C   0  0  0  0  0  0  0  0  0  0  0  0
  -19.7143  -24.3062   20.8998 C   0  0  0  0  0  0  0  0  0  0  0  0
  -27.9585  -19.3589   18.1923 C   0  0  0  0  0  0  0  0  0  0  0  0
  -30.1721  -18.5535   20.4225 C   0  0  0  0  0  0  0  0  0  0  0  0
  -32.3503  -19.5746   22.8432 C   0  0  0  0  0  0  0  0  0  0  0  0
  -26.1169  -28.8363   19.2015 C   0  0  0  0  0  0  0  0  0  0  0  0
  -25.9150  -14.7277   17.5332 C   0  0  0  0  0  0  0  0  0  0  0  0
  -29.8690  -20.8855   17.5794 C   0  0  0  0  0  0  0  0  0  0  0  0
  -23.4739  -31.4859   21.3660 C   0  0  0  0  0  0  0  0  0  0  0  0
  -29.3193  -20.9272   20.4847 C   0  0  0  0  0  0  0  0  0  0  0  0
  -26.3278  -15.5785   18.7316 C   0  0  0  0  0  0  0  0  0  0  0  0
  -23.3974  -31.2079   19.8724 C   0  0  0  0  0  0  0  0  0  0  0  0
  -25.0455  -26.7365   16.3450 C   0  0  0  0  0  0  0  0  0  0  0  0
  -27.2987  -27.2139   22.4354 C   0  0  0  0  0  0  0  0  0  0  0  0
  -29.0769  -28.7325   21.4425 C   0  0  0  0  0  0  0  0  0  0  0  0
  -25.7662  -16.9908   18.6024 C   0  0  0  0  0  0  0  0  0  0  0  0
  -24.0949  -25.7360   16.9991 C   0  0  0  0  0  0  0  0  0  0  0  0
  -28.4672  -26.2217   22.4895 C   0  0  0  0  0  0  0  0  0  0  0  0
  -29.8495  -27.5561   20.8316 C   0  0  0  0  0  0  0  0  0  0  0  0
  -23.8897  -29.8020   19.5770 C   0  0  0  0  0  0  0  0  0  0  0  0
  -26.1076  -27.2296   17.3224 C   0  0  0  0  0  0  0  0  0  0  0  0
  -24.5822  -26.8139   19.2321 C   0  0  0  0  0  0  0  0  0  0  0  0
  -27.5733  -28.4396   21.5404 C   0  0  0  0  0  0  0  0  0  0  0  0
  -26.3146  -17.6904   17.3529 C   0  0  1  0  0  0  0  0  0  0  0  0
  -29.4293  -19.6332   18.3316 C   0  0  1  0  0  0  0  0  0  0  0  0
  -23.4806  -26.3287   18.2777 C   0  0  2  0  0  0  0  0  0  0  0  0
  -29.2683  -26.1835   21.1926 C   0  0  0  0  0  0  0  0  0  1  0  0
  -24.2036  -32.4297   23.9851 C   0  0  0  0  0  0  0  0  0  0  0  0
  -28.3036  -29.6042   23.9740 C   0  0  0  0  0  0  0  0  0  0  0  0
  -33.9926  -18.6836   24.5185 C   0  0  0  0  0  0  0  0  0  0  0  0
  -25.4814  -31.1567   26.2906 C   0  0  0  0  0  0  0  0  0  0  0  0
  -26.7654  -33.0725   25.2818 C   0  0  0  0  0  0  0  0  0  0  0  0
  -27.9238  -30.9533   25.8723 C   0  0  0  0  0  0  0  0  0  0  0  0
  -27.8640  -17.6783   22.2160 C   0  0  0  0  0  0  0  0  0  0  0  0
  -29.4499  -17.7076   24.1531 C   0  0  0  0  0  0  0  0  0  0  0  0
  -29.8442  -16.1509   22.2441 C   0  0  0  0  0  0  0  0  0  0  0  0
  -34.5988  -21.0329   21.5878 C   0  0  0  0  0  0  0  0  0  0  0  0
  -30.2481  -18.6267   21.9284 C   0  0  1  0  0  0  0  0  0  0  0  0
  -33.8020  -19.2179   23.1075 C   0  0  2  0  0  0  0  0  0  0  0  0
  -26.5996  -31.5229   25.2687 C   0  0  0  0  0  0  0  0  0  0  0  0
  -29.3476  -17.5642   22.6196 C   0  0  0  0  0  0  0  0  0  0  0  0
  -22.7828  -24.0449   18.8923 N   0  0  0  0  0  0  0  0  0  0  0  0
  -22.5347  -25.3636   18.9671 N   0  0  0  0  0  0  0  0  0  0  0  0
  -25.2815  -29.6364   19.9970 N   0  0  0  0  0  0  0  0  0  0  0  0
  -29.7162  -19.7053   19.7657 N   0  0  0  0  0  0  0  0  0  0  0  0
  -25.5147  -27.7349   18.5615 N   0  0  0  0  0  0  0  0  0  0  0  0
  -21.0221  -26.9534   19.8588 N   0  0  0  0  0  0  0  0  0  0  0  0
  -18.4855  -24.1582   20.2423 N   0  0  0  0  0  0  0  0  0  0  0  0
  -27.6663  -18.1527   17.5847 N   0  0  0  0  0  0  0  0  0  0  0  0
  -31.6626  -18.5252   22.2712 N   0  0  0  0  0  0  0  0  0  0  0  0
  -34.6693  -20.4180   22.9383 N   0  3  0  0  0  0  0  0  0  0  0  0
  -19.7438  -24.3033   22.1539 O   0  0  0  0  0  0  0  0  0  0  0  0
  -27.1488  -20.1800   18.6068 O   0  0  0  0  0  0  0  0  0  0  0  0
  -30.5117  -17.5152   19.8496 O   0  0  0  0  0  0  0  0  0  0  0  0
  -31.8731  -20.6728   23.1202 O   0  0  0  0  0  0  0  0  0  0  0  0
  -27.3322  -29.0561   19.1274 O   0  0  0  0  0  0  0  0  0  0  0  0
  -21.4309  -17.9591   20.1915 O   0  0  0  0  0  0  0  0  0  0  0  0
  -28.4092  -25.7302   20.1464 O   0  0  0  0  0  0  0  0  0  1  0  0
  -17.6207  -15.2949   17.2271 F   0  0  0  0  0  0  0  0  0  0  0  0
  -22.1563  -15.9950   18.3863 F   0  0  0  0  0  0  0  0  0  0  0  0
  1  2  1  0  0  0  0
  1  5  2  0  0  0  0
  2  6  2  0  0  0  0
  3  8  2  0  0  0  0
  3 15  1  0  0  0  0
  4  9  1  0  0  0  0
  4 15  2  0  0  0  0
  5 17  1  0  0  0  0
  6 19  1  0  0  0  0
  7 10  2  0  0  0  0
  7 18  1  0  0  0  0
  8 27  1  0  0  0  0
  9 27  2  0  0  0  0
 10 28  1  0  0  0  0
 11 12  2  0  0  0  0
 11 29  1  0  0  0  0
 12 30  1  0  0  0  0
 13 20  1  0  0  0  0
 13 28  2  0  0  0  0
 14 30  2  0  0  0  0
 14 31  1  0  0  0  0
 15 32  1  0  0  0  0
 16 32  1  0  0  0  0
 16 33  2  0  0  0  0
 16 34  1  0  0  0  0
 17 19  2  0  0  0  0
 17 39  1  0  0  0  0
 18 20  2  0  0  0  0
 18 40  1  0  0  0  0
 19 56  1  0  0  0  0
 20 42  1  0  0  0  0
 21 23  2  0  0  0  0
 21 26  1  0  0  0  0
 21 41  1  0  0  0  0
 22 24  1  0  0  0  0
 22 26  2  0  0  0  0
 22 55  1  0  0  0  0
 23 25  1  0  0  0  0
 23 60  1  0  0  0  0
 24 25  2  0  0  0  0
 24 61  1  0  0  0  0
 25 72  1  0  0  0  0
 26 76  1  0  0  0  0
 27 89  1  0  0  0  0
 28 90  1  0  0  0  0
 29 31  2  0  0  0  0
 29 89  1  0  0  0  0
 30 91  1  0  0  0  0
 31 92  1  0  0  0  0
 32 74  2  0  0  0  0
 33 75  1  0  0  0  0
 33 79  1  0  0  0  0
 34 80  1  0  0  0  0
 34 84  2  0  0  0  0
 35 57  1  0  0  0  0
 35 81  1  0  0  0  0
 35 85  2  0  0  0  0
 36 70  1  0  0  0  0
 36 77  1  0  0  0  0
 36 86  2  0  0  0  0
 37 71  1  0  0  0  0
 37 82  1  0  0  0  0
 37 87  2  0  0  0  0
 38 76  1  0  0  0  0
 38 78  1  0  0  0  0
 38 88  2  0  0  0  0
 39 43  1  0  0  0  0
 40 57  1  0  0  0  0
 41 44  1  0  0  0  0
 42 77  1  0  0  0  0
 43 48  1  0  0  0  0
 44 52  1  0  0  0  0
 45 49  1  0  0  0  0
 45 53  1  0  0  0  0
 46 50  1  0  0  0  0
 46 55  1  0  0  0  0
 47 51  1  0  0  0  0
 47 55  1  0  0  0  0
 48 56  1  0  0  0  0
 49 58  1  0  0  0  0
 50 59  1  0  0  0  0
 51 59  1  0  0  0  0
 52 76  1  0  0  0  0
 53 78  1  0  0  0  0
 54 58  1  0  0  0  0
 54 78  1  0  0  0  0
 56 81  1  0  0  0  0
 57 77  1  0  0  0  0
 58 75  1  0  0  0  0
 59 90  1  0  0  0  0
 62 71  1  0  0  0  0
 63 72  1  0  0  0  0
 64 72  1  0  0  0  0
 65 72  1  0  0  0  0
 66 73  1  0  0  0  0
 67 73  1  0  0  0  0
 68 73  1  0  0  0  0
 69 83  1  0  0  0  0
 70 73  1  0  0  0  0
 70 82  1  0  0  0  0
 71 83  1  0  0  0  0
 74 75  1  0  0  0  0
M  CHG  1  83   1
M  ISO  4  38 100  59 101  76 100  90 101
M  END
> <Batch ID>
0022

> <Smiles>
CNC(C)C(=O)NC(C(=O)N1Cc2cc([101O:1][101CH:1]3CCC(c4c(C)c(C(C)(C)C)c(C)c5c4[100N:0]([100C:0](=O)N4CCCC(n6nc(-c7ccc(Oc8ccc(F)cc8F)cc7)c(C(N)=O)c6N)C4)CCC5)CC3)ccc2CC1C(=O)NC1CCCc2ccccc21)C(C)(C)C

> <Shape>
0.210

> <Color>
0.054

> <Negative vol penalty>
0.000

$$$$

  -OEChem-04052316153D

 90 98  0     1  0  0  0  0  0999 V2000
  -31.9066  -31.7435   24.1916 C   0  0  0  0  0  0  0  0  0  0  0  0
  -30.9426  -30.8659   23.7058 C   0  0  0  0  0  0  0  0  0  0  0  0
  -24.2025   -9.8577   22.1343 C   0  0  0  0  0  0  0  0  0  0  0  0
  -24.5150  -11.3078   24.0413 C   0  0  0  0  0  0  0  0  0  0  0  0
  -31.5806  -32.6438   25.2051 C   0  0  0  0  0  0  0  0  0  0  0  0
  -29.6524  -30.8873   24.2341 C   0  0  0  0  0  0  0  0  0  0  0  0
  -26.0815  -30.6915   20.6487 C   0  0  0  0  0  0  0  0  0  0  0  0
  -23.7592   -8.8410   22.9801 C   0  0  0  0  0  0  0  0  0  0  0  0
  -24.0717  -10.2910   24.8871 C   0  0  0  0  0  0  0  0  0  0  0  0
  -25.8195  -29.4466   20.0782 C   0  0  0  0  0  0  0  0  0  0  0  0
  -20.9194   -8.0325   24.6278 C   0  0  0  0  0  0  0  0  0  0  0  0
  -19.7789   -7.3249   24.2484 C   0  0  0  0  0  0  0  0  0  0  0  0
  -23.8840  -29.2099   21.4984 C   0  0  0  0  0  0  0  0  0  0  0  0
  -27.8923  -19.1152   16.8527 C   0  0  0  0  0  0  0  0  0  0  0  0
  -21.0589   -5.2759   24.2223 C   0  0  0  0  0  0  0  0  0  0  0  0
  -24.5805  -11.0911   22.6650 C   0  0  0  0  0  0  0  0  0  0  0  0
  -24.2557  -13.1311   21.1681 C   0  0  0  0  0  0  0  0  0  0  0  0
  -30.2831  -32.6828   25.7394 C   0  0  0  0  0  0  0  0  0  0  0  0
  -25.2515  -31.2009   21.6576 C   0  0  0  0  0  0  0  0  0  0  0  0
  -29.3091  -31.7880   25.2567 C   0  0  0  0  0  0  0  0  0  0  0  0
  -24.1361  -30.4626   22.0782 C   0  0  0  0  0  0  0  0  0  0  0  0
  -27.9829  -19.6228   18.1440 C   0  0  0  0  0  0  0  0  0  0  0  0
  -23.6938   -9.0576   24.3564 C   0  0  0  0  0  0  0  0  0  0  0  0
  -24.7223  -28.7043   20.5051 C   0  0  0  0  0  0  0  0  0  0  0  0
  -22.1297   -7.3619   24.8045 C   0  0  0  0  0  0  0  0  0  0  0  0
  -19.8486   -5.9466   24.0457 C   0  0  0  0  0  0  0  0  0  0  0  0
  -22.1995   -5.9836   24.6018 C   0  0  0  0  0  0  0  0  0  0  0  0
  -29.0919  -19.3223   18.9269 C   0  0  0  0  0  0  0  0  0  0  0  0
  -25.0390  -12.1416   21.7919 C   0  0  0  0  0  0  0  0  0  0  0  0
  -28.9293  -18.3184   16.3949 C   0  0  0  0  0  0  0  0  0  0  0  0
  -30.0751  -18.5160   18.3763 C   0  0  0  0  0  0  0  0  0  0  0  0
  -25.1563  -13.8808   20.4515 C   0  0  0  0  0  0  0  0  0  0  0  0
  -22.8406  -13.3529   21.2309 C   0  0  0  0  0  0  0  0  0  0  0  0
  -25.6629  -32.0149   24.7026 C   0  0  0  0  0  0  0  0  0  0  0  0
  -22.6038  -33.0593   24.4314 C   0  0  0  0  0  0  0  0  0  0  0  0
  -19.6023  -32.8480   22.8212 C   0  0  0  0  0  0  0  0  0  0  0  0
  -30.8005  -15.0357   21.0968 C   0  0  0  0  0  0  0  0  0  0  0  0
  -29.9907  -33.6411   26.8667 C   0  0  0  0  0  0  0  0  0  0  0  0
  -25.5324  -32.5573   22.2440 C   0  0  0  0  0  0  0  0  0  0  0  0
  -23.2027  -30.9738   23.1439 C   0  0  0  0  0  0  0  0  0  0  0  0
  -28.4995  -33.8557   27.1124 C   0  0  0  0  0  0  0  0  0  0  0  0
  -29.3684  -13.5674   18.2219 C   0  0  0  0  0  0  0  0  0  0  0  0
  -27.7643  -32.5193   27.1340 C   0  0  0  0  0  0  0  0  0  0  0  0
  -28.0090  -13.1189   18.7565 C   0  0  0  0  0  0  0  0  0  0  0  0
  -30.4895  -13.3369   19.2371 C   0  0  0  0  0  0  0  0  0  0  0  0
  -28.8672  -13.4883   21.0993 C   0  0  0  0  0  0  0  0  0  0  0  0
  -27.8918  -31.7977   25.7870 C   0  0  1  0  0  0  0  0  0  0  0  0
  -24.9158  -32.7501   23.6260 C   0  0  1  0  0  0  0  0  0  0  0  0
  -27.7144  -13.7643   20.1216 C   0  0  2  0  0  0  0  0  0  0  0  0
  -28.8662  -17.7566   15.0138 C   0  0  0  0  0  0  0  0  0  0  0  0
  -17.2805  -33.7998   22.8492 C   0  0  0  0  0  0  0  0  0  0  0  0
  -21.9386  -31.3582   26.8755 C   0  0  0  0  0  0  0  0  0  0  0  0
  -19.5158  -31.5837   26.2864 C   0  0  0  0  0  0  0  0  0  0  0  0
  -20.8552  -33.6120   26.8470 C   0  0  0  0  0  0  0  0  0  0  0  0
  -33.0730  -14.1183   20.4653 C   0  0  0  0  0  0  0  0  0  0  0  0
  -19.8837  -33.9201   20.0770 C   0  0  0  0  0  0  0  0  0  0  0  0
  -26.8594  -20.4915   18.6512 C   0  0  0  0  0  0  0  0  0  0  0  0
  -27.1724  -21.9917   18.6166 C   0  0  0  0  0  0  0  0  0  0  0  0
  -26.0238  -22.8562   19.1485 C   0  0  0  0  0  0  0  0  0  0  0  0
  -26.3931  -24.3418   19.1225 C   0  0  0  0  0  0  0  0  0  0  0  0
  -25.2555  -25.2558   19.5789 C   0  0  0  0  0  0  0  0  0  0  0  0
  -33.3276  -17.1431   19.7531 C   0  0  0  0  0  0  0  0  0  0  0  0
  -32.2738  -17.3738   18.6705 C   0  0  0  0  0  0  0  0  0  0  0  0
  -32.7808  -16.5026   21.0270 C   0  0  0  0  0  0  0  0  0  0  0  0
  -25.5841  -26.7393   19.4793 C   0  0  0  0  0  0  0  0  0  1  0  0
  -21.2414  -32.4430   24.6388 C   0  0  1  0  0  0  0  0  0  0  0  0
  -18.6798  -33.9179   22.2655 C   0  0  2  0  0  0  0  0  0  0  0  0
  -20.9063  -32.2384   26.1432 C   0  0  0  0  0  0  0  0  0  0  0  0
  -26.3373  -12.2501   21.4973 N   0  0  0  0  0  0  0  0  0  0  0  0
  -30.0222  -18.0046   17.1260 N   0  0  0  0  0  0  0  0  0  0  0  0
  -26.3767  -13.3165   20.6805 N   0  0  0  0  0  0  0  0  0  0  0  0
  -23.5231  -32.3026   23.6910 N   0  0  0  0  0  0  0  0  0  0  0  0
  -30.1472  -13.9273   20.5382 N   0  0  0  0  0  0  0  0  0  0  0  0
  -25.0154  -14.9610   19.6542 N   0  0  0  0  0  0  0  0  0  0  0  0
  -22.0631  -12.4891   22.0142 N   0  0  0  0  0  0  0  0  0  0  0  0
  -31.2141  -18.1962   19.1562 N   0  0  0  0  0  0  0  0  0  0  0  0
  -26.9911  -32.3793   24.8149 N   0  0  0  0  0  0  0  0  0  0  0  0
  -20.2953  -33.2949   23.9263 N   0  0  0  0  0  0  0  0  0  0  0  0
  -32.1547  -15.2123   20.7755 N   0  0  0  0  0  0  0  0  0  0  0  0
  -18.5823  -33.7989   20.7832 N   0  3  0  0  0  0  0  0  0  0  0  0
  -22.2800  -14.2793   20.5976 O   0  0  0  0  0  0  0  0  0  0  0  0
  -25.0774  -31.1801   25.3821 O   0  0  0  0  0  0  0  0  0  0  0  0
  -22.8413  -34.1742   24.9027 O   0  0  0  0  0  0  0  0  0  0  0  0
  -19.6958  -31.7267   22.3268 O   0  0  0  0  0  0  0  0  0  0  0  0
  -30.2093  -15.8215   21.8487 O   0  0  0  0  0  0  0  0  0  0  0  0
  -23.2610   -8.0658   25.1820 O   0  0  0  0  0  0  0  0  0  0  0  0
  -24.4647  -27.4886   19.9505 O   0  0  0  0  0  0  0  0  0  1  0  0
  -18.7530   -5.2669   23.6828 F   0  0  0  0  0  0  0  0  0  0  0  0
  -23.3591   -5.3337   24.7711 F   0  0  0  0  0  0  0  0  0  0  0  0
  -29.2218  -19.9448   20.5344 Cl  0  0  0  0  0  0  0  0  0  0  0  0
  1  2  1  0  0  0  0
  1  5  2  0  0  0  0
  2  6  2  0  0  0  0
  3  8  2  0  0  0  0
  3 16  1  0  0  0  0
  4  9  1  0  0  0  0
  4 16  2  0  0  0  0
  5 18  1  0  0  0  0
  6 20  1  0  0  0  0
  7 10  2  0  0  0  0
  7 19  1  0  0  0  0
  8 23  1  0  0  0  0
  9 23  2  0  0  0  0
 10 24  1  0  0  0  0
 11 12  2  0  0  0  0
 11 25  1  0  0  0  0
 12 26  1  0  0  0  0
 13 21  1  0  0  0  0
 13 24  2  0  0  0  0
 14 22  1  0  0  0  0
 14 30  2  0  0  0  0
 15 26  2  0  0  0  0
 15 27  1  0  0  0  0
 16 29  1  0  0  0  0
 17 29  1  0  0  0  0
 17 32  2  0  0  0  0
 17 33  1  0  0  0  0
 18 20  2  0  0  0  0
 18 38  1  0  0  0  0
 19 21  2  0  0  0  0
 19 39  1  0  0  0  0
 20 47  1  0  0  0  0
 21 40  1  0  0  0  0
 22 28  2  0  0  0  0
 22 57  1  0  0  0  0
 23 86  1  0  0  0  0
 24 87  1  0  0  0  0
 25 27  2  0  0  0  0
 25 86  1  0  0  0  0
 26 88  1  0  0  0  0
 27 89  1  0  0  0  0
 28 31  1  0  0  0  0
 28 90  1  0  0  0  0
 29 69  2  0  0  0  0
 30 50  1  0  0  0  0
 30 70  1  0  0  0  0
 31 70  2  0  0  0  0
 31 76  1  0  0  0  0
 32 71  1  0  0  0  0
 32 74  1  0  0  0  0
 33 75  1  0  0  0  0
 33 81  2  0  0  0  0
 34 48  1  0  0  0  0
 34 77  1  0  0  0  0
 34 82  2  0  0  0  0
 35 66  1  0  0  0  0
 35 72  1  0  0  0  0
 35 83  2  0  0  0  0
 36 67  1  0  0  0  0
 36 78  1  0  0  0  0
 36 84  2  0  0  0  0
 37 73  1  0  0  0  0
 37 79  1  0  0  0  0
 37 85  2  0  0  0  0
 38 41  1  0  0  0  0
 39 48  1  0  0  0  0
 40 72  1  0  0  0  0
 41 43  1  0  0  0  0
 42 44  1  0  0  0  0
 42 45  1  0  0  0  0
 43 47  1  0  0  0  0
 44 49  1  0  0  0  0
 45 73  1  0  0  0  0
 46 49  1  0  0  0  0
 46 73  1  0  0  0  0
 47 77  1  0  0  0  0
 48 72  1  0  0  0  0
 49 71  1  0  0  0  0
 51 67  1  0  0  0  0
 52 68  1  0  0  0  0
 53 68  1  0  0  0  0
 54 68  1  0  0  0  0
 55 79  1  0  0  0  0
 56 80  1  0  0  0  0
 57 58  1  0  0  0  0
 58 59  1  0  0  0  0
 59 60  1  0  0  0  0
 60 61  1  0  0  0  0
 61 65  1  0  0  0  0
 62 63  1  0  0  0  0
 62 64  1  0  0  0  0
 63 76  1  0  0  0  0
 64 79  1  0  0  0  0
 65 87  1  0  0  0  0
 66 68  1  0  0  0  0
 66 78  1  0  0  0  0
 67 80  1  0  0  0  0
 69 71  1  0  0  0  0
M  CHG  1  80   1
M  ISO  4  37 100  65 101  79 100  87 101
M  END
> <Batch ID>
0022

> <Smiles>
CNC(C)C(=O)NC(C(=O)N1Cc2cc([101O:1][101CH2:1]CCCCCc3cc(C)nc(NCCC[100N:0](C)[100C:0](=O)N4CCCC(n5nc(-c6ccc(Oc7ccc(F)cc7F)cc6)c(C(N)=O)c5N)C4)c3Cl)ccc2CC1C(=O)NC1CCCc2ccccc21)C(C)(C)C

> <Shape>
0.272

> <Color>
0.103

> <Negative vol penalty>
0.000

$$$$

  -OEChem-04052316153D

 83 91  0     1  0  0  0  0  0999 V2000
  -17.7285  -27.6905   19.3168 C   0  0  0  0  0  0  0  0  0  0  0  0
  -19.0549  -27.9235   18.9678 C   0  0  0  0  0  0  0  0  0  0  0  0
  -26.9478  -12.8500   21.0695 C   0  0  0  0  0  0  0  0  0  0  0  0
  -26.7036  -13.3565   18.7198 C   0  0  0  0  0  0  0  0  0  0  0  0
  -17.3484  -27.7081   20.6581 C   0  0  0  0  0  0  0  0  0  0  0  0
  -20.0018  -28.1754   19.9600 C   0  0  0  0  0  0  0  0  0  0  0  0
  -24.3024  -25.6003   19.2396 C   0  0  0  0  0  0  0  0  0  0  0  0
  -26.3496  -11.6068   20.8637 C   0  0  0  0  0  0  0  0  0  0  0  0
  -26.1055  -12.1132   18.5140 C   0  0  0  0  0  0  0  0  0  0  0  0
  -25.1866  -26.0930   18.2809 C   0  0  0  0  0  0  0  0  0  0  0  0
  -24.5603   -8.4450   21.0212 C   0  0  0  0  0  0  0  0  0  0  0  0
  -23.5872   -8.0331   21.9316 C   0  0  0  0  0  0  0  0  0  0  0  0
  -26.5134  -27.0955   20.0284 C   0  0  0  0  0  0  0  0  0  0  0  0
  -22.2500   -9.9675   21.3773 C   0  0  0  0  0  0  0  0  0  0  0  0
  -31.0198  -24.7268   17.7099 C   0  0  0  0  0  0  0  0  0  0  0  0
  -27.1247  -13.7249   19.9976 C   0  0  0  0  0  0  0  0  0  0  0  0
  -29.1137  -15.3165   20.1330 C   0  0  0  0  0  0  0  0  0  0  0  0
  -18.2929  -27.9507   21.6679 C   0  0  0  0  0  0  0  0  0  0  0  0
  -24.5115  -25.8611   20.6015 C   0  0  0  0  0  0  0  0  0  0  0  0
  -19.6337  -28.1975   21.3160 C   0  0  0  0  0  0  0  0  0  0  0  0
  -25.6318  -26.6028   21.0026 C   0  0  0  0  0  0  0  0  0  0  0  0
  -29.7097  -24.7494   17.2595 C   0  0  0  0  0  0  0  0  0  0  0  0
  -29.3236  -22.7702   18.5703 C   0  0  0  0  0  0  0  0  0  0  0  0
  -25.9285  -11.2384   19.5860 C   0  0  0  0  0  0  0  0  0  0  0  0
  -26.2907  -26.8431   18.6749 C   0  0  0  0  0  0  0  0  0  0  0  0
  -24.3784   -9.6181   20.2888 C   0  0  0  0  0  0  0  0  0  0  0  0
  -22.4320   -8.7943   22.1097 C   0  0  0  0  0  0  0  0  0  0  0  0
  -23.2232  -10.3794   20.4669 C   0  0  0  0  0  0  0  0  0  0  0  0
  -28.8518  -23.7489   17.7026 C   0  0  0  0  0  0  0  0  0  0  0  0
  -27.7419  -15.0094   20.2096 C   0  0  0  0  0  0  0  0  0  0  0  0
  -30.6510  -22.8361   18.9619 C   0  0  0  0  0  0  0  0  0  0  0  0
  -29.1812  -16.6591   20.4145 C   0  0  0  0  0  0  0  0  0  0  0  0
  -30.2272  -14.4642   19.8341 C   0  0  0  0  0  0  0  0  0  0  0  0
  -22.8872  -27.3864   22.8684 C   0  0  0  0  0  0  0  0  0  0  0  0
  -25.2283  -26.2195   24.7866 C   0  0  0  0  0  0  0  0  0  0  0  0
  -28.4212  -25.0501   25.0777 C   0  0  0  0  0  0  0  0  0  0  0  0
  -27.3128  -21.8669   19.7898 C   0  0  0  0  0  0  0  0  0  0  0  0
  -17.8256  -28.0065   23.1008 C   0  0  0  0  0  0  0  0  0  0  0  0
  -23.5631  -25.2999   21.6252 C   0  0  0  0  0  0  0  0  0  0  0  0
  -25.9123  -26.8936   22.4536 C   0  0  0  0  0  0  0  0  0  0  0  0
  -18.9615  -27.9101   24.1160 C   0  0  0  0  0  0  0  0  0  0  0  0
  -25.6645  -19.8311   22.2014 C   0  0  0  0  0  0  0  0  0  0  0  0
  -20.1062  -28.8399   23.7264 C   0  0  0  0  0  0  0  0  0  0  0  0
  -26.1709  -18.4204   21.8919 C   0  0  0  0  0  0  0  0  0  0  0  0
  -25.4674  -20.6546   20.9299 C   0  0  0  0  0  0  0  0  0  0  0  0
  -27.1406  -19.3013   19.7307 C   0  0  0  0  0  0  0  0  0  0  0  0
  -20.6948  -28.4498   22.3651 C   0  0  1  0  0  0  0  0  0  0  0  0
  -23.5914  -26.0615   22.9468 C   0  0  1  0  0  0  0  0  0  0  0  0
  -27.4162  -18.4552   20.9844 C   0  0  2  0  0  0  0  0  0  0  0  0
  -31.2212  -21.8131   19.8902 C   0  0  0  0  0  0  0  0  0  0  0  0
  -30.0410  -25.7634   14.9897 C   0  0  0  0  0  0  0  0  0  0  0  0
  -30.0637  -24.2092   26.7784 C   0  0  0  0  0  0  0  0  0  0  0  0
  -25.6930  -29.0780   25.7476 C   0  0  0  0  0  0  0  0  0  0  0  0
  -27.8955  -28.3336   26.6765 C   0  0  0  0  0  0  0  0  0  0  0  0
  -25.7778  -27.3450   27.5488 C   0  0  0  0  0  0  0  0  0  0  0  0
  -28.6255  -22.4141   23.7477 C   0  0  0  0  0  0  0  0  0  0  0  0
  -29.4092  -27.2617   16.9194 C   0  0  0  0  0  0  0  0  0  0  0  0
  -28.5168  -27.4841   18.1368 C   0  0  0  0  0  0  0  0  0  1  0  0
  -29.2699  -25.8523   16.3122 C   0  0  2  0  0  0  0  0  0  0  0  0
  -26.5833  -26.7086   25.2384 C   0  0  1  0  0  0  0  0  0  0  0  0
  -28.9860  -23.8263   25.7762 C   0  0  2  0  0  0  0  0  0  0  0  0
  -26.4813  -27.8626   26.2753 C   0  0  0  0  0  0  0  0  0  0  0  0
  -31.5144  -23.7926   18.5527 N   0  0  0  0  0  0  0  0  0  0  0  0
  -26.9921  -16.0715   20.5159 N   0  0  0  0  0  0  0  0  0  0  0  0
  -27.8960  -17.0590   20.6344 N   0  0  0  0  0  0  0  0  0  0  0  0
  -24.9525  -26.3284   23.4163 N   0  0  0  0  0  0  0  0  0  0  0  0
  -26.6891  -20.6458   20.1224 N   0  0  0  0  0  0  0  0  0  0  0  0
  -30.2141  -17.5248   20.4931 N   0  0  0  0  0  0  0  0  0  0  0  0
  -29.9801  -13.1104   19.5687 N   0  0  0  0  0  0  0  0  0  0  0  0
  -28.4851  -21.7321   19.0468 N   0  0  0  0  0  0  0  0  0  0  0  0
  -21.5585  -27.2965   22.4996 N   0  0  0  0  0  0  0  0  0  0  0  0
  -27.3013  -25.5337   25.7205 N   0  0  0  0  0  0  0  0  0  0  0  0
  -29.5810  -22.8903   24.7808 N   0  3  0  0  0  0  0  0  0  0  0  0
  -31.4081  -14.8872   19.8193 O   0  0  0  0  0  0  0  0  0  0  0  0
  -23.5033  -28.4142   23.1250 O   0  0  0  0  0  0  0  0  0  0  0  0
  -24.4464  -25.7514   25.6179 O   0  0  0  0  0  0  0  0  0  0  0  0
  -28.9254  -25.5313   24.0654 O   0  0  0  0  0  0  0  0  0  0  0  0
  -26.8564  -22.9511   20.1617 O   0  0  0  0  0  0  0  0  0  0  0  0
  -25.3451  -10.0253   19.3848 O   0  0  0  0  0  0  0  0  0  0  0  0
  -27.1549  -27.3258   17.7411 O   0  0  0  0  0  0  0  0  0  1  0  0
  -21.4968   -8.3979   22.9829 F   0  0  0  0  0  0  0  0  0  0  0  0
  -23.0422  -11.5067   19.7653 F   0  0  0  0  0  0  0  0  0  0  0  0
  -27.2033  -23.7297   17.1699 Cl  0  0  0  0  0  0  0  0  0  0  0  0
  1  2  1  0  0  0  0
  1  5  2  0  0  0  0
  2  6  2  0  0  0  0
  3  8  2  0  0  0  0
  3 16  1  0  0  0  0
  4  9  1  0  0  0  0
  4 16  2  0  0  0  0
  5 18  1  0  0  0  0
  6 20  1  0  0  0  0
  7 10  2  0  0  0  0
  7 19  1  0  0  0  0
  8 24  1  0  0  0  0
  9 24  2  0  0  0  0
 10 25  1  0  0  0  0
 11 12  2  0  0  0  0
 11 26  1  0  0  0  0
 12 27  1  0  0  0  0
 13 21  1  0  0  0  0
 13 25  2  0  0  0  0
 14 27  2  0  0  0  0
 14 28  1  0  0  0  0
 15 22  1  0  0  0  0
 15 63  2  0  0  0  0
 16 30  1  0  0  0  0
 17 30  1  0  0  0  0
 17 32  2  0  0  0  0
 17 33  1  0  0  0  0
 18 20  2  0  0  0  0
 18 38  1  0  0  0  0
 19 21  2  0  0  0  0
 19 39  1  0  0  0  0
 20 47  1  0  0  0  0
 21 40  1  0  0  0  0
 22 29  2  0  0  0  0
 22 59  1  0  0  0  0
 23 29  1  0  0  0  0
 23 31  2  0  0  0  0
 23 70  1  0  0  0  0
 24 79  1  0  0  0  0
 25 80  1  0  0  0  0
 26 28  2  0  0  0  0
 26 79  1  0  0  0  0
 27 81  1  0  0  0  0
 28 82  1  0  0  0  0
 29 83  1  0  0  0  0
 30 64  2  0  0  0  0
 31 50  1  0  0  0  0
 31 63  1  0  0  0  0
 32 65  1  0  0  0  0
 32 68  1  0  0  0  0
 33 69  1  0  0  0  0
 33 74  2  0  0  0  0
 34 48  1  0  0  0  0
 34 71  1  0  0  0  0
 34 75  2  0  0  0  0
 35 60  1  0  0  0  0
 35 66  1  0  0  0  0
 35 76  2  0  0  0  0
 36 61  1  0  0  0  0
 36 72  1  0  0  0  0
 36 77  2  0  0  0  0
 37 67  1  0  0  0  0
 37 70  1  0  0  0  0
 37 78  2  0  0  0  0
 38 41  1  0  0  0  0
 39 48  1  0  0  0  0
 40 66  1  0  0  0  0
 41 43  1  0  0  0  0
 42 44  1  0  0  0  0
 42 45  1  0  0  0  0
 43 47  1  0  0  0  0
 44 49  1  0  0  0  0
 45 67  1  0  0  0  0
 46 49  1  0  0  0  0
 46 67  1  0  0  0  0
 47 71  1  0  0  0  0
 48 66  1  0  0  0  0
 49 65  1  0  0  0  0
 51 59  1  0  0  0  0
 52 61  1  0  0  0  0
 53 62  1  0  0  0  0
 54 62  1  0  0  0  0
 55 62  1  0  0  0  0
 56 73  1  0  0  0  0
 57 58  1  0  0  0  0
 57 59  1  0  0  0  0
 58 80  1  0  0  0  0
 60 62  1  0  0  0  0
 60 72  1  0  0  0  0
 61 73  1  0  0  0  0
 64 65  1  0  0  0  0
M  CHG  1  73   1
M  ISO  4  37 100  58 101  70 100  80 101
M  END
> <Batch ID>
0022

> <Smiles>
CNC(C)C(=O)NC(C(=O)N1Cc2cc([101O:1][101CH2:1]CC(C)c3cnc(C)c([100NH:0][100C:0](=O)N4CCCC(n5nc(-c6ccc(Oc7ccc(F)cc7F)cc6)c(C(N)=O)c5N)C4)c3Cl)ccc2CC1C(=O)NC1CCCc2ccccc21)C(C)(C)C

> <Shape>
0.220

> <Color>
0.080

> <Negative vol penalty>
0.000

$$$$

  -OEChem-04052316153D

 86 94  0     1  0  0  0  0  0999 V2000
  -26.1129  -13.2443   24.4301 C   0  0  0  0  0  0  0  0  0  0  0  0
  -26.9263  -14.3158   24.7847 C   0  0  0  0  0  0  0  0  0  0  0  0
  -23.1994   -9.8519   19.9531 C   0  0  0  0  0  0  0  0  0  0  0  0
  -23.9127   -9.9297   22.2601 C   0  0  0  0  0  0  0  0  0  0  0  0
  -24.7309  -13.3369   24.5898 C   0  0  0  0  0  0  0  0  0  0  0  0
  -26.3579  -15.4811   25.2982 C   0  0  0  0  0  0  0  0  0  0  0  0
  -28.8573  -17.2468   29.3332 C   0  0  0  0  0  0  0  0  0  0  0  0
  -22.5071   -8.6679   20.2070 C   0  0  0  0  0  0  0  0  0  0  0  0
  -23.2203   -8.7457   22.5140 C   0  0  0  0  0  0  0  0  0  0  0  0
  -30.0436  -17.9392   29.0944 C   0  0  0  0  0  0  0  0  0  0  0  0
  -21.3434   -5.9358   23.8556 C   0  0  0  0  0  0  0  0  0  0  0  0
  -20.5672   -5.8730   25.0128 C   0  0  0  0  0  0  0  0  0  0  0  0
  -28.8714  -20.0297   29.3681 C   0  0  0  0  0  0  0  0  0  0  0  0
  -19.2455   -7.7366   24.2273 C   0  0  0  0  0  0  0  0  0  0  0  0
  -23.9022  -10.4828   20.9796 C   0  0  0  0  0  0  0  0  0  0  0  0
  -24.1244  -13.0195   20.8264 C   0  0  0  0  0  0  0  0  0  0  0  0
  -24.1462  -14.5003   25.1145 C   0  0  0  0  0  0  0  0  0  0  0  0
  -27.6648  -17.9420   29.5808 C   0  0  0  0  0  0  0  0  0  0  0  0
  -24.9667  -15.5898   25.4638 C   0  0  0  0  0  0  0  0  0  0  0  0
  -27.6718  -19.3438   29.6122 C   0  0  0  0  0  0  0  0  0  0  0  0
  -32.3645  -15.0157   23.6341 C   0  0  0  0  0  0  0  0  0  0  0  0
  -30.6356  -16.6858   23.3922 C   0  0  0  0  0  0  0  0  0  0  0  0
  -32.5227  -17.1019   24.8424 C   0  0  0  0  0  0  0  0  0  0  0  0
  -31.1592  -15.4337   23.0701 C   0  0  0  0  0  0  0  0  0  0  0  0
  -22.5176   -8.1148   21.4875 C   0  0  0  0  0  0  0  0  0  0  0  0
  -30.0502  -19.3309   29.1090 C   0  0  0  0  0  0  0  0  0  0  0  0
  -21.0708   -6.8991   22.8843 C   0  0  0  0  0  0  0  0  0  0  0  0
  -19.5182   -6.7734   25.1986 C   0  0  0  0  0  0  0  0  0  0  0  0
  -20.0218   -7.7995   23.0701 C   0  0  0  0  0  0  0  0  0  0  0  0
  -33.0462  -15.8498   24.5203 C   0  0  0  0  0  0  0  0  0  0  0  0
  -31.3173  -17.5199   24.2784 C   0  0  0  0  0  0  0  0  0  0  0  0
  -24.6180  -11.7056   20.7178 C   0  0  0  0  0  0  0  0  0  0  0  0
  -25.1862  -13.8155   20.4722 C   0  0  0  0  0  0  0  0  0  0  0  0
  -22.8226  -13.4793   21.2129 C   0  0  0  0  0  0  0  0  0  0  0  0
  -24.8444  -18.1461   28.1291 C   0  0  0  0  0  0  0  0  0  0  0  0
  -24.0610  -19.8939   30.7470 C   0  0  0  0  0  0  0  0  0  0  0  0
  -25.1026  -21.8469   33.3446 C   0  0  0  0  0  0  0  0  0  0  0  0
  -30.9356  -14.0837   20.9550 C   0  0  0  0  0  0  0  0  0  0  0  0
  -22.6437  -14.5714   25.2246 C   0  0  0  0  0  0  0  0  0  0  0  0
  -26.3990  -17.1800   29.8628 C   0  0  0  0  0  0  0  0  0  0  0  0
  -26.4227  -20.1369   29.8932 C   0  0  0  0  0  0  0  0  0  0  0  0
  -22.1518  -15.7010   26.1259 C   0  0  0  0  0  0  0  0  0  0  0  0
  -29.3618  -13.1190   17.9104 C   0  0  0  0  0  0  0  0  0  0  0  0
  -22.8826  -16.9999   25.8011 C   0  0  0  0  0  0  0  0  0  0  0  0
  -27.9294  -12.7843   18.3328 C   0  0  0  0  0  0  0  0  0  0  0  0
  -30.3787  -12.6972   18.9694 C   0  0  0  0  0  0  0  0  0  0  0  0
  -28.6792  -12.8670   20.7449 C   0  0  0  0  0  0  0  0  0  0  0  0
  -24.3898  -16.8613   26.0473 C   0  0  1  0  0  0  0  0  0  0  0  0
  -25.1382  -17.9960   29.5950 C   0  0  1  0  0  0  0  0  0  0  0  0
  -27.6140  -13.3320   19.7386 C   0  0  2  0  0  0  0  0  0  0  0  0
  -32.9482  -13.6793   23.3060 C   0  0  0  0  0  0  0  0  0  0  0  0
  -29.3396  -17.1213   22.7787 C   0  0  0  0  0  0  0  0  0  0  0  0
  -24.2279  -23.1621   35.2946 C   0  0  0  0  0  0  0  0  0  0  0  0
  -33.1225  -20.2114   30.3249 C   0  0  0  0  0  0  0  0  0  0  0  0
  -23.1481  -22.0997   28.8467 C   0  0  0  0  0  0  0  0  0  0  0  0
  -23.1918  -23.6884   30.7812 C   0  0  0  0  0  0  0  0  0  0  0  0
  -21.6476  -21.7295   30.8129 C   0  0  0  0  0  0  0  0  0  0  0  0
  -26.5959  -20.1841   35.2848 C   0  0  0  0  0  0  0  0  0  0  0  0
  -33.2878  -17.9677   25.7995 C   0  0  0  0  0  0  0  0  0  0  0  0
  -33.2651  -19.1140   28.0185 C   0  0  0  0  0  0  0  0  0  0  0  0
  -24.1297  -21.3562   31.1160 C   0  0  1  0  0  0  0  0  0  0  0  0
  -24.7647  -21.8192   34.8243 C   0  0  2  0  0  0  0  0  0  0  0  0
  -32.4230  -19.3719   29.2638 C   0  0  2  0  0  0  0  0  0  1  0  0
  -23.0526  -22.2038   30.3819 C   0  0  0  0  0  0  0  0  0  0  0  0
  -25.8941  -11.6649   20.3253 N   0  0  0  0  0  0  0  0  0  0  0  0
  -26.2112  -12.9632   20.1839 N   0  0  0  0  0  0  0  0  0  0  0  0
  -25.2089  -19.3464   30.1567 N   0  0  0  0  0  0  0  0  0  0  0  0
  -30.0177  -13.2563   20.2740 N   0  0  0  0  0  0  0  0  0  0  0  0
  -25.3337  -15.1544   20.3822 N   0  0  0  0  0  0  0  0  0  0  0  0
  -21.8491  -12.5273   21.5451 N   0  0  0  0  0  0  0  0  0  0  0  0
  -30.4695  -14.5835   22.1706 N   0  0  0  0  0  0  0  0  0  0  0  0
  -24.6807  -16.9468   27.4625 N   0  0  0  0  0  0  0  0  0  0  0  0
  -24.0462  -21.4143   32.5713 N   0  0  0  0  0  0  0  0  0  0  0  0
  -25.9770  -21.4907   35.6264 N   0  3  0  0  0  0  0  0  0  0  0  0
  -32.5139  -18.3082   27.0241 N   0  3  0  0  0  0  0  0  0  0  0  0
  -22.5263  -14.6978   21.2463 O   0  0  0  0  0  0  0  0  0  0  0  0
  -24.7704  -19.2670   27.6394 O   0  0  0  0  0  0  0  0  0  0  0  0
  -23.0295  -19.2591   30.9807 O   0  0  0  0  0  0  0  0  0  0  0  0
  -26.1933  -22.2189   32.9173 O   0  0  0  0  0  0  0  0  0  0  0  0
  -32.0423  -14.3528   20.4809 O   0  0  0  0  0  0  0  0  0  0  0  0
  -21.8419   -6.9596   21.7356 O   0  0  0  0  0  0  0  0  0  0  0  0
  -31.2066  -20.0092   28.8757 O   0  0  0  0  0  0  0  0  0  1  0  0
  -18.7718   -6.7119   26.3092 F   0  0  0  0  0  0  0  0  0  0  0  0
  -19.7543   -8.7263   22.1399 F   0  0  0  0  0  0  0  0  0  0  0  0
  -34.2055  -15.4471   25.0623 F   0  0  0  0  0  0  0  0  0  0  0  0
  -30.6705  -19.0760   24.6813 Cl  0  0  0  0  0  0  0  0  0  0  0  0
  1  2  1  0  0  0  0
  1  5  2  0  0  0  0
  2  6  2  0  0  0  0
  3  8  2  0  0  0  0
  3 15  1  0  0  0  0
  4  9  1  0  0  0  0
  4 15  2  0  0  0  0
  5 17  1  0  0  0  0
  6 19  1  0  0  0  0
  7 10  2  0  0  0  0
  7 18  1  0  0  0  0
  8 25  1  0  0  0  0
  9 25  2  0  0  0  0
 10 26  1  0  0  0  0
 11 12  2  0  0  0  0
 11 27  1  0  0  0  0
 12 28  1  0  0  0  0
 13 20  1  0  0  0  0
 13 26  2  0  0  0  0
 14 28  2  0  0  0  0
 14 29  1  0  0  0  0
 15 32  1  0  0  0  0
 16 32  1  0  0  0  0
 16 33  2  0  0  0  0
 16 34  1  0  0  0  0
 17 19  2  0  0  0  0
 17 39  1  0  0  0  0
 18 20  2  0  0  0  0
 18 40  1  0  0  0  0
 19 48  1  0  0  0  0
 20 41  1  0  0  0  0
 21 24  1  0  0  0  0
 21 30  2  0  0  0  0
 21 51  1  0  0  0  0
 22 24  2  0  0  0  0
 22 31  1  0  0  0  0
 22 52  1  0  0  0  0
 23 30  1  0  0  0  0
 23 31  2  0  0  0  0
 23 59  1  0  0  0  0
 24 71  1  0  0  0  0
 25 81  1  0  0  0  0
 26 82  1  0  0  0  0
 27 29  2  0  0  0  0
 27 81  1  0  0  0  0
 28 83  1  0  0  0  0
 29 84  1  0  0  0  0
 30 85  1  0  0  0  0
 31 86  1  0  0  0  0
 32 65  2  0  0  0  0
 33 66  1  0  0  0  0
 33 69  1  0  0  0  0
 34 70  1  0  0  0  0
 34 76  2  0  0  0  0
 35 49  1  0  0  0  0
 35 72  1  0  0  0  0
 35 77  2  0  0  0  0
 36 61  1  0  0  0  0
 36 67  1  0  0  0  0
 36 78  2  0  0  0  0
 37 62  1  0  0  0  0
 37 73  1  0  0  0  0
 37 79  2  0  0  0  0
 38 68  1  0  0  0  0
 38 71  1  0  0  0  0
 38 80  2  0  0  0  0
 39 42  1  0  0  0  0
 40 49  1  0  0  0  0
 41 67  1  0  0  0  0
 42 44  1  0  0  0  0
 43 45  1  0  0  0  0
 43 46  1  0  0  0  0
 44 48  1  0  0  0  0
 45 50  1  0  0  0  0
 46 68  1  0  0  0  0
 47 50  1  0  0  0  0
 47 68  1  0  0  0  0
 48 72  1  0  0  0  0
 49 67  1  0  0  0  0
 50 66  1  0  0  0  0
 53 62  1  0  0  0  0
 54 63  1  0  0  0  0
 55 64  1  0  0  0  0
 56 64  1  0  0  0  0
 57 64  1  0  0  0  0
 58 74  1  0  0  0  0
 59 75  1  0  0  0  0
 60 63  1  0  0  0  0
 60 75  1  0  0  0  0
 61 64  1  0  0  0  0
 61 73  1  0  0  0  0
 62 74  1  0  0  0  0
 63 82  1  0  0  0  0
 65 66  1  0  0  0  0
M  CHG  2  74   1  75   1
M  ISO  4  38 100  63 101  71 100  82 101
M  END
> <Batch ID>
0022

> <Smiles>
CNC(C)C(=O)NC(C(=O)N1Cc2cc([101O:1][101CH:1](C)CNCc3c(F)c(C)c([100NH:0][100C:0](=O)N4CCCC(n5nc(-c6ccc(Oc7ccc(F)cc7F)cc6)c(C(N)=O)c5N)C4)c(C)c3Cl)ccc2CC1C(=O)NC1CCCc2ccccc21)C(C)(C)C

> <Shape>
0.156

> <Color>
0.185

> <Negative vol penalty>
0.000

$$$$

  -OEChem-04052316153D

 82 90  0     1  0  0  0  0  0999 V2000
  -27.4881  -22.8210   19.2876 C   0  0  0  0  0  0  0  0  0  0  0  0
  -26.2792  -23.4103   19.6433 C   0  0  0  0  0  0  0  0  0  0  0  0
  -23.7805  -14.2909   20.0530 C   0  0  0  0  0  0  0  0  0  0  0  0
  -26.0814  -14.5838   20.7293 C   0  0  0  0  0  0  0  0  0  0  0  0
  -28.6671  -23.2158   19.9187 C   0  0  0  0  0  0  0  0  0  0  0  0
  -26.2483  -24.3940   20.6311 C   0  0  0  0  0  0  0  0  0  0  0  0
  -23.3688  -28.3544   19.3394 C   0  0  0  0  0  0  0  0  0  0  0  0
  -23.9777  -12.9120   19.9794 C   0  0  0  0  0  0  0  0  0  0  0  0
  -26.2785  -13.2049   20.6558 C   0  0  0  0  0  0  0  0  0  0  0  0
  -21.9879  -28.2030   19.4572 C   0  0  0  0  0  0  0  0  0  0  0  0
  -24.1503  -10.3025   22.1228 C   0  0  0  0  0  0  0  0  0  0  0  0
  -23.1752   -9.4775   22.6831 C   0  0  0  0  0  0  0  0  0  0  0  0
  -22.0418  -29.3968   21.5527 C   0  0  0  0  0  0  0  0  0  0  0  0
  -20.7172  -25.7176   22.6319 C   0  0  0  0  0  0  0  0  0  0  0  0
  -18.7831  -24.2722   22.7158 C   0  0  0  0  0  0  0  0  0  0  0  0
  -22.8003   -8.4556   20.5262 C   0  0  0  0  0  0  0  0  0  0  0  0
  -24.8324  -15.1268   20.4279 C   0  0  0  0  0  0  0  0  0  0  0  0
  -24.2384  -17.4109   19.4595 C   0  0  0  0  0  0  0  0  0  0  0  0
  -28.6520  -24.2117   20.9079 C   0  0  0  0  0  0  0  0  0  0  0  0
  -24.0993  -29.0198   20.3344 C   0  0  0  0  0  0  0  0  0  0  0  0
  -27.4279  -24.8015   21.2769 C   0  0  0  0  0  0  0  0  0  0  0  0
  -23.4316  -29.5576   21.4439 C   0  0  0  0  0  0  0  0  0  0  0  0
  -19.3342  -25.5457   22.5734 C   0  0  0  0  0  0  0  0  0  0  0  0
  -21.5491  -24.6161   22.8326 C   0  0  0  0  0  0  0  0  0  0  0  0
  -19.6151  -23.1707   22.9165 C   0  0  0  0  0  0  0  0  0  0  0  0
  -20.9981  -23.3427   22.9749 C   0  0  0  0  0  0  0  0  0  0  0  0
  -25.2266  -12.3690   20.2808 C   0  0  0  0  0  0  0  0  0  0  0  0
  -21.3246  -28.7217   20.5654 C   0  0  0  0  0  0  0  0  0  0  0  0
  -24.4504  -10.2042   20.7641 C   0  0  0  0  0  0  0  0  0  0  0  0
  -22.5002   -8.5540   21.8849 C   0  0  0  0  0  0  0  0  0  0  0  0
  -23.7754   -9.2808   19.9658 C   0  0  0  0  0  0  0  0  0  0  0  0
  -24.6295  -16.5513   20.5035 C   0  0  0  0  0  0  0  0  0  0  0  0
  -24.1879  -18.6548   20.0397 C   0  0  0  0  0  0  0  0  0  0  0  0
  -23.9468  -17.1117   18.0880 C   0  0  0  0  0  0  0  0  0  0  0  0
  -26.4297  -28.1984   22.3341 C   0  0  0  0  0  0  0  0  0  0  0  0
  -26.3938  -31.3603   23.0575 C   0  0  0  0  0  0  0  0  0  0  0  0
  -24.6536  -34.2950   23.1354 C   0  0  0  0  0  0  0  0  0  0  0  0
  -22.7343  -22.0189   24.2317 C   0  0  0  0  0  0  0  0  0  0  0  0
  -29.9452  -24.5718   21.5952 C   0  0  0  0  0  0  0  0  0  0  0  0
  -25.5848  -29.1981   20.1794 C   0  0  0  0  0  0  0  0  0  0  0  0
  -24.1670  -30.2981   22.5299 C   0  0  0  0  0  0  0  0  0  0  0  0
  -29.8790  -25.8869   22.3675 C   0  0  0  0  0  0  0  0  0  0  0  0
  -25.8049  -20.2474   24.5641 C   0  0  0  0  0  0  0  0  0  0  0  0
  -28.6089  -25.9477   23.2101 C   0  0  0  0  0  0  0  0  0  0  0  0
  -25.7407  -19.1986   23.4514 C   0  0  0  0  0  0  0  0  0  0  0  0
  -24.4356  -20.4867   25.1977 C   0  0  0  0  0  0  0  0  0  0  0  0
  -23.2967  -19.7601   23.1376 C   0  0  0  0  0  0  0  0  0  0  0  0
  -27.3571  -25.8896   22.3263 C   0  0  1  0  0  0  0  0  0  0  0  0
  -26.2986  -29.4446   21.5049 C   0  0  1  0  0  0  0  0  0  0  0  0
  -24.6400  -19.5322   22.4254 C   0  0  2  0  0  0  0  0  0  0  0  0
  -23.0269  -24.8321   22.8901 C   0  0  0  0  0  0  0  0  0  0  0  0
  -18.9951  -21.8188   23.0661 C   0  0  0  0  0  0  0  0  0  0  0  0
  -24.2413  -36.7499   23.4533 C   0  0  0  0  0  0  0  0  0  0  0  0
  -26.0813  -30.5591   25.9850 C   0  0  0  0  0  0  0  0  0  0  0  0
  -25.3662  -32.9071   26.4790 C   0  0  0  0  0  0  0  0  0  0  0  0
  -27.6530  -32.4632   25.5867 C   0  0  0  0  0  0  0  0  0  0  0  0
  -25.4488  -34.9074   20.3512 C   0  0  0  0  0  0  0  0  0  0  0  0
  -18.4349  -26.7363   22.3561 C   0  0  0  0  0  0  0  0  0  0  0  0
  -18.1500  -27.0321   20.8820 C   0  0  0  0  0  0  0  0  0  0  0  0
  -19.3959  -27.4136   20.0910 C   0  0  0  0  0  0  0  0  0  1  0  0
  -25.6562  -32.2205   24.0550 C   0  0  1  0  0  0  0  0  0  0  0  0
  -25.0212  -35.6964   22.6822 C   0  0  2  0  0  0  0  0  0  0  0  0
  -26.1753  -32.0219   25.5071 C   0  0  0  0  0  0  0  0  0  0  0  0
  -24.8145  -17.1947   21.6593 N   0  0  0  0  0  0  0  0  0  0  0  0
  -24.5385  -18.4719   21.3450 N   0  0  0  0  0  0  0  0  0  0  0  0
  -25.6194  -30.4409   22.3359 N   0  0  0  0  0  0  0  0  0  0  0  0
  -23.4447  -20.8016   24.1662 N   0  0  0  0  0  0  0  0  0  0  0  0
  -23.8783  -19.8763   19.5555 N   0  0  0  0  0  0  0  0  0  0  0  0
  -24.9937  -17.1562   17.1572 N   0  0  0  0  0  0  0  0  0  0  0  0
  -21.8429  -22.2236   23.1790 N   0  0  0  0  0  0  0  0  0  0  0  0
  -27.1152  -27.1753   21.7075 N   0  0  0  0  0  0  0  0  0  0  0  0
  -25.7583  -33.5913   23.5662 N   0  0  0  0  0  0  0  0  0  0  0  0
  -24.7293  -35.8646   21.2304 N   0  3  0  0  0  0  0  0  0  0  0  0
  -22.7889  -16.8297   17.6965 O   0  0  0  0  0  0  0  0  0  0  0  0
  -25.9460  -28.1679   23.4596 O   0  0  0  0  0  0  0  0  0  0  0  0
  -27.6110  -31.5041   22.9185 O   0  0  0  0  0  0  0  0  0  0  0  0
  -23.5011  -33.8686   23.1132 O   0  0  0  0  0  0  0  0  0  0  0  0
  -22.9240  -22.8330   25.1390 O   0  0  0  0  0  0  0  0  0  0  0  0
  -25.4193  -11.0235   20.2094 O   0  0  0  0  0  0  0  0  0  0  0  0
  -19.9768  -28.5747   20.6832 O   0  0  0  0  0  0  0  0  0  1  0  0
  -21.5649   -7.7607   22.4235 F   0  0  0  0  0  0  0  0  0  0  0  0
  -24.0602   -9.1809   18.6602 F   0  0  0  0  0  0  0  0  0  0  0  0
  1  2  1  0  0  0  0
  1  5  2  0  0  0  0
  2  6  2  0  0  0  0
  3  8  2  0  0  0  0
  3 17  1  0  0  0  0
  4  9  1  0  0  0  0
  4 17  2  0  0  0  0
  5 19  1  0  0  0  0
  6 21  1  0  0  0  0
  7 10  2  0  0  0  0
  7 20  1  0  0  0  0
  8 27  1  0  0  0  0
  9 27  2  0  0  0  0
 10 28  1  0  0  0  0
 11 12  2  0  0  0  0
 11 29  1  0  0  0  0
 12 30  1  0  0  0  0
 13 22  1  0  0  0  0
 13 28  2  0  0  0  0
 14 23  1  0  0  0  0
 14 24  2  0  0  0  0
 15 23  2  0  0  0  0
 15 25  1  0  0  0  0
 16 30  2  0  0  0  0
 16 31  1  0  0  0  0
 17 32  1  0  0  0  0
 18 32  1  0  0  0  0
 18 33  2  0  0  0  0
 18 34  1  0  0  0  0
 19 21  2  0  0  0  0
 19 39  1  0  0  0  0
 20 22  2  0  0  0  0
 20 40  1  0  0  0  0
 21 48  1  0  0  0  0
 22 41  1  0  0  0  0
 23 58  1  0  0  0  0
 24 26  1  0  0  0  0
 24 51  1  0  0  0  0
 25 26  2  0  0  0  0
 25 52  1  0  0  0  0
 26 70  1  0  0  0  0
 27 79  1  0  0  0  0
 28 80  1  0  0  0  0
 29 31  2  0  0  0  0
 29 79  1  0  0  0  0
 30 81  1  0  0  0  0
 31 82  1  0  0  0  0
 32 64  2  0  0  0  0
 33 65  1  0  0  0  0
 33 68  1  0  0  0  0
 34 69  1  0  0  0  0
 34 74  2  0  0  0  0
 35 49  1  0  0  0  0
 35 71  1  0  0  0  0
 35 75  2  0  0  0  0
 36 61  1  0  0  0  0
 36 66  1  0  0  0  0
 36 76  2  0  0  0  0
 37 62  1  0  0  0  0
 37 72  1  0  0  0  0
 37 77  2  0  0  0  0
 38 67  1  0  0  0  0
 38 70  1  0  0  0  0
 38 78  2  0  0  0  0
 39 42  1  0  0  0  0
 40 49  1  0  0  0  0
 41 66  1  0  0  0  0
 42 44  1  0  0  0  0
 43 45  1  0  0  0  0
 43 46  1  0  0  0  0
 44 48  1  0  0  0  0
 45 50  1  0  0  0  0
 46 67  1  0  0  0  0
 47 50  1  0  0  0  0
 47 67  1  0  0  0  0
 48 71  1  0  0  0  0
 49 66  1  0  0  0  0
 50 65  1  0  0  0  0
 53 62  1  0  0  0  0
 54 63  1  0  0  0  0
 55 63  1  0  0  0  0
 56 63  1  0  0  0  0
 57 73  1  0  0  0  0
 58 59  1  0  0  0  0
 59 60  1  0  0  0  0
 60 80  1  0  0  0  0
 61 63  1  0  0  0  0
 61 72  1  0  0  0  0
 62 73  1  0  0  0  0
 64 65  1  0  0  0  0
M  CHG  1  73   1
M  ISO  4  38 100  60 101  70 100  80 101
M  END
> <Batch ID>
0022

> <Smiles>
CNC(C)C(=O)NC(C(=O)N1Cc2cc([101O:1][101CH2:1]CCc3cc(C)c([100NH:0][100C:0](=O)N4CCCC(n5nc(-c6ccc(Oc7ccc(F)cc7F)cc6)c(C(N)=O)c5N)C4)c(C)c3)ccc2CC1C(=O)NC1CCCc2ccccc21)C(C)(C)C

> <Shape>
0.239

> <Color>
0.067

> <Negative vol penalty>
0.000

$$$$

  -OEChem-04052316153D

 85 93  0     1  0  0  0  0  0999 V2000
  -23.1444   -6.7386   24.7905 C   0  0  0  0  0  0  0  0  0  0  0  0
  -24.3674   -7.2367   24.3526 C   0  0  0  0  0  0  0  0  0  0  0  0
  -25.1565  -30.8061   23.1509 C   0  0  0  0  0  0  0  0  0  0  0  0
  -24.0852  -31.8108   21.2326 C   0  0  0  0  0  0  0  0  0  0  0  0
  -21.9773   -7.0475   24.0932 C   0  0  0  0  0  0  0  0  0  0  0  0
  -24.4240   -8.0432   23.2165 C   0  0  0  0  0  0  0  0  0  0  0  0
  -28.2198  -12.7458   22.2251 C   0  0  0  0  0  0  0  0  0  0  0  0
  -24.8653  -31.9408   23.9079 C   0  0  0  0  0  0  0  0  0  0  0  0
  -23.7939  -32.9456   21.9896 C   0  0  0  0  0  0  0  0  0  0  0  0
  -29.4161  -12.8524   21.5172 C   0  0  0  0  0  0  0  0  0  0  0  0
  -25.4258  -35.6975   23.0827 C   0  0  0  0  0  0  0  0  0  0  0  0
  -25.6661  -36.9429   22.5024 C   0  0  0  0  0  0  0  0  0  0  0  0
  -28.2011  -13.6644   19.5979 C   0  0  0  0  0  0  0  0  0  0  0  0
  -23.3273  -37.5024   22.7347 C   0  0  0  0  0  0  0  0  0  0  0  0
  -28.7584  -21.8826   19.3951 C   0  0  0  0  0  0  0  0  0  0  0  0
  -31.3465  -21.5822   20.2059 C   0  0  0  0  0  0  0  0  0  0  0  0
  -24.7665  -30.7410   21.8132 C   0  0  0  0  0  0  0  0  0  0  0  0
  -24.2673  -28.4215   20.8761 C   0  0  0  0  0  0  0  0  0  0  0  0
  -22.0183   -7.8661   22.9535 C   0  0  0  0  0  0  0  0  0  0  0  0
  -27.0019  -13.0879   21.6201 C   0  0  0  0  0  0  0  0  0  0  0  0
  -23.2564   -8.3622   22.5025 C   0  0  0  0  0  0  0  0  0  0  0  0
  -26.9910  -13.5637   20.3011 C   0  0  0  0  0  0  0  0  0  0  0  0
  -30.5135  -20.4757   20.2464 C   0  0  0  0  0  0  0  0  0  0  0  0
  -24.1840  -33.0106   23.3273 C   0  0  0  0  0  0  0  0  0  0  0  0
  -29.4066  -13.3091   20.2024 C   0  0  0  0  0  0  0  0  0  0  0  0
  -24.1362  -35.3545   23.4890 C   0  0  0  0  0  0  0  0  0  0  0  0
  -24.6169  -37.8454   22.3284 C   0  0  0  0  0  0  0  0  0  0  0  0
  -23.0870  -36.2570   23.3150 C   0  0  0  0  0  0  0  0  0  0  0  0
  -29.1963  -20.6372   19.8316 C   0  0  0  0  0  0  0  0  0  0  0  0
  -25.0676  -29.5693   21.0305 C   0  0  0  0  0  0  0  0  0  0  0  0
  -29.6699  -22.9262   19.3929 C   0  0  0  0  0  0  0  0  0  0  0  0
  -24.9934  -27.6063   20.0426 C   0  0  0  0  0  0  0  0  0  0  0  0
  -22.9824  -28.1193   21.4359 C   0  0  0  0  0  0  0  0  0  0  0  0
  -24.3316  -11.5173   20.9082 C   0  0  0  0  0  0  0  0  0  0  0  0
  -23.2824  -14.4689   20.0656 C   0  0  0  0  0  0  0  0  0  0  0  0
  -24.0494  -17.6384   19.0595 C   0  0  0  0  0  0  0  0  0  0  0  0
  -30.0654  -25.3336   18.9002 C   0  0  0  0  0  0  0  0  0  0  0  0
  -20.7364   -8.1337   22.2054 C   0  0  0  0  0  0  0  0  0  0  0  0
  -25.7230  -12.9927   22.4060 C   0  0  0  0  0  0  0  0  0  0  0  0
  -25.7123  -13.9631   19.6127 C   0  0  0  0  0  0  0  0  0  0  0  0
  -20.8343   -9.3018   21.2275 C   0  0  0  0  0  0  0  0  0  0  0  0
  -29.1308  -28.5223   17.2972 C   0  0  0  0  0  0  0  0  0  0  0  0
  -22.1095   -9.1972   20.3970 C   0  0  0  0  0  0  0  0  0  0  0  0
  -27.9673  -29.0087   18.1596 C   0  0  0  0  0  0  0  0  0  0  0  0
  -30.1162  -27.6772   18.0991 C   0  0  0  0  0  0  0  0  0  0  0  0
  -28.3198  -27.0122   19.6679 C   0  0  0  0  0  0  0  0  0  0  0  0
  -23.3554   -9.2606   21.2887 C   0  0  1  0  0  0  0  0  0  0  0  0
  -24.4850  -12.8804   21.5216 C   0  0  1  0  0  0  0  0  0  0  0  0
  -27.2871  -27.8307   18.8784 C   0  0  1  0  0  0  0  0  0  0  0  0
  -22.9779  -19.8137   18.4134 C   0  0  0  0  0  0  0  0  0  0  0  0
  -22.5326  -13.2909   17.3527 C   0  0  0  0  0  0  0  0  0  0  0  0
  -22.3738  -15.6250   16.4611 C   0  0  0  0  0  0  0  0  0  0  0  0
  -20.8545  -14.8869   18.2967 C   0  0  0  0  0  0  0  0  0  0  0  0
  -27.8967  -24.2942   18.2789 C   0  0  0  0  0  0  0  0  0  0  0  0
  -25.3673  -19.0813   21.2822 C   0  0  0  0  0  0  0  0  0  0  0  0
  -31.0224  -19.1400   20.7270 C   0  0  0  0  0  0  0  0  0  0  0  0
  -31.3493  -18.1583   19.5959 C   0  0  0  0  0  0  0  0  0  0  0  0
  -31.8517  -16.8027   20.1052 C   0  0  0  0  0  0  0  0  0  0  0  0
  -32.1362  -15.8473   18.9432 C   0  0  0  0  0  0  0  0  0  0  0  0
  -32.7062  -14.5016   19.3925 C   0  0  0  0  0  0  0  0  0  0  0  0
  -31.7531  -13.6918   20.2613 C   0  0  0  0  0  0  0  0  0  1  0  0
  -23.2999  -15.2881   18.7977 C   0  0  1  0  0  0  0  0  0  0  0  0
  -23.5716  -18.9938   19.5483 C   0  0  2  0  0  0  0  0  0  0  0  0
  -22.2892  -14.7634   17.7391 C   0  0  0  0  0  0  0  0  0  0  0  0
  -30.9572  -22.8076   19.7883 N   0  0  0  0  0  0  0  0  0  0  0  0
  -26.2144  -29.4938   20.3499 N   0  0  0  0  0  0  0  0  0  0  0  0
  -26.1400  -28.2887   19.7598 N   0  0  0  0  0  0  0  0  0  0  0  0
  -24.4873  -13.8462   20.4209 N   0  0  0  0  0  0  0  0  0  0  0  0
  -29.4376  -26.5921   18.8088 N   0  0  0  0  0  0  0  0  0  0  0  0
  -24.7566  -26.3795   19.5314 N   0  0  0  0  0  0  0  0  0  0  0  0
  -22.3777  -29.0682   22.2715 N   0  0  0  0  0  0  0  0  0  0  0  0
  -23.6215  -10.6256   21.6892 N   0  0  0  0  0  0  0  0  0  0  0  0
  -23.0767  -16.6718   19.2027 N   0  0  0  0  0  0  0  0  0  0  0  0
  -29.2054  -24.2147   18.9361 N   0  0  0  0  0  0  0  0  0  0  0  0
  -24.7048  -19.7605   20.1391 N   0  3  0  0  0  0  0  0  0  0  0  0
  -22.3955  -27.0328   21.2152 O   0  0  0  0  0  0  0  0  0  0  0  0
  -24.8201  -11.2919   19.8071 O   0  0  0  0  0  0  0  0  0  0  0  0
  -22.2400  -14.3904   20.7205 O   0  0  0  0  0  0  0  0  0  0  0  0
  -25.1721  -17.4563   18.5935 O   0  0  0  0  0  0  0  0  0  0  0  0
  -31.2966  -25.2185   18.9179 O   0  0  0  0  0  0  0  0  0  0  0  0
  -23.8994  -34.1180   24.0657 O   0  0  0  0  0  0  0  0  0  0  0  0
  -30.5729  -13.4135   19.5090 O   0  0  0  0  0  0  0  0  0  1  0  0
  -24.8481  -39.0419   21.7725 F   0  0  0  0  0  0  0  0  0  0  0  0
  -21.8462  -35.9336   23.7044 F   0  0  0  0  0  0  0  0  0  0  0  0
  -28.3452  -19.6021   19.8491 F   0  0  0  0  0  0  0  0  0  0  0  0
  1  2  1  0  0  0  0
  1  5  2  0  0  0  0
  2  6  2  0  0  0  0
  3  8  2  0  0  0  0
  3 17  1  0  0  0  0
  4  9  1  0  0  0  0
  4 17  2  0  0  0  0
  5 19  1  0  0  0  0
  6 21  1  0  0  0  0
  7 10  2  0  0  0  0
  7 20  1  0  0  0  0
  8 24  1  0  0  0  0
  9 24  2  0  0  0  0
 10 25  1  0  0  0  0
 11 12  2  0  0  0  0
 11 26  1  0  0  0  0
 12 27  1  0  0  0  0
 13 22  1  0  0  0  0
 13 25  2  0  0  0  0
 14 27  2  0  0  0  0
 14 28  1  0  0  0  0
 15 29  1  0  0  0  0
 15 31  2  0  0  0  0
 16 23  1  0  0  0  0
 16 65  2  0  0  0  0
 17 30  1  0  0  0  0
 18 30  1  0  0  0  0
 18 32  2  0  0  0  0
 18 33  1  0  0  0  0
 19 21  2  0  0  0  0
 19 38  1  0  0  0  0
 20 22  2  0  0  0  0
 20 39  1  0  0  0  0
 21 47  1  0  0  0  0
 22 40  1  0  0  0  0
 23 29  2  0  0  0  0
 23 56  1  0  0  0  0
 24 81  1  0  0  0  0
 25 82  1  0  0  0  0
 26 28  2  0  0  0  0
 26 81  1  0  0  0  0
 27 83  1  0  0  0  0
 28 84  1  0  0  0  0
 29 85  1  0  0  0  0
 30 66  2  0  0  0  0
 31 65  1  0  0  0  0
 31 74  1  0  0  0  0
 32 67  1  0  0  0  0
 32 70  1  0  0  0  0
 33 71  1  0  0  0  0
 33 76  2  0  0  0  0
 34 48  1  0  0  0  0
 34 72  1  0  0  0  0
 34 77  2  0  0  0  0
 35 62  1  0  0  0  0
 35 68  1  0  0  0  0
 35 78  2  0  0  0  0
 36 63  1  0  0  0  0
 36 73  1  0  0  0  0
 36 79  2  0  0  0  0
 37 69  1  0  0  0  0
 37 74  1  0  0  0  0
 37 80  2  0  0  0  0
 38 41  1  0  0  0  0
 39 48  1  0  0  0  0
 40 68  1  0  0  0  0
 41 43  1  0  0  0  0
 42 44  1  0  0  0  0
 42 45  1  0  0  0  0
 43 47  1  0  0  0  0
 44 49  1  0  0  0  0
 45 69  1  0  0  0  0
 46 49  1  0  0  0  0
 46 69  1  0  0  0  0
 47 72  1  0  0  0  0
 48 68  1  0  0  0  0
 49 67  1  0  0  0  0
 50 63  1  0  0  0  0
 51 64  1  0  0  0  0
 52 64  1  0  0  0  0
 53 64  1  0  0  0  0
 54 74  1  0  0  0  0
 55 75  1  0  0  0  0
 56 57  1  0  0  0  0
 57 58  1  0  0  0  0
 58 59  1  0  0  0  0
 59 60  1  0  0  0  0
 60 61  1  0  0  0  0
 61 82  1  0  0  0  0
 62 64  1  0  0  0  0
 62 73  1  0  0  0  0
 63 75  1  0  0  0  0
 66 67  1  0  0  0  0
M  CHG  1  75   1
M  ISO  4  37 100  61 101  74 100  82 101
M  END
> <Batch ID>
0022

> <Smiles>
CNC(C)C(=O)NC(C(=O)N1Cc2cc([101O:1][101CH2:1]CCCCCc3cnc([100N:0](C)[100C:0](=O)N4CCCC(n5nc(-c6ccc(Oc7ccc(F)cc7F)cc6)c(C(N)=O)c5N)C4)cc3F)ccc2CC1C(=O)NC1CCCc2ccccc21)C(C)(C)C

> <Shape>
0.313

> <Color>
0.063

> <Negative vol penalty>
0.000

$$$$

  -OEChem-04052316153D

 82 90  0     1  0  0  0  0  0999 V2000
  -34.3569  -30.7862   25.1501 C   0  0  0  0  0  0  0  0  0  0  0  0
  -34.6166  -29.4645   25.4981 C   0  0  0  0  0  0  0  0  0  0  0  0
  -22.6808  -10.1595   20.1521 C   0  0  0  0  0  0  0  0  0  0  0  0
  -24.3375   -9.3995   21.7380 C   0  0  0  0  0  0  0  0  0  0  0  0
  -33.1841  -31.1090   24.4689 C   0  0  0  0  0  0  0  0  0  0  0  0
  -33.7029  -28.4649   25.1659 C   0  0  0  0  0  0  0  0  0  0  0  0
  -34.9798  -22.6872   23.5867 C   0  0  0  0  0  0  0  0  0  0  0  0
  -21.9617   -8.9788   20.3375 C   0  0  0  0  0  0  0  0  0  0  0  0
  -23.6183   -8.2188   21.9234 C   0  0  0  0  0  0  0  0  0  0  0  0
  -34.9740  -21.4944   24.3084 C   0  0  0  0  0  0  0  0  0  0  0  0
  -20.8774   -7.2150   23.6265 C   0  0  0  0  0  0  0  0  0  0  0  0
  -20.6935   -6.7687   24.9351 C   0  0  0  0  0  0  0  0  0  0  0  0
  -32.7462  -21.0286   23.5089 C   0  0  0  0  0  0  0  0  0  0  0  0
  -32.0429  -16.5235   22.6485 C   0  0  0  0  0  0  0  0  0  0  0  0
  -21.8474   -4.7153   24.3970 C   0  0  0  0  0  0  0  0  0  0  0  0
  -23.8688  -10.3699   20.8524 C   0  0  0  0  0  0  0  0  0  0  0  0
  -24.1673  -12.9029   20.9010 C   0  0  0  0  0  0  0  0  0  0  0  0
  -32.2601  -30.1115   24.1196 C   0  0  0  0  0  0  0  0  0  0  0  0
  -33.8628  -23.0656   22.8280 C   0  0  0  0  0  0  0  0  0  0  0  0
  -32.5160  -28.7748   24.4805 C   0  0  0  0  0  0  0  0  0  0  0  0
  -32.7414  -22.2255   22.7764 C   0  0  0  0  0  0  0  0  0  0  0  0
  -30.5206  -18.1473   24.3303 C   0  0  0  0  0  0  0  0  0  0  0  0
  -31.9120  -18.1518   24.4285 C   0  0  0  0  0  0  0  0  0  0  0  0
  -30.6516  -16.5189   22.5504 C   0  0  0  0  0  0  0  0  0  0  0  0
  -22.4304   -8.0085   21.2231 C   0  0  0  0  0  0  0  0  0  0  0  0
  -33.8560  -20.6663   24.2719 C   0  0  0  0  0  0  0  0  0  0  0  0
  -21.5463   -6.4115   22.7031 C   0  0  0  0  0  0  0  0  0  0  0  0
  -21.1785   -5.5189   25.3204 C   0  0  0  0  0  0  0  0  0  0  0  0
  -22.0313   -5.1617   23.0884 C   0  0  0  0  0  0  0  0  0  0  0  0
  -32.6732  -17.3399   23.5876 C   0  0  0  0  0  0  0  0  0  0  0  0
  -29.8904  -17.3308   23.3912 C   0  0  0  0  0  0  0  0  0  0  0  0
  -24.6124  -11.5891   20.6609 C   0  0  0  0  0  0  0  0  0  0  0  0
  -25.2384  -13.6948   20.5662 C   0  0  0  0  0  0  0  0  0  0  0  0
  -22.8992  -13.3660   21.3837 C   0  0  0  0  0  0  0  0  0  0  0  0
  -31.8318  -25.5099   22.8913 C   0  0  0  0  0  0  0  0  0  0  0  0
  -30.7210  -24.1527   20.1625 C   0  0  0  0  0  0  0  0  0  0  0  0
  -30.3909  -21.3465   18.2486 C   0  0  0  0  0  0  0  0  0  0  0  0
  -30.6898  -14.8216   20.6891 C   0  0  0  0  0  0  0  0  0  0  0  0
  -30.9838  -30.5153   23.4250 C   0  0  0  0  0  0  0  0  0  0  0  0
  -33.8952  -24.3425   22.0337 C   0  0  0  0  0  0  0  0  0  0  0  0
  -31.5246  -22.5763   21.9610 C   0  0  0  0  0  0  0  0  0  0  0  0
  -30.2451  -29.3455   22.7798 C   0  0  0  0  0  0  0  0  0  0  0  0
  -29.5578  -12.5587   18.1842 C   0  0  0  0  0  0  0  0  0  0  0  0
  -30.1627  -28.1680   23.7460 C   0  0  0  0  0  0  0  0  0  0  0  0
  -28.1336  -12.2128   18.6250 C   0  0  0  0  0  0  0  0  0  0  0  0
  -30.4976  -12.7196   19.3777 C   0  0  0  0  0  0  0  0  0  0  0  0
  -28.6129  -13.3129   20.8492 C   0  0  0  0  0  0  0  0  0  0  0  0
  -31.5610  -27.6589   24.1158 C   0  0  1  0  0  0  0  0  0  0  0  0
  -32.5047  -24.8777   21.7059 C   0  0  1  0  0  0  0  0  0  0  0  0
  -27.6151  -13.2047   19.6845 C   0  0  2  0  0  0  0  0  0  0  0  0
  -29.7196  -19.0259   25.2418 C   0  0  0  0  0  0  0  0  0  0  0  0
  -32.7981  -18.3253   26.7796 C   0  0  0  0  0  0  0  0  0  0  0  0
  -29.7952  -19.9454   16.2538 C   0  0  0  0  0  0  0  0  0  0  0  0
  -27.9446  -24.1792   21.4278 C   0  0  0  0  0  0  0  0  0  0  0  0
  -27.2082  -22.5460   19.6788 C   0  0  0  0  0  0  0  0  0  0  0  0
  -27.9953  -24.8167   19.0100 C   0  0  0  0  0  0  0  0  0  0  0  0
  -33.0171  -21.8363   16.9750 C   0  0  0  0  0  0  0  0  0  0  0  0
  -32.5837  -19.0394   25.4512 C   0  0  1  0  0  0  0  0  0  1  0  0
  -29.6746  -23.1155   19.8335 C   0  0  1  0  0  0  0  0  0  0  0  0
  -30.6391  -21.0998   16.7715 C   0  0  2  0  0  0  0  0  0  0  0  0
  -28.2277  -23.6584   20.0045 C   0  0  0  0  0  0  0  0  0  0  0  0
  -25.8683  -11.5447   20.2083 N   0  0  0  0  0  0  0  0  0  0  0  0
  -26.2215  -12.8405   20.1613 N   0  0  0  0  0  0  0  0  0  0  0  0
  -31.6022  -23.8383   21.2067 N   0  0  0  0  0  0  0  0  0  0  0  0
  -29.9434  -13.6771   20.3374 N   0  0  0  0  0  0  0  0  0  0  0  0
  -25.4258  -15.0316   20.5815 N   0  0  0  0  0  0  0  0  0  0  0  0
  -22.7229  -13.5106   22.7666 N   0  0  0  0  0  0  0  0  0  0  0  0
  -30.0476  -15.6762   21.5845 N   0  0  0  0  0  0  0  0  0  0  0  0
  -32.1066  -26.8557   23.0427 N   0  0  0  0  0  0  0  0  0  0  0  0
  -29.9794  -22.6405   18.4882 N   0  0  0  0  0  0  0  0  0  0  0  0
  -32.0743  -20.7760   16.5344 N   0  3  0  0  0  0  0  0  0  0  0  0
  -21.9450  -13.6276   20.6125 O   0  0  0  0  0  0  0  0  0  0  0  0
  -31.1151  -24.8277   23.6142 O   0  0  0  0  0  0  0  0  0  0  0  0
  -30.7597  -25.2001   19.5121 O   0  0  0  0  0  0  0  0  0  0  0  0
  -30.5429  -20.4771   19.1039 O   0  0  0  0  0  0  0  0  0  0  0  0
  -31.8046  -15.0422   20.2088 O   0  0  0  0  0  0  0  0  0  0  0  0
  -21.7288   -6.8563   21.4044 O   0  0  0  0  0  0  0  0  0  0  0  0
  -33.8474  -19.5018   24.9760 O   0  0  0  0  0  0  0  0  0  1  0  0
  -21.0031   -5.0911   26.5776 F   0  0  0  0  0  0  0  0  0  0  0  0
  -22.6757   -4.3858   22.2060 F   0  0  0  0  0  0  0  0  0  0  0  0
  -34.3971  -17.3122   23.6808 Cl  0  0  0  0  0  0  0  0  0  0  0  0
  -28.1601  -17.3260   23.2708 Cl  0  0  0  0  0  0  0  0  0  0  0  0
  1  2  1  0  0  0  0
  1  5  2  0  0  0  0
  2  6  2  0  0  0  0
  3  8  2  0  0  0  0
  3 16  1  0  0  0  0
  4  9  1  0  0  0  0
  4 16  2  0  0  0  0
  5 18  1  0  0  0  0
  6 20  1  0  0  0  0
  7 10  2  0  0  0  0
  7 19  1  0  0  0  0
  8 25  1  0  0  0  0
  9 25  2  0  0  0  0
 10 26  1  0  0  0  0
 11 12  2  0  0  0  0
 11 27  1  0  0  0  0
 12 28  1  0  0  0  0
 13 21  1  0  0  0  0
 13 26  2  0  0  0  0
 14 24  1  0  0  0  0
 14 30  2  0  0  0  0
 15 28  2  0  0  0  0
 15 29  1  0  0  0  0
 16 32  1  0  0  0  0
 17 32  1  0  0  0  0
 17 33  2  0  0  0  0
 17 34  1  0  0  0  0
 18 20  2  0  0  0  0
 18 39  1  0  0  0  0
 19 21  2  0  0  0  0
 19 40  1  0  0  0  0
 20 48  1  0  0  0  0
 21 41  1  0  0  0  0
 22 23  2  0  0  0  0
 22 31  1  0  0  0  0
 22 51  1  0  0  0  0
 23 30  1  0  0  0  0
 23 58  1  0  0  0  0
 24 31  2  0  0  0  0
 24 68  1  0  0  0  0
 25 77  1  0  0  0  0
 26 78  1  0  0  0  0
 27 29  2  0  0  0  0
 27 77  1  0  0  0  0
 28 79  1  0  0  0  0
 29 80  1  0  0  0  0
 30 81  1  0  0  0  0
 31 82  1  0  0  0  0
 32 62  2  0  0  0  0
 33 63  1  0  0  0  0
 33 66  1  0  0  0  0
 34 67  1  0  0  0  0
 34 72  2  0  0  0  0
 35 49  1  0  0  0  0
 35 69  1  0  0  0  0
 35 73  2  0  0  0  0
 36 59  1  0  0  0  0
 36 64  1  0  0  0  0
 36 74  2  0  0  0  0
 37 60  1  0  0  0  0
 37 70  1  0  0  0  0
 37 75  2  0  0  0  0
 38 65  1  0  0  0  0
 38 68  1  0  0  0  0
 38 76  2  0  0  0  0
 39 42  1  0  0  0  0
 40 49  1  0  0  0  0
 41 64  1  0  0  0  0
 42 44  1  0  0  0  0
 43 45  1  0  0  0  0
 43 46  1  0  0  0  0
 44 48  1  0  0  0  0
 45 50  1  0  0  0  0
 46 65  1  0  0  0  0
 47 50  1  0  0  0  0
 47 65  1  0  0  0  0
 48 69  1  0  0  0  0
 49 64  1  0  0  0  0
 50 63  1  0  0  0  0
 52 58  1  0  0  0  0
 53 60  1  0  0  0  0
 54 61  1  0  0  0  0
 55 61  1  0  0  0  0
 56 61  1  0  0  0  0
 57 71  1  0  0  0  0
 58 78  1  0  0  0  0
 59 61  1  0  0  0  0
 59 70  1  0  0  0  0
 60 71  1  0  0  0  0
 62 63  1  0  0  0  0
M  CHG  1  71   1
M  ISO  4  38 100  58 101  68 100  78 101
M  END
> <Batch ID>
0022

> <Smiles>
CNC(C)C(=O)NC(C(=O)N1Cc2cc([101O:1][101CH:1](C)c3c(Cl)cc([100NH:0][100C:0](=O)N4CCCC(n5nc(-c6ccc(Oc7ccc(F)cc7F)cc6)c(C(N)=O)c5N)C4)c(Cl)c3C)ccc2CC1C(=O)NC1CCCc2ccccc21)C(C)(C)C

> <Shape>
0.231

> <Color>
0.216

> <Negative vol penalty>
0.000

$$$$

  -OEChem-04052316153D

 83 91  0     1  0  0  0  0  0999 V2000
  -16.8281  -31.1982   21.5222 C   0  0  0  0  0  0  0  0  0  0  0  0
  -18.0455  -31.5282   20.9353 C   0  0  0  0  0  0  0  0  0  0  0  0
  -26.2782  -12.9120   21.3303 C   0  0  0  0  0  0  0  0  0  0  0  0
  -26.1417  -13.2132   18.9371 C   0  0  0  0  0  0  0  0  0  0  0  0
  -16.8011  -30.4144   22.6750 C   0  0  0  0  0  0  0  0  0  0  0  0
  -19.2367  -31.0755   21.5014 C   0  0  0  0  0  0  0  0  0  0  0  0
  -25.8408  -28.9804   19.6814 C   0  0  0  0  0  0  0  0  0  0  0  0
  -25.0649  -12.2242   21.3130 C   0  0  0  0  0  0  0  0  0  0  0  0
  -24.9284  -12.5253   18.9197 C   0  0  0  0  0  0  0  0  0  0  0  0
  -27.1759  -29.2423   19.9855 C   0  0  0  0  0  0  0  0  0  0  0  0
  -23.9715   -9.1212   20.5326 C   0  0  0  0  0  0  0  0  0  0  0  0
  -23.8855   -7.9397   21.2689 C   0  0  0  0  0  0  0  0  0  0  0  0
  -27.0035  -27.8286   21.9325 C   0  0  0  0  0  0  0  0  0  0  0  0
  -29.8192  -26.2767   19.1927 C   0  0  0  0  0  0  0  0  0  0  0  0
  -32.0472  -25.4577   19.6424 C   0  0  0  0  0  0  0  0  0  0  0  0
  -22.0967   -8.8903   22.5855 C   0  0  0  0  0  0  0  0  0  0  0  0
  -26.8166  -13.4066   20.1424 C   0  0  0  0  0  0  0  0  0  0  0  0
  -29.3592  -13.5713   20.0173 C   0  0  0  0  0  0  0  0  0  0  0  0
  -17.9921  -29.9438   23.2501 C   0  0  0  0  0  0  0  0  0  0  0  0
  -25.0725  -28.1480   20.5080 C   0  0  0  0  0  0  0  0  0  0  0  0
  -19.2256  -30.2858   22.6637 C   0  0  0  0  0  0  0  0  0  0  0  0
  -25.6595  -27.5557   21.6353 C   0  0  0  0  0  0  0  0  0  0  0  0
  -31.1124  -26.4926   19.6689 C   0  0  0  0  0  0  0  0  0  0  0  0
  -30.3956  -23.9909   18.6636 C   0  0  0  0  0  0  0  0  0  0  0  0
  -24.3900  -12.0308   20.1077 C   0  0  0  0  0  0  0  0  0  0  0  0
  -27.7567  -28.6687   21.1128 C   0  0  0  0  0  0  0  0  0  0  0  0
  -23.1201  -10.1874   20.8228 C   0  0  0  0  0  0  0  0  0  0  0  0
  -22.9481   -7.8242   22.2953 C   0  0  0  0  0  0  0  0  0  0  0  0
  -22.1827  -10.0719   21.8492 C   0  0  0  0  0  0  0  0  0  0  0  0
  -29.4608  -25.0259   18.6901 C   0  0  0  0  0  0  0  0  0  0  0  0
  -31.6888  -24.2068   19.1398 C   0  0  0  0  0  0  0  0  0  0  0  0
  -28.0697  -14.1177   20.1597 C   0  0  0  0  0  0  0  0  0  0  0  0
  -30.2018  -14.6525   20.1045 C   0  0  0  0  0  0  0  0  0  0  0  0
  -29.7597  -12.2083   19.8234 C   0  0  0  0  0  0  0  0  0  0  0  0
  -22.4550  -28.5341   22.2696 C   0  0  0  0  0  0  0  0  0  0  0  0
  -22.7319  -25.3287   22.6831 C   0  0  0  0  0  0  0  0  0  0  0  0
  -24.7437  -22.5721   22.6947 C   0  0  0  0  0  0  0  0  0  0  0  0
  -29.3903  -20.3776   18.9128 C   0  0  0  0  0  0  0  0  0  0  0  0
  -17.9149  -29.1390   24.5233 C   0  0  0  0  0  0  0  0  0  0  0  0
  -23.6411  -27.8541   20.1514 C   0  0  0  0  0  0  0  0  0  0  0  0
  -24.8836  -26.6386   22.5438 C   0  0  0  0  0  0  0  0  0  0  0  0
  -19.2032  -28.3870   24.8475 C   0  0  0  0  0  0  0  0  0  0  0  0
  -30.5162  -19.0064   22.0671 C   0  0  0  0  0  0  0  0  0  0  0  0
  -20.4119  -29.3025   24.6815 C   0  0  0  0  0  0  0  0  0  0  0  0
  -30.1326  -17.5336   21.9128 C   0  0  0  0  0  0  0  0  0  0  0  0
  -29.4680  -19.9195   21.4381 C   0  0  0  0  0  0  0  0  0  0  0  0
  -28.7973  -18.1603   19.8478 C   0  0  0  0  0  0  0  0  0  0  0  0
  -20.5379  -29.7931   23.2341 C   0  0  1  0  0  0  0  0  0  0  0  0
  -22.8083  -27.4020   21.3470 C   0  0  1  0  0  0  0  0  0  0  0  0
  -29.8285  -17.1848   20.4437 C   0  0  2  0  0  0  0  0  0  0  0  0
  -24.6916  -20.0971   23.1060 C   0  0  0  0  0  0  0  0  0  0  0  0
  -22.6205  -25.8331   25.6902 C   0  0  0  0  0  0  0  0  0  0  0  0
  -23.5112  -23.5197   26.0409 C   0  0  0  0  0  0  0  0  0  0  0  0
  -21.3092  -23.8493   24.9159 C   0  0  0  0  0  0  0  0  0  0  0  0
  -25.6082  -21.9769   19.9276 C   0  0  0  0  0  0  0  0  0  0  0  0
  -31.4996  -27.8445   20.2128 C   0  0  0  0  0  0  0  0  0  0  0  0
  -30.0105  -22.6471   18.1243 C   0  0  0  0  0  0  0  0  0  0  0  0
  -31.2524  -27.9979   21.7151 C   0  0  0  0  0  0  0  0  0  0  0  0
  -29.7802  -27.9000   22.0979 C   0  0  0  0  0  0  0  0  0  1  0  0
  -23.4339  -24.4357   23.6774 C   0  0  1  0  0  0  0  0  0  0  0  0
  -24.5768  -21.2006   22.0658 C   0  0  2  0  0  0  0  0  0  0  0  0
  -22.7330  -24.4283   25.0653 C   0  0  0  0  0  0  0  0  0  0  0  0
  -28.0866  -15.4430   20.3250 N   0  0  0  0  0  0  0  0  0  0  0  0
  -29.3970  -15.7384   20.2871 N   0  0  0  0  0  0  0  0  0  0  0  0
  -23.4857  -26.3871   22.1564 N   0  0  0  0  0  0  0  0  0  0  0  0
  -29.2387  -19.5464   20.0351 N   0  0  0  0  0  0  0  0  0  0  0  0
  -31.5451  -14.7707   20.0420 N   0  0  0  0  0  0  0  0  0  0  0  0
  -28.7654  -11.2228   19.7568 N   0  0  0  0  0  0  0  0  0  0  0  0
  -21.0967  -28.7546   22.3953 N   0  0  0  0  0  0  0  0  0  0  0  0
  -23.5302  -23.1223   23.0496 N   0  0  0  0  0  0  0  0  0  0  0  0
  -29.8047  -21.6773   19.1770 N   0  0  0  0  0  0  0  0  0  0  0  0
  -25.6208  -20.9769   21.0261 N   0  3  0  0  0  0  0  0  0  0  0  0
  -30.9645  -11.8721   19.7289 O   0  0  0  0  0  0  0  0  0  0  0  0
  -23.3486  -29.1603   22.8273 O   0  0  0  0  0  0  0  0  0  0  0  0
  -21.5601  -25.0916   22.3793 O   0  0  0  0  0  0  0  0  0  0  0  0
  -25.8411  -23.1007   22.8585 O   0  0  0  0  0  0  0  0  0  0  0  0
  -29.1774  -19.9886   17.7594 O   0  0  0  0  0  0  0  0  0  0  0  0
  -23.2061  -11.3595   20.0903 O   0  0  0  0  0  0  0  0  0  0  0  0
  -29.0596  -28.9231   21.4122 O   0  0  0  0  0  0  0  0  0  1  0  0
  -22.8647   -6.6889   23.0013 F   0  0  0  0  0  0  0  0  0  0  0  0
  -21.3612  -11.0922   22.1318 F   0  0  0  0  0  0  0  0  0  0  0  0
  -27.8492  -24.8020   18.1113 Cl  0  0  0  0  0  0  0  0  0  0  0  0
  -32.8769  -22.9535   19.1264 Cl  0  0  0  0  0  0  0  0  0  0  0  0
  1  2  1  0  0  0  0
  1  5  2  0  0  0  0
  2  6  2  0  0  0  0
  3  8  2  0  0  0  0
  3 17  1  0  0  0  0
  4  9  1  0  0  0  0
  4 17  2  0  0  0  0
  5 19  1  0  0  0  0
  6 21  1  0  0  0  0
  7 10  2  0  0  0  0
  7 20  1  0  0  0  0
  8 25  1  0  0  0  0
  9 25  2  0  0  0  0
 10 26  1  0  0  0  0
 11 12  2  0  0  0  0
 11 27  1  0  0  0  0
 12 28  1  0  0  0  0
 13 22  1  0  0  0  0
 13 26  2  0  0  0  0
 14 23  1  0  0  0  0
 14 30  2  0  0  0  0
 15 23  2  0  0  0  0
 15 31  1  0  0  0  0
 16 28  2  0  0  0  0
 16 29  1  0  0  0  0
 17 32  1  0  0  0  0
 18 32  1  0  0  0  0
 18 33  2  0  0  0  0
 18 34  1  0  0  0  0
 19 21  2  0  0  0  0
 19 39  1  0  0  0  0
 20 22  2  0  0  0  0
 20 40  1  0  0  0  0
 21 48  1  0  0  0  0
 22 41  1  0  0  0  0
 23 56  1  0  0  0  0
 24 30  1  0  0  0  0
 24 31  2  0  0  0  0
 24 57  1  0  0  0  0
 25 78  1  0  0  0  0
 26 79  1  0  0  0  0
 27 29  2  0  0  0  0
 27 78  1  0  0  0  0
 28 80  1  0  0  0  0
 29 81  1  0  0  0  0
 30 82  1  0  0  0  0
 31 83  1  0  0  0  0
 32 63  2  0  0  0  0
 33 64  1  0  0  0  0
 33 67  1  0  0  0  0
 34 68  1  0  0  0  0
 34 73  2  0  0  0  0
 35 49  1  0  0  0  0
 35 69  1  0  0  0  0
 35 74  2  0  0  0  0
 36 60  1  0  0  0  0
 36 65  1  0  0  0  0
 36 75  2  0  0  0  0
 37 61  1  0  0  0  0
 37 70  1  0  0  0  0
 37 76  2  0  0  0  0
 38 66  1  0  0  0  0
 38 71  1  0  0  0  0
 38 77  2  0  0  0  0
 39 42  1  0  0  0  0
 40 49  1  0  0  0  0
 41 65  1  0  0  0  0
 42 44  1  0  0  0  0
 43 45  1  0  0  0  0
 43 46  1  0  0  0  0
 44 48  1  0  0  0  0
 45 50  1  0  0  0  0
 46 66  1  0  0  0  0
 47 50  1  0  0  0  0
 47 66  1  0  0  0  0
 48 69  1  0  0  0  0
 49 65  1  0  0  0  0
 50 64  1  0  0  0  0
 51 61  1  0  0  0  0
 52 62  1  0  0  0  0
 53 62  1  0  0  0  0
 54 62  1  0  0  0  0
 55 72  1  0  0  0  0
 56 58  1  0  0  0  0
 57 71  1  0  0  0  0
 58 59  1  0  0  0  0
 59 79  1  0  0  0  0
 60 62  1  0  0  0  0
 60 70  1  0  0  0  0
 61 72  1  0  0  0  0
 63 64  1  0  0  0  0
M  CHG  1  72   1
M  ISO  4  38 100  59 101  71 100  79 101
M  END
> <Batch ID>
0022

> <Smiles>
CNC(C)C(=O)NC(C(=O)N1Cc2cc([101O:1][101CH2:1]CCc3cc(Cl)c(C[100NH:0][100C:0](=O)N4CCCC(n5nc(-c6ccc(Oc7ccc(F)cc7F)cc6)c(C(N)=O)c5N)C4)c(Cl)c3)ccc2CC1C(=O)NC1CCCc2ccccc21)C(C)(C)C

> <Shape>
0.291

> <Color>
0.090

> <Negative vol penalty>
0.000

$$$$

  -OEChem-04052316153D

 96104  0     1  0  0  0  0  0999 V2000
  -29.7760  -25.9920   16.6851 C   0  0  0  0  0  0  0  0  0  0  0  0
  -28.4011  -25.9702   16.8960 C   0  0  0  0  0  0  0  0  0  0  0  0
  -24.2601   -9.2859   20.2885 C   0  0  0  0  0  0  0  0  0  0  0  0
  -22.8194  -10.4244   21.8586 C   0  0  0  0  0  0  0  0  0  0  0  0
  -30.6297  -26.4140   17.7035 C   0  0  0  0  0  0  0  0  0  0  0  0
  -27.8790  -26.3693   18.1258 C   0  0  0  0  0  0  0  0  0  0  0  0
  -22.5873  -29.2924   19.1051 C   0  0  0  0  0  0  0  0  0  0  0  0
  -23.5057   -8.1225   20.4398 C   0  0  0  0  0  0  0  0  0  0  0  0
  -22.0649   -9.2610   22.0099 C   0  0  0  0  0  0  0  0  0  0  0  0
  -21.3259  -28.8437   19.4942 C   0  0  0  0  0  0  0  0  0  0  0  0
  -22.3136   -6.3294   23.6757 C   0  0  0  0  0  0  0  0  0  0  0  0
  -21.9617   -5.9490   24.9707 C   0  0  0  0  0  0  0  0  0  0  0  0
  -21.8439  -29.3934   21.7852 C   0  0  0  0  0  0  0  0  0  0  0  0
  -19.6239   -6.1059   24.3816 C   0  0  0  0  0  0  0  0  0  0  0  0
  -23.9170  -10.4368   20.9980 C   0  0  0  0  0  0  0  0  0  0  0  0
  -24.4908  -12.6700   19.9066 C   0  0  0  0  0  0  0  0  0  0  0  0
  -30.1172  -26.8277   18.9432 C   0  0  0  0  0  0  0  0  0  0  0  0
  -23.4920  -29.7856   20.0562 C   0  0  0  0  0  0  0  0  0  0  0  0
  -28.7267  -26.7960   19.1622 C   0  0  0  0  0  0  0  0  0  0  0  0
  -23.1151  -29.8501   21.4052 C   0  0  0  0  0  0  0  0  0  0  0  0
  -22.4081   -8.1100   21.3005 C   0  0  0  0  0  0  0  0  0  0  0  0
  -20.9551  -28.8915   20.8348 C   0  0  0  0  0  0  0  0  0  0  0  0
  -21.3206   -6.5982   22.7337 C   0  0  0  0  0  0  0  0  0  0  0  0
  -20.6169   -5.8372   25.3237 C   0  0  0  0  0  0  0  0  0  0  0  0
  -19.9758   -6.4864   23.0866 C   0  0  0  0  0  0  0  0  0  0  0  0
  -24.6963  -11.6388   20.8426 C   0  0  0  0  0  0  0  0  0  0  0  0
  -25.4900  -13.5754   20.1683 C   0  0  0  0  0  0  0  0  0  0  0  0
  -23.4865  -12.7982   18.8914 C   0  0  0  0  0  0  0  0  0  0  0  0
  -26.9985  -20.9445   24.3456 C   0  0  0  0  0  0  0  0  0  0  0  0
  -26.3781  -28.9189   21.0675 C   0  0  0  0  0  0  0  0  0  0  0  0
  -18.4970  -26.8678   22.5673 C   0  0  0  0  0  0  0  0  0  0  0  0
  -26.1888  -31.6823   22.7557 C   0  0  0  0  0  0  0  0  0  0  0  0
  -24.2194  -34.0742   24.1865 C   0  0  0  0  0  0  0  0  0  0  0  0
  -28.5577  -16.5308   23.7739 C   0  0  0  0  0  0  0  0  0  0  0  0
  -31.0825  -27.2308   20.0297 C   0  0  0  0  0  0  0  0  0  0  0  0
  -24.8389  -30.2906   19.6166 C   0  0  0  0  0  0  0  0  0  0  0  0
  -24.0421  -30.3896   22.4627 C   0  0  0  0  0  0  0  0  0  0  0  0
  -30.4246  -27.9936   21.1767 C   0  0  0  0  0  0  0  0  0  0  0  0
  -29.5950  -13.1923   23.0990 C   0  0  0  0  0  0  0  0  0  0  0  0
  -29.1423  -27.2943   21.6168 C   0  0  0  0  0  0  0  0  0  0  0  0
  -28.7515  -23.8918   26.1199 C   0  0  0  0  0  0  0  0  0  0  0  0
  -28.3942  -12.5744   22.3806 C   0  0  0  0  0  0  0  0  0  0  0  0
  -29.1832  -24.6266   24.8537 C   0  0  0  0  0  0  0  0  0  0  0  0
  -28.5695  -22.6076   23.4703 C   0  0  0  0  0  0  0  0  0  0  0  0
  -29.1591  -14.1645   24.1930 C   0  0  0  0  0  0  0  0  0  0  0  0
  -27.0311  -14.6039   23.0300 C   0  0  0  0  0  0  0  0  0  0  0  0
  -28.1208  -27.2450   20.4742 C   0  0  1  0  0  0  0  0  0  0  0  0
  -28.1160  -21.8675   24.7345 C   0  0  1  0  0  0  0  0  0  0  0  0
  -25.8712  -30.2949   20.7399 C   0  0  1  0  0  0  0  0  0  0  0  0
  -27.6638  -22.8429   25.8382 C   0  0  1  0  0  0  0  0  0  0  0  0
  -27.4209  -13.6588   21.8806 C   0  0  2  0  0  0  0  0  0  0  0  0
  -29.6306  -23.6562   23.7711 C   0  0  2  0  0  0  0  0  0  0  0  0
  -27.3159  -22.1060   27.1360 C   0  0  0  0  0  0  0  0  0  0  0  0
  -24.3510  -36.1898   25.5297 C   0  0  0  0  0  0  0  0  0  0  0  0
  -26.8277  -30.0529   25.2551 C   0  0  0  0  0  0  0  0  0  0  0  0
  -26.0202  -31.9806   26.6335 C   0  0  0  0  0  0  0  0  0  0  0  0
  -27.9879  -32.2647   25.1269 C   0  0  0  0  0  0  0  0  0  0  0  0
  -22.8818  -35.6427   22.0630 C   0  0  0  0  0  0  0  0  0  0  0  0
  -18.2278  -26.2071   23.9053 C   0  0  0  0  0  0  0  0  0  0  0  0
  -19.5965  -27.9097   22.5219 C   0  0  0  0  0  0  0  0  0  1  0  0
  -19.4613  -25.5269   24.4907 C   0  0  0  0  0  0  0  0  0  0  0  0
  -20.0236  -24.4387   23.5716 C   0  0  0  0  0  0  0  0  0  0  0  0
  -21.2420  -23.7565   24.1996 C   0  0  0  0  0  0  0  0  0  0  0  0
  -21.8254  -22.6956   23.2638 C   0  0  0  0  0  0  0  0  0  0  0  0
  -23.0416  -21.9709   23.8474 C   0  0  0  0  0  0  0  0  0  0  0  0
  -23.6703  -20.9635   22.8836 C   0  0  0  0  0  0  0  0  0  0  0  0
  -24.8907  -20.2925   23.5034 C   0  0  0  0  0  0  0  0  0  0  0  0
  -27.8256  -18.8480   23.2700 C   0  0  0  0  0  0  0  0  0  0  0  0
  -25.6762  -32.0672   24.1225 C   0  0  1  0  0  0  0  0  0  0  0  0
  -24.2770  -35.5902   24.1341 C   0  0  2  0  0  0  0  0  0  0  0  0
  -27.2211  -19.4550   24.5255 C   0  0  0  0  0  0  0  0  0  0  0  0
  -26.6110  -31.5793   25.2651 C   0  0  0  0  0  0  0  0  0  0  0  0
  -25.7438  -11.8667   21.6393 N   0  0  0  0  0  0  0  0  0  0  0  0
  -25.8825  -21.3189   23.8279 N   0  0  0  0  0  0  0  0  0  0  0  0
  -26.2056  -13.0516   21.2045 N   0  0  0  0  0  0  0  0  0  0  0  0
  -25.3505  -30.8655   21.9839 N   0  0  0  0  0  0  0  0  0  0  0  0
  -28.2387  -15.1682   23.6530 N   0  0  0  0  0  0  0  0  0  0  0  0
  -25.8176  -14.7604   19.6108 N   0  0  0  0  0  0  0  0  0  0  0  0
  -22.5362  -11.7766   18.7589 N   0  0  0  0  0  0  0  0  0  0  0  0
  -27.4730  -28.5299   20.3196 N   0  0  0  0  0  0  0  0  0  0  0  0
  -25.4747  -33.5118   24.0911 N   0  0  0  0  0  0  0  0  0  0  0  0
  -27.6345  -17.4152   23.2296 N   0  0  0  0  0  0  0  0  0  0  0  0
  -23.0665  -36.1313   23.4537 N   0  3  0  0  0  0  0  0  0  0  0  0
  -23.4433  -13.7815   18.1137 O   0  0  0  0  0  0  0  0  0  0  0  0
  -25.8184  -28.2596   21.9356 O   0  0  0  0  0  0  0  0  0  0  0  0
  -17.8451  -26.5618   21.5687 O   0  0  0  0  0  0  0  0  0  0  0  0
  -27.2893  -32.0972   22.3837 O   0  0  0  0  0  0  0  0  0  0  0  0
  -23.1664  -33.4513   24.3044 O   0  0  0  0  0  0  0  0  0  0  0  0
  -29.5913  -16.9294   24.3213 O   0  0  0  0  0  0  0  0  0  0  0  0
  -21.6715   -6.9750   21.4482 O   0  0  0  0  0  0  0  0  0  0  0  0
  -19.7124  -28.4492   21.2213 O   0  0  0  0  0  0  0  0  0  1  0  0
  -20.2792   -5.4704   26.5669 F   0  0  0  0  0  0  0  0  0  0  0  0
  -19.0174   -6.7422   22.1856 F   0  0  0  0  0  0  0  0  0  0  0  0
  -30.7577  -23.0202   24.1984 F   0  0  0  0  0  0  0  0  0  0  0  0
  -28.0425  -19.2160   25.5833 F   0  0  0  0  0  0  0  0  0  0  0  0
  -26.0505  -18.8172   24.8050 F   0  0  0  0  0  0  0  0  0  0  0  0
  1  2  1  0  0  0  0
  1  5  2  0  0  0  0
  2  6  2  0  0  0  0
  3  8  2  0  0  0  0
  3 15  1  0  0  0  0
  4  9  1  0  0  0  0
  4 15  2  0  0  0  0
  5 17  1  0  0  0  0
  6 19  1  0  0  0  0
  7 10  2  0  0  0  0
  7 18  1  0  0  0  0
  8 21  1  0  0  0  0
  9 21  2  0  0  0  0
 10 22  1  0  0  0  0
 11 12  2  0  0  0  0
 11 23  1  0  0  0  0
 12 24  1  0  0  0  0
 13 20  1  0  0  0  0
 13 22  2  0  0  0  0
 14 24  2  0  0  0  0
 14 25  1  0  0  0  0
 15 26  1  0  0  0  0
 16 26  1  0  0  0  0
 16 27  2  0  0  0  0
 16 28  1  0  0  0  0
 17 19  2  0  0  0  0
 17 35  1  0  0  0  0
 18 20  2  0  0  0  0
 18 36  1  0  0  0  0
 19 47  1  0  0  0  0
 20 37  1  0  0  0  0
 21 90  1  0  0  0  0
 22 91  1  0  0  0  0
 23 25  2  0  0  0  0
 23 90  1  0  0  0  0
 24 92  1  0  0  0  0
 25 93  1  0  0  0  0
 26 73  2  0  0  0  0
 27 75  1  0  0  0  0
 27 78  1  0  0  0  0
 28 79  1  0  0  0  0
 28 84  2  0  0  0  0
 29 48  1  0  0  0  0
 29 71  1  0  0  0  0
 29 74  2  0  0  0  0
 30 49  1  0  0  0  0
 30 80  1  0  0  0  0
 30 85  2  0  0  0  0
 31 59  1  0  0  0  0
 31 60  1  0  0  0  0
 31 86  2  0  0  0  0
 32 69  1  0  0  0  0
 32 76  1  0  0  0  0
 32 87  2  0  0  0  0
 33 70  1  0  0  0  0
 33 81  1  0  0  0  0
 33 88  2  0  0  0  0
 34 77  1  0  0  0  0
 34 82  1  0  0  0  0
 34 89  2  0  0  0  0
 35 38  1  0  0  0  0
 36 49  1  0  0  0  0
 37 76  1  0  0  0  0
 38 40  1  0  0  0  0
 39 42  1  0  0  0  0
 39 45  1  0  0  0  0
 40 47  1  0  0  0  0
 41 43  1  0  0  0  0
 41 50  1  0  0  0  0
 42 51  1  0  0  0  0
 43 52  1  0  0  0  0
 44 48  1  0  0  0  0
 44 52  1  0  0  0  0
 45 77  1  0  0  0  0
 46 51  1  0  0  0  0
 46 77  1  0  0  0  0
 47 80  1  0  0  0  0
 48 50  1  0  0  0  0
 49 76  1  0  0  0  0
 50 53  1  0  0  0  0
 51 75  1  0  0  0  0
 52 94  1  0  0  0  0
 54 70  1  0  0  0  0
 55 72  1  0  0  0  0
 56 72  1  0  0  0  0
 57 72  1  0  0  0  0
 58 83  1  0  0  0  0
 59 61  1  0  0  0  0
 60 91  1  0  0  0  0
 61 62  1  0  0  0  0
 62 63  1  0  0  0  0
 63 64  1  0  0  0  0
 64 65  1  0  0  0  0
 65 66  1  0  0  0  0
 66 67  1  0  0  0  0
 67 74  1  0  0  0  0
 68 71  1  0  0  0  0
 68 82  1  0  0  0  0
 69 72  1  0  0  0  0
 69 81  1  0  0  0  0
 70 83  1  0  0  0  0
 71 95  1  0  0  0  0
 71 96  1  0  0  0  0
 73 75  1  0  0  0  0
M  CHG  1  83   1
M  ISO  4  34 100  60 101  82 100  91 101
M  END
> <Batch ID>
0022

> <Smiles>
CNC(C)C(=O)NC(C(=O)N1Cc2cc([101O:1][101CH2:1]C(=O)CCCCCCCCNC(=C3CC(F)CCC3C)C(F)(F)C[100NH:0][100C:0](=O)N3CCCC(n4nc(-c5ccc(Oc6ccc(F)cc6F)cc5)c(C(N)=O)c4N)C3)ccc2CC1C(=O)NC1CCCc2ccccc21)C(C)(C)C

> <Shape>
0.302

> <Color>
0.143

> <Negative vol penalty>
0.000

$$$$

  -OEChem-04052316153D

 86 94  0     1  0  0  0  0  0999 V2000
  -18.0014  -25.5110   21.6419 C   0  0  0  0  0  0  0  0  0  0  0  0
  -19.2718  -25.5787   21.0789 C   0  0  0  0  0  0  0  0  0  0  0  0
  -23.5047   -9.6979   22.2592 C   0  0  0  0  0  0  0  0  0  0  0  0
  -24.0191   -9.0894   19.9784 C   0  0  0  0  0  0  0  0  0  0  0  0
  -17.6258  -26.4263   22.6242 C   0  0  0  0  0  0  0  0  0  0  0  0
  -20.1671  -26.5625   21.4972 C   0  0  0  0  0  0  0  0  0  0  0  0
  -24.8272  -24.7422   22.2813 C   0  0  0  0  0  0  0  0  0  0  0  0
  -22.6039   -8.6360   22.3394 C   0  0  0  0  0  0  0  0  0  0  0  0
  -23.1183   -8.0274   20.0586 C   0  0  0  0  0  0  0  0  0  0  0  0
  -25.6180  -24.5110   21.1566 C   0  0  0  0  0  0  0  0  0  0  0  0
  -20.4363   -5.8677   23.2630 C   0  0  0  0  0  0  0  0  0  0  0  0
  -20.4707   -5.0732   24.4089 C   0  0  0  0  0  0  0  0  0  0  0  0
  -26.7677  -26.5960   21.5439 C   0  0  0  0  0  0  0  0  0  0  0  0
  -29.7737  -18.0636   18.0645 C   0  0  0  0  0  0  0  0  0  0  0  0
  -22.7679   -4.4922   23.9369 C   0  0  0  0  0  0  0  0  0  0  0  0
  -24.2123   -9.9247   21.0787 C   0  0  0  0  0  0  0  0  0  0  0  0
  -26.5143  -10.9992   21.3103 C   0  0  0  0  0  0  0  0  0  0  0  0
  -18.5203  -27.4159   23.0617 C   0  0  0  0  0  0  0  0  0  0  0  0
  -24.9935  -25.9092   23.0407 C   0  0  0  0  0  0  0  0  0  0  0  0
  -19.8026  -27.4928   22.4854 C   0  0  0  0  0  0  0  0  0  0  0  0
  -25.9794  -26.8384   22.6792 C   0  0  0  0  0  0  0  0  0  0  0  0
  -29.5984  -16.7094   17.8026 C   0  0  0  0  0  0  0  0  0  0  0  0
  -22.4107   -7.8007   21.2391 C   0  0  0  0  0  0  0  0  0  0  0  0
  -26.5865  -25.4393   20.7861 C   0  0  0  0  0  0  0  0  0  0  0  0
  -21.5676   -5.9744   22.4540 C   0  0  0  0  0  0  0  0  0  0  0  0
  -21.6365   -4.3854   24.7459 C   0  0  0  0  0  0  0  0  0  0  0  0
  -22.7334   -5.2867   22.7910 C   0  0  0  0  0  0  0  0  0  0  0  0
  -30.7089  -15.8930   17.6192 C   0  0  0  0  0  0  0  0  0  0  0  0
  -25.1425  -11.0219   20.9950 C   0  0  0  0  0  0  0  0  0  0  0  0
  -31.0699  -18.5486   18.1324 C   0  0  0  0  0  0  0  0  0  0  0  0
  -31.9632  -16.4752   17.7068 C   0  0  0  0  0  0  0  0  0  0  0  0
  -26.9443  -12.2803   21.0646 C   0  0  0  0  0  0  0  0  0  0  0  0
  -27.3273   -9.9169   21.7829 C   0  0  0  0  0  0  0  0  0  0  0  0
  -23.1473  -28.3908   23.7736 C   0  0  0  0  0  0  0  0  0  0  0  0
  -25.6502  -29.1942   25.6743 C   0  0  0  0  0  0  0  0  0  0  0  0
  -28.9910  -28.9447   26.3250 C   0  0  0  0  0  0  0  0  0  0  0  0
  -27.0840  -16.8444   17.8783 C   0  0  0  0  0  0  0  0  0  0  0  0
  -18.0527  -28.4128   24.0923 C   0  0  0  0  0  0  0  0  0  0  0  0
  -24.1506  -26.1311   24.2666 C   0  0  0  0  0  0  0  0  0  0  0  0
  -26.2116  -28.0974   23.4726 C   0  0  0  0  0  0  0  0  0  0  0  0
  -19.1909  -29.1908   24.7476 C   0  0  0  0  0  0  0  0  0  0  0  0
  -24.3278  -16.5063   20.1068 C   0  0  0  0  0  0  0  0  0  0  0  0
  -20.1690  -29.6964   23.6918 C   0  0  0  0  0  0  0  0  0  0  0  0
  -24.4069  -15.0474   20.5625 C   0  0  0  0  0  0  0  0  0  0  0  0
  -24.7256  -16.6648   18.6404 C   0  0  0  0  0  0  0  0  0  0  0  0
  -26.1063  -14.6269   18.7398 C   0  0  0  0  0  0  0  0  0  0  0  0
  -20.8105  -28.5302   22.9305 C   0  0  1  0  0  0  0  0  0  0  0  0
  -24.0573  -27.5994   24.6699 C   0  0  1  0  0  0  0  0  0  0  0  0
  -25.7772  -14.4261   20.2281 C   0  0  2  0  0  0  0  0  0  0  0  0
  -30.7512  -29.7432   27.9255 C   0  0  0  0  0  0  0  0  0  0  0  0
  -25.6466  -31.9245   24.3122 C   0  0  0  0  0  0  0  0  0  0  0  0
  -27.9424  -32.3097   25.2337 C   0  0  0  0  0  0  0  0  0  0  0  0
  -26.0147  -31.9928   26.7849 C   0  0  0  0  0  0  0  0  0  0  0  0
  -29.6179  -26.1857   27.1934 C   0  0  0  0  0  0  0  0  0  0  0  0
  -32.0955  -20.7861   16.1867 C   0  0  0  0  0  0  0  0  0  0  0  0
  -31.2968  -20.0050   18.4122 C   0  0  0  0  0  0  0  0  0  0  0  0
  -29.3446  -22.3505   18.2729 C   0  0  0  0  0  0  0  0  0  0  0  0
  -28.9808  -23.7847   18.6497 C   0  0  0  0  0  0  0  0  0  0  0  0
  -30.7135  -22.2897   17.6118 C   0  0  0  0  0  0  0  0  0  0  0  0
  -27.6319  -23.8569   19.3512 C   0  0  0  0  0  0  0  0  0  1  0  0
  -26.9086  -30.0091   25.4973 C   0  0  1  0  0  0  0  0  0  0  0  0
  -29.7481  -28.6457   27.6064 C   0  0  2  0  0  0  0  0  0  0  0  0
  -26.6226  -31.5363   25.4407 C   0  0  0  0  0  0  0  0  0  0  0  0
  -24.7284  -12.2223   20.5808 N   0  0  0  0  0  0  0  0  0  0  0  0
  -32.1731  -17.7865   17.9597 N   0  0  0  0  0  0  0  0  0  0  0  0
  -25.8466  -12.9658   20.6342 N   0  0  0  0  0  0  0  0  0  0  0  0
  -25.3579  -28.2722   24.6593 N   0  0  0  0  0  0  0  0  0  0  0  0
  -26.0358  -16.0565   18.3991 N   0  0  0  0  0  0  0  0  0  0  0  0
  -28.1505  -12.8760   21.1769 N   0  0  0  0  0  0  0  0  0  0  0  0
  -26.7257   -8.6667   21.9816 N   0  0  0  0  0  0  0  0  0  0  0  0
  -28.2923  -16.1661   17.7217 N   0  0  0  0  0  0  0  0  0  0  0  0
  -21.8502  -27.9165   23.7286 N   0  0  0  0  0  0  0  0  0  0  0  0
  -27.8086  -29.6091   26.5736 N   0  0  0  0  0  0  0  0  0  0  0  0
  -30.4853  -27.3564   27.4836 N   0  3  0  0  0  0  0  0  0  0  0  0
  -31.0036  -20.8883   17.2238 N   0  3  1  0  0  0  0  0  0  0  0  0
  -28.5473  -10.0585   22.0376 O   0  0  0  0  0  0  0  0  0  0  0  0
  -23.5890  -29.3608   23.1688 O   0  0  0  0  0  0  0  0  0  0  0  0
  -24.9560  -29.3643   26.6797 O   0  0  0  0  0  0  0  0  0  0  0  0
  -29.4087  -28.6245   25.2144 O   0  0  0  0  0  0  0  0  0  0  0  0
  -26.9291  -18.0403   17.6178 O   0  0  0  0  0  0  0  0  0  0  0  0
  -21.5320   -6.7642   21.3171 O   0  0  0  0  0  0  0  0  0  0  0  0
  -27.3593  -25.2164   19.6884 O   0  0  0  0  0  0  0  0  0  1  0  0
  -21.6700   -3.6237   25.8472 F   0  0  0  0  0  0  0  0  0  0  0  0
  -23.8237   -5.3862   22.0183 F   0  0  0  0  0  0  0  0  0  0  0  0
  -30.5670  -14.5848   17.3657 F   0  0  0  0  0  0  0  0  0  0  0  0
  -33.3929  -15.5498   17.4940 Cl  0  0  0  0  0  0  0  0  0  0  0  0
  1  2  1  0  0  0  0
  1  5  2  0  0  0  0
  2  6  2  0  0  0  0
  3  8  2  0  0  0  0
  3 16  1  0  0  0  0
  4  9  1  0  0  0  0
  4 16  2  0  0  0  0
  5 18  1  0  0  0  0
  6 20  1  0  0  0  0
  7 10  2  0  0  0  0
  7 19  1  0  0  0  0
  8 23  1  0  0  0  0
  9 23  2  0  0  0  0
 10 24  1  0  0  0  0
 11 12  2  0  0  0  0
 11 25  1  0  0  0  0
 12 26  1  0  0  0  0
 13 21  1  0  0  0  0
 13 24  2  0  0  0  0
 14 22  2  0  0  0  0
 14 30  1  0  0  0  0
 15 26  2  0  0  0  0
 15 27  1  0  0  0  0
 16 29  1  0  0  0  0
 17 29  1  0  0  0  0
 17 32  2  0  0  0  0
 17 33  1  0  0  0  0
 18 20  2  0  0  0  0
 18 38  1  0  0  0  0
 19 21  2  0  0  0  0
 19 39  1  0  0  0  0
 20 47  1  0  0  0  0
 21 40  1  0  0  0  0
 22 28  1  0  0  0  0
 22 71  1  0  0  0  0
 23 81  1  0  0  0  0
 24 82  1  0  0  0  0
 25 27  2  0  0  0  0
 25 81  1  0  0  0  0
 26 83  1  0  0  0  0
 27 84  1  0  0  0  0
 28 31  2  0  0  0  0
 28 85  1  0  0  0  0
 29 64  2  0  0  0  0
 30 56  1  0  0  0  0
 30 65  2  0  0  0  0
 31 65  1  0  0  0  0
 31 86  1  0  0  0  0
 32 66  1  0  0  0  0
 32 69  1  0  0  0  0
 33 70  1  0  0  0  0
 33 76  2  0  0  0  0
 34 48  1  0  0  0  0
 34 72  1  0  0  0  0
 34 77  2  0  0  0  0
 35 61  1  0  0  0  0
 35 67  1  0  0  0  0
 35 78  2  0  0  0  0
 36 62  1  0  0  0  0
 36 73  1  0  0  0  0
 36 79  2  0  0  0  0
 37 68  1  0  0  0  0
 37 71  1  0  0  0  0
 37 80  2  0  0  0  0
 38 41  1  0  0  0  0
 39 48  1  0  0  0  0
 40 67  1  0  0  0  0
 41 43  1  0  0  0  0
 42 44  1  0  0  0  0
 42 45  1  0  0  0  0
 43 47  1  0  0  0  0
 44 49  1  0  0  0  0
 45 68  1  0  0  0  0
 46 49  1  0  0  0  0
 46 68  1  0  0  0  0
 47 72  1  0  0  0  0
 48 67  1  0  0  0  0
 49 66  1  0  0  0  0
 50 62  1  0  0  0  0
 51 63  1  0  0  0  0
 52 63  1  0  0  0  0
 53 63  1  0  0  0  0
 54 74  1  0  0  0  0
 55 75  1  0  0  0  0
 56 75  1  0  0  0  0
 57 58  1  0  0  0  0
 57 59  1  0  0  0  0
 58 60  1  0  0  0  0
 59 75  1  0  0  0  0
 60 82  1  0  0  0  0
 61 63  1  0  0  0  0
 61 73  1  0  0  0  0
 62 74  1  0  0  0  0
 64 66  1  0  0  0  0
M  CHG  2  74   1  75   1
M  ISO  4  37 100  60 101  71 100  82 101
M  END
> <Batch ID>
0022

> <Smiles>
CNC(C)C(=O)NC(C(=O)N1Cc2cc([101O:1][101CH2:1]CCCN(C)Cc3cc([100NH:0][100C:0](=O)N4CCCC(n5nc(-c6ccc(Oc7ccc(F)cc7F)cc6)c(C(N)=O)c5N)C4)c(F)c(Cl)n3)ccc2CC1C(=O)NC1CCCc2ccccc21)C(C)(C)C

> <Shape>
0.252

> <Color>
0.103

> <Negative vol penalty>
0.000

$$$$

  -OEChem-04052316153D

 82 90  0     1  0  0  0  0  0999 V2000
  -17.9789  -25.2068   20.4540 C   0  0  0  0  0  0  0  0  0  0  0  0
  -19.2342  -25.4273   19.8964 C   0  0  0  0  0  0  0  0  0  0  0  0
  -28.6845  -18.2912   20.1841 C   0  0  0  0  0  0  0  0  0  0  0  0
  -30.2358  -18.4409   22.0302 C   0  0  0  0  0  0  0  0  0  0  0  0
  -17.6068  -25.8778   21.6181 C   0  0  0  0  0  0  0  0  0  0  0  0
  -20.1179  -26.3200   20.5021 C   0  0  0  0  0  0  0  0  0  0  0  0
  -24.8324  -24.4935   20.7887 C   0  0  0  0  0  0  0  0  0  0  0  0
  -28.4532  -16.9495   20.4873 C   0  0  0  0  0  0  0  0  0  0  0  0
  -30.0044  -17.0992   22.3334 C   0  0  0  0  0  0  0  0  0  0  0  0
  -25.6017  -24.5316   19.6266 C   0  0  0  0  0  0  0  0  0  0  0  0
  -27.7266  -13.3870   20.5556 C   0  0  0  0  0  0  0  0  0  0  0  0
  -27.7106  -12.4755   19.5000 C   0  0  0  0  0  0  0  0  0  0  0  0
  -26.7156  -26.5122   20.4362 C   0  0  0  0  0  0  0  0  0  0  0  0
  -31.2361  -25.1066   15.6855 C   0  0  0  0  0  0  0  0  0  0  0  0
  -29.9872  -13.0703   18.9518 C   0  0  0  0  0  0  0  0  0  0  0  0
  -29.5758  -19.0369   20.9556 C   0  0  0  0  0  0  0  0  0  0  0  0
  -29.1171  -21.5396   21.1391 C   0  0  0  0  0  0  0  0  0  0  0  0
  -18.4900  -26.7718   22.2437 C   0  0  0  0  0  0  0  0  0  0  0  0
  -24.9915  -25.4723   21.7801 C   0  0  0  0  0  0  0  0  0  0  0  0
  -19.7567  -27.0046   21.6749 C   0  0  0  0  0  0  0  0  0  0  0  0
  -25.9489  -26.4828   21.6111 C   0  0  0  0  0  0  0  0  0  0  0  0
  -30.3111  -26.0670   16.0796 C   0  0  0  0  0  0  0  0  0  0  0  0
  -28.9514  -25.8163   15.9319 C   0  0  0  0  0  0  0  0  0  0  0  0
  -29.1131  -16.3535   21.5619 C   0  0  0  0  0  0  0  0  0  0  0  0
  -26.5415  -25.5427   19.4489 C   0  0  0  0  0  0  0  0  0  0  0  0
  -28.8729  -14.1403   20.8093 C   0  0  0  0  0  0  0  0  0  0  0  0
  -28.8409  -12.3171   18.6981 C   0  0  0  0  0  0  0  0  0  0  0  0
  -30.0032  -13.9819   20.0074 C   0  0  0  0  0  0  0  0  0  0  0  0
  -29.8156  -20.4228   20.6426 C   0  0  0  0  0  0  0  0  0  0  0  0
  -28.5714  -24.5994   15.3892 C   0  0  0  0  0  0  0  0  0  0  0  0
  -30.7539  -23.9214   15.1539 C   0  0  0  0  0  0  0  0  0  0  0  0
  -29.7244  -22.6175   20.5425 C   0  0  0  0  0  0  0  0  0  0  0  0
  -28.0177  -21.5976   22.0577 C   0  0  0  0  0  0  0  0  0  0  0  0
  -23.1105  -27.6881   23.0669 C   0  0  0  0  0  0  0  0  0  0  0  0
  -25.6391  -28.1251   25.0513 C   0  0  0  0  0  0  0  0  0  0  0  0
  -28.9986  -27.8266   25.5723 C   0  0  0  0  0  0  0  0  0  0  0  0
  -32.9805  -22.7855   15.3614 C   0  0  0  0  0  0  0  0  0  0  0  0
  -18.0253  -27.5096   23.4743 C   0  0  0  0  0  0  0  0  0  0  0  0
  -24.1726  -25.4018   23.0398 C   0  0  0  0  0  0  0  0  0  0  0  0
  -26.1726  -27.5457   22.6544 C   0  0  0  0  0  0  0  0  0  0  0  0
  -19.1616  -28.1564   24.2622 C   0  0  0  0  0  0  0  0  0  0  0  0
  -33.9004  -24.0541   18.7137 C   0  0  0  0  0  0  0  0  0  0  0  0
  -20.1041  -28.9035   23.3239 C   0  0  0  0  0  0  0  0  0  0  0  0
  -32.9498  -23.2940   19.6367 C   0  0  0  0  0  0  0  0  0  0  0  0
  -34.2183  -23.2604   17.4501 C   0  0  0  0  0  0  0  0  0  0  0  0
  -32.0496  -22.0729   17.6168 C   0  0  0  0  0  0  0  0  0  0  0  0
  -20.7525  -27.9466   22.3163 C   0  0  1  0  0  0  0  0  0  0  0  0
  -24.0576  -26.7451   23.7536 C   0  0  1  0  0  0  0  0  0  0  0  0
  -31.6818  -22.8686   18.8781 C   0  0  1  0  0  0  0  0  0  0  0  0
  -30.8003  -27.3546   16.6555 C   0  0  0  0  0  0  0  0  0  0  0  0
  -27.1246  -24.2750   15.2055 C   0  0  0  0  0  0  0  0  0  0  0  0
  -30.7780  -28.3047   27.2760 C   0  0  0  0  0  0  0  0  0  0  0  0
  -25.5461  -31.0845   24.3143 C   0  0  0  0  0  0  0  0  0  0  0  0
  -27.8539  -31.3200   25.2561 C   0  0  0  0  0  0  0  0  0  0  0  0
  -25.9697  -30.6253   26.7359 C   0  0  0  0  0  0  0  0  0  0  0  0
  -31.4935  -22.2278   13.4880 C   0  0  0  0  0  0  0  0  0  0  0  0
  -29.7037  -24.9621   25.8100 C   0  0  0  0  0  0  0  0  0  0  0  0
  -27.9237  -26.8391   16.3516 C   0  0  0  0  0  0  0  0  0  0  0  0
  -27.7174  -26.8676   17.8622 C   0  0  0  0  0  0  0  0  0  1  0  0
  -26.8755  -28.9910   25.0328 C   0  0  1  0  0  0  0  0  0  0  0  0
  -29.7912  -27.2768   26.7445 C   0  0  2  0  0  0  0  0  0  0  0  0
  -26.5560  -30.4864   25.3141 C   0  0  0  0  0  0  0  0  0  0  0  0
  -30.7918  -20.7599   19.7956 N   0  0  0  0  0  0  0  0  0  0  0  0
  -29.4407  -23.6421   14.9950 N   0  0  0  0  0  0  0  0  0  0  0  0
  -30.7110  -22.1008   19.7552 N   0  0  0  0  0  0  0  0  0  0  0  0
  -25.3430  -27.4375   23.8659 N   0  0  0  0  0  0  0  0  0  0  0  0
  -33.0020  -22.8108   16.7711 N   0  0  0  0  0  0  0  0  0  0  0  0
  -29.5052  -23.9473   20.6197 N   0  0  0  0  0  0  0  0  0  0  0  0
  -27.5159  -20.3959   22.5758 N   0  0  0  0  0  0  0  0  0  0  0  0
  -21.8231  -27.2017   22.9434 N   0  0  0  0  0  0  0  0  0  0  0  0
  -27.8085  -28.3909   25.9803 N   0  0  0  0  0  0  0  0  0  0  0  0
  -31.7217  -22.9318   14.7480 N   0  0  0  0  0  0  0  0  0  0  0  0
  -30.5526  -26.0641   26.3316 N   0  3  0  0  0  0  0  0  0  0  0  0
  -27.4852  -22.6818   22.3958 O   0  0  0  0  0  0  0  0  0  0  0  0
  -23.5174  -28.7771   22.6792 O   0  0  0  0  0  0  0  0  0  0  0  0
  -24.9649  -28.0556   26.0820 O   0  0  0  0  0  0  0  0  0  0  0  0
  -29.3972  -27.7652   24.4113 O   0  0  0  0  0  0  0  0  0  0  0  0
  -34.0042  -22.5901   14.6948 O   0  0  0  0  0  0  0  0  0  0  0  0
  -28.8875  -15.0443   21.8582 O   0  0  0  0  0  0  0  0  0  0  0  0
  -27.2933  -25.5827   18.3153 O   0  0  0  0  0  0  0  0  0  1  0  0
  -28.8259  -11.4406   17.6853 F   0  0  0  0  0  0  0  0  0  0  0  0
  -31.1077  -14.7020   20.2470 F   0  0  0  0  0  0  0  0  0  0  0  0
  1  2  1  0  0  0  0
  1  5  2  0  0  0  0
  2  6  2  0  0  0  0
  3  8  2  0  0  0  0
  3 16  1  0  0  0  0
  4  9  1  0  0  0  0
  4 16  2  0  0  0  0
  5 18  1  0  0  0  0
  6 20  1  0  0  0  0
  7 10  2  0  0  0  0
  7 19  1  0  0  0  0
  8 24  1  0  0  0  0
  9 24  2  0  0  0  0
 10 25  1  0  0  0  0
 11 12  2  0  0  0  0
 11 26  1  0  0  0  0
 12 27  1  0  0  0  0
 13 21  1  0  0  0  0
 13 25  2  0  0  0  0
 14 22  2  0  0  0  0
 14 31  1  0  0  0  0
 15 27  2  0  0  0  0
 15 28  1  0  0  0  0
 16 29  1  0  0  0  0
 17 29  1  0  0  0  0
 17 32  2  0  0  0  0
 17 33  1  0  0  0  0
 18 20  2  0  0  0  0
 18 38  1  0  0  0  0
 19 21  2  0  0  0  0
 19 39  1  0  0  0  0
 20 47  1  0  0  0  0
 21 40  1  0  0  0  0
 22 23  1  0  0  0  0
 22 50  1  0  0  0  0
 23 30  2  0  0  0  0
 23 58  1  0  0  0  0
 24 79  1  0  0  0  0
 25 80  1  0  0  0  0
 26 28  2  0  0  0  0
 26 79  1  0  0  0  0
 27 81  1  0  0  0  0
 28 82  1  0  0  0  0
 29 63  2  0  0  0  0
 30 51  1  0  0  0  0
 30 64  1  0  0  0  0
 31 64  2  0  0  0  0
 31 72  1  0  0  0  0
 32 65  1  0  0  0  0
 32 68  1  0  0  0  0
 33 69  1  0  0  0  0
 33 74  2  0  0  0  0
 34 48  1  0  0  0  0
 34 70  1  0  0  0  0
 34 75  2  0  0  0  0
 35 60  1  0  0  0  0
 35 66  1  0  0  0  0
 35 76  2  0  0  0  0
 36 61  1  0  0  0  0
 36 71  1  0  0  0  0
 36 77  2  0  0  0  0
 37 67  1  0  0  0  0
 37 72  1  0  0  0  0
 37 78  2  0  0  0  0
 38 41  1  0  0  0  0
 39 48  1  0  0  0  0
 40 66  1  0  0  0  0
 41 43  1  0  0  0  0
 42 44  1  0  0  0  0
 42 45  1  0  0  0  0
 43 47  1  0  0  0  0
 44 49  1  0  0  0  0
 45 67  1  0  0  0  0
 46 49  1  0  0  0  0
 46 67  1  0  0  0  0
 47 70  1  0  0  0  0
 48 66  1  0  0  0  0
 49 65  1  0  0  0  0
 52 61  1  0  0  0  0
 53 62  1  0  0  0  0
 54 62  1  0  0  0  0
 55 62  1  0  0  0  0
 56 72  1  0  0  0  0
 57 73  1  0  0  0  0
 58 59  1  0  0  0  0
 59 80  1  0  0  0  0
 60 62  1  0  0  0  0
 60 71  1  0  0  0  0
 61 73  1  0  0  0  0
 63 65  1  0  0  0  0
M  CHG  1  73   1
M  ISO  4  37 100  59 101  72 100  80 101
M  END
> <Batch ID>
0022

> <Smiles>
CNC(C)C(=O)NC(C(=O)N1Cc2cc([101O:1][101CH2:1]Cc3c(C)cc([100N:0](C)[100C:0](=O)N4CCCC(n5nc(-c6ccc(Oc7ccc(F)cc7F)cc6)c(C(N)=O)c5N)C4)nc3C)ccc2CC1C(=O)NC1CCCc2ccccc21)C(C)(C)C

> <Shape>
0.224

> <Color>
0.063

> <Negative vol penalty>
0.000

$$$$

  -OEChem-04052316153D

 88 96  0     1  0  0  0  0  0999 V2000
  -33.0549  -30.0619   19.0889 C   0  0  0  0  0  0  0  0  0  0  0  0
  -32.2684  -28.9276   19.2625 C   0  0  0  0  0  0  0  0  0  0  0  0
  -26.7446  -12.1328   21.7978 C   0  0  0  0  0  0  0  0  0  0  0  0
  -25.8613  -13.8484   20.3440 C   0  0  0  0  0  0  0  0  0  0  0  0
  -32.7672  -31.2243   19.8030 C   0  0  0  0  0  0  0  0  0  0  0  0
  -31.1942  -28.9547   20.1513 C   0  0  0  0  0  0  0  0  0  0  0  0
  -27.0217  -26.8311   18.2213 C   0  0  0  0  0  0  0  0  0  0  0  0
  -25.4899  -11.5252   21.8432 C   0  0  0  0  0  0  0  0  0  0  0  0
  -24.6065  -13.2407   20.3893 C   0  0  0  0  0  0  0  0  0  0  0  0
  -26.9648  -25.4382   18.2063 C   0  0  0  0  0  0  0  0  0  0  0  0
  -23.6214   -9.5179   19.8652 C   0  0  0  0  0  0  0  0  0  0  0  0
  -23.5662   -8.1325   19.7127 C   0  0  0  0  0  0  0  0  0  0  0  0
  -25.5824  -25.4794   20.1828 C   0  0  0  0  0  0  0  0  0  0  0  0
  -22.5513   -7.9327   21.8961 C   0  0  0  0  0  0  0  0  0  0  0  0
  -26.9303  -13.2945   21.0483 C   0  0  0  0  0  0  0  0  0  0  0  0
  -29.2592  -13.6731   20.0786 C   0  0  0  0  0  0  0  0  0  0  0  0
  -31.6831  -31.2687   20.6938 C   0  0  0  0  0  0  0  0  0  0  0  0
  -26.3673  -27.5595   19.2251 C   0  0  0  0  0  0  0  0  0  0  0  0
  -30.8925  -30.1184   20.8790 C   0  0  0  0  0  0  0  0  0  0  0  0
  -25.6304  -26.8816   20.2068 C   0  0  0  0  0  0  0  0  0  0  0  0
  -24.4209  -12.0791   21.1389 C   0  0  0  0  0  0  0  0  0  0  0  0
  -26.2475  -24.7620   19.1888 C   0  0  0  0  0  0  0  0  0  0  0  0
  -23.1416  -10.1107   21.0332 C   0  0  0  0  0  0  0  0  0  0  0  0
  -23.0311   -7.3399   20.7282 C   0  0  0  0  0  0  0  0  0  0  0  0
  -22.6066   -9.3181   22.0486 C   0  0  0  0  0  0  0  0  0  0  0  0
  -28.2260  -13.9230   21.0015 C   0  0  0  0  0  0  0  0  0  0  0  0
  -30.2721  -14.5188   20.4598 C   0  0  0  0  0  0  0  0  0  0  0  0
  -29.2998  -12.7583   18.9753 C   0  0  0  0  0  0  0  0  0  0  0  0
  -27.2990  -29.5485   21.5228 C   0  0  0  0  0  0  0  0  0  0  0  0
  -24.1061  -29.9213   21.9576 C   0  0  0  0  0  0  0  0  0  0  0  0
  -30.2430  -19.6923   23.5169 C   0  0  0  0  0  0  0  0  0  0  0  0
  -20.9637  -28.6409   21.5940 C   0  0  0  0  0  0  0  0  0  0  0  0
  -31.4398  -32.5333   21.4788 C   0  0  0  0  0  0  0  0  0  0  0  0
  -26.4162  -29.0627   19.2118 C   0  0  0  0  0  0  0  0  0  0  0  0
  -24.8934  -27.6178   21.2946 C   0  0  0  0  0  0  0  0  0  0  0  0
  -30.0564  -32.5949   22.1211 C   0  0  0  0  0  0  0  0  0  0  0  0
  -32.0814  -16.7168   24.2956 C   0  0  0  0  0  0  0  0  0  0  0  0
  -29.7319  -31.2769   22.8172 C   0  0  0  0  0  0  0  0  0  0  0  0
  -27.5991  -19.6045   24.0649 C   0  0  0  0  0  0  0  0  0  0  0  0
  -31.3772  -15.6352   23.4773 C   0  0  0  0  0  0  0  0  0  0  0  0
  -26.2835  -20.3588   24.2633 C   0  0  0  0  0  0  0  0  0  0  0  0
  -31.0945  -17.7619   24.8064 C   0  0  0  0  0  0  0  0  0  0  0  0
  -29.5655  -17.3158   22.9129 C   0  0  0  0  0  0  0  0  0  0  0  0
  -29.7037  -30.1163   21.8154 C   0  0  1  0  0  0  0  0  0  0  0  0
  -26.1381  -29.6818   20.5781 C   0  0  1  0  0  0  0  0  0  0  0  0
  -27.9590  -19.7385   22.5764 C   0  0  1  0  0  0  0  0  0  0  0  0
  -26.9286  -20.7298   21.9992 C   0  0  2  0  0  0  0  0  0  0  0  0
  -30.5309  -16.2566   22.3521 C   0  0  2  0  0  0  0  0  0  0  0  0
  -25.6637  -20.4942   22.8615 C   0  0  0  0  0  0  0  0  0  0  0  0
  -24.8898  -19.2158   22.4925 C   0  0  0  0  0  0  0  0  0  0  0  0
  -24.7022  -21.6873   22.8050 C   0  0  0  0  0  0  0  0  0  0  0  0
  -18.5569  -29.1594   22.0797 C   0  0  0  0  0  0  0  0  0  0  0  0
  -26.8489  -19.0964   20.1019 C   0  0  0  0  0  0  0  0  0  0  0  0
  -23.0651  -19.8732   18.4340 C   0  0  0  0  0  0  0  0  0  0  0  0
  -23.7926  -21.4746   16.6228 C   0  0  0  0  0  0  0  0  0  0  0  0
  -29.4958  -21.7122   22.3368 C   0  0  0  0  0  0  0  0  0  0  0  0
  -29.9593  -19.5950   21.0651 C   0  0  0  0  0  0  0  0  0  0  0  0
  -24.5518  -29.2270   24.8952 C   0  0  0  0  0  0  0  0  0  0  0  0
  -22.0886  -28.8300   25.1030 C   0  0  0  0  0  0  0  0  0  0  0  0
  -22.9382  -31.0961   24.4981 C   0  0  0  0  0  0  0  0  0  0  0  0
  -20.2522  -28.5881   18.7218 C   0  0  0  0  0  0  0  0  0  0  0  0
  -25.4379  -22.7746   20.2139 C   0  0  0  0  0  0  0  0  0  1  0  0
  -23.0534  -29.2333   22.7926 C   0  0  1  0  0  0  0  0  0  0  0  0
  -19.6816  -29.2541   21.0605 C   0  0  2  0  0  0  0  0  0  0  0  0
  -26.7366  -20.5750   20.4862 C   0  0  1  0  0  0  0  0  0  0  0  0
  -23.8097  -21.1583   18.1097 C   0  0  0  0  0  0  0  0  0  0  0  0
  -25.4416  -21.2617   19.9978 C   0  0  2  0  0  0  0  0  0  0  0  0
  -29.4012  -20.1830   22.3660 C   0  0  0  0  0  0  0  0  0  0  0  0
  -23.1734  -29.5824   24.3030 C   0  0  0  0  0  0  0  0  0  0  0  0
  -28.5526  -14.8544   21.9014 N   0  0  0  0  0  0  0  0  0  0  0  0
  -29.8024  -15.1972   21.5458 N   0  0  0  0  0  0  0  0  0  0  0  0
  -24.9766  -29.0868   21.2423 N   0  0  0  0  0  0  0  0  0  0  0  0
  -30.2943  -18.3118   23.7107 N   0  0  0  0  0  0  0  0  0  0  0  0
  -31.5098  -14.7409   19.9687 N   0  0  0  0  0  0  0  0  0  0  0  0
  -28.1726  -11.9641   18.7241 N   0  0  0  0  0  0  0  0  0  0  0  0
  -28.4669  -30.1271   21.0640 N   0  0  0  0  0  0  0  0  0  0  0  0
  -21.7678  -29.5838   22.1986 N   0  0  0  0  0  0  0  0  0  0  0  0
  -19.2502  -28.5533   19.8180 N   0  3  0  0  0  0  0  0  0  0  0  0
  -25.2211  -21.0063   18.5424 N   0  3  0  0  0  0  0  0  0  0  0  0
  -30.3117  -12.6368   18.2441 O   0  0  0  0  0  0  0  0  0  0  0  0
  -27.1459  -28.9653   22.5896 O   0  0  0  0  0  0  0  0  0  0  0  0
  -24.1498  -31.1539   21.9350 O   0  0  0  0  0  0  0  0  0  0  0  0
  -30.8387  -20.5128   24.2199 O   0  0  0  0  0  0  0  0  0  0  0  0
  -21.2239  -27.4444   21.4886 O   0  0  0  0  0  0  0  0  0  0  0  0
  -23.1964  -11.4863   21.1827 O   0  0  0  0  0  0  0  0  0  0  0  0
  -26.1908  -23.4024   19.1770 O   0  0  0  0  0  0  0  0  0  1  0  0
  -22.9767   -6.0097   20.5810 F   0  0  0  0  0  0  0  0  0  0  0  0
  -22.1430   -9.8820   23.1724 F   0  0  0  0  0  0  0  0  0  0  0  0
  1  2  1  0  0  0  0
  1  5  2  0  0  0  0
  2  6  2  0  0  0  0
  3  8  2  0  0  0  0
  3 15  1  0  0  0  0
  4  9  1  0  0  0  0
  4 15  2  0  0  0  0
  5 17  1  0  0  0  0
  6 19  1  0  0  0  0
  7 10  2  0  0  0  0
  7 18  1  0  0  0  0
  8 21  1  0  0  0  0
  9 21  2  0  0  0  0
 10 22  1  0  0  0  0
 11 12  2  0  0  0  0
 11 23  1  0  0  0  0
 12 24  1  0  0  0  0
 13 20  1  0  0  0  0
 13 22  2  0  0  0  0
 14 24  2  0  0  0  0
 14 25  1  0  0  0  0
 15 26  1  0  0  0  0
 16 26  1  0  0  0  0
 16 27  2  0  0  0  0
 16 28  1  0  0  0  0
 17 19  2  0  0  0  0
 17 33  1  0  0  0  0
 18 20  2  0  0  0  0
 18 34  1  0  0  0  0
 19 44  1  0  0  0  0
 20 35  1  0  0  0  0
 21 85  1  0  0  0  0
 22 86  1  0  0  0  0
 23 25  2  0  0  0  0
 23 85  1  0  0  0  0
 24 87  1  0  0  0  0
 25 88  1  0  0  0  0
 26 70  2  0  0  0  0
 27 71  1  0  0  0  0
 27 74  1  0  0  0  0
 28 75  1  0  0  0  0
 28 80  2  0  0  0  0
 29 45  1  0  0  0  0
 29 76  1  0  0  0  0
 29 81  2  0  0  0  0
 30 63  1  0  0  0  0
 30 72  1  0  0  0  0
 30 82  2  0  0  0  0
 31 68  1  0  0  0  0
 31 73  1  0  0  0  0
 31 83  2  0  0  0  0
 32 64  1  0  0  0  0
 32 77  1  0  0  0  0
 32 84  2  0  0  0  0
 33 36  1  0  0  0  0
 34 45  1  0  0  0  0
 35 72  1  0  0  0  0
 36 38  1  0  0  0  0
 37 40  1  0  0  0  0
 37 42  1  0  0  0  0
 38 44  1  0  0  0  0
 39 41  1  0  0  0  0
 39 46  1  0  0  0  0
 40 48  1  0  0  0  0
 41 49  1  0  0  0  0
 42 73  1  0  0  0  0
 43 48  1  0  0  0  0
 43 73  1  0  0  0  0
 44 76  1  0  0  0  0
 45 72  1  0  0  0  0
 46 47  1  0  0  0  0
 46 68  1  0  0  0  0
 47 49  1  0  0  0  0
 47 65  1  0  0  0  0
 48 71  1  0  0  0  0
 49 50  1  0  0  0  0
 49 51  1  0  0  0  0
 52 64  1  0  0  0  0
 53 65  1  0  0  0  0
 54 66  1  0  0  0  0
 55 66  1  0  0  0  0
 56 68  1  0  0  0  0
 57 68  1  0  0  0  0
 58 69  1  0  0  0  0
 59 69  1  0  0  0  0
 60 69  1  0  0  0  0
 61 78  1  0  0  0  0
 62 67  1  0  0  0  0
 62 86  1  0  0  0  0
 63 69  1  0  0  0  0
 63 77  1  0  0  0  0
 64 78  1  0  0  0  0
 65 67  1  0  0  0  0
 66 79  1  0  0  0  0
 67 79  1  0  0  0  0
 70 71  1  0  0  0  0
M  CHG  2  78   1  79   1
M  ISO  4  31 100  62 101  68 100  86 101
M  END
> <Batch ID>
0022

> <Smiles>
CNC(C)C(=O)NC(C(=O)N1Cc2cc([101O:1][101CH2:1]C(NC(C)C)C(C)C3C([100C:0](C)(C)[100C:0](=O)N4CCCC(n5nc(-c6ccc(Oc7ccc(F)cc7F)cc6)c(C(N)=O)c5N)C4)CCC3(C)C)ccc2CC1C(=O)NC1CCCc2ccccc21)C(C)(C)C

> <Shape>
0.234

> <Color>
0.073

> <Negative vol penalty>
0.000

$$$$

  -OEChem-04052316153D

 84 92  0     1  0  0  0  0  0999 V2000
  -30.8154  -33.4622   15.5793 C   0  0  0  0  0  0  0  0  0  0  0  0
  -31.4431  -32.6065   16.4788 C   0  0  0  0  0  0  0  0  0  0  0  0
  -23.0461   -9.9110   19.9027 C   0  0  0  0  0  0  0  0  0  0  0  0
  -23.8483   -9.8152   22.1796 C   0  0  0  0  0  0  0  0  0  0  0  0
  -29.4443  -33.3496   15.3525 C   0  0  0  0  0  0  0  0  0  0  0  0
  -30.6998  -31.6383   17.1531 C   0  0  0  0  0  0  0  0  0  0  0  0
  -32.5609  -26.0318   18.7682 C   0  0  0  0  0  0  0  0  0  0  0  0
  -22.2962   -8.7548   20.1182 C   0  0  0  0  0  0  0  0  0  0  0  0
  -23.0984   -8.6590   22.3952 C   0  0  0  0  0  0  0  0  0  0  0  0
  -33.0392  -25.5123   19.9704 C   0  0  0  0  0  0  0  0  0  0  0  0
  -19.8746   -7.8644   23.0246 C   0  0  0  0  0  0  0  0  0  0  0  0
  -19.1390   -7.7819   24.2069 C   0  0  0  0  0  0  0  0  0  0  0  0
  -30.8207  -24.7333   20.5094 C   0  0  0  0  0  0  0  0  0  0  0  0
  -32.1448  -16.4354   22.5959 C   0  0  0  0  0  0  0  0  0  0  0  0
  -30.6508  -18.1461   24.2158 C   0  0  0  0  0  0  0  0  0  0  0  0
  -20.3756   -5.8046   24.8382 C   0  0  0  0  0  0  0  0  0  0  0  0
  -23.8222  -10.4411   20.9334 C   0  0  0  0  0  0  0  0  0  0  0  0
  -24.1855  -12.9661   20.9126 C   0  0  0  0  0  0  0  0  0  0  0  0
  -28.6856  -32.3732   16.0171 C   0  0  0  0  0  0  0  0  0  0  0  0
  -31.2045  -25.9153   18.4321 C   0  0  0  0  0  0  0  0  0  0  0  0
  -29.3170  -31.5135   16.9361 C   0  0  0  0  0  0  0  0  0  0  0  0
  -30.3282  -25.2499   19.3013 C   0  0  0  0  0  0  0  0  0  0  0  0
  -32.7883  -17.2660   23.5132 C   0  0  0  0  0  0  0  0  0  0  0  0
  -32.0414  -18.1213   24.3232 C   0  0  0  0  0  0  0  0  0  0  0  0
  -30.7542  -16.4602   22.4884 C   0  0  0  0  0  0  0  0  0  0  0  0
  -22.3223   -8.1288   21.3645 C   0  0  0  0  0  0  0  0  0  0  0  0
  -32.1685  -24.8655   20.8425 C   0  0  0  0  0  0  0  0  0  0  0  0
  -20.8606   -6.9170   22.7491 C   0  0  0  0  0  0  0  0  0  0  0  0
  -19.3896   -6.7520   25.1137 C   0  0  0  0  0  0  0  0  0  0  0  0
  -21.1111   -5.8871   23.6559 C   0  0  0  0  0  0  0  0  0  0  0  0
  -30.0073  -17.3155   23.2984 C   0  0  0  0  0  0  0  0  0  0  0  0
  -24.5976  -11.6351   20.7112 C   0  0  0  0  0  0  0  0  0  0  0  0
  -25.2777  -13.7207   20.5604 C   0  0  0  0  0  0  0  0  0  0  0  0
  -22.9278  -13.4748   21.3766 C   0  0  0  0  0  0  0  0  0  0  0  0
  -28.8450  -27.9731   17.8827 C   0  0  0  0  0  0  0  0  0  0  0  0
  -27.2107  -25.2868   17.0858 C   0  0  0  0  0  0  0  0  0  0  0  0
  -26.8637  -21.9063   17.3999 C   0  0  0  0  0  0  0  0  0  0  0  0
  -30.7558  -14.7110   20.6755 C   0  0  0  0  0  0  0  0  0  0  0  0
  -27.1979  -32.3207   15.7748 C   0  0  0  0  0  0  0  0  0  0  0  0
  -30.7095  -26.4576   17.1193 C   0  0  0  0  0  0  0  0  0  0  0  0
  -28.8670  -25.0806   18.9778 C   0  0  0  0  0  0  0  0  0  0  0  0
  -26.5489  -31.0230   16.2491 C   0  0  0  0  0  0  0  0  0  0  0  0
  -29.5752  -12.4083   18.2298 C   0  0  0  0  0  0  0  0  0  0  0  0
  -27.0333  -30.6650   17.6506 C   0  0  0  0  0  0  0  0  0  0  0  0
  -28.1410  -12.1114   18.6739 C   0  0  0  0  0  0  0  0  0  0  0  0
  -30.5144  -12.5787   19.4225 C   0  0  0  0  0  0  0  0  0  0  0  0
  -28.6402  -13.2609   20.8686 C   0  0  0  0  0  0  0  0  0  0  0  0
  -28.5492  -30.4343   17.6682 C   0  0  1  0  0  0  0  0  0  0  0  0
  -29.2092  -26.7341   17.1147 C   0  0  1  0  0  0  0  0  0  0  0  0
  -27.6442  -13.1456   19.7031 C   0  0  2  0  0  0  0  0  0  0  0  0
  -34.2783  -17.2244   23.6077 C   0  0  0  0  0  0  0  0  0  0  0  0
  -25.4119  -19.9979   16.6598 C   0  0  0  0  0  0  0  0  0  0  0  0
  -25.0591  -26.1589   19.0656 C   0  0  0  0  0  0  0  0  0  0  0  0
  -24.1478  -23.8281   18.9950 C   0  0  0  0  0  0  0  0  0  0  0  0
  -24.1831  -25.2149   16.9218 C   0  0  0  0  0  0  0  0  0  0  0  0
  -29.1251  -20.5582   16.0482 C   0  0  0  0  0  0  0  0  0  0  0  0
  -32.7149  -19.0285   25.3220 C   0  0  0  0  0  0  0  0  0  0  0  0
  -33.3282  -20.2880   24.6997 C   0  0  0  0  0  0  0  0  0  0  0  0
  -32.3106  -21.1291   23.9226 C   0  0  0  0  0  0  0  0  0  0  0  0
  -32.9576  -22.3875   23.3467 C   0  0  0  0  0  0  0  0  0  0  0  0
  -31.9647  -23.2094   22.5371 C   0  0  0  0  0  0  0  0  0  1  0  0
  -26.3539  -24.2949   17.8348 C   0  0  1  0  0  0  0  0  0  0  0  0
  -26.6609  -20.8141   16.3654 C   0  0  2  0  0  0  0  0  0  0  0  0
  -24.9631  -24.8789   18.2116 C   0  0  0  0  0  0  0  0  0  0  0  0
  -25.8535  -11.5460   20.2655 N   0  0  0  0  0  0  0  0  0  0  0  0
  -26.2400  -12.8306   20.1838 N   0  0  0  0  0  0  0  0  0  0  0  0
  -28.4298  -25.6335   17.6852 N   0  0  0  0  0  0  0  0  0  0  0  0
  -29.9815  -13.5765   20.3526 N   0  0  0  0  0  0  0  0  0  0  0  0
  -25.4992  -15.0522   20.5391 N   0  0  0  0  0  0  0  0  0  0  0  0
  -21.9139  -12.5610   21.6946 N   0  0  0  0  0  0  0  0  0  0  0  0
  -30.1323  -15.6064   21.5439 N   0  0  0  0  0  0  0  0  0  0  0  0
  -28.8683  -29.1303   17.1277 N   0  0  0  0  0  0  0  0  0  0  0  0
  -26.2939  -23.0976   17.0033 N   0  0  0  0  0  0  0  0  0  0  0  0
  -27.8317  -19.8922   16.3490 N   0  3  0  0  0  0  0  0  0  0  0  0
  -22.7043  -14.7039   21.4897 O   0  0  0  0  0  0  0  0  0  0  0  0
  -28.5622  -27.8856   19.0718 O   0  0  0  0  0  0  0  0  0  0  0  0
  -26.8162  -25.7319   16.0051 O   0  0  0  0  0  0  0  0  0  0  0  0
  -27.4640  -21.7202   18.4561 O   0  0  0  0  0  0  0  0  0  0  0  0
  -31.8775  -14.8895   20.1941 O   0  0  0  0  0  0  0  0  0  0  0  0
  -21.5905   -7.0007   21.5752 O   0  0  0  0  0  0  0  0  0  0  0  0
  -32.6326  -24.3581   22.0168 O   0  0  0  0  0  0  0  0  0  1  0  0
  -18.6842   -6.6738   26.2497 F   0  0  0  0  0  0  0  0  0  0  0  0
  -22.0579   -4.9747   23.3972 F   0  0  0  0  0  0  0  0  0  0  0  0
  -28.2834  -17.3776   23.1984 Cl  0  0  0  0  0  0  0  0  0  0  0  0
  1  2  1  0  0  0  0
  1  5  2  0  0  0  0
  2  6  2  0  0  0  0
  3  8  2  0  0  0  0
  3 17  1  0  0  0  0
  4  9  1  0  0  0  0
  4 17  2  0  0  0  0
  5 19  1  0  0  0  0
  6 21  1  0  0  0  0
  7 10  2  0  0  0  0
  7 20  1  0  0  0  0
  8 26  1  0  0  0  0
  9 26  2  0  0  0  0
 10 27  1  0  0  0  0
 11 12  2  0  0  0  0
 11 28  1  0  0  0  0
 12 29  1  0  0  0  0
 13 22  1  0  0  0  0
 13 27  2  0  0  0  0
 14 23  1  0  0  0  0
 14 25  2  0  0  0  0
 15 24  1  0  0  0  0
 15 31  2  0  0  0  0
 16 29  2  0  0  0  0
 16 30  1  0  0  0  0
 17 32  1  0  0  0  0
 18 32  1  0  0  0  0
 18 33  2  0  0  0  0
 18 34  1  0  0  0  0
 19 21  2  0  0  0  0
 19 39  1  0  0  0  0
 20 22  2  0  0  0  0
 20 40  1  0  0  0  0
 21 48  1  0  0  0  0
 22 41  1  0  0  0  0
 23 24  2  0  0  0  0
 23 51  1  0  0  0  0
 24 57  1  0  0  0  0
 25 31  1  0  0  0  0
 25 71  1  0  0  0  0
 26 80  1  0  0  0  0
 27 81  1  0  0  0  0
 28 30  2  0  0  0  0
 28 80  1  0  0  0  0
 29 82  1  0  0  0  0
 30 83  1  0  0  0  0
 31 84  1  0  0  0  0
 32 65  2  0  0  0  0
 33 66  1  0  0  0  0
 33 69  1  0  0  0  0
 34 70  1  0  0  0  0
 34 75  2  0  0  0  0
 35 49  1  0  0  0  0
 35 72  1  0  0  0  0
 35 76  2  0  0  0  0
 36 62  1  0  0  0  0
 36 67  1  0  0  0  0
 36 77  2  0  0  0  0
 37 63  1  0  0  0  0
 37 73  1  0  0  0  0
 37 78  2  0  0  0  0
 38 68  1  0  0  0  0
 38 71  1  0  0  0  0
 38 79  2  0  0  0  0
 39 42  1  0  0  0  0
 40 49  1  0  0  0  0
 41 67  1  0  0  0  0
 42 44  1  0  0  0  0
 43 45  1  0  0  0  0
 43 46  1  0  0  0  0
 44 48  1  0  0  0  0
 45 50  1  0  0  0  0
 46 68  1  0  0  0  0
 47 50  1  0  0  0  0
 47 68  1  0  0  0  0
 48 72  1  0  0  0  0
 49 67  1  0  0  0  0
 50 66  1  0  0  0  0
 52 63  1  0  0  0  0
 53 64  1  0  0  0  0
 54 64  1  0  0  0  0
 55 64  1  0  0  0  0
 56 74  1  0  0  0  0
 57 58  1  0  0  0  0
 58 59  1  0  0  0  0
 59 60  1  0  0  0  0
 60 61  1  0  0  0  0
 61 81  1  0  0  0  0
 62 64  1  0  0  0  0
 62 73  1  0  0  0  0
 63 74  1  0  0  0  0
 65 66  1  0  0  0  0
M  CHG  1  74   1
M  ISO  4  38 100  61 101  71 100  81 101
M  END
> <Batch ID>
0022

> <Smiles>
CNC(C)C(=O)NC(C(=O)N1Cc2cc([101O:1][101CH2:1]CCCCc3cc(Cl)c([100NH:0][100C:0](=O)N4CCCC(n5nc(-c6ccc(Oc7ccc(F)cc7F)cc6)c(C(N)=O)c5N)C4)cc3C)ccc2CC1C(=O)NC1CCCc2ccccc21)C(C)(C)C

> <Shape>
0.214

> <Color>
0.197

> <Negative vol penalty>
0.000

$$$$

  -OEChem-04052316153D

 84 92  0     1  0  0  0  0  0999 V2000
  -17.7762  -27.6775   25.8341 C   0  0  0  0  0  0  0  0  0  0  0  0
  -19.1281  -27.7082   26.1611 C   0  0  0  0  0  0  0  0  0  0  0  0
  -24.4566  -14.1522   20.8046 C   0  0  0  0  0  0  0  0  0  0  0  0
  -26.8158  -13.6768   20.5917 C   0  0  0  0  0  0  0  0  0  0  0  0
  -17.3846  -27.6257   24.4970 C   0  0  0  0  0  0  0  0  0  0  0  0
  -20.0892  -27.6861   25.1511 C   0  0  0  0  0  0  0  0  0  0  0  0
  -25.5090  -30.5378   25.1637 C   0  0  0  0  0  0  0  0  0  0  0  0
  -24.1603  -12.8295   20.4756 C   0  0  0  0  0  0  0  0  0  0  0  0
  -26.5195  -12.3540   20.2628 C   0  0  0  0  0  0  0  0  0  0  0  0
  -26.7998  -30.0977   25.4533 C   0  0  0  0  0  0  0  0  0  0  0  0
  -24.1521   -9.8208   22.0186 C   0  0  0  0  0  0  0  0  0  0  0  0
  -23.1956   -9.1598   22.7891 C   0  0  0  0  0  0  0  0  0  0  0  0
  -27.1986  -29.7391   23.1014 C   0  0  0  0  0  0  0  0  0  0  0  0
  -29.7516  -24.0659   21.2993 C   0  0  0  0  0  0  0  0  0  0  0  0
  -31.0858  -23.4594   23.6731 C   0  0  0  0  0  0  0  0  0  0  0  0
  -21.8393   -8.8245   20.8180 C   0  0  0  0  0  0  0  0  0  0  0  0
  -25.7843  -14.5759   20.8626 C   0  0  0  0  0  0  0  0  0  0  0  0
  -26.3135  -16.4695   22.4880 C   0  0  0  0  0  0  0  0  0  0  0  0
  -18.3414  -27.6127   23.4698 C   0  0  0  0  0  0  0  0  0  0  0  0
  -25.0488  -30.5716   23.8395 C   0  0  0  0  0  0  0  0  0  0  0  0
  -19.7101  -27.6328   23.7991 C   0  0  0  0  0  0  0  0  0  0  0  0
  -25.9024  -30.1825   22.7974 C   0  0  0  0  0  0  0  0  0  0  0  0
  -30.0823  -25.0843   22.1933 C   0  0  0  0  0  0  0  0  0  0  0  0
  -30.7495  -24.7810   23.3801 C   0  0  0  0  0  0  0  0  0  0  0  0
  -30.0879  -22.7443   21.5923 C   0  0  0  0  0  0  0  0  0  0  0  0
  -25.1918  -11.9304   20.2047 C   0  0  0  0  0  0  0  0  0  0  0  0
  -27.6438  -29.6955   24.4223 C   0  0  0  0  0  0  0  0  0  0  0  0
  -23.9522   -9.9838   20.6477 C   0  0  0  0  0  0  0  0  0  0  0  0
  -22.0392   -8.6617   22.1889 C   0  0  0  0  0  0  0  0  0  0  0  0
  -22.7958   -9.4856   20.0474 C   0  0  0  0  0  0  0  0  0  0  0  0
  -30.7550  -22.4410   22.7791 C   0  0  0  0  0  0  0  0  0  0  0  0
  -26.0910  -15.9423   21.2018 C   0  0  0  0  0  0  0  0  0  0  0  0
  -26.5637  -17.8029   22.2740 C   0  0  0  0  0  0  0  0  0  0  0  0
  -26.2956  -15.8126   23.7623 C   0  0  0  0  0  0  0  0  0  0  0  0
  -22.7041  -29.1380   22.2424 C   0  0  0  0  0  0  0  0  0  0  0  0
  -23.6486  -31.1171   19.8521 C   0  0  0  0  0  0  0  0  0  0  0  0
  -26.1286  -33.0074   18.4654 C   0  0  0  0  0  0  0  0  0  0  0  0
  -29.0676  -21.8969   19.4504 C   0  0  0  0  0  0  0  0  0  0  0  0
  -17.8707  -27.5086   22.0407 C   0  0  0  0  0  0  0  0  0  0  0  0
  -23.6628  -31.0743   23.5415 C   0  0  0  0  0  0  0  0  0  0  0  0
  -25.4634  -30.2191   21.3572 C   0  0  0  0  0  0  0  0  0  0  0  0
  -18.9457  -27.8665   21.0177 C   0  0  0  0  0  0  0  0  0  0  0  0
  -26.0228  -20.6289   18.1095 C   0  0  0  0  0  0  0  0  0  0  0  0
  -20.2619  -27.1772   21.3631 C   0  0  0  0  0  0  0  0  0  0  0  0
  -25.7874  -19.3399   18.9002 C   0  0  0  0  0  0  0  0  0  0  0  0
  -27.5060  -20.8551   17.8222 C   0  0  0  0  0  0  0  0  0  0  0  0
  -28.1454  -19.5203   19.7916 C   0  0  0  0  0  0  0  0  0  0  0  0
  -20.7822  -27.6352   22.7310 C   0  0  1  0  0  0  0  0  0  0  0  0
  -23.1232  -30.5804   22.2027 C   0  0  1  0  0  0  0  0  0  0  0  0
  -26.6720  -19.2828   20.1611 C   0  0  2  0  0  0  0  0  0  0  0  0
  -29.7087  -26.4913   21.8596 C   0  0  0  0  0  0  0  0  0  0  0  0
  -26.6141  -34.4789   16.4915 C   0  0  0  0  0  0  0  0  0  0  0  0
  -30.5281  -26.9537   27.2122 C   0  0  0  0  0  0  0  0  0  0  0  0
  -23.9006  -28.6484   18.0768 C   0  0  0  0  0  0  0  0  0  0  0  0
  -25.2602  -30.0193   16.4828 C   0  0  0  0  0  0  0  0  0  0  0  0
  -22.8911  -30.6421   16.9540 C   0  0  0  0  0  0  0  0  0  0  0  0
  -26.6607  -35.3492   20.1951 C   0  0  0  0  0  0  0  0  0  0  0  0
  -31.1152  -25.8595   24.3569 C   0  0  0  0  0  0  0  0  0  0  0  0
  -29.1083  -28.6303   25.9640 C   0  0  0  0  0  0  0  0  0  1  0  0
  -24.6511  -31.0318   18.7267 C   0  0  1  0  0  0  0  0  0  0  0  0
  -26.1337  -34.4292   17.9335 C   0  0  2  0  0  0  0  0  0  0  0  0
  -30.2699  -27.6462   25.8839 C   0  0  2  0  0  0  0  0  0  0  0  0
  -24.1837  -30.0828   17.5873 C   0  0  0  0  0  0  0  0  0  0  0  0
  -26.1909  -16.8655   20.2417 N   0  0  0  0  0  0  0  0  0  0  0  0
  -26.4789  -17.9863   20.9251 N   0  0  0  0  0  0  0  0  0  0  0  0
  -24.0972  -30.7124   21.1173 N   0  0  0  0  0  0  0  0  0  0  0  0
  -28.2811  -20.7914   19.0632 N   0  0  0  0  0  0  0  0  0  0  0  0
  -26.8458  -18.8247   23.1099 N   0  0  0  0  0  0  0  0  0  0  0  0
  -26.0215  -14.4387   23.8020 N   0  0  0  0  0  0  0  0  0  0  0  0
  -29.7340  -21.7335   20.6644 N   0  0  0  0  0  0  0  0  0  0  0  0
  -21.3913  -28.9439   22.6277 N   0  0  0  0  0  0  0  0  0  0  0  0
  -24.9005  -32.4035   18.2972 N   0  0  0  0  0  0  0  0  0  0  0  0
  -27.0310  -35.2874   18.7577 N   0  3  0  0  0  0  0  0  0  0  0  0
  -29.9369  -26.6021   24.8721 N   0  3  0  0  0  0  0  0  0  0  0  0
  -26.4999  -16.4291   24.8355 O   0  0  0  0  0  0  0  0  0  0  0  0
  -23.5115  -28.2658   21.9440 O   0  0  0  0  0  0  0  0  0  0  0  0
  -22.5115  -31.5346   19.6187 O   0  0  0  0  0  0  0  0  0  0  0  0
  -27.1165  -32.4835   18.9754 O   0  0  0  0  0  0  0  0  0  0  0  0
  -29.1228  -22.9243   18.7697 O   0  0  0  0  0  0  0  0  0  0  0  0
  -24.9031  -10.6395   19.8839 O   0  0  0  0  0  0  0  0  0  0  0  0
  -28.9040  -29.2649   24.7023 O   0  0  0  0  0  0  0  0  0  1  0  0
  -21.1215   -8.0256   22.9287 F   0  0  0  0  0  0  0  0  0  0  0  0
  -22.5988   -9.6380   18.7307 F   0  0  0  0  0  0  0  0  0  0  0  0
  -31.1908  -20.8180   23.1809 Cl  0  0  0  0  0  0  0  0  0  0  0  0
  1  2  1  0  0  0  0
  1  5  2  0  0  0  0
  2  6  2  0  0  0  0
  3  8  2  0  0  0  0
  3 17  1  0  0  0  0
  4  9  1  0  0  0  0
  4 17  2  0  0  0  0
  5 19  1  0  0  0  0
  6 21  1  0  0  0  0
  7 10  2  0  0  0  0
  7 20  1  0  0  0  0
  8 26  1  0  0  0  0
  9 26  2  0  0  0  0
 10 27  1  0  0  0  0
 11 12  2  0  0  0  0
 11 28  1  0  0  0  0
 12 29  1  0  0  0  0
 13 22  1  0  0  0  0
 13 27  2  0  0  0  0
 14 23  1  0  0  0  0
 14 25  2  0  0  0  0
 15 24  1  0  0  0  0
 15 31  2  0  0  0  0
 16 29  2  0  0  0  0
 16 30  1  0  0  0  0
 17 32  1  0  0  0  0
 18 32  1  0  0  0  0
 18 33  2  0  0  0  0
 18 34  1  0  0  0  0
 19 21  2  0  0  0  0
 19 39  1  0  0  0  0
 20 22  2  0  0  0  0
 20 40  1  0  0  0  0
 21 48  1  0  0  0  0
 22 41  1  0  0  0  0
 23 24  2  0  0  0  0
 23 51  1  0  0  0  0
 24 58  1  0  0  0  0
 25 31  1  0  0  0  0
 25 70  1  0  0  0  0
 26 80  1  0  0  0  0
 27 81  1  0  0  0  0
 28 30  2  0  0  0  0
 28 80  1  0  0  0  0
 29 82  1  0  0  0  0
 30 83  1  0  0  0  0
 31 84  1  0  0  0  0
 32 64  2  0  0  0  0
 33 65  1  0  0  0  0
 33 68  1  0  0  0  0
 34 69  1  0  0  0  0
 34 75  2  0  0  0  0
 35 49  1  0  0  0  0
 35 71  1  0  0  0  0
 35 76  2  0  0  0  0
 36 60  1  0  0  0  0
 36 66  1  0  0  0  0
 36 77  2  0  0  0  0
 37 61  1  0  0  0  0
 37 72  1  0  0  0  0
 37 78  2  0  0  0  0
 38 67  1  0  0  0  0
 38 70  1  0  0  0  0
 38 79  2  0  0  0  0
 39 42  1  0  0  0  0
 40 49  1  0  0  0  0
 41 66  1  0  0  0  0
 42 44  1  0  0  0  0
 43 45  1  0  0  0  0
 43 46  1  0  0  0  0
 44 48  1  0  0  0  0
 45 50  1  0  0  0  0
 46 67  1  0  0  0  0
 47 50  1  0  0  0  0
 47 67  1  0  0  0  0
 48 71  1  0  0  0  0
 49 66  1  0  0  0  0
 50 65  1  0  0  0  0
 52 61  1  0  0  0  0
 53 62  1  0  0  0  0
 54 63  1  0  0  0  0
 55 63  1  0  0  0  0
 56 63  1  0  0  0  0
 57 73  1  0  0  0  0
 58 74  1  0  0  0  0
 59 62  1  0  0  0  0
 59 81  1  0  0  0  0
 60 63  1  0  0  0  0
 60 72  1  0  0  0  0
 61 73  1  0  0  0  0
 62 74  1  0  0  0  0
 64 65  1  0  0  0  0
M  CHG  2  73   1  74   1
M  ISO  4  38 100  59 101  70 100  81 101
M  END
> <Batch ID>
0022

> <Smiles>
CNC(C)C(=O)NC(C(=O)N1Cc2cc([101O:1][101CH2:1]C(C)NCc3cc(Cl)c([100NH:0][100C:0](=O)N4CCCC(n5nc(-c6ccc(Oc7ccc(F)cc7F)cc6)c(C(N)=O)c5N)C4)cc3C)ccc2CC1C(=O)NC1CCCc2ccccc21)C(C)(C)C

> <Shape>
0.245

> <Color>
0.090

> <Negative vol penalty>
0.000

$$$$

  -OEChem-04052316153D

 87 95  0     1  0  0  0  0  0999 V2000
  -27.8069  -20.2823   15.4726 C   0  0  0  0  0  0  0  0  0  0  0  0
  -28.3215  -19.5733   16.5533 C   0  0  0  0  0  0  0  0  0  0  0  0
  -22.5759  -28.2958   20.7721 C   0  0  0  0  0  0  0  0  0  0  0  0
  -23.8027  -27.3800   22.6411 C   0  0  0  0  0  0  0  0  0  0  0  0
  -26.4490  -20.5951   15.4285 C   0  0  0  0  0  0  0  0  0  0  0  0
  -27.4785  -19.1775   17.5911 C   0  0  0  0  0  0  0  0  0  0  0  0
  -28.2771  -14.3861   19.0228 C   0  0  0  0  0  0  0  0  0  0  0  0
  -21.3744  -27.9661   21.3992 C   0  0  0  0  0  0  0  0  0  0  0  0
  -22.6012  -27.0502   23.2682 C   0  0  0  0  0  0  0  0  0  0  0  0
  -29.3822  -14.1405   19.8365 C   0  0  0  0  0  0  0  0  0  0  0  0
  -19.4283  -29.2134   23.8670 C   0  0  0  0  0  0  0  0  0  0  0  0
  -18.4164  -30.1733   23.8747 C   0  0  0  0  0  0  0  0  0  0  0  0
  -27.9399  -14.0883   21.7694 C   0  0  0  0  0  0  0  0  0  0  0  0
  -16.9664  -28.6543   22.6800 C   0  0  0  0  0  0  0  0  0  0  0  0
  -23.7901  -28.0027   21.3930 C   0  0  0  0  0  0  0  0  0  0  0  0
  -25.7504  -29.5472   20.8642 C   0  0  0  0  0  0  0  0  0  0  0  0
  -25.5871  -20.1946   16.4617 C   0  0  0  0  0  0  0  0  0  0  0  0
  -26.9943  -14.4957   19.5786 C   0  0  0  0  0  0  0  0  0  0  0  0
  -26.1079  -19.4864   17.5615 C   0  0  0  0  0  0  0  0  0  0  0  0
  -26.8198  -14.3328   20.9603 C   0  0  0  0  0  0  0  0  0  0  0  0
  -21.3870  -27.3433   22.6472 C   0  0  0  0  0  0  0  0  0  0  0  0
  -29.2141  -13.9944   21.2104 C   0  0  0  0  0  0  0  0  0  0  0  0
  -19.2094  -27.9739   23.2657 C   0  0  0  0  0  0  0  0  0  0  0  0
  -17.1854  -29.8938   23.2812 C   0  0  0  0  0  0  0  0  0  0  0  0
  -17.9784  -27.6944   22.6722 C   0  0  0  0  0  0  0  0  0  0  0  0
  -31.1552  -22.1355   19.7259 C   0  0  0  0  0  0  0  0  0  0  0  0
  -25.0316  -28.3426   20.7455 C   0  0  0  0  0  0  0  0  0  0  0  0
  -31.6207  -21.4655   20.8732 C   0  0  0  0  0  0  0  0  0  0  0  0
  -26.8489  -29.3723   20.0585 C   0  0  0  0  0  0  0  0  0  0  0  0
  -30.6344  -23.3132   20.2037 C   0  0  0  0  0  0  0  0  0  0  0  0
  -25.4518  -30.7193   21.6340 C   0  0  0  0  0  0  0  0  0  0  0  0
  -24.8056  -16.7955   19.7331 C   0  0  0  0  0  0  0  0  0  0  0  0
  -22.9981  -14.4498   21.0571 C   0  0  0  0  0  0  0  0  0  0  0  0
  -22.8814  -11.4822   22.7382 C   0  0  0  0  0  0  0  0  0  0  0  0
  -29.7930  -24.5297   18.1645 C   0  0  0  0  0  0  0  0  0  0  0  0
  -24.1352  -20.5969   16.3928 C   0  0  0  0  0  0  0  0  0  0  0  0
  -25.8089  -14.7343   18.6840 C   0  0  0  0  0  0  0  0  0  0  0  0
  -25.4609  -14.4213   21.6039 C   0  0  0  0  0  0  0  0  0  0  0  0
  -23.2405  -19.8156   17.3516 C   0  0  0  0  0  0  0  0  0  0  0  0
  -28.2795  -27.0317   16.1331 C   0  0  0  0  0  0  0  0  0  0  0  0
  -23.8735  -19.7490   18.7379 C   0  0  0  0  0  0  0  0  0  0  0  0
  -27.3448  -27.7653   17.0976 C   0  0  0  0  0  0  0  0  0  0  0  0
  -28.3310  -25.5327   16.4233 C   0  0  0  0  0  0  0  0  0  0  0  0
  -27.7134  -25.9136   18.7776 C   0  0  0  0  0  0  0  0  0  0  0  0
  -25.2209  -19.0181   18.6946 C   0  0  1  0  0  0  0  0  0  0  0  0
  -24.6168  -15.3381   19.4200 C   0  0  1  0  0  0  0  0  0  0  0  0
  -27.6786  -27.4360   18.5658 C   0  0  2  0  0  0  0  0  0  0  0  0
  -21.2607   -9.8329   23.7132 C   0  0  0  0  0  0  0  0  0  0  0  0
  -22.4994  -16.3323   23.4061 C   0  0  0  0  0  0  0  0  0  0  0  0
  -21.7106  -14.3590   24.7298 C   0  0  0  0  0  0  0  0  0  0  0  0
  -20.4927  -15.0387   22.6616 C   0  0  0  0  0  0  0  0  0  0  0  0
  -32.5280  -13.2907   23.8887 C   0  0  0  0  0  0  0  0  0  0  0  0
  -31.5597  -15.1525   25.2848 C   0  0  0  0  0  0  0  0  0  0  0  0
  -30.4296  -24.2923   22.5111 C   0  0  0  0  0  0  0  0  0  0  0  0
  -23.8443   -9.3140   20.9688 C   0  0  0  0  0  0  0  0  0  0  0  0
  -32.2909  -20.1173   20.9557 C   0  0  0  0  0  0  0  0  0  0  0  0
  -31.5804  -19.1282   21.8867 C   0  0  0  0  0  0  0  0  0  0  0  0
  -32.3175  -17.7919   22.0171 C   0  0  0  0  0  0  0  0  0  0  0  0
  -31.5548  -16.8367   22.9241 C   0  0  0  0  0  0  0  0  0  0  0  0
  -30.2302  -14.2448   23.3460 C   0  0  0  0  0  0  0  0  0  1  0  0
  -22.7629  -13.9445   22.4601 C   0  0  1  0  0  0  0  0  0  0  0  0
  -22.0817  -10.2156   22.4917 C   0  0  2  0  0  0  0  0  0  0  0  0
  -21.8924  -14.9188   23.3028 C   0  0  0  0  0  0  0  0  0  0  0  0
  -31.6357  -14.5339   23.8880 C   0  0  0  0  0  0  0  0  0  0  0  0
  -25.6236  -27.4672   19.9286 N   0  0  0  0  0  0  0  0  0  0  0  0
  -31.4141  -22.1599   21.9953 N   0  0  0  0  0  0  0  0  0  0  0  0
  -26.7259  -28.1225   19.5266 N   0  0  0  0  0  0  0  0  0  0  0  0
  -30.8130  -23.2786   21.5554 N   0  0  0  0  0  0  0  0  0  0  0  0
  -24.3339  -14.6622   20.6878 N   0  0  0  0  0  0  0  0  0  0  0  0
  -28.6567  -25.2971   17.8316 N   0  0  0  0  0  0  0  0  0  0  0  0
  -27.8983  -30.1674   19.7601 N   0  0  0  0  0  0  0  0  0  0  0  0
  -24.2824  -30.7313   22.4065 N   0  0  0  0  0  0  0  0  0  0  0  0
  -30.0204  -24.4007   19.5342 N   0  0  0  0  0  0  0  0  0  0  0  0
  -25.0175  -17.5872   18.6205 N   0  0  0  0  0  0  0  0  0  0  0  0
  -22.1990  -12.6060   22.3227 N   0  0  0  0  0  0  0  0  0  0  0  0
  -22.9932   -9.0829   22.1644 N   0  3  0  0  0  0  0  0  0  0  0  0
  -32.2777  -15.5446   22.9855 N   0  3  0  0  0  0  0  0  0  0  0  0
  -26.1914  -31.7324   21.6239 O   0  0  0  0  0  0  0  0  0  0  0  0
  -24.7607  -17.1740   20.8978 O   0  0  0  0  0  0  0  0  0  0  0  0
  -22.0326  -14.6420   20.3138 O   0  0  0  0  0  0  0  0  0  0  0  0
  -23.9980  -11.4756   23.2517 O   0  0  0  0  0  0  0  0  0  0  0  0
  -30.5267  -24.0470   17.2981 O   0  0  0  0  0  0  0  0  0  0  0  0
  -20.2148  -27.0217   23.2596 O   0  0  0  0  0  0  0  0  0  0  0  0
  -30.2912  -13.7553   22.0070 O   0  0  0  0  0  0  0  0  0  1  0  0
  -16.2132  -30.8151   23.2900 F   0  0  0  0  0  0  0  0  0  0  0  0
  -17.7618  -26.5050   22.0941 F   0  0  0  0  0  0  0  0  0  0  0  0
  -31.2353  -21.5836   18.1268 Cl  0  0  0  0  0  0  0  0  0  0  0  0
  1  2  1  0  0  0  0
  1  5  2  0  0  0  0
  2  6  2  0  0  0  0
  3  8  2  0  0  0  0
  3 15  1  0  0  0  0
  4  9  1  0  0  0  0
  4 15  2  0  0  0  0
  5 17  1  0  0  0  0
  6 19  1  0  0  0  0
  7 10  2  0  0  0  0
  7 18  1  0  0  0  0
  8 21  1  0  0  0  0
  9 21  2  0  0  0  0
 10 22  1  0  0  0  0
 11 12  2  0  0  0  0
 11 23  1  0  0  0  0
 12 24  1  0  0  0  0
 13 20  1  0  0  0  0
 13 22  2  0  0  0  0
 14 24  2  0  0  0  0
 14 25  1  0  0  0  0
 15 27  1  0  0  0  0
 16 27  1  0  0  0  0
 16 29  2  0  0  0  0
 16 31  1  0  0  0  0
 17 19  2  0  0  0  0
 17 36  1  0  0  0  0
 18 20  2  0  0  0  0
 18 37  1  0  0  0  0
 19 45  1  0  0  0  0
 20 38  1  0  0  0  0
 21 83  1  0  0  0  0
 22 84  1  0  0  0  0
 23 25  2  0  0  0  0
 23 83  1  0  0  0  0
 24 85  1  0  0  0  0
 25 86  1  0  0  0  0
 26 28  1  0  0  0  0
 26 30  2  0  0  0  0
 26 87  1  0  0  0  0
 27 65  2  0  0  0  0
 28 56  1  0  0  0  0
 28 66  2  0  0  0  0
 29 67  1  0  0  0  0
 29 71  1  0  0  0  0
 30 68  1  0  0  0  0
 30 73  1  0  0  0  0
 31 72  1  0  0  0  0
 31 78  2  0  0  0  0
 32 46  1  0  0  0  0
 32 74  1  0  0  0  0
 32 79  2  0  0  0  0
 33 61  1  0  0  0  0
 33 69  1  0  0  0  0
 33 80  2  0  0  0  0
 34 62  1  0  0  0  0
 34 75  1  0  0  0  0
 34 81  2  0  0  0  0
 35 70  1  0  0  0  0
 35 73  1  0  0  0  0
 35 82  2  0  0  0  0
 36 39  1  0  0  0  0
 37 46  1  0  0  0  0
 38 69  1  0  0  0  0
 39 41  1  0  0  0  0
 40 42  1  0  0  0  0
 40 43  1  0  0  0  0
 41 45  1  0  0  0  0
 42 47  1  0  0  0  0
 43 70  1  0  0  0  0
 44 47  1  0  0  0  0
 44 70  1  0  0  0  0
 45 74  1  0  0  0  0
 46 69  1  0  0  0  0
 47 67  1  0  0  0  0
 48 62  1  0  0  0  0
 49 63  1  0  0  0  0
 50 63  1  0  0  0  0
 51 63  1  0  0  0  0
 52 64  1  0  0  0  0
 53 64  1  0  0  0  0
 54 68  1  0  0  0  0
 55 76  1  0  0  0  0
 56 57  1  0  0  0  0
 57 58  1  0  0  0  0
 58 59  1  0  0  0  0
 59 77  1  0  0  0  0
 60 64  1  0  0  0  0
 60 84  1  0  0  0  0
 61 63  1  0  0  0  0
 61 75  1  0  0  0  0
 62 76  1  0  0  0  0
 64 77  1  0  0  0  0
 65 67  1  0  0  0  0
 66 68  1  0  0  0  0
M  CHG  2  76   1  77   1
M  ISO  4  35 100  60 101  73 100  84 101
M  END
> <Batch ID>
0022

> <Smiles>
CNC(C)C(=O)NC(C(=O)N1Cc2cc([101O:1][101CH2:1]C(C)(C)NCCCCc3nn(C)c([100NH:0][100C:0](=O)N4CCCC(n5nc(-c6ccc(Oc7ccc(F)cc7F)cc6)c(C(N)=O)c5N)C4)c3Cl)ccc2CC1C(=O)NC1CCCc2ccccc21)C(C)(C)C

> <Shape>
0.253

> <Color>
0.060

> <Negative vol penalty>
0.000

$$$$

  -OEChem-04052316153D

 81 89  0     1  0  0  0  0  0999 V2000
  -30.3562  -30.9242   25.9562 C   0  0  0  0  0  0  0  0  0  0  0  0
  -30.1421  -30.0503   24.8951 C   0  0  0  0  0  0  0  0  0  0  0  0
  -26.3964  -12.8321   21.7562 C   0  0  0  0  0  0  0  0  0  0  0  0
  -25.4613  -14.2538   20.0411 C   0  0  0  0  0  0  0  0  0  0  0  0
  -29.4290  -30.9982   26.9948 C   0  0  0  0  0  0  0  0  0  0  0  0
  -29.0011  -29.2491   24.8725 C   0  0  0  0  0  0  0  0  0  0  0  0
  -26.7623  -29.1840   20.3307 C   0  0  0  0  0  0  0  0  0  0  0  0
  -25.2060  -12.1067   21.8039 C   0  0  0  0  0  0  0  0  0  0  0  0
  -24.2709  -13.5284   20.0889 C   0  0  0  0  0  0  0  0  0  0  0  0
  -27.3380  -28.3792   19.3485 C   0  0  0  0  0  0  0  0  0  0  0  0
  -22.5407   -9.6550   22.1210 C   0  0  0  0  0  0  0  0  0  0  0  0
  -22.6301   -8.2633   22.1503 C   0  0  0  0  0  0  0  0  0  0  0  0
  -25.6814  -26.6794   19.7787 C   0  0  0  0  0  0  0  0  0  0  0  0
  -28.1356  -23.1259   18.3248 C   0  0  0  0  0  0  0  0  0  0  0  0
  -29.6764  -23.0172   20.6480 C   0  0  0  0  0  0  0  0  0  0  0  0
  -23.7789   -8.2923   20.0251 C   0  0  0  0  0  0  0  0  0  0  0  0
  -26.5241  -13.9057   20.8748 C   0  0  0  0  0  0  0  0  0  0  0  0
  -28.8707  -14.4037   20.0070 C   0  0  0  0  0  0  0  0  0  0  0  0
  -28.2713  -30.2044   26.9802 C   0  0  0  0  0  0  0  0  0  0  0  0
  -25.6465  -28.7372   21.0531 C   0  0  0  0  0  0  0  0  0  0  0  0
  -28.0582  -29.3115   25.9126 C   0  0  0  0  0  0  0  0  0  0  0  0
  -25.0918  -27.4814   20.7678 C   0  0  0  0  0  0  0  0  0  0  0  0
  -27.9030  -22.1267   19.2698 C   0  0  0  0  0  0  0  0  0  0  0  0
  -29.1387  -24.0708   18.5413 C   0  0  0  0  0  0  0  0  0  0  0  0
  -28.6733  -22.0723   20.4314 C   0  0  0  0  0  0  0  0  0  0  0  0
  -24.1433  -12.4548   20.9703 C   0  0  0  0  0  0  0  0  0  0  0  0
  -26.7993  -27.1256   19.0744 C   0  0  0  0  0  0  0  0  0  0  0  0
  -23.0704  -10.3653   21.0437 C   0  0  0  0  0  0  0  0  0  0  0  0
  -23.2492   -7.5820   21.1024 C   0  0  0  0  0  0  0  0  0  0  0  0
  -23.6895   -9.6840   19.9958 C   0  0  0  0  0  0  0  0  0  0  0  0
  -29.9090  -24.0164   19.7029 C   0  0  0  0  0  0  0  0  0  0  0  0
  -27.7533  -14.6558   20.8254 C   0  0  0  0  0  0  0  0  0  0  0  0
  -29.7669  -15.3913   20.3358 C   0  0  0  0  0  0  0  0  0  0  0  0
  -29.0798  -13.3695   19.0363 C   0  0  0  0  0  0  0  0  0  0  0  0
  -25.0546  -28.1270   24.1159 C   0  0  0  0  0  0  0  0  0  0  0  0
  -22.0241  -27.6975   23.0418 C   0  0  0  0  0  0  0  0  0  0  0  0
  -19.9529  -26.9541   20.4333 C   0  0  0  0  0  0  0  0  0  0  0  0
  -29.1387  -20.8839   22.6033 C   0  0  0  0  0  0  0  0  0  0  0  0
  -27.3212  -30.2848   28.1488 C   0  0  0  0  0  0  0  0  0  0  0  0
  -25.0209  -29.6283   22.0908 C   0  0  0  0  0  0  0  0  0  0  0  0
  -23.8822  -26.9637   21.5009 C   0  0  0  0  0  0  0  0  0  0  0  0
  -25.9517  -29.6739   27.8635 C   0  0  0  0  0  0  0  0  0  0  0  0
  -31.0542  -18.2175   23.9813 C   0  0  0  0  0  0  0  0  0  0  0  0
  -26.1037  -28.3140   27.1895 C   0  0  0  0  0  0  0  0  0  0  0  0
  -30.5310  -16.9794   23.2495 C   0  0  0  0  0  0  0  0  0  0  0  0
  -29.9383  -19.2208   24.2676 C   0  0  0  0  0  0  0  0  0  0  0  0
  -28.6188  -18.3761   22.3665 C   0  0  0  0  0  0  0  0  0  0  0  0
  -26.8203  -28.4441   25.8400 C   0  0  1  0  0  0  0  0  0  0  0  0
  -24.1994  -28.8599   23.1214 C   0  0  1  0  0  0  0  0  0  0  0  0
  -29.7178  -17.3658   21.9986 C   0  0  2  0  0  0  0  0  0  0  0  0
  -26.8234  -21.1264   19.0107 C   0  0  0  0  0  0  0  0  0  0  0  0
  -17.5273  -26.6413   19.8711 C   0  0  0  0  0  0  0  0  0  0  0  0
  -22.0662  -24.9622   24.3934 C   0  0  0  0  0  0  0  0  0  0  0  0
  -20.0622  -24.3351   23.0299 C   0  0  0  0  0  0  0  0  0  0  0  0
  -19.9219  -26.2224   24.6551 C   0  0  0  0  0  0  0  0  0  0  0  0
  -19.9994  -29.1767   18.4796 C   0  0  0  0  0  0  0  0  0  0  0  0
  -29.3594  -25.1352   17.4942 C   0  0  0  0  0  0  0  0  0  0  0  0
  -28.7629  -26.4790   17.8987 C   0  0  0  0  0  0  0  0  0  1  0  0
  -21.2328  -26.5249   22.5146 C   0  0  1  0  0  0  0  0  0  0  0  0
  -18.6868  -27.6235   19.9299 C   0  0  2  0  0  0  0  0  0  0  0  0
  -20.8447  -25.5198   23.6356 C   0  0  0  0  0  0  0  0  0  0  0  0
  -27.9219  -15.7199   21.6149 N   0  0  0  0  0  0  0  0  0  0  0  0
  -29.1558  -16.1452   21.2941 N   0  0  0  0  0  0  0  0  0  0  0  0
  -23.3103  -27.8694   22.5109 N   0  0  0  0  0  0  0  0  0  0  0  0
  -29.2142  -19.5431   23.0361 N   0  0  0  0  0  0  0  0  0  0  0  0
  -31.0101  -15.6795   19.8959 N   0  0  0  0  0  0  0  0  0  0  0  0
  -28.0557  -12.4368   18.8225 N   0  0  0  0  0  0  0  0  0  0  0  0
  -28.4529  -21.0645   21.4027 N   0  0  0  0  0  0  0  0  0  0  0  0
  -25.9108  -28.9427   24.8308 N   0  0  0  0  0  0  0  0  0  0  0  0
  -20.0944  -27.0897   21.7981 N   0  0  0  0  0  0  0  0  0  0  0  0
  -18.9023  -28.1786   18.5638 N   0  3  0  0  0  0  0  0  0  0  0  0
  -30.1496  -13.2655   18.3897 O   0  0  0  0  0  0  0  0  0  0  0  0
  -24.9447  -26.9116   24.2276 O   0  0  0  0  0  0  0  0  0  0  0  0
  -21.5169  -28.4379   23.8881 O   0  0  0  0  0  0  0  0  0  0  0  0
  -20.7360  -26.3663   19.6905 O   0  0  0  0  0  0  0  0  0  0  0  0
  -29.6686  -21.8009   23.2361 O   0  0  0  0  0  0  0  0  0  0  0  0
  -22.9816  -11.7470   21.0164 O   0  0  0  0  0  0  0  0  0  0  0  0
  -27.3597  -26.3378   18.1167 O   0  0  0  0  0  0  0  0  0  1  0  0
  -23.3363   -6.2456   21.1314 F   0  0  0  0  0  0  0  0  0  0  0  0
  -24.2012  -10.3610   18.9587 F   0  0  0  0  0  0  0  0  0  0  0  0
  -31.1588  -25.1682   20.0048 Cl  0  0  0  0  0  0  0  0  0  0  0  0
  1  2  1  0  0  0  0
  1  5  2  0  0  0  0
  2  6  2  0  0  0  0
  3  8  2  0  0  0  0
  3 17  1  0  0  0  0
  4  9  1  0  0  0  0
  4 17  2  0  0  0  0
  5 19  1  0  0  0  0
  6 21  1  0  0  0  0
  7 10  2  0  0  0  0
  7 20  1  0  0  0  0
  8 26  1  0  0  0  0
  9 26  2  0  0  0  0
 10 27  1  0  0  0  0
 11 12  2  0  0  0  0
 11 28  1  0  0  0  0
 12 29  1  0  0  0  0
 13 22  1  0  0  0  0
 13 27  2  0  0  0  0
 14 23  2  0  0  0  0
 14 24  1  0  0  0  0
 15 25  2  0  0  0  0
 15 31  1  0  0  0  0
 16 29  2  0  0  0  0
 16 30  1  0  0  0  0
 17 32  1  0  0  0  0
 18 32  1  0  0  0  0
 18 33  2  0  0  0  0
 18 34  1  0  0  0  0
 19 21  2  0  0  0  0
 19 39  1  0  0  0  0
 20 22  2  0  0  0  0
 20 40  1  0  0  0  0
 21 48  1  0  0  0  0
 22 41  1  0  0  0  0
 23 25  1  0  0  0  0
 23 51  1  0  0  0  0
 24 31  2  0  0  0  0
 24 57  1  0  0  0  0
 25 68  1  0  0  0  0
 26 77  1  0  0  0  0
 27 78  1  0  0  0  0
 28 30  2  0  0  0  0
 28 77  1  0  0  0  0
 29 79  1  0  0  0  0
 30 80  1  0  0  0  0
 31 81  1  0  0  0  0
 32 62  2  0  0  0  0
 33 63  1  0  0  0  0
 33 66  1  0  0  0  0
 34 67  1  0  0  0  0
 34 72  2  0  0  0  0
 35 49  1  0  0  0  0
 35 69  1  0  0  0  0
 35 73  2  0  0  0  0
 36 59  1  0  0  0  0
 36 64  1  0  0  0  0
 36 74  2  0  0  0  0
 37 60  1  0  0  0  0
 37 70  1  0  0  0  0
 37 75  2  0  0  0  0
 38 65  1  0  0  0  0
 38 68  1  0  0  0  0
 38 76  2  0  0  0  0
 39 42  1  0  0  0  0
 40 49  1  0  0  0  0
 41 64  1  0  0  0  0
 42 44  1  0  0  0  0
 43 45  1  0  0  0  0
 43 46  1  0  0  0  0
 44 48  1  0  0  0  0
 45 50  1  0  0  0  0
 46 65  1  0  0  0  0
 47 50  1  0  0  0  0
 47 65  1  0  0  0  0
 48 69  1  0  0  0  0
 49 64  1  0  0  0  0
 50 63  1  0  0  0  0
 52 60  1  0  0  0  0
 53 61  1  0  0  0  0
 54 61  1  0  0  0  0
 55 61  1  0  0  0  0
 56 71  1  0  0  0  0
 57 58  1  0  0  0  0
 58 78  1  0  0  0  0
 59 61  1  0  0  0  0
 59 70  1  0  0  0  0
 60 71  1  0  0  0  0
 62 63  1  0  0  0  0
M  CHG  1  71   1
M  ISO  4  38 100  58 101  68 100  78 101
M  END
> <Batch ID>
0022

> <Smiles>
CNC(C)C(=O)NC(C(=O)N1Cc2cc([101O:1][101CH2:1]Cc3cc(C)c([100NH:0][100C:0](=O)N4CCCC(n5nc(-c6ccc(Oc7ccc(F)cc7F)cc6)c(C(N)=O)c5N)C4)cc3Cl)ccc2CC1C(=O)NC1CCCc2ccccc21)C(C)(C)C

> <Shape>
0.269

> <Color>
0.054

> <Negative vol penalty>
0.000

$$$$

  -OEChem-04052316153D

 86 94  0     1  0  0  0  0  0999 V2000
  -16.9786  -25.5273   19.8945 C   0  0  0  0  0  0  0  0  0  0  0  0
  -17.1767  -24.1932   19.5533 C   0  0  0  0  0  0  0  0  0  0  0  0
  -27.1682  -23.4744   20.7787 C   0  0  0  0  0  0  0  0  0  0  0  0
  -28.6427  -23.2713   18.8757 C   0  0  0  0  0  0  0  0  0  0  0  0
  -17.8989  -26.1802   20.7135 C   0  0  0  0  0  0  0  0  0  0  0  0
  -18.2958  -23.5116   20.0301 C   0  0  0  0  0  0  0  0  0  0  0  0
  -18.6157  -17.5987   21.5927 C   0  0  0  0  0  0  0  0  0  0  0  0
  -27.3782  -24.8533   20.7943 C   0  0  0  0  0  0  0  0  0  0  0  0
  -28.8527  -24.6502   18.8912 C   0  0  0  0  0  0  0  0  0  0  0  0
  -19.0755  -16.4722   20.9121 C   0  0  0  0  0  0  0  0  0  0  0  0
  -26.2830  -27.5592   19.0881 C   0  0  0  0  0  0  0  0  0  0  0  0
  -25.1681  -28.3830   19.2432 C   0  0  0  0  0  0  0  0  0  0  0  0
  -21.2133  -16.6899   22.0082 C   0  0  0  0  0  0  0  0  0  0  0  0
  -25.9493  -11.9602   19.4052 C   0  0  0  0  0  0  0  0  0  0  0  0
  -26.2533  -12.9492   21.5884 C   0  0  0  0  0  0  0  0  0  0  0  0
  -26.1252  -29.2978   21.2641 C   0  0  0  0  0  0  0  0  0  0  0  0
  -27.8005  -22.6834   19.8194 C   0  0  0  0  0  0  0  0  0  0  0  0
  -26.5840  -20.5588   19.1026 C   0  0  0  0  0  0  0  0  0  0  0  0
  -19.0248  -25.5035   21.2084 C   0  0  0  0  0  0  0  0  0  0  0  0
  -19.4562  -18.2869   22.4795 C   0  0  0  0  0  0  0  0  0  0  0  0
  -19.2327  -24.1564   20.8554 C   0  0  0  0  0  0  0  0  0  0  0  0
  -20.7609  -17.8234   22.7009 C   0  0  0  0  0  0  0  0  0  0  0  0
  -26.7662  -12.5955   20.3405 C   0  0  0  0  0  0  0  0  0  0  0  0
  -24.1064  -12.0326   20.9658 C   0  0  0  0  0  0  0  0  0  0  0  0
  -28.2205  -25.4412   19.8505 C   0  0  0  0  0  0  0  0  0  0  0  0
  -20.3754  -16.0193   21.1176 C   0  0  0  0  0  0  0  0  0  0  0  0
  -27.3189  -27.6046   20.0211 C   0  0  0  0  0  0  0  0  0  0  0  0
  -25.0893  -29.2523   20.3312 C   0  0  0  0  0  0  0  0  0  0  0  0
  -27.2401  -28.4739   21.1091 C   0  0  0  0  0  0  0  0  0  0  0  0
  -24.6193  -11.6788   19.7179 C   0  0  0  0  0  0  0  0  0  0  0  0
  -24.9233  -12.6678   21.9011 C   0  0  0  0  0  0  0  0  0  0  0  0
  -27.5844  -21.2589   19.8032 C   0  0  0  0  0  0  0  0  0  0  0  0
  -26.8058  -19.2397   19.4142 C   0  0  0  0  0  0  0  0  0  0  0  0
  -25.5470  -21.0564   18.2466 C   0  0  0  0  0  0  0  0  0  0  0  0
  -20.6485  -21.2304   22.6123 C   0  0  0  0  0  0  0  0  0  0  0  0
  -21.7428  -20.2376   25.5001 C   0  0  0  0  0  0  0  0  0  0  0  0
  -22.6432  -17.6381   27.5196 C   0  0  0  0  0  0  0  0  0  0  0  0
  -30.7066  -15.1317   19.8891 C   0  0  0  0  0  0  0  0  0  0  0  0
  -20.0166  -26.2647   22.0519 C   0  0  0  0  0  0  0  0  0  0  0  0
  -18.9364  -19.4846   23.2262 C   0  0  0  0  0  0  0  0  0  0  0  0
  -21.6964  -18.5146   23.6577 C   0  0  0  0  0  0  0  0  0  0  0  0
  -20.9800  -25.3642   22.8209 C   0  0  0  0  0  0  0  0  0  0  0  0
  -29.8009  -17.1155   22.8801 C   0  0  0  0  0  0  0  0  0  0  0  0
  -21.5401  -24.2784   21.9075 C   0  0  0  0  0  0  0  0  0  0  0  0
  -29.1256  -18.3441   22.2729 C   0  0  0  0  0  0  0  0  0  0  0  0
  -30.8322  -16.5092   21.9332 C   0  0  0  0  0  0  0  0  0  0  0  0
  -29.6184  -17.4122   19.9774 C   0  0  0  0  0  0  0  0  0  0  0  0
  -20.4214  -23.3760   21.3730 C   0  0  1  0  0  0  0  0  0  0  0  0
  -20.0453  -20.4101   23.7173 C   0  0  1  0  0  0  0  0  0  0  0  0
  -28.5403  -18.0199   20.8874 C   0  0  2  0  0  0  0  0  0  0  0  0
  -30.3613  -14.7847   16.6435 C   0  0  0  0  0  0  0  0  0  0  0  0
  -23.5332  -17.1418   29.8129 C   0  0  0  0  0  0  0  0  0  0  0  0
  -24.5253  -21.1157   24.6076 C   0  0  0  0  0  0  0  0  0  0  0  0
  -25.4789  -19.7590   26.4833 C   0  0  0  0  0  0  0  0  0  0  0  0
  -23.9644  -21.6782   26.9790 C   0  0  0  0  0  0  0  0  0  0  0  0
  -20.2345  -16.0782   28.2434 C   0  0  0  0  0  0  0  0  0  0  0  0
  -28.1880  -12.8969   20.0059 C   0  0  0  0  0  0  0  0  0  0  0  0
  -22.6685  -11.7289   21.3036 C   0  0  0  0  0  0  0  0  0  0  0  0
  -21.6672  -12.6813   20.6465 C   0  0  0  0  0  0  0  0  0  0  0  0
  -30.2791  -13.8451   17.8296 C   0  0  0  0  0  0  0  0  0  0  0  0
  -28.3878  -14.2710   19.3553 C   0  0  0  0  0  0  0  0  0  0  0  0
  -21.8146  -14.1260   21.1096 C   0  0  0  0  0  0  0  0  0  1  0  0
  -22.9990  -19.5602   25.9921 C   0  0  1  0  0  0  0  0  0  0  0  0
  -22.2866  -17.3098   28.9582 C   0  0  2  0  0  0  0  0  0  0  0  0
  -24.2252  -20.5162   25.9959 C   0  0  0  0  0  0  0  0  0  0  0  0
  -28.3823  -20.4514   20.5070 N   0  0  0  0  0  0  0  0  0  0  0  0
  -27.8834  -19.2302   20.2502 N   0  0  0  0  0  0  0  0  0  0  0  0
  -21.1437  -19.6851   24.3592 N   0  0  0  0  0  0  0  0  0  0  0  0
  -30.2609  -16.2511   20.6110 N   0  0  0  0  0  0  0  0  0  0  0  0
  -26.1822  -18.0985   19.0519 N   0  0  0  0  0  0  0  0  0  0  0  0
  -25.4621  -22.4392   18.0341 N   0  0  0  0  0  0  0  0  0  0  0  0
  -20.0048  -22.4324   22.3882 N   0  0  0  0  0  0  0  0  0  0  0  0
  -22.6749  -18.9989   27.2991 N   0  0  0  0  0  0  0  0  0  0  0  0
  -29.7877  -14.5234   19.0206 N   0  0  0  0  0  0  0  0  0  0  0  0
  -21.4997  -16.0457   29.0212 N   0  3  0  0  0  0  0  0  0  0  0  0
  -24.7101  -20.2987   17.6997 O   0  0  0  0  0  0  0  0  0  0  0  0
  -21.6265  -20.8050   22.0088 O   0  0  0  0  0  0  0  0  0  0  0  0
  -21.3050  -21.2165   26.1099 O   0  0  0  0  0  0  0  0  0  0  0  0
  -22.8745  -16.7740   26.6768 O   0  0  0  0  0  0  0  0  0  0  0  0
  -31.8571  -14.6948   20.0210 O   0  0  0  0  0  0  0  0  0  0  0  0
  -28.4254  -26.7867   19.8653 O   0  0  0  0  0  0  0  0  0  0  0  0
  -20.8270  -14.9204   20.4540 O   0  0  0  0  0  0  0  0  0  1  0  0
  -24.0193  -30.0445   20.4791 F   0  0  0  0  0  0  0  0  0  0  0  0
  -28.2327  -28.5228   22.0080 F   0  0  0  0  0  0  0  0  0  0  0  0
  -23.6431  -10.8916   18.5304 Cl  0  0  0  0  0  0  0  0  0  0  0  0
  -24.3290  -13.1238   23.4572 Cl  0  0  0  0  0  0  0  0  0  0  0  0
  1  2  1  0  0  0  0
  1  5  2  0  0  0  0
  2  6  2  0  0  0  0
  3  8  2  0  0  0  0
  3 17  1  0  0  0  0
  4  9  1  0  0  0  0
  4 17  2  0  0  0  0
  5 19  1  0  0  0  0
  6 21  1  0  0  0  0
  7 10  2  0  0  0  0
  7 20  1  0  0  0  0
  8 25  1  0  0  0  0
  9 25  2  0  0  0  0
 10 26  1  0  0  0  0
 11 12  2  0  0  0  0
 11 27  1  0  0  0  0
 12 28  1  0  0  0  0
 13 22  1  0  0  0  0
 13 26  2  0  0  0  0
 14 23  1  0  0  0  0
 14 30  2  0  0  0  0
 15 23  2  0  0  0  0
 15 31  1  0  0  0  0
 16 28  2  0  0  0  0
 16 29  1  0  0  0  0
 17 32  1  0  0  0  0
 18 32  1  0  0  0  0
 18 33  2  0  0  0  0
 18 34  1  0  0  0  0
 19 21  2  0  0  0  0
 19 39  1  0  0  0  0
 20 22  2  0  0  0  0
 20 40  1  0  0  0  0
 21 48  1  0  0  0  0
 22 41  1  0  0  0  0
 23 57  1  0  0  0  0
 24 30  1  0  0  0  0
 24 31  2  0  0  0  0
 24 58  1  0  0  0  0
 25 81  1  0  0  0  0
 26 82  1  0  0  0  0
 27 29  2  0  0  0  0
 27 81  1  0  0  0  0
 28 83  1  0  0  0  0
 29 84  1  0  0  0  0
 30 85  1  0  0  0  0
 31 86  1  0  0  0  0
 32 66  2  0  0  0  0
 33 67  1  0  0  0  0
 33 70  1  0  0  0  0
 34 71  1  0  0  0  0
 34 76  2  0  0  0  0
 35 49  1  0  0  0  0
 35 72  1  0  0  0  0
 35 77  2  0  0  0  0
 36 63  1  0  0  0  0
 36 68  1  0  0  0  0
 36 78  2  0  0  0  0
 37 64  1  0  0  0  0
 37 73  1  0  0  0  0
 37 79  2  0  0  0  0
 38 69  1  0  0  0  0
 38 74  1  0  0  0  0
 38 80  2  0  0  0  0
 39 42  1  0  0  0  0
 40 49  1  0  0  0  0
 41 68  1  0  0  0  0
 42 44  1  0  0  0  0
 43 45  1  0  0  0  0
 43 46  1  0  0  0  0
 44 48  1  0  0  0  0
 45 50  1  0  0  0  0
 46 69  1  0  0  0  0
 47 50  1  0  0  0  0
 47 69  1  0  0  0  0
 48 72  1  0  0  0  0
 49 68  1  0  0  0  0
 50 67  1  0  0  0  0
 51 60  1  0  0  0  0
 52 64  1  0  0  0  0
 53 65  1  0  0  0  0
 54 65  1  0  0  0  0
 55 65  1  0  0  0  0
 56 75  1  0  0  0  0
 57 61  1  0  0  0  0
 58 59  1  0  0  0  0
 59 62  1  0  0  0  0
 60 74  1  0  0  0  0
 61 74  1  0  0  0  0
 62 82  1  0  0  0  0
 63 65  1  0  0  0  0
 63 73  1  0  0  0  0
 64 75  1  0  0  0  0
 66 67  1  0  0  0  0
M  CHG  1  75   1
M  ISO  4  38 100  62 101  74 100  82 101
M  END
> <Batch ID>
0022

> <Smiles>
CC[100N:0](CCc1cc(Cl)c(CC[101CH2:1][101O:1]c2ccc3c(c2)CN(C(=O)C(NC(=O)C(C)NC)C(C)(C)C)C(C(=O)NC2CCCc4ccccc42)C3)c(Cl)c1)[100C:0](=O)N1CCCC(n2nc(-c3ccc(Oc4ccc(F)cc4F)cc3)c(C(N)=O)c2N)C1

> <Shape>
0.199

> <Color>
0.085

> <Negative vol penalty>
0.000

$$$$

  -OEChem-04052316153D

 89 97  0     1  0  0  0  0  0999 V2000
  -26.7864  -31.3606   22.4397 C   0  0  0  0  0  0  0  0  0  0  0  0
  -27.3420  -30.3073   23.1588 C   0  0  0  0  0  0  0  0  0  0  0  0
  -23.3169  -24.6821   19.9294 C   0  0  0  0  0  0  0  0  0  0  0  0
  -22.0929  -23.6570   21.7427 C   0  0  0  0  0  0  0  0  0  0  0  0
  -26.2529  -31.1327   21.1718 C   0  0  0  0  0  0  0  0  0  0  0  0
  -27.3635  -29.0251   22.6110 C   0  0  0  0  0  0  0  0  0  0  0  0
  -31.3304  -23.0611   22.5139 C   0  0  0  0  0  0  0  0  0  0  0  0
  -28.3626  -11.0208   19.1625 C   0  0  0  0  0  0  0  0  0  0  0  0
  -22.2850  -25.6040   19.7540 C   0  0  0  0  0  0  0  0  0  0  0  0
  -21.0609  -24.5790   21.5673 C   0  0  0  0  0  0  0  0  0  0  0  0
  -31.2154  -21.6875   22.7231 C   0  0  0  0  0  0  0  0  0  0  0  0
  -20.4378  -27.8010   22.3743 C   0  0  0  0  0  0  0  0  0  0  0  0
  -19.9043  -28.3992   23.5158 C   0  0  0  0  0  0  0  0  0  0  0  0
  -26.9886  -10.7804   19.1533 C   0  0  0  0  0  0  0  0  0  0  0  0
  -30.3361  -21.4275   20.4919 C   0  0  0  0  0  0  0  0  0  0  0  0
  -17.7324  -27.4874   22.9785 C   0  0  0  0  0  0  0  0  0  0  0  0
  -23.2208  -23.7085   20.9237 C   0  0  0  0  0  0  0  0  0  0  0  0
  -25.4120  -22.8876   21.9399 C   0  0  0  0  0  0  0  0  0  0  0  0
  -26.2765  -29.8490   20.6042 C   0  0  0  0  0  0  0  0  0  0  0  0
  -30.9383  -23.6306   21.2940 C   0  0  0  0  0  0  0  0  0  0  0  0
  -26.8285  -28.7796   21.3349 C   0  0  0  0  0  0  0  0  0  0  0  0
  -30.4496  -22.8082   20.2688 C   0  0  0  0  0  0  0  0  0  0  0  0
  -28.8695  -12.1457   19.8133 C   0  0  0  0  0  0  0  0  0  0  0  0
  -26.6284  -12.7898   20.4455 C   0  0  0  0  0  0  0  0  0  0  0  0
  -21.1570  -25.5525   20.5730 C   0  0  0  0  0  0  0  0  0  0  0  0
  -30.7154  -20.8708   21.7130 C   0  0  0  0  0  0  0  0  0  0  0  0
  -19.6186  -27.0460   21.5348 C   0  0  0  0  0  0  0  0  0  0  0  0
  -18.5516  -28.2423   23.8180 C   0  0  0  0  0  0  0  0  0  0  0  0
  -18.2660  -26.8892   21.8369 C   0  0  0  0  0  0  0  0  0  0  0  0
  -26.1215  -11.6649   19.7947 C   0  0  0  0  0  0  0  0  0  0  0  0
  -28.0024  -13.0302   20.4548 C   0  0  0  0  0  0  0  0  0  0  0  0
  -24.2862  -22.7556   21.1050 C   0  0  0  0  0  0  0  0  0  0  0  0
  -26.1144  -21.7217   21.7561 C   0  0  0  0  0  0  0  0  0  0  0  0
  -25.7890  -23.9676   22.8043 C   0  0  0  0  0  0  0  0  0  0  0  0
  -28.7493  -25.7606   20.4136 C   0  0  0  0  0  0  0  0  0  0  0  0
  -30.1763  -25.4505   17.5171 C   0  0  0  0  0  0  0  0  0  0  0  0
  -32.0500  -23.5386   15.4002 C   0  0  0  0  0  0  0  0  0  0  0  0
  -25.1739  -16.1593   20.9904 C   0  0  0  0  0  0  0  0  0  0  0  0
  -25.6451  -29.6423   19.2502 C   0  0  0  0  0  0  0  0  0  0  0  0
  -31.0937  -25.1105   21.0746 C   0  0  0  0  0  0  0  0  0  0  0  0
  -30.0338  -23.3676   18.9336 C   0  0  0  0  0  0  0  0  0  0  0  0
  -26.0446  -28.3271   18.5862 C   0  0  0  0  0  0  0  0  0  0  0  0
  -26.2459  -18.2496   18.2375 C   0  0  0  0  0  0  0  0  0  0  0  0
  -25.9407  -27.1743   19.5798 C   0  0  0  0  0  0  0  0  0  0  0  0
  -25.9559  -19.6477   18.7864 C   0  0  0  0  0  0  0  0  0  0  0  0
  -25.1732  -17.2534   18.6676 C   0  0  0  0  0  0  0  0  0  0  0  0
  -24.6732  -18.5680   20.6913 C   0  0  0  0  0  0  0  0  0  0  0  0
  -26.8927  -27.3795   20.7643 C   0  0  1  0  0  0  0  0  0  0  0  0
  -30.1827  -25.6507   19.9766 C   0  0  1  0  0  0  0  0  0  0  0  0
  -25.7340  -19.6166   20.3102 C   0  0  2  0  0  0  0  0  0  0  0  0
  -33.0218  -23.5363   13.0866 C   0  0  0  0  0  0  0  0  0  0  0  0
  -33.0366  -12.8777   19.5628 C   0  0  0  0  0  0  0  0  0  0  0  0
  -27.4167  -24.8520   16.3611 C   0  0  0  0  0  0  0  0  0  0  0  0
  -28.5456  -23.9441   14.3192 C   0  0  0  0  0  0  0  0  0  0  0  0
  -28.8409  -26.3411   14.9438 C   0  0  0  0  0  0  0  0  0  0  0  0
  -34.8157  -23.3505   16.4367 C   0  0  0  0  0  0  0  0  0  0  0  0
  -30.7202  -12.9969   17.4165 C   0  0  0  0  0  0  0  0  0  0  0  0
  -25.6925  -13.7369   21.1333 C   0  0  0  0  0  0  0  0  0  0  0  0
  -30.3539  -12.3627   19.7965 C   0  0  0  0  0  0  0  0  0  0  0  0
  -31.4319  -16.3895   19.9518 C   0  0  0  0  0  0  0  0  0  0  0  0
  -31.2801  -17.3188   21.1608 C   0  0  0  0  0  0  0  0  0  0  0  0
  -31.9531  -15.0117   20.3759 C   0  0  0  0  0  0  0  0  0  0  0  0
  -30.7325  -18.6874   20.7705 C   0  0  0  0  0  0  0  0  0  1  0  0
  -29.9808  -24.5522   16.3196 C   0  0  1  0  0  0  0  0  0  0  0  0
  -33.2633  -23.8705   14.5504 C   0  0  2  0  0  0  0  0  0  0  0  0
  -32.1067  -14.0308   19.2083 C   0  0  2  0  0  0  0  0  0  0  0  0
  -28.7019  -24.9118   15.5117 C   0  0  0  0  0  0  0  0  0  0  0  0
  -24.2703  -21.5972   20.4402 N   0  0  0  0  0  0  0  0  0  0  0  0
  -25.3949  -20.9908   20.8571 N   0  0  0  0  0  0  0  0  0  0  0  0
  -30.1988  -24.8214   18.7699 N   0  0  0  0  0  0  0  0  0  0  0  0
  -25.0246  -17.2594   20.1298 N   0  0  0  0  0  0  0  0  0  0  0  0
  -27.2712  -21.2608   22.2773 N   0  0  0  0  0  0  0  0  0  0  0  0
  -24.9533  -25.0906   22.8740 N   0  0  0  0  0  0  0  0  0  0  0  0
  -28.2497  -27.0486   20.3853 N   0  0  0  0  0  0  0  0  0  0  0  0
  -31.2162  -24.6269   15.5472 N   0  0  0  0  0  0  0  0  0  0  0  0
  -25.5002  -14.9552   20.3785 N   0  0  0  0  0  0  0  0  0  0  0  0
  -34.4501  -23.1004   15.0187 N   0  3  0  0  0  0  0  0  0  0  0  0
  -30.7801  -13.4556   18.8506 N   0  3  1  0  0  0  0  0  0  0  0  0
  -26.8444  -23.9447   23.4819 O   0  0  0  0  0  0  0  0  0  0  0  0
  -28.1411  -24.7513   20.7500 O   0  0  0  0  0  0  0  0  0  0  0  0
  -30.3115  -26.6647   17.3466 O   0  0  0  0  0  0  0  0  0  0  0  0
  -31.8590  -22.4242   15.8822 O   0  0  0  0  0  0  0  0  0  0  0  0
  -25.0322  -16.2447   22.2151 O   0  0  0  0  0  0  0  0  0  0  0  0
  -20.1500  -26.4522   20.4023 O   0  0  0  0  0  0  0  0  0  0  0  0
  -30.6015  -19.5298   21.9148 O   0  0  0  0  0  0  0  0  0  1  0  0
  -18.0397  -28.8155   24.9150 F   0  0  0  0  0  0  0  0  0  0  0  0
  -17.4743  -26.1641   21.0349 F   0  0  0  0  0  0  0  0  0  0  0  0
  -24.4280  -11.3281   19.7580 Cl  0  0  0  0  0  0  0  0  0  0  0  0
  -28.6385  -14.4257   21.2611 Cl  0  0  0  0  0  0  0  0  0  0  0  0
  1  2  1  0  0  0  0
  1  5  2  0  0  0  0
  2  6  2  0  0  0  0
  3  9  2  0  0  0  0
  3 17  1  0  0  0  0
  4 10  1  0  0  0  0
  4 17  2  0  0  0  0
  5 19  1  0  0  0  0
  6 21  1  0  0  0  0
  7 11  2  0  0  0  0
  7 20  1  0  0  0  0
  8 14  2  0  0  0  0
  8 23  1  0  0  0  0
  9 25  1  0  0  0  0
 10 25  2  0  0  0  0
 11 26  1  0  0  0  0
 12 13  2  0  0  0  0
 12 27  1  0  0  0  0
 13 28  1  0  0  0  0
 14 30  1  0  0  0  0
 15 22  1  0  0  0  0
 15 26  2  0  0  0  0
 16 28  2  0  0  0  0
 16 29  1  0  0  0  0
 17 32  1  0  0  0  0
 18 32  1  0  0  0  0
 18 33  2  0  0  0  0
 18 34  1  0  0  0  0
 19 21  2  0  0  0  0
 19 39  1  0  0  0  0
 20 22  2  0  0  0  0
 20 40  1  0  0  0  0
 21 48  1  0  0  0  0
 22 41  1  0  0  0  0
 23 31  2  0  0  0  0
 23 59  1  0  0  0  0
 24 30  2  0  0  0  0
 24 31  1  0  0  0  0
 24 58  1  0  0  0  0
 25 84  1  0  0  0  0
 26 85  1  0  0  0  0
 27 29  2  0  0  0  0
 27 84  1  0  0  0  0
 28 86  1  0  0  0  0
 29 87  1  0  0  0  0
 30 88  1  0  0  0  0
 31 89  1  0  0  0  0
 32 68  2  0  0  0  0
 33 69  1  0  0  0  0
 33 72  1  0  0  0  0
 34 73  1  0  0  0  0
 34 79  2  0  0  0  0
 35 49  1  0  0  0  0
 35 74  1  0  0  0  0
 35 80  2  0  0  0  0
 36 64  1  0  0  0  0
 36 70  1  0  0  0  0
 36 81  2  0  0  0  0
 37 65  1  0  0  0  0
 37 75  1  0  0  0  0
 37 82  2  0  0  0  0
 38 71  1  0  0  0  0
 38 76  1  0  0  0  0
 38 83  2  0  0  0  0
 39 42  1  0  0  0  0
 40 49  1  0  0  0  0
 41 70  1  0  0  0  0
 42 44  1  0  0  0  0
 43 45  1  0  0  0  0
 43 46  1  0  0  0  0
 44 48  1  0  0  0  0
 45 50  1  0  0  0  0
 46 71  1  0  0  0  0
 47 50  1  0  0  0  0
 47 71  1  0  0  0  0
 48 74  1  0  0  0  0
 49 70  1  0  0  0  0
 50 69  1  0  0  0  0
 51 65  1  0  0  0  0
 52 66  1  0  0  0  0
 53 67  1  0  0  0  0
 54 67  1  0  0  0  0
 55 67  1  0  0  0  0
 56 77  1  0  0  0  0
 57 78  1  0  0  0  0
 58 76  1  0  0  0  0
 59 78  1  0  0  0  0
 60 61  1  0  0  0  0
 60 62  1  0  0  0  0
 61 63  1  0  0  0  0
 62 66  1  0  0  0  0
 63 85  1  0  0  0  0
 64 67  1  0  0  0  0
 64 75  1  0  0  0  0
 65 77  1  0  0  0  0
 66 78  1  0  0  0  0
 68 69  1  0  0  0  0
M  CHG  2  77   1  78   1
M  ISO  4  38 100  63 101  76 100  85 101
M  END
> <Batch ID>
0022

> <Smiles>
CNC(C)C(=O)NC(C(=O)N1Cc2cc([101O:1][101CH2:1]CCCC(C)N(C)Cc3ccc(Cl)c(C[100NH:0][100C:0](=O)N4CCCC(n5nc(-c6ccc(Oc7ccc(F)cc7F)cc6)c(C(N)=O)c5N)C4)c3Cl)ccc2CC1C(=O)NC1CCCc2ccccc21)C(C)(C)C

> <Shape>
0.251

> <Color>
0.053

> <Negative vol penalty>
0.000

$$$$

  -OEChem-04052316153D

 85 93  0     1  0  0  0  0  0999 V2000
  -29.2601  -36.4934   20.2415 C   0  0  0  0  0  0  0  0  0  0  0  0
  -29.4813  -35.1239   20.1368 C   0  0  0  0  0  0  0  0  0  0  0  0
  -24.7196   -8.8900   21.4024 C   0  0  0  0  0  0  0  0  0  0  0  0
  -23.2136  -10.7782   21.3435 C   0  0  0  0  0  0  0  0  0  0  0  0
  -28.2900  -36.9767   21.1186 C   0  0  0  0  0  0  0  0  0  0  0  0
  -28.7330  -34.2369   20.9100 C   0  0  0  0  0  0  0  0  0  0  0  0
  -26.8447  -28.6382   19.2991 C   0  0  0  0  0  0  0  0  0  0  0  0
  -23.9416   -8.3006   22.3988 C   0  0  0  0  0  0  0  0  0  0  0  0
  -22.4355  -10.1888   22.3399 C   0  0  0  0  0  0  0  0  0  0  0  0
  -27.3482  -27.3657   19.5655 C   0  0  0  0  0  0  0  0  0  0  0  0
  -22.1525   -6.1314   24.7030 C   0  0  0  0  0  0  0  0  0  0  0  0
  -21.8579   -4.7738   24.5777 C   0  0  0  0  0  0  0  0  0  0  0  0
  -25.8145  -27.1527   21.4153 C   0  0  0  0  0  0  0  0  0  0  0  0
  -25.5396  -19.6347   20.6740 C   0  0  0  0  0  0  0  0  0  0  0  0
  -28.1969  -18.8216   20.9206 C   0  0  0  0  0  0  0  0  0  0  0  0
  -20.7507   -5.2082   22.4747 C   0  0  0  0  0  0  0  0  0  0  0  0
  -24.3556  -10.1289   20.8748 C   0  0  0  0  0  0  0  0  0  0  0  0
  -25.0188  -10.5833   18.4537 C   0  0  0  0  0  0  0  0  0  0  0  0
  -27.5229  -36.0946   21.8958 C   0  0  0  0  0  0  0  0  0  0  0  0
  -25.8281  -29.1828   20.0969 C   0  0  0  0  0  0  0  0  0  0  0  0
  -27.7527  -34.7089   21.7993 C   0  0  0  0  0  0  0  0  0  0  0  0
  -25.2980  -28.4313   21.1553 C   0  0  0  0  0  0  0  0  0  0  0  0
  -25.9308  -18.3792   20.2089 C   0  0  0  0  0  0  0  0  0  0  0  0
  -26.4771  -20.4837   21.2624 C   0  0  0  0  0  0  0  0  0  0  0  0
  -27.2594  -17.9727   20.3322 C   0  0  0  0  0  0  0  0  0  0  0  0
  -22.7996   -8.9499   22.8676 C   0  0  0  0  0  0  0  0  0  0  0  0
  -26.8351  -26.6239   20.6255 C   0  0  0  0  0  0  0  0  0  0  0  0
  -21.7461   -7.0275   23.7142 C   0  0  0  0  0  0  0  0  0  0  0  0
  -21.1570   -4.3122   23.4635 C   0  0  0  0  0  0  0  0  0  0  0  0
  -21.0452   -6.5659   22.6001 C   0  0  0  0  0  0  0  0  0  0  0  0
  -27.8057  -20.0772   21.3857 C   0  0  0  0  0  0  0  0  0  0  0  0
  -25.1592  -10.7386   19.8458 C   0  0  0  0  0  0  0  0  0  0  0  0
  -26.0154  -11.3627   17.9191 C   0  0  0  0  0  0  0  0  0  0  0  0
  -24.0720   -9.8044   17.7103 C   0  0  0  0  0  0  0  0  0  0  0  0
  -25.5798  -31.7263   21.9871 C   0  0  0  0  0  0  0  0  0  0  0  0
  -22.4746  -30.8053   22.1655 C   0  0  0  0  0  0  0  0  0  0  0  0
  -20.1775  -28.2950   21.9032 C   0  0  0  0  0  0  0  0  0  0  0  0
  -28.9610  -16.1617   19.9184 C   0  0  0  0  0  0  0  0  0  0  0  0
  -26.5183  -36.6666   22.8645 C   0  0  0  0  0  0  0  0  0  0  0  0
  -25.2773  -30.5461   19.7799 C   0  0  0  0  0  0  0  0  0  0  0  0
  -24.1922  -28.9623   22.0292 C   0  0  0  0  0  0  0  0  0  0  0  0
  -25.5095  -35.6399   23.3729 C   0  0  0  0  0  0  0  0  0  0  0  0
  -30.3834  -13.0570   18.9111 C   0  0  0  0  0  0  0  0  0  0  0  0
  -26.2192  -34.3562   23.7917 C   0  0  0  0  0  0  0  0  0  0  0  0
  -29.1913  -12.0974   18.9039 C   0  0  0  0  0  0  0  0  0  0  0  0
  -30.2914  -14.0672   20.0534 C   0  0  0  0  0  0  0  0  0  0  0  0
  -27.8376  -13.8561   20.1129 C   0  0  0  0  0  0  0  0  0  0  0  0
  -26.9442  -33.7137   22.6030 C   0  0  1  0  0  0  0  0  0  0  0  0
  -24.5979  -31.2085   20.9745 C   0  0  1  0  0  0  0  0  0  0  0  0
  -27.8529  -12.8610   18.9410 C   0  0  2  0  0  0  0  0  0  0  0  0
  -24.9058  -17.4913   19.5810 C   0  0  0  0  0  0  0  0  0  0  0  0
  -17.7215  -27.8392   22.1435 C   0  0  0  0  0  0  0  0  0  0  0  0
  -26.6508  -22.9271   19.4757 C   0  0  0  0  0  0  0  0  0  0  0  0
  -26.2870  -21.9289   23.2899 C   0  0  0  0  0  0  0  0  0  0  0  0
  -24.4729  -22.0731   21.6130 C   0  0  0  0  0  0  0  0  0  0  0  0
  -22.7658  -30.8507   25.2025 C   0  0  0  0  0  0  0  0  0  0  0  0
  -20.6590  -29.5067   25.3548 C   0  0  0  0  0  0  0  0  0  0  0  0
  -20.6108  -31.7880   24.3470 C   0  0  0  0  0  0  0  0  0  0  0  0
  -19.9330  -27.4814   19.0682 C   0  0  0  0  0  0  0  0  0  0  0  0
  -26.4267  -24.4389   21.4709 C   0  0  0  0  0  0  0  0  0  1  0  0
  -21.6811  -29.8894   23.0658 C   0  0  1  0  0  0  0  0  0  0  0  0
  -18.8404  -28.2239   21.1880 C   0  0  2  0  0  0  0  0  0  0  0  0
  -26.7920  -23.0132   21.0091 C   0  0  1  0  0  0  0  0  0  0  0  0
  -26.0018  -21.8693   21.7647 C   0  0  0  0  0  0  0  0  0  0  0  0
  -21.4513  -30.4992   24.4774 C   0  0  0  0  0  0  0  0  0  0  0  0
  -26.1659  -11.5524   20.1750 N   0  0  0  0  0  0  0  0  0  0  0  0
  -26.6671  -11.9155   18.9821 N   0  0  0  0  0  0  0  0  0  0  0  0
  -23.6913  -30.3028   21.6830 N   0  0  0  0  0  0  0  0  0  0  0  0
  -28.9989  -14.7551   20.0225 N   0  0  0  0  0  0  0  0  0  0  0  0
  -26.3892  -11.6220   16.6481 N   0  0  0  0  0  0  0  0  0  0  0  0
  -23.1156   -9.0627   18.4170 N   0  0  0  0  0  0  0  0  0  0  0  0
  -27.6764  -16.7016   19.8651 N   0  0  0  0  0  0  0  0  0  0  0  0
  -26.0019  -33.0207   21.7509 N   0  0  0  0  0  0  0  0  0  0  0  0
  -20.4532  -29.5718   22.3449 N   0  0  0  0  0  0  0  0  0  0  0  0
  -18.8915  -27.2140   20.0933 N   0  3  0  0  0  0  0  0  0  0  0  0
  -24.0845   -9.7543   16.4570 O   0  0  0  0  0  0  0  0  0  0  0  0
  -25.9275  -31.0053   22.9150 O   0  0  0  0  0  0  0  0  0  0  0  0
  -22.0277  -31.9226   21.8944 O   0  0  0  0  0  0  0  0  0  0  0  0
  -20.9030  -27.3151   22.0580 O   0  0  0  0  0  0  0  0  0  0  0  0
  -29.9924  -16.8355   19.8520 O   0  0  0  0  0  0  0  0  0  0  0  0
  -22.0400   -8.3749   23.8397 O   0  0  0  0  0  0  0  0  0  0  0  0
  -27.3253  -25.3818   20.8881 O   0  0  0  0  0  0  0  0  0  1  0  0
  -20.8755   -3.0082   23.3425 F   0  0  0  0  0  0  0  0  0  0  0  0
  -20.6532   -7.4217   21.6463 F   0  0  0  0  0  0  0  0  0  0  0  0
  -28.9933  -21.1008   22.1078 Cl  0  0  0  0  0  0  0  0  0  0  0  0
  1  2  1  0  0  0  0
  1  5  2  0  0  0  0
  2  6  2  0  0  0  0
  3  8  2  0  0  0  0
  3 17  1  0  0  0  0
  4  9  1  0  0  0  0
  4 17  2  0  0  0  0
  5 19  1  0  0  0  0
  6 21  1  0  0  0  0
  7 10  2  0  0  0  0
  7 20  1  0  0  0  0
  8 26  1  0  0  0  0
  9 26  2  0  0  0  0
 10 27  1  0  0  0  0
 11 12  2  0  0  0  0
 11 28  1  0  0  0  0
 12 29  1  0  0  0  0
 13 22  1  0  0  0  0
 13 27  2  0  0  0  0
 14 23  2  0  0  0  0
 14 24  1  0  0  0  0
 15 25  2  0  0  0  0
 15 31  1  0  0  0  0
 16 29  2  0  0  0  0
 16 30  1  0  0  0  0
 17 32  1  0  0  0  0
 18 32  1  0  0  0  0
 18 33  2  0  0  0  0
 18 34  1  0  0  0  0
 19 21  2  0  0  0  0
 19 39  1  0  0  0  0
 20 22  2  0  0  0  0
 20 40  1  0  0  0  0
 21 48  1  0  0  0  0
 22 41  1  0  0  0  0
 23 25  1  0  0  0  0
 23 51  1  0  0  0  0
 24 31  2  0  0  0  0
 24 64  1  0  0  0  0
 25 72  1  0  0  0  0
 26 81  1  0  0  0  0
 27 82  1  0  0  0  0
 28 30  2  0  0  0  0
 28 81  1  0  0  0  0
 29 83  1  0  0  0  0
 30 84  1  0  0  0  0
 31 85  1  0  0  0  0
 32 66  2  0  0  0  0
 33 67  1  0  0  0  0
 33 70  1  0  0  0  0
 34 71  1  0  0  0  0
 34 76  2  0  0  0  0
 35 49  1  0  0  0  0
 35 73  1  0  0  0  0
 35 77  2  0  0  0  0
 36 61  1  0  0  0  0
 36 68  1  0  0  0  0
 36 78  2  0  0  0  0
 37 62  1  0  0  0  0
 37 74  1  0  0  0  0
 37 79  2  0  0  0  0
 38 69  1  0  0  0  0
 38 72  1  0  0  0  0
 38 80  2  0  0  0  0
 39 42  1  0  0  0  0
 40 49  1  0  0  0  0
 41 68  1  0  0  0  0
 42 44  1  0  0  0  0
 43 45  1  0  0  0  0
 43 46  1  0  0  0  0
 44 48  1  0  0  0  0
 45 50  1  0  0  0  0
 46 69  1  0  0  0  0
 47 50  1  0  0  0  0
 47 69  1  0  0  0  0
 48 73  1  0  0  0  0
 49 68  1  0  0  0  0
 50 67  1  0  0  0  0
 52 62  1  0  0  0  0
 53 63  1  0  0  0  0
 54 64  1  0  0  0  0
 55 64  1  0  0  0  0
 56 65  1  0  0  0  0
 57 65  1  0  0  0  0
 58 65  1  0  0  0  0
 59 75  1  0  0  0  0
 60 63  1  0  0  0  0
 60 82  1  0  0  0  0
 61 65  1  0  0  0  0
 61 74  1  0  0  0  0
 62 75  1  0  0  0  0
 63 64  1  0  0  0  0
 66 67  1  0  0  0  0
M  CHG  1  75   1
M  ISO  4  38 100  60 101  72 100  82 101
M  END
> <Batch ID>
0022

> <Smiles>
CNC(C)C(=O)NC(C(=O)N1Cc2cc([101O:1][101CH2:1]C(C)C(C)(C)c3cc(C)c([100NH:0][100C:0](=O)N4CCCC(n5nc(-c6ccc(Oc7ccc(F)cc7F)cc6)c(C(N)=O)c5N)C4)cc3Cl)ccc2CC1C(=O)NC1CCCc2ccccc21)C(C)(C)C

> <Shape>
0.286

> <Color>
0.102

> <Negative vol penalty>
0.000

$$$$

  -OEChem-04052316153D

 95103  0     1  0  0  0  0  0999 V2000
  -18.5134  -28.1325   22.9569 C   0  0  0  0  0  0  0  0  0  0  0  0
  -19.8691  -28.1102   23.2685 C   0  0  0  0  0  0  0  0  0  0  0  0
  -23.2623   -9.9074   19.9714 C   0  0  0  0  0  0  0  0  0  0  0  0
  -23.5997  -10.1750   22.3487 C   0  0  0  0  0  0  0  0  0  0  0  0
  -17.8931  -26.9842   22.4665 C   0  0  0  0  0  0  0  0  0  0  0  0
  -20.6050  -26.9392   23.0911 C   0  0  0  0  0  0  0  0  0  0  0  0
  -25.0796  -27.7740   20.8716 C   0  0  0  0  0  0  0  0  0  0  0  0
  -22.4822   -8.7759   20.2094 C   0  0  0  0  0  0  0  0  0  0  0  0
  -22.8195   -9.0435   22.5868 C   0  0  0  0  0  0  0  0  0  0  0  0
  -26.1009  -28.2862   21.6705 C   0  0  0  0  0  0  0  0  0  0  0  0
  -19.5332   -8.2622   22.6882 C   0  0  0  0  0  0  0  0  0  0  0  0
  -18.5789   -8.3366   23.7027 C   0  0  0  0  0  0  0  0  0  0  0  0
  -27.0363  -26.0728   21.8831 C   0  0  0  0  0  0  0  0  0  0  0  0
  -29.8078  -19.4606   25.7117 C   0  0  0  0  0  0  0  0  0  0  0  0
  -19.6625   -6.5110   24.8559 C   0  0  0  0  0  0  0  0  0  0  0  0
  -23.8211  -10.6070   21.0411 C   0  0  0  0  0  0  0  0  0  0  0  0
  -24.1867  -13.1096   20.7084 C   0  0  0  0  0  0  0  0  0  0  0  0
  -18.6239  -25.8012   22.2738 C   0  0  0  0  0  0  0  0  0  0  0  0
  -25.0227  -26.4034   20.5809 C   0  0  0  0  0  0  0  0  0  0  0  0
  -19.9935  -25.7736   22.5990 C   0  0  0  0  0  0  0  0  0  0  0  0
  -26.0147  -25.5462   21.0781 C   0  0  0  0  0  0  0  0  0  0  0  0
  -27.2488  -20.3644   26.3576 C   0  0  0  0  0  0  0  0  0  0  0  0
  -29.6024  -20.8024   26.0325 C   0  0  0  0  0  0  0  0  0  0  0  0
  -28.7337  -18.5707   25.7138 C   0  0  0  0  0  0  0  0  0  0  0  0
  -22.2608   -8.3440   21.5171 C   0  0  0  0  0  0  0  0  0  0  0  0
  -27.0778  -27.4351   22.1788 C   0  0  0  0  0  0  0  0  0  0  0  0
  -20.5522   -7.3121   22.7574 C   0  0  0  0  0  0  0  0  0  0  0  0
  -18.6436   -7.4610   24.7866 C   0  0  0  0  0  0  0  0  0  0  0  0
  -20.6169   -6.4366   23.8413 C   0  0  0  0  0  0  0  0  0  0  0  0
  -28.3229  -21.2543   26.3555 C   0  0  0  0  0  0  0  0  0  0  0  0
  -27.4542  -19.0226   26.0367 C   0  0  0  0  0  0  0  0  0  0  0  0
  -24.6276  -11.7755   20.7958 C   0  0  0  0  0  0  0  0  0  0  0  0
  -25.3285  -13.8334   20.4658 C   0  0  0  0  0  0  0  0  0  0  0  0
  -22.8633  -13.6466   20.8353 C   0  0  0  0  0  0  0  0  0  0  0  0
  -22.9407  -24.0722   21.1594 C   0  0  0  0  0  0  0  0  0  0  0  0
  -24.9415  -22.3475   19.2767 C   0  0  0  0  0  0  0  0  0  0  0  0
  -28.0774  -21.9355   17.9949 C   0  0  0  0  0  0  0  0  0  0  0  0
  -31.1149  -12.8352   21.6372 C   0  0  0  0  0  0  0  0  0  0  0  0
  -17.8993  -24.5717   21.7860 C   0  0  0  0  0  0  0  0  0  0  0  0
  -23.9295  -25.8708   19.6955 C   0  0  0  0  0  0  0  0  0  0  0  0
  -26.0102  -24.0701   20.7787 C   0  0  0  0  0  0  0  0  0  0  0  0
  -18.8327  -23.4781   21.2731 C   0  0  0  0  0  0  0  0  0  0  0  0
  -29.6502  -13.4455   18.4499 C   0  0  0  0  0  0  0  0  0  0  0  0
  -19.9851  -23.2591   22.2481 C   0  0  0  0  0  0  0  0  0  0  0  0
  -28.1571  -13.2071   18.6818 C   0  0  0  0  0  0  0  0  0  0  0  0
  -30.5089  -12.4784   19.2619 C   0  0  0  0  0  0  0  0  0  0  0  0
  -28.7223  -12.2149   20.9390 C   0  0  0  0  0  0  0  0  0  0  0  0
  -20.8310  -24.5294   22.3967 C   0  0  1  0  0  0  0  0  0  0  0  0
  -23.6793  -24.3782   19.8872 C   0  0  1  0  0  0  0  0  0  0  0  0
  -27.8166  -13.2030   20.1843 C   0  0  2  0  0  0  0  0  0  0  0  0
  -25.8738  -20.8506   26.7056 C   0  0  0  0  0  0  0  0  0  0  0  0
  -29.4169  -20.4131   16.5166 C   0  0  0  0  0  0  0  0  0  0  0  0
  -25.0885  -20.2941   21.5287 C   0  0  0  0  0  0  0  0  0  0  0  0
  -27.1152  -19.3276   20.4212 C   0  0  0  0  0  0  0  0  0  0  0  0
  -24.9216  -19.3150   19.2335 C   0  0  0  0  0  0  0  0  0  0  0  0
  -28.6446  -24.1119   16.0713 C   0  0  0  0  0  0  0  0  0  0  0  0
  -33.4364  -25.8862   24.0948 C   0  0  0  0  0  0  0  0  0  0  0  0
  -33.6830  -24.7164   25.0527 C   0  0  0  0  0  0  0  0  0  0  0  0
  -32.0365  -26.5076   24.1477 C   0  0  0  0  0  0  0  0  0  0  0  0
  -32.6912  -23.5642   24.8765 C   0  0  0  0  0  0  0  0  0  0  0  0
  -31.8449  -27.6551   23.1532 C   0  0  0  0  0  0  0  0  0  0  0  0
  -33.0106  -22.4091   25.8319 C   0  0  0  0  0  0  0  0  0  0  0  0
  -30.2302  -15.2338   24.7267 C   0  0  0  0  0  0  0  0  0  0  0  0
  -31.6086  -14.6673   24.3639 C   0  0  0  0  0  0  0  0  0  0  0  0
  -30.4423  -28.2633   23.1987 C   0  0  0  0  0  0  0  0  0  0  0  0
  -32.0346  -21.2439   25.6929 C   0  0  0  0  0  0  0  0  0  0  0  0
  -30.2761  -16.7265   25.0465 C   0  0  0  0  0  0  0  0  0  0  0  0
  -31.5640  -13.1740   24.0544 C   0  0  0  0  0  0  0  0  0  0  0  0
  -29.3325  -27.2598   22.9147 C   0  0  0  0  0  0  0  0  0  1  0  0
  -26.1662  -21.4976   19.5148 C   0  0  1  0  0  0  0  0  0  0  0  0
  -28.5605  -21.6682   16.5808 C   0  0  2  0  0  0  0  0  0  0  0  0
  -25.8222  -20.1360   20.1820 C   0  0  0  0  0  0  0  0  0  0  0  0
  -25.9466  -11.6560   20.6226 N   0  0  0  0  0  0  0  0  0  0  0  0
  -26.3443  -12.9242   20.4239 N   0  0  0  0  0  0  0  0  0  0  0  0
  -24.9172  -23.5963   19.9135 N   0  0  0  0  0  0  0  0  0  0  0  0
  -30.1369  -12.5243   20.6781 N   0  0  0  0  0  0  0  0  0  0  0  0
  -25.5527  -15.1525   20.2863 N   0  0  0  0  0  0  0  0  0  0  0  0
  -21.8046  -12.7626   21.0843 N   0  0  0  0  0  0  0  0  0  0  0  0
  -30.6919  -21.6593   26.0200 N   0  0  0  0  0  0  0  0  0  0  0  0
  -28.9778  -17.2185   25.3825 N   0  0  0  0  0  0  0  0  0  0  0  0
  -21.7080  -24.6889   21.2566 N   0  0  0  0  0  0  0  0  0  0  0  0
  -26.8373  -21.3783   18.2249 N   0  0  0  0  0  0  0  0  0  0  0  0
  -30.6769  -12.8636   22.9556 N   0  0  0  0  0  0  0  0  0  0  0  0
  -29.3710  -22.8161   16.0846 N   0  3  0  0  0  0  0  0  0  0  0  0
  -22.6244  -14.8721   20.7147 O   0  0  0  0  0  0  0  0  0  0  0  0
  -23.4508  -23.3302   21.9907 O   0  0  0  0  0  0  0  0  0  0  0  0
  -24.0428  -21.9220   18.5466 O   0  0  0  0  0  0  0  0  0  0  0  0
  -28.7360  -22.5716   18.8147 O   0  0  0  0  0  0  0  0  0  0  0  0
  -32.2901  -13.0752   21.3401 O   0  0  0  0  0  0  0  0  0  0  0  0
  -21.4993   -7.2400   21.7498 O   0  0  0  0  0  0  0  0  0  0  0  0
  -28.0825  -27.9358   22.9649 O   0  0  0  0  0  0  0  0  0  1  0  0
  -17.7279   -7.5336   25.7615 F   0  0  0  0  0  0  0  0  0  0  0  0
  -21.5941   -5.5225   23.9140 F   0  0  0  0  0  0  0  0  0  0  0  0
  -28.0689  -22.9231   26.7540 Cl  0  0  0  0  0  0  0  0  0  0  0  0
  -26.1195  -17.9140   26.0392 Cl  0  0  0  0  0  0  0  0  0  0  0  0
  1  2  1  0  0  0  0
  1  5  2  0  0  0  0
  2  6  2  0  0  0  0
  3  8  2  0  0  0  0
  3 16  1  0  0  0  0
  4  9  1  0  0  0  0
  4 16  2  0  0  0  0
  5 18  1  0  0  0  0
  6 20  1  0  0  0  0
  7 10  2  0  0  0  0
  7 19  1  0  0  0  0
  8 25  1  0  0  0  0
  9 25  2  0  0  0  0
 10 26  1  0  0  0  0
 11 12  2  0  0  0  0
 11 27  1  0  0  0  0
 12 28  1  0  0  0  0
 13 21  1  0  0  0  0
 13 26  2  0  0  0  0
 14 23  1  0  0  0  0
 14 24  2  0  0  0  0
 15 28  2  0  0  0  0
 15 29  1  0  0  0  0
 16 32  1  0  0  0  0
 17 32  1  0  0  0  0
 17 33  2  0  0  0  0
 17 34  1  0  0  0  0
 18 20  2  0  0  0  0
 18 39  1  0  0  0  0
 19 21  2  0  0  0  0
 19 40  1  0  0  0  0
 20 48  1  0  0  0  0
 21 41  1  0  0  0  0
 22 30  1  0  0  0  0
 22 31  2  0  0  0  0
 22 51  1  0  0  0  0
 23 30  2  0  0  0  0
 23 79  1  0  0  0  0
 24 31  1  0  0  0  0
 24 80  1  0  0  0  0
 25 90  1  0  0  0  0
 26 91  1  0  0  0  0
 27 29  2  0  0  0  0
 27 90  1  0  0  0  0
 28 92  1  0  0  0  0
 29 93  1  0  0  0  0
 30 94  1  0  0  0  0
 31 95  1  0  0  0  0
 32 73  2  0  0  0  0
 33 74  1  0  0  0  0
 33 77  1  0  0  0  0
 34 78  1  0  0  0  0
 34 85  2  0  0  0  0
 35 49  1  0  0  0  0
 35 81  1  0  0  0  0
 35 86  2  0  0  0  0
 36 70  1  0  0  0  0
 36 75  1  0  0  0  0
 36 87  2  0  0  0  0
 37 71  1  0  0  0  0
 37 82  1  0  0  0  0
 37 88  2  0  0  0  0
 38 76  1  0  0  0  0
 38 83  1  0  0  0  0
 38 89  2  0  0  0  0
 39 42  1  0  0  0  0
 40 49  1  0  0  0  0
 41 75  1  0  0  0  0
 42 44  1  0  0  0  0
 43 45  1  0  0  0  0
 43 46  1  0  0  0  0
 44 48  1  0  0  0  0
 45 50  1  0  0  0  0
 46 76  1  0  0  0  0
 47 50  1  0  0  0  0
 47 76  1  0  0  0  0
 48 81  1  0  0  0  0
 49 75  1  0  0  0  0
 50 74  1  0  0  0  0
 52 71  1  0  0  0  0
 53 72  1  0  0  0  0
 54 72  1  0  0  0  0
 55 72  1  0  0  0  0
 56 84  1  0  0  0  0
 57 58  1  0  0  0  0
 57 59  1  0  0  0  0
 58 60  1  0  0  0  0
 59 61  1  0  0  0  0
 60 62  1  0  0  0  0
 61 65  1  0  0  0  0
 62 66  1  0  0  0  0
 63 64  1  0  0  0  0
 63 67  1  0  0  0  0
 64 68  1  0  0  0  0
 65 69  1  0  0  0  0
 66 79  1  0  0  0  0
 67 80  1  0  0  0  0
 68 83  1  0  0  0  0
 69 91  1  0  0  0  0
 70 72  1  0  0  0  0
 70 82  1  0  0  0  0
 71 84  1  0  0  0  0
 73 74  1  0  0  0  0
M  CHG  1  84   1
M  ISO  4  38 100  69 101  83 100  91 101
M  END
> <Batch ID>
0022

> <Smiles>
CNC(C)C(=O)NC(C(=O)N1Cc2cc([101O:1][101CH2:1]CCCCCCCCNc3cc(NCCCC[100NH:0][100C:0](=O)N4CCCC(n5nc(-c6ccc(Oc7ccc(F)cc7F)cc6)c(C(N)=O)c5N)C4)c(Cl)c(C)c3Cl)ccc2CC1C(=O)NC1CCCc2ccccc21)C(C)(C)C

> <Shape>
0.200

> <Color>
0.199

> <Negative vol penalty>
0.000

$$$$

  -OEChem-04052316153D

 84 92  0     1  0  0  0  0  0999 V2000
  -29.1935  -34.6133   26.3433 C   0  0  0  0  0  0  0  0  0  0  0  0
  -29.4300  -33.6124   25.4065 C   0  0  0  0  0  0  0  0  0  0  0  0
  -24.5786  -10.5450   23.4906 C   0  0  0  0  0  0  0  0  0  0  0  0
  -24.2956  -12.4150   24.9939 C   0  0  0  0  0  0  0  0  0  0  0  0
  -27.9816  -34.6501   27.0316 C   0  0  0  0  0  0  0  0  0  0  0  0
  -28.4549  -32.6469   25.1583 C   0  0  0  0  0  0  0  0  0  0  0  0
  -27.2145  -29.9610   19.7961 C   0  0  0  0  0  0  0  0  0  0  0  0
  -24.1369   -9.6761   24.4883 C   0  0  0  0  0  0  0  0  0  0  0  0
  -23.8538  -11.5461   25.9916 C   0  0  0  0  0  0  0  0  0  0  0  0
  -27.5873  -28.7316   19.2544 C   0  0  0  0  0  0  0  0  0  0  0  0
  -21.1851   -8.7251   25.8357 C   0  0  0  0  0  0  0  0  0  0  0  0
  -20.2585   -7.7455   25.4787 C   0  0  0  0  0  0  0  0  0  0  0  0
  -25.5051  -27.7749   20.0084 C   0  0  0  0  0  0  0  0  0  0  0  0
  -21.8108   -6.0265   26.1660 C   0  0  0  0  0  0  0  0  0  0  0  0
  -24.6580  -11.9145   23.7434 C   0  0  0  0  0  0  0  0  0  0  0  0
  -24.3281  -13.4695   21.7482 C   0  0  0  0  0  0  0  0  0  0  0  0
  -26.9874  -33.6903   26.7847 C   0  0  0  0  0  0  0  0  0  0  0  0
  -25.9870  -30.1040   20.4586 C   0  0  0  0  0  0  0  0  0  0  0  0
  -27.2291  -32.6701   25.8449 C   0  0  0  0  0  0  0  0  0  0  0  0
  -25.1180  -29.0078   20.5553 C   0  0  0  0  0  0  0  0  0  0  0  0
  -28.1955  -22.5294   20.2384 C   0  0  0  0  0  0  0  0  0  0  0  0
  -29.1655  -21.9358   21.0461 C   0  0  0  0  0  0  0  0  0  0  0  0
  -27.3229  -21.7332   19.4966 C   0  0  0  0  0  0  0  0  0  0  0  0
  -28.3904  -19.7496   20.3701 C   0  0  0  0  0  0  0  0  0  0  0  0
  -23.7745  -10.1766   25.7388 C   0  0  0  0  0  0  0  0  0  0  0  0
  -26.7338  -27.6376   19.3630 C   0  0  0  0  0  0  0  0  0  0  0  0
  -22.4246   -8.3553   26.3579 C   0  0  0  0  0  0  0  0  0  0  0  0
  -20.5713   -6.3963   25.6439 C   0  0  0  0  0  0  0  0  0  0  0  0
  -22.7375   -7.0061   26.5230 C   0  0  0  0  0  0  0  0  0  0  0  0
  -29.2630  -20.5460   21.1119 C   0  0  0  0  0  0  0  0  0  0  0  0
  -27.4204  -20.3433   19.5625 C   0  0  0  0  0  0  0  0  0  0  0  0
  -25.1147  -12.8125   22.7133 C   0  0  0  0  0  0  0  0  0  0  0  0
  -25.2281  -14.1995   21.0109 C   0  0  0  0  0  0  0  0  0  0  0  0
  -22.9107  -13.4241   21.5372 C   0  0  0  0  0  0  0  0  0  0  0  0
  -25.1106  -30.8585   23.4195 C   0  0  0  0  0  0  0  0  0  0  0  0
  -22.1322  -30.8010   22.1357 C   0  0  0  0  0  0  0  0  0  0  0  0
  -20.0562  -29.6517   19.6829 C   0  0  0  0  0  0  0  0  0  0  0  0
  -29.6380  -17.5815   20.6684 C   0  0  0  0  0  0  0  0  0  0  0  0
  -25.7119  -33.7433   27.5877 C   0  0  0  0  0  0  0  0  0  0  0  0
  -25.5879  -31.4437   21.0141 C   0  0  0  0  0  0  0  0  0  0  0  0
  -23.7802  -29.1142   21.2391 C   0  0  0  0  0  0  0  0  0  0  0  0
  -24.5838  -32.9026   26.9952 C   0  0  0  0  0  0  0  0  0  0  0  0
  -30.2883  -14.0918   20.9444 C   0  0  0  0  0  0  0  0  0  0  0  0
  -25.0968  -31.5202   26.6044 C   0  0  0  0  0  0  0  0  0  0  0  0
  -28.9356  -13.5019   21.3499 C   0  0  0  0  0  0  0  0  0  0  0  0
  -30.5300  -15.4541   21.5922 C   0  0  0  0  0  0  0  0  0  0  0  0
  -28.1064  -15.8479   21.7927 C   0  0  0  0  0  0  0  0  0  0  0  0
  -26.1864  -31.6195   25.5300 C   0  0  1  0  0  0  0  0  0  0  0  0
  -24.5392  -31.3446   22.1176 C   0  0  1  0  0  0  0  0  0  0  0  0
  -27.7897  -14.5053   21.1138 C   0  0  2  0  0  0  0  0  0  0  0  0
  -30.1104  -22.7689   21.8491 C   0  0  0  0  0  0  0  0  0  0  0  0
  -17.6674  -29.7458   18.9197 C   0  0  0  0  0  0  0  0  0  0  0  0
  -21.3497  -28.8565   24.3530 C   0  0  0  0  0  0  0  0  0  0  0  0
  -19.3142  -28.2651   23.0206 C   0  0  0  0  0  0  0  0  0  0  0  0
  -19.6315  -30.5998   23.8400 C   0  0  0  0  0  0  0  0  0  0  0  0
  -20.8081  -30.8893   17.1018 C   0  0  0  0  0  0  0  0  0  0  0  0
  -28.0935  -24.0323   20.1700 C   0  0  0  0  0  0  0  0  0  0  0  0
  -28.6752  -24.6314   18.8877 C   0  0  0  0  0  0  0  0  0  0  0  0
  -28.4908  -26.1412   18.7889 C   0  0  0  0  0  0  0  0  0  1  0  0
  -21.0704  -29.7450   21.9450 C   0  0  1  0  0  0  0  0  0  0  0  0
  -19.0507  -30.3659   18.7978 C   0  0  2  0  0  0  0  0  0  0  0  0
  -20.3674  -29.3638   23.2784 C   0  0  0  0  0  0  0  0  0  0  0  0
  -26.4144  -13.0996   22.6016 N   0  0  0  0  0  0  0  0  0  0  0  0
  -26.4514  -13.9450   21.5576 N   0  0  0  0  0  0  0  0  0  0  0  0
  -23.4381  -30.4435   21.7716 N   0  0  0  0  0  0  0  0  0  0  0  0
  -29.4058  -16.3532   21.3228 N   0  0  0  0  0  0  0  0  0  0  0  0
  -26.3349  -22.3180   18.6738 N   0  0  0  0  0  0  0  0  0  0  0  0
  -25.0844  -15.0278   19.9546 N   0  0  0  0  0  0  0  0  0  0  0  0
  -22.1342  -12.6234   22.3859 N   0  0  0  0  0  0  0  0  0  0  0  0
  -28.4895  -18.3377   20.4371 N   0  0  0  0  0  0  0  0  0  0  0  0
  -25.5954  -31.8655   24.2321 N   0  0  0  0  0  0  0  0  0  0  0  0
  -20.1679  -30.2543   20.9181 N   0  0  0  0  0  0  0  0  0  0  0  0
  -19.4738  -30.2939   17.3706 N   0  3  0  0  0  0  0  0  0  0  0  0
  -22.3514  -14.0615   20.6128 O   0  0  0  0  0  0  0  0  0  0  0  0
  -25.1102  -29.6587   23.6689 O   0  0  0  0  0  0  0  0  0  0  0  0
  -21.8134  -31.9050   22.5843 O   0  0  0  0  0  0  0  0  0  0  0  0
  -20.6774  -28.6565   19.3166 O   0  0  0  0  0  0  0  0  0  0  0  0
  -30.7688  -17.9240   20.3133 O   0  0  0  0  0  0  0  0  0  0  0  0
  -23.3432   -9.3290   26.7126 O   0  0  0  0  0  0  0  0  0  0  0  0
  -27.0954  -26.4363   18.8357 O   0  0  0  0  0  0  0  0  0  1  0  0
  -19.6808   -5.4558   25.3024 F   0  0  0  0  0  0  0  0  0  0  0  0
  -23.9262   -6.6448   27.0252 F   0  0  0  0  0  0  0  0  0  0  0  0
  -30.1964  -19.9759   21.8891 F   0  0  0  0  0  0  0  0  0  0  0  0
  -26.5811  -19.5768   18.8489 F   0  0  0  0  0  0  0  0  0  0  0  0
  1  2  1  0  0  0  0
  1  5  2  0  0  0  0
  2  6  2  0  0  0  0
  3  8  2  0  0  0  0
  3 15  1  0  0  0  0
  4  9  1  0  0  0  0
  4 15  2  0  0  0  0
  5 17  1  0  0  0  0
  6 19  1  0  0  0  0
  7 10  2  0  0  0  0
  7 18  1  0  0  0  0
  8 25  1  0  0  0  0
  9 25  2  0  0  0  0
 10 26  1  0  0  0  0
 11 12  2  0  0  0  0
 11 27  1  0  0  0  0
 12 28  1  0  0  0  0
 13 20  1  0  0  0  0
 13 26  2  0  0  0  0
 14 28  2  0  0  0  0
 14 29  1  0  0  0  0
 15 32  1  0  0  0  0
 16 32  1  0  0  0  0
 16 33  2  0  0  0  0
 16 34  1  0  0  0  0
 17 19  2  0  0  0  0
 17 39  1  0  0  0  0
 18 20  2  0  0  0  0
 18 40  1  0  0  0  0
 19 48  1  0  0  0  0
 20 41  1  0  0  0  0
 21 22  1  0  0  0  0
 21 23  2  0  0  0  0
 21 57  1  0  0  0  0
 22 30  2  0  0  0  0
 22 51  1  0  0  0  0
 23 31  1  0  0  0  0
 23 67  1  0  0  0  0
 24 30  1  0  0  0  0
 24 31  2  0  0  0  0
 24 70  1  0  0  0  0
 25 79  1  0  0  0  0
 26 80  1  0  0  0  0
 27 29  2  0  0  0  0
 27 79  1  0  0  0  0
 28 81  1  0  0  0  0
 29 82  1  0  0  0  0
 30 83  1  0  0  0  0
 31 84  1  0  0  0  0
 32 63  2  0  0  0  0
 33 64  1  0  0  0  0
 33 68  1  0  0  0  0
 34 69  1  0  0  0  0
 34 74  2  0  0  0  0
 35 49  1  0  0  0  0
 35 71  1  0  0  0  0
 35 75  2  0  0  0  0
 36 60  1  0  0  0  0
 36 65  1  0  0  0  0
 36 76  2  0  0  0  0
 37 61  1  0  0  0  0
 37 72  1  0  0  0  0
 37 77  2  0  0  0  0
 38 66  1  0  0  0  0
 38 70  1  0  0  0  0
 38 78  2  0  0  0  0
 39 42  1  0  0  0  0
 40 49  1  0  0  0  0
 41 65  1  0  0  0  0
 42 44  1  0  0  0  0
 43 45  1  0  0  0  0
 43 46  1  0  0  0  0
 44 48  1  0  0  0  0
 45 50  1  0  0  0  0
 46 66  1  0  0  0  0
 47 50  1  0  0  0  0
 47 66  1  0  0  0  0
 48 71  1  0  0  0  0
 49 65  1  0  0  0  0
 50 64  1  0  0  0  0
 52 61  1  0  0  0  0
 53 62  1  0  0  0  0
 54 62  1  0  0  0  0
 55 62  1  0  0  0  0
 56 73  1  0  0  0  0
 57 58  1  0  0  0  0
 58 59  1  0  0  0  0
 59 80  1  0  0  0  0
 60 62  1  0  0  0  0
 60 72  1  0  0  0  0
 61 73  1  0  0  0  0
 63 64  1  0  0  0  0
M  CHG  1  73   1
M  ISO  4  38 100  59 101  70 100  80 101
M  END
> <Batch ID>
0022

> <Smiles>
CNC(C)C(=O)NC(C(=O)N1Cc2cc([101O:1][101CH2:1]CCc3c(C)c(F)c([100NH:0][100C:0](=O)N4CCCC(n5nc(-c6ccc(Oc7ccc(F)cc7F)cc6)c(C(N)=O)c5N)C4)c(F)c3N)ccc2CC1C(=O)NC1CCCc2ccccc21)C(C)(C)C

> <Shape>
0.295

> <Color>
0.108

> <Negative vol penalty>
0.000

$$$$

  -OEChem-04052316153D

 89 97  0     1  0  0  0  0  0999 V2000
  -19.4672  -26.9482   26.3608 C   0  0  0  0  0  0  0  0  0  0  0  0
  -20.7431  -26.6456   25.8961 C   0  0  0  0  0  0  0  0  0  0  0  0
  -26.1804  -12.6867   21.4989 C   0  0  0  0  0  0  0  0  0  0  0  0
  -25.5630  -13.6006   19.3493 C   0  0  0  0  0  0  0  0  0  0  0  0
  -18.5271  -27.5093   25.4976 C   0  0  0  0  0  0  0  0  0  0  0  0
  -21.0792  -26.9030   24.5675 C   0  0  0  0  0  0  0  0  0  0  0  0
  -26.5358  -28.6794   22.4284 C   0  0  0  0  0  0  0  0  0  0  0  0
  -25.6099  -11.4645   21.1431 C   0  0  0  0  0  0  0  0  0  0  0  0
  -24.9926  -12.3784   18.9935 C   0  0  0  0  0  0  0  0  0  0  0  0
  -27.5852  -27.9775   21.8369 C   0  0  0  0  0  0  0  0  0  0  0  0
  -23.9972   -8.2118   20.9372 C   0  0  0  0  0  0  0  0  0  0  0  0
  -23.1907   -7.5723   21.8786 C   0  0  0  0  0  0  0  0  0  0  0  0
  -26.7414  -28.5666   19.6551 C   0  0  0  0  0  0  0  0  0  0  0  0
  -28.5476  -25.0501   17.3910 C   0  0  0  0  0  0  0  0  0  0  0  0
  -21.7063   -9.4784   21.9018 C   0  0  0  0  0  0  0  0  0  0  0  0
  -26.1569  -13.7547   20.6019 C   0  0  0  0  0  0  0  0  0  0  0  0
  -28.0760  -15.4278   20.7611 C   0  0  0  0  0  0  0  0  0  0  0  0
  -18.8549  -27.7827   24.1603 C   0  0  0  0  0  0  0  0  0  0  0  0
  -25.5736  -29.3221   21.6363 C   0  0  0  0  0  0  0  0  0  0  0  0
  -20.1422  -27.4671   23.6853 C   0  0  0  0  0  0  0  0  0  0  0  0
  -25.6822  -29.2781   20.2390 C   0  0  0  0  0  0  0  0  0  0  0  0
  -28.5844  -24.5691   18.6997 C   0  0  0  0  0  0  0  0  0  0  0  0
  -26.6014  -23.2565   18.2731 C   0  0  0  0  0  0  0  0  0  0  0  0
  -27.5377  -24.6344   16.5233 C   0  0  0  0  0  0  0  0  0  0  0  0
  -25.0160  -11.3104   19.8905 C   0  0  0  0  0  0  0  0  0  0  0  0
  -27.6865  -27.9185   20.4500 C   0  0  0  0  0  0  0  0  0  0  0  0
  -23.6582   -9.4846   20.4781 C   0  0  0  0  0  0  0  0  0  0  0  0
  -22.0453   -8.2056   22.3609 C   0  0  0  0  0  0  0  0  0  0  0  0
  -22.5128  -10.1179   20.9604 C   0  0  0  0  0  0  0  0  0  0  0  0
  -27.6114  -23.6723   19.1408 C   0  0  0  0  0  0  0  0  0  0  0  0
  -26.5646  -23.7376   16.9643 C   0  0  0  0  0  0  0  0  0  0  0  0
  -26.7455  -15.0176   20.9691 C   0  0  0  0  0  0  0  0  0  0  0  0
  -28.1299  -16.6967   21.2842 C   0  0  0  0  0  0  0  0  0  0  0  0
  -29.1658  -14.7248   20.1498 C   0  0  0  0  0  0  0  0  0  0  0  0
  -22.4329  -29.0298   21.2433 C   0  0  0  0  0  0  0  0  0  0  0  0
  -22.8141  -31.6588   19.3817 C   0  0  0  0  0  0  0  0  0  0  0  0
  -24.8857  -33.5721   17.4595 C   0  0  0  0  0  0  0  0  0  0  0  0
  -23.9762  -20.9130   22.1902 C   0  0  0  0  0  0  0  0  0  0  0  0
  -17.7904  -28.3461   23.2525 C   0  0  0  0  0  0  0  0  0  0  0  0
  -24.4628  -30.0976   22.2899 C   0  0  0  0  0  0  0  0  0  0  0  0
  -24.6866  -29.9682   19.3441 C   0  0  0  0  0  0  0  0  0  0  0  0
  -18.3435  -28.9342   21.9570 C   0  0  0  0  0  0  0  0  0  0  0  0
  -26.1147  -19.4542   24.6347 C   0  0  0  0  0  0  0  0  0  0  0  0
  -19.3546  -27.9814   21.3271 C   0  0  0  0  0  0  0  0  0  0  0  0
  -26.6389  -18.1887   23.9537 C   0  0  0  0  0  0  0  0  0  0  0  0
  -24.6615  -19.7363   24.2595 C   0  0  0  0  0  0  0  0  0  0  0  0
  -24.9197  -18.5250   22.1288 C   0  0  0  0  0  0  0  0  0  0  0  0
  -20.5524  -27.7545   22.2572 C   0  0  1  0  0  0  0  0  0  0  0  0
  -23.2498  -30.2831   21.3835 C   0  0  1  0  0  0  0  0  0  0  0  0
  -26.3985  -18.2300   22.4325 C   0  0  2  0  0  0  0  0  0  0  0  0
  -26.8392  -27.4347   11.4959 C   0  0  0  0  0  0  0  0  0  0  0  0
  -24.9017  -35.6392   16.0368 C   0  0  0  0  0  0  0  0  0  0  0  0
  -21.3934  -30.1333   17.1536 C   0  0  0  0  0  0  0  0  0  0  0  0
  -22.2690  -31.8268   15.5308 C   0  0  0  0  0  0  0  0  0  0  0  0
  -20.7293  -32.5354   17.3610 C   0  0  0  0  0  0  0  0  0  0  0  0
  -26.8923  -34.8888   19.1912 C   0  0  0  0  0  0  0  0  0  0  0  0
  -29.6968  -25.0460   19.6017 C   0  0  0  0  0  0  0  0  0  0  0  0
  -25.5567  -22.2913   18.7472 C   0  0  0  0  0  0  0  0  0  0  0  0
  -26.9743  -27.0583   12.9631 C   0  0  0  0  0  0  0  0  0  0  0  0
  -24.4434  -22.9328   19.5929 C   0  0  0  0  0  0  0  0  0  0  0  0
  -28.3243  -26.3962   13.2480 C   0  0  0  0  0  0  0  0  0  0  0  0
  -23.3470  -21.9646   20.0321 C   0  0  0  0  0  0  0  0  0  0  0  0
  -28.5129  -26.0616   14.7239 C   0  0  0  0  0  0  0  0  0  0  0  0
  -29.2286  -26.1131   20.5852 C   0  0  0  0  0  0  0  0  0  1  0  0
  -23.1115  -31.9008   17.9215 C   0  0  1  0  0  0  0  0  0  0  0  0
  -25.1326  -35.0696   17.4278 C   0  0  2  0  0  0  0  0  0  0  0  0
  -21.8936  -31.5843   17.0083 C   0  0  0  0  0  0  0  0  0  0  0  0
  -26.0074  -15.9502   21.5769 N   0  0  0  0  0  0  0  0  0  0  0  0
  -26.8772  -16.9590   21.7556 N   0  0  0  0  0  0  0  0  0  0  0  0
  -23.6149  -30.7083   20.0306 N   0  0  0  0  0  0  0  0  0  0  0  0
  -24.5017  -19.7639   22.8036 N   0  0  0  0  0  0  0  0  0  0  0  0
  -29.1261  -17.6024   21.3824 N   0  0  0  0  0  0  0  0  0  0  0  0
  -28.9376  -13.4295   19.6655 N   0  0  0  0  0  0  0  0  0  0  0  0
  -27.5307  -25.1423   15.2043 N   0  0  0  0  0  0  0  0  0  0  0  0
  -21.4530  -28.8862   22.2069 N   0  0  0  0  0  0  0  0  0  0  0  0
  -23.5896  -33.2758   17.8248 N   0  0  0  0  0  0  0  0  0  0  0  0
  -23.8640  -20.8582   20.8063 N   0  0  0  0  0  0  0  0  0  0  0  0
  -26.5346  -35.3721   17.8328 N   0  3  0  0  0  0  0  0  0  0  0  0
  -30.3124  -15.2240   20.0511 O   0  0  0  0  0  0  0  0  0  0  0  0
  -22.6729  -28.2514   20.3277 O   0  0  0  0  0  0  0  0  0  0  0  0
  -21.9095  -32.2949   19.9281 O   0  0  0  0  0  0  0  0  0  0  0  0
  -25.7547  -32.7477   17.1840 O   0  0  0  0  0  0  0  0  0  0  0  0
  -23.6375  -21.9158   22.8280 O   0  0  0  0  0  0  0  0  0  0  0  0
  -24.4595  -10.1179   19.5429 O   0  0  0  0  0  0  0  0  0  0  0  0
  -28.7094  -27.2335   19.8701 O   0  0  0  0  0  0  0  0  0  1  0  0
  -21.2701   -7.5907   23.2637 F   0  0  0  0  0  0  0  0  0  0  0  0
  -22.1814  -11.3402   20.5222 F   0  0  0  0  0  0  0  0  0  0  0  0
  -27.6647  -23.0771   20.7675 Cl  0  0  0  0  0  0  0  0  0  0  0  0
  -25.3083  -23.2226   15.8843 Cl  0  0  0  0  0  0  0  0  0  0  0  0
  1  2  1  0  0  0  0
  1  5  2  0  0  0  0
  2  6  2  0  0  0  0
  3  8  2  0  0  0  0
  3 16  1  0  0  0  0
  4  9  1  0  0  0  0
  4 16  2  0  0  0  0
  5 18  1  0  0  0  0
  6 20  1  0  0  0  0
  7 10  2  0  0  0  0
  7 19  1  0  0  0  0
  8 25  1  0  0  0  0
  9 25  2  0  0  0  0
 10 26  1  0  0  0  0
 11 12  2  0  0  0  0
 11 27  1  0  0  0  0
 12 28  1  0  0  0  0
 13 21  1  0  0  0  0
 13 26  2  0  0  0  0
 14 22  2  0  0  0  0
 14 24  1  0  0  0  0
 15 28  2  0  0  0  0
 15 29  1  0  0  0  0
 16 32  1  0  0  0  0
 17 32  1  0  0  0  0
 17 33  2  0  0  0  0
 17 34  1  0  0  0  0
 18 20  2  0  0  0  0
 18 39  1  0  0  0  0
 19 21  2  0  0  0  0
 19 40  1  0  0  0  0
 20 48  1  0  0  0  0
 21 41  1  0  0  0  0
 22 30  1  0  0  0  0
 22 57  1  0  0  0  0
 23 30  2  0  0  0  0
 23 31  1  0  0  0  0
 23 58  1  0  0  0  0
 24 31  2  0  0  0  0
 24 74  1  0  0  0  0
 25 84  1  0  0  0  0
 26 85  1  0  0  0  0
 27 29  2  0  0  0  0
 27 84  1  0  0  0  0
 28 86  1  0  0  0  0
 29 87  1  0  0  0  0
 30 88  1  0  0  0  0
 31 89  1  0  0  0  0
 32 68  2  0  0  0  0
 33 69  1  0  0  0  0
 33 72  1  0  0  0  0
 34 73  1  0  0  0  0
 34 79  2  0  0  0  0
 35 49  1  0  0  0  0
 35 75  1  0  0  0  0
 35 80  2  0  0  0  0
 36 65  1  0  0  0  0
 36 70  1  0  0  0  0
 36 81  2  0  0  0  0
 37 66  1  0  0  0  0
 37 76  1  0  0  0  0
 37 82  2  0  0  0  0
 38 71  1  0  0  0  0
 38 77  1  0  0  0  0
 38 83  2  0  0  0  0
 39 42  1  0  0  0  0
 40 49  1  0  0  0  0
 41 70  1  0  0  0  0
 42 44  1  0  0  0  0
 43 45  1  0  0  0  0
 43 46  1  0  0  0  0
 44 48  1  0  0  0  0
 45 50  1  0  0  0  0
 46 71  1  0  0  0  0
 47 50  1  0  0  0  0
 47 71  1  0  0  0  0
 48 75  1  0  0  0  0
 49 70  1  0  0  0  0
 50 69  1  0  0  0  0
 51 59  1  0  0  0  0
 52 66  1  0  0  0  0
 53 67  1  0  0  0  0
 54 67  1  0  0  0  0
 55 67  1  0  0  0  0
 56 78  1  0  0  0  0
 57 64  1  0  0  0  0
 58 60  1  0  0  0  0
 59 61  1  0  0  0  0
 60 62  1  0  0  0  0
 61 63  1  0  0  0  0
 62 77  1  0  0  0  0
 63 74  1  0  0  0  0
 64 85  1  0  0  0  0
 65 67  1  0  0  0  0
 65 76  1  0  0  0  0
 66 78  1  0  0  0  0
 68 69  1  0  0  0  0
M  CHG  1  78   1
M  ISO  4  38 100  64 101  77 100  85 101
M  END
> <Batch ID>
0022

> <Smiles>
CCCCNc1cc(C[101CH2:1][101O:1]c2ccc3c(c2)CN(C(=O)C(NC(=O)C(C)NC)C(C)(C)C)C(C(=O)NC2CCCc4ccccc42)C3)c(Cl)c(CCC[100NH:0][100C:0](=O)N2CCCC(n3nc(-c4ccc(Oc5ccc(F)cc5F)cc4)c(C(N)=O)c3N)C2)c1Cl

> <Shape>
0.215

> <Color>
0.102

> <Negative vol penalty>
0.000

$$$$

  -OEChem-04052316153D

 81 89  0     1  0  0  0  0  0999 V2000
  -29.8529  -29.9742   19.5846 C   0  0  0  0  0  0  0  0  0  0  0  0
  -30.7523  -29.2160   20.3273 C   0  0  0  0  0  0  0  0  0  0  0  0
  -23.0783   -9.8660   19.9401 C   0  0  0  0  0  0  0  0  0  0  0  0
  -23.8385   -9.8729   22.2333 C   0  0  0  0  0  0  0  0  0  0  0  0
  -28.9119  -29.3409   18.7740 C   0  0  0  0  0  0  0  0  0  0  0  0
  -30.7104  -27.8238   20.2606 C   0  0  0  0  0  0  0  0  0  0  0  0
  -34.9937  -22.0892   20.5512 C   0  0  0  0  0  0  0  0  0  0  0  0
  -22.3361   -8.7117   20.1895 C   0  0  0  0  0  0  0  0  0  0  0  0
  -23.0963   -8.7185   22.4828 C   0  0  0  0  0  0  0  0  0  0  0  0
  -35.1206  -20.8724   21.2198 C   0  0  0  0  0  0  0  0  0  0  0  0
  -21.1154   -5.9779   23.8182 C   0  0  0  0  0  0  0  0  0  0  0  0
  -20.3593   -5.9326   24.9895 C   0  0  0  0  0  0  0  0  0  0  0  0
  -33.5034  -19.8889   19.7242 C   0  0  0  0  0  0  0  0  0  0  0  0
  -30.4923  -18.3490   24.0497 C   0  0  0  0  0  0  0  0  0  0  0  0
  -32.0579  -16.6042   22.5373 C   0  0  0  0  0  0  0  0  0  0  0  0
  -19.1119   -7.8685   24.2591 C   0  0  0  0  0  0  0  0  0  0  0  0
  -23.8296  -10.4466   20.9620 C   0  0  0  0  0  0  0  0  0  0  0  0
  -24.1678  -12.9723   20.8432 C   0  0  0  0  0  0  0  0  0  0  0  0
  -28.8647  -27.9404   18.6898 C   0  0  0  0  0  0  0  0  0  0  0  0
  -34.1111  -22.2181   19.4691 C   0  0  0  0  0  0  0  0  0  0  0  0
  -29.7669  -27.1711   19.4490 C   0  0  0  0  0  0  0  0  0  0  0  0
  -33.3691  -21.1077   19.0419 C   0  0  0  0  0  0  0  0  0  0  0  0
  -31.8796  -18.3541   24.1936 C   0  0  0  0  0  0  0  0  0  0  0  0
  -29.8876  -17.4714   23.1496 C   0  0  0  0  0  0  0  0  0  0  0  0
  -32.6625  -17.4817   23.4374 C   0  0  0  0  0  0  0  0  0  0  0  0
  -30.6705  -16.5991   22.3934 C   0  0  0  0  0  0  0  0  0  0  0  0
  -22.3451   -8.1380   21.4609 C   0  0  0  0  0  0  0  0  0  0  0  0
  -34.3733  -19.7728   20.8082 C   0  0  0  0  0  0  0  0  0  0  0  0
  -20.8698   -6.9686   22.8674 C   0  0  0  0  0  0  0  0  0  0  0  0
  -19.3576   -6.8779   25.2099 C   0  0  0  0  0  0  0  0  0  0  0  0
  -19.8680   -7.9138   23.0878 C   0  0  0  0  0  0  0  0  0  0  0  0
  -24.5969  -11.6387   20.7048 C   0  0  0  0  0  0  0  0  0  0  0  0
  -25.2589  -13.7235   20.4802 C   0  0  0  0  0  0  0  0  0  0  0  0
  -22.8967  -13.4861   21.2626 C   0  0  0  0  0  0  0  0  0  0  0  0
  -31.5275  -23.9730   18.8785 C   0  0  0  0  0  0  0  0  0  0  0  0
  -31.7884  -22.6595   15.9240 C   0  0  0  0  0  0  0  0  0  0  0  0
  -32.9327  -20.0955   13.9840 C   0  0  0  0  0  0  0  0  0  0  0  0
  -30.7236  -14.7768   20.6548 C   0  0  0  0  0  0  0  0  0  0  0  0
  -27.7989  -27.3000   17.8363 C   0  0  0  0  0  0  0  0  0  0  0  0
  -34.0056  -23.5303   18.7415 C   0  0  0  0  0  0  0  0  0  0  0  0
  -32.4227  -21.1884   17.8731 C   0  0  0  0  0  0  0  0  0  0  0  0
  -28.0650  -25.8279   17.5323 C   0  0  0  0  0  0  0  0  0  0  0  0
  -29.6123  -12.3626   18.2854 C   0  0  0  0  0  0  0  0  0  0  0  0
  -28.4717  -25.0857   18.8014 C   0  0  0  0  0  0  0  0  0  0  0  0
  -28.1731  -12.0688   18.7150 C   0  0  0  0  0  0  0  0  0  0  0  0
  -30.5272  -12.5921   19.4871 C   0  0  0  0  0  0  0  0  0  0  0  0
  -28.6194  -13.3131   20.8690 C   0  0  0  0  0  0  0  0  0  0  0  0
  -29.7691  -25.6592   19.3840 C   0  0  1  0  0  0  0  0  0  0  0  0
  -32.6947  -23.6859   17.9769 C   0  0  1  0  0  0  0  0  0  0  0  0
  -27.6467  -13.1391   19.6912 C   0  0  2  0  0  0  0  0  0  0  0  0
  -32.5046  -19.3021   25.1637 C   0  0  0  0  0  0  0  0  0  0  0  0
  -28.3994  -17.4877   23.0159 C   0  0  0  0  0  0  0  0  0  0  0  0
  -32.9588  -19.2810   11.6105 C   0  0  0  0  0  0  0  0  0  0  0  0
  -28.8827  -21.7701   16.1997 C   0  0  0  0  0  0  0  0  0  0  0  0
  -29.2571  -20.1933   14.2913 C   0  0  0  0  0  0  0  0  0  0  0  0
  -29.4940  -22.6517   13.9406 C   0  0  0  0  0  0  0  0  0  0  0  0
  -35.8875  -20.2047   13.8569 C   0  0  0  0  0  0  0  0  0  0  0  0
  -34.1654  -17.4690   23.5762 C   0  0  0  0  0  0  0  0  0  0  0  0
  -34.8249  -18.6344   22.8469 C   0  0  0  0  0  0  0  0  0  1  0  0
  -31.2599  -21.4119   15.2582 C   0  0  1  0  0  0  0  0  0  0  0  0
  -33.6928  -20.0882   12.6700 C   0  0  2  0  0  0  0  0  0  0  0  0
  -29.7397  -21.5054   14.9457 C   0  0  0  0  0  0  0  0  0  0  0  0
  -25.8619  -11.5449   20.2863 N   0  0  0  0  0  0  0  0  0  0  0  0
  -26.2370  -12.8291   20.1586 N   0  0  0  0  0  0  0  0  0  0  0  0
  -32.3499  -22.4948   17.1981 N   0  0  0  0  0  0  0  0  0  0  0  0
  -29.9669  -13.6216   20.3651 N   0  0  0  0  0  0  0  0  0  0  0  0
  -25.4674  -15.0553   20.4079 N   0  0  0  0  0  0  0  0  0  0  0  0
  -21.8861  -12.5753   21.5995 N   0  0  0  0  0  0  0  0  0  0  0  0
  -30.0750  -15.7004   21.4738 N   0  0  0  0  0  0  0  0  0  0  0  0
  -30.9125  -25.1860   18.6337 N   0  0  0  0  0  0  0  0  0  0  0  0
  -32.0984  -21.1887   14.0854 N   0  0  0  0  0  0  0  0  0  0  0  0
  -35.0470  -19.4952   12.8583 N   0  3  0  0  0  0  0  0  0  0  0  0
  -22.6587  -14.7163   21.3206 O   0  0  0  0  0  0  0  0  0  0  0  0
  -31.2075  -23.1539   19.7319 O   0  0  0  0  0  0  0  0  0  0  0  0
  -31.7124  -23.7391   15.3323 O   0  0  0  0  0  0  0  0  0  0  0  0
  -33.0629  -19.2172   14.8338 O   0  0  0  0  0  0  0  0  0  0  0  0
  -31.8524  -14.9473   20.1872 O   0  0  0  0  0  0  0  0  0  0  0  0
  -21.6207   -7.0117   21.7047 O   0  0  0  0  0  0  0  0  0  0  0  0
  -34.4947  -18.5841   21.4595 O   0  0  0  0  0  0  0  0  0  1  0  0
  -18.6306   -6.8334   26.3340 F   0  0  0  0  0  0  0  0  0  0  0  0
  -19.6267   -8.8672   22.1775 F   0  0  0  0  0  0  0  0  0  0  0  0
  1  2  1  0  0  0  0
  1  5  2  0  0  0  0
  2  6  2  0  0  0  0
  3  8  2  0  0  0  0
  3 17  1  0  0  0  0
  4  9  1  0  0  0  0
  4 17  2  0  0  0  0
  5 19  1  0  0  0  0
  6 21  1  0  0  0  0
  7 10  2  0  0  0  0
  7 20  1  0  0  0  0
  8 27  1  0  0  0  0
  9 27  2  0  0  0  0
 10 28  1  0  0  0  0
 11 12  2  0  0  0  0
 11 29  1  0  0  0  0
 12 30  1  0  0  0  0
 13 22  1  0  0  0  0
 13 28  2  0  0  0  0
 14 23  1  0  0  0  0
 14 24  2  0  0  0  0
 15 25  1  0  0  0  0
 15 26  2  0  0  0  0
 16 30  2  0  0  0  0
 16 31  1  0  0  0  0
 17 32  1  0  0  0  0
 18 32  1  0  0  0  0
 18 33  2  0  0  0  0
 18 34  1  0  0  0  0
 19 21  2  0  0  0  0
 19 39  1  0  0  0  0
 20 22  2  0  0  0  0
 20 40  1  0  0  0  0
 21 48  1  0  0  0  0
 22 41  1  0  0  0  0
 23 25  2  0  0  0  0
 23 51  1  0  0  0  0
 24 26  1  0  0  0  0
 24 52  1  0  0  0  0
 25 58  1  0  0  0  0
 26 69  1  0  0  0  0
 27 78  1  0  0  0  0
 28 79  1  0  0  0  0
 29 31  2  0  0  0  0
 29 78  1  0  0  0  0
 30 80  1  0  0  0  0
 31 81  1  0  0  0  0
 32 63  2  0  0  0  0
 33 64  1  0  0  0  0
 33 67  1  0  0  0  0
 34 68  1  0  0  0  0
 34 73  2  0  0  0  0
 35 49  1  0  0  0  0
 35 70  1  0  0  0  0
 35 74  2  0  0  0  0
 36 60  1  0  0  0  0
 36 65  1  0  0  0  0
 36 75  2  0  0  0  0
 37 61  1  0  0  0  0
 37 71  1  0  0  0  0
 37 76  2  0  0  0  0
 38 66  1  0  0  0  0
 38 69  1  0  0  0  0
 38 77  2  0  0  0  0
 39 42  1  0  0  0  0
 40 49  1  0  0  0  0
 41 65  1  0  0  0  0
 42 44  1  0  0  0  0
 43 45  1  0  0  0  0
 43 46  1  0  0  0  0
 44 48  1  0  0  0  0
 45 50  1  0  0  0  0
 46 66  1  0  0  0  0
 47 50  1  0  0  0  0
 47 66  1  0  0  0  0
 48 70  1  0  0  0  0
 49 65  1  0  0  0  0
 50 64  1  0  0  0  0
 53 61  1  0  0  0  0
 54 62  1  0  0  0  0
 55 62  1  0  0  0  0
 56 62  1  0  0  0  0
 57 72  1  0  0  0  0
 58 59  1  0  0  0  0
 59 79  1  0  0  0  0
 60 62  1  0  0  0  0
 60 71  1  0  0  0  0
 61 72  1  0  0  0  0
 63 64  1  0  0  0  0
M  CHG  1  72   1
M  ISO  4  38 100  59 101  69 100  79 101
M  END
> <Batch ID>
0022

> <Smiles>
CNC(C)C(=O)NC(C(=O)N1Cc2cc([101O:1][101CH2:1]Cc3cc([100NH:0][100C:0](=O)N4CCCC(n5nc(-c6ccc(Oc7ccc(F)cc7F)cc6)c(C(N)=O)c5N)C4)c(C)cc3C)ccc2CC1C(=O)NC1CCCc2ccccc21)C(C)(C)C

> <Shape>
0.214

> <Color>
0.200

> <Negative vol penalty>
0.000

$$$$

  -OEChem-04052316153D

 89 97  0     1  0  0  0  0  0999 V2000
  -16.6869  -28.8197   24.0983 C   0  0  0  0  0  0  0  0  0  0  0  0
  -17.0542  -28.1588   22.9305 C   0  0  0  0  0  0  0  0  0  0  0  0
  -22.0486  -11.0472   22.5385 C   0  0  0  0  0  0  0  0  0  0  0  0
  -23.4521  -10.8394   20.5830 C   0  0  0  0  0  0  0  0  0  0  0  0
  -17.5109  -29.8142   24.6237 C   0  0  0  0  0  0  0  0  0  0  0  0
  -18.2452  -28.4928   22.2869 C   0  0  0  0  0  0  0  0  0  0  0  0
  -21.9787  -24.7026   19.2534 C   0  0  0  0  0  0  0  0  0  0  0  0
  -21.6266   -9.7277   22.3758 C   0  0  0  0  0  0  0  0  0  0  0  0
  -23.0303   -9.5199   20.4204 C   0  0  0  0  0  0  0  0  0  0  0  0
  -22.1286  -24.4209   17.8963 C   0  0  0  0  0  0  0  0  0  0  0  0
  -22.8277   -6.6319   23.0133 C   0  0  0  0  0  0  0  0  0  0  0  0
  -22.7863   -5.8202   24.1468 C   0  0  0  0  0  0  0  0  0  0  0  0
  -23.9387  -26.0105   17.7723 C   0  0  0  0  0  0  0  0  0  0  0  0
  -26.1384  -20.7571   17.8976 C   0  0  0  0  0  0  0  0  0  0  0  0
  -20.4157   -5.4862   23.8210 C   0  0  0  0  0  0  0  0  0  0  0  0
  -22.9613  -11.6031   21.6420 C   0  0  0  0  0  0  0  0  0  0  0  0
  -24.5021  -13.4202   22.5539 C   0  0  0  0  0  0  0  0  0  0  0  0
  -18.7173  -30.1538   23.9915 C   0  0  0  0  0  0  0  0  0  0  0  0
  -22.8019  -25.6501   19.8788 C   0  0  0  0  0  0  0  0  0  0  0  0
  -19.0854  -29.4936   22.8036 C   0  0  0  0  0  0  0  0  0  0  0  0
  -23.7990  -26.3007   19.1381 C   0  0  0  0  0  0  0  0  0  0  0  0
  -27.1916  -21.4367   17.2857 C   0  0  0  0  0  0  0  0  0  0  0  0
  -28.5079  -21.1623   17.6568 C   0  0  0  0  0  0  0  0  0  0  0  0
  -28.7710  -20.2082   18.6399 C   0  0  0  0  0  0  0  0  0  0  0  0
  -26.4014  -19.8031   18.8807 C   0  0  0  0  0  0  0  0  0  0  0  0
  -22.1175   -8.9640   21.3168 C   0  0  0  0  0  0  0  0  0  0  0  0
  -23.1068  -25.0769   17.1548 C   0  0  0  0  0  0  0  0  0  0  0  0
  -21.6632   -6.8708   22.2836 C   0  0  0  0  0  0  0  0  0  0  0  0
  -21.5803   -5.2473   24.5507 C   0  0  0  0  0  0  0  0  0  0  0  0
  -20.4572   -6.2980   22.6874 C   0  0  0  0  0  0  0  0  0  0  0  0
  -27.7177  -19.5287   19.2518 C   0  0  0  0  0  0  0  0  0  0  0  0
  -23.3971  -12.9663   21.8092 C   0  0  0  0  0  0  0  0  0  0  0  0
  -24.4855  -14.7845   22.3960 C   0  0  0  0  0  0  0  0  0  0  0  0
  -25.4582  -12.6753   23.3198 C   0  0  0  0  0  0  0  0  0  0  0  0
  -22.3113  -28.4221   21.3550 C   0  0  0  0  0  0  0  0  0  0  0  0
  -25.4806  -28.1909   22.0065 C   0  0  0  0  0  0  0  0  0  0  0  0
  -28.5261  -26.9043   21.1599 C   0  0  0  0  0  0  0  0  0  0  0  0
  -23.9512  -19.3117   19.1988 C   0  0  0  0  0  0  0  0  0  0  0  0
  -19.5520  -31.2682   24.5711 C   0  0  0  0  0  0  0  0  0  0  0  0
  -22.6452  -25.9232   21.3496 C   0  0  0  0  0  0  0  0  0  0  0  0
  -24.7218  -27.3114   19.7668 C   0  0  0  0  0  0  0  0  0  0  0  0
  -20.9804  -31.3023   24.0336 C   0  0  0  0  0  0  0  0  0  0  0  0
  -20.9550  -17.8295   20.4249 C   0  0  0  0  0  0  0  0  0  0  0  0
  -20.9830  -31.1555   22.5152 C   0  0  0  0  0  0  0  0  0  0  0  0
  -21.4141  -16.4695   20.9556 C   0  0  0  0  0  0  0  0  0  0  0  0
  -21.7139  -18.2308   19.1612 C   0  0  0  0  0  0  0  0  0  0  0  0
  -23.6364  -16.8328   19.8082 C   0  0  0  0  0  0  0  0  0  0  0  0
  -20.3818  -29.8104   22.0900 C   0  0  1  0  0  0  0  0  0  0  0  0
  -23.1989  -27.2820   21.7674 C   0  0  1  0  0  0  0  0  0  0  0  0
  -22.9460  -16.4155   21.1169 C   0  0  2  0  0  0  0  0  0  0  0  0
  -30.1911  -19.9296   19.0253 C   0  0  0  0  0  0  0  0  0  0  0  0
  -30.9363  -26.9246   21.8585 C   0  0  0  0  0  0  0  0  0  0  0  0
  -26.0884  -22.9038   13.2015 C   0  0  0  0  0  0  0  0  0  0  0  0
  -29.1935  -23.3248   16.5617 C   0  0  0  0  0  0  0  0  0  0  0  0
  -30.1289  -21.1415   15.7284 C   0  0  0  0  0  0  0  0  0  0  0  0
  -30.9042  -22.1006   17.8872 C   0  0  0  0  0  0  0  0  0  0  0  0
  -25.8037  -30.9758   20.8024 C   0  0  0  0  0  0  0  0  0  0  0  0
  -28.2664  -30.5500   20.6543 C   0  0  0  0  0  0  0  0  0  0  0  0
  -27.1385  -30.5758   22.8791 C   0  0  0  0  0  0  0  0  0  0  0  0
  -28.5288  -23.9857   21.6505 C   0  0  0  0  0  0  0  0  0  0  0  0
  -26.8814  -22.4585   16.2319 C   0  0  0  0  0  0  0  0  0  0  0  0
  -23.7733  -23.1371   14.1845 C   0  0  0  0  0  0  0  0  0  0  0  0
  -22.9163  -23.4876   15.3959 C   0  0  0  0  0  0  0  0  0  1  0  0
  -26.7490  -28.6284   21.3146 C   0  0  1  0  0  0  0  0  0  0  0  0
  -29.5959  -26.2184   21.9903 C   0  0  2  0  0  0  0  0  0  0  0  0
  -25.2776  -23.1840   14.4598 C   0  0  1  0  0  0  0  0  0  0  0  0
  -29.6345  -21.8956   16.9995 C   0  0  0  0  0  0  0  0  0  0  0  0
  -26.9709  -30.1649   21.4000 C   0  0  0  0  0  0  0  0  0  0  0  0
  -22.7271  -13.9614   21.2220 N   0  0  0  0  0  0  0  0  0  0  0  0
  -23.4131  -15.0543   21.5977 N   0  0  0  0  0  0  0  0  0  0  0  0
  -24.5249  -27.5487   21.2064 N   0  0  0  0  0  0  0  0  0  0  0  0
  -23.1587  -18.1601   19.3903 N   0  0  0  0  0  0  0  0  0  0  0  0
  -25.2837  -15.7677   22.8636 N   0  0  0  0  0  0  0  0  0  0  0  0
  -25.3287  -11.2809   23.3759 N   0  0  0  0  0  0  0  0  0  0  0  0
  -25.3055  -19.1326   19.4784 N   0  0  0  0  0  0  0  0  0  0  0  0
  -21.3407  -28.7441   22.2844 N   0  0  0  0  0  0  0  0  0  0  0  0
  -27.8262  -27.8357   21.8974 N   0  0  0  0  0  0  0  0  0  0  0  0
  -29.7646  -24.8042   21.5515 N   0  3  0  0  0  0  0  0  0  0  0  0
  -25.6379  -22.1568   15.4764 N   0  3  0  0  0  0  0  0  0  0  0  0
  -26.3898  -13.2312   23.9496 O   0  0  0  0  0  0  0  0  0  0  0  0
  -22.4944  -28.9700   20.2743 O   0  0  0  0  0  0  0  0  0  0  0  0
  -25.3458  -28.4044   23.2139 O   0  0  0  0  0  0  0  0  0  0  0  0
  -28.3333  -26.6429   19.9746 O   0  0  0  0  0  0  0  0  0  0  0  0
  -23.4600  -20.3854   18.8412 O   0  0  0  0  0  0  0  0  0  0  0  0
  -21.7062   -7.6763   21.1579 O   0  0  0  0  0  0  0  0  0  0  0  0
  -23.2547  -24.8042   15.8298 O   0  0  0  0  0  0  0  0  0  1  0  0
  -21.5409   -4.4666   25.6384 F   0  0  0  0  0  0  0  0  0  0  0  0
  -19.3354   -6.5230   21.9897 F   0  0  0  0  0  0  0  0  0  0  0  0
  -28.0466  -18.3418   20.4730 Cl  0  0  0  0  0  0  0  0  0  0  0  0
  1  2  1  0  0  0  0
  1  5  2  0  0  0  0
  2  6  2  0  0  0  0
  3  8  2  0  0  0  0
  3 16  1  0  0  0  0
  4  9  1  0  0  0  0
  4 16  2  0  0  0  0
  5 18  1  0  0  0  0
  6 20  1  0  0  0  0
  7 10  2  0  0  0  0
  7 19  1  0  0  0  0
  8 26  1  0  0  0  0
  9 26  2  0  0  0  0
 10 27  1  0  0  0  0
 11 12  2  0  0  0  0
 11 28  1  0  0  0  0
 12 29  1  0  0  0  0
 13 21  1  0  0  0  0
 13 27  2  0  0  0  0
 14 22  1  0  0  0  0
 14 25  2  0  0  0  0
 15 29  2  0  0  0  0
 15 30  1  0  0  0  0
 16 32  1  0  0  0  0
 17 32  1  0  0  0  0
 17 33  2  0  0  0  0
 17 34  1  0  0  0  0
 18 20  2  0  0  0  0
 18 39  1  0  0  0  0
 19 21  2  0  0  0  0
 19 40  1  0  0  0  0
 20 48  1  0  0  0  0
 21 41  1  0  0  0  0
 22 23  2  0  0  0  0
 22 61  1  0  0  0  0
 23 24  1  0  0  0  0
 23 67  1  0  0  0  0
 24 31  2  0  0  0  0
 24 51  1  0  0  0  0
 25 31  1  0  0  0  0
 25 75  1  0  0  0  0
 26 85  1  0  0  0  0
 27 86  1  0  0  0  0
 28 30  2  0  0  0  0
 28 85  1  0  0  0  0
 29 87  1  0  0  0  0
 30 88  1  0  0  0  0
 31 89  1  0  0  0  0
 32 69  2  0  0  0  0
 33 70  1  0  0  0  0
 33 73  1  0  0  0  0
 34 74  1  0  0  0  0
 34 80  2  0  0  0  0
 35 49  1  0  0  0  0
 35 76  1  0  0  0  0
 35 81  2  0  0  0  0
 36 64  1  0  0  0  0
 36 71  1  0  0  0  0
 36 82  2  0  0  0  0
 37 65  1  0  0  0  0
 37 77  1  0  0  0  0
 37 83  2  0  0  0  0
 38 72  1  0  0  0  0
 38 75  1  0  0  0  0
 38 84  2  0  0  0  0
 39 42  1  0  0  0  0
 40 49  1  0  0  0  0
 41 71  1  0  0  0  0
 42 44  1  0  0  0  0
 43 45  1  0  0  0  0
 43 46  1  0  0  0  0
 44 48  1  0  0  0  0
 45 50  1  0  0  0  0
 46 72  1  0  0  0  0
 47 50  1  0  0  0  0
 47 72  1  0  0  0  0
 48 76  1  0  0  0  0
 49 71  1  0  0  0  0
 50 70  1  0  0  0  0
 52 65  1  0  0  0  0
 53 66  1  0  0  0  0
 54 67  1  0  0  0  0
 55 67  1  0  0  0  0
 56 67  1  0  0  0  0
 57 68  1  0  0  0  0
 58 68  1  0  0  0  0
 59 68  1  0  0  0  0
 60 78  1  0  0  0  0
 61 79  1  0  0  0  0
 62 63  1  0  0  0  0
 62 66  1  0  0  0  0
 63 86  1  0  0  0  0
 64 68  1  0  0  0  0
 64 77  1  0  0  0  0
 65 78  1  0  0  0  0
 66 79  1  0  0  0  0
 69 70  1  0  0  0  0
M  CHG  2  78   1  79   1
M  ISO  4  38 100  63 101  75 100  86 101
M  END
> <Batch ID>
0022

> <Smiles>
CNC(C)C(=O)NC(C(=O)N1Cc2cc([101O:1][101CH2:1]CC(C)NCc3cc([100NH:0][100C:0](=O)N4CCCC(n5nc(-c6ccc(Oc7ccc(F)cc7F)cc6)c(C(N)=O)c5N)C4)c(Cl)c(C)c3C(C)(C)C)ccc2CC1C(=O)NC1CCCc2ccccc21)C(C)(C)C

> <Shape>
0.224

> <Color>
0.081

> <Negative vol penalty>
0.000

$$$$

  -OEChem-04052316153D

 81 89  0     1  0  0  0  0  0999 V2000
  -23.9934  -37.9667   20.4812 C   0  0  0  0  0  0  0  0  0  0  0  0
  -24.9243  -37.0015   20.1104 C   0  0  0  0  0  0  0  0  0  0  0  0
  -26.3768  -12.6876   21.3238 C   0  0  0  0  0  0  0  0  0  0  0  0
  -25.8939  -13.4439   19.0806 C   0  0  0  0  0  0  0  0  0  0  0  0
  -23.2074  -37.7755   21.6167 C   0  0  0  0  0  0  0  0  0  0  0  0
  -25.0703  -35.8450   20.8756 C   0  0  0  0  0  0  0  0  0  0  0  0
  -26.4015  -30.2255   18.8373 C   0  0  0  0  0  0  0  0  0  0  0  0
  -25.8065  -11.4493   21.0291 C   0  0  0  0  0  0  0  0  0  0  0  0
  -25.3236  -12.2055   18.7859 C   0  0  0  0  0  0  0  0  0  0  0  0
  -27.5954  -29.5080   18.7769 C   0  0  0  0  0  0  0  0  0  0  0  0
  -24.1534   -8.2107   20.9772 C   0  0  0  0  0  0  0  0  0  0  0  0
  -23.2859   -7.6545   21.9172 C   0  0  0  0  0  0  0  0  0  0  0  0
  -27.0422  -28.4241   20.8598 C   0  0  0  0  0  0  0  0  0  0  0  0
  -29.5464  -24.8288   20.3133 C   0  0  0  0  0  0  0  0  0  0  0  0
  -28.9796  -24.3374   18.0168 C   0  0  0  0  0  0  0  0  0  0  0  0
  -21.8344   -9.5752   21.7143 C   0  0  0  0  0  0  0  0  0  0  0  0
  -26.4205  -13.6849   20.3495 C   0  0  0  0  0  0  0  0  0  0  0  0
  -28.3557  -15.3411   20.4903 C   0  0  0  0  0  0  0  0  0  0  0  0
  -23.3371  -36.6116   22.3908 C   0  0  0  0  0  0  0  0  0  0  0  0
  -25.5227  -30.0554   19.9167 C   0  0  0  0  0  0  0  0  0  0  0  0
  -24.2862  -35.6387   22.0234 C   0  0  0  0  0  0  0  0  0  0  0  0
  -25.8367  -29.1387   20.9302 C   0  0  0  0  0  0  0  0  0  0  0  0
  -29.6333  -25.1357   18.9555 C   0  0  0  0  0  0  0  0  0  0  0  0
  -28.8060  -23.7235   20.7326 C   0  0  0  0  0  0  0  0  0  0  0  0
  -28.2391  -23.2322   18.4360 C   0  0  0  0  0  0  0  0  0  0  0  0
  -28.1523  -22.9252   19.7939 C   0  0  0  0  0  0  0  0  0  0  0  0
  -25.2799  -11.2082   19.7602 C   0  0  0  0  0  0  0  0  0  0  0  0
  -27.9173  -28.6092   19.7897 C   0  0  0  0  0  0  0  0  0  0  0  0
  -23.8615   -9.4493   20.4058 C   0  0  0  0  0  0  0  0  0  0  0  0
  -22.1264   -8.3367   22.2857 C   0  0  0  0  0  0  0  0  0  0  0  0
  -22.7020  -10.1315   20.7743 C   0  0  0  0  0  0  0  0  0  0  0  0
  -27.0091  -14.9645   20.6535 C   0  0  0  0  0  0  0  0  0  0  0  0
  -28.4018  -16.6452   20.9191 C   0  0  0  0  0  0  0  0  0  0  0  0
  -29.4656  -14.5803   19.9954 C   0  0  0  0  0  0  0  0  0  0  0  0
  -24.3824  -31.9492   22.2008 C   0  0  0  0  0  0  0  0  0  0  0  0
  -22.5700  -29.3536   22.9078 C   0  0  0  0  0  0  0  0  0  0  0  0
  -22.1753  -25.9671   22.7560 C   0  0  0  0  0  0  0  0  0  0  0  0
  -26.2991  -21.7985   21.0755 C   0  0  0  0  0  0  0  0  0  0  0  0
  -22.4985  -36.4711   23.6365 C   0  0  0  0  0  0  0  0  0  0  0  0
  -24.2263  -30.8172   19.9536 C   0  0  0  0  0  0  0  0  0  0  0  0
  -24.9177  -28.9046   22.1003 C   0  0  0  0  0  0  0  0  0  0  0  0
  -22.4520  -35.0461   24.1819 C   0  0  0  0  0  0  0  0  0  0  0  0
  -24.9593  -19.4300   23.3717 C   0  0  0  0  0  0  0  0  0  0  0  0
  -23.8527  -34.4434   24.2209 C   0  0  0  0  0  0  0  0  0  0  0  0
  -25.4839  -18.0881   22.8558 C   0  0  0  0  0  0  0  0  0  0  0  0
  -24.6138  -20.3816   22.2277 C   0  0  0  0  0  0  0  0  0  0  0  0
  -26.2133  -19.2507   20.7337 C   0  0  0  0  0  0  0  0  0  0  0  0
  -24.4566  -34.3595   22.8138 C   0  0  1  0  0  0  0  0  0  0  0  0
  -23.6477  -30.9443   21.3594 C   0  0  1  0  0  0  0  0  0  0  0  0
  -26.6359  -18.2823   21.8505 C   0  0  2  0  0  0  0  0  0  0  0  0
  -28.7320  -23.4199   22.1942 C   0  0  0  0  0  0  0  0  0  0  0  0
  -27.5495  -22.3960   17.4067 C   0  0  0  0  0  0  0  0  0  0  0  0
  -20.6119  -24.1328   23.4547 C   0  0  0  0  0  0  0  0  0  0  0  0
  -23.5980  -29.5717   25.7724 C   0  0  0  0  0  0  0  0  0  0  0  0
  -22.7913  -27.2345   26.1660 C   0  0  0  0  0  0  0  0  0  0  0  0
  -21.1642  -29.0309   25.5758 C   0  0  0  0  0  0  0  0  0  0  0  0
  -21.6811  -25.1619   19.9513 C   0  0  0  0  0  0  0  0  0  0  0  0
  -30.4348  -26.3316   18.5018 C   0  0  0  0  0  0  0  0  0  0  0  0
  -29.5943  -27.6022   18.4372 C   0  0  0  0  0  0  0  0  0  1  0  0
  -22.7326  -28.1472   23.8006 C   0  0  1  0  0  0  0  0  0  0  0  0
  -20.9909  -25.1082   22.3512 C   0  0  2  0  0  0  0  0  0  0  0  0
  -22.5900  -28.5017   25.3078 C   0  0  0  0  0  0  0  0  0  0  0  0
  -26.2544  -15.9496   21.1475 N   0  0  0  0  0  0  0  0  0  0  0  0
  -27.1297  -16.9581   21.2985 N   0  0  0  0  0  0  0  0  0  0  0  0
  -23.6649  -29.6779   22.0944 N   0  0  0  0  0  0  0  0  0  0  0  0
  -25.7534  -20.5202   21.3182 N   0  0  0  0  0  0  0  0  0  0  0  0
  -29.4061  -17.5432   21.0049 N   0  0  0  0  0  0  0  0  0  0  0  0
  -29.2427  -13.2551   19.5974 N   0  0  0  0  0  0  0  0  0  0  0  0
  -27.3999  -21.8025   20.2196 N   0  0  0  0  0  0  0  0  0  0  0  0
  -23.8972  -33.2383   22.0898 N   0  0  0  0  0  0  0  0  0  0  0  0
  -21.7727  -27.1561   23.3265 N   0  0  0  0  0  0  0  0  0  0  0  0
  -21.3131  -24.3270   21.1237 N   0  3  0  0  0  0  0  0  0  0  0  0
  -30.6240  -15.0562   19.9240 O   0  0  0  0  0  0  0  0  0  0  0  0
  -25.3193  -31.5820   22.9002 O   0  0  0  0  0  0  0  0  0  0  0  0
  -21.5079  -29.9807   22.9261 O   0  0  0  0  0  0  0  0  0  0  0  0
  -23.3411  -25.6166   22.5867 O   0  0  0  0  0  0  0  0  0  0  0  0
  -25.8416  -22.8116   21.6106 O   0  0  0  0  0  0  0  0  0  0  0  0
  -24.7235   -9.9999   19.4722 O   0  0  0  0  0  0  0  0  0  0  0  0
  -29.0822  -27.9081   19.7335 O   0  0  0  0  0  0  0  0  0  1  0  0
  -21.2926   -7.8016   23.1871 F   0  0  0  0  0  0  0  0  0  0  0  0
  -22.4157  -11.3212   20.2280 F   0  0  0  0  0  0  0  0  0  0  0  0
  1  2  1  0  0  0  0
  1  5  2  0  0  0  0
  2  6  2  0  0  0  0
  3  8  2  0  0  0  0
  3 17  1  0  0  0  0
  4  9  1  0  0  0  0
  4 17  2  0  0  0  0
  5 19  1  0  0  0  0
  6 21  1  0  0  0  0
  7 10  2  0  0  0  0
  7 20  1  0  0  0  0
  8 27  1  0  0  0  0
  9 27  2  0  0  0  0
 10 28  1  0  0  0  0
 11 12  2  0  0  0  0
 11 29  1  0  0  0  0
 12 30  1  0  0  0  0
 13 22  1  0  0  0  0
 13 28  2  0  0  0  0
 14 23  1  0  0  0  0
 14 24  2  0  0  0  0
 15 23  2  0  0  0  0
 15 25  1  0  0  0  0
 16 30  2  0  0  0  0
 16 31  1  0  0  0  0
 17 32  1  0  0  0  0
 18 32  1  0  0  0  0
 18 33  2  0  0  0  0
 18 34  1  0  0  0  0
 19 21  2  0  0  0  0
 19 39  1  0  0  0  0
 20 22  2  0  0  0  0
 20 40  1  0  0  0  0
 21 48  1  0  0  0  0
 22 41  1  0  0  0  0
 23 58  1  0  0  0  0
 24 26  1  0  0  0  0
 24 51  1  0  0  0  0
 25 26  2  0  0  0  0
 25 52  1  0  0  0  0
 26 69  1  0  0  0  0
 27 78  1  0  0  0  0
 28 79  1  0  0  0  0
 29 31  2  0  0  0  0
 29 78  1  0  0  0  0
 30 80  1  0  0  0  0
 31 81  1  0  0  0  0
 32 63  2  0  0  0  0
 33 64  1  0  0  0  0
 33 67  1  0  0  0  0
 34 68  1  0  0  0  0
 34 73  2  0  0  0  0
 35 49  1  0  0  0  0
 35 70  1  0  0  0  0
 35 74  2  0  0  0  0
 36 60  1  0  0  0  0
 36 65  1  0  0  0  0
 36 75  2  0  0  0  0
 37 61  1  0  0  0  0
 37 71  1  0  0  0  0
 37 76  2  0  0  0  0
 38 66  1  0  0  0  0
 38 69  1  0  0  0  0
 38 77  2  0  0  0  0
 39 42  1  0  0  0  0
 40 49  1  0  0  0  0
 41 65  1  0  0  0  0
 42 44  1  0  0  0  0
 43 45  1  0  0  0  0
 43 46  1  0  0  0  0
 44 48  1  0  0  0  0
 45 50  1  0  0  0  0
 46 66  1  0  0  0  0
 47 50  1  0  0  0  0
 47 66  1  0  0  0  0
 48 70  1  0  0  0  0
 49 65  1  0  0  0  0
 50 64  1  0  0  0  0
 53 61  1  0  0  0  0
 54 62  1  0  0  0  0
 55 62  1  0  0  0  0
 56 62  1  0  0  0  0
 57 72  1  0  0  0  0
 58 59  1  0  0  0  0
 59 79  1  0  0  0  0
 60 62  1  0  0  0  0
 60 71  1  0  0  0  0
 61 72  1  0  0  0  0
 63 64  1  0  0  0  0
M  CHG  1  72   1
M  ISO  4  38 100  59 101  69 100  79 101
M  END
> <Batch ID>
0022

> <Smiles>
CNC(C)C(=O)NC(C(=O)N1Cc2cc([101O:1][101CH2:1]Cc3cc(C)c([100NH:0][100C:0](=O)N4CCCC(n5nc(-c6ccc(Oc7ccc(F)cc7F)cc6)c(C(N)=O)c5N)C4)c(C)c3)ccc2CC1C(=O)NC1CCCc2ccccc21)C(C)(C)C

> <Shape>
0.256

> <Color>
0.062

> <Negative vol penalty>
0.000

$$$$

  -OEChem-04052316153D

 86 94  0     1  0  0  0  0  0999 V2000
  -18.4889  -28.9715   22.4935 C   0  0  0  0  0  0  0  0  0  0  0  0
  -18.1473  -27.6264   22.5905 C   0  0  0  0  0  0  0  0  0  0  0  0
  -29.1953  -22.4688   21.2429 C   0  0  0  0  0  0  0  0  0  0  0  0
  -28.8918  -22.1611   18.8659 C   0  0  0  0  0  0  0  0  0  0  0  0
  -19.8308  -29.3476   22.4514 C   0  0  0  0  0  0  0  0  0  0  0  0
  -19.1476  -26.6564   22.6443 C   0  0  0  0  0  0  0  0  0  0  0  0
  -19.0149  -21.4016   25.7868 C   0  0  0  0  0  0  0  0  0  0  0  0
  -29.7577  -23.7235   21.0087 C   0  0  0  0  0  0  0  0  0  0  0  0
  -29.4542  -23.4159   18.6317 C   0  0  0  0  0  0  0  0  0  0  0  0
  -18.7221  -20.0912   25.4113 C   0  0  0  0  0  0  0  0  0  0  0  0
  -30.9428  -27.1598   21.0593 C   0  0  0  0  0  0  0  0  0  0  0  0
  -30.5236  -28.2189   21.8644 C   0  0  0  0  0  0  0  0  0  0  0  0
  -21.0773  -19.6521   25.1295 C   0  0  0  0  0  0  0  0  0  0  0  0
  -25.9243  -10.9215   20.2748 C   0  0  0  0  0  0  0  0  0  0  0  0
  -24.1271  -11.0702   21.8825 C   0  0  0  0  0  0  0  0  0  0  0  0
  -28.2546  -27.9049   21.0959 C   0  0  0  0  0  0  0  0  0  0  0  0
  -28.7624  -21.6875   20.1715 C   0  0  0  0  0  0  0  0  0  0  0  0
  -26.8221  -20.0945   20.6245 C   0  0  0  0  0  0  0  0  0  0  0  0
  -20.8481  -28.3824   22.5144 C   0  0  0  0  0  0  0  0  0  0  0  0
  -20.3427  -21.8510   25.8260 C   0  0  0  0  0  0  0  0  0  0  0  0
  -20.5044  -27.0198   22.6016 C   0  0  0  0  0  0  0  0  0  0  0  0
  -21.3845  -20.9679   25.5083 C   0  0  0  0  0  0  0  0  0  0  0  0
  -25.2419  -10.4028   21.3752 C   0  0  0  0  0  0  0  0  0  0  0  0
  -25.4919  -12.1077   19.6817 C   0  0  0  0  0  0  0  0  0  0  0  0
  -23.6946  -12.2564   21.2894 C   0  0  0  0  0  0  0  0  0  0  0  0
  -29.8871  -24.1971   19.7031 C   0  0  0  0  0  0  0  0  0  0  0  0
  -19.7532  -19.2171   25.0798 C   0  0  0  0  0  0  0  0  0  0  0  0
  -30.0180  -26.4733   20.2724 C   0  0  0  0  0  0  0  0  0  0  0  0
  -29.1795  -28.5914   21.8827 C   0  0  0  0  0  0  0  0  0  0  0  0
  -28.6739  -26.8459   20.2907 C   0  0  0  0  0  0  0  0  0  0  0  0
  -24.3771  -12.7751   20.1890 C   0  0  0  0  0  0  0  0  0  0  0  0
  -28.1819  -20.3910   20.4128 C   0  0  0  0  0  0  0  0  0  0  0  0
  -26.7914  -18.7331   20.8038 C   0  0  0  0  0  0  0  0  0  0  0  0
  -25.6881  -20.9713   20.6562 C   0  0  0  0  0  0  0  0  0  0  0  0
  -21.9959  -24.0990   24.3038 C   0  0  0  0  0  0  0  0  0  0  0  0
  -24.3310  -23.2429   26.3863 C   0  0  0  0  0  0  0  0  0  0  0  0
  -25.6490  -20.8579   28.4408 C   0  0  0  0  0  0  0  0  0  0  0  0
  -28.3863  -13.5928   19.3278 C   0  0  0  0  0  0  0  0  0  0  0  0
  -22.2840  -28.8337   22.4178 C   0  0  0  0  0  0  0  0  0  0  0  0
  -20.6436  -23.2597   26.2590 C   0  0  0  0  0  0  0  0  0  0  0  0
  -22.8280  -21.3952   25.5542 C   0  0  0  0  0  0  0  0  0  0  0  0
  -23.2875  -27.7707   22.8575 C   0  0  0  0  0  0  0  0  0  0  0  0
  -30.5492  -15.4171   21.4890 C   0  0  0  0  0  0  0  0  0  0  0  0
  -22.9442  -26.4219   22.2333 C   0  0  0  0  0  0  0  0  0  0  0  0
  -30.0179  -16.8496   21.4141 C   0  0  0  0  0  0  0  0  0  0  0  0
  -30.4445  -14.7052   20.1421 C   0  0  0  0  0  0  0  0  0  0  0  0
  -28.5681  -16.1512   19.4625 C   0  0  0  0  0  0  0  0  0  0  0  0
  -21.5611  -25.9399   22.6873 C   0  0  1  0  0  0  0  0  0  0  0  0
  -21.9986  -23.7593   25.7674 C   0  0  1  0  0  0  0  0  0  0  0  0
  -28.6011  -16.8914   20.8105 C   0  0  2  0  0  0  0  0  0  0  0  0
  -25.7045   -9.1349   22.0099 C   0  0  0  0  0  0  0  0  0  0  0  0
  -27.5841  -20.4361   29.9819 C   0  0  0  0  0  0  0  0  0  0  0  0
  -26.1589  -22.8398   23.9767 C   0  0  0  0  0  0  0  0  0  0  0  0
  -27.7074  -21.5432   25.4563 C   0  0  0  0  0  0  0  0  0  0  0  0
  -27.2467  -23.9470   25.9377 C   0  0  0  0  0  0  0  0  0  0  0  0
  -23.8615  -20.4707   30.7675 C   0  0  0  0  0  0  0  0  0  0  0  0
  -26.2542  -12.6257   18.5045 C   0  0  0  0  0  0  0  0  0  0  0  0
  -21.2256  -14.7724   23.6465 C   0  0  0  0  0  0  0  0  0  0  0  0
  -20.7166  -13.3639   23.3248 C   0  0  0  0  0  0  0  0  0  0  0  0
  -20.0751  -15.7039   24.0236 C   0  0  0  0  0  0  0  0  0  0  0  0
  -21.8418  -12.4015   22.9542 C   0  0  0  0  0  0  0  0  0  0  0  0
  -20.5753  -17.0962   24.3857 C   0  0  0  0  0  0  0  0  0  1  0  0
  -25.4476  -22.2271   26.3819 C   0  0  1  0  0  0  0  0  0  0  0  0
  -26.1486  -20.9260   29.8726 C   0  0  2  0  0  0  0  0  0  0  0  0
  -26.6130  -22.6315   25.4353 C   0  0  0  0  0  0  0  0  0  0  0  0
  -28.9588  -19.3053   20.4536 N   0  0  0  0  0  0  0  0  0  0  0  0
  -28.0843  -18.3133   20.6932 N   0  0  0  0  0  0  0  0  0  0  0  0
  -23.0707  -22.7842   25.9775 N   0  0  0  0  0  0  0  0  0  0  0  0
  -29.0758  -14.7799   19.6253 N   0  0  0  0  0  0  0  0  0  0  0  0
  -25.7848  -17.8661   21.0438 N   0  0  0  0  0  0  0  0  0  0  0  0
  -25.8975  -22.3421   20.4528 N   0  0  0  0  0  0  0  0  0  0  0  0
  -22.5836  -12.8941   21.8186 N   0  0  0  0  0  0  0  0  0  0  0  0
  -21.6286  -25.4025   24.0294 N   0  0  0  0  0  0  0  0  0  0  0  0
  -25.8434  -22.0495   27.7748 N   0  0  0  0  0  0  0  0  0  0  0  0
  -27.0919  -13.7529   18.8488 N   0  0  0  0  0  0  0  0  0  0  0  0
  -25.2961  -20.0846   30.7593 N   0  3  0  0  0  0  0  0  0  0  0  0
  -24.5257  -20.5537   20.8753 O   0  0  0  0  0  0  0  0  0  0  0  0
  -22.3056  -23.2422   23.4841 O   0  0  0  0  0  0  0  0  0  0  0  0
  -24.5666  -24.3990   26.7462 O   0  0  0  0  0  0  0  0  0  0  0  0
  -25.1409  -19.8474   27.9600 O   0  0  0  0  0  0  0  0  0  0  0  0
  -28.8854  -12.4730   19.4831 O   0  0  0  0  0  0  0  0  0  0  0  0
  -30.4356  -25.4216   19.4743 O   0  0  0  0  0  0  0  0  0  0  0  0
  -19.4701  -17.9378   24.7123 O   0  0  0  0  0  0  0  0  0  1  0  0
  -28.7768  -29.6075   22.6571 F   0  0  0  0  0  0  0  0  0  0  0  0
  -27.7806  -26.1893   19.5379 F   0  0  0  0  0  0  0  0  0  0  0  0
  -23.8443  -14.2488   19.4480 Cl  0  0  0  0  0  0  0  0  0  0  0  0
  1  2  1  0  0  0  0
  1  5  2  0  0  0  0
  2  6  2  0  0  0  0
  3  8  2  0  0  0  0
  3 17  1  0  0  0  0
  4  9  1  0  0  0  0
  4 17  2  0  0  0  0
  5 19  1  0  0  0  0
  6 21  1  0  0  0  0
  7 10  2  0  0  0  0
  7 20  1  0  0  0  0
  8 26  1  0  0  0  0
  9 26  2  0  0  0  0
 10 27  1  0  0  0  0
 11 12  2  0  0  0  0
 11 28  1  0  0  0  0
 12 29  1  0  0  0  0
 13 22  1  0  0  0  0
 13 27  2  0  0  0  0
 14 23  1  0  0  0  0
 14 24  2  0  0  0  0
 15 23  2  0  0  0  0
 15 25  1  0  0  0  0
 16 29  2  0  0  0  0
 16 30  1  0  0  0  0
 17 32  1  0  0  0  0
 18 32  1  0  0  0  0
 18 33  2  0  0  0  0
 18 34  1  0  0  0  0
 19 21  2  0  0  0  0
 19 39  1  0  0  0  0
 20 22  2  0  0  0  0
 20 40  1  0  0  0  0
 21 48  1  0  0  0  0
 22 41  1  0  0  0  0
 23 51  1  0  0  0  0
 24 31  1  0  0  0  0
 24 57  1  0  0  0  0
 25 31  2  0  0  0  0
 25 72  1  0  0  0  0
 26 82  1  0  0  0  0
 27 83  1  0  0  0  0
 28 30  2  0  0  0  0
 28 82  1  0  0  0  0
 29 84  1  0  0  0  0
 30 85  1  0  0  0  0
 31 86  1  0  0  0  0
 32 66  2  0  0  0  0
 33 67  1  0  0  0  0
 33 70  1  0  0  0  0
 34 71  1  0  0  0  0
 34 77  2  0  0  0  0
 35 49  1  0  0  0  0
 35 73  1  0  0  0  0
 35 78  2  0  0  0  0
 36 63  1  0  0  0  0
 36 68  1  0  0  0  0
 36 79  2  0  0  0  0
 37 64  1  0  0  0  0
 37 74  1  0  0  0  0
 37 80  2  0  0  0  0
 38 69  1  0  0  0  0
 38 75  1  0  0  0  0
 38 81  2  0  0  0  0
 39 42  1  0  0  0  0
 40 49  1  0  0  0  0
 41 68  1  0  0  0  0
 42 44  1  0  0  0  0
 43 45  1  0  0  0  0
 43 46  1  0  0  0  0
 44 48  1  0  0  0  0
 45 50  1  0  0  0  0
 46 69  1  0  0  0  0
 47 50  1  0  0  0  0
 47 69  1  0  0  0  0
 48 73  1  0  0  0  0
 49 68  1  0  0  0  0
 50 67  1  0  0  0  0
 52 64  1  0  0  0  0
 53 65  1  0  0  0  0
 54 65  1  0  0  0  0
 55 65  1  0  0  0  0
 56 76  1  0  0  0  0
 57 75  1  0  0  0  0
 58 59  1  0  0  0  0
 58 60  1  0  0  0  0
 59 61  1  0  0  0  0
 60 62  1  0  0  0  0
 61 72  1  0  0  0  0
 62 83  1  0  0  0  0
 63 65  1  0  0  0  0
 63 74  1  0  0  0  0
 64 76  1  0  0  0  0
 66 67  1  0  0  0  0
M  CHG  1  76   1
M  ISO  4  38 100  62 101  75 100  83 101
M  END
> <Batch ID>
0022

> <Smiles>
CNC(C)C(=O)NC(C(=O)N1Cc2cc([101O:1][101CH2:1]CCCCNc3cc(C)cc(C[100NH:0][100C:0](=O)N4CCCC(n5nc(-c6ccc(Oc7ccc(F)cc7F)cc6)c(C(N)=O)c5N)C4)c3Cl)ccc2CC1C(=O)NC1CCCc2ccccc21)C(C)(C)C

> <Shape>
0.237

> <Color>
0.057

> <Negative vol penalty>
0.000

$$$$

  -OEChem-04052316153D

 86 94  0     1  0  0  0  0  0999 V2000
  -36.2347  -31.9437   25.4845 C   0  0  0  0  0  0  0  0  0  0  0  0
  -35.4930  -30.8197   25.8340 C   0  0  0  0  0  0  0  0  0  0  0  0
  -22.9994   -9.8944   19.9813 C   0  0  0  0  0  0  0  0  0  0  0  0
  -23.7242   -9.9455   22.2854 C   0  0  0  0  0  0  0  0  0  0  0  0
  -36.4114  -32.2707   24.1407 C   0  0  0  0  0  0  0  0  0  0  0  0
  -34.9267  -30.0227   24.8397 C   0  0  0  0  0  0  0  0  0  0  0  0
  -34.1960  -23.9436   24.9659 C   0  0  0  0  0  0  0  0  0  0  0  0
  -22.2325   -8.7602   20.2477 C   0  0  0  0  0  0  0  0  0  0  0  0
  -22.9572   -8.8114   22.5518 C   0  0  0  0  0  0  0  0  0  0  0  0
  -33.1013  -23.1366   25.2729 C   0  0  0  0  0  0  0  0  0  0  0  0
  -21.4745   -5.7190   23.7555 C   0  0  0  0  0  0  0  0  0  0  0  0
  -22.0601   -4.7031   24.5110 C   0  0  0  0  0  0  0  0  0  0  0  0
  -32.5743  -22.9687   22.9248 C   0  0  0  0  0  0  0  0  0  0  0  0
  -31.9217  -18.3142   24.1511 C   0  0  0  0  0  0  0  0  0  0  0  0
  -32.0610  -16.5203   22.5389 C   0  0  0  0  0  0  0  0  0  0  0  0
  -23.7866   -4.4551   22.8392 C   0  0  0  0  0  0  0  0  0  0  0  0
  -23.7453  -10.4871   21.0001 C   0  0  0  0  0  0  0  0  0  0  0  0
  -24.1315  -13.0025   20.8238 C   0  0  0  0  0  0  0  0  0  0  0  0
  -35.8550  -31.4719   23.1293 C   0  0  0  0  0  0  0  0  0  0  0  0
  -34.4822  -24.2787   23.6347 C   0  0  0  0  0  0  0  0  0  0  0  0
  -35.0950  -30.3401   23.4812 C   0  0  0  0  0  0  0  0  0  0  0  0
  -33.6747  -23.7780   22.6035 C   0  0  0  0  0  0  0  0  0  0  0  0
  -32.6844  -17.4022   23.4216 C   0  0  0  0  0  0  0  0  0  0  0  0
  -30.5355  -18.3442   23.9980 C   0  0  0  0  0  0  0  0  0  0  0  0
  -30.6748  -16.5502   22.3857 C   0  0  0  0  0  0  0  0  0  0  0  0
  -22.2113   -8.2187   21.5329 C   0  0  0  0  0  0  0  0  0  0  0  0
  -32.2886  -22.6514   24.2525 C   0  0  0  0  0  0  0  0  0  0  0  0
  -22.0449   -6.1029   22.5418 C   0  0  0  0  0  0  0  0  0  0  0  0
  -23.2161   -4.0712   24.0529 C   0  0  0  0  0  0  0  0  0  0  0  0
  -23.2010   -5.4710   22.0837 C   0  0  0  0  0  0  0  0  0  0  0  0
  -29.9121  -17.4622   23.1153 C   0  0  0  0  0  0  0  0  0  0  0  0
  -24.5383  -11.6584   20.7254 C   0  0  0  0  0  0  0  0  0  0  0  0
  -25.2416  -13.7246   20.4594 C   0  0  0  0  0  0  0  0  0  0  0  0
  -22.8637  -13.5494   21.2100 C   0  0  0  0  0  0  0  0  0  0  0  0
  -34.6301  -26.9929   21.9869 C   0  0  0  0  0  0  0  0  0  0  0  0
  -35.7173  -25.0478   19.6296 C   0  0  0  0  0  0  0  0  0  0  0  0
  -35.8616  -21.9080   18.3001 C   0  0  0  0  0  0  0  0  0  0  0  0
  -30.7213  -14.6839   20.6942 C   0  0  0  0  0  0  0  0  0  0  0  0
  -36.0334  -31.8920   21.6918 C   0  0  0  0  0  0  0  0  0  0  0  0
  -35.6823  -25.1283   23.3182 C   0  0  0  0  0  0  0  0  0  0  0  0
  -33.9509  -24.0919   21.1565 C   0  0  0  0  0  0  0  0  0  0  0  0
  -35.7152  -30.7852   20.6898 C   0  0  0  0  0  0  0  0  0  0  0  0
  -29.6027  -12.2310   18.3685 C   0  0  0  0  0  0  0  0  0  0  0  0
  -34.4011  -30.0999   21.0508 C   0  0  0  0  0  0  0  0  0  0  0  0
  -28.1519  -11.9739   18.7825 C   0  0  0  0  0  0  0  0  0  0  0  0
  -30.5030  -12.4743   19.5784 C   0  0  0  0  0  0  0  0  0  0  0  0
  -28.5877  -13.2641   20.9115 C   0  0  0  0  0  0  0  0  0  0  0  0
  -34.4857  -29.4368   22.4310 C   0  0  1  0  0  0  0  0  0  0  0  0
  -35.5792  -25.8282   21.9666 C   0  0  1  0  0  0  0  0  0  0  0  0
  -27.6302  -13.0778   19.7231 C   0  0  2  0  0  0  0  0  0  0  0  0
  -34.6182  -19.2921   21.8758 C   0  0  0  0  0  0  0  0  0  0  0  0
  -36.5703  -20.0659   16.7504 C   0  0  0  0  0  0  0  0  0  0  0  0
  -34.9175  -16.3055   22.7143 C   0  0  0  0  0  0  0  0  0  0  0  0
  -34.5355  -17.0049   25.0613 C   0  0  0  0  0  0  0  0  0  0  0  0
  -33.5382  -26.2096   17.8375 C   0  0  0  0  0  0  0  0  0  0  0  0
  -33.8908  -24.2829   16.2780 C   0  0  0  0  0  0  0  0  0  0  0  0
  -35.7499  -25.8876   16.7155 C   0  0  0  0  0  0  0  0  0  0  0  0
  -38.2087  -21.2437   19.9760 C   0  0  0  0  0  0  0  0  0  0  0  0
  -29.7525  -19.3465   24.8078 C   0  0  0  0  0  0  0  0  0  0  0  0
  -34.8469  -18.7642   23.2893 C   0  0  0  0  0  0  0  0  0  0  0  0
  -29.2826  -20.5584   24.0003 C   0  0  0  0  0  0  0  0  0  0  0  0
  -30.4291  -21.4018   23.4546 C   0  0  0  0  0  0  0  0  0  1  0  0
  -35.0751  -24.2505   18.5201 C   0  0  1  0  0  0  0  0  0  0  0  0
  -37.0278  -21.0867   17.7807 C   0  0  2  0  0  0  0  0  0  0  0  0
  -34.1663  -17.3713   23.5850 C   0  0  0  0  0  0  0  0  0  0  0  0
  -34.5569  -25.1531   17.3651 C   0  0  0  0  0  0  0  0  0  0  0  0
  -25.8076  -11.5314   20.3295 N   0  0  0  0  0  0  0  0  0  0  0  0
  -26.2080  -12.8050   20.1758 N   0  0  0  0  0  0  0  0  0  0  0  0
  -35.1323  -24.9318   20.8985 N   0  0  0  0  0  0  0  0  0  0  0  0
  -29.9482  -13.5356   20.4215 N   0  0  0  0  0  0  0  0  0  0  0  0
  -25.4755  -15.0503   20.3572 N   0  0  0  0  0  0  0  0  0  0  0  0
  -21.8315  -12.6656   21.5535 N   0  0  0  0  0  0  0  0  0  0  0  0
  -30.0772  -15.6395   21.4795 N   0  0  0  0  0  0  0  0  0  0  0  0
  -35.2168  -28.1905   22.3489 N   0  0  0  0  0  0  0  0  0  0  0  0
  -36.0616  -23.2584   18.1066 N   0  0  0  0  0  0  0  0  0  0  0  0
  -37.6891  -20.3597   18.9010 N   0  3  0  0  0  0  0  0  0  0  0  0
  -22.6474  -14.7848   21.2335 O   0  0  0  0  0  0  0  0  0  0  0  0
  -33.4530  -26.8182   21.6944 O   0  0  0  0  0  0  0  0  0  0  0  0
  -36.7061  -25.7422   19.3811 O   0  0  0  0  0  0  0  0  0  0  0  0
  -34.8705  -21.4019   18.8218 O   0  0  0  0  0  0  0  0  0  0  0  0
  -31.8601  -14.8224   20.2404 O   0  0  0  0  0  0  0  0  0  0  0  0
  -21.4628   -7.1121   21.7933 O   0  0  0  0  0  0  0  0  0  0  0  0
  -31.2191  -21.8640   24.5494 O   0  0  0  0  0  0  0  0  0  1  0  0
  -23.7792   -3.0968   24.7792 F   0  0  0  0  0  0  0  0  0  0  0  0
  -23.7543   -5.8362   20.9191 F   0  0  0  0  0  0  0  0  0  0  0  0
  -28.1890  -17.5042   22.9299 Cl  0  0  0  0  0  0  0  0  0  0  0  0
  1  2  1  0  0  0  0
  1  5  2  0  0  0  0
  2  6  2  0  0  0  0
  3  8  2  0  0  0  0
  3 17  1  0  0  0  0
  4  9  1  0  0  0  0
  4 17  2  0  0  0  0
  5 19  1  0  0  0  0
  6 21  1  0  0  0  0
  7 10  2  0  0  0  0
  7 20  1  0  0  0  0
  8 26  1  0  0  0  0
  9 26  2  0  0  0  0
 10 27  1  0  0  0  0
 11 12  2  0  0  0  0
 11 28  1  0  0  0  0
 12 29  1  0  0  0  0
 13 22  1  0  0  0  0
 13 27  2  0  0  0  0
 14 23  1  0  0  0  0
 14 24  2  0  0  0  0
 15 23  2  0  0  0  0
 15 25  1  0  0  0  0
 16 29  2  0  0  0  0
 16 30  1  0  0  0  0
 17 32  1  0  0  0  0
 18 32  1  0  0  0  0
 18 33  2  0  0  0  0
 18 34  1  0  0  0  0
 19 21  2  0  0  0  0
 19 39  1  0  0  0  0
 20 22  2  0  0  0  0
 20 40  1  0  0  0  0
 21 48  1  0  0  0  0
 22 41  1  0  0  0  0
 23 65  1  0  0  0  0
 24 31  1  0  0  0  0
 24 59  1  0  0  0  0
 25 31  2  0  0  0  0
 25 73  1  0  0  0  0
 26 82  1  0  0  0  0
 27 83  1  0  0  0  0
 28 30  2  0  0  0  0
 28 82  1  0  0  0  0
 29 84  1  0  0  0  0
 30 85  1  0  0  0  0
 31 86  1  0  0  0  0
 32 67  2  0  0  0  0
 33 68  1  0  0  0  0
 33 71  1  0  0  0  0
 34 72  1  0  0  0  0
 34 77  2  0  0  0  0
 35 49  1  0  0  0  0
 35 74  1  0  0  0  0
 35 78  2  0  0  0  0
 36 63  1  0  0  0  0
 36 69  1  0  0  0  0
 36 79  2  0  0  0  0
 37 64  1  0  0  0  0
 37 75  1  0  0  0  0
 37 80  2  0  0  0  0
 38 70  1  0  0  0  0
 38 73  1  0  0  0  0
 38 81  2  0  0  0  0
 39 42  1  0  0  0  0
 40 49  1  0  0  0  0
 41 69  1  0  0  0  0
 42 44  1  0  0  0  0
 43 45  1  0  0  0  0
 43 46  1  0  0  0  0
 44 48  1  0  0  0  0
 45 50  1  0  0  0  0
 46 70  1  0  0  0  0
 47 50  1  0  0  0  0
 47 70  1  0  0  0  0
 48 74  1  0  0  0  0
 49 69  1  0  0  0  0
 50 68  1  0  0  0  0
 51 60  1  0  0  0  0
 52 64  1  0  0  0  0
 53 65  1  0  0  0  0
 54 65  1  0  0  0  0
 55 66  1  0  0  0  0
 56 66  1  0  0  0  0
 57 66  1  0  0  0  0
 58 76  1  0  0  0  0
 59 61  1  0  0  0  0
 60 65  1  0  0  0  0
 61 62  1  0  0  0  0
 62 83  1  0  0  0  0
 63 66  1  0  0  0  0
 63 75  1  0  0  0  0
 64 76  1  0  0  0  0
 67 68  1  0  0  0  0
M  CHG  1  76   1
M  ISO  4  38 100  62 101  73 100  83 101
M  END
> <Batch ID>
0022

> <Smiles>
CCC(C)(C)c1cc(CC[101CH2:1][101O:1]c2ccc3c(c2)CN(C(=O)C(NC(=O)C(C)NC)C(C)(C)C)C(C(=O)NC2CCCc4ccccc42)C3)c(Cl)c([100NH:0][100C:0](=O)N2CCCC(n3nc(-c4ccc(Oc5ccc(F)cc5F)cc4)c(C(N)=O)c3N)C2)c1

> <Shape>
0.170

> <Color>
0.198

> <Negative vol penalty>
0.000

$$$$

  -OEChem-04052316153D

 86 94  0     1  0  0  0  0  0999 V2000
  -30.3929  -24.8028   18.3678 C   0  0  0  0  0  0  0  0  0  0  0  0
  -29.0042  -24.8147   18.4496 C   0  0  0  0  0  0  0  0  0  0  0  0
  -26.6204  -12.6825   20.5175 C   0  0  0  0  0  0  0  0  0  0  0  0
  -24.4396  -13.6744   20.2060 C   0  0  0  0  0  0  0  0  0  0  0  0
  -31.1538  -25.4198   19.3600 C   0  0  0  0  0  0  0  0  0  0  0  0
  -28.3755  -25.4427   19.5243 C   0  0  0  0  0  0  0  0  0  0  0  0
  -23.0533  -28.4708   19.4183 C   0  0  0  0  0  0  0  0  0  0  0  0
  -26.0314  -11.4232   20.6309 C   0  0  0  0  0  0  0  0  0  0  0  0
  -23.8506  -12.4151   20.3192 C   0  0  0  0  0  0  0  0  0  0  0  0
  -21.7557  -28.0993   19.7677 C   0  0  0  0  0  0  0  0  0  0  0  0
  -23.0160  -10.2687   22.7946 C   0  0  0  0  0  0  0  0  0  0  0  0
  -21.8824  -10.1535   23.5991 C   0  0  0  0  0  0  0  0  0  0  0  0
  -22.0660  -29.0873   21.9464 C   0  0  0  0  0  0  0  0  0  0  0  0
  -20.6068   -9.3937   21.6931 C   0  0  0  0  0  0  0  0  0  0  0  0
  -25.8244  -13.8081   20.3052 C   0  0  0  0  0  0  0  0  0  0  0  0
  -26.8844  -15.7340   19.0108 C   0  0  0  0  0  0  0  0  0  0  0  0
  -30.5339  -26.0640   20.4423 C   0  0  0  0  0  0  0  0  0  0  0  0
  -23.8722  -29.1448   20.3357 C   0  0  0  0  0  0  0  0  0  0  0  0
  -29.1288  -26.0677   20.5325 C   0  0  0  0  0  0  0  0  0  0  0  0
  -23.3727  -29.4684   21.6053 C   0  0  0  0  0  0  0  0  0  0  0  0
  -23.2300  -23.7237   23.5127 C   0  0  0  0  0  0  0  0  0  0  0  0
  -24.2162  -22.7491   23.3611 C   0  0  0  0  0  0  0  0  0  0  0  0
  -21.9747  -23.3744   24.0107 C   0  0  0  0  0  0  0  0  0  0  0  0
  -22.6919  -21.0755   24.2054 C   0  0  0  0  0  0  0  0  0  0  0  0
  -23.9471  -21.4249   23.7074 C   0  0  0  0  0  0  0  0  0  0  0  0
  -24.6465  -11.2895   20.5317 C   0  0  0  0  0  0  0  0  0  0  0  0
  -21.2629  -28.4051   21.0329 C   0  0  0  0  0  0  0  0  0  0  0  0
  -22.9450   -9.9466   21.4392 C   0  0  0  0  0  0  0  0  0  0  0  0
  -20.6778   -9.7160   23.0484 C   0  0  0  0  0  0  0  0  0  0  0  0
  -21.7404   -9.5091   20.8885 C   0  0  0  0  0  0  0  0  0  0  0  0
  -21.7057  -22.0502   24.3570 C   0  0  0  0  0  0  0  0  0  0  0  0
  -26.4322  -15.1093   20.1886 C   0  0  0  0  0  0  0  0  0  0  0  0
  -27.3747  -16.9461   19.4315 C   0  0  0  0  0  0  0  0  0  0  0  0
  -26.8630  -15.2609   17.6575 C   0  0  0  0  0  0  0  0  0  0  0  0
  -26.6409  -28.5077   21.7612 C   0  0  0  0  0  0  0  0  0  0  0  0
  -26.3310  -31.5457   22.8551 C   0  0  0  0  0  0  0  0  0  0  0  0
  -24.2680  -34.1592   23.6036 C   0  0  0  0  0  0  0  0  0  0  0  0
  -26.2044  -20.4033   24.1626 C   0  0  0  0  0  0  0  0  0  0  0  0
  -31.3993  -26.6762   21.5151 C   0  0  0  0  0  0  0  0  0  0  0  0
  -25.2603  -29.5621   19.9341 C   0  0  0  0  0  0  0  0  0  0  0  0
  -24.2045  -30.2086   22.6196 C   0  0  0  0  0  0  0  0  0  0  0  0
  -30.6477  -27.6440   22.4255 C   0  0  0  0  0  0  0  0  0  0  0  0
  -29.3699  -19.0620   23.2363 C   0  0  0  0  0  0  0  0  0  0  0  0
  -29.3214  -27.0365   22.8713 C   0  0  0  0  0  0  0  0  0  0  0  0
  -29.0173  -17.9570   22.2378 C   0  0  0  0  0  0  0  0  0  0  0  0
  -28.3439  -19.1555   24.3643 C   0  0  0  0  0  0  0  0  0  0  0  0
  -26.5962  -18.1818   22.9268 C   0  0  0  0  0  0  0  0  0  0  0  0
  -28.4096  -26.7601   21.6698 C   0  0  1  0  0  0  0  0  0  0  0  0
  -26.1840  -29.7907   21.1265 C   0  0  1  0  0  0  0  0  0  0  0  0
  -27.5658  -18.0921   21.7371 C   0  0  2  0  0  0  0  0  0  0  0  0
  -23.5198  -25.1442   23.1411 C   0  0  0  0  0  0  0  0  0  0  0  0
  -25.5618  -23.1293   22.8260 C   0  0  0  0  0  0  0  0  0  0  0  0
  -22.4172  -19.6488   24.5732 C   0  0  0  0  0  0  0  0  0  0  0  0
  -24.3015  -36.4965   24.5164 C   0  0  0  0  0  0  0  0  0  0  0  0
  -26.7148  -30.4375   25.6719 C   0  0  0  0  0  0  0  0  0  0  0  0
  -25.8075  -32.5921   26.5680 C   0  0  0  0  0  0  0  0  0  0  0  0
  -27.9099  -32.5885   25.2253 C   0  0  0  0  0  0  0  0  0  0  0  0
  -23.1530  -35.2770   21.1003 C   0  0  0  0  0  0  0  0  0  0  0  0
  -20.9221  -24.4428   24.1676 C   0  0  0  0  0  0  0  0  0  0  0  0
  -20.2264  -24.8244   22.8561 C   0  0  0  0  0  0  0  0  0  0  0  0
  -19.1088  -25.8544   23.0481 C   0  0  0  0  0  0  0  0  0  0  0  0
  -18.4650  -26.2274   21.7138 C   0  0  0  0  0  0  0  0  0  0  0  0
  -19.4689  -26.8669   20.7651 C   0  0  0  0  0  0  0  0  0  1  0  0
  -25.6988  -32.1863   24.0671 C   0  0  1  0  0  0  0  0  0  0  0  0
  -24.3495  -35.6364   23.2632 C   0  0  2  0  0  0  0  0  0  0  0  0
  -26.5175  -31.9354   25.3649 C   0  0  0  0  0  0  0  0  0  0  0  0
  -26.6188  -15.8623   21.2759 N   0  0  0  0  0  0  0  0  0  0  0  0
  -27.1937  -16.9726   20.7830 N   0  0  0  0  0  0  0  0  0  0  0  0
  -25.5575  -30.5896   22.1818 N   0  0  0  0  0  0  0  0  0  0  0  0
  -26.9927  -19.2859   23.8148 N   0  0  0  0  0  0  0  0  0  0  0  0
  -27.9387  -17.9811   18.7734 N   0  0  0  0  0  0  0  0  0  0  0  0
  -26.3237  -13.9929   17.4014 N   0  0  0  0  0  0  0  0  0  0  0  0
  -24.9504  -20.4362   23.5536 N   0  0  0  0  0  0  0  0  0  0  0  0
  -27.7954  -27.9866   21.2087 N   0  0  0  0  0  0  0  0  0  0  0  0
  -25.5195  -33.5960   23.7369 N   0  0  0  0  0  0  0  0  0  0  0  0
  -23.2142  -36.0279   22.3807 N   0  3  0  0  0  0  0  0  0  0  0  0
  -27.3240  -15.9356   16.7058 O   0  0  0  0  0  0  0  0  0  0  0  0
  -25.9947  -28.0268   22.6847 O   0  0  0  0  0  0  0  0  0  0  0  0
  -27.4665  -31.8864   22.5140 O   0  0  0  0  0  0  0  0  0  0  0  0
  -23.2008  -33.5653   23.7414 O   0  0  0  0  0  0  0  0  0  0  0  0
  -26.6223  -21.2812   24.9219 O   0  0  0  0  0  0  0  0  0  0  0  0
  -24.0715  -10.0608   20.6420 O   0  0  0  0  0  0  0  0  0  0  0  0
  -19.9969  -28.0431   21.3767 O   0  0  0  0  0  0  0  0  0  1  0  0
  -19.5897   -9.6038   23.8215 F   0  0  0  0  0  0  0  0  0  0  0  0
  -21.6664   -9.1970   19.5874 F   0  0  0  0  0  0  0  0  0  0  0  0
  -20.1457  -21.6172   24.9763 Cl  0  0  0  0  0  0  0  0  0  0  0  0
  1  2  1  0  0  0  0
  1  5  2  0  0  0  0
  2  6  2  0  0  0  0
  3  8  2  0  0  0  0
  3 15  1  0  0  0  0
  4  9  1  0  0  0  0
  4 15  2  0  0  0  0
  5 17  1  0  0  0  0
  6 19  1  0  0  0  0
  7 10  2  0  0  0  0
  7 18  1  0  0  0  0
  8 26  1  0  0  0  0
  9 26  2  0  0  0  0
 10 27  1  0  0  0  0
 11 12  2  0  0  0  0
 11 28  1  0  0  0  0
 12 29  1  0  0  0  0
 13 20  1  0  0  0  0
 13 27  2  0  0  0  0
 14 29  2  0  0  0  0
 14 30  1  0  0  0  0
 15 32  1  0  0  0  0
 16 32  1  0  0  0  0
 16 33  2  0  0  0  0
 16 34  1  0  0  0  0
 17 19  2  0  0  0  0
 17 39  1  0  0  0  0
 18 20  2  0  0  0  0
 18 40  1  0  0  0  0
 19 48  1  0  0  0  0
 20 41  1  0  0  0  0
 21 22  2  0  0  0  0
 21 23  1  0  0  0  0
 21 51  1  0  0  0  0
 22 25  1  0  0  0  0
 22 52  1  0  0  0  0
 23 31  2  0  0  0  0
 23 59  1  0  0  0  0
 24 25  2  0  0  0  0
 24 31  1  0  0  0  0
 24 53  1  0  0  0  0
 25 73  1  0  0  0  0
 26 82  1  0  0  0  0
 27 83  1  0  0  0  0
 28 30  2  0  0  0  0
 28 82  1  0  0  0  0
 29 84  1  0  0  0  0
 30 85  1  0  0  0  0
 31 86  1  0  0  0  0
 32 67  2  0  0  0  0
 33 68  1  0  0  0  0
 33 71  1  0  0  0  0
 34 72  1  0  0  0  0
 34 77  2  0  0  0  0
 35 49  1  0  0  0  0
 35 74  1  0  0  0  0
 35 78  2  0  0  0  0
 36 64  1  0  0  0  0
 36 69  1  0  0  0  0
 36 79  2  0  0  0  0
 37 65  1  0  0  0  0
 37 75  1  0  0  0  0
 37 80  2  0  0  0  0
 38 70  1  0  0  0  0
 38 73  1  0  0  0  0
 38 81  2  0  0  0  0
 39 42  1  0  0  0  0
 40 49  1  0  0  0  0
 41 69  1  0  0  0  0
 42 44  1  0  0  0  0
 43 45  1  0  0  0  0
 43 46  1  0  0  0  0
 44 48  1  0  0  0  0
 45 50  1  0  0  0  0
 46 70  1  0  0  0  0
 47 50  1  0  0  0  0
 47 70  1  0  0  0  0
 48 74  1  0  0  0  0
 49 69  1  0  0  0  0
 50 68  1  0  0  0  0
 54 65  1  0  0  0  0
 55 66  1  0  0  0  0
 56 66  1  0  0  0  0
 57 66  1  0  0  0  0
 58 76  1  0  0  0  0
 59 60  1  0  0  0  0
 60 61  1  0  0  0  0
 61 62  1  0  0  0  0
 62 63  1  0  0  0  0
 63 83  1  0  0  0  0
 64 66  1  0  0  0  0
 64 75  1  0  0  0  0
 65 76  1  0  0  0  0
 67 68  1  0  0  0  0
M  CHG  1  76   1
M  ISO  4  38 100  63 101  73 100  83 101
M  END
> <Batch ID>
0022

> <Smiles>
CNC(C)C(=O)NC(C(=O)N1Cc2cc([101O:1][101CH2:1]CCCCc3c(C)c(C)c([100NH:0][100C:0](=O)N4CCCC(n5nc(-c6ccc(Oc7ccc(F)cc7F)cc6)c(C(N)=O)c5N)C4)c(C)c3Cl)ccc2CC1C(=O)NC1CCCc2ccccc21)C(C)(C)C

> <Shape>
0.281

> <Color>
0.067

> <Negative vol penalty>
0.000

$$$$

  -OEChem-04052316153D

 82 90  0     1  0  0  0  0  0999 V2000
  -14.0174  -19.2716   22.8560 C   0  0  0  0  0  0  0  0  0  0  0  0
  -14.1321  -20.5517   22.3235 C   0  0  0  0  0  0  0  0  0  0  0  0
  -28.0238  -20.1810   19.7340 C   0  0  0  0  0  0  0  0  0  0  0  0
  -30.0654  -20.5596   18.4989 C   0  0  0  0  0  0  0  0  0  0  0  0
  -14.7408  -18.9248   23.9963 C   0  0  0  0  0  0  0  0  0  0  0  0
  -14.9694  -21.4862   22.9317 C   0  0  0  0  0  0  0  0  0  0  0  0
  -19.2322  -27.0232   21.3550 C   0  0  0  0  0  0  0  0  0  0  0  0
  -28.4789  -18.9138   20.0980 C   0  0  0  0  0  0  0  0  0  0  0  0
  -30.5206  -19.2924   18.8630 C   0  0  0  0  0  0  0  0  0  0  0  0
  -19.4501  -28.3520   21.7166 C   0  0  0  0  0  0  0  0  0  0  0  0
  -28.7197  -15.8531   18.6844 C   0  0  0  0  0  0  0  0  0  0  0  0
  -27.8230  -14.7895   18.5835 C   0  0  0  0  0  0  0  0  0  0  0  0
  -20.7120  -27.6163   23.6363 C   0  0  0  0  0  0  0  0  0  0  0  0
  -23.0864  -29.9808   20.7499 C   0  0  0  0  0  0  0  0  0  0  0  0
  -25.7521  -30.6709   21.1976 C   0  0  0  0  0  0  0  0  0  0  0  0
  -28.0513  -14.3725   20.9523 C   0  0  0  0  0  0  0  0  0  0  0  0
  -28.8170  -21.0040   18.9344 C   0  0  0  0  0  0  0  0  0  0  0  0
  -27.1843  -22.6207   17.8261 C   0  0  0  0  0  0  0  0  0  0  0  0
  -15.5948  -19.8525   24.6132 C   0  0  0  0  0  0  0  0  0  0  0  0
  -19.7443  -25.9792   22.1386 C   0  0  0  0  0  0  0  0  0  0  0  0
  -15.7039  -21.1519   24.0822 C   0  0  0  0  0  0  0  0  0  0  0  0
  -20.5015  -26.2752   23.2811 C   0  0  0  0  0  0  0  0  0  0  0  0
  -23.3968  -31.0983   21.5247 C   0  0  0  0  0  0  0  0  0  0  0  0
  -25.4417  -29.5533   20.4228 C   0  0  0  0  0  0  0  0  0  0  0  0
  -29.7274  -18.4695   19.6625 C   0  0  0  0  0  0  0  0  0  0  0  0
  -20.1876  -28.6486   22.8590 C   0  0  0  0  0  0  0  0  0  0  0  0
  -29.2824  -16.1763   19.9191 C   0  0  0  0  0  0  0  0  0  0  0  0
  -27.4887  -14.0492   19.7175 C   0  0  0  0  0  0  0  0  0  0  0  0
  -28.9481  -15.4361   21.0531 C   0  0  0  0  0  0  0  0  0  0  0  0
  -24.1088  -29.2082   20.1990 C   0  0  0  0  0  0  0  0  0  0  0  0
  -24.7297  -31.4434   21.7485 C   0  0  0  0  0  0  0  0  0  0  0  0
  -28.3471  -22.3129   18.5576 C   0  0  0  0  0  0  0  0  0  0  0  0
  -27.1888  -23.9911   17.7350 C   0  0  0  0  0  0  0  0  0  0  0  0
  -26.1892  -21.7460   17.2782 C   0  0  0  0  0  0  0  0  0  0  0  0
  -18.4693  -23.5859   23.7970 C   0  0  0  0  0  0  0  0  0  0  0  0
  -21.5704  -22.7144   24.1794 C   0  0  0  0  0  0  0  0  0  0  0  0
  -24.8543  -23.6414   24.2369 C   0  0  0  0  0  0  0  0  0  0  0  0
  -27.8712  -29.0226   20.0201 C   0  0  0  0  0  0  0  0  0  0  0  0
  -16.3203  -19.4463   25.8716 C   0  0  0  0  0  0  0  0  0  0  0  0
  -19.5232  -24.5514   21.7202 C   0  0  0  0  0  0  0  0  0  0  0  0
  -21.0901  -25.1910   24.1451 C   0  0  0  0  0  0  0  0  0  0  0  0
  -17.4725  -20.3782   26.2381 C   0  0  0  0  0  0  0  0  0  0  0  0
  -30.7977  -27.3559   18.8646 C   0  0  0  0  0  0  0  0  0  0  0  0
  -17.0344  -21.8356   26.1336 C   0  0  0  0  0  0  0  0  0  0  0  0
  -30.3253  -25.9206   18.6215 C   0  0  0  0  0  0  0  0  0  0  0  0
  -30.1237  -27.9753   20.0876 C   0  0  0  0  0  0  0  0  0  0  0  0
  -28.1843  -26.4757   19.8442 C   0  0  0  0  0  0  0  0  0  0  0  0
  -16.6208  -22.1858   24.6991 C   0  0  1  0  0  0  0  0  0  0  0  0
  -19.6554  -23.5631   22.8748 C   0  0  1  0  0  0  0  0  0  0  0  0
  -28.7870  -25.8322   18.5847 C   0  0  2  0  0  0  0  0  0  0  0  0
  -27.3468  -23.3764   24.3590 C   0  0  0  0  0  0  0  0  0  0  0  0
  -21.0531  -22.6567   27.1859 C   0  0  0  0  0  0  0  0  0  0  0  0
  -23.5312  -22.6728   27.5422 C   0  0  0  0  0  0  0  0  0  0  0  0
  -22.4591  -20.7725   26.3329 C   0  0  0  0  0  0  0  0  0  0  0  0
  -25.0734  -23.2589   21.3104 C   0  0  0  0  0  0  0  0  0  0  0  0
  -22.2627  -31.9073   22.1016 C   0  0  0  0  0  0  0  0  0  0  0  0
  -22.0302  -31.6647   23.5945 C   0  0  0  0  0  0  0  0  0  0  0  0
  -21.6097  -30.2352   23.9156 C   0  0  0  0  0  0  0  0  0  1  0  0
  -22.6498  -23.0195   25.1897 C   0  0  1  0  0  0  0  0  0  0  0  0
  -26.0836  -23.0357   23.5838 C   0  0  2  0  0  0  0  0  0  0  0  0
  -22.4107  -22.3010   26.5477 C   0  0  0  0  0  0  0  0  0  0  0  0
  -29.0400  -23.4003   18.9061 N   0  0  0  0  0  0  0  0  0  0  0  0
  -28.3104  -24.4048   18.3914 N   0  0  0  0  0  0  0  0  0  0  0  0
  -20.8409  -23.8107   23.6978 N   0  0  0  0  0  0  0  0  0  0  0  0
  -28.6677  -27.8586   19.9810 N   0  0  0  0  0  0  0  0  0  0  0  0
  -26.3426  -24.8707   17.1580 N   0  0  0  0  0  0  0  0  0  0  0  0
  -26.3666  -21.2664   15.9732 N   0  0  0  0  0  0  0  0  0  0  0  0
  -26.5036  -28.7905   19.8767 N   0  0  0  0  0  0  0  0  0  0  0  0
  -17.7904  -22.3845   23.8702 N   0  0  0  0  0  0  0  0  0  0  0  0
  -23.9160  -22.6805   24.5492 N   0  0  0  0  0  0  0  0  0  0  0  0
  -26.2346  -23.5453   22.1915 N   0  3  0  0  0  0  0  0  0  0  0  0
  -25.1645  -21.4131   17.9206 O   0  0  0  0  0  0  0  0  0  0  0  0
  -18.1916  -24.6166   24.3988 O   0  0  0  0  0  0  0  0  0  0  0  0
  -21.3862  -21.5473   23.8250 O   0  0  0  0  0  0  0  0  0  0  0  0
  -24.7397  -24.8460   24.4522 O   0  0  0  0  0  0  0  0  0  0  0  0
  -28.3681  -30.1452   20.1423 O   0  0  0  0  0  0  0  0  0  0  0  0
  -30.1719  -17.2330   20.0178 O   0  0  0  0  0  0  0  0  0  0  0  0
  -20.4012  -29.9447   23.2146 O   0  0  0  0  0  0  0  0  0  1  0  0
  -26.6263  -13.0289   19.6208 F   0  0  0  0  0  0  0  0  0  0  0  0
  -29.4844  -15.7426   22.2423 F   0  0  0  0  0  0  0  0  0  0  0  0
  -23.6805  -27.8323   19.2463 Cl  0  0  0  0  0  0  0  0  0  0  0  0
  -25.1509  -32.8186   22.7030 Cl  0  0  0  0  0  0  0  0  0  0  0  0
  1  2  1  0  0  0  0
  1  5  2  0  0  0  0
  2  6  2  0  0  0  0
  3  8  2  0  0  0  0
  3 17  1  0  0  0  0
  4  9  1  0  0  0  0
  4 17  2  0  0  0  0
  5 19  1  0  0  0  0
  6 21  1  0  0  0  0
  7 10  2  0  0  0  0
  7 20  1  0  0  0  0
  8 25  1  0  0  0  0
  9 25  2  0  0  0  0
 10 26  1  0  0  0  0
 11 12  2  0  0  0  0
 11 27  1  0  0  0  0
 12 28  1  0  0  0  0
 13 22  1  0  0  0  0
 13 26  2  0  0  0  0
 14 23  1  0  0  0  0
 14 30  2  0  0  0  0
 15 24  2  0  0  0  0
 15 31  1  0  0  0  0
 16 28  2  0  0  0  0
 16 29  1  0  0  0  0
 17 32  1  0  0  0  0
 18 32  1  0  0  0  0
 18 33  2  0  0  0  0
 18 34  1  0  0  0  0
 19 21  2  0  0  0  0
 19 39  1  0  0  0  0
 20 22  2  0  0  0  0
 20 40  1  0  0  0  0
 21 48  1  0  0  0  0
 22 41  1  0  0  0  0
 23 31  2  0  0  0  0
 23 56  1  0  0  0  0
 24 30  1  0  0  0  0
 24 68  1  0  0  0  0
 25 77  1  0  0  0  0
 26 78  1  0  0  0  0
 27 29  2  0  0  0  0
 27 77  1  0  0  0  0
 28 79  1  0  0  0  0
 29 80  1  0  0  0  0
 30 81  1  0  0  0  0
 31 82  1  0  0  0  0
 32 62  2  0  0  0  0
 33 63  1  0  0  0  0
 33 66  1  0  0  0  0
 34 67  1  0  0  0  0
 34 72  2  0  0  0  0
 35 49  1  0  0  0  0
 35 69  1  0  0  0  0
 35 73  2  0  0  0  0
 36 59  1  0  0  0  0
 36 64  1  0  0  0  0
 36 74  2  0  0  0  0
 37 60  1  0  0  0  0
 37 70  1  0  0  0  0
 37 75  2  0  0  0  0
 38 65  1  0  0  0  0
 38 68  1  0  0  0  0
 38 76  2  0  0  0  0
 39 42  1  0  0  0  0
 40 49  1  0  0  0  0
 41 64  1  0  0  0  0
 42 44  1  0  0  0  0
 43 45  1  0  0  0  0
 43 46  1  0  0  0  0
 44 48  1  0  0  0  0
 45 50  1  0  0  0  0
 46 65  1  0  0  0  0
 47 50  1  0  0  0  0
 47 65  1  0  0  0  0
 48 69  1  0  0  0  0
 49 64  1  0  0  0  0
 50 63  1  0  0  0  0
 51 60  1  0  0  0  0
 52 61  1  0  0  0  0
 53 61  1  0  0  0  0
 54 61  1  0  0  0  0
 55 71  1  0  0  0  0
 56 57  1  0  0  0  0
 57 58  1  0  0  0  0
 58 78  1  0  0  0  0
 59 61  1  0  0  0  0
 59 70  1  0  0  0  0
 60 71  1  0  0  0  0
 62 63  1  0  0  0  0
M  CHG  1  71   1
M  ISO  4  38 100  58 101  68 100  78 101
M  END
> <Batch ID>
0022

> <Smiles>
CNC(C)C(=O)NC(C(=O)N1Cc2cc([101O:1][101CH2:1]CCc3cc(Cl)c([100NH:0][100C:0](=O)N4CCCC(n5nc(-c6ccc(Oc7ccc(F)cc7F)cc6)c(C(N)=O)c5N)C4)cc3Cl)ccc2CC1C(=O)NC1CCCc2ccccc21)C(C)(C)C

> <Shape>
0.214

> <Color>
0.061

> <Negative vol penalty>
0.000

$$$$
