
  -OEChem-04052316193D

 89 97  0     1  0  0  0  0  0999 V2000
  -32.1391  -15.1801   22.4565 C   0  0  0  0  0  0  0  0  0  0  0  0
  -31.1526  -16.0940   22.8128 C   0  0  0  0  0  0  0  0  0  0  0  0
  -26.6551  -30.9407   22.4447 C   0  0  0  0  0  0  0  0  0  0  0  0
  -25.8762  -31.7258   20.2967 C   0  0  0  0  0  0  0  0  0  0  0  0
  -31.8784  -14.2202   21.4795 C   0  0  0  0  0  0  0  0  0  0  0  0
  -29.9051  -16.0493   22.1914 C   0  0  0  0  0  0  0  0  0  0  0  0
  -24.4793  -17.3196   24.7316 C   0  0  0  0  0  0  0  0  0  0  0  0
  -26.7362  -32.2578   22.8967 C   0  0  0  0  0  0  0  0  0  0  0  0
  -25.9573  -33.0429   20.7487 C   0  0  0  0  0  0  0  0  0  0  0  0
  -23.6795  -18.4614   24.7136 C   0  0  0  0  0  0  0  0  0  0  0  0
  -26.8040  -35.3939   24.7339 C   0  0  0  0  0  0  0  0  0  0  0  0
  -26.2996  -35.6761   26.0033 C   0  0  0  0  0  0  0  0  0  0  0  0
  -22.4034  -17.5314   22.8898 C   0  0  0  0  0  0  0  0  0  0  0  0
  -24.1145  -34.9196   25.3033 C   0  0  0  0  0  0  0  0  0  0  0  0
  -26.2252  -30.6747   21.1446 C   0  0  0  0  0  0  0  0  0  0  0  0
  -25.0323  -28.4521   20.7639 C   0  0  0  0  0  0  0  0  0  0  0  0
  -30.6239  -14.1575   20.8527 C   0  0  0  0  0  0  0  0  0  0  0  0
  -24.2537  -16.2781   23.8202 C   0  0  0  0  0  0  0  0  0  0  0  0
  -29.6278  -15.0885   21.2041 C   0  0  0  0  0  0  0  0  0  0  0  0
  -23.2002  -16.3763   22.9001 C   0  0  0  0  0  0  0  0  0  0  0  0
  -26.3873  -33.3089   22.0487 C   0  0  0  0  0  0  0  0  0  0  0  0
  -22.6432  -18.5687   23.7907 C   0  0  0  0  0  0  0  0  0  0  0  0
  -25.9636  -34.8746   23.7491 C   0  0  0  0  0  0  0  0  0  0  0  0
  -24.9548  -35.4389   26.2881 C   0  0  0  0  0  0  0  0  0  0  0  0
  -24.6189  -34.6374   24.0338 C   0  0  0  0  0  0  0  0  0  0  0  0
  -26.1417  -29.3144   20.6770 C   0  0  0  0  0  0  0  0  0  0  0  0
  -25.4590  -27.2838   20.1812 C   0  0  0  0  0  0  0  0  0  0  0  0
  -23.7323  -28.6863   21.3214 C   0  0  0  0  0  0  0  0  0  0  0  0
  -25.9480  -14.9251   21.4959 C   0  0  0  0  0  0  0  0  0  0  0  0
  -23.3892  -22.0379   21.5428 C   0  0  0  0  0  0  0  0  0  0  0  0
  -23.4425  -12.8670   21.3985 C   0  0  0  0  0  0  0  0  0  0  0  0
  -20.1417  -12.2885   22.0440 C   0  0  0  0  0  0  0  0  0  0  0  0
  -29.1280  -23.3621   19.2897 C   0  0  0  0  0  0  0  0  0  0  0  0
  -30.4044  -13.1322   19.7686 C   0  0  0  0  0  0  0  0  0  0  0  0
  -25.1085  -15.0415   23.8702 C   0  0  0  0  0  0  0  0  0  0  0  0
  -22.9037  -15.2774   21.9138 C   0  0  0  0  0  0  0  0  0  0  0  0
  -28.9331  -12.9141   19.4254 C   0  0  0  0  0  0  0  0  0  0  0  0
  -28.1176  -22.8389   22.8548 C   0  0  0  0  0  0  0  0  0  0  0  0
  -29.6062  -26.2508   17.4849 C   0  0  0  0  0  0  0  0  0  0  0  0
  -28.2182  -14.2520   19.2653 C   0  0  0  0  0  0  0  0  0  0  0  0
  -27.5720  -21.4143   22.7908 C   0  0  0  0  0  0  0  0  0  0  0  0
  -28.6559  -27.2488   18.1472 C   0  0  0  0  0  0  0  0  0  0  0  0
  -30.3167  -25.3966   18.5293 C   0  0  0  0  0  0  0  0  0  0  0  0
  -29.1911  -23.0785   21.8007 C   0  0  0  0  0  0  0  0  0  0  0  0
  -28.4382  -25.6531   20.1143 C   0  0  0  0  0  0  0  0  0  0  0  0
  -28.2539  -15.0562   20.5705 C   0  0  1  0  0  0  0  0  0  0  0  0
  -25.1137  -14.2651   22.5570 C   0  0  1  0  0  0  0  0  0  0  0  0
  -27.1288  -21.0182   21.3732 C   0  0  2  0  0  0  0  0  0  0  0  0
  -27.6813  -26.5347   19.1009 C   0  0  1  0  0  0  0  0  0  0  0  0
  -28.2369  -21.2939   20.3302 C   0  0  2  0  0  0  0  0  0  0  0  0
  -18.3704  -10.5250   21.8203 C   0  0  0  0  0  0  0  0  0  0  0  0
  -28.8236  -18.8573   20.1800 C   0  0  0  0  0  0  0  0  0  0  0  0
  -30.4546  -20.5927   19.3852 C   0  0  0  0  0  0  0  0  0  0  0  0
  -21.2774  -24.2967   23.9196 C   0  0  0  0  0  0  0  0  0  0  0  0
  -23.5700  -24.6178   22.9991 C   0  0  0  0  0  0  0  0  0  0  0  0
  -23.2332  -13.4596   18.4127 C   0  0  0  0  0  0  0  0  0  0  0  0
  -20.9391  -12.4574   18.4455 C   0  0  0  0  0  0  0  0  0  0  0  0
  -22.9194  -11.0548   19.0235 C   0  0  0  0  0  0  0  0  0  0  0  0
  -19.7196  -12.1765   24.9712 C   0  0  0  0  0  0  0  0  0  0  0  0
  -24.6927  -21.3485   21.9168 C   0  0  0  0  0  0  0  0  0  0  0  0
  -25.8291  -21.7360   20.9841 C   0  0  0  0  0  0  0  0  0  0  0  0
  -21.1218  -21.5788   22.4888 C   0  0  0  0  0  0  0  0  0  0  0  0
  -21.3046  -20.0630   22.5136 C   0  0  0  0  0  0  0  0  0  1  0  0
  -22.4350  -22.3555   22.6987 C   0  0  2  0  0  0  0  0  0  0  0  0
  -22.1290  -12.8161   20.6561 C   0  0  1  0  0  0  0  0  0  0  0  0
  -19.4363  -11.1278   22.7221 C   0  0  2  0  0  0  0  0  0  0  0  0
  -29.3699  -20.2630   20.4047 C   0  0  0  0  0  0  0  0  0  0  0  0
  -22.2319  -23.8934   22.7907 C   0  0  0  0  0  0  0  0  0  0  0  0
  -22.3117  -12.4687   19.1516 C   0  0  0  0  0  0  0  0  0  0  0  0
  -27.1941  -28.7426   20.0858 N   0  0  0  0  0  0  0  0  0  0  0  0
  -26.7480  -27.5085   19.7961 N   0  0  0  0  0  0  0  0  0  0  0  0
  -23.7715  -14.0910   21.9981 N   0  0  0  0  0  0  0  0  0  0  0  0
  -29.3552  -24.7410   19.4152 N   0  0  0  0  0  0  0  0  0  0  0  0
  -28.7510  -22.6715   20.4562 N   0  0  0  0  0  0  0  0  0  0  0  0
  -24.8537  -26.0965   19.9660 N   0  0  0  0  0  0  0  0  0  0  0  0
  -23.4613  -29.9429   21.8798 N   0  0  0  0  0  0  0  0  0  0  0  0
  -27.2762  -14.5441   21.5066 N   0  0  0  0  0  0  0  0  0  0  0  0
  -21.2829  -11.8792   21.3872 N   0  0  0  0  0  0  0  0  0  0  0  0
  -18.7835  -11.5831   23.9820 N   0  3  0  0  0  0  0  0  0  0  0  0
  -22.8429  -27.8019   21.3390 O   0  0  0  0  0  0  0  0  0  0  0  0
  -25.4250  -15.7199   20.7235 O   0  0  0  0  0  0  0  0  0  0  0  0
  -23.1053  -22.3254   20.3798 O   0  0  0  0  0  0  0  0  0  0  0  0
  -24.1472  -11.8559   21.4508 O   0  0  0  0  0  0  0  0  0  0  0  0
  -19.7203  -13.4421   22.0892 O   0  0  0  0  0  0  0  0  0  0  0  0
  -29.2446  -22.7844   18.2018 O   0  0  0  0  0  0  0  0  0  0  0  0
  -26.4661  -34.5942   22.4895 O   0  0  0  0  0  0  0  0  0  0  0  0
  -21.8560  -19.6901   23.7703 O   0  0  0  0  0  0  0  0  0  1  0  0
  -24.4710  -35.7085   27.5076 F   0  0  0  0  0  0  0  0  0  0  0  0
  -23.8070  -34.1375   23.0921 F   0  0  0  0  0  0  0  0  0  0  0  0
  1  2  1  0  0  0  0
  1  5  2  0  0  0  0
  2  6  2  0  0  0  0
  3  8  2  0  0  0  0
  3 15  1  0  0  0  0
  4  9  1  0  0  0  0
  4 15  2  0  0  0  0
  5 17  1  0  0  0  0
  6 19  1  0  0  0  0
  7 10  2  0  0  0  0
  7 18  1  0  0  0  0
  8 21  1  0  0  0  0
  9 21  2  0  0  0  0
 10 22  1  0  0  0  0
 11 12  2  0  0  0  0
 11 23  1  0  0  0  0
 12 24  1  0  0  0  0
 13 20  1  0  0  0  0
 13 22  2  0  0  0  0
 14 24  2  0  0  0  0
 14 25  1  0  0  0  0
 15 26  1  0  0  0  0
 16 26  1  0  0  0  0
 16 27  2  0  0  0  0
 16 28  1  0  0  0  0
 17 19  2  0  0  0  0
 17 34  1  0  0  0  0
 18 20  2  0  0  0  0
 18 35  1  0  0  0  0
 19 46  1  0  0  0  0
 20 36  1  0  0  0  0
 21 86  1  0  0  0  0
 22 87  1  0  0  0  0
 23 25  2  0  0  0  0
 23 86  1  0  0  0  0
 24 88  1  0  0  0  0
 25 89  1  0  0  0  0
 26 70  2  0  0  0  0
 27 71  1  0  0  0  0
 27 75  1  0  0  0  0
 28 76  1  0  0  0  0
 28 80  2  0  0  0  0
 29 47  1  0  0  0  0
 29 77  1  0  0  0  0
 29 81  2  0  0  0  0
 30 60  1  0  0  0  0
 30 64  1  0  0  0  0
 30 82  2  0  0  0  0
 31 65  1  0  0  0  0
 31 72  1  0  0  0  0
 31 83  2  0  0  0  0
 32 66  1  0  0  0  0
 32 78  1  0  0  0  0
 32 84  2  0  0  0  0
 33 73  1  0  0  0  0
 33 74  1  0  0  0  0
 33 85  2  0  0  0  0
 34 37  1  0  0  0  0
 35 47  1  0  0  0  0
 36 72  1  0  0  0  0
 37 40  1  0  0  0  0
 38 41  1  0  0  0  0
 38 44  1  0  0  0  0
 39 42  1  0  0  0  0
 39 43  1  0  0  0  0
 40 46  1  0  0  0  0
 41 48  1  0  0  0  0
 42 49  1  0  0  0  0
 43 73  1  0  0  0  0
 44 74  1  0  0  0  0
 45 49  1  0  0  0  0
 45 73  1  0  0  0  0
 46 77  1  0  0  0  0
 47 72  1  0  0  0  0
 48 50  1  0  0  0  0
 48 61  1  0  0  0  0
 49 71  1  0  0  0  0
 50 67  1  0  0  0  0
 50 74  1  0  0  0  0
 51 66  1  0  0  0  0
 52 67  1  0  0  0  0
 53 67  1  0  0  0  0
 54 68  1  0  0  0  0
 55 68  1  0  0  0  0
 56 69  1  0  0  0  0
 57 69  1  0  0  0  0
 58 69  1  0  0  0  0
 59 79  1  0  0  0  0
 60 61  1  0  0  0  0
 62 63  1  0  0  0  0
 62 64  1  0  0  0  0
 63 87  1  0  0  0  0
 64 68  1  0  0  0  0
 65 69  1  0  0  0  0
 65 78  1  0  0  0  0
 66 79  1  0  0  0  0
 70 71  1  0  0  0  0
M  CHG  1  79   1
M  ISO  4  33 100  63 101  74 100  87 101
M  END
> <Batch ID>
0023

> <Smiles>
CNC(C)C(=O)NC(C(=O)N1Cc2cc([101O:1][101CH2:1]CC(C(=O)CCC3CCC[100N:0]([100C:0](=O)N4CCCC(n5nc(-c6ccc(Oc7ccc(F)cc7F)cc6)c(C(N)=O)c5N)C4)C3C(C)C)C(C)C)ccc2CC1C(=O)NC1CCCc2ccccc21)C(C)(C)C

> <Shape>
0.261

> <Color>
0.065

> <Negative vol penalty>
0.000

$$$$

  -OEChem-04052316193D

 92100  0     1  0  0  0  0  0999 V2000
  -35.7920  -32.5046   16.0837 C   0  0  0  0  0  0  0  0  0  0  0  0
  -35.8838  -31.1651   15.7195 C   0  0  0  0  0  0  0  0  0  0  0  0
  -23.0026   -9.8896   19.9830 C   0  0  0  0  0  0  0  0  0  0  0  0
  -23.7309   -9.9443   22.2859 C   0  0  0  0  0  0  0  0  0  0  0  0
  -35.6195  -32.8514   17.4231 C   0  0  0  0  0  0  0  0  0  0  0  0
  -35.8042  -30.1715   16.6947 C   0  0  0  0  0  0  0  0  0  0  0  0
  -33.4715  -23.4671   17.6565 C   0  0  0  0  0  0  0  0  0  0  0  0
  -22.2389   -8.7537   20.2515 C   0  0  0  0  0  0  0  0  0  0  0  0
  -22.9672   -8.8084   22.5545 C   0  0  0  0  0  0  0  0  0  0  0  0
  -33.9152  -22.2278   18.1161 C   0  0  0  0  0  0  0  0  0  0  0  0
  -23.2180   -5.4696   22.0854 C   0  0  0  0  0  0  0  0  0  0  0  0
  -23.8088   -4.4544   22.8376 C   0  0  0  0  0  0  0  0  0  0  0  0
  -33.5371  -22.9421   20.3890 C   0  0  0  0  0  0  0  0  0  0  0  0
  -22.0868   -4.6952   24.5151 C   0  0  0  0  0  0  0  0  0  0  0  0
  -30.8955  -19.4469   19.2604 C   0  0  0  0  0  0  0  0  0  0  0  0
  -23.7487  -10.4849   21.0002 C   0  0  0  0  0  0  0  0  0  0  0  0
  -24.1283  -13.0011   20.8213 C   0  0  0  0  0  0  0  0  0  0  0  0
  -35.5280  -31.8613   18.4140 C   0  0  0  0  0  0  0  0  0  0  0  0
  -33.0670  -24.4587   18.5618 C   0  0  0  0  0  0  0  0  0  0  0  0
  -35.6316  -30.5055   18.0488 C   0  0  0  0  0  0  0  0  0  0  0  0
  -33.0863  -24.1922   19.9383 C   0  0  0  0  0  0  0  0  0  0  0  0
  -31.5415  -18.5058   20.0313 C   0  0  0  0  0  0  0  0  0  0  0  0
  -30.5717  -17.9145   20.8781 C   0  0  0  0  0  0  0  0  0  0  0  0
  -22.2211   -8.2131   21.5372 C   0  0  0  0  0  0  0  0  0  0  0  0
  -33.9508  -21.9662   19.4826 C   0  0  0  0  0  0  0  0  0  0  0  0
  -22.0616   -6.0977   22.5480 C   0  0  0  0  0  0  0  0  0  0  0  0
  -23.2432   -4.0671   24.0524 C   0  0  0  0  0  0  0  0  0  0  0  0
  -21.4960   -5.7104   23.7628 C   0  0  0  0  0  0  0  0  0  0  0  0
  -24.5382  -11.6579   20.7233 C   0  0  0  0  0  0  0  0  0  0  0  0
  -29.3625  -18.5122   20.5987 C   0  0  0  0  0  0  0  0  0  0  0  0
  -25.2360  -13.7257   20.4546 C   0  0  0  0  0  0  0  0  0  0  0  0
  -22.8597  -13.5452   21.2091 C   0  0  0  0  0  0  0  0  0  0  0  0
  -34.0708  -27.3890   19.2753 C   0  0  0  0  0  0  0  0  0  0  0  0
  -31.4263  -27.4164   21.1537 C   0  0  0  0  0  0  0  0  0  0  0  0
  -29.0916  -25.6387   22.8959 C   0  0  0  0  0  0  0  0  0  0  0  0
  -30.7307  -14.6724   20.6943 C   0  0  0  0  0  0  0  0  0  0  0  0
  -35.3889  -32.2864   19.8544 C   0  0  0  0  0  0  0  0  0  0  0  0
  -32.5657  -25.7808   18.0488 C   0  0  0  0  0  0  0  0  0  0  0  0
  -32.6434  -25.2158   20.9505 C   0  0  0  0  0  0  0  0  0  0  0  0
  -34.9384  -31.1602   20.7811 C   0  0  0  0  0  0  0  0  0  0  0  0
  -29.5919  -12.2440   18.3528 C   0  0  0  0  0  0  0  0  0  0  0  0
  -35.7418  -29.8921   20.5099 C   0  0  0  0  0  0  0  0  0  0  0  0
  -28.1445  -11.9816   18.7727 C   0  0  0  0  0  0  0  0  0  0  0  0
  -30.4955  -12.4825   19.5605 C   0  0  0  0  0  0  0  0  0  0  0  0
  -28.5856  -13.2752   20.9013 C   0  0  0  0  0  0  0  0  0  0  0  0
  -35.5249  -29.3980   19.0746 C   0  0  1  0  0  0  0  0  0  0  0  0
  -32.6637  -26.8987   19.0823 C   0  0  1  0  0  0  0  0  0  0  0  0
  -27.6253  -13.0843   19.7148 C   0  0  2  0  0  0  0  0  0  0  0  0
  -24.7763  -21.7455   21.6879 C   0  0  0  0  0  0  0  0  0  0  0  0
  -27.0271  -25.2152   24.2583 C   0  0  0  0  0  0  0  0  0  0  0  0
  -30.6885  -16.0801   24.3412 C   0  0  0  0  0  0  0  0  0  0  0  0
  -31.2383  -18.4572   23.8248 C   0  0  0  0  0  0  0  0  0  0  0  0
  -33.2388  -28.2031   23.4787 C   0  0  0  0  0  0  0  0  0  0  0  0
  -31.3915  -27.5652   25.0436 C   0  0  0  0  0  0  0  0  0  0  0  0
  -31.0523  -29.4146   23.4043 C   0  0  0  0  0  0  0  0  0  0  0  0
  -26.7646  -20.4289   24.7917 C   0  0  0  0  0  0  0  0  0  0  0  0
  -24.4000  -19.9284   24.1894 C   0  0  0  0  0  0  0  0  0  0  0  0
  -28.5626  -20.2956   19.0257 C   0  0  0  0  0  0  0  0  0  0  0  0
  -27.4101  -25.3648   20.4758 C   0  0  0  0  0  0  0  0  0  0  0  0
  -33.0115  -18.1750   19.9755 C   0  0  0  0  0  0  0  0  0  0  0  0
  -28.0252  -18.2786   21.1839 C   0  0  0  0  0  0  0  0  0  0  0  0
  -25.7057  -21.6755   22.8935 C   0  0  0  0  0  0  0  0  0  0  0  0
  -33.8190  -18.7599   21.1364 C   0  0  0  0  0  0  0  0  0  0  0  0
  -26.2187  -19.1470   22.6743 C   0  0  0  0  0  0  0  0  0  0  0  0
  -33.8265  -20.2840   21.1591 C   0  0  0  0  0  0  0  0  0  1  0  0
  -30.8104  -16.8526   21.8773 C   0  0  1  0  0  0  0  0  0  0  0  0
  -31.1241  -27.0256   22.5801 C   0  0  1  0  0  0  0  0  0  0  0  0
  -27.5773  -25.7369   22.9400 C   0  0  2  0  0  0  0  0  0  0  0  0
  -30.4429  -17.2317   23.3558 C   0  0  0  0  0  0  0  0  0  0  0  0
  -31.7119  -28.0333   23.6080 C   0  0  0  0  0  0  0  0  0  0  0  0
  -25.7812  -20.2979   23.6081 C   0  0  0  0  0  0  0  0  0  0  0  0
  -25.8072  -11.5338   20.3254 N   0  0  0  0  0  0  0  0  0  0  0  0
  -29.5713  -19.4418   19.6137 N   0  0  0  0  0  0  0  0  0  0  0  0
  -26.2042  -12.8082   20.1700 N   0  0  0  0  0  0  0  0  0  0  0  0
  -32.1676  -26.4955   20.3997 N   0  0  0  0  0  0  0  0  0  0  0  0
  -29.9476  -13.5408   20.4124 N   0  0  0  0  0  0  0  0  0  0  0  0
  -25.4665  -15.0518   20.3509 N   0  0  0  0  0  0  0  0  0  0  0  0
  -21.8303  -12.6591   21.5549 N   0  0  0  0  0  0  0  0  0  0  0  0
  -34.2503  -28.7223   18.9598 N   0  0  0  0  0  0  0  0  0  0  0  0
  -29.6763  -26.8652   22.6615 N   0  0  0  0  0  0  0  0  0  0  0  0
  -30.1334  -15.6306   21.5041 N   0  0  0  0  0  0  0  0  0  0  0  0
  -26.9742  -24.9434   21.8321 N   0  3  0  0  0  0  0  0  0  0  0  0
  -27.5839  -19.3490   22.1286 N   0  3  0  0  0  0  0  0  0  0  0  0
  -22.6404  -14.7800   21.2320 O   0  0  0  0  0  0  0  0  0  0  0  0
  -34.9298  -26.6153   19.6819 O   0  0  0  0  0  0  0  0  0  0  0  0
  -31.0136  -28.4958   20.7220 O   0  0  0  0  0  0  0  0  0  0  0  0
  -29.6954  -24.5804   23.0571 O   0  0  0  0  0  0  0  0  0  0  0  0
  -31.8752  -14.8203   20.2525 O   0  0  0  0  0  0  0  0  0  0  0  0
  -21.4758   -7.1049   21.7997 O   0  0  0  0  0  0  0  0  0  0  0  0
  -34.3840  -20.7577   19.9339 O   0  0  0  0  0  0  0  0  0  1  0  0
  -23.8098   -3.0911   24.7740 F   0  0  0  0  0  0  0  0  0  0  0  0
  -20.3845   -6.3093   24.2119 F   0  0  0  0  0  0  0  0  0  0  0  0
  1  2  1  0  0  0  0
  1  5  2  0  0  0  0
  2  6  2  0  0  0  0
  3  8  2  0  0  0  0
  3 16  1  0  0  0  0
  4  9  1  0  0  0  0
  4 16  2  0  0  0  0
  5 18  1  0  0  0  0
  6 20  1  0  0  0  0
  7 10  2  0  0  0  0
  7 19  1  0  0  0  0
  8 24  1  0  0  0  0
  9 24  2  0  0  0  0
 10 25  1  0  0  0  0
 11 12  2  0  0  0  0
 11 26  1  0  0  0  0
 12 27  1  0  0  0  0
 13 21  1  0  0  0  0
 13 25  2  0  0  0  0
 14 27  2  0  0  0  0
 14 28  1  0  0  0  0
 15 22  2  0  0  0  0
 15 73  1  0  0  0  0
 16 29  1  0  0  0  0
 17 29  1  0  0  0  0
 17 31  2  0  0  0  0
 17 32  1  0  0  0  0
 18 20  2  0  0  0  0
 18 37  1  0  0  0  0
 19 21  2  0  0  0  0
 19 38  1  0  0  0  0
 20 46  1  0  0  0  0
 21 39  1  0  0  0  0
 22 23  1  0  0  0  0
 22 60  1  0  0  0  0
 23 30  2  0  0  0  0
 23 66  1  0  0  0  0
 24 89  1  0  0  0  0
 25 90  1  0  0  0  0
 26 28  2  0  0  0  0
 26 89  1  0  0  0  0
 27 91  1  0  0  0  0
 28 92  1  0  0  0  0
 29 72  2  0  0  0  0
 30 61  1  0  0  0  0
 30 73  1  0  0  0  0
 31 74  1  0  0  0  0
 31 77  1  0  0  0  0
 32 78  1  0  0  0  0
 32 84  2  0  0  0  0
 33 47  1  0  0  0  0
 33 79  1  0  0  0  0
 33 85  2  0  0  0  0
 34 67  1  0  0  0  0
 34 75  1  0  0  0  0
 34 86  2  0  0  0  0
 35 68  1  0  0  0  0
 35 80  1  0  0  0  0
 35 87  2  0  0  0  0
 36 76  1  0  0  0  0
 36 81  1  0  0  0  0
 36 88  2  0  0  0  0
 37 40  1  0  0  0  0
 38 47  1  0  0  0  0
 39 75  1  0  0  0  0
 40 42  1  0  0  0  0
 41 43  1  0  0  0  0
 41 44  1  0  0  0  0
 42 46  1  0  0  0  0
 43 48  1  0  0  0  0
 44 76  1  0  0  0  0
 45 48  1  0  0  0  0
 45 76  1  0  0  0  0
 46 79  1  0  0  0  0
 47 75  1  0  0  0  0
 48 74  1  0  0  0  0
 49 62  1  0  0  0  0
 50 68  1  0  0  0  0
 51 69  1  0  0  0  0
 52 69  1  0  0  0  0
 53 70  1  0  0  0  0
 54 70  1  0  0  0  0
 55 70  1  0  0  0  0
 56 71  1  0  0  0  0
 57 71  1  0  0  0  0
 58 73  1  0  0  0  0
 59 82  1  0  0  0  0
 60 63  1  0  0  0  0
 61 83  1  0  0  0  0
 62 71  1  0  0  0  0
 63 65  1  0  0  0  0
 64 71  1  0  0  0  0
 64 83  1  0  0  0  0
 65 90  1  0  0  0  0
 66 69  1  0  0  0  0
 66 81  1  0  0  0  0
 67 70  1  0  0  0  0
 67 80  1  0  0  0  0
 68 82  1  0  0  0  0
 72 74  1  0  0  0  0
M  CHG  2  82   1  83   1
M  ISO  4  36 100  65 101  81 100  90 101
M  END
> <Batch ID>
0023

> <Smiles>
CCC(C)(C)CNCc1c(C([100NH:0][100C:0](=O)N2CCCC(n3nc(-c4ccc(Oc5ccc(F)cc5F)cc4)c(C(N)=O)c3N)C2)C(C)C)c(CC[101CH2:1][101O:1]c2ccc3c(c2)CN(C(=O)C(NC(=O)C(C)NC)C(C)(C)C)C(C(=O)NC2CCCc4ccccc42)C3)cn1C

> <Shape>
0.223

> <Color>
0.185

> <Negative vol penalty>
0.000

$$$$

  -OEChem-04052316193D

100109  0     1  0  0  0  0  0999 V2000
  -14.3478  -30.4865   22.9612 C   0  0  0  0  0  0  0  0  0  0  0  0
  -15.3263  -31.4508   23.1807 C   0  0  0  0  0  0  0  0  0  0  0  0
  -24.3936   -9.7805   21.0165 C   0  0  0  0  0  0  0  0  0  0  0  0
  -24.9397  -10.6388   23.2078 C   0  0  0  0  0  0  0  0  0  0  0  0
  -14.6739  -29.1333   23.0409 C   0  0  0  0  0  0  0  0  0  0  0  0
  -16.6313  -31.0623   23.4813 C   0  0  0  0  0  0  0  0  0  0  0  0
  -21.7947  -33.8976   21.8061 C   0  0  0  0  0  0  0  0  0  0  0  0
  -24.0904   -8.5401   21.5779 C   0  0  0  0  0  0  0  0  0  0  0  0
  -24.6365   -9.3985   23.7693 C   0  0  0  0  0  0  0  0  0  0  0  0
  -22.6381  -34.7832   22.4756 C   0  0  0  0  0  0  0  0  0  0  0  0
  -21.5211   -7.1303   23.2644 C   0  0  0  0  0  0  0  0  0  0  0  0
  -20.3525   -6.4962   22.8428 C   0  0  0  0  0  0  0  0  0  0  0  0
  -24.0664  -32.9419   23.0991 C   0  0  0  0  0  0  0  0  0  0  0  0
  -28.7581  -21.2440   22.8676 C   0  0  0  0  0  0  0  0  0  0  0  0
  -30.6150  -19.2137   22.4654 C   0  0  0  0  0  0  0  0  0  0  0  0
  -21.6544   -4.6185   22.0579 C   0  0  0  0  0  0  0  0  0  0  0  0
  -24.8183  -10.8299   21.8315 C   0  0  0  0  0  0  0  0  0  0  0  0
  -24.2520  -13.1909   21.0488 C   0  0  0  0  0  0  0  0  0  0  0  0
  -15.9858  -28.7280   23.3331 C   0  0  0  0  0  0  0  0  0  0  0  0
  -22.0754  -32.5239   21.7873 C   0  0  0  0  0  0  0  0  0  0  0  0
  -16.9750  -29.7024   23.5663 C   0  0  0  0  0  0  0  0  0  0  0  0
  -23.2263  -32.0413   22.4265 C   0  0  0  0  0  0  0  0  0  0  0  0
  -28.3884  -20.1019   22.1370 C   0  0  0  0  0  0  0  0  0  0  0  0
  -30.9727  -20.3601   23.1792 C   0  0  0  0  0  0  0  0  0  0  0  0
  -29.3241  -19.0667   21.9281 C   0  0  0  0  0  0  0  0  0  0  0  0
  -24.2118   -8.3491   22.9542 C   0  0  0  0  0  0  0  0  0  0  0  0
  -23.7726  -34.3050   23.1247 C   0  0  0  0  0  0  0  0  0  0  0  0
  -22.7565   -6.5085   23.0826 C   0  0  0  0  0  0  0  0  0  0  0  0
  -30.0456  -21.3752   23.3797 C   0  0  0  0  0  0  0  0  0  0  0  0
  -20.4191   -5.2403   22.2396 C   0  0  0  0  0  0  0  0  0  0  0  0
  -22.8231   -5.2526   22.4795 C   0  0  0  0  0  0  0  0  0  0  0  0
  -25.1322  -12.1112   21.2521 C   0  0  0  0  0  0  0  0  0  0  0  0
  -25.0308  -14.1653   20.4740 C   0  0  0  0  0  0  0  0  0  0  0  0
  -22.8552  -13.3029   21.3525 C   0  0  0  0  0  0  0  0  0  0  0  0
  -20.5910  -29.9165   22.8371 C   0  0  0  0  0  0  0  0  0  0  0  0
  -23.0050  -28.3946   21.2949 C   0  0  0  0  0  0  0  0  0  0  0  0
  -26.1888  -28.5094   20.0713 C   0  0  0  0  0  0  0  0  0  0  0  0
  -29.9140  -17.0193   20.6437 C   0  0  0  0  0  0  0  0  0  0  0  0
  -16.2799  -27.2538   23.4553 C   0  0  0  0  0  0  0  0  0  0  0  0
  -21.1699  -31.5851   21.0381 C   0  0  0  0  0  0  0  0  0  0  0  0
  -26.9770  -20.0158   21.6179 C   0  0  0  0  0  0  0  0  0  0  0  0
  -23.5833  -30.5781   22.4188 C   0  0  0  0  0  0  0  0  0  0  0  0
  -17.7697  -26.9241   23.4095 C   0  0  0  0  0  0  0  0  0  0  0  0
  -26.8617  -19.0027   20.4912 C   0  0  0  0  0  0  0  0  0  0  0  0
  -29.7112  -13.9748   18.5815 C   0  0  0  0  0  0  0  0  0  0  0  0
  -18.5524  -27.8624   24.3226 C   0  0  0  0  0  0  0  0  0  0  0  0
  -28.4586  -13.2844   19.1211 C   0  0  0  0  0  0  0  0  0  0  0  0
  -27.5154  -17.6965   20.9123 C   0  0  0  0  0  0  0  0  0  0  0  0
  -30.4121  -14.8036   19.6548 C   0  0  0  0  0  0  0  0  0  0  0  0
  -28.2812  -15.0933   20.8723 C   0  0  0  0  0  0  0  0  0  0  0  0
  -18.4074  -29.3204   23.8704 C   0  0  1  0  0  0  0  0  0  0  0  0
  -21.2763  -30.1413   21.5190 C   0  0  1  0  0  0  0  0  0  0  0  0
  -27.5203  -14.2965   19.8029 C   0  0  2  0  0  0  0  0  0  0  0  0
  -32.3575  -20.4729   23.7274 C   0  0  0  0  0  0  0  0  0  0  0  0
  -27.8997  -27.0988   18.8964 C   0  0  0  0  0  0  0  0  0  0  0  0
  -25.4440  -36.9872   25.9388 C   0  0  0  0  0  0  0  0  0  0  0  0
  -23.5637  -26.9070   23.8997 C   0  0  0  0  0  0  0  0  0  0  0  0
  -25.7972  -26.2614   22.9707 C   0  0  0  0  0  0  0  0  0  0  0  0
  -23.7094  -25.4955   21.8404 C   0  0  0  0  0  0  0  0  0  0  0  0
  -26.2833  -30.3483   17.7543 C   0  0  0  0  0  0  0  0  0  0  0  0
  -31.3686  -32.4708   23.8083 C   0  0  0  0  0  0  0  0  0  0  0  0
  -30.4639  -31.2789   23.4834 C   0  0  0  0  0  0  0  0  0  0  0  0
  -30.7285  -33.7872   23.3587 C   0  0  0  0  0  0  0  0  0  0  0  0
  -31.0584  -29.9305   23.9002 C   0  0  0  0  0  0  0  0  0  0  0  0
  -31.5541  -35.0255   23.7240 C   0  0  0  0  0  0  0  0  0  0  0  0
  -30.1658  -28.7371   23.5523 C   0  0  0  0  0  0  0  0  0  0  0  0
  -30.9256  -36.3374   23.2463 C   0  0  0  0  0  0  0  0  0  0  0  0
  -30.8222  -27.4167   23.9623 C   0  0  0  0  0  0  0  0  0  0  0  0
  -29.5637  -36.6267   23.8886 C   0  0  0  0  0  0  0  0  0  0  0  0
  -29.9179  -26.2238   23.6460 C   0  0  0  0  0  0  0  0  0  0  0  0
  -28.9242  -37.9290   23.3961 C   0  0  0  0  0  0  0  0  0  0  0  0
  -30.5928  -24.9008   24.0200 C   0  0  0  0  0  0  0  0  0  0  0  0
  -27.6003  -38.2469   24.0821 C   0  0  0  0  0  0  0  0  0  0  0  0
  -29.6971  -23.6990   23.7452 C   0  0  0  0  0  0  0  0  0  0  0  0
  -24.2399  -36.5483   23.7611 C   0  0  0  0  0  0  0  0  0  1  0  0
  -24.3886  -27.9252   21.6751 C   0  0  1  0  0  0  0  0  0  0  0  0
  -26.7673  -28.1000   18.7288 C   0  0  2  0  0  0  0  0  0  0  0  0
  -25.2888  -37.3884   24.4809 C   0  0  2  0  0  0  0  0  0  0  0  0
  -24.3572  -26.6747   22.5985 C   0  0  0  0  0  0  0  0  0  0  0  0
  -26.3751  -12.3745   20.8398 N   0  0  0  0  0  0  0  0  0  0  0  0
  -26.2814  -13.6308   20.3716 N   0  0  0  0  0  0  0  0  0  0  0  0
  -28.9463  -17.8727   21.2168 N   0  0  0  0  0  0  0  0  0  0  0  0
  -22.6633  -29.6993   21.6781 N   0  0  0  0  0  0  0  0  0  0  0  0
  -29.4799  -15.7249   20.3046 N   0  0  0  0  0  0  0  0  0  0  0  0
  -24.7610  -15.4186   20.0511 N   0  0  0  0  0  0  0  0  0  0  0  0
  -22.2096  -12.2073   21.9417 N   0  0  0  0  0  0  0  0  0  0  0  0
  -19.2549  -29.5815   22.7267 N   0  0  0  0  0  0  0  0  0  0  0  0
  -25.1103  -27.7256   20.4231 N   0  0  0  0  0  0  0  0  0  0  0  0
  -27.2967  -29.2920   18.0077 N   0  3  0  0  0  0  0  0  0  0  0  0
  -26.5997  -37.1903   23.8027 N   0  3  0  0  0  0  0  0  0  0  0  0
  -22.1954  -14.3379   21.0936 O   0  0  0  0  0  0  0  0  0  0  0  0
  -21.2276  -30.0367   23.8773 O   0  0  0  0  0  0  0  0  0  0  0  0
  -22.2577  -27.6342   20.6745 O   0  0  0  0  0  0  0  0  0  0  0  0
  -26.6499  -29.4299   20.7425 O   0  0  0  0  0  0  0  0  0  0  0  0
  -31.0676  -17.3966   20.4046 O   0  0  0  0  0  0  0  0  0  0  0  0
  -23.9158   -7.1390   23.5024 O   0  0  0  0  0  0  0  0  0  0  0  0
  -24.6028  -35.1729   23.7838 O   0  0  0  0  0  0  0  0  0  1  0  0
  -30.3754  -22.4999   24.0908 O   0  0  0  0  0  0  0  0  0  0  0  0
  -19.2966   -4.6308   21.8362 F   0  0  0  0  0  0  0  0  0  0  0  0
  -24.0069   -4.6497   22.3033 F   0  0  0  0  0  0  0  0  0  0  0  0
  1  2  1  0  0  0  0
  1  5  2  0  0  0  0
  2  6  2  0  0  0  0
  3  8  2  0  0  0  0
  3 17  1  0  0  0  0
  4  9  1  0  0  0  0
  4 17  2  0  0  0  0
  5 19  1  0  0  0  0
  6 21  1  0  0  0  0
  7 10  2  0  0  0  0
  7 20  1  0  0  0  0
  8 26  1  0  0  0  0
  9 26  2  0  0  0  0
 10 27  1  0  0  0  0
 11 12  2  0  0  0  0
 11 28  1  0  0  0  0
 12 30  1  0  0  0  0
 13 22  1  0  0  0  0
 13 27  2  0  0  0  0
 14 23  2  0  0  0  0
 14 29  1  0  0  0  0
 15 24  1  0  0  0  0
 15 25  2  0  0  0  0
 16 30  2  0  0  0  0
 16 31  1  0  0  0  0
 17 32  1  0  0  0  0
 18 32  1  0  0  0  0
 18 33  2  0  0  0  0
 18 34  1  0  0  0  0
 19 21  2  0  0  0  0
 19 39  1  0  0  0  0
 20 22  2  0  0  0  0
 20 40  1  0  0  0  0
 21 51  1  0  0  0  0
 22 42  1  0  0  0  0
 23 25  1  0  0  0  0
 23 41  1  0  0  0  0
 24 29  2  0  0  0  0
 24 54  1  0  0  0  0
 25 82  1  0  0  0  0
 26 96  1  0  0  0  0
 27 97  1  0  0  0  0
 28 31  2  0  0  0  0
 28 96  1  0  0  0  0
 29 98  1  0  0  0  0
 30 99  1  0  0  0  0
 31100  1  0  0  0  0
 32 80  2  0  0  0  0
 33 81  1  0  0  0  0
 33 85  1  0  0  0  0
 34 86  1  0  0  0  0
 34 91  2  0  0  0  0
 35 52  1  0  0  0  0
 35 87  1  0  0  0  0
 35 92  2  0  0  0  0
 36 76  1  0  0  0  0
 36 83  1  0  0  0  0
 36 93  2  0  0  0  0
 37 77  1  0  0  0  0
 37 88  1  0  0  0  0
 37 94  2  0  0  0  0
 38 82  1  0  0  0  0
 38 84  1  0  0  0  0
 38 95  2  0  0  0  0
 39 43  1  0  0  0  0
 40 52  1  0  0  0  0
 41 44  1  0  0  0  0
 42 83  1  0  0  0  0
 43 46  1  0  0  0  0
 44 48  1  0  0  0  0
 45 47  1  0  0  0  0
 45 49  1  0  0  0  0
 46 51  1  0  0  0  0
 47 53  1  0  0  0  0
 48 82  1  0  0  0  0
 49 84  1  0  0  0  0
 50 53  1  0  0  0  0
 50 84  1  0  0  0  0
 51 87  1  0  0  0  0
 52 83  1  0  0  0  0
 53 81  1  0  0  0  0
 55 77  1  0  0  0  0
 56 78  1  0  0  0  0
 57 79  1  0  0  0  0
 58 79  1  0  0  0  0
 59 79  1  0  0  0  0
 60 89  1  0  0  0  0
 61 62  1  0  0  0  0
 61 63  1  0  0  0  0
 62 64  1  0  0  0  0
 63 65  1  0  0  0  0
 64 66  1  0  0  0  0
 65 67  1  0  0  0  0
 66 68  1  0  0  0  0
 67 69  1  0  0  0  0
 68 70  1  0  0  0  0
 69 71  1  0  0  0  0
 70 72  1  0  0  0  0
 71 73  1  0  0  0  0
 72 74  1  0  0  0  0
 73 90  1  0  0  0  0
 74 98  1  0  0  0  0
 75 78  1  0  0  0  0
 75 97  1  0  0  0  0
 76 79  1  0  0  0  0
 76 88  1  0  0  0  0
 77 89  1  0  0  0  0
 78 90  1  0  0  0  0
 80 81  1  0  0  0  0
M  CHG  2  89   1  90   1
M  ISO  4  38 100  75 101  82 100  97 101
M  END
> <Batch ID>
0023

> <Smiles>
CNC(C)C(=O)NC(C(=O)N1Cc2cc([101O:1][101CH2:1]C(C)NCCCCCCCCCCCCCCOc3cc4c(cc3C)[100N:0]([100C:0](=O)N3CCCC(n5nc(-c6ccc(Oc7ccc(F)cc7F)cc6)c(C(N)=O)c5N)C3)CCC4)ccc2CC1C(=O)NC1CCCc2ccccc21)C(C)(C)C

> <Shape>
0.304

> <Color>
0.133

> <Negative vol penalty>
0.000

$$$$

  -OEChem-04052316193D

 81 89  0     1  0  0  0  0  0999 V2000
  -16.8300  -27.8158   24.2550 C   0  0  0  0  0  0  0  0  0  0  0  0
  -17.0930  -26.8189   23.3210 C   0  0  0  0  0  0  0  0  0  0  0  0
  -22.4509  -10.5541   20.9322 C   0  0  0  0  0  0  0  0  0  0  0  0
  -24.3557   -9.0695   20.8639 C   0  0  0  0  0  0  0  0  0  0  0  0
  -17.5364  -29.0170   24.2085 C   0  0  0  0  0  0  0  0  0  0  0  0
  -18.0618  -27.0231   22.3391 C   0  0  0  0  0  0  0  0  0  0  0  0
  -23.7216  -22.6075   21.7390 C   0  0  0  0  0  0  0  0  0  0  0  0
  -21.6188   -9.4733   21.2237 C   0  0  0  0  0  0  0  0  0  0  0  0
  -23.5236   -7.9886   21.1554 C   0  0  0  0  0  0  0  0  0  0  0  0
  -24.7211  -21.6861   21.4256 C   0  0  0  0  0  0  0  0  0  0  0  0
  -22.0245   -6.6652   23.8797 C   0  0  0  0  0  0  0  0  0  0  0  0
  -22.4588   -5.7569   24.8450 C   0  0  0  0  0  0  0  0  0  0  0  0
  -25.5136  -23.1314   19.6562 C   0  0  0  0  0  0  0  0  0  0  0  0
  -22.3923   -3.9831   23.2060 C   0  0  0  0  0  0  0  0  0  0  0  0
  -23.8193  -10.3523   20.7522 C   0  0  0  0  0  0  0  0  0  0  0  0
  -24.5982  -12.3276   19.3384 C   0  0  0  0  0  0  0  0  0  0  0  0
  -18.5211  -29.2322   23.2315 C   0  0  0  0  0  0  0  0  0  0  0  0
  -23.6239  -23.8028   21.0214 C   0  0  0  0  0  0  0  0  0  0  0  0
  -18.7811  -28.2288   22.2786 C   0  0  0  0  0  0  0  0  0  0  0  0
  -24.5224  -24.0638   19.9738 C   0  0  0  0  0  0  0  0  0  0  0  0
  -22.1552   -8.1905   21.3353 C   0  0  0  0  0  0  0  0  0  0  0  0
  -25.6147  -21.9473   20.3866 C   0  0  0  0  0  0  0  0  0  0  0  0
  -21.7740   -6.2324   22.5775 C   0  0  0  0  0  0  0  0  0  0  0  0
  -22.6427   -4.4158   24.5082 C   0  0  0  0  0  0  0  0  0  0  0  0
  -21.9579   -4.8914   22.2406 C   0  0  0  0  0  0  0  0  0  0  0  0
  -24.6792  -11.4683   20.4505 C   0  0  0  0  0  0  0  0  0  0  0  0
  -25.6321  -13.2146   19.5138 C   0  0  0  0  0  0  0  0  0  0  0  0
  -23.6712  -12.3243   18.2446 C   0  0  0  0  0  0  0  0  0  0  0  0
  -21.8278  -27.0620   20.5440 C   0  0  0  0  0  0  0  0  0  0  0  0
  -24.8221  -27.6370   20.2069 C   0  0  0  0  0  0  0  0  0  0  0  0
  -28.2191  -27.9269   20.3261 C   0  0  0  0  0  0  0  0  0  0  0  0
  -28.6363  -16.6040   22.7745 C   0  0  0  0  0  0  0  0  0  0  0  0
  -19.2254  -30.5653   23.1920 C   0  0  0  0  0  0  0  0  0  0  0  0
  -22.5249  -24.7963   21.2840 C   0  0  0  0  0  0  0  0  0  0  0  0
  -24.3578  -25.3471   19.2064 C   0  0  0  0  0  0  0  0  0  0  0  0
  -20.4987  -30.5567   22.3501 C   0  0  0  0  0  0  0  0  0  0  0  0
  -29.5082  -13.1520   22.7631 C   0  0  0  0  0  0  0  0  0  0  0  0
  -20.2495  -29.8676   21.0122 C   0  0  0  0  0  0  0  0  0  0  0  0
  -28.3206  -12.4771   22.0746 C   0  0  0  0  0  0  0  0  0  0  0  0
  -29.0631  -14.3218   23.6380 C   0  0  0  0  0  0  0  0  0  0  0  0
  -27.0456  -14.6537   22.2621 C   0  0  0  0  0  0  0  0  0  0  0  0
  -19.8419  -28.4031   21.2135 C   0  0  1  0  0  0  0  0  0  0  0  0
  -22.9713  -26.2561   21.0867 C   0  0  1  0  0  0  0  0  0  0  0  0
  -28.9229  -19.0524   20.6170 C   0  0  1  0  0  0  0  0  0  0  0  0
  -28.2927  -19.0608   19.2451 C   0  0  1  0  0  0  0  0  0  0  0  0
  -28.8662  -20.3353   19.8156 C   0  0  1  0  0  0  0  0  0  0  0  0
  -27.4500  -13.5031   21.3246 C   0  0  2  0  0  0  0  0  0  0  0  0
  -30.0609  -29.6163   20.1010 C   0  0  0  0  0  0  0  0  0  0  0  0
  -28.7682  -16.8540   18.1460 C   0  0  0  0  0  0  0  0  0  0  0  0
  -28.4950  -18.9206   16.7466 C   0  0  0  0  0  0  0  0  0  0  0  0
  -28.1741  -21.9123   21.6420 C   0  0  0  0  0  0  0  0  0  0  0  0
  -28.1377  -22.6648   19.2608 C   0  0  0  0  0  0  0  0  0  0  0  0
  -24.4626  -27.6200   17.1780 C   0  0  0  0  0  0  0  0  0  0  0  0
  -26.8008  -28.4896   16.9667 C   0  0  0  0  0  0  0  0  0  0  0  0
  -25.0694  -29.8454   18.1444 C   0  0  0  0  0  0  0  0  0  0  0  0
  -29.1483  -27.4546   23.0960 C   0  0  0  0  0  0  0  0  0  0  0  0
  -28.0817  -18.8295   21.8264 C   0  0  0  0  0  0  0  0  0  0  0  0
  -25.9859  -27.7685   19.2573 C   0  0  1  0  0  0  0  0  0  0  0  0
  -29.1219  -28.9017   21.0603 C   0  0  2  0  0  0  0  0  0  0  0  0
  -28.9731  -18.3805   18.1078 C   0  0  0  0  0  0  0  0  0  0  0  0
  -27.9415  -21.4948   20.1899 C   0  0  0  0  0  0  0  0  0  1  0  0
  -25.5745  -28.4066   17.9005 C   0  0  0  0  0  0  0  0  0  0  0  0
  -25.6852  -11.7811   21.2716 N   0  0  0  0  0  0  0  0  0  0  0  0
  -26.2458  -12.8468   20.6749 N   0  0  0  0  0  0  0  0  0  0  0  0
  -24.0763  -26.4543   20.1335 N   0  0  0  0  0  0  0  0  0  0  0  0
  -28.2428  -15.2588   22.8665 N   0  0  0  0  0  0  0  0  0  0  0  0
  -26.0670  -14.2655   18.7865 N   0  0  0  0  0  0  0  0  0  0  0  0
  -23.9875  -11.5755   17.1029 N   0  0  0  0  0  0  0  0  0  0  0  0
  -21.0020  -27.5927   21.5165 N   0  0  0  0  0  0  0  0  0  0  0  0
  -27.0181  -28.5072   19.9764 N   0  0  0  0  0  0  0  0  0  0  0  0
  -27.8062  -17.4232   22.0191 N   0  0  0  0  0  0  0  0  0  0  0  0
  -29.9439  -28.1830   22.0746 N   0  3  0  0  0  0  0  0  0  0  0  0
  -22.6019  -12.9797   18.2721 O   0  0  0  0  0  0  0  0  0  0  0  0
  -21.7036  -27.1946   19.3321 O   0  0  0  0  0  0  0  0  0  0  0  0
  -24.5753  -28.5588   20.9897 O   0  0  0  0  0  0  0  0  0  0  0  0
  -28.5478  -26.7678   20.0835 O   0  0  0  0  0  0  0  0  0  0  0  0
  -29.6550  -17.0415   23.3203 O   0  0  0  0  0  0  0  0  0  0  0  0
  -21.3436   -7.1356   21.6200 O   0  0  0  0  0  0  0  0  0  0  0  0
  -26.5908  -21.0455   20.0889 O   0  0  0  0  0  0  0  0  0  1  0  0
  -23.0613   -3.5440   25.4350 F   0  0  0  0  0  0  0  0  0  0  0  0
  -21.7201   -4.4700   20.9910 F   0  0  0  0  0  0  0  0  0  0  0  0
  1  2  1  0  0  0  0
  1  5  2  0  0  0  0
  2  6  2  0  0  0  0
  3  8  2  0  0  0  0
  3 15  1  0  0  0  0
  4  9  1  0  0  0  0
  4 15  2  0  0  0  0
  5 17  1  0  0  0  0
  6 19  1  0  0  0  0
  7 10  2  0  0  0  0
  7 18  1  0  0  0  0
  8 21  1  0  0  0  0
  9 21  2  0  0  0  0
 10 22  1  0  0  0  0
 11 12  2  0  0  0  0
 11 23  1  0  0  0  0
 12 24  1  0  0  0  0
 13 20  1  0  0  0  0
 13 22  2  0  0  0  0
 14 24  2  0  0  0  0
 14 25  1  0  0  0  0
 15 26  1  0  0  0  0
 16 26  1  0  0  0  0
 16 27  2  0  0  0  0
 16 28  1  0  0  0  0
 17 19  2  0  0  0  0
 17 33  1  0  0  0  0
 18 20  2  0  0  0  0
 18 34  1  0  0  0  0
 19 42  1  0  0  0  0
 20 35  1  0  0  0  0
 21 78  1  0  0  0  0
 22 79  1  0  0  0  0
 23 25  2  0  0  0  0
 23 78  1  0  0  0  0
 24 80  1  0  0  0  0
 25 81  1  0  0  0  0
 26 63  2  0  0  0  0
 27 64  1  0  0  0  0
 27 67  1  0  0  0  0
 28 68  1  0  0  0  0
 28 73  2  0  0  0  0
 29 43  1  0  0  0  0
 29 69  1  0  0  0  0
 29 74  2  0  0  0  0
 30 58  1  0  0  0  0
 30 65  1  0  0  0  0
 30 75  2  0  0  0  0
 31 59  1  0  0  0  0
 31 70  1  0  0  0  0
 31 76  2  0  0  0  0
 32 66  1  0  0  0  0
 32 71  1  0  0  0  0
 32 77  2  0  0  0  0
 33 36  1  0  0  0  0
 34 43  1  0  0  0  0
 35 65  1  0  0  0  0
 36 38  1  0  0  0  0
 37 39  1  0  0  0  0
 37 40  1  0  0  0  0
 38 42  1  0  0  0  0
 39 47  1  0  0  0  0
 40 66  1  0  0  0  0
 41 47  1  0  0  0  0
 41 66  1  0  0  0  0
 42 69  1  0  0  0  0
 43 65  1  0  0  0  0
 44 45  1  0  0  0  0
 44 46  1  0  0  0  0
 44 57  1  0  0  0  0
 45 46  1  0  0  0  0
 45 60  1  0  0  0  0
 46 61  1  0  0  0  0
 47 64  1  0  0  0  0
 48 59  1  0  0  0  0
 49 60  1  0  0  0  0
 50 60  1  0  0  0  0
 51 61  1  0  0  0  0
 52 61  1  0  0  0  0
 53 62  1  0  0  0  0
 54 62  1  0  0  0  0
 55 62  1  0  0  0  0
 56 72  1  0  0  0  0
 57 71  1  0  0  0  0
 58 62  1  0  0  0  0
 58 70  1  0  0  0  0
 59 72  1  0  0  0  0
 61 79  1  0  0  0  0
 63 64  1  0  0  0  0
M  CHG  1  72   1
M  ISO  4  32 100  61 101  71 100  79 101
M  END
> <Batch ID>
0023

> <Smiles>
CNC(C)C(=O)NC(C(=O)N1Cc2cc([101O:1][101C:1](C)(C)C3C(C[100NH:0][100C:0](=O)N4CCCC(n5nc(-c6ccc(Oc7ccc(F)cc7F)cc6)c(C(N)=O)c5N)C4)C3C(C)C)ccc2CC1C(=O)NC1CCCc2ccccc21)C(C)(C)C

> <Shape>
0.267

> <Color>
0.102

> <Negative vol penalty>
0.000

$$$$

  -OEChem-04052316193D

 88 96  0     1  0  0  0  0  0999 V2000
  -18.5996  -32.0876   19.8655 C   0  0  0  0  0  0  0  0  0  0  0  0
  -19.8097  -31.5538   19.4340 C   0  0  0  0  0  0  0  0  0  0  0  0
  -23.5287   -9.6736   20.6337 C   0  0  0  0  0  0  0  0  0  0  0  0
  -23.9509  -10.3894   22.9023 C   0  0  0  0  0  0  0  0  0  0  0  0
  -18.3102  -32.1440   21.2282 C   0  0  0  0  0  0  0  0  0  0  0  0
  -20.7317  -31.0772   20.3652 C   0  0  0  0  0  0  0  0  0  0  0  0
  -24.5193  -26.3125   19.6888 C   0  0  0  0  0  0  0  0  0  0  0  0
  -22.8960   -8.5268   21.1133 C   0  0  0  0  0  0  0  0  0  0  0  0
  -23.3181   -9.2425   23.3819 C   0  0  0  0  0  0  0  0  0  0  0  0
  -25.8665  -26.2273   19.3400 C   0  0  0  0  0  0  0  0  0  0  0  0
  -23.8028   -5.5222   22.3681 C   0  0  0  0  0  0  0  0  0  0  0  0
  -24.1208   -4.3064   21.7629 C   0  0  0  0  0  0  0  0  0  0  0  0
  -26.4592  -26.1340   21.6765 C   0  0  0  0  0  0  0  0  0  0  0  0
  -31.2217  -18.1002   22.1884 C   0  0  0  0  0  0  0  0  0  0  0  0
  -29.2894  -19.9453   22.9912 C   0  0  0  0  0  0  0  0  0  0  0  0
  -21.8069   -4.0157   21.1314 C   0  0  0  0  0  0  0  0  0  0  0  0
  -24.0562  -10.6049   21.5282 C   0  0  0  0  0  0  0  0  0  0  0  0
  -24.1161  -13.0340   20.7516 C   0  0  0  0  0  0  0  0  0  0  0  0
  -19.2250  -31.6590   22.1760 C   0  0  0  0  0  0  0  0  0  0  0  0
  -24.1321  -26.3201   21.0365 C   0  0  0  0  0  0  0  0  0  0  0  0
  -20.4549  -31.1284   21.7420 C   0  0  0  0  0  0  0  0  0  0  0  0
  -25.1063  -26.2167   22.0397 C   0  0  0  0  0  0  0  0  0  0  0  0
  -31.6024  -19.2589   22.8652 C   0  0  0  0  0  0  0  0  0  0  0  0
  -30.6363  -20.1814   23.2666 C   0  0  0  0  0  0  0  0  0  0  0  0
  -29.8748  -17.8641   21.9129 C   0  0  0  0  0  0  0  0  0  0  0  0
  -22.7906   -8.3112   22.4873 C   0  0  0  0  0  0  0  0  0  0  0  0
  -26.8369  -26.1410   20.3340 C   0  0  0  0  0  0  0  0  0  0  0  0
  -22.4869   -5.9847   22.3551 C   0  0  0  0  0  0  0  0  0  0  0  0
  -23.1228   -3.5531   21.1445 C   0  0  0  0  0  0  0  0  0  0  0  0
  -21.4890   -5.2315   21.7367 C   0  0  0  0  0  0  0  0  0  0  0  0
  -28.9087  -18.7866   22.3143 C   0  0  0  0  0  0  0  0  0  0  0  0
  -24.7105  -11.7895   21.0334 C   0  0  0  0  0  0  0  0  0  0  0  0
  -25.1541  -13.8186   20.3118 C   0  0  0  0  0  0  0  0  0  0  0  0
  -22.7479  -13.4443   20.8762 C   0  0  0  0  0  0  0  0  0  0  0  0
  -22.6308  -28.3874   22.9275 C   0  0  0  0  0  0  0  0  0  0  0  0
  -22.7723  -25.9450   25.0575 C   0  0  0  0  0  0  0  0  0  0  0  0
  -24.3166  -23.0787   26.0803 C   0  0  0  0  0  0  0  0  0  0  0  0
  -30.3820  -15.6813   20.7621 C   0  0  0  0  0  0  0  0  0  0  0  0
  -18.8880  -31.7845   23.6407 C   0  0  0  0  0  0  0  0  0  0  0  0
  -22.6729  -26.3855   21.3956 C   0  0  0  0  0  0  0  0  0  0  0  0
  -24.7413  -26.2004   23.5008 C   0  0  0  0  0  0  0  0  0  0  0  0
  -19.7599  -30.9152   24.5431 C   0  0  0  0  0  0  0  0  0  0  0  0
  -29.9014  -12.5967   19.0499 C   0  0  0  0  0  0  0  0  0  0  0  0
  -21.2296  -31.0526   24.1585 C   0  0  0  0  0  0  0  0  0  0  0  0
  -28.4592  -12.2141   19.3901 C   0  0  0  0  0  0  0  0  0  0  0  0
  -30.6046  -13.2641   20.2305 C   0  0  0  0  0  0  0  0  0  0  0  0
  -28.4505  -14.0277   21.1502 C   0  0  0  0  0  0  0  0  0  0  0  0
  -21.4702  -30.5785   22.7202 C   0  0  1  0  0  0  0  0  0  0  0  0
  -22.4282  -26.9033   22.8096 C   0  0  1  0  0  0  0  0  0  0  0  0
  -27.6807  -13.4108   19.9710 C   0  0  2  0  0  0  0  0  0  0  0  0
  -33.0508  -19.4916   23.1456 C   0  0  0  0  0  0  0  0  0  0  0  0
  -24.2308  -21.3278   27.8760 C   0  0  0  0  0  0  0  0  0  0  0  0
  -29.7017  -23.7767   19.0416 C   0  0  0  0  0  0  0  0  0  0  0  0
  -24.0688  -27.8932   27.0155 C   0  0  0  0  0  0  0  0  0  0  0  0
  -24.8086  -25.9255   28.3753 C   0  0  0  0  0  0  0  0  0  0  0  0
  -22.3760  -26.3607   28.0355 C   0  0  0  0  0  0  0  0  0  0  0  0
  -32.4607  -23.5794   20.3210 C   0  0  0  0  0  0  0  0  0  0  0  0
  -23.7892  -20.9265   24.1184 C   0  0  0  0  0  0  0  0  0  0  0  0
  -31.0239  -21.4412   23.9992 C   0  0  0  0  0  0  0  0  0  0  0  0
  -31.6315  -22.5207   23.0938 C   0  0  0  0  0  0  0  0  0  0  0  0
  -30.6484  -23.0284   22.0271 C   0  0  0  0  0  0  0  0  0  0  0  0
  -29.0084  -25.3450   20.8880 C   0  0  0  0  0  0  0  0  0  1  0  0
  -23.7619  -25.4965   26.1056 C   0  0  1  0  0  0  0  0  0  0  0  0
  -23.7617  -21.7248   26.4850 C   0  0  2  0  0  0  0  0  0  0  0  0
  -30.2014  -24.7368   20.1291 C   0  0  1  0  0  0  0  0  0  0  0  0
  -23.7612  -26.4212   27.3556 C   0  0  0  0  0  0  0  0  0  0  0  0
  -31.2447  -24.1016   21.0924 C   0  0  2  0  0  0  0  0  0  0  0  0
  -26.0243  -11.7792   20.7927 N   0  0  0  0  0  0  0  0  0  0  0  0
  -26.2639  -13.0270   20.3549 N   0  0  0  0  0  0  0  0  0  0  0  0
  -23.3019  -26.2730   23.8014 N   0  0  0  0  0  0  0  0  0  0  0  0
  -29.8114  -14.3914   20.7253 N   0  0  0  0  0  0  0  0  0  0  0  0
  -25.2167  -15.1015   19.8961 N   0  0  0  0  0  0  0  0  0  0  0  0
  -21.8110  -12.5127   21.3437 N   0  0  0  0  0  0  0  0  0  0  0  0
  -29.5225  -16.6791   21.2205 N   0  0  0  0  0  0  0  0  0  0  0  0
  -21.4977  -29.1327   22.6626 N   0  0  0  0  0  0  0  0  0  0  0  0
  -23.4469  -24.1016   26.3941 N   0  0  0  0  0  0  0  0  0  0  0  0
  -24.2030  -20.6756   25.5230 N   0  3  0  0  0  0  0  0  0  0  0  0
  -22.3647  -14.5978   20.5662 O   0  0  0  0  0  0  0  0  0  0  0  0
  -23.7331  -28.8240   23.2374 O   0  0  0  0  0  0  0  0  0  0  0  0
  -21.5728  -25.9954   25.3406 O   0  0  0  0  0  0  0  0  0  0  0  0
  -25.4135  -23.2154   25.5432 O   0  0  0  0  0  0  0  0  0  0  0  0
  -31.5385  -15.8902   20.3869 O   0  0  0  0  0  0  0  0  0  0  0  0
  -22.1730   -7.1924   22.9557 O   0  0  0  0  0  0  0  0  0  0  0  0
  -28.1526  -26.0584   19.9964 O   0  0  0  0  0  0  0  0  0  1  0  0
  -23.4286   -2.3863   20.5621 F   0  0  0  0  0  0  0  0  0  0  0  0
  -20.2232   -5.6712   21.7199 F   0  0  0  0  0  0  0  0  0  0  0  0
  -31.7078  -25.1194   21.8901 F   0  0  0  0  0  0  0  0  0  0  0  0
  -27.2297  -18.5333   21.9941 Cl  0  0  0  0  0  0  0  0  0  0  0  0
  1  2  1  0  0  0  0
  1  5  2  0  0  0  0
  2  6  2  0  0  0  0
  3  8  2  0  0  0  0
  3 17  1  0  0  0  0
  4  9  1  0  0  0  0
  4 17  2  0  0  0  0
  5 19  1  0  0  0  0
  6 21  1  0  0  0  0
  7 10  2  0  0  0  0
  7 20  1  0  0  0  0
  8 26  1  0  0  0  0
  9 26  2  0  0  0  0
 10 27  1  0  0  0  0
 11 12  2  0  0  0  0
 11 28  1  0  0  0  0
 12 29  1  0  0  0  0
 13 22  1  0  0  0  0
 13 27  2  0  0  0  0
 14 23  1  0  0  0  0
 14 25  2  0  0  0  0
 15 24  1  0  0  0  0
 15 31  2  0  0  0  0
 16 29  2  0  0  0  0
 16 30  1  0  0  0  0
 17 32  1  0  0  0  0
 18 32  1  0  0  0  0
 18 33  2  0  0  0  0
 18 34  1  0  0  0  0
 19 21  2  0  0  0  0
 19 39  1  0  0  0  0
 20 22  2  0  0  0  0
 20 40  1  0  0  0  0
 21 48  1  0  0  0  0
 22 41  1  0  0  0  0
 23 24  2  0  0  0  0
 23 51  1  0  0  0  0
 24 59  1  0  0  0  0
 25 31  1  0  0  0  0
 25 74  1  0  0  0  0
 26 83  1  0  0  0  0
 27 84  1  0  0  0  0
 28 30  2  0  0  0  0
 28 83  1  0  0  0  0
 29 85  1  0  0  0  0
 30 86  1  0  0  0  0
 31 88  1  0  0  0  0
 32 68  2  0  0  0  0
 33 69  1  0  0  0  0
 33 72  1  0  0  0  0
 34 73  1  0  0  0  0
 34 78  2  0  0  0  0
 35 49  1  0  0  0  0
 35 75  1  0  0  0  0
 35 79  2  0  0  0  0
 36 63  1  0  0  0  0
 36 70  1  0  0  0  0
 36 80  2  0  0  0  0
 37 64  1  0  0  0  0
 37 76  1  0  0  0  0
 37 81  2  0  0  0  0
 38 71  1  0  0  0  0
 38 74  1  0  0  0  0
 38 82  2  0  0  0  0
 39 42  1  0  0  0  0
 40 49  1  0  0  0  0
 41 70  1  0  0  0  0
 42 44  1  0  0  0  0
 43 45  1  0  0  0  0
 43 46  1  0  0  0  0
 44 48  1  0  0  0  0
 45 50  1  0  0  0  0
 46 71  1  0  0  0  0
 47 50  1  0  0  0  0
 47 71  1  0  0  0  0
 48 75  1  0  0  0  0
 49 70  1  0  0  0  0
 50 69  1  0  0  0  0
 52 64  1  0  0  0  0
 53 65  1  0  0  0  0
 54 66  1  0  0  0  0
 55 66  1  0  0  0  0
 56 66  1  0  0  0  0
 57 67  1  0  0  0  0
 58 77  1  0  0  0  0
 59 60  1  0  0  0  0
 60 61  1  0  0  0  0
 61 67  1  0  0  0  0
 62 65  1  0  0  0  0
 62 84  1  0  0  0  0
 63 66  1  0  0  0  0
 63 76  1  0  0  0  0
 64 77  1  0  0  0  0
 65 67  1  0  0  0  0
 67 87  1  0  0  0  0
 68 69  1  0  0  0  0
M  CHG  1  77   1
M  ISO  4  38 100  62 101  74 100  84 101
M  END
> <Batch ID>
0023

> <Smiles>
CNC(C)C(=O)NC(C(=O)N1Cc2cc([101O:1][101CH2:1]C(C)C(C)(F)CCCc3cc(Cl)c([100NH:0][100C:0](=O)N4CCCC(n5nc(-c6ccc(Oc7ccc(F)cc7F)cc6)c(C(N)=O)c5N)C4)cc3C)ccc2CC1C(=O)NC1CCCc2ccccc21)C(C)(C)C

> <Shape>
0.231

> <Color>
0.186

> <Negative vol penalty>
0.000

$$$$

  -OEChem-04052316193D

 94103  0     1  0  0  0  0  0999 V2000
  -24.6955  -35.6564   20.1428 C   0  0  0  0  0  0  0  0  0  0  0  0
  -25.6662  -34.8194   19.6018 C   0  0  0  0  0  0  0  0  0  0  0  0
  -22.7654  -10.2406   20.1727 C   0  0  0  0  0  0  0  0  0  0  0  0
  -24.4150   -9.4386   21.7451 C   0  0  0  0  0  0  0  0  0  0  0  0
  -24.1639  -35.3825   21.4023 C   0  0  0  0  0  0  0  0  0  0  0  0
  -26.1066  -33.7086   20.3205 C   0  0  0  0  0  0  0  0  0  0  0  0
  -26.2167  -26.1642   18.2966 C   0  0  0  0  0  0  0  0  0  0  0  0
  -22.0675   -9.0388   20.2919 C   0  0  0  0  0  0  0  0  0  0  0  0
  -23.7171   -8.2368   21.8644 C   0  0  0  0  0  0  0  0  0  0  0  0
  -26.1414  -24.7832   18.1140 C   0  0  0  0  0  0  0  0  0  0  0  0
  -20.9737   -7.1012   23.4784 C   0  0  0  0  0  0  0  0  0  0  0  0
  -20.7809   -6.5901   24.7618 C   0  0  0  0  0  0  0  0  0  0  0  0
  -26.0130  -24.4628   20.5075 C   0  0  0  0  0  0  0  0  0  0  0  0
  -21.9827   -4.5871   24.1448 C   0  0  0  0  0  0  0  0  0  0  0  0
  -23.9393  -10.4404   20.8993 C   0  0  0  0  0  0  0  0  0  0  0  0
  -24.1867  -12.9736   21.0711 C   0  0  0  0  0  0  0  0  0  0  0  0
  -24.5910  -34.2624   22.1327 C   0  0  0  0  0  0  0  0  0  0  0  0
  -26.1750  -26.7013   19.5863 C   0  0  0  0  0  0  0  0  0  0  0  0
  -25.5811  -33.4202   21.5915 C   0  0  0  0  0  0  0  0  0  0  0  0
  -26.0756  -25.8460   20.6960 C   0  0  0  0  0  0  0  0  0  0  0  0
  -22.5432   -8.0369   21.1378 C   0  0  0  0  0  0  0  0  0  0  0  0
  -26.0400  -23.9346   19.2167 C   0  0  0  0  0  0  0  0  0  0  0  0
  -21.6710   -6.3551   22.5281 C   0  0  0  0  0  0  0  0  0  0  0  0
  -21.2853   -5.3331   25.0950 C   0  0  0  0  0  0  0  0  0  0  0  0
  -22.1755   -5.0981   22.8613 C   0  0  0  0  0  0  0  0  0  0  0  0
  -24.6610  -11.6814   20.7761 C   0  0  0  0  0  0  0  0  0  0  0  0
  -25.2462  -13.8009   20.7894 C   0  0  0  0  0  0  0  0  0  0  0  0
  -22.9031  -13.3889   21.5565 C   0  0  0  0  0  0  0  0  0  0  0  0
  -26.2125  -29.7821   21.7270 C   0  0  0  0  0  0  0  0  0  0  0  0
  -24.1449  -27.8735   22.9486 C   0  0  0  0  0  0  0  0  0  0  0  0
  -21.6637  -25.6672   23.7319 C   0  0  0  0  0  0  0  0  0  0  0  0
  -31.1676  -12.9290   20.6205 C   0  0  0  0  0  0  0  0  0  0  0  0
  -24.0214  -34.0338   23.5103 C   0  0  0  0  0  0  0  0  0  0  0  0
  -26.3151  -28.1788   19.8335 C   0  0  0  0  0  0  0  0  0  0  0  0
  -26.0690  -26.4663   22.0665 C   0  0  0  0  0  0  0  0  0  0  0  0
  -24.2709  -32.6265   24.0468 C   0  0  0  0  0  0  0  0  0  0  0  0
  -29.1027  -14.1203   17.9759 C   0  0  0  0  0  0  0  0  0  0  0  0
  -25.7243  -32.2203   23.8244 C   0  0  0  0  0  0  0  0  0  0  0  0
  -27.1195  -18.1992   25.1626 C   0  0  0  0  0  0  0  0  0  0  0  0
  -24.2815  -19.2632   21.0950 C   0  0  0  0  0  0  0  0  0  0  0  0
  -27.6874  -13.7469   18.4203 C   0  0  0  0  0  0  0  0  0  0  0  0
  -27.1384  -16.6697   25.2367 C   0  0  0  0  0  0  0  0  0  0  0  0
  -23.3281  -20.2312   20.3928 C   0  0  0  0  0  0  0  0  0  0  0  0
  -28.5905  -17.2856   23.4439 C   0  0  0  0  0  0  0  0  0  0  0  0
  -26.1930  -20.8712   20.7058 C   0  0  0  0  0  0  0  0  0  0  0  0
  -30.1203  -13.0554   18.3791 C   0  0  0  0  0  0  0  0  0  0  0  0
  -28.6972  -12.3287   20.2555 C   0  0  0  0  0  0  0  0  0  0  0  0
  -26.0666  -32.1917   22.3299 C   0  0  1  0  0  0  0  0  0  0  0  0
  -25.4821  -28.6721   21.0301 C   0  0  1  0  0  0  0  0  0  0  0  0
  -28.1651  -18.5986   24.1093 C   0  0  1  0  0  0  0  0  0  0  0  0
  -25.4680  -19.9954   21.7323 C   0  0  2  0  0  0  0  0  0  0  0  0
  -27.6442  -13.3989   19.9204 C   0  0  2  0  0  0  0  0  0  0  0  0
  -28.4171  -16.2391   24.5343 C   0  0  1  0  0  0  0  0  0  0  0  0
  -25.2359  -21.8401   20.0042 C   0  0  2  0  0  0  0  0  0  1  0  0
  -24.0266  -21.1278   19.3443 C   0  0  0  0  0  0  0  0  0  0  0  0
  -24.4553  -20.2882   18.1219 C   0  0  0  0  0  0  0  0  0  0  0  0
  -23.0178  -22.1839   18.8464 C   0  0  0  0  0  0  0  0  0  0  0  0
  -19.8075  -25.2938   25.3789 C   0  0  0  0  0  0  0  0  0  0  0  0
  -27.2378  -20.8901   23.8796 C   0  0  0  0  0  0  0  0  0  0  0  0
  -28.7798  -19.9670   22.1314 C   0  0  0  0  0  0  0  0  0  0  0  0
  -26.1873  -27.0445   25.0569 C   0  0  0  0  0  0  0  0  0  0  0  0
  -24.3547  -25.8266   26.2512 C   0  0  0  0  0  0  0  0  0  0  0  0
  -24.2165  -28.2990   25.9495 C   0  0  0  0  0  0  0  0  0  0  0  0
  -19.6099  -25.7022   21.6013 C   0  0  0  0  0  0  0  0  0  0  0  0
  -29.3255  -15.4643   26.7197 C   0  0  0  0  0  0  0  0  0  0  0  0
  -26.4352  -19.0006   22.3718 C   0  0  0  0  0  0  0  0  0  0  0  0
  -32.1436  -14.1591   23.5468 C   0  0  0  0  0  0  0  0  0  0  0  0
  -30.8484  -14.5485   24.2692 C   0  0  0  0  0  0  0  0  0  0  0  0
  -32.0694  -12.7667   22.9269 C   0  0  0  0  0  0  0  0  0  0  0  0
  -30.8740  -15.9637   24.8346 C   0  0  0  0  0  0  0  0  0  0  0  0
  -23.8670  -26.7855   23.9548 C   0  0  1  0  0  0  0  0  0  0  0  0
  -20.1885  -25.8725   24.0251 C   0  0  2  0  0  0  0  0  0  0  0  0
  -27.6460  -19.6221   23.1112 C   0  0  0  0  0  0  0  0  0  0  0  0
  -24.6625  -26.9828   25.2760 C   0  0  0  0  0  0  0  0  0  0  0  0
  -25.9236  -11.6826   20.3402 N   0  0  0  0  0  0  0  0  0  0  0  0
  -26.2515  -12.9858   20.3592 N   0  0  0  0  0  0  0  0  0  0  0  0
  -25.2160  -27.6651   22.0712 N   0  0  0  0  0  0  0  0  0  0  0  0
  -30.0285  -12.7727   19.8136 N   0  0  0  0  0  0  0  0  0  0  0  0
  -25.4067  -15.1389   20.8702 N   0  0  0  0  0  0  0  0  0  0  0  0
  -21.9292  -12.4092   21.7932 N   0  0  0  0  0  0  0  0  0  0  0  0
  -25.5432  -30.9910   21.7144 N   0  0  0  0  0  0  0  0  0  0  0  0
  -22.4189  -26.7505   24.1287 N   0  0  0  0  0  0  0  0  0  0  0  0
  -30.9924  -12.6464   21.9696 N   0  0  0  0  0  0  0  0  0  0  0  0
  -19.3559  -25.2119   22.9804 N   0  3  0  0  0  0  0  0  0  0  0  0
  -29.5571  -16.3013   25.4870 N   0  3  1  0  0  0  0  0  0  0  0  0
  -22.6224  -14.5948   21.7582 O   0  0  0  0  0  0  0  0  0  0  0  0
  -27.3027  -29.5591   22.2403 O   0  0  0  0  0  0  0  0  0  0  0  0
  -23.4367  -28.8842   22.9421 O   0  0  0  0  0  0  0  0  0  0  0  0
  -22.1027  -24.6463   23.2071 O   0  0  0  0  0  0  0  0  0  0  0  0
  -32.2584  -13.2986   20.1728 O   0  0  0  0  0  0  0  0  0  0  0  0
  -21.8623   -6.8642   21.2546 O   0  0  0  0  0  0  0  0  0  0  0  0
  -25.9623  -22.5877   19.0309 O   0  0  0  0  0  0  0  0  0  1  0  0
  -21.1014   -4.8431   26.3280 F   0  0  0  0  0  0  0  0  0  0  0  0
  -22.8472   -4.3773   21.9530 F   0  0  0  0  0  0  0  0  0  0  0  0
  1  2  1  0  0  0  0
  1  5  2  0  0  0  0
  2  6  2  0  0  0  0
  3  8  2  0  0  0  0
  3 15  1  0  0  0  0
  4  9  1  0  0  0  0
  4 15  2  0  0  0  0
  5 17  1  0  0  0  0
  6 19  1  0  0  0  0
  7 10  2  0  0  0  0
  7 18  1  0  0  0  0
  8 21  1  0  0  0  0
  9 21  2  0  0  0  0
 10 22  1  0  0  0  0
 11 12  2  0  0  0  0
 11 23  1  0  0  0  0
 12 24  1  0  0  0  0
 13 20  1  0  0  0  0
 13 22  2  0  0  0  0
 14 24  2  0  0  0  0
 14 25  1  0  0  0  0
 15 26  1  0  0  0  0
 16 26  1  0  0  0  0
 16 27  2  0  0  0  0
 16 28  1  0  0  0  0
 17 19  2  0  0  0  0
 17 33  1  0  0  0  0
 18 20  2  0  0  0  0
 18 34  1  0  0  0  0
 19 48  1  0  0  0  0
 20 35  1  0  0  0  0
 21 91  1  0  0  0  0
 22 92  1  0  0  0  0
 23 25  2  0  0  0  0
 23 91  1  0  0  0  0
 24 93  1  0  0  0  0
 25 94  1  0  0  0  0
 26 75  2  0  0  0  0
 27 76  1  0  0  0  0
 27 79  1  0  0  0  0
 28 80  1  0  0  0  0
 28 86  2  0  0  0  0
 29 49  1  0  0  0  0
 29 81  1  0  0  0  0
 29 87  2  0  0  0  0
 30 71  1  0  0  0  0
 30 77  1  0  0  0  0
 30 88  2  0  0  0  0
 31 72  1  0  0  0  0
 31 82  1  0  0  0  0
 31 89  2  0  0  0  0
 32 78  1  0  0  0  0
 32 83  1  0  0  0  0
 32 90  2  0  0  0  0
 33 36  1  0  0  0  0
 34 49  1  0  0  0  0
 35 77  1  0  0  0  0
 36 38  1  0  0  0  0
 37 41  1  0  0  0  0
 37 46  1  0  0  0  0
 38 48  1  0  0  0  0
 39 42  1  0  0  0  0
 39 50  1  0  0  0  0
 40 43  1  0  0  0  0
 40 51  1  0  0  0  0
 41 52  1  0  0  0  0
 42 53  1  0  0  0  0
 43 55  1  0  0  0  0
 44 50  1  0  0  0  0
 44 53  1  0  0  0  0
 45 51  1  0  0  0  0
 45 54  1  0  0  0  0
 46 78  1  0  0  0  0
 47 52  1  0  0  0  0
 47 78  1  0  0  0  0
 48 81  1  0  0  0  0
 49 77  1  0  0  0  0
 50 73  1  0  0  0  0
 51 66  1  0  0  0  0
 52 76  1  0  0  0  0
 53 85  1  0  0  0  0
 54 55  1  0  0  0  0
 54 92  1  0  0  0  0
 55 56  1  0  0  0  0
 55 57  1  0  0  0  0
 58 72  1  0  0  0  0
 59 73  1  0  0  0  0
 60 73  1  0  0  0  0
 61 74  1  0  0  0  0
 62 74  1  0  0  0  0
 63 74  1  0  0  0  0
 64 84  1  0  0  0  0
 65 85  1  0  0  0  0
 66 73  1  0  0  0  0
 67 68  1  0  0  0  0
 67 69  1  0  0  0  0
 68 70  1  0  0  0  0
 69 83  1  0  0  0  0
 70 85  1  0  0  0  0
 71 74  1  0  0  0  0
 71 82  1  0  0  0  0
 72 84  1  0  0  0  0
 75 76  1  0  0  0  0
M  CHG  2  84   1  85   1
M  ISO  4  32 100  54 101  83 100  92 101
M  END
> <Batch ID>
0023

> <Smiles>
CNC(C)C(=O)NC(C(=O)N1Cc2cc([101O:1][101CH:1]3CC(CC(C)(C)C4CCC(N(C)CCCC[100NH:0][100C:0](=O)N5CCCC(n6nc(-c7ccc(Oc8ccc(F)cc8F)cc7)c(C(N)=O)c6N)C5)C4)CCC3(C)C)ccc2CC1C(=O)NC1CCCc2ccccc21)C(C)(C)C

> <Shape>
0.260

> <Color>
0.180

> <Negative vol penalty>
0.000

$$$$

  -OEChem-04052316193D

 89 97  0     1  0  0  0  0  0999 V2000
  -17.5822  -28.2917   25.0732 C   0  0  0  0  0  0  0  0  0  0  0  0
  -18.4063  -27.2920   24.5662 C   0  0  0  0  0  0  0  0  0  0  0  0
  -30.7453  -20.9575   20.6084 C   0  0  0  0  0  0  0  0  0  0  0  0
  -28.6620  -19.9029   19.9881 C   0  0  0  0  0  0  0  0  0  0  0  0
  -17.5690  -29.5518   24.4767 C   0  0  0  0  0  0  0  0  0  0  0  0
  -19.2168  -27.5516   23.4617 C   0  0  0  0  0  0  0  0  0  0  0  0
  -23.9239  -25.7778   24.0463 C   0  0  0  0  0  0  0  0  0  0  0  0
  -30.2678  -22.1795   20.1347 C   0  0  0  0  0  0  0  0  0  0  0  0
  -28.1845  -21.1249   19.5145 C   0  0  0  0  0  0  0  0  0  0  0  0
  -24.1169  -24.4100   23.8575 C   0  0  0  0  0  0  0  0  0  0  0  0
  -26.5515  -23.8905   17.8131 C   0  0  0  0  0  0  0  0  0  0  0  0
  -25.9007  -23.8980   16.5794 C   0  0  0  0  0  0  0  0  0  0  0  0
  -24.9516  -24.8408   21.6355 C   0  0  0  0  0  0  0  0  0  0  0  0
  -27.8996  -23.0505   15.5197 C   0  0  0  0  0  0  0  0  0  0  0  0
  -24.7130  -12.0566   21.8631 C   0  0  0  0  0  0  0  0  0  0  0  0
  -29.9425  -19.8192   20.5351 C   0  0  0  0  0  0  0  0  0  0  0  0
  -30.8478  -18.2551   22.3355 C   0  0  0  0  0  0  0  0  0  0  0  0
  -18.3869  -29.8298   23.3702 C   0  0  0  0  0  0  0  0  0  0  0  0
  -24.2336  -26.6880   23.0255 C   0  0  0  0  0  0  0  0  0  0  0  0
  -19.2135  -28.8162   22.8489 C   0  0  0  0  0  0  0  0  0  0  0  0
  -24.7640  -26.2198   21.8149 C   0  0  0  0  0  0  0  0  0  0  0  0
  -26.1633  -12.0643   19.9309 C   0  0  0  0  0  0  0  0  0  0  0  0
  -24.1285  -13.3668   19.9191 C   0  0  0  0  0  0  0  0  0  0  0  0
  -28.9874  -22.2632   19.5878 C   0  0  0  0  0  0  0  0  0  0  0  0
  -24.6282  -23.9411   22.6509 C   0  0  0  0  0  0  0  0  0  0  0  0
  -27.8765  -23.4631   17.9000 C   0  0  0  0  0  0  0  0  0  0  0  0
  -26.5747  -23.4780   15.4327 C   0  0  0  0  0  0  0  0  0  0  0  0
  -28.5505  -23.0430   16.7534 C   0  0  0  0  0  0  0  0  0  0  0  0
  -25.8746  -11.6250   21.2229 C   0  0  0  0  0  0  0  0  0  0  0  0
  -23.8398  -12.9275   21.2111 C   0  0  0  0  0  0  0  0  0  0  0  0
  -25.2903  -12.9352   19.2790 C   0  0  0  0  0  0  0  0  0  0  0  0
  -30.4354  -18.5565   21.0237 C   0  0  0  0  0  0  0  0  0  0  0  0
  -31.2239  -16.9352   22.2825 C   0  0  0  0  0  0  0  0  0  0  0  0
  -30.8873  -19.0933   23.4981 C   0  0  0  0  0  0  0  0  0  0  0  0
  -22.5703  -28.7803   21.3052 C   0  0  0  0  0  0  0  0  0  0  0  0
  -25.5022  -29.6003   20.1853 C   0  0  0  0  0  0  0  0  0  0  0  0
  -28.7444  -28.6972   19.6202 C   0  0  0  0  0  0  0  0  0  0  0  0
  -29.6937  -12.4010   18.6838 C   0  0  0  0  0  0  0  0  0  0  0  0
  -18.3033  -31.1928   22.7299 C   0  0  0  0  0  0  0  0  0  0  0  0
  -24.0446  -28.1625   23.2547 C   0  0  0  0  0  0  0  0  0  0  0  0
  -25.1315  -27.1573   20.6948 C   0  0  0  0  0  0  0  0  0  0  0  0
  -19.4700  -31.4988   21.7942 C   0  0  0  0  0  0  0  0  0  0  0  0
  -32.9732  -13.6585   19.2669 C   0  0  0  0  0  0  0  0  0  0  0  0
  -19.7361  -30.3161   20.8684 C   0  0  0  0  0  0  0  0  0  0  0  0
  -32.7319  -15.0292   19.9017 C   0  0  0  0  0  0  0  0  0  0  0  0
  -31.9326  -13.3418   18.1951 C   0  0  0  0  0  0  0  0  0  0  0  0
  -30.2897  -14.8285   19.2740 C   0  0  0  0  0  0  0  0  0  0  0  0
  -20.1254  -29.0666   21.6675 C   0  0  1  0  0  0  0  0  0  0  0  0
  -23.9117  -28.9564   21.9588 C   0  0  1  0  0  0  0  0  0  0  0  0
  -31.2809  -15.1687   20.4001 C   0  0  2  0  0  0  0  0  0  0  0  0
  -30.8921  -29.5667   18.6565 C   0  0  0  0  0  0  0  0  0  0  0  0
  -24.4066  -29.1781   17.3690 C   0  0  0  0  0  0  0  0  0  0  0  0
  -26.7664  -29.1219   16.5346 C   0  0  0  0  0  0  0  0  0  0  0  0
  -25.8799  -31.1826   17.6256 C   0  0  0  0  0  0  0  0  0  0  0  0
  -30.1519  -28.4236   22.2092 C   0  0  0  0  0  0  0  0  0  0  0  0
  -27.4141  -11.5988   19.2488 C   0  0  0  0  0  0  0  0  0  0  0  0
  -23.1851  -14.3025   19.2224 C   0  0  0  0  0  0  0  0  0  0  0  0
  -23.5312  -18.6441   19.8381 C   0  0  0  0  0  0  0  0  0  0  0  0
  -24.0516  -20.0822   19.7801 C   0  0  0  0  0  0  0  0  0  0  0  0
  -23.3958  -18.0467   18.4345 C   0  0  0  0  0  0  0  0  0  0  0  0
  -24.2189  -20.6695   21.1799 C   0  0  0  0  0  0  0  0  0  0  0  0
  -22.8090  -16.6406   18.4283 C   0  0  0  0  0  0  0  0  0  0  0  0
  -24.6957  -22.1141   21.1298 C   0  0  0  0  0  0  0  0  0  1  0  0
  -26.3746  -29.1462   19.0400 C   0  0  1  0  0  0  0  0  0  0  0  0
  -30.0537  -29.4066   19.9152 C   0  0  2  0  0  0  0  0  0  0  0  0
  -25.8482  -29.6391   17.6625 C   0  0  0  0  0  0  0  0  0  0  0  0
  -30.5397  -17.5122   20.1976 N   0  0  0  0  0  0  0  0  0  0  0  0
  -31.0221  -16.5417   20.9923 N   0  0  0  0  0  0  0  0  0  0  0  0
  -24.9225  -28.5894   20.9649 N   0  0  0  0  0  0  0  0  0  0  0  0
  -30.5781  -13.4912   18.7326 N   0  0  0  0  0  0  0  0  0  0  0  0
  -31.7043  -16.0844   23.2140 N   0  0  0  0  0  0  0  0  0  0  0  0
  -29.7558  -19.1448   24.3235 N   0  0  0  0  0  0  0  0  0  0  0  0
  -21.5036  -29.1527   22.1007 N   0  0  0  0  0  0  0  0  0  0  0  0
  -27.7277  -29.5905   19.3564 N   0  0  0  0  0  0  0  0  0  0  0  0
  -28.4318  -12.6256   19.2204 N   0  0  0  0  0  0  0  0  0  0  0  0
  -30.8471  -28.6356   20.9136 N   0  3  0  0  0  0  0  0  0  0  0  0
  -23.6880  -15.7029   19.1657 N   0  3  0  0  0  0  0  0  0  0  0  0
  -31.8902  -19.7891   23.7873 O   0  0  0  0  0  0  0  0  0  0  0  0
  -22.5078  -28.3406   20.1631 O   0  0  0  0  0  0  0  0  0  0  0  0
  -25.3467  -30.8076   20.3853 O   0  0  0  0  0  0  0  0  0  0  0  0
  -28.6355  -27.4730   19.6199 O   0  0  0  0  0  0  0  0  0  0  0  0
  -30.0073  -11.3069   18.2027 O   0  0  0  0  0  0  0  0  0  0  0  0
  -28.5210  -23.4555   19.1257 O   0  0  0  0  0  0  0  0  0  0  0  0
  -24.8169  -22.6064   22.4637 O   0  0  0  0  0  0  0  0  0  1  0  0
  -25.9491  -23.4838   14.2483 F   0  0  0  0  0  0  0  0  0  0  0  0
  -29.8230  -22.6301   16.8308 F   0  0  0  0  0  0  0  0  0  0  0  0
  -26.9277  -10.5472   22.0673 Cl  0  0  0  0  0  0  0  0  0  0  0  0
  -22.4127  -13.4361   22.0409 Cl  0  0  0  0  0  0  0  0  0  0  0  0
  -25.6477  -13.4808   17.6725 Cl  0  0  0  0  0  0  0  0  0  0  0  0
  1  2  1  0  0  0  0
  1  5  2  0  0  0  0
  2  6  2  0  0  0  0
  3  8  2  0  0  0  0
  3 16  1  0  0  0  0
  4  9  1  0  0  0  0
  4 16  2  0  0  0  0
  5 18  1  0  0  0  0
  6 20  1  0  0  0  0
  7 10  2  0  0  0  0
  7 19  1  0  0  0  0
  8 24  1  0  0  0  0
  9 24  2  0  0  0  0
 10 25  1  0  0  0  0
 11 12  2  0  0  0  0
 11 26  1  0  0  0  0
 12 27  1  0  0  0  0
 13 21  1  0  0  0  0
 13 25  2  0  0  0  0
 14 27  2  0  0  0  0
 14 28  1  0  0  0  0
 15 29  1  0  0  0  0
 15 30  2  0  0  0  0
 16 32  1  0  0  0  0
 17 32  1  0  0  0  0
 17 33  2  0  0  0  0
 17 34  1  0  0  0  0
 18 20  2  0  0  0  0
 18 39  1  0  0  0  0
 19 21  2  0  0  0  0
 19 40  1  0  0  0  0
 20 48  1  0  0  0  0
 21 41  1  0  0  0  0
 22 29  2  0  0  0  0
 22 31  1  0  0  0  0
 22 56  1  0  0  0  0
 23 30  1  0  0  0  0
 23 31  2  0  0  0  0
 23 57  1  0  0  0  0
 24 83  1  0  0  0  0
 25 84  1  0  0  0  0
 26 28  2  0  0  0  0
 26 83  1  0  0  0  0
 27 85  1  0  0  0  0
 28 86  1  0  0  0  0
 29 87  1  0  0  0  0
 30 88  1  0  0  0  0
 31 89  1  0  0  0  0
 32 67  2  0  0  0  0
 33 68  1  0  0  0  0
 33 71  1  0  0  0  0
 34 72  1  0  0  0  0
 34 78  2  0  0  0  0
 35 49  1  0  0  0  0
 35 73  1  0  0  0  0
 35 79  2  0  0  0  0
 36 64  1  0  0  0  0
 36 69  1  0  0  0  0
 36 80  2  0  0  0  0
 37 65  1  0  0  0  0
 37 74  1  0  0  0  0
 37 81  2  0  0  0  0
 38 70  1  0  0  0  0
 38 75  1  0  0  0  0
 38 82  2  0  0  0  0
 39 42  1  0  0  0  0
 40 49  1  0  0  0  0
 41 69  1  0  0  0  0
 42 44  1  0  0  0  0
 43 45  1  0  0  0  0
 43 46  1  0  0  0  0
 44 48  1  0  0  0  0
 45 50  1  0  0  0  0
 46 70  1  0  0  0  0
 47 50  1  0  0  0  0
 47 70  1  0  0  0  0
 48 73  1  0  0  0  0
 49 69  1  0  0  0  0
 50 68  1  0  0  0  0
 51 65  1  0  0  0  0
 52 66  1  0  0  0  0
 53 66  1  0  0  0  0
 54 66  1  0  0  0  0
 55 76  1  0  0  0  0
 56 75  1  0  0  0  0
 57 77  1  0  0  0  0
 58 59  1  0  0  0  0
 58 60  1  0  0  0  0
 59 61  1  0  0  0  0
 60 62  1  0  0  0  0
 61 63  1  0  0  0  0
 62 77  1  0  0  0  0
 63 84  1  0  0  0  0
 64 66  1  0  0  0  0
 64 74  1  0  0  0  0
 65 76  1  0  0  0  0
 67 68  1  0  0  0  0
M  CHG  2  76   1  77   1
M  ISO  4  38 100  63 101  75 100  84 101
M  END
> <Batch ID>
0023

> <Smiles>
CNC(C)C(=O)NC(C(=O)N1Cc2cc([101O:1][101CH2:1]CCCCCNCc3c(Cl)cc(Cl)c(C[100NH:0][100C:0](=O)N4CCCC(n5nc(-c6ccc(Oc7ccc(F)cc7F)cc6)c(C(N)=O)c5N)C4)c3Cl)ccc2CC1C(=O)NC1CCCc2ccccc21)C(C)(C)C

> <Shape>
0.238

> <Color>
0.077

> <Negative vol penalty>
0.000

$$$$

  -OEChem-04052316193D

 94102  0     1  0  0  0  0  0999 V2000
  -18.9810  -30.3335   15.4235 C   0  0  0  0  0  0  0  0  0  0  0  0
  -19.6429  -29.3577   16.1616 C   0  0  0  0  0  0  0  0  0  0  0  0
  -22.9958  -10.0615   21.5483 C   0  0  0  0  0  0  0  0  0  0  0  0
  -24.0027  -10.8240   23.6078 C   0  0  0  0  0  0  0  0  0  0  0  0
  -19.5177  -31.6167   15.3269 C   0  0  0  0  0  0  0  0  0  0  0  0
  -20.8426  -29.6641   16.8028 C   0  0  0  0  0  0  0  0  0  0  0  0
  -22.8205  -27.4580   22.1626 C   0  0  0  0  0  0  0  0  0  0  0  0
  -22.2354   -9.1358   22.2628 C   0  0  0  0  0  0  0  0  0  0  0  0
  -23.2423   -9.8984   24.3224 C   0  0  0  0  0  0  0  0  0  0  0  0
  -23.7088  -26.4328   22.4845 C   0  0  0  0  0  0  0  0  0  0  0  0
  -22.6941   -6.1041   23.6848 C   0  0  0  0  0  0  0  0  0  0  0  0
  -22.6134   -4.8060   23.1808 C   0  0  0  0  0  0  0  0  0  0  0  0
  -25.4865  -28.0491   22.7008 C   0  0  0  0  0  0  0  0  0  0  0  0
  -20.2139   -5.0245   23.0022 C   0  0  0  0  0  0  0  0  0  0  0  0
  -23.8795  -10.9056   22.2208 C   0  0  0  0  0  0  0  0  0  0  0  0
  -24.3135  -13.1870   21.1651 C   0  0  0  0  0  0  0  0  0  0  0  0
  -20.7196  -31.9417   15.9753 C   0  0  0  0  0  0  0  0  0  0  0  0
  -23.2617  -28.7874   22.0965 C   0  0  0  0  0  0  0  0  0  0  0  0
  -21.3966  -30.9525   16.7138 C   0  0  0  0  0  0  0  0  0  0  0  0
  -24.6012  -29.0896   22.3803 C   0  0  0  0  0  0  0  0  0  0  0  0
  -28.2914  -22.1131   23.6009 C   0  0  0  0  0  0  0  0  0  0  0  0
  -27.5504  -22.9785   22.7588 C   0  0  0  0  0  0  0  0  0  0  0  0
  -22.3586   -9.0543   23.6498 C   0  0  0  0  0  0  0  0  0  0  0  0
  -25.0426  -26.7279   22.7509 C   0  0  0  0  0  0  0  0  0  0  0  0
  -21.5347   -6.8624   23.8476 C   0  0  0  0  0  0  0  0  0  0  0  0
  -21.3733   -4.2662   22.8395 C   0  0  0  0  0  0  0  0  0  0  0  0
  -20.2946   -6.3226   23.5063 C   0  0  0  0  0  0  0  0  0  0  0  0
  -24.6657  -11.8617   21.4833 C   0  0  0  0  0  0  0  0  0  0  0  0
  -27.6578  -22.0870   24.8237 C   0  0  0  0  0  0  0  0  0  0  0  0
  -26.4866  -23.4550   23.4927 C   0  0  0  0  0  0  0  0  0  0  0  0
  -25.3901  -13.6688   20.4613 C   0  0  0  0  0  0  0  0  0  0  0  0
  -23.1199  -13.9173   21.4777 C   0  0  0  0  0  0  0  0  0  0  0  0
  -23.4145  -30.9891   19.8089 C   0  0  0  0  0  0  0  0  0  0  0  0
  -24.3510  -32.9040   22.2540 C   0  0  0  0  0  0  0  0  0  0  0  0
  -25.7443  -33.1667   25.3583 C   0  0  0  0  0  0  0  0  0  0  0  0
  -31.1874  -12.1758   20.3500 C   0  0  0  0  0  0  0  0  0  0  0  0
  -21.2852  -33.3292   15.8030 C   0  0  0  0  0  0  0  0  0  0  0  0
  -22.2851  -29.8849   21.7739 C   0  0  0  0  0  0  0  0  0  0  0  0
  -25.1205  -30.5029   22.3426 C   0  0  0  0  0  0  0  0  0  0  0  0
  -22.3681  -33.6763   16.8213 C   0  0  0  0  0  0  0  0  0  0  0  0
  -28.9366  -12.2271   17.5917 C   0  0  0  0  0  0  0  0  0  0  0  0
  -23.3700  -32.5329   16.9459 C   0  0  0  0  0  0  0  0  0  0  0  0
  -27.5550  -12.2588   18.2476 C   0  0  0  0  0  0  0  0  0  0  0  0
  -29.9175  -11.3652   18.3835 C   0  0  0  0  0  0  0  0  0  0  0  0
  -28.6575  -11.7490   20.4665 C   0  0  0  0  0  0  0  0  0  0  0  0
  -22.6875  -31.2532   17.4441 C   0  0  1  0  0  0  0  0  0  0  0  0
  -22.9572  -31.1427   21.2320 C   0  0  1  0  0  0  0  0  0  0  0  0
  -27.6490  -12.6509   19.7344 C   0  0  2  0  0  0  0  0  0  0  0  0
  -26.4139  -34.8656   27.0796 C   0  0  0  0  0  0  0  0  0  0  0  0
  -27.8692  -22.0395   20.4431 C   0  0  0  0  0  0  0  0  0  0  0  0
  -29.2677  -23.9851   21.2146 C   0  0  0  0  0  0  0  0  0  0  0  0
  -26.8678  -24.3058   20.6498 C   0  0  0  0  0  0  0  0  0  0  0  0
  -29.5451  -21.1286   26.1895 C   0  0  0  0  0  0  0  0  0  0  0  0
  -27.3286  -19.9390   26.0983 C   0  0  0  0  0  0  0  0  0  0  0  0
  -27.5769  -22.0391   27.4057 C   0  0  0  0  0  0  0  0  0  0  0  0
  -26.8007  -33.6265   20.5845 C   0  0  0  0  0  0  0  0  0  0  0  0
  -27.8650  -34.5285   22.6635 C   0  0  0  0  0  0  0  0  0  0  0  0
  -25.7606  -35.5504   21.7975 C   0  0  0  0  0  0  0  0  0  0  0  0
  -25.6285  -23.1568   25.8244 C   0  0  0  0  0  0  0  0  0  0  0  0
  -23.8874  -32.0352   27.3659 C   0  0  0  0  0  0  0  0  0  0  0  0
  -29.5171  -21.3727   23.2370 C   0  0  0  0  0  0  0  0  0  0  0  0
  -25.3895  -24.4016   23.1032 C   0  0  0  0  0  0  0  0  0  1  0  0
  -31.3702  -15.3221   22.8196 C   0  0  0  0  0  0  0  0  0  0  0  0
  -31.5626  -16.8345   22.6707 C   0  0  0  0  0  0  0  0  0  0  0  0
  -32.5510  -14.5045   22.2858 C   0  0  0  0  0  0  0  0  0  0  0  0
  -30.3541  -17.6501   23.1349 C   0  0  0  0  0  0  0  0  0  0  0  0
  -32.3176  -13.0007   22.3997 C   0  0  0  0  0  0  0  0  0  0  0  0
  -30.5962  -19.1401   22.9379 C   0  0  0  0  0  0  0  0  0  0  0  0
  -25.6756  -33.2674   22.8805 C   0  0  1  0  0  0  0  0  0  0  0  0
  -25.3130  -33.9354   26.5942 C   0  0  2  0  0  0  0  0  0  0  0  0
  -27.8609  -23.3128   21.3536 C   0  0  0  0  0  0  0  0  0  0  0  0
  -28.0016  -21.3514   26.0593 C   0  0  0  0  0  0  0  0  0  0  0  0
  -26.5164  -34.2162   21.9804 C   0  0  0  0  0  0  0  0  0  0  0  0
  -25.8717  -11.5231   21.0196 N   0  0  0  0  0  0  0  0  0  0  0  0
  -26.5621  -22.9066   24.7464 N   0  0  0  0  0  0  0  0  0  0  0  0
  -26.2866  -12.6427   20.4027 N   0  0  0  0  0  0  0  0  0  0  0  0
  -24.1282  -31.5404   22.0161 N   0  0  0  0  0  0  0  0  0  0  0  0
  -29.9608  -11.7897   19.7849 N   0  0  0  0  0  0  0  0  0  0  0  0
  -25.6478  -14.8659   19.8929 N   0  0  0  0  0  0  0  0  0  0  0  0
  -22.1133  -13.2711   22.2082 N   0  0  0  0  0  0  0  0  0  0  0  0
  -22.4572  -31.3259   18.8710 N   0  0  0  0  0  0  0  0  0  0  0  0
  -25.3681  -33.8112   24.1988 N   0  0  0  0  0  0  0  0  0  0  0  0
  -31.1388  -12.5701   21.6815 N   0  0  0  0  0  0  0  0  0  0  0  0
  -24.9731  -32.9933   27.6978 N   0  3  0  0  0  0  0  0  0  0  0  0
  -29.3855  -19.8887   23.3569 N   0  3  0  0  0  0  0  0  0  0  0  0
  -22.9441  -15.1023   21.1058 O   0  0  0  0  0  0  0  0  0  0  0  0
  -24.5520  -30.5957   19.5789 O   0  0  0  0  0  0  0  0  0  0  0  0
  -23.5408  -33.7966   21.9921 O   0  0  0  0  0  0  0  0  0  0  0  0
  -26.3571  -32.1029   25.4156 O   0  0  0  0  0  0  0  0  0  0  0  0
  -32.2465  -12.1746   19.7133 O   0  0  0  0  0  0  0  0  0  0  0  0
  -21.6166   -8.1513   24.3473 O   0  0  0  0  0  0  0  0  0  0  0  0
  -25.9119  -25.7290   23.0648 O   0  0  0  0  0  0  0  0  0  1  0  0
  -21.2962   -3.0201   22.3541 F   0  0  0  0  0  0  0  0  0  0  0  0
  -19.1775   -7.0467   23.6593 F   0  0  0  0  0  0  0  0  0  0  0  0
  1  2  1  0  0  0  0
  1  5  2  0  0  0  0
  2  6  2  0  0  0  0
  3  8  2  0  0  0  0
  3 15  1  0  0  0  0
  4  9  1  0  0  0  0
  4 15  2  0  0  0  0
  5 17  1  0  0  0  0
  6 19  1  0  0  0  0
  7 10  2  0  0  0  0
  7 18  1  0  0  0  0
  8 23  1  0  0  0  0
  9 23  2  0  0  0  0
 10 24  1  0  0  0  0
 11 12  2  0  0  0  0
 11 25  1  0  0  0  0
 12 26  1  0  0  0  0
 13 20  1  0  0  0  0
 13 24  2  0  0  0  0
 14 26  2  0  0  0  0
 14 27  1  0  0  0  0
 15 28  1  0  0  0  0
 16 28  1  0  0  0  0
 16 31  2  0  0  0  0
 16 32  1  0  0  0  0
 17 19  2  0  0  0  0
 17 37  1  0  0  0  0
 18 20  2  0  0  0  0
 18 38  1  0  0  0  0
 19 46  1  0  0  0  0
 20 39  1  0  0  0  0
 21 22  1  0  0  0  0
 21 29  2  0  0  0  0
 21 61  1  0  0  0  0
 22 30  2  0  0  0  0
 22 71  1  0  0  0  0
 23 91  1  0  0  0  0
 24 92  1  0  0  0  0
 25 27  2  0  0  0  0
 25 91  1  0  0  0  0
 26 93  1  0  0  0  0
 27 94  1  0  0  0  0
 28 74  2  0  0  0  0
 29 72  1  0  0  0  0
 29 75  1  0  0  0  0
 30 62  1  0  0  0  0
 30 75  1  0  0  0  0
 31 76  1  0  0  0  0
 31 79  1  0  0  0  0
 32 80  1  0  0  0  0
 32 86  2  0  0  0  0
 33 47  1  0  0  0  0
 33 81  1  0  0  0  0
 33 87  2  0  0  0  0
 34 69  1  0  0  0  0
 34 77  1  0  0  0  0
 34 88  2  0  0  0  0
 35 70  1  0  0  0  0
 35 82  1  0  0  0  0
 35 89  2  0  0  0  0
 36 78  1  0  0  0  0
 36 83  1  0  0  0  0
 36 90  2  0  0  0  0
 37 40  1  0  0  0  0
 38 47  1  0  0  0  0
 39 77  1  0  0  0  0
 40 42  1  0  0  0  0
 41 43  1  0  0  0  0
 41 44  1  0  0  0  0
 42 46  1  0  0  0  0
 43 48  1  0  0  0  0
 44 78  1  0  0  0  0
 45 48  1  0  0  0  0
 45 78  1  0  0  0  0
 46 81  1  0  0  0  0
 47 77  1  0  0  0  0
 48 76  1  0  0  0  0
 49 70  1  0  0  0  0
 50 71  1  0  0  0  0
 51 71  1  0  0  0  0
 52 71  1  0  0  0  0
 53 72  1  0  0  0  0
 54 72  1  0  0  0  0
 55 72  1  0  0  0  0
 56 73  1  0  0  0  0
 57 73  1  0  0  0  0
 58 73  1  0  0  0  0
 59 75  1  0  0  0  0
 60 84  1  0  0  0  0
 61 85  1  0  0  0  0
 62 92  1  0  0  0  0
 63 64  1  0  0  0  0
 63 65  1  0  0  0  0
 64 66  1  0  0  0  0
 65 67  1  0  0  0  0
 66 68  1  0  0  0  0
 67 83  1  0  0  0  0
 68 85  1  0  0  0  0
 69 73  1  0  0  0  0
 69 82  1  0  0  0  0
 70 84  1  0  0  0  0
 74 76  1  0  0  0  0
M  CHG  2  84   1  85   1
M  ISO  4  36 100  62 101  83 100  92 101
M  END
> <Batch ID>
0023

> <Smiles>
CNC(C)C(=O)NC(C(=O)N1Cc2cc([101O:1][101CH2:1]c3c(C(C)(C)C)c(CNCCCCCC[100NH:0][100C:0](=O)N4CCCC(n5nc(-c6ccc(Oc7ccc(F)cc7F)cc6)c(C(N)=O)c5N)C4)c(C(C)(C)C)n3C)ccc2CC1C(=O)NC1CCCc2ccccc21)C(C)(C)C

> <Shape>
0.244

> <Color>
0.125

> <Negative vol penalty>
0.000

$$$$

  -OEChem-04052316193D

 89 97  0     1  0  0  0  0  0999 V2000
  -30.4195  -24.6758   18.3335 C   0  0  0  0  0  0  0  0  0  0  0  0
  -29.2176  -25.3682   18.2259 C   0  0  0  0  0  0  0  0  0  0  0  0
  -24.7818   -9.0635   21.1642 C   0  0  0  0  0  0  0  0  0  0  0  0
  -23.0598  -10.4252   20.1554 C   0  0  0  0  0  0  0  0  0  0  0  0
  -31.0484  -24.5618   19.5727 C   0  0  0  0  0  0  0  0  0  0  0  0
  -28.6433  -25.9460   19.3576 C   0  0  0  0  0  0  0  0  0  0  0  0
  -26.9735  -30.6498   18.5024 C   0  0  0  0  0  0  0  0  0  0  0  0
  -23.8091   -8.1801   21.6322 C   0  0  0  0  0  0  0  0  0  0  0  0
  -22.0871   -9.5417   20.6233 C   0  0  0  0  0  0  0  0  0  0  0  0
  -25.7604  -30.7820   17.8282 C   0  0  0  0  0  0  0  0  0  0  0  0
  -21.5852   -8.0430   24.1738 C   0  0  0  0  0  0  0  0  0  0  0  0
  -21.6901   -7.6048   25.4938 C   0  0  0  0  0  0  0  0  0  0  0  0
  -24.6405  -31.1633   19.9304 C   0  0  0  0  0  0  0  0  0  0  0  0
  -26.1978  -19.6431   19.8353 C   0  0  0  0  0  0  0  0  0  0  0  0
  -21.8563   -5.3212   24.7225 C   0  0  0  0  0  0  0  0  0  0  0  0
  -24.4072  -10.1861   20.4258 C   0  0  0  0  0  0  0  0  0  0  0  0
  -26.0890  -11.0432   18.7099 C   0  0  0  0  0  0  0  0  0  0  0  0
  -30.4864  -25.1468   20.7184 C   0  0  0  0  0  0  0  0  0  0  0  0
  -27.0276  -30.7627   19.8991 C   0  0  0  0  0  0  0  0  0  0  0  0
  -29.2646  -25.8385   20.6135 C   0  0  0  0  0  0  0  0  0  0  0  0
  -25.8559  -31.0346   20.6198 C   0  0  0  0  0  0  0  0  0  0  0  0
  -25.8991  -20.7116   18.9898 C   0  0  0  0  0  0  0  0  0  0  0  0
  -23.8068  -19.6585   18.3981 C   0  0  0  0  0  0  0  0  0  0  0  0
  -24.7036  -20.7193   18.2712 C   0  0  0  0  0  0  0  0  0  0  0  0
  -24.1055  -18.5900   19.2436 C   0  0  0  0  0  0  0  0  0  0  0  0
  -25.3010  -18.5823   19.9621 C   0  0  0  0  0  0  0  0  0  0  0  0
  -22.4618   -8.4191   21.3618 C   0  0  0  0  0  0  0  0  0  0  0  0
  -24.5932  -31.0360   18.5424 C   0  0  0  0  0  0  0  0  0  0  0  0
  -21.6158   -7.1204   23.1281 C   0  0  0  0  0  0  0  0  0  0  0  0
  -21.8256   -6.2439   25.7682 C   0  0  0  0  0  0  0  0  0  0  0  0
  -21.7513   -5.7595   23.4024 C   0  0  0  0  0  0  0  0  0  0  0  0
  -25.4114  -11.0993   19.9426 C   0  0  0  0  0  0  0  0  0  0  0  0
  -26.9321  -12.1273   18.7319 C   0  0  0  0  0  0  0  0  0  0  0  0
  -25.9670  -10.0960   17.6405 C   0  0  0  0  0  0  0  0  0  0  0  0
  -27.8504  -28.8197   22.2764 C   0  0  0  0  0  0  0  0  0  0  0  0
  -27.4213  -31.4810   24.0808 C   0  0  0  0  0  0  0  0  0  0  0  0
  -25.9350  -34.5326   24.4350 C   0  0  0  0  0  0  0  0  0  0  0  0
  -26.7734  -17.3647   21.6040 C   0  0  0  0  0  0  0  0  0  0  0  0
  -31.1789  -24.9564   22.0446 C   0  0  0  0  0  0  0  0  0  0  0  0
  -28.3483  -30.6439   20.6090 C   0  0  0  0  0  0  0  0  0  0  0  0
  -25.8635  -31.1848   22.1184 C   0  0  0  0  0  0  0  0  0  0  0  0
  -30.6955  -25.9175   23.1276 C   0  0  0  0  0  0  0  0  0  0  0  0
  -29.3592  -14.9227   21.7699 C   0  0  0  0  0  0  0  0  0  0  0  0
  -29.1714  -25.9773   23.1468 C   0  0  0  0  0  0  0  0  0  0  0  0
  -28.7038  -13.6615   21.2023 C   0  0  0  0  0  0  0  0  0  0  0  0
  -28.3770  -15.7481   22.5991 C   0  0  0  0  0  0  0  0  0  0  0  0
  -26.4645  -14.8238   21.3512 C   0  0  0  0  0  0  0  0  0  0  0  0
  -28.6230  -26.5003   21.8137 C   0  0  1  0  0  0  0  0  0  0  0  0
  -28.2041  -30.2668   22.0802 C   0  0  1  0  0  0  0  0  0  0  0  0
  -27.3973  -13.9931   20.4547 C   0  0  2  0  0  0  0  0  0  0  0  0
  -26.8782  -21.8333   18.8690 C   0  0  0  0  0  0  0  0  0  0  0  0
  -22.5245  -19.6673   17.6268 C   0  0  0  0  0  0  0  0  0  0  0  0
  -23.1422  -17.4520   19.3767 C   0  0  0  0  0  0  0  0  0  0  0  0
  -25.7447  -36.4573   26.0339 C   0  0  0  0  0  0  0  0  0  0  0  0
  -25.5319  -29.8405   25.8269 C   0  0  0  0  0  0  0  0  0  0  0  0
  -24.6653  -31.9858   26.7835 C   0  0  0  0  0  0  0  0  0  0  0  0
  -27.0614  -31.3635   27.0900 C   0  0  0  0  0  0  0  0  0  0  0  0
  -27.0991  -36.4236   22.4786 C   0  0  0  0  0  0  0  0  0  0  0  0
  -24.3845  -21.8753   17.3571 C   0  0  0  0  0  0  0  0  0  0  0  0
  -23.8710  -23.1204   18.0889 C   0  0  0  0  0  0  0  0  0  0  0  0
  -23.4805  -24.2561   17.1380 C   0  0  0  0  0  0  0  0  0  0  0  0
  -23.0035  -25.4871   17.9118 C   0  0  0  0  0  0  0  0  0  0  0  0
  -22.5810  -26.6113   16.9631 C   0  0  0  0  0  0  0  0  0  0  0  0
  -22.1350  -27.8524   17.7391 C   0  0  0  0  0  0  0  0  0  0  0  0
  -21.7122  -29.0154   16.8364 C   0  0  0  0  0  0  0  0  0  0  0  0
  -21.1918  -30.2293   17.6132 C   0  0  0  0  0  0  0  0  0  0  0  0
  -22.2298  -30.7747   18.5877 C   0  0  0  0  0  0  0  0  0  1  0  0
  -26.2543  -32.1012   24.8104 C   0  0  1  0  0  0  0  0  0  0  0  0
  -26.4941  -35.8842   24.8411 C   0  0  2  0  0  0  0  0  0  0  0  0
  -25.8774  -31.3180   26.0997 C   0  0  0  0  0  0  0  0  0  0  0  0
  -25.7914  -12.1368   20.6931 N   0  0  0  0  0  0  0  0  0  0  0  0
  -26.7170  -12.7426   19.9299 N   0  0  0  0  0  0  0  0  0  0  0  0
  -27.1784  -31.0540   22.7676 N   0  0  0  0  0  0  0  0  0  0  0  0
  -27.1655  -16.0275   21.8251 N   0  0  0  0  0  0  0  0  0  0  0  0
  -27.8292  -12.6045   17.8431 N   0  0  0  0  0  0  0  0  0  0  0  0
  -25.0528   -9.0431   17.7817 N   0  0  0  0  0  0  0  0  0  0  0  0
  -25.6241  -17.5077   20.8272 N   0  0  0  0  0  0  0  0  0  0  0  0
  -28.7676  -27.9382   21.7369 N   0  0  0  0  0  0  0  0  0  0  0  0
  -26.6125  -33.4963   25.0420 N   0  0  0  0  0  0  0  0  0  0  0  0
  -26.3873  -36.8497   23.7110 N   0  3  0  0  0  0  0  0  0  0  0  0
  -26.6604  -10.1714   16.5979 O   0  0  0  0  0  0  0  0  0  0  0  0
  -26.8222  -28.5247   22.8744 O   0  0  0  0  0  0  0  0  0  0  0  0
  -28.5102  -31.3855   24.6525 O   0  0  0  0  0  0  0  0  0  0  0  0
  -24.9893  -34.4085   23.6599 O   0  0  0  0  0  0  0  0  0  0  0  0
  -27.4255  -18.3138   22.0466 O   0  0  0  0  0  0  0  0  0  0  0  0
  -21.5124   -7.5572   21.8180 O   0  0  0  0  0  0  0  0  0  0  0  0
  -23.3987  -31.1658   17.8819 O   0  0  0  0  0  0  0  0  0  1  0  0
  -21.9279   -5.8233   27.0358 F   0  0  0  0  0  0  0  0  0  0  0  0
  -21.7825   -4.8686   22.4019 F   0  0  0  0  0  0  0  0  0  0  0  0
  1  2  1  0  0  0  0
  1  5  2  0  0  0  0
  2  6  2  0  0  0  0
  3  8  2  0  0  0  0
  3 16  1  0  0  0  0
  4  9  1  0  0  0  0
  4 16  2  0  0  0  0
  5 18  1  0  0  0  0
  6 20  1  0  0  0  0
  7 10  2  0  0  0  0
  7 19  1  0  0  0  0
  8 27  1  0  0  0  0
  9 27  2  0  0  0  0
 10 28  1  0  0  0  0
 11 12  2  0  0  0  0
 11 29  1  0  0  0  0
 12 30  1  0  0  0  0
 13 21  1  0  0  0  0
 13 28  2  0  0  0  0
 14 22  2  0  0  0  0
 14 26  1  0  0  0  0
 15 30  2  0  0  0  0
 15 31  1  0  0  0  0
 16 32  1  0  0  0  0
 17 32  1  0  0  0  0
 17 33  2  0  0  0  0
 17 34  1  0  0  0  0
 18 20  2  0  0  0  0
 18 39  1  0  0  0  0
 19 21  2  0  0  0  0
 19 40  1  0  0  0  0
 20 48  1  0  0  0  0
 21 41  1  0  0  0  0
 22 24  1  0  0  0  0
 22 51  1  0  0  0  0
 23 24  2  0  0  0  0
 23 25  1  0  0  0  0
 23 52  1  0  0  0  0
 24 59  1  0  0  0  0
 25 26  2  0  0  0  0
 25 53  1  0  0  0  0
 26 77  1  0  0  0  0
 27 86  1  0  0  0  0
 28 87  1  0  0  0  0
 29 31  2  0  0  0  0
 29 86  1  0  0  0  0
 30 88  1  0  0  0  0
 31 89  1  0  0  0  0
 32 71  2  0  0  0  0
 33 72  1  0  0  0  0
 33 75  1  0  0  0  0
 34 76  1  0  0  0  0
 34 81  2  0  0  0  0
 35 49  1  0  0  0  0
 35 78  1  0  0  0  0
 35 82  2  0  0  0  0
 36 68  1  0  0  0  0
 36 73  1  0  0  0  0
 36 83  2  0  0  0  0
 37 69  1  0  0  0  0
 37 79  1  0  0  0  0
 37 84  2  0  0  0  0
 38 74  1  0  0  0  0
 38 77  1  0  0  0  0
 38 85  2  0  0  0  0
 39 42  1  0  0  0  0
 40 49  1  0  0  0  0
 41 73  1  0  0  0  0
 42 44  1  0  0  0  0
 43 45  1  0  0  0  0
 43 46  1  0  0  0  0
 44 48  1  0  0  0  0
 45 50  1  0  0  0  0
 46 74  1  0  0  0  0
 47 50  1  0  0  0  0
 47 74  1  0  0  0  0
 48 78  1  0  0  0  0
 49 73  1  0  0  0  0
 50 72  1  0  0  0  0
 54 69  1  0  0  0  0
 55 70  1  0  0  0  0
 56 70  1  0  0  0  0
 57 70  1  0  0  0  0
 58 80  1  0  0  0  0
 59 60  1  0  0  0  0
 60 61  1  0  0  0  0
 61 62  1  0  0  0  0
 62 63  1  0  0  0  0
 63 64  1  0  0  0  0
 64 65  1  0  0  0  0
 65 66  1  0  0  0  0
 66 67  1  0  0  0  0
 67 87  1  0  0  0  0
 68 70  1  0  0  0  0
 68 79  1  0  0  0  0
 69 80  1  0  0  0  0
 71 72  1  0  0  0  0
M  CHG  1  80   1
M  ISO  4  38 100  67 101  77 100  87 101
M  END
> <Batch ID>
0023

> <Smiles>
CNC(C)C(=O)NC(C(=O)N1Cc2cc([101O:1][101CH2:1]CCCCCCCCc3c(C)cc([100NH:0][100C:0](=O)N4CCCC(n5nc(-c6ccc(Oc7ccc(F)cc7F)cc6)c(C(N)=O)c5N)C4)c(C)c3C)ccc2CC1C(=O)NC1CCCc2ccccc21)C(C)(C)C

> <Shape>
0.276

> <Color>
0.083

> <Negative vol penalty>
0.000

$$$$

  -OEChem-04052316193D

 89 97  0     1  0  0  0  0  0999 V2000
  -15.0404  -30.2182   23.0551 C   0  0  0  0  0  0  0  0  0  0  0  0
  -16.2090  -29.9671   22.3433 C   0  0  0  0  0  0  0  0  0  0  0  0
  -22.3004  -10.5991   19.8720 C   0  0  0  0  0  0  0  0  0  0  0  0
  -23.8401   -9.7596   21.5338 C   0  0  0  0  0  0  0  0  0  0  0  0
  -14.7611  -31.5092   23.5013 C   0  0  0  0  0  0  0  0  0  0  0  0
  -17.0985  -31.0072   22.0763 C   0  0  0  0  0  0  0  0  0  0  0  0
  -21.9188  -29.7072   22.9246 C   0  0  0  0  0  0  0  0  0  0  0  0
  -21.4600   -9.5095   20.1001 C   0  0  0  0  0  0  0  0  0  0  0  0
  -22.9997   -8.6700   21.7620 C   0  0  0  0  0  0  0  0  0  0  0  0
  -22.5487  -28.9291   21.9542 C   0  0  0  0  0  0  0  0  0  0  0  0
  -20.1388   -8.0432   23.4480 C   0  0  0  0  0  0  0  0  0  0  0  0
  -19.8855   -7.6883   24.7729 C   0  0  0  0  0  0  0  0  0  0  0  0
  -23.6225  -30.9031   21.0770 C   0  0  0  0  0  0  0  0  0  0  0  0
  -28.8087  -20.7499   18.3682 C   0  0  0  0  0  0  0  0  0  0  0  0
  -20.8313   -5.5022   24.3682 C   0  0  0  0  0  0  0  0  0  0  0  0
  -23.4905  -10.7242   20.5888 C   0  0  0  0  0  0  0  0  0  0  0  0
  -24.3329  -13.0954   21.0075 C   0  0  0  0  0  0  0  0  0  0  0  0
  -15.6523  -32.5638   23.2480 C   0  0  0  0  0  0  0  0  0  0  0  0
  -22.1279  -31.0930   22.9718 C   0  0  0  0  0  0  0  0  0  0  0  0
  -16.8302  -32.3139   22.5183 C   0  0  0  0  0  0  0  0  0  0  0  0
  -22.9961  -31.6961   22.0506 C   0  0  0  0  0  0  0  0  0  0  0  0
  -29.0523  -21.7721   19.2854 C   0  0  0  0  0  0  0  0  0  0  0  0
  -29.5837  -21.4716   20.5396 C   0  0  0  0  0  0  0  0  0  0  0  0
  -29.6278  -19.1268   19.9593 C   0  0  0  0  0  0  0  0  0  0  0  0
  -21.8096   -8.5449   21.0451 C   0  0  0  0  0  0  0  0  0  0  0  0
  -23.3984  -29.5274   21.0285 C   0  0  0  0  0  0  0  0  0  0  0  0
  -20.7382   -7.1276   22.5831 C   0  0  0  0  0  0  0  0  0  0  0  0
  -20.2318   -6.4178   25.2331 C   0  0  0  0  0  0  0  0  0  0  0  0
  -21.0845   -5.8571   23.0432 C   0  0  0  0  0  0  0  0  0  0  0  0
  -29.0964  -19.4272   18.7051 C   0  0  0  0  0  0  0  0  0  0  0  0
  -29.8715  -20.1490   20.8766 C   0  0  0  0  0  0  0  0  0  0  0  0
  -24.3593  -11.8492   20.3531 C   0  0  0  0  0  0  0  0  0  0  0  0
  -25.3515  -13.8102   20.4260 C   0  0  0  0  0  0  0  0  0  0  0  0
  -23.4652  -13.5649   22.0478 C   0  0  0  0  0  0  0  0  0  0  0  0
  -20.2709  -33.6537   22.6584 C   0  0  0  0  0  0  0  0  0  0  0  0
  -22.9750  -35.2357   23.4996 C   0  0  0  0  0  0  0  0  0  0  0  0
  -26.3837  -35.2634   23.6621 C   0  0  0  0  0  0  0  0  0  0  0  0
  -30.5860  -14.1531   18.5213 C   0  0  0  0  0  0  0  0  0  0  0  0
  -15.2845  -33.9518   23.7095 C   0  0  0  0  0  0  0  0  0  0  0  0
  -21.4619  -31.9144   24.0414 C   0  0  0  0  0  0  0  0  0  0  0  0
  -23.2700  -33.1770   22.0712 C   0  0  0  0  0  0  0  0  0  0  0  0
  -16.4603  -34.9253   23.7092 C   0  0  0  0  0  0  0  0  0  0  0  0
  -28.1260  -12.8349   16.3105 C   0  0  0  0  0  0  0  0  0  0  0  0
  -17.2434  -34.8163   22.4047 C   0  0  0  0  0  0  0  0  0  0  0  0
  -26.9276  -12.5581   17.2200 C   0  0  0  0  0  0  0  0  0  0  0  0
  -29.4489  -12.5468   17.0169 C   0  0  0  0  0  0  0  0  0  0  0  0
  -28.4238  -12.9561   19.2204 C   0  0  0  0  0  0  0  0  0  0  0  0
  -17.8319  -33.4111   22.2303 C   0  0  1  0  0  0  0  0  0  0  0  0
  -21.3455  -33.3908   23.6753 C   0  0  1  0  0  0  0  0  0  0  0  0
  -27.0689  -13.2854   18.5707 C   0  0  2  0  0  0  0  0  0  0  0  0
  -29.8371  -22.5852   21.5084 C   0  0  0  0  0  0  0  0  0  0  0  0
  -28.3107  -36.7096   24.3639 C   0  0  0  0  0  0  0  0  0  0  0  0
  -22.6176  -36.9276   20.9858 C   0  0  0  0  0  0  0  0  0  0  0  0
  -24.9978  -37.6652   21.2281 C   0  0  0  0  0  0  0  0  0  0  0  0
  -23.3385  -38.2066   23.0103 C   0  0  0  0  0  0  0  0  0  0  0  0
  -27.2862  -33.2865   25.6712 C   0  0  0  0  0  0  0  0  0  0  0  0
  -29.9351  -17.7038   20.3160 C   0  0  0  0  0  0  0  0  0  0  0  0
  -28.7332  -23.1854   18.8961 C   0  0  0  0  0  0  0  0  0  0  0  0
  -31.2549  -17.1769   19.7268 C   0  0  0  0  0  0  0  0  0  0  0  0
  -25.9304  -25.5339   19.9776 C   0  0  0  0  0  0  0  0  0  0  0  0
  -25.5448  -26.9739   19.6475 C   0  0  0  0  0  0  0  0  0  0  0  0
  -31.6000  -15.7455   20.1323 C   0  0  0  0  0  0  0  0  0  0  0  0
  -27.1892  -25.1202   19.2301 C   0  0  0  0  0  0  0  0  0  0  0  0
  -24.3110  -27.4169   20.4210 C   0  0  0  0  0  0  0  0  0  1  0  0
  -24.1458  -35.8248   22.7506 C   0  0  1  0  0  0  0  0  0  0  0  0
  -27.3356  -35.6226   24.7887 C   0  0  2  0  0  0  0  0  0  0  0  0
  -23.7685  -37.1284   21.9918 C   0  0  0  0  0  0  0  0  0  0  0  0
  -25.3186  -11.7734   19.4268 N   0  0  0  0  0  0  0  0  0  0  0  0
  -25.9043  -12.9811   19.4948 N   0  0  0  0  0  0  0  0  0  0  0  0
  -22.5903  -33.9384   23.1323 N   0  0  0  0  0  0  0  0  0  0  0  0
  -29.5203  -13.2677   18.2901 N   0  0  0  0  0  0  0  0  0  0  0  0
  -25.8191  -15.0607   20.6255 N   0  0  0  0  0  0  0  0  0  0  0  0
  -22.4724  -12.7013   22.5303 N   0  0  0  0  0  0  0  0  0  0  0  0
  -19.0101  -33.2506   23.0553 N   0  0  0  0  0  0  0  0  0  0  0  0
  -25.2146  -35.9913   23.7295 N   0  0  0  0  0  0  0  0  0  0  0  0
  -30.5744  -14.8003   19.7509 N   0  0  0  0  0  0  0  0  0  0  0  0
  -28.1189  -34.4257   25.2066 N   0  3  0  0  0  0  0  0  0  0  0  0
  -27.4985  -23.7048   19.5457 N   0  3  0  0  0  0  0  0  0  0  0  0
  -23.5567  -14.7219   22.5238 O   0  0  0  0  0  0  0  0  0  0  0  0
  -20.5637  -34.1843   21.5933 O   0  0  0  0  0  0  0  0  0  0  0  0
  -22.4266  -35.8992   24.3832 O   0  0  0  0  0  0  0  0  0  0  0  0
  -26.6521  -34.4239   22.8055 O   0  0  0  0  0  0  0  0  0  0  0  0
  -31.4785  -14.3562   17.6912 O   0  0  0  0  0  0  0  0  0  0  0  0
  -20.9897   -7.4817   21.2682 O   0  0  0  0  0  0  0  0  0  0  0  0
  -24.0139  -28.7704   20.0798 O   0  0  0  0  0  0  0  0  0  1  0  0
  -19.9899   -6.0777   26.5059 F   0  0  0  0  0  0  0  0  0  0  0  0
  -21.6617   -4.9737   22.2173 F   0  0  0  0  0  0  0  0  0  0  0  0
  -28.7788  -18.1935   17.5389 Cl  0  0  0  0  0  0  0  0  0  0  0  0
  -30.5318  -19.7786   22.4359 Cl  0  0  0  0  0  0  0  0  0  0  0  0
  1  2  1  0  0  0  0
  1  5  2  0  0  0  0
  2  6  2  0  0  0  0
  3  8  2  0  0  0  0
  3 16  1  0  0  0  0
  4  9  1  0  0  0  0
  4 16  2  0  0  0  0
  5 18  1  0  0  0  0
  6 20  1  0  0  0  0
  7 10  2  0  0  0  0
  7 19  1  0  0  0  0
  8 25  1  0  0  0  0
  9 25  2  0  0  0  0
 10 26  1  0  0  0  0
 11 12  2  0  0  0  0
 11 27  1  0  0  0  0
 12 28  1  0  0  0  0
 13 21  1  0  0  0  0
 13 26  2  0  0  0  0
 14 22  1  0  0  0  0
 14 30  2  0  0  0  0
 15 28  2  0  0  0  0
 15 29  1  0  0  0  0
 16 32  1  0  0  0  0
 17 32  1  0  0  0  0
 17 33  2  0  0  0  0
 17 34  1  0  0  0  0
 18 20  2  0  0  0  0
 18 39  1  0  0  0  0
 19 21  2  0  0  0  0
 19 40  1  0  0  0  0
 20 48  1  0  0  0  0
 21 41  1  0  0  0  0
 22 23  2  0  0  0  0
 22 58  1  0  0  0  0
 23 31  1  0  0  0  0
 23 51  1  0  0  0  0
 24 30  1  0  0  0  0
 24 31  2  0  0  0  0
 24 57  1  0  0  0  0
 25 84  1  0  0  0  0
 26 85  1  0  0  0  0
 27 29  2  0  0  0  0
 27 84  1  0  0  0  0
 28 86  1  0  0  0  0
 29 87  1  0  0  0  0
 30 88  1  0  0  0  0
 31 89  1  0  0  0  0
 32 68  2  0  0  0  0
 33 69  1  0  0  0  0
 33 72  1  0  0  0  0
 34 73  1  0  0  0  0
 34 79  2  0  0  0  0
 35 49  1  0  0  0  0
 35 74  1  0  0  0  0
 35 80  2  0  0  0  0
 36 65  1  0  0  0  0
 36 70  1  0  0  0  0
 36 81  2  0  0  0  0
 37 66  1  0  0  0  0
 37 75  1  0  0  0  0
 37 82  2  0  0  0  0
 38 71  1  0  0  0  0
 38 76  1  0  0  0  0
 38 83  2  0  0  0  0
 39 42  1  0  0  0  0
 40 49  1  0  0  0  0
 41 70  1  0  0  0  0
 42 44  1  0  0  0  0
 43 45  1  0  0  0  0
 43 46  1  0  0  0  0
 44 48  1  0  0  0  0
 45 50  1  0  0  0  0
 46 71  1  0  0  0  0
 47 50  1  0  0  0  0
 47 71  1  0  0  0  0
 48 74  1  0  0  0  0
 49 70  1  0  0  0  0
 50 69  1  0  0  0  0
 52 66  1  0  0  0  0
 53 67  1  0  0  0  0
 54 67  1  0  0  0  0
 55 67  1  0  0  0  0
 56 77  1  0  0  0  0
 57 59  1  0  0  0  0
 58 78  1  0  0  0  0
 59 62  1  0  0  0  0
 60 61  1  0  0  0  0
 60 63  1  0  0  0  0
 61 64  1  0  0  0  0
 62 76  1  0  0  0  0
 63 78  1  0  0  0  0
 64 85  1  0  0  0  0
 65 67  1  0  0  0  0
 65 75  1  0  0  0  0
 66 77  1  0  0  0  0
 68 69  1  0  0  0  0
M  CHG  2  77   1  78   1
M  ISO  4  38 100  64 101  76 100  85 101
M  END
> <Batch ID>
0023

> <Smiles>
CNC(C)C(=O)NC(C(=O)N1Cc2cc([101O:1][101CH2:1]CCCNCc3cc(Cl)c(CCC[100NH:0][100C:0](=O)N4CCCC(n5nc(-c6ccc(Oc7ccc(F)cc7F)cc6)c(C(N)=O)c5N)C4)c(Cl)c3C)ccc2CC1C(=O)NC1CCCc2ccccc21)C(C)(C)C

> <Shape>
0.325

> <Color>
0.097

> <Negative vol penalty>
0.000

$$$$

  -OEChem-04052316193D

 96105  0     1  0  0  0  0  0999 V2000
  -30.8471  -31.9321   15.7049 C   0  0  0  0  0  0  0  0  0  0  0  0
  -29.8411  -30.9725   15.7544 C   0  0  0  0  0  0  0  0  0  0  0  0
  -27.9261  -13.1575   18.5793 C   0  0  0  0  0  0  0  0  0  0  0  0
  -28.7360  -12.0874   20.5882 C   0  0  0  0  0  0  0  0  0  0  0  0
  -31.3866  -32.4364   16.8875 C   0  0  0  0  0  0  0  0  0  0  0  0
  -29.3747  -30.5157   16.9866 C   0  0  0  0  0  0  0  0  0  0  0  0
  -23.6417  -28.8666   18.3717 C   0  0  0  0  0  0  0  0  0  0  0  0
  -29.1869  -13.0216   17.9985 C   0  0  0  0  0  0  0  0  0  0  0  0
  -29.9969  -11.9515   20.0074 C   0  0  0  0  0  0  0  0  0  0  0  0
  -23.0168  -27.6229   18.4516 C   0  0  0  0  0  0  0  0  0  0  0  0
  -32.2904  -13.2796   16.1208 C   0  0  0  0  0  0  0  0  0  0  0  0
  -32.8166  -14.3802   15.4445 C   0  0  0  0  0  0  0  0  0  0  0  0
  -23.4090  -27.5854   20.8315 C   0  0  0  0  0  0  0  0  0  0  0  0
  -32.7110  -15.6803   17.4782 C   0  0  0  0  0  0  0  0  0  0  0  0
  -27.7006  -12.6905   19.8742 C   0  0  0  0  0  0  0  0  0  0  0  0
  -25.7003  -14.0286   20.7202 C   0  0  0  0  0  0  0  0  0  0  0  0
  -30.9199  -31.9927   18.1349 C   0  0  0  0  0  0  0  0  0  0  0  0
  -24.1655  -29.4751   19.5213 C   0  0  0  0  0  0  0  0  0  0  0  0
  -29.9094  -31.0136   18.1870 C   0  0  0  0  0  0  0  0  0  0  0  0
  -24.0378  -28.8381   20.7639 C   0  0  0  0  0  0  0  0  0  0  0  0
  -30.2223  -12.4186   18.7125 C   0  0  0  0  0  0  0  0  0  0  0  0
  -22.9029  -26.9808   19.6811 C   0  0  0  0  0  0  0  0  0  0  0  0
  -31.9744  -13.3794   17.4758 C   0  0  0  0  0  0  0  0  0  0  0  0
  -33.0270  -15.5805   16.1232 C   0  0  0  0  0  0  0  0  0  0  0  0
  -32.1847  -14.5797   18.1545 C   0  0  0  0  0  0  0  0  0  0  0  0
  -26.3985  -12.8311   20.4749 C   0  0  0  0  0  0  0  0  0  0  0  0
  -24.5219  -13.6264   21.2999 C   0  0  0  0  0  0  0  0  0  0  0  0
  -26.0828  -15.3834   20.4484 C   0  0  0  0  0  0  0  0  0  0  0  0
  -27.0661  -30.3760   20.4589 C   0  0  0  0  0  0  0  0  0  0  0  0
  -25.4394  -31.6312   22.9690 C   0  0  0  0  0  0  0  0  0  0  0  0
  -22.6466  -31.5783   24.9297 C   0  0  0  0  0  0  0  0  0  0  0  0
  -21.7794   -8.1587   20.9525 C   0  0  0  0  0  0  0  0  0  0  0  0
  -31.5667  -32.5324   19.3859 C   0  0  0  0  0  0  0  0  0  0  0  0
  -24.8130  -30.8292   19.4225 C   0  0  0  0  0  0  0  0  0  0  0  0
  -24.5655  -29.4583   22.0309 C   0  0  0  0  0  0  0  0  0  0  0  0
  -30.7561  -32.2702   20.6525 C   0  0  0  0  0  0  0  0  0  0  0  0
  -22.6473  -10.1296   23.9631 C   0  0  0  0  0  0  0  0  0  0  0  0
  -30.2800  -30.8215   20.6913 C   0  0  0  0  0  0  0  0  0  0  0  0
  -23.7032  -11.0986   23.4339 C   0  0  0  0  0  0  0  0  0  0  0  0
  -20.6604  -12.2490   16.3753 C   0  0  0  0  0  0  0  0  0  0  0  0
  -22.7441  -12.0773   17.7804 C   0  0  0  0  0  0  0  0  0  0  0  0
  -19.6200  -10.7603   21.7176 C   0  0  0  0  0  0  0  0  0  0  0  0
  -22.6277   -8.8249   23.1724 C   0  0  0  0  0  0  0  0  0  0  0  0
  -23.5176   -9.9812   21.1761 C   0  0  0  0  0  0  0  0  0  0  0  0
  -21.0328  -13.6793   16.0094 C   0  0  0  0  0  0  0  0  0  0  0  0
  -23.1056  -13.5086   17.4074 C   0  0  0  0  0  0  0  0  0  0  0  0
  -29.3599  -30.5112   19.5045 C   0  0  1  0  0  0  0  0  0  0  0  0
  -25.7667  -31.1212   20.5769 C   0  0  1  0  0  0  0  0  0  0  0  0
  -21.2291  -11.8453   17.7407 C   0  0  0  0  0  0  0  0  0  0  0  0
  -19.5525  -11.9409   20.7847 C   0  0  1  0  0  0  0  0  0  0  0  0
  -19.6571  -10.5448   20.2274 C   0  0  1  0  0  0  0  0  0  0  0  0
  -23.5319  -11.3242   21.9216 C   0  0  2  0  0  0  0  0  0  0  0  0
  -21.6202  -32.6988   26.9268 C   0  0  0  0  0  0  0  0  0  0  0  0
  -18.0662  -13.6818   21.8161 C   0  0  0  0  0  0  0  0  0  0  0  0
  -18.2379  -13.4977   19.3181 C   0  0  0  0  0  0  0  0  0  0  0  0
  -24.4142  -15.0926   15.1242 C   0  0  0  0  0  0  0  0  0  0  0  0
  -27.3219  -30.0813   24.8030 C   0  0  0  0  0  0  0  0  0  0  0  0
  -25.7007  -30.4612   26.6727 C   0  0  0  0  0  0  0  0  0  0  0  0
  -26.8025  -32.4059   25.5651 C   0  0  0  0  0  0  0  0  0  0  0  0
  -20.3472   -7.7640   18.9846 C   0  0  0  0  0  0  0  0  0  0  0  0
  -20.3240  -32.5177   23.3542 C   0  0  0  0  0  0  0  0  0  0  0  0
  -20.8952  -10.3892   18.0576 C   0  0  0  0  0  0  0  0  0  0  0  0
  -22.5438  -20.0871   17.1141 C   0  0  0  0  0  0  0  0  0  0  0  0
  -22.4587  -21.0398   18.3089 C   0  0  0  0  0  0  0  0  0  0  0  0
  -22.5651  -18.6090   17.5163 C   0  0  0  0  0  0  0  0  0  0  0  0
  -22.4642  -22.5014   17.8536 C   0  0  0  0  0  0  0  0  0  0  0  0
  -22.7261  -17.6605   16.3259 C   0  0  0  0  0  0  0  0  0  0  0  0
  -22.3497  -23.4550   19.0466 C   0  0  0  0  0  0  0  0  0  0  0  0
  -22.7404  -16.1808   16.7288 C   0  0  0  0  0  0  0  0  0  0  0  0
  -22.3792  -24.9177   18.6202 C   0  0  0  0  0  0  0  0  0  1  0  0
  -25.0096  -31.1256   24.3249 C   0  0  1  0  0  0  0  0  0  0  0  0
  -21.7319  -32.6905   25.4101 C   0  0  2  0  0  0  0  0  0  0  0  0
  -18.2848  -12.7097   20.6410 C   0  0  0  0  0  0  0  0  0  0  0  0
  -20.9259  -10.0918   19.5608 C   0  0  2  0  0  0  0  0  0  0  0  0
  -22.9642  -15.1949   15.5768 C   0  0  2  0  0  0  0  0  0  0  0  0
  -26.2003  -31.0057   25.3174 C   0  0  0  0  0  0  0  0  0  0  0  0
  -25.7202  -11.7492   20.8668 N   0  0  0  0  0  0  0  0  0  0  0  0
  -24.5836  -12.2655   21.3643 N   0  0  0  0  0  0  0  0  0  0  0  0
  -25.1959  -30.7803   21.8816 N   0  0  0  0  0  0  0  0  0  0  0  0
  -22.5075   -9.0701   21.7348 N   0  0  0  0  0  0  0  0  0  0  0  0
  -23.4493  -14.3077   21.7558 N   0  0  0  0  0  0  0  0  0  0  0  0
  -26.7828  -16.0909   21.4351 N   0  0  0  0  0  0  0  0  0  0  0  0
  -28.0357  -31.0465   19.7381 N   0  0  0  0  0  0  0  0  0  0  0  0
  -23.9448  -32.0161   24.7739 N   0  0  0  0  0  0  0  0  0  0  0  0
  -21.1244   -8.6677   19.8209 N   0  0  0  0  0  0  0  0  0  0  0  0
  -22.5338  -13.8333   16.0487 N   0  3  0  0  0  0  0  0  0  0  0  0
  -20.3658  -32.5206   24.8392 N   0  3  0  0  0  0  0  0  0  0  0  0
  -25.7974  -15.9552   19.3689 O   0  0  0  0  0  0  0  0  0  0  0  0
  -27.1809  -29.2748   20.9843 O   0  0  0  0  0  0  0  0  0  0  0  0
  -25.9650  -32.7434   22.8771 O   0  0  0  0  0  0  0  0  0  0  0  0
  -22.2499  -30.4345   24.7175 O   0  0  0  0  0  0  0  0  0  0  0  0
  -21.7105   -6.9602   21.2539 O   0  0  0  0  0  0  0  0  0  0  0  0
  -31.4528  -12.2856   18.1460 O   0  0  0  0  0  0  0  0  0  0  0  0
  -22.2894  -25.7573   19.7625 O   0  0  0  0  0  0  0  0  0  1  0  0
  -33.5337  -16.6369   15.4740 F   0  0  0  0  0  0  0  0  0  0  0  0
  -31.8842  -14.6813   19.4565 F   0  0  0  0  0  0  0  0  0  0  0  0
  1  2  1  0  0  0  0
  1  5  2  0  0  0  0
  2  6  2  0  0  0  0
  3  8  2  0  0  0  0
  3 15  1  0  0  0  0
  4  9  1  0  0  0  0
  4 15  2  0  0  0  0
  5 17  1  0  0  0  0
  6 19  1  0  0  0  0
  7 10  2  0  0  0  0
  7 18  1  0  0  0  0
  8 21  1  0  0  0  0
  9 21  2  0  0  0  0
 10 22  1  0  0  0  0
 11 12  2  0  0  0  0
 11 23  1  0  0  0  0
 12 24  1  0  0  0  0
 13 20  1  0  0  0  0
 13 22  2  0  0  0  0
 14 24  2  0  0  0  0
 14 25  1  0  0  0  0
 15 26  1  0  0  0  0
 16 26  1  0  0  0  0
 16 27  2  0  0  0  0
 16 28  1  0  0  0  0
 17 19  2  0  0  0  0
 17 33  1  0  0  0  0
 18 20  2  0  0  0  0
 18 34  1  0  0  0  0
 19 47  1  0  0  0  0
 20 35  1  0  0  0  0
 21 93  1  0  0  0  0
 22 94  1  0  0  0  0
 23 25  2  0  0  0  0
 23 93  1  0  0  0  0
 24 95  1  0  0  0  0
 25 96  1  0  0  0  0
 26 77  2  0  0  0  0
 27 78  1  0  0  0  0
 27 81  1  0  0  0  0
 28 82  1  0  0  0  0
 28 88  2  0  0  0  0
 29 48  1  0  0  0  0
 29 83  1  0  0  0  0
 29 89  2  0  0  0  0
 30 71  1  0  0  0  0
 30 79  1  0  0  0  0
 30 90  2  0  0  0  0
 31 72  1  0  0  0  0
 31 84  1  0  0  0  0
 31 91  2  0  0  0  0
 32 80  1  0  0  0  0
 32 85  1  0  0  0  0
 32 92  2  0  0  0  0
 33 36  1  0  0  0  0
 34 48  1  0  0  0  0
 35 79  1  0  0  0  0
 36 38  1  0  0  0  0
 37 39  1  0  0  0  0
 37 43  1  0  0  0  0
 38 47  1  0  0  0  0
 39 52  1  0  0  0  0
 40 45  1  0  0  0  0
 40 49  1  0  0  0  0
 41 46  1  0  0  0  0
 41 49  1  0  0  0  0
 42 50  1  0  0  0  0
 42 51  1  0  0  0  0
 43 80  1  0  0  0  0
 44 52  1  0  0  0  0
 44 80  1  0  0  0  0
 45 86  1  0  0  0  0
 46 86  1  0  0  0  0
 47 83  1  0  0  0  0
 48 79  1  0  0  0  0
 49 62  1  0  0  0  0
 50 51  1  0  0  0  0
 50 73  1  0  0  0  0
 51 74  1  0  0  0  0
 52 78  1  0  0  0  0
 53 72  1  0  0  0  0
 54 73  1  0  0  0  0
 55 73  1  0  0  0  0
 56 75  1  0  0  0  0
 57 76  1  0  0  0  0
 58 76  1  0  0  0  0
 59 76  1  0  0  0  0
 60 85  1  0  0  0  0
 61 87  1  0  0  0  0
 62 74  1  0  0  0  0
 63 64  1  0  0  0  0
 63 65  1  0  0  0  0
 64 66  1  0  0  0  0
 65 67  1  0  0  0  0
 66 68  1  0  0  0  0
 67 69  1  0  0  0  0
 68 70  1  0  0  0  0
 69 75  1  0  0  0  0
 70 94  1  0  0  0  0
 71 76  1  0  0  0  0
 71 84  1  0  0  0  0
 72 87  1  0  0  0  0
 74 85  1  0  0  0  0
 75 86  1  0  0  0  0
 77 78  1  0  0  0  0
M  CHG  2  86   1  87   1
M  ISO  4  32 100  70 101  85 100  94 101
M  END
> <Batch ID>
0023

> <Smiles>
CNC(C)C(=O)NC(C(=O)N1Cc2cc([101O:1][101CH2:1]CCCCCCCC(C)N3CCC(CC(C4CC4C(C)C)[100N:0](C)[100C:0](=O)N4CCCC(n5nc(-c6ccc(Oc7ccc(F)cc7F)cc6)c(C(N)=O)c5N)C4)CC3)ccc2CC1C(=O)NC1CCCc2ccccc21)C(C)(C)C

> <Shape>
0.217

> <Color>
0.112

> <Negative vol penalty>
0.000

$$$$

  -OEChem-04052316193D

 88 96  0     1  0  0  0  0  0999 V2000
  -28.3835  -37.9264   24.1524 C   0  0  0  0  0  0  0  0  0  0  0  0
  -28.9320  -36.6514   24.2468 C   0  0  0  0  0  0  0  0  0  0  0  0
  -24.5957   -9.0529   21.3903 C   0  0  0  0  0  0  0  0  0  0  0  0
  -23.3289  -10.9325   22.2268 C   0  0  0  0  0  0  0  0  0  0  0  0
  -27.0370  -38.1287   24.4521 C   0  0  0  0  0  0  0  0  0  0  0  0
  -28.1344  -35.5781   24.6421 C   0  0  0  0  0  0  0  0  0  0  0  0
  -28.5288  -29.7851   22.6950 C   0  0  0  0  0  0  0  0  0  0  0  0
  -24.0572   -8.2445   22.3913 C   0  0  0  0  0  0  0  0  0  0  0  0
  -22.7904  -10.1240   23.2278 C   0  0  0  0  0  0  0  0  0  0  0  0
  -29.1260  -28.6503   23.2421 C   0  0  0  0  0  0  0  0  0  0  0  0
  -21.1589   -6.6053   22.9793 C   0  0  0  0  0  0  0  0  0  0  0  0
  -20.7018   -5.3391   22.6141 C   0  0  0  0  0  0  0  0  0  0  0  0
  -27.0048  -27.9968   24.1869 C   0  0  0  0  0  0  0  0  0  0  0  0
  -27.4581  -20.2209   23.5980 C   0  0  0  0  0  0  0  0  0  0  0  0
  -28.8185  -18.6447   22.3726 C   0  0  0  0  0  0  0  0  0  0  0  0
  -22.2797   -4.3294   24.1397 C   0  0  0  0  0  0  0  0  0  0  0  0
  -24.2316  -10.3970   21.3080 C   0  0  0  0  0  0  0  0  0  0  0  0
  -24.2648  -11.4537   18.9864 C   0  0  0  0  0  0  0  0  0  0  0  0
  -26.2201  -37.0557   24.8419 C   0  0  0  0  0  0  0  0  0  0  0  0
  -27.1651  -30.0404   22.8993 C   0  0  0  0  0  0  0  0  0  0  0  0
  -26.7760  -35.7665   24.9486 C   0  0  0  0  0  0  0  0  0  0  0  0
  -26.3921  -29.1342   23.6392 C   0  0  0  0  0  0  0  0  0  0  0  0
  -28.7146  -19.7451   23.2235 C   0  0  0  0  0  0  0  0  0  0  0  0
  -26.3054  -19.5963   23.1217 C   0  0  0  0  0  0  0  0  0  0  0  0
  -27.6658  -18.0200   21.8963 C   0  0  0  0  0  0  0  0  0  0  0  0
  -23.1545   -8.7800   23.3100 C   0  0  0  0  0  0  0  0  0  0  0  0
  -28.3647  -27.7574   23.9905 C   0  0  0  0  0  0  0  0  0  0  0  0
  -22.1765   -6.7336   23.9247 C   0  0  0  0  0  0  0  0  0  0  0  0
  -21.2622   -4.2012   23.1943 C   0  0  0  0  0  0  0  0  0  0  0  0
  -22.7369   -5.5956   24.5049 C   0  0  0  0  0  0  0  0  0  0  0  0
  -26.4093  -18.4959   22.2708 C   0  0  0  0  0  0  0  0  0  0  0  0
  -24.7879  -11.2327   20.2746 C   0  0  0  0  0  0  0  0  0  0  0  0
  -25.1557  -12.3173   18.3975 C   0  0  0  0  0  0  0  0  0  0  0  0
  -23.0795  -10.9255   18.3768 C   0  0  0  0  0  0  0  0  0  0  0  0
  -25.5024  -32.3591   24.3001 C   0  0  0  0  0  0  0  0  0  0  0  0
  -22.9662  -30.7420   23.0854 C   0  0  0  0  0  0  0  0  0  0  0  0
  -21.6870  -27.7882   21.9517 C   0  0  0  0  0  0  0  0  0  0  0  0
  -29.0012  -16.3339   20.5849 C   0  0  0  0  0  0  0  0  0  0  0  0
  -24.7816  -37.3316   25.2014 C   0  0  0  0  0  0  0  0  0  0  0  0
  -26.5301  -31.2551   22.2800 C   0  0  0  0  0  0  0  0  0  0  0  0
  -24.9199  -29.3520   23.8706 C   0  0  0  0  0  0  0  0  0  0  0  0
  -23.9146  -36.0762   25.2509 C   0  0  0  0  0  0  0  0  0  0  0  0
  -29.7786  -13.5645   18.4865 C   0  0  0  0  0  0  0  0  0  0  0  0
  -24.6207  -34.9701   26.0286 C   0  0  0  0  0  0  0  0  0  0  0  0
  -28.5369  -12.6753   18.5849 C   0  0  0  0  0  0  0  0  0  0  0  0
  -30.0991  -14.2405   19.8184 C   0  0  0  0  0  0  0  0  0  0  0  0
  -27.7426  -14.0917   20.5213 C   0  0  0  0  0  0  0  0  0  0  0  0
  -25.9372  -34.5726   25.3500 C   0  0  1  0  0  0  0  0  0  0  0  0
  -25.2456  -31.6821   22.9835 C   0  0  1  0  0  0  0  0  0  0  0  0
  -27.3423  -13.4403   19.1875 C   0  0  2  0  0  0  0  0  0  0  0  0
  -24.7627  -21.5892   23.0783 C   0  0  0  0  0  0  0  0  0  0  0  0
  -24.7740  -20.0471   25.0725 C   0  0  0  0  0  0  0  0  0  0  0  0
  -19.5734  -26.7692   21.0618 C   0  0  0  0  0  0  0  0  0  0  0  0
  -32.6578  -21.8440   22.9204 C   0  0  0  0  0  0  0  0  0  0  0  0
  -21.8028  -30.6982   25.9058 C   0  0  0  0  0  0  0  0  0  0  0  0
  -20.2307  -28.9004   25.1542 C   0  0  0  0  0  0  0  0  0  0  0  0
  -20.1376  -31.1581   24.0974 C   0  0  0  0  0  0  0  0  0  0  0  0
  -22.9713  -27.0859   19.3795 C   0  0  0  0  0  0  0  0  0  0  0  0
  -29.9541  -20.4180   23.7354 C   0  0  0  0  0  0  0  0  0  0  0  0
  -30.1082  -24.5843   24.0472 C   0  0  0  0  0  0  0  0  0  0  0  0
  -31.2960  -23.9351   23.3246 C   0  0  0  0  0  0  0  0  0  0  0  0
  -30.0532  -26.0912   23.8209 C   0  0  0  0  0  0  0  0  0  1  0  0
  -24.9805  -20.1406   23.5503 C   0  0  0  0  0  0  0  0  0  0  0  0
  -22.0777  -29.6237   23.5742 C   0  0  1  0  0  0  0  0  0  0  0  0
  -20.8869  -27.4486   20.7071 C   0  0  2  0  0  0  0  0  0  0  0  0
  -31.4252  -22.4316   23.5950 C   0  0  1  0  0  0  0  0  0  0  0  0
  -21.0903  -30.0917   24.6803 C   0  0  0  0  0  0  0  0  0  0  0  0
  -25.9233  -11.9019   20.4918 N   0  0  0  0  0  0  0  0  0  0  0  0
  -26.1209  -12.5518   19.3322 N   0  0  0  0  0  0  0  0  0  0  0  0
  -24.3464  -30.5575   23.2499 N   0  0  0  0  0  0  0  0  0  0  0  0
  -28.9224  -14.9490   20.3265 N   0  0  0  0  0  0  0  0  0  0  0  0
  -25.1999  -12.8914   17.1765 N   0  0  0  0  0  0  0  0  0  0  0  0
  -22.2769  -10.0516   19.1228 N   0  0  0  0  0  0  0  0  0  0  0  0
  -27.8111  -16.9054   21.0336 N   0  0  0  0  0  0  0  0  0  0  0  0
  -25.6799  -33.7261   24.2047 N   0  0  0  0  0  0  0  0  0  0  0  0
  -21.4298  -29.0700   22.3902 N   0  0  0  0  0  0  0  0  0  0  0  0
  -21.6654  -26.5346   19.8243 N   0  3  0  0  0  0  0  0  0  0  0  0
  -30.2294  -21.7167   23.0679 N   0  3  0  0  0  0  0  0  0  0  0  0
  -22.7507  -11.2069   17.1994 O   0  0  0  0  0  0  0  0  0  0  0  0
  -25.5354  -31.6908   25.3268 O   0  0  0  0  0  0  0  0  0  0  0  0
  -22.4550  -31.7393   22.5699 O   0  0  0  0  0  0  0  0  0  0  0  0
  -22.4597  -26.9945   22.4840 O   0  0  0  0  0  0  0  0  0  0  0  0
  -30.0401  -16.9715   20.3942 O   0  0  0  0  0  0  0  0  0  0  0  0
  -22.6287   -7.9914   24.2868 O   0  0  0  0  0  0  0  0  0  0  0  0
  -28.9452  -26.6493   24.5262 O   0  0  0  0  0  0  0  0  0  1  0  0
  -20.8220   -2.9854   22.8446 F   0  0  0  0  0  0  0  0  0  0  0  0
  -23.7139   -5.7125   25.4146 F   0  0  0  0  0  0  0  0  0  0  0  0
  -24.9729  -17.7237   21.6828 Cl  0  0  0  0  0  0  0  0  0  0  0  0
  1  2  1  0  0  0  0
  1  5  2  0  0  0  0
  2  6  2  0  0  0  0
  3  8  2  0  0  0  0
  3 17  1  0  0  0  0
  4  9  1  0  0  0  0
  4 17  2  0  0  0  0
  5 19  1  0  0  0  0
  6 21  1  0  0  0  0
  7 10  2  0  0  0  0
  7 20  1  0  0  0  0
  8 26  1  0  0  0  0
  9 26  2  0  0  0  0
 10 27  1  0  0  0  0
 11 12  2  0  0  0  0
 11 28  1  0  0  0  0
 12 29  1  0  0  0  0
 13 22  1  0  0  0  0
 13 27  2  0  0  0  0
 14 23  2  0  0  0  0
 14 24  1  0  0  0  0
 15 23  1  0  0  0  0
 15 25  2  0  0  0  0
 16 29  2  0  0  0  0
 16 30  1  0  0  0  0
 17 32  1  0  0  0  0
 18 32  1  0  0  0  0
 18 33  2  0  0  0  0
 18 34  1  0  0  0  0
 19 21  2  0  0  0  0
 19 39  1  0  0  0  0
 20 22  2  0  0  0  0
 20 40  1  0  0  0  0
 21 48  1  0  0  0  0
 22 41  1  0  0  0  0
 23 59  1  0  0  0  0
 24 31  2  0  0  0  0
 24 63  1  0  0  0  0
 25 31  1  0  0  0  0
 25 74  1  0  0  0  0
 26 84  1  0  0  0  0
 27 85  1  0  0  0  0
 28 30  2  0  0  0  0
 28 84  1  0  0  0  0
 29 86  1  0  0  0  0
 30 87  1  0  0  0  0
 31 88  1  0  0  0  0
 32 68  2  0  0  0  0
 33 69  1  0  0  0  0
 33 72  1  0  0  0  0
 34 73  1  0  0  0  0
 34 79  2  0  0  0  0
 35 49  1  0  0  0  0
 35 75  1  0  0  0  0
 35 80  2  0  0  0  0
 36 64  1  0  0  0  0
 36 70  1  0  0  0  0
 36 81  2  0  0  0  0
 37 65  1  0  0  0  0
 37 76  1  0  0  0  0
 37 82  2  0  0  0  0
 38 71  1  0  0  0  0
 38 74  1  0  0  0  0
 38 83  2  0  0  0  0
 39 42  1  0  0  0  0
 40 49  1  0  0  0  0
 41 70  1  0  0  0  0
 42 44  1  0  0  0  0
 43 45  1  0  0  0  0
 43 46  1  0  0  0  0
 44 48  1  0  0  0  0
 45 50  1  0  0  0  0
 46 71  1  0  0  0  0
 47 50  1  0  0  0  0
 47 71  1  0  0  0  0
 48 75  1  0  0  0  0
 49 70  1  0  0  0  0
 50 69  1  0  0  0  0
 51 63  1  0  0  0  0
 52 63  1  0  0  0  0
 53 65  1  0  0  0  0
 54 66  1  0  0  0  0
 55 67  1  0  0  0  0
 56 67  1  0  0  0  0
 57 67  1  0  0  0  0
 58 77  1  0  0  0  0
 59 78  1  0  0  0  0
 60 61  1  0  0  0  0
 60 62  1  0  0  0  0
 61 66  1  0  0  0  0
 62 85  1  0  0  0  0
 64 67  1  0  0  0  0
 64 76  1  0  0  0  0
 65 77  1  0  0  0  0
 66 78  1  0  0  0  0
 68 69  1  0  0  0  0
M  CHG  2  77   1  78   1
M  ISO  4  38 100  62 101  74 100  85 101
M  END
> <Batch ID>
0023

> <Smiles>
CNC(C)C(=O)NC(C(=O)N1Cc2cc([101O:1][101CH2:1]CCC(C)NCc3cc([100NH:0][100C:0](=O)N4CCCC(n5nc(-c6ccc(Oc7ccc(F)cc7F)cc6)c(C(N)=O)c5N)C4)c(Cl)c(C(C)C)c3)ccc2CC1C(=O)NC1CCCc2ccccc21)C(C)(C)C

> <Shape>
0.269

> <Color>
0.094

> <Negative vol penalty>
0.000

$$$$

  -OEChem-04052316193D

 92100  0     1  0  0  0  0  0999 V2000
  -24.6324  -30.7700   20.7733 C   0  0  0  0  0  0  0  0  0  0  0  0
  -25.8264  -30.0709   20.9185 C   0  0  0  0  0  0  0  0  0  0  0  0
  -23.1529   -9.9061   19.9930 C   0  0  0  0  0  0  0  0  0  0  0  0
  -23.8127  -10.0449   22.3130 C   0  0  0  0  0  0  0  0  0  0  0  0
  -23.4151  -30.1035   20.9062 C   0  0  0  0  0  0  0  0  0  0  0  0
  -25.8036  -28.7049   21.1978 C   0  0  0  0  0  0  0  0  0  0  0  0
  -29.1011  -26.0907   18.3805 C   0  0  0  0  0  0  0  0  0  0  0  0
  -22.4386   -8.7396   20.2659 C   0  0  0  0  0  0  0  0  0  0  0  0
  -23.0984   -8.8783   22.5859 C   0  0  0  0  0  0  0  0  0  0  0  0
  -30.4417  -26.1387   18.7605 C   0  0  0  0  0  0  0  0  0  0  0  0
  -23.5258   -5.5470   22.1979 C   0  0  0  0  0  0  0  0  0  0  0  0
  -24.1443   -4.5782   22.9882 C   0  0  0  0  0  0  0  0  0  0  0  0
  -30.2108  -23.9864   19.8251 C   0  0  0  0  0  0  0  0  0  0  0  0
  -32.3035  -24.8264   24.8805 C   0  0  0  0  0  0  0  0  0  0  0  0
  -22.3661   -4.7681   24.6127 C   0  0  0  0  0  0  0  0  0  0  0  0
  -23.8401  -10.5588   21.0166 C   0  0  0  0  0  0  0  0  0  0  0  0
  -24.1007  -13.0865   20.7922 C   0  0  0  0  0  0  0  0  0  0  0  0
  -23.3774  -28.7267   21.1777 C   0  0  0  0  0  0  0  0  0  0  0  0
  -28.3011  -24.9932   18.7300 C   0  0  0  0  0  0  0  0  0  0  0  0
  -24.5846  -28.0196   21.3358 C   0  0  0  0  0  0  0  0  0  0  0  0
  -28.8610  -23.9257   19.4462 C   0  0  0  0  0  0  0  0  0  0  0  0
  -33.0581  -23.9959   24.0520 C   0  0  0  0  0  0  0  0  0  0  0  0
  -32.0706  -26.1519   24.5138 C   0  0  0  0  0  0  0  0  0  0  0  0
  -33.5800  -24.4909   22.8569 C   0  0  0  0  0  0  0  0  0  0  0  0
  -33.3471  -25.8165   22.4902 C   0  0  0  0  0  0  0  0  0  0  0  0
  -22.4113   -8.2257   21.5623 C   0  0  0  0  0  0  0  0  0  0  0  0
  -30.9959  -25.0878   19.4854 C   0  0  0  0  0  0  0  0  0  0  0  0
  -22.3274   -6.1264   22.6151 C   0  0  0  0  0  0  0  0  0  0  0  0
  -23.5645   -4.1887   24.1955 C   0  0  0  0  0  0  0  0  0  0  0  0
  -21.7476   -5.7369   23.8224 C   0  0  0  0  0  0  0  0  0  0  0  0
  -32.5924  -26.6470   23.3187 C   0  0  0  0  0  0  0  0  0  0  0  0
  -24.5786  -11.7636   20.7352 C   0  0  0  0  0  0  0  0  0  0  0  0
  -25.1814  -13.8574   20.4397 C   0  0  0  0  0  0  0  0  0  0  0  0
  -22.7966  -13.5748   21.1335 C   0  0  0  0  0  0  0  0  0  0  0  0
  -25.6845  -24.5950   20.4902 C   0  0  0  0  0  0  0  0  0  0  0  0
  -25.8572  -21.5597   19.3590 C   0  0  0  0  0  0  0  0  0  0  0  0
  -27.7810  -19.0543   18.0672 C   0  0  0  0  0  0  0  0  0  0  0  0
  -30.9355  -14.0337   21.0510 C   0  0  0  0  0  0  0  0  0  0  0  0
  -22.0373  -28.0591   21.3595 C   0  0  0  0  0  0  0  0  0  0  0  0
  -26.8638  -24.9444   18.2895 C   0  0  0  0  0  0  0  0  0  0  0  0
  -28.0501  -22.7155   19.8287 C   0  0  0  0  0  0  0  0  0  0  0  0
  -22.1006  -26.5357   21.2848 C   0  0  0  0  0  0  0  0  0  0  0  0
  -29.4006  -13.0338   17.9980 C   0  0  0  0  0  0  0  0  0  0  0  0
  -23.2556  -26.0073   22.1296 C   0  0  0  0  0  0  0  0  0  0  0  0
  -27.9563  -12.7273   18.3979 C   0  0  0  0  0  0  0  0  0  0  0  0
  -30.3874  -12.6242   19.0891 C   0  0  0  0  0  0  0  0  0  0  0  0
  -28.6554  -12.8734   20.8246 C   0  0  0  0  0  0  0  0  0  0  0  0
  -24.6012  -26.5323   21.6145 C   0  0  1  0  0  0  0  0  0  0  0  0
  -26.0085  -24.0133   19.1432 C   0  0  1  0  0  0  0  0  0  0  0  0
  -27.6191  -13.3202   19.7792 C   0  0  2  0  0  0  0  0  0  0  0  0
  -34.3877  -23.5955   21.9711 C   0  0  0  0  0  0  0  0  0  0  0  0
  -27.6480  -16.6761   17.2773 C   0  0  0  0  0  0  0  0  0  0  0  0
  -30.8024  -26.2021   26.6898 C   0  0  0  0  0  0  0  0  0  0  0  0
  -29.9746  -27.5343   24.7210 C   0  0  0  0  0  0  0  0  0  0  0  0
  -31.9834  -28.2736   25.9857 C   0  0  0  0  0  0  0  0  0  0  0  0
  -25.7401  -20.6069   22.2553 C   0  0  0  0  0  0  0  0  0  0  0  0
  -26.5550  -18.3703   21.4793 C   0  0  0  0  0  0  0  0  0  0  0  0
  -24.3726  -19.2550   20.6562 C   0  0  0  0  0  0  0  0  0  0  0  0
  -28.6463  -19.7915   15.3346 C   0  0  0  0  0  0  0  0  0  0  0  0
  -33.9195  -26.3330   21.1926 C   0  0  0  0  0  0  0  0  0  0  0  0
  -33.2929  -22.5809   24.4678 C   0  0  0  0  0  0  0  0  0  0  0  0
  -32.0639  -17.8083   23.5620 C   0  0  0  0  0  0  0  0  0  0  0  0
  -31.1651  -16.9003   22.7173 C   0  0  0  0  0  0  0  0  0  0  0  0
  -31.8652  -19.2806   23.1969 C   0  0  0  0  0  0  0  0  0  0  0  0
  -31.3308  -15.4249   23.0678 C   0  0  0  0  0  0  0  0  0  0  0  0
  -32.7341  -20.1803   24.0633 C   0  0  0  0  0  0  0  0  0  0  0  0
  -32.8695  -26.4218   20.0904 C   0  0  0  0  0  0  0  0  0  1  0  0
  -26.5236  -20.2846   19.8163 C   0  0  1  0  0  0  0  0  0  0  0  0
  -27.5755  -18.1403   16.8727 C   0  0  2  0  0  0  0  0  0  0  0  0
  -31.2563  -27.0049   25.4331 C   0  0  0  0  0  0  0  0  0  0  0  0
  -25.8129  -19.6528   21.0464 C   0  0  0  0  0  0  0  0  0  0  0  0
  -25.8628  -11.6943   20.3747 N   0  0  0  0  0  0  0  0  0  0  0  0
  -26.2010  -12.9834   20.2019 N   0  0  0  0  0  0  0  0  0  0  0  0
  -26.6478  -22.7174   19.3803 N   0  0  0  0  0  0  0  0  0  0  0  0
  -30.0119  -13.2209   20.3732 N   0  0  0  0  0  0  0  0  0  0  0  0
  -25.3493  -15.1909   20.3129 N   0  0  0  0  0  0  0  0  0  0  0  0
  -21.8026  -12.6462   21.4709 N   0  0  0  0  0  0  0  0  0  0  0  0
  -25.0112  -25.8004   20.4352 N   0  0  0  0  0  0  0  0  0  0  0  0
  -26.5830  -19.4133   18.6478 N   0  0  0  0  0  0  0  0  0  0  0  0
  -30.4971  -14.5647   22.2579 N   0  0  0  0  0  0  0  0  0  0  0  0
  -28.6194  -18.3948   15.8400 N   0  3  0  0  0  0  0  0  0  0  0  0
  -32.4746  -21.5994   23.7049 N   0  3  0  0  0  0  0  0  0  0  0  0
  -22.5164  -14.7975   21.1231 O   0  0  0  0  0  0  0  0  0  0  0  0
  -26.0192  -23.9939   21.5043 O   0  0  0  0  0  0  0  0  0  0  0  0
  -24.6807  -21.5283   18.9895 O   0  0  0  0  0  0  0  0  0  0  0  0
  -28.8933  -19.4110   18.4494 O   0  0  0  0  0  0  0  0  0  0  0  0
  -32.0649  -14.2731   20.6105 O   0  0  0  0  0  0  0  0  0  0  0  0
  -21.7142   -7.0875   21.8290 O   0  0  0  0  0  0  0  0  0  0  0  0
  -32.3040  -25.1324   19.8581 O   0  0  0  0  0  0  0  0  0  1  0  0
  -24.1577   -3.2573   24.9536 F   0  0  0  0  0  0  0  0  0  0  0  0
  -20.5958   -6.2891   24.2279 F   0  0  0  0  0  0  0  0  0  0  0  0
  -32.3019  -28.2940   22.8671 Cl  0  0  0  0  0  0  0  0  0  0  0  0
  1  2  1  0  0  0  0
  1  5  2  0  0  0  0
  2  6  2  0  0  0  0
  3  8  2  0  0  0  0
  3 16  1  0  0  0  0
  4  9  1  0  0  0  0
  4 16  2  0  0  0  0
  5 18  1  0  0  0  0
  6 20  1  0  0  0  0
  7 10  2  0  0  0  0
  7 19  1  0  0  0  0
  8 26  1  0  0  0  0
  9 26  2  0  0  0  0
 10 27  1  0  0  0  0
 11 12  2  0  0  0  0
 11 28  1  0  0  0  0
 12 29  1  0  0  0  0
 13 21  1  0  0  0  0
 13 27  2  0  0  0  0
 14 22  1  0  0  0  0
 14 23  2  0  0  0  0
 15 29  2  0  0  0  0
 15 30  1  0  0  0  0
 16 32  1  0  0  0  0
 17 32  1  0  0  0  0
 17 33  2  0  0  0  0
 17 34  1  0  0  0  0
 18 20  2  0  0  0  0
 18 39  1  0  0  0  0
 19 21  2  0  0  0  0
 19 40  1  0  0  0  0
 20 48  1  0  0  0  0
 21 41  1  0  0  0  0
 22 24  2  0  0  0  0
 22 61  1  0  0  0  0
 23 31  1  0  0  0  0
 23 70  1  0  0  0  0
 24 25  1  0  0  0  0
 24 51  1  0  0  0  0
 25 31  2  0  0  0  0
 25 60  1  0  0  0  0
 26 88  1  0  0  0  0
 27 89  1  0  0  0  0
 28 30  2  0  0  0  0
 28 88  1  0  0  0  0
 29 90  1  0  0  0  0
 30 91  1  0  0  0  0
 31 92  1  0  0  0  0
 32 72  2  0  0  0  0
 33 73  1  0  0  0  0
 33 76  1  0  0  0  0
 34 77  1  0  0  0  0
 34 83  2  0  0  0  0
 35 49  1  0  0  0  0
 35 78  1  0  0  0  0
 35 84  2  0  0  0  0
 36 68  1  0  0  0  0
 36 74  1  0  0  0  0
 36 85  2  0  0  0  0
 37 69  1  0  0  0  0
 37 79  1  0  0  0  0
 37 86  2  0  0  0  0
 38 75  1  0  0  0  0
 38 80  1  0  0  0  0
 38 87  2  0  0  0  0
 39 42  1  0  0  0  0
 40 49  1  0  0  0  0
 41 74  1  0  0  0  0
 42 44  1  0  0  0  0
 43 45  1  0  0  0  0
 43 46  1  0  0  0  0
 44 48  1  0  0  0  0
 45 50  1  0  0  0  0
 46 75  1  0  0  0  0
 47 50  1  0  0  0  0
 47 75  1  0  0  0  0
 48 78  1  0  0  0  0
 49 74  1  0  0  0  0
 50 73  1  0  0  0  0
 52 69  1  0  0  0  0
 53 70  1  0  0  0  0
 54 70  1  0  0  0  0
 55 70  1  0  0  0  0
 56 71  1  0  0  0  0
 57 71  1  0  0  0  0
 58 71  1  0  0  0  0
 59 81  1  0  0  0  0
 60 67  1  0  0  0  0
 61 82  1  0  0  0  0
 62 63  1  0  0  0  0
 62 64  1  0  0  0  0
 63 65  1  0  0  0  0
 64 66  1  0  0  0  0
 65 80  1  0  0  0  0
 66 82  1  0  0  0  0
 67 89  1  0  0  0  0
 68 71  1  0  0  0  0
 68 79  1  0  0  0  0
 69 81  1  0  0  0  0
 72 73  1  0  0  0  0
M  CHG  2  81   1  82   1
M  ISO  4  38 100  67 101  80 100  89 101
M  END
> <Batch ID>
0023

> <Smiles>
CNC(C)C(=O)NC(C(=O)N1Cc2cc([101O:1][101CH2:1]Cc3c(C)c(CNCCCCC[100NH:0][100C:0](=O)N4CCCC(n5nc(-c6ccc(Oc7ccc(F)cc7F)cc6)c(C(N)=O)c5N)C4)cc(C(C)(C)C)c3Cl)ccc2CC1C(=O)NC1CCCc2ccccc21)C(C)(C)C

> <Shape>
0.264

> <Color>
0.200

> <Negative vol penalty>
0.000

$$$$

  -OEChem-04052316193D

 84 92  0     1  0  0  0  0  0999 V2000
  -25.7790  -19.7894   23.9783 C   0  0  0  0  0  0  0  0  0  0  0  0
  -26.5497  -20.6640   23.2191 C   0  0  0  0  0  0  0  0  0  0  0  0
  -28.1277  -11.0159   22.0075 C   0  0  0  0  0  0  0  0  0  0  0  0
  -27.1228  -11.1052   19.8121 C   0  0  0  0  0  0  0  0  0  0  0  0
  -24.4259  -20.0543   24.1851 C   0  0  0  0  0  0  0  0  0  0  0  0
  -25.9675  -21.8036   22.6653 C   0  0  0  0  0  0  0  0  0  0  0  0
  -28.8263  -25.9386   23.2768 C   0  0  0  0  0  0  0  0  0  0  0  0
  -27.1725  -10.0811   22.4067 C   0  0  0  0  0  0  0  0  0  0  0  0
  -26.1676  -10.1704   20.2113 C   0  0  0  0  0  0  0  0  0  0  0  0
  -29.9178  -26.0900   22.4228 C   0  0  0  0  0  0  0  0  0  0  0  0
  -23.3063  -10.1458   22.0121 C   0  0  0  0  0  0  0  0  0  0  0  0
  -21.9764  -10.3920   21.6710 C   0  0  0  0  0  0  0  0  0  0  0  0
  -28.6393  -27.6251   21.0708 C   0  0  0  0  0  0  0  0  0  0  0  0
  -29.2556  -24.6808   18.2833 C   0  0  0  0  0  0  0  0  0  0  0  0
  -21.9144   -8.3255   20.4209 C   0  0  0  0  0  0  0  0  0  0  0  0
  -28.1028  -11.5280   20.7102 C   0  0  0  0  0  0  0  0  0  0  0  0
  -30.3426  -12.2326   19.7128 C   0  0  0  0  0  0  0  0  0  0  0  0
  -23.8289  -21.2028   23.6416 C   0  0  0  0  0  0  0  0  0  0  0  0
  -27.6274  -26.6220   23.0277 C   0  0  0  0  0  0  0  0  0  0  0  0
  -24.6048  -22.0834   22.8639 C   0  0  0  0  0  0  0  0  0  0  0  0
  -27.5348  -27.4826   21.9246 C   0  0  0  0  0  0  0  0  0  0  0  0
  -30.5651  -24.6550   17.8037 C   0  0  0  0  0  0  0  0  0  0  0  0
  -30.3378  -22.3009   17.3100 C   0  0  0  0  0  0  0  0  0  0  0  0
  -29.0283  -22.3267   17.7897 C   0  0  0  0  0  0  0  0  0  0  0  0
  -26.1925   -9.6583   21.5086 C   0  0  0  0  0  0  0  0  0  0  0  0
  -29.8235  -26.9312   21.3180 C   0  0  0  0  0  0  0  0  0  0  0  0
  -23.9403   -8.9894   21.5576 C   0  0  0  0  0  0  0  0  0  0  0  0
  -21.2804   -9.4819   20.8755 C   0  0  0  0  0  0  0  0  0  0  0  0
  -23.2443   -8.0793   20.7620 C   0  0  0  0  0  0  0  0  0  0  0  0
  -28.4872  -23.5167   18.2764 C   0  0  0  0  0  0  0  0  0  0  0  0
  -31.1062  -23.4651   17.3171 C   0  0  0  0  0  0  0  0  0  0  0  0
  -29.0889  -12.4941   20.2974 C   0  0  0  0  0  0  0  0  0  0  0  0
  -30.8929  -13.4746   19.5105 C   0  0  0  0  0  0  0  0  0  0  0  0
  -30.9548  -10.9790   19.3820 C   0  0  0  0  0  0  0  0  0  0  0  0
  -24.6368  -25.7487   22.3972 C   0  0  0  0  0  0  0  0  0  0  0  0
  -24.0687  -28.9332   22.6386 C   0  0  0  0  0  0  0  0  0  0  0  0
  -25.2876  -32.1156   22.4567 C   0  0  0  0  0  0  0  0  0  0  0  0
  -28.4356  -18.7837   18.7163 C   0  0  0  0  0  0  0  0  0  0  0  0
  -22.3518  -21.4223   23.8528 C   0  0  0  0  0  0  0  0  0  0  0  0
  -26.4679  -26.4685   23.9735 C   0  0  0  0  0  0  0  0  0  0  0  0
  -26.2769  -28.2546   21.6244 C   0  0  0  0  0  0  0  0  0  0  0  0
  -21.8975  -22.8466   23.5442 C   0  0  0  0  0  0  0  0  0  0  0  0
  -30.8466  -17.9236   21.2746 C   0  0  0  0  0  0  0  0  0  0  0  0
  -22.4827  -23.3178   22.2167 C   0  0  0  0  0  0  0  0  0  0  0  0
  -30.7820  -16.3953   21.2519 C   0  0  0  0  0  0  0  0  0  0  0  0
  -29.4675  -18.5384   21.0546 C   0  0  0  0  0  0  0  0  0  0  0  0
  -28.7199  -16.5645   19.7825 C   0  0  0  0  0  0  0  0  0  0  0  0
  -24.0151  -23.3430   22.2673 C   0  0  1  0  0  0  0  0  0  0  0  0
  -25.1264  -26.8154   23.3354 C   0  0  1  0  0  0  0  0  0  0  0  0
  -30.0865  -15.8828   19.9768 C   0  0  2  0  0  0  0  0  0  0  0  0
  -30.9035  -21.0146   16.7906 C   0  0  0  0  0  0  0  0  0  0  0  0
  -24.5754  -34.5128   22.6655 C   0  0  0  0  0  0  0  0  0  0  0  0
  -22.7592  -28.7812   19.8868 C   0  0  0  0  0  0  0  0  0  0  0  0
  -22.9332  -31.2747   19.7433 C   0  0  0  0  0  0  0  0  0  0  0  0
  -21.5547  -30.2235   21.5370 C   0  0  0  0  0  0  0  0  0  0  0  0
  -27.1360  -32.5888   24.7192 C   0  0  0  0  0  0  0  0  0  0  0  0
  -31.3579  -25.9373   17.8314 C   0  0  0  0  0  0  0  0  0  0  0  0
  -28.2136  -21.0702   17.7786 C   0  0  0  0  0  0  0  0  0  0  0  0
  -32.3914  -25.9983   18.9582 C   0  0  0  0  0  0  0  0  0  0  0  0
  -31.7700  -25.9670   20.3498 C   0  0  0  0  0  0  0  0  0  1  0  0
  -24.0759  -30.0964   21.6764 C   0  0  1  0  0  0  0  0  0  0  0  0
  -25.1452  -33.3037   23.3909 C   0  0  2  0  0  0  0  0  0  0  0  0
  -22.8539  -30.0781   20.7152 C   0  0  0  0  0  0  0  0  0  0  0  0
  -28.8564  -13.7997   20.4564 N   0  0  0  0  0  0  0  0  0  0  0  0
  -29.9715  -14.3697   19.9687 N   0  0  0  0  0  0  0  0  0  0  0  0
  -25.1686  -28.0661   22.5751 N   0  0  0  0  0  0  0  0  0  0  0  0
  -28.8682  -18.0233   19.8154 N   0  0  0  0  0  0  0  0  0  0  0  0
  -32.0703  -13.8775   18.9872 N   0  0  0  0  0  0  0  0  0  0  0  0
  -30.2510   -9.7985   19.6569 N   0  0  0  0  0  0  0  0  0  0  0  0
  -24.4779  -24.5096   22.9878 N   0  0  0  0  0  0  0  0  0  0  0  0
  -24.1756  -31.3012   22.4931 N   0  0  0  0  0  0  0  0  0  0  0  0
  -28.6051  -20.1581   18.8301 N   0  0  0  0  0  0  0  0  0  0  0  0
  -26.4713  -33.6782   23.9586 N   0  3  0  0  0  0  0  0  0  0  0  0
  -32.0992  -10.9071   18.8733 O   0  0  0  0  0  0  0  0  0  0  0  0
  -24.4180  -26.0294   21.2246 O   0  0  0  0  0  0  0  0  0  0  0  0
  -23.1253  -28.8029   23.4227 O   0  0  0  0  0  0  0  0  0  0  0  0
  -26.2840  -31.9307   21.7614 O   0  0  0  0  0  0  0  0  0  0  0  0
  -27.9395  -18.2748   17.7053 O   0  0  0  0  0  0  0  0  0  0  0  0
  -25.2604   -8.7460   21.8977 O   0  0  0  0  0  0  0  0  0  0  0  0
  -30.8872  -27.0803   20.4824 O   0  0  0  0  0  0  0  0  0  1  0  0
  -20.0029   -9.7177   20.5493 F   0  0  0  0  0  0  0  0  0  0  0  0
  -23.8477   -6.9660   20.3234 F   0  0  0  0  0  0  0  0  0  0  0  0
  -26.8714  -23.5908   18.8809 Cl  0  0  0  0  0  0  0  0  0  0  0  0
  -32.7330  -23.4377   16.7213 Cl  0  0  0  0  0  0  0  0  0  0  0  0
  1  2  1  0  0  0  0
  1  5  2  0  0  0  0
  2  6  2  0  0  0  0
  3  8  2  0  0  0  0
  3 16  1  0  0  0  0
  4  9  1  0  0  0  0
  4 16  2  0  0  0  0
  5 18  1  0  0  0  0
  6 20  1  0  0  0  0
  7 10  2  0  0  0  0
  7 19  1  0  0  0  0
  8 25  1  0  0  0  0
  9 25  2  0  0  0  0
 10 26  1  0  0  0  0
 11 12  2  0  0  0  0
 11 27  1  0  0  0  0
 12 28  1  0  0  0  0
 13 21  1  0  0  0  0
 13 26  2  0  0  0  0
 14 22  1  0  0  0  0
 14 30  2  0  0  0  0
 15 28  2  0  0  0  0
 15 29  1  0  0  0  0
 16 32  1  0  0  0  0
 17 32  1  0  0  0  0
 17 33  2  0  0  0  0
 17 34  1  0  0  0  0
 18 20  2  0  0  0  0
 18 39  1  0  0  0  0
 19 21  2  0  0  0  0
 19 40  1  0  0  0  0
 20 48  1  0  0  0  0
 21 41  1  0  0  0  0
 22 31  2  0  0  0  0
 22 57  1  0  0  0  0
 23 24  2  0  0  0  0
 23 31  1  0  0  0  0
 23 51  1  0  0  0  0
 24 30  1  0  0  0  0
 24 58  1  0  0  0  0
 25 79  1  0  0  0  0
 26 80  1  0  0  0  0
 27 29  2  0  0  0  0
 27 79  1  0  0  0  0
 28 81  1  0  0  0  0
 29 82  1  0  0  0  0
 30 83  1  0  0  0  0
 31 84  1  0  0  0  0
 32 64  2  0  0  0  0
 33 65  1  0  0  0  0
 33 68  1  0  0  0  0
 34 69  1  0  0  0  0
 34 74  2  0  0  0  0
 35 49  1  0  0  0  0
 35 70  1  0  0  0  0
 35 75  2  0  0  0  0
 36 61  1  0  0  0  0
 36 66  1  0  0  0  0
 36 76  2  0  0  0  0
 37 62  1  0  0  0  0
 37 71  1  0  0  0  0
 37 77  2  0  0  0  0
 38 67  1  0  0  0  0
 38 72  1  0  0  0  0
 38 78  2  0  0  0  0
 39 42  1  0  0  0  0
 40 49  1  0  0  0  0
 41 66  1  0  0  0  0
 42 44  1  0  0  0  0
 43 45  1  0  0  0  0
 43 46  1  0  0  0  0
 44 48  1  0  0  0  0
 45 50  1  0  0  0  0
 46 67  1  0  0  0  0
 47 50  1  0  0  0  0
 47 67  1  0  0  0  0
 48 70  1  0  0  0  0
 49 66  1  0  0  0  0
 50 65  1  0  0  0  0
 52 62  1  0  0  0  0
 53 63  1  0  0  0  0
 54 63  1  0  0  0  0
 55 63  1  0  0  0  0
 56 73  1  0  0  0  0
 57 59  1  0  0  0  0
 58 72  1  0  0  0  0
 59 60  1  0  0  0  0
 60 80  1  0  0  0  0
 61 63  1  0  0  0  0
 61 71  1  0  0  0  0
 62 73  1  0  0  0  0
 64 65  1  0  0  0  0
M  CHG  1  73   1
M  ISO  4  38 100  60 101  72 100  80 101
M  END
> <Batch ID>
0023

> <Smiles>
CNC(C)C(=O)NC(C(=O)N1Cc2cc([101O:1][101CH2:1]CCc3cc(Cl)c(C[100NH:0][100C:0](=O)N4CCCC(n5nc(-c6ccc(Oc7ccc(F)cc7F)cc6)c(C(N)=O)c5N)C4)c(C)c3Cl)ccc2CC1C(=O)NC1CCCc2ccccc21)C(C)(C)C

> <Shape>
0.273

> <Color>
0.050

> <Negative vol penalty>
0.000

$$$$

  -OEChem-04052316193D

 86 94  0     1  0  0  0  0  0999 V2000
  -16.2257  -31.2878   30.3496 C   0  0  0  0  0  0  0  0  0  0  0  0
  -16.9285  -30.1953   29.8518 C   0  0  0  0  0  0  0  0  0  0  0  0
  -23.1006   -9.8721   19.9870 C   0  0  0  0  0  0  0  0  0  0  0  0
  -23.8266   -9.9565   22.2898 C   0  0  0  0  0  0  0  0  0  0  0  0
  -16.2535  -32.5030   29.6667 C   0  0  0  0  0  0  0  0  0  0  0  0
  -17.6586  -30.3170   28.6701 C   0  0  0  0  0  0  0  0  0  0  0  0
  -22.9504  -27.5504   27.3104 C   0  0  0  0  0  0  0  0  0  0  0  0
  -22.3618   -8.7214   20.2621 C   0  0  0  0  0  0  0  0  0  0  0  0
  -23.0877   -8.8059   22.5649 C   0  0  0  0  0  0  0  0  0  0  0  0
  -23.2484  -26.4097   26.5663 C   0  0  0  0  0  0  0  0  0  0  0  0
  -19.8570   -8.0018   23.1453 C   0  0  0  0  0  0  0  0  0  0  0  0
  -19.0832   -7.9924   24.3058 C   0  0  0  0  0  0  0  0  0  0  0  0
  -23.6836  -27.7897   24.6362 C   0  0  0  0  0  0  0  0  0  0  0  0
  -20.3281   -6.0888   25.1204 C   0  0  0  0  0  0  0  0  0  0  0  0
  -23.8331  -10.4896   21.0008 C   0  0  0  0  0  0  0  0  0  0  0  0
  -24.1579  -13.0124   20.8068 C   0  0  0  0  0  0  0  0  0  0  0  0
  -16.9921  -32.6424   28.4811 C   0  0  0  0  0  0  0  0  0  0  0  0
  -23.0063  -28.8207   26.7190 C   0  0  0  0  0  0  0  0  0  0  0  0
  -17.6952  -31.5349   27.9699 C   0  0  0  0  0  0  0  0  0  0  0  0
  -23.3883  -28.9452   25.3756 C   0  0  0  0  0  0  0  0  0  0  0  0
  -29.6245  -17.6231   23.9922 C   0  0  0  0  0  0  0  0  0  0  0  0
  -28.7964  -18.4603   24.7315 C   0  0  0  0  0  0  0  0  0  0  0  0
  -29.8677  -17.9018   22.6519 C   0  0  0  0  0  0  0  0  0  0  0  0
  -22.3552   -8.1884   21.5511 C   0  0  0  0  0  0  0  0  0  0  0  0
  -23.6122  -26.5290   25.2282 C   0  0  0  0  0  0  0  0  0  0  0  0
  -20.8663   -7.0546   22.9723 C   0  0  0  0  0  0  0  0  0  0  0  0
  -19.3188   -7.0359   25.2934 C   0  0  0  0  0  0  0  0  0  0  0  0
  -21.1018   -6.0981   23.9599 C   0  0  0  0  0  0  0  0  0  0  0  0
  -24.5970  -11.6779   20.7171 C   0  0  0  0  0  0  0  0  0  0  0  0
  -28.2402  -19.5546   24.0890 C   0  0  0  0  0  0  0  0  0  0  0  0
  -29.2633  -19.0210   22.1024 C   0  0  0  0  0  0  0  0  0  0  0  0
  -25.2496  -13.7588   20.4361 C   0  0  0  0  0  0  0  0  0  0  0  0
  -22.8775  -13.5310   21.1909 C   0  0  0  0  0  0  0  0  0  0  0  0
  -20.8966  -31.1338   26.1691 C   0  0  0  0  0  0  0  0  0  0  0  0
  -23.5238  -32.7628   25.1861 C   0  0  0  0  0  0  0  0  0  0  0  0
  -26.7145  -32.6581   23.9796 C   0  0  0  0  0  0  0  0  0  0  0  0
  -30.7223  -14.8265   20.6718 C   0  0  0  0  0  0  0  0  0  0  0  0
  -16.9536  -33.9626   27.7529 C   0  0  0  0  0  0  0  0  0  0  0  0
  -22.7079  -30.0435   27.5425 C   0  0  0  0  0  0  0  0  0  0  0  0
  -23.4831  -30.2876   24.6992 C   0  0  0  0  0  0  0  0  0  0  0  0
  -18.0555  -34.1137   26.7072 C   0  0  0  0  0  0  0  0  0  0  0  0
  -29.6377  -12.3598   18.3447 C   0  0  0  0  0  0  0  0  0  0  0  0
  -18.1549  -32.8554   25.8508 C   0  0  0  0  0  0  0  0  0  0  0  0
  -28.1963  -12.0684   18.7657 C   0  0  0  0  0  0  0  0  0  0  0  0
  -30.5354  -12.6252   19.5512 C   0  0  0  0  0  0  0  0  0  0  0  0
  -28.6081  -13.3841   20.8865 C   0  0  0  0  0  0  0  0  0  0  0  0
  -18.5189  -31.6345   26.7043 C   0  0  1  0  0  0  0  0  0  0  0  0
  -22.2981  -31.2467   26.6988 C   0  0  1  0  0  0  0  0  0  0  0  0
  -27.6527  -13.1652   19.7010 C   0  0  2  0  0  0  0  0  0  0  0  0
  -30.2501  -16.4281   24.6381 C   0  0  0  0  0  0  0  0  0  0  0  0
  -28.5129  -18.1922   26.1715 C   0  0  0  0  0  0  0  0  0  0  0  0
  -28.5900  -34.1513   23.2378 C   0  0  0  0  0  0  0  0  0  0  0  0
  -22.0557  -33.3013   22.5660 C   0  0  0  0  0  0  0  0  0  0  0  0
  -24.2526  -33.9353   21.5462 C   0  0  0  0  0  0  0  0  0  0  0  0
  -23.3423  -35.2504   23.4606 C   0  0  0  0  0  0  0  0  0  0  0  0
  -28.5241  -31.6229   26.0802 C   0  0  0  0  0  0  0  0  0  0  0  0
  -30.7539  -17.0150   21.8417 C   0  0  0  0  0  0  0  0  0  0  0  0
  -25.3859  -23.5235   24.2854 C   0  0  0  0  0  0  0  0  0  0  0  0
  -25.9848  -22.3120   24.9914 C   0  0  0  0  0  0  0  0  0  0  0  0
  -24.4555  -24.3054   25.2032 C   0  0  0  0  0  0  0  0  0  1  0  0
  -26.8811  -21.5060   24.0619 C   0  0  0  0  0  0  0  0  0  0  0  0
  -24.2506  -32.9273   23.8732 C   0  0  1  0  0  0  0  0  0  0  0  0
  -27.9756  -33.3898   24.4021 C   0  0  2  0  0  0  0  0  0  0  0  0
  -23.4717  -33.8280   22.8734 C   0  0  0  0  0  0  0  0  0  0  0  0
  -25.8686  -11.5791   20.3204 N   0  0  0  0  0  0  0  0  0  0  0  0
  -28.4531  -19.8577   22.7888 N   0  0  0  0  0  0  0  0  0  0  0  0
  -26.2378  -12.8609   20.1574 N   0  0  0  0  0  0  0  0  0  0  0  0
  -23.1755  -31.4529   25.5448 N   0  0  0  0  0  0  0  0  0  0  0  0
  -29.9642  -13.6765   20.3965 N   0  0  0  0  0  0  0  0  0  0  0  0
  -25.4512  -15.0890   20.3245 N   0  0  0  0  0  0  0  0  0  0  0  0
  -21.8676  -12.6248   21.5418 N   0  0  0  0  0  0  0  0  0  0  0  0
  -19.9316  -31.6404   27.0184 N   0  0  0  0  0  0  0  0  0  0  0  0
  -25.5848  -33.4163   24.2036 N   0  0  0  0  0  0  0  0  0  0  0  0
  -30.1039  -15.7764   21.4756 N   0  0  0  0  0  0  0  0  0  0  0  0
  -28.9867  -32.4240   24.9178 N   0  3  0  0  0  0  0  0  0  0  0  0
  -22.6313  -14.7609   21.2063 O   0  0  0  0  0  0  0  0  0  0  0  0
  -20.7051  -30.6260   25.0704 O   0  0  0  0  0  0  0  0  0  0  0  0
  -23.2807  -33.7590   25.8716 O   0  0  0  0  0  0  0  0  0  0  0  0
  -26.7302  -31.5285   23.4955 O   0  0  0  0  0  0  0  0  0  0  0  0
  -31.8634  -14.9967   20.2295 O   0  0  0  0  0  0  0  0  0  0  0  0
  -21.6342   -7.0657   21.8200 O   0  0  0  0  0  0  0  0  0  0  0  0
  -23.9029  -25.4171   24.4995 O   0  0  0  0  0  0  0  0  0  1  0  0
  -27.4171  -20.4042   24.7816 O   0  0  0  0  0  0  0  0  0  0  0  0
  -18.5766   -7.0280   26.4084 F   0  0  0  0  0  0  0  0  0  0  0  0
  -22.0708   -5.1864   23.7999 F   0  0  0  0  0  0  0  0  0  0  0  0
  -29.4838  -19.4731   20.4567 Cl  0  0  0  0  0  0  0  0  0  0  0  0
  1  2  1  0  0  0  0
  1  5  2  0  0  0  0
  2  6  2  0  0  0  0
  3  8  2  0  0  0  0
  3 15  1  0  0  0  0
  4  9  1  0  0  0  0
  4 15  2  0  0  0  0
  5 17  1  0  0  0  0
  6 19  1  0  0  0  0
  7 10  2  0  0  0  0
  7 18  1  0  0  0  0
  8 24  1  0  0  0  0
  9 24  2  0  0  0  0
 10 25  1  0  0  0  0
 11 12  2  0  0  0  0
 11 26  1  0  0  0  0
 12 27  1  0  0  0  0
 13 20  1  0  0  0  0
 13 25  2  0  0  0  0
 14 27  2  0  0  0  0
 14 28  1  0  0  0  0
 15 29  1  0  0  0  0
 16 29  1  0  0  0  0
 16 32  2  0  0  0  0
 16 33  1  0  0  0  0
 17 19  2  0  0  0  0
 17 38  1  0  0  0  0
 18 20  2  0  0  0  0
 18 39  1  0  0  0  0
 19 47  1  0  0  0  0
 20 40  1  0  0  0  0
 21 22  1  0  0  0  0
 21 23  2  0  0  0  0
 21 50  1  0  0  0  0
 22 30  2  0  0  0  0
 22 51  1  0  0  0  0
 23 31  1  0  0  0  0
 23 57  1  0  0  0  0
 24 81  1  0  0  0  0
 25 82  1  0  0  0  0
 26 28  2  0  0  0  0
 26 81  1  0  0  0  0
 27 84  1  0  0  0  0
 28 85  1  0  0  0  0
 29 65  2  0  0  0  0
 30 66  1  0  0  0  0
 30 83  1  0  0  0  0
 31 66  2  0  0  0  0
 31 86  1  0  0  0  0
 32 67  1  0  0  0  0
 32 70  1  0  0  0  0
 33 71  1  0  0  0  0
 33 76  2  0  0  0  0
 34 48  1  0  0  0  0
 34 72  1  0  0  0  0
 34 77  2  0  0  0  0
 35 62  1  0  0  0  0
 35 68  1  0  0  0  0
 35 78  2  0  0  0  0
 36 63  1  0  0  0  0
 36 73  1  0  0  0  0
 36 79  2  0  0  0  0
 37 69  1  0  0  0  0
 37 74  1  0  0  0  0
 37 80  2  0  0  0  0
 38 41  1  0  0  0  0
 39 48  1  0  0  0  0
 40 68  1  0  0  0  0
 41 43  1  0  0  0  0
 42 44  1  0  0  0  0
 42 45  1  0  0  0  0
 43 47  1  0  0  0  0
 44 49  1  0  0  0  0
 45 69  1  0  0  0  0
 46 49  1  0  0  0  0
 46 69  1  0  0  0  0
 47 72  1  0  0  0  0
 48 68  1  0  0  0  0
 49 67  1  0  0  0  0
 52 63  1  0  0  0  0
 53 64  1  0  0  0  0
 54 64  1  0  0  0  0
 55 64  1  0  0  0  0
 56 75  1  0  0  0  0
 57 74  1  0  0  0  0
 58 59  1  0  0  0  0
 58 60  1  0  0  0  0
 59 61  1  0  0  0  0
 60 82  1  0  0  0  0
 61 83  1  0  0  0  0
 62 64  1  0  0  0  0
 62 73  1  0  0  0  0
 63 75  1  0  0  0  0
 65 67  1  0  0  0  0
M  CHG  1  75   1
M  ISO  4  37 100  60 101  74 100  82 101
M  END
> <Batch ID>
0023

> <Smiles>
CNC(C)C(=O)NC(C(=O)N1Cc2cc([101O:1][101CH2:1]CCCOc3nc(Cl)c(C[100NH:0][100C:0](=O)N4CCCC(n5nc(-c6ccc(Oc7ccc(F)cc7F)cc6)c(C(N)=O)c5N)C4)c(C)c3C)ccc2CC1C(=O)NC1CCCc2ccccc21)C(C)(C)C

> <Shape>
0.235

> <Color>
0.211

> <Negative vol penalty>
0.000

$$$$

  -OEChem-04052316193D

 93101  0     1  0  0  0  0  0999 V2000
  -18.7490  -24.3086   23.4861 C   0  0  0  0  0  0  0  0  0  0  0  0
  -20.1224  -24.3525   23.2689 C   0  0  0  0  0  0  0  0  0  0  0  0
  -24.7626   -8.4471   21.5629 C   0  0  0  0  0  0  0  0  0  0  0  0
  -23.2616   -9.8971   20.3458 C   0  0  0  0  0  0  0  0  0  0  0  0
  -17.9717  -25.4433   23.2576 C   0  0  0  0  0  0  0  0  0  0  0  0
  -20.7192  -25.5309   22.8220 C   0  0  0  0  0  0  0  0  0  0  0  0
  -24.9805  -26.6232   25.3306 C   0  0  0  0  0  0  0  0  0  0  0  0
  -23.7294   -8.1120   22.4380 C   0  0  0  0  0  0  0  0  0  0  0  0
  -22.2283   -9.5620   21.2209 C   0  0  0  0  0  0  0  0  0  0  0  0
  -26.1279  -25.9157   24.9749 C   0  0  0  0  0  0  0  0  0  0  0  0
  -21.0330   -6.0719   22.4437 C   0  0  0  0  0  0  0  0  0  0  0  0
  -20.8709   -4.7255   22.7701 C   0  0  0  0  0  0  0  0  0  0  0  0
  -26.8657  -27.7909   23.6489 C   0  0  0  0  0  0  0  0  0  0  0  0
  -27.2368  -23.8163   19.5000 C   0  0  0  0  0  0  0  0  0  0  0  0
  -21.2306   -5.2474   25.1015 C   0  0  0  0  0  0  0  0  0  0  0  0
  -24.5287   -9.3397   20.5168 C   0  0  0  0  0  0  0  0  0  0  0  0
  -25.9390   -9.0352   18.4130 C   0  0  0  0  0  0  0  0  0  0  0  0
  -18.5606  -26.6389   22.8169 C   0  0  0  0  0  0  0  0  0  0  0  0
  -24.7614  -27.9179   24.8386 C   0  0  0  0  0  0  0  0  0  0  0  0
  -19.9488  -26.6822   22.5861 C   0  0  0  0  0  0  0  0  0  0  0  0
  -25.7159  -28.5137   24.0019 C   0  0  0  0  0  0  0  0  0  0  0  0
  -28.1857  -22.8153   17.0751 C   0  0  0  0  0  0  0  0  0  0  0  0
  -27.0129  -22.3031   17.6300 C   0  0  0  0  0  0  0  0  0  0  0  0
  -28.4096  -24.3285   18.9452 C   0  0  0  0  0  0  0  0  0  0  0  0
  -22.4623   -8.6695   22.2670 C   0  0  0  0  0  0  0  0  0  0  0  0
  -27.0694  -26.4984   24.1316 C   0  0  0  0  0  0  0  0  0  0  0  0
  -21.2939   -7.0061   23.4462 C   0  0  0  0  0  0  0  0  0  0  0  0
  -20.9697   -4.3132   24.0989 C   0  0  0  0  0  0  0  0  0  0  0  0
  -21.3927   -6.5938   24.7751 C   0  0  0  0  0  0  0  0  0  0  0  0
  -26.5385  -22.8035   18.8425 C   0  0  0  0  0  0  0  0  0  0  0  0
  -28.8840  -23.8281   17.7327 C   0  0  0  0  0  0  0  0  0  0  0  0
  -25.5957   -9.6867   19.6129 C   0  0  0  0  0  0  0  0  0  0  0  0
  -27.0125   -9.7444   17.9323 C   0  0  0  0  0  0  0  0  0  0  0  0
  -25.3409   -7.8914   17.7888 C   0  0  0  0  0  0  0  0  0  0  0  0
  -22.5433  -29.2782   23.0128 C   0  0  0  0  0  0  0  0  0  0  0  0
  -24.1504  -31.9950   23.7605 C   0  0  0  0  0  0  0  0  0  0  0  0
  -27.0720  -33.4528   24.7534 C   0  0  0  0  0  0  0  0  0  0  0  0
  -28.8516  -15.3884   18.7156 C   0  0  0  0  0  0  0  0  0  0  0  0
  -17.6727  -27.8259   22.5383 C   0  0  0  0  0  0  0  0  0  0  0  0
  -23.5314  -28.6780   25.2532 C   0  0  0  0  0  0  0  0  0  0  0  0
  -25.5377  -29.9088   23.4629 C   0  0  0  0  0  0  0  0  0  0  0  0
  -18.4352  -29.1434   22.4242 C   0  0  0  0  0  0  0  0  0  0  0  0
  -30.6946  -12.4211   19.4050 C   0  0  0  0  0  0  0  0  0  0  0  0
  -19.6620  -28.9748   21.5336 C   0  0  0  0  0  0  0  0  0  0  0  0
  -29.6278  -11.3250   19.4281 C   0  0  0  0  0  0  0  0  0  0  0  0
  -30.1727  -13.7291   19.9955 C   0  0  0  0  0  0  0  0  0  0  0  0
  -27.8537  -13.1282   19.4169 C   0  0  0  0  0  0  0  0  0  0  0  0
  -20.6364  -27.9491   22.1252 C   0  0  1  0  0  0  0  0  0  0  0  0
  -23.1627  -29.7942   24.2808 C   0  0  1  0  0  0  0  0  0  0  0  0
  -28.3154  -11.8061   18.7804 C   0  0  2  0  0  0  0  0  0  0  0  0
  -28.6801  -22.2657   15.7723 C   0  0  0  0  0  0  0  0  0  0  0  0
  -28.0888  -35.6947   25.2405 C   0  0  0  0  0  0  0  0  0  0  0  0
  -27.9308  -16.8209   15.9914 C   0  0  0  0  0  0  0  0  0  0  0  0
  -24.3487  -32.5527   20.7673 C   0  0  0  0  0  0  0  0  0  0  0  0
  -26.1393  -34.2291   21.2690 C   0  0  0  0  0  0  0  0  0  0  0  0
  -23.8368  -34.5585   22.1705 C   0  0  0  0  0  0  0  0  0  0  0  0
  -25.5172  -17.4776   19.0380 C   0  0  0  0  0  0  0  0  0  0  0  0
  -24.9596  -16.4100   16.8526 C   0  0  0  0  0  0  0  0  0  0  0  0
  -28.7626  -26.7489   19.3662 C   0  0  0  0  0  0  0  0  0  0  0  0
  -27.6282  -32.7188   27.5660 C   0  0  0  0  0  0  0  0  0  0  0  0
  -26.2717  -21.2160   16.9149 C   0  0  0  0  0  0  0  0  0  0  0  0
  -29.4686  -24.8500   21.9926 C   0  0  0  0  0  0  0  0  0  0  0  0
  -30.0969  -25.0458   20.6181 C   0  0  0  0  0  0  0  0  0  0  0  0
  -25.6720  -18.7914   16.8862 C   0  0  0  0  0  0  0  0  0  0  0  0
  -28.7567  -26.0967   22.5044 C   0  0  0  0  0  0  0  0  0  1  0  0
  -25.3073  -32.7535   23.1562 C   0  0  1  0  0  0  0  0  0  0  0  0
  -27.3683  -34.4886   25.8228 C   0  0  2  0  0  0  0  0  0  0  0  0
  -27.4081  -16.9402   17.4244 C   0  0  1  0  0  0  0  0  0  0  0  0
  -24.9107  -33.4964   21.8492 C   0  0  0  0  0  0  0  0  0  0  0  0
  -25.9167  -17.4086   17.5440 C   0  0  0  0  0  0  0  0  0  0  0  0
  -26.3872  -10.7294   19.8781 N   0  0  0  0  0  0  0  0  0  0  0  0
  -27.2384  -10.7385   18.8383 N   0  0  0  0  0  0  0  0  0  0  0  0
  -24.3157  -30.6089   23.8920 N   0  0  0  0  0  0  0  0  0  0  0  0
  -28.9275  -14.1308   19.3366 N   0  0  0  0  0  0  0  0  0  0  0  0
  -27.7759   -9.6083   16.8272 N   0  0  0  0  0  0  0  0  0  0  0  0
  -24.2455   -7.2837   18.4174 N   0  0  0  0  0  0  0  0  0  0  0  0
  -21.3933  -28.5377   23.2092 N   0  0  0  0  0  0  0  0  0  0  0  0
  -25.8174  -33.6260   24.2082 N   0  0  0  0  0  0  0  0  0  0  0  0
  -27.6378  -15.6876   18.1093 N   0  0  0  0  0  0  0  0  0  0  0  0
  -29.0864  -25.3461   19.6327 N   0  0  3  0  0  0  0  0  0  0  0  0
  -28.2248  -33.9000   26.8909 N   0  3  0  0  0  0  0  0  0  0  0  0
  -26.4436  -19.8797   17.5434 N   0  3  0  0  0  0  0  0  0  0  0  0
  -25.7756   -7.4122   16.7142 O   0  0  0  0  0  0  0  0  0  0  0  0
  -23.0690  -29.5343   21.9358 O   0  0  0  0  0  0  0  0  0  0  0  0
  -23.1401  -32.6106   24.1098 O   0  0  0  0  0  0  0  0  0  0  0  0
  -27.8747  -32.5797   24.4311 O   0  0  0  0  0  0  0  0  0  0  0  0
  -29.7975  -16.1834   18.6979 O   0  0  0  0  0  0  0  0  0  0  0  0
  -21.4538   -8.3425   23.1206 O   0  0  0  0  0  0  0  0  0  0  0  0
  -28.1900  -25.8098   23.7823 O   0  0  0  0  0  0  0  0  0  1  0  0
  -20.8125   -3.0205   24.4124 F   0  0  0  0  0  0  0  0  0  0  0  0
  -21.6420   -7.4868   25.7426 F   0  0  0  0  0  0  0  0  0  0  0  0
  -25.0913  -22.1968   19.5630 Cl  0  0  0  0  0  0  0  0  0  0  0  0
  -30.3419  -24.4639   17.0417 Cl  0  0  0  0  0  0  0  0  0  0  0  0
  1  2  1  0  0  0  0
  1  5  2  0  0  0  0
  2  6  2  0  0  0  0
  3  8  2  0  0  0  0
  3 16  1  0  0  0  0
  4  9  1  0  0  0  0
  4 16  2  0  0  0  0
  5 18  1  0  0  0  0
  6 20  1  0  0  0  0
  7 10  2  0  0  0  0
  7 19  1  0  0  0  0
  8 25  1  0  0  0  0
  9 25  2  0  0  0  0
 10 26  1  0  0  0  0
 11 12  2  0  0  0  0
 11 27  1  0  0  0  0
 12 28  1  0  0  0  0
 13 21  1  0  0  0  0
 13 26  2  0  0  0  0
 14 24  1  0  0  0  0
 14 30  2  0  0  0  0
 15 28  2  0  0  0  0
 15 29  1  0  0  0  0
 16 32  1  0  0  0  0
 17 32  1  0  0  0  0
 17 33  2  0  0  0  0
 17 34  1  0  0  0  0
 18 20  2  0  0  0  0
 18 39  1  0  0  0  0
 19 21  2  0  0  0  0
 19 40  1  0  0  0  0
 20 48  1  0  0  0  0
 21 41  1  0  0  0  0
 22 23  2  0  0  0  0
 22 31  1  0  0  0  0
 22 51  1  0  0  0  0
 23 30  1  0  0  0  0
 23 61  1  0  0  0  0
 24 31  2  0  0  0  0
 24 80  1  0  0  0  0
 25 88  1  0  0  0  0
 26 89  1  0  0  0  0
 27 29  2  0  0  0  0
 27 88  1  0  0  0  0
 28 90  1  0  0  0  0
 29 91  1  0  0  0  0
 30 92  1  0  0  0  0
 31 93  1  0  0  0  0
 32 71  2  0  0  0  0
 33 72  1  0  0  0  0
 33 75  1  0  0  0  0
 34 76  1  0  0  0  0
 34 83  2  0  0  0  0
 35 49  1  0  0  0  0
 35 77  1  0  0  0  0
 35 84  2  0  0  0  0
 36 66  1  0  0  0  0
 36 73  1  0  0  0  0
 36 85  2  0  0  0  0
 37 67  1  0  0  0  0
 37 78  1  0  0  0  0
 37 86  2  0  0  0  0
 38 74  1  0  0  0  0
 38 79  1  0  0  0  0
 38 87  2  0  0  0  0
 39 42  1  0  0  0  0
 40 49  1  0  0  0  0
 41 73  1  0  0  0  0
 42 44  1  0  0  0  0
 43 45  1  0  0  0  0
 43 46  1  0  0  0  0
 44 48  1  0  0  0  0
 45 50  1  0  0  0  0
 46 74  1  0  0  0  0
 47 50  1  0  0  0  0
 47 74  1  0  0  0  0
 48 77  1  0  0  0  0
 49 73  1  0  0  0  0
 50 72  1  0  0  0  0
 52 67  1  0  0  0  0
 53 68  1  0  0  0  0
 54 69  1  0  0  0  0
 55 69  1  0  0  0  0
 56 69  1  0  0  0  0
 57 70  1  0  0  0  0
 58 70  1  0  0  0  0
 59 80  1  0  0  0  0
 60 81  1  0  0  0  0
 61 82  1  0  0  0  0
 62 63  1  0  0  0  0
 62 65  1  0  0  0  0
 63 80  1  0  0  0  0
 64 70  1  0  0  0  0
 64 82  1  0  0  0  0
 65 89  1  0  0  0  0
 66 69  1  0  0  0  0
 66 78  1  0  0  0  0
 67 81  1  0  0  0  0
 68 70  1  0  0  0  0
 68 79  1  0  0  0  0
 71 72  1  0  0  0  0
M  CHG  2  81   1  82   1
M  ISO  4  38 100  65 101  79 100  89 101
M  END
> <Batch ID>
0023

> <Smiles>
CNC(C)C(=O)NC(C(=O)N1Cc2cc([101O:1][101CH2:1]CCN(C)c3cc(Cl)c(CNCC(C)(C)C(C)[100NH:0][100C:0](=O)N4CCCC(n5nc(-c6ccc(Oc7ccc(F)cc7F)cc6)c(C(N)=O)c5N)C4)c(C)c3Cl)ccc2CC1C(=O)NC1CCCc2ccccc21)C(C)(C)C

> <Shape>
0.265

> <Color>
0.102

> <Negative vol penalty>
0.000

$$$$

  -OEChem-04052316193D

 88 96  0     1  0  0  0  0  0999 V2000
  -18.7648  -32.9784   20.4025 C   0  0  0  0  0  0  0  0  0  0  0  0
  -20.0771  -32.6732   20.0561 C   0  0  0  0  0  0  0  0  0  0  0  0
  -25.3030  -13.7461   21.1874 C   0  0  0  0  0  0  0  0  0  0  0  0
  -26.8194  -13.0012   19.4603 C   0  0  0  0  0  0  0  0  0  0  0  0
  -18.2252  -32.4837   21.5891 C   0  0  0  0  0  0  0  0  0  0  0  0
  -20.8510  -31.8739   20.8967 C   0  0  0  0  0  0  0  0  0  0  0  0
  -25.1156  -27.8127   19.2157 C   0  0  0  0  0  0  0  0  0  0  0  0
  -24.4239  -12.7135   20.8610 C   0  0  0  0  0  0  0  0  0  0  0  0
  -25.9403  -11.9685   19.1339 C   0  0  0  0  0  0  0  0  0  0  0  0
  -26.5061  -27.8872   19.1460 C   0  0  0  0  0  0  0  0  0  0  0  0
  -24.1600   -9.3919   21.4353 C   0  0  0  0  0  0  0  0  0  0  0  0
  -23.6042   -8.6582   22.4833 C   0  0  0  0  0  0  0  0  0  0  0  0
  -26.6637  -26.8755   21.3303 C   0  0  0  0  0  0  0  0  0  0  0  0
  -21.3917   -9.3197   21.7729 C   0  0  0  0  0  0  0  0  0  0  0  0
  -26.5007  -13.8900   20.4870 C   0  0  0  0  0  0  0  0  0  0  0  0
  -29.9494  -26.2951   15.5774 C   0  0  0  0  0  0  0  0  0  0  0  0
  -28.4579  -14.9162   21.7614 C   0  0  0  0  0  0  0  0  0  0  0  0
  -18.9898  -31.6700   22.4400 C   0  0  0  0  0  0  0  0  0  0  0  0
  -24.4874  -27.2781   20.3498 C   0  0  0  0  0  0  0  0  0  0  0  0
  -20.3216  -31.3689   22.0965 C   0  0  0  0  0  0  0  0  0  0  0  0
  -25.2652  -26.7930   21.4108 C   0  0  0  0  0  0  0  0  0  0  0  0
  -30.6561  -25.7413   16.6449 C   0  0  0  0  0  0  0  0  0  0  0  0
  -29.3128  -25.4635   14.6560 C   0  0  0  0  0  0  0  0  0  0  0  0
  -30.7263  -24.3559   16.7910 C   0  0  0  0  0  0  0  0  0  0  0  0
  -30.0897  -23.5242   15.8696 C   0  0  0  0  0  0  0  0  0  0  0  0
  -24.7425  -11.8247   19.8343 C   0  0  0  0  0  0  0  0  0  0  0  0
  -27.2803  -27.4212   20.2046 C   0  0  0  0  0  0  0  0  0  0  0  0
  -23.3317  -10.0895   20.5561 C   0  0  0  0  0  0  0  0  0  0  0  0
  -22.2200   -8.6220   22.6521 C   0  0  0  0  0  0  0  0  0  0  0  0
  -21.9476  -10.0534   20.7249 C   0  0  0  0  0  0  0  0  0  0  0  0
  -29.3830  -24.0781   14.8021 C   0  0  0  0  0  0  0  0  0  0  0  0
  -27.4090  -14.9568   20.8233 C   0  0  0  0  0  0  0  0  0  0  0  0
  -29.0148  -16.1706   21.7081 C   0  0  0  0  0  0  0  0  0  0  0  0
  -29.8770  -27.7454   15.4256 C   0  0  0  0  0  0  0  0  0  0  0  0
  -28.8901  -13.8408   22.6054 C   0  0  0  0  0  0  0  0  0  0  0  0
  -22.4816  -28.4045   22.5433 C   0  0  0  0  0  0  0  0  0  0  0  0
  -22.4493  -25.3167   23.5367 C   0  0  0  0  0  0  0  0  0  0  0  0
  -24.0325  -22.2959   23.6589 C   0  0  0  0  0  0  0  0  0  0  0  0
  -29.1969  -20.2142   17.4102 C   0  0  0  0  0  0  0  0  0  0  0  0
  -18.3784  -31.1975   23.7352 C   0  0  0  0  0  0  0  0  0  0  0  0
  -22.9873  -27.1803   20.3981 C   0  0  0  0  0  0  0  0  0  0  0  0
  -24.6401  -26.1915   22.6420 C   0  0  0  0  0  0  0  0  0  0  0  0
  -19.1443  -30.0491   24.3870 C   0  0  0  0  0  0  0  0  0  0  0  0
  -27.8999  -20.7254   20.7499 C   0  0  0  0  0  0  0  0  0  0  0  0
  -20.6410  -30.3432   24.3968 C   0  0  0  0  0  0  0  0  0  0  0  0
  -27.7282  -19.2843   21.2335 C   0  0  0  0  0  0  0  0  0  0  0  0
  -27.5488  -20.8577   19.2709 C   0  0  0  0  0  0  0  0  0  0  0  0
  -28.1378  -18.5012   18.8546 C   0  0  0  0  0  0  0  0  0  0  0  0
  -21.1848  -30.4846   22.9700 C   0  0  1  0  0  0  0  0  0  0  0  0
  -22.4400  -27.0886   21.8192 C   0  0  1  0  0  0  0  0  0  0  0  0
  -28.4990  -18.2969   20.3372 C   0  0  2  0  0  0  0  0  0  0  0  0
  -31.4865  -23.7628   17.9353 C   0  0  0  0  0  0  0  0  0  0  0  0
  -29.3332  -25.9935   12.2054 C   0  0  0  0  0  0  0  0  0  0  0  0
  -24.3565  -19.8546   24.1414 C   0  0  0  0  0  0  0  0  0  0  0  0
  -23.1799  -26.3350   26.3186 C   0  0  0  0  0  0  0  0  0  0  0  0
  -23.8320  -23.9958   26.9276 C   0  0  0  0  0  0  0  0  0  0  0  0
  -21.4744  -24.5061   26.2918 C   0  0  0  0  0  0  0  0  0  0  0  0
  -22.8522  -21.5072   21.0620 C   0  0  0  0  0  0  0  0  0  0  0  0
  -31.3454  -26.6371   17.6428 C   0  0  0  0  0  0  0  0  0  0  0  0
  -28.5574  -26.0736   13.5145 C   0  0  0  0  0  0  0  0  0  0  0  0
  -30.1767  -22.0391   16.0439 C   0  0  0  0  0  0  0  0  0  0  0  0
  -30.6034  -26.7604   18.9753 C   0  0  0  0  0  0  0  0  0  0  0  0
  -29.2310  -27.4107   18.8443 C   0  0  0  0  0  0  0  0  0  1  0  0
  -23.2652  -24.4973   24.5072 C   0  0  1  0  0  0  0  0  0  0  0  0
  -23.5379  -20.8875   23.3825 C   0  0  2  0  0  0  0  0  0  0  0  0
  -22.9499  -24.8466   25.9891 C   0  0  0  0  0  0  0  0  0  0  0  0
  -27.3037  -16.1430   20.2185 N   0  0  0  0  0  0  0  0  0  0  0  0
  -28.2936  -16.8595   20.7779 N   0  0  0  0  0  0  0  0  0  0  0  0
  -23.1694  -26.1238   22.6446 N   0  0  0  0  0  0  0  0  0  0  0  0
  -28.3301  -19.9037   18.4712 N   0  0  0  0  0  0  0  0  0  0  0  0
  -30.0462  -16.7405   22.3668 N   0  0  0  0  0  0  0  0  0  0  0  0
  -30.8673  -28.3621   14.6714 N   0  0  0  0  0  0  0  0  0  0  0  0
  -28.2070  -12.6191   22.5336 N   0  0  0  0  0  0  0  0  0  0  0  0
  -21.3538  -29.1822   22.3622 N   0  0  0  0  0  0  0  0  0  0  0  0
  -23.0305  -23.1000   24.1597 N   0  0  0  0  0  0  0  0  0  0  0  0
  -29.3178  -21.5645   17.1060 N   0  0  0  0  0  0  0  0  0  0  0  0
  -23.6299  -20.5827   21.9266 N   0  3  0  0  0  0  0  0  0  0  0  0
  -28.9740  -28.4036   15.9645 O   0  0  0  0  0  0  0  0  0  0  0  0
  -29.8432  -13.9648   23.4114 O   0  0  0  0  0  0  0  0  0  0  0  0
  -23.4635  -28.6923   23.2176 O   0  0  0  0  0  0  0  0  0  0  0  0
  -21.2186  -25.2380   23.5643 O   0  0  0  0  0  0  0  0  0  0  0  0
  -25.1926  -22.6465   23.4549 O   0  0  0  0  0  0  0  0  0  0  0  0
  -29.8217  -19.3517   16.7834 O   0  0  0  0  0  0  0  0  0  0  0  0
  -23.8851  -10.8169   19.5157 O   0  0  0  0  0  0  0  0  0  0  0  0
  -28.6377  -27.4933   20.1395 O   0  0  0  0  0  0  0  0  0  1  0  0
  -21.6863   -7.9162   23.6576 F   0  0  0  0  0  0  0  0  0  0  0  0
  -21.1467  -10.7207   19.8828 F   0  0  0  0  0  0  0  0  0  0  0  0
  -28.5936  -23.0447   13.6562 Cl  0  0  0  0  0  0  0  0  0  0  0  0
  1  2  1  0  0  0  0
  1  5  2  0  0  0  0
  2  6  2  0  0  0  0
  3  8  2  0  0  0  0
  3 15  1  0  0  0  0
  4  9  1  0  0  0  0
  4 15  2  0  0  0  0
  5 18  1  0  0  0  0
  6 20  1  0  0  0  0
  7 10  2  0  0  0  0
  7 19  1  0  0  0  0
  8 26  1  0  0  0  0
  9 26  2  0  0  0  0
 10 27  1  0  0  0  0
 11 12  2  0  0  0  0
 11 28  1  0  0  0  0
 12 29  1  0  0  0  0
 13 21  1  0  0  0  0
 13 27  2  0  0  0  0
 14 29  2  0  0  0  0
 14 30  1  0  0  0  0
 15 32  1  0  0  0  0
 16 22  1  0  0  0  0
 16 23  2  0  0  0  0
 16 34  1  0  0  0  0
 17 32  1  0  0  0  0
 17 33  2  0  0  0  0
 17 35  1  0  0  0  0
 18 20  2  0  0  0  0
 18 40  1  0  0  0  0
 19 21  2  0  0  0  0
 19 41  1  0  0  0  0
 20 49  1  0  0  0  0
 21 42  1  0  0  0  0
 22 24  2  0  0  0  0
 22 59  1  0  0  0  0
 23 31  1  0  0  0  0
 23 60  1  0  0  0  0
 24 25  1  0  0  0  0
 24 52  1  0  0  0  0
 25 31  2  0  0  0  0
 25 61  1  0  0  0  0
 26 84  1  0  0  0  0
 27 85  1  0  0  0  0
 28 30  2  0  0  0  0
 28 84  1  0  0  0  0
 29 86  1  0  0  0  0
 30 87  1  0  0  0  0
 31 88  1  0  0  0  0
 32 67  2  0  0  0  0
 33 68  1  0  0  0  0
 33 71  1  0  0  0  0
 34 72  1  0  0  0  0
 34 78  2  0  0  0  0
 35 73  1  0  0  0  0
 35 79  2  0  0  0  0
 36 50  1  0  0  0  0
 36 74  1  0  0  0  0
 36 80  2  0  0  0  0
 37 64  1  0  0  0  0
 37 69  1  0  0  0  0
 37 81  2  0  0  0  0
 38 65  1  0  0  0  0
 38 75  1  0  0  0  0
 38 82  2  0  0  0  0
 39 70  1  0  0  0  0
 39 76  1  0  0  0  0
 39 83  2  0  0  0  0
 40 43  1  0  0  0  0
 41 50  1  0  0  0  0
 42 69  1  0  0  0  0
 43 45  1  0  0  0  0
 44 46  1  0  0  0  0
 44 47  1  0  0  0  0
 45 49  1  0  0  0  0
 46 51  1  0  0  0  0
 47 70  1  0  0  0  0
 48 51  1  0  0  0  0
 48 70  1  0  0  0  0
 49 74  1  0  0  0  0
 50 69  1  0  0  0  0
 51 68  1  0  0  0  0
 53 60  1  0  0  0  0
 54 65  1  0  0  0  0
 55 66  1  0  0  0  0
 56 66  1  0  0  0  0
 57 66  1  0  0  0  0
 58 77  1  0  0  0  0
 59 62  1  0  0  0  0
 61 76  1  0  0  0  0
 62 63  1  0  0  0  0
 63 85  1  0  0  0  0
 64 66  1  0  0  0  0
 64 75  1  0  0  0  0
 65 77  1  0  0  0  0
 67 68  1  0  0  0  0
M  CHG  1  77   1
M  ISO  4  39 100  63 101  76 100  85 101
M  END
> <Batch ID>
0023

> <Smiles>
CCc1c(Cl)c(C[100NH:0][100C:0](=O)N2CCCC(n3nc(-c4ccc(Oc5ccc(F)cc5F)cc4)c(C(N)=O)c3N)C2)c(C)c(CC[101CH2:1][101O:1]c2ccc3c(c2)CN(C(=O)C(NC(=O)C(C)NC)C(C)(C)C)C(C(=O)NC2CCCc4ccccc42)C3)c1C(N)=O

> <Shape>
0.218

> <Color>
0.081

> <Negative vol penalty>
0.000

$$$$

  -OEChem-04052316193D

 81 89  0     1  0  0  0  0  0999 V2000
  -29.2304  -23.0719   18.5936 C   0  0  0  0  0  0  0  0  0  0  0  0
  -27.9989  -23.3034   19.1980 C   0  0  0  0  0  0  0  0  0  0  0  0
  -28.1539  -14.7158   21.1629 C   0  0  0  0  0  0  0  0  0  0  0  0
  -26.0666  -15.4702   20.2086 C   0  0  0  0  0  0  0  0  0  0  0  0
  -30.3542  -23.7856   19.0080 C   0  0  0  0  0  0  0  0  0  0  0  0
  -27.8908  -24.2480   20.2180 C   0  0  0  0  0  0  0  0  0  0  0  0
  -23.8380  -27.2359   19.6771 C   0  0  0  0  0  0  0  0  0  0  0  0
  -27.7053  -13.3965   21.1013 C   0  0  0  0  0  0  0  0  0  0  0  0
  -25.6180  -14.1509   20.1468 C   0  0  0  0  0  0  0  0  0  0  0  0
  -22.6025  -26.7061   20.0466 C   0  0  0  0  0  0  0  0  0  0  0  0
  -24.3346  -11.8540   22.2701 C   0  0  0  0  0  0  0  0  0  0  0  0
  -23.0338  -11.5911   22.6994 C   0  0  0  0  0  0  0  0  0  0  0  0
  -22.7315  -27.8858   22.1468 C   0  0  0  0  0  0  0  0  0  0  0  0
  -22.4785  -10.7517   20.5030 C   0  0  0  0  0  0  0  0  0  0  0  0
  -27.3345  -15.7527   20.7166 C   0  0  0  0  0  0  0  0  0  0  0  0
  -28.5051  -17.8206   19.7888 C   0  0  0  0  0  0  0  0  0  0  0  0
  -30.2578  -24.7463   20.0270 C   0  0  0  0  0  0  0  0  0  0  0  0
  -24.5358  -28.0874   20.5457 C   0  0  0  0  0  0  0  0  0  0  0  0
  -29.0146  -24.9743   20.6474 C   0  0  0  0  0  0  0  0  0  0  0  0
  -23.9745  -28.4271   21.7849 C   0  0  0  0  0  0  0  0  0  0  0  0
  -23.4382  -22.5672   23.6550 C   0  0  0  0  0  0  0  0  0  0  0  0
  -26.4374  -13.1140   20.5932 C   0  0  0  0  0  0  0  0  0  0  0  0
  -22.0504  -27.0287   21.2828 C   0  0  0  0  0  0  0  0  0  0  0  0
  -24.7073  -11.5659   20.9572 C   0  0  0  0  0  0  0  0  0  0  0  0
  -22.1057  -11.0399   21.8159 C   0  0  0  0  0  0  0  0  0  0  0  0
  -23.7793  -11.0147   20.0737 C   0  0  0  0  0  0  0  0  0  0  0  0
  -27.7971  -17.1158   20.7806 C   0  0  0  0  0  0  0  0  0  0  0  0
  -22.6431  -22.6222   24.8154 C   0  0  0  0  0  0  0  0  0  0  0  0
  -28.7067  -19.0665   20.3307 C   0  0  0  0  0  0  0  0  0  0  0  0
  -22.6142  -23.0173   22.6525 C   0  0  0  0  0  0  0  0  0  0  0  0
  -28.9415  -17.3879   18.4934 C   0  0  0  0  0  0  0  0  0  0  0  0
  -27.3445  -27.9666   22.0291 C   0  0  0  0  0  0  0  0  0  0  0  0
  -26.5803  -30.9991   22.8909 C   0  0  0  0  0  0  0  0  0  0  0  0
  -24.1488  -33.3320   23.4310 C   0  0  0  0  0  0  0  0  0  0  0  0
  -25.7957  -22.2338   24.4779 C   0  0  0  0  0  0  0  0  0  0  0  0
  -31.5097  -25.4590   20.4734 C   0  0  0  0  0  0  0  0  0  0  0  0
  -25.8551  -28.6719   20.1211 C   0  0  0  0  0  0  0  0  0  0  0  0
  -24.6739  -29.3529   22.7452 C   0  0  0  0  0  0  0  0  0  0  0  0
  -31.2351  -26.7101   21.3039 C   0  0  0  0  0  0  0  0  0  0  0  0
  -29.2245  -21.2768   24.5475 C   0  0  0  0  0  0  0  0  0  0  0  0
  -30.1863  -26.4214   22.3732 C   0  0  0  0  0  0  0  0  0  0  0  0
  -29.3133  -20.1695   23.4948 C   0  0  0  0  0  0  0  0  0  0  0  0
  -27.9056  -21.2238   25.3165 C   0  0  0  0  0  0  0  0  0  0  0  0
  -26.7877  -20.1061   23.4271 C   0  0  0  0  0  0  0  0  0  0  0  0
  -28.8521  -26.0085   21.7401 C   0  0  1  0  0  0  0  0  0  0  0  0
  -26.7168  -29.1194   21.2979 C   0  0  1  0  0  0  0  0  0  0  0  0
  -28.0712  -20.1586   22.5823 C   0  0  2  0  0  0  0  0  0  0  0  0
  -23.0225  -22.2523   26.1908 C   0  0  0  0  0  0  0  0  0  0  0  0
  -23.8287  -35.7098   24.1665 C   0  0  0  0  0  0  0  0  0  0  0  0
  -27.0754  -30.1681   25.7848 C   0  0  0  0  0  0  0  0  0  0  0  0
  -25.8514  -32.2274   26.5123 C   0  0  0  0  0  0  0  0  0  0  0  0
  -27.9534  -32.4316   25.1846 C   0  0  0  0  0  0  0  0  0  0  0  0
  -22.9239  -34.0889   20.8453 C   0  0  0  0  0  0  0  0  0  0  0  0
  -19.6567  -25.1351   23.2106 C   0  0  0  0  0  0  0  0  0  0  0  0
  -20.1690  -23.8300   22.5975 C   0  0  0  0  0  0  0  0  0  0  0  0
  -20.6218  -26.3024   23.0399 C   0  0  0  0  0  0  0  0  0  1  0  0
  -25.8427  -31.6279   24.0483 C   0  0  1  0  0  0  0  0  0  0  0  0
  -24.0209  -34.7763   22.9814 C   0  0  2  0  0  0  0  0  0  0  0  0
  -26.6682  -31.5948   25.3654 C   0  0  0  0  0  0  0  0  0  0  0  0
  -27.5647  -17.8525   21.8702 N   0  0  0  0  0  0  0  0  0  0  0  0
  -21.4088  -23.0719   24.5739 N   0  0  0  0  0  0  0  0  0  0  0  0
  -28.1299  -19.0333   21.5662 N   0  0  0  0  0  0  0  0  0  0  0  0
  -21.4222  -23.3037   23.2502 N   0  0  0  0  0  0  0  0  0  0  0  0
  -25.9644  -29.8937   22.2871 N   0  0  0  0  0  0  0  0  0  0  0  0
  -26.7736  -21.2207   24.3874 N   0  0  0  0  0  0  0  0  0  0  0  0
  -29.3193  -20.1762   19.8662 N   0  0  0  0  0  0  0  0  0  0  0  0
  -28.6509  -16.0763   18.0941 N   0  0  0  0  0  0  0  0  0  0  0  0
  -24.7846  -22.1463   23.5216 N   0  0  0  0  0  0  0  0  0  0  0  0
  -28.1500  -27.1701   21.2379 N   0  0  0  0  0  0  0  0  0  0  0  0
  -25.4664  -32.9684   23.6125 N   0  0  0  0  0  0  0  0  0  0  0  0
  -22.8551  -34.9326   22.0662 N   0  3  0  0  0  0  0  0  0  0  0  0
  -29.5849  -18.1369   17.7197 O   0  0  0  0  0  0  0  0  0  0  0  0
  -27.1162  -27.8122   23.2232 O   0  0  0  0  0  0  0  0  0  0  0  0
  -27.6598  -31.4756   22.5312 O   0  0  0  0  0  0  0  0  0  0  0  0
  -23.1768  -32.6007   23.6074 O   0  0  0  0  0  0  0  0  0  0  0  0
  -25.8659  -23.1298   25.3231 O   0  0  0  0  0  0  0  0  0  0  0  0
  -25.9994  -11.8268   20.5326 O   0  0  0  0  0  0  0  0  0  0  0  0
  -20.8449  -26.5124   21.6462 O   0  0  0  0  0  0  0  0  0  1  0  0
  -20.8570  -10.7860   22.2288 F   0  0  0  0  0  0  0  0  0  0  0  0
  -24.1319  -10.7346   18.8115 F   0  0  0  0  0  0  0  0  0  0  0  0
  -22.8411  -23.2399   20.9864 Cl  0  0  0  0  0  0  0  0  0  0  0  0
  1  2  1  0  0  0  0
  1  5  2  0  0  0  0
  2  6  2  0  0  0  0
  3  8  2  0  0  0  0
  3 15  1  0  0  0  0
  4  9  1  0  0  0  0
  4 15  2  0  0  0  0
  5 17  1  0  0  0  0
  6 19  1  0  0  0  0
  7 10  2  0  0  0  0
  7 18  1  0  0  0  0
  8 22  1  0  0  0  0
  9 22  2  0  0  0  0
 10 23  1  0  0  0  0
 11 12  2  0  0  0  0
 11 24  1  0  0  0  0
 12 25  1  0  0  0  0
 13 20  1  0  0  0  0
 13 23  2  0  0  0  0
 14 25  2  0  0  0  0
 14 26  1  0  0  0  0
 15 27  1  0  0  0  0
 16 27  1  0  0  0  0
 16 29  2  0  0  0  0
 16 31  1  0  0  0  0
 17 19  2  0  0  0  0
 17 36  1  0  0  0  0
 18 20  2  0  0  0  0
 18 37  1  0  0  0  0
 19 45  1  0  0  0  0
 20 38  1  0  0  0  0
 21 28  1  0  0  0  0
 21 30  2  0  0  0  0
 21 68  1  0  0  0  0
 22 77  1  0  0  0  0
 23 78  1  0  0  0  0
 24 26  2  0  0  0  0
 24 77  1  0  0  0  0
 25 79  1  0  0  0  0
 26 80  1  0  0  0  0
 27 60  2  0  0  0  0
 28 48  1  0  0  0  0
 28 61  2  0  0  0  0
 29 62  1  0  0  0  0
 29 66  1  0  0  0  0
 30 63  1  0  0  0  0
 30 81  1  0  0  0  0
 31 67  1  0  0  0  0
 31 72  2  0  0  0  0
 32 46  1  0  0  0  0
 32 69  1  0  0  0  0
 32 73  2  0  0  0  0
 33 57  1  0  0  0  0
 33 64  1  0  0  0  0
 33 74  2  0  0  0  0
 34 58  1  0  0  0  0
 34 70  1  0  0  0  0
 34 75  2  0  0  0  0
 35 65  1  0  0  0  0
 35 68  1  0  0  0  0
 35 76  2  0  0  0  0
 36 39  1  0  0  0  0
 37 46  1  0  0  0  0
 38 64  1  0  0  0  0
 39 41  1  0  0  0  0
 40 42  1  0  0  0  0
 40 43  1  0  0  0  0
 41 45  1  0  0  0  0
 42 47  1  0  0  0  0
 43 65  1  0  0  0  0
 44 47  1  0  0  0  0
 44 65  1  0  0  0  0
 45 69  1  0  0  0  0
 46 64  1  0  0  0  0
 47 62  1  0  0  0  0
 49 58  1  0  0  0  0
 50 59  1  0  0  0  0
 51 59  1  0  0  0  0
 52 59  1  0  0  0  0
 53 71  1  0  0  0  0
 54 55  1  0  0  0  0
 54 56  1  0  0  0  0
 55 63  1  0  0  0  0
 56 78  1  0  0  0  0
 57 59  1  0  0  0  0
 57 70  1  0  0  0  0
 58 71  1  0  0  0  0
 60 62  1  0  0  0  0
 61 63  1  0  0  0  0
M  CHG  1  71   1
M  ISO  4  35 100  56 101  68 100  78 101
M  END
> <Batch ID>
0023

> <Smiles>
CNC(C)C(=O)NC(C(=O)N1Cc2cc([101O:1][101CH2:1]CCn3nc(C)c([100NH:0][100C:0](=O)N4CCCC(n5nc(-c6ccc(Oc7ccc(F)cc7F)cc6)c(C(N)=O)c5N)C4)c3Cl)ccc2CC1C(=O)NC1CCCc2ccccc21)C(C)(C)C

> <Shape>
0.266

> <Color>
0.077

> <Negative vol penalty>
0.000

$$$$

  -OEChem-04052316193D

 96104  0     1  0  0  0  0  0999 V2000
  -29.3736  -29.5586   28.2632 C   0  0  0  0  0  0  0  0  0  0  0  0
  -28.7375  -28.7684   27.3112 C   0  0  0  0  0  0  0  0  0  0  0  0
  -22.9933   -9.8978   19.9881 C   0  0  0  0  0  0  0  0  0  0  0  0
  -23.7205   -9.9552   22.2914 C   0  0  0  0  0  0  0  0  0  0  0  0
  -30.7540  -29.7455   28.2028 C   0  0  0  0  0  0  0  0  0  0  0  0
  -29.4814  -28.1654   26.2975 C   0  0  0  0  0  0  0  0  0  0  0  0
  -28.4520  -22.7029   23.7271 C   0  0  0  0  0  0  0  0  0  0  0  0
  -22.2240   -8.7663   20.2592 C   0  0  0  0  0  0  0  0  0  0  0  0
  -22.9511   -8.8237   22.5625 C   0  0  0  0  0  0  0  0  0  0  0  0
  -27.8208  -22.3279   22.5419 C   0  0  0  0  0  0  0  0  0  0  0  0
  -23.1862   -5.4824   22.1025 C   0  0  0  0  0  0  0  0  0  0  0  0
  -23.7716   -4.4664   22.8578 C   0  0  0  0  0  0  0  0  0  0  0  0
  -29.9627  -22.2418   21.4355 C   0  0  0  0  0  0  0  0  0  0  0  0
  -29.3691  -18.6015   20.8876 C   0  0  0  0  0  0  0  0  0  0  0  0
  -31.5902  -18.2921   19.9888 C   0  0  0  0  0  0  0  0  0  0  0  0
  -22.0498   -4.7200   24.5335 C   0  0  0  0  0  0  0  0  0  0  0  0
  -23.7416  -10.4922   21.0042 C   0  0  0  0  0  0  0  0  0  0  0  0
  -24.1334  -13.0061   20.8188 C   0  0  0  0  0  0  0  0  0  0  0  0
  -31.5164  -29.1367   27.1936 C   0  0  0  0  0  0  0  0  0  0  0  0
  -29.8446  -22.8610   23.7727 C   0  0  0  0  0  0  0  0  0  0  0  0
  -30.8731  -28.3454   26.2228 C   0  0  0  0  0  0  0  0  0  0  0  0
  -30.6094  -22.6164   22.6232 C   0  0  0  0  0  0  0  0  0  0  0  0
  -30.5923  -17.9312   20.8942 C   0  0  0  0  0  0  0  0  0  0  0  0
  -29.1436  -19.6325   19.9756 C   0  0  0  0  0  0  0  0  0  0  0  0
  -31.3648  -19.3231   19.0767 C   0  0  0  0  0  0  0  0  0  0  0  0
  -22.2028   -8.2292   21.5464 C   0  0  0  0  0  0  0  0  0  0  0  0
  -28.5758  -22.1002   21.3951 C   0  0  0  0  0  0  0  0  0  0  0  0
  -22.0325   -6.1173   22.5627 C   0  0  0  0  0  0  0  0  0  0  0  0
  -23.2034   -4.0852   24.0733 C   0  0  0  0  0  0  0  0  0  0  0  0
  -21.4643   -5.7361   23.7782 C   0  0  0  0  0  0  0  0  0  0  0  0
  -30.1415  -19.9934   19.0702 C   0  0  0  0  0  0  0  0  0  0  0  0
  -24.5369  -11.6607   20.7247 C   0  0  0  0  0  0  0  0  0  0  0  0
  -25.2448  -13.7244   20.4508 C   0  0  0  0  0  0  0  0  0  0  0  0
  -22.8672  -13.5573   21.2043 C   0  0  0  0  0  0  0  0  0  0  0  0
  -31.8082  -25.2880   24.3705 C   0  0  0  0  0  0  0  0  0  0  0  0
  -34.0848  -22.9854   24.1768 C   0  0  0  0  0  0  0  0  0  0  0  0
  -35.0161  -19.9247   22.9888 C   0  0  0  0  0  0  0  0  0  0  0  0
  -30.7438  -14.6453   20.6915 C   0  0  0  0  0  0  0  0  0  0  0  0
  -32.9994  -29.4063   27.1416 C   0  0  0  0  0  0  0  0  0  0  0  0
  -30.5129  -23.2399   25.0658 C   0  0  0  0  0  0  0  0  0  0  0  0
  -32.1093  -22.7527   22.6247 C   0  0  0  0  0  0  0  0  0  0  0  0
  -33.7656  -28.4280   26.2550 C   0  0  0  0  0  0  0  0  0  0  0  0
  -29.5948  -12.2162   18.3558 C   0  0  0  0  0  0  0  0  0  0  0  0
  -33.0501  -28.2439   24.9204 C   0  0  0  0  0  0  0  0  0  0  0  0
  -28.1460  -11.9618   18.7755 C   0  0  0  0  0  0  0  0  0  0  0  0
  -30.4988  -12.4535   19.5634 C   0  0  0  0  0  0  0  0  0  0  0  0
  -28.5919  -13.2590   20.9009 C   0  0  0  0  0  0  0  0  0  0  0  0
  -31.6489  -27.6545   25.1224 C   0  0  1  0  0  0  0  0  0  0  0  0
  -31.8871  -23.8716   24.8655 C   0  0  1  0  0  0  0  0  0  0  0  0
  -27.6314  -13.0695   19.7143 C   0  0  2  0  0  0  0  0  0  0  0  0
  -32.3974   -8.9977   16.7877 C   0  0  0  0  0  0  0  0  0  0  0  0
  -36.9506  -18.3265   22.9641 C   0  0  0  0  0  0  0  0  0  0  0  0
  -34.6856  -19.9112   17.4949 C   0  0  0  0  0  0  0  0  0  0  0  0
  -27.0688  -20.1915   18.6594 C   0  0  0  0  0  0  0  0  0  0  0  0
  -26.9145  -19.8036   21.1482 C   0  0  0  0  0  0  0  0  0  0  0  0
  -35.4988  -24.7327   22.1134 C   0  0  0  0  0  0  0  0  0  0  0  0
  -36.8475  -22.7317   21.4459 C   0  0  0  0  0  0  0  0  0  0  0  0
  -37.0193  -23.6319   23.7660 C   0  0  0  0  0  0  0  0  0  0  0  0
  -36.6314  -12.2462   17.4180 C   0  0  0  0  0  0  0  0  0  0  0  0
  -35.7051  -13.2577   15.3135 C   0  0  0  0  0  0  0  0  0  0  0  0
  -33.4463  -17.8220   24.3575 C   0  0  0  0  0  0  0  0  0  0  0  0
  -30.8333  -16.8283   21.8687 C   0  0  0  0  0  0  0  0  0  0  0  0
  -32.5845  -10.4518   17.1908 C   0  0  0  0  0  0  0  0  0  0  0  0
  -33.9372  -10.9941   16.7226 C   0  0  0  0  0  0  0  0  0  0  0  0
  -34.6646  -16.6818   17.7706 C   0  0  0  0  0  0  0  0  0  0  0  0
  -33.5473  -17.6638   17.4009 C   0  0  0  0  0  0  0  0  0  0  0  0
  -34.1322  -12.4485   17.1708 C   0  0  0  0  0  0  0  0  0  0  0  0
  -34.5032  -15.3669   17.0212 C   0  0  0  0  0  0  0  0  0  0  0  0
  -34.9240  -22.4026   23.0655 C   0  0  1  0  0  0  0  0  0  0  0  0
  -35.6674  -18.7351   23.6706 C   0  0  2  0  0  0  0  0  0  0  0  0
  -33.6604  -18.9953   18.1556 C   0  0  2  0  0  0  0  0  0  0  0  0
  -27.7896  -20.3371   20.0061 C   0  0  0  0  0  0  0  0  0  1  0  0
  -36.0440  -23.3740   22.5969 C   0  0  0  0  0  0  0  0  0  0  0  0
  -35.4950  -13.0835   16.8190 C   0  0  0  0  0  0  0  0  0  0  0  0
  -25.8055  -11.5294   20.3280 N   0  0  0  0  0  0  0  0  0  0  0  0
  -26.2088  -12.8015   20.1694 N   0  0  0  0  0  0  0  0  0  0  0  0
  -32.7157  -23.1314   23.9117 N   0  0  0  0  0  0  0  0  0  0  0  0
  -29.9555  -13.5168   20.4121 N   0  0  0  0  0  0  0  0  0  0  0  0
  -25.4817  -15.0491   20.3438 N   0  0  0  0  0  0  0  0  0  0  0  0
  -21.8334  -12.6771   21.5519 N   0  0  0  0  0  0  0  0  0  0  0  0
  -32.3975  -19.6628   18.1734 N   0  0  0  0  0  0  0  0  0  0  0  0
  -31.7308  -26.2321   25.3766 N   0  0  0  0  0  0  0  0  0  0  0  0
  -35.4132  -21.1179   23.5542 N   0  0  0  0  0  0  0  0  0  0  0  0
  -30.1507  -15.6086   21.4984 N   0  0  0  0  0  0  0  0  0  0  0  0
  -34.7404  -17.5682   23.6735 N   0  3  0  0  0  0  0  0  0  0  0  0
  -35.5756  -14.4333   17.4417 N   0  3  0  0  0  0  0  0  0  0  0  0
  -22.6538  -14.7932   21.2238 O   0  0  0  0  0  0  0  0  0  0  0  0
  -31.8184  -25.5082   23.1651 O   0  0  0  0  0  0  0  0  0  0  0  0
  -34.6228  -23.2929   25.2434 O   0  0  0  0  0  0  0  0  0  0  0  0
  -34.2361  -19.8074   22.0462 O   0  0  0  0  0  0  0  0  0  0  0  0
  -31.8893  -14.7865   20.2500 O   0  0  0  0  0  0  0  0  0  0  0  0
  -21.4520   -7.1253   21.8113 O   0  0  0  0  0  0  0  0  0  0  0  0
  -27.9621  -21.7347   20.2368 O   0  0  0  0  0  0  0  0  0  1  0  0
  -23.7649   -3.1084   24.7978 F   0  0  0  0  0  0  0  0  0  0  0  0
  -20.3554   -6.3415   24.2249 F   0  0  0  0  0  0  0  0  0  0  0  0
  -29.8557  -21.2754   17.9390 Cl  0  0  0  0  0  0  0  0  0  0  0  0
  1  2  1  0  0  0  0
  1  5  2  0  0  0  0
  2  6  2  0  0  0  0
  3  8  2  0  0  0  0
  3 17  1  0  0  0  0
  4  9  1  0  0  0  0
  4 17  2  0  0  0  0
  5 19  1  0  0  0  0
  6 21  1  0  0  0  0
  7 10  2  0  0  0  0
  7 20  1  0  0  0  0
  8 26  1  0  0  0  0
  9 26  2  0  0  0  0
 10 27  1  0  0  0  0
 11 12  2  0  0  0  0
 11 28  1  0  0  0  0
 12 29  1  0  0  0  0
 13 22  1  0  0  0  0
 13 27  2  0  0  0  0
 14 23  1  0  0  0  0
 14 24  2  0  0  0  0
 15 23  2  0  0  0  0
 15 25  1  0  0  0  0
 16 29  2  0  0  0  0
 16 30  1  0  0  0  0
 17 32  1  0  0  0  0
 18 32  1  0  0  0  0
 18 33  2  0  0  0  0
 18 34  1  0  0  0  0
 19 21  2  0  0  0  0
 19 39  1  0  0  0  0
 20 22  2  0  0  0  0
 20 40  1  0  0  0  0
 21 48  1  0  0  0  0
 22 41  1  0  0  0  0
 23 62  1  0  0  0  0
 24 31  1  0  0  0  0
 24 72  1  0  0  0  0
 25 31  2  0  0  0  0
 25 81  1  0  0  0  0
 26 92  1  0  0  0  0
 27 93  1  0  0  0  0
 28 30  2  0  0  0  0
 28 92  1  0  0  0  0
 29 94  1  0  0  0  0
 30 95  1  0  0  0  0
 31 96  1  0  0  0  0
 32 75  2  0  0  0  0
 33 76  1  0  0  0  0
 33 79  1  0  0  0  0
 34 80  1  0  0  0  0
 34 87  2  0  0  0  0
 35 49  1  0  0  0  0
 35 82  1  0  0  0  0
 35 88  2  0  0  0  0
 36 69  1  0  0  0  0
 36 77  1  0  0  0  0
 36 89  2  0  0  0  0
 37 70  1  0  0  0  0
 37 83  1  0  0  0  0
 37 90  2  0  0  0  0
 38 78  1  0  0  0  0
 38 84  1  0  0  0  0
 38 91  2  0  0  0  0
 39 42  1  0  0  0  0
 40 49  1  0  0  0  0
 41 77  1  0  0  0  0
 42 44  1  0  0  0  0
 43 45  1  0  0  0  0
 43 46  1  0  0  0  0
 44 48  1  0  0  0  0
 45 50  1  0  0  0  0
 46 78  1  0  0  0  0
 47 50  1  0  0  0  0
 47 78  1  0  0  0  0
 48 82  1  0  0  0  0
 49 77  1  0  0  0  0
 50 76  1  0  0  0  0
 51 63  1  0  0  0  0
 52 70  1  0  0  0  0
 53 71  1  0  0  0  0
 54 72  1  0  0  0  0
 55 72  1  0  0  0  0
 56 73  1  0  0  0  0
 57 73  1  0  0  0  0
 58 73  1  0  0  0  0
 59 74  1  0  0  0  0
 60 74  1  0  0  0  0
 61 85  1  0  0  0  0
 62 84  1  0  0  0  0
 63 64  1  0  0  0  0
 64 67  1  0  0  0  0
 65 66  1  0  0  0  0
 65 68  1  0  0  0  0
 66 71  1  0  0  0  0
 67 74  1  0  0  0  0
 68 86  1  0  0  0  0
 69 73  1  0  0  0  0
 69 83  1  0  0  0  0
 70 85  1  0  0  0  0
 71 81  1  0  0  0  0
 72 93  1  0  0  0  0
 74 86  1  0  0  0  0
 75 76  1  0  0  0  0
M  CHG  2  85   1  86   1
M  ISO  4  38 100  72 101  84 100  93 101
M  END
> <Batch ID>
0023

> <Smiles>
CCCCC(C)(C)NCCCC(C)Nc1cc(C[100NH:0][100C:0](=O)N2CCCC(n3nc(-c4ccc(Oc5ccc(F)cc5F)cc4)c(C(N)=O)c3N)C2)cc([101C:1](C)(C)[101O:1]c2ccc3c(c2)CN(C(=O)C(NC(=O)C(C)NC)C(C)(C)C)C(C(=O)NC2CCCc4ccccc42)C3)c1Cl

> <Shape>
0.215

> <Color>
0.183

> <Negative vol penalty>
0.000

$$$$

  -OEChem-04052316193D

 87 95  0     1  0  0  0  0  0999 V2000
  -20.2799  -26.1937   25.5898 C   0  0  0  0  0  0  0  0  0  0  0  0
  -21.3678  -26.0159   24.7412 C   0  0  0  0  0  0  0  0  0  0  0  0
  -22.9225   -9.3913   22.2282 C   0  0  0  0  0  0  0  0  0  0  0  0
  -24.2321  -10.6125   23.8501 C   0  0  0  0  0  0  0  0  0  0  0  0
  -19.2670  -27.0876   25.2450 C   0  0  0  0  0  0  0  0  0  0  0  0
  -21.4429  -26.7313   23.5466 C   0  0  0  0  0  0  0  0  0  0  0  0
  -26.0478  -28.6746   22.7320 C   0  0  0  0  0  0  0  0  0  0  0  0
  -22.2498   -8.7397   23.2619 C   0  0  0  0  0  0  0  0  0  0  0  0
  -23.5594   -9.9610   24.8838 C   0  0  0  0  0  0  0  0  0  0  0  0
  -27.0323  -27.8050   22.2648 C   0  0  0  0  0  0  0  0  0  0  0  0
  -19.7483   -9.4293   25.4298 C   0  0  0  0  0  0  0  0  0  0  0  0
  -18.3611   -9.3205   25.3332 C   0  0  0  0  0  0  0  0  0  0  0  0
  -26.6919  -28.6328   20.0247 C   0  0  0  0  0  0  0  0  0  0  0  0
  -29.1219  -18.1377   17.6283 C   0  0  0  0  0  0  0  0  0  0  0  0
  -18.5467   -6.9121   25.3810 C   0  0  0  0  0  0  0  0  0  0  0  0
  -23.9137  -10.3276   22.5223 C   0  0  0  0  0  0  0  0  0  0  0  0
  -24.2477  -12.2118   20.8352 C   0  0  0  0  0  0  0  0  0  0  0  0
  -19.3344  -27.8214   24.0502 C   0  0  0  0  0  0  0  0  0  0  0  0
  -25.3691  -29.5235   21.8459 C   0  0  0  0  0  0  0  0  0  0  0  0
  -20.4293  -27.6348   23.1848 C   0  0  0  0  0  0  0  0  0  0  0  0
  -25.7010  -29.5140   20.4836 C   0  0  0  0  0  0  0  0  0  0  0  0
  -29.6852  -16.9028   17.3265 C   0  0  0  0  0  0  0  0  0  0  0  0
  -30.3795  -16.2033   18.3072 C   0  0  0  0  0  0  0  0  0  0  0  0
  -22.5682   -9.0246   24.5897 C   0  0  0  0  0  0  0  0  0  0  0  0
  -27.3525  -27.7820   20.9106 C   0  0  0  0  0  0  0  0  0  0  0  0
  -20.5348   -8.2795   25.5020 C   0  0  0  0  0  0  0  0  0  0  0  0
  -17.7603   -8.0619   25.3088 C   0  0  0  0  0  0  0  0  0  0  0  0
  -19.9339   -7.0209   25.4776 C   0  0  0  0  0  0  0  0  0  0  0  0
  -24.6094  -11.0006   21.4549 C   0  0  0  0  0  0  0  0  0  0  0  0
  -30.4813  -16.7774   19.5641 C   0  0  0  0  0  0  0  0  0  0  0  0
  -29.2799  -18.6252   18.9156 C   0  0  0  0  0  0  0  0  0  0  0  0
  -25.2239  -12.4197   19.8917 C   0  0  0  0  0  0  0  0  0  0  0  0
  -23.1293  -13.0721   21.0898 C   0  0  0  0  0  0  0  0  0  0  0  0
  -22.3405  -29.8659   20.9437 C   0  0  0  0  0  0  0  0  0  0  0  0
  -23.5120  -32.4408   19.3563 C   0  0  0  0  0  0  0  0  0  0  0  0
  -26.1967  -33.9867   17.9247 C   0  0  0  0  0  0  0  0  0  0  0  0
  -30.5932  -12.4542   18.3702 C   0  0  0  0  0  0  0  0  0  0  0  0
  -18.1922  -28.7409   23.6975 C   0  0  0  0  0  0  0  0  0  0  0  0
  -24.3284  -30.4747   22.3698 C   0  0  0  0  0  0  0  0  0  0  0  0
  -25.0161  -30.4199   19.4943 C   0  0  0  0  0  0  0  0  0  0  0  0
  -18.5319  -29.7382   22.5928 C   0  0  0  0  0  0  0  0  0  0  0  0
  -28.8634   -9.3476   18.1879 C   0  0  0  0  0  0  0  0  0  0  0  0
  -19.2343  -29.0346   21.4360 C   0  0  0  0  0  0  0  0  0  0  0  0
  -27.5763   -9.5988   18.9755 C   0  0  0  0  0  0  0  0  0  0  0  0
  -30.0547  -10.0760   18.8063 C   0  0  0  0  0  0  0  0  0  0  0  0
  -28.5701  -11.7743   19.7990 C   0  0  0  0  0  0  0  0  0  0  0  0
  -20.5588  -28.4109   21.8921 C   0  0  1  0  0  0  0  0  0  0  0  0
  -23.3411  -30.9290   21.2992 C   0  0  1  0  0  0  0  0  0  0  0  0
  -27.3301  -11.1055   19.1815 C   0  0  2  0  0  0  0  0  0  0  0  0
  -29.5312  -16.3510   15.9477 C   0  0  0  0  0  0  0  0  0  0  0  0
  -31.2155  -16.0737   20.6581 C   0  0  0  0  0  0  0  0  0  0  0  0
  -26.8362  -36.0651   16.6723 C   0  0  0  0  0  0  0  0  0  0  0  0
  -22.2271  -31.3109   16.8300 C   0  0  0  0  0  0  0  0  0  0  0  0
  -23.6629  -32.8632   15.4893 C   0  0  0  0  0  0  0  0  0  0  0  0
  -21.9967  -33.7865   17.0999 C   0  0  0  0  0  0  0  0  0  0  0  0
  -28.0932  -34.8171   20.0396 C   0  0  0  0  0  0  0  0  0  0  0  0
  -30.9946  -14.8769   18.0111 C   0  0  0  0  0  0  0  0  0  0  0  0
  -28.1880  -24.0478   19.9048 C   0  0  0  0  0  0  0  0  0  0  0  0
  -28.8813  -22.6900   19.7760 C   0  0  0  0  0  0  0  0  0  0  0  0
  -28.8261  -25.0874   18.9787 C   0  0  0  0  0  0  0  0  0  0  0  0
  -28.2680  -21.6607   20.7228 C   0  0  0  0  0  0  0  0  0  0  0  0
  -28.1732  -26.4576   19.1138 C   0  0  0  0  0  0  0  0  0  1  0  0
  -28.9244  -20.2959   20.5704 C   0  0  0  0  0  0  0  0  0  0  0  0
  -24.0904  -32.6773   17.9821 C   0  0  1  0  0  0  0  0  0  0  0  0
  -26.7199  -35.4072   18.0385 C   0  0  2  0  0  0  0  0  0  0  0  0
  -23.0060  -32.6409   16.8684 C   0  0  0  0  0  0  0  0  0  0  0  0
  -25.7279  -10.4757   20.9476 N   0  0  0  0  0  0  0  0  0  0  0  0
  -29.9476  -17.9747   19.8948 N   0  0  0  0  0  0  0  0  0  0  0  0
  -26.0775  -11.3614   19.9991 N   0  0  0  0  0  0  0  0  0  0  0  0
  -24.0011  -31.3275   20.0543 N   0  0  0  0  0  0  0  0  0  0  0  0
  -29.7568  -11.5005   18.9734 N   0  0  0  0  0  0  0  0  0  0  0  0
  -25.4267  -13.4026   18.9889 N   0  0  0  0  0  0  0  0  0  0  0  0
  -22.2221  -12.7090   22.0946 N   0  0  0  0  0  0  0  0  0  0  0  0
  -21.5815  -29.4279   22.0121 N   0  0  0  0  0  0  0  0  0  0  0  0
  -24.8254  -33.9351   18.0595 N   0  0  0  0  0  0  0  0  0  0  0  0
  -30.2360  -13.7817   18.5731 N   0  0  0  0  0  0  0  0  0  0  0  0
  -28.0653  -35.4139   18.6794 N   0  3  0  0  0  0  0  0  0  0  0  0
  -22.9310  -14.1230   20.4343 O   0  0  0  0  0  0  0  0  0  0  0  0
  -22.2619  -29.4732   19.7856 O   0  0  0  0  0  0  0  0  0  0  0  0
  -22.6629  -33.2194   19.7972 O   0  0  0  0  0  0  0  0  0  0  0  0
  -26.9307  -33.0200   17.7317 O   0  0  0  0  0  0  0  0  0  0  0  0
  -31.5817  -12.1455   17.6960 O   0  0  0  0  0  0  0  0  0  0  0  0
  -21.9118   -8.3892   25.5987 O   0  0  0  0  0  0  0  0  0  0  0  0
  -28.3127  -26.9337   20.4518 O   0  0  0  0  0  0  0  0  0  1  0  0
  -28.7344  -19.8408   19.2379 O   0  0  0  0  0  0  0  0  0  0  0  0
  -16.4280   -7.9577   25.2176 F   0  0  0  0  0  0  0  0  0  0  0  0
  -20.6841   -5.9127   25.5478 F   0  0  0  0  0  0  0  0  0  0  0  0
  1  2  1  0  0  0  0
  1  5  2  0  0  0  0
  2  6  2  0  0  0  0
  3  8  2  0  0  0  0
  3 16  1  0  0  0  0
  4  9  1  0  0  0  0
  4 16  2  0  0  0  0
  5 18  1  0  0  0  0
  6 20  1  0  0  0  0
  7 10  2  0  0  0  0
  7 19  1  0  0  0  0
  8 24  1  0  0  0  0
  9 24  2  0  0  0  0
 10 25  1  0  0  0  0
 11 12  2  0  0  0  0
 11 26  1  0  0  0  0
 12 27  1  0  0  0  0
 13 21  1  0  0  0  0
 13 25  2  0  0  0  0
 14 22  2  0  0  0  0
 14 31  1  0  0  0  0
 15 27  2  0  0  0  0
 15 28  1  0  0  0  0
 16 29  1  0  0  0  0
 17 29  1  0  0  0  0
 17 32  2  0  0  0  0
 17 33  1  0  0  0  0
 18 20  2  0  0  0  0
 18 38  1  0  0  0  0
 19 21  2  0  0  0  0
 19 39  1  0  0  0  0
 20 47  1  0  0  0  0
 21 40  1  0  0  0  0
 22 23  1  0  0  0  0
 22 50  1  0  0  0  0
 23 30  2  0  0  0  0
 23 57  1  0  0  0  0
 24 83  1  0  0  0  0
 25 84  1  0  0  0  0
 26 28  2  0  0  0  0
 26 83  1  0  0  0  0
 27 86  1  0  0  0  0
 28 87  1  0  0  0  0
 29 67  2  0  0  0  0
 30 51  1  0  0  0  0
 30 68  1  0  0  0  0
 31 68  2  0  0  0  0
 31 85  1  0  0  0  0
 32 69  1  0  0  0  0
 32 72  1  0  0  0  0
 33 73  1  0  0  0  0
 33 78  2  0  0  0  0
 34 48  1  0  0  0  0
 34 74  1  0  0  0  0
 34 79  2  0  0  0  0
 35 64  1  0  0  0  0
 35 70  1  0  0  0  0
 35 80  2  0  0  0  0
 36 65  1  0  0  0  0
 36 75  1  0  0  0  0
 36 81  2  0  0  0  0
 37 71  1  0  0  0  0
 37 76  1  0  0  0  0
 37 82  2  0  0  0  0
 38 41  1  0  0  0  0
 39 48  1  0  0  0  0
 40 70  1  0  0  0  0
 41 43  1  0  0  0  0
 42 44  1  0  0  0  0
 42 45  1  0  0  0  0
 43 47  1  0  0  0  0
 44 49  1  0  0  0  0
 45 71  1  0  0  0  0
 46 49  1  0  0  0  0
 46 71  1  0  0  0  0
 47 74  1  0  0  0  0
 48 70  1  0  0  0  0
 49 69  1  0  0  0  0
 52 65  1  0  0  0  0
 53 66  1  0  0  0  0
 54 66  1  0  0  0  0
 55 66  1  0  0  0  0
 56 77  1  0  0  0  0
 57 76  1  0  0  0  0
 58 59  1  0  0  0  0
 58 60  1  0  0  0  0
 59 61  1  0  0  0  0
 60 62  1  0  0  0  0
 61 63  1  0  0  0  0
 62 84  1  0  0  0  0
 63 85  1  0  0  0  0
 64 66  1  0  0  0  0
 64 75  1  0  0  0  0
 65 77  1  0  0  0  0
 67 69  1  0  0  0  0
M  CHG  1  77   1
M  ISO  4  37 100  62 101  76 100  84 101
M  END
> <Batch ID>
0023

> <Smiles>
CNC(C)C(=O)NC(C(=O)N1Cc2cc([101O:1][101CH2:1]CCCCCOc3cc(C)c(C[100NH:0][100C:0](=O)N4CCCC(n5nc(-c6ccc(Oc7ccc(F)cc7F)cc6)c(C(N)=O)c5N)C4)c(C)n3)ccc2CC1C(=O)NC1CCCc2ccccc21)C(C)(C)C

> <Shape>
0.260

> <Color>
0.124

> <Negative vol penalty>
0.000

$$$$

  -OEChem-04052316193D

 87 95  0     1  0  0  0  0  0999 V2000
  -16.6813  -28.6937   24.3153 C   0  0  0  0  0  0  0  0  0  0  0  0
  -17.8057  -27.8815   24.2080 C   0  0  0  0  0  0  0  0  0  0  0  0
  -26.5898  -10.1317   19.2597 C   0  0  0  0  0  0  0  0  0  0  0  0
  -26.2692  -12.0267   17.7958 C   0  0  0  0  0  0  0  0  0  0  0  0
  -16.5668  -29.8326   23.5192 C   0  0  0  0  0  0  0  0  0  0  0  0
  -18.8158  -28.2072   23.3036 C   0  0  0  0  0  0  0  0  0  0  0  0
  -25.9194  -27.7875   22.4791 C   0  0  0  0  0  0  0  0  0  0  0  0
  -25.3860   -9.5848   18.8154 C   0  0  0  0  0  0  0  0  0  0  0  0
  -25.0654  -11.4797   17.3514 C   0  0  0  0  0  0  0  0  0  0  0  0
  -26.8731  -27.3406   21.5656 C   0  0  0  0  0  0  0  0  0  0  0  0
  -22.0851  -10.0358   19.3852 C   0  0  0  0  0  0  0  0  0  0  0  0
  -21.2161   -9.5176   20.3453 C   0  0  0  0  0  0  0  0  0  0  0  0
  -26.6040  -29.3756   20.2984 C   0  0  0  0  0  0  0  0  0  0  0  0
  -28.4586  -20.0012   22.4051 C   0  0  0  0  0  0  0  0  0  0  0  0
  -21.3490   -7.3465   19.2937 C   0  0  0  0  0  0  0  0  0  0  0  0
  -27.0314  -11.3527   18.7500 C   0  0  0  0  0  0  0  0  0  0  0  0
  -29.5553  -11.7129   18.6621 C   0  0  0  0  0  0  0  0  0  0  0  0
  -17.5806  -30.1776   22.6115 C   0  0  0  0  0  0  0  0  0  0  0  0
  -25.2918  -29.0291   22.3028 C   0  0  0  0  0  0  0  0  0  0  0  0
  -18.7142  -29.3510   22.4936 C   0  0  0  0  0  0  0  0  0  0  0  0
  -25.6445  -29.8370   21.2125 C   0  0  0  0  0  0  0  0  0  0  0  0
  -27.9208  -20.8561   19.8046 C   0  0  0  0  0  0  0  0  0  0  0  0
  -27.6757  -21.7062   20.8829 C   0  0  0  0  0  0  0  0  0  0  0  0
  -28.7038  -19.1511   21.3268 C   0  0  0  0  0  0  0  0  0  0  0  0
  -24.6239  -10.2588   17.8613 C   0  0  0  0  0  0  0  0  0  0  0  0
  -27.2135  -28.1334   20.4735 C   0  0  0  0  0  0  0  0  0  0  0  0
  -22.5860   -9.2094   18.3793 C   0  0  0  0  0  0  0  0  0  0  0  0
  -20.8480   -8.1730   20.2996 C   0  0  0  0  0  0  0  0  0  0  0  0
  -22.2180   -7.8648   18.3336 C   0  0  0  0  0  0  0  0  0  0  0  0
  -27.9445  -21.2788   22.1832 C   0  0  0  0  0  0  0  0  0  0  0  0
  -28.4349  -19.5785   20.0265 C   0  0  0  0  0  0  0  0  0  0  0  0
  -28.2745  -11.9185   19.2090 C   0  0  0  0  0  0  0  0  0  0  0  0
  -30.3904  -12.4651   19.4515 C   0  0  0  0  0  0  0  0  0  0  0  0
  -29.9544  -10.9136   17.5407 C   0  0  0  0  0  0  0  0  0  0  0  0
  -22.2953  -29.9818   21.8370 C   0  0  0  0  0  0  0  0  0  0  0  0
  -23.6008  -32.9366   22.1313 C   0  0  0  0  0  0  0  0  0  0  0  0
  -25.5907  -35.7074   22.2320 C   0  0  0  0  0  0  0  0  0  0  0  0
  -29.5364  -17.3145   22.8367 C   0  0  0  0  0  0  0  0  0  0  0  0
  -17.3905  -31.3926   21.7383 C   0  0  0  0  0  0  0  0  0  0  0  0
  -24.2845  -29.5085   23.3118 C   0  0  0  0  0  0  0  0  0  0  0  0
  -25.0147  -31.1868   20.9891 C   0  0  0  0  0  0  0  0  0  0  0  0
  -18.6779  -31.8719   21.0728 C   0  0  0  0  0  0  0  0  0  0  0  0
  -30.8042  -14.1650   23.9095 C   0  0  0  0  0  0  0  0  0  0  0  0
  -19.4340  -30.6953   20.4637 C   0  0  0  0  0  0  0  0  0  0  0  0
  -30.4213  -13.2140   22.7732 C   0  0  0  0  0  0  0  0  0  0  0  0
  -29.7247  -15.2173   24.1564 C   0  0  0  0  0  0  0  0  0  0  0  0
  -28.9313  -15.0254   21.8320 C   0  0  0  0  0  0  0  0  0  0  0  0
  -19.8427  -29.6845   21.5420 C   0  0  1  0  0  0  0  0  0  0  0  0
  -23.3347  -30.5634   22.7530 C   0  0  1  0  0  0  0  0  0  0  0  0
  -30.0169  -13.9876   21.5030 C   0  0  2  0  0  0  0  0  0  0  0  0
  -27.6260  -21.3325   18.4152 C   0  0  0  0  0  0  0  0  0  0  0  0
  -25.4913  -38.2105   22.0830 C   0  0  0  0  0  0  0  0  0  0  0  0
  -26.8158  -25.2874   18.4773 C   0  0  0  0  0  0  0  0  0  0  0  0
  -23.2342  -32.7398   19.1086 C   0  0  0  0  0  0  0  0  0  0  0  0
  -24.0801  -35.0889   18.9230 C   0  0  0  0  0  0  0  0  0  0  0  0
  -21.9845  -34.6162   20.1910 C   0  0  0  0  0  0  0  0  0  0  0  0
  -29.7320  -26.1704   18.6875 C   0  0  0  0  0  0  0  0  0  0  0  0
  -29.4774  -26.4927   21.1601 C   0  0  0  0  0  0  0  0  0  0  0  0
  -26.6866  -36.0293   24.9622 C   0  0  0  0  0  0  0  0  0  0  0  0
  -27.1210  -23.0775   20.6322 C   0  0  0  0  0  0  0  0  0  0  0  0
  -24.2105  -33.9358   21.1779 C   0  0  1  0  0  0  0  0  0  0  0  0
  -25.4716  -37.0053   23.0103 C   0  0  2  0  0  0  0  0  0  0  0  0
  -27.5839  -25.3832   19.7906 C   0  0  2  0  0  0  0  0  0  0  0  0
  -23.3931  -34.0751   19.8627 C   0  0  0  0  0  0  0  0  0  0  0  0
  -28.7309  -26.4217   19.8228 C   0  0  0  0  0  0  0  0  0  1  0  0
  -28.2897  -12.7370   20.2643 N   0  0  0  0  0  0  0  0  0  0  0  0
  -29.5903  -13.0524   20.3870 N   0  0  0  0  0  0  0  0  0  0  0  0
  -24.0308  -31.6086   21.9998 N   0  0  0  0  0  0  0  0  0  0  0  0
  -29.3959  -15.9125   22.9100 N   0  0  0  0  0  0  0  0  0  0  0  0
  -31.7238  -12.6749   19.4298 N   0  0  0  0  0  0  0  0  0  0  0  0
  -28.9685  -10.2050   16.8406 N   0  0  0  0  0  0  0  0  0  0  0  0
  -29.2259  -17.8608   21.5918 N   0  0  0  0  0  0  0  0  0  0  0  0
  -20.9965  -30.1635   22.2725 N   0  0  0  0  0  0  0  0  0  0  0  0
  -24.3539  -35.1796   21.9268 N   0  0  0  0  0  0  0  0  0  0  0  0
  -26.5999  -37.1361   23.9751 N   0  3  0  0  0  0  0  0  0  0  0  0
  -28.1280  -24.0214   20.0898 N   0  3  0  0  0  0  0  0  0  0  0  0
  -31.1521  -10.8172   17.1806 O   0  0  0  0  0  0  0  0  0  0  0  0
  -22.6456  -29.4117   20.8104 O   0  0  0  0  0  0  0  0  0  0  0  0
  -22.7789  -33.3216   22.9667 O   0  0  0  0  0  0  0  0  0  0  0  0
  -26.6725  -35.2133   21.9222 O   0  0  0  0  0  0  0  0  0  0  0  0
  -29.9312  -17.9783   23.7988 O   0  0  0  0  0  0  0  0  0  0  0  0
  -23.4493   -9.7252   17.4273 O   0  0  0  0  0  0  0  0  0  0  0  0
  -28.1436  -27.6994   19.5800 O   0  0  0  0  0  0  0  0  0  1  0  0
  -20.0147   -7.6751   21.2226 F   0  0  0  0  0  0  0  0  0  0  0  0
  -22.6969   -7.0657   17.3703 F   0  0  0  0  0  0  0  0  0  0  0  0
  -27.6500  -22.2981   23.5454 Cl  0  0  0  0  0  0  0  0  0  0  0  0
  -28.7388  -18.5226   18.6845 Cl  0  0  0  0  0  0  0  0  0  0  0  0
  1  2  1  0  0  0  0
  1  5  2  0  0  0  0
  2  6  2  0  0  0  0
  3  8  2  0  0  0  0
  3 16  1  0  0  0  0
  4  9  1  0  0  0  0
  4 16  2  0  0  0  0
  5 18  1  0  0  0  0
  6 20  1  0  0  0  0
  7 10  2  0  0  0  0
  7 19  1  0  0  0  0
  8 25  1  0  0  0  0
  9 25  2  0  0  0  0
 10 26  1  0  0  0  0
 11 12  2  0  0  0  0
 11 27  1  0  0  0  0
 12 28  1  0  0  0  0
 13 21  1  0  0  0  0
 13 26  2  0  0  0  0
 14 24  1  0  0  0  0
 14 30  2  0  0  0  0
 15 28  2  0  0  0  0
 15 29  1  0  0  0  0
 16 32  1  0  0  0  0
 17 32  1  0  0  0  0
 17 33  2  0  0  0  0
 17 34  1  0  0  0  0
 18 20  2  0  0  0  0
 18 39  1  0  0  0  0
 19 21  2  0  0  0  0
 19 40  1  0  0  0  0
 20 48  1  0  0  0  0
 21 41  1  0  0  0  0
 22 23  2  0  0  0  0
 22 31  1  0  0  0  0
 22 51  1  0  0  0  0
 23 30  1  0  0  0  0
 23 60  1  0  0  0  0
 24 31  2  0  0  0  0
 24 72  1  0  0  0  0
 25 82  1  0  0  0  0
 26 83  1  0  0  0  0
 27 29  2  0  0  0  0
 27 82  1  0  0  0  0
 28 84  1  0  0  0  0
 29 85  1  0  0  0  0
 30 86  1  0  0  0  0
 31 87  1  0  0  0  0
 32 66  2  0  0  0  0
 33 67  1  0  0  0  0
 33 70  1  0  0  0  0
 34 71  1  0  0  0  0
 34 77  2  0  0  0  0
 35 49  1  0  0  0  0
 35 73  1  0  0  0  0
 35 78  2  0  0  0  0
 36 61  1  0  0  0  0
 36 68  1  0  0  0  0
 36 79  2  0  0  0  0
 37 62  1  0  0  0  0
 37 74  1  0  0  0  0
 37 80  2  0  0  0  0
 38 69  1  0  0  0  0
 38 72  1  0  0  0  0
 38 81  2  0  0  0  0
 39 42  1  0  0  0  0
 40 49  1  0  0  0  0
 41 68  1  0  0  0  0
 42 44  1  0  0  0  0
 43 45  1  0  0  0  0
 43 46  1  0  0  0  0
 44 48  1  0  0  0  0
 45 50  1  0  0  0  0
 46 69  1  0  0  0  0
 47 50  1  0  0  0  0
 47 69  1  0  0  0  0
 48 73  1  0  0  0  0
 49 68  1  0  0  0  0
 50 67  1  0  0  0  0
 52 62  1  0  0  0  0
 53 63  1  0  0  0  0
 54 64  1  0  0  0  0
 55 64  1  0  0  0  0
 56 64  1  0  0  0  0
 57 65  1  0  0  0  0
 58 65  1  0  0  0  0
 59 75  1  0  0  0  0
 60 76  1  0  0  0  0
 61 64  1  0  0  0  0
 61 74  1  0  0  0  0
 62 75  1  0  0  0  0
 63 65  1  0  0  0  0
 63 76  1  0  0  0  0
 65 83  1  0  0  0  0
 66 67  1  0  0  0  0
M  CHG  2  75   1  76   1
M  ISO  4  38 100  65 101  72 100  83 101
M  END
> <Batch ID>
0023

> <Smiles>
CNC(C)C(=O)NC(C(=O)N1Cc2cc([101O:1][101C:1](C)(C)C(C)NCc3c(Cl)cc([100NH:0][100C:0](=O)N4CCCC(n5nc(-c6ccc(Oc7ccc(F)cc7F)cc6)c(C(N)=O)c5N)C4)c(Cl)c3C)ccc2CC1C(=O)NC1CCCc2ccccc21)C(C)(C)C

> <Shape>
0.284

> <Color>
0.108

> <Negative vol penalty>
0.000

$$$$

  -OEChem-04052316193D

 86 94  0     1  0  0  0  0  0999 V2000
  -30.3755  -22.3103   15.1001 C   0  0  0  0  0  0  0  0  0  0  0  0
  -29.7446  -22.0604   16.3145 C   0  0  0  0  0  0  0  0  0  0  0  0
  -27.4684  -17.0662   18.8695 C   0  0  0  0  0  0  0  0  0  0  0  0
  -27.8735  -17.3509   21.2342 C   0  0  0  0  0  0  0  0  0  0  0  0
  -30.8967  -23.5758   14.8340 C   0  0  0  0  0  0  0  0  0  0  0  0
  -29.6355  -23.0757   17.2641 C   0  0  0  0  0  0  0  0  0  0  0  0
  -25.0160  -23.3205   19.3245 C   0  0  0  0  0  0  0  0  0  0  0  0
  -28.1018  -18.2824   18.6145 C   0  0  0  0  0  0  0  0  0  0  0  0
  -28.5070  -18.5672   20.9792 C   0  0  0  0  0  0  0  0  0  0  0  0
  -24.7057  -22.3795   20.3054 C   0  0  0  0  0  0  0  0  0  0  0  0
  -31.5243  -19.6198   19.8802 C   0  0  0  0  0  0  0  0  0  0  0  0
  -32.7297  -19.8709   20.5357 C   0  0  0  0  0  0  0  0  0  0  0  0
  -25.1510  -24.0230   22.0142 C   0  0  0  0  0  0  0  0  0  0  0  0
  -22.5663  -17.8626   24.4303 C   0  0  0  0  0  0  0  0  0  0  0  0
  -24.4439  -19.9219   24.5584 C   0  0  0  0  0  0  0  0  0  0  0  0
  -31.7579  -21.8239   21.5744 C   0  0  0  0  0  0  0  0  0  0  0  0
  -27.3541  -16.6004   20.1794 C   0  0  0  0  0  0  0  0  0  0  0  0
  -27.0689  -14.0749   19.9600 C   0  0  0  0  0  0  0  0  0  0  0  0
  -30.7854  -24.6098   15.7769 C   0  0  0  0  0  0  0  0  0  0  0  0
  -25.4074  -24.6187   19.6820 C   0  0  0  0  0  0  0  0  0  0  0  0
  -30.1569  -24.3558   17.0110 C   0  0  0  0  0  0  0  0  0  0  0  0
  -25.4634  -24.9792   21.0359 C   0  0  0  0  0  0  0  0  0  0  0  0
  -23.2356  -18.1227   25.6261 C   0  0  0  0  0  0  0  0  0  0  0  0
  -23.7746  -19.6617   23.3625 C   0  0  0  0  0  0  0  0  0  0  0  0
  -28.6211  -19.0329   19.6693 C   0  0  0  0  0  0  0  0  0  0  0  0
  -24.7760  -22.7299   21.6506 C   0  0  0  0  0  0  0  0  0  0  0  0
  -30.4358  -20.4708   20.0717 C   0  0  0  0  0  0  0  0  0  0  0  0
  -32.8465  -20.9729   21.3828 C   0  0  0  0  0  0  0  0  0  0  0  0
  -30.5526  -21.5728   20.9189 C   0  0  0  0  0  0  0  0  0  0  0  0
  -24.1744  -19.1524   25.6902 C   0  0  0  0  0  0  0  0  0  0  0  0
  -22.8359  -18.6320   23.2985 C   0  0  0  0  0  0  0  0  0  0  0  0
  -26.6994  -15.3444   20.4435 C   0  0  0  0  0  0  0  0  0  0  0  0
  -26.1365  -13.2194   20.4941 C   0  0  0  0  0  0  0  0  0  0  0  0
  -28.1577  -13.7023   19.1048 C   0  0  0  0  0  0  0  0  0  0  0  0
  -28.0329  -26.3630   19.2722 C   0  0  0  0  0  0  0  0  0  0  0  0
  -26.2141  -28.7030   20.5906 C   0  0  0  0  0  0  0  0  0  0  0  0
  -23.5599  -29.5443   22.5640 C   0  0  0  0  0  0  0  0  0  0  0  0
  -22.6708  -13.4934   25.3690 C   0  0  0  0  0  0  0  0  0  0  0  0
  -31.4061  -25.9481   15.4633 C   0  0  0  0  0  0  0  0  0  0  0  0
  -25.7131  -25.6298   18.6112 C   0  0  0  0  0  0  0  0  0  0  0  0
  -25.8584  -26.3658   21.4717 C   0  0  0  0  0  0  0  0  0  0  0  0
  -30.9180  -27.0737   16.3716 C   0  0  0  0  0  0  0  0  0  0  0  0
  -21.5963  -13.0949   21.9980 C   0  0  0  0  0  0  0  0  0  0  0  0
  -30.9369  -26.6286   17.8305 C   0  0  0  0  0  0  0  0  0  0  0  0
  -22.8156  -13.5117   21.1737 C   0  0  0  0  0  0  0  0  0  0  0  0
  -21.4515  -13.9427   23.2599 C   0  0  0  0  0  0  0  0  0  0  0  0
  -23.8717  -14.4072   23.2907 C   0  0  0  0  0  0  0  0  0  0  0  0
  -29.9970  -25.4382   18.0564 C   0  0  1  0  0  0  0  0  0  0  0  0
  -26.5971  -26.7719   19.1027 C   0  0  1  0  0  0  0  0  0  0  0  0
  -24.0914  -13.5439   22.0367 C   0  0  2  0  0  0  0  0  0  0  0  0
  -22.3441  -31.5365   23.4862 C   0  0  0  0  0  0  0  0  0  0  0  0
  -24.0264  -16.3198   29.5611 C   0  0  0  0  0  0  0  0  0  0  0  0
  -28.4526  -29.1265   22.6204 C   0  0  0  0  0  0  0  0  0  0  0  0
  -26.8316  -30.4046   24.0371 C   0  0  0  0  0  0  0  0  0  0  0  0
  -27.4150  -31.2319   21.7572 C   0  0  0  0  0  0  0  0  0  0  0  0
  -21.0448  -28.7860   21.2009 C   0  0  0  0  0  0  0  0  0  0  0  0
  -22.9176  -17.2756   26.8157 C   0  0  0  0  0  0  0  0  0  0  0  0
  -24.0931  -20.5112   22.1674 C   0  0  0  0  0  0  0  0  0  1  0  0
  -24.5622  -14.1885   28.3117 C   0  0  0  0  0  0  0  0  0  0  0  0
  -24.0307  -13.0807   27.4035 C   0  0  0  0  0  0  0  0  0  0  0  0
  -25.9481  -29.1866   21.9957 C   0  0  1  0  0  0  0  0  0  0  0  0
  -22.4192  -30.5237   22.3542 C   0  0  2  0  0  0  0  0  0  0  0  0
  -23.7093  -15.4635   28.3416 C   0  0  2  0  0  0  0  0  0  0  0  0
  -27.1562  -29.9606   22.5948 C   0  0  0  0  0  0  0  0  0  0  0  0
  -25.6166  -15.3036   21.2244 N   0  0  0  0  0  0  0  0  0  0  0  0
  -25.2976  -13.9981   21.2357 N   0  0  0  0  0  0  0  0  0  0  0  0
  -26.1539  -27.3170   20.3875 N   0  0  0  0  0  0  0  0  0  0  0  0
  -22.6951  -13.9299   24.0341 N   0  0  0  0  0  0  0  0  0  0  0  0
  -25.9605  -11.8845   20.3968 N   0  0  0  0  0  0  0  0  0  0  0  0
  -29.3833  -13.3619   19.6933 N   0  0  0  0  0  0  0  0  0  0  0  0
  -28.6217  -25.8846   18.1172 N   0  0  0  0  0  0  0  0  0  0  0  0
  -24.7134  -29.9612   21.9340 N   0  0  0  0  0  0  0  0  0  0  0  0
  -23.8936  -13.5068   26.0286 N   0  0  0  0  0  0  0  0  0  0  0  0
  -21.1193  -29.7980   22.2859 N   0  3  0  0  0  0  0  0  0  0  0  0
  -23.9775  -16.2793   27.1281 N   0  3  0  0  0  0  0  0  0  0  0  0
  -28.0518  -13.6881   17.8550 O   0  0  0  0  0  0  0  0  0  0  0  0
  -28.5675  -26.4746   20.3692 O   0  0  0  0  0  0  0  0  0  0  0  0
  -26.4590  -29.5253   19.7043 O   0  0  0  0  0  0  0  0  0  0  0  0
  -23.4407  -28.5144   23.2241 O   0  0  0  0  0  0  0  0  0  0  0  0
  -21.6368  -13.1144   25.9296 O   0  0  0  0  0  0  0  0  0  0  0  0
  -29.2396  -20.2197   19.4208 O   0  0  0  0  0  0  0  0  0  0  0  0
  -24.4742  -21.8132   22.6100 O   0  0  0  0  0  0  0  0  0  1  0  0
  -34.0036  -21.2131   22.0134 F   0  0  0  0  0  0  0  0  0  0  0  0
  -29.5099  -22.3931   21.1078 F   0  0  0  0  0  0  0  0  0  0  0  0
  -25.0205  -19.5037   27.1529 Cl  0  0  0  0  0  0  0  0  0  0  0  0
  -21.9885  -18.2812   21.8362 Cl  0  0  0  0  0  0  0  0  0  0  0  0
  1  2  1  0  0  0  0
  1  5  2  0  0  0  0
  2  6  2  0  0  0  0
  3  8  2  0  0  0  0
  3 17  1  0  0  0  0
  4  9  1  0  0  0  0
  4 17  2  0  0  0  0
  5 19  1  0  0  0  0
  6 21  1  0  0  0  0
  7 10  2  0  0  0  0
  7 20  1  0  0  0  0
  8 25  1  0  0  0  0
  9 25  2  0  0  0  0
 10 26  1  0  0  0  0
 11 12  2  0  0  0  0
 11 27  1  0  0  0  0
 12 28  1  0  0  0  0
 13 22  1  0  0  0  0
 13 26  2  0  0  0  0
 14 23  2  0  0  0  0
 14 31  1  0  0  0  0
 15 24  1  0  0  0  0
 15 30  2  0  0  0  0
 16 28  2  0  0  0  0
 16 29  1  0  0  0  0
 17 32  1  0  0  0  0
 18 32  1  0  0  0  0
 18 33  2  0  0  0  0
 18 34  1  0  0  0  0
 19 21  2  0  0  0  0
 19 39  1  0  0  0  0
 20 22  2  0  0  0  0
 20 40  1  0  0  0  0
 21 48  1  0  0  0  0
 22 41  1  0  0  0  0
 23 30  1  0  0  0  0
 23 57  1  0  0  0  0
 24 31  2  0  0  0  0
 24 58  1  0  0  0  0
 25 81  1  0  0  0  0
 26 82  1  0  0  0  0
 27 29  2  0  0  0  0
 27 81  1  0  0  0  0
 28 83  1  0  0  0  0
 29 84  1  0  0  0  0
 30 85  1  0  0  0  0
 31 86  1  0  0  0  0
 32 65  2  0  0  0  0
 33 66  1  0  0  0  0
 33 69  1  0  0  0  0
 34 70  1  0  0  0  0
 34 76  2  0  0  0  0
 35 49  1  0  0  0  0
 35 71  1  0  0  0  0
 35 77  2  0  0  0  0
 36 61  1  0  0  0  0
 36 67  1  0  0  0  0
 36 78  2  0  0  0  0
 37 62  1  0  0  0  0
 37 72  1  0  0  0  0
 37 79  2  0  0  0  0
 38 68  1  0  0  0  0
 38 73  1  0  0  0  0
 38 80  2  0  0  0  0
 39 42  1  0  0  0  0
 40 49  1  0  0  0  0
 41 67  1  0  0  0  0
 42 44  1  0  0  0  0
 43 45  1  0  0  0  0
 43 46  1  0  0  0  0
 44 48  1  0  0  0  0
 45 50  1  0  0  0  0
 46 68  1  0  0  0  0
 47 50  1  0  0  0  0
 47 68  1  0  0  0  0
 48 71  1  0  0  0  0
 49 67  1  0  0  0  0
 50 66  1  0  0  0  0
 51 62  1  0  0  0  0
 52 63  1  0  0  0  0
 53 64  1  0  0  0  0
 54 64  1  0  0  0  0
 55 64  1  0  0  0  0
 56 74  1  0  0  0  0
 57 75  1  0  0  0  0
 58 82  1  0  0  0  0
 59 60  1  0  0  0  0
 59 63  1  0  0  0  0
 60 73  1  0  0  0  0
 61 64  1  0  0  0  0
 61 72  1  0  0  0  0
 62 74  1  0  0  0  0
 63 75  1  0  0  0  0
 65 66  1  0  0  0  0
M  CHG  2  74   1  75   1
M  ISO  4  38 100  58 101  73 100  82 101
M  END
> <Batch ID>
0023

> <Smiles>
CNC(C)C(=O)NC(C(=O)N1Cc2cc([101O:1][101CH2:1]c3cc(Cl)c(CNC(C)CC[100NH:0][100C:0](=O)N4CCCC(n5nc(-c6ccc(Oc7ccc(F)cc7F)cc6)c(C(N)=O)c5N)C4)cc3Cl)ccc2CC1C(=O)NC1CCCc2ccccc21)C(C)(C)C

> <Shape>
0.214

> <Color>
0.089

> <Negative vol penalty>
0.000

$$$$

  -OEChem-04052316193D

 89 97  0     1  0  0  0  0  0999 V2000
  -31.5974  -25.2097   17.8966 C   0  0  0  0  0  0  0  0  0  0  0  0
  -30.2380  -24.9523   18.0416 C   0  0  0  0  0  0  0  0  0  0  0  0
  -27.2751  -13.8278   18.6993 C   0  0  0  0  0  0  0  0  0  0  0  0
  -27.5834  -13.5930   21.0840 C   0  0  0  0  0  0  0  0  0  0  0  0
  -32.2707  -25.9583   18.8611 C   0  0  0  0  0  0  0  0  0  0  0  0
  -29.5512  -25.4424   19.1518 C   0  0  0  0  0  0  0  0  0  0  0  0
  -23.7454  -27.3833   19.3274 C   0  0  0  0  0  0  0  0  0  0  0  0
  -28.0430  -12.6829   18.4872 C   0  0  0  0  0  0  0  0  0  0  0  0
  -28.3513  -12.4480   20.8720 C   0  0  0  0  0  0  0  0  0  0  0  0
  -22.5619  -26.7664   19.7306 C   0  0  0  0  0  0  0  0  0  0  0  0
  -30.6922   -9.6686   20.9416 C   0  0  0  0  0  0  0  0  0  0  0  0
  -31.8800   -9.5420   21.6617 C   0  0  0  0  0  0  0  0  0  0  0  0
  -22.7779  -27.7870   21.9056 C   0  0  0  0  0  0  0  0  0  0  0  0
  -32.7044  -11.5802   20.6600 C   0  0  0  0  0  0  0  0  0  0  0  0
  -27.0453  -14.2830   19.9977 C   0  0  0  0  0  0  0  0  0  0  0  0
  -24.8590  -15.5328   20.4043 C   0  0  0  0  0  0  0  0  0  0  0  0
  -31.5898  -26.4661   19.9787 C   0  0  0  0  0  0  0  0  0  0  0  0
  -24.4609  -28.1994   20.2154 C   0  0  0  0  0  0  0  0  0  0  0  0
  -30.2163  -26.1974   20.1328 C   0  0  0  0  0  0  0  0  0  0  0  0
  -23.9688  -28.4153   21.5105 C   0  0  0  0  0  0  0  0  0  0  0  0
  -21.5784  -23.9408   25.1270 C   0  0  0  0  0  0  0  0  0  0  0  0
  -20.5788  -24.5354   24.3181 C   0  0  0  0  0  0  0  0  0  0  0  0
  -28.5811  -11.9929   19.5735 C   0  0  0  0  0  0  0  0  0  0  0  0
  -22.0795  -26.9659   21.0208 C   0  0  0  0  0  0  0  0  0  0  0  0
  -30.5104  -10.7509   20.0806 C   0  0  0  0  0  0  0  0  0  0  0  0
  -32.8861  -10.4978   21.5209 C   0  0  0  0  0  0  0  0  0  0  0  0
  -31.5165  -11.7067   19.9398 C   0  0  0  0  0  0  0  0  0  0  0  0
  -26.2527  -15.4660   20.2173 C   0  0  0  0  0  0  0  0  0  0  0  0
  -22.2574  -23.0349   24.3425 C   0  0  0  0  0  0  0  0  0  0  0  0
  -20.6773  -23.9745   23.0638 C   0  0  0  0  0  0  0  0  0  0  0  0
  -24.5987  -16.8711   20.5706 C   0  0  0  0  0  0  0  0  0  0  0  0
  -23.8867  -14.4794   20.4259 C   0  0  0  0  0  0  0  0  0  0  0  0
  -27.3646  -28.1047   21.5050 C   0  0  0  0  0  0  0  0  0  0  0  0
  -26.5256  -31.0209   22.6514 C   0  0  0  0  0  0  0  0  0  0  0  0
  -24.0342  -33.1826   23.5269 C   0  0  0  0  0  0  0  0  0  0  0  0
  -27.9330  -21.4688   22.4665 C   0  0  0  0  0  0  0  0  0  0  0  0
  -32.3702  -27.2300   21.0190 C   0  0  0  0  0  0  0  0  0  0  0  0
  -25.7218  -28.8792   19.7565 C   0  0  0  0  0  0  0  0  0  0  0  0
  -24.6887  -29.2984   22.4954 C   0  0  0  0  0  0  0  0  0  0  0  0
  -31.4896  -28.0303   21.9751 C   0  0  0  0  0  0  0  0  0  0  0  0
  -26.2527  -21.1886   19.3401 C   0  0  0  0  0  0  0  0  0  0  0  0
  -30.3282  -27.1758   22.4729 C   0  0  0  0  0  0  0  0  0  0  0  0
  -25.9364  -19.6963   19.2273 C   0  0  0  0  0  0  0  0  0  0  0  0
  -27.6027  -21.4302   20.0118 C   0  0  0  0  0  0  0  0  0  0  0  0
  -27.4525  -19.2814   21.2092 C   0  0  0  0  0  0  0  0  0  0  0  0
  -29.4313  -26.7329   21.3106 C   0  0  1  0  0  0  0  0  0  0  0  0
  -26.6391  -29.2775   20.9086 C   0  0  1  0  0  0  0  0  0  0  0  0
  -26.0756  -18.9891   20.5888 C   0  0  2  0  0  0  0  0  0  0  0  0
  -21.8464  -24.2369   26.5495 C   0  0  0  0  0  0  0  0  0  0  0  0
  -19.6066  -25.5648   24.7400 C   0  0  0  0  0  0  0  0  0  0  0  0
  -23.6585  -35.4785   24.4677 C   0  0  0  0  0  0  0  0  0  0  0  0
  -27.3052  -23.1222   26.6070 C   0  0  0  0  0  0  0  0  0  0  0  0
  -27.2485  -29.9967   25.4332 C   0  0  0  0  0  0  0  0  0  0  0  0
  -25.9854  -31.9313   26.3976 C   0  0  0  0  0  0  0  0  0  0  0  0
  -27.9832  -32.3401   24.9608 C   0  0  0  0  0  0  0  0  0  0  0  0
  -28.1994  -20.2494   26.0043 C   0  0  0  0  0  0  0  0  0  0  0  0
  -29.6454  -21.9513   24.9056 C   0  0  0  0  0  0  0  0  0  0  0  0
  -22.1271  -22.2542   21.9681 C   0  0  0  0  0  0  0  0  0  0  0  0
  -22.6076  -34.0734   21.0917 C   0  0  0  0  0  0  0  0  0  0  0  0
  -23.3890  -22.1443   24.6776 C   0  0  0  0  0  0  0  0  0  0  0  0
  -19.8662  -24.2309   21.8169 C   0  0  0  0  0  0  0  0  0  0  0  0
  -24.7488  -22.8485   24.7791 C   0  0  0  0  0  0  0  0  0  0  0  0
  -20.6059  -25.1106   20.8148 C   0  0  0  0  0  0  0  0  0  1  0  0
  -25.8394  -31.5222   23.8991 C   0  0  1  0  0  0  0  0  0  0  0  0
  -23.8127  -34.6489   23.2024 C   0  0  2  0  0  0  0  0  0  0  0  0
  -27.1706  -22.4489   25.2413 C   0  0  1  0  0  0  0  0  0  0  0  0
  -26.7514  -31.4293   25.1550 C   0  0  0  0  0  0  0  0  0  0  0  0
  -28.2267  -21.3483   24.9279 C   0  0  0  0  0  0  0  0  0  0  0  0
  -26.8369  -16.6664   20.2605 N   0  0  0  0  0  0  0  0  0  0  0  0
  -21.7008  -23.0636   23.0904 N   0  0  0  0  0  0  0  0  0  0  0  0
  -25.8052  -17.5001   20.4764 N   0  0  0  0  0  0  0  0  0  0  0  0
  -25.9205  -29.9358   22.0015 N   0  0  0  0  0  0  0  0  0  0  0  0
  -27.6692  -20.7339   21.2989 N   0  0  0  0  0  0  0  0  0  0  0  0
  -23.4577  -17.5595   20.7867 N   0  0  0  0  0  0  0  0  0  0  0  0
  -24.3252  -13.1614   20.2387 N   0  0  0  0  0  0  0  0  0  0  0  0
  -28.5706  -27.8192   20.8939 N   0  0  0  0  0  0  0  0  0  0  0  0
  -25.3758  -32.8718   23.5958 N   0  0  0  0  0  0  0  0  0  0  0  0
  -27.9726  -20.7328   23.6444 N   0  0  0  0  0  0  0  0  0  0  0  0
  -22.5829  -34.8169   22.3776 N   0  3  0  0  0  0  0  0  0  0  0  0
  -25.7989  -21.8759   25.1702 N   0  3  0  0  0  0  0  0  0  0  0  0
  -22.6630  -14.7018   20.5895 O   0  0  0  0  0  0  0  0  0  0  0  0
  -26.8678  -27.5042   22.4506 O   0  0  0  0  0  0  0  0  0  0  0  0
  -27.5565  -31.5763   22.2635 O   0  0  0  0  0  0  0  0  0  0  0  0
  -23.1096  -32.3928   23.7054 O   0  0  0  0  0  0  0  0  0  0  0  0
  -28.1142  -22.6911   22.4605 O   0  0  0  0  0  0  0  0  0  0  0  0
  -29.3302  -10.8755   19.3670 O   0  0  0  0  0  0  0  0  0  0  0  0
  -20.9249  -26.3643   21.4170 O   0  0  0  0  0  0  0  0  0  1  0  0
  -34.0262  -10.3770   22.2136 F   0  0  0  0  0  0  0  0  0  0  0  0
  -31.3472  -12.7493   19.1151 F   0  0  0  0  0  0  0  0  0  0  0  0
  1  2  1  0  0  0  0
  1  5  2  0  0  0  0
  2  6  2  0  0  0  0
  3  8  2  0  0  0  0
  3 15  1  0  0  0  0
  4  9  1  0  0  0  0
  4 15  2  0  0  0  0
  5 17  1  0  0  0  0
  6 19  1  0  0  0  0
  7 10  2  0  0  0  0
  7 18  1  0  0  0  0
  8 23  1  0  0  0  0
  9 23  2  0  0  0  0
 10 24  1  0  0  0  0
 11 12  2  0  0  0  0
 11 25  1  0  0  0  0
 12 26  1  0  0  0  0
 13 20  1  0  0  0  0
 13 24  2  0  0  0  0
 14 26  2  0  0  0  0
 14 27  1  0  0  0  0
 15 28  1  0  0  0  0
 16 28  1  0  0  0  0
 16 31  2  0  0  0  0
 16 32  1  0  0  0  0
 17 19  2  0  0  0  0
 17 37  1  0  0  0  0
 18 20  2  0  0  0  0
 18 38  1  0  0  0  0
 19 46  1  0  0  0  0
 20 39  1  0  0  0  0
 21 22  1  0  0  0  0
 21 29  2  0  0  0  0
 21 49  1  0  0  0  0
 22 30  2  0  0  0  0
 22 50  1  0  0  0  0
 23 86  1  0  0  0  0
 24 87  1  0  0  0  0
 25 27  2  0  0  0  0
 25 86  1  0  0  0  0
 26 88  1  0  0  0  0
 27 89  1  0  0  0  0
 28 69  2  0  0  0  0
 29 60  1  0  0  0  0
 29 70  1  0  0  0  0
 30 61  1  0  0  0  0
 30 70  1  0  0  0  0
 31 71  1  0  0  0  0
 31 74  1  0  0  0  0
 32 75  1  0  0  0  0
 32 81  2  0  0  0  0
 33 47  1  0  0  0  0
 33 76  1  0  0  0  0
 33 82  2  0  0  0  0
 34 64  1  0  0  0  0
 34 72  1  0  0  0  0
 34 83  2  0  0  0  0
 35 65  1  0  0  0  0
 35 77  1  0  0  0  0
 35 84  2  0  0  0  0
 36 73  1  0  0  0  0
 36 78  1  0  0  0  0
 36 85  2  0  0  0  0
 37 40  1  0  0  0  0
 38 47  1  0  0  0  0
 39 72  1  0  0  0  0
 40 42  1  0  0  0  0
 41 43  1  0  0  0  0
 41 44  1  0  0  0  0
 42 46  1  0  0  0  0
 43 48  1  0  0  0  0
 44 73  1  0  0  0  0
 45 48  1  0  0  0  0
 45 73  1  0  0  0  0
 46 76  1  0  0  0  0
 47 72  1  0  0  0  0
 48 71  1  0  0  0  0
 51 65  1  0  0  0  0
 52 66  1  0  0  0  0
 53 67  1  0  0  0  0
 54 67  1  0  0  0  0
 55 67  1  0  0  0  0
 56 68  1  0  0  0  0
 57 68  1  0  0  0  0
 58 70  1  0  0  0  0
 59 79  1  0  0  0  0
 60 62  1  0  0  0  0
 61 63  1  0  0  0  0
 62 80  1  0  0  0  0
 63 87  1  0  0  0  0
 64 67  1  0  0  0  0
 64 77  1  0  0  0  0
 65 79  1  0  0  0  0
 66 68  1  0  0  0  0
 66 80  1  0  0  0  0
 68 78  1  0  0  0  0
 69 71  1  0  0  0  0
M  CHG  2  79   1  80   1
M  ISO  4  36 100  63 101  78 100  87 101
M  END
> <Batch ID>
0023

> <Smiles>
CNC(C)C(=O)NC(C(=O)N1Cc2cc([101O:1][101CH2:1]Cc3c(C)c(C)c(CCNC(C)C(C)(C)[100NH:0][100C:0](=O)N4CCCC(n5nc(-c6ccc(Oc7ccc(F)cc7F)cc6)c(C(N)=O)c5N)C4)n3C)ccc2CC1C(=O)NC1CCCc2ccccc21)C(C)(C)C

> <Shape>
0.259

> <Color>
0.061

> <Negative vol penalty>
0.000

$$$$

  -OEChem-04052316193D

 91 99  0     1  0  0  0  0  0999 V2000
  -28.1836  -23.8278   17.9606 C   0  0  0  0  0  0  0  0  0  0  0  0
  -26.9747  -24.1525   18.5676 C   0  0  0  0  0  0  0  0  0  0  0  0
  -24.1328   -9.2533   20.1866 C   0  0  0  0  0  0  0  0  0  0  0  0
  -26.3290   -9.1863   21.1914 C   0  0  0  0  0  0  0  0  0  0  0  0
  -29.3736  -24.3679   18.4466 C   0  0  0  0  0  0  0  0  0  0  0  0
  -26.9551  -25.0168   19.6617 C   0  0  0  0  0  0  0  0  0  0  0  0
  -23.2902  -28.4952   19.3245 C   0  0  0  0  0  0  0  0  0  0  0  0
  -24.0991   -7.8590   20.1672 C   0  0  0  0  0  0  0  0  0  0  0  0
  -26.2953   -7.7920   21.1720 C   0  0  0  0  0  0  0  0  0  0  0  0
  -21.9937  -28.0862   19.6337 C   0  0  0  0  0  0  0  0  0  0  0  0
  -23.5133   -5.3507   22.3577 C   0  0  0  0  0  0  0  0  0  0  0  0
  -22.3412   -4.7247   22.7816 C   0  0  0  0  0  0  0  0  0  0  0  0
  -22.2137  -29.0669   21.8266 C   0  0  0  0  0  0  0  0  0  0  0  0
  -22.6578  -20.9929   23.3467 C   0  0  0  0  0  0  0  0  0  0  0  0
  -22.1093   -3.6892   20.6111 C   0  0  0  0  0  0  0  0  0  0  0  0
  -25.2478   -9.9170   20.6987 C   0  0  0  0  0  0  0  0  0  0  0  0
  -24.8374  -12.2045   21.7505 C   0  0  0  0  0  0  0  0  0  0  0  0
  -29.3676  -25.2468   19.5412 C   0  0  0  0  0  0  0  0  0  0  0  0
  -24.0634  -29.1848   20.2696 C   0  0  0  0  0  0  0  0  0  0  0  0
  -28.1463  -25.5682   20.1637 C   0  0  0  0  0  0  0  0  0  0  0  0
  -23.5188  -29.4859   21.5261 C   0  0  0  0  0  0  0  0  0  0  0  0
  -21.6859  -21.9786   23.5181 C   0  0  0  0  0  0  0  0  0  0  0  0
  -24.0097  -21.3209   23.4495 C   0  0  0  0  0  0  0  0  0  0  0  0
  -22.0660  -23.2925   23.7921 C   0  0  0  0  0  0  0  0  0  0  0  0
  -25.1803   -7.1283   20.6599 C   0  0  0  0  0  0  0  0  0  0  0  0
  -21.4563  -28.3694   20.8859 C   0  0  0  0  0  0  0  0  0  0  0  0
  -23.9834   -5.1461   21.0604 C   0  0  0  0  0  0  0  0  0  0  0  0
  -21.6392   -3.8939   21.9083 C   0  0  0  0  0  0  0  0  0  0  0  0
  -23.2814   -4.3153   20.1871 C   0  0  0  0  0  0  0  0  0  0  0  0
  -24.3897  -22.6347   23.7235 C   0  0  0  0  0  0  0  0  0  0  0  0
  -23.4179  -23.6205   23.8948 C   0  0  0  0  0  0  0  0  0  0  0  0
  -25.2834  -11.3573   20.7185 C   0  0  0  0  0  0  0  0  0  0  0  0
  -25.0892  -13.4726   21.2866 C   0  0  0  0  0  0  0  0  0  0  0  0
  -24.2481  -11.8748   23.0153 C   0  0  0  0  0  0  0  0  0  0  0  0
  -26.8062  -28.6134   21.7710 C   0  0  0  0  0  0  0  0  0  0  0  0
  -26.3816  -31.6341   22.8743 C   0  0  0  0  0  0  0  0  0  0  0  0
  -24.2268  -34.1851   23.5787 C   0  0  0  0  0  0  0  0  0  0  0  0
  -28.4453  -17.1611   18.7813 C   0  0  0  0  0  0  0  0  0  0  0  0
  -30.6840  -25.7684   20.0606 C   0  0  0  0  0  0  0  0  0  0  0  0
  -25.4506  -29.6426   19.9111 C   0  0  0  0  0  0  0  0  0  0  0  0
  -24.3002  -30.2413   22.5687 C   0  0  0  0  0  0  0  0  0  0  0  0
  -30.5389  -26.9710   20.9895 C   0  0  0  0  0  0  0  0  0  0  0  0
  -26.4457  -15.0874   16.6889 C   0  0  0  0  0  0  0  0  0  0  0  0
  -29.4408  -26.7214   22.0184 C   0  0  0  0  0  0  0  0  0  0  0  0
  -25.9337  -13.9992   17.6343 C   0  0  0  0  0  0  0  0  0  0  0  0
  -27.8745  -15.5048   17.0299 C   0  0  0  0  0  0  0  0  0  0  0  0
  -27.5716  -14.8208   19.3781 C   0  0  0  0  0  0  0  0  0  0  0  0
  -28.0816  -26.5215   21.3371 C   0  0  1  0  0  0  0  0  0  0  0  0
  -26.3328  -29.8879   21.1313 C   0  0  1  0  0  0  0  0  0  0  0  0
  -26.1148  -14.4068   19.1088 C   0  0  2  0  0  0  0  0  0  0  0  0
  -20.2458  -21.5984   23.4028 C   0  0  0  0  0  0  0  0  0  0  0  0
  -24.1698  -36.5160   24.5067 C   0  0  0  0  0  0  0  0  0  0  0  0
  -26.7140  -30.5170   25.6941 C   0  0  0  0  0  0  0  0  0  0  0  0
  -25.7224  -32.6398   26.5768 C   0  0  0  0  0  0  0  0  0  0  0  0
  -27.8621  -32.7029   25.2959 C   0  0  0  0  0  0  0  0  0  0  0  0
  -23.1545  -35.2896   21.0511 C   0  0  0  0  0  0  0  0  0  0  0  0
  -24.7408  -20.2614   20.7829 C   0  0  0  0  0  0  0  0  0  0  0  0
  -25.0124  -20.2284   23.2579 C   0  0  0  0  0  0  0  0  0  0  0  0
  -21.0005  -24.3334   23.9719 C   0  0  0  0  0  0  0  0  0  0  0  0
  -27.8201  -19.7136   20.8101 C   0  0  0  0  0  0  0  0  0  0  0  0
  -18.7035  -26.1113   21.4772 C   0  0  0  0  0  0  0  0  0  0  0  0
  -28.9605  -18.7146   20.6468 C   0  0  0  0  0  0  0  0  0  0  0  0
  -26.7672  -19.2309   21.7997 C   0  0  0  0  0  0  0  0  0  0  0  0
  -19.2713  -25.7336   22.8370 C   0  0  0  0  0  0  0  0  0  0  0  0
  -19.7137  -26.7849   20.5565 C   0  0  0  0  0  0  0  0  0  1  0  0
  -25.6973  -32.2488   24.0713 C   0  0  1  0  0  0  0  0  0  0  0  0
  -24.2776  -35.6663   23.2500 C   0  0  2  0  0  0  0  0  0  0  0  0
  -26.4846  -32.0112   25.3908 C   0  0  0  0  0  0  0  0  0  0  0  0
  -25.7808  -12.0303   19.6775 N   0  0  0  0  0  0  0  0  0  0  0  0
  -25.6487  -13.3139   20.0529 N   0  0  0  0  0  0  0  0  0  0  0  0
  -25.6544  -30.6620   22.1728 N   0  0  0  0  0  0  0  0  0  0  0  0
  -27.9779  -15.8807   18.4420 N   0  0  0  0  0  0  0  0  0  0  0  0
  -24.8844  -14.6966   21.8178 N   0  0  0  0  0  0  0  0  0  0  0  0
  -24.0608  -10.5227   23.3329 N   0  0  0  0  0  0  0  0  0  0  0  0
  -27.5305  -27.7948   20.9255 N   0  0  0  0  0  0  0  0  0  0  0  0
  -25.4890  -33.6553   23.7448 N   0  0  0  0  0  0  0  0  0  0  0  0
  -28.5064  -17.4382   20.1415 N   0  0  0  0  0  0  0  0  0  0  0  0
  -23.1580  -36.0330   22.3373 N   0  3  0  0  0  0  0  0  0  0  0  0
  -20.3718  -24.7526   22.6887 N   0  3  0  0  0  0  0  0  0  0  0  0
  -25.7040  -20.2902   21.9424 N   0  3  1  0  0  0  0  0  0  0  0  0
  -23.8831  -12.7537   23.8325 O   0  0  0  0  0  0  0  0  0  0  0  0
  -26.5357  -28.3899   22.9451 O   0  0  0  0  0  0  0  0  0  0  0  0
  -27.5166  -32.0080   22.5685 O   0  0  0  0  0  0  0  0  0  0  0  0
  -23.1729  -33.5614   23.6817 O   0  0  0  0  0  0  0  0  0  0  0  0
  -28.7781  -17.9973   17.9346 O   0  0  0  0  0  0  0  0  0  0  0  0
  -25.1477   -5.7678   20.6413 O   0  0  0  0  0  0  0  0  0  0  0  0
  -20.1913  -27.9707   21.1905 O   0  0  0  0  0  0  0  0  0  1  0  0
  -20.5144   -3.2915   22.3161 F   0  0  0  0  0  0  0  0  0  0  0  0
  -23.7288   -4.1139   18.9401 F   0  0  0  0  0  0  0  0  0  0  0  0
  -26.0805  -23.0095   23.8441 Cl  0  0  0  0  0  0  0  0  0  0  0  0
  -23.8618  -25.2643   24.2369 Cl  0  0  0  0  0  0  0  0  0  0  0  0
  1  2  1  0  0  0  0
  1  5  2  0  0  0  0
  2  6  2  0  0  0  0
  3  8  2  0  0  0  0
  3 16  1  0  0  0  0
  4  9  1  0  0  0  0
  4 16  2  0  0  0  0
  5 18  1  0  0  0  0
  6 20  1  0  0  0  0
  7 10  2  0  0  0  0
  7 19  1  0  0  0  0
  8 25  1  0  0  0  0
  9 25  2  0  0  0  0
 10 26  1  0  0  0  0
 11 12  2  0  0  0  0
 11 27  1  0  0  0  0
 12 28  1  0  0  0  0
 13 21  1  0  0  0  0
 13 26  2  0  0  0  0
 14 22  2  0  0  0  0
 14 23  1  0  0  0  0
 15 28  2  0  0  0  0
 15 29  1  0  0  0  0
 16 32  1  0  0  0  0
 17 32  1  0  0  0  0
 17 33  2  0  0  0  0
 17 34  1  0  0  0  0
 18 20  2  0  0  0  0
 18 39  1  0  0  0  0
 19 21  2  0  0  0  0
 19 40  1  0  0  0  0
 20 48  1  0  0  0  0
 21 41  1  0  0  0  0
 22 24  1  0  0  0  0
 22 51  1  0  0  0  0
 23 30  2  0  0  0  0
 23 58  1  0  0  0  0
 24 31  2  0  0  0  0
 24 59  1  0  0  0  0
 25 86  1  0  0  0  0
 26 87  1  0  0  0  0
 27 29  2  0  0  0  0
 27 86  1  0  0  0  0
 28 88  1  0  0  0  0
 29 89  1  0  0  0  0
 30 31  1  0  0  0  0
 30 90  1  0  0  0  0
 31 91  1  0  0  0  0
 32 69  2  0  0  0  0
 33 70  1  0  0  0  0
 33 73  1  0  0  0  0
 34 74  1  0  0  0  0
 34 81  2  0  0  0  0
 35 49  1  0  0  0  0
 35 75  1  0  0  0  0
 35 82  2  0  0  0  0
 36 66  1  0  0  0  0
 36 71  1  0  0  0  0
 36 83  2  0  0  0  0
 37 67  1  0  0  0  0
 37 76  1  0  0  0  0
 37 84  2  0  0  0  0
 38 72  1  0  0  0  0
 38 77  1  0  0  0  0
 38 85  2  0  0  0  0
 39 42  1  0  0  0  0
 40 49  1  0  0  0  0
 41 71  1  0  0  0  0
 42 44  1  0  0  0  0
 43 45  1  0  0  0  0
 43 46  1  0  0  0  0
 44 48  1  0  0  0  0
 45 50  1  0  0  0  0
 46 72  1  0  0  0  0
 47 50  1  0  0  0  0
 47 72  1  0  0  0  0
 48 75  1  0  0  0  0
 49 71  1  0  0  0  0
 50 70  1  0  0  0  0
 52 67  1  0  0  0  0
 53 68  1  0  0  0  0
 54 68  1  0  0  0  0
 55 68  1  0  0  0  0
 56 78  1  0  0  0  0
 57 80  1  0  0  0  0
 58 80  1  0  0  0  0
 59 79  1  0  0  0  0
 60 62  1  0  0  0  0
 60 63  1  0  0  0  0
 61 64  1  0  0  0  0
 61 65  1  0  0  0  0
 62 77  1  0  0  0  0
 63 80  1  0  0  0  0
 64 79  1  0  0  0  0
 65 87  1  0  0  0  0
 66 68  1  0  0  0  0
 66 76  1  0  0  0  0
 67 78  1  0  0  0  0
 69 70  1  0  0  0  0
M  CHG  3  78   1  79   1  80   1
M  ISO  4  38 100  65 101  77 100  87 101
M  END
> <Batch ID>
0023

> <Smiles>
CNC(C)C(=O)NC(C(=O)N1Cc2cc([101O:1][101CH2:1]CCNCc3c(C)cc(CN(C)CCC[100NH:0][100C:0](=O)N4CCCC(n5nc(-c6ccc(Oc7ccc(F)cc7F)cc6)c(C(N)=O)c5N)C4)c(Cl)c3Cl)ccc2CC1C(=O)NC1CCCc2ccccc21)C(C)(C)C

> <Shape>
0.284

> <Color>
0.072

> <Negative vol penalty>
0.000

$$$$

  -OEChem-04052316193D

 83 91  0     1  0  0  0  0  0999 V2000
  -16.8281  -31.1982   21.5222 C   0  0  0  0  0  0  0  0  0  0  0  0
  -18.0455  -31.5282   20.9353 C   0  0  0  0  0  0  0  0  0  0  0  0
  -26.2782  -12.9120   21.3303 C   0  0  0  0  0  0  0  0  0  0  0  0
  -26.1417  -13.2132   18.9371 C   0  0  0  0  0  0  0  0  0  0  0  0
  -16.8011  -30.4144   22.6750 C   0  0  0  0  0  0  0  0  0  0  0  0
  -19.2367  -31.0755   21.5014 C   0  0  0  0  0  0  0  0  0  0  0  0
  -25.8408  -28.9804   19.6814 C   0  0  0  0  0  0  0  0  0  0  0  0
  -25.0649  -12.2242   21.3130 C   0  0  0  0  0  0  0  0  0  0  0  0
  -24.9284  -12.5253   18.9197 C   0  0  0  0  0  0  0  0  0  0  0  0
  -27.1759  -29.2423   19.9855 C   0  0  0  0  0  0  0  0  0  0  0  0
  -23.9715   -9.1212   20.5326 C   0  0  0  0  0  0  0  0  0  0  0  0
  -23.8855   -7.9397   21.2689 C   0  0  0  0  0  0  0  0  0  0  0  0
  -27.0035  -27.8286   21.9325 C   0  0  0  0  0  0  0  0  0  0  0  0
  -29.8192  -26.2767   19.1927 C   0  0  0  0  0  0  0  0  0  0  0  0
  -32.0472  -25.4577   19.6424 C   0  0  0  0  0  0  0  0  0  0  0  0
  -22.0967   -8.8903   22.5855 C   0  0  0  0  0  0  0  0  0  0  0  0
  -26.8166  -13.4066   20.1424 C   0  0  0  0  0  0  0  0  0  0  0  0
  -29.3592  -13.5713   20.0173 C   0  0  0  0  0  0  0  0  0  0  0  0
  -17.9921  -29.9438   23.2501 C   0  0  0  0  0  0  0  0  0  0  0  0
  -25.0725  -28.1480   20.5080 C   0  0  0  0  0  0  0  0  0  0  0  0
  -19.2256  -30.2858   22.6637 C   0  0  0  0  0  0  0  0  0  0  0  0
  -25.6595  -27.5557   21.6353 C   0  0  0  0  0  0  0  0  0  0  0  0
  -31.1124  -26.4926   19.6689 C   0  0  0  0  0  0  0  0  0  0  0  0
  -30.3956  -23.9909   18.6636 C   0  0  0  0  0  0  0  0  0  0  0  0
  -24.3900  -12.0308   20.1077 C   0  0  0  0  0  0  0  0  0  0  0  0
  -27.7567  -28.6687   21.1128 C   0  0  0  0  0  0  0  0  0  0  0  0
  -23.1201  -10.1874   20.8228 C   0  0  0  0  0  0  0  0  0  0  0  0
  -22.9481   -7.8242   22.2953 C   0  0  0  0  0  0  0  0  0  0  0  0
  -22.1827  -10.0719   21.8492 C   0  0  0  0  0  0  0  0  0  0  0  0
  -29.4608  -25.0259   18.6901 C   0  0  0  0  0  0  0  0  0  0  0  0
  -31.6888  -24.2068   19.1398 C   0  0  0  0  0  0  0  0  0  0  0  0
  -28.0697  -14.1177   20.1597 C   0  0  0  0  0  0  0  0  0  0  0  0
  -30.2018  -14.6525   20.1045 C   0  0  0  0  0  0  0  0  0  0  0  0
  -29.7597  -12.2083   19.8234 C   0  0  0  0  0  0  0  0  0  0  0  0
  -22.4550  -28.5341   22.2696 C   0  0  0  0  0  0  0  0  0  0  0  0
  -22.7319  -25.3287   22.6831 C   0  0  0  0  0  0  0  0  0  0  0  0
  -24.7437  -22.5721   22.6947 C   0  0  0  0  0  0  0  0  0  0  0  0
  -29.3903  -20.3776   18.9128 C   0  0  0  0  0  0  0  0  0  0  0  0
  -17.9149  -29.1390   24.5233 C   0  0  0  0  0  0  0  0  0  0  0  0
  -23.6411  -27.8541   20.1514 C   0  0  0  0  0  0  0  0  0  0  0  0
  -24.8836  -26.6386   22.5438 C   0  0  0  0  0  0  0  0  0  0  0  0
  -19.2032  -28.3870   24.8475 C   0  0  0  0  0  0  0  0  0  0  0  0
  -30.5162  -19.0064   22.0671 C   0  0  0  0  0  0  0  0  0  0  0  0
  -20.4119  -29.3025   24.6815 C   0  0  0  0  0  0  0  0  0  0  0  0
  -30.1326  -17.5336   21.9128 C   0  0  0  0  0  0  0  0  0  0  0  0
  -29.4680  -19.9195   21.4381 C   0  0  0  0  0  0  0  0  0  0  0  0
  -28.7973  -18.1603   19.8478 C   0  0  0  0  0  0  0  0  0  0  0  0
  -20.5379  -29.7931   23.2341 C   0  0  1  0  0  0  0  0  0  0  0  0
  -22.8083  -27.4020   21.3470 C   0  0  1  0  0  0  0  0  0  0  0  0
  -29.8285  -17.1848   20.4437 C   0  0  2  0  0  0  0  0  0  0  0  0
  -24.6916  -20.0971   23.1060 C   0  0  0  0  0  0  0  0  0  0  0  0
  -22.6205  -25.8331   25.6902 C   0  0  0  0  0  0  0  0  0  0  0  0
  -23.5112  -23.5197   26.0409 C   0  0  0  0  0  0  0  0  0  0  0  0
  -21.3092  -23.8493   24.9159 C   0  0  0  0  0  0  0  0  0  0  0  0
  -25.6082  -21.9769   19.9276 C   0  0  0  0  0  0  0  0  0  0  0  0
  -31.4996  -27.8445   20.2128 C   0  0  0  0  0  0  0  0  0  0  0  0
  -30.0105  -22.6471   18.1243 C   0  0  0  0  0  0  0  0  0  0  0  0
  -31.2524  -27.9979   21.7151 C   0  0  0  0  0  0  0  0  0  0  0  0
  -29.7802  -27.9000   22.0979 C   0  0  0  0  0  0  0  0  0  1  0  0
  -23.4339  -24.4357   23.6774 C   0  0  1  0  0  0  0  0  0  0  0  0
  -24.5768  -21.2006   22.0658 C   0  0  2  0  0  0  0  0  0  0  0  0
  -22.7330  -24.4283   25.0653 C   0  0  0  0  0  0  0  0  0  0  0  0
  -28.0866  -15.4430   20.3250 N   0  0  0  0  0  0  0  0  0  0  0  0
  -29.3970  -15.7384   20.2871 N   0  0  0  0  0  0  0  0  0  0  0  0
  -23.4857  -26.3871   22.1564 N   0  0  0  0  0  0  0  0  0  0  0  0
  -29.2387  -19.5464   20.0351 N   0  0  0  0  0  0  0  0  0  0  0  0
  -31.5451  -14.7707   20.0420 N   0  0  0  0  0  0  0  0  0  0  0  0
  -28.7654  -11.2228   19.7568 N   0  0  0  0  0  0  0  0  0  0  0  0
  -21.0967  -28.7546   22.3953 N   0  0  0  0  0  0  0  0  0  0  0  0
  -23.5302  -23.1223   23.0496 N   0  0  0  0  0  0  0  0  0  0  0  0
  -29.8047  -21.6773   19.1770 N   0  0  0  0  0  0  0  0  0  0  0  0
  -25.6208  -20.9769   21.0261 N   0  3  0  0  0  0  0  0  0  0  0  0
  -30.9645  -11.8721   19.7289 O   0  0  0  0  0  0  0  0  0  0  0  0
  -23.3486  -29.1603   22.8273 O   0  0  0  0  0  0  0  0  0  0  0  0
  -21.5601  -25.0916   22.3793 O   0  0  0  0  0  0  0  0  0  0  0  0
  -25.8411  -23.1007   22.8585 O   0  0  0  0  0  0  0  0  0  0  0  0
  -29.1774  -19.9886   17.7594 O   0  0  0  0  0  0  0  0  0  0  0  0
  -23.2061  -11.3595   20.0903 O   0  0  0  0  0  0  0  0  0  0  0  0
  -29.0596  -28.9231   21.4122 O   0  0  0  0  0  0  0  0  0  1  0  0
  -22.8647   -6.6889   23.0013 F   0  0  0  0  0  0  0  0  0  0  0  0
  -21.3612  -11.0922   22.1318 F   0  0  0  0  0  0  0  0  0  0  0  0
  -27.8492  -24.8020   18.1113 Cl  0  0  0  0  0  0  0  0  0  0  0  0
  -32.8769  -22.9535   19.1264 Cl  0  0  0  0  0  0  0  0  0  0  0  0
  1  2  1  0  0  0  0
  1  5  2  0  0  0  0
  2  6  2  0  0  0  0
  3  8  2  0  0  0  0
  3 17  1  0  0  0  0
  4  9  1  0  0  0  0
  4 17  2  0  0  0  0
  5 19  1  0  0  0  0
  6 21  1  0  0  0  0
  7 10  2  0  0  0  0
  7 20  1  0  0  0  0
  8 25  1  0  0  0  0
  9 25  2  0  0  0  0
 10 26  1  0  0  0  0
 11 12  2  0  0  0  0
 11 27  1  0  0  0  0
 12 28  1  0  0  0  0
 13 22  1  0  0  0  0
 13 26  2  0  0  0  0
 14 23  1  0  0  0  0
 14 30  2  0  0  0  0
 15 23  2  0  0  0  0
 15 31  1  0  0  0  0
 16 28  2  0  0  0  0
 16 29  1  0  0  0  0
 17 32  1  0  0  0  0
 18 32  1  0  0  0  0
 18 33  2  0  0  0  0
 18 34  1  0  0  0  0
 19 21  2  0  0  0  0
 19 39  1  0  0  0  0
 20 22  2  0  0  0  0
 20 40  1  0  0  0  0
 21 48  1  0  0  0  0
 22 41  1  0  0  0  0
 23 56  1  0  0  0  0
 24 30  1  0  0  0  0
 24 31  2  0  0  0  0
 24 57  1  0  0  0  0
 25 78  1  0  0  0  0
 26 79  1  0  0  0  0
 27 29  2  0  0  0  0
 27 78  1  0  0  0  0
 28 80  1  0  0  0  0
 29 81  1  0  0  0  0
 30 82  1  0  0  0  0
 31 83  1  0  0  0  0
 32 63  2  0  0  0  0
 33 64  1  0  0  0  0
 33 67  1  0  0  0  0
 34 68  1  0  0  0  0
 34 73  2  0  0  0  0
 35 49  1  0  0  0  0
 35 69  1  0  0  0  0
 35 74  2  0  0  0  0
 36 60  1  0  0  0  0
 36 65  1  0  0  0  0
 36 75  2  0  0  0  0
 37 61  1  0  0  0  0
 37 70  1  0  0  0  0
 37 76  2  0  0  0  0
 38 66  1  0  0  0  0
 38 71  1  0  0  0  0
 38 77  2  0  0  0  0
 39 42  1  0  0  0  0
 40 49  1  0  0  0  0
 41 65  1  0  0  0  0
 42 44  1  0  0  0  0
 43 45  1  0  0  0  0
 43 46  1  0  0  0  0
 44 48  1  0  0  0  0
 45 50  1  0  0  0  0
 46 66  1  0  0  0  0
 47 50  1  0  0  0  0
 47 66  1  0  0  0  0
 48 69  1  0  0  0  0
 49 65  1  0  0  0  0
 50 64  1  0  0  0  0
 51 61  1  0  0  0  0
 52 62  1  0  0  0  0
 53 62  1  0  0  0  0
 54 62  1  0  0  0  0
 55 72  1  0  0  0  0
 56 58  1  0  0  0  0
 57 71  1  0  0  0  0
 58 59  1  0  0  0  0
 59 79  1  0  0  0  0
 60 62  1  0  0  0  0
 60 70  1  0  0  0  0
 61 72  1  0  0  0  0
 63 64  1  0  0  0  0
M  CHG  1  72   1
M  ISO  4  38 100  59 101  71 100  79 101
M  END
> <Batch ID>
0023

> <Smiles>
CNC(C)C(=O)NC(C(=O)N1Cc2cc([101O:1][101CH2:1]CCc3cc(Cl)c(C[100NH:0][100C:0](=O)N4CCCC(n5nc(-c6ccc(Oc7ccc(F)cc7F)cc6)c(C(N)=O)c5N)C4)c(Cl)c3)ccc2CC1C(=O)NC1CCCc2ccccc21)C(C)(C)C

> <Shape>
0.291

> <Color>
0.090

> <Negative vol penalty>
0.000

$$$$

  -OEChem-04052316193D

 83 91  0     1  0  0  0  0  0999 V2000
  -31.5454  -33.5952   22.3647 C   0  0  0  0  0  0  0  0  0  0  0  0
  -31.1919  -32.6231   21.4344 C   0  0  0  0  0  0  0  0  0  0  0  0
  -23.8660   -9.9412   22.1316 C   0  0  0  0  0  0  0  0  0  0  0  0
  -22.3944  -10.4765   20.2917 C   0  0  0  0  0  0  0  0  0  0  0  0
  -30.9517  -33.5997   23.6263 C   0  0  0  0  0  0  0  0  0  0  0  0
  -30.2453  -31.6543   21.7655 C   0  0  0  0  0  0  0  0  0  0  0  0
  -26.1234  -29.1039   18.0224 C   0  0  0  0  0  0  0  0  0  0  0  0
  -23.3472   -8.6470   22.1701 C   0  0  0  0  0  0  0  0  0  0  0  0
  -21.8757   -9.1822   20.3301 C   0  0  0  0  0  0  0  0  0  0  0  0
  -26.1074  -27.8940   17.3297 C   0  0  0  0  0  0  0  0  0  0  0  0
  -22.1549   -5.3102   22.9870 C   0  0  0  0  0  0  0  0  0  0  0  0
  -21.8343   -4.7751   24.2346 C   0  0  0  0  0  0  0  0  0  0  0  0
  -24.8334  -26.8941   19.1175 C   0  0  0  0  0  0  0  0  0  0  0  0
  -22.4857  -21.0741   19.5039 C   0  0  0  0  0  0  0  0  0  0  0  0
  -20.2583   -6.5696   24.5993 C   0  0  0  0  0  0  0  0  0  0  0  0
  -23.3895  -10.8560   21.1925 C   0  0  0  0  0  0  0  0  0  0  0  0
  -25.0266  -12.6460   20.4028 C   0  0  0  0  0  0  0  0  0  0  0  0
  -29.9903  -32.6362   23.9696 C   0  0  0  0  0  0  0  0  0  0  0  0
  -25.5028  -29.2151   19.2750 C   0  0  0  0  0  0  0  0  0  0  0  0
  -29.6392  -31.6451   23.0333 C   0  0  0  0  0  0  0  0  0  0  0  0
  -24.8407  -28.1072   19.8229 C   0  0  0  0  0  0  0  0  0  0  0  0
  -22.3509  -22.0547   18.5212 C   0  0  0  0  0  0  0  0  0  0  0  0
  -23.8538  -20.8227   17.0857 C   0  0  0  0  0  0  0  0  0  0  0  0
  -23.0349  -21.9290   17.3120 C   0  0  0  0  0  0  0  0  0  0  0  0
  -23.9886  -19.8421   18.0685 C   0  0  0  0  0  0  0  0  0  0  0  0
  -23.3047  -19.9678   19.2777 C   0  0  0  0  0  0  0  0  0  0  0  0
  -22.3521   -8.2675   21.2693 C   0  0  0  0  0  0  0  0  0  0  0  0
  -25.4648  -26.7882   17.8785 C   0  0  0  0  0  0  0  0  0  0  0  0
  -21.5272   -6.4750   22.5455 C   0  0  0  0  0  0  0  0  0  0  0  0
  -20.8860   -5.4047   25.0408 C   0  0  0  0  0  0  0  0  0  0  0  0
  -20.5789   -7.1047   23.3517 C   0  0  0  0  0  0  0  0  0  0  0  0
  -23.9246  -12.1933   21.1527 C   0  0  0  0  0  0  0  0  0  0  0  0
  -25.1261  -13.9809   20.7104 C   0  0  0  0  0  0  0  0  0  0  0  0
  -25.8836  -11.9244   19.5080 C   0  0  0  0  0  0  0  0  0  0  0  0
  -26.4977  -29.8780   22.2202 C   0  0  0  0  0  0  0  0  0  0  0  0
  -23.3234  -29.8233   22.8858 C   0  0  0  0  0  0  0  0  0  0  0  0
  -20.2055  -28.7194   22.0450 C   0  0  0  0  0  0  0  0  0  0  0  0
  -22.8069  -18.9747   21.5387 C   0  0  0  0  0  0  0  0  0  0  0  0
  -29.4108  -32.6531   25.3620 C   0  0  0  0  0  0  0  0  0  0  0  0
  -25.5060  -30.5345   19.9973 C   0  0  0  0  0  0  0  0  0  0  0  0
  -24.1421  -28.1800   21.1552 C   0  0  0  0  0  0  0  0  0  0  0  0
  -28.1416  -31.8168   25.5036 C   0  0  0  0  0  0  0  0  0  0  0  0
  -22.8214  -16.7167   24.2916 C   0  0  0  0  0  0  0  0  0  0  0  0
  -28.3261  -30.4514   24.8489 C   0  0  0  0  0  0  0  0  0  0  0  0
  -23.2004  -15.3758   23.6587 C   0  0  0  0  0  0  0  0  0  0  0  0
  -21.9271  -17.5456   23.3714 C   0  0  0  0  0  0  0  0  0  0  0  0
  -22.8296  -16.4075   21.3816 C   0  0  0  0  0  0  0  0  0  0  0  0
  -28.5983  -30.5922   23.3464 C   0  0  1  0  0  0  0  0  0  0  0  0
  -25.2840  -30.3935   21.5000 C   0  0  1  0  0  0  0  0  0  0  0  0
  -23.7832  -15.5649   22.2444 C   0  0  2  0  0  0  0  0  0  0  0  0
  -21.4707  -23.2313   18.7900 C   0  0  0  0  0  0  0  0  0  0  0  0
  -24.5874  -20.6885   15.7884 C   0  0  0  0  0  0  0  0  0  0  0  0
  -24.8694  -18.6567   17.8240 C   0  0  0  0  0  0  0  0  0  0  0  0
  -17.8141  -28.8083   22.8004 C   0  0  0  0  0  0  0  0  0  0  0  0
  -23.9480  -27.8099   25.0917 C   0  0  0  0  0  0  0  0  0  0  0  0
  -21.5126  -27.2332   25.1589 C   0  0  0  0  0  0  0  0  0  0  0  0
  -22.2602  -29.5477   25.7128 C   0  0  0  0  0  0  0  0  0  0  0  0
  -19.3415  -30.0358   19.5391 C   0  0  0  0  0  0  0  0  0  0  0  0
  -22.8878  -22.9915   16.2523 C   0  0  0  0  0  0  0  0  0  0  0  0
  -24.0912  -23.9313   16.1511 C   0  0  0  0  0  0  0  0  0  0  0  0
  -24.3211  -24.7558   17.4124 C   0  0  0  0  0  0  0  0  0  1  0  0
  -22.3384  -28.7613   23.3112 C   0  0  1  0  0  0  0  0  0  0  0  0
  -18.8787  -29.4466   21.9218 C   0  0  2  0  0  0  0  0  0  0  0  0
  -22.5295  -28.3358   24.7944 C   0  0  0  0  0  0  0  0  0  0  0  0
  -23.3642  -13.1619   21.8820 N   0  0  0  0  0  0  0  0  0  0  0  0
  -24.1172  -14.2365   21.5918 N   0  0  0  0  0  0  0  0  0  0  0  0
  -24.1784  -29.4902   21.8257 N   0  0  0  0  0  0  0  0  0  0  0  0
  -22.5453  -17.6864   22.0512 N   0  0  0  0  0  0  0  0  0  0  0  0
  -25.9774  -14.9491   20.3102 N   0  0  0  0  0  0  0  0  0  0  0  0
  -25.6407  -10.5589   19.3060 N   0  0  0  0  0  0  0  0  0  0  0  0
  -23.4265  -18.9833   20.2894 N   0  0  0  0  0  0  0  0  0  0  0  0
  -27.3691  -30.8675   22.6338 N   0  0  0  0  0  0  0  0  0  0  0  0
  -21.0127  -29.2888   23.0070 N   0  0  0  0  0  0  0  0  0  0  0  0
  -18.4018  -29.4187   20.5102 N   0  3  0  0  0  0  0  0  0  0  0  0
  -26.8465  -12.4705   18.9182 O   0  0  0  0  0  0  0  0  0  0  0  0
  -26.6329  -28.6718   22.3896 O   0  0  0  0  0  0  0  0  0  0  0  0
  -23.3290  -30.9109   23.4677 O   0  0  0  0  0  0  0  0  0  0  0  0
  -20.4953  -27.7415   21.3591 O   0  0  0  0  0  0  0  0  0  0  0  0
  -22.5284  -19.9948   22.1741 O   0  0  0  0  0  0  0  0  0  0  0  0
  -21.8459   -7.0046   21.3063 O   0  0  0  0  0  0  0  0  0  0  0  0
  -25.4483  -25.6059   17.2048 O   0  0  0  0  0  0  0  0  0  1  0  0
  -20.5772   -4.8899   26.2381 F   0  0  0  0  0  0  0  0  0  0  0  0
  -19.9716   -8.2233   22.9325 F   0  0  0  0  0  0  0  0  0  0  0  0
  1  2  1  0  0  0  0
  1  5  2  0  0  0  0
  2  6  2  0  0  0  0
  3  8  2  0  0  0  0
  3 16  1  0  0  0  0
  4  9  1  0  0  0  0
  4 16  2  0  0  0  0
  5 18  1  0  0  0  0
  6 20  1  0  0  0  0
  7 10  2  0  0  0  0
  7 19  1  0  0  0  0
  8 27  1  0  0  0  0
  9 27  2  0  0  0  0
 10 28  1  0  0  0  0
 11 12  2  0  0  0  0
 11 29  1  0  0  0  0
 12 30  1  0  0  0  0
 13 21  1  0  0  0  0
 13 28  2  0  0  0  0
 14 22  2  0  0  0  0
 14 26  1  0  0  0  0
 15 30  2  0  0  0  0
 15 31  1  0  0  0  0
 16 32  1  0  0  0  0
 17 32  1  0  0  0  0
 17 33  2  0  0  0  0
 17 34  1  0  0  0  0
 18 20  2  0  0  0  0
 18 39  1  0  0  0  0
 19 21  2  0  0  0  0
 19 40  1  0  0  0  0
 20 48  1  0  0  0  0
 21 41  1  0  0  0  0
 22 24  1  0  0  0  0
 22 51  1  0  0  0  0
 23 24  2  0  0  0  0
 23 25  1  0  0  0  0
 23 52  1  0  0  0  0
 24 59  1  0  0  0  0
 25 26  2  0  0  0  0
 25 53  1  0  0  0  0
 26 71  1  0  0  0  0
 27 80  1  0  0  0  0
 28 81  1  0  0  0  0
 29 31  2  0  0  0  0
 29 80  1  0  0  0  0
 30 82  1  0  0  0  0
 31 83  1  0  0  0  0
 32 65  2  0  0  0  0
 33 66  1  0  0  0  0
 33 69  1  0  0  0  0
 34 70  1  0  0  0  0
 34 75  2  0  0  0  0
 35 49  1  0  0  0  0
 35 72  1  0  0  0  0
 35 76  2  0  0  0  0
 36 62  1  0  0  0  0
 36 67  1  0  0  0  0
 36 77  2  0  0  0  0
 37 63  1  0  0  0  0
 37 73  1  0  0  0  0
 37 78  2  0  0  0  0
 38 68  1  0  0  0  0
 38 71  1  0  0  0  0
 38 79  2  0  0  0  0
 39 42  1  0  0  0  0
 40 49  1  0  0  0  0
 41 67  1  0  0  0  0
 42 44  1  0  0  0  0
 43 45  1  0  0  0  0
 43 46  1  0  0  0  0
 44 48  1  0  0  0  0
 45 50  1  0  0  0  0
 46 68  1  0  0  0  0
 47 50  1  0  0  0  0
 47 68  1  0  0  0  0
 48 72  1  0  0  0  0
 49 67  1  0  0  0  0
 50 66  1  0  0  0  0
 54 63  1  0  0  0  0
 55 64  1  0  0  0  0
 56 64  1  0  0  0  0
 57 64  1  0  0  0  0
 58 74  1  0  0  0  0
 59 60  1  0  0  0  0
 60 61  1  0  0  0  0
 61 81  1  0  0  0  0
 62 64  1  0  0  0  0
 62 73  1  0  0  0  0
 63 74  1  0  0  0  0
 65 66  1  0  0  0  0
M  CHG  1  74   1
M  ISO  4  38 100  61 101  71 100  81 101
M  END
> <Batch ID>
0023

> <Smiles>
CNC(C)C(=O)NC(C(=O)N1Cc2cc([101O:1][101CH2:1]CCc3c(C)cc([100NH:0][100C:0](=O)N4CCCC(n5nc(-c6ccc(Oc7ccc(F)cc7F)cc6)c(C(N)=O)c5N)C4)c(C)c3C)ccc2CC1C(=O)NC1CCCc2ccccc21)C(C)(C)C

> <Shape>
0.221

> <Color>
0.106

> <Negative vol penalty>
0.000

$$$$

  -OEChem-04052316193D

 94102  0     1  0  0  0  0  0999 V2000
  -29.2070  -22.7675   20.3305 C   0  0  0  0  0  0  0  0  0  0  0  0
  -28.0008  -23.4259   20.1136 C   0  0  0  0  0  0  0  0  0  0  0  0
  -22.9734   -9.9418   20.2775 C   0  0  0  0  0  0  0  0  0  0  0  0
  -24.3841   -9.1718   22.0815 C   0  0  0  0  0  0  0  0  0  0  0  0
  -30.0676  -23.2049   21.3365 C   0  0  0  0  0  0  0  0  0  0  0  0
  -27.6540  -24.5215   20.9035 C   0  0  0  0  0  0  0  0  0  0  0  0
  -24.5300  -29.4865   19.1442 C   0  0  0  0  0  0  0  0  0  0  0  0
  -22.3555   -8.6923   20.2274 C   0  0  0  0  0  0  0  0  0  0  0  0
  -23.7662   -7.9223   22.0314 C   0  0  0  0  0  0  0  0  0  0  0  0
  -23.1886  -29.8446   19.2714 C   0  0  0  0  0  0  0  0  0  0  0  0
  -22.3125   -4.6424   22.6208 C   0  0  0  0  0  0  0  0  0  0  0  0
  -21.9418   -4.0525   23.8291 C   0  0  0  0  0  0  0  0  0  0  0  0
  -23.7199  -31.1061   21.2577 C   0  0  0  0  0  0  0  0  0  0  0  0
  -20.5068   -5.9362   24.3084 C   0  0  0  0  0  0  0  0  0  0  0  0
  -23.9878  -10.1816   21.2045 C   0  0  0  0  0  0  0  0  0  0  0  0
  -24.2406  -12.5813   22.0322 C   0  0  0  0  0  0  0  0  0  0  0  0
  -29.7356  -24.3124   22.1327 C   0  0  0  0  0  0  0  0  0  0  0  0
  -25.4762  -29.9274   20.0805 C   0  0  0  0  0  0  0  0  0  0  0  0
  -28.5103  -24.9733   21.9219 C   0  0  0  0  0  0  0  0  0  0  0  0
  -25.0732  -30.7544   21.1387 C   0  0  0  0  0  0  0  0  0  0  0  0
  -21.0601  -27.0250   23.9594 C   0  0  0  0  0  0  0  0  0  0  0  0
  -20.6835  -28.3384   23.7014 C   0  0  0  0  0  0  0  0  0  0  0  0
  -20.6154  -26.0039   23.1271 C   0  0  0  0  0  0  0  0  0  0  0  0
  -22.7519   -7.6826   21.1043 C   0  0  0  0  0  0  0  0  0  0  0  0
  -22.7829  -30.6521   20.3299 C   0  0  0  0  0  0  0  0  0  0  0  0
  -21.7805   -5.8793   22.2562 C   0  0  0  0  0  0  0  0  0  0  0  0
  -21.0389   -4.6994   24.6730 C   0  0  0  0  0  0  0  0  0  0  0  0
  -20.8776   -6.5261   23.1001 C   0  0  0  0  0  0  0  0  0  0  0  0
  -24.6269  -11.4719   21.2564 C   0  0  0  0  0  0  0  0  0  0  0  0
  -19.8674  -28.5760   22.6073 C   0  0  0  0  0  0  0  0  0  0  0  0
  -19.8021  -26.3460   22.0587 C   0  0  0  0  0  0  0  0  0  0  0  0
  -25.1629  -13.5520   21.7264 C   0  0  0  0  0  0  0  0  0  0  0  0
  -23.1460  -12.7217   22.9476 C   0  0  0  0  0  0  0  0  0  0  0  0
  -27.4211  -28.4968   22.1480 C   0  0  0  0  0  0  0  0  0  0  0  0
  -28.5255  -31.5133   22.5993 C   0  0  0  0  0  0  0  0  0  0  0  0
  -27.9379  -34.8704   22.4230 C   0  0  0  0  0  0  0  0  0  0  0  0
  -30.4364  -15.1473   20.8368 C   0  0  0  0  0  0  0  0  0  0  0  0
  -30.6763  -24.7192   23.2391 C   0  0  0  0  0  0  0  0  0  0  0  0
  -26.9238  -29.5543   19.9141 C   0  0  0  0  0  0  0  0  0  0  0  0
  -26.0531  -31.2708   22.1592 C   0  0  0  0  0  0  0  0  0  0  0  0
  -30.4054  -26.1187   23.7852 C   0  0  0  0  0  0  0  0  0  0  0  0
  -28.6726  -13.7293   18.0881 C   0  0  0  0  0  0  0  0  0  0  0  0
  -28.9141  -26.3126   24.0407 C   0  0  0  0  0  0  0  0  0  0  0  0
  -27.4349  -13.1021   18.7321 C   0  0  0  0  0  0  0  0  0  0  0  0
  -29.9035  -13.5943   18.9819 C   0  0  0  0  0  0  0  0  0  0  0  0
  -28.4928  -13.4762   20.9992 C   0  0  0  0  0  0  0  0  0  0  0  0
  -28.1101  -26.1808   22.7415 C   0  0  1  0  0  0  0  0  0  0  0  0
  -27.7157  -29.6375   21.2154 C   0  0  1  0  0  0  0  0  0  0  0  0
  -27.2137  -13.6369   20.1598 C   0  0  2  0  0  0  0  0  0  0  0  0
  -21.9401  -26.7131   25.1277 C   0  0  0  0  0  0  0  0  0  0  0  0
  -21.1442  -29.4561   24.5758 C   0  0  0  0  0  0  0  0  0  0  0  0
  -29.0160  -37.0865   22.8961 C   0  0  0  0  0  0  0  0  0  0  0  0
  -28.0325  -31.1133   25.5838 C   0  0  0  0  0  0  0  0  0  0  0  0
  -28.2077  -33.5938   25.8742 C   0  0  0  0  0  0  0  0  0  0  0  0
  -30.1639  -32.2977   25.0281 C   0  0  0  0  0  0  0  0  0  0  0  0
  -27.7701  -35.6891   19.5839 C   0  0  0  0  0  0  0  0  0  0  0  0
  -21.0103  -24.5802   23.3880 C   0  0  0  0  0  0  0  0  0  0  0  0
  -19.4300  -29.9663   22.2798 C   0  0  0  0  0  0  0  0  0  0  0  0
  -19.2234  -30.2250   20.7800 C   0  0  0  0  0  0  0  0  0  0  0  0
  -26.8072  -19.7205   22.9948 C   0  0  0  0  0  0  0  0  0  0  0  0
  -28.2814  -19.5860   22.6094 C   0  0  0  0  0  0  0  0  0  0  0  0
  -26.2888  -21.1345   22.7273 C   0  0  0  0  0  0  0  0  0  0  0  0
  -28.8087  -18.1808   22.9083 C   0  0  0  0  0  0  0  0  0  0  0  0
  -24.8232  -21.2781   23.1443 C   0  0  0  0  0  0  0  0  0  0  0  0
  -30.2727  -18.0354   22.4823 C   0  0  0  0  0  0  0  0  0  0  0  0
  -24.3157  -22.7028   22.9038 C   0  0  0  0  0  0  0  0  0  0  0  0
  -30.8372  -16.6479   22.7725 C   0  0  0  0  0  0  0  0  0  0  0  0
  -22.8619  -22.9055   23.3126 C   0  0  0  0  0  0  0  0  0  0  0  0
  -20.5033  -30.0806   19.9650 C   0  0  0  0  0  0  0  0  0  1  0  0
  -28.1679  -32.6564   23.5182 C   0  0  1  0  0  0  0  0  0  0  0  0
  -28.7642  -36.0091   21.8528 C   0  0  2  0  0  0  0  0  0  0  0  0
  -28.6240  -32.4041   24.9831 C   0  0  0  0  0  0  0  0  0  0  0  0
  -25.7101  -11.7143   20.5135 N   0  0  0  0  0  0  0  0  0  0  0  0
  -19.4154  -27.6103   21.7763 N   0  0  0  0  0  0  0  0  0  0  0  0
  -26.0123  -12.9871   20.8210 N   0  0  0  0  0  0  0  0  0  0  0  0
  -27.4562  -30.8732   21.9570 N   0  0  0  0  0  0  0  0  0  0  0  0
  -29.6279  -14.1211   20.3207 N   0  0  0  0  0  0  0  0  0  0  0  0
  -25.3221  -14.8251   22.1463 N   0  0  0  0  0  0  0  0  0  0  0  0
  -22.2948  -11.6258   23.1444 N   0  0  0  0  0  0  0  0  0  0  0  0
  -28.2232  -27.3888   21.9525 N   0  0  0  0  0  0  0  0  0  0  0  0
  -28.7342  -33.8578   22.9147 N   0  0  0  0  0  0  0  0  0  0  0  0
  -30.1027  -15.5933   22.1098 N   0  0  0  0  0  0  0  0  0  0  0  0
  -28.0605  -36.6308   20.6956 N   0  3  0  0  0  0  0  0  0  0  0  0
  -22.4202  -24.2869   23.0090 N   0  3  0  0  0  0  0  0  0  0  0  0
  -22.9195  -13.7928   23.5600 O   0  0  0  0  0  0  0  0  0  0  0  0
  -26.5329  -28.6140   22.9842 O   0  0  0  0  0  0  0  0  0  0  0  0
  -29.7106  -31.2044   22.4512 O   0  0  0  0  0  0  0  0  0  0  0  0
  -26.7089  -34.8801   22.4347 O   0  0  0  0  0  0  0  0  0  0  0  0
  -31.3820  -15.6338   20.2075 O   0  0  0  0  0  0  0  0  0  0  0  0
  -22.1490   -6.4632   21.0559 O   0  0  0  0  0  0  0  0  0  0  0  0
  -21.4648  -31.0050   20.4577 O   0  0  0  0  0  0  0  0  0  1  0  0
  -20.6818   -4.1321   25.8326 F   0  0  0  0  0  0  0  0  0  0  0  0
  -20.3622   -7.7140   22.7547 F   0  0  0  0  0  0  0  0  0  0  0  0
  -19.1866  -25.1764   20.9572 Cl  0  0  0  0  0  0  0  0  0  0  0  0
  1  2  1  0  0  0  0
  1  5  2  0  0  0  0
  2  6  2  0  0  0  0
  3  8  2  0  0  0  0
  3 15  1  0  0  0  0
  4  9  1  0  0  0  0
  4 15  2  0  0  0  0
  5 17  1  0  0  0  0
  6 19  1  0  0  0  0
  7 10  2  0  0  0  0
  7 18  1  0  0  0  0
  8 24  1  0  0  0  0
  9 24  2  0  0  0  0
 10 25  1  0  0  0  0
 11 12  2  0  0  0  0
 11 26  1  0  0  0  0
 12 27  1  0  0  0  0
 13 20  1  0  0  0  0
 13 25  2  0  0  0  0
 14 27  2  0  0  0  0
 14 28  1  0  0  0  0
 15 29  1  0  0  0  0
 16 29  1  0  0  0  0
 16 32  2  0  0  0  0
 16 33  1  0  0  0  0
 17 19  2  0  0  0  0
 17 38  1  0  0  0  0
 18 20  2  0  0  0  0
 18 39  1  0  0  0  0
 19 47  1  0  0  0  0
 20 40  1  0  0  0  0
 21 22  1  0  0  0  0
 21 23  2  0  0  0  0
 21 50  1  0  0  0  0
 22 30  2  0  0  0  0
 22 51  1  0  0  0  0
 23 31  1  0  0  0  0
 23 57  1  0  0  0  0
 24 90  1  0  0  0  0
 25 91  1  0  0  0  0
 26 28  2  0  0  0  0
 26 90  1  0  0  0  0
 27 92  1  0  0  0  0
 28 93  1  0  0  0  0
 29 73  2  0  0  0  0
 30 58  1  0  0  0  0
 30 74  1  0  0  0  0
 31 74  2  0  0  0  0
 31 94  1  0  0  0  0
 32 75  1  0  0  0  0
 32 78  1  0  0  0  0
 33 79  1  0  0  0  0
 33 85  2  0  0  0  0
 34 48  1  0  0  0  0
 34 80  1  0  0  0  0
 34 86  2  0  0  0  0
 35 70  1  0  0  0  0
 35 76  1  0  0  0  0
 35 87  2  0  0  0  0
 36 71  1  0  0  0  0
 36 81  1  0  0  0  0
 36 88  2  0  0  0  0
 37 77  1  0  0  0  0
 37 82  1  0  0  0  0
 37 89  2  0  0  0  0
 38 41  1  0  0  0  0
 39 48  1  0  0  0  0
 40 76  1  0  0  0  0
 41 43  1  0  0  0  0
 42 44  1  0  0  0  0
 42 45  1  0  0  0  0
 43 47  1  0  0  0  0
 44 49  1  0  0  0  0
 45 77  1  0  0  0  0
 46 49  1  0  0  0  0
 46 77  1  0  0  0  0
 47 80  1  0  0  0  0
 48 76  1  0  0  0  0
 49 75  1  0  0  0  0
 52 71  1  0  0  0  0
 53 72  1  0  0  0  0
 54 72  1  0  0  0  0
 55 72  1  0  0  0  0
 56 83  1  0  0  0  0
 57 84  1  0  0  0  0
 58 59  1  0  0  0  0
 59 69  1  0  0  0  0
 60 61  1  0  0  0  0
 60 62  1  0  0  0  0
 61 63  1  0  0  0  0
 62 64  1  0  0  0  0
 63 65  1  0  0  0  0
 64 66  1  0  0  0  0
 65 67  1  0  0  0  0
 66 68  1  0  0  0  0
 67 82  1  0  0  0  0
 68 84  1  0  0  0  0
 69 91  1  0  0  0  0
 70 72  1  0  0  0  0
 70 81  1  0  0  0  0
 71 83  1  0  0  0  0
 73 75  1  0  0  0  0
M  CHG  2  83   1  84   1
M  ISO  4  37 100  69 101  82 100  91 101
M  END
> <Batch ID>
0023

> <Smiles>
CNC(C)C(=O)NC(C(=O)N1Cc2cc([101O:1][101CH2:1]CCc3nc(Cl)c(CNCCCCCCCCC[100NH:0][100C:0](=O)N4CCCC(n5nc(-c6ccc(Oc7ccc(F)cc7F)cc6)c(C(N)=O)c5N)C4)c(C)c3C)ccc2CC1C(=O)NC1CCCc2ccccc21)C(C)(C)C

> <Shape>
0.336

> <Color>
0.131

> <Negative vol penalty>
0.000

$$$$

  -OEChem-04052316193D

 84 92  0     1  0  0  0  0  0999 V2000
  -30.6102  -23.4555   17.8099 C   0  0  0  0  0  0  0  0  0  0  0  0
  -29.3368  -23.5054   18.3679 C   0  0  0  0  0  0  0  0  0  0  0  0
  -28.7689  -17.3157   21.7701 C   0  0  0  0  0  0  0  0  0  0  0  0
  -28.1487  -16.8402   19.4840 C   0  0  0  0  0  0  0  0  0  0  0  0
  -31.6296  -24.2518   18.3299 C   0  0  0  0  0  0  0  0  0  0  0  0
  -29.0824  -24.3509   19.4471 C   0  0  0  0  0  0  0  0  0  0  0  0
  -24.7483  -26.9175   18.9247 C   0  0  0  0  0  0  0  0  0  0  0  0
  -29.9864  -16.6634   21.5756 C   0  0  0  0  0  0  0  0  0  0  0  0
  -29.3663  -16.1879   19.2894 C   0  0  0  0  0  0  0  0  0  0  0  0
  -23.5652  -26.2306   19.1933 C   0  0  0  0  0  0  0  0  0  0  0  0
  -32.1587  -14.0846   18.2955 C   0  0  0  0  0  0  0  0  0  0  0  0
  -32.1383  -12.8579   17.6319 C   0  0  0  0  0  0  0  0  0  0  0  0
  -23.4757  -27.2510   21.3774 C   0  0  0  0  0  0  0  0  0  0  0  0
  -17.1694  -20.5034   21.2593 C   0  0  0  0  0  0  0  0  0  0  0  0
  -30.7050  -11.9510   19.3524 C   0  0  0  0  0  0  0  0  0  0  0  0
  -27.8501  -17.4040   20.7244 C   0  0  0  0  0  0  0  0  0  0  0  0
  -26.3151  -19.4416   20.7160 C   0  0  0  0  0  0  0  0  0  0  0  0
  -31.3852  -25.1147   19.4099 C   0  0  0  0  0  0  0  0  0  0  0  0
  -25.3107  -27.7694   19.8862 C   0  0  0  0  0  0  0  0  0  0  0  0
  -30.0999  -25.1586   19.9830 C   0  0  0  0  0  0  0  0  0  0  0  0
  -24.6646  -27.9495   21.1175 C   0  0  0  0  0  0  0  0  0  0  0  0
  -18.2636  -20.6764   20.4117 C   0  0  0  0  0  0  0  0  0  0  0  0
  -17.5146  -22.7197   22.1572 C   0  0  0  0  0  0  0  0  0  0  0  0
  -18.6088  -22.8926   21.3096 C   0  0  0  0  0  0  0  0  0  0  0  0
  -30.2851  -16.0995   20.3352 C   0  0  0  0  0  0  0  0  0  0  0  0
  -22.9302  -26.3950   20.4209 C   0  0  0  0  0  0  0  0  0  0  0  0
  -31.4524  -14.2445   19.4877 C   0  0  0  0  0  0  0  0  0  0  0  0
  -31.4114  -11.7911   18.1603 C   0  0  0  0  0  0  0  0  0  0  0  0
  -30.7255  -13.1777   20.0161 C   0  0  0  0  0  0  0  0  0  0  0  0
  -16.7948  -21.5251   22.1320 C   0  0  0  0  0  0  0  0  0  0  0  0
  -18.9833  -21.8709   20.4369 C   0  0  0  0  0  0  0  0  0  0  0  0
  -26.5920  -18.0772   20.9249 C   0  0  0  0  0  0  0  0  0  0  0  0
  -24.9890  -19.5774   21.0466 C   0  0  0  0  0  0  0  0  0  0  0  0
  -27.1794  -20.4922   20.2634 C   0  0  0  0  0  0  0  0  0  0  0  0
  -28.0519  -27.8374   21.4939 C   0  0  0  0  0  0  0  0  0  0  0  0
  -26.9205  -30.6939   22.5345 C   0  0  0  0  0  0  0  0  0  0  0  0
  -24.2245  -32.7022   23.1215 C   0  0  0  0  0  0  0  0  0  0  0  0
  -19.7120  -17.7731   20.8387 C   0  0  0  0  0  0  0  0  0  0  0  0
  -32.5307  -25.9215   19.9681 C   0  0  0  0  0  0  0  0  0  0  0  0
  -26.5732  -28.5238   19.5708 C   0  0  0  0  0  0  0  0  0  0  0  0
  -25.2166  -28.8681   22.1758 C   0  0  0  0  0  0  0  0  0  0  0  0
  -32.0847  -27.0675   20.8725 C   0  0  0  0  0  0  0  0  0  0  0  0
  -21.8219  -16.3674   23.3385 C   0  0  0  0  0  0  0  0  0  0  0  0
  -31.0314  -26.5855   21.8650 C   0  0  0  0  0  0  0  0  0  0  0  0
  -23.2279  -16.7941   22.9127 C   0  0  0  0  0  0  0  0  0  0  0  0
  -20.9382  -16.0535   22.1333 C   0  0  0  0  0  0  0  0  0  0  0  0
  -22.2672  -17.5541   20.6995 C   0  0  0  0  0  0  0  0  0  0  0  0
  -29.7785  -26.0815   21.1385 C   0  0  1  0  0  0  0  0  0  0  0  0
  -27.3305  -28.9690   20.8180 C   0  0  1  0  0  0  0  0  0  0  0  0
  -23.1786  -17.9351   21.8787 C   0  0  2  0  0  0  0  0  0  0  0  0
  -17.1210  -23.8243   23.0886 C   0  0  0  0  0  0  0  0  0  0  0  0
  -23.6120  -34.9675   24.0107 C   0  0  0  0  0  0  0  0  0  0  0  0
  -27.3854  -29.6994   25.3813 C   0  0  0  0  0  0  0  0  0  0  0  0
  -25.9112  -31.5522   26.1949 C   0  0  0  0  0  0  0  0  0  0  0  0
  -28.0302  -32.0840   24.9910 C   0  0  0  0  0  0  0  0  0  0  0  0
  -23.0304  -33.5207   20.5402 C   0  0  0  0  0  0  0  0  0  0  0  0
  -19.3759  -24.1901   21.3498 C   0  0  0  0  0  0  0  0  0  0  0  0
  -18.6281  -19.5544   19.4929 C   0  0  0  0  0  0  0  0  0  0  0  0
  -20.7136  -24.0922   22.0865 C   0  0  0  0  0  0  0  0  0  0  0  0
  -21.5201  -25.3850   22.0480 C   0  0  0  0  0  0  0  0  0  1  0  0
  -26.0705  -31.1480   23.6965 C   0  0  1  0  0  0  0  0  0  0  0  0
  -23.9553  -34.1548   22.7720 C   0  0  2  0  0  0  0  0  0  0  0  0
  -26.8397  -31.1020   25.0469 C   0  0  0  0  0  0  0  0  0  0  0  0
  -25.5273  -17.3950   21.3551 N   0  0  0  0  0  0  0  0  0  0  0  0
  -24.5686  -18.3346   21.4193 N   0  0  0  0  0  0  0  0  0  0  0  0
  -26.4566  -29.5787   21.8224 N   0  0  0  0  0  0  0  0  0  0  0  0
  -20.9333  -17.1761   21.1922 N   0  0  0  0  0  0  0  0  0  0  0  0
  -24.1531  -20.6375   21.0521 N   0  0  0  0  0  0  0  0  0  0  0  0
  -28.5132  -20.1794   19.9675 N   0  0  0  0  0  0  0  0  0  0  0  0
  -28.9729  -27.1960   20.6877 N   0  0  0  0  0  0  0  0  0  0  0  0
  -25.5657  -32.4698   23.3410 N   0  0  0  0  0  0  0  0  0  0  0  0
  -19.7974  -18.8347   19.9463 N   0  0  0  0  0  0  0  0  0  0  0  0
  -22.8181  -34.2550   21.8141 N   0  3  0  0  0  0  0  0  0  0  0  0
  -26.7851  -21.6768   20.1413 O   0  0  0  0  0  0  0  0  0  0  0  0
  -27.7933  -27.5672   22.6608 O   0  0  0  0  0  0  0  0  0  0  0  0
  -27.9541  -31.3104   22.2640 O   0  0  0  0  0  0  0  0  0  0  0  0
  -23.3335  -31.8590   23.1962 O   0  0  0  0  0  0  0  0  0  0  0  0
  -18.6264  -17.3919   21.2894 O   0  0  0  0  0  0  0  0  0  0  0  0
  -31.4731  -15.4632   20.1449 O   0  0  0  0  0  0  0  0  0  0  0  0
  -21.7756  -25.7252   20.6859 O   0  0  0  0  0  0  0  0  0  1  0  0
  -31.3905  -10.6137   17.5221 F   0  0  0  0  0  0  0  0  0  0  0  0
  -30.0440  -13.3256   21.1604 F   0  0  0  0  0  0  0  0  0  0  0  0
  -15.4331  -21.2718   23.1631 Cl  0  0  0  0  0  0  0  0  0  0  0  0
  -20.3424  -22.0811   19.3830 Cl  0  0  0  0  0  0  0  0  0  0  0  0
  1  2  1  0  0  0  0
  1  5  2  0  0  0  0
  2  6  2  0  0  0  0
  3  8  2  0  0  0  0
  3 16  1  0  0  0  0
  4  9  1  0  0  0  0
  4 16  2  0  0  0  0
  5 18  1  0  0  0  0
  6 20  1  0  0  0  0
  7 10  2  0  0  0  0
  7 19  1  0  0  0  0
  8 25  1  0  0  0  0
  9 25  2  0  0  0  0
 10 26  1  0  0  0  0
 11 12  2  0  0  0  0
 11 27  1  0  0  0  0
 12 28  1  0  0  0  0
 13 21  1  0  0  0  0
 13 26  2  0  0  0  0
 14 22  2  0  0  0  0
 14 30  1  0  0  0  0
 15 28  2  0  0  0  0
 15 29  1  0  0  0  0
 16 32  1  0  0  0  0
 17 32  1  0  0  0  0
 17 33  2  0  0  0  0
 17 34  1  0  0  0  0
 18 20  2  0  0  0  0
 18 39  1  0  0  0  0
 19 21  2  0  0  0  0
 19 40  1  0  0  0  0
 20 48  1  0  0  0  0
 21 41  1  0  0  0  0
 22 31  1  0  0  0  0
 22 58  1  0  0  0  0
 23 24  1  0  0  0  0
 23 30  2  0  0  0  0
 23 51  1  0  0  0  0
 24 31  2  0  0  0  0
 24 57  1  0  0  0  0
 25 79  1  0  0  0  0
 26 80  1  0  0  0  0
 27 29  2  0  0  0  0
 27 79  1  0  0  0  0
 28 81  1  0  0  0  0
 29 82  1  0  0  0  0
 30 83  1  0  0  0  0
 31 84  1  0  0  0  0
 32 64  2  0  0  0  0
 33 65  1  0  0  0  0
 33 68  1  0  0  0  0
 34 69  1  0  0  0  0
 34 74  2  0  0  0  0
 35 49  1  0  0  0  0
 35 70  1  0  0  0  0
 35 75  2  0  0  0  0
 36 61  1  0  0  0  0
 36 66  1  0  0  0  0
 36 76  2  0  0  0  0
 37 62  1  0  0  0  0
 37 71  1  0  0  0  0
 37 77  2  0  0  0  0
 38 67  1  0  0  0  0
 38 72  1  0  0  0  0
 38 78  2  0  0  0  0
 39 42  1  0  0  0  0
 40 49  1  0  0  0  0
 41 66  1  0  0  0  0
 42 44  1  0  0  0  0
 43 45  1  0  0  0  0
 43 46  1  0  0  0  0
 44 48  1  0  0  0  0
 45 50  1  0  0  0  0
 46 67  1  0  0  0  0
 47 50  1  0  0  0  0
 47 67  1  0  0  0  0
 48 70  1  0  0  0  0
 49 66  1  0  0  0  0
 50 65  1  0  0  0  0
 52 62  1  0  0  0  0
 53 63  1  0  0  0  0
 54 63  1  0  0  0  0
 55 63  1  0  0  0  0
 56 73  1  0  0  0  0
 57 59  1  0  0  0  0
 58 72  1  0  0  0  0
 59 60  1  0  0  0  0
 60 80  1  0  0  0  0
 61 63  1  0  0  0  0
 61 71  1  0  0  0  0
 62 73  1  0  0  0  0
 64 65  1  0  0  0  0
M  CHG  1  73   1
M  ISO  4  38 100  60 101  72 100  80 101
M  END
> <Batch ID>
0023

> <Smiles>
CNC(C)C(=O)NC(C(=O)N1Cc2cc([101O:1][101CH2:1]CCc3c(C)c(Cl)cc(C[100NH:0][100C:0](=O)N4CCCC(n5nc(-c6ccc(Oc7ccc(F)cc7F)cc6)c(C(N)=O)c5N)C4)c3Cl)ccc2CC1C(=O)NC1CCCc2ccccc21)C(C)(C)C

> <Shape>
0.225

> <Color>
0.047

> <Negative vol penalty>
0.000

$$$$

  -OEChem-04052316193D

 96104  0     1  0  0  0  0  0999 V2000
  -22.1293  -13.1360   17.8252 C   0  0  0  0  0  0  0  0  0  0  0  0
  -21.9865  -14.4287   18.3189 C   0  0  0  0  0  0  0  0  0  0  0  0
  -28.1463  -26.3050   18.3392 C   0  0  0  0  0  0  0  0  0  0  0  0
  -27.2972  -24.9792   20.1719 C   0  0  0  0  0  0  0  0  0  0  0  0
  -23.0564  -12.2691   18.4022 C   0  0  0  0  0  0  0  0  0  0  0  0
  -22.7699  -14.8551   19.3907 C   0  0  0  0  0  0  0  0  0  0  0  0
  -24.9930  -20.4861   20.3154 C   0  0  0  0  0  0  0  0  0  0  0  0
  -28.9069  -25.2190   17.9060 C   0  0  0  0  0  0  0  0  0  0  0  0
  -28.0579  -23.8932   19.7386 C   0  0  0  0  0  0  0  0  0  0  0  0
  -24.5566  -21.5488   21.1054 C   0  0  0  0  0  0  0  0  0  0  0  0
  -31.3490  -22.9048   16.5261 C   0  0  0  0  0  0  0  0  0  0  0  0
  -32.6740  -23.1435   16.1611 C   0  0  0  0  0  0  0  0  0  0  0  0
  -26.0690  -20.8615   22.8546 C   0  0  0  0  0  0  0  0  0  0  0  0
  -33.1412  -23.9552   18.3882 C   0  0  0  0  0  0  0  0  0  0  0  0
  -27.3415  -26.1851   19.4722 C   0  0  0  0  0  0  0  0  0  0  0  0
  -25.2384  -27.6272   19.5423 C   0  0  0  0  0  0  0  0  0  0  0  0
  -23.8585  -12.6882   19.4754 C   0  0  0  0  0  0  0  0  0  0  0  0
  -25.9644  -19.5953   20.7942 C   0  0  0  0  0  0  0  0  0  0  0  0
  -23.7077  -13.9926   19.9836 C   0  0  0  0  0  0  0  0  0  0  0  0
  -26.5178  -19.7898   22.0677 C   0  0  0  0  0  0  0  0  0  0  0  0
  -28.8627  -24.0131   18.6057 C   0  0  0  0  0  0  0  0  0  0  0  0
  -25.0925  -21.7349   22.3764 C   0  0  0  0  0  0  0  0  0  0  0  0
  -30.9201  -23.1914   17.8221 C   0  0  0  0  0  0  0  0  0  0  0  0
  -33.5700  -23.6687   17.0921 C   0  0  0  0  0  0  0  0  0  0  0  0
  -31.8162  -23.7166   18.7531 C   0  0  0  0  0  0  0  0  0  0  0  0
  -26.5559  -27.3067   19.9206 C   0  0  0  0  0  0  0  0  0  0  0  0
  -24.9503  -28.7747   20.2400 C   0  0  0  0  0  0  0  0  0  0  0  0
  -20.8598  -24.2260   25.3296 C   0  0  0  0  0  0  0  0  0  0  0  0
  -24.3539  -26.9484   18.6408 C   0  0  0  0  0  0  0  0  0  0  0  0
  -21.4370  -24.4596   24.1287 C   0  0  0  0  0  0  0  0  0  0  0  0
  -26.0396  -16.4780   21.4111 C   0  0  0  0  0  0  0  0  0  0  0  0
  -29.1878  -17.0543   21.9392 C   0  0  0  0  0  0  0  0  0  0  0  0
  -31.6249  -19.2992   22.7566 C   0  0  0  0  0  0  0  0  0  0  0  0
  -25.9663  -31.2611   25.3683 C   0  0  0  0  0  0  0  0  0  0  0  0
  -24.8135  -11.7002   20.0971 C   0  0  0  0  0  0  0  0  0  0  0  0
  -26.4437  -18.4697   19.9192 C   0  0  0  0  0  0  0  0  0  0  0  0
  -27.5778  -18.8735   22.6202 C   0  0  0  0  0  0  0  0  0  0  0  0
  -25.8692  -12.3509   20.9871 C   0  0  0  0  0  0  0  0  0  0  0  0
  -27.6490  -32.3038   22.4090 C   0  0  0  0  0  0  0  0  0  0  0  0
  -18.6130  -27.0730   21.5068 C   0  0  0  0  0  0  0  0  0  0  0  0
  -25.2252  -13.3702   21.9215 C   0  0  0  0  0  0  0  0  0  0  0  0
  -27.4162  -31.1513   21.4304 C   0  0  0  0  0  0  0  0  0  0  0  0
  -20.1184  -26.9072   21.4182 C   0  0  0  0  0  0  0  0  0  0  0  0
  -27.8383  -31.8010   23.8384 C   0  0  0  0  0  0  0  0  0  0  0  0
  -26.5295  -29.7695   23.3548 C   0  0  0  0  0  0  0  0  0  0  0  0
  -18.4225  -27.6416   22.8952 C   0  0  0  0  0  0  0  0  0  0  0  0
  -24.5568  -14.5000   21.1289 C   0  0  1  0  0  0  0  0  0  0  0  0
  -27.0654  -17.3220   20.7090 C   0  0  1  0  0  0  0  0  0  0  0  0
  -26.2775  -30.2308   21.9091 C   0  0  2  0  0  0  0  0  0  0  0  0
  -20.5415  -26.4184   22.8032 C   0  0  2  0  0  0  0  0  0  0  0  0
  -23.6489  -25.6597   23.5767 C   0  0  0  0  0  0  0  0  0  0  0  0
  -33.9413  -20.1829   23.1447 C   0  0  0  0  0  0  0  0  0  0  0  0
  -21.0176  -21.2696   26.0998 C   0  0  0  0  0  0  0  0  0  0  0  0
  -22.6890  -21.8215   27.8669 C   0  0  0  0  0  0  0  0  0  0  0  0
  -18.6258  -27.7833   25.8431 C   0  0  0  0  0  0  0  0  0  0  0  0
  -22.4889  -24.7810   27.2008 C   0  0  0  0  0  0  0  0  0  0  0  0
  -20.2695  -23.8242   27.7021 C   0  0  0  0  0  0  0  0  0  0  0  0
  -28.8443  -15.7305   24.6667 C   0  0  0  0  0  0  0  0  0  0  0  0
  -31.0197  -16.7568   25.3612 C   0  0  0  0  0  0  0  0  0  0  0  0
  -30.9577  -15.1276   23.4732 C   0  0  0  0  0  0  0  0  0  0  0  0
  -31.9202  -20.0982   19.9223 C   0  0  0  0  0  0  0  0  0  0  0  0
  -21.9728  -30.8163   25.3357 C   0  0  0  0  0  0  0  0  0  0  0  0
  -21.3787  -29.4628   25.7354 C   0  0  0  0  0  0  0  0  0  0  0  0
  -22.8416  -31.4444   26.4282 C   0  0  0  0  0  0  0  0  0  0  0  0
  -20.5366  -28.8728   24.5979 C   0  0  0  0  0  0  0  0  0  0  0  0
  -24.0523  -30.5965   26.8015 C   0  0  0  0  0  0  0  0  0  0  0  0
  -23.3245  -23.2116   22.9676 C   0  0  0  0  0  0  0  0  0  1  0  0
  -20.6965  -24.9065   22.8850 C   0  0  2  0  0  0  0  0  0  0  0  0
  -22.9594  -24.3391   23.9473 C   0  0  2  0  0  0  0  0  0  0  0  0
  -30.0159  -17.4498   23.1379 C   0  0  1  0  0  0  0  0  0  0  0  0
  -32.9756  -19.5927   22.1290 C   0  0  2  0  0  0  0  0  0  0  0  0
  -22.0328  -22.3238   26.5718 C   0  0  0  0  0  0  0  0  0  0  0  0
  -19.8505  -27.5531   24.9673 C   0  0  2  0  0  0  0  0  0  0  0  0
  -21.4367  -23.7758   26.6792 C   0  0  0  0  0  0  0  0  0  0  0  0
  -30.1880  -16.2825   24.1504 C   0  0  0  0  0  0  0  0  0  0  0  0
  -27.0694  -28.1801   20.7909 N   0  0  0  0  0  0  0  0  0  0  0  0
  -26.0694  -29.0608   20.9653 N   0  0  0  0  0  0  0  0  0  0  0  0
  -28.0090  -17.7838   21.7291 N   0  0  0  0  0  0  0  0  0  0  0  0
  -26.7239  -30.9351   24.2313 N   0  0  0  0  0  0  0  0  0  0  0  0
  -23.8515  -29.5568   20.2977 N   0  0  0  0  0  0  0  0  0  0  0  0
  -24.8095  -25.7836   18.0083 N   0  0  0  0  0  0  0  0  0  0  0  0
  -25.5502  -15.4357   20.6472 N   0  0  0  0  0  0  0  0  0  0  0  0
  -31.2714  -17.9743   22.6116 N   0  0  0  0  0  0  0  0  0  0  0  0
  -24.9246  -30.3913   25.6667 N   0  0  0  0  0  0  0  0  0  0  0  0
  -19.4030  -26.8470   23.7268 N   0  3  1  0  0  0  0  0  0  0  0  0
  -32.8254  -20.5605   21.0057 N   0  3  0  0  0  0  0  0  0  0  0  0
  -23.1998  -27.3715   18.3907 O   0  0  0  0  0  0  0  0  0  0  0  0
  -25.7171  -16.7512   22.5614 O   0  0  0  0  0  0  0  0  0  0  0  0
  -29.5763  -16.1369   21.2118 O   0  0  0  0  0  0  0  0  0  0  0  0
  -30.9525  -20.1583   23.3225 O   0  0  0  0  0  0  0  0  0  0  0  0
  -26.1975  -32.2567   26.0628 O   0  0  0  0  0  0  0  0  0  0  0  0
  -29.6046  -22.9532   18.1831 O   0  0  0  0  0  0  0  0  0  0  0  0
  -24.6648  -22.7786   23.1555 O   0  0  0  0  0  0  0  0  0  1  0  0
  -34.8427  -23.8964   16.7420 F   0  0  0  0  0  0  0  0  0  0  0  0
  -31.4103  -23.9928   20.0000 F   0  0  0  0  0  0  0  0  0  0  0  0
  -19.4417  -24.3634   22.8626 F   0  0  0  0  0  0  0  0  0  0  0  0
  1  2  1  0  0  0  0
  1  5  2  0  0  0  0
  2  6  2  0  0  0  0
  3  8  2  0  0  0  0
  3 15  1  0  0  0  0
  4  9  1  0  0  0  0
  4 15  2  0  0  0  0
  5 17  1  0  0  0  0
  6 19  1  0  0  0  0
  7 10  2  0  0  0  0
  7 18  1  0  0  0  0
  8 21  1  0  0  0  0
  9 21  2  0  0  0  0
 10 22  1  0  0  0  0
 11 12  2  0  0  0  0
 11 23  1  0  0  0  0
 12 24  1  0  0  0  0
 13 20  1  0  0  0  0
 13 22  2  0  0  0  0
 14 24  2  0  0  0  0
 14 25  1  0  0  0  0
 15 26  1  0  0  0  0
 16 26  1  0  0  0  0
 16 27  2  0  0  0  0
 16 29  1  0  0  0  0
 17 19  2  0  0  0  0
 17 35  1  0  0  0  0
 18 20  2  0  0  0  0
 18 36  1  0  0  0  0
 19 47  1  0  0  0  0
 20 37  1  0  0  0  0
 21 92  1  0  0  0  0
 22 93  1  0  0  0  0
 23 25  2  0  0  0  0
 23 92  1  0  0  0  0
 24 94  1  0  0  0  0
 25 95  1  0  0  0  0
 26 76  2  0  0  0  0
 27 77  1  0  0  0  0
 27 80  1  0  0  0  0
 28 30  2  0  0  0  0
 28 74  1  0  0  0  0
 29 81  1  0  0  0  0
 29 87  2  0  0  0  0
 30 68  1  0  0  0  0
 30 69  1  0  0  0  0
 31 48  1  0  0  0  0
 31 82  1  0  0  0  0
 31 88  2  0  0  0  0
 32 70  1  0  0  0  0
 32 78  1  0  0  0  0
 32 89  2  0  0  0  0
 33 71  1  0  0  0  0
 33 83  1  0  0  0  0
 33 90  2  0  0  0  0
 34 79  1  0  0  0  0
 34 84  1  0  0  0  0
 34 91  2  0  0  0  0
 35 38  1  0  0  0  0
 36 48  1  0  0  0  0
 37 78  1  0  0  0  0
 38 41  1  0  0  0  0
 39 42  1  0  0  0  0
 39 44  1  0  0  0  0
 40 43  1  0  0  0  0
 40 46  1  0  0  0  0
 41 47  1  0  0  0  0
 42 49  1  0  0  0  0
 43 50  1  0  0  0  0
 44 79  1  0  0  0  0
 45 49  1  0  0  0  0
 45 79  1  0  0  0  0
 46 85  1  0  0  0  0
 47 82  1  0  0  0  0
 48 78  1  0  0  0  0
 49 77  1  0  0  0  0
 50 68  1  0  0  0  0
 50 85  1  0  0  0  0
 51 69  1  0  0  0  0
 52 71  1  0  0  0  0
 53 72  1  0  0  0  0
 54 72  1  0  0  0  0
 55 73  1  0  0  0  0
 56 74  1  0  0  0  0
 57 74  1  0  0  0  0
 58 75  1  0  0  0  0
 59 75  1  0  0  0  0
 60 75  1  0  0  0  0
 61 86  1  0  0  0  0
 62 63  1  0  0  0  0
 62 64  1  0  0  0  0
 63 65  1  0  0  0  0
 64 66  1  0  0  0  0
 65 73  1  0  0  0  0
 66 84  1  0  0  0  0
 67 69  1  0  0  0  0
 67 93  1  0  0  0  0
 68 96  1  0  0  0  0
 70 75  1  0  0  0  0
 70 83  1  0  0  0  0
 71 86  1  0  0  0  0
 72 74  1  0  0  0  0
 73 85  1  0  0  0  0
 76 77  1  0  0  0  0
M  CHG  2  85   1  86   1
M  ISO  4  34 100  67 101  84 100  93 101
M  END
> <Batch ID>
0023

> <Smiles>
CNC(C)C(=O)NC(C(=O)N1Cc2cc([101O:1][101CH2:1]C(C)C(=CC(C)(C)C(C)C)C(F)C3CCCN3C(C)CCCCC[100NH:0][100C:0](=O)N3CCCC(n4nc(-c5ccc(Oc6ccc(F)cc6F)cc5)c(C(N)=O)c4N)C3)ccc2CC1C(=O)NC1CCCc2ccccc21)C(C)(C)C

> <Shape>
0.228

> <Color>
0.062

> <Negative vol penalty>
0.000

$$$$

  -OEChem-04052316193D

 92100  0     1  0  0  0  0  0999 V2000
  -20.9582  -29.2393   22.9201 C   0  0  0  0  0  0  0  0  0  0  0  0
  -21.1896  -28.1075   22.1448 C   0  0  0  0  0  0  0  0  0  0  0  0
  -23.0799   -9.8616   19.9431 C   0  0  0  0  0  0  0  0  0  0  0  0
  -23.8369   -9.8781   22.2374 C   0  0  0  0  0  0  0  0  0  0  0  0
  -21.3275  -29.2495   24.2645 C   0  0  0  0  0  0  0  0  0  0  0  0
  -21.7916  -26.9856   22.7134 C   0  0  0  0  0  0  0  0  0  0  0  0
  -20.6562  -21.1197   21.3687 C   0  0  0  0  0  0  0  0  0  0  0  0
  -22.3385   -8.7076   20.1960 C   0  0  0  0  0  0  0  0  0  0  0  0
  -23.0954   -8.7241   22.4904 C   0  0  0  0  0  0  0  0  0  0  0  0
  -21.3109  -20.2016   20.5487 C   0  0  0  0  0  0  0  0  0  0  0  0
  -19.8684   -7.9207   23.0915 C   0  0  0  0  0  0  0  0  0  0  0  0
  -19.1100   -7.8830   24.2616 C   0  0  0  0  0  0  0  0  0  0  0  0
  -22.4964  -19.3435   22.4664 C   0  0  0  0  0  0  0  0  0  0  0  0
  -20.3550   -5.9510   25.0062 C   0  0  0  0  0  0  0  0  0  0  0  0
  -23.3876  -15.1922   17.1609 C   0  0  0  0  0  0  0  0  0  0  0  0
  -23.8292  -10.4469   20.9638 C   0  0  0  0  0  0  0  0  0  0  0  0
  -24.1653  -12.9724   20.8356 C   0  0  0  0  0  0  0  0  0  0  0  0
  -21.9255  -28.1236   24.8522 C   0  0  0  0  0  0  0  0  0  0  0  0
  -20.9252  -21.1639   22.7442 C   0  0  0  0  0  0  0  0  0  0  0  0
  -22.1705  -26.9811   24.0666 C   0  0  0  0  0  0  0  0  0  0  0  0
  -21.8419  -20.2613   23.3020 C   0  0  0  0  0  0  0  0  0  0  0  0
  -24.6977  -17.5239   17.9544 C   0  0  0  0  0  0  0  0  0  0  0  0
  -23.3350  -17.3686   18.2085 C   0  0  0  0  0  0  0  0  0  0  0  0
  -25.4054  -16.5133   17.3036 C   0  0  0  0  0  0  0  0  0  0  0  0
  -22.3462   -8.1388   21.4696 C   0  0  0  0  0  0  0  0  0  0  0  0
  -22.2333  -19.3153   21.0970 C   0  0  0  0  0  0  0  0  0  0  0  0
  -20.8700   -6.9736   22.8787 C   0  0  0  0  0  0  0  0  0  0  0  0
  -19.3534   -6.8982   25.2189 C   0  0  0  0  0  0  0  0  0  0  0  0
  -21.1133   -5.9887   23.8360 C   0  0  0  0  0  0  0  0  0  0  0  0
  -22.6799  -16.2028   17.8117 C   0  0  0  0  0  0  0  0  0  0  0  0
  -24.7503  -15.3474   16.9069 C   0  0  0  0  0  0  0  0  0  0  0  0
  -24.5959  -11.6386   20.7030 C   0  0  0  0  0  0  0  0  0  0  0  0
  -25.2562  -13.7232   20.4712 C   0  0  0  0  0  0  0  0  0  0  0  0
  -22.8931  -13.4866   21.2512 C   0  0  0  0  0  0  0  0  0  0  0  0
  -22.1072  -23.3467   24.7297 C   0  0  0  0  0  0  0  0  0  0  0  0
  -21.3282  -21.1505   26.9863 C   0  0  0  0  0  0  0  0  0  0  0  0
  -20.7224  -17.8826   27.7614 C   0  0  0  0  0  0  0  0  0  0  0  0
  -30.7373  -14.7557   20.6630 C   0  0  0  0  0  0  0  0  0  0  0  0
  -22.3505  -28.1986   26.2973 C   0  0  0  0  0  0  0  0  0  0  0  0
  -20.1908  -22.1422   23.6194 C   0  0  0  0  0  0  0  0  0  0  0  0
  -22.1512  -20.2544   24.7760 C   0  0  0  0  0  0  0  0  0  0  0  0
  -22.6421  -26.8348   26.9180 C   0  0  0  0  0  0  0  0  0  0  0  0
  -29.6083  -12.3605   18.2829 C   0  0  0  0  0  0  0  0  0  0  0  0
  -23.5121  -25.9986   25.9850 C   0  0  0  0  0  0  0  0  0  0  0  0
  -28.1710  -12.0648   18.7150 C   0  0  0  0  0  0  0  0  0  0  0  0
  -30.5234  -12.5875   19.4841 C   0  0  0  0  0  0  0  0  0  0  0  0
  -28.6182  -13.3188   20.8659 C   0  0  0  0  0  0  0  0  0  0  0  0
  -22.7985  -25.7356   24.6534 C   0  0  1  0  0  0  0  0  0  0  0  0
  -20.9224  -22.4432   24.9238 C   0  0  1  0  0  0  0  0  0  0  0  0
  -27.6459  -13.1379   19.6876 C   0  0  2  0  0  0  0  0  0  0  0  0
  -20.1478  -16.3907   29.6957 C   0  0  0  0  0  0  0  0  0  0  0  0
  -28.8266  -16.3497   15.8227 C   0  0  0  0  0  0  0  0  0  0  0  0
  -27.0900  -18.0178   15.0826 C   0  0  0  0  0  0  0  0  0  0  0  0
  -25.9798  -20.8795   20.3711 C   0  0  0  0  0  0  0  0  0  0  0  0
  -24.2066  -21.3363   27.9815 C   0  0  0  0  0  0  0  0  0  0  0  0
  -23.8372  -19.2011   29.2356 C   0  0  0  0  0  0  0  0  0  0  0  0
  -22.4829  -21.2213   29.7899 C   0  0  0  0  0  0  0  0  0  0  0  0
  -18.1851  -17.0292   26.4995 C   0  0  0  0  0  0  0  0  0  0  0  0
  -25.3935  -18.7780   18.3831 C   0  0  0  0  0  0  0  0  0  0  0  0
  -22.5535  -18.4412   18.9086 C   0  0  0  0  0  0  0  0  0  1  0  0
  -28.9556  -18.3706   20.9228 C   0  0  0  0  0  0  0  0  0  0  0  0
  -29.8112  -18.0466   22.1515 C   0  0  0  0  0  0  0  0  0  0  0  0
  -27.9242  -19.4788   21.1726 C   0  0  0  0  0  0  0  0  0  0  0  0
  -30.7965  -16.9106   21.8926 C   0  0  0  0  0  0  0  0  0  0  0  0
  -22.0357  -19.9833   27.6313 C   0  0  1  0  0  0  0  0  0  0  0  0
  -19.6024  -17.2246   28.5469 C   0  0  2  0  0  0  0  0  0  0  0  0
  -27.3407  -16.6666   15.7362 C   0  0  0  0  0  0  0  0  0  0  0  0
  -26.9973  -19.8087   19.9969 C   0  0  1  0  0  0  0  0  0  0  0  0
  -23.1364  -20.4367   28.6315 C   0  0  0  0  0  0  0  0  0  0  0  0
  -25.8615  -11.5444   20.2866 N   0  0  0  0  0  0  0  0  0  0  0  0
  -26.2355  -12.8284   20.1544 N   0  0  0  0  0  0  0  0  0  0  0  0
  -21.4120  -21.2341   25.5892 N   0  0  0  0  0  0  0  0  0  0  0  0
  -29.9693  -13.6177   20.3659 N   0  0  0  0  0  0  0  0  0  0  0  0
  -25.4636  -15.0549   20.3939 N   0  0  0  0  0  0  0  0  0  0  0  0
  -21.8829  -12.5762   21.5903 N   0  0  0  0  0  0  0  0  0  0  0  0
  -26.7882  -16.6802   17.0524 N   0  0  0  0  0  0  0  0  0  0  0  0
  -21.8068  -24.6931   24.8087 N   0  0  0  0  0  0  0  0  0  0  0  0
  -20.9941  -19.1523   28.2255 N   0  0  0  0  0  0  0  0  0  0  0  0
  -30.1349  -15.6860   21.5011 N   0  0  0  0  0  0  0  0  0  0  0  0
  -18.8008  -16.3351   27.6597 N   0  3  0  0  0  0  0  0  0  0  0  0
  -26.2502  -18.5911   19.5839 N   0  3  0  0  0  0  0  0  0  0  0  0
  -22.6539  -14.7169   21.3041 O   0  0  0  0  0  0  0  0  0  0  0  0
  -23.2123  -22.8583   24.5250 O   0  0  0  0  0  0  0  0  0  0  0  0
  -20.7176  -21.9543   27.6953 O   0  0  0  0  0  0  0  0  0  0  0  0
  -21.3012  -17.3245   26.8319 O   0  0  0  0  0  0  0  0  0  0  0  0
  -31.8734  -14.9323   20.2102 O   0  0  0  0  0  0  0  0  0  0  0  0
  -21.6225   -7.0128   21.7169 O   0  0  0  0  0  0  0  0  0  0  0  0
  -22.8743  -18.4186   20.2989 O   0  0  0  0  0  0  0  0  0  1  0  0
  -18.6261   -6.8630   26.3432 F   0  0  0  0  0  0  0  0  0  0  0  0
  -22.0751   -5.0768   23.6377 F   0  0  0  0  0  0  0  0  0  0  0  0
  -21.3709  -16.0431   18.0523 F   0  0  0  0  0  0  0  0  0  0  0  0
  -25.5851  -14.0693   16.0975 Cl  0  0  0  0  0  0  0  0  0  0  0  0
  1  2  1  0  0  0  0
  1  5  2  0  0  0  0
  2  6  2  0  0  0  0
  3  8  2  0  0  0  0
  3 16  1  0  0  0  0
  4  9  1  0  0  0  0
  4 16  2  0  0  0  0
  5 18  1  0  0  0  0
  6 20  1  0  0  0  0
  7 10  2  0  0  0  0
  7 19  1  0  0  0  0
  8 25  1  0  0  0  0
  9 25  2  0  0  0  0
 10 26  1  0  0  0  0
 11 12  2  0  0  0  0
 11 27  1  0  0  0  0
 12 28  1  0  0  0  0
 13 21  1  0  0  0  0
 13 26  2  0  0  0  0
 14 28  2  0  0  0  0
 14 29  1  0  0  0  0
 15 30  2  0  0  0  0
 15 31  1  0  0  0  0
 16 32  1  0  0  0  0
 17 32  1  0  0  0  0
 17 33  2  0  0  0  0
 17 34  1  0  0  0  0
 18 20  2  0  0  0  0
 18 39  1  0  0  0  0
 19 21  2  0  0  0  0
 19 40  1  0  0  0  0
 20 48  1  0  0  0  0
 21 41  1  0  0  0  0
 22 23  2  0  0  0  0
 22 24  1  0  0  0  0
 22 59  1  0  0  0  0
 23 30  1  0  0  0  0
 23 60  1  0  0  0  0
 24 31  2  0  0  0  0
 24 76  1  0  0  0  0
 25 87  1  0  0  0  0
 26 88  1  0  0  0  0
 27 29  2  0  0  0  0
 27 87  1  0  0  0  0
 28 89  1  0  0  0  0
 29 90  1  0  0  0  0
 30 91  1  0  0  0  0
 31 92  1  0  0  0  0
 32 70  2  0  0  0  0
 33 71  1  0  0  0  0
 33 74  1  0  0  0  0
 34 75  1  0  0  0  0
 34 82  2  0  0  0  0
 35 49  1  0  0  0  0
 35 77  1  0  0  0  0
 35 83  2  0  0  0  0
 36 65  1  0  0  0  0
 36 72  1  0  0  0  0
 36 84  2  0  0  0  0
 37 66  1  0  0  0  0
 37 78  1  0  0  0  0
 37 85  2  0  0  0  0
 38 73  1  0  0  0  0
 38 79  1  0  0  0  0
 38 86  2  0  0  0  0
 39 42  1  0  0  0  0
 40 49  1  0  0  0  0
 41 72  1  0  0  0  0
 42 44  1  0  0  0  0
 43 45  1  0  0  0  0
 43 46  1  0  0  0  0
 44 48  1  0  0  0  0
 45 50  1  0  0  0  0
 46 73  1  0  0  0  0
 47 50  1  0  0  0  0
 47 73  1  0  0  0  0
 48 77  1  0  0  0  0
 49 72  1  0  0  0  0
 50 71  1  0  0  0  0
 51 66  1  0  0  0  0
 52 67  1  0  0  0  0
 53 67  1  0  0  0  0
 54 68  1  0  0  0  0
 55 69  1  0  0  0  0
 56 69  1  0  0  0  0
 57 69  1  0  0  0  0
 58 80  1  0  0  0  0
 59 81  1  0  0  0  0
 60 88  1  0  0  0  0
 61 62  1  0  0  0  0
 61 63  1  0  0  0  0
 62 64  1  0  0  0  0
 63 68  1  0  0  0  0
 64 79  1  0  0  0  0
 65 69  1  0  0  0  0
 65 78  1  0  0  0  0
 66 80  1  0  0  0  0
 67 76  1  0  0  0  0
 68 81  1  0  0  0  0
 70 71  1  0  0  0  0
M  CHG  2  80   1  81   1
M  ISO  4  38 100  60 101  79 100  88 101
M  END
> <Batch ID>
0023

> <Smiles>
CNC(C)C(=O)NC(C(=O)N1Cc2cc([101O:1][101CH2:1]c3c(F)cc(Cl)c(NC(C)C)c3CNC(C)CCCC[100NH:0][100C:0](=O)N3CCCC(n4nc(-c5ccc(Oc6ccc(F)cc6F)cc5)c(C(N)=O)c4N)C3)ccc2CC1C(=O)NC1CCCc2ccccc21)C(C)(C)C

> <Shape>
0.203

> <Color>
0.184

> <Negative vol penalty>
0.000

$$$$

  -OEChem-04052316193D

 94102  0     1  0  0  0  0  0999 V2000
  -32.3903  -14.6425   19.8926 C   0  0  0  0  0  0  0  0  0  0  0  0
  -31.5942  -15.5927   20.5241 C   0  0  0  0  0  0  0  0  0  0  0  0
  -28.2765  -25.8587   19.2177 C   0  0  0  0  0  0  0  0  0  0  0  0
  -26.1071  -24.9167   19.7107 C   0  0  0  0  0  0  0  0  0  0  0  0
  -31.7978  -13.5891   19.1975 C   0  0  0  0  0  0  0  0  0  0  0  0
  -30.2050  -15.4907   20.4598 C   0  0  0  0  0  0  0  0  0  0  0  0
  -24.3225  -16.8599   24.3118 C   0  0  0  0  0  0  0  0  0  0  0  0
  -28.7207  -24.6093   18.7849 C   0  0  0  0  0  0  0  0  0  0  0  0
  -26.5512  -23.6673   19.2779 C   0  0  0  0  0  0  0  0  0  0  0  0
  -23.0957  -17.5143   24.2087 C   0  0  0  0  0  0  0  0  0  0  0  0
  -27.2225  -20.1525   18.6409 C   0  0  0  0  0  0  0  0  0  0  0  0
  -26.9084  -19.0445   19.4278 C   0  0  0  0  0  0  0  0  0  0  0  0
  -22.1832  -15.6078   23.0461 C   0  0  0  0  0  0  0  0  0  0  0  0
  -18.0952  -27.8224   21.9272 C   0  0  0  0  0  0  0  0  0  0  0  0
  -28.1105  -20.0206   21.2823 C   0  0  0  0  0  0  0  0  0  0  0  0
  -26.9697  -26.0124   19.6807 C   0  0  0  0  0  0  0  0  0  0  0  0
  -25.8987  -28.3041   19.3508 C   0  0  0  0  0  0  0  0  0  0  0  0
  -30.4007  -13.4688   19.1328 C   0  0  0  0  0  0  0  0  0  0  0  0
  -24.4922  -15.5768   23.7722 C   0  0  0  0  0  0  0  0  0  0  0  0
  -29.5932  -14.4355   19.7620 C   0  0  0  0  0  0  0  0  0  0  0  0
  -23.4124  -14.9382   23.1459 C   0  0  0  0  0  0  0  0  0  0  0  0
  -18.9341  -27.2399   20.9772 C   0  0  0  0  0  0  0  0  0  0  0  0
  -20.2768  -27.0120   21.2786 C   0  0  0  0  0  0  0  0  0  0  0  0
  -20.7807  -27.3668   22.5301 C   0  0  0  0  0  0  0  0  0  0  0  0
  -19.9417  -27.9494   23.4800 C   0  0  0  0  0  0  0  0  0  0  0  0
  -27.8581  -23.5136   18.8150 C   0  0  0  0  0  0  0  0  0  0  0  0
  -22.0267  -16.8894   23.5733 C   0  0  0  0  0  0  0  0  0  0  0  0
  -27.9807  -21.1946   19.1747 C   0  0  0  0  0  0  0  0  0  0  0  0
  -27.3524  -18.9785   20.7484 C   0  0  0  0  0  0  0  0  0  0  0  0
  -28.4247  -21.1287   20.4954 C   0  0  0  0  0  0  0  0  0  0  0  0
  -18.5990  -28.1772   23.1786 C   0  0  0  0  0  0  0  0  0  0  0  0
  -26.5104  -27.3026   20.1284 C   0  0  0  0  0  0  0  0  0  0  0  0
  -25.6554  -29.3256   20.2361 C   0  0  0  0  0  0  0  0  0  0  0  0
  -25.5788  -28.3103   17.9532 C   0  0  0  0  0  0  0  0  0  0  0  0
  -26.3414  -14.3201   21.5128 C   0  0  0  0  0  0  0  0  0  0  0  0
  -25.0477  -11.5323   22.5507 C   0  0  0  0  0  0  0  0  0  0  0  0
  -22.4640   -9.9420   24.1135 C   0  0  0  0  0  0  0  0  0  0  0  0
  -24.8771  -29.4789   26.1709 C   0  0  0  0  0  0  0  0  0  0  0  0
  -29.8058  -12.3392   18.3297 C   0  0  0  0  0  0  0  0  0  0  0  0
  -25.8142  -14.8736   23.9152 C   0  0  0  0  0  0  0  0  0  0  0  0
  -23.5370  -13.5530   22.5679 C   0  0  0  0  0  0  0  0  0  0  0  0
  -28.3283  -12.0941   18.6250 C   0  0  0  0  0  0  0  0  0  0  0  0
  -27.3260  -31.2477   24.2865 C   0  0  0  0  0  0  0  0  0  0  0  0
  -27.5604  -13.4121   18.6367 C   0  0  0  0  0  0  0  0  0  0  0  0
  -27.3395  -30.5276   22.9370 C   0  0  0  0  0  0  0  0  0  0  0  0
  -27.1072  -30.2749   25.4431 C   0  0  0  0  0  0  0  0  0  0  0  0
  -25.9293  -28.6952   23.9630 C   0  0  0  0  0  0  0  0  0  0  0  0
  -28.0828  -14.3452   19.7358 C   0  0  1  0  0  0  0  0  0  0  0  0
  -26.0225  -13.7758   22.8765 C   0  0  1  0  0  0  0  0  0  0  0  0
  -26.0911  -29.6420   22.7615 C   0  0  2  0  0  0  0  0  0  0  0  0
  -21.1744  -26.3875   20.2577 C   0  0  0  0  0  0  0  0  0  0  0  0
  -22.2221  -27.1184   22.8496 C   0  0  0  0  0  0  0  0  0  0  0  0
  -21.6717   -7.6557   24.7788 C   0  0  0  0  0  0  0  0  0  0  0  0
  -15.6190  -25.0655   20.1604 C   0  0  0  0  0  0  0  0  0  0  0  0
  -24.2573  -10.9673   19.6583 C   0  0  0  0  0  0  0  0  0  0  0  0
  -22.6867   -9.2105   20.5040 C   0  0  0  0  0  0  0  0  0  0  0  0
  -25.1386   -8.9864   20.9050 C   0  0  0  0  0  0  0  0  0  0  0  0
  -22.4717  -10.6487   26.9875 C   0  0  0  0  0  0  0  0  0  0  0  0
  -18.3638  -26.8633   19.6321 C   0  0  0  0  0  0  0  0  0  0  0  0
  -18.0419  -25.3671   19.5075 C   0  0  0  0  0  0  0  0  0  0  0  0
  -19.6216  -20.9474   22.4723 C   0  0  0  0  0  0  0  0  0  0  0  0
  -18.4320  -21.4140   21.6322 C   0  0  0  0  0  0  0  0  0  0  0  0
  -19.6487  -19.4260   22.6012 C   0  0  0  0  0  0  0  0  0  0  0  0
  -21.5709  -29.6585   26.4430 C   0  0  0  0  0  0  0  0  0  0  0  0
  -21.0264  -29.5888   25.0167 C   0  0  0  0  0  0  0  0  0  0  0  0
  -22.6299  -28.6039   26.7569 C   0  0  0  0  0  0  0  0  0  0  0  0
  -18.3918  -22.9320   21.5384 C   0  0  0  0  0  0  0  0  0  0  0  0
  -20.8540  -18.9512   23.4003 C   0  0  0  0  0  0  0  0  0  1  0  0
  -23.8256  -10.7219   22.1920 C   0  0  1  0  0  0  0  0  0  0  0  0
  -22.4428   -8.8933   25.2109 C   0  0  2  0  0  0  0  0  0  0  0  0
  -17.0684  -24.8075   20.5535 C   0  0  2  0  0  0  0  0  0  0  0  0
  -23.9749   -9.9984   20.8239 C   0  0  0  0  0  0  0  0  0  0  0  0
  -26.6475  -27.6560   21.4092 N   0  0  0  0  0  0  0  0  0  0  0  0
  -26.1185  -28.8910   21.4431 N   0  0  0  0  0  0  0  0  0  0  0  0
  -24.8515  -12.9094   22.7273 N   0  0  0  0  0  0  0  0  0  0  0  0
  -25.9069  -29.4664   25.2158 N   0  0  0  0  0  0  0  0  0  0  0  0
  -25.0927  -30.5442   20.0921 N   0  0  0  0  0  0  0  0  0  0  0  0
  -25.8974  -27.1790   17.1898 N   0  0  0  0  0  0  0  0  0  0  0  0
  -20.4627  -28.3054   24.7470 N   0  0  0  0  0  0  0  0  0  0  0  0
  -27.5773  -13.9359   21.0287 N   0  0  0  0  0  0  0  0  0  0  0  0
  -23.5845   -9.8265   23.3183 N   0  0  0  0  0  0  0  0  0  0  0  0
  -23.7724  -28.6898   25.8748 N   0  0  0  0  0  0  0  0  0  0  0  0
  -21.8013   -9.4417   26.4392 N   0  3  0  0  0  0  0  0  0  0  0  0
  -17.2522  -23.3356   20.6800 N   0  3  0  0  0  0  0  0  0  0  0  0
  -25.0417  -29.2967   17.3944 O   0  0  0  0  0  0  0  0  0  0  0  0
  -25.5259  -15.0343   20.9414 O   0  0  0  0  0  0  0  0  0  0  0  0
  -26.1350  -10.9635   22.6769 O   0  0  0  0  0  0  0  0  0  0  0  0
  -21.5737  -10.7776   23.9734 O   0  0  0  0  0  0  0  0  0  0  0  0
  -24.9354  -30.1481   27.2081 O   0  0  0  0  0  0  0  0  0  0  0  0
  -28.2911  -22.2944   18.3925 O   0  0  0  0  0  0  0  0  0  0  0  0
  -20.8284  -17.5262   23.4708 O   0  0  0  0  0  0  0  0  0  1  0  0
  -27.0493  -17.9151   21.5044 F   0  0  0  0  0  0  0  0  0  0  0  0
  -29.1524  -22.1272   21.0141 F   0  0  0  0  0  0  0  0  0  0  0  0
  -17.5237  -28.9005   24.3218 Cl  0  0  0  0  0  0  0  0  0  0  0  0
  1  2  1  0  0  0  0
  1  5  2  0  0  0  0
  2  6  2  0  0  0  0
  3  8  2  0  0  0  0
  3 16  1  0  0  0  0
  4  9  1  0  0  0  0
  4 16  2  0  0  0  0
  5 18  1  0  0  0  0
  6 20  1  0  0  0  0
  7 10  2  0  0  0  0
  7 19  1  0  0  0  0
  8 26  1  0  0  0  0
  9 26  2  0  0  0  0
 10 27  1  0  0  0  0
 11 12  2  0  0  0  0
 11 28  1  0  0  0  0
 12 29  1  0  0  0  0
 13 21  1  0  0  0  0
 13 27  2  0  0  0  0
 14 22  1  0  0  0  0
 14 31  2  0  0  0  0
 15 29  2  0  0  0  0
 15 30  1  0  0  0  0
 16 32  1  0  0  0  0
 17 32  1  0  0  0  0
 17 33  2  0  0  0  0
 17 34  1  0  0  0  0
 18 20  2  0  0  0  0
 18 39  1  0  0  0  0
 19 21  2  0  0  0  0
 19 40  1  0  0  0  0
 20 48  1  0  0  0  0
 21 41  1  0  0  0  0
 22 23  2  0  0  0  0
 22 59  1  0  0  0  0
 23 24  1  0  0  0  0
 23 51  1  0  0  0  0
 24 25  2  0  0  0  0
 24 52  1  0  0  0  0
 25 31  1  0  0  0  0
 25 79  1  0  0  0  0
 26 90  1  0  0  0  0
 27 91  1  0  0  0  0
 28 30  2  0  0  0  0
 28 90  1  0  0  0  0
 29 92  1  0  0  0  0
 30 93  1  0  0  0  0
 31 94  1  0  0  0  0
 32 73  2  0  0  0  0
 33 74  1  0  0  0  0
 33 77  1  0  0  0  0
 34 78  1  0  0  0  0
 34 85  2  0  0  0  0
 35 49  1  0  0  0  0
 35 80  1  0  0  0  0
 35 86  2  0  0  0  0
 36 69  1  0  0  0  0
 36 75  1  0  0  0  0
 36 87  2  0  0  0  0
 37 70  1  0  0  0  0
 37 81  1  0  0  0  0
 37 88  2  0  0  0  0
 38 76  1  0  0  0  0
 38 82  1  0  0  0  0
 38 89  2  0  0  0  0
 39 42  1  0  0  0  0
 40 49  1  0  0  0  0
 41 75  1  0  0  0  0
 42 44  1  0  0  0  0
 43 45  1  0  0  0  0
 43 46  1  0  0  0  0
 44 48  1  0  0  0  0
 45 50  1  0  0  0  0
 46 76  1  0  0  0  0
 47 50  1  0  0  0  0
 47 76  1  0  0  0  0
 48 80  1  0  0  0  0
 49 75  1  0  0  0  0
 50 74  1  0  0  0  0
 53 70  1  0  0  0  0
 54 71  1  0  0  0  0
 55 72  1  0  0  0  0
 56 72  1  0  0  0  0
 57 72  1  0  0  0  0
 58 83  1  0  0  0  0
 59 60  1  0  0  0  0
 60 71  1  0  0  0  0
 61 62  1  0  0  0  0
 61 63  1  0  0  0  0
 62 67  1  0  0  0  0
 63 68  1  0  0  0  0
 64 65  1  0  0  0  0
 64 66  1  0  0  0  0
 65 79  1  0  0  0  0
 66 82  1  0  0  0  0
 67 84  1  0  0  0  0
 68 91  1  0  0  0  0
 69 72  1  0  0  0  0
 69 81  1  0  0  0  0
 70 83  1  0  0  0  0
 71 84  1  0  0  0  0
 73 74  1  0  0  0  0
M  CHG  2  83   1  84   1
M  ISO  4  38 100  68 101  82 100  91 101
M  END
> <Batch ID>
0023

> <Smiles>
CNC(C)C(=O)NC(C(=O)N1Cc2cc([101O:1][101CH2:1]CCCCNC(C)CCc3cc(Cl)c(NCCC[100NH:0][100C:0](=O)N4CCCC(n5nc(-c6ccc(Oc7ccc(F)cc7F)cc6)c(C(N)=O)c5N)C4)c(C)c3C)ccc2CC1C(=O)NC1CCCc2ccccc21)C(C)(C)C

> <Shape>
0.267

> <Color>
0.061

> <Negative vol penalty>
0.000

$$$$

  -OEChem-04052316193D

 96105  0     1  0  0  0  0  0999 V2000
  -29.7474  -23.1555   14.1512 C   0  0  0  0  0  0  0  0  0  0  0  0
  -29.2616  -22.7762   15.3984 C   0  0  0  0  0  0  0  0  0  0  0  0
  -21.1952  -21.7722   18.8039 C   0  0  0  0  0  0  0  0  0  0  0  0
  -20.1712  -21.4078   20.9616 C   0  0  0  0  0  0  0  0  0  0  0  0
  -30.2004  -24.4583   13.9475 C   0  0  0  0  0  0  0  0  0  0  0  0
  -29.2294  -23.6994   16.4430 C   0  0  0  0  0  0  0  0  0  0  0  0
  -24.8602  -23.5870   19.0009 C   0  0  0  0  0  0  0  0  0  0  0  0
  -21.2349  -23.1438   19.0543 C   0  0  0  0  0  0  0  0  0  0  0  0
  -20.2109  -22.7794   21.2121 C   0  0  0  0  0  0  0  0  0  0  0  0
  -24.6865  -22.5526   19.9193 C   0  0  0  0  0  0  0  0  0  0  0  0
  -18.4421  -25.5242   20.3356 C   0  0  0  0  0  0  0  0  0  0  0  0
  -17.2992  -26.1187   20.8701 C   0  0  0  0  0  0  0  0  0  0  0  0
  -25.2712  -24.0553   21.7135 C   0  0  0  0  0  0  0  0  0  0  0  0
  -18.5670  -26.8166   22.8048 C   0  0  0  0  0  0  0  0  0  0  0  0
  -20.6633  -20.9042   19.7575 C   0  0  0  0  0  0  0  0  0  0  0  0
  -19.9547  -18.8347   18.4450 C   0  0  0  0  0  0  0  0  0  0  0  0
  -30.1647  -25.4006   14.9875 C   0  0  0  0  0  0  0  0  0  0  0  0
  -25.2520  -24.8628   19.4315 C   0  0  0  0  0  0  0  0  0  0  0  0
  -29.6835  -25.0156   16.2535 C   0  0  0  0  0  0  0  0  0  0  0  0
  -25.4467  -25.1049   20.7988 C   0  0  0  0  0  0  0  0  0  0  0  0
  -20.7428  -23.6474   20.2584 C   0  0  0  0  0  0  0  0  0  0  0  0
  -24.8948  -22.7859   21.2755 C   0  0  0  0  0  0  0  0  0  0  0  0
  -19.6475  -25.5758   21.0356 C   0  0  0  0  0  0  0  0  0  0  0  0
  -17.3616  -26.7649   22.1047 C   0  0  0  0  0  0  0  0  0  0  0  0
  -19.7099  -26.2220   22.2702 C   0  0  0  0  0  0  0  0  0  0  0  0
  -20.6215  -19.4873   19.4992 C   0  0  0  0  0  0  0  0  0  0  0  0
  -20.2209  -17.5019   18.6431 C   0  0  0  0  0  0  0  0  0  0  0  0
  -19.1652  -19.3841   17.3817 C   0  0  0  0  0  0  0  0  0  0  0  0
  -27.7662  -26.7345   18.9034 C   0  0  0  0  0  0  0  0  0  0  0  0
  -26.0388  -28.8792   20.6177 C   0  0  0  0  0  0  0  0  0  0  0  0
  -27.6786  -15.7511   20.4749 C   0  0  0  0  0  0  0  0  0  0  0  0
  -23.5958  -29.4428   22.9331 C   0  0  0  0  0  0  0  0  0  0  0  0
  -24.6699  -14.5995   21.4061 C   0  0  0  0  0  0  0  0  0  0  0  0
  -30.7092  -26.7838   14.7328 C   0  0  0  0  0  0  0  0  0  0  0  0
  -25.4092  -25.9749   18.4310 C   0  0  0  0  0  0  0  0  0  0  0  0
  -25.8483  -26.4619   21.3145 C   0  0  0  0  0  0  0  0  0  0  0  0
  -30.2928  -27.8060   15.7873 C   0  0  0  0  0  0  0  0  0  0  0  0
  -21.1889  -14.3521   22.1119 C   0  0  0  0  0  0  0  0  0  0  0  0
  -30.4850  -27.2356   17.1889 C   0  0  0  0  0  0  0  0  0  0  0  0
  -20.5886  -15.5812   21.4272 C   0  0  0  0  0  0  0  0  0  0  0  0
  -29.8443  -20.5722   21.6021 C   0  0  0  0  0  0  0  0  0  0  0  0
  -30.5601  -15.3417   22.7263 C   0  0  0  0  0  0  0  0  0  0  0  0
  -22.5626  -14.6524   22.7073 C   0  0  0  0  0  0  0  0  0  0  0  0
  -28.6240  -14.0734   22.1250 C   0  0  0  0  0  0  0  0  0  0  0  0
  -22.9334  -16.4631   21.0772 C   0  0  0  0  0  0  0  0  0  0  0  0
  -29.7704  -19.1098   21.1960 C   0  0  0  0  0  0  0  0  0  0  0  0
  -29.6095  -25.9952   17.4046 C   0  0  1  0  0  0  0  0  0  0  0  0
  -26.3095  -27.1021   18.9271 C   0  0  1  0  0  0  0  0  0  0  0  0
  -29.6355  -14.2417   23.2559 C   0  0  1  0  0  0  0  0  0  0  0  0
  -21.5724  -16.1944   20.4126 C   0  0  2  0  0  0  0  0  0  0  0  0
  -28.4223  -20.9016   22.0028 C   0  0  2  0  0  0  0  0  0  0  0  0
  -29.6089  -16.2756   21.9732 C   0  0  2  0  0  0  0  0  0  0  0  0
  -27.9982  -19.6750   22.7933 C   0  0  1  0  0  0  0  0  0  0  0  0
  -30.3704  -12.9579   23.5994 C   0  0  0  0  0  0  0  0  0  0  0  0
  -21.9920  -30.7476   24.3553 C   0  0  0  0  0  0  0  0  0  0  0  0
  -27.8309  -16.8988   23.6631 C   0  0  0  0  0  0  0  0  0  0  0  0
  -28.2413  -14.0080   18.1050 C   0  0  0  0  0  0  0  0  0  0  0  0
  -25.8310  -13.3521   18.0635 C   0  0  0  0  0  0  0  0  0  0  0  0
  -28.4747  -29.2074   22.4257 C   0  0  0  0  0  0  0  0  0  0  0  0
  -26.9845  -30.2938   24.1190 C   0  0  0  0  0  0  0  0  0  0  0  0
  -27.2895  -31.3396   21.8749 C   0  0  0  0  0  0  0  0  0  0  0  0
  -24.4064  -19.7466   24.2365 C   0  0  0  0  0  0  0  0  0  0  0  0
  -26.5730  -20.5110   25.2173 C   0  0  0  0  0  0  0  0  0  0  0  0
  -21.5126  -29.3951   20.8315 C   0  0  0  0  0  0  0  0  0  0  0  0
  -26.4956  -19.4860   22.8886 C   0  0  0  0  0  0  0  0  0  0  0  0
  -25.5262  -21.8202   23.3551 C   0  0  0  0  0  0  0  0  0  1  0  0
  -25.9159  -29.2271   22.0816 C   0  0  1  0  0  0  0  0  0  0  0  0
  -26.7258  -14.6752   20.0181 C   0  0  2  0  0  0  0  0  0  0  0  0
  -22.4119  -30.3929   22.9373 C   0  0  2  0  0  0  0  0  0  0  0  0
  -29.0429  -17.3704   22.8759 C   0  0  2  0  0  0  0  0  0  0  0  0
  -26.8244  -14.4311   18.5087 C   0  0  0  0  0  0  0  0  0  0  0  0
  -27.1605  -29.9908   22.6157 C   0  0  0  0  0  0  0  0  0  0  0  0
  -25.7667  -20.4001   23.9110 C   0  0  0  0  0  0  0  0  0  0  0  0
  -21.2629  -18.6389   20.3071 N   0  0  0  0  0  0  0  0  0  0  0  0
  -21.0004  -17.4396   19.7605 N   0  0  0  0  0  0  0  0  0  0  0  0
  -25.9956  -27.5151   20.2965 N   0  0  0  0  0  0  0  0  0  0  0  0
  -28.5526  -15.3857   21.4865 N   0  0  0  0  0  0  0  0  0  0  0  0
  -23.4481  -15.2302   21.6934 N   0  0  0  0  0  0  0  0  0  0  0  0
  -19.8620  -16.3889   17.9687 N   0  0  0  0  0  0  0  0  0  0  0  0
  -17.7876  -19.5425   17.5853 N   0  0  0  0  0  0  0  0  0  0  0  0
  -28.2373  -26.3821   17.6531 N   0  0  0  0  0  0  0  0  0  0  0  0
  -24.6606  -29.9568   22.2237 N   0  0  0  0  0  0  0  0  0  0  0  0
  -25.4460  -15.2090   20.4279 N   0  0  0  0  0  0  0  0  0  0  0  0
  -28.6313  -18.5276   22.0182 N   0  3  2  0  0  0  0  0  0  0  0  0
  -21.2477  -29.7728   22.2436 N   0  3  0  0  0  0  0  0  0  0  0  0
  -19.6640  -19.7094   16.2776 O   0  0  0  0  0  0  0  0  0  0  0  0
  -28.4152  -26.7696   19.9423 O   0  0  0  0  0  0  0  0  0  0  0  0
  -26.1613  -29.7848   19.7891 O   0  0  0  0  0  0  0  0  0  0  0  0
  -27.6463  -16.8695   19.9588 O   0  0  0  0  0  0  0  0  0  0  0  0
  -23.5792  -28.3552   23.5052 O   0  0  0  0  0  0  0  0  0  0  0  0
  -25.0391  -13.5666   21.9751 O   0  0  0  0  0  0  0  0  0  0  0  0
  -20.7816  -24.9857   20.5033 O   0  0  0  0  0  0  0  0  0  0  0  0
  -24.7265  -21.7777   22.1740 O   0  0  0  0  0  0  0  0  0  1  0  0
  -16.2643  -27.3372   22.6171 F   0  0  0  0  0  0  0  0  0  0  0  0
  -20.8654  -26.2758   22.9469 F   0  0  0  0  0  0  0  0  0  0  0  0
  -27.6671  -21.0155   20.8784 F   0  0  0  0  0  0  0  0  0  0  0  0
  1  2  1  0  0  0  0
  1  5  2  0  0  0  0
  2  6  2  0  0  0  0
  3  8  2  0  0  0  0
  3 15  1  0  0  0  0
  4  9  1  0  0  0  0
  4 15  2  0  0  0  0
  5 17  1  0  0  0  0
  6 19  1  0  0  0  0
  7 10  2  0  0  0  0
  7 18  1  0  0  0  0
  8 21  1  0  0  0  0
  9 21  2  0  0  0  0
 10 22  1  0  0  0  0
 11 12  2  0  0  0  0
 11 23  1  0  0  0  0
 12 24  1  0  0  0  0
 13 20  1  0  0  0  0
 13 22  2  0  0  0  0
 14 24  2  0  0  0  0
 14 25  1  0  0  0  0
 15 26  1  0  0  0  0
 16 26  1  0  0  0  0
 16 27  2  0  0  0  0
 16 28  1  0  0  0  0
 17 19  2  0  0  0  0
 17 34  1  0  0  0  0
 18 20  2  0  0  0  0
 18 35  1  0  0  0  0
 19 47  1  0  0  0  0
 20 36  1  0  0  0  0
 21 92  1  0  0  0  0
 22 93  1  0  0  0  0
 23 25  2  0  0  0  0
 23 92  1  0  0  0  0
 24 94  1  0  0  0  0
 25 95  1  0  0  0  0
 26 74  2  0  0  0  0
 27 75  1  0  0  0  0
 27 79  1  0  0  0  0
 28 80  1  0  0  0  0
 28 86  2  0  0  0  0
 29 48  1  0  0  0  0
 29 81  1  0  0  0  0
 29 87  2  0  0  0  0
 30 67  1  0  0  0  0
 30 76  1  0  0  0  0
 30 88  2  0  0  0  0
 31 68  1  0  0  0  0
 31 77  1  0  0  0  0
 31 89  2  0  0  0  0
 32 69  1  0  0  0  0
 32 82  1  0  0  0  0
 32 90  2  0  0  0  0
 33 78  1  0  0  0  0
 33 83  1  0  0  0  0
 33 91  2  0  0  0  0
 34 37  1  0  0  0  0
 35 48  1  0  0  0  0
 36 76  1  0  0  0  0
 37 39  1  0  0  0  0
 38 40  1  0  0  0  0
 38 43  1  0  0  0  0
 39 47  1  0  0  0  0
 40 50  1  0  0  0  0
 41 46  1  0  0  0  0
 41 51  1  0  0  0  0
 42 49  1  0  0  0  0
 42 52  1  0  0  0  0
 43 78  1  0  0  0  0
 44 49  1  0  0  0  0
 44 77  1  0  0  0  0
 45 50  1  0  0  0  0
 45 78  1  0  0  0  0
 46 84  1  0  0  0  0
 47 81  1  0  0  0  0
 48 76  1  0  0  0  0
 49 54  1  0  0  0  0
 50 75  1  0  0  0  0
 51 53  1  0  0  0  0
 51 96  1  0  0  0  0
 52 70  1  0  0  0  0
 52 77  1  0  0  0  0
 53 65  1  0  0  0  0
 53 84  1  0  0  0  0
 55 69  1  0  0  0  0
 56 70  1  0  0  0  0
 57 71  1  0  0  0  0
 58 71  1  0  0  0  0
 59 72  1  0  0  0  0
 60 72  1  0  0  0  0
 61 72  1  0  0  0  0
 62 73  1  0  0  0  0
 63 73  1  0  0  0  0
 64 85  1  0  0  0  0
 65 73  1  0  0  0  0
 66 73  1  0  0  0  0
 66 93  1  0  0  0  0
 67 72  1  0  0  0  0
 67 82  1  0  0  0  0
 68 71  1  0  0  0  0
 68 83  1  0  0  0  0
 69 85  1  0  0  0  0
 70 84  1  0  0  0  0
 74 75  1  0  0  0  0
M  CHG  2  84   1  85   1
M  ISO  4  33 100  66 101  83 100  93 101
M  END
> <Batch ID>
0023

> <Smiles>
CNC(C)C(=O)NC(C(=O)N1Cc2cc([101O:1][101CH2:1]C(C)(C)CC3C(F)CCN3C(C)C3CC(C)CN3C(=O)C([100NH:0][100C:0](=O)N3CCCC(n4nc(-c5ccc(Oc6ccc(F)cc6F)cc5)c(C(N)=O)c4N)C3)C(C)C)ccc2CC1C(=O)NC1CCCc2ccccc21)C(C)(C)C

> <Shape>
0.200

> <Color>
0.063

> <Negative vol penalty>
0.000

$$$$

  -OEChem-04052316193D

 82 90  0     1  0  0  0  0  0999 V2000
  -20.3125  -17.2948   32.7769 C   0  0  0  0  0  0  0  0  0  0  0  0
  -21.5696  -17.1106   32.2102 C   0  0  0  0  0  0  0  0  0  0  0  0
  -23.2887   -9.7995   19.9130 C   0  0  0  0  0  0  0  0  0  0  0  0
  -23.7396   -9.9399   22.2823 C   0  0  0  0  0  0  0  0  0  0  0  0
  -19.1908  -17.4156   31.9577 C   0  0  0  0  0  0  0  0  0  0  0  0
  -21.7056  -17.0460   30.8240 C   0  0  0  0  0  0  0  0  0  0  0  0
  -26.4050  -19.1142   27.4856 C   0  0  0  0  0  0  0  0  0  0  0  0
  -22.5625   -8.6268   20.1206 C   0  0  0  0  0  0  0  0  0  0  0  0
  -23.0134   -8.7672   22.4900 C   0  0  0  0  0  0  0  0  0  0  0  0
  -27.5153  -18.4771   26.9332 C   0  0  0  0  0  0  0  0  0  0  0  0
  -20.9748   -6.0066   23.6906 C   0  0  0  0  0  0  0  0  0  0  0  0
  -20.0733   -5.9811   24.7547 C   0  0  0  0  0  0  0  0  0  0  0  0
  -26.3472  -18.2764   24.8322 C   0  0  0  0  0  0  0  0  0  0  0  0
  -18.8634   -7.8282   23.7740 C   0  0  0  0  0  0  0  0  0  0  0  0
  -32.9072  -16.6934   23.9732 C   0  0  0  0  0  0  0  0  0  0  0  0
  -23.8773  -10.4560   20.9938 C   0  0  0  0  0  0  0  0  0  0  0  0
  -24.1363  -12.9860   20.7955 C   0  0  0  0  0  0  0  0  0  0  0  0
  -19.3144  -17.3622   30.5604 C   0  0  0  0  0  0  0  0  0  0  0  0
  -25.2515  -19.3277   26.7174 C   0  0  0  0  0  0  0  0  0  0  0  0
  -20.5844  -17.1649   29.9853 C   0  0  0  0  0  0  0  0  0  0  0  0
  -25.2245  -18.9187   25.3764 C   0  0  0  0  0  0  0  0  0  0  0  0
  -31.7217  -14.5926   24.1071 C   0  0  0  0  0  0  0  0  0  0  0  0
  -30.7902  -16.5727   25.1312 C   0  0  0  0  0  0  0  0  0  0  0  0
  -22.4248   -8.1107   21.4091 C   0  0  0  0  0  0  0  0  0  0  0  0
  -27.4855  -18.0555   25.6071 C   0  0  0  0  0  0  0  0  0  0  0  0
  -20.8207   -6.9430   22.6683 C   0  0  0  0  0  0  0  0  0  0  0  0
  -19.0176   -6.8918   24.7964 C   0  0  0  0  0  0  0  0  0  0  0  0
  -19.7650   -7.8537   22.7099 C   0  0  0  0  0  0  0  0  0  0  0  0
  -32.8225  -15.3331   23.6765 C   0  0  0  0  0  0  0  0  0  0  0  0
  -31.8911  -17.3132   24.7006 C   0  0  0  0  0  0  0  0  0  0  0  0
  -30.7055  -15.2123   24.8344 C   0  0  0  0  0  0  0  0  0  0  0  0
  -24.6281  -11.6671   20.7799 C   0  0  0  0  0  0  0  0  0  0  0  0
  -25.2377  -13.7661   20.5406 C   0  0  0  0  0  0  0  0  0  0  0  0
  -22.8032  -13.4634   21.0205 C   0  0  0  0  0  0  0  0  0  0  0  0
  -22.2243  -18.3764   26.9038 C   0  0  0  0  0  0  0  0  0  0  0  0
  -21.8390  -20.4105   24.4065 C   0  0  0  0  0  0  0  0  0  0  0  0
  -23.2434  -22.0574   21.7679 C   0  0  0  0  0  0  0  0  0  0  0  0
  -31.1088  -12.9239   21.3596 C   0  0  0  0  0  0  0  0  0  0  0  0
  -18.0669  -17.4504   29.7173 C   0  0  0  0  0  0  0  0  0  0  0  0
  -24.0720  -20.0403   27.3202 C   0  0  0  0  0  0  0  0  0  0  0  0
  -24.0179  -19.1423   24.5032 C   0  0  0  0  0  0  0  0  0  0  0  0
  -18.3457  -17.7462   28.2460 C   0  0  0  0  0  0  0  0  0  0  0  0
  -29.4596  -13.6634   18.2921 C   0  0  0  0  0  0  0  0  0  0  0  0
  -19.4690  -16.8549   27.7258 C   0  0  0  0  0  0  0  0  0  0  0  0
  -27.9900  -13.3546   18.5832 C   0  0  0  0  0  0  0  0  0  0  0  0
  -30.3931  -12.6841   19.0003 C   0  0  0  0  0  0  0  0  0  0  0  0
  -28.7066  -12.2542   20.7452 C   0  0  0  0  0  0  0  0  0  0  0  0
  -20.7758  -17.1145   28.4850 C   0  0  1  0  0  0  0  0  0  0  0  0
  -22.7619  -19.7454   26.5964 C   0  0  1  0  0  0  0  0  0  0  0  0
  -27.7285  -13.2494   20.0978 C   0  0  2  0  0  0  0  0  0  0  0  0
  -22.6689  -23.6169   19.8877 C   0  0  0  0  0  0  0  0  0  0  0  0
  -20.5614  -18.0972   22.8813 C   0  0  0  0  0  0  0  0  0  0  0  0
  -20.8820  -19.4038   20.7699 C   0  0  0  0  0  0  0  0  0  0  0  0
  -19.4199  -20.3019   22.5805 C   0  0  0  0  0  0  0  0  0  0  0  0
  -25.0844  -24.1418   22.7801 C   0  0  0  0  0  0  0  0  0  0  0  0
  -31.6709  -13.1374   23.7675 C   0  0  0  0  0  0  0  0  0  0  0  0
  -29.6999  -17.2441   25.9133 C   0  0  0  0  0  0  0  0  0  1  0  0
  -21.9273  -20.2880   22.9045 C   0  0  1  0  0  0  0  0  0  0  0  0
  -23.1573  -23.5064   21.3237 C   0  0  2  0  0  0  0  0  0  0  0  0
  -20.7198  -19.5166   22.3008 C   0  0  0  0  0  0  0  0  0  0  0  0
  -25.9397  -11.6086   20.5342 N   0  0  0  0  0  0  0  0  0  0  0  0
  -26.2814  -12.9007   20.3931 N   0  0  0  0  0  0  0  0  0  0  0  0
  -22.8874  -19.8378   25.1404 N   0  0  0  0  0  0  0  0  0  0  0  0
  -30.0939  -12.6324   20.4333 N   0  0  0  0  0  0  0  0  0  0  0  0
  -25.4054  -15.1011   20.4303 N   0  0  0  0  0  0  0  0  0  0  0  0
  -21.7908  -12.5264   21.2679 N   0  0  0  0  0  0  0  0  0  0  0  0
  -21.4015  -18.3311   28.0130 N   0  0  0  0  0  0  0  0  0  0  0  0
  -22.0855  -21.6451   22.3929 N   0  0  0  0  0  0  0  0  0  0  0  0
  -30.7393  -12.8581   22.6975 N   0  0  0  0  0  0  0  0  0  0  0  0
  -24.4948  -24.1570   21.4166 N   0  3  0  0  0  0  0  0  0  0  0  0
  -22.5152  -14.6838   20.9863 O   0  0  0  0  0  0  0  0  0  0  0  0
  -22.5320  -17.4314   26.1869 O   0  0  0  0  0  0  0  0  0  0  0  0
  -20.8788  -20.9991   24.9099 O   0  0  0  0  0  0  0  0  0  0  0  0
  -24.2369  -21.3598   21.5762 O   0  0  0  0  0  0  0  0  0  0  0  0
  -32.2578  -13.2259   21.0194 O   0  0  0  0  0  0  0  0  0  0  0  0
  -21.7161   -6.9666   21.6122 O   0  0  0  0  0  0  0  0  0  0  0  0
  -28.5676  -17.4329   25.0656 O   0  0  0  0  0  0  0  0  0  1  0  0
  -18.1510   -6.8662   25.8174 F   0  0  0  0  0  0  0  0  0  0  0  0
  -19.6111   -8.7548   21.7301 F   0  0  0  0  0  0  0  0  0  0  0  0
  -33.8051  -14.7478   22.9771 F   0  0  0  0  0  0  0  0  0  0  0  0
  -32.0377  -18.9991   25.0451 Cl  0  0  0  0  0  0  0  0  0  0  0  0
  -29.3404  -14.2871   25.3666 Cl  0  0  0  0  0  0  0  0  0  0  0  0
  1  2  1  0  0  0  0
  1  5  2  0  0  0  0
  2  6  2  0  0  0  0
  3  8  2  0  0  0  0
  3 16  1  0  0  0  0
  4  9  1  0  0  0  0
  4 16  2  0  0  0  0
  5 18  1  0  0  0  0
  6 20  1  0  0  0  0
  7 10  2  0  0  0  0
  7 19  1  0  0  0  0
  8 24  1  0  0  0  0
  9 24  2  0  0  0  0
 10 25  1  0  0  0  0
 11 12  2  0  0  0  0
 11 26  1  0  0  0  0
 12 27  1  0  0  0  0
 13 21  1  0  0  0  0
 13 25  2  0  0  0  0
 14 27  2  0  0  0  0
 14 28  1  0  0  0  0
 15 29  1  0  0  0  0
 15 30  2  0  0  0  0
 16 32  1  0  0  0  0
 17 32  1  0  0  0  0
 17 33  2  0  0  0  0
 17 34  1  0  0  0  0
 18 20  2  0  0  0  0
 18 39  1  0  0  0  0
 19 21  2  0  0  0  0
 19 40  1  0  0  0  0
 20 48  1  0  0  0  0
 21 41  1  0  0  0  0
 22 29  2  0  0  0  0
 22 31  1  0  0  0  0
 22 56  1  0  0  0  0
 23 30  1  0  0  0  0
 23 31  2  0  0  0  0
 23 57  1  0  0  0  0
 24 76  1  0  0  0  0
 25 77  1  0  0  0  0
 26 28  2  0  0  0  0
 26 76  1  0  0  0  0
 27 78  1  0  0  0  0
 28 79  1  0  0  0  0
 29 80  1  0  0  0  0
 30 81  1  0  0  0  0
 31 82  1  0  0  0  0
 32 61  2  0  0  0  0
 33 62  1  0  0  0  0
 33 65  1  0  0  0  0
 34 66  1  0  0  0  0
 34 71  2  0  0  0  0
 35 49  1  0  0  0  0
 35 67  1  0  0  0  0
 35 72  2  0  0  0  0
 36 58  1  0  0  0  0
 36 63  1  0  0  0  0
 36 73  2  0  0  0  0
 37 59  1  0  0  0  0
 37 68  1  0  0  0  0
 37 74  2  0  0  0  0
 38 64  1  0  0  0  0
 38 69  1  0  0  0  0
 38 75  2  0  0  0  0
 39 42  1  0  0  0  0
 40 49  1  0  0  0  0
 41 63  1  0  0  0  0
 42 44  1  0  0  0  0
 43 45  1  0  0  0  0
 43 46  1  0  0  0  0
 44 48  1  0  0  0  0
 45 50  1  0  0  0  0
 46 64  1  0  0  0  0
 47 50  1  0  0  0  0
 47 64  1  0  0  0  0
 48 67  1  0  0  0  0
 49 63  1  0  0  0  0
 50 62  1  0  0  0  0
 51 59  1  0  0  0  0
 52 60  1  0  0  0  0
 53 60  1  0  0  0  0
 54 60  1  0  0  0  0
 55 70  1  0  0  0  0
 56 69  1  0  0  0  0
 57 77  1  0  0  0  0
 58 60  1  0  0  0  0
 58 68  1  0  0  0  0
 59 70  1  0  0  0  0
 61 62  1  0  0  0  0
M  CHG  1  70   1
M  ISO  4  38 100  57 101  69 100  77 101
M  END
> <Batch ID>
0023

> <Smiles>
CNC(C)C(=O)NC(C(=O)N1Cc2cc([101O:1][101CH2:1]c3c(Cl)cc(F)c(C[100NH:0][100C:0](=O)N4CCCC(n5nc(-c6ccc(Oc7ccc(F)cc7F)cc6)c(C(N)=O)c5N)C4)c3Cl)ccc2CC1C(=O)NC1CCCc2ccccc21)C(C)(C)C

> <Shape>
0.132

> <Color>
0.182

> <Negative vol penalty>
0.000

$$$$

  -OEChem-04052316193D

 93101  0     1  0  0  0  0  0999 V2000
  -25.2624  -14.2986   15.9283 C   0  0  0  0  0  0  0  0  0  0  0  0
  -24.3598  -14.5848   16.9475 C   0  0  0  0  0  0  0  0  0  0  0  0
  -23.0004   -9.8943   19.9821 C   0  0  0  0  0  0  0  0  0  0  0  0
  -23.7310   -9.9440   22.2844 C   0  0  0  0  0  0  0  0  0  0  0  0
  -26.0687  -15.3102   15.4083 C   0  0  0  0  0  0  0  0  0  0  0  0
  -24.2638  -15.8827   17.4482 C   0  0  0  0  0  0  0  0  0  0  0  0
  -19.2050  -18.6880   19.4593 C   0  0  0  0  0  0  0  0  0  0  0  0
  -22.2355   -8.7589   20.2492 C   0  0  0  0  0  0  0  0  0  0  0  0
  -22.9661   -8.8086   22.5516 C   0  0  0  0  0  0  0  0  0  0  0  0
  -18.6929  -18.8944   20.7395 C   0  0  0  0  0  0  0  0  0  0  0  0
  -23.2124   -5.4703   22.0762 C   0  0  0  0  0  0  0  0  0  0  0  0
  -23.8027   -4.4530   22.8261 C   0  0  0  0  0  0  0  0  0  0  0  0
  -19.7056  -21.0833   20.7853 C   0  0  0  0  0  0  0  0  0  0  0  0
  -22.0826   -4.6928   24.5056 C   0  0  0  0  0  0  0  0  0  0  0  0
  -23.7481  -10.4869   20.9996 C   0  0  0  0  0  0  0  0  0  0  0  0
  -24.1307  -13.0030   20.8249 C   0  0  0  0  0  0  0  0  0  0  0  0
  -25.9757  -16.6232   15.8962 C   0  0  0  0  0  0  0  0  0  0  0  0
  -19.9818  -19.6751   18.8358 C   0  0  0  0  0  0  0  0  0  0  0  0
  -25.0706  -16.9126   16.9352 C   0  0  0  0  0  0  0  0  0  0  0  0
  -20.2243  -20.8880   19.4961 C   0  0  0  0  0  0  0  0  0  0  0  0
  -28.0991  -20.1306   22.3283 C   0  0  0  0  0  0  0  0  0  0  0  0
  -28.1708  -19.1474   23.3151 C   0  0  0  0  0  0  0  0  0  0  0  0
  -29.8672  -17.9920   22.0405 C   0  0  0  0  0  0  0  0  0  0  0  0
  -22.2184   -8.2160   21.5340 C   0  0  0  0  0  0  0  0  0  0  0  0
  -18.9456  -20.0910   21.4038 C   0  0  0  0  0  0  0  0  0  0  0  0
  -22.0573   -6.0989   22.5411 C   0  0  0  0  0  0  0  0  0  0  0  0
  -23.2378   -4.0642   24.0407 C   0  0  0  0  0  0  0  0  0  0  0  0
  -21.4923   -5.7102   23.7558 C   0  0  0  0  0  0  0  0  0  0  0  0
  -28.9113  -20.0444   21.1975 C   0  0  0  0  0  0  0  0  0  0  0  0
  -29.0549  -18.0781   23.1712 C   0  0  0  0  0  0  0  0  0  0  0  0
  -29.7954  -18.9752   21.0537 C   0  0  0  0  0  0  0  0  0  0  0  0
  -24.5389  -11.6595   20.7241 C   0  0  0  0  0  0  0  0  0  0  0  0
  -25.2389  -13.7269   20.4585 C   0  0  0  0  0  0  0  0  0  0  0  0
  -22.8631  -13.5479   21.2149 C   0  0  0  0  0  0  0  0  0  0  0  0
  -22.9735  -19.8368   17.7740 C   0  0  0  0  0  0  0  0  0  0  0  0
  -22.0071  -22.7234   16.6533 C   0  0  0  0  0  0  0  0  0  0  0  0
  -19.8439  -25.3513   16.9014 C   0  0  0  0  0  0  0  0  0  0  0  0
  -30.7349  -14.6665   20.6948 C   0  0  0  0  0  0  0  0  0  0  0  0
  -26.9015  -17.6734   15.3353 C   0  0  0  0  0  0  0  0  0  0  0  0
  -20.5046  -19.4477   17.4439 C   0  0  0  0  0  0  0  0  0  0  0  0
  -21.0354  -21.9876   18.8623 C   0  0  0  0  0  0  0  0  0  0  0  0
  -26.4727  -19.1013   15.6631 C   0  0  0  0  0  0  0  0  0  0  0  0
  -29.5910  -12.2438   18.3499 C   0  0  0  0  0  0  0  0  0  0  0  0
  -26.1041  -19.2226   17.1383 C   0  0  0  0  0  0  0  0  0  0  0  0
  -28.1437  -11.9823   18.7707 C   0  0  0  0  0  0  0  0  0  0  0  0
  -30.4960  -12.4790   19.5572 C   0  0  0  0  0  0  0  0  0  0  0  0
  -28.5883  -13.2715   20.9012 C   0  0  0  0  0  0  0  0  0  0  0  0
  -24.9197  -18.3134   17.4876 C   0  0  1  0  0  0  0  0  0  0  0  0
  -21.7136  -20.3163   17.1104 C   0  0  1  0  0  0  0  0  0  0  0  0
  -27.6267  -13.0840   19.7153 C   0  0  2  0  0  0  0  0  0  0  0  0
  -27.2897  -19.2601   24.5206 C   0  0  0  0  0  0  0  0  0  0  0  0
  -19.3262  -27.5806   15.8720 C   0  0  0  0  0  0  0  0  0  0  0  0
  -24.3916  -23.9476   18.1112 C   0  0  0  0  0  0  0  0  0  0  0  0
  -23.3080  -26.1901   17.8553 C   0  0  0  0  0  0  0  0  0  0  0  0
  -23.9674  -24.8873   15.8328 C   0  0  0  0  0  0  0  0  0  0  0  0
  -17.1381  -24.4751   16.0828 C   0  0  0  0  0  0  0  0  0  0  0  0
  -30.8184  -16.8445   21.8816 C   0  0  0  0  0  0  0  0  0  0  0  0
  -27.1564  -21.2902   22.4603 C   0  0  0  0  0  0  0  0  0  0  0  0
  -22.3843  -19.6333   25.2863 C   0  0  0  0  0  0  0  0  0  0  0  0
  -22.8420  -20.7782   24.3770 C   0  0  0  0  0  0  0  0  0  0  0  0
  -20.9845  -19.0765   25.0050 C   0  0  0  0  0  0  0  0  0  0  0  0
  -22.8667  -20.4056   22.8923 C   0  0  0  0  0  0  0  0  0  0  0  0
  -19.8686  -20.0994   25.2308 C   0  0  0  0  0  0  0  0  0  0  0  0
  -23.3590  -21.5775   22.0369 C   0  0  0  0  0  0  0  0  0  0  0  0
  -18.4743  -19.5446   24.9351 C   0  0  0  0  0  0  0  0  0  0  0  0
  -24.7719  -22.0300   22.3850 C   0  0  0  0  0  0  0  0  0  0  0  0
  -18.2726  -19.1451   23.4795 C   0  0  0  0  0  0  0  0  0  1  0  0
  -21.9819  -24.1295   17.2023 C   0  0  1  0  0  0  0  0  0  0  0  0
  -19.0306  -26.0889   15.8531 C   0  0  2  0  0  0  0  0  0  0  0  0
  -23.3985  -24.7673   17.2634 C   0  0  0  0  0  0  0  0  0  0  0  0
  -25.8073  -11.5345   20.3248 N   0  0  0  0  0  0  0  0  0  0  0  0
  -26.2057  -12.8088   20.1714 N   0  0  0  0  0  0  0  0  0  0  0  0
  -21.5300  -21.7151   17.5027 N   0  0  0  0  0  0  0  0  0  0  0  0
  -29.9502  -13.5364   20.4115 N   0  0  0  0  0  0  0  0  0  0  0  0
  -25.4709  -15.0529   20.3570 N   0  0  0  0  0  0  0  0  0  0  0  0
  -21.8330  -12.6625   21.5601 N   0  0  0  0  0  0  0  0  0  0  0  0
  -23.6783  -18.9048   17.0365 N   0  0  0  0  0  0  0  0  0  0  0  0
  -21.0279  -24.8702   16.3839 N   0  0  0  0  0  0  0  0  0  0  0  0
  -30.1396  -15.6240   21.5068 N   0  0  0  0  0  0  0  0  0  0  0  0
  -17.5733  -25.8955   16.0975 N   0  3  0  0  0  0  0  0  0  0  0  0
  -25.7373  -20.9210   22.2009 N   0  3  0  0  0  0  0  0  0  0  0  0
  -22.6453  -14.7829   21.2402 O   0  0  0  0  0  0  0  0  0  0  0  0
  -23.2840  -20.2808   18.8732 O   0  0  0  0  0  0  0  0  0  0  0  0
  -22.4278  -22.5280   15.5103 O   0  0  0  0  0  0  0  0  0  0  0  0
  -19.4682  -25.2187   18.0641 O   0  0  0  0  0  0  0  0  0  0  0  0
  -31.8792  -14.8139   20.2521 O   0  0  0  0  0  0  0  0  0  0  0  0
  -21.4720   -7.1082   21.7951 O   0  0  0  0  0  0  0  0  0  0  0  0
  -18.4439  -20.2962   22.6625 O   0  0  0  0  0  0  0  0  0  1  0  0
  -23.8039   -3.0863   24.7599 F   0  0  0  0  0  0  0  0  0  0  0  0
  -20.3820   -6.3096   24.2069 F   0  0  0  0  0  0  0  0  0  0  0  0
  -28.8368  -20.9940   20.2522 F   0  0  0  0  0  0  0  0  0  0  0  0
  -29.1419  -16.8576   24.3991 Cl  0  0  0  0  0  0  0  0  0  0  0  0
  -30.7854  -18.9013   19.6394 Cl  0  0  0  0  0  0  0  0  0  0  0  0
  1  2  1  0  0  0  0
  1  5  2  0  0  0  0
  2  6  2  0  0  0  0
  3  8  2  0  0  0  0
  3 15  1  0  0  0  0
  4  9  1  0  0  0  0
  4 15  2  0  0  0  0
  5 17  1  0  0  0  0
  6 19  1  0  0  0  0
  7 10  2  0  0  0  0
  7 18  1  0  0  0  0
  8 24  1  0  0  0  0
  9 24  2  0  0  0  0
 10 25  1  0  0  0  0
 11 12  2  0  0  0  0
 11 26  1  0  0  0  0
 12 27  1  0  0  0  0
 13 20  1  0  0  0  0
 13 25  2  0  0  0  0
 14 27  2  0  0  0  0
 14 28  1  0  0  0  0
 15 32  1  0  0  0  0
 16 32  1  0  0  0  0
 16 33  2  0  0  0  0
 16 34  1  0  0  0  0
 17 19  2  0  0  0  0
 17 39  1  0  0  0  0
 18 20  2  0  0  0  0
 18 40  1  0  0  0  0
 19 48  1  0  0  0  0
 20 41  1  0  0  0  0
 21 22  1  0  0  0  0
 21 29  2  0  0  0  0
 21 58  1  0  0  0  0
 22 30  2  0  0  0  0
 22 51  1  0  0  0  0
 23 30  1  0  0  0  0
 23 31  2  0  0  0  0
 23 57  1  0  0  0  0
 24 87  1  0  0  0  0
 25 88  1  0  0  0  0
 26 28  2  0  0  0  0
 26 87  1  0  0  0  0
 27 89  1  0  0  0  0
 28 90  1  0  0  0  0
 29 31  1  0  0  0  0
 29 91  1  0  0  0  0
 30 92  1  0  0  0  0
 31 93  1  0  0  0  0
 32 71  2  0  0  0  0
 33 72  1  0  0  0  0
 33 75  1  0  0  0  0
 34 76  1  0  0  0  0
 34 82  2  0  0  0  0
 35 49  1  0  0  0  0
 35 77  1  0  0  0  0
 35 83  2  0  0  0  0
 36 68  1  0  0  0  0
 36 73  1  0  0  0  0
 36 84  2  0  0  0  0
 37 69  1  0  0  0  0
 37 78  1  0  0  0  0
 37 85  2  0  0  0  0
 38 74  1  0  0  0  0
 38 79  1  0  0  0  0
 38 86  2  0  0  0  0
 39 42  1  0  0  0  0
 40 49  1  0  0  0  0
 41 73  1  0  0  0  0
 42 44  1  0  0  0  0
 43 45  1  0  0  0  0
 43 46  1  0  0  0  0
 44 48  1  0  0  0  0
 45 50  1  0  0  0  0
 46 74  1  0  0  0  0
 47 50  1  0  0  0  0
 47 74  1  0  0  0  0
 48 77  1  0  0  0  0
 49 73  1  0  0  0  0
 50 72  1  0  0  0  0
 52 69  1  0  0  0  0
 53 70  1  0  0  0  0
 54 70  1  0  0  0  0
 55 70  1  0  0  0  0
 56 80  1  0  0  0  0
 57 79  1  0  0  0  0
 58 81  1  0  0  0  0
 59 60  1  0  0  0  0
 59 61  1  0  0  0  0
 60 62  1  0  0  0  0
 61 63  1  0  0  0  0
 62 64  1  0  0  0  0
 63 65  1  0  0  0  0
 64 66  1  0  0  0  0
 65 67  1  0  0  0  0
 66 81  1  0  0  0  0
 67 88  1  0  0  0  0
 68 70  1  0  0  0  0
 68 78  1  0  0  0  0
 69 80  1  0  0  0  0
 71 72  1  0  0  0  0
M  CHG  2  80   1  81   1
M  ISO  4  38 100  67 101  79 100  88 101
M  END
> <Batch ID>
0023

> <Smiles>
CNC(C)C(=O)NC(C(=O)N1Cc2cc([101O:1][101CH2:1]CCCCCCCCNCc3c(C)c(Cl)c(C[100NH:0][100C:0](=O)N4CCCC(n5nc(-c6ccc(Oc7ccc(F)cc7F)cc6)c(C(N)=O)c5N)C4)c(Cl)c3F)ccc2CC1C(=O)NC1CCCc2ccccc21)C(C)(C)C

> <Shape>
0.192

> <Color>
0.197

> <Negative vol penalty>
0.000

$$$$

  -OEChem-04052316193D

 98107  0     1  0  0  0  0  0999 V2000
  -19.6965  -11.7477   17.5122 C   0  0  0  0  0  0  0  0  0  0  0  0
  -20.2704  -13.0100   17.6246 C   0  0  0  0  0  0  0  0  0  0  0  0
  -20.1891  -25.1180   24.0884 C   0  0  0  0  0  0  0  0  0  0  0  0
  -21.3398  -24.9382   21.9716 C   0  0  0  0  0  0  0  0  0  0  0  0
  -20.2273  -10.6755   18.2282 C   0  0  0  0  0  0  0  0  0  0  0  0
  -21.3750  -13.2010   18.4540 C   0  0  0  0  0  0  0  0  0  0  0  0
  -26.0623  -17.0300   17.5192 C   0  0  0  0  0  0  0  0  0  0  0  0
  -20.6038  -23.8291   24.4233 C   0  0  0  0  0  0  0  0  0  0  0  0
  -21.7545  -23.6493   22.3066 C   0  0  0  0  0  0  0  0  0  0  0  0
  -26.3429  -18.3058   18.0066 C   0  0  0  0  0  0  0  0  0  0  0  0
  -23.4180  -20.4479   22.7562 C   0  0  0  0  0  0  0  0  0  0  0  0
  -24.7488  -20.1098   22.5111 C   0  0  0  0  0  0  0  0  0  0  0  0
  -30.7254  -27.0758   21.6722 C   0  0  0  0  0  0  0  0  0  0  0  0
  -27.7165  -17.3362   19.7364 C   0  0  0  0  0  0  0  0  0  0  0  0
  -25.4707  -21.8821   23.9860 C   0  0  0  0  0  0  0  0  0  0  0  0
  -20.5570  -25.6726   22.8625 C   0  0  0  0  0  0  0  0  0  0  0  0
  -18.8043  -27.4665   22.3962 C   0  0  0  0  0  0  0  0  0  0  0  0
  -21.3448  -10.8515   19.0593 C   0  0  0  0  0  0  0  0  0  0  0  0
  -26.5988  -15.8953   18.1444 C   0  0  0  0  0  0  0  0  0  0  0  0
  -21.9204  -12.1305   19.1829 C   0  0  0  0  0  0  0  0  0  0  0  0
  -30.2198  -26.0415   20.8618 C   0  0  0  0  0  0  0  0  0  0  0  0
  -27.4433  -16.0473   19.2534 C   0  0  0  0  0  0  0  0  0  0  0  0
  -28.8310  -26.0038   20.6205 C   0  0  0  0  0  0  0  0  0  0  0  0
  -29.8785  -28.0211   22.2537 C   0  0  0  0  0  0  0  0  0  0  0  0
  -27.9871  -26.9537   21.2195 C   0  0  0  0  0  0  0  0  0  0  0  0
  -21.3865  -23.0947   23.5325 C   0  0  0  0  0  0  0  0  0  0  0  0
  -27.1678  -18.4588   19.1171 C   0  0  0  0  0  0  0  0  0  0  0  0
  -23.1134  -21.5031   23.6161 C   0  0  0  0  0  0  0  0  0  0  0  0
  -25.7752  -20.8269   23.1260 C   0  0  0  0  0  0  0  0  0  0  0  0
  -24.1398  -22.2202   24.2310 C   0  0  0  0  0  0  0  0  0  0  0  0
  -28.5086  -27.9573   22.0314 C   0  0  0  0  0  0  0  0  0  0  0  0
  -20.1284  -27.0038   22.5156 C   0  0  0  0  0  0  0  0  0  0  0  0
  -18.9327  -28.7897   22.0511 C   0  0  0  0  0  0  0  0  0  0  0  0
  -17.5686  -26.7631   22.5808 C   0  0  0  0  0  0  0  0  0  0  0  0
  -25.3773  -13.3594   19.6212 C   0  0  0  0  0  0  0  0  0  0  0  0
  -28.4717  -12.3879   19.6767 C   0  0  0  0  0  0  0  0  0  0  0  0
  -31.7765  -13.2355   19.5929 C   0  0  0  0  0  0  0  0  0  0  0  0
  -23.5343  -32.5677   22.9489 C   0  0  0  0  0  0  0  0  0  0  0  0
  -21.8541   -9.6726   19.8502 C   0  0  0  0  0  0  0  0  0  0  0  0
  -26.3081  -14.5275   17.5902 C   0  0  0  0  0  0  0  0  0  0  0  0
  -28.0608  -14.8623   19.9483 C   0  0  0  0  0  0  0  0  0  0  0  0
  -28.2066  -24.9376   19.7636 C   0  0  0  0  0  0  0  0  0  0  0  0
  -23.2562   -9.8797   20.4174 C   0  0  0  0  0  0  0  0  0  0  0  0
  -22.6265  -30.6606   19.7367 C   0  0  0  0  0  0  0  0  0  0  0  0
  -23.3693  -11.2521   21.0735 C   0  0  0  0  0  0  0  0  0  0  0  0
  -21.1571  -30.5204   20.1229 C   0  0  0  0  0  0  0  0  0  0  0  0
  -23.3043  -31.7547   20.5558 C   0  0  0  0  0  0  0  0  0  0  0  0
  -22.2641  -30.4963   22.4418 C   0  0  0  0  0  0  0  0  0  0  0  0
  -30.3895  -23.7763   19.7021 C   0  0  0  0  0  0  0  0  0  0  0  0
  -23.1345  -12.3724   20.0532 C   0  0  1  0  0  0  0  0  0  0  0  0
  -26.4938  -13.4148   18.6172 C   0  0  1  0  0  0  0  0  0  0  0  0
  -20.9572  -30.3425   21.6439 C   0  0  2  0  0  0  0  0  0  0  0  0
  -31.1590  -25.0189   20.2126 C   0  0  0  0  0  0  0  0  0  0  0  0
  -26.5050  -26.9179   21.0131 C   0  0  0  0  0  0  0  0  0  0  0  0
  -32.2117  -24.4922   21.2148 C   0  0  0  0  0  0  0  0  0  0  0  0
  -31.9002  -25.7037   19.0436 C   0  0  0  0  0  0  0  0  0  0  0  0
  -34.0720  -12.2269   19.6953 C   0  0  0  0  0  0  0  0  0  0  0  0
  -29.4037  -22.7052   16.9654 C   0  0  0  0  0  0  0  0  0  0  0  0
  -28.1677  -12.0077   22.6889 C   0  0  0  0  0  0  0  0  0  0  0  0
  -30.6643  -11.9336   22.8612 C   0  0  0  0  0  0  0  0  0  0  0  0
  -29.4555  -10.2014   21.5341 C   0  0  0  0  0  0  0  0  0  0  0  0
  -32.4638  -14.2383   16.8946 C   0  0  0  0  0  0  0  0  0  0  0  0
  -30.4491  -29.0997   23.1118 C   0  0  0  0  0  0  0  0  0  0  0  0
  -28.6463  -33.4987   23.1427 C   0  0  0  0  0  0  0  0  0  0  0  0
  -27.2829  -33.9461   22.6114 C   0  0  0  0  0  0  0  0  0  0  0  0
  -29.6365  -33.2556   22.0011 C   0  0  0  0  0  0  0  0  0  0  0  0
  -26.3031  -34.2182   23.7566 C   0  0  0  0  0  0  0  0  0  0  0  0
  -31.0113  -32.8474   22.5379 C   0  0  0  0  0  0  0  0  0  0  0  0
  -28.4309  -21.8436   19.1315 C   0  0  0  0  0  0  0  0  0  0  0  0
  -24.9150  -34.6093   23.2601 C   0  0  0  0  0  0  0  0  0  0  0  0
  -30.9969  -31.5292   23.3020 C   0  0  0  0  0  0  0  0  0  0  0  0
  -27.4563  -20.7733   18.6525 C   0  0  0  0  0  0  0  0  0  1  0  0
  -29.6284  -12.5569   20.6320 C   0  0  1  0  0  0  0  0  0  0  0  0
  -32.9385  -12.6809   18.7888 C   0  0  2  0  0  0  0  0  0  0  0  0
  -28.5500  -23.0375   18.1821 C   0  0  1  0  0  0  0  0  0  0  0  0
  -29.4660  -11.6973   21.9174 C   0  0  0  0  0  0  0  0  0  0  0  0
  -21.0317  -27.9557   22.2665 N   0  0  0  0  0  0  0  0  0  0  0  0
  -20.2738  -29.0297   21.9869 N   0  0  0  0  0  0  0  0  0  0  0  0
  -27.7414  -13.5454   19.3727 N   0  0  0  0  0  0  0  0  0  0  0  0
  -23.0360  -31.6578   21.9963 N   0  0  0  0  0  0  0  0  0  0  0  0
  -18.0282  -29.7597   21.7992 N   0  0  0  0  0  0  0  0  0  0  0  0
  -17.6177  -25.4078   22.9343 N   0  0  0  0  0  0  0  0  0  0  0  0
  -24.3130  -12.5669   19.2359 N   0  0  0  0  0  0  0  0  0  0  0  0
  -30.8358  -12.2653   19.8667 N   0  0  0  0  0  0  0  0  0  0  0  0
  -24.3208  -33.5906   22.4249 N   0  0  0  0  0  0  0  0  0  0  0  0
  -29.1908  -24.1949   18.8954 N   0  3  1  0  0  0  0  0  0  0  0  0
  -33.4672  -13.7188   17.8591 N   0  3  0  0  0  0  0  0  0  0  0  0
  -30.4844  -30.4296   22.4435 N   0  3  0  0  0  0  0  0  0  0  0  0
  -16.4540  -27.3158   22.4206 O   0  0  0  0  0  0  0  0  0  0  0  0
  -25.4750  -13.9879   20.6687 O   0  0  0  0  0  0  0  0  0  0  0  0
  -28.2297  -11.2712   19.2117 O   0  0  0  0  0  0  0  0  0  0  0  0
  -31.7117  -14.4109   19.9461 O   0  0  0  0  0  0  0  0  0  0  0  0
  -23.3010  -32.4747   24.1577 O   0  0  0  0  0  0  0  0  0  0  0  0
  -21.7916  -21.8370   23.8591 O   0  0  0  0  0  0  0  0  0  0  0  0
  -27.4447  -19.7115   19.5986 O   0  0  0  0  0  0  0  0  0  1  0  0
  -27.0531  -20.5011   22.8917 F   0  0  0  0  0  0  0  0  0  0  0  0
  -23.8533  -23.2341   25.0590 F   0  0  0  0  0  0  0  0  0  0  0  0
  -27.6936  -28.8614   22.5949 F   0  0  0  0  0  0  0  0  0  0  0  0
  1  2  1  0  0  0  0
  1  5  2  0  0  0  0
  2  6  2  0  0  0  0
  3  8  2  0  0  0  0
  3 16  1  0  0  0  0
  4  9  1  0  0  0  0
  4 16  2  0  0  0  0
  5 18  1  0  0  0  0
  6 20  1  0  0  0  0
  7 10  2  0  0  0  0
  7 19  1  0  0  0  0
  8 26  1  0  0  0  0
  9 26  2  0  0  0  0
 10 27  1  0  0  0  0
 11 12  2  0  0  0  0
 11 28  1  0  0  0  0
 12 29  1  0  0  0  0
 13 21  2  0  0  0  0
 13 24  1  0  0  0  0
 14 22  1  0  0  0  0
 14 27  2  0  0  0  0
 15 29  2  0  0  0  0
 15 30  1  0  0  0  0
 16 32  1  0  0  0  0
 17 32  1  0  0  0  0
 17 33  2  0  0  0  0
 17 34  1  0  0  0  0
 18 20  2  0  0  0  0
 18 39  1  0  0  0  0
 19 22  2  0  0  0  0
 19 40  1  0  0  0  0
 20 50  1  0  0  0  0
 21 23  1  0  0  0  0
 21 53  1  0  0  0  0
 22 41  1  0  0  0  0
 23 25  2  0  0  0  0
 23 42  1  0  0  0  0
 24 31  2  0  0  0  0
 24 63  1  0  0  0  0
 25 31  1  0  0  0  0
 25 54  1  0  0  0  0
 26 94  1  0  0  0  0
 27 95  1  0  0  0  0
 28 30  2  0  0  0  0
 28 94  1  0  0  0  0
 29 96  1  0  0  0  0
 30 97  1  0  0  0  0
 31 98  1  0  0  0  0
 32 77  2  0  0  0  0
 33 78  1  0  0  0  0
 33 81  1  0  0  0  0
 34 82  1  0  0  0  0
 34 89  2  0  0  0  0
 35 51  1  0  0  0  0
 35 83  1  0  0  0  0
 35 90  2  0  0  0  0
 36 73  1  0  0  0  0
 36 79  1  0  0  0  0
 36 91  2  0  0  0  0
 37 74  1  0  0  0  0
 37 84  1  0  0  0  0
 37 92  2  0  0  0  0
 38 80  1  0  0  0  0
 38 85  1  0  0  0  0
 38 93  2  0  0  0  0
 39 43  1  0  0  0  0
 40 51  1  0  0  0  0
 41 79  1  0  0  0  0
 42 86  1  0  0  0  0
 43 45  1  0  0  0  0
 44 46  1  0  0  0  0
 44 47  1  0  0  0  0
 45 50  1  0  0  0  0
 46 52  1  0  0  0  0
 47 80  1  0  0  0  0
 48 52  1  0  0  0  0
 48 80  1  0  0  0  0
 49 53  1  0  0  0  0
 49 86  1  0  0  0  0
 50 83  1  0  0  0  0
 51 79  1  0  0  0  0
 52 78  1  0  0  0  0
 53 55  1  0  0  0  0
 53 56  1  0  0  0  0
 57 74  1  0  0  0  0
 58 75  1  0  0  0  0
 59 76  1  0  0  0  0
 60 76  1  0  0  0  0
 61 76  1  0  0  0  0
 62 87  1  0  0  0  0
 63 88  1  0  0  0  0
 64 65  1  0  0  0  0
 64 66  1  0  0  0  0
 65 67  1  0  0  0  0
 66 68  1  0  0  0  0
 67 70  1  0  0  0  0
 68 71  1  0  0  0  0
 69 72  1  0  0  0  0
 69 75  1  0  0  0  0
 70 85  1  0  0  0  0
 71 88  1  0  0  0  0
 72 95  1  0  0  0  0
 73 76  1  0  0  0  0
 73 84  1  0  0  0  0
 74 87  1  0  0  0  0
 75 86  1  0  0  0  0
 77 78  1  0  0  0  0
M  CHG  3  86   1  87   1  88   1
M  ISO  4  38 100  72 101  85 100  95 101
M  END
> <Batch ID>
0023

> <Smiles>
CNC(C)C(=O)NC(C(=O)N1Cc2cc([101O:1][101CH2:1]CC(C)N3Cc4c(cc(CNCCCCCCC[100NH:0][100C:0](=O)N5CCCC(n6nc(-c7ccc(Oc8ccc(F)cc8F)cc7)c(C(N)=O)c6N)C5)c(F)c4C)C(C)(C)C3)ccc2CC1C(=O)NC1CCCc2ccccc21)C(C)(C)C

> <Shape>
0.257

> <Color>
0.043

> <Negative vol penalty>
0.000

$$$$

  -OEChem-04052316193D

 91100  0     1  0  0  0  0  0999 V2000
  -22.2552  -21.9921   22.0118 C   0  0  0  0  0  0  0  0  0  0  0  0
  -22.5558  -23.0657   21.1797 C   0  0  0  0  0  0  0  0  0  0  0  0
  -23.7326   -9.9588   21.9778 C   0  0  0  0  0  0  0  0  0  0  0  0
  -22.2752  -10.1219   20.0578 C   0  0  0  0  0  0  0  0  0  0  0  0
  -21.9700  -22.2139   23.3584 C   0  0  0  0  0  0  0  0  0  0  0  0
  -22.5701  -24.3620   21.6935 C   0  0  0  0  0  0  0  0  0  0  0  0
  -26.5900  -27.0225   20.1419 C   0  0  0  0  0  0  0  0  0  0  0  0
  -23.4481   -8.5970   22.0781 C   0  0  0  0  0  0  0  0  0  0  0  0
  -21.9907   -8.7600   20.1581 C   0  0  0  0  0  0  0  0  0  0  0  0
  -26.5486  -27.5431   18.8492 C   0  0  0  0  0  0  0  0  0  0  0  0
  -20.9428   -6.6561   23.2531 C   0  0  0  0  0  0  0  0  0  0  0  0
  -20.6632   -6.1448   24.5203 C   0  0  0  0  0  0  0  0  0  0  0  0
  -22.4958  -20.6978   17.4865 C   0  0  0  0  0  0  0  0  0  0  0  0
  -25.9320  -29.6972   19.7429 C   0  0  0  0  0  0  0  0  0  0  0  0
  -22.5438   -4.6403   24.3283 C   0  0  0  0  0  0  0  0  0  0  0  0
  -23.1460  -10.7213   20.9677 C   0  0  0  0  0  0  0  0  0  0  0  0
  -24.6997  -12.7215   20.6630 C   0  0  0  0  0  0  0  0  0  0  0  0
  -21.9903  -23.5125   23.8911 C   0  0  0  0  0  0  0  0  0  0  0  0
  -26.2916  -27.8339   21.2459 C   0  0  0  0  0  0  0  0  0  0  0  0
  -22.2835  -24.6015   23.0482 C   0  0  0  0  0  0  0  0  0  0  0  0
  -23.0045  -21.8067   16.7810 C   0  0  0  0  0  0  0  0  0  0  0  0
  -25.9728  -29.1851   21.0488 C   0  0  0  0  0  0  0  0  0  0  0  0
  -24.2086  -21.6673   16.0650 C   0  0  0  0  0  0  0  0  0  0  0  0
  -23.1558  -19.4704   17.4830 C   0  0  0  0  0  0  0  0  0  0  0  0
  -22.5772   -7.9975   21.1682 C   0  0  0  0  0  0  0  0  0  0  0  0
  -26.2167  -28.8799   18.6493 C   0  0  0  0  0  0  0  0  0  0  0  0
  -22.0229   -6.1594   22.5233 C   0  0  0  0  0  0  0  0  0  0  0  0
  -21.4637   -5.1369   25.0580 C   0  0  0  0  0  0  0  0  0  0  0  0
  -22.8234   -5.1516   23.0610 C   0  0  0  0  0  0  0  0  0  0  0  0
  -24.8641  -20.4181   16.0804 C   0  0  0  0  0  0  0  0  0  0  0  0
  -24.3427  -19.3304   16.7791 C   0  0  0  0  0  0  0  0  0  0  0  0
  -23.4390  -12.1282   20.8639 C   0  0  0  0  0  0  0  0  0  0  0  0
  -24.4442  -14.0707   20.6374 C   0  0  0  0  0  0  0  0  0  0  0  0
  -25.9868  -12.1078   20.5128 C   0  0  0  0  0  0  0  0  0  0  0  0
  -24.0667  -27.8037   23.5159 C   0  0  0  0  0  0  0  0  0  0  0  0
  -25.8121  -30.2606   24.7157 C   0  0  0  0  0  0  0  0  0  0  0  0
  -27.5156  -33.1627   23.4142 C   0  0  0  0  0  0  0  0  0  0  0  0
  -21.4025  -18.4211   18.9566 C   0  0  0  0  0  0  0  0  0  0  0  0
  -21.6288  -23.7076   25.3424 C   0  0  0  0  0  0  0  0  0  0  0  0
  -26.3667  -27.2640   22.6358 C   0  0  0  0  0  0  0  0  0  0  0  0
  -22.2398  -23.1036   16.8622 C   0  0  0  0  0  0  0  0  0  0  0  0
  -25.6640  -30.1034   22.2019 C   0  0  0  0  0  0  0  0  0  0  0  0
  -22.0323  -25.0732   25.8923 C   0  0  0  0  0  0  0  0  0  0  0  0
  -20.2562  -16.6531   21.8266 C   0  0  0  0  0  0  0  0  0  0  0  0
  -21.6252  -26.1799   24.9246 C   0  0  0  0  0  0  0  0  0  0  0  0
  -21.0858  -15.3671   21.8155 C   0  0  0  0  0  0  0  0  0  0  0  0
  -19.8840  -17.1002   20.4141 C   0  0  0  0  0  0  0  0  0  0  0  0
  -21.8437  -15.9405   19.4737 C   0  0  0  0  0  0  0  0  0  0  0  0
  -21.7816  -23.6514   15.5193 C   0  0  0  0  0  0  0  0  0  0  0  0
  -23.9451  -23.4314   14.2284 C   0  0  0  0  0  0  0  0  0  0  0  0
  -24.8596  -22.7929   15.2819 C   0  0  1  0  0  0  0  0  0  0  0  0
  -22.3333  -26.0197   23.5739 C   0  0  1  0  0  0  0  0  0  0  0  0
  -25.5427  -28.0513   23.6499 C   0  0  1  0  0  0  0  0  0  0  0  0
  -22.2976  -15.4864   20.8706 C   0  0  2  0  0  0  0  0  0  0  0  0
  -25.5735  -23.7970   16.1920 C   0  0  0  0  0  0  0  0  0  0  0  0
  -29.4841  -34.4366   24.3085 C   0  0  0  0  0  0  0  0  0  0  0  0
  -23.7019  -32.0459   26.0077 C   0  0  0  0  0  0  0  0  0  0  0  0
  -25.1571  -34.0179   25.4957 C   0  0  0  0  0  0  0  0  0  0  0  0
  -25.9814  -32.2242   27.0208 C   0  0  0  0  0  0  0  0  0  0  0  0
  -29.0229  -32.8342   20.8886 C   0  0  0  0  0  0  0  0  0  0  0  0
  -23.7447  -27.2664   14.5233 C   0  0  0  0  0  0  0  0  0  0  0  0
  -24.7117  -28.3648   14.0752 C   0  0  0  0  0  0  0  0  0  0  0  0
  -23.3794  -26.3409   13.3592 C   0  0  0  0  0  0  0  0  0  0  0  0
  -25.1036  -29.2698   15.2413 C   0  0  0  0  0  0  0  0  0  0  0  0
  -22.3586  -25.2727   13.7315 C   0  0  0  0  0  0  0  0  0  0  0  0
  -25.8257  -28.4960   16.3351 C   0  0  0  0  0  0  0  0  0  1  0  0
  -25.8078  -31.7602   24.5416 C   0  0  1  0  0  0  0  0  0  0  0  0
  -29.0165  -33.3726   23.3276 C   0  0  2  0  0  0  0  0  0  0  0  0
  -25.1534  -32.4946   25.7457 C   0  0  0  0  0  0  0  0  0  0  0  0
  -22.4556  -13.0270   20.9594 N   0  0  0  0  0  0  0  0  0  0  0  0
  -23.0984  -14.1987   20.8179 N   0  0  0  0  0  0  0  0  0  0  0  0
  -25.7446  -29.4976   23.5413 N   0  0  0  0  0  0  0  0  0  0  0  0
  -21.0822  -17.1952   19.5772 N   0  0  0  0  0  0  0  0  0  0  0  0
  -25.2416  -15.1484   20.4785 N   0  0  0  0  0  0  0  0  0  0  0  0
  -26.0704  -10.7097   20.5641 N   0  0  0  0  0  0  0  0  0  0  0  0
  -22.5817  -18.3999   18.2125 N   0  0  0  0  0  0  0  0  0  0  0  0
  -23.7028  -26.4788   23.6636 N   0  0  0  0  0  0  0  0  0  0  0  0
  -27.1917  -32.1455   24.2871 N   0  0  0  0  0  0  0  0  0  0  0  0
  -22.9071  -24.3604   14.8052 N   0  3  1  0  0  0  0  0  0  0  0  0
  -29.4013  -33.7994   21.9525 N   0  3  0  0  0  0  0  0  0  0  0  0
  -27.0340  -12.7800   20.3546 O   0  0  0  0  0  0  0  0  0  0  0  0
  -23.3136  -28.7451   23.2963 O   0  0  0  0  0  0  0  0  0  0  0  0
  -25.8804  -29.7838   25.8513 O   0  0  0  0  0  0  0  0  0  0  0  0
  -26.7108  -33.8363   22.7747 O   0  0  0  0  0  0  0  0  0  0  0  0
  -20.6981  -19.4240   19.0986 O   0  0  0  0  0  0  0  0  0  0  0  0
  -22.2997   -6.6686   21.2656 O   0  0  0  0  0  0  0  0  0  0  0  0
  -26.1747  -29.3942   17.3793 O   0  0  0  0  0  0  0  0  0  1  0  0
  -21.1960   -4.6471   26.2756 F   0  0  0  0  0  0  0  0  0  0  0  0
  -23.8631   -4.6713   22.3652 F   0  0  0  0  0  0  0  0  0  0  0  0
  -26.3932  -20.1718   15.2586 Cl  0  0  0  0  0  0  0  0  0  0  0  0
  -25.1390  -17.7812   16.8043 Cl  0  0  0  0  0  0  0  0  0  0  0  0
  1  2  1  0  0  0  0
  1  5  2  0  0  0  0
  2  6  2  0  0  0  0
  3  8  2  0  0  0  0
  3 16  1  0  0  0  0
  4  9  1  0  0  0  0
  4 16  2  0  0  0  0
  5 18  1  0  0  0  0
  6 20  1  0  0  0  0
  7 10  2  0  0  0  0
  7 19  1  0  0  0  0
  8 25  1  0  0  0  0
  9 25  2  0  0  0  0
 10 26  1  0  0  0  0
 11 12  2  0  0  0  0
 11 27  1  0  0  0  0
 12 28  1  0  0  0  0
 13 21  1  0  0  0  0
 13 24  2  0  0  0  0
 14 22  1  0  0  0  0
 14 26  2  0  0  0  0
 15 28  2  0  0  0  0
 15 29  1  0  0  0  0
 16 32  1  0  0  0  0
 17 32  1  0  0  0  0
 17 33  2  0  0  0  0
 17 34  1  0  0  0  0
 18 20  2  0  0  0  0
 18 39  1  0  0  0  0
 19 22  2  0  0  0  0
 19 40  1  0  0  0  0
 20 52  1  0  0  0  0
 21 23  2  0  0  0  0
 21 41  1  0  0  0  0
 22 42  1  0  0  0  0
 23 30  1  0  0  0  0
 23 51  1  0  0  0  0
 24 31  1  0  0  0  0
 24 76  1  0  0  0  0
 25 86  1  0  0  0  0
 26 87  1  0  0  0  0
 27 29  2  0  0  0  0
 27 86  1  0  0  0  0
 28 88  1  0  0  0  0
 29 89  1  0  0  0  0
 30 31  2  0  0  0  0
 30 90  1  0  0  0  0
 31 91  1  0  0  0  0
 32 70  2  0  0  0  0
 33 71  1  0  0  0  0
 33 74  1  0  0  0  0
 34 75  1  0  0  0  0
 34 81  2  0  0  0  0
 35 53  1  0  0  0  0
 35 77  1  0  0  0  0
 35 82  2  0  0  0  0
 36 67  1  0  0  0  0
 36 72  1  0  0  0  0
 36 83  2  0  0  0  0
 37 68  1  0  0  0  0
 37 78  1  0  0  0  0
 37 84  2  0  0  0  0
 38 73  1  0  0  0  0
 38 76  1  0  0  0  0
 38 85  2  0  0  0  0
 39 43  1  0  0  0  0
 40 53  1  0  0  0  0
 41 49  1  0  0  0  0
 42 72  1  0  0  0  0
 43 45  1  0  0  0  0
 44 46  1  0  0  0  0
 44 47  1  0  0  0  0
 45 52  1  0  0  0  0
 46 54  1  0  0  0  0
 47 73  1  0  0  0  0
 48 54  1  0  0  0  0
 48 73  1  0  0  0  0
 49 79  1  0  0  0  0
 50 51  1  0  0  0  0
 50 79  1  0  0  0  0
 51 55  1  0  0  0  0
 52 77  1  0  0  0  0
 53 72  1  0  0  0  0
 54 71  1  0  0  0  0
 56 68  1  0  0  0  0
 57 69  1  0  0  0  0
 58 69  1  0  0  0  0
 59 69  1  0  0  0  0
 60 80  1  0  0  0  0
 61 62  1  0  0  0  0
 61 63  1  0  0  0  0
 62 64  1  0  0  0  0
 63 65  1  0  0  0  0
 64 66  1  0  0  0  0
 65 79  1  0  0  0  0
 66 87  1  0  0  0  0
 67 69  1  0  0  0  0
 67 78  1  0  0  0  0
 68 80  1  0  0  0  0
 70 71  1  0  0  0  0
M  CHG  2  79   1  80   1
M  ISO  4  38 100  66 101  76 100  87 101
M  END
> <Batch ID>
0023

> <Smiles>
CNC(C)C(=O)NC(C(=O)N1Cc2cc([101O:1][101CH2:1]CCCCCN3CCc4cc([100NH:0][100C:0](=O)N5CCCC(n6nc(-c7ccc(Oc8ccc(F)cc8F)cc7)c(C(N)=O)c6N)C5)c(Cl)c(Cl)c4C(C)C3)ccc2CC1C(=O)NC1CCCc2ccccc21)C(C)(C)C

> <Shape>
0.204

> <Color>
0.129

> <Negative vol penalty>
0.000

$$$$

  -OEChem-04052316193D

 94102  0     1  0  0  0  0  0999 V2000
  -19.2898  -31.4873   14.9147 C   0  0  0  0  0  0  0  0  0  0  0  0
  -20.2768  -30.5682   15.2563 C   0  0  0  0  0  0  0  0  0  0  0  0
  -25.7887  -11.3511   19.4913 C   0  0  0  0  0  0  0  0  0  0  0  0
  -26.3549  -12.9000   21.2570 C   0  0  0  0  0  0  0  0  0  0  0  0
  -19.4589  -32.8366   15.2224 C   0  0  0  0  0  0  0  0  0  0  0  0
  -21.4340  -30.9982   15.9046 C   0  0  0  0  0  0  0  0  0  0  0  0
  -24.6381  -27.9383   20.1327 C   0  0  0  0  0  0  0  0  0  0  0  0
  -24.4497  -11.3984   19.8791 C   0  0  0  0  0  0  0  0  0  0  0  0
  -25.0159  -12.9474   21.6448 C   0  0  0  0  0  0  0  0  0  0  0  0
  -25.7965  -27.1663   20.0548 C   0  0  0  0  0  0  0  0  0  0  0  0
  -22.5076  -10.0509   22.2950 C   0  0  0  0  0  0  0  0  0  0  0  0
  -21.8158   -8.8429   22.3821 C   0  0  0  0  0  0  0  0  0  0  0  0
  -27.1096  -29.0815   20.7081 C   0  0  0  0  0  0  0  0  0  0  0  0
  -20.2456   -9.6222   20.7195 C   0  0  0  0  0  0  0  0  0  0  0  0
  -27.7919  -20.2454   17.7890 C   0  0  0  0  0  0  0  0  0  0  0  0
  -26.7414  -12.1018   20.1803 C   0  0  0  0  0  0  0  0  0  0  0  0
  -28.7692  -12.8842   18.8449 C   0  0  0  0  0  0  0  0  0  0  0  0
  -20.6144  -33.2819   15.8835 C   0  0  0  0  0  0  0  0  0  0  0  0
  -24.7082  -29.2928   20.4889 C   0  0  0  0  0  0  0  0  0  0  0  0
  -21.6193  -32.3550   16.2202 C   0  0  0  0  0  0  0  0  0  0  0  0
  -25.9505  -29.8678   20.7923 C   0  0  0  0  0  0  0  0  0  0  0  0
  -29.0178  -20.8238   18.0761 C   0  0  0  0  0  0  0  0  0  0  0  0
  -29.8638  -20.1544   18.9532 C   0  0  0  0  0  0  0  0  0  0  0  0
  -29.4638  -18.9440   19.5085 C   0  0  0  0  0  0  0  0  0  0  0  0
  -24.0633  -12.1966   20.9558 C   0  0  0  0  0  0  0  0  0  0  0  0
  -27.0327  -27.7385   20.3397 C   0  0  0  0  0  0  0  0  0  0  0  0
  -22.0683  -11.0447   21.4202 C   0  0  0  0  0  0  0  0  0  0  0  0
  -20.6848   -8.6285   21.5944 C   0  0  0  0  0  0  0  0  0  0  0  0
  -20.9374  -10.8303   20.6325 C   0  0  0  0  0  0  0  0  0  0  0  0
  -28.1248  -12.0529   19.7805 C   0  0  0  0  0  0  0  0  0  0  0  0
  -28.2179  -18.4498   19.1575 C   0  0  0  0  0  0  0  0  0  0  0  0
  -30.0672  -12.4354   18.8235 C   0  0  0  0  0  0  0  0  0  0  0  0
  -28.2418  -13.9654   18.0649 C   0  0  0  0  0  0  0  0  0  0  0  0
  -23.9691  -32.0307   19.0533 C   0  0  0  0  0  0  0  0  0  0  0  0
  -24.7105  -33.2970   21.9463 C   0  0  0  0  0  0  0  0  0  0  0  0
  -26.4061  -32.9948   24.8925 C   0  0  0  0  0  0  0  0  0  0  0  0
  -34.5371  -10.8801   21.9728 C   0  0  0  0  0  0  0  0  0  0  0  0
  -20.7737  -34.7573   16.1528 C   0  0  0  0  0  0  0  0  0  0  0  0
  -23.4466  -30.1051   20.5943 C   0  0  0  0  0  0  0  0  0  0  0  0
  -26.0775  -31.3124   21.1992 C   0  0  0  0  0  0  0  0  0  0  0  0
  -21.8611  -35.0759   17.1757 C   0  0  0  0  0  0  0  0  0  0  0  0
  -32.1691   -8.2898   20.7961 C   0  0  0  0  0  0  0  0  0  0  0  0
  -23.1311  -34.2893   16.8672 C   0  0  0  0  0  0  0  0  0  0  0  0
  -30.9370   -9.1111   20.4198 C   0  0  0  0  0  0  0  0  0  0  0  0
  -32.9850   -8.9627   21.8958 C   0  0  0  0  0  0  0  0  0  0  0  0
  -32.1470  -11.1844   21.2060 C   0  0  0  0  0  0  0  0  0  0  0  0
  -22.8775  -32.7790   16.9463 C   0  0  1  0  0  0  0  0  0  0  0  0
  -23.6899  -31.6057   20.4672 C   0  0  1  0  0  0  0  0  0  0  0  0
  -31.3281  -10.5570   20.0679 C   0  0  2  0  0  0  0  0  0  0  0  0
  -31.1979  -20.7368   19.2955 C   0  0  0  0  0  0  0  0  0  0  0  0
  -39.6037  -12.9155   20.3758 C   0  0  0  0  0  0  0  0  0  0  0  0
  -26.8475  -34.2076   27.0447 C   0  0  0  0  0  0  0  0  0  0  0  0
  -26.6348  -35.1677   20.4946 C   0  0  0  0  0  0  0  0  0  0  0  0
  -27.7086  -35.6624   22.7014 C   0  0  0  0  0  0  0  0  0  0  0  0
  -25.3128  -36.2454   22.3236 C   0  0  0  0  0  0  0  0  0  0  0  0
  -25.2009  -30.8212   26.4994 C   0  0  0  0  0  0  0  0  0  0  0  0
  -30.3575  -18.2098   20.4522 C   0  0  0  0  0  0  0  0  0  0  0  0
  -29.3964  -22.1322   17.4470 C   0  0  0  0  0  0  0  0  0  0  0  0
  -38.5189  -13.1899   21.4057 C   0  0  0  0  0  0  0  0  0  0  0  0
  -31.0698  -16.9931   19.8348 C   0  0  0  0  0  0  0  0  0  0  0  0
  -31.9238  -16.2266   20.8497 C   0  0  0  0  0  0  0  0  0  0  0  0
  -32.5936  -15.0107   20.2046 C   0  0  0  0  0  0  0  0  0  0  0  0
  -37.1768  -12.5931   20.9760 C   0  0  0  0  0  0  0  0  0  0  0  0
  -33.4156  -14.2222   21.2285 C   0  0  0  0  0  0  0  0  0  0  0  0
  -29.6030  -25.6890   18.8498 C   0  0  0  0  0  0  0  0  0  0  0  0
  -36.0827  -12.8007   22.0180 C   0  0  0  0  0  0  0  0  0  0  0  0
  -34.0491  -12.9697   20.6319 C   0  0  0  0  0  0  0  0  0  0  0  0
  -29.7390  -24.5782   17.8193 C   0  0  0  0  0  0  0  0  0  0  0  0
  -28.1718  -25.9163   19.3209 C   0  0  0  0  0  0  0  0  0  1  0  0
  -25.9704  -33.8191   22.5936 C   0  0  1  0  0  0  0  0  0  0  0  0
  -25.9671  -33.1926   26.3322 C   0  0  2  0  0  0  0  0  0  0  0  0
  -26.4048  -35.1969   22.0188 C   0  0  0  0  0  0  0  0  0  0  0  0
  -27.3687  -19.0715   18.3089 N   0  0  0  0  0  0  0  0  0  0  0  0
  -28.9456  -11.1446   20.3147 N   0  0  0  0  0  0  0  0  0  0  0  0
  -30.1192  -11.4026   19.7128 N   0  0  0  0  0  0  0  0  0  0  0  0
  -24.8159  -32.0668   21.2819 N   0  0  0  0  0  0  0  0  0  0  0  0
  -33.3060  -10.3489   21.5545 N   0  0  0  0  0  0  0  0  0  0  0  0
  -31.1576  -12.8274   18.1310 N   0  0  0  0  0  0  0  0  0  0  0  0
  -26.8872  -14.2948   18.2093 N   0  0  0  0  0  0  0  0  0  0  0  0
  -22.8367  -32.3449   18.3263 N   0  0  0  0  0  0  0  0  0  0  0  0
  -25.7192  -33.8235   24.0307 N   0  0  0  0  0  0  0  0  0  0  0  0
  -34.8143  -12.2088   21.6173 N   0  0  0  0  0  0  0  0  0  0  0  0
  -26.0382  -31.9038   27.0772 N   0  3  0  0  0  0  0  0  0  0  0  0
  -29.3107  -23.2802   18.3916 N   0  3  0  0  0  0  0  0  0  0  0  0
  -28.9468  -14.6095   17.2515 O   0  0  0  0  0  0  0  0  0  0  0  0
  -25.1262  -32.0721   18.6521 O   0  0  0  0  0  0  0  0  0  0  0  0
  -23.6694  -33.9528   22.0332 O   0  0  0  0  0  0  0  0  0  0  0  0
  -27.2742  -32.1886   24.5656 O   0  0  0  0  0  0  0  0  0  0  0  0
  -35.3466  -10.2022   22.6186 O   0  0  0  0  0  0  0  0  0  0  0  0
  -22.7567  -12.2432   21.3343 O   0  0  0  0  0  0  0  0  0  0  0  0
  -28.1650  -26.9874   20.2638 O   0  0  0  0  0  0  0  0  0  1  0  0
  -20.0214   -7.4678   21.6770 F   0  0  0  0  0  0  0  0  0  0  0  0
  -20.5113  -11.7808   19.7894 F   0  0  0  0  0  0  0  0  0  0  0  0
  -27.6080  -16.9645   19.7756 Cl  0  0  0  0  0  0  0  0  0  0  0  0
  1  2  1  0  0  0  0
  1  5  2  0  0  0  0
  2  6  2  0  0  0  0
  3  8  2  0  0  0  0
  3 16  1  0  0  0  0
  4  9  1  0  0  0  0
  4 16  2  0  0  0  0
  5 18  1  0  0  0  0
  6 20  1  0  0  0  0
  7 10  2  0  0  0  0
  7 19  1  0  0  0  0
  8 25  1  0  0  0  0
  9 25  2  0  0  0  0
 10 26  1  0  0  0  0
 11 12  2  0  0  0  0
 11 27  1  0  0  0  0
 12 28  1  0  0  0  0
 13 21  1  0  0  0  0
 13 26  2  0  0  0  0
 14 28  2  0  0  0  0
 14 29  1  0  0  0  0
 15 22  2  0  0  0  0
 15 73  1  0  0  0  0
 16 30  1  0  0  0  0
 17 30  1  0  0  0  0
 17 32  2  0  0  0  0
 17 33  1  0  0  0  0
 18 20  2  0  0  0  0
 18 38  1  0  0  0  0
 19 21  2  0  0  0  0
 19 39  1  0  0  0  0
 20 47  1  0  0  0  0
 21 40  1  0  0  0  0
 22 23  1  0  0  0  0
 22 58  1  0  0  0  0
 23 24  2  0  0  0  0
 23 50  1  0  0  0  0
 24 31  1  0  0  0  0
 24 57  1  0  0  0  0
 25 90  1  0  0  0  0
 26 91  1  0  0  0  0
 27 29  2  0  0  0  0
 27 90  1  0  0  0  0
 28 92  1  0  0  0  0
 29 93  1  0  0  0  0
 30 74  2  0  0  0  0
 31 73  2  0  0  0  0
 31 94  1  0  0  0  0
 32 75  1  0  0  0  0
 32 78  1  0  0  0  0
 33 79  1  0  0  0  0
 33 85  2  0  0  0  0
 34 48  1  0  0  0  0
 34 80  1  0  0  0  0
 34 86  2  0  0  0  0
 35 70  1  0  0  0  0
 35 76  1  0  0  0  0
 35 87  2  0  0  0  0
 36 71  1  0  0  0  0
 36 81  1  0  0  0  0
 36 88  2  0  0  0  0
 37 77  1  0  0  0  0
 37 82  1  0  0  0  0
 37 89  2  0  0  0  0
 38 41  1  0  0  0  0
 39 48  1  0  0  0  0
 40 76  1  0  0  0  0
 41 43  1  0  0  0  0
 42 44  1  0  0  0  0
 42 45  1  0  0  0  0
 43 47  1  0  0  0  0
 44 49  1  0  0  0  0
 45 77  1  0  0  0  0
 46 49  1  0  0  0  0
 46 77  1  0  0  0  0
 47 80  1  0  0  0  0
 48 76  1  0  0  0  0
 49 75  1  0  0  0  0
 51 59  1  0  0  0  0
 52 71  1  0  0  0  0
 53 72  1  0  0  0  0
 54 72  1  0  0  0  0
 55 72  1  0  0  0  0
 56 83  1  0  0  0  0
 57 60  1  0  0  0  0
 58 84  1  0  0  0  0
 59 63  1  0  0  0  0
 60 61  1  0  0  0  0
 61 62  1  0  0  0  0
 62 64  1  0  0  0  0
 63 66  1  0  0  0  0
 64 67  1  0  0  0  0
 65 68  1  0  0  0  0
 65 69  1  0  0  0  0
 66 82  1  0  0  0  0
 67 82  1  0  0  0  0
 68 84  1  0  0  0  0
 69 91  1  0  0  0  0
 70 72  1  0  0  0  0
 70 81  1  0  0  0  0
 71 83  1  0  0  0  0
 74 75  1  0  0  0  0
M  CHG  2  83   1  84   1
M  ISO  4  37 100  69 101  82 100  91 101
M  END
> <Batch ID>
0023

> <Smiles>
CCCC[100N:0](CCCCCCc1c(Cl)ncc(CNCC[101CH2:1][101O:1]c2ccc3c(c2)CN(C(=O)C(NC(=O)C(C)NC)C(C)(C)C)C(C(=O)NC2CCCc4ccccc42)C3)c1C)[100C:0](=O)N1CCCC(n2nc(-c3ccc(Oc4ccc(F)cc4F)cc3)c(C(N)=O)c2N)C1

> <Shape>
0.277

> <Color>
0.086

> <Negative vol penalty>
0.000

$$$$

  -OEChem-04052316193D

 88 96  0     1  0  0  0  0  0999 V2000
  -27.6803  -14.3884   15.5284 C   0  0  0  0  0  0  0  0  0  0  0  0
  -26.8265  -14.9243   16.4872 C   0  0  0  0  0  0  0  0  0  0  0  0
  -23.0709   -9.8721   19.9429 C   0  0  0  0  0  0  0  0  0  0  0  0
  -23.8343   -9.8778   22.2351 C   0  0  0  0  0  0  0  0  0  0  0  0
  -28.7123  -15.1651   15.0034 C   0  0  0  0  0  0  0  0  0  0  0  0
  -27.0049  -16.2370   16.9224 C   0  0  0  0  0  0  0  0  0  0  0  0
  -22.6307  -20.2031   18.5478 C   0  0  0  0  0  0  0  0  0  0  0  0
  -22.3268   -8.7192   20.1935 C   0  0  0  0  0  0  0  0  0  0  0  0
  -23.0902   -8.7249   22.4858 C   0  0  0  0  0  0  0  0  0  0  0  0
  -22.1292  -20.5893   19.7901 C   0  0  0  0  0  0  0  0  0  0  0  0
  -20.5111   -5.5690   20.1367 C   0  0  0  0  0  0  0  0  0  0  0  0
  -20.5724   -4.5390   19.1982 C   0  0  0  0  0  0  0  0  0  0  0  0
  -23.6045  -22.4978   19.7858 C   0  0  0  0  0  0  0  0  0  0  0  0
  -29.4609  -18.3081   25.7134 C   0  0  0  0  0  0  0  0  0  0  0  0
  -22.9577   -4.3676   19.5423 C   0  0  0  0  0  0  0  0  0  0  0  0
  -23.8246  -10.4514   20.9637 C   0  0  0  0  0  0  0  0  0  0  0  0
  -24.1675  -12.9764   20.8441 C   0  0  0  0  0  0  0  0  0  0  0  0
  -28.8974  -16.4912   15.4253 C   0  0  0  0  0  0  0  0  0  0  0  0
  -23.6324  -20.9567   17.9192 C   0  0  0  0  0  0  0  0  0  0  0  0
  -28.0411  -17.0318   16.4035 C   0  0  0  0  0  0  0  0  0  0  0  0
  -24.1153  -22.1206   18.5344 C   0  0  0  0  0  0  0  0  0  0  0  0
  -30.3262  -17.2165   25.6413 C   0  0  0  0  0  0  0  0  0  0  0  0
  -29.0348  -18.9387   24.5444 C   0  0  0  0  0  0  0  0  0  0  0  0
  -30.3394  -17.3861   23.2313 C   0  0  0  0  0  0  0  0  0  0  0  0
  -22.3364   -8.1456   21.4650 C   0  0  0  0  0  0  0  0  0  0  0  0
  -22.6181  -21.7351   20.4106 C   0  0  0  0  0  0  0  0  0  0  0  0
  -21.6730   -5.9985   20.7779 C   0  0  0  0  0  0  0  0  0  0  0  0
  -21.7957   -3.9382   18.9010 C   0  0  0  0  0  0  0  0  0  0  0  0
  -22.8963   -5.3977   20.4807 C   0  0  0  0  0  0  0  0  0  0  0  0
  -30.7655  -16.7555   24.4003 C   0  0  0  0  0  0  0  0  0  0  0  0
  -29.4741  -18.4777   23.3034 C   0  0  0  0  0  0  0  0  0  0  0  0
  -24.5939  -11.6420   20.7052 C   0  0  0  0  0  0  0  0  0  0  0  0
  -25.2594  -13.7255   20.4795 C   0  0  0  0  0  0  0  0  0  0  0  0
  -22.8979  -13.4927   21.2652 C   0  0  0  0  0  0  0  0  0  0  0  0
  -26.6226  -20.3908   17.0016 C   0  0  0  0  0  0  0  0  0  0  0  0
  -26.3719  -23.3526   15.7028 C   0  0  0  0  0  0  0  0  0  0  0  0
  -24.8452  -26.4048   15.7219 C   0  0  0  0  0  0  0  0  0  0  0  0
  -30.7440  -14.7418   20.6599 C   0  0  0  0  0  0  0  0  0  0  0  0
  -30.0560  -17.2766   14.8636 C   0  0  0  0  0  0  0  0  0  0  0  0
  -24.1439  -20.5416   16.5670 C   0  0  0  0  0  0  0  0  0  0  0  0
  -25.1759  -22.9755   17.8920 C   0  0  0  0  0  0  0  0  0  0  0  0
  -29.9461  -18.7801   15.1038 C   0  0  0  0  0  0  0  0  0  0  0  0
  -29.6016  -12.3588   18.2739 C   0  0  0  0  0  0  0  0  0  0  0  0
  -29.5578  -19.0624   16.5516 C   0  0  0  0  0  0  0  0  0  0  0  0
  -28.1647  -12.0656   18.7089 C   0  0  0  0  0  0  0  0  0  0  0  0
  -30.5206  -12.5787   19.4735 C   0  0  0  0  0  0  0  0  0  0  0  0
  -28.6214  -13.3102   20.8633 C   0  0  0  0  0  0  0  0  0  0  0  0
  -28.1872  -18.4597   16.8828 C   0  0  1  0  0  0  0  0  0  0  0  0
  -25.5287  -21.1001   16.2547 C   0  0  1  0  0  0  0  0  0  0  0  0
  -27.6453  -13.1365   19.6871 C   0  0  2  0  0  0  0  0  0  0  0  0
  -30.7545  -16.5712   26.9203 C   0  0  0  0  0  0  0  0  0  0  0  0
  -24.8805  -28.6323   14.5667 C   0  0  0  0  0  0  0  0  0  0  0  0
  -28.9125  -24.0965   17.2201 C   0  0  0  0  0  0  0  0  0  0  0  0
  -28.3700  -26.5056   16.8078 C   0  0  0  0  0  0  0  0  0  0  0  0
  -28.7975  -24.9781   14.8825 C   0  0  0  0  0  0  0  0  0  0  0  0
  -22.0453  -26.1068   14.8105 C   0  0  0  0  0  0  0  0  0  0  0  0
  -28.0976  -20.1132   24.6719 C   0  0  0  0  0  0  0  0  0  0  0  0
  -30.8127  -16.8919   21.8975 C   0  0  0  0  0  0  0  0  0  0  0  0
  -26.6406  -19.7836   24.3281 C   0  0  0  0  0  0  0  0  0  0  0  0
  -25.7030  -20.9860   24.4768 C   0  0  0  0  0  0  0  0  0  0  0  0
  -24.2560  -20.6038   24.1540 C   0  0  0  0  0  0  0  0  0  0  0  0
  -23.3153  -21.7972   24.3339 C   0  0  0  0  0  0  0  0  0  0  0  0
  -21.8644  -21.4906   23.9457 C   0  0  0  0  0  0  0  0  0  0  0  0
  -21.6712  -21.0783   22.4909 C   0  0  0  0  0  0  0  0  0  1  0  0
  -26.6417  -24.7577   16.1847 C   0  0  1  0  0  0  0  0  0  0  0  0
  -24.2589  -27.2448   14.6016 C   0  0  2  0  0  0  0  0  0  0  0  0
  -28.1618  -25.0675   16.2870 C   0  0  0  0  0  0  0  0  0  0  0  0
  -25.8581  -11.5457   20.2850 N   0  0  0  0  0  0  0  0  0  0  0  0
  -26.2354  -12.8291   20.1566 N   0  0  0  0  0  0  0  0  0  0  0  0
  -25.6487  -22.5244   16.5727 N   0  0  0  0  0  0  0  0  0  0  0  0
  -29.9719  -13.6072   20.3607 N   0  0  0  0  0  0  0  0  0  0  0  0
  -25.4704  -15.0569   20.4067 N   0  0  0  0  0  0  0  0  0  0  0  0
  -21.8861  -12.5838   21.6036 N   0  0  0  0  0  0  0  0  0  0  0  0
  -27.1282  -19.2858   16.3437 N   0  0  0  0  0  0  0  0  0  0  0  0
  -25.9102  -25.6447   15.2866 N   0  0  0  0  0  0  0  0  0  0  0  0
  -30.1465  -15.6706   21.5032 N   0  0  0  0  0  0  0  0  0  0  0  0
  -22.7871  -27.3936   14.7816 N   0  3  0  0  0  0  0  0  0  0  0  0
  -22.6623  -14.7234   21.3234 O   0  0  0  0  0  0  0  0  0  0  0  0
  -26.9824  -20.8155   18.0934 O   0  0  0  0  0  0  0  0  0  0  0  0
  -26.7816  -23.0051   14.5924 O   0  0  0  0  0  0  0  0  0  0  0  0
  -24.4051  -26.4240   16.8692 O   0  0  0  0  0  0  0  0  0  0  0  0
  -31.8793  -14.9170   20.2046 O   0  0  0  0  0  0  0  0  0  0  0  0
  -21.6103   -7.0207   21.7100 O   0  0  0  0  0  0  0  0  0  0  0  0
  -22.1308  -22.1139   21.6234 O   0  0  0  0  0  0  0  0  0  1  0  0
  -21.8542   -2.9480   18.0009 F   0  0  0  0  0  0  0  0  0  0  0  0
  -24.0158   -5.8052   21.0944 F   0  0  0  0  0  0  0  0  0  0  0  0
  -31.8401  -15.3986   24.3190 Cl  0  0  0  0  0  0  0  0  0  0  0  0
  -28.9408  -19.2663   21.8549 Cl  0  0  0  0  0  0  0  0  0  0  0  0
  1  2  1  0  0  0  0
  1  5  2  0  0  0  0
  2  6  2  0  0  0  0
  3  8  2  0  0  0  0
  3 16  1  0  0  0  0
  4  9  1  0  0  0  0
  4 16  2  0  0  0  0
  5 18  1  0  0  0  0
  6 20  1  0  0  0  0
  7 10  2  0  0  0  0
  7 19  1  0  0  0  0
  8 25  1  0  0  0  0
  9 25  2  0  0  0  0
 10 26  1  0  0  0  0
 11 12  2  0  0  0  0
 11 27  1  0  0  0  0
 12 28  1  0  0  0  0
 13 21  1  0  0  0  0
 13 26  2  0  0  0  0
 14 22  2  0  0  0  0
 14 23  1  0  0  0  0
 15 28  2  0  0  0  0
 15 29  1  0  0  0  0
 16 32  1  0  0  0  0
 17 32  1  0  0  0  0
 17 33  2  0  0  0  0
 17 34  1  0  0  0  0
 18 20  2  0  0  0  0
 18 39  1  0  0  0  0
 19 21  2  0  0  0  0
 19 40  1  0  0  0  0
 20 48  1  0  0  0  0
 21 41  1  0  0  0  0
 22 30  1  0  0  0  0
 22 51  1  0  0  0  0
 23 31  2  0  0  0  0
 23 57  1  0  0  0  0
 24 30  2  0  0  0  0
 24 31  1  0  0  0  0
 24 58  1  0  0  0  0
 25 83  1  0  0  0  0
 26 84  1  0  0  0  0
 27 29  2  0  0  0  0
 27 83  1  0  0  0  0
 28 85  1  0  0  0  0
 29 86  1  0  0  0  0
 30 87  1  0  0  0  0
 31 88  1  0  0  0  0
 32 68  2  0  0  0  0
 33 69  1  0  0  0  0
 33 72  1  0  0  0  0
 34 73  1  0  0  0  0
 34 78  2  0  0  0  0
 35 49  1  0  0  0  0
 35 74  1  0  0  0  0
 35 79  2  0  0  0  0
 36 65  1  0  0  0  0
 36 70  1  0  0  0  0
 36 80  2  0  0  0  0
 37 66  1  0  0  0  0
 37 75  1  0  0  0  0
 37 81  2  0  0  0  0
 38 71  1  0  0  0  0
 38 76  1  0  0  0  0
 38 82  2  0  0  0  0
 39 42  1  0  0  0  0
 40 49  1  0  0  0  0
 41 70  1  0  0  0  0
 42 44  1  0  0  0  0
 43 45  1  0  0  0  0
 43 46  1  0  0  0  0
 44 48  1  0  0  0  0
 45 50  1  0  0  0  0
 46 71  1  0  0  0  0
 47 50  1  0  0  0  0
 47 71  1  0  0  0  0
 48 74  1  0  0  0  0
 49 70  1  0  0  0  0
 50 69  1  0  0  0  0
 52 66  1  0  0  0  0
 53 67  1  0  0  0  0
 54 67  1  0  0  0  0
 55 67  1  0  0  0  0
 56 77  1  0  0  0  0
 57 59  1  0  0  0  0
 58 76  1  0  0  0  0
 59 60  1  0  0  0  0
 60 61  1  0  0  0  0
 61 62  1  0  0  0  0
 62 63  1  0  0  0  0
 63 64  1  0  0  0  0
 64 84  1  0  0  0  0
 65 67  1  0  0  0  0
 65 75  1  0  0  0  0
 66 77  1  0  0  0  0
 68 69  1  0  0  0  0
M  CHG  1  77   1
M  ISO  4  38 100  64 101  76 100  84 101
M  END
> <Batch ID>
0023

> <Smiles>
CNC(C)C(=O)NC(C(=O)N1Cc2cc([101O:1][101CH2:1]CCCCCCc3cc(C)c(Cl)c(C[100NH:0][100C:0](=O)N4CCCC(n5nc(-c6ccc(Oc7ccc(F)cc7F)cc6)c(C(N)=O)c5N)C4)c3Cl)ccc2CC1C(=O)NC1CCCc2ccccc21)C(C)(C)C

> <Shape>
0.161

> <Color>
0.191

> <Negative vol penalty>
0.000

$$$$

  -OEChem-04052316193D

102111  0     1  0  0  0  0  0999 V2000
  -30.6613  -22.1014   24.3570 C   0  0  0  0  0  0  0  0  0  0  0  0
  -30.2233  -23.4202   24.4222 C   0  0  0  0  0  0  0  0  0  0  0  0
  -22.8872  -10.1969   19.9010 C   0  0  0  0  0  0  0  0  0  0  0  0
  -23.9141   -9.6957   22.0297 C   0  0  0  0  0  0  0  0  0  0  0  0
  -31.6714  -21.7469   23.4637 C   0  0  0  0  0  0  0  0  0  0  0  0
  -30.7959  -24.3856   23.5949 C   0  0  0  0  0  0  0  0  0  0  0  0
  -27.3407  -27.4049   21.4523 C   0  0  0  0  0  0  0  0  0  0  0  0
  -22.0967   -9.0532   20.0129 C   0  0  0  0  0  0  0  0  0  0  0  0
  -23.1235   -8.5519   22.1417 C   0  0  0  0  0  0  0  0  0  0  0  0
  -26.7993  -28.4158   22.2452 C   0  0  0  0  0  0  0  0  0  0  0  0
  -19.9410   -7.7994   22.9938 C   0  0  0  0  0  0  0  0  0  0  0  0
  -19.3285   -7.5547   24.2228 C   0  0  0  0  0  0  0  0  0  0  0  0
  -28.2897  -30.0108   21.2185 C   0  0  0  0  0  0  0  0  0  0  0  0
  -23.5568  -31.4114   23.4880 C   0  0  0  0  0  0  0  0  0  0  0  0
  -22.4881  -31.5994   20.9179 C   0  0  0  0  0  0  0  0  0  0  0  0
  -20.5048   -5.4510   24.3902 C   0  0  0  0  0  0  0  0  0  0  0  0
  -23.7960  -10.5181   20.9093 C   0  0  0  0  0  0  0  0  0  0  0  0
  -24.3036  -12.9950   21.2486 C   0  0  0  0  0  0  0  0  0  0  0  0
  -32.2500  -22.7066   22.6181 C   0  0  0  0  0  0  0  0  0  0  0  0
  -28.3699  -27.6877   20.5429 C   0  0  0  0  0  0  0  0  0  0  0  0
  -31.8156  -24.0439   22.6903 C   0  0  0  0  0  0  0  0  0  0  0  0
  -28.8406  -29.0021   20.4134 C   0  0  0  0  0  0  0  0  0  0  0  0
  -24.2307  -32.1342   22.5036 C   0  0  0  0  0  0  0  0  0  0  0  0
  -21.8142  -30.8766   21.9023 C   0  0  0  0  0  0  0  0  0  0  0  0
  -22.2148   -8.2307   21.1333 C   0  0  0  0  0  0  0  0  0  0  0  0
  -27.2758  -29.7185   22.1304 C   0  0  0  0  0  0  0  0  0  0  0  0
  -20.8355   -6.8699   22.4630 C   0  0  0  0  0  0  0  0  0  0  0  0
  -19.6104   -6.3805   24.9210 C   0  0  0  0  0  0  0  0  0  0  0  0
  -21.1174   -5.6958   23.1612 C   0  0  0  0  0  0  0  0  0  0  0  0
  -23.6964  -32.2282   21.2186 C   0  0  0  0  0  0  0  0  0  0  0  0
  -22.3485  -30.7826   23.1873 C   0  0  0  0  0  0  0  0  0  0  0  0
  -24.6133  -11.6991   20.7939 C   0  0  0  0  0  0  0  0  0  0  0  0
  -25.3961  -13.7511   20.9006 C   0  0  0  0  0  0  0  0  0  0  0  0
  -23.1332  -13.4724   21.9251 C   0  0  0  0  0  0  0  0  0  0  0  0
  -20.4248  -28.1311   20.1836 C   0  0  0  0  0  0  0  0  0  0  0  0
  -31.3856  -26.7422   20.2029 C   0  0  0  0  0  0  0  0  0  0  0  0
  -31.2050  -28.4589   17.4565 C   0  0  0  0  0  0  0  0  0  0  0  0
  -29.7039  -30.9746   15.7058 C   0  0  0  0  0  0  0  0  0  0  0  0
  -30.9226  -14.4512   20.5634 C   0  0  0  0  0  0  0  0  0  0  0  0
  -33.3717  -22.2852   21.7022 C   0  0  0  0  0  0  0  0  0  0  0  0
  -28.9248  -26.5910   19.6758 C   0  0  0  0  0  0  0  0  0  0  0  0
  -29.9301  -29.3618   19.4377 C   0  0  0  0  0  0  0  0  0  0  0  0
  -33.6659  -23.2943   20.5953 C   0  0  0  0  0  0  0  0  0  0  0  0
  -29.3378  -12.6655   17.9221 C   0  0  0  0  0  0  0  0  0  0  0  0
  -33.7341  -24.7075   21.1655 C   0  0  0  0  0  0  0  0  0  0  0  0
  -27.9448  -12.3567   18.4737 C   0  0  0  0  0  0  0  0  0  0  0  0
  -20.0780  -24.4215   19.1850 C   0  0  0  0  0  0  0  0  0  0  0  0
  -30.4054  -12.5910   19.0115 C   0  0  0  0  0  0  0  0  0  0  0  0
  -28.7411  -13.1091   20.7537 C   0  0  0  0  0  0  0  0  0  0  0  0
  -21.5506  -24.1951   18.8804 C   0  0  0  0  0  0  0  0  0  0  0  0
  -22.1222  -26.3927   19.9315 C   0  0  0  0  0  0  0  0  0  0  0  0
  -32.3948  -25.1149   21.7916 C   0  0  1  0  0  0  0  0  0  0  0  0
  -20.6455  -26.6489   20.2445 C   0  0  2  0  0  0  0  0  0  0  0  0
  -30.3244  -26.8952   19.1503 C   0  0  1  0  0  0  0  0  0  0  0  0
  -19.7232  -25.9154   19.2433 C   0  0  2  0  0  0  0  0  0  0  0  0
  -27.6231  -13.2267   19.7036 C   0  0  2  0  0  0  0  0  0  0  0  0
  -18.2459  -26.0804   19.6128 C   0  0  0  0  0  0  0  0  0  0  0  0
  -29.7980  -32.1683   13.5004 C   0  0  0  0  0  0  0  0  0  0  0  0
  -33.6971  -29.9592   18.3777 C   0  0  0  0  0  0  0  0  0  0  0  0
  -33.1894  -31.7132   16.6648 C   0  0  0  0  0  0  0  0  0  0  0  0
  -33.6711  -29.3734   15.9465 C   0  0  0  0  0  0  0  0  0  0  0  0
  -26.9352  -30.1802   15.0261 C   0  0  0  0  0  0  0  0  0  0  0  0
  -25.5221  -32.7934   22.8666 C   0  0  0  0  0  0  0  0  0  0  0  0
  -20.5170  -30.2137   21.5389 C   0  0  0  0  0  0  0  0  0  0  0  0
  -27.7116  -19.7616   21.1932 C   0  0  0  0  0  0  0  0  0  0  0  0
  -27.4110  -21.1414   20.6038 C   0  0  0  0  0  0  0  0  0  0  0  0
  -29.1718  -19.3318   21.0250 C   0  0  0  0  0  0  0  0  0  0  0  0
  -25.9462  -21.5285   20.8202 C   0  0  0  0  0  0  0  0  0  0  0  0
  -29.4895  -17.9850   21.6784 C   0  0  0  0  0  0  0  0  0  0  0  0
  -25.6340  -22.8931   20.2034 C   0  0  0  0  0  0  0  0  0  0  0  0
  -30.9634  -17.6173   21.5001 C   0  0  0  0  0  0  0  0  0  0  0  0
  -24.1624  -23.2647   20.3903 C   0  0  0  0  0  0  0  0  0  0  0  0
  -31.2918  -16.2954   22.1827 C   0  0  0  0  0  0  0  0  0  0  0  0
  -23.8513  -24.6062   19.7434 C   0  0  0  0  0  0  0  0  0  0  0  0
  -26.7449  -32.0254   22.3593 C   0  0  0  0  0  0  0  0  0  1  0  0
  -31.4693  -29.8952   17.0742 C   0  0  1  0  0  0  0  0  0  0  0  0
  -29.1641  -31.0323   14.2881 C   0  0  2  0  0  0  0  0  0  0  0  0
  -32.9875  -30.2284   17.0357 C   0  0  0  0  0  0  0  0  0  0  0  0
  -25.8088  -11.6323   20.2020 N   0  0  0  0  0  0  0  0  0  0  0  0
  -26.2599  -12.8957   20.2824 N   0  0  0  0  0  0  0  0  0  0  0  0
  -30.4449  -28.2535   18.6167 N   0  0  0  0  0  0  0  0  0  0  0  0
  -30.0408  -13.4396   20.1485 N   0  0  0  0  0  0  0  0  0  0  0  0
  -25.6925  -15.0577   21.0661 N   0  0  0  0  0  0  0  0  0  0  0  0
  -22.1054  -12.5618   22.2056 N   0  0  0  0  0  0  0  0  0  0  0  0
  -31.4457  -25.4799   20.7619 N   0  0  0  0  0  0  0  0  0  0  0  0
  -20.6664  -28.7853   21.3766 N   0  0  0  0  0  0  0  0  0  0  0  0
  -30.7770  -30.1149   15.8090 N   0  0  0  0  0  0  0  0  0  0  0  0
  -30.4974  -15.2137   21.6444 N   0  0  0  0  0  0  0  0  0  0  0  0
  -22.4081  -24.9025   19.9100 N   0  3  2  0  0  0  0  0  0  0  0  0
  -27.6881  -31.2378   14.3039 N   0  3  0  0  0  0  0  0  0  0  0  0
  -22.9955  -14.6745   22.2561 O   0  0  0  0  0  0  0  0  0  0  0  0
  -20.0633  -28.6454   19.1317 O   0  0  0  0  0  0  0  0  0  0  0  0
  -32.0981  -27.6982   20.4859 O   0  0  0  0  0  0  0  0  0  0  0  0
  -31.6502  -27.5527   16.7479 O   0  0  0  0  0  0  0  0  0  0  0  0
  -29.2241  -31.6296   16.6284 O   0  0  0  0  0  0  0  0  0  0  0  0
  -32.0060  -14.6629   20.0081 O   0  0  0  0  0  0  0  0  0  0  0  0
  -21.4434   -7.1147   21.2431 O   0  0  0  0  0  0  0  0  0  0  0  0
  -26.7458  -30.7140   22.9090 O   0  0  0  0  0  0  0  0  0  1  0  0
  -19.0232   -6.1464   26.1020 F   0  0  0  0  0  0  0  0  0  0  0  0
  -21.9767   -4.7996   22.6568 F   0  0  0  0  0  0  0  0  0  0  0  0
  -24.5017  -33.1150   19.9760 Cl  0  0  0  0  0  0  0  0  0  0  0  0
  -21.5427  -29.8969   24.4306 Cl  0  0  0  0  0  0  0  0  0  0  0  0
  1  2  1  0  0  0  0
  1  5  2  0  0  0  0
  2  6  2  0  0  0  0
  3  8  2  0  0  0  0
  3 17  1  0  0  0  0
  4  9  1  0  0  0  0
  4 17  2  0  0  0  0
  5 19  1  0  0  0  0
  6 21  1  0  0  0  0
  7 10  2  0  0  0  0
  7 20  1  0  0  0  0
  8 25  1  0  0  0  0
  9 25  2  0  0  0  0
 10 26  1  0  0  0  0
 11 12  2  0  0  0  0
 11 27  1  0  0  0  0
 12 28  1  0  0  0  0
 13 22  1  0  0  0  0
 13 26  2  0  0  0  0
 14 23  1  0  0  0  0
 14 31  2  0  0  0  0
 15 24  2  0  0  0  0
 15 30  1  0  0  0  0
 16 28  2  0  0  0  0
 16 29  1  0  0  0  0
 17 32  1  0  0  0  0
 18 32  1  0  0  0  0
 18 33  2  0  0  0  0
 18 34  1  0  0  0  0
 19 21  2  0  0  0  0
 19 40  1  0  0  0  0
 20 22  2  0  0  0  0
 20 41  1  0  0  0  0
 21 52  1  0  0  0  0
 22 42  1  0  0  0  0
 23 30  2  0  0  0  0
 23 63  1  0  0  0  0
 24 31  1  0  0  0  0
 24 64  1  0  0  0  0
 25 97  1  0  0  0  0
 26 98  1  0  0  0  0
 27 29  2  0  0  0  0
 27 97  1  0  0  0  0
 28 99  1  0  0  0  0
 29100  1  0  0  0  0
 30101  1  0  0  0  0
 31102  1  0  0  0  0
 32 79  2  0  0  0  0
 33 80  1  0  0  0  0
 33 83  1  0  0  0  0
 34 84  1  0  0  0  0
 34 91  2  0  0  0  0
 35 53  1  0  0  0  0
 35 86  1  0  0  0  0
 35 92  2  0  0  0  0
 36 54  1  0  0  0  0
 36 85  1  0  0  0  0
 36 93  2  0  0  0  0
 37 76  1  0  0  0  0
 37 81  1  0  0  0  0
 37 94  2  0  0  0  0
 38 77  1  0  0  0  0
 38 87  1  0  0  0  0
 38 95  2  0  0  0  0
 39 82  1  0  0  0  0
 39 88  1  0  0  0  0
 39 96  2  0  0  0  0
 40 43  1  0  0  0  0
 41 54  1  0  0  0  0
 42 81  1  0  0  0  0
 43 45  1  0  0  0  0
 44 46  1  0  0  0  0
 44 48  1  0  0  0  0
 45 52  1  0  0  0  0
 46 56  1  0  0  0  0
 47 50  1  0  0  0  0
 47 55  1  0  0  0  0
 48 82  1  0  0  0  0
 49 56  1  0  0  0  0
 49 82  1  0  0  0  0
 50 89  1  0  0  0  0
 51 53  1  0  0  0  0
 51 89  1  0  0  0  0
 52 85  1  0  0  0  0
 53 55  1  0  0  0  0
 54 81  1  0  0  0  0
 55 57  1  0  0  0  0
 56 80  1  0  0  0  0
 58 77  1  0  0  0  0
 59 78  1  0  0  0  0
 60 78  1  0  0  0  0
 61 78  1  0  0  0  0
 62 90  1  0  0  0  0
 63 75  1  0  0  0  0
 64 86  1  0  0  0  0
 65 66  1  0  0  0  0
 65 67  1  0  0  0  0
 66 68  1  0  0  0  0
 67 69  1  0  0  0  0
 68 70  1  0  0  0  0
 69 71  1  0  0  0  0
 70 72  1  0  0  0  0
 71 73  1  0  0  0  0
 72 74  1  0  0  0  0
 73 88  1  0  0  0  0
 74 89  1  0  0  0  0
 75 98  1  0  0  0  0
 76 78  1  0  0  0  0
 76 87  1  0  0  0  0
 77 90  1  0  0  0  0
 79 80  1  0  0  0  0
M  CHG  2  89   1  90   1
M  ISO  4  39 100  75 101  88 100  98 101
M  END
> <Batch ID>
0023

> <Smiles>
CNC(C)C(=O)NC(C(=O)N1Cc2cc([101O:1][101CH2:1]Cc3cc(Cl)c(CNC(=O)C4CN(CCCCCCCCCC[100NH:0][100C:0](=O)N5CCCC(n6nc(-c7ccc(Oc8ccc(F)cc8F)cc7)c(C(N)=O)c6N)C5)CCC4C)cc3Cl)ccc2CC1C(=O)NC1CCCc2ccccc21)C(C)(C)C

> <Shape>
0.299

> <Color>
0.153

> <Negative vol penalty>
0.000

$$$$

  -OEChem-04052316193D

 86 94  0     1  0  0  0  0  0999 V2000
  -25.8853  -38.0185   21.5254 C   0  0  0  0  0  0  0  0  0  0  0  0
  -26.2998  -36.6911   21.4852 C   0  0  0  0  0  0  0  0  0  0  0  0
  -24.6945   -8.4202   21.4294 C   0  0  0  0  0  0  0  0  0  0  0  0
  -23.1927  -10.2098   20.8139 C   0  0  0  0  0  0  0  0  0  0  0  0
  -24.8318  -38.3937   22.3579 C   0  0  0  0  0  0  0  0  0  0  0  0
  -25.6616  -35.7383   22.2785 C   0  0  0  0  0  0  0  0  0  0  0  0
  -24.6557  -31.4659   19.7527 C   0  0  0  0  0  0  0  0  0  0  0  0
  -23.7700   -7.9682   22.3710 C   0  0  0  0  0  0  0  0  0  0  0  0
  -22.2682   -9.7579   21.7555 C   0  0  0  0  0  0  0  0  0  0  0  0
  -25.7137  -30.5803   19.5528 C   0  0  0  0  0  0  0  0  0  0  0  0
  -21.6535   -6.1288   24.6844 C   0  0  0  0  0  0  0  0  0  0  0  0
  -21.4030   -4.7579   24.7412 C   0  0  0  0  0  0  0  0  0  0  0  0
  -24.9303  -29.2375   21.3974 C   0  0  0  0  0  0  0  0  0  0  0  0
  -28.6967  -21.8076   20.3434 C   0  0  0  0  0  0  0  0  0  0  0  0
  -27.0176  -21.7940   18.6064 C   0  0  0  0  0  0  0  0  0  0  0  0
  -20.6549   -4.7995   22.4443 C   0  0  0  0  0  0  0  0  0  0  0  0
  -24.4059   -9.5410   20.6508 C   0  0  0  0  0  0  0  0  0  0  0  0
  -25.4559   -9.6243   18.3275 C   0  0  0  0  0  0  0  0  0  0  0  0
  -24.1740  -37.4433   23.1546 C   0  0  0  0  0  0  0  0  0  0  0  0
  -23.7317  -31.2495   20.7851 C   0  0  0  0  0  0  0  0  0  0  0  0
  -24.5992  -36.1014   23.1235 C   0  0  0  0  0  0  0  0  0  0  0  0
  -23.8600  -30.1205   21.6067 C   0  0  0  0  0  0  0  0  0  0  0  0
  -27.9681  -22.4800   19.3623 C   0  0  0  0  0  0  0  0  0  0  0  0
  -27.5243  -19.7629   19.8126 C   0  0  0  0  0  0  0  0  0  0  0  0
  -22.5569   -8.6370   22.5341 C   0  0  0  0  0  0  0  0  0  0  0  0
  -25.8528  -29.4674   20.3770 C   0  0  0  0  0  0  0  0  0  0  0  0
  -21.4045   -6.8352   23.5076 C   0  0  0  0  0  0  0  0  0  0  0  0
  -20.9038   -4.0932   23.6211 C   0  0  0  0  0  0  0  0  0  0  0  0
  -20.9053   -6.1705   22.3876 C   0  0  0  0  0  0  0  0  0  0  0  0
  -28.4748  -20.4489   20.5686 C   0  0  0  0  0  0  0  0  0  0  0  0
  -26.7957  -20.4354   18.8315 C   0  0  0  0  0  0  0  0  0  0  0  0
  -25.3607  -10.0087   19.6784 C   0  0  0  0  0  0  0  0  0  0  0  0
  -26.5165  -10.3473   17.8387 C   0  0  0  0  0  0  0  0  0  0  0  0
  -24.6571   -8.6966   17.5811 C   0  0  0  0  0  0  0  0  0  0  0  0
  -22.8629  -32.8507   23.3900 C   0  0  0  0  0  0  0  0  0  0  0  0
  -20.6227  -30.5145   23.6051 C   0  0  0  0  0  0  0  0  0  0  0  0
  -19.6708  -27.3323   22.8212 C   0  0  0  0  0  0  0  0  0  0  0  0
  -29.0305  -15.5236   19.4930 C   0  0  0  0  0  0  0  0  0  0  0  0
  -23.0713  -37.9050   24.0741 C   0  0  0  0  0  0  0  0  0  0  0  0
  -22.5806  -32.1998   20.9707 C   0  0  0  0  0  0  0  0  0  0  0  0
  -22.8832  -29.8321   22.7163 C   0  0  0  0  0  0  0  0  0  0  0  0
  -22.2026  -36.7666   24.6029 C   0  0  0  0  0  0  0  0  0  0  0  0
  -30.6331  -12.3560   19.2205 C   0  0  0  0  0  0  0  0  0  0  0  0
  -23.0733  -35.6141   25.0933 C   0  0  0  0  0  0  0  0  0  0  0  0
  -29.4722  -11.3605   19.1850 C   0  0  0  0  0  0  0  0  0  0  0  0
  -30.3424  -13.5290   20.1540 C   0  0  0  0  0  0  0  0  0  0  0  0
  -27.9139  -13.2386   19.8510 C   0  0  0  0  0  0  0  0  0  0  0  0
  -23.9157  -35.0343   23.9507 C   0  0  1  0  0  0  0  0  0  0  0  0
  -21.9934  -32.1594   22.3782 C   0  0  1  0  0  0  0  0  0  0  0  0
  -28.1373  -12.0665   18.8801 C   0  0  2  0  0  0  0  0  0  0  0  0
  -25.8508  -18.0338   20.5433 C   0  0  0  0  0  0  0  0  0  0  0  0
  -17.8038  -25.6923   23.1701 C   0  0  0  0  0  0  0  0  0  0  0  0
  -21.5944  -30.0183   26.4546 C   0  0  0  0  0  0  0  0  0  0  0  0
  -20.3972  -27.8200   26.4057 C   0  0  0  0  0  0  0  0  0  0  0  0
  -19.1106  -29.9443   26.1715 C   0  0  0  0  0  0  0  0  0  0  0  0
  -19.1253  -27.1588   19.9175 C   0  0  0  0  0  0  0  0  0  0  0  0
  -28.2085  -23.9486   19.1185 C   0  0  0  0  0  0  0  0  0  0  0  0
  -27.3239  -24.8698   19.9659 C   0  0  0  0  0  0  0  0  0  0  0  0
  -27.5273  -26.3522   19.6495 C   0  0  0  0  0  0  0  0  0  0  0  0
  -27.5852  -17.4249   18.8182 C   0  0  0  0  0  0  0  0  0  0  0  0
  -26.6624  -27.2370   20.5370 C   0  0  0  0  0  0  0  0  0  1  0  0
  -27.2864  -18.3034   20.0540 C   0  0  1  0  0  0  0  0  0  0  0  0
  -20.5566  -29.1532   24.2544 C   0  0  1  0  0  0  0  0  0  0  0  0
  -18.3708  -26.7773   22.2678 C   0  0  2  0  0  0  0  0  0  0  0  0
  -20.4344  -29.2401   25.8019 C   0  0  0  0  0  0  0  0  0  0  0  0
  -26.2870  -10.9061   20.0256 N   0  0  0  0  0  0  0  0  0  0  0  0
  -26.9744  -11.0916   18.8858 N   0  0  0  0  0  0  0  0  0  0  0  0
  -21.7783  -30.7941   22.8618 N   0  0  0  0  0  0  0  0  0  0  0  0
  -29.0637  -14.1557   19.8104 N   0  0  0  0  0  0  0  0  0  0  0  0
  -27.0928  -10.4126   16.6197 N   0  0  0  0  0  0  0  0  0  0  0  0
  -23.6070   -8.0402   18.2375 N   0  0  0  0  0  0  0  0  0  0  0  0
  -23.1054  -34.1815   23.1077 N   0  0  0  0  0  0  0  0  0  0  0  0
  -19.4576  -28.4451   23.6070 N   0  0  0  0  0  0  0  0  0  0  0  0
  -27.7794  -16.0367   19.1729 N   0  0  0  0  0  0  0  0  0  0  0  0
  -18.5909  -26.1950   20.9138 N   0  3  0  0  0  0  0  0  0  0  0  0
  -24.8785   -8.4447   16.3724 O   0  0  0  0  0  0  0  0  0  0  0  0
  -23.2814  -32.2236   24.3560 O   0  0  0  0  0  0  0  0  0  0  0  0
  -19.6806  -31.2981   23.7460 O   0  0  0  0  0  0  0  0  0  0  0  0
  -20.7656  -26.8269   22.5834 O   0  0  0  0  0  0  0  0  0  0  0  0
  -30.0417  -16.2338   19.4895 O   0  0  0  0  0  0  0  0  0  0  0  0
  -21.6544   -8.1962   23.4527 O   0  0  0  0  0  0  0  0  0  0  0  0
  -26.8850  -28.6018   20.1845 O   0  0  0  0  0  0  0  0  0  1  0  0
  -20.6648   -2.7763   23.6752 F   0  0  0  0  0  0  0  0  0  0  0  0
  -20.6653   -6.8435   21.2539 F   0  0  0  0  0  0  0  0  0  0  0  0
  -29.3992  -19.6554   21.7926 Cl  0  0  0  0  0  0  0  0  0  0  0  0
  -25.6102  -19.6246   17.8724 Cl  0  0  0  0  0  0  0  0  0  0  0  0
  1  2  1  0  0  0  0
  1  5  2  0  0  0  0
  2  6  2  0  0  0  0
  3  8  2  0  0  0  0
  3 17  1  0  0  0  0
  4  9  1  0  0  0  0
  4 17  2  0  0  0  0
  5 19  1  0  0  0  0
  6 21  1  0  0  0  0
  7 10  2  0  0  0  0
  7 20  1  0  0  0  0
  8 25  1  0  0  0  0
  9 25  2  0  0  0  0
 10 26  1  0  0  0  0
 11 12  2  0  0  0  0
 11 27  1  0  0  0  0
 12 28  1  0  0  0  0
 13 22  1  0  0  0  0
 13 26  2  0  0  0  0
 14 23  1  0  0  0  0
 14 30  2  0  0  0  0
 15 23  2  0  0  0  0
 15 31  1  0  0  0  0
 16 28  2  0  0  0  0
 16 29  1  0  0  0  0
 17 32  1  0  0  0  0
 18 32  1  0  0  0  0
 18 33  2  0  0  0  0
 18 34  1  0  0  0  0
 19 21  2  0  0  0  0
 19 39  1  0  0  0  0
 20 22  2  0  0  0  0
 20 40  1  0  0  0  0
 21 48  1  0  0  0  0
 22 41  1  0  0  0  0
 23 57  1  0  0  0  0
 24 30  1  0  0  0  0
 24 31  2  0  0  0  0
 24 62  1  0  0  0  0
 25 81  1  0  0  0  0
 26 82  1  0  0  0  0
 27 29  2  0  0  0  0
 27 81  1  0  0  0  0
 28 83  1  0  0  0  0
 29 84  1  0  0  0  0
 30 85  1  0  0  0  0
 31 86  1  0  0  0  0
 32 66  2  0  0  0  0
 33 67  1  0  0  0  0
 33 70  1  0  0  0  0
 34 71  1  0  0  0  0
 34 76  2  0  0  0  0
 35 49  1  0  0  0  0
 35 72  1  0  0  0  0
 35 77  2  0  0  0  0
 36 63  1  0  0  0  0
 36 68  1  0  0  0  0
 36 78  2  0  0  0  0
 37 64  1  0  0  0  0
 37 73  1  0  0  0  0
 37 79  2  0  0  0  0
 38 69  1  0  0  0  0
 38 74  1  0  0  0  0
 38 80  2  0  0  0  0
 39 42  1  0  0  0  0
 40 49  1  0  0  0  0
 41 68  1  0  0  0  0
 42 44  1  0  0  0  0
 43 45  1  0  0  0  0
 43 46  1  0  0  0  0
 44 48  1  0  0  0  0
 45 50  1  0  0  0  0
 46 69  1  0  0  0  0
 47 50  1  0  0  0  0
 47 69  1  0  0  0  0
 48 72  1  0  0  0  0
 49 68  1  0  0  0  0
 50 67  1  0  0  0  0
 51 62  1  0  0  0  0
 52 64  1  0  0  0  0
 53 65  1  0  0  0  0
 54 65  1  0  0  0  0
 55 65  1  0  0  0  0
 56 75  1  0  0  0  0
 57 58  1  0  0  0  0
 58 59  1  0  0  0  0
 59 61  1  0  0  0  0
 60 62  1  0  0  0  0
 60 74  1  0  0  0  0
 61 82  1  0  0  0  0
 63 65  1  0  0  0  0
 63 73  1  0  0  0  0
 64 75  1  0  0  0  0
 66 67  1  0  0  0  0
M  CHG  1  75   1
M  ISO  4  38 100  61 101  74 100  82 101
M  END
> <Batch ID>
0023

> <Smiles>
CNC(C)C(=O)NC(C(=O)N1Cc2cc([101O:1][101CH2:1]CCCc3cc(Cl)c(C(C)C[100NH:0][100C:0](=O)N4CCCC(n5nc(-c6ccc(Oc7ccc(F)cc7F)cc6)c(C(N)=O)c5N)C4)c(Cl)c3)ccc2CC1C(=O)NC1CCCc2ccccc21)C(C)(C)C

> <Shape>
0.315

> <Color>
0.086

> <Negative vol penalty>
0.000

$$$$

  -OEChem-04052316193D

 86 94  0     1  0  0  0  0  0999 V2000
  -28.3325  -29.5010   27.6847 C   0  0  0  0  0  0  0  0  0  0  0  0
  -28.0014  -28.7273   26.5769 C   0  0  0  0  0  0  0  0  0  0  0  0
  -24.5058   -8.7104   21.0733 C   0  0  0  0  0  0  0  0  0  0  0  0
  -22.5907  -10.0792   20.5295 C   0  0  0  0  0  0  0  0  0  0  0  0
  -27.4534  -30.4855   28.1339 C   0  0  0  0  0  0  0  0  0  0  0  0
  -26.7902  -28.9370   25.9184 C   0  0  0  0  0  0  0  0  0  0  0  0
  -27.3046  -29.0072   20.8810 C   0  0  0  0  0  0  0  0  0  0  0  0
  -23.6605   -7.6327   21.3376 C   0  0  0  0  0  0  0  0  0  0  0  0
  -21.7454   -9.0016   20.7937 C   0  0  0  0  0  0  0  0  0  0  0  0
  -27.4336  -27.7774   20.2369 C   0  0  0  0  0  0  0  0  0  0  0  0
  -21.6481   -6.6041   23.8508 C   0  0  0  0  0  0  0  0  0  0  0  0
  -21.8895   -5.8600   25.0056 C   0  0  0  0  0  0  0  0  0  0  0  0
  -25.1005  -27.8575   19.6294 C   0  0  0  0  0  0  0  0  0  0  0  0
  -22.2237   -3.8810   23.6606 C   0  0  0  0  0  0  0  0  0  0  0  0
  -23.9709   -9.9336   20.6693 C   0  0  0  0  0  0  0  0  0  0  0  0
  -25.4335  -11.3831   19.1635 C   0  0  0  0  0  0  0  0  0  0  0  0
  -26.2352  -30.7138   27.4748 C   0  0  0  0  0  0  0  0  0  0  0  0
  -26.0678  -29.6673   20.9135 C   0  0  0  0  0  0  0  0  0  0  0  0
  -25.8933  -29.9245   26.3601 C   0  0  0  0  0  0  0  0  0  0  0  0
  -24.9589  -29.0967   20.2724 C   0  0  0  0  0  0  0  0  0  0  0  0
  -25.6498  -21.3225   18.4388 C   0  0  0  0  0  0  0  0  0  0  0  0
  -26.3413  -20.3081   17.7766 C   0  0  0  0  0  0  0  0  0  0  0  0
  -26.2069  -18.9259   19.7537 C   0  0  0  0  0  0  0  0  0  0  0  0
  -22.2803   -7.7783   21.1977 C   0  0  0  0  0  0  0  0  0  0  0  0
  -26.3308  -27.2010   19.6135 C   0  0  0  0  0  0  0  0  0  0  0  0
  -21.6944   -5.9866   22.6008 C   0  0  0  0  0  0  0  0  0  0  0  0
  -22.1773   -4.4984   24.9105 C   0  0  0  0  0  0  0  0  0  0  0  0
  -21.9822   -4.6251   22.5057 C   0  0  0  0  0  0  0  0  0  0  0  0
  -25.2369  -21.1387   19.7585 C   0  0  0  0  0  0  0  0  0  0  0  0
  -26.6198  -19.1098   18.4341 C   0  0  0  0  0  0  0  0  0  0  0  0
  -25.5154  -19.9404   20.4159 C   0  0  0  0  0  0  0  0  0  0  0  0
  -24.8435  -11.0474   20.3968 C   0  0  0  0  0  0  0  0  0  0  0  0
  -26.1654  -12.5144   19.4297 C   0  0  0  0  0  0  0  0  0  0  0  0
  -25.3291  -10.7307   17.8910 C   0  0  0  0  0  0  0  0  0  0  0  0
  -24.0708  -30.5775   23.2129 C   0  0  0  0  0  0  0  0  0  0  0  0
  -22.4934  -31.9813   20.7505 C   0  0  0  0  0  0  0  0  0  0  0  0
  -21.8367  -32.0656   17.4026 C   0  0  0  0  0  0  0  0  0  0  0  0
  -26.6966  -17.5285   21.7918 C   0  0  0  0  0  0  0  0  0  0  0  0
  -25.2960  -31.7573   28.0258 C   0  0  0  0  0  0  0  0  0  0  0  0
  -25.9514  -31.0059   21.5895 C   0  0  0  0  0  0  0  0  0  0  0  0
  -23.6139  -29.7745   20.2612 C   0  0  0  0  0  0  0  0  0  0  0  0
  -24.2004  -32.1691   27.0459 C   0  0  0  0  0  0  0  0  0  0  0  0
  -27.3767  -14.6932   23.8351 C   0  0  0  0  0  0  0  0  0  0  0  0
  -23.5661  -30.9381   26.4062 C   0  0  0  0  0  0  0  0  0  0  0  0
  -26.8268  -13.5195   23.0213 C   0  0  0  0  0  0  0  0  0  0  0  0
  -26.5051  -15.9397   23.6928 C   0  0  0  0  0  0  0  0  0  0  0  0
  -25.6869  -15.1815   21.4963 C   0  0  0  0  0  0  0  0  0  0  0  0
  -24.5999  -30.1385   25.6042 C   0  0  1  0  0  0  0  0  0  0  0  0
  -24.5224  -31.3446   22.0024 C   0  0  1  0  0  0  0  0  0  0  0  0
  -26.5669  -13.9222   21.5564 C   0  0  2  0  0  0  0  0  0  0  0  0
  -26.7741  -20.5278   16.3597 C   0  0  0  0  0  0  0  0  0  0  0  0
  -20.4779  -33.3007   15.6922 C   0  0  0  0  0  0  0  0  0  0  0  0
  -27.5656  -25.3083   16.3501 C   0  0  0  0  0  0  0  0  0  0  0  0
  -19.9895  -30.5036   21.6762 C   0  0  0  0  0  0  0  0  0  0  0  0
  -18.9578  -31.0003   19.4497 C   0  0  0  0  0  0  0  0  0  0  0  0
  -19.6022  -32.8710   20.9689 C   0  0  0  0  0  0  0  0  0  0  0  0
  -24.2579  -32.9528   15.9501 C   0  0  0  0  0  0  0  0  0  0  0  0
  -25.3380  -22.6200   17.7531 C   0  0  0  0  0  0  0  0  0  0  0  0
  -25.5974  -25.7609   17.8688 C   0  0  0  0  0  0  0  0  0  1  0  0
  -21.4094  -31.5518   19.7917 C   0  0  1  0  0  0  0  0  0  0  0  0
  -21.8164  -33.2128   16.4087 C   0  0  2  0  0  0  0  0  0  0  0  0
  -26.2484  -24.7828   16.8974 C   0  0  2  0  0  0  0  0  0  0  0  0
  -20.0145  -31.4677   20.4733 C   0  0  0  0  0  0  0  0  0  0  0  0
  -25.1723  -11.8966   21.3739 N   0  0  0  0  0  0  0  0  0  0  0  0
  -25.9770  -12.7771   20.7547 N   0  0  0  0  0  0  0  0  0  0  0  0
  -23.5493  -31.0788   20.9409 N   0  0  0  0  0  0  0  0  0  0  0  0
  -26.3054  -16.2633   22.2785 N   0  0  0  0  0  0  0  0  0  0  0  0
  -26.9455  -13.3001   18.6573 N   0  0  0  0  0  0  0  0  0  0  0  0
  -24.5352   -9.5799   17.7933 N   0  0  0  0  0  0  0  0  0  0  0  0
  -26.4880  -17.7102   20.4250 N   0  0  0  0  0  0  0  0  0  0  0  0
  -24.8568  -30.7780   24.3316 N   0  0  0  0  0  0  0  0  0  0  0  0
  -21.4695  -32.4780   18.6661 N   0  0  0  0  0  0  0  0  0  0  0  0
  -22.8857  -33.0316   15.3865 N   0  3  0  0  0  0  0  0  0  0  0  0
  -26.5213  -23.5076   17.6214 N   0  3  0  0  0  0  0  0  0  0  0  0
  -25.9355  -11.1464   16.8746 O   0  0  0  0  0  0  0  0  0  0  0  0
  -23.0815  -29.8582   23.1380 O   0  0  0  0  0  0  0  0  0  0  0  0
  -22.4101  -33.0804   21.3045 O   0  0  0  0  0  0  0  0  0  0  0  0
  -22.1438  -30.9177   17.0887 O   0  0  0  0  0  0  0  0  0  0  0  0
  -27.2060  -18.3778   22.5275 O   0  0  0  0  0  0  0  0  0  0  0  0
  -21.4552   -6.7269   21.4552 O   0  0  0  0  0  0  0  0  0  0  0  0
  -26.4539  -26.0005   18.9847 O   0  0  0  0  0  0  0  0  0  1  0  0
  -22.4107   -3.7843   26.0195 F   0  0  0  0  0  0  0  0  0  0  0  0
  -22.0293   -4.0267   21.3076 F   0  0  0  0  0  0  0  0  0  0  0  0
  -24.5718  -22.1192   20.3888 F   0  0  0  0  0  0  0  0  0  0  0  0
  -27.4799  -17.8527   17.6026 Cl  0  0  0  0  0  0  0  0  0  0  0  0
  -24.9856  -19.7535   22.0517 Cl  0  0  0  0  0  0  0  0  0  0  0  0
  1  2  1  0  0  0  0
  1  5  2  0  0  0  0
  2  6  2  0  0  0  0
  3  8  2  0  0  0  0
  3 15  1  0  0  0  0
  4  9  1  0  0  0  0
  4 15  2  0  0  0  0
  5 17  1  0  0  0  0
  6 19  1  0  0  0  0
  7 10  2  0  0  0  0
  7 18  1  0  0  0  0
  8 24  1  0  0  0  0
  9 24  2  0  0  0  0
 10 25  1  0  0  0  0
 11 12  2  0  0  0  0
 11 26  1  0  0  0  0
 12 27  1  0  0  0  0
 13 20  1  0  0  0  0
 13 25  2  0  0  0  0
 14 27  2  0  0  0  0
 14 28  1  0  0  0  0
 15 32  1  0  0  0  0
 16 32  1  0  0  0  0
 16 33  2  0  0  0  0
 16 34  1  0  0  0  0
 17 19  2  0  0  0  0
 17 39  1  0  0  0  0
 18 20  2  0  0  0  0
 18 40  1  0  0  0  0
 19 48  1  0  0  0  0
 20 41  1  0  0  0  0
 21 22  1  0  0  0  0
 21 29  2  0  0  0  0
 21 58  1  0  0  0  0
 22 30  2  0  0  0  0
 22 51  1  0  0  0  0
 23 30  1  0  0  0  0
 23 31  2  0  0  0  0
 23 70  1  0  0  0  0
 24 80  1  0  0  0  0
 25 81  1  0  0  0  0
 26 28  2  0  0  0  0
 26 80  1  0  0  0  0
 27 82  1  0  0  0  0
 28 83  1  0  0  0  0
 29 31  1  0  0  0  0
 29 84  1  0  0  0  0
 30 85  1  0  0  0  0
 31 86  1  0  0  0  0
 32 64  2  0  0  0  0
 33 65  1  0  0  0  0
 33 68  1  0  0  0  0
 34 69  1  0  0  0  0
 34 75  2  0  0  0  0
 35 49  1  0  0  0  0
 35 71  1  0  0  0  0
 35 76  2  0  0  0  0
 36 60  1  0  0  0  0
 36 66  1  0  0  0  0
 36 77  2  0  0  0  0
 37 61  1  0  0  0  0
 37 72  1  0  0  0  0
 37 78  2  0  0  0  0
 38 67  1  0  0  0  0
 38 70  1  0  0  0  0
 38 79  2  0  0  0  0
 39 42  1  0  0  0  0
 40 49  1  0  0  0  0
 41 66  1  0  0  0  0
 42 44  1  0  0  0  0
 43 45  1  0  0  0  0
 43 46  1  0  0  0  0
 44 48  1  0  0  0  0
 45 50  1  0  0  0  0
 46 67  1  0  0  0  0
 47 50  1  0  0  0  0
 47 67  1  0  0  0  0
 48 71  1  0  0  0  0
 49 66  1  0  0  0  0
 50 65  1  0  0  0  0
 52 61  1  0  0  0  0
 53 62  1  0  0  0  0
 54 63  1  0  0  0  0
 55 63  1  0  0  0  0
 56 63  1  0  0  0  0
 57 73  1  0  0  0  0
 58 74  1  0  0  0  0
 59 62  1  0  0  0  0
 59 81  1  0  0  0  0
 60 63  1  0  0  0  0
 60 72  1  0  0  0  0
 61 73  1  0  0  0  0
 62 74  1  0  0  0  0
 64 65  1  0  0  0  0
M  CHG  2  73   1  74   1
M  ISO  4  38 100  59 101  70 100  81 101
M  END
> <Batch ID>
0023

> <Smiles>
CNC(C)C(=O)NC(C(=O)N1Cc2cc([101O:1][101CH2:1]C(C)NCc3c(C)c(Cl)c([100NH:0][100C:0](=O)N4CCCC(n5nc(-c6ccc(Oc7ccc(F)cc7F)cc6)c(C(N)=O)c5N)C4)c(Cl)c3F)ccc2CC1C(=O)NC1CCCc2ccccc21)C(C)(C)C

> <Shape>
0.224

> <Color>
0.111

> <Negative vol penalty>
0.000

$$$$

  -OEChem-04052316193D

 92101  0     1  0  0  0  0  0999 V2000
  -33.5611  -26.0773   16.1257 C   0  0  0  0  0  0  0  0  0  0  0  0
  -32.2103  -25.9630   15.8129 C   0  0  0  0  0  0  0  0  0  0  0  0
  -26.8061  -12.5841   20.6185 C   0  0  0  0  0  0  0  0  0  0  0  0
  -25.3894  -14.5384   20.5158 C   0  0  0  0  0  0  0  0  0  0  0  0
  -33.9641  -26.1368   17.4591 C   0  0  0  0  0  0  0  0  0  0  0  0
  -31.2618  -25.9070   16.8335 C   0  0  0  0  0  0  0  0  0  0  0  0
  -25.5975  -28.2330   16.7268 C   0  0  0  0  0  0  0  0  0  0  0  0
  -25.7779  -11.8711   21.2351 C   0  0  0  0  0  0  0  0  0  0  0  0
  -24.3612  -13.8254   21.1324 C   0  0  0  0  0  0  0  0  0  0  0  0
  -24.3521  -27.6585   16.4765 C   0  0  0  0  0  0  0  0  0  0  0  0
  -22.9260  -10.3089   20.3082 C   0  0  0  0  0  0  0  0  0  0  0  0
  -22.6656   -9.0182   19.8480 C   0  0  0  0  0  0  0  0  0  0  0  0
  -24.0035  -27.3952   18.8489 C   0  0  0  0  0  0  0  0  0  0  0  0
  -23.1418   -8.1380   22.0470 C   0  0  0  0  0  0  0  0  0  0  0  0
  -26.6118  -13.9177   20.2589 C   0  0  0  0  0  0  0  0  0  0  0  0
  -28.3034  -14.3539   18.3999 C   0  0  0  0  0  0  0  0  0  0  0  0
  -33.0192  -26.0912   18.4964 C   0  0  0  0  0  0  0  0  0  0  0  0
  -26.0607  -28.3833   18.0418 C   0  0  0  0  0  0  0  0  0  0  0  0
  -31.6526  -25.9646   18.1821 C   0  0  0  0  0  0  0  0  0  0  0  0
  -25.2540  -27.9743   19.1133 C   0  0  0  0  0  0  0  0  0  0  0  0
  -21.9071  -21.3682   20.2212 C   0  0  0  0  0  0  0  0  0  0  0  0
  -24.5555  -12.4918   21.4920 C   0  0  0  0  0  0  0  0  0  0  0  0
  -23.5562  -27.2368   17.5374 C   0  0  0  0  0  0  0  0  0  0  0  0
  -23.2944  -10.5142   21.6378 C   0  0  0  0  0  0  0  0  0  0  0  0
  -22.7734   -7.9328   20.7173 C   0  0  0  0  0  0  0  0  0  0  0  0
  -23.4023   -9.4287   22.5072 C   0  0  0  0  0  0  0  0  0  0  0  0
  -27.6737  -14.6549   19.6225 C   0  0  0  0  0  0  0  0  0  0  0  0
  -20.7260  -21.5806   19.5531 C   0  0  0  0  0  0  0  0  0  0  0  0
  -21.8411  -20.0239   20.6340 C   0  0  0  0  0  0  0  0  0  0  0  0
  -29.2358  -15.3496   18.2397 C   0  0  0  0  0  0  0  0  0  0  0  0
  -28.0667  -13.2711   17.4904 C   0  0  0  0  0  0  0  0  0  0  0  0
  -28.5399  -27.2667   19.6882 C   0  0  0  0  0  0  0  0  0  0  0  0
  -27.4280  -29.2782   21.9772 C   0  0  0  0  0  0  0  0  0  0  0  0
  -25.6195  -31.3139   24.0345 C   0  0  0  0  0  0  0  0  0  0  0  0
  -29.6147  -20.9533   20.3148 C   0  0  0  0  0  0  0  0  0  0  0  0
  -33.5065  -26.1112   19.9236 C   0  0  0  0  0  0  0  0  0  0  0  0
  -27.3949  -29.0294   18.2962 C   0  0  0  0  0  0  0  0  0  0  0  0
  -25.6965  -28.1318   20.5443 C   0  0  0  0  0  0  0  0  0  0  0  0
  -32.4089  -26.4230   20.9376 C   0  0  0  0  0  0  0  0  0  0  0  0
  -31.9915  -18.3400   20.7605 C   0  0  0  0  0  0  0  0  0  0  0  0
  -31.1614  -25.5953   20.6454 C   0  0  0  0  0  0  0  0  0  0  0  0
  -19.9489  -23.9701   19.8503 C   0  0  0  0  0  0  0  0  0  0  0  0
  -21.0491  -23.2489   17.6790 C   0  0  0  0  0  0  0  0  0  0  0  0
  -31.2112  -17.0721   20.4091 C   0  0  0  0  0  0  0  0  0  0  0  0
  -19.3861  -25.2077   19.1486 C   0  0  0  0  0  0  0  0  0  0  0  0
  -20.4830  -24.4897   16.9855 C   0  0  0  0  0  0  0  0  0  0  0  0
  -31.1136  -19.3618   21.4798 C   0  0  0  0  0  0  0  0  0  0  0  0
  -29.0851  -18.4425   20.4243 C   0  0  0  0  0  0  0  0  0  0  0  0
  -30.5918  -25.9258   19.2606 C   0  0  1  0  0  0  0  0  0  0  0  0
  -20.1704  -22.8132   18.8626 C   0  0  0  0  0  0  0  0  0  0  0  0
  -27.9870  -28.6634   19.6537 C   0  0  1  0  0  0  0  0  0  0  0  0
  -29.9139  -17.4049   19.6479 C   0  0  2  0  0  0  0  0  0  0  0  0
  -20.2386  -25.6742   17.9472 C   0  0  0  0  0  0  0  0  0  0  0  0
  -22.8454  -19.2597   21.3956 C   0  0  0  0  0  0  0  0  0  0  0  0
  -19.4767  -26.7807   17.1935 C   0  0  0  0  0  0  0  0  0  0  0  0
  -25.5917  -32.2313   26.3700 C   0  0  0  0  0  0  0  0  0  0  0  0
  -26.4550  -26.5817   23.0223 C   0  0  0  0  0  0  0  0  0  0  0  0
  -25.5626  -27.7645   25.0405 C   0  0  0  0  0  0  0  0  0  0  0  0
  -28.0099  -27.7966   24.5588 C   0  0  0  0  0  0  0  0  0  0  0  0
  -18.7508  -20.1134   19.0414 C   0  0  0  0  0  0  0  0  0  0  0  0
  -25.8060  -34.1039   23.0649 C   0  0  0  0  0  0  0  0  0  0  0  0
  -21.5773  -26.2656   18.4300 C   0  0  0  0  0  0  0  0  0  1  0  0
  -25.8368  -22.3789   20.3941 C   0  0  0  0  0  0  0  0  0  0  0  0
  -24.9671  -23.1265   21.4060 C   0  0  0  0  0  0  0  0  0  0  0  0
  -27.1277  -23.1473   20.0966 C   0  0  0  0  0  0  0  0  0  0  0  0
  -23.6630  -22.3826   21.6750 C   0  0  0  0  0  0  0  0  0  0  0  0
  -28.0238  -22.4197   19.0992 C   0  0  0  0  0  0  0  0  0  0  0  0
  -26.4449  -29.1618   23.1170 C   0  0  1  0  0  0  0  0  0  0  0  0
  -26.0361  -32.4633   24.9343 C   0  0  2  0  0  0  0  0  0  0  0  0
  -26.6098  -27.8338   23.9085 C   0  0  0  0  0  0  0  0  0  0  0  0
  -28.1647  -15.7556   20.1981 N   0  0  0  0  0  0  0  0  0  0  0  0
  -20.7076  -19.4246   20.2596 N   0  0  0  0  0  0  0  0  0  0  0  0
  -20.0505  -20.3969   19.6046 N   0  0  0  0  0  0  0  0  0  0  0  0
  -29.1129  -16.1549   19.3335 N   0  0  0  0  0  0  0  0  0  0  0  0
  -27.0117  -28.7635   20.7413 N   0  0  0  0  0  0  0  0  0  0  0  0
  -29.9007  -19.6345   20.7049 N   0  0  0  0  0  0  0  0  0  0  0  0
  -30.1407  -15.6060   17.2712 N   0  0  0  0  0  0  0  0  0  0  0  0
  -27.0714  -12.3369   17.8085 N   0  0  0  0  0  0  0  0  0  0  0  0
  -22.9013  -22.2540   20.4301 N   0  0  0  0  0  0  0  0  0  0  0  0
  -29.8627  -27.1754   19.2991 N   0  0  0  0  0  0  0  0  0  0  0  0
  -26.6134  -30.3643   23.9257 N   0  0  0  0  0  0  0  0  0  0  0  0
  -28.4491  -21.1232   19.5778 N   0  0  0  0  0  0  0  0  0  0  0  0
  -25.4337  -33.7399   24.4563 N   0  3  0  0  0  0  0  0  0  0  0  0
  -28.7295  -13.1268   16.4353 O   0  0  0  0  0  0  0  0  0  0  0  0
  -27.8201  -26.3406   20.0430 O   0  0  0  0  0  0  0  0  0  0  0  0
  -28.5221  -29.8127   22.1745 O   0  0  0  0  0  0  0  0  0  0  0  0
  -24.5208  -31.2616   23.4861 O   0  0  0  0  0  0  0  0  0  0  0  0
  -30.3469  -21.9077   20.5976 O   0  0  0  0  0  0  0  0  0  0  0  0
  -23.5519  -11.7963   22.0935 O   0  0  0  0  0  0  0  0  0  0  0  0
  -22.3404  -26.6750   17.2959 O   0  0  0  0  0  0  0  0  0  1  0  0
  -22.5218   -6.6935   20.2756 F   0  0  0  0  0  0  0  0  0  0  0  0
  -23.7546   -9.6198   23.7859 F   0  0  0  0  0  0  0  0  0  0  0  0
  1  2  1  0  0  0  0
  1  5  2  0  0  0  0
  2  6  2  0  0  0  0
  3  8  2  0  0  0  0
  3 15  1  0  0  0  0
  4  9  1  0  0  0  0
  4 15  2  0  0  0  0
  5 17  1  0  0  0  0
  6 19  1  0  0  0  0
  7 10  2  0  0  0  0
  7 18  1  0  0  0  0
  8 22  1  0  0  0  0
  9 22  2  0  0  0  0
 10 23  1  0  0  0  0
 11 12  2  0  0  0  0
 11 24  1  0  0  0  0
 12 25  1  0  0  0  0
 13 20  1  0  0  0  0
 13 23  2  0  0  0  0
 14 25  2  0  0  0  0
 14 26  1  0  0  0  0
 15 27  1  0  0  0  0
 16 27  1  0  0  0  0
 16 30  2  0  0  0  0
 16 31  1  0  0  0  0
 17 19  2  0  0  0  0
 17 36  1  0  0  0  0
 18 20  2  0  0  0  0
 18 37  1  0  0  0  0
 19 49  1  0  0  0  0
 20 38  1  0  0  0  0
 21 28  2  0  0  0  0
 21 29  1  0  0  0  0
 21 79  1  0  0  0  0
 22 89  1  0  0  0  0
 23 90  1  0  0  0  0
 24 26  2  0  0  0  0
 24 89  1  0  0  0  0
 25 91  1  0  0  0  0
 26 92  1  0  0  0  0
 27 71  2  0  0  0  0
 28 50  1  0  0  0  0
 28 73  1  0  0  0  0
 29 54  1  0  0  0  0
 29 72  2  0  0  0  0
 30 74  1  0  0  0  0
 30 77  1  0  0  0  0
 31 78  1  0  0  0  0
 31 84  2  0  0  0  0
 32 51  1  0  0  0  0
 32 80  1  0  0  0  0
 32 85  2  0  0  0  0
 33 68  1  0  0  0  0
 33 75  1  0  0  0  0
 33 86  2  0  0  0  0
 34 69  1  0  0  0  0
 34 81  1  0  0  0  0
 34 87  2  0  0  0  0
 35 76  1  0  0  0  0
 35 82  1  0  0  0  0
 35 88  2  0  0  0  0
 36 39  1  0  0  0  0
 37 51  1  0  0  0  0
 38 75  1  0  0  0  0
 39 41  1  0  0  0  0
 40 44  1  0  0  0  0
 40 47  1  0  0  0  0
 41 49  1  0  0  0  0
 42 45  1  0  0  0  0
 42 50  1  0  0  0  0
 43 46  1  0  0  0  0
 43 50  1  0  0  0  0
 44 52  1  0  0  0  0
 45 53  1  0  0  0  0
 46 53  1  0  0  0  0
 47 76  1  0  0  0  0
 48 52  1  0  0  0  0
 48 76  1  0  0  0  0
 49 80  1  0  0  0  0
 51 75  1  0  0  0  0
 52 74  1  0  0  0  0
 53 55  1  0  0  0  0
 53 62  1  0  0  0  0
 56 69  1  0  0  0  0
 57 70  1  0  0  0  0
 58 70  1  0  0  0  0
 59 70  1  0  0  0  0
 60 73  1  0  0  0  0
 61 83  1  0  0  0  0
 62 90  1  0  0  0  0
 63 64  1  0  0  0  0
 63 65  1  0  0  0  0
 64 66  1  0  0  0  0
 65 67  1  0  0  0  0
 66 79  1  0  0  0  0
 67 82  1  0  0  0  0
 68 70  1  0  0  0  0
 68 81  1  0  0  0  0
 69 83  1  0  0  0  0
 71 74  1  0  0  0  0
 72 73  1  0  0  0  0
M  CHG  1  83   1
M  ISO  4  35 100  62 101  82 100  90 101
M  END
> <Batch ID>
0023

> <Smiles>
CNC(C)C(=O)NC(C(=O)N1Cc2cc([101O:1][101CH2:1]C3(C)CCC(c4c(NCCCCC[100NH:0][100C:0](=O)N5CCCC(n6nc(-c7ccc(Oc8ccc(F)cc8F)cc7)c(C(N)=O)c6N)C5)c(C)nn4C)CC3)ccc2CC1C(=O)NC1CCCc2ccccc21)C(C)(C)C

> <Shape>
0.253

> <Color>
0.070

> <Negative vol penalty>
0.000

$$$$

  -OEChem-04052316193D

 84 92  0     1  0  0  0  0  0999 V2000
  -40.0478  -21.0000   27.0886 C   0  0  0  0  0  0  0  0  0  0  0  0
  -39.3632  -20.9266   25.8797 C   0  0  0  0  0  0  0  0  0  0  0  0
  -23.0728   -9.8713   19.9338 C   0  0  0  0  0  0  0  0  0  0  0  0
  -23.8396   -9.8696   22.2249 C   0  0  0  0  0  0  0  0  0  0  0  0
  -39.3456  -21.2129   28.2741 C   0  0  0  0  0  0  0  0  0  0  0  0
  -37.9759  -21.0650   25.8558 C   0  0  0  0  0  0  0  0  0  0  0  0
  -34.6133  -23.6933   21.4636 C   0  0  0  0  0  0  0  0  0  0  0  0
  -22.3304   -8.7167   20.1814 C   0  0  0  0  0  0  0  0  0  0  0  0
  -23.0971   -8.7150   22.4725 C   0  0  0  0  0  0  0  0  0  0  0  0
  -33.8886  -23.1665   20.3954 C   0  0  0  0  0  0  0  0  0  0  0  0
  -19.8713   -7.9128   23.0816 C   0  0  0  0  0  0  0  0  0  0  0  0
  -19.1179   -7.8677   24.2546 C   0  0  0  0  0  0  0  0  0  0  0  0
  -31.8793  -23.2446   21.7279 C   0  0  0  0  0  0  0  0  0  0  0  0
  -20.3627   -5.9281   24.9795 C   0  0  0  0  0  0  0  0  0  0  0  0
  -23.8274  -10.4477   20.9556 C   0  0  0  0  0  0  0  0  0  0  0  0
  -24.1674  -12.9735   20.8446 C   0  0  0  0  0  0  0  0  0  0  0  0
  -37.9500  -21.3636   28.2637 C   0  0  0  0  0  0  0  0  0  0  0  0
  -33.9774  -23.9899   22.6777 C   0  0  0  0  0  0  0  0  0  0  0  0
  -37.2543  -21.2788   27.0425 C   0  0  0  0  0  0  0  0  0  0  0  0
  -32.5976  -23.7774   22.8092 C   0  0  0  0  0  0  0  0  0  0  0  0
  -29.4875  -18.7751   20.7373 C   0  0  0  0  0  0  0  0  0  0  0  0
  -29.6845  -19.7406   19.7081 C   0  0  0  0  0  0  0  0  0  0  0  0
  -22.3425   -8.1385   21.4507 C   0  0  0  0  0  0  0  0  0  0  0  0
  -32.5220  -22.9394   20.5284 C   0  0  0  0  0  0  0  0  0  0  0  0
  -20.8704   -6.9654   22.8575 C   0  0  0  0  0  0  0  0  0  0  0  0
  -19.3636   -6.8754   25.2036 C   0  0  0  0  0  0  0  0  0  0  0  0
  -21.1161   -5.9731   23.8065 C   0  0  0  0  0  0  0  0  0  0  0  0
  -24.5950  -11.6401   20.7003 C   0  0  0  0  0  0  0  0  0  0  0  0
  -30.6060  -17.9963   20.9372 C   0  0  0  0  0  0  0  0  0  0  0  0
  -30.9463  -19.6630   19.1606 C   0  0  0  0  0  0  0  0  0  0  0  0
  -25.2580  -13.7251   20.4811 C   0  0  0  0  0  0  0  0  0  0  0  0
  -22.8979  -13.4869   21.2694 C   0  0  0  0  0  0  0  0  0  0  0  0
  -34.2616  -22.9561   25.6701 C   0  0  0  0  0  0  0  0  0  0  0  0
  -32.1240  -25.3192   26.2771 C   0  0  0  0  0  0  0  0  0  0  0  0
  -29.6499  -27.3585   25.1080 C   0  0  0  0  0  0  0  0  0  0  0  0
  -30.7416  -14.7468   20.6569 C   0  0  0  0  0  0  0  0  0  0  0  0
  -37.2296  -21.5450   29.5762 C   0  0  0  0  0  0  0  0  0  0  0  0
  -34.7682  -24.5826   23.8116 C   0  0  0  0  0  0  0  0  0  0  0  0
  -31.8639  -24.0980   24.0848 C   0  0  0  0  0  0  0  0  0  0  0  0
  -35.7993  -22.0553   29.4205 C   0  0  0  0  0  0  0  0  0  0  0  0
  -29.5983  -12.3712   18.2641 C   0  0  0  0  0  0  0  0  0  0  0  0
  -35.0685  -21.2727   28.3341 C   0  0  0  0  0  0  0  0  0  0  0  0
  -28.1623  -12.0748   18.7002 C   0  0  0  0  0  0  0  0  0  0  0  0
  -30.5189  -12.5878   19.4631 C   0  0  0  0  0  0  0  0  0  0  0  0
  -28.6209  -13.3121   20.8583 C   0  0  0  0  0  0  0  0  0  0  0  0
  -35.7522  -21.4488   26.9728 C   0  0  1  0  0  0  0  0  0  0  0  0
  -34.1147  -24.3664   25.1731 C   0  0  1  0  0  0  0  0  0  0  0  0
  -27.6433  -13.1416   19.6829 C   0  0  2  0  0  0  0  0  0  0  0  0
  -28.2265  -18.6251   21.5056 C   0  0  0  0  0  0  0  0  0  0  0  0
  -28.0669  -29.1593   25.8487 C   0  0  0  0  0  0  0  0  0  0  0  0
  -30.3847  -23.2220   27.6506 C   0  0  0  0  0  0  0  0  0  0  0  0
  -28.4665  -24.8253   27.5154 C   0  0  0  0  0  0  0  0  0  0  0  0
  -30.4977  -25.4218   28.8350 C   0  0  0  0  0  0  0  0  0  0  0  0
  -30.8056  -29.3153   23.2121 C   0  0  0  0  0  0  0  0  0  0  0  0
  -31.5541  -20.4955   18.0580 C   0  0  0  0  0  0  0  0  0  0  0  0
  -30.8099  -16.8924   21.9022 C   0  0  0  0  0  0  0  0  0  0  0  0
  -32.5082  -21.5581   18.5925 C   0  0  0  0  0  0  0  0  0  1  0  0
  -30.6178  -25.4159   26.3096 C   0  0  1  0  0  0  0  0  0  0  0  0
  -29.4287  -28.8541   25.2444 C   0  0  2  0  0  0  0  0  0  0  0  0
  -28.6535  -20.7169   19.2761 C   0  0  0  0  0  0  0  0  0  0  0  0
  -30.0056  -24.7133   27.5542 C   0  0  0  0  0  0  0  0  0  0  0  0
  -25.8587  -11.5467   20.2778 N   0  0  0  0  0  0  0  0  0  0  0  0
  -26.2344  -12.8310   20.1535 N   0  0  0  0  0  0  0  0  0  0  0  0
  -32.6821  -24.6699   25.1669 N   0  0  0  0  0  0  0  0  0  0  0  0
  -29.9704  -13.6124   20.3548 N   0  0  0  0  0  0  0  0  0  0  0  0
  -25.4674  -15.0570   20.4127 N   0  0  0  0  0  0  0  0  0  0  0  0
  -21.8875  -12.5757   21.6061 N   0  0  0  0  0  0  0  0  0  0  0  0
  -35.4138  -22.7339   26.3998 N   0  0  0  0  0  0  0  0  0  0  0  0
  -30.2977  -26.8356   26.2072 N   0  0  0  0  0  0  0  0  0  0  0  0
  -30.1445  -15.6719   21.5045 N   0  0  0  0  0  0  0  0  0  0  0  0
  -29.5094  -29.5135   23.9104 N   0  3  0  0  0  0  0  0  0  0  0  0
  -22.6610  -14.7171   21.3324 O   0  0  0  0  0  0  0  0  0  0  0  0
  -33.3932  -22.1309   25.4119 O   0  0  0  0  0  0  0  0  0  0  0  0
  -32.7814  -25.8083   27.1992 O   0  0  0  0  0  0  0  0  0  0  0  0
  -29.2813  -26.7175   24.1262 O   0  0  0  0  0  0  0  0  0  0  0  0
  -31.8761  -14.9248   20.2006 O   0  0  0  0  0  0  0  0  0  0  0  0
  -21.6180   -7.0120   21.6928 O   0  0  0  0  0  0  0  0  0  0  0  0
  -31.8124  -22.4248   19.4874 O   0  0  0  0  0  0  0  0  0  1  0  0
  -18.6411   -6.8331   26.3307 F   0  0  0  0  0  0  0  0  0  0  0  0
  -22.0753   -5.0611   23.5973 F   0  0  0  0  0  0  0  0  0  0  0  0
  -27.4718  -20.6147   19.9595 F   0  0  0  0  0  0  0  0  0  0  0  0
  -29.0313  -22.0240   19.4252 F   0  0  0  0  0  0  0  0  0  0  0  0
  -28.3178  -20.5878   17.9565 F   0  0  0  0  0  0  0  0  0  0  0  0
  -31.8869  -18.4299   19.8867 S   0  0  0  0  0  0  0  0  0  0  0  0
  1  2  1  0  0  0  0
  1  5  2  0  0  0  0
  2  6  2  0  0  0  0
  3  8  2  0  0  0  0
  3 15  1  0  0  0  0
  4  9  1  0  0  0  0
  4 15  2  0  0  0  0
  5 17  1  0  0  0  0
  6 19  1  0  0  0  0
  7 10  2  0  0  0  0
  7 18  1  0  0  0  0
  8 23  1  0  0  0  0
  9 23  2  0  0  0  0
 10 24  1  0  0  0  0
 11 12  2  0  0  0  0
 11 25  1  0  0  0  0
 12 26  1  0  0  0  0
 13 20  1  0  0  0  0
 13 24  2  0  0  0  0
 14 26  2  0  0  0  0
 14 27  1  0  0  0  0
 15 28  1  0  0  0  0
 16 28  1  0  0  0  0
 16 31  2  0  0  0  0
 16 32  1  0  0  0  0
 17 19  2  0  0  0  0
 17 37  1  0  0  0  0
 18 20  2  0  0  0  0
 18 38  1  0  0  0  0
 19 46  1  0  0  0  0
 20 39  1  0  0  0  0
 21 22  1  0  0  0  0
 21 29  2  0  0  0  0
 21 49  1  0  0  0  0
 22 30  2  0  0  0  0
 22 60  1  0  0  0  0
 23 77  1  0  0  0  0
 24 78  1  0  0  0  0
 25 27  2  0  0  0  0
 25 77  1  0  0  0  0
 26 79  1  0  0  0  0
 27 80  1  0  0  0  0
 28 62  2  0  0  0  0
 29 56  1  0  0  0  0
 29 84  1  0  0  0  0
 30 55  1  0  0  0  0
 30 84  1  0  0  0  0
 31 63  1  0  0  0  0
 31 66  1  0  0  0  0
 32 67  1  0  0  0  0
 32 72  2  0  0  0  0
 33 47  1  0  0  0  0
 33 68  1  0  0  0  0
 33 73  2  0  0  0  0
 34 58  1  0  0  0  0
 34 64  1  0  0  0  0
 34 74  2  0  0  0  0
 35 59  1  0  0  0  0
 35 69  1  0  0  0  0
 35 75  2  0  0  0  0
 36 65  1  0  0  0  0
 36 70  1  0  0  0  0
 36 76  2  0  0  0  0
 37 40  1  0  0  0  0
 38 47  1  0  0  0  0
 39 64  1  0  0  0  0
 40 42  1  0  0  0  0
 41 43  1  0  0  0  0
 41 44  1  0  0  0  0
 42 46  1  0  0  0  0
 43 48  1  0  0  0  0
 44 65  1  0  0  0  0
 45 48  1  0  0  0  0
 45 65  1  0  0  0  0
 46 68  1  0  0  0  0
 47 64  1  0  0  0  0
 48 63  1  0  0  0  0
 50 59  1  0  0  0  0
 51 61  1  0  0  0  0
 52 61  1  0  0  0  0
 53 61  1  0  0  0  0
 54 71  1  0  0  0  0
 55 57  1  0  0  0  0
 56 70  1  0  0  0  0
 57 78  1  0  0  0  0
 58 61  1  0  0  0  0
 58 69  1  0  0  0  0
 59 71  1  0  0  0  0
 60 81  1  0  0  0  0
 60 82  1  0  0  0  0
 60 83  1  0  0  0  0
 62 63  1  0  0  0  0
M  CHG  1  71   1
M  ISO  4  36 100  57 101  70 100  78 101
M  END
> <Batch ID>
0023

> <Smiles>
CNC(C)C(=O)NC(C(=O)N1Cc2cc([101O:1][101CH2:1]Cc3sc(C[100NH:0][100C:0](=O)N4CCCC(n5nc(-c6ccc(Oc7ccc(F)cc7F)cc6)c(C(N)=O)c5N)C4)c(C)c3C(F)(F)F)ccc2CC1C(=O)NC1CCCc2ccccc21)C(C)(C)C

> <Shape>
0.211

> <Color>
0.200

> <Negative vol penalty>
0.000

$$$$

  -OEChem-04052316193D

 87 95  0     1  0  0  0  0  0999 V2000
  -18.0578  -28.5809   22.9881 C   0  0  0  0  0  0  0  0  0  0  0  0
  -18.5695  -27.5373   22.2236 C   0  0  0  0  0  0  0  0  0  0  0  0
  -23.3879   -9.7029   21.5016 C   0  0  0  0  0  0  0  0  0  0  0  0
  -24.0398  -10.7779   23.5647 C   0  0  0  0  0  0  0  0  0  0  0  0
  -18.9210  -29.5222   23.5474 C   0  0  0  0  0  0  0  0  0  0  0  0
  -19.9447  -27.4349   22.0171 C   0  0  0  0  0  0  0  0  0  0  0  0
  -25.1091  -22.5498   21.1333 C   0  0  0  0  0  0  0  0  0  0  0  0
  -22.7242   -8.7134   22.2269 C   0  0  0  0  0  0  0  0  0  0  0  0
  -23.3761   -9.7885   24.2900 C   0  0  0  0  0  0  0  0  0  0  0  0
  -26.1500  -22.2282   20.2633 C   0  0  0  0  0  0  0  0  0  0  0  0
  -20.5531   -6.1039   23.5276 C   0  0  0  0  0  0  0  0  0  0  0  0
  -19.2786   -5.7316   23.1005 C   0  0  0  0  0  0  0  0  0  0  0  0
  -27.5518  -23.8669   21.3443 C   0  0  0  0  0  0  0  0  0  0  0  0
  -18.5064   -7.9971   23.4300 C   0  0  0  0  0  0  0  0  0  0  0  0
  -24.0458  -10.7351   22.1705 C   0  0  0  0  0  0  0  0  0  0  0  0
  -24.1979  -12.9738   20.9569 C   0  0  0  0  0  0  0  0  0  0  0  0
  -20.3083  -29.4259   23.3556 C   0  0  0  0  0  0  0  0  0  0  0  0
  -25.2785  -23.5418   22.1099 C   0  0  0  0  0  0  0  0  0  0  0  0
  -20.8272  -28.3766   22.5732 C   0  0  0  0  0  0  0  0  0  0  0  0
  -26.5124  -24.1975   22.2271 C   0  0  0  0  0  0  0  0  0  0  0  0
  -22.7182   -8.7562   23.6211 C   0  0  0  0  0  0  0  0  0  0  0  0
  -27.3706  -22.8888   20.3668 C   0  0  0  0  0  0  0  0  0  0  0  0
  -20.8043   -7.4228   23.9060 C   0  0  0  0  0  0  0  0  0  0  0  0
  -18.2552   -6.6782   23.0516 C   0  0  0  0  0  0  0  0  0  0  0  0
  -19.7810   -8.3694   23.8572 C   0  0  0  0  0  0  0  0  0  0  0  0
  -24.7321  -11.7572   21.4219 C   0  0  0  0  0  0  0  0  0  0  0  0
  -25.2447  -13.5834   20.3095 C   0  0  0  0  0  0  0  0  0  0  0  0
  -22.8738  -13.5054   21.0978 C   0  0  0  0  0  0  0  0  0  0  0  0
  -23.9098  -26.3447   22.7213 C   0  0  0  0  0  0  0  0  0  0  0  0
  -25.7658  -26.2310   25.3792 C   0  0  0  0  0  0  0  0  0  0  0  0
  -28.5599  -25.0099   26.9117 C   0  0  0  0  0  0  0  0  0  0  0  0
  -30.6197  -15.0658   20.0713 C   0  0  0  0  0  0  0  0  0  0  0  0
  -21.1979  -30.4940   23.9407 C   0  0  0  0  0  0  0  0  0  0  0  0
  -24.1546  -23.8583   23.0581 C   0  0  0  0  0  0  0  0  0  0  0  0
  -26.7519  -25.2558   23.2717 C   0  0  0  0  0  0  0  0  0  0  0  0
  -22.6724  -30.1012   23.9859 C   0  0  0  0  0  0  0  0  0  0  0  0
  -29.7784  -11.7878   18.9649 C   0  0  0  0  0  0  0  0  0  0  0  0
  -23.1046  -29.4958   22.6542 C   0  0  0  0  0  0  0  0  0  0  0  0
  -28.3495  -11.5860   19.4724 C   0  0  0  0  0  0  0  0  0  0  0  0
  -30.1985  -18.0157   18.8077 C   0  0  0  0  0  0  0  0  0  0  0  0
  -30.6202  -12.5914   19.9537 C   0  0  0  0  0  0  0  0  0  0  0  0
  -28.6068  -13.6820   20.8650 C   0  0  0  0  0  0  0  0  0  0  0  0
  -30.7677  -19.4048   18.5610 C   0  0  0  0  0  0  0  0  0  0  0  0
  -30.5472  -19.9459   20.9977 C   0  0  0  0  0  0  0  0  0  0  0  0
  -22.3151  -28.2176   22.3471 C   0  0  1  0  0  0  0  0  0  0  0  0
  -24.2710  -25.2462   23.6806 C   0  0  1  0  0  0  0  0  0  0  0  0
  -27.7036  -12.9249   19.8764 C   0  0  2  0  0  0  0  0  0  0  0  0
  -30.4639  -17.5369   20.2393 C   0  0  1  0  0  0  0  0  0  0  0  0
  -29.9661  -18.5488   21.3103 C   0  0  2  0  0  0  0  0  0  0  0  0
  -29.8319  -25.1260   29.0718 C   0  0  0  0  0  0  0  0  0  0  0  0
  -29.9131  -16.7850   23.0964 C   0  0  0  0  0  0  0  0  0  0  0  0
  -31.9997  -18.1301   22.7217 C   0  0  0  0  0  0  0  0  0  0  0  0
  -28.4010  -20.4763   23.1104 C   0  0  0  0  0  0  0  0  0  0  0  0
  -26.3756  -19.0584   22.7224 C   0  0  0  0  0  0  0  0  0  0  0  0
  -32.1010  -21.9221   19.8088 C   0  0  0  0  0  0  0  0  0  0  0  0
  -26.8294  -28.9832   24.6023 C   0  0  0  0  0  0  0  0  0  0  0  0
  -28.7208  -28.6274   26.2035 C   0  0  0  0  0  0  0  0  0  0  0  0
  -26.3730  -28.6924   27.0439 C   0  0  0  0  0  0  0  0  0  0  0  0
  -28.2231  -22.1104   27.4001 C   0  0  0  0  0  0  0  0  0  0  0  0
  -28.4243  -18.6127   21.3743 C   0  0  0  0  0  0  0  0  0  0  0  0
  -29.7173  -22.7355   20.0124 C   0  0  0  0  0  0  0  0  0  1  0  0
  -27.1632  -26.6836   25.7276 C   0  0  1  0  0  0  0  0  0  0  0  0
  -28.7668  -24.3843   28.2793 C   0  0  2  0  0  0  0  0  0  0  0  0
  -30.4789  -18.1428   22.7096 C   0  0  0  0  0  0  0  0  0  0  0  0
  -27.9059  -19.0786   22.7361 C   0  0  0  0  0  0  0  0  0  0  0  0
  -30.6724  -21.7768   19.3103 C   0  0  2  0  0  0  0  0  0  0  0  0
  -27.2668  -28.2281   25.8733 C   0  0  0  0  0  0  0  0  0  0  0  0
  -26.0183  -11.6013   21.0972 N   0  0  0  0  0  0  0  0  0  0  0  0
  -26.3010  -12.7279   20.4214 N   0  0  0  0  0  0  0  0  0  0  0  0
  -25.6203  -25.5342   24.1713 N   0  0  0  0  0  0  0  0  0  0  0  0
  -29.9526  -13.8500   20.2944 N   0  0  0  0  0  0  0  0  0  0  0  0
  -25.3553  -14.7622   19.6611 N   0  0  0  0  0  0  0  0  0  0  0  0
  -21.9204  -12.7487   21.7925 N   0  0  0  0  0  0  0  0  0  0  0  0
  -22.8293  -27.1078   23.1207 N   0  0  0  0  0  0  0  0  0  0  0  0
  -27.5453  -25.9435   26.9253 N   0  0  0  0  0  0  0  0  0  0  0  0
  -29.9133  -16.2116   20.4159 N   0  0  0  0  0  0  0  0  0  0  0  0
  -30.2208  -20.3668   19.5839 N   0  3  1  0  0  0  0  0  0  0  0  0
  -29.1899  -22.9621   28.1397 N   0  3  0  0  0  0  0  0  0  0  0  0
  -22.5414  -14.6112   20.6075 O   0  0  0  0  0  0  0  0  0  0  0  0
  -24.5641  -26.4903   21.6953 O   0  0  0  0  0  0  0  0  0  0  0  0
  -24.8387  -26.4800   26.1539 O   0  0  0  0  0  0  0  0  0  0  0  0
  -29.2337  -24.7039   25.9304 O   0  0  0  0  0  0  0  0  0  0  0  0
  -31.7583  -15.1259   19.5949 O   0  0  0  0  0  0  0  0  0  0  0  0
  -22.0704   -7.7910   24.3291 O   0  0  0  0  0  0  0  0  0  0  0  0
  -28.3949  -22.5752   19.5127 O   0  0  0  0  0  0  0  0  0  1  0  0
  -17.0317   -6.3208   22.6399 F   0  0  0  0  0  0  0  0  0  0  0  0
  -20.0165   -9.6382   24.2183 F   0  0  0  0  0  0  0  0  0  0  0  0
  1  2  1  0  0  0  0
  1  5  2  0  0  0  0
  2  6  2  0  0  0  0
  3  8  2  0  0  0  0
  3 15  1  0  0  0  0
  4  9  1  0  0  0  0
  4 15  2  0  0  0  0
  5 17  1  0  0  0  0
  6 19  1  0  0  0  0
  7 10  2  0  0  0  0
  7 18  1  0  0  0  0
  8 21  1  0  0  0  0
  9 21  2  0  0  0  0
 10 22  1  0  0  0  0
 11 12  2  0  0  0  0
 11 23  1  0  0  0  0
 12 24  1  0  0  0  0
 13 20  1  0  0  0  0
 13 22  2  0  0  0  0
 14 24  2  0  0  0  0
 14 25  1  0  0  0  0
 15 26  1  0  0  0  0
 16 26  1  0  0  0  0
 16 27  2  0  0  0  0
 16 28  1  0  0  0  0
 17 19  2  0  0  0  0
 17 33  1  0  0  0  0
 18 20  2  0  0  0  0
 18 34  1  0  0  0  0
 19 45  1  0  0  0  0
 20 35  1  0  0  0  0
 21 84  1  0  0  0  0
 22 85  1  0  0  0  0
 23 25  2  0  0  0  0
 23 84  1  0  0  0  0
 24 86  1  0  0  0  0
 25 87  1  0  0  0  0
 26 68  2  0  0  0  0
 27 69  1  0  0  0  0
 27 72  1  0  0  0  0
 28 73  1  0  0  0  0
 28 79  2  0  0  0  0
 29 46  1  0  0  0  0
 29 74  1  0  0  0  0
 29 80  2  0  0  0  0
 30 62  1  0  0  0  0
 30 70  1  0  0  0  0
 30 81  2  0  0  0  0
 31 63  1  0  0  0  0
 31 75  1  0  0  0  0
 31 82  2  0  0  0  0
 32 71  1  0  0  0  0
 32 76  1  0  0  0  0
 32 83  2  0  0  0  0
 33 36  1  0  0  0  0
 34 46  1  0  0  0  0
 35 70  1  0  0  0  0
 36 38  1  0  0  0  0
 37 39  1  0  0  0  0
 37 41  1  0  0  0  0
 38 45  1  0  0  0  0
 39 47  1  0  0  0  0
 40 43  1  0  0  0  0
 40 48  1  0  0  0  0
 41 71  1  0  0  0  0
 42 47  1  0  0  0  0
 42 71  1  0  0  0  0
 43 77  1  0  0  0  0
 44 49  1  0  0  0  0
 44 77  1  0  0  0  0
 45 74  1  0  0  0  0
 46 70  1  0  0  0  0
 47 69  1  0  0  0  0
 48 49  1  0  0  0  0
 48 76  1  0  0  0  0
 49 60  1  0  0  0  0
 49 64  1  0  0  0  0
 50 63  1  0  0  0  0
 51 64  1  0  0  0  0
 52 64  1  0  0  0  0
 53 65  1  0  0  0  0
 54 65  1  0  0  0  0
 55 66  1  0  0  0  0
 56 67  1  0  0  0  0
 57 67  1  0  0  0  0
 58 67  1  0  0  0  0
 59 78  1  0  0  0  0
 60 65  1  0  0  0  0
 61 66  1  0  0  0  0
 61 85  1  0  0  0  0
 62 67  1  0  0  0  0
 62 75  1  0  0  0  0
 63 78  1  0  0  0  0
 66 77  1  0  0  0  0
 68 69  1  0  0  0  0
M  CHG  2  77   1  78   1
M  ISO  4  32 100  61 101  76 100  85 101
M  END
> <Batch ID>
0023

> <Smiles>
CNC(C)C(=O)NC(C(=O)N1Cc2cc([101O:1][101CH2:1]C(C)N3CCC([100NH:0][100C:0](=O)N4CCCC(n5nc(-c6ccc(Oc7ccc(F)cc7F)cc6)c(C(N)=O)c5N)C4)C(CC(C)C)(C(C)C)C3)ccc2CC1C(=O)NC1CCCc2ccccc21)C(C)(C)C

> <Shape>
0.248

> <Color>
0.138

> <Negative vol penalty>
0.000

$$$$

  -OEChem-04052316193D

 94102  0     1  0  0  0  0  0999 V2000
  -28.2203  -19.2065   30.7002 C   0  0  0  0  0  0  0  0  0  0  0  0
  -28.1420  -20.5902   30.5792 C   0  0  0  0  0  0  0  0  0  0  0  0
  -26.5016  -12.6753   21.6381 C   0  0  0  0  0  0  0  0  0  0  0  0
  -26.0471  -13.6627   19.4804 C   0  0  0  0  0  0  0  0  0  0  0  0
  -27.9292  -18.3945   29.6049 C   0  0  0  0  0  0  0  0  0  0  0  0
  -27.7735  -21.1628   29.3623 C   0  0  0  0  0  0  0  0  0  0  0  0
  -24.4899  -26.2663   28.5393 C   0  0  0  0  0  0  0  0  0  0  0  0
  -25.2246  -12.1143   21.6505 C   0  0  0  0  0  0  0  0  0  0  0  0
  -24.7701  -13.1017   19.4928 C   0  0  0  0  0  0  0  0  0  0  0  0
  -24.8559  -27.5824   28.2605 C   0  0  0  0  0  0  0  0  0  0  0  0
  -23.6571   -9.4586   20.2638 C   0  0  0  0  0  0  0  0  0  0  0  0
  -23.5387   -8.1249   20.6546 C   0  0  0  0  0  0  0  0  0  0  0  0
  -24.4841  -27.1817   25.9109 C   0  0  0  0  0  0  0  0  0  0  0  0
  -29.2309  -26.1089   17.9751 C   0  0  0  0  0  0  0  0  0  0  0  0
  -22.0958   -8.7867   22.4759 C   0  0  0  0  0  0  0  0  0  0  0  0
  -26.9129  -13.4495   20.5531 C   0  0  0  0  0  0  0  0  0  0  0  0
  -29.4092  -13.4528   20.0278 C   0  0  0  0  0  0  0  0  0  0  0  0
  -27.5476  -18.9571   28.3767 C   0  0  0  0  0  0  0  0  0  0  0  0
  -24.1281  -25.3934   27.5032 C   0  0  0  0  0  0  0  0  0  0  0  0
  -27.4783  -20.3576   28.2491 C   0  0  0  0  0  0  0  0  0  0  0  0
  -24.1114  -25.8557   26.1795 C   0  0  0  0  0  0  0  0  0  0  0  0
  -29.1115  -24.9409   18.7282 C   0  0  0  0  0  0  0  0  0  0  0  0
  -30.6153  -25.8547   20.3837 C   0  0  0  0  0  0  0  0  0  0  0  0
  -29.8037  -24.8138   19.9325 C   0  0  0  0  0  0  0  0  0  0  0  0
  -30.7347  -27.0227   19.6306 C   0  0  0  0  0  0  0  0  0  0  0  0
  -24.3589  -12.3275   20.5778 C   0  0  0  0  0  0  0  0  0  0  0  0
  -24.8558  -28.0395   26.9459 C   0  0  0  0  0  0  0  0  0  0  0  0
  -22.9949  -10.4564   20.9791 C   0  0  0  0  0  0  0  0  0  0  0  0
  -22.7580   -7.7889   21.7606 C   0  0  0  0  0  0  0  0  0  0  0  0
  -30.0426  -27.1498   18.4263 C   0  0  0  0  0  0  0  0  0  0  0  0
  -22.2142  -10.1204   22.0851 C   0  0  0  0  0  0  0  0  0  0  0  0
  -28.2317  -14.0298   20.5401 C   0  0  0  0  0  0  0  0  0  0  0  0
  -30.3807  -14.3969   20.2542 C   0  0  0  0  0  0  0  0  0  0  0  0
  -29.6071  -12.1776   19.4031 C   0  0  0  0  0  0  0  0  0  0  0  0
  -25.2847  -22.6594   26.3669 C   0  0  0  0  0  0  0  0  0  0  0  0
  -22.6177  -22.7490   24.5227 C   0  0  0  0  0  0  0  0  0  0  0  0
  -20.1600  -24.6202   23.0718 C   0  0  0  0  0  0  0  0  0  0  0  0
  -30.1043  -20.2665   20.8262 C   0  0  0  0  0  0  0  0  0  0  0  0
  -27.2883  -18.0403   27.2076 C   0  0  0  0  0  0  0  0  0  0  0  0
  -23.7102  -23.9844   27.8232 C   0  0  0  0  0  0  0  0  0  0  0  0
  -23.7116  -24.9644   25.0332 C   0  0  0  0  0  0  0  0  0  0  0  0
  -26.5422  -18.7141   26.0589 C   0  0  0  0  0  0  0  0  0  0  0  0
  -31.5130  -17.9644   23.2373 C   0  0  0  0  0  0  0  0  0  0  0  0
  -27.1588  -20.0738   25.7465 C   0  0  0  0  0  0  0  0  0  0  0  0
  -30.9340  -16.6315   22.7594 C   0  0  0  0  0  0  0  0  0  0  0  0
  -30.5018  -19.0957   23.0765 C   0  0  0  0  0  0  0  0  0  0  0  0
  -29.3918  -17.9246   21.2137 C   0  0  0  0  0  0  0  0  0  0  0  0
  -27.0582  -21.0154   26.9526 C   0  0  1  0  0  0  0  0  0  0  0  0
  -23.8553  -23.0344   26.6384 C   0  0  1  0  0  0  0  0  0  0  0  0
  -30.3737  -16.7445   21.3292 C   0  0  2  0  0  0  0  0  0  0  0  0
  -31.3587  -25.7189   21.6748 C   0  0  0  0  0  0  0  0  0  0  0  0
  -18.1436  -24.4171   21.5918 C   0  0  0  0  0  0  0  0  0  0  0  0
  -26.0100  -32.0350   25.8963 C   0  0  0  0  0  0  0  0  0  0  0  0
  -24.4360  -22.4113   22.0958 C   0  0  0  0  0  0  0  0  0  0  0  0
  -22.5320  -23.1594   20.6525 C   0  0  0  0  0  0  0  0  0  0  0  0
  -22.3226  -21.0769   22.0097 C   0  0  0  0  0  0  0  0  0  0  0  0
  -18.3670  -25.6832   25.1728 C   0  0  0  0  0  0  0  0  0  0  0  0
  -29.6755  -23.5586   20.7365 C   0  0  0  0  0  0  0  0  0  0  0  0
  -31.6051  -28.1616   20.0993 C   0  0  0  0  0  0  0  0  0  0  0  0
  -30.8206  -29.3459   20.6772 C   0  0  0  0  0  0  0  0  0  0  0  0
  -29.9932  -29.0369   21.9304 C   0  0  0  0  0  0  0  0  0  0  0  0
  -29.1593  -30.2240   22.4173 C   0  0  0  0  0  0  0  0  0  0  0  0
  -28.3787  -29.8686   23.6860 C   0  0  0  0  0  0  0  0  0  0  0  0
  -27.5200  -31.0464   24.1562 C   0  0  0  0  0  0  0  0  0  0  0  0
  -30.8717  -22.6140   20.5866 C   0  0  0  0  0  0  0  0  0  0  0  0
  -25.8214  -29.5738   25.4065 C   0  0  0  0  0  0  0  0  0  1  0  0
  -22.2721  -23.3227   23.1698 C   0  0  1  0  0  0  0  0  0  0  0  0
  -18.6532  -24.4416   23.0245 C   0  0  2  0  0  0  0  0  0  0  0  0
  -26.7753  -30.7735   25.4790 C   0  0  2  0  0  0  0  0  0  0  0  0
  -28.2378  -23.8410   18.2209 C   0  0  0  0  0  0  0  0  0  0  0  0
  -22.9001  -22.5091   22.0031 C   0  0  0  0  0  0  0  0  0  0  0  0
  -28.4345  -15.2461   21.0534 N   0  0  0  0  0  0  0  0  0  0  0  0
  -29.7507  -15.4411   20.8649 N   0  0  0  0  0  0  0  0  0  0  0  0
  -23.3172  -23.5933   25.3965 N   0  0  0  0  0  0  0  0  0  0  0  0
  -30.0218  -19.1609   21.6889 N   0  0  0  0  0  0  0  0  0  0  0  0
  -31.7040  -14.4274   19.9886 N   0  0  0  0  0  0  0  0  0  0  0  0
  -28.5013  -11.3303   19.2491 N   0  0  0  0  0  0  0  0  0  0  0  0
  -25.7179  -21.5493   27.0666 N   0  0  0  0  0  0  0  0  0  0  0  0
  -20.8166  -23.4088   23.1225 N   0  0  0  0  0  0  0  0  0  0  0  0
  -30.7088  -21.4002   21.3554 N   0  0  0  0  0  0  0  0  0  0  0  0
  -17.9765  -25.5569   23.7450 N   0  3  0  0  0  0  0  0  0  0  0  0
  -30.7342  -11.7939   19.0083 O   0  0  0  0  0  0  0  0  0  0  0  0
  -25.9454  -23.3269   25.5796 O   0  0  0  0  0  0  0  0  0  0  0  0
  -22.2731  -21.5967   24.7968 O   0  0  0  0  0  0  0  0  0  0  0  0
  -20.7006  -25.7239   23.0609 O   0  0  0  0  0  0  0  0  0  0  0  0
  -29.6757  -20.2435   19.6674 O   0  0  0  0  0  0  0  0  0  0  0  0
  -23.1128  -11.7800   20.5894 O   0  0  0  0  0  0  0  0  0  0  0  0
  -25.2159  -29.3330   26.6688 O   0  0  0  0  0  0  0  0  0  1  0  0
  -22.6432   -6.5079   22.1349 F   0  0  0  0  0  0  0  0  0  0  0  0
  -30.1504  -28.2683   17.6953 F   0  0  0  0  0  0  0  0  0  0  0  0
  -21.5748  -11.0745   22.7756 F   0  0  0  0  0  0  0  0  0  0  0  0
  -27.6368  -24.1275   17.0291 F   0  0  0  0  0  0  0  0  0  0  0  0
  -28.9042  -22.6680   18.0128 F   0  0  0  0  0  0  0  0  0  0  0  0
  -27.2231  -23.5400   19.0815 F   0  0  0  0  0  0  0  0  0  0  0  0
  1  2  1  0  0  0  0
  1  5  2  0  0  0  0
  2  6  2  0  0  0  0
  3  8  2  0  0  0  0
  3 16  1  0  0  0  0
  4  9  1  0  0  0  0
  4 16  2  0  0  0  0
  5 18  1  0  0  0  0
  6 20  1  0  0  0  0
  7 10  2  0  0  0  0
  7 19  1  0  0  0  0
  8 26  1  0  0  0  0
  9 26  2  0  0  0  0
 10 27  1  0  0  0  0
 11 12  2  0  0  0  0
 11 28  1  0  0  0  0
 12 29  1  0  0  0  0
 13 21  1  0  0  0  0
 13 27  2  0  0  0  0
 14 22  1  0  0  0  0
 14 30  2  0  0  0  0
 15 29  2  0  0  0  0
 15 31  1  0  0  0  0
 16 32  1  0  0  0  0
 17 32  1  0  0  0  0
 17 33  2  0  0  0  0
 17 34  1  0  0  0  0
 18 20  2  0  0  0  0
 18 39  1  0  0  0  0
 19 21  2  0  0  0  0
 19 40  1  0  0  0  0
 20 48  1  0  0  0  0
 21 41  1  0  0  0  0
 22 24  2  0  0  0  0
 22 70  1  0  0  0  0
 23 24  1  0  0  0  0
 23 25  2  0  0  0  0
 23 51  1  0  0  0  0
 24 58  1  0  0  0  0
 25 30  1  0  0  0  0
 25 59  1  0  0  0  0
 26 87  1  0  0  0  0
 27 88  1  0  0  0  0
 28 31  2  0  0  0  0
 28 87  1  0  0  0  0
 29 89  1  0  0  0  0
 30 90  1  0  0  0  0
 31 91  1  0  0  0  0
 32 72  2  0  0  0  0
 33 73  1  0  0  0  0
 33 76  1  0  0  0  0
 34 77  1  0  0  0  0
 34 82  2  0  0  0  0
 35 49  1  0  0  0  0
 35 78  1  0  0  0  0
 35 83  2  0  0  0  0
 36 67  1  0  0  0  0
 36 74  1  0  0  0  0
 36 84  2  0  0  0  0
 37 68  1  0  0  0  0
 37 79  1  0  0  0  0
 37 85  2  0  0  0  0
 38 75  1  0  0  0  0
 38 80  1  0  0  0  0
 38 86  2  0  0  0  0
 39 42  1  0  0  0  0
 40 49  1  0  0  0  0
 41 74  1  0  0  0  0
 42 44  1  0  0  0  0
 43 45  1  0  0  0  0
 43 46  1  0  0  0  0
 44 48  1  0  0  0  0
 45 50  1  0  0  0  0
 46 75  1  0  0  0  0
 47 50  1  0  0  0  0
 47 75  1  0  0  0  0
 48 78  1  0  0  0  0
 49 74  1  0  0  0  0
 50 73  1  0  0  0  0
 52 68  1  0  0  0  0
 53 69  1  0  0  0  0
 54 71  1  0  0  0  0
 55 71  1  0  0  0  0
 56 71  1  0  0  0  0
 57 81  1  0  0  0  0
 58 65  1  0  0  0  0
 59 60  1  0  0  0  0
 60 61  1  0  0  0  0
 61 62  1  0  0  0  0
 62 63  1  0  0  0  0
 63 64  1  0  0  0  0
 64 69  1  0  0  0  0
 65 80  1  0  0  0  0
 66 69  1  0  0  0  0
 66 88  1  0  0  0  0
 67 71  1  0  0  0  0
 67 79  1  0  0  0  0
 68 81  1  0  0  0  0
 70 92  1  0  0  0  0
 70 93  1  0  0  0  0
 70 94  1  0  0  0  0
 72 73  1  0  0  0  0
M  CHG  1  81   1
M  ISO  4  38 100  66 101  80 100  88 101
M  END
> <Batch ID>
0023

> <Smiles>
CNC(C)C(=O)NC(C(=O)N1Cc2cc([101O:1][101CH2:1]C(C)CCCCCCc3c(F)cc(C(F)(F)F)c(CC[100NH:0][100C:0](=O)N4CCCC(n5nc(-c6ccc(Oc7ccc(F)cc7F)cc6)c(C(N)=O)c5N)C4)c3C)ccc2CC1C(=O)NC1CCCc2ccccc21)C(C)(C)C

> <Shape>
0.234

> <Color>
0.074

> <Negative vol penalty>
0.000

$$$$

  -OEChem-04052316193D

 89 97  0     1  0  0  0  0  0999 V2000
  -31.9293  -30.2421   15.3904 C   0  0  0  0  0  0  0  0  0  0  0  0
  -31.0420  -29.1822   15.5471 C   0  0  0  0  0  0  0  0  0  0  0  0
  -26.7300  -12.4819   21.6914 C   0  0  0  0  0  0  0  0  0  0  0  0
  -26.2690  -13.7757   19.7038 C   0  0  0  0  0  0  0  0  0  0  0  0
  -32.3834  -30.9407   16.5083 C   0  0  0  0  0  0  0  0  0  0  0  0
  -30.6090  -28.8196   16.8221 C   0  0  0  0  0  0  0  0  0  0  0  0
  -25.6200  -27.9716   17.0114 C   0  0  0  0  0  0  0  0  0  0  0  0
  -25.4097  -12.0324   21.7051 C   0  0  0  0  0  0  0  0  0  0  0  0
  -24.9486  -13.3262   19.7174 C   0  0  0  0  0  0  0  0  0  0  0  0
  -25.1624  -26.7511   16.5167 C   0  0  0  0  0  0  0  0  0  0  0  0
  -23.5488   -9.7194   20.0864 C   0  0  0  0  0  0  0  0  0  0  0  0
  -23.3289   -8.3607   20.3127 C   0  0  0  0  0  0  0  0  0  0  0  0
  -25.0187  -25.8990   18.7689 C   0  0  0  0  0  0  0  0  0  0  0  0
  -22.0350   -8.8980   22.2811 C   0  0  0  0  0  0  0  0  0  0  0  0
  -27.1597  -13.3536   20.6908 C   0  0  0  0  0  0  0  0  0  0  0  0
  -29.6199  -13.2172   20.0303 C   0  0  0  0  0  0  0  0  0  0  0  0
  -31.9483  -30.5927   17.7967 C   0  0  0  0  0  0  0  0  0  0  0  0
  -25.7911  -28.1617   18.3902 C   0  0  0  0  0  0  0  0  0  0  0  0
  -31.0587  -29.5133   17.9584 C   0  0  0  0  0  0  0  0  0  0  0  0
  -25.4762  -27.1237   19.2788 C   0  0  0  0  0  0  0  0  0  0  0  0
  -28.2162  -21.7466   19.7066 C   0  0  0  0  0  0  0  0  0  0  0  0
  -27.6345  -21.6661   18.4173 C   0  0  0  0  0  0  0  0  0  0  0  0
  -24.5190  -12.4545   20.7181 C   0  0  0  0  0  0  0  0  0  0  0  0
  -24.8644  -25.7136   17.3953 C   0  0  0  0  0  0  0  0  0  0  0  0
  -23.0119  -10.6674   20.9575 C   0  0  0  0  0  0  0  0  0  0  0  0
  -22.5720   -7.9500   21.4100 C   0  0  0  0  0  0  0  0  0  0  0  0
  -22.2550  -10.2567   22.0548 C   0  0  0  0  0  0  0  0  0  0  0  0
  -28.5233  -13.8187   20.6764 C   0  0  0  0  0  0  0  0  0  0  0  0
  -27.2890  -21.2699   20.6067 C   0  0  0  0  0  0  0  0  0  0  0  0
  -26.3693  -21.1428   18.5689 C   0  0  0  0  0  0  0  0  0  0  0  0
  -30.6816  -14.0396   20.3184 C   0  0  0  0  0  0  0  0  0  0  0  0
  -29.6740  -12.0220   19.2402 C   0  0  0  0  0  0  0  0  0  0  0  0
  -28.2670  -28.8112   20.2748 C   0  0  0  0  0  0  0  0  0  0  0  0
  -25.9735  -29.0275   22.5585 C   0  0  0  0  0  0  0  0  0  0  0  0
  -22.8474  -28.1584   23.6166 C   0  0  0  0  0  0  0  0  0  0  0  0
  -31.0743  -19.8393   21.7537 C   0  0  0  0  0  0  0  0  0  0  0  0
  -32.5035  -31.3469   18.9789 C   0  0  0  0  0  0  0  0  0  0  0  0
  -26.2602  -29.4931   18.9096 C   0  0  0  0  0  0  0  0  0  0  0  0
  -25.6234  -27.2836   20.7691 C   0  0  0  0  0  0  0  0  0  0  0  0
  -31.7052  -31.1393   20.2634 C   0  0  0  0  0  0  0  0  0  0  0  0
  -32.2666  -17.0772   23.6578 C   0  0  0  0  0  0  0  0  0  0  0  0
  -31.4016  -29.6587   20.4697 C   0  0  0  0  0  0  0  0  0  0  0  0
  -31.5414  -15.8746   23.0514 C   0  0  0  0  0  0  0  0  0  0  0  0
  -31.3767  -18.3179   23.6851 C   0  0  0  0  0  0  0  0  0  0  0  0
  -30.0583  -17.4807   21.7787 C   0  0  0  0  0  0  0  0  0  0  0  0
  -30.5469  -29.1058   19.3229 C   0  0  1  0  0  0  0  0  0  0  0  0
  -26.8872  -29.4056   20.2976 C   0  0  1  0  0  0  0  0  0  0  0  0
  -30.9341  -16.2200   21.6784 C   0  0  2  0  0  0  0  0  0  0  0  0
  -27.3726  -21.1292   22.0761 C   0  0  0  0  0  0  0  0  0  0  0  0
  -28.2704  -23.5894   16.9398 C   0  0  0  0  0  0  0  0  0  0  0  0
  -25.8065  -19.7317   16.5918 C   0  0  0  0  0  0  0  0  0  0  0  0
  -21.2654  -28.4569   25.5416 C   0  0  0  0  0  0  0  0  0  0  0  0
  -23.4918  -21.9010   16.0550 C   0  0  0  0  0  0  0  0  0  0  0  0
  -24.6865  -18.9349   19.9922 C   0  0  0  0  0  0  0  0  0  0  0  0
  -23.7555  -21.2727   20.2640 C   0  0  0  0  0  0  0  0  0  0  0  0
  -27.5900  -27.0225   24.1947 C   0  0  0  0  0  0  0  0  0  0  0  0
  -25.5590  -26.6452   25.6094 C   0  0  0  0  0  0  0  0  0  0  0  0
  -26.6129  -28.9045   25.5207 C   0  0  0  0  0  0  0  0  0  0  0  0
  -20.8289  -29.4810   21.9033 C   0  0  0  0  0  0  0  0  0  0  0  0
  -28.2646  -22.0712   17.1439 C   0  0  0  0  0  0  0  0  0  0  0  0
  -29.5683  -22.2476   20.0290 C   0  0  0  0  0  0  0  0  0  0  0  0
  -30.6963  -21.2411   19.7409 C   0  0  0  0  0  0  0  0  0  0  0  0
  -24.7408  -23.3547   17.6712 C   0  0  0  0  0  0  0  0  0  1  0  0
  -25.3000  -20.8413   17.5267 C   0  0  2  0  0  0  0  0  0  0  0  0
  -25.3242  -28.0584   23.5168 C   0  0  1  0  0  0  0  0  0  0  0  0
  -21.7107  -28.9868   24.1874 C   0  0  2  0  0  0  0  0  0  0  0  0
  -24.8418  -22.1190   16.7554 C   0  0  1  0  0  0  0  0  0  0  0  0
  -24.9617  -20.3576   20.4830 C   0  0  0  0  0  0  0  0  0  0  0  0
  -26.2705  -27.6537   24.6823 C   0  0  0  0  0  0  0  0  0  0  0  0
  -28.8575  -14.9368   21.3261 N   0  0  0  0  0  0  0  0  0  0  0  0
  -26.1701  -20.9061   19.9040 N   0  0  0  0  0  0  0  0  0  0  0  0
  -30.1761  -15.0444   21.0898 N   0  0  0  0  0  0  0  0  0  0  0  0
  -26.0914  -28.6020   21.2278 N   0  0  0  0  0  0  0  0  0  0  0  0
  -30.8340  -18.5916   22.3522 N   0  0  0  0  0  0  0  0  0  0  0  0
  -31.9889  -13.9941   19.9846 N   0  0  0  0  0  0  0  0  0  0  0  0
  -28.4909  -11.2969   19.0436 N   0  0  0  0  0  0  0  0  0  0  0  0
  -29.1649  -29.5037   19.4852 N   0  0  0  0  0  0  0  0  0  0  0  0
  -24.0786  -28.6835   23.9481 N   0  0  0  0  0  0  0  0  0  0  0  0
  -30.5297  -20.0140   20.4874 N   0  0  0  0  0  0  0  0  0  0  0  0
  -20.5397  -28.9643   23.2658 N   0  3  0  0  0  0  0  0  0  0  0  0
  -30.7432  -11.6003   18.7376 O   0  0  0  0  0  0  0  0  0  0  0  0
  -28.5001  -27.8000   20.9266 O   0  0  0  0  0  0  0  0  0  0  0  0
  -26.3552  -30.1244   22.9739 O   0  0  0  0  0  0  0  0  0  0  0  0
  -22.6619  -27.1446   22.9470 O   0  0  0  0  0  0  0  0  0  0  0  0
  -31.7306  -20.7297   22.3046 O   0  0  0  0  0  0  0  0  0  0  0  0
  -23.2305  -12.0159   20.7310 O   0  0  0  0  0  0  0  0  0  0  0  0
  -24.4182  -24.5211   16.9151 O   0  0  0  0  0  0  0  0  0  1  0  0
  -22.3596   -6.6453   21.6263 F   0  0  0  0  0  0  0  0  0  0  0  0
  -21.7357  -11.1628   22.8944 F   0  0  0  0  0  0  0  0  0  0  0  0
  1  2  1  0  0  0  0
  1  5  2  0  0  0  0
  2  6  2  0  0  0  0
  3  8  2  0  0  0  0
  3 15  1  0  0  0  0
  4  9  1  0  0  0  0
  4 15  2  0  0  0  0
  5 17  1  0  0  0  0
  6 19  1  0  0  0  0
  7 10  2  0  0  0  0
  7 18  1  0  0  0  0
  8 23  1  0  0  0  0
  9 23  2  0  0  0  0
 10 24  1  0  0  0  0
 11 12  2  0  0  0  0
 11 25  1  0  0  0  0
 12 26  1  0  0  0  0
 13 20  1  0  0  0  0
 13 24  2  0  0  0  0
 14 26  2  0  0  0  0
 14 27  1  0  0  0  0
 15 28  1  0  0  0  0
 16 28  1  0  0  0  0
 16 31  2  0  0  0  0
 16 32  1  0  0  0  0
 17 19  2  0  0  0  0
 17 37  1  0  0  0  0
 18 20  2  0  0  0  0
 18 38  1  0  0  0  0
 19 46  1  0  0  0  0
 20 39  1  0  0  0  0
 21 22  1  0  0  0  0
 21 29  2  0  0  0  0
 21 61  1  0  0  0  0
 22 30  2  0  0  0  0
 22 60  1  0  0  0  0
 23 86  1  0  0  0  0
 24 87  1  0  0  0  0
 25 27  2  0  0  0  0
 25 86  1  0  0  0  0
 26 88  1  0  0  0  0
 27 89  1  0  0  0  0
 28 70  2  0  0  0  0
 29 49  1  0  0  0  0
 29 71  1  0  0  0  0
 30 64  1  0  0  0  0
 30 71  1  0  0  0  0
 31 72  1  0  0  0  0
 31 75  1  0  0  0  0
 32 76  1  0  0  0  0
 32 81  2  0  0  0  0
 33 47  1  0  0  0  0
 33 77  1  0  0  0  0
 33 82  2  0  0  0  0
 34 65  1  0  0  0  0
 34 73  1  0  0  0  0
 34 83  2  0  0  0  0
 35 66  1  0  0  0  0
 35 78  1  0  0  0  0
 35 84  2  0  0  0  0
 36 74  1  0  0  0  0
 36 79  1  0  0  0  0
 36 85  2  0  0  0  0
 37 40  1  0  0  0  0
 38 47  1  0  0  0  0
 39 73  1  0  0  0  0
 40 42  1  0  0  0  0
 41 43  1  0  0  0  0
 41 44  1  0  0  0  0
 42 46  1  0  0  0  0
 43 48  1  0  0  0  0
 44 74  1  0  0  0  0
 45 48  1  0  0  0  0
 45 74  1  0  0  0  0
 46 77  1  0  0  0  0
 47 73  1  0  0  0  0
 48 72  1  0  0  0  0
 50 60  1  0  0  0  0
 51 64  1  0  0  0  0
 52 66  1  0  0  0  0
 53 67  1  0  0  0  0
 54 68  1  0  0  0  0
 55 68  1  0  0  0  0
 56 69  1  0  0  0  0
 57 69  1  0  0  0  0
 58 69  1  0  0  0  0
 59 80  1  0  0  0  0
 61 62  1  0  0  0  0
 62 79  1  0  0  0  0
 63 67  1  0  0  0  0
 63 87  1  0  0  0  0
 64 67  1  0  0  0  0
 65 69  1  0  0  0  0
 65 78  1  0  0  0  0
 66 80  1  0  0  0  0
 68 71  1  0  0  0  0
 70 72  1  0  0  0  0
M  CHG  1  80   1
M  ISO  4  36 100  63 101  79 100  87 101
M  END
> <Batch ID>
0023

> <Smiles>
CCc1c(CC[100NH:0][100C:0](=O)N2CCCC(n3nc(-c4ccc(Oc5ccc(F)cc5F)cc4)c(C(N)=O)c3N)C2)c(C)n(C(C)C)c1C(C)C(C)[101CH2:1][101O:1]c1ccc2c(c1)CN(C(=O)C(NC(=O)C(C)NC)C(C)(C)C)C(C(=O)NC1CCCc3ccccc31)C2

> <Shape>
0.241

> <Color>
0.062

> <Negative vol penalty>
0.000

$$$$

  -OEChem-04052316193D

 92100  0     1  0  0  0  0  0999 V2000
  -19.3491  -15.8908   18.8046 C   0  0  0  0  0  0  0  0  0  0  0  0
  -20.3206  -16.8822   18.8983 C   0  0  0  0  0  0  0  0  0  0  0  0
  -23.2879  -20.4601   25.8252 C   0  0  0  0  0  0  0  0  0  0  0  0
  -23.6317  -20.5568   23.4357 C   0  0  0  0  0  0  0  0  0  0  0  0
  -19.5652  -14.6466   19.3954 C   0  0  0  0  0  0  0  0  0  0  0  0
  -21.5084  -16.6302   19.5840 C   0  0  0  0  0  0  0  0  0  0  0  0
  -27.0754  -18.7869   18.2194 C   0  0  0  0  0  0  0  0  0  0  0  0
  -23.3594  -19.0679   25.7792 C   0  0  0  0  0  0  0  0  0  0  0  0
  -23.7033  -19.1645   23.3897 C   0  0  0  0  0  0  0  0  0  0  0  0
  -27.8174  -19.8542   18.7236 C   0  0  0  0  0  0  0  0  0  0  0  0
  -21.3353  -16.4968   24.9324 C   0  0  0  0  0  0  0  0  0  0  0  0
  -20.3800  -15.7755   25.6484 C   0  0  0  0  0  0  0  0  0  0  0  0
  -28.9667  -18.3441   20.2127 C   0  0  0  0  0  0  0  0  0  0  0  0
  -24.0602  -31.0511   22.1773 C   0  0  0  0  0  0  0  0  0  0  0  0
  -22.1342  -14.7489   26.9546 C   0  0  0  0  0  0  0  0  0  0  0  0
  -23.4240  -21.2046   24.6534 C   0  0  0  0  0  0  0  0  0  0  0  0
  -24.4148  -23.5434   24.8897 C   0  0  0  0  0  0  0  0  0  0  0  0
  -20.7603  -14.3760   20.0803 C   0  0  0  0  0  0  0  0  0  0  0  0
  -27.2662  -17.4897   18.7167 C   0  0  0  0  0  0  0  0  0  0  0  0
  -21.7401  -15.3816   20.1857 C   0  0  0  0  0  0  0  0  0  0  0  0
  -28.2277  -17.2616   19.7114 C   0  0  0  0  0  0  0  0  0  0  0  0
  -23.2592  -30.3078   21.3104 C   0  0  0  0  0  0  0  0  0  0  0  0
  -23.8103  -29.7513   20.1562 C   0  0  0  0  0  0  0  0  0  0  0  0
  -25.9634  -30.6814   20.7358 C   0  0  0  0  0  0  0  0  0  0  0  0
  -23.5672  -18.4201   24.5614 C   0  0  0  0  0  0  0  0  0  0  0  0
  -28.7611  -19.6334   19.7224 C   0  0  0  0  0  0  0  0  0  0  0  0
  -22.6901  -16.3442   25.2274 C   0  0  0  0  0  0  0  0  0  0  0  0
  -20.7794  -14.9016   26.6595 C   0  0  0  0  0  0  0  0  0  0  0  0
  -23.0895  -15.4702   26.2385 C   0  0  0  0  0  0  0  0  0  0  0  0
  -25.1625  -29.9381   19.8689 C   0  0  0  0  0  0  0  0  0  0  0  0
  -25.4123  -31.2379   21.8900 C   0  0  0  0  0  0  0  0  0  0  0  0
  -23.3496  -22.6428   24.7002 C   0  0  0  0  0  0  0  0  0  0  0  0
  -23.8261  -24.7838   24.8544 C   0  0  0  0  0  0  0  0  0  0  0  0
  -25.8116  -23.2821   25.0806 C   0  0  0  0  0  0  0  0  0  0  0  0
  -25.4349  -15.3732   20.2235 C   0  0  0  0  0  0  0  0  0  0  0  0
  -28.0132  -13.4447   19.8293 C   0  0  0  0  0  0  0  0  0  0  0  0
  -31.3815  -13.1722   19.3525 C   0  0  0  0  0  0  0  0  0  0  0  0
  -20.2640  -28.4168   22.5612 C   0  0  0  0  0  0  0  0  0  0  0  0
  -20.9287  -13.0318   20.7432 C   0  0  0  0  0  0  0  0  0  0  0  0
  -26.4768  -16.3449   18.1435 C   0  0  0  0  0  0  0  0  0  0  0  0
  -28.4850  -15.8846   20.2648 C   0  0  0  0  0  0  0  0  0  0  0  0
  -22.3720  -12.7204   21.1309 C   0  0  0  0  0  0  0  0  0  0  0  0
  -18.9472  -26.1162   24.9382 C   0  0  0  0  0  0  0  0  0  0  0  0
  -23.0078  -13.9188   21.8285 C   0  0  0  0  0  0  0  0  0  0  0  0
  -20.0601  -25.0791   25.0988 C   0  0  0  0  0  0  0  0  0  0  0  0
  -18.8448  -26.6158   23.4988 C   0  0  0  0  0  0  0  0  0  0  0  0
  -21.2182  -26.0918   23.0909 C   0  0  0  0  0  0  0  0  0  0  0  0
  -23.0519  -15.1382   20.8997 C   0  0  1  0  0  0  0  0  0  0  0  0
  -26.3899  -15.1481   19.0856 C   0  0  1  0  0  0  0  0  0  0  0  0
  -21.3969  -25.5995   24.5372 C   0  0  2  0  0  0  0  0  0  0  0  0
  -22.9691  -28.9523   19.2155 C   0  0  0  0  0  0  0  0  0  0  0  0
  -26.9862  -33.0192   19.0720 C   0  0  0  0  0  0  0  0  0  0  0  0
  -33.2046  -11.4653   19.1076 C   0  0  0  0  0  0  0  0  0  0  0  0
  -27.9277  -12.9257   22.8348 C   0  0  0  0  0  0  0  0  0  0  0  0
  -30.2590  -12.0270   22.6755 C   0  0  0  0  0  0  0  0  0  0  0  0
  -28.4046  -10.9052   21.4404 C   0  0  0  0  0  0  0  0  0  0  0  0
  -32.0679  -14.1253   16.6360 C   0  0  0  0  0  0  0  0  0  0  0  0
  -21.8142  -30.1213   21.6388 C   0  0  0  0  0  0  0  0  0  0  0  0
  -27.6200  -31.6330   19.0611 C   0  0  0  0  0  0  0  0  0  0  0  0
  -28.7578  -26.4434   22.7100 C   0  0  0  0  0  0  0  0  0  0  0  0
  -29.3750  -25.0439   22.6033 C   0  0  0  0  0  0  0  0  0  0  0  0
  -28.8709  -27.3222   21.4588 C   0  0  0  0  0  0  0  0  0  0  0  0
  -28.7696  -24.1963   21.4821 C   0  0  0  0  0  0  0  0  0  0  0  0
  -28.1554  -28.6678   21.5990 C   0  0  0  0  0  0  0  0  0  0  0  0
  -29.3912  -22.7986   21.3742 C   0  0  0  0  0  0  0  0  0  0  0  0
  -28.1920  -29.5162   20.3191 C   0  0  0  0  0  0  0  0  0  0  0  0
  -28.8691  -21.9574   20.2156 C   0  0  0  0  0  0  0  0  0  1  0  0
  -27.4330  -30.8639   20.3899 C   0  0  2  0  0  0  0  0  0  0  0  0
  -29.2561  -13.1442   20.6317 C   0  0  1  0  0  0  0  0  0  0  0  0
  -32.1970  -12.3407   18.3789 C   0  0  2  0  0  0  0  0  0  0  0  0
  -28.9559  -12.2769   21.8868 C   0  0  0  0  0  0  0  0  0  0  0  0
  -22.1732  -23.2587   24.5554 N   0  0  0  0  0  0  0  0  0  0  0  0
  -22.4958  -24.5595   24.6540 N   0  0  0  0  0  0  0  0  0  0  0  0
  -27.6834  -14.7989   19.6765 N   0  0  0  0  0  0  0  0  0  0  0  0
  -20.1456  -27.0969   23.0271 N   0  0  0  0  0  0  0  0  0  0  0  0
  -24.3218  -26.0337   24.9756 N   0  0  0  0  0  0  0  0  0  0  0  0
  -26.2469  -21.9499   25.0901 N   0  0  0  0  0  0  0  0  0  0  0  0
  -24.1317  -15.0075   19.9450 N   0  0  0  0  0  0  0  0  0  0  0  0
  -30.2061  -12.5420   19.7026 N   0  0  0  0  0  0  0  0  0  0  0  0
  -21.5329  -28.7939   22.1387 N   0  0  0  0  0  0  0  0  0  0  0  0
  -32.9382  -13.2257   17.4363 N   0  3  0  0  0  0  0  0  0  0  0  0
  -26.6465  -24.2020   25.2544 O   0  0  0  0  0  0  0  0  0  0  0  0
  -25.8498  -15.8425   21.2767 O   0  0  0  0  0  0  0  0  0  0  0  0
  -27.3630  -12.5127   19.3495 O   0  0  0  0  0  0  0  0  0  0  0  0
  -31.7519  -14.2693   19.7644 O   0  0  0  0  0  0  0  0  0  0  0  0
  -19.3109  -29.2025   22.5295 O   0  0  0  0  0  0  0  0  0  0  0  0
  -23.6373  -17.0616   24.5162 O   0  0  0  0  0  0  0  0  0  0  0  0
  -29.4918  -20.6816   20.2205 O   0  0  0  0  0  0  0  0  0  1  0  0
  -19.8618  -14.2102   27.3480 F   0  0  0  0  0  0  0  0  0  0  0  0
  -24.3895  -15.3202   26.5273 F   0  0  0  0  0  0  0  0  0  0  0  0
  -25.6918  -29.4026   18.7586 F   0  0  0  0  0  0  0  0  0  0  0  0
  -26.3722  -32.1636   22.9861 Cl  0  0  0  0  0  0  0  0  0  0  0  0
  1  2  1  0  0  0  0
  1  5  2  0  0  0  0
  2  6  2  0  0  0  0
  3  8  2  0  0  0  0
  3 16  1  0  0  0  0
  4  9  1  0  0  0  0
  4 16  2  0  0  0  0
  5 18  1  0  0  0  0
  6 20  1  0  0  0  0
  7 10  2  0  0  0  0
  7 19  1  0  0  0  0
  8 25  1  0  0  0  0
  9 25  2  0  0  0  0
 10 26  1  0  0  0  0
 11 12  2  0  0  0  0
 11 27  1  0  0  0  0
 12 28  1  0  0  0  0
 13 21  1  0  0  0  0
 13 26  2  0  0  0  0
 14 22  1  0  0  0  0
 14 31  2  0  0  0  0
 15 28  2  0  0  0  0
 15 29  1  0  0  0  0
 16 32  1  0  0  0  0
 17 32  1  0  0  0  0
 17 33  2  0  0  0  0
 17 34  1  0  0  0  0
 18 20  2  0  0  0  0
 18 39  1  0  0  0  0
 19 21  2  0  0  0  0
 19 40  1  0  0  0  0
 20 48  1  0  0  0  0
 21 41  1  0  0  0  0
 22 23  2  0  0  0  0
 22 58  1  0  0  0  0
 23 30  1  0  0  0  0
 23 51  1  0  0  0  0
 24 30  2  0  0  0  0
 24 31  1  0  0  0  0
 24 68  1  0  0  0  0
 25 87  1  0  0  0  0
 26 88  1  0  0  0  0
 27 29  2  0  0  0  0
 27 87  1  0  0  0  0
 28 89  1  0  0  0  0
 29 90  1  0  0  0  0
 30 91  1  0  0  0  0
 31 92  1  0  0  0  0
 32 72  2  0  0  0  0
 33 73  1  0  0  0  0
 33 76  1  0  0  0  0
 34 77  1  0  0  0  0
 34 82  2  0  0  0  0
 35 49  1  0  0  0  0
 35 78  1  0  0  0  0
 35 83  2  0  0  0  0
 36 69  1  0  0  0  0
 36 74  1  0  0  0  0
 36 84  2  0  0  0  0
 37 70  1  0  0  0  0
 37 79  1  0  0  0  0
 37 85  2  0  0  0  0
 38 75  1  0  0  0  0
 38 80  1  0  0  0  0
 38 86  2  0  0  0  0
 39 42  1  0  0  0  0
 40 49  1  0  0  0  0
 41 74  1  0  0  0  0
 42 44  1  0  0  0  0
 43 45  1  0  0  0  0
 43 46  1  0  0  0  0
 44 48  1  0  0  0  0
 45 50  1  0  0  0  0
 46 75  1  0  0  0  0
 47 50  1  0  0  0  0
 47 75  1  0  0  0  0
 48 78  1  0  0  0  0
 49 74  1  0  0  0  0
 50 73  1  0  0  0  0
 52 59  1  0  0  0  0
 53 70  1  0  0  0  0
 54 71  1  0  0  0  0
 55 71  1  0  0  0  0
 56 71  1  0  0  0  0
 57 81  1  0  0  0  0
 58 80  1  0  0  0  0
 59 68  1  0  0  0  0
 60 61  1  0  0  0  0
 60 62  1  0  0  0  0
 61 63  1  0  0  0  0
 62 64  1  0  0  0  0
 63 65  1  0  0  0  0
 64 66  1  0  0  0  0
 65 67  1  0  0  0  0
 66 68  1  0  0  0  0
 67 88  1  0  0  0  0
 69 71  1  0  0  0  0
 69 79  1  0  0  0  0
 70 81  1  0  0  0  0
 72 73  1  0  0  0  0
M  CHG  1  81   1
M  ISO  4  38 100  67 101  80 100  88 101
M  END
> <Batch ID>
0023

> <Smiles>
CCC(CCCCCCC[101CH2:1][101O:1]c1ccc2c(c1)CN(C(=O)C(NC(=O)C(C)NC)C(C)(C)C)C(C(=O)NC1CCCc3ccccc31)C2)c1c(Cl)cc(C[100NH:0][100C:0](=O)N2CCCC(n3nc(-c4ccc(Oc5ccc(F)cc5F)cc4)c(C(N)=O)c3N)C2)c(C)c1F

> <Shape>
0.236

> <Color>
0.070

> <Negative vol penalty>
0.000

$$$$

  -OEChem-04052316193D

 94103  0     1  0  0  0  0  0999 V2000
  -27.8139  -31.8085   27.7608 C   0  0  0  0  0  0  0  0  0  0  0  0
  -27.9213  -30.8021   26.8063 C   0  0  0  0  0  0  0  0  0  0  0  0
  -20.5511  -12.9669   21.9494 C   0  0  0  0  0  0  0  0  0  0  0  0
  -19.6738  -14.6669   20.4738 C   0  0  0  0  0  0  0  0  0  0  0  0
  -26.5701  -32.3732   28.0399 C   0  0  0  0  0  0  0  0  0  0  0  0
  -26.7845  -30.3591   26.1310 C   0  0  0  0  0  0  0  0  0  0  0  0
  -27.5599  -29.8412   21.1535 C   0  0  0  0  0  0  0  0  0  0  0  0
  -19.2829  -12.3939   22.0434 C   0  0  0  0  0  0  0  0  0  0  0  0
  -18.4055  -14.0938   20.5677 C   0  0  0  0  0  0  0  0  0  0  0  0
  -28.2457  -28.7032   20.7310 C   0  0  0  0  0  0  0  0  0  0  0  0
  -17.3116  -10.3859   20.1686 C   0  0  0  0  0  0  0  0  0  0  0  0
  -17.2169   -8.9989   20.0546 C   0  0  0  0  0  0  0  0  0  0  0  0
  -26.1493  -27.6678   20.1373 C   0  0  0  0  0  0  0  0  0  0  0  0
  -28.4048  -23.1615   19.7496 C   0  0  0  0  0  0  0  0  0  0  0  0
  -29.0978  -24.3639   17.7720 C   0  0  0  0  0  0  0  0  0  0  0  0
  -16.2556   -8.8826   22.2681 C   0  0  0  0  0  0  0  0  0  0  0  0
  -20.7466  -14.1034   21.1647 C   0  0  0  0  0  0  0  0  0  0  0  0
  -23.2312  -14.0878   20.5865 C   0  0  0  0  0  0  0  0  0  0  0  0
  -25.4190  -31.9435   27.3608 C   0  0  0  0  0  0  0  0  0  0  0  0
  -26.1606  -29.8969   21.0812 C   0  0  0  0  0  0  0  0  0  0  0  0
  -25.5239  -30.9176   26.4023 C   0  0  0  0  0  0  0  0  0  0  0  0
  -25.4484  -28.8087   20.5572 C   0  0  0  0  0  0  0  0  0  0  0  0
  -30.0181  -22.1801   18.2425 C   0  0  0  0  0  0  0  0  0  0  0  0
  -28.3291  -24.2902   18.9336 C   0  0  0  0  0  0  0  0  0  0  0  0
  -18.2101  -12.9573   21.3526 C   0  0  0  0  0  0  0  0  0  0  0  0
  -27.5402  -27.6152   20.2254 C   0  0  0  0  0  0  0  0  0  0  0  0
  -16.8785  -11.0212   21.3324 C   0  0  0  0  0  0  0  0  0  0  0  0
  -16.6888   -8.2473   21.1042 C   0  0  0  0  0  0  0  0  0  0  0  0
  -16.3504  -10.2696   22.3821 C   0  0  0  0  0  0  0  0  0  0  0  0
  -29.2494  -22.1064   19.4041 C   0  0  0  0  0  0  0  0  0  0  0  0
  -29.9424  -23.3088   17.4265 C   0  0  0  0  0  0  0  0  0  0  0  0
  -22.0563  -14.6961   21.0676 C   0  0  0  0  0  0  0  0  0  0  0  0
  -24.1934  -15.0612   20.7010 C   0  0  0  0  0  0  0  0  0  0  0  0
  -28.9821  -21.3908   15.0271 C   0  0  0  0  0  0  0  0  0  0  0  0
  -23.4345  -12.7616   20.0812 C   0  0  0  0  0  0  0  0  0  0  0  0
  -28.7033  -20.5512   16.0337 C   0  0  0  0  0  0  0  0  0  0  0  0
  -23.8153  -30.2068   23.2041 C   0  0  0  0  0  0  0  0  0  0  0  0
  -21.9602  -30.3775   20.5485 C   0  0  0  0  0  0  0  0  0  0  0  0
  -21.5594  -29.6345   17.2418 C   0  0  0  0  0  0  0  0  0  0  0  0
  -23.9485  -21.0425   20.8238 C   0  0  0  0  0  0  0  0  0  0  0  0
  -24.0889  -32.5509   27.7305 C   0  0  0  0  0  0  0  0  0  0  0  0
  -25.4376  -31.1421   21.5162 C   0  0  0  0  0  0  0  0  0  0  0  0
  -23.9469  -28.8262   20.4395 C   0  0  0  0  0  0  0  0  0  0  0  0
  -22.9917  -32.2860   26.7027 C   0  0  0  0  0  0  0  0  0  0  0  0
  -31.9499  -19.2454   19.2141 C   0  0  0  0  0  0  0  0  0  0  0  0
  -25.3393  -18.9054   23.3087 C   0  0  0  0  0  0  0  0  0  0  0  0
  -32.0356  -20.7426   18.9130 C   0  0  0  0  0  0  0  0  0  0  0  0
  -22.9895  -30.8173   26.2908 C   0  0  0  0  0  0  0  0  0  0  0  0
  -24.7616  -17.5294   22.9727 C   0  0  0  0  0  0  0  0  0  0  0  0
  -31.2524  -18.6492   18.0008 C   0  0  0  0  0  0  0  0  0  0  0  0
  -24.3291  -20.0205   23.0480 C   0  0  0  0  0  0  0  0  0  0  0  0
  -23.1738  -18.6521   21.3550 C   0  0  0  0  0  0  0  0  0  0  0  0
  -30.9341  -21.0367   17.8683 C   0  0  1  0  0  0  0  0  0  0  0  0
  -24.3177  -30.4274   25.6310 C   0  0  1  0  0  0  0  0  0  0  0  0
  -23.9766  -30.8900   21.8756 C   0  0  1  0  0  0  0  0  0  0  0  0
  -24.1748  -17.5001   21.5487 C   0  0  2  0  0  0  0  0  0  0  0  0
  -30.1974  -19.6997   17.6994 C   0  0  1  0  0  0  0  0  0  0  0  0
  -19.9225  -29.8699   15.3543 C   0  0  0  0  0  0  0  0  0  0  0  0
  -20.2719  -28.1302   21.7357 C   0  0  0  0  0  0  0  0  0  0  0  0
  -19.2806  -27.7697   19.4651 C   0  0  0  0  0  0  0  0  0  0  0  0
  -18.9588  -29.9505   20.6326 C   0  0  0  0  0  0  0  0  0  0  0  0
  -23.4614  -31.2380   15.6386 C   0  0  0  0  0  0  0  0  0  0  0  0
  -29.0834  -18.1879   16.0456 C   0  0  0  0  0  0  0  0  0  0  0  0
  -27.4211  -25.4253   19.3056 C   0  0  0  0  0  0  0  0  0  1  0  0
  -27.4541  -20.6376   16.8669 C   0  0  0  0  0  0  0  0  0  0  0  0
  -26.1560  -20.5162   16.0591 C   0  0  0  0  0  0  0  0  0  0  0  0
  -24.8984  -20.5323   16.9340 C   0  0  0  0  0  0  0  0  0  0  0  0
  -24.7811  -21.8489   17.7087 C   0  0  0  0  0  0  0  0  0  0  0  0
  -23.5078  -21.9225   18.5455 C   0  0  0  0  0  0  0  0  0  0  0  0
  -21.2317  -29.3744   19.6871 C   0  0  1  0  0  0  0  0  0  0  0  0
  -21.1181  -30.4853   16.0646 C   0  0  2  0  0  0  0  0  0  0  0  0
  -19.9639  -28.8048   20.3840 C   0  0  0  0  0  0  0  0  0  0  0  0
  -22.2521  -15.9582   21.4588 N   0  0  0  0  0  0  0  0  0  0  0  0
  -23.5612  -16.1508   21.2237 N   0  0  0  0  0  0  0  0  0  0  0  0
  -23.2850  -30.0639   20.8839 N   0  0  0  0  0  0  0  0  0  0  0  0
  -23.8121  -19.9373   21.6799 N   0  0  0  0  0  0  0  0  0  0  0  0
  -25.5103  -15.0828   20.4047 N   0  0  0  0  0  0  0  0  0  0  0  0
  -22.3382  -11.8897   20.0326 N   0  0  0  0  0  0  0  0  0  0  0  0
  -24.3623  -30.9031   24.2649 N   0  0  0  0  0  0  0  0  0  0  0  0
  -20.9664  -30.0429   18.4178 N   0  0  0  0  0  0  0  0  0  0  0  0
  -23.4371  -20.8775   19.5424 N   0  0  0  0  0  0  0  0  0  0  0  0
  -22.2289  -30.6243   15.0808 N   0  3  0  0  0  0  0  0  0  0  0  0
  -29.6800  -19.5433   16.3243 N   0  3  1  0  0  0  0  0  0  0  0  0
  -24.5586  -12.3561   19.6999 O   0  0  0  0  0  0  0  0  0  0  0  0
  -23.2360  -29.1285   23.2626 O   0  0  0  0  0  0  0  0  0  0  0  0
  -21.3778  -31.4049   20.9046 O   0  0  0  0  0  0  0  0  0  0  0  0
  -22.3482  -28.6988   17.1289 O   0  0  0  0  0  0  0  0  0  0  0  0
  -24.4910  -22.0962   21.1736 O   0  0  0  0  0  0  0  0  0  0  0  0
  -16.9725  -12.3983   21.4438 O   0  0  0  0  0  0  0  0  0  0  0  0
  -28.2070  -26.5030   19.8129 O   0  0  0  0  0  0  0  0  0  1  0  0
  -16.5965   -6.9156   20.9940 F   0  0  0  0  0  0  0  0  0  0  0  0
  -15.9315  -10.8744   23.5022 F   0  0  0  0  0  0  0  0  0  0  0  0
  -29.3128  -20.7283   20.4430 Cl  0  0  0  0  0  0  0  0  0  0  0  0
  -30.8770  -23.4419   15.9804 Cl  0  0  0  0  0  0  0  0  0  0  0  0
  1  2  1  0  0  0  0
  1  5  2  0  0  0  0
  2  6  2  0  0  0  0
  3  8  2  0  0  0  0
  3 17  1  0  0  0  0
  4  9  1  0  0  0  0
  4 17  2  0  0  0  0
  5 19  1  0  0  0  0
  6 21  1  0  0  0  0
  7 10  2  0  0  0  0
  7 20  1  0  0  0  0
  8 25  1  0  0  0  0
  9 25  2  0  0  0  0
 10 26  1  0  0  0  0
 11 12  2  0  0  0  0
 11 27  1  0  0  0  0
 12 28  1  0  0  0  0
 13 22  1  0  0  0  0
 13 26  2  0  0  0  0
 14 24  1  0  0  0  0
 14 30  2  0  0  0  0
 15 24  2  0  0  0  0
 15 31  1  0  0  0  0
 16 28  2  0  0  0  0
 16 29  1  0  0  0  0
 17 32  1  0  0  0  0
 18 32  1  0  0  0  0
 18 33  2  0  0  0  0
 18 35  1  0  0  0  0
 19 21  2  0  0  0  0
 19 41  1  0  0  0  0
 20 22  2  0  0  0  0
 20 42  1  0  0  0  0
 21 54  1  0  0  0  0
 22 43  1  0  0  0  0
 23 30  1  0  0  0  0
 23 31  2  0  0  0  0
 23 53  1  0  0  0  0
 24 64  1  0  0  0  0
 25 89  1  0  0  0  0
 26 90  1  0  0  0  0
 27 29  2  0  0  0  0
 27 89  1  0  0  0  0
 28 91  1  0  0  0  0
 29 92  1  0  0  0  0
 30 93  1  0  0  0  0
 31 94  1  0  0  0  0
 32 73  2  0  0  0  0
 33 74  1  0  0  0  0
 33 77  1  0  0  0  0
 34 36  2  0  0  0  0
 35 78  1  0  0  0  0
 35 84  2  0  0  0  0
 36 65  1  0  0  0  0
 36 83  1  0  0  0  0
 37 55  1  0  0  0  0
 37 79  1  0  0  0  0
 37 85  2  0  0  0  0
 38 70  1  0  0  0  0
 38 75  1  0  0  0  0
 38 86  2  0  0  0  0
 39 71  1  0  0  0  0
 39 80  1  0  0  0  0
 39 87  2  0  0  0  0
 40 76  1  0  0  0  0
 40 81  1  0  0  0  0
 40 88  2  0  0  0  0
 41 44  1  0  0  0  0
 42 55  1  0  0  0  0
 43 75  1  0  0  0  0
 44 48  1  0  0  0  0
 45 47  1  0  0  0  0
 45 50  1  0  0  0  0
 46 49  1  0  0  0  0
 46 51  1  0  0  0  0
 47 53  1  0  0  0  0
 48 54  1  0  0  0  0
 49 56  1  0  0  0  0
 50 57  1  0  0  0  0
 51 76  1  0  0  0  0
 52 56  1  0  0  0  0
 52 76  1  0  0  0  0
 53 57  1  0  0  0  0
 54 79  1  0  0  0  0
 55 75  1  0  0  0  0
 56 74  1  0  0  0  0
 57 83  1  0  0  0  0
 58 71  1  0  0  0  0
 59 72  1  0  0  0  0
 60 72  1  0  0  0  0
 61 72  1  0  0  0  0
 62 82  1  0  0  0  0
 63 83  1  0  0  0  0
 64 90  1  0  0  0  0
 65 66  1  0  0  0  0
 66 67  1  0  0  0  0
 67 68  1  0  0  0  0
 68 69  1  0  0  0  0
 69 81  1  0  0  0  0
 70 72  1  0  0  0  0
 70 80  1  0  0  0  0
 71 82  1  0  0  0  0
 73 74  1  0  0  0  0
M  CHG  2  82   1  83   1
M  ISO  4  40 100  64 101  81 100  90 101
M  END
> <Batch ID>
0023

> <Smiles>
C=C(CCCCC[100NH:0][100C:0](=O)N1CCCC(n2nc(-c3ccc(Oc4ccc(F)cc4F)cc3)c(C(N)=O)c2N)C1)N(C)C1CCCC1c1c(Cl)cc([101CH2:1][101O:1]c2ccc3c(c2)CN(C(=O)C(NC(=O)C(C)NC)C(C)(C)C)C(C(=O)NC2CCCc4ccccc42)C3)cc1Cl

> <Shape>
0.191

> <Color>
0.097

> <Negative vol penalty>
0.000

$$$$

  -OEChem-04052316193D

 87 95  0     1  0  0  0  0  0999 V2000
  -22.3816   -7.0676   20.7442 C   0  0  0  0  0  0  0  0  0  0  0  0
  -21.6085   -8.2138   20.8994 C   0  0  0  0  0  0  0  0  0  0  0  0
  -29.6340  -28.5047   21.4718 C   0  0  0  0  0  0  0  0  0  0  0  0
  -27.6847  -27.6723   20.3123 C   0  0  0  0  0  0  0  0  0  0  0  0
  -23.7472   -7.1062   21.0229 C   0  0  0  0  0  0  0  0  0  0  0  0
  -22.2004   -9.3990   21.3345 C   0  0  0  0  0  0  0  0  0  0  0  0
  -20.7095  -15.0943   19.6473 C   0  0  0  0  0  0  0  0  0  0  0  0
  -30.4013  -27.4802   20.9175 C   0  0  0  0  0  0  0  0  0  0  0  0
  -28.4520  -26.6478   19.7579 C   0  0  0  0  0  0  0  0  0  0  0  0
  -19.9220  -16.0749   20.2488 C   0  0  0  0  0  0  0  0  0  0  0  0
  -30.6641  -26.2838   17.2291 C   0  0  0  0  0  0  0  0  0  0  0  0
  -30.5037  -26.0194   15.8690 C   0  0  0  0  0  0  0  0  0  0  0  0
  -21.9013  -17.0705   21.2029 C   0  0  0  0  0  0  0  0  0  0  0  0
  -29.8145  -23.7629   16.3890 C   0  0  0  0  0  0  0  0  0  0  0  0
  -28.2757  -28.6008   21.1693 C   0  0  0  0  0  0  0  0  0  0  0  0
  -27.2563  -30.9390   21.2026 C   0  0  0  0  0  0  0  0  0  0  0  0
  -24.3579   -8.2949   21.4524 C   0  0  0  0  0  0  0  0  0  0  0  0
  -22.1000  -15.0880   19.8282 C   0  0  0  0  0  0  0  0  0  0  0  0
  -23.5752   -9.4532   21.6205 C   0  0  0  0  0  0  0  0  0  0  0  0
  -22.7045  -16.0902   20.6005 C   0  0  0  0  0  0  0  0  0  0  0  0
  -20.0349  -28.2337   23.7726 C   0  0  0  0  0  0  0  0  0  0  0  0
  -20.1666  -29.0722   22.6713 C   0  0  0  0  0  0  0  0  0  0  0  0
  -29.8103  -26.5518   20.0605 C   0  0  0  0  0  0  0  0  0  0  0  0
  -20.5176  -17.0616   21.0292 C   0  0  0  0  0  0  0  0  0  0  0  0
  -30.3998  -25.2878   18.1692 C   0  0  0  0  0  0  0  0  0  0  0  0
  -30.0789  -24.7590   15.4490 C   0  0  0  0  0  0  0  0  0  0  0  0
  -29.9750  -24.0273   17.7492 C   0  0  0  0  0  0  0  0  0  0  0  0
  -19.4512  -26.9810   23.6198 C   0  0  0  0  0  0  0  0  0  0  0  0
  -27.4825  -29.6585   21.7421 C   0  0  0  0  0  0  0  0  0  0  0  0
  -19.0189  -26.6169   22.3548 C   0  0  0  0  0  0  0  0  0  0  0  0
  -19.7025  -28.6143   21.4486 C   0  0  0  0  0  0  0  0  0  0  0  0
  -26.4444  -31.5597   22.1203 C   0  0  0  0  0  0  0  0  0  0  0  0
  -27.7371  -31.5158   19.9812 C   0  0  0  0  0  0  0  0  0  0  0  0
  -24.1860  -13.0616   21.1113 C   0  0  0  0  0  0  0  0  0  0  0  0
  -26.3588  -15.1698   19.9467 C   0  0  0  0  0  0  0  0  0  0  0  0
  -27.0509  -18.3541   18.9328 C   0  0  0  0  0  0  0  0  0  0  0  0
  -22.5970  -29.4935   26.2165 C   0  0  0  0  0  0  0  0  0  0  0  0
  -25.8284   -8.2758   21.7869 C   0  0  0  0  0  0  0  0  0  0  0  0
  -22.9382  -14.0388   19.1507 C   0  0  0  0  0  0  0  0  0  0  0  0
  -24.1953  -16.1397   20.8092 C   0  0  0  0  0  0  0  0  0  0  0  0
  -26.4491   -9.6670   21.8840 C   0  0  0  0  0  0  0  0  0  0  0  0
  -25.4153  -31.5916   26.7926 C   0  0  0  0  0  0  0  0  0  0  0  0
  -25.5638  -10.5898   22.7156 C   0  0  0  0  0  0  0  0  0  0  0  0
  -26.2442  -31.4497   25.5149 C   0  0  0  0  0  0  0  0  0  0  0  0
  -24.7418  -30.2762   27.1775 C   0  0  0  0  0  0  0  0  0  0  0  0
  -24.7605  -29.5178   24.8327 C   0  0  0  0  0  0  0  0  0  0  0  0
  -24.1854  -10.7641   22.0667 C   0  0  1  0  0  0  0  0  0  0  0  0
  -24.2912  -13.8285   19.8235 C   0  0  1  0  0  0  0  0  0  0  0  0
  -25.4138  -30.8326   24.3734 C   0  0  2  0  0  0  0  0  0  0  0  0
  -20.7894  -30.4216   22.8124 C   0  0  0  0  0  0  0  0  0  0  0  0
  -28.9244  -19.7835   18.0701 C   0  0  0  0  0  0  0  0  0  0  0  0
  -27.5411  -15.3114   22.7560 C   0  0  0  0  0  0  0  0  0  0  0  0
  -28.7409  -17.3991   22.0705 C   0  0  0  0  0  0  0  0  0  0  0  0
  -29.2321  -15.2437   20.9147 C   0  0  0  0  0  0  0  0  0  0  0  0
  -25.6160  -18.9125   16.4053 C   0  0  0  0  0  0  0  0  0  0  0  0
  -20.5242  -28.6946   25.1099 C   0  0  0  0  0  0  0  0  0  0  0  0
  -18.3797  -25.2820   22.1092 C   0  0  0  0  0  0  0  0  0  0  0  0
  -19.8464  -21.7650   21.9655 C   0  0  0  0  0  0  0  0  0  0  0  0
  -19.2734  -20.3680   21.7396 C   0  0  0  0  0  0  0  0  0  0  0  0
  -18.7499  -22.8189   21.9227 C   0  0  0  0  0  0  0  0  0  0  0  0
  -20.3524  -19.2976   21.8223 C   0  0  0  0  0  0  0  0  0  1  0  0
  -27.0333  -16.4122   20.4764 C   0  0  1  0  0  0  0  0  0  0  0  0
  -27.7534  -18.8876   17.6974 C   0  0  2  0  0  0  0  0  0  0  0  0
  -28.1085  -16.0898   21.5523 C   0  0  0  0  0  0  0  0  0  0  0  0
  -26.8643  -29.4752   22.9118 N   0  0  0  0  0  0  0  0  0  0  0  0
  -19.1299  -27.4041   21.2613 N   0  0  0  0  0  0  0  0  0  0  0  0
  -26.2418  -30.6488   23.1150 N   0  0  0  0  0  0  0  0  0  0  0  0
  -24.9713  -15.0883   20.1311 N   0  0  0  0  0  0  0  0  0  0  0  0
  -23.9692  -29.7448   26.0521 N   0  0  0  0  0  0  0  0  0  0  0  0
  -25.8912  -32.7903   22.1653 N   0  0  0  0  0  0  0  0  0  0  0  0
  -28.5610  -30.7397   19.1547 N   0  0  0  0  0  0  0  0  0  0  0  0
  -24.2626  -11.6905   20.9574 N   0  0  0  0  0  0  0  0  0  0  0  0
  -27.5478  -17.1252   19.3123 N   0  0  0  0  0  0  0  0  0  0  0  0
  -21.9383  -28.9966   25.0985 N   0  0  0  0  0  0  0  0  0  0  0  0
  -26.8047  -19.6774   16.8624 N   0  3  0  0  0  0  0  0  0  0  0  0
  -19.3576  -24.1596   22.1011 N   0  3  0  0  0  0  0  0  0  0  0  0
  -27.4580  -32.6905   19.6410 O   0  0  0  0  0  0  0  0  0  0  0  0
  -24.0471  -13.6688   22.1666 O   0  0  0  0  0  0  0  0  0  0  0  0
  -27.0369  -14.3070   19.3835 O   0  0  0  0  0  0  0  0  0  0  0  0
  -26.1537  -18.9680   19.5061 O   0  0  0  0  0  0  0  0  0  0  0  0
  -22.0019  -29.7017   27.2793 O   0  0  0  0  0  0  0  0  0  0  0  0
  -30.5587  -25.5521   19.5192 O   0  0  0  0  0  0  0  0  0  0  0  0
  -19.7512  -18.0196   21.6180 O   0  0  0  0  0  0  0  0  0  1  0  0
  -29.9234  -24.5056   14.1429 F   0  0  0  0  0  0  0  0  0  0  0  0
  -29.7184  -23.0668   18.6477 F   0  0  0  0  0  0  0  0  0  0  0  0
  -19.2717  -25.9130   24.9642 Cl  0  0  0  0  0  0  0  0  0  0  0  0
  -19.8062  -29.5547   20.0116 Cl  0  0  0  0  0  0  0  0  0  0  0  0
  1  2  1  0  0  0  0
  1  5  2  0  0  0  0
  2  6  2  0  0  0  0
  3  8  2  0  0  0  0
  3 15  1  0  0  0  0
  4  9  1  0  0  0  0
  4 15  2  0  0  0  0
  5 17  1  0  0  0  0
  6 19  1  0  0  0  0
  7 10  2  0  0  0  0
  7 18  1  0  0  0  0
  8 23  1  0  0  0  0
  9 23  2  0  0  0  0
 10 24  1  0  0  0  0
 11 12  2  0  0  0  0
 11 25  1  0  0  0  0
 12 26  1  0  0  0  0
 13 20  1  0  0  0  0
 13 24  2  0  0  0  0
 14 26  2  0  0  0  0
 14 27  1  0  0  0  0
 15 29  1  0  0  0  0
 16 29  1  0  0  0  0
 16 32  2  0  0  0  0
 16 33  1  0  0  0  0
 17 19  2  0  0  0  0
 17 38  1  0  0  0  0
 18 20  2  0  0  0  0
 18 39  1  0  0  0  0
 19 47  1  0  0  0  0
 20 40  1  0  0  0  0
 21 22  2  0  0  0  0
 21 28  1  0  0  0  0
 21 56  1  0  0  0  0
 22 31  1  0  0  0  0
 22 50  1  0  0  0  0
 23 82  1  0  0  0  0
 24 83  1  0  0  0  0
 25 27  2  0  0  0  0
 25 82  1  0  0  0  0
 26 84  1  0  0  0  0
 27 85  1  0  0  0  0
 28 30  2  0  0  0  0
 28 86  1  0  0  0  0
 29 65  2  0  0  0  0
 30 57  1  0  0  0  0
 30 66  1  0  0  0  0
 31 66  2  0  0  0  0
 31 87  1  0  0  0  0
 32 67  1  0  0  0  0
 32 70  1  0  0  0  0
 33 71  1  0  0  0  0
 33 77  2  0  0  0  0
 34 48  1  0  0  0  0
 34 72  1  0  0  0  0
 34 78  2  0  0  0  0
 35 62  1  0  0  0  0
 35 68  1  0  0  0  0
 35 79  2  0  0  0  0
 36 63  1  0  0  0  0
 36 73  1  0  0  0  0
 36 80  2  0  0  0  0
 37 69  1  0  0  0  0
 37 74  1  0  0  0  0
 37 81  2  0  0  0  0
 38 41  1  0  0  0  0
 39 48  1  0  0  0  0
 40 68  1  0  0  0  0
 41 43  1  0  0  0  0
 42 44  1  0  0  0  0
 42 45  1  0  0  0  0
 43 47  1  0  0  0  0
 44 49  1  0  0  0  0
 45 69  1  0  0  0  0
 46 49  1  0  0  0  0
 46 69  1  0  0  0  0
 47 72  1  0  0  0  0
 48 68  1  0  0  0  0
 49 67  1  0  0  0  0
 51 63  1  0  0  0  0
 52 64  1  0  0  0  0
 53 64  1  0  0  0  0
 54 64  1  0  0  0  0
 55 75  1  0  0  0  0
 56 74  1  0  0  0  0
 57 76  1  0  0  0  0
 58 59  1  0  0  0  0
 58 60  1  0  0  0  0
 59 61  1  0  0  0  0
 60 76  1  0  0  0  0
 61 83  1  0  0  0  0
 62 64  1  0  0  0  0
 62 73  1  0  0  0  0
 63 75  1  0  0  0  0
 65 67  1  0  0  0  0
M  CHG  2  75   1  76   1
M  ISO  4  37 100  61 101  74 100  83 101
M  END
> <Batch ID>
0023

> <Smiles>
CNC(C)C(=O)NC(C(=O)N1Cc2cc([101O:1][101CH2:1]CCCNCc3nc(Cl)c(C)c(C[100NH:0][100C:0](=O)N4CCCC(n5nc(-c6ccc(Oc7ccc(F)cc7F)cc6)c(C(N)=O)c5N)C4)c3Cl)ccc2CC1C(=O)NC1CCCc2ccccc21)C(C)(C)C

> <Shape>
0.276

> <Color>
0.041

> <Negative vol penalty>
0.000

$$$$

  -OEChem-04052316193D

 91 99  0     1  0  0  0  0  0999 V2000
  -20.0806  -10.3247   15.8106 C   0  0  0  0  0  0  0  0  0  0  0  0
  -19.9132  -11.6906   16.0148 C   0  0  0  0  0  0  0  0  0  0  0  0
  -26.5290  -28.3732   18.9677 C   0  0  0  0  0  0  0  0  0  0  0  0
  -26.0364  -27.5983   21.2025 C   0  0  0  0  0  0  0  0  0  0  0  0
  -20.7327   -9.5522   16.7707 C   0  0  0  0  0  0  0  0  0  0  0  0
  -20.3970  -12.2846   17.1800 C   0  0  0  0  0  0  0  0  0  0  0  0
  -23.1951  -18.4326   19.5652 C   0  0  0  0  0  0  0  0  0  0  0  0
  -25.5383  -29.3477   19.0872 C   0  0  0  0  0  0  0  0  0  0  0  0
  -25.0457  -28.5729   21.3220 C   0  0  0  0  0  0  0  0  0  0  0  0
  -23.0100  -19.3824   20.5689 C   0  0  0  0  0  0  0  0  0  0  0  0
  -21.8571  -29.0235   20.2920 C   0  0  0  0  0  0  0  0  0  0  0  0
  -20.6297  -28.6373   20.8304 C   0  0  0  0  0  0  0  0  0  0  0  0
  -24.1904  -17.9628   22.1216 C   0  0  0  0  0  0  0  0  0  0  0  0
  -20.9119  -30.2356   22.6201 C   0  0  0  0  0  0  0  0  0  0  0  0
  -26.7780  -27.4984   20.0253 C   0  0  0  0  0  0  0  0  0  0  0  0
  -29.1740  -26.6978   19.6703 C   0  0  0  0  0  0  0  0  0  0  0  0
  -21.2332  -10.1387   17.9438 C   0  0  0  0  0  0  0  0  0  0  0  0
  -23.8708  -17.2339   19.8355 C   0  0  0  0  0  0  0  0  0  0  0  0
  -21.0553  -11.5190   18.1573 C   0  0  0  0  0  0  0  0  0  0  0  0
  -24.3849  -17.0006   21.1190 C   0  0  0  0  0  0  0  0  0  0  0  0
  -24.7966  -29.4476   20.2644 C   0  0  0  0  0  0  0  0  0  0  0  0
  -23.5051  -19.1464   21.8480 C   0  0  0  0  0  0  0  0  0  0  0  0
  -22.6120  -30.0158   20.9176 C   0  0  0  0  0  0  0  0  0  0  0  0
  -20.1571  -29.2433   21.9944 C   0  0  0  0  0  0  0  0  0  0  0  0
  -22.1393  -30.6218   22.0816 C   0  0  0  0  0  0  0  0  0  0  0  0
  -27.8009  -26.4911   19.9023 C   0  0  0  0  0  0  0  0  0  0  0  0
  -29.7107  -25.4339   19.6374 C   0  0  0  0  0  0  0  0  0  0  0  0
  -29.8994  -27.9227   19.4998 C   0  0  0  0  0  0  0  0  0  0  0  0
  -25.1984  -21.5211   27.3793 C   0  0  0  0  0  0  0  0  0  0  0  0
  -23.0915  -14.1532   19.7596 C   0  0  0  0  0  0  0  0  0  0  0  0
  -26.2467  -13.7402   20.3895 C   0  0  0  0  0  0  0  0  0  0  0  0
  -27.7565  -21.0357   25.5093 C   0  0  0  0  0  0  0  0  0  0  0  0
  -29.1385  -15.0254   21.6672 C   0  0  0  0  0  0  0  0  0  0  0  0
  -27.9956  -20.2127   22.0140 C   0  0  0  0  0  0  0  0  0  0  0  0
  -21.8894   -9.2546   18.9745 C   0  0  0  0  0  0  0  0  0  0  0  0
  -24.0856  -16.2313   18.7350 C   0  0  0  0  0  0  0  0  0  0  0  0
  -25.1353  -15.7387   21.4554 C   0  0  0  0  0  0  0  0  0  0  0  0
  -22.7033  -10.0267   20.0098 C   0  0  0  0  0  0  0  0  0  0  0  0
  -26.3151  -18.6215   27.9276 C   0  0  0  0  0  0  0  0  0  0  0  0
  -28.5750  -20.9102   18.5710 C   0  0  0  0  0  0  0  0  0  0  0  0
  -21.9102  -11.2217   20.5293 C   0  0  0  0  0  0  0  0  0  0  0  0
  -26.4462  -19.8961   28.7567 C   0  0  0  0  0  0  0  0  0  0  0  0
  -28.5662  -22.4383   18.5008 C   0  0  0  0  0  0  0  0  0  0  0  0
  -27.2361  -18.8809   26.7458 C   0  0  0  0  0  0  0  0  0  0  0  0
  -27.5577  -20.3858   19.5820 C   0  0  0  0  0  0  0  0  0  0  0  0
  -27.6694  -22.4867   20.8656 C   0  0  0  0  0  0  0  0  0  0  0  0
  -21.5879  -12.2042   19.3970 C   0  0  1  0  0  0  0  0  0  0  0  0
  -26.5822  -20.9911   27.7044 C   0  0  1  0  0  0  0  0  0  0  0  0
  -24.3399  -14.8195   19.2543 C   0  0  1  0  0  0  0  0  0  0  0  0
  -28.7181  -23.0647   19.9000 C   0  0  2  0  0  0  0  0  0  0  0  0
  -29.9184  -20.0864   24.7541 C   0  0  0  0  0  0  0  0  0  0  0  0
  -31.5436  -14.4378   22.0763 C   0  0  0  0  0  0  0  0  0  0  0  0
  -24.9795  -25.4365   27.6380 C   0  0  0  0  0  0  0  0  0  0  0  0
  -23.6428  -23.7406   28.8659 C   0  0  0  0  0  0  0  0  0  0  0  0
  -26.1209  -23.8105   29.1599 C   0  0  0  0  0  0  0  0  0  0  0  0
  -25.4182  -12.0138   22.7650 C   0  0  0  0  0  0  0  0  0  0  0  0
  -27.7450  -12.2495   23.6587 C   0  0  0  0  0  0  0  0  0  0  0  0
  -27.3618  -11.1315   21.4618 C   0  0  0  0  0  0  0  0  0  0  0  0
  -30.0916  -17.2187   19.9237 C   0  0  0  0  0  0  0  0  0  0  0  0
  -24.2134  -22.2197   24.6450 C   0  0  0  0  0  0  0  0  0  0  0  0
  -23.0546  -22.3335   23.6489 C   0  0  0  0  0  0  0  0  0  0  0  0
  -23.9756  -23.1062   25.8764 C   0  0  0  0  0  0  0  0  0  0  0  0
  -23.2512  -21.4378   22.4319 C   0  0  0  0  0  0  0  0  0  1  0  0
  -25.1068  -22.9830   26.9226 C   0  0  1  0  0  0  0  0  0  0  0  0
  -27.0822  -13.6378   21.6427 C   0  0  1  0  0  0  0  0  0  0  0  0
  -28.4409  -20.2025   24.4555 C   0  0  2  0  0  0  0  0  0  0  0  0
  -30.5513  -15.0714   21.1137 C   0  0  2  0  0  0  0  0  0  0  0  0
  -24.9841  -23.9739   28.1337 C   0  0  0  0  0  0  0  0  0  0  0  0
  -26.8860  -12.2812   22.3765 C   0  0  0  0  0  0  0  0  0  0  0  0
  -27.4850  -25.1978   20.0091 N   0  0  0  0  0  0  0  0  0  0  0  0
  -28.6671  -24.5803   19.8433 N   0  0  0  0  0  0  0  0  0  0  0  0
  -25.3140  -14.7861   20.3471 N   0  0  0  0  0  0  0  0  0  0  0  0
  -27.2051  -20.3289   26.5645 N   0  0  0  0  0  0  0  0  0  0  0  0
  -27.7572  -21.0182   20.8883 N   0  0  0  0  0  0  0  0  0  0  0  0
  -30.9688  -24.9806   19.4526 N   0  0  0  0  0  0  0  0  0  0  0  0
  -29.1933  -29.1317   19.5627 N   0  0  0  0  0  0  0  0  0  0  0  0
  -22.7511  -13.0026   19.0743 N   0  0  0  0  0  0  0  0  0  0  0  0
  -28.4583  -13.9051   21.2387 N   0  0  0  0  0  0  0  0  0  0  0  0
  -28.1801  -20.8924   23.2118 N   0  0  0  0  0  0  0  0  0  0  0  0
  -30.9669  -16.4818   20.8711 N   0  3  0  0  0  0  0  0  0  0  0  0
  -31.1345  -27.9437   19.2814 O   0  0  0  0  0  0  0  0  0  0  0  0
  -24.2092  -20.7937   27.4643 O   0  0  0  0  0  0  0  0  0  0  0  0
  -22.4831  -14.6458   20.7024 O   0  0  0  0  0  0  0  0  0  0  0  0
  -26.4203  -12.9265   19.4788 O   0  0  0  0  0  0  0  0  0  0  0  0
  -27.7055  -22.2618   25.3980 O   0  0  0  0  0  0  0  0  0  0  0  0
  -28.6849  -15.8943   22.4086 O   0  0  0  0  0  0  0  0  0  0  0  0
  -28.0460  -18.9794   21.9551 O   0  0  0  0  0  0  0  0  0  0  0  0
  -23.8300  -30.3987   20.3814 O   0  0  0  0  0  0  0  0  0  0  0  0
  -23.3239  -20.0785   22.8371 O   0  0  0  0  0  0  0  0  0  1  0  0
  -18.9777  -28.8734   22.5105 F   0  0  0  0  0  0  0  0  0  0  0  0
  -22.8595  -31.5764   22.6865 F   0  0  0  0  0  0  0  0  0  0  0  0
  1  2  1  0  0  0  0
  1  5  2  0  0  0  0
  2  6  2  0  0  0  0
  3  8  2  0  0  0  0
  3 15  1  0  0  0  0
  4  9  1  0  0  0  0
  4 15  2  0  0  0  0
  5 17  1  0  0  0  0
  6 19  1  0  0  0  0
  7 10  2  0  0  0  0
  7 18  1  0  0  0  0
  8 21  1  0  0  0  0
  9 21  2  0  0  0  0
 10 22  1  0  0  0  0
 11 12  2  0  0  0  0
 11 23  1  0  0  0  0
 12 24  1  0  0  0  0
 13 20  1  0  0  0  0
 13 22  2  0  0  0  0
 14 24  2  0  0  0  0
 14 25  1  0  0  0  0
 15 26  1  0  0  0  0
 16 26  1  0  0  0  0
 16 27  2  0  0  0  0
 16 28  1  0  0  0  0
 17 19  2  0  0  0  0
 17 35  1  0  0  0  0
 18 20  2  0  0  0  0
 18 36  1  0  0  0  0
 19 47  1  0  0  0  0
 20 37  1  0  0  0  0
 21 88  1  0  0  0  0
 22 89  1  0  0  0  0
 23 25  2  0  0  0  0
 23 88  1  0  0  0  0
 24 90  1  0  0  0  0
 25 91  1  0  0  0  0
 26 70  2  0  0  0  0
 27 71  1  0  0  0  0
 27 75  1  0  0  0  0
 28 76  1  0  0  0  0
 28 81  2  0  0  0  0
 29 48  1  0  0  0  0
 29 64  1  0  0  0  0
 29 82  2  0  0  0  0
 30 49  1  0  0  0  0
 30 77  1  0  0  0  0
 30 83  2  0  0  0  0
 31 65  1  0  0  0  0
 31 72  1  0  0  0  0
 31 84  2  0  0  0  0
 32 66  1  0  0  0  0
 32 73  1  0  0  0  0
 32 85  2  0  0  0  0
 33 67  1  0  0  0  0
 33 78  1  0  0  0  0
 33 86  2  0  0  0  0
 34 74  1  0  0  0  0
 34 79  1  0  0  0  0
 34 87  2  0  0  0  0
 35 38  1  0  0  0  0
 36 49  1  0  0  0  0
 37 72  1  0  0  0  0
 38 41  1  0  0  0  0
 39 42  1  0  0  0  0
 39 44  1  0  0  0  0
 40 43  1  0  0  0  0
 40 45  1  0  0  0  0
 41 47  1  0  0  0  0
 42 48  1  0  0  0  0
 43 50  1  0  0  0  0
 44 73  1  0  0  0  0
 45 74  1  0  0  0  0
 46 50  1  0  0  0  0
 46 74  1  0  0  0  0
 47 77  1  0  0  0  0
 48 73  1  0  0  0  0
 49 72  1  0  0  0  0
 50 71  1  0  0  0  0
 51 66  1  0  0  0  0
 52 67  1  0  0  0  0
 53 68  1  0  0  0  0
 54 68  1  0  0  0  0
 55 68  1  0  0  0  0
 56 69  1  0  0  0  0
 57 69  1  0  0  0  0
 58 69  1  0  0  0  0
 59 80  1  0  0  0  0
 60 61  1  0  0  0  0
 60 62  1  0  0  0  0
 61 63  1  0  0  0  0
 62 64  1  0  0  0  0
 63 89  1  0  0  0  0
 64 68  1  0  0  0  0
 65 69  1  0  0  0  0
 65 78  1  0  0  0  0
 66 79  1  0  0  0  0
 67 80  1  0  0  0  0
 70 71  1  0  0  0  0
M  CHG  1  80   1
M  ISO  4  34 100  63 101  79 100  89 101
M  END
> <Batch ID>
0023

> <Smiles>
CNC(C)C(=O)NC(C(=O)N1Cc2cc([101O:1][101CH2:1]CCCC(C(=O)C3CCCN3C(=O)C(C)[100NH:0][100C:0](=O)N3CCCC(n4nc(-c5ccc(Oc6ccc(F)cc6F)cc5)c(C(N)=O)c4N)C3)C(C)(C)C)ccc2CC1C(=O)NC1CCCc2ccccc21)C(C)(C)C

> <Shape>
0.215

> <Color>
0.051

> <Negative vol penalty>
0.000

$$$$

  -OEChem-04052316193D

 85 93  0     1  0  0  0  0  0999 V2000
  -26.1683  -27.1758   29.0125 C   0  0  0  0  0  0  0  0  0  0  0  0
  -26.2594  -26.8751   27.6572 C   0  0  0  0  0  0  0  0  0  0  0  0
  -24.3052   -8.8384   20.5412 C   0  0  0  0  0  0  0  0  0  0  0  0
  -23.0166  -10.7939   21.1351 C   0  0  0  0  0  0  0  0  0  0  0  0
  -25.5797  -28.3715   29.4221 C   0  0  0  0  0  0  0  0  0  0  0  0
  -25.7608  -27.7696   26.7107 C   0  0  0  0  0  0  0  0  0  0  0  0
  -28.9316  -28.4497   22.8212 C   0  0  0  0  0  0  0  0  0  0  0  0
  -23.2611   -8.0197   20.9715 C   0  0  0  0  0  0  0  0  0  0  0  0
  -21.9725   -9.9752   21.5654 C   0  0  0  0  0  0  0  0  0  0  0  0
  -28.9689  -27.4520   21.8481 C   0  0  0  0  0  0  0  0  0  0  0  0
  -21.0767   -5.4078   22.2483 C   0  0  0  0  0  0  0  0  0  0  0  0
  -21.3995   -4.3024   23.0353 C   0  0  0  0  0  0  0  0  0  0  0  0
  -27.5384  -28.7849   20.4353 C   0  0  0  0  0  0  0  0  0  0  0  0
  -28.6386  -19.9225   18.9390 C   0  0  0  0  0  0  0  0  0  0  0  0
  -29.9054  -18.8795   21.1952 C   0  0  0  0  0  0  0  0  0  0  0  0
  -22.3639   -5.7672   24.6971 C   0  0  0  0  0  0  0  0  0  0  0  0
  -24.1829  -10.2256   20.6230 C   0  0  0  0  0  0  0  0  0  0  0  0
  -25.4559  -11.5930   18.8860 C   0  0  0  0  0  0  0  0  0  0  0  0
  -25.0824  -29.2855   28.4797 C   0  0  0  0  0  0  0  0  0  0  0  0
  -28.1874  -29.6198   22.6128 C   0  0  0  0  0  0  0  0  0  0  0  0
  -25.1638  -28.9780   27.1082 C   0  0  0  0  0  0  0  0  0  0  0  0
  -27.4954  -29.7971   21.4063 C   0  0  0  0  0  0  0  0  0  0  0  0
  -29.2869  -20.7758   19.8319 C   0  0  0  0  0  0  0  0  0  0  0  0
  -29.2571  -18.0262   20.3023 C   0  0  0  0  0  0  0  0  0  0  0  0
  -22.0948   -8.5881   21.4836 C   0  0  0  0  0  0  0  0  0  0  0  0
  -28.2698  -27.6182   20.6561 C   0  0  0  0  0  0  0  0  0  0  0  0
  -21.3976   -6.6930   22.6856 C   0  0  0  0  0  0  0  0  0  0  0  0
  -22.0431   -4.4821   24.2597 C   0  0  0  0  0  0  0  0  0  0  0  0
  -22.0411   -6.8726   23.9100 C   0  0  0  0  0  0  0  0  0  0  0  0
  -28.6237  -18.5477   19.1743 C   0  0  0  0  0  0  0  0  0  0  0  0
  -29.9203  -20.2544   20.9599 C   0  0  0  0  0  0  0  0  0  0  0  0
  -25.2613  -11.0718   20.1791 C   0  0  0  0  0  0  0  0  0  0  0  0
  -26.6127  -12.3272   18.9821 C   0  0  0  0  0  0  0  0  0  0  0  0
  -24.6619  -11.4283   17.7036 C   0  0  0  0  0  0  0  0  0  0  0  0
  -25.7055  -30.9860   24.0541 C   0  0  0  0  0  0  0  0  0  0  0  0
  -26.3136  -33.3916   21.9646 C   0  0  0  0  0  0  0  0  0  0  0  0
  -27.6678  -34.3716   18.9893 C   0  0  0  0  0  0  0  0  0  0  0  0
  -29.8530  -15.9843   21.6521 C   0  0  0  0  0  0  0  0  0  0  0  0
  -24.4121  -30.5435   28.9723 C   0  0  0  0  0  0  0  0  0  0  0  0
  -28.1791  -30.6982   23.6613 C   0  0  0  0  0  0  0  0  0  0  0  0
  -26.6979  -31.0435   21.1252 C   0  0  0  0  0  0  0  0  0  0  0  0
  -24.2458  -31.6084   27.8912 C   0  0  0  0  0  0  0  0  0  0  0  0
  -30.0533  -12.5831   22.6860 C   0  0  0  0  0  0  0  0  0  0  0  0
  -23.6947  -30.9882   26.6112 C   0  0  0  0  0  0  0  0  0  0  0  0
  -28.8405  -11.9296   22.0196 C   0  0  0  0  0  0  0  0  0  0  0  0
  -29.7468  -14.0055   23.1514 C   0  0  0  0  0  0  0  0  0  0  0  0
  -27.9768  -14.2362   21.4535 C   0  0  0  0  0  0  0  0  0  0  0  0
  -24.6569  -29.9341   26.0503 C   0  0  1  0  0  0  0  0  0  0  0  0
  -26.9714  -31.6244   23.5564 C   0  0  1  0  0  0  0  0  0  0  0  0
  -28.2563  -12.8256   20.9098 C   0  0  2  0  0  0  0  0  0  0  0  0
  -30.0612  -22.5322   18.2404 C   0  0  0  0  0  0  0  0  0  0  0  0
  -27.9758  -36.3943   17.5362 C   0  0  0  0  0  0  0  0  0  0  0  0
  -27.0977  -22.6096   20.8307 C   0  0  0  0  0  0  0  0  0  0  0  0
  -23.3902  -33.2182   21.1078 C   0  0  0  0  0  0  0  0  0  0  0  0
  -23.9827  -34.5402   19.0659 C   0  0  0  0  0  0  0  0  0  0  0  0
  -24.2761  -35.5464   21.3295 C   0  0  0  0  0  0  0  0  0  0  0  0
  -30.6169  -34.1755   19.1418 C   0  0  0  0  0  0  0  0  0  0  0  0
  -27.7847  -24.3709   19.1572 C   0  0  0  0  0  0  0  0  0  0  0  0
  -28.4642  -25.3013   20.1560 C   0  0  0  0  0  0  0  0  0  1  0  0
  -29.2806  -22.2721   19.5379 C   0  0  1  0  0  0  0  0  0  0  0  0
  -25.8616  -33.7317   20.5649 C   0  0  1  0  0  0  0  0  0  0  0  0
  -28.5813  -35.5300   18.6312 C   0  0  2  0  0  0  0  0  0  0  0  0
  -27.8383  -22.8670   19.5078 C   0  0  1  0  0  0  0  0  0  0  0  0
  -24.3910  -34.2347   20.5228 C   0  0  0  0  0  0  0  0  0  0  0  0
  -26.2180  -11.4432   21.0341 N   0  0  0  0  0  0  0  0  0  0  0  0
  -27.0249  -12.2055   20.2765 N   0  0  0  0  0  0  0  0  0  0  0  0
  -26.7157  -32.0664   22.1840 N   0  0  0  0  0  0  0  0  0  0  0  0
  -29.2010  -14.7968   22.0466 N   0  0  0  0  0  0  0  0  0  0  0  0
  -27.3075  -13.0584   18.0848 N   0  0  0  0  0  0  0  0  0  0  0  0
  -23.5045  -10.6415   17.7801 N   0  0  0  0  0  0  0  0  0  0  0  0
  -29.2614  -16.6347   20.5697 N   0  0  0  0  0  0  0  0  0  0  0  0
  -25.7645  -30.5714   25.3709 N   0  0  0  0  0  0  0  0  0  0  0  0
  -26.8344  -34.6850   20.0422 N   0  0  0  0  0  0  0  0  0  0  0  0
  -29.8989  -35.0224   18.1547 N   0  3  0  0  0  0  0  0  0  0  0  0
  -24.9784  -11.9497   16.6074 O   0  0  0  0  0  0  0  0  0  0  0  0
  -24.7457  -30.8790   23.2997 O   0  0  0  0  0  0  0  0  0  0  0  0
  -26.3167  -34.2710   22.8295 O   0  0  0  0  0  0  0  0  0  0  0  0
  -27.6886  -33.2977   18.3920 O   0  0  0  0  0  0  0  0  0  0  0  0
  -30.8775  -16.3796   22.2143 O   0  0  0  0  0  0  0  0  0  0  0  0
  -21.0757   -7.7895   21.9034 O   0  0  0  0  0  0  0  0  0  0  0  0
  -28.3040  -26.6457   19.7049 O   0  0  0  0  0  0  0  0  0  1  0  0
  -22.3516   -3.4205   25.0161 F   0  0  0  0  0  0  0  0  0  0  0  0
  -22.3508   -8.1049   24.3360 F   0  0  0  0  0  0  0  0  0  0  0  0
  -27.8090  -17.5267   18.0437 Cl  0  0  0  0  0  0  0  0  0  0  0  0
  -30.7311  -21.2804   22.0867 Cl  0  0  0  0  0  0  0  0  0  0  0  0
  1  2  1  0  0  0  0
  1  5  2  0  0  0  0
  2  6  2  0  0  0  0
  3  8  2  0  0  0  0
  3 17  1  0  0  0  0
  4  9  1  0  0  0  0
  4 17  2  0  0  0  0
  5 19  1  0  0  0  0
  6 21  1  0  0  0  0
  7 10  2  0  0  0  0
  7 20  1  0  0  0  0
  8 25  1  0  0  0  0
  9 25  2  0  0  0  0
 10 26  1  0  0  0  0
 11 12  2  0  0  0  0
 11 27  1  0  0  0  0
 12 28  1  0  0  0  0
 13 22  1  0  0  0  0
 13 26  2  0  0  0  0
 14 23  1  0  0  0  0
 14 30  2  0  0  0  0
 15 24  2  0  0  0  0
 15 31  1  0  0  0  0
 16 28  2  0  0  0  0
 16 29  1  0  0  0  0
 17 32  1  0  0  0  0
 18 32  1  0  0  0  0
 18 33  2  0  0  0  0
 18 34  1  0  0  0  0
 19 21  2  0  0  0  0
 19 39  1  0  0  0  0
 20 22  2  0  0  0  0
 20 40  1  0  0  0  0
 21 48  1  0  0  0  0
 22 41  1  0  0  0  0
 23 31  2  0  0  0  0
 23 60  1  0  0  0  0
 24 30  1  0  0  0  0
 24 71  1  0  0  0  0
 25 80  1  0  0  0  0
 26 81  1  0  0  0  0
 27 29  2  0  0  0  0
 27 80  1  0  0  0  0
 28 82  1  0  0  0  0
 29 83  1  0  0  0  0
 30 84  1  0  0  0  0
 31 85  1  0  0  0  0
 32 65  2  0  0  0  0
 33 66  1  0  0  0  0
 33 69  1  0  0  0  0
 34 70  1  0  0  0  0
 34 75  2  0  0  0  0
 35 49  1  0  0  0  0
 35 72  1  0  0  0  0
 35 76  2  0  0  0  0
 36 61  1  0  0  0  0
 36 67  1  0  0  0  0
 36 77  2  0  0  0  0
 37 62  1  0  0  0  0
 37 73  1  0  0  0  0
 37 78  2  0  0  0  0
 38 68  1  0  0  0  0
 38 71  1  0  0  0  0
 38 79  2  0  0  0  0
 39 42  1  0  0  0  0
 40 49  1  0  0  0  0
 41 67  1  0  0  0  0
 42 44  1  0  0  0  0
 43 45  1  0  0  0  0
 43 46  1  0  0  0  0
 44 48  1  0  0  0  0
 45 50  1  0  0  0  0
 46 68  1  0  0  0  0
 47 50  1  0  0  0  0
 47 68  1  0  0  0  0
 48 72  1  0  0  0  0
 49 67  1  0  0  0  0
 50 66  1  0  0  0  0
 51 60  1  0  0  0  0
 52 62  1  0  0  0  0
 53 63  1  0  0  0  0
 54 64  1  0  0  0  0
 55 64  1  0  0  0  0
 56 64  1  0  0  0  0
 57 74  1  0  0  0  0
 58 59  1  0  0  0  0
 58 63  1  0  0  0  0
 59 81  1  0  0  0  0
 60 63  1  0  0  0  0
 61 64  1  0  0  0  0
 61 73  1  0  0  0  0
 62 74  1  0  0  0  0
 65 66  1  0  0  0  0
M  CHG  1  74   1
M  ISO  4  38 100  59 101  71 100  81 101
M  END
> <Batch ID>
0023

> <Smiles>
CNC(C)C(=O)NC(C(=O)N1Cc2cc([101O:1][101CH2:1]CC(C)C(C)c3cc(Cl)c([100NH:0][100C:0](=O)N4CCCC(n5nc(-c6ccc(Oc7ccc(F)cc7F)cc6)c(C(N)=O)c5N)C4)cc3Cl)ccc2CC1C(=O)NC1CCCc2ccccc21)C(C)(C)C

> <Shape>
0.282

> <Color>
0.084

> <Negative vol penalty>
0.000

$$$$

  -OEChem-04052316193D

 98106  0     1  0  0  0  0  0999 V2000
  -33.5855  -22.7810   17.7400 C   0  0  0  0  0  0  0  0  0  0  0  0
  -32.2409  -22.4994   17.9590 C   0  0  0  0  0  0  0  0  0  0  0  0
  -24.4789   -9.8474   21.7718 C   0  0  0  0  0  0  0  0  0  0  0  0
  -24.6298  -11.0835   23.8422 C   0  0  0  0  0  0  0  0  0  0  0  0
  -34.1063  -24.0203   18.1101 C   0  0  0  0  0  0  0  0  0  0  0  0
  -31.4164  -23.4566   18.5493 C   0  0  0  0  0  0  0  0  0  0  0  0
  -24.6513  -25.8110   18.4705 C   0  0  0  0  0  0  0  0  0  0  0  0
  -24.0854   -8.7112   22.4788 C   0  0  0  0  0  0  0  0  0  0  0  0
  -24.2363   -9.9473   24.5492 C   0  0  0  0  0  0  0  0  0  0  0  0
  -23.5955  -26.0834   19.3393 C   0  0  0  0  0  0  0  0  0  0  0  0
  -22.6924   -5.5851   23.7043 C   0  0  0  0  0  0  0  0  0  0  0  0
  -21.6199   -4.8479   23.2023 C   0  0  0  0  0  0  0  0  0  0  0  0
  -24.5869  -28.2187   19.8651 C   0  0  0  0  0  0  0  0  0  0  0  0
  -20.1908   -6.7846   23.4118 C   0  0  0  0  0  0  0  0  0  0  0  0
  -24.7511  -11.0335   22.4535 C   0  0  0  0  0  0  0  0  0  0  0  0
  -24.3242  -13.2070   21.1881 C   0  0  0  0  0  0  0  0  0  0  0  0
  -33.2856  -24.9966   18.6964 C   0  0  0  0  0  0  0  0  0  0  0  0
  -25.6902  -26.7374   18.3005 C   0  0  0  0  0  0  0  0  0  0  0  0
  -31.9270  -24.7095   18.9289 C   0  0  0  0  0  0  0  0  0  0  0  0
  -25.6535  -27.9568   18.9916 C   0  0  0  0  0  0  0  0  0  0  0  0
  -23.9641   -8.7611   23.8675 C   0  0  0  0  0  0  0  0  0  0  0  0
  -23.5646  -27.2861   20.0389 C   0  0  0  0  0  0  0  0  0  0  0  0
  -22.5141   -6.9220   24.0602 C   0  0  0  0  0  0  0  0  0  0  0  0
  -20.3691   -5.4477   23.0560 C   0  0  0  0  0  0  0  0  0  0  0  0
  -21.2632   -7.5217   23.9139 C   0  0  0  0  0  0  0  0  0  0  0  0
  -25.1582  -12.2074   21.7238 C   0  0  0  0  0  0  0  0  0  0  0  0
  -20.4609  -27.0375   21.9483 C   0  0  0  0  0  0  0  0  0  0  0  0
  -18.3488  -27.8681   22.2290 C   0  0  0  0  0  0  0  0  0  0  0  0
  -20.6541  -27.0680   23.3119 C   0  0  0  0  0  0  0  0  0  0  0  0
  -18.5417  -27.8979   23.5926 C   0  0  0  0  0  0  0  0  0  0  0  0
  -25.1889  -14.0947   20.5960 C   0  0  0  0  0  0  0  0  0  0  0  0
  -22.8955  -13.3228   21.2226 C   0  0  0  0  0  0  0  0  0  0  0  0
  -28.8248  -26.7143   18.8274 C   0  0  0  0  0  0  0  0  0  0  0  0
  -28.6976  -29.6091   17.3693 C   0  0  0  0  0  0  0  0  0  0  0  0
  -26.8465  -32.3493   16.5258 C   0  0  0  0  0  0  0  0  0  0  0  0
  -29.8883  -17.1038   20.6817 C   0  0  0  0  0  0  0  0  0  0  0  0
  -33.9044  -26.3043   19.1229 C   0  0  0  0  0  0  0  0  0  0  0  0
  -26.8083  -26.4400   17.3393 C   0  0  0  0  0  0  0  0  0  0  0  0
  -26.7339  -28.9935   18.8290 C   0  0  0  0  0  0  0  0  0  0  0  0
  -32.8796  -27.4012   19.4003 C   0  0  0  0  0  0  0  0  0  0  0  0
  -30.1371  -13.7154   19.6171 C   0  0  0  0  0  0  0  0  0  0  0  0
  -31.7411  -26.8628   20.2610 C   0  0  0  0  0  0  0  0  0  0  0  0
  -28.7983  -13.1025   20.0316 C   0  0  0  0  0  0  0  0  0  0  0  0
  -30.6285  -14.7402   20.6370 C   0  0  0  0  0  0  0  0  0  0  0  0
  -28.3212  -15.1911   21.3764 C   0  0  0  0  0  0  0  0  0  0  0  0
  -30.9952  -25.7310   19.5440 C   0  0  1  0  0  0  0  0  0  0  0  0
  -28.0764  -27.2355   17.6333 C   0  0  1  0  0  0  0  0  0  0  0  0
  -27.7575  -14.1924   20.3511 C   0  0  2  0  0  0  0  0  0  0  0  0
  -15.9628  -27.2660   21.7483 C   0  0  0  0  0  0  0  0  0  0  0  0
  -27.0273  -34.5683   15.3677 C   0  0  0  0  0  0  0  0  0  0  0  0
  -29.7906  -28.3229   23.7714 C   0  0  0  0  0  0  0  0  0  0  0  0
  -30.1427  -30.7568   19.7992 C   0  0  0  0  0  0  0  0  0  0  0  0
  -29.4551  -33.0419   19.0416 C   0  0  0  0  0  0  0  0  0  0  0  0
  -30.9345  -31.6442   17.5992 C   0  0  0  0  0  0  0  0  0  0  0  0
  -24.8316  -31.5854   14.4972 C   0  0  0  0  0  0  0  0  0  0  0  0
  -28.9757  -26.8845   26.2044 C   0  0  0  0  0  0  0  0  0  0  0  0
  -17.0682  -28.3094   21.6060 C   0  0  0  0  0  0  0  0  0  0  0  0
  -21.5211  -26.5593   21.0145 C   0  0  0  0  0  0  0  0  0  1  0  0
  -30.1409  -22.2940   23.1327 C   0  0  0  0  0  0  0  0  0  0  0  0
  -30.2990  -23.8045   22.9475 C   0  0  0  0  0  0  0  0  0  0  0  0
  -29.6259  -21.6297   21.8532 C   0  0  0  0  0  0  0  0  0  0  0  0
  -30.7258  -24.5331   24.2253 C   0  0  0  0  0  0  0  0  0  0  0  0
  -24.6739  -26.9179   24.8273 C   0  0  0  0  0  0  0  0  0  0  0  0
  -29.4962  -20.1137   22.0287 C   0  0  0  0  0  0  0  0  0  0  0  0
  -23.5798  -26.0987   25.5206 C   0  0  0  0  0  0  0  0  0  0  0  0
  -26.0595  -26.3172   25.0846 C   0  0  0  0  0  0  0  0  0  0  0  0
  -30.8569  -26.0578   24.1132 C   0  0  0  0  0  0  0  0  0  0  0  0
  -22.1794  -26.6331   25.2380 C   0  0  0  0  0  0  0  0  0  0  0  0
  -28.9973  -19.4186   20.7662 C   0  0  0  0  0  0  0  0  0  0  0  0
  -27.1957  -27.1335   24.4810 C   0  0  0  0  0  0  0  0  0  0  0  0
  -28.4928  -31.0313   17.8324 C   0  0  1  0  0  0  0  0  0  0  0  0
  -26.6899  -33.0936   15.2120 C   0  0  2  0  0  0  0  0  0  0  0  0
  -29.5657  -26.8160   23.7859 C   0  0  1  0  0  0  0  0  0  0  0  0
  -29.7368  -31.5984   18.5728 C   0  0  0  0  0  0  0  0  0  0  0  0
  -26.4533  -12.4378   21.4924 N   0  0  0  0  0  0  0  0  0  0  0  0
  -19.3048  -27.4371   21.3824 N   0  0  0  0  0  0  0  0  0  0  0  0
  -19.6979  -27.4986   24.1585 N   0  0  0  0  0  0  0  0  0  0  0  0
  -26.4396  -13.5923   20.8047 N   0  0  0  0  0  0  0  0  0  0  0  0
  -27.8091  -28.6535   17.8825 N   0  0  0  0  0  0  0  0  0  0  0  0
  -29.5955  -15.7465   20.8943 N   0  0  0  0  0  0  0  0  0  0  0  0
  -24.9939  -15.2482   19.9224 N   0  0  0  0  0  0  0  0  0  0  0  0
  -22.1596  -12.3226   21.8725 N   0  0  0  0  0  0  0  0  0  0  0  0
  -21.8697  -26.6441   23.8351 N   0  0  0  0  0  0  0  0  0  0  0  0
  -30.1017  -26.2703   18.5414 N   0  0  0  0  0  0  0  0  0  0  0  0
  -28.1019  -31.7929   16.6510 N   0  0  0  0  0  0  0  0  0  0  0  0
  -28.8514  -17.9910   20.9436 N   0  0  0  0  0  0  0  0  0  0  0  0
  -25.2886  -32.9818   14.7173 N   0  3  0  0  0  0  0  0  0  0  0  0
  -28.5298  -26.5161   24.8128 N   0  3  1  0  0  0  0  0  0  0  0  0
  -22.2884  -14.2762   20.6786 O   0  0  0  0  0  0  0  0  0  0  0  0
  -28.2843  -26.7162   19.9272 O   0  0  0  0  0  0  0  0  0  0  0  0
  -29.6077  -29.3566   16.5759 O   0  0  0  0  0  0  0  0  0  0  0  0
  -25.9466  -32.2727   17.3594 O   0  0  0  0  0  0  0  0  0  0  0  0
  -30.9902  -17.4954   20.2826 O   0  0  0  0  0  0  0  0  0  0  0  0
  -23.5800   -7.6527   24.5577 O   0  0  0  0  0  0  0  0  0  0  0  0
  -22.5284  -27.5560   20.8939 O   0  0  0  0  0  0  0  0  0  1  0  0
  -19.3397   -4.7401   22.5725 F   0  0  0  0  0  0  0  0  0  0  0  0
  -21.0861   -8.8061   24.2529 F   0  0  0  0  0  0  0  0  0  0  0  0
  -17.3535  -28.4398   24.7034 Cl  0  0  0  0  0  0  0  0  0  0  0  0
  1  2  1  0  0  0  0
  1  5  2  0  0  0  0
  2  6  2  0  0  0  0
  3  8  2  0  0  0  0
  3 15  1  0  0  0  0
  4  9  1  0  0  0  0
  4 15  2  0  0  0  0
  5 17  1  0  0  0  0
  6 19  1  0  0  0  0
  7 10  2  0  0  0  0
  7 18  1  0  0  0  0
  8 21  1  0  0  0  0
  9 21  2  0  0  0  0
 10 22  1  0  0  0  0
 11 12  2  0  0  0  0
 11 23  1  0  0  0  0
 12 24  1  0  0  0  0
 13 20  1  0  0  0  0
 13 22  2  0  0  0  0
 14 24  2  0  0  0  0
 14 25  1  0  0  0  0
 15 26  1  0  0  0  0
 16 26  1  0  0  0  0
 16 31  2  0  0  0  0
 16 32  1  0  0  0  0
 17 19  2  0  0  0  0
 17 37  1  0  0  0  0
 18 20  2  0  0  0  0
 18 38  1  0  0  0  0
 19 46  1  0  0  0  0
 20 39  1  0  0  0  0
 21 94  1  0  0  0  0
 22 95  1  0  0  0  0
 23 25  2  0  0  0  0
 23 94  1  0  0  0  0
 24 96  1  0  0  0  0
 25 97  1  0  0  0  0
 26 75  2  0  0  0  0
 27 29  1  0  0  0  0
 27 58  1  0  0  0  0
 27 76  2  0  0  0  0
 28 30  2  0  0  0  0
 28 57  1  0  0  0  0
 28 76  1  0  0  0  0
 29 77  2  0  0  0  0
 29 83  1  0  0  0  0
 30 77  1  0  0  0  0
 30 98  1  0  0  0  0
 31 78  1  0  0  0  0
 31 81  1  0  0  0  0
 32 82  1  0  0  0  0
 32 89  2  0  0  0  0
 33 47  1  0  0  0  0
 33 84  1  0  0  0  0
 33 90  2  0  0  0  0
 34 71  1  0  0  0  0
 34 79  1  0  0  0  0
 34 91  2  0  0  0  0
 35 72  1  0  0  0  0
 35 85  1  0  0  0  0
 35 92  2  0  0  0  0
 36 80  1  0  0  0  0
 36 86  1  0  0  0  0
 36 93  2  0  0  0  0
 37 40  1  0  0  0  0
 38 47  1  0  0  0  0
 39 79  1  0  0  0  0
 40 42  1  0  0  0  0
 41 43  1  0  0  0  0
 41 44  1  0  0  0  0
 42 46  1  0  0  0  0
 43 48  1  0  0  0  0
 44 80  1  0  0  0  0
 45 48  1  0  0  0  0
 45 80  1  0  0  0  0
 46 84  1  0  0  0  0
 47 79  1  0  0  0  0
 48 78  1  0  0  0  0
 49 57  1  0  0  0  0
 50 72  1  0  0  0  0
 51 73  1  0  0  0  0
 52 74  1  0  0  0  0
 53 74  1  0  0  0  0
 54 74  1  0  0  0  0
 55 87  1  0  0  0  0
 56 88  1  0  0  0  0
 58 95  1  0  0  0  0
 59 60  1  0  0  0  0
 59 61  1  0  0  0  0
 60 62  1  0  0  0  0
 61 64  1  0  0  0  0
 62 67  1  0  0  0  0
 63 65  1  0  0  0  0
 63 66  1  0  0  0  0
 64 69  1  0  0  0  0
 65 68  1  0  0  0  0
 66 70  1  0  0  0  0
 67 73  1  0  0  0  0
 68 83  1  0  0  0  0
 69 86  1  0  0  0  0
 70 88  1  0  0  0  0
 71 74  1  0  0  0  0
 71 85  1  0  0  0  0
 72 87  1  0  0  0  0
 73 88  1  0  0  0  0
 75 78  1  0  0  0  0
M  CHG  2  87   1  88   1
M  ISO  4  36 100  58 101  86 100  95 101
M  END
> <Batch ID>
0023

> <Smiles>
CCc1nc([101CH2:1][101O:1]c2ccc3c(c2)CN(C(=O)C(NC(=O)C(C)NC)C(C)(C)C)C(C(=O)NC2CCCc4ccccc42)C3)c(NCCCCCN(C)C(C)CCCCCCC[100NH:0][100C:0](=O)N2CCCC(n3nc(-c4ccc(Oc5ccc(F)cc5F)cc4)c(C(N)=O)c3N)C2)nc1Cl

> <Shape>
0.249

> <Color>
0.120

> <Negative vol penalty>
0.000

$$$$

  -OEChem-04052316193D

 84 92  0     1  0  0  0  0  0999 V2000
  -32.3422  -28.3969   14.6842 C   0  0  0  0  0  0  0  0  0  0  0  0
  -31.1996  -27.6095   14.7825 C   0  0  0  0  0  0  0  0  0  0  0  0
  -28.2540  -16.8403   21.5518 C   0  0  0  0  0  0  0  0  0  0  0  0
  -28.5449  -17.2469   19.1881 C   0  0  0  0  0  0  0  0  0  0  0  0
  -32.9425  -28.8995   15.8379 C   0  0  0  0  0  0  0  0  0  0  0  0
  -30.6571  -27.3233   16.0348 C   0  0  0  0  0  0  0  0  0  0  0  0
  -24.7257  -26.6820   17.4181 C   0  0  0  0  0  0  0  0  0  0  0  0
  -27.0944  -16.1129   21.2840 C   0  0  0  0  0  0  0  0  0  0  0  0
  -27.3853  -16.5194   18.9203 C   0  0  0  0  0  0  0  0  0  0  0  0
  -23.9154  -25.5584   17.5752 C   0  0  0  0  0  0  0  0  0  0  0  0
  -26.2940  -13.0136   20.1945 C   0  0  0  0  0  0  0  0  0  0  0  0
  -26.1248  -11.7971   20.8554 C   0  0  0  0  0  0  0  0  0  0  0  0
  -24.2755  -25.6395   19.9591 C   0  0  0  0  0  0  0  0  0  0  0  0
  -24.0868  -12.6240   21.8556 C   0  0  0  0  0  0  0  0  0  0  0  0
  -28.9792  -17.4074   20.5039 C   0  0  0  0  0  0  0  0  0  0  0  0
  -31.4926  -17.6647   20.8566 C   0  0  0  0  0  0  0  0  0  0  0  0
  -32.4015  -28.6273   17.1043 C   0  0  0  0  0  0  0  0  0  0  0  0
  -25.3269  -27.2872   18.5310 C   0  0  0  0  0  0  0  0  0  0  0  0
  -31.2514  -27.8216   17.2066 C   0  0  0  0  0  0  0  0  0  0  0  0
  -25.0910  -26.7722   19.8137 C   0  0  0  0  0  0  0  0  0  0  0  0
  -26.6601  -15.9524   19.9683 C   0  0  0  0  0  0  0  0  0  0  0  0
  -23.6925  -25.0353   18.8456 C   0  0  0  0  0  0  0  0  0  0  0  0
  -25.3597  -14.0354   20.3641 C   0  0  0  0  0  0  0  0  0  0  0  0
  -25.0212  -11.6022   21.6860 C   0  0  0  0  0  0  0  0  0  0  0  0
  -24.2561  -13.8406   21.1946 C   0  0  0  0  0  0  0  0  0  0  0  0
  -30.1769  -18.1594   20.7800 C   0  0  0  0  0  0  0  0  0  0  0  0
  -32.2587  -18.7689   21.1400 C   0  0  0  0  0  0  0  0  0  0  0  0
  -31.9789  -16.3266   20.6867 C   0  0  0  0  0  0  0  0  0  0  0  0
  -28.3232  -27.7999   19.4600 C   0  0  0  0  0  0  0  0  0  0  0  0
  -24.9185  -20.6067   18.6379 C   0  0  0  0  0  0  0  0  0  0  0  0
  -26.8874  -29.4743   21.8385 C   0  0  0  0  0  0  0  0  0  0  0  0
  -24.1023  -29.9975   23.7402 C   0  0  0  0  0  0  0  0  0  0  0  0
  -28.3013  -22.6103   20.9328 C   0  0  0  0  0  0  0  0  0  0  0  0
  -33.1126  -29.1536   18.3258 C   0  0  0  0  0  0  0  0  0  0  0  0
  -26.1767  -28.5146   18.3475 C   0  0  0  0  0  0  0  0  0  0  0  0
  -25.6967  -27.3971   21.0429 C   0  0  0  0  0  0  0  0  0  0  0  0
  -32.2598  -29.1144   19.5913 C   0  0  0  0  0  0  0  0  0  0  0  0
  -30.4587  -21.7768   23.6564 C   0  0  0  0  0  0  0  0  0  0  0  0
  -28.4092  -23.1424   17.3474 C   0  0  0  0  0  0  0  0  0  0  0  0
  -31.5652  -27.7630   19.7253 C   0  0  0  0  0  0  0  0  0  0  0  0
  -31.8215  -21.5372   23.0162 C   0  0  0  0  0  0  0  0  0  0  0  0
  -27.1819  -22.2446   17.4180 C   0  0  0  0  0  0  0  0  0  0  0  0
  -29.7167  -22.8917   22.9358 C   0  0  0  0  0  0  0  0  0  0  0  0
  -29.2151  -22.6994   18.5587 C   0  0  0  0  0  0  0  0  0  0  0  0
  -30.8277  -22.3104   20.7878 C   0  0  0  0  0  0  0  0  0  0  0  0
  -30.6189  -27.5096   18.5455 C   0  0  1  0  0  0  0  0  0  0  0  0
  -27.1536  -28.7424   19.4969 C   0  0  1  0  0  0  0  0  0  0  0  0
  -31.7247  -21.2750   21.5047 C   0  0  2  0  0  0  0  0  0  0  0  0
  -26.9000  -22.1522   18.9202 C   0  0  1  0  0  0  0  0  0  0  0  0
  -23.2435  -31.4086   25.6292 C   0  0  0  0  0  0  0  0  0  0  0  0
  -22.3799  -18.9216   19.6831 C   0  0  0  0  0  0  0  0  0  0  0  0
  -22.3308  -20.5674   21.5709 C   0  0  0  0  0  0  0  0  0  0  0  0
  -28.4911  -27.7955   23.8184 C   0  0  0  0  0  0  0  0  0  0  0  0
  -26.9312  -28.5586   25.6219 C   0  0  0  0  0  0  0  0  0  0  0  0
  -28.3303  -30.2228   24.3990 C   0  0  0  0  0  0  0  0  0  0  0  0
  -21.9673  -31.1617   22.0534 C   0  0  0  0  0  0  0  0  0  0  0  0
  -26.2691  -20.8187   19.2998 C   0  0  0  0  0  0  0  0  0  0  0  0
  -22.6084  -21.5933   18.4565 C   0  0  0  0  0  0  0  0  0  0  0  0
  -22.8656  -23.0034   17.9270 C   0  0  0  0  0  0  0  0  0  1  0  0
  -23.6986  -21.0931   19.4278 C   0  0  1  0  0  0  0  0  0  0  0  0
  -26.3724  -29.1436   23.2185 C   0  0  1  0  0  0  0  0  0  0  0  0
  -23.3663  -31.2697   24.1198 C   0  0  2  0  0  0  0  0  0  0  0  0
  -23.1655  -20.0172   20.4111 C   0  0  0  0  0  0  0  0  0  0  0  0
  -27.5212  -28.9170   24.2413 C   0  0  0  0  0  0  0  0  0  0  0  0
  -30.1074  -19.4755   20.9973 N   0  0  0  0  0  0  0  0  0  0  0  0
  -31.3891  -19.8170   21.2133 N   0  0  0  0  0  0  0  0  0  0  0  0
  -26.5252  -28.5918   20.8110 N   0  0  0  0  0  0  0  0  0  0  0  0
  -29.5826  -22.6234   21.5038 N   0  0  0  0  0  0  0  0  0  0  0  0
  -28.2034  -22.3627   19.5617 N   0  0  0  0  0  0  0  0  0  0  0  0
  -33.5846  -18.9359   21.3311 N   0  0  0  0  0  0  0  0  0  0  0  0
  -31.0559  -15.3118   20.3993 N   0  0  0  0  0  0  0  0  0  0  0  0
  -29.3914  -28.2578   18.7125 N   0  0  0  0  0  0  0  0  0  0  0  0
  -25.4540  -30.2180   23.5798 N   0  0  0  0  0  0  0  0  0  0  0  0
  -21.9956  -31.2693   23.5348 N   0  3  0  0  0  0  0  0  0  0  0  0
  -33.1938  -16.0367   20.8031 O   0  0  0  0  0  0  0  0  0  0  0  0
  -28.2617  -26.7366   20.0662 O   0  0  0  0  0  0  0  0  0  0  0  0
  -24.8061  -20.0928   17.5252 O   0  0  0  0  0  0  0  0  0  0  0  0
  -27.5795  -30.4825   21.6769 O   0  0  0  0  0  0  0  0  0  0  0  0
  -23.5356  -28.9156   23.6035 O   0  0  0  0  0  0  0  0  0  0  0  0
  -27.2899  -22.8206   21.6154 O   0  0  0  0  0  0  0  0  0  0  0  0
  -25.5287  -15.2424   19.7065 O   0  0  0  0  0  0  0  0  0  0  0  0
  -22.8965  -23.9299   19.0029 O   0  0  0  0  0  0  0  0  0  1  0  0
  -24.8580  -10.4334   22.3195 F   0  0  0  0  0  0  0  0  0  0  0  0
  -23.3546  -14.8181   21.3605 F   0  0  0  0  0  0  0  0  0  0  0  0
  1  2  1  0  0  0  0
  1  5  2  0  0  0  0
  2  6  2  0  0  0  0
  3  8  2  0  0  0  0
  3 15  1  0  0  0  0
  4  9  1  0  0  0  0
  4 15  2  0  0  0  0
  5 17  1  0  0  0  0
  6 19  1  0  0  0  0
  7 10  2  0  0  0  0
  7 18  1  0  0  0  0
  8 21  1  0  0  0  0
  9 21  2  0  0  0  0
 10 22  1  0  0  0  0
 11 12  2  0  0  0  0
 11 23  1  0  0  0  0
 12 24  1  0  0  0  0
 13 20  1  0  0  0  0
 13 22  2  0  0  0  0
 14 24  2  0  0  0  0
 14 25  1  0  0  0  0
 15 26  1  0  0  0  0
 16 26  1  0  0  0  0
 16 27  2  0  0  0  0
 16 28  1  0  0  0  0
 17 19  2  0  0  0  0
 17 34  1  0  0  0  0
 18 20  2  0  0  0  0
 18 35  1  0  0  0  0
 19 46  1  0  0  0  0
 20 36  1  0  0  0  0
 21 81  1  0  0  0  0
 22 82  1  0  0  0  0
 23 25  2  0  0  0  0
 23 81  1  0  0  0  0
 24 83  1  0  0  0  0
 25 84  1  0  0  0  0
 26 65  2  0  0  0  0
 27 66  1  0  0  0  0
 27 70  1  0  0  0  0
 28 71  1  0  0  0  0
 28 75  2  0  0  0  0
 29 47  1  0  0  0  0
 29 72  1  0  0  0  0
 29 76  2  0  0  0  0
 30 57  1  0  0  0  0
 30 60  1  0  0  0  0
 30 77  2  0  0  0  0
 31 61  1  0  0  0  0
 31 67  1  0  0  0  0
 31 78  2  0  0  0  0
 32 62  1  0  0  0  0
 32 73  1  0  0  0  0
 32 79  2  0  0  0  0
 33 68  1  0  0  0  0
 33 69  1  0  0  0  0
 33 80  2  0  0  0  0
 34 37  1  0  0  0  0
 35 47  1  0  0  0  0
 36 67  1  0  0  0  0
 37 40  1  0  0  0  0
 38 41  1  0  0  0  0
 38 43  1  0  0  0  0
 39 42  1  0  0  0  0
 39 44  1  0  0  0  0
 40 46  1  0  0  0  0
 41 48  1  0  0  0  0
 42 49  1  0  0  0  0
 43 68  1  0  0  0  0
 44 69  1  0  0  0  0
 45 48  1  0  0  0  0
 45 68  1  0  0  0  0
 46 72  1  0  0  0  0
 47 67  1  0  0  0  0
 48 66  1  0  0  0  0
 49 57  1  0  0  0  0
 49 69  1  0  0  0  0
 50 62  1  0  0  0  0
 51 63  1  0  0  0  0
 52 63  1  0  0  0  0
 53 64  1  0  0  0  0
 54 64  1  0  0  0  0
 55 64  1  0  0  0  0
 56 74  1  0  0  0  0
 58 59  1  0  0  0  0
 58 60  1  0  0  0  0
 59 82  1  0  0  0  0
 60 63  1  0  0  0  0
 61 64  1  0  0  0  0
 61 73  1  0  0  0  0
 62 74  1  0  0  0  0
 65 66  1  0  0  0  0
M  CHG  1  74   1
M  ISO  4  33 100  59 101  69 100  82 101
M  END
> <Batch ID>
0023

> <Smiles>
CNC(C)C(=O)NC(C(=O)N1Cc2cc([101O:1][101CH2:1]CC(C(=O)CC3CCC[100N:0]3[100C:0](=O)N3CCCC(n4nc(-c5ccc(Oc6ccc(F)cc6F)cc5)c(C(N)=O)c4N)C3)C(C)C)ccc2CC1C(=O)NC1CCCc2ccccc21)C(C)(C)C

> <Shape>
0.202

> <Color>
0.081

> <Negative vol penalty>
0.000

$$$$

  -OEChem-04052316193D

104113  0     1  0  0  0  0  0999 V2000
  -25.6911  -38.6156   22.6751 C   0  0  0  0  0  0  0  0  0  0  0  0
  -26.4142  -37.7513   21.8593 C   0  0  0  0  0  0  0  0  0  0  0  0
  -23.1250  -14.0190   20.6108 C   0  0  0  0  0  0  0  0  0  0  0  0
  -25.0350  -14.4573   22.0238 C   0  0  0  0  0  0  0  0  0  0  0  0
  -25.0345  -38.1228   23.8020 C   0  0  0  0  0  0  0  0  0  0  0  0
  -26.4820  -36.3938   22.1706 C   0  0  0  0  0  0  0  0  0  0  0  0
  -26.9063  -29.9631   19.0428 C   0  0  0  0  0  0  0  0  0  0  0  0
  -22.9461  -12.7847   21.2354 C   0  0  0  0  0  0  0  0  0  0  0  0
  -24.8561  -13.2230   22.6485 C   0  0  0  0  0  0  0  0  0  0  0  0
  -27.6710  -28.7978   19.0757 C   0  0  0  0  0  0  0  0  0  0  0  0
  -22.2046   -9.3617   22.2134 C   0  0  0  0  0  0  0  0  0  0  0  0
  -21.9528   -8.2540   21.4040 C   0  0  0  0  0  0  0  0  0  0  0  0
  -26.4313  -28.0459   21.0036 C   0  0  0  0  0  0  0  0  0  0  0  0
  -33.1344  -20.9249   21.6844 C   0  0  0  0  0  0  0  0  0  0  0  0
  -31.5839  -21.7375   23.8565 C   0  0  0  0  0  0  0  0  0  0  0  0
  -24.0683   -8.5897   20.2863 C   0  0  0  0  0  0  0  0  0  0  0  0
  -24.1695  -14.8553   21.0050 C   0  0  0  0  0  0  0  0  0  0  0  0
  -23.7927  -17.3641   20.7376 C   0  0  0  0  0  0  0  0  0  0  0  0
  -25.0863  -36.7570   24.1219 C   0  0  0  0  0  0  0  0  0  0  0  0
  -25.9040  -30.1839   19.9984 C   0  0  0  0  0  0  0  0  0  0  0  0
  -25.8266  -35.8825   23.3037 C   0  0  0  0  0  0  0  0  0  0  0  0
  -25.6536  -29.2137   20.9792 C   0  0  0  0  0  0  0  0  0  0  0  0
  -32.2606  -22.0040   21.5526 C   0  0  0  0  0  0  0  0  0  0  0  0
  -32.4577  -20.6583   23.9883 C   0  0  0  0  0  0  0  0  0  0  0  0
  -33.2330  -20.2520   22.9023 C   0  0  0  0  0  0  0  0  0  0  0  0
  -31.4853  -22.4104   22.6386 C   0  0  0  0  0  0  0  0  0  0  0  0
  -23.8116  -12.3867   22.2542 C   0  0  0  0  0  0  0  0  0  0  0  0
  -27.4355  -27.8403   20.0579 C   0  0  0  0  0  0  0  0  0  0  0  0
  -23.3883  -10.0835   22.0592 C   0  0  0  0  0  0  0  0  0  0  0  0
  -22.8846   -7.8679   20.4405 C   0  0  0  0  0  0  0  0  0  0  0  0
  -24.3201   -9.6974   21.0958 C   0  0  0  0  0  0  0  0  0  0  0  0
  -24.3552  -16.1301   20.3597 C   0  0  0  0  0  0  0  0  0  0  0  0
  -24.2732  -18.2582   19.8123 C   0  0  0  0  0  0  0  0  0  0  0  0
  -22.9146  -17.6744   21.8277 C   0  0  0  0  0  0  0  0  0  0  0  0
  -25.3956  -32.3664   22.2527 C   0  0  0  0  0  0  0  0  0  0  0  0
  -22.5654  -30.8136   22.5704 C   0  0  0  0  0  0  0  0  0  0  0  0
  -21.4293  -27.3893   22.5988 C   0  0  0  0  0  0  0  0  0  0  0  0
  -28.6752  -17.3522   19.6845 C   0  0  0  0  0  0  0  0  0  0  0  0
  -24.3996  -36.2787   25.3767 C   0  0  0  0  0  0  0  0  0  0  0  0
  -25.0700  -31.4340   19.9331 C   0  0  0  0  0  0  0  0  0  0  0  0
  -24.5757  -29.3936   22.0156 C   0  0  0  0  0  0  0  0  0  0  0  0
  -24.2109  -34.7648   25.4285 C   0  0  0  0  0  0  0  0  0  0  0  0
  -29.4965  -14.5048   23.5365 C   0  0  0  0  0  0  0  0  0  0  0  0
  -29.4725  -13.7170   22.2321 C   0  0  0  0  0  0  0  0  0  0  0  0
  -27.1487  -16.0596   16.7715 C   0  0  0  0  0  0  0  0  0  0  0  0
  -25.5003  -34.0523   25.0328 C   0  0  0  0  0  0  0  0  0  0  0  0
  -30.4940  -15.6579   23.4754 C   0  0  0  0  0  0  0  0  0  0  0  0
  -26.0229  -17.0787   16.5724 C   0  0  0  0  0  0  0  0  0  0  0  0
  -29.1948  -14.6245   21.0371 C   0  0  0  0  0  0  0  0  0  0  0  0
  -28.4517  -16.7043   17.2381 C   0  0  0  0  0  0  0  0  0  0  0  0
  -27.2137  -18.6335   18.1486 C   0  0  0  0  0  0  0  0  0  0  0  0
  -25.9033  -34.3993   23.5945 C   0  0  1  0  0  0  0  0  0  0  0  0
  -24.4199  -31.7888   21.2668 C   0  0  1  0  0  0  0  0  0  0  0  0
  -30.2250  -16.5886   22.2808 C   0  0  2  0  0  0  0  0  0  0  0  0
  -25.8396  -18.0487   17.7611 C   0  0  2  0  0  0  0  0  0  0  0  0
  -30.1934  -15.7850   20.9637 C   0  0  2  0  0  0  0  0  0  0  0  0
  -32.1725  -22.7095   20.2392 C   0  0  0  0  0  0  0  0  0  0  0  0
  -32.5457  -19.9527   25.3017 C   0  0  0  0  0  0  0  0  0  0  0  0
  -29.5552  -19.4707   22.9686 C   0  0  0  0  0  0  0  0  0  0  0  0
  -19.2028  -26.4040   21.9912 C   0  0  0  0  0  0  0  0  0  0  0  0
  -32.0945  -17.1374   18.9125 C   0  0  0  0  0  0  0  0  0  0  0  0
  -30.8983  -15.0080   18.3138 C   0  0  0  0  0  0  0  0  0  0  0  0
  -21.9660  -31.0649   25.5516 C   0  0  0  0  0  0  0  0  0  0  0  0
  -20.7615  -28.8738   25.4231 C   0  0  0  0  0  0  0  0  0  0  0  0
  -19.9454  -30.8233   24.0979 C   0  0  0  0  0  0  0  0  0  0  0  0
  -36.2925  -17.9173   21.1699 C   0  0  0  0  0  0  0  0  0  0  0  0
  -35.6870  -16.3203   22.9960 C   0  0  0  0  0  0  0  0  0  0  0  0
  -34.8573  -15.9633   20.6634 C   0  0  0  0  0  0  0  0  0  0  0  0
  -22.6530  -25.5357   20.6428 C   0  0  0  0  0  0  0  0  0  0  0  0
  -31.6801  -25.3064   23.8887 C   0  0  0  0  0  0  0  0  0  0  0  0
  -34.1870  -19.0840   23.0210 C   0  0  0  0  0  0  0  0  0  0  0  0
  -30.5433  -23.5633   22.5213 C   0  0  0  0  0  0  0  0  0  0  0  0
  -30.9149  -18.8377   23.2330 C   0  0  0  0  0  0  0  0  0  0  0  0
  -30.3788  -25.7659   20.3450 C   0  0  0  0  0  0  0  0  0  0  0  0
  -32.6630  -17.0966   22.5747 C   0  0  0  0  0  0  0  0  0  0  0  0
  -30.4006  -25.9581   21.8540 C   0  0  0  0  0  0  0  0  0  0  0  0
  -29.5200  -26.7870   19.6092 C   0  0  0  0  0  0  0  0  0  1  0  0
  -22.0713  -29.6495   23.3948 C   0  0  1  0  0  0  0  0  0  0  0  0
  -20.6200  -26.6913   21.5206 C   0  0  2  0  0  0  0  0  0  0  0  0
  -31.2745  -17.7034   22.2502 C   0  0  1  0  0  0  0  0  0  0  0  0
  -33.8770  -17.9177   22.0365 C   0  0  2  0  0  0  0  0  0  0  0  0
  -30.7418  -16.4827   18.6619 C   0  0  0  0  0  0  0  0  0  0  0  0
  -21.2133  -30.1049   24.6088 C   0  0  0  0  0  0  0  0  0  0  0  0
  -35.1559  -17.0326   21.7361 C   0  0  0  0  0  0  0  0  0  0  0  0
  -25.1333  -16.2277   19.2785 N   0  0  0  0  0  0  0  0  0  0  0  0
  -25.0632  -17.5336   18.9691 N   0  0  0  0  0  0  0  0  0  0  0  0
  -23.7914  -30.6353   21.9138 N   0  0  0  0  0  0  0  0  0  0  0  0
  -28.2131  -17.5904   18.3821 N   0  0  0  0  0  0  0  0  0  0  0  0
  -24.0927  -19.5856   19.6458 N   0  0  0  0  0  0  0  0  0  0  0  0
  -22.5189  -16.6370   22.6830 N   0  0  0  0  0  0  0  0  0  0  0  0
  -25.0970  -33.6557   22.6503 N   0  0  0  0  0  0  0  0  0  0  0  0
  -21.3749  -28.7611   22.4706 N   0  0  0  0  0  0  0  0  0  0  0  0
  -29.8755  -16.6397   19.8216 N   0  0  0  0  0  0  0  0  0  0  0  0
  -21.2618  -25.3996   21.1459 N   0  3  0  0  0  0  0  0  0  0  0  0
  -31.2278  -24.8847   22.5140 N   0  3  1  0  0  0  0  0  0  0  0  0
  -22.4802  -18.8341   22.0273 O   0  0  0  0  0  0  0  0  0  0  0  0
  -26.3480  -31.6918   22.6261 O   0  0  0  0  0  0  0  0  0  0  0  0
  -21.8851  -31.8405   22.5053 O   0  0  0  0  0  0  0  0  0  0  0  0
  -22.0448  -26.7787   23.4699 O   0  0  0  0  0  0  0  0  0  0  0  0
  -28.0545  -17.7591   20.6752 O   0  0  0  0  0  0  0  0  0  0  0  0
  -23.6372  -11.1825   22.8641 O   0  0  0  0  0  0  0  0  0  0  0  0
  -28.1860  -26.6943   20.0929 O   0  0  0  0  0  0  0  0  0  1  0  0
  -22.6433   -6.8033   19.6643 F   0  0  0  0  0  0  0  0  0  0  0  0
  -25.4596  -10.3862   20.9438 F   0  0  0  0  0  0  0  0  0  0  0  0
  1  2  1  0  0  0  0
  1  5  2  0  0  0  0
  2  6  2  0  0  0  0
  3  8  2  0  0  0  0
  3 17  1  0  0  0  0
  4  9  1  0  0  0  0
  4 17  2  0  0  0  0
  5 19  1  0  0  0  0
  6 21  1  0  0  0  0
  7 10  2  0  0  0  0
  7 20  1  0  0  0  0
  8 27  1  0  0  0  0
  9 27  2  0  0  0  0
 10 28  1  0  0  0  0
 11 12  2  0  0  0  0
 11 29  1  0  0  0  0
 12 30  1  0  0  0  0
 13 22  1  0  0  0  0
 13 28  2  0  0  0  0
 14 23  2  0  0  0  0
 14 25  1  0  0  0  0
 15 24  1  0  0  0  0
 15 26  2  0  0  0  0
 16 30  2  0  0  0  0
 16 31  1  0  0  0  0
 17 32  1  0  0  0  0
 18 32  1  0  0  0  0
 18 33  2  0  0  0  0
 18 34  1  0  0  0  0
 19 21  2  0  0  0  0
 19 39  1  0  0  0  0
 20 22  2  0  0  0  0
 20 40  1  0  0  0  0
 21 52  1  0  0  0  0
 22 41  1  0  0  0  0
 23 26  1  0  0  0  0
 23 57  1  0  0  0  0
 24 25  2  0  0  0  0
 24 58  1  0  0  0  0
 25 71  1  0  0  0  0
 26 72  1  0  0  0  0
 27101  1  0  0  0  0
 28102  1  0  0  0  0
 29 31  2  0  0  0  0
 29101  1  0  0  0  0
 30103  1  0  0  0  0
 31104  1  0  0  0  0
 32 85  2  0  0  0  0
 33 86  1  0  0  0  0
 33 89  1  0  0  0  0
 34 90  1  0  0  0  0
 34 96  2  0  0  0  0
 35 53  1  0  0  0  0
 35 91  1  0  0  0  0
 35 97  2  0  0  0  0
 36 78  1  0  0  0  0
 36 87  1  0  0  0  0
 36 98  2  0  0  0  0
 37 79  1  0  0  0  0
 37 92  1  0  0  0  0
 37 99  2  0  0  0  0
 38 88  1  0  0  0  0
 38 93  1  0  0  0  0
 38100  2  0  0  0  0
 39 42  1  0  0  0  0
 40 53  1  0  0  0  0
 41 87  1  0  0  0  0
 42 46  1  0  0  0  0
 43 44  1  0  0  0  0
 43 47  1  0  0  0  0
 44 49  1  0  0  0  0
 45 48  1  0  0  0  0
 45 50  1  0  0  0  0
 46 52  1  0  0  0  0
 47 54  1  0  0  0  0
 48 55  1  0  0  0  0
 49 56  1  0  0  0  0
 50 88  1  0  0  0  0
 51 55  1  0  0  0  0
 51 88  1  0  0  0  0
 52 91  1  0  0  0  0
 53 87  1  0  0  0  0
 54 56  1  0  0  0  0
 54 80  1  0  0  0  0
 55 86  1  0  0  0  0
 56 93  1  0  0  0  0
 59 73  1  0  0  0  0
 60 79  1  0  0  0  0
 61 82  1  0  0  0  0
 62 82  1  0  0  0  0
 63 83  1  0  0  0  0
 64 83  1  0  0  0  0
 65 83  1  0  0  0  0
 66 84  1  0  0  0  0
 67 84  1  0  0  0  0
 68 84  1  0  0  0  0
 69 94  1  0  0  0  0
 70 95  1  0  0  0  0
 71 81  1  0  0  0  0
 72 95  1  0  0  0  0
 73 80  1  0  0  0  0
 74 76  1  0  0  0  0
 74 77  1  0  0  0  0
 75 80  1  0  0  0  0
 75 81  1  0  0  0  0
 76 95  1  0  0  0  0
 77102  1  0  0  0  0
 78 83  1  0  0  0  0
 78 92  1  0  0  0  0
 79 94  1  0  0  0  0
 81 84  1  0  0  0  0
 82 93  1  0  0  0  0
 85 86  1  0  0  0  0
M  CHG  2  94   1  95   1
M  ISO  4  38 100  77 101  93 100 102 101
M  END
> <Batch ID>
0023

> <Smiles>
CCC(CC(Cc1cc(C)c(CN(C)CC[101CH2:1][101O:1]c2ccc3c(c2)CN(C(=O)C(NC(=O)C(C)NC)C(C)(C)C)C(C(=O)NC2CCCc4ccccc42)C3)cc1C)C(C)(C)C)C1CCCCC1[100N:0](C(C)C)[100C:0](=O)N1CCCC(n2nc(-c3ccc(Oc4ccc(F)cc4F)cc3)c(C(N)=O)c2N)C1

> <Shape>
0.279

> <Color>
0.069

> <Negative vol penalty>
0.000

$$$$

  -OEChem-04052316193D

 84 92  0     1  0  0  0  0  0999 V2000
  -30.4117  -23.7960   17.3003 C   0  0  0  0  0  0  0  0  0  0  0  0
  -29.0632  -24.0567   17.5215 C   0  0  0  0  0  0  0  0  0  0  0  0
  -28.1426  -14.7578   21.1937 C   0  0  0  0  0  0  0  0  0  0  0  0
  -26.0260  -15.4728   20.2740 C   0  0  0  0  0  0  0  0  0  0  0  0
  -31.3441  -24.0528   18.3046 C   0  0  0  0  0  0  0  0  0  0  0  0
  -28.6461  -24.5735   18.7477 C   0  0  0  0  0  0  0  0  0  0  0  0
  -25.3219  -28.3586   18.2310 C   0  0  0  0  0  0  0  0  0  0  0  0
  -20.7350  -22.2622   20.5396 C   0  0  0  0  0  0  0  0  0  0  0  0
  -27.7173  -13.4304   21.1406 C   0  0  0  0  0  0  0  0  0  0  0  0
  -25.6007  -14.1454   20.2208 C   0  0  0  0  0  0  0  0  0  0  0  0
  -24.0038  -28.0127   17.9366 C   0  0  0  0  0  0  0  0  0  0  0  0
  -24.3956  -11.8276   22.3672 C   0  0  0  0  0  0  0  0  0  0  0  0
  -23.1072  -11.5413   22.8185 C   0  0  0  0  0  0  0  0  0  0  0  0
  -20.7611  -21.4556   21.6773 C   0  0  0  0  0  0  0  0  0  0  0  0
  -23.4150  -28.3053   20.2576 C   0  0  0  0  0  0  0  0  0  0  0  0
  -22.5306  -10.6895   20.6324 C   0  0  0  0  0  0  0  0  0  0  0  0
  -27.2969  -15.7790   20.7604 C   0  0  0  0  0  0  0  0  0  0  0  0
  -28.4136  -17.8671   19.8114 C   0  0  0  0  0  0  0  0  0  0  0  0
  -30.9394  -24.5820   19.5403 C   0  0  0  0  0  0  0  0  0  0  0  0
  -25.6994  -28.6704   19.5450 C   0  0  0  0  0  0  0  0  0  0  0  0
  -29.5738  -24.8364   19.7699 C   0  0  0  0  0  0  0  0  0  0  0  0
  -24.7379  -28.6574   20.5656 C   0  0  0  0  0  0  0  0  0  0  0  0
  -21.6240  -23.3306   20.4216 C   0  0  0  0  0  0  0  0  0  0  0  0
  -22.5652  -22.7857   22.5790 C   0  0  0  0  0  0  0  0  0  0  0  0
  -26.4464  -13.1242   20.6542 C   0  0  0  0  0  0  0  0  0  0  0  0
  -23.0507  -27.9832   18.9504 C   0  0  0  0  0  0  0  0  0  0  0  0
  -24.7515  -11.5449   21.0484 C   0  0  0  0  0  0  0  0  0  0  0  0
  -22.1748  -10.9722   21.9512 C   0  0  0  0  0  0  0  0  0  0  0  0
  -23.8190  -10.9759   20.1810 C   0  0  0  0  0  0  0  0  0  0  0  0
  -21.6762  -21.7173   22.6969 C   0  0  0  0  0  0  0  0  0  0  0  0
  -22.5391  -23.5923   21.4413 C   0  0  0  0  0  0  0  0  0  0  0  0
  -27.7354  -17.1504   20.8156 C   0  0  0  0  0  0  0  0  0  0  0  0
  -28.6013  -19.1170   20.3490 C   0  0  0  0  0  0  0  0  0  0  0  0
  -28.8360  -17.4411   18.5092 C   0  0  0  0  0  0  0  0  0  0  0  0
  -27.7245  -27.4221   21.6532 C   0  0  0  0  0  0  0  0  0  0  0  0
  -26.9107  -30.0341   23.3961 C   0  0  0  0  0  0  0  0  0  0  0  0
  -24.6287  -32.4867   24.0473 C   0  0  0  0  0  0  0  0  0  0  0  0
  -25.7015  -22.2169   24.5719 C   0  0  0  0  0  0  0  0  0  0  0  0
  -31.9780  -24.7988   20.6123 C   0  0  0  0  0  0  0  0  0  0  0  0
  -27.1196  -29.0676   19.8414 C   0  0  0  0  0  0  0  0  0  0  0  0
  -25.0877  -29.0035   21.9890 C   0  0  0  0  0  0  0  0  0  0  0  0
  -31.5006  -25.6977   21.7499 C   0  0  0  0  0  0  0  0  0  0  0  0
  -29.1530  -21.3431   24.5479 C   0  0  0  0  0  0  0  0  0  0  0  0
  -30.1081  -25.2801   22.2119 C   0  0  0  0  0  0  0  0  0  0  0  0
  -29.2422  -20.2341   23.4980 C   0  0  0  0  0  0  0  0  0  0  0  0
  -27.8528  -21.2624   25.3448 C   0  0  0  0  0  0  0  0  0  0  0  0
  -26.7151  -20.1263   23.4771 C   0  0  0  0  0  0  0  0  0  0  0  0
  -29.0855  -25.4202   21.0779 C   0  0  1  0  0  0  0  0  0  0  0  0
  -27.5032  -28.8668   21.3043 C   0  0  1  0  0  0  0  0  0  0  0  0
  -27.9837  -20.1999   22.6102 C   0  0  2  0  0  0  0  0  0  0  0  0
  -24.2258  -34.4530   25.5534 C   0  0  0  0  0  0  0  0  0  0  0  0
  -26.2167  -28.1372   25.6830 C   0  0  0  0  0  0  0  0  0  0  0  0
  -24.9594  -30.0127   26.7645 C   0  0  0  0  0  0  0  0  0  0  0  0
  -27.4157  -30.2179   26.3810 C   0  0  0  0  0  0  0  0  0  0  0  0
  -24.5273  -34.3641   21.7617 C   0  0  0  0  0  0  0  0  0  0  0  0
  -21.5583  -24.1747   19.1737 C   0  0  0  0  0  0  0  0  0  0  0  0
  -23.5466  -23.0625   23.6773 C   0  0  0  0  0  0  0  0  0  0  0  0
  -20.3781  -25.1523   19.1490 C   0  0  0  0  0  0  0  0  0  0  0  0
  -20.2839  -25.9440   17.8439 C   0  0  0  0  0  0  0  0  0  0  0  0
  -21.5538  -26.7420   17.5812 C   0  0  0  0  0  0  0  0  0  1  0  0
  -25.8380  -30.3512   24.4099 C   0  0  1  0  0  0  0  0  0  0  0  0
  -24.7835  -33.9872   24.2175 C   0  0  2  0  0  0  0  0  0  0  0  0
  -26.1010  -29.6713   25.7832 C   0  0  0  0  0  0  0  0  0  0  0  0
  -27.5078  -17.8840   21.9083 N   0  0  0  0  0  0  0  0  0  0  0  0
  -28.0460  -19.0746   21.5940 N   0  0  0  0  0  0  0  0  0  0  0  0
  -26.4907  -29.3793   22.2297 N   0  0  0  0  0  0  0  0  0  0  0  0
  -26.6978  -21.2350   24.4442 N   0  0  0  0  0  0  0  0  0  0  0  0
  -29.1855  -20.2372   19.8734 N   0  0  0  0  0  0  0  0  0  0  0  0
  -28.5628  -16.1239   18.1159 N   0  0  0  0  0  0  0  0  0  0  0  0
  -28.7098  -26.8071   20.9046 N   0  0  0  0  0  0  0  0  0  0  0  0
  -25.7508  -31.8062   24.4704 N   0  0  0  0  0  0  0  0  0  0  0  0
  -24.6447  -22.1218   23.6748 N   0  0  0  0  0  0  0  0  0  0  0  0
  -24.0636  -34.7088   23.1303 N   0  3  0  0  0  0  0  0  0  0  0  0
  -29.4524  -18.2009   17.7242 O   0  0  0  0  0  0  0  0  0  0  0  0
  -27.0522  -26.9043   22.5372 O   0  0  0  0  0  0  0  0  0  0  0  0
  -28.0772  -30.3620   23.6273 O   0  0  0  0  0  0  0  0  0  0  0  0
  -23.6124  -31.9697   23.5885 O   0  0  0  0  0  0  0  0  0  0  0  0
  -25.7529  -23.1152   25.4190 O   0  0  0  0  0  0  0  0  0  0  0  0
  -26.0312  -11.8291   20.6020 O   0  0  0  0  0  0  0  0  0  0  0  0
  -21.7636  -27.6452   18.6660 O   0  0  0  0  0  0  0  0  0  1  0  0
  -20.9381  -10.6959   22.3852 F   0  0  0  0  0  0  0  0  0  0  0  0
  -24.1554  -10.7009   18.9133 F   0  0  0  0  0  0  0  0  0  0  0  0
  -21.6732  -20.6930   24.0874 Cl  0  0  0  0  0  0  0  0  0  0  0  0
  -23.6406  -24.9211   21.2884 Cl  0  0  0  0  0  0  0  0  0  0  0  0
  1  2  1  0  0  0  0
  1  5  2  0  0  0  0
  2  6  2  0  0  0  0
  3  9  2  0  0  0  0
  3 17  1  0  0  0  0
  4 10  1  0  0  0  0
  4 17  2  0  0  0  0
  5 19  1  0  0  0  0
  6 21  1  0  0  0  0
  7 11  2  0  0  0  0
  7 20  1  0  0  0  0
  8 14  2  0  0  0  0
  8 23  1  0  0  0  0
  9 25  1  0  0  0  0
 10 25  2  0  0  0  0
 11 26  1  0  0  0  0
 12 13  2  0  0  0  0
 12 27  1  0  0  0  0
 13 28  1  0  0  0  0
 14 30  1  0  0  0  0
 15 22  1  0  0  0  0
 15 26  2  0  0  0  0
 16 28  2  0  0  0  0
 16 29  1  0  0  0  0
 17 32  1  0  0  0  0
 18 32  1  0  0  0  0
 18 33  2  0  0  0  0
 18 34  1  0  0  0  0
 19 21  2  0  0  0  0
 19 39  1  0  0  0  0
 20 22  2  0  0  0  0
 20 40  1  0  0  0  0
 21 48  1  0  0  0  0
 22 41  1  0  0  0  0
 23 31  2  0  0  0  0
 23 56  1  0  0  0  0
 24 30  2  0  0  0  0
 24 31  1  0  0  0  0
 24 57  1  0  0  0  0
 25 79  1  0  0  0  0
 26 80  1  0  0  0  0
 27 29  2  0  0  0  0
 27 79  1  0  0  0  0
 28 81  1  0  0  0  0
 29 82  1  0  0  0  0
 30 83  1  0  0  0  0
 31 84  1  0  0  0  0
 32 64  2  0  0  0  0
 33 65  1  0  0  0  0
 33 68  1  0  0  0  0
 34 69  1  0  0  0  0
 34 74  2  0  0  0  0
 35 49  1  0  0  0  0
 35 70  1  0  0  0  0
 35 75  2  0  0  0  0
 36 61  1  0  0  0  0
 36 66  1  0  0  0  0
 36 76  2  0  0  0  0
 37 62  1  0  0  0  0
 37 71  1  0  0  0  0
 37 77  2  0  0  0  0
 38 67  1  0  0  0  0
 38 72  1  0  0  0  0
 38 78  2  0  0  0  0
 39 42  1  0  0  0  0
 40 49  1  0  0  0  0
 41 66  1  0  0  0  0
 42 44  1  0  0  0  0
 43 45  1  0  0  0  0
 43 46  1  0  0  0  0
 44 48  1  0  0  0  0
 45 50  1  0  0  0  0
 46 67  1  0  0  0  0
 47 50  1  0  0  0  0
 47 67  1  0  0  0  0
 48 70  1  0  0  0  0
 49 66  1  0  0  0  0
 50 65  1  0  0  0  0
 51 62  1  0  0  0  0
 52 63  1  0  0  0  0
 53 63  1  0  0  0  0
 54 63  1  0  0  0  0
 55 73  1  0  0  0  0
 56 58  1  0  0  0  0
 57 72  1  0  0  0  0
 58 59  1  0  0  0  0
 59 60  1  0  0  0  0
 60 80  1  0  0  0  0
 61 63  1  0  0  0  0
 61 71  1  0  0  0  0
 62 73  1  0  0  0  0
 64 65  1  0  0  0  0
M  CHG  1  73   1
M  ISO  4  38 100  60 101  72 100  80 101
M  END
> <Batch ID>
0023

> <Smiles>
CNC(C)C(=O)NC(C(=O)N1Cc2cc([101O:1][101CH2:1]CCCc3ccc(Cl)c(C[100NH:0][100C:0](=O)N4CCCC(n5nc(-c6ccc(Oc7ccc(F)cc7F)cc6)c(C(N)=O)c5N)C4)c3Cl)ccc2CC1C(=O)NC1CCCc2ccccc21)C(C)(C)C

> <Shape>
0.238

> <Color>
0.065

> <Negative vol penalty>
0.000

$$$$

  -OEChem-04052316193D

 94103  0     1  0  0  0  0  0999 V2000
  -28.9879  -35.6587   21.7686 C   0  0  0  0  0  0  0  0  0  0  0  0
  -29.0934  -34.2724   21.7192 C   0  0  0  0  0  0  0  0  0  0  0  0
  -20.9793  -11.3144   23.8003 C   0  0  0  0  0  0  0  0  0  0  0  0
  -21.4904  -12.8970   22.0478 C   0  0  0  0  0  0  0  0  0  0  0  0
  -27.8993  -36.2516   22.4067 C   0  0  0  0  0  0  0  0  0  0  0  0
  -28.1107  -33.4781   22.3089 C   0  0  0  0  0  0  0  0  0  0  0  0
  -26.7047  -29.6133   19.3541 C   0  0  0  0  0  0  0  0  0  0  0  0
  -19.9220  -12.1214   24.2206 C   0  0  0  0  0  0  0  0  0  0  0  0
  -20.4331  -13.7039   22.4681 C   0  0  0  0  0  0  0  0  0  0  0  0
  -27.5551  -28.5097   19.3017 C   0  0  0  0  0  0  0  0  0  0  0  0
  -19.8332  -15.9418   24.9303 C   0  0  0  0  0  0  0  0  0  0  0  0
  -20.0662  -17.3131   25.0342 C   0  0  0  0  0  0  0  0  0  0  0  0
  -26.1336  -27.3477   20.8664 C   0  0  0  0  0  0  0  0  0  0  0  0
  -28.4470  -15.4613   19.6934 C   0  0  0  0  0  0  0  0  0  0  0  0
  -18.3282  -17.7315   23.4090 C   0  0  0  0  0  0  0  0  0  0  0  0
  -21.7635  -11.7022   22.7139 C   0  0  0  0  0  0  0  0  0  0  0  0
  -22.7830   -9.5377   21.8289 C   0  0  0  0  0  0  0  0  0  0  0  0
  -26.8977  -35.4641   22.9962 C   0  0  0  0  0  0  0  0  0  0  0  0
  -25.5664  -29.5965   20.1728 C   0  0  0  0  0  0  0  0  0  0  0  0
  -27.0083  -34.0610   22.9567 C   0  0  0  0  0  0  0  0  0  0  0  0
  -25.2691  -28.4514   20.9255 C   0  0  0  0  0  0  0  0  0  0  0  0
  -27.3530  -15.0380   18.9388 C   0  0  0  0  0  0  0  0  0  0  0  0
  -27.2752  -17.1903   17.8440 C   0  0  0  0  0  0  0  0  0  0  0  0
  -28.3692  -17.6137   18.5987 C   0  0  0  0  0  0  0  0  0  0  0  0
  -19.6489  -13.3161   23.5545 C   0  0  0  0  0  0  0  0  0  0  0  0
  -27.2712  -27.3778   20.0602 C   0  0  0  0  0  0  0  0  0  0  0  0
  -18.8478  -15.4653   24.0657 C   0  0  0  0  0  0  0  0  0  0  0  0
  -19.3137  -18.2080   24.2736 C   0  0  0  0  0  0  0  0  0  0  0  0
  -18.0953  -16.3602   23.3050 C   0  0  0  0  0  0  0  0  0  0  0  0
  -28.9551  -16.7492   19.5234 C   0  0  0  0  0  0  0  0  0  0  0  0
  -26.7671  -15.9025   18.0141 C   0  0  0  0  0  0  0  0  0  0  0  0
  -22.8561  -10.8694   22.2796 C   0  0  0  0  0  0  0  0  0  0  0  0
  -24.0827   -9.2016   21.5385 C   0  0  0  0  0  0  0  0  0  0  0  0
  -21.6422   -8.6812   21.6856 C   0  0  0  0  0  0  0  0  0  0  0  0
  -24.5700  -31.3002   22.6644 C   0  0  0  0  0  0  0  0  0  0  0  0
  -21.8669  -29.5471   22.2869 C   0  0  0  0  0  0  0  0  0  0  0  0
  -21.0361  -26.1118   21.5617 C   0  0  0  0  0  0  0  0  0  0  0  0
  -28.7319  -12.2600   19.9142 C   0  0  0  0  0  0  0  0  0  0  0  0
  -25.7640  -36.1506   23.7158 C   0  0  0  0  0  0  0  0  0  0  0  0
  -24.6447  -30.7849   20.1976 C   0  0  0  0  0  0  0  0  0  0  0  0
  -24.0486  -28.3752   21.8047 C   0  0  0  0  0  0  0  0  0  0  0  0
  -24.5734  -35.2353   23.9898 C   0  0  0  0  0  0  0  0  0  0  0  0
  -27.5171  -10.3049   15.3320 C   0  0  0  0  0  0  0  0  0  0  0  0
  -28.8977  -10.4192   15.9694 C   0  0  0  0  0  0  0  0  0  0  0  0
  -26.7590  -11.6274   15.3759 C   0  0  0  0  0  0  0  0  0  0  0  0
  -28.5853  -10.2005   22.7793 C   0  0  0  0  0  0  0  0  0  0  0  0
  -25.0455  -33.9013   24.5592 C   0  0  0  0  0  0  0  0  0  0  0  0
  -27.0774  -10.0128   22.9403 C   0  0  0  0  0  0  0  0  0  0  0  0
  -28.8197  -10.9763   17.3914 C   0  0  0  0  0  0  0  0  0  0  0  0
  -26.6792  -12.1859   16.7974 C   0  0  0  0  0  0  0  0  0  0  0  0
  -28.9455  -11.6278   22.3629 C   0  0  0  0  0  0  0  0  0  0  0  0
  -26.7211  -11.9097   21.3165 C   0  0  0  0  0  0  0  0  0  0  0  0
  -25.9499  -33.1654   23.5631 C   0  0  1  0  0  0  0  0  0  0  0  0
  -23.7909  -30.8525   21.4601 C   0  0  1  0  0  0  0  0  0  0  0  0
  -26.3283  -10.4685   21.6761 C   0  0  2  0  0  0  0  0  0  0  0  0
  -28.0577  -12.3146   17.4799 C   0  0  0  0  0  0  0  0  0  0  0  0
  -26.6581  -18.1313   16.8551 C   0  0  0  0  0  0  0  0  0  0  0  0
  -28.8737  -13.4527   16.8434 C   0  0  0  0  0  0  0  0  0  0  0  0
  -19.0061  -25.1197   20.4698 C   0  0  0  0  0  0  0  0  0  0  0  0
  -20.8477  -29.2181   25.1439 C   0  0  0  0  0  0  0  0  0  0  0  0
  -19.8648  -27.0176   24.4658 C   0  0  0  0  0  0  0  0  0  0  0  0
  -19.0722  -29.1216   23.3853 C   0  0  0  0  0  0  0  0  0  0  0  0
  -22.6696  -24.7203   19.5235 C   0  0  0  0  0  0  0  0  0  0  0  0
  -28.9087  -19.0088   18.4071 C   0  0  0  0  0  0  0  0  0  0  0  0
  -26.8421  -13.6495   19.1551 C   0  0  0  0  0  0  0  0  0  0  0  0
  -28.0863  -20.0932   19.1125 C   0  0  0  0  0  0  0  0  0  0  0  0
  -28.6428  -21.5047   18.8945 C   0  0  0  0  0  0  0  0  0  0  0  0
  -27.7735  -22.5547   19.5912 C   0  0  0  0  0  0  0  0  0  0  0  0
  -28.3226  -23.9759   19.4634 C   0  0  0  0  0  0  0  0  0  0  0  0
  -27.5102  -25.0171   20.2216 C   0  0  0  0  0  0  0  0  0  1  0  0
  -21.3671  -28.2253   22.8179 C   0  0  1  0  0  0  0  0  0  0  0  0
  -20.4443  -25.5727   20.2719 C   0  0  2  0  0  0  0  0  0  0  0  0
  -20.3157  -28.4008   23.9498 C   0  0  0  0  0  0  0  0  0  0  0  0
  -24.1036  -11.3466   22.2776 N   0  0  0  0  0  0  0  0  0  0  0  0
  -24.8264  -10.3092   21.8222 N   0  0  0  0  0  0  0  0  0  0  0  0
  -23.1816  -29.5651   21.8000 N   0  0  0  0  0  0  0  0  0  0  0  0
  -28.1741  -12.0393   21.1821 N   0  0  0  0  0  0  0  0  0  0  0  0
  -24.6505   -8.0697   21.0708 N   0  0  0  0  0  0  0  0  0  0  0  0
  -20.3805   -9.1857   22.0290 N   0  0  0  0  0  0  0  0  0  0  0  0
  -25.1568  -32.5434   22.5246 N   0  0  0  0  0  0  0  0  0  0  0  0
  -20.8820  -27.4783   21.6624 N   0  0  0  0  0  0  0  0  0  0  0  0
  -27.8575  -12.6412   18.8854 N   0  0  0  0  0  0  0  0  0  0  0  0
  -21.2398  -24.4113   19.7826 N   0  3  0  0  0  0  0  0  0  0  0  0
  -21.7409   -7.4979   21.2809 O   0  0  0  0  0  0  0  0  0  0  0  0
  -24.6327  -30.5723   23.6482 O   0  0  0  0  0  0  0  0  0  0  0  0
  -21.1161  -30.5257   22.2969 O   0  0  0  0  0  0  0  0  0  0  0  0
  -21.5774  -25.3921   22.3981 O   0  0  0  0  0  0  0  0  0  0  0  0
  -29.9441  -12.1168   19.7091 O   0  0  0  0  0  0  0  0  0  0  0  0
  -18.6172  -14.1036   23.9642 O   0  0  0  0  0  0  0  0  0  0  0  0
  -28.0999  -26.2995   20.0114 O   0  0  0  0  0  0  0  0  0  1  0  0
  -19.5364  -19.5249   24.3746 F   0  0  0  0  0  0  0  0  0  0  0  0
  -17.1464  -15.9084   22.4736 F   0  0  0  0  0  0  0  0  0  0  0  0
  -30.3090  -17.2349   20.4787 Cl  0  0  0  0  0  0  0  0  0  0  0  0
  -25.4089  -15.3721   17.0780 Cl  0  0  0  0  0  0  0  0  0  0  0  0
  1  2  1  0  0  0  0
  1  5  2  0  0  0  0
  2  6  2  0  0  0  0
  3  8  2  0  0  0  0
  3 16  1  0  0  0  0
  4  9  1  0  0  0  0
  4 16  2  0  0  0  0
  5 18  1  0  0  0  0
  6 20  1  0  0  0  0
  7 10  2  0  0  0  0
  7 19  1  0  0  0  0
  8 25  1  0  0  0  0
  9 25  2  0  0  0  0
 10 26  1  0  0  0  0
 11 12  2  0  0  0  0
 11 27  1  0  0  0  0
 12 28  1  0  0  0  0
 13 21  1  0  0  0  0
 13 26  2  0  0  0  0
 14 22  1  0  0  0  0
 14 30  2  0  0  0  0
 15 28  2  0  0  0  0
 15 29  1  0  0  0  0
 16 32  1  0  0  0  0
 17 32  1  0  0  0  0
 17 33  2  0  0  0  0
 17 34  1  0  0  0  0
 18 20  2  0  0  0  0
 18 39  1  0  0  0  0
 19 21  2  0  0  0  0
 19 40  1  0  0  0  0
 20 53  1  0  0  0  0
 21 41  1  0  0  0  0
 22 31  2  0  0  0  0
 22 65  1  0  0  0  0
 23 24  2  0  0  0  0
 23 31  1  0  0  0  0
 23 57  1  0  0  0  0
 24 30  1  0  0  0  0
 24 64  1  0  0  0  0
 25 89  1  0  0  0  0
 26 90  1  0  0  0  0
 27 29  2  0  0  0  0
 27 89  1  0  0  0  0
 28 91  1  0  0  0  0
 29 92  1  0  0  0  0
 30 93  1  0  0  0  0
 31 94  1  0  0  0  0
 32 74  2  0  0  0  0
 33 75  1  0  0  0  0
 33 78  1  0  0  0  0
 34 79  1  0  0  0  0
 34 84  2  0  0  0  0
 35 54  1  0  0  0  0
 35 80  1  0  0  0  0
 35 85  2  0  0  0  0
 36 71  1  0  0  0  0
 36 76  1  0  0  0  0
 36 86  2  0  0  0  0
 37 72  1  0  0  0  0
 37 81  1  0  0  0  0
 37 87  2  0  0  0  0
 38 77  1  0  0  0  0
 38 82  1  0  0  0  0
 38 88  2  0  0  0  0
 39 42  1  0  0  0  0
 40 54  1  0  0  0  0
 41 76  1  0  0  0  0
 42 47  1  0  0  0  0
 43 44  1  0  0  0  0
 43 45  1  0  0  0  0
 44 49  1  0  0  0  0
 45 50  1  0  0  0  0
 46 48  1  0  0  0  0
 46 51  1  0  0  0  0
 47 53  1  0  0  0  0
 48 55  1  0  0  0  0
 49 56  1  0  0  0  0
 50 56  1  0  0  0  0
 51 77  1  0  0  0  0
 52 55  1  0  0  0  0
 52 77  1  0  0  0  0
 53 80  1  0  0  0  0
 54 76  1  0  0  0  0
 55 75  1  0  0  0  0
 56 58  1  0  0  0  0
 56 82  1  0  0  0  0
 59 72  1  0  0  0  0
 60 73  1  0  0  0  0
 61 73  1  0  0  0  0
 62 73  1  0  0  0  0
 63 83  1  0  0  0  0
 64 66  1  0  0  0  0
 65 82  1  0  0  0  0
 66 67  1  0  0  0  0
 67 68  1  0  0  0  0
 68 69  1  0  0  0  0
 69 70  1  0  0  0  0
 70 90  1  0  0  0  0
 71 73  1  0  0  0  0
 71 81  1  0  0  0  0
 72 83  1  0  0  0  0
 74 75  1  0  0  0  0
M  CHG  1  83   1
M  ISO  4  38 100  70 101  82 100  90 101
M  END
> <Batch ID>
0023

> <Smiles>
CNC(C)C(=O)NC(C(=O)N1Cc2cc([101O:1][101CH2:1]CCCCCc3c(Cl)cc(C[100N:0]([100C:0](=O)N4CCCC(n5nc(-c6ccc(Oc7ccc(F)cc7F)cc6)c(C(N)=O)c5N)C4)C4(C)CCCCC4)c(Cl)c3C)ccc2CC1C(=O)NC1CCCc2ccccc21)C(C)(C)C

> <Shape>
0.300

> <Color>
0.061

> <Negative vol penalty>
0.000

$$$$

  -OEChem-04052316193D

 90 98  0     1  0  0  0  0  0999 V2000
  -31.0717  -26.0629   17.2625 C   0  0  0  0  0  0  0  0  0  0  0  0
  -30.2589  -25.0335   16.7987 C   0  0  0  0  0  0  0  0  0  0  0  0
  -25.9568  -31.6172   20.7854 C   0  0  0  0  0  0  0  0  0  0  0  0
  -24.5749  -30.3384   22.2993 C   0  0  0  0  0  0  0  0  0  0  0  0
  -31.7360  -25.9298   18.4811 C   0  0  0  0  0  0  0  0  0  0  0  0
  -30.1108  -23.8699   17.5527 C   0  0  0  0  0  0  0  0  0  0  0  0
  -25.2965  -18.7967   19.1024 C   0  0  0  0  0  0  0  0  0  0  0  0
  -25.5244  -32.7983   21.3883 C   0  0  0  0  0  0  0  0  0  0  0  0
  -24.1425  -31.5196   22.9023 C   0  0  0  0  0  0  0  0  0  0  0  0
  -25.1599  -17.4093   19.1150 C   0  0  0  0  0  0  0  0  0  0  0  0
  -25.0612  -36.1308   22.7650 C   0  0  0  0  0  0  0  0  0  0  0  0
  -26.0225  -37.0965   23.0629 C   0  0  0  0  0  0  0  0  0  0  0  0
  -26.2932  -17.3231   21.2428 C   0  0  0  0  0  0  0  0  0  0  0  0
  -27.1616  -35.5203   24.4965 C   0  0  0  0  0  0  0  0  0  0  0  0
  -25.4820  -30.3872   21.2409 C   0  0  0  0  0  0  0  0  0  0  0  0
  -27.0434  -28.3870   20.9780 C   0  0  0  0  0  0  0  0  0  0  0  0
  -31.5883  -24.7680   19.2551 C   0  0  0  0  0  0  0  0  0  0  0  0
  -25.9432  -19.4579   20.1565 C   0  0  0  0  0  0  0  0  0  0  0  0
  -30.7747  -23.7207   18.7822 C   0  0  0  0  0  0  0  0  0  0  0  0
  -26.4344  -18.7192   21.2424 C   0  0  0  0  0  0  0  0  0  0  0  0
  -24.6172  -32.7495   22.4467 C   0  0  0  0  0  0  0  0  0  0  0  0
  -25.6609  -16.6720   20.1839 C   0  0  0  0  0  0  0  0  0  0  0  0
  -25.1500  -34.8598   23.3328 C   0  0  0  0  0  0  0  0  0  0  0  0
  -27.0728  -36.7913   23.9286 C   0  0  0  0  0  0  0  0  0  0  0  0
  -26.2002  -34.5546   24.1986 C   0  0  0  0  0  0  0  0  0  0  0  0
  -21.0917  -13.4623   20.3841 C   0  0  0  0  0  0  0  0  0  0  0  0
  -25.9279  -29.1668   20.6181 C   0  0  0  0  0  0  0  0  0  0  0  0
  -21.5321  -14.7993   20.3979 C   0  0  0  0  0  0  0  0  0  0  0  0
  -22.1969  -12.7328   20.7485 C   0  0  0  0  0  0  0  0  0  0  0  0
  -27.0334  -27.3416   20.0872 C   0  0  0  0  0  0  0  0  0  0  0  0
  -28.0028  -28.5895   22.0241 C   0  0  0  0  0  0  0  0  0  0  0  0
  -28.5465  -21.2639   20.4107 C   0  0  0  0  0  0  0  0  0  0  0  0
  -27.5127  -21.6413   23.4621 C   0  0  0  0  0  0  0  0  0  0  0  0
  -25.6764  -20.4273   26.0700 C   0  0  0  0  0  0  0  0  0  0  0  0
  -22.6852  -24.7545   16.8855 C   0  0  0  0  0  0  0  0  0  0  0  0
  -32.3637  -24.6505   20.5433 C   0  0  0  0  0  0  0  0  0  0  0  0
  -26.0587  -20.9575   20.1408 C   0  0  0  0  0  0  0  0  0  0  0  0
  -27.1188  -19.3830   22.4083 C   0  0  0  0  0  0  0  0  0  0  0  0
  -31.8573  -23.5397   21.4599 C   0  0  0  0  0  0  0  0  0  0  0  0
  -25.6763  -26.2275   15.6366 C   0  0  0  0  0  0  0  0  0  0  0  0
  -31.6341  -22.2549   20.6686 C   0  0  0  0  0  0  0  0  0  0  0  0
  -26.1807  -27.0775   16.8041 C   0  0  0  0  0  0  0  0  0  0  0  0
  -24.1518  -26.2372   15.5487 C   0  0  0  0  0  0  0  0  0  0  0  0
  -23.9616  -26.7068   17.9605 C   0  0  0  0  0  0  0  0  0  0  0  0
  -30.5692  -22.4533   19.5832 C   0  0  1  0  0  0  0  0  0  0  0  0
  -27.1904  -21.4789   21.0210 C   0  0  1  0  0  0  0  0  0  0  0  0
  -25.4910  -26.6829   18.1239 C   0  0  2  0  0  0  0  0  0  0  0  0
  -22.3960  -11.2807   20.9215 C   0  0  0  0  0  0  0  0  0  0  0  0
  -23.9717  -13.4434   23.8971 C   0  0  0  0  0  0  0  0  0  0  0  0
  -25.0540  -20.9373   28.4470 C   0  0  0  0  0  0  0  0  0  0  0  0
  -30.2768  -20.7305   24.3788 C   0  0  0  0  0  0  0  0  0  0  0  0
  -29.3178  -20.3481   26.6596 C   0  0  0  0  0  0  0  0  0  0  0  0
  -29.3237  -22.6420   25.6795 C   0  0  0  0  0  0  0  0  0  0  0  0
  -25.4111  -12.4383   20.3789 C   0  0  0  0  0  0  0  0  0  0  0  0
  -22.7976  -20.5914   25.4031 C   0  0  0  0  0  0  0  0  0  0  0  0
  -20.7592  -16.0148   20.0840 C   0  0  0  0  0  0  0  0  0  0  0  0
  -24.6839  -12.6762   22.7866 C   0  0  0  0  0  0  0  0  0  0  0  0
  -21.0315  -20.8756   18.8968 C   0  0  0  0  0  0  0  0  0  0  0  0
  -21.9932  -22.0491   18.6880 C   0  0  0  0  0  0  0  0  0  0  0  0
  -21.7892  -19.5913   19.2387 C   0  0  0  0  0  0  0  0  0  0  0  0
  -21.2659  -23.3489   18.3583 C   0  0  0  0  0  0  0  0  0  0  0  0
  -20.8273  -18.4374   19.4799 C   0  0  0  0  0  0  0  0  0  0  0  0
  -25.4289  -14.6884   21.4752 C   0  0  0  0  0  0  0  0  0  1  0  0
  -27.7297  -20.9068   24.7630 C   0  0  1  0  0  0  0  0  0  0  0  0
  -24.6643  -21.0926   26.9852 C   0  0  2  0  0  0  0  0  0  0  0  0
  -29.1509  -21.1439   25.3475 C   0  0  0  0  0  0  0  0  0  0  0  0
  -24.6462  -13.3463   21.3753 C   0  0  1  0  0  0  0  0  0  0  0  0
  -25.2581  -28.6601   19.5795 N   0  0  0  0  0  0  0  0  0  0  0  0
  -22.8170  -14.9153   20.7440 N   0  0  0  0  0  0  0  0  0  0  0  0
  -23.1933  -13.6419   20.9510 N   0  0  0  0  0  0  0  0  0  0  0  0
  -25.9547  -27.5508   19.2791 N   0  0  0  0  0  0  0  0  0  0  0  0
  -27.2129  -20.8508   22.3436 N   0  0  0  0  0  0  0  0  0  0  0  0
  -23.5597  -25.8524   16.8321 N   0  0  0  0  0  0  0  0  0  0  0  0
  -27.8421  -26.2731   19.9241 N   0  0  0  0  0  0  0  0  0  0  0  0
  -27.8654  -29.7150   22.8480 N   0  0  0  0  0  0  0  0  0  0  0  0
  -29.2443  -22.4310   20.1651 N   0  0  0  0  0  0  0  0  0  0  0  0
  -26.6440  -21.3144   25.6481 N   0  0  0  0  0  0  0  0  0  0  0  0
  -22.1735  -24.4536   18.1418 N   0  0  0  0  0  0  0  0  0  0  0  0
  -23.3156  -20.4889   26.7917 N   0  3  0  0  0  0  0  0  0  0  0  0
  -21.6022  -17.2284   19.8514 N   0  3  0  0  0  0  0  0  0  0  0  0
  -28.9632  -27.8048   22.2118 O   0  0  0  0  0  0  0  0  0  0  0  0
  -28.9319  -20.1235   20.1812 O   0  0  0  0  0  0  0  0  0  0  0  0
  -27.5986  -22.8717   23.4408 O   0  0  0  0  0  0  0  0  0  0  0  0
  -25.6168  -19.2387   25.7633 O   0  0  0  0  0  0  0  0  0  0  0  0
  -22.3870  -24.0882   15.8884 O   0  0  0  0  0  0  0  0  0  0  0  0
  -24.1952  -33.9019   23.0354 O   0  0  0  0  0  0  0  0  0  0  0  0
  -25.5295  -15.3176   20.1983 O   0  0  0  0  0  0  0  0  0  1  0  0
  -27.9967  -37.7183   24.2134 F   0  0  0  0  0  0  0  0  0  0  0  0
  -26.2915  -33.3349   24.7462 F   0  0  0  0  0  0  0  0  0  0  0  0
  -19.5399  -12.9063   19.9994 Cl  0  0  0  0  0  0  0  0  0  0  0  0
  1  2  1  0  0  0  0
  1  5  2  0  0  0  0
  2  6  2  0  0  0  0
  3  8  2  0  0  0  0
  3 15  1  0  0  0  0
  4  9  1  0  0  0  0
  4 15  2  0  0  0  0
  5 17  1  0  0  0  0
  6 19  1  0  0  0  0
  7 10  2  0  0  0  0
  7 18  1  0  0  0  0
  8 21  1  0  0  0  0
  9 21  2  0  0  0  0
 10 22  1  0  0  0  0
 11 12  2  0  0  0  0
 11 23  1  0  0  0  0
 12 24  1  0  0  0  0
 13 20  1  0  0  0  0
 13 22  2  0  0  0  0
 14 24  2  0  0  0  0
 14 25  1  0  0  0  0
 15 27  1  0  0  0  0
 16 27  1  0  0  0  0
 16 30  2  0  0  0  0
 16 31  1  0  0  0  0
 17 19  2  0  0  0  0
 17 36  1  0  0  0  0
 18 20  2  0  0  0  0
 18 37  1  0  0  0  0
 19 45  1  0  0  0  0
 20 38  1  0  0  0  0
 21 86  1  0  0  0  0
 22 87  1  0  0  0  0
 23 25  2  0  0  0  0
 23 86  1  0  0  0  0
 24 88  1  0  0  0  0
 25 89  1  0  0  0  0
 26 28  1  0  0  0  0
 26 29  2  0  0  0  0
 26 90  1  0  0  0  0
 27 68  2  0  0  0  0
 28 56  1  0  0  0  0
 28 69  2  0  0  0  0
 29 48  1  0  0  0  0
 29 70  1  0  0  0  0
 30 71  1  0  0  0  0
 30 74  1  0  0  0  0
 31 75  1  0  0  0  0
 31 81  2  0  0  0  0
 32 46  1  0  0  0  0
 32 76  1  0  0  0  0
 32 82  2  0  0  0  0
 33 64  1  0  0  0  0
 33 72  1  0  0  0  0
 33 83  2  0  0  0  0
 34 65  1  0  0  0  0
 34 77  1  0  0  0  0
 34 84  2  0  0  0  0
 35 73  1  0  0  0  0
 35 78  1  0  0  0  0
 35 85  2  0  0  0  0
 36 39  1  0  0  0  0
 37 46  1  0  0  0  0
 38 72  1  0  0  0  0
 39 41  1  0  0  0  0
 40 42  1  0  0  0  0
 40 43  1  0  0  0  0
 41 45  1  0  0  0  0
 42 47  1  0  0  0  0
 43 73  1  0  0  0  0
 44 47  1  0  0  0  0
 44 73  1  0  0  0  0
 45 76  1  0  0  0  0
 46 72  1  0  0  0  0
 47 71  1  0  0  0  0
 49 57  1  0  0  0  0
 50 65  1  0  0  0  0
 51 66  1  0  0  0  0
 52 66  1  0  0  0  0
 53 66  1  0  0  0  0
 54 67  1  0  0  0  0
 55 79  1  0  0  0  0
 56 80  1  0  0  0  0
 57 67  1  0  0  0  0
 58 59  1  0  0  0  0
 58 60  1  0  0  0  0
 59 61  1  0  0  0  0
 60 62  1  0  0  0  0
 61 78  1  0  0  0  0
 62 80  1  0  0  0  0
 63 67  1  0  0  0  0
 63 87  1  0  0  0  0
 64 66  1  0  0  0  0
 64 77  1  0  0  0  0
 65 79  1  0  0  0  0
 67 70  1  0  0  0  0
 68 71  1  0  0  0  0
 69 70  1  0  0  0  0
M  CHG  2  79   1  80   1
M  ISO  4  35 100  63 101  78 100  87 101
M  END
> <Batch ID>
0023

> <Smiles>
CCC(C)(n1nc(CNCCCCC[100NH:0][100C:0](=O)N2CCCC(n3nc(-c4ccc(Oc5ccc(F)cc5F)cc4)c(C(N)=O)c3N)C2)c(Cl)c1C)[101CH2:1][101O:1]c1ccc2c(c1)CN(C(=O)C(NC(=O)C(C)NC)C(C)(C)C)C(C(=O)NC1CCCc3ccccc31)C2

> <Shape>
0.228

> <Color>
0.074

> <Negative vol penalty>
0.000

$$$$

  -OEChem-04052316193D

 82 90  0     1  0  0  0  0  0999 V2000
  -20.0422  -32.0793   19.4182 C   0  0  0  0  0  0  0  0  0  0  0  0
  -21.3496  -31.6039   19.4033 C   0  0  0  0  0  0  0  0  0  0  0  0
  -26.2068  -13.0392   21.6776 C   0  0  0  0  0  0  0  0  0  0  0  0
  -25.9056  -13.8783   19.4321 C   0  0  0  0  0  0  0  0  0  0  0  0
  -19.2288  -31.8441   20.5259 C   0  0  0  0  0  0  0  0  0  0  0  0
  -21.8447  -30.8941   20.4966 C   0  0  0  0  0  0  0  0  0  0  0  0
  -24.4214  -26.7571   19.1216 C   0  0  0  0  0  0  0  0  0  0  0  0
  -24.9839  -12.3738   21.5931 C   0  0  0  0  0  0  0  0  0  0  0  0
  -24.6826  -13.2129   19.3476 C   0  0  0  0  0  0  0  0  0  0  0  0
  -25.7242  -26.9422   18.6610 C   0  0  0  0  0  0  0  0  0  0  0  0
  -23.7853   -9.5309   20.2094 C   0  0  0  0  0  0  0  0  0  0  0  0
  -23.7319   -8.2126   20.6620 C   0  0  0  0  0  0  0  0  0  0  0  0
  -26.5742  -26.3011   20.8257 C   0  0  0  0  0  0  0  0  0  0  0  0
  -22.0577   -8.8384   22.2875 C   0  0  0  0  0  0  0  0  0  0  0  0
  -26.6677  -13.7915   20.5972 C   0  0  0  0  0  0  0  0  0  0  0  0
  -29.1974  -13.9797   20.3272 C   0  0  0  0  0  0  0  0  0  0  0  0
  -19.7111  -31.1227   21.6293 C   0  0  0  0  0  0  0  0  0  0  0  0
  -24.1844  -26.3524   20.4432 C   0  0  0  0  0  0  0  0  0  0  0  0
  -21.0374  -30.6503   21.6207 C   0  0  0  0  0  0  0  0  0  0  0  0
  -25.2675  -26.1091   21.2998 C   0  0  0  0  0  0  0  0  0  0  0  0
  -24.2217  -12.4606   20.4280 C   0  0  0  0  0  0  0  0  0  0  0  0
  -26.8008  -26.7170   19.5139 C   0  0  0  0  0  0  0  0  0  0  0  0
  -22.9749  -10.5030   20.7960 C   0  0  0  0  0  0  0  0  0  0  0  0
  -22.8681   -7.8663   21.7010 C   0  0  0  0  0  0  0  0  0  0  0  0
  -22.1110  -10.1567   21.8350 C   0  0  0  0  0  0  0  0  0  0  0  0
  -27.5664  -22.0458   17.7260 C   0  0  0  0  0  0  0  0  0  0  0  0
  -27.9307  -14.4796   20.6841 C   0  0  0  0  0  0  0  0  0  0  0  0
  -27.8901  -23.1903   17.0392 C   0  0  0  0  0  0  0  0  0  0  0  0
  -28.4637  -22.0204   18.8104 C   0  0  0  0  0  0  0  0  0  0  0  0
  -30.0622  -15.0123   20.5961 C   0  0  0  0  0  0  0  0  0  0  0  0
  -29.5599  -12.6968   19.7996 C   0  0  0  0  0  0  0  0  0  0  0  0
  -22.6947  -27.6253   22.9459 C   0  0  0  0  0  0  0  0  0  0  0  0
  -23.3160  -24.7394   24.2905 C   0  0  0  0  0  0  0  0  0  0  0  0
  -25.2470  -21.9262   24.3495 C   0  0  0  0  0  0  0  0  0  0  0  0
  -29.3742  -20.9403   20.8963 C   0  0  0  0  0  0  0  0  0  0  0  0
  -18.8097  -30.9343   22.8237 C   0  0  0  0  0  0  0  0  0  0  0  0
  -22.7740  -26.1314   20.9167 C   0  0  0  0  0  0  0  0  0  0  0  0
  -25.0674  -25.6540   22.7215 C   0  0  0  0  0  0  0  0  0  0  0  0
  -19.2907  -29.8505   23.7850 C   0  0  0  0  0  0  0  0  0  0  0  0
  -30.5871  -18.8042   23.4737 C   0  0  0  0  0  0  0  0  0  0  0  0
  -20.7822  -30.0077   24.0636 C   0  0  0  0  0  0  0  0  0  0  0  0
  -30.1641  -17.4067   23.0153 C   0  0  0  0  0  0  0  0  0  0  0  0
  -29.5360  -19.8572   23.1269 C   0  0  0  0  0  0  0  0  0  0  0  0
  -28.7008  -18.4847   21.2593 C   0  0  0  0  0  0  0  0  0  0  0  0
  -21.6028  -29.8547   22.7772 C   0  0  1  0  0  0  0  0  0  0  0  0
  -22.6331  -26.2142   22.4335 C   0  0  1  0  0  0  0  0  0  0  0  0
  -29.7569  -17.4004   21.5288 C   0  0  2  0  0  0  0  0  0  0  0  0
  -27.3247  -23.7870   15.8137 C   0  0  0  0  0  0  0  0  0  0  0  0
  -25.5366  -19.7612   25.5850 C   0  0  0  0  0  0  0  0  0  0  0  0
  -30.7943  -24.7703   16.4010 C   0  0  0  0  0  0  0  0  0  0  0  0
  -24.6121  -26.2392   26.6101 C   0  0  0  0  0  0  0  0  0  0  0  0
  -25.6926  -24.0902   27.3045 C   0  0  0  0  0  0  0  0  0  0  0  0
  -23.2058  -24.2851   27.2871 C   0  0  0  0  0  0  0  0  0  0  0  0
  -24.7318  -20.3313   21.9103 C   0  0  0  0  0  0  0  0  0  0  0  0
  -30.1756  -25.7942   18.6230 C   0  0  0  0  0  0  0  0  0  0  0  0
  -29.0895  -26.0866   19.6554 C   0  0  0  0  0  0  0  0  0  1  0  0
  -24.4544  -24.1565   25.0924 C   0  0  1  0  0  0  0  0  0  0  0  0
  -24.8807  -20.4539   24.4006 C   0  0  2  0  0  0  0  0  0  0  0  0
  -29.6491  -25.0469   17.3826 C   0  0  2  0  0  0  0  0  0  0  0  0
  -24.4953  -24.7032   26.5474 C   0  0  0  0  0  0  0  0  0  0  0  0
  -27.9817  -15.7322   21.1449 N   0  0  0  0  0  0  0  0  0  0  0  0
  -29.2952  -23.0657   18.8162 N   0  0  0  0  0  0  0  0  0  0  0  0
  -28.9217  -23.7586   17.7270 N   0  0  0  0  0  0  0  0  0  0  0  0
  -29.2910  -16.0282   21.0793 N   0  0  0  0  0  0  0  0  0  0  0  0
  -23.6694  -25.4580   23.1396 N   0  0  0  0  0  0  0  0  0  0  0  0
  -29.2030  -19.7949   21.7021 N   0  0  0  0  0  0  0  0  0  0  0  0
  -31.3995  -15.1413   20.4642 N   0  0  0  0  0  0  0  0  0  0  0  0
  -28.5467  -11.7527   19.5835 N   0  0  0  0  0  0  0  0  0  0  0  0
  -28.5085  -21.0126   19.8054 N   0  0  0  0  0  0  0  0  0  0  0  0
  -21.7257  -28.4579   22.4192 N   0  0  0  0  0  0  0  0  0  0  0  0
  -24.3168  -22.7069   25.0025 N   0  0  0  0  0  0  0  0  0  0  0  0
  -25.3195  -19.7674   23.1527 N   0  3  0  0  0  0  0  0  0  0  0  0
  -30.7490  -12.3907   19.5433 O   0  0  0  0  0  0  0  0  0  0  0  0
  -23.5564  -27.9354   23.7601 O   0  0  0  0  0  0  0  0  0  0  0  0
  -22.1555  -24.5576   24.6673 O   0  0  0  0  0  0  0  0  0  0  0  0
  -26.2593  -22.3417   23.7898 O   0  0  0  0  0  0  0  0  0  0  0  0
  -30.2442  -21.7806   21.1393 O   0  0  0  0  0  0  0  0  0  0  0  0
  -23.0284  -11.8112   20.3451 O   0  0  0  0  0  0  0  0  0  0  0  0
  -28.0734  -26.8976   19.0671 O   0  0  0  0  0  0  0  0  0  1  0  0
  -22.8159   -6.6000   22.1344 F   0  0  0  0  0  0  0  0  0  0  0  0
  -21.3292  -11.0860   22.4016 F   0  0  0  0  0  0  0  0  0  0  0  0
  -26.3621  -20.9106   17.3634 Cl  0  0  0  0  0  0  0  0  0  0  0  0
  1  2  1  0  0  0  0
  1  5  2  0  0  0  0
  2  6  2  0  0  0  0
  3  8  2  0  0  0  0
  3 15  1  0  0  0  0
  4  9  1  0  0  0  0
  4 15  2  0  0  0  0
  5 17  1  0  0  0  0
  6 19  1  0  0  0  0
  7 10  2  0  0  0  0
  7 18  1  0  0  0  0
  8 21  1  0  0  0  0
  9 21  2  0  0  0  0
 10 22  1  0  0  0  0
 11 12  2  0  0  0  0
 11 23  1  0  0  0  0
 12 24  1  0  0  0  0
 13 20  1  0  0  0  0
 13 22  2  0  0  0  0
 14 24  2  0  0  0  0
 14 25  1  0  0  0  0
 15 27  1  0  0  0  0
 16 27  1  0  0  0  0
 16 30  2  0  0  0  0
 16 31  1  0  0  0  0
 17 19  2  0  0  0  0
 17 36  1  0  0  0  0
 18 20  2  0  0  0  0
 18 37  1  0  0  0  0
 19 45  1  0  0  0  0
 20 38  1  0  0  0  0
 21 78  1  0  0  0  0
 22 79  1  0  0  0  0
 23 25  2  0  0  0  0
 23 78  1  0  0  0  0
 24 80  1  0  0  0  0
 25 81  1  0  0  0  0
 26 28  2  0  0  0  0
 26 29  1  0  0  0  0
 26 82  1  0  0  0  0
 27 61  2  0  0  0  0
 28 48  1  0  0  0  0
 28 63  1  0  0  0  0
 29 62  2  0  0  0  0
 29 69  1  0  0  0  0
 30 64  1  0  0  0  0
 30 67  1  0  0  0  0
 31 68  1  0  0  0  0
 31 73  2  0  0  0  0
 32 46  1  0  0  0  0
 32 70  1  0  0  0  0
 32 74  2  0  0  0  0
 33 57  1  0  0  0  0
 33 65  1  0  0  0  0
 33 75  2  0  0  0  0
 34 58  1  0  0  0  0
 34 71  1  0  0  0  0
 34 76  2  0  0  0  0
 35 66  1  0  0  0  0
 35 69  1  0  0  0  0
 35 77  2  0  0  0  0
 36 39  1  0  0  0  0
 37 46  1  0  0  0  0
 38 65  1  0  0  0  0
 39 41  1  0  0  0  0
 40 42  1  0  0  0  0
 40 43  1  0  0  0  0
 41 45  1  0  0  0  0
 42 47  1  0  0  0  0
 43 66  1  0  0  0  0
 44 47  1  0  0  0  0
 44 66  1  0  0  0  0
 45 70  1  0  0  0  0
 46 65  1  0  0  0  0
 47 64  1  0  0  0  0
 49 58  1  0  0  0  0
 50 59  1  0  0  0  0
 51 60  1  0  0  0  0
 52 60  1  0  0  0  0
 53 60  1  0  0  0  0
 54 72  1  0  0  0  0
 55 56  1  0  0  0  0
 55 59  1  0  0  0  0
 56 79  1  0  0  0  0
 57 60  1  0  0  0  0
 57 71  1  0  0  0  0
 58 72  1  0  0  0  0
 59 63  1  0  0  0  0
 61 64  1  0  0  0  0
 62 63  1  0  0  0  0
M  CHG  1  72   1
M  ISO  4  35 100  56 101  69 100  79 101
M  END
> <Batch ID>
0023

> <Smiles>
CNC(C)C(=O)NC(C(=O)N1Cc2cc([101O:1][101CH2:1]CC(C)n3nc([100NH:0][100C:0](=O)N4CCCC(n5nc(-c6ccc(Oc7ccc(F)cc7F)cc6)c(C(N)=O)c5N)C4)c(Cl)c3C)ccc2CC1C(=O)NC1CCCc2ccccc21)C(C)(C)C

> <Shape>
0.246

> <Color>
0.086

> <Negative vol penalty>
0.000

$$$$

  -OEChem-04052316193D

 87 95  0     1  0  0  0  0  0999 V2000
  -19.2126  -26.1378   16.9956 C   0  0  0  0  0  0  0  0  0  0  0  0
  -18.8191  -24.8050   17.0607 C   0  0  0  0  0  0  0  0  0  0  0  0
  -28.5596  -26.3881   17.6701 C   0  0  0  0  0  0  0  0  0  0  0  0
  -28.5799  -26.0595   20.0636 C   0  0  0  0  0  0  0  0  0  0  0  0
  -20.5331  -26.4880   17.2740 C   0  0  0  0  0  0  0  0  0  0  0  0
  -19.7462  -23.8214   17.4031 C   0  0  0  0  0  0  0  0  0  0  0  0
  -20.2163  -17.5337   20.8032 C   0  0  0  0  0  0  0  0  0  0  0  0
  -27.9699  -27.6397   17.8469 C   0  0  0  0  0  0  0  0  0  0  0  0
  -27.9902  -27.3112   20.2404 C   0  0  0  0  0  0  0  0  0  0  0  0
  -20.6847  -16.2353   20.6066 C   0  0  0  0  0  0  0  0  0  0  0  0
  -24.9020  -28.6665   20.0012 C   0  0  0  0  0  0  0  0  0  0  0  0
  -23.8428  -28.7622   20.9037 C   0  0  0  0  0  0  0  0  0  0  0  0
  -22.9198  -16.9667   21.1440 C   0  0  0  0  0  0  0  0  0  0  0  0
  -26.6226  -12.0301   20.8890 C   0  0  0  0  0  0  0  0  0  0  0  0
  -25.0987  -30.3617   22.2081 C   0  0  0  0  0  0  0  0  0  0  0  0
  -28.8645  -25.5979   18.7785 C   0  0  0  0  0  0  0  0  0  0  0  0
  -30.8493  -24.0124   18.5449 C   0  0  0  0  0  0  0  0  0  0  0  0
  -21.4746  -25.5093   17.6294 C   0  0  0  0  0  0  0  0  0  0  0  0
  -21.0994  -18.5623   21.1616 C   0  0  0  0  0  0  0  0  0  0  0  0
  -21.0810  -24.1586   17.6852 C   0  0  0  0  0  0  0  0  0  0  0  0
  -22.4596  -18.2768   21.3470 C   0  0  0  0  0  0  0  0  0  0  0  0
  -26.8226  -12.3569   19.5478 C   0  0  0  0  0  0  0  0  0  0  0  0
  -28.4246  -14.0445   20.1978 C   0  0  0  0  0  0  0  0  0  0  0  0
  -27.6853  -28.1013   19.1320 C   0  0  0  0  0  0  0  0  0  0  0  0
  -22.0371  -15.9523   20.7742 C   0  0  0  0  0  0  0  0  0  0  0  0
  -26.0597  -29.4183   20.2022 C   0  0  0  0  0  0  0  0  0  0  0  0
  -23.9411  -29.6098   22.0071 C   0  0  0  0  0  0  0  0  0  0  0  0
  -26.1580  -30.2659   21.3056 C   0  0  0  0  0  0  0  0  0  0  0  0
  -27.3236  -12.7106   21.8846 C   0  0  0  0  0  0  0  0  0  0  0  0
  -27.7236  -13.3641   19.2022 C   0  0  0  0  0  0  0  0  0  0  0  0
  -28.2246  -13.7178   21.5391 C   0  0  0  0  0  0  0  0  0  0  0  0
  -29.4731  -24.3047   18.5965 C   0  0  0  0  0  0  0  0  0  0  0  0
  -30.9048  -22.6527   18.3586 C   0  0  0  0  0  0  0  0  0  0  0  0
  -31.9766  -24.8914   18.6555 C   0  0  0  0  0  0  0  0  0  0  0  0
  -22.0178  -21.2970   19.8267 C   0  0  0  0  0  0  0  0  0  0  0  0
  -23.5756  -21.6975   22.6437 C   0  0  0  0  0  0  0  0  0  0  0  0
  -24.9769  -20.2689   25.4081 C   0  0  0  0  0  0  0  0  0  0  0  0
  -29.2661  -17.6004   19.6760 C   0  0  0  0  0  0  0  0  0  0  0  0
  -22.9018  -25.9304   17.8754 C   0  0  0  0  0  0  0  0  0  0  0  0
  -20.5740  -19.9521   21.3960 C   0  0  0  0  0  0  0  0  0  0  0  0
  -23.4455  -19.3413   21.7512 C   0  0  0  0  0  0  0  0  0  0  0  0
  -23.7335  -24.8723   18.5958 C   0  0  0  0  0  0  0  0  0  0  0  0
  -27.2644  -19.3335   17.2089 C   0  0  0  0  0  0  0  0  0  0  0  0
  -23.5175  -23.5013   17.9629 C   0  0  0  0  0  0  0  0  0  0  0  0
  -27.7812  -20.7664   17.3500 C   0  0  0  0  0  0  0  0  0  0  0  0
  -27.1960  -18.6346   18.5635 C   0  0  0  0  0  0  0  0  0  0  0  0
  -29.0000  -20.0549   19.4591 C   0  0  0  0  0  0  0  0  0  0  0  0
  -22.0516  -23.0658   18.0772 C   0  0  1  0  0  0  0  0  0  0  0  0
  -21.6469  -21.0277   21.2577 C   0  0  1  0  0  0  0  0  0  0  0  0
  -29.1137  -20.8081   18.1212 C   0  0  2  0  0  0  0  0  0  0  0  0
  -26.2074  -20.8501   27.5166 C   0  0  0  0  0  0  0  0  0  0  0  0
  -21.2076  -12.6638   20.3378 C   0  0  0  0  0  0  0  0  0  0  0  0
  -26.1196  -22.1687   21.0263 C   0  0  0  0  0  0  0  0  0  0  0  0
  -27.4378  -21.7955   23.1218 C   0  0  0  0  0  0  0  0  0  0  0  0
  -25.8299  -23.6977   22.9840 C   0  0  0  0  0  0  0  0  0  0  0  0
  -22.8431  -19.1209   27.1075 C   0  0  0  0  0  0  0  0  0  0  0  0
  -26.0466  -11.5972   18.5111 C   0  0  0  0  0  0  0  0  0  0  0  0
  -29.3925  -15.1266   19.8221 C   0  0  0  0  0  0  0  0  0  0  0  0
  -24.8847  -12.3830   17.9119 C   0  0  0  0  0  0  0  0  0  0  0  0
  -22.7445  -13.5349   18.4877 C   0  0  0  0  0  0  0  0  0  0  0  0
  -24.9441  -21.3370   23.1692 C   0  0  1  0  0  0  0  0  0  0  0  0
  -24.8477  -20.5943   26.8853 C   0  0  2  0  0  0  0  0  0  0  0  0
  -21.7997  -13.8783   19.6348 C   0  0  2  0  0  0  0  0  0  1  0  0
  -26.0649  -22.2298   22.5658 C   0  0  0  0  0  0  0  0  0  0  0  0
  -28.7095  -23.2181   18.4543 N   0  0  0  0  0  0  0  0  0  0  0  0
  -29.6090  -22.2298   18.3114 N   0  0  0  0  0  0  0  0  0  0  0  0
  -22.8842  -20.6858   21.9624 N   0  0  0  0  0  0  0  0  0  0  0  0
  -28.5008  -18.6937   19.2374 N   0  0  0  0  0  0  0  0  0  0  0  0
  -31.9351  -21.7897   18.2321 N   0  0  0  0  0  0  0  0  0  0  0  0
  -31.7407  -26.2599   18.8446 N   0  0  0  0  0  0  0  0  0  0  0  0
  -21.7679  -22.5921   19.4149 N   0  0  0  0  0  0  0  0  0  0  0  0
  -24.8513  -21.3961   24.6240 N   0  0  0  0  0  0  0  0  0  0  0  0
  -28.7194  -16.3461   19.4340 N   0  0  0  0  0  0  0  0  0  0  0  0
  -24.1982  -19.4653   27.6095 N   0  3  0  0  0  0  0  0  0  0  0  0
  -23.8866  -12.7158   18.9644 N   0  3  0  0  0  0  0  0  0  0  0  0
  -33.1579  -24.4778   18.5723 O   0  0  0  0  0  0  0  0  0  0  0  0
  -22.4967  -20.3968   19.1471 O   0  0  0  0  0  0  0  0  0  0  0  0
  -23.1334  -22.8328   22.8369 O   0  0  0  0  0  0  0  0  0  0  0  0
  -25.1736  -19.1294   24.9918 O   0  0  0  0  0  0  0  0  0  0  0  0
  -30.3592  -17.7320   20.2373 O   0  0  0  0  0  0  0  0  0  0  0  0
  -27.1101  -29.3227   19.3049 O   0  0  0  0  0  0  0  0  0  0  0  0
  -22.4970  -14.6860   20.5823 O   0  0  0  0  0  0  0  0  0  1  0  0
  -22.9233  -29.7028   22.8728 F   0  0  0  0  0  0  0  0  0  0  0  0
  -27.2671  -30.9916   21.5033 F   0  0  0  0  0  0  0  0  0  0  0  0
  -27.0261  -12.2535   23.5263 Cl  0  0  0  0  0  0  0  0  0  0  0  0
  -27.9667  -13.7636   17.5333 Cl  0  0  0  0  0  0  0  0  0  0  0  0
  -29.1047  -14.5758   22.7654 Cl  0  0  0  0  0  0  0  0  0  0  0  0
  1  2  1  0  0  0  0
  1  5  2  0  0  0  0
  2  6  2  0  0  0  0
  3  8  2  0  0  0  0
  3 16  1  0  0  0  0
  4  9  1  0  0  0  0
  4 16  2  0  0  0  0
  5 18  1  0  0  0  0
  6 20  1  0  0  0  0
  7 10  2  0  0  0  0
  7 19  1  0  0  0  0
  8 24  1  0  0  0  0
  9 24  2  0  0  0  0
 10 25  1  0  0  0  0
 11 12  2  0  0  0  0
 11 26  1  0  0  0  0
 12 27  1  0  0  0  0
 13 21  1  0  0  0  0
 13 25  2  0  0  0  0
 14 22  1  0  0  0  0
 14 29  2  0  0  0  0
 15 27  2  0  0  0  0
 15 28  1  0  0  0  0
 16 32  1  0  0  0  0
 17 32  1  0  0  0  0
 17 33  2  0  0  0  0
 17 34  1  0  0  0  0
 18 20  2  0  0  0  0
 18 39  1  0  0  0  0
 19 21  2  0  0  0  0
 19 40  1  0  0  0  0
 20 48  1  0  0  0  0
 21 41  1  0  0  0  0
 22 30  2  0  0  0  0
 22 57  1  0  0  0  0
 23 30  1  0  0  0  0
 23 31  2  0  0  0  0
 23 58  1  0  0  0  0
 24 81  1  0  0  0  0
 25 82  1  0  0  0  0
 26 28  2  0  0  0  0
 26 81  1  0  0  0  0
 27 83  1  0  0  0  0
 28 84  1  0  0  0  0
 29 31  1  0  0  0  0
 29 85  1  0  0  0  0
 30 86  1  0  0  0  0
 31 87  1  0  0  0  0
 32 65  2  0  0  0  0
 33 66  1  0  0  0  0
 33 69  1  0  0  0  0
 34 70  1  0  0  0  0
 34 76  2  0  0  0  0
 35 49  1  0  0  0  0
 35 71  1  0  0  0  0
 35 77  2  0  0  0  0
 36 61  1  0  0  0  0
 36 67  1  0  0  0  0
 36 78  2  0  0  0  0
 37 62  1  0  0  0  0
 37 72  1  0  0  0  0
 37 79  2  0  0  0  0
 38 68  1  0  0  0  0
 38 73  1  0  0  0  0
 38 80  2  0  0  0  0
 39 42  1  0  0  0  0
 40 49  1  0  0  0  0
 41 67  1  0  0  0  0
 42 44  1  0  0  0  0
 43 45  1  0  0  0  0
 43 46  1  0  0  0  0
 44 48  1  0  0  0  0
 45 50  1  0  0  0  0
 46 68  1  0  0  0  0
 47 50  1  0  0  0  0
 47 68  1  0  0  0  0
 48 71  1  0  0  0  0
 49 67  1  0  0  0  0
 50 66  1  0  0  0  0
 51 62  1  0  0  0  0
 52 63  1  0  0  0  0
 53 64  1  0  0  0  0
 54 64  1  0  0  0  0
 55 64  1  0  0  0  0
 56 74  1  0  0  0  0
 57 59  1  0  0  0  0
 58 73  1  0  0  0  0
 59 75  1  0  0  0  0
 60 63  1  0  0  0  0
 60 75  1  0  0  0  0
 61 64  1  0  0  0  0
 61 72  1  0  0  0  0
 62 74  1  0  0  0  0
 63 82  1  0  0  0  0
 65 66  1  0  0  0  0
M  CHG  2  74   1  75   1
M  ISO  4  38 100  63 101  73 100  82 101
M  END
> <Batch ID>
0023

> <Smiles>
CNC(C)C(=O)NC(C(=O)N1Cc2cc([101O:1][101CH:1](C)CNCCc3cc(Cl)c(Cl)c(C[100NH:0][100C:0](=O)N4CCCC(n5nc(-c6ccc(Oc7ccc(F)cc7F)cc6)c(C(N)=O)c5N)C4)c3Cl)ccc2CC1C(=O)NC1CCCc2ccccc21)C(C)(C)C

> <Shape>
0.179

> <Color>
0.064

> <Negative vol penalty>
0.000

$$$$

  -OEChem-04052316193D

 84 93  0     1  0  0  0  0  0999 V2000
  -39.1852  -22.1706   23.1652 C   0  0  0  0  0  0  0  0  0  0  0  0
  -38.1351  -22.0959   22.2557 C   0  0  0  0  0  0  0  0  0  0  0  0
  -23.1167   -9.8371   19.9172 C   0  0  0  0  0  0  0  0  0  0  0  0
  -23.8252   -9.8595   22.2269 C   0  0  0  0  0  0  0  0  0  0  0  0
  -38.9182  -22.2981   24.5276 C   0  0  0  0  0  0  0  0  0  0  0  0
  -36.8172  -22.1476   22.7084 C   0  0  0  0  0  0  0  0  0  0  0  0
  -32.0422  -24.7089   19.8545 C   0  0  0  0  0  0  0  0  0  0  0  0
  -22.3842   -8.6738   20.1532 C   0  0  0  0  0  0  0  0  0  0  0  0
  -23.0927   -8.6962   22.4629 C   0  0  0  0  0  0  0  0  0  0  0  0
  -31.0236  -24.1747   19.0664 C   0  0  0  0  0  0  0  0  0  0  0  0
  -19.8638   -7.8529   22.9954 C   0  0  0  0  0  0  0  0  0  0  0  0
  -19.0816   -7.8042   24.1493 C   0  0  0  0  0  0  0  0  0  0  0  0
  -29.5849  -24.0805   21.0004 C   0  0  0  0  0  0  0  0  0  0  0  0
  -28.9134  -18.5565   19.3090 C   0  0  0  0  0  0  0  0  0  0  0  0
  -20.3342   -5.8864   24.9175 C   0  0  0  0  0  0  0  0  0  0  0  0
  -31.1125  -19.7905   20.3465 C   0  0  0  0  0  0  0  0  0  0  0  0
  -23.8373  -10.4299   20.9541 C   0  0  0  0  0  0  0  0  0  0  0  0
  -24.1452  -12.9595   20.8360 C   0  0  0  0  0  0  0  0  0  0  0  0
  -37.5964  -22.3611   24.9964 C   0  0  0  0  0  0  0  0  0  0  0  0
  -31.8430  -24.9231   21.2259 C   0  0  0  0  0  0  0  0  0  0  0  0
  -36.5322  -22.2747   24.0786 C   0  0  0  0  0  0  0  0  0  0  0  0
  -30.6016  -24.6199   21.8032 C   0  0  0  0  0  0  0  0  0  0  0  0
  -29.6808  -17.8799   20.2607 C   0  0  0  0  0  0  0  0  0  0  0  0
  -30.8014  -18.5157   20.8100 C   0  0  0  0  0  0  0  0  0  0  0  0
  -22.3721   -8.1033   21.4260 C   0  0  0  0  0  0  0  0  0  0  0  0
  -29.7958  -23.8578   19.6399 C   0  0  0  0  0  0  0  0  0  0  0  0
  -20.8811   -6.9182   22.8025 C   0  0  0  0  0  0  0  0  0  0  0  0
  -19.3168   -6.8210   25.1103 C   0  0  0  0  0  0  0  0  0  0  0  0
  -21.1163   -5.9350   23.7635 C   0  0  0  0  0  0  0  0  0  0  0  0
  -24.5946  -11.6313   20.7108 C   0  0  0  0  0  0  0  0  0  0  0  0
  -29.3081  -19.8288   18.9282 C   0  0  0  0  0  0  0  0  0  0  0  0
  -25.2342  -13.7241   20.4954 C   0  0  0  0  0  0  0  0  0  0  0  0
  -22.8584  -13.4577   21.2255 C   0  0  0  0  0  0  0  0  0  0  0  0
  -33.1753  -23.8069   23.8873 C   0  0  0  0  0  0  0  0  0  0  0  0
  -31.2613  -26.0088   25.3052 C   0  0  0  0  0  0  0  0  0  0  0  0
  -28.4433  -27.9276   25.1497 C   0  0  0  0  0  0  0  0  0  0  0  0
  -30.7992  -14.5507   21.2187 C   0  0  0  0  0  0  0  0  0  0  0  0
  -37.3568  -22.4516   26.4826 C   0  0  0  0  0  0  0  0  0  0  0  0
  -32.9429  -25.5249   22.0569 C   0  0  0  0  0  0  0  0  0  0  0  0
  -31.6761  -17.8308   21.8223 C   0  0  0  0  0  0  0  0  0  0  0  0
  -30.3303  -24.8498   23.2668 C   0  0  0  0  0  0  0  0  0  0  0  0
  -29.2623  -16.4994   20.7063 C   0  0  0  0  0  0  0  0  0  0  0  0
  -35.9362  -22.8761   26.8458 C   0  0  0  0  0  0  0  0  0  0  0  0
  -29.6510  -12.4524   18.4006 C   0  0  0  0  0  0  0  0  0  0  0  0
  -34.9179  -22.0869   26.0291 C   0  0  0  0  0  0  0  0  0  0  0  0
  -28.2170  -12.1092   18.8025 C   0  0  0  0  0  0  0  0  0  0  0  0
  -30.5413  -12.6876   19.6174 C   0  0  0  0  0  0  0  0  0  0  0  0
  -28.5815  -13.3613   20.9644 C   0  0  0  0  0  0  0  0  0  0  0  0
  -35.0894  -22.3523   24.5285 C   0  0  1  0  0  0  0  0  0  0  0  0
  -32.8015  -25.2215   23.5453 C   0  0  1  0  0  0  0  0  0  0  0  0
  -27.6465  -13.1689   19.7615 C   0  0  2  0  0  0  0  0  0  0  0  0
  -30.9732  -16.6589   22.5224 C   0  0  1  0  0  0  0  0  0  0  0  0
  -30.0172  -17.1251   23.6256 C   0  0  0  0  0  0  0  0  0  0  0  0
  -27.1224  -29.5988   26.4761 C   0  0  0  0  0  0  0  0  0  0  0  0
  -30.1934  -23.7605   27.0701 C   0  0  0  0  0  0  0  0  0  0  0  0
  -28.2695  -25.2437   27.6756 C   0  0  0  0  0  0  0  0  0  0  0  0
  -30.5973  -25.9210   28.2632 C   0  0  0  0  0  0  0  0  0  0  0  0
  -28.7923  -30.0172   23.0831 C   0  0  0  0  0  0  0  0  0  0  0  0
  -28.5063  -20.5690   17.9102 C   0  0  0  0  0  0  0  0  0  0  0  0
  -27.3806  -21.4331   18.4994 C   0  0  0  0  0  0  0  0  0  0  0  0
  -27.8791  -22.4554   19.5142 C   0  0  0  0  0  0  0  0  0  1  0  0
  -29.8529  -26.0095   25.8487 C   0  0  1  0  0  0  0  0  0  0  0  0
  -28.2109  -29.4008   25.4327 C   0  0  2  0  0  0  0  0  0  0  0  0
  -29.7337  -25.2274   27.1872 C   0  0  0  0  0  0  0  0  0  0  0  0
  -30.3925  -20.4636   19.4215 N   0  0  0  0  0  0  0  0  0  0  0  0
  -25.8697  -11.5530   20.3209 N   0  0  0  0  0  0  0  0  0  0  0  0
  -26.2308  -12.8417   20.1981 N   0  0  0  0  0  0  0  0  0  0  0  0
  -31.4394  -25.4343   24.0387 N   0  0  0  0  0  0  0  0  0  0  0  0
  -30.2806  -15.8214   21.5280 N   0  0  0  0  0  0  0  0  0  0  0  0
  -29.9516  -13.6681   20.5292 N   0  0  0  0  0  0  0  0  0  0  0  0
  -25.4270  -15.0583   20.4241 N   0  0  0  0  0  0  0  0  0  0  0  0
  -21.8525  -12.5346   21.5422 N   0  0  0  0  0  0  0  0  0  0  0  0
  -34.5160  -23.6326   24.1729 N   0  0  0  0  0  0  0  0  0  0  0  0
  -29.4499  -27.4089   25.9364 N   0  0  0  0  0  0  0  0  0  0  0  0
  -27.8024  -30.1094   24.1870 N   0  3  0  0  0  0  0  0  0  0  0  0
  -22.6032  -14.6849   21.2748 O   0  0  0  0  0  0  0  0  0  0  0  0
  -32.3110  -22.9382   23.8932 O   0  0  0  0  0  0  0  0  0  0  0  0
  -32.1688  -26.5062   25.9765 O   0  0  0  0  0  0  0  0  0  0  0  0
  -27.7941  -27.2988   24.3167 O   0  0  0  0  0  0  0  0  0  0  0  0
  -31.9524  -14.2263   21.5286 O   0  0  0  0  0  0  0  0  0  0  0  0
  -21.6572   -6.9683   21.6567 O   0  0  0  0  0  0  0  0  0  0  0  0
  -28.7931  -23.3320   18.8678 O   0  0  0  0  0  0  0  0  0  1  0  0
  -18.5667   -6.7754   26.2191 F   0  0  0  0  0  0  0  0  0  0  0  0
  -22.0930   -5.0351   23.5843 F   0  0  0  0  0  0  0  0  0  0  0  0
  1  2  1  0  0  0  0
  1  5  2  0  0  0  0
  2  6  2  0  0  0  0
  3  8  2  0  0  0  0
  3 17  1  0  0  0  0
  4  9  1  0  0  0  0
  4 17  2  0  0  0  0
  5 19  1  0  0  0  0
  6 21  1  0  0  0  0
  7 10  2  0  0  0  0
  7 20  1  0  0  0  0
  8 25  1  0  0  0  0
  9 25  2  0  0  0  0
 10 26  1  0  0  0  0
 11 12  2  0  0  0  0
 11 27  1  0  0  0  0
 12 28  1  0  0  0  0
 13 22  1  0  0  0  0
 13 26  2  0  0  0  0
 14 23  2  0  0  0  0
 14 31  1  0  0  0  0
 15 28  2  0  0  0  0
 15 29  1  0  0  0  0
 16 24  2  0  0  0  0
 16 65  1  0  0  0  0
 17 30  1  0  0  0  0
 18 30  1  0  0  0  0
 18 32  2  0  0  0  0
 18 33  1  0  0  0  0
 19 21  2  0  0  0  0
 19 38  1  0  0  0  0
 20 22  2  0  0  0  0
 20 39  1  0  0  0  0
 21 49  1  0  0  0  0
 22 41  1  0  0  0  0
 23 24  1  0  0  0  0
 23 42  1  0  0  0  0
 24 40  1  0  0  0  0
 25 81  1  0  0  0  0
 26 82  1  0  0  0  0
 27 29  2  0  0  0  0
 27 81  1  0  0  0  0
 28 83  1  0  0  0  0
 29 84  1  0  0  0  0
 30 66  2  0  0  0  0
 31 59  1  0  0  0  0
 31 65  2  0  0  0  0
 32 67  1  0  0  0  0
 32 71  1  0  0  0  0
 33 72  1  0  0  0  0
 33 76  2  0  0  0  0
 34 50  1  0  0  0  0
 34 73  1  0  0  0  0
 34 77  2  0  0  0  0
 35 62  1  0  0  0  0
 35 68  1  0  0  0  0
 35 78  2  0  0  0  0
 36 63  1  0  0  0  0
 36 74  1  0  0  0  0
 36 79  2  0  0  0  0
 37 69  1  0  0  0  0
 37 70  1  0  0  0  0
 37 80  2  0  0  0  0
 38 43  1  0  0  0  0
 39 50  1  0  0  0  0
 40 52  1  0  0  0  0
 41 68  1  0  0  0  0
 42 69  1  0  0  0  0
 43 45  1  0  0  0  0
 44 46  1  0  0  0  0
 44 47  1  0  0  0  0
 45 49  1  0  0  0  0
 46 51  1  0  0  0  0
 47 70  1  0  0  0  0
 48 51  1  0  0  0  0
 48 70  1  0  0  0  0
 49 73  1  0  0  0  0
 50 68  1  0  0  0  0
 51 67  1  0  0  0  0
 52 53  1  0  0  0  0
 52 69  1  0  0  0  0
 54 63  1  0  0  0  0
 55 64  1  0  0  0  0
 56 64  1  0  0  0  0
 57 64  1  0  0  0  0
 58 75  1  0  0  0  0
 59 60  1  0  0  0  0
 60 61  1  0  0  0  0
 61 82  1  0  0  0  0
 62 64  1  0  0  0  0
 62 74  1  0  0  0  0
 63 75  1  0  0  0  0
 66 67  1  0  0  0  0
M  CHG  1  75   1
M  ISO  4  37 100  61 101  69 100  82 101
M  END
> <Batch ID>
0023

> <Smiles>
CNC(C)C(=O)NC(C(=O)N1Cc2cc([101O:1][101CH2:1]CCc3cc4c(cn3)CC(C)[100N:0]([100C:0](=O)N3CCCC(n5nc(-c6ccc(Oc7ccc(F)cc7F)cc6)c(C(N)=O)c5N)C3)C4)ccc2CC1C(=O)NC1CCCc2ccccc21)C(C)(C)C

> <Shape>
0.250

> <Color>
0.205

> <Negative vol penalty>
0.000

$$$$

  -OEChem-04052316193D

 93101  0     1  0  0  0  0  0999 V2000
  -29.9246  -12.3006   19.5366 C   0  0  0  0  0  0  0  0  0  0  0  0
  -29.6905  -13.6087   19.1249 C   0  0  0  0  0  0  0  0  0  0  0  0
  -20.0148  -27.7827   23.8293 C   0  0  0  0  0  0  0  0  0  0  0  0
  -20.5299  -28.0332   21.4822 C   0  0  0  0  0  0  0  0  0  0  0  0
  -28.8662  -11.5128   19.9872 C   0  0  0  0  0  0  0  0  0  0  0  0
  -28.3976  -14.1295   19.1627 C   0  0  0  0  0  0  0  0  0  0  0  0
  -28.2424  -18.8056   21.1003 C   0  0  0  0  0  0  0  0  0  0  0  0
  -18.6604  -27.9680   23.5519 C   0  0  0  0  0  0  0  0  0  0  0  0
  -19.1755  -28.2185   21.2047 C   0  0  0  0  0  0  0  0  0  0  0  0
  -28.6324  -19.8533   20.2672 C   0  0  0  0  0  0  0  0  0  0  0  0
  -16.5806  -30.5544   22.9118 C   0  0  0  0  0  0  0  0  0  0  0  0
  -15.8608  -31.4117   23.7438 C   0  0  0  0  0  0  0  0  0  0  0  0
  -26.3148  -20.3578   19.8271 C   0  0  0  0  0  0  0  0  0  0  0  0
  -30.0714  -25.2934   16.1453 C   0  0  0  0  0  0  0  0  0  0  0  0
  -30.0510  -24.2616   18.3298 C   0  0  0  0  0  0  0  0  0  0  0  0
  -14.3860  -29.5937   24.3413 C   0  0  0  0  0  0  0  0  0  0  0  0
  -20.9495  -27.8153   22.7945 C   0  0  0  0  0  0  0  0  0  0  0  0
  -23.0530  -26.4058   23.1048 C   0  0  0  0  0  0  0  0  0  0  0  0
  -27.5611  -12.0273   20.0396 C   0  0  0  0  0  0  0  0  0  0  0  0
  -26.8836  -18.5188   21.2948 C   0  0  0  0  0  0  0  0  0  0  0  0
  -27.3204  -13.3474   19.6132 C   0  0  0  0  0  0  0  0  0  0  0  0
  -25.9103  -19.3076   20.6652 C   0  0  0  0  0  0  0  0  0  0  0  0
  -30.2577  -25.3819   17.5248 C   0  0  0  0  0  0  0  0  0  0  0  0
  -29.6783  -24.0847   15.5707 C   0  0  0  0  0  0  0  0  0  0  0  0
  -29.6581  -23.0528   17.7552 C   0  0  0  0  0  0  0  0  0  0  0  0
  -18.2408  -28.1859   22.2396 C   0  0  0  0  0  0  0  0  0  0  0  0
  -27.6686  -20.6278   19.6282 C   0  0  0  0  0  0  0  0  0  0  0  0
  -16.2031  -29.2167   22.7944 C   0  0  0  0  0  0  0  0  0  0  0  0
  -14.7636  -30.9314   24.4586 C   0  0  0  0  0  0  0  0  0  0  0  0
  -15.1059  -28.7364   23.5092 C   0  0  0  0  0  0  0  0  0  0  0  0
  -29.4717  -22.9644   16.3756 C   0  0  0  0  0  0  0  0  0  0  0  0
  -22.3488  -27.6245   23.0805 C   0  0  0  0  0  0  0  0  0  0  0  0
  -24.3410  -26.7598   23.4244 C   0  0  0  0  0  0  0  0  0  0  0  0
  -22.5848  -25.0729   22.8602 C   0  0  0  0  0  0  0  0  0  0  0  0
  -25.0121  -16.0182   20.7048 C   0  0  0  0  0  0  0  0  0  0  0  0
  -22.8101  -17.7821   22.3054 C   0  0  0  0  0  0  0  0  0  0  0  0
  -21.7465  -20.8623   23.3192 C   0  0  0  0  0  0  0  0  0  0  0  0
  -27.4659  -31.8220   22.7460 C   0  0  0  0  0  0  0  0  0  0  0  0
  -26.4416  -11.1225   20.4896 C   0  0  0  0  0  0  0  0  0  0  0  0
  -26.4790  -17.4021   22.2177 C   0  0  0  0  0  0  0  0  0  0  0  0
  -24.4381  -19.0536   20.8569 C   0  0  0  0  0  0  0  0  0  0  0  0
  -25.1616  -11.8712   20.8520 C   0  0  0  0  0  0  0  0  0  0  0  0
  -26.8314  -30.0896   25.7911 C   0  0  0  0  0  0  0  0  0  0  0  0
  -24.8262  -12.9045   19.7813 C   0  0  0  0  0  0  0  0  0  0  0  0
  -25.6742  -29.1514   25.4439 C   0  0  0  0  0  0  0  0  0  0  0  0
  -26.7064  -31.4305   25.0712 C   0  0  0  0  0  0  0  0  0  0  0  0
  -25.3919  -30.3972   23.2606 C   0  0  0  0  0  0  0  0  0  0  0  0
  -25.9359  -13.9562   19.6627 C   0  0  1  0  0  0  0  0  0  0  0  0
  -25.0752  -16.8746   21.9378 C   0  0  1  0  0  0  0  0  0  0  0  0
  -25.5038  -29.0116   23.9192 C   0  0  2  0  0  0  0  0  0  0  0  0
  -19.8933  -21.9897   24.5809 C   0  0  0  0  0  0  0  0  0  0  0  0
  -29.3951  -22.0972   11.6791 C   0  0  0  0  0  0  0  0  0  0  0  0
  -20.9598  -17.4200   19.9064 C   0  0  0  0  0  0  0  0  0  0  0  0
  -19.5622  -19.3005   20.7888 C   0  0  0  0  0  0  0  0  0  0  0  0
  -19.8357  -17.2157   22.1310 C   0  0  0  0  0  0  0  0  0  0  0  0
  -32.7007  -24.2390   11.5557 C   0  0  0  0  0  0  0  0  0  0  0  0
  -32.4702  -21.7617   11.6114 C   0  0  0  0  0  0  0  0  0  0  0  0
  -31.6275  -23.0476    9.6400 C   0  0  0  0  0  0  0  0  0  0  0  0
  -23.6195  -21.9282   25.3477 C   0  0  0  0  0  0  0  0  0  0  0  0
  -30.6779  -26.6742   18.1392 C   0  0  0  0  0  0  0  0  0  0  0  0
  -29.4905  -24.0364   14.0883 C   0  0  0  0  0  0  0  0  0  0  0  0
  -29.4473  -21.8743   18.6596 C   0  0  0  0  0  0  0  0  0  1  0  0
  -29.5118  -27.5874   18.5597 C   0  0  0  0  0  0  0  0  0  0  0  0
  -29.9839  -28.9312   19.1239 C   0  0  0  0  0  0  0  0  0  0  0  0
  -28.7973  -29.8198   19.5056 C   0  0  0  0  0  0  0  0  0  0  0  0
  -29.2689  -31.1782   20.0328 C   0  0  0  0  0  0  0  0  0  0  0  0
  -28.1099  -32.1116   20.3668 C   0  0  0  0  0  0  0  0  0  0  0  0
  -21.7812  -18.8162   21.9169 C   0  0  1  0  0  0  0  0  0  0  0  0
  -21.2803  -21.3725   24.6708 C   0  0  2  0  0  0  0  0  0  0  0  0
  -30.4012  -23.2242   11.9089 C   0  0  2  0  0  0  0  0  0  0  0  0
  -20.5624  -18.1919   21.1804 C   0  0  0  0  0  0  0  0  0  0  0  0
  -31.7702  -23.0675   11.1741 C   0  0  0  0  0  0  0  0  0  0  0  0
  -23.1250  -28.6743   23.3624 N   0  0  0  0  0  0  0  0  0  0  0  0
  -24.3303  -28.1162   23.5669 N   0  0  0  0  0  0  0  0  0  0  0  0
  -24.0929  -17.9465   21.7639 N   0  0  0  0  0  0  0  0  0  0  0  0
  -26.5492  -31.2277   23.6289 N   0  0  0  0  0  0  0  0  0  0  0  0
  -25.4704  -26.0401   23.5947 N   0  0  0  0  0  0  0  0  0  0  0  0
  -21.2319  -24.8874   22.5443 N   0  0  0  0  0  0  0  0  0  0  0  0
  -25.8421  -14.9140   20.7436 N   0  0  0  0  0  0  0  0  0  0  0  0
  -21.4375  -19.5303   23.1418 N   0  0  0  0  0  0  0  0  0  0  0  0
  -27.2483  -31.5743   21.3962 N   0  0  0  0  0  0  0  0  0  0  0  0
  -22.2219  -22.4057   25.1874 N   0  3  0  0  0  0  0  0  0  0  0  0
  -30.5939  -23.3348   13.3790 N   0  3  0  0  0  0  0  0  0  0  0  0
  -23.3400  -24.0742   22.9362 O   0  0  0  0  0  0  0  0  0  0  0  0
  -24.2647  -16.3349   19.7868 O   0  0  0  0  0  0  0  0  0  0  0  0
  -22.4895  -16.8664   23.0672 O   0  0  0  0  0  0  0  0  0  0  0  0
  -22.3236  -21.5752   22.5010 O   0  0  0  0  0  0  0  0  0  0  0  0
  -28.4116  -32.5173   23.1324 O   0  0  0  0  0  0  0  0  0  0  0  0
  -16.9193  -28.3665   21.9685 O   0  0  0  0  0  0  0  0  0  0  0  0
  -28.0465  -21.6506   18.8140 O   0  0  0  0  0  0  0  0  0  1  0  0
  -14.0734  -31.7545   25.2588 F   0  0  0  0  0  0  0  0  0  0  0  0
  -14.7391  -27.4519   23.4014 F   0  0  0  0  0  0  0  0  0  0  0  0
  -28.9836  -21.4637   15.6623 Cl  0  0  0  0  0  0  0  0  0  0  0  0
  1  2  1  0  0  0  0
  1  5  2  0  0  0  0
  2  6  2  0  0  0  0
  3  8  2  0  0  0  0
  3 17  1  0  0  0  0
  4  9  1  0  0  0  0
  4 17  2  0  0  0  0
  5 19  1  0  0  0  0
  6 21  1  0  0  0  0
  7 10  2  0  0  0  0
  7 20  1  0  0  0  0
  8 26  1  0  0  0  0
  9 26  2  0  0  0  0
 10 27  1  0  0  0  0
 11 12  2  0  0  0  0
 11 28  1  0  0  0  0
 12 29  1  0  0  0  0
 13 22  1  0  0  0  0
 13 27  2  0  0  0  0
 14 23  1  0  0  0  0
 14 24  2  0  0  0  0
 15 23  2  0  0  0  0
 15 25  1  0  0  0  0
 16 29  2  0  0  0  0
 16 30  1  0  0  0  0
 17 32  1  0  0  0  0
 18 32  1  0  0  0  0
 18 33  2  0  0  0  0
 18 34  1  0  0  0  0
 19 21  2  0  0  0  0
 19 39  1  0  0  0  0
 20 22  2  0  0  0  0
 20 40  1  0  0  0  0
 21 48  1  0  0  0  0
 22 41  1  0  0  0  0
 23 60  1  0  0  0  0
 24 31  1  0  0  0  0
 24 61  1  0  0  0  0
 25 31  2  0  0  0  0
 25 62  1  0  0  0  0
 26 89  1  0  0  0  0
 27 90  1  0  0  0  0
 28 30  2  0  0  0  0
 28 89  1  0  0  0  0
 29 91  1  0  0  0  0
 30 92  1  0  0  0  0
 31 93  1  0  0  0  0
 32 73  2  0  0  0  0
 33 74  1  0  0  0  0
 33 77  1  0  0  0  0
 34 78  1  0  0  0  0
 34 84  2  0  0  0  0
 35 49  1  0  0  0  0
 35 79  1  0  0  0  0
 35 85  2  0  0  0  0
 36 68  1  0  0  0  0
 36 75  1  0  0  0  0
 36 86  2  0  0  0  0
 37 69  1  0  0  0  0
 37 80  1  0  0  0  0
 37 87  2  0  0  0  0
 38 76  1  0  0  0  0
 38 81  1  0  0  0  0
 38 88  2  0  0  0  0
 39 42  1  0  0  0  0
 40 49  1  0  0  0  0
 41 75  1  0  0  0  0
 42 44  1  0  0  0  0
 43 45  1  0  0  0  0
 43 46  1  0  0  0  0
 44 48  1  0  0  0  0
 45 50  1  0  0  0  0
 46 76  1  0  0  0  0
 47 50  1  0  0  0  0
 47 76  1  0  0  0  0
 48 79  1  0  0  0  0
 49 75  1  0  0  0  0
 50 74  1  0  0  0  0
 51 69  1  0  0  0  0
 52 70  1  0  0  0  0
 53 71  1  0  0  0  0
 54 71  1  0  0  0  0
 55 71  1  0  0  0  0
 56 72  1  0  0  0  0
 57 72  1  0  0  0  0
 58 72  1  0  0  0  0
 59 82  1  0  0  0  0
 60 63  1  0  0  0  0
 61 83  1  0  0  0  0
 62 90  1  0  0  0  0
 63 64  1  0  0  0  0
 64 65  1  0  0  0  0
 65 66  1  0  0  0  0
 66 67  1  0  0  0  0
 67 81  1  0  0  0  0
 68 71  1  0  0  0  0
 68 80  1  0  0  0  0
 69 82  1  0  0  0  0
 70 72  1  0  0  0  0
 70 83  1  0  0  0  0
 73 74  1  0  0  0  0
M  CHG  2  82   1  83   1
M  ISO  4  38 100  62 101  81 100  90 101
M  END
> <Batch ID>
0023

> <Smiles>
CNC(C)C(=O)NC(C(=O)N1Cc2cc([101O:1][101CH2:1]c3cc(CCCCCC[100NH:0][100C:0](=O)N4CCCC(n5nc(-c6ccc(Oc7ccc(F)cc7F)cc6)c(C(N)=O)c5N)C4)cc(CNC(C)C(C)(C)C)c3Cl)ccc2CC1C(=O)NC1CCCc2ccccc21)C(C)(C)C

> <Shape>
0.225

> <Color>
0.067

> <Negative vol penalty>
0.000

$$$$

  -OEChem-04052316193D

 82 90  0     1  0  0  0  0  0999 V2000
  -17.2398  -25.0611   24.8487 C   0  0  0  0  0  0  0  0  0  0  0  0
  -17.9982  -24.0996   24.1884 C   0  0  0  0  0  0  0  0  0  0  0  0
  -24.3888  -13.5964   24.1999 C   0  0  0  0  0  0  0  0  0  0  0  0
  -23.6392  -15.4736   22.8765 C   0  0  0  0  0  0  0  0  0  0  0  0
  -17.3951  -26.4095   24.5299 C   0  0  0  0  0  0  0  0  0  0  0  0
  -18.9115  -24.4860   23.2081 C   0  0  0  0  0  0  0  0  0  0  0  0
  -24.3134  -21.8768   21.9760 C   0  0  0  0  0  0  0  0  0  0  0  0
  -23.8868  -14.2064   25.3495 C   0  0  0  0  0  0  0  0  0  0  0  0
  -23.1370  -16.0835   24.0261 C   0  0  0  0  0  0  0  0  0  0  0  0
  -24.7114  -20.9568   21.0070 C   0  0  0  0  0  0  0  0  0  0  0  0
  -21.9776  -18.3001   26.6629 C   0  0  0  0  0  0  0  0  0  0  0  0
  -22.2400  -19.6581   26.8436 C   0  0  0  0  0  0  0  0  0  0  0  0
  -25.4728  -22.7686   19.6082 C   0  0  0  0  0  0  0  0  0  0  0  0
  -26.1001  -18.6102   14.7757 C   0  0  0  0  0  0  0  0  0  0  0  0
  -24.6125  -19.2019   26.8272 C   0  0  0  0  0  0  0  0  0  0  0  0
  -24.2651  -14.2301   22.9634 C   0  0  0  0  0  0  0  0  0  0  0  0
  -24.1031  -12.7210   20.9130 C   0  0  0  0  0  0  0  0  0  0  0  0
  -18.3178  -26.8134   23.5520 C   0  0  0  0  0  0  0  0  0  0  0  0
  -24.4824  -23.2526   21.7634 C   0  0  0  0  0  0  0  0  0  0  0  0
  -19.0783  -25.8409   22.8750 C   0  0  0  0  0  0  0  0  0  0  0  0
  -25.0785  -23.7039   20.5772 C   0  0  0  0  0  0  0  0  0  0  0  0
  -27.2023  -17.7946   15.0318 C   0  0  0  0  0  0  0  0  0  0  0  0
  -28.0001  -18.0316   16.1512 C   0  0  0  0  0  0  0  0  0  0  0  0
  -26.5937  -19.8999   16.7582 C   0  0  0  0  0  0  0  0  0  0  0  0
  -23.2609  -15.4499   25.2626 C   0  0  0  0  0  0  0  0  0  0  0  0
  -25.2886  -21.4028   19.8217 C   0  0  0  0  0  0  0  0  0  0  0  0
  -23.0327  -17.3930   26.5643 C   0  0  0  0  0  0  0  0  0  0  0  0
  -23.5574  -20.1090   26.9258 C   0  0  0  0  0  0  0  0  0  0  0  0
  -24.3501  -17.8439   26.6465 C   0  0  0  0  0  0  0  0  0  0  0  0
  -25.7958  -19.6629   15.6389 C   0  0  0  0  0  0  0  0  0  0  0  0
  -27.6959  -19.0843   17.0144 C   0  0  0  0  0  0  0  0  0  0  0  0
  -24.7840  -13.6008   21.7756 C   0  0  0  0  0  0  0  0  0  0  0  0
  -25.0252  -12.4075   19.9445 C   0  0  0  0  0  0  0  0  0  0  0  0
  -22.7574  -12.2310   20.9811 C   0  0  0  0  0  0  0  0  0  0  0  0
  -22.5228  -25.7454   21.5411 C   0  0  0  0  0  0  0  0  0  0  0  0
  -25.2975  -27.4228   21.4434 C   0  0  0  0  0  0  0  0  0  0  0  0
  -28.6395  -27.4570   20.7528 C   0  0  0  0  0  0  0  0  0  0  0  0
  -29.8641  -15.2451   17.8507 C   0  0  0  0  0  0  0  0  0  0  0  0
  -18.4165  -28.2785   23.2082 C   0  0  0  0  0  0  0  0  0  0  0  0
  -24.0722  -24.2307   22.8299 C   0  0  0  0  0  0  0  0  0  0  0  0
  -25.3006  -25.1692   20.3090 C   0  0  0  0  0  0  0  0  0  0  0  0
  -19.6751  -28.6362   22.4218 C   0  0  0  0  0  0  0  0  0  0  0  0
  -29.7414  -11.9792   19.2632 C   0  0  0  0  0  0  0  0  0  0  0  0
  -19.8937  -27.6438   21.2842 C   0  0  0  0  0  0  0  0  0  0  0  0
  -28.3956  -11.9450   19.9894 C   0  0  0  0  0  0  0  0  0  0  0  0
  -30.3994  -13.3539   19.3584 C   0  0  0  0  0  0  0  0  0  0  0  0
  -28.2071  -14.4435   19.6419 C   0  0  0  0  0  0  0  0  0  0  0  0
  -20.0972  -26.2227   21.8232 C   0  0  1  0  0  0  0  0  0  0  0  0
  -23.8216  -25.6348   22.2885 C   0  0  1  0  0  0  0  0  0  0  0  0
  -27.4791  -13.0934   19.5261 C   0  0  2  0  0  0  0  0  0  0  0  0
  -27.5046  -16.6747   14.0905 C   0  0  0  0  0  0  0  0  0  0  0  0
  -30.6315  -28.9831   20.7338 C   0  0  0  0  0  0  0  0  0  0  0  0
  -24.2805  -28.7143   18.8729 C   0  0  0  0  0  0  0  0  0  0  0  0
  -26.6223  -29.4677   18.4073 C   0  0  0  0  0  0  0  0  0  0  0  0
  -25.4332  -30.2827   20.4431 C   0  0  0  0  0  0  0  0  0  0  0  0
  -30.0704  -25.8043   22.7478 C   0  0  0  0  0  0  0  0  0  0  0  0
  -29.1783  -17.1432   16.4063 C   0  0  0  0  0  0  0  0  0  0  0  0
  -26.2617  -21.0336   17.6833 C   0  0  0  0  0  0  0  0  0  1  0  0
  -26.2294  -27.8850   20.3493 C   0  0  1  0  0  0  0  0  0  0  0  0
  -29.8261  -27.9786   21.5431 C   0  0  2  0  0  0  0  0  0  0  0  0
  -25.6356  -29.0599   19.5221 C   0  0  0  0  0  0  0  0  0  0  0  0
  -26.0416  -13.8313   21.3893 N   0  0  0  0  0  0  0  0  0  0  0  0
  -26.1583  -13.0917   20.2733 N   0  0  0  0  0  0  0  0  0  0  0  0
  -24.8770  -26.0868   21.3796 N   0  0  0  0  0  0  0  0  0  0  0  0
  -29.4785  -14.3981   18.9028 N   0  0  0  0  0  0  0  0  0  0  0  0
  -24.9691  -11.6161   18.8523 N   0  0  0  0  0  0  0  0  0  0  0  0
  -21.9452  -12.6538   22.0422 N   0  0  0  0  0  0  0  0  0  0  0  0
  -21.4404  -26.0651   22.3384 N   0  0  0  0  0  0  0  0  0  0  0  0
  -27.4995  -28.1929   20.9979 N   0  0  0  0  0  0  0  0  0  0  0  0
  -28.9298  -16.2032   17.4766 N   0  0  0  0  0  0  0  0  0  0  0  0
  -30.7264  -26.8550   21.9278 N   0  3  0  0  0  0  0  0  0  0  0  0
  -22.2941  -11.4287   20.1353 O   0  0  0  0  0  0  0  0  0  0  0  0
  -22.5043  -25.5562   20.3305 O   0  0  0  0  0  0  0  0  0  0  0  0
  -24.9610  -28.2159   22.3262 O   0  0  0  0  0  0  0  0  0  0  0  0
  -28.7172  -26.4955   19.9912 O   0  0  0  0  0  0  0  0  0  0  0  0
  -30.9576  -15.1508   17.2830 O   0  0  0  0  0  0  0  0  0  0  0  0
  -22.7706  -16.0452   26.3841 O   0  0  0  0  0  0  0  0  0  0  0  0
  -25.6774  -20.5070   18.8740 O   0  0  0  0  0  0  0  0  0  1  0  0
  -23.8092  -21.4132   27.0978 F   0  0  0  0  0  0  0  0  0  0  0  0
  -25.3679  -16.9773   26.5514 F   0  0  0  0  0  0  0  0  0  0  0  0
  -24.4220  -20.6474   15.2833 Cl  0  0  0  0  0  0  0  0  0  0  0  0
  -28.6892  -19.3764   18.4046 Cl  0  0  0  0  0  0  0  0  0  0  0  0
  1  2  1  0  0  0  0
  1  5  2  0  0  0  0
  2  6  2  0  0  0  0
  3  8  2  0  0  0  0
  3 16  1  0  0  0  0
  4  9  1  0  0  0  0
  4 16  2  0  0  0  0
  5 18  1  0  0  0  0
  6 20  1  0  0  0  0
  7 10  2  0  0  0  0
  7 19  1  0  0  0  0
  8 25  1  0  0  0  0
  9 25  2  0  0  0  0
 10 26  1  0  0  0  0
 11 12  2  0  0  0  0
 11 27  1  0  0  0  0
 12 28  1  0  0  0  0
 13 21  1  0  0  0  0
 13 26  2  0  0  0  0
 14 22  1  0  0  0  0
 14 30  2  0  0  0  0
 15 28  2  0  0  0  0
 15 29  1  0  0  0  0
 16 32  1  0  0  0  0
 17 32  1  0  0  0  0
 17 33  2  0  0  0  0
 17 34  1  0  0  0  0
 18 20  2  0  0  0  0
 18 39  1  0  0  0  0
 19 21  2  0  0  0  0
 19 40  1  0  0  0  0
 20 48  1  0  0  0  0
 21 41  1  0  0  0  0
 22 23  2  0  0  0  0
 22 51  1  0  0  0  0
 23 31  1  0  0  0  0
 23 57  1  0  0  0  0
 24 30  1  0  0  0  0
 24 31  2  0  0  0  0
 24 58  1  0  0  0  0
 25 77  1  0  0  0  0
 26 78  1  0  0  0  0
 27 29  2  0  0  0  0
 27 77  1  0  0  0  0
 28 79  1  0  0  0  0
 29 80  1  0  0  0  0
 30 81  1  0  0  0  0
 31 82  1  0  0  0  0
 32 62  2  0  0  0  0
 33 63  1  0  0  0  0
 33 66  1  0  0  0  0
 34 67  1  0  0  0  0
 34 72  2  0  0  0  0
 35 49  1  0  0  0  0
 35 68  1  0  0  0  0
 35 73  2  0  0  0  0
 36 59  1  0  0  0  0
 36 64  1  0  0  0  0
 36 74  2  0  0  0  0
 37 60  1  0  0  0  0
 37 69  1  0  0  0  0
 37 75  2  0  0  0  0
 38 65  1  0  0  0  0
 38 70  1  0  0  0  0
 38 76  2  0  0  0  0
 39 42  1  0  0  0  0
 40 49  1  0  0  0  0
 41 64  1  0  0  0  0
 42 44  1  0  0  0  0
 43 45  1  0  0  0  0
 43 46  1  0  0  0  0
 44 48  1  0  0  0  0
 45 50  1  0  0  0  0
 46 65  1  0  0  0  0
 47 50  1  0  0  0  0
 47 65  1  0  0  0  0
 48 68  1  0  0  0  0
 49 64  1  0  0  0  0
 50 63  1  0  0  0  0
 52 60  1  0  0  0  0
 53 61  1  0  0  0  0
 54 61  1  0  0  0  0
 55 61  1  0  0  0  0
 56 71  1  0  0  0  0
 57 70  1  0  0  0  0
 58 78  1  0  0  0  0
 59 61  1  0  0  0  0
 59 69  1  0  0  0  0
 60 71  1  0  0  0  0
 62 63  1  0  0  0  0
M  CHG  1  71   1
M  ISO  4  38 100  58 101  70 100  78 101
M  END
> <Batch ID>
0023

> <Smiles>
CNC(C)C(=O)NC(C(=O)N1Cc2cc([101O:1][101CH2:1]c3c(Cl)cc(C)c(C[100NH:0][100C:0](=O)N4CCCC(n5nc(-c6ccc(Oc7ccc(F)cc7F)cc6)c(C(N)=O)c5N)C4)c3Cl)ccc2CC1C(=O)NC1CCCc2ccccc21)C(C)(C)C

> <Shape>
0.173

> <Color>
0.087

> <Negative vol penalty>
0.000

$$$$

  -OEChem-04052316193D

 88 96  0     1  0  0  0  0  0999 V2000
  -27.0467  -37.6774   22.3491 C   0  0  0  0  0  0  0  0  0  0  0  0
  -27.6518  -36.4809   21.9780 C   0  0  0  0  0  0  0  0  0  0  0  0
  -24.9914  -10.0685   22.8442 C   0  0  0  0  0  0  0  0  0  0  0  0
  -24.4817  -12.0613   24.1115 C   0  0  0  0  0  0  0  0  0  0  0  0
  -25.9222  -37.6623   23.1732 C   0  0  0  0  0  0  0  0  0  0  0  0
  -27.1334  -35.2686   22.4318 C   0  0  0  0  0  0  0  0  0  0  0  0
  -27.0159  -29.9493   19.3992 C   0  0  0  0  0  0  0  0  0  0  0  0
  -24.8297   -9.2958   23.9941 C   0  0  0  0  0  0  0  0  0  0  0  0
  -24.3200  -11.2886   25.2615 C   0  0  0  0  0  0  0  0  0  0  0  0
  -27.8386  -28.8247   19.4457 C   0  0  0  0  0  0  0  0  0  0  0  0
  -24.1975   -6.7574   26.5184 C   0  0  0  0  0  0  0  0  0  0  0  0
  -23.4603   -5.5784   26.4092 C   0  0  0  0  0  0  0  0  0  0  0  0
  -26.3050  -27.7737   20.9828 C   0  0  0  0  0  0  0  0  0  0  0  0
  -21.5332   -6.8494   25.6966 C   0  0  0  0  0  0  0  0  0  0  0  0
  -24.8174  -11.4513   22.9029 C   0  0  0  0  0  0  0  0  0  0  0  0
  -23.9945  -12.5945   20.7760 C   0  0  0  0  0  0  0  0  0  0  0  0
  -25.3840  -36.4487   23.6295 C   0  0  0  0  0  0  0  0  0  0  0  0
  -25.8351  -29.9990   20.1539 C   0  0  0  0  0  0  0  0  0  0  0  0
  -26.0015  -35.2373   23.2639 C   0  0  0  0  0  0  0  0  0  0  0  0
  -25.4677  -28.8991   20.9422 C   0  0  0  0  0  0  0  0  0  0  0  0
  -29.2923  -20.4629   23.0742 C   0  0  0  0  0  0  0  0  0  0  0  0
  -28.9485  -21.1347   20.7791 C   0  0  0  0  0  0  0  0  0  0  0  0
  -29.1854  -21.4678   22.1128 C   0  0  0  0  0  0  0  0  0  0  0  0
  -29.1625  -19.1249   22.7020 C   0  0  0  0  0  0  0  0  0  0  0  0
  -28.8187  -19.7967   20.4069 C   0  0  0  0  0  0  0  0  0  0  0  0
  -28.9256  -18.7918   21.3683 C   0  0  0  0  0  0  0  0  0  0  0  0
  -24.4940   -9.9058   25.2028 C   0  0  0  0  0  0  0  0  0  0  0  0
  -27.4847  -27.7378   20.2398 C   0  0  0  0  0  0  0  0  0  0  0  0
  -23.6025   -7.9825   26.2169 C   0  0  0  0  0  0  0  0  0  0  0  0
  -22.1282   -5.6243   25.9982 C   0  0  0  0  0  0  0  0  0  0  0  0
  -22.2704   -8.0285   25.8059 C   0  0  0  0  0  0  0  0  0  0  0  0
  -24.9848  -12.2501   21.7154 C   0  0  0  0  0  0  0  0  0  0  0  0
  -24.6555  -13.3571   19.8443 C   0  0  0  0  0  0  0  0  0  0  0  0
  -22.6017  -12.2555   20.7481 C   0  0  0  0  0  0  0  0  0  0  0  0
  -24.7509  -31.8444   22.5040 C   0  0  0  0  0  0  0  0  0  0  0  0
  -22.0271  -30.1394   22.0612 C   0  0  0  0  0  0  0  0  0  0  0  0
  -20.5551  -27.2669   20.9528 C   0  0  0  0  0  0  0  0  0  0  0  0
  -29.5834  -16.7282   20.0817 C   0  0  0  0  0  0  0  0  0  0  0  0
  -24.1953  -36.4849   24.5571 C   0  0  0  0  0  0  0  0  0  0  0  0
  -24.9449  -31.2087   20.0721 C   0  0  0  0  0  0  0  0  0  0  0  0
  -24.2001  -28.8944   21.7555 C   0  0  0  0  0  0  0  0  0  0  0  0
  -23.4850  -35.1402   24.6896 C   0  0  0  0  0  0  0  0  0  0  0  0
  -28.9902  -13.9743   17.9043 C   0  0  0  0  0  0  0  0  0  0  0  0
  -24.4977  -34.0207   24.9085 C   0  0  0  0  0  0  0  0  0  0  0  0
  -27.8018  -13.2544   18.5457 C   0  0  0  0  0  0  0  0  0  0  0  0
  -29.9428  -14.5430   18.9545 C   0  0  0  0  0  0  0  0  0  0  0  0
  -28.1227  -14.6779   20.6091 C   0  0  0  0  0  0  0  0  0  0  0  0
  -25.4539  -33.9008   23.7156 C   0  0  1  0  0  0  0  0  0  0  0  0
  -24.0264  -31.3575   21.2810 C   0  0  1  0  0  0  0  0  0  0  0  0
  -27.1014  -14.1442   19.5913 C   0  0  2  0  0  0  0  0  0  0  0  0
  -29.5454  -20.8210   24.5047 C   0  0  0  0  0  0  0  0  0  0  0  0
  -28.8323  -22.2133   19.7482 C   0  0  0  0  0  0  0  0  0  0  0  0
  -29.2782  -18.0496   23.7376 C   0  0  0  0  0  0  0  0  0  0  0  0
  -28.5645  -19.4437   18.9743 C   0  0  0  0  0  0  0  0  0  0  0  0
  -18.3171  -26.1485   20.7581 C   0  0  0  0  0  0  0  0  0  0  0  0
  -30.6722  -24.9095   24.6607 C   0  0  0  0  0  0  0  0  0  0  0  0
  -22.0860  -29.5075   25.0457 C   0  0  0  0  0  0  0  0  0  0  0  0
  -20.4387  -27.6711   24.6184 C   0  0  0  0  0  0  0  0  0  0  0  0
  -19.8176  -30.0385   24.1363 C   0  0  0  0  0  0  0  0  0  0  0  0
  -20.7439  -27.1434   18.0018 C   0  0  0  0  0  0  0  0  0  0  0  0
  -29.3239  -22.9148   22.5151 C   0  0  0  0  0  0  0  0  0  0  0  0
  -30.7905  -23.2995   22.7345 C   0  0  0  0  0  0  0  0  0  0  0  0
  -30.4737  -25.7668   20.8277 C   0  0  0  0  0  0  0  0  0  0  0  0
  -30.1889  -25.7917   22.3305 C   0  0  0  0  0  0  0  0  0  0  0  0
  -29.6850  -26.8468   20.0956 C   0  0  0  0  0  0  0  0  0  1  0  0
  -21.4649  -28.8570   22.6255 C   0  0  1  0  0  0  0  0  0  0  0  0
  -19.3444  -27.0321   20.0676 C   0  0  2  0  0  0  0  0  0  0  0  0
  -30.9829  -24.7666   23.1667 C   0  0  1  0  0  0  0  0  0  0  0  0
  -20.9767  -29.0191   24.0928 C   0  0  0  0  0  0  0  0  0  0  0  0
  -26.1837  -12.7525   21.4085 N   0  0  0  0  0  0  0  0  0  0  0  0
  -25.9511  -13.4203   20.2657 N   0  0  0  0  0  0  0  0  0  0  0  0
  -23.3662  -30.1028   21.6471 N   0  0  0  0  0  0  0  0  0  0  0  0
  -29.2100  -15.3787   19.9081 N   0  0  0  0  0  0  0  0  0  0  0  0
  -24.2491  -13.9729   18.7139 N   0  0  0  0  0  0  0  0  0  0  0  0
  -22.0858  -11.4642   21.7835 N   0  0  0  0  0  0  0  0  0  0  0  0
  -28.7941  -17.4325   20.9902 N   0  0  0  0  0  0  0  0  0  0  0  0
  -24.8057  -33.2207   22.6148 N   0  0  0  0  0  0  0  0  0  0  0  0
  -20.4286  -28.4216   21.6956 N   0  0  0  0  0  0  0  0  0  0  0  0
  -19.7529  -26.3721   18.7955 N   0  3  0  0  0  0  0  0  0  0  0  0
  -21.8408  -12.6291   19.8235 O   0  0  0  0  0  0  0  0  0  0  0  0
  -25.2239  -31.0316   23.2897 O   0  0  0  0  0  0  0  0  0  0  0  0
  -21.3027  -31.1348   21.9838 O   0  0  0  0  0  0  0  0  0  0  0  0
  -21.5153  -26.5004   20.9850 O   0  0  0  0  0  0  0  0  0  0  0  0
  -30.5163  -17.2299   19.4494 O   0  0  0  0  0  0  0  0  0  0  0  0
  -24.3360   -9.1521   26.3251 O   0  0  0  0  0  0  0  0  0  0  0  0
  -28.2863  -26.6392   20.2875 O   0  0  0  0  0  0  0  0  0  1  0  0
  -21.4208   -4.4919   25.8919 F   0  0  0  0  0  0  0  0  0  0  0  0
  -21.6937   -9.2023   25.5137 F   0  0  0  0  0  0  0  0  0  0  0  0
  1  2  1  0  0  0  0
  1  5  2  0  0  0  0
  2  6  2  0  0  0  0
  3  8  2  0  0  0  0
  3 15  1  0  0  0  0
  4  9  1  0  0  0  0
  4 15  2  0  0  0  0
  5 17  1  0  0  0  0
  6 19  1  0  0  0  0
  7 10  2  0  0  0  0
  7 18  1  0  0  0  0
  8 27  1  0  0  0  0
  9 27  2  0  0  0  0
 10 28  1  0  0  0  0
 11 12  2  0  0  0  0
 11 29  1  0  0  0  0
 12 30  1  0  0  0  0
 13 20  1  0  0  0  0
 13 28  2  0  0  0  0
 14 30  2  0  0  0  0
 14 31  1  0  0  0  0
 15 32  1  0  0  0  0
 16 32  1  0  0  0  0
 16 33  2  0  0  0  0
 16 34  1  0  0  0  0
 17 19  2  0  0  0  0
 17 39  1  0  0  0  0
 18 20  2  0  0  0  0
 18 40  1  0  0  0  0
 19 48  1  0  0  0  0
 20 41  1  0  0  0  0
 21 23  1  0  0  0  0
 21 24  2  0  0  0  0
 21 51  1  0  0  0  0
 22 23  2  0  0  0  0
 22 25  1  0  0  0  0
 22 52  1  0  0  0  0
 23 61  1  0  0  0  0
 24 26  1  0  0  0  0
 24 53  1  0  0  0  0
 25 26  2  0  0  0  0
 25 54  1  0  0  0  0
 26 76  1  0  0  0  0
 27 85  1  0  0  0  0
 28 86  1  0  0  0  0
 29 31  2  0  0  0  0
 29 85  1  0  0  0  0
 30 87  1  0  0  0  0
 31 88  1  0  0  0  0
 32 70  2  0  0  0  0
 33 71  1  0  0  0  0
 33 74  1  0  0  0  0
 34 75  1  0  0  0  0
 34 80  2  0  0  0  0
 35 49  1  0  0  0  0
 35 77  1  0  0  0  0
 35 81  2  0  0  0  0
 36 66  1  0  0  0  0
 36 72  1  0  0  0  0
 36 82  2  0  0  0  0
 37 67  1  0  0  0  0
 37 78  1  0  0  0  0
 37 83  2  0  0  0  0
 38 73  1  0  0  0  0
 38 76  1  0  0  0  0
 38 84  2  0  0  0  0
 39 42  1  0  0  0  0
 40 49  1  0  0  0  0
 41 72  1  0  0  0  0
 42 44  1  0  0  0  0
 43 45  1  0  0  0  0
 43 46  1  0  0  0  0
 44 48  1  0  0  0  0
 45 50  1  0  0  0  0
 46 73  1  0  0  0  0
 47 50  1  0  0  0  0
 47 73  1  0  0  0  0
 48 77  1  0  0  0  0
 49 72  1  0  0  0  0
 50 71  1  0  0  0  0
 55 67  1  0  0  0  0
 56 68  1  0  0  0  0
 57 69  1  0  0  0  0
 58 69  1  0  0  0  0
 59 69  1  0  0  0  0
 60 79  1  0  0  0  0
 61 62  1  0  0  0  0
 62 68  1  0  0  0  0
 63 64  1  0  0  0  0
 63 65  1  0  0  0  0
 64 68  1  0  0  0  0
 65 86  1  0  0  0  0
 66 69  1  0  0  0  0
 66 78  1  0  0  0  0
 67 79  1  0  0  0  0
 70 71  1  0  0  0  0
M  CHG  1  79   1
M  ISO  4  38 100  65 101  76 100  86 101
M  END
> <Batch ID>
0023

> <Smiles>
CNC(C)C(=O)NC(C(=O)N1Cc2cc([101O:1][101CH2:1]CCC(C)CCc3c(C)c(C)c([100NH:0][100C:0](=O)N4CCCC(n5nc(-c6ccc(Oc7ccc(F)cc7F)cc6)c(C(N)=O)c5N)C4)c(C)c3C)ccc2CC1C(=O)NC1CCCc2ccccc21)C(C)(C)C

> <Shape>
0.320

> <Color>
0.086

> <Negative vol penalty>
0.000

$$$$

  -OEChem-04052316193D

 90 98  0     1  0  0  0  0  0999 V2000
  -24.4261  -29.1885   11.8143 C   0  0  0  0  0  0  0  0  0  0  0  0
  -24.4188  -28.0466   12.6089 C   0  0  0  0  0  0  0  0  0  0  0  0
  -22.9218  -10.1204   19.9252 C   0  0  0  0  0  0  0  0  0  0  0  0
  -23.7991   -9.8726   22.1626 C   0  0  0  0  0  0  0  0  0  0  0  0
  -25.2412  -30.2675   12.1538 C   0  0  0  0  0  0  0  0  0  0  0  0
  -25.2277  -27.9825   13.7429 C   0  0  0  0  0  0  0  0  0  0  0  0
  -23.9391  -25.1730   19.0299 C   0  0  0  0  0  0  0  0  0  0  0  0
  -22.1282   -8.9886   20.1110 C   0  0  0  0  0  0  0  0  0  0  0  0
  -23.0054   -8.7407   22.3485 C   0  0  0  0  0  0  0  0  0  0  0  0
  -24.3036  -23.9295   19.5445 C   0  0  0  0  0  0  0  0  0  0  0  0
  -23.0792   -5.4754   21.4749 C   0  0  0  0  0  0  0  0  0  0  0  0
  -23.6724   -4.3568   22.0602 C   0  0  0  0  0  0  0  0  0  0  0  0
  -26.1191  -24.9664   20.7477 C   0  0  0  0  0  0  0  0  0  0  0  0
  -24.7777  -19.7386   22.2640 C   0  0  0  0  0  0  0  0  0  0  0  0
  -22.0745   -4.4561   23.8696 C   0  0  0  0  0  0  0  0  0  0  0  0
  -23.7574  -10.5624   20.9510 C   0  0  0  0  0  0  0  0  0  0  0  0
  -27.1311  -18.4953   21.4281 C   0  0  0  0  0  0  0  0  0  0  0  0
  -24.2343  -13.0668   21.0424 C   0  0  0  0  0  0  0  0  0  0  0  0
  -26.0532  -30.2204   13.2980 C   0  0  0  0  0  0  0  0  0  0  0  0
  -24.6698  -26.3228   19.3623 C   0  0  0  0  0  0  0  0  0  0  0  0
  -26.0554  -29.0614   14.0974 C   0  0  0  0  0  0  0  0  0  0  0  0
  -25.7604  -26.2236   20.2381 C   0  0  0  0  0  0  0  0  0  0  0  0
  -25.2339  -18.5957   22.9208 C   0  0  0  0  0  0  0  0  0  0  0  0
  -25.4981  -20.2597   21.1892 C   0  0  0  0  0  0  0  0  0  0  0  0
  -22.1699   -8.2987   21.3226 C   0  0  0  0  0  0  0  0  0  0  0  0
  -25.3955  -23.8256   20.4012 C   0  0  0  0  0  0  0  0  0  0  0  0
  -21.9837   -6.0844   22.0870 C   0  0  0  0  0  0  0  0  0  0  0  0
  -23.1701   -3.8472   23.2575 C   0  0  0  0  0  0  0  0  0  0  0  0
  -21.4813   -5.5747   23.2843 C   0  0  0  0  0  0  0  0  0  0  0  0
  -26.4106  -17.9741   22.5029 C   0  0  0  0  0  0  0  0  0  0  0  0
  -26.6748  -19.6381   20.7713 C   0  0  0  0  0  0  0  0  0  0  0  0
  -24.5779  -11.7312   20.7595 C   0  0  0  0  0  0  0  0  0  0  0  0
  -25.3466  -13.7901   20.6873 C   0  0  0  0  0  0  0  0  0  0  0  0
  -28.3664  -17.8446   20.9912 C   0  0  0  0  0  0  0  0  0  0  0  0
  -23.0184  -13.6054   21.5783 C   0  0  0  0  0  0  0  0  0  0  0  0
  -26.3792  -28.4452   17.7262 C   0  0  0  0  0  0  0  0  0  0  0  0
  -26.5302  -29.9531   20.5943 C   0  0  0  0  0  0  0  0  0  0  0  0
  -26.3701  -29.7313   23.9961 C   0  0  0  0  0  0  0  0  0  0  0  0
  -30.8814  -14.5043   20.6550 C   0  0  0  0  0  0  0  0  0  0  0  0
  -26.9529  -31.3930   13.5983 C   0  0  0  0  0  0  0  0  0  0  0  0
  -24.2475  -27.6607   18.8201 C   0  0  0  0  0  0  0  0  0  0  0  0
  -26.5653  -27.4308   20.6421 C   0  0  0  0  0  0  0  0  0  0  0  0
  -27.4995  -31.3919   15.0237 C   0  0  0  0  0  0  0  0  0  0  0  0
  -29.4887  -12.4165   18.1295 C   0  0  0  0  0  0  0  0  0  0  0  0
  -28.0226  -30.0076   15.3938 C   0  0  0  0  0  0  0  0  0  0  0  0
  -28.0614  -12.1574   18.6151 C   0  0  0  0  0  0  0  0  0  0  0  0
  -30.4780  -12.4760   19.2913 C   0  0  0  0  0  0  0  0  0  0  0  0
  -28.6951  -13.1699   20.8449 C   0  0  0  0  0  0  0  0  0  0  0  0
  -26.9003  -28.9637   15.3491 C   0  0  1  0  0  0  0  0  0  0  0  0
  -25.3757  -28.6876   18.8179 C   0  0  1  0  0  0  0  0  0  0  0  0
  -27.6528  -13.1571   19.7137 C   0  0  2  0  0  0  0  0  0  0  0  0
  -24.4274  -18.0725   24.0659 C   0  0  0  0  0  0  0  0  0  0  0  0
  -26.5703  -31.1259   26.0726 C   0  0  0  0  0  0  0  0  0  0  0  0
  -29.5645  -29.9883   20.2751 C   0  0  0  0  0  0  0  0  0  0  0  0
  -29.7459  -30.4981   22.7195 C   0  0  0  0  0  0  0  0  0  0  0  0
  -28.5878  -32.0983   21.1962 C   0  0  0  0  0  0  0  0  0  0  0  0
  -31.5695  -20.0810   20.4279 C   0  0  0  0  0  0  0  0  0  0  0  0
  -33.3000  -18.3235   20.7610 C   0  0  0  0  0  0  0  0  0  0  0  0
  -32.1956  -19.3689   22.7457 C   0  0  0  0  0  0  0  0  0  0  0  0
  -23.5896  -29.1268   24.8099 C   0  0  0  0  0  0  0  0  0  0  0  0
  -24.9667  -21.4891   20.5127 C   0  0  0  0  0  0  0  0  0  1  0  0
  -31.1326  -16.5227   22.0770 C   0  0  0  0  0  0  0  0  0  0  0  0
  -27.4664  -29.9083   21.7777 C   0  0  1  0  0  0  0  0  0  0  0  0
  -25.6236  -30.5604   25.0255 C   0  0  2  0  0  0  0  0  0  0  0  0
  -30.8539  -17.7713   21.2278 C   0  0  2  0  0  0  0  0  0  0  0  0
  -28.8274  -30.6000   21.4832 C   0  0  0  0  0  0  0  0  0  0  0  0
  -31.9645  -18.8726   21.3061 C   0  0  0  0  0  0  0  0  0  0  0  0
  -25.8119  -11.6104   20.2628 N   0  0  0  0  0  0  0  0  0  0  0  0
  -26.2534  -12.8794   20.2308 N   0  0  0  0  0  0  0  0  0  0  0  0
  -26.1168  -28.7157   20.0806 N   0  0  0  0  0  0  0  0  0  0  0  0
  -30.0331  -13.4434   20.2973 N   0  0  0  0  0  0  0  0  0  0  0  0
  -25.6276  -15.1100   20.7241 N   0  0  0  0  0  0  0  0  0  0  0  0
  -21.9757  -12.7216   21.8884 N   0  0  0  0  0  0  0  0  0  0  0  0
  -29.5523  -18.2968   21.5721 N   0  0  0  0  0  0  0  0  0  0  0  0
  -26.0696  -29.0638   16.5300 N   0  0  0  0  0  0  0  0  0  0  0  0
  -26.7337  -30.4846   22.8999 N   0  0  0  0  0  0  0  0  0  0  0  0
  -30.3801  -15.3792   21.6110 N   0  0  0  0  0  0  0  0  0  0  0  0
  -24.6002  -29.7274   25.7181 N   0  3  0  0  0  0  0  0  0  0  0  0
  -28.3300  -16.9535   20.1305 O   0  0  0  0  0  0  0  0  0  0  0  0
  -22.8552  -14.8356   21.7610 O   0  0  0  0  0  0  0  0  0  0  0  0
  -27.3624  -27.7497   17.9528 O   0  0  0  0  0  0  0  0  0  0  0  0
  -26.1729  -31.0457   20.1468 O   0  0  0  0  0  0  0  0  0  0  0  0
  -26.6101  -28.5359   24.1506 O   0  0  0  0  0  0  0  0  0  0  0  0
  -32.0003  -14.6631   20.1553 O   0  0  0  0  0  0  0  0  0  0  0  0
  -21.3954   -7.1943   21.5043 O   0  0  0  0  0  0  0  0  0  0  0  0
  -25.7538  -22.6131   20.9044 O   0  0  0  0  0  0  0  0  0  1  0  0
  -23.7389   -2.7721   23.8186 F   0  0  0  0  0  0  0  0  0  0  0  0
  -20.4284   -6.1548   23.8764 F   0  0  0  0  0  0  0  0  0  0  0  0
  -26.9663  -16.5537   23.3281 Cl  0  0  0  0  0  0  0  0  0  0  0  0
  -27.5615  -20.2963   19.4337 Cl  0  0  0  0  0  0  0  0  0  0  0  0
  1  2  1  0  0  0  0
  1  5  2  0  0  0  0
  2  6  2  0  0  0  0
  3  8  2  0  0  0  0
  3 16  1  0  0  0  0
  4  9  1  0  0  0  0
  4 16  2  0  0  0  0
  5 19  1  0  0  0  0
  6 21  1  0  0  0  0
  7 10  2  0  0  0  0
  7 20  1  0  0  0  0
  8 25  1  0  0  0  0
  9 25  2  0  0  0  0
 10 26  1  0  0  0  0
 11 12  2  0  0  0  0
 11 27  1  0  0  0  0
 12 28  1  0  0  0  0
 13 22  1  0  0  0  0
 13 26  2  0  0  0  0
 14 23  2  0  0  0  0
 14 24  1  0  0  0  0
 15 28  2  0  0  0  0
 15 29  1  0  0  0  0
 16 32  1  0  0  0  0
 17 30  2  0  0  0  0
 17 31  1  0  0  0  0
 17 34  1  0  0  0  0
 18 32  1  0  0  0  0
 18 33  2  0  0  0  0
 18 35  1  0  0  0  0
 19 21  2  0  0  0  0
 19 40  1  0  0  0  0
 20 22  2  0  0  0  0
 20 41  1  0  0  0  0
 21 49  1  0  0  0  0
 22 42  1  0  0  0  0
 23 30  1  0  0  0  0
 23 52  1  0  0  0  0
 24 31  2  0  0  0  0
 24 61  1  0  0  0  0
 25 85  1  0  0  0  0
 26 86  1  0  0  0  0
 27 29  2  0  0  0  0
 27 85  1  0  0  0  0
 28 87  1  0  0  0  0
 29 88  1  0  0  0  0
 30 89  1  0  0  0  0
 31 90  1  0  0  0  0
 32 68  2  0  0  0  0
 33 69  1  0  0  0  0
 33 72  1  0  0  0  0
 34 74  1  0  0  0  0
 34 79  2  0  0  0  0
 35 73  1  0  0  0  0
 35 80  2  0  0  0  0
 36 50  1  0  0  0  0
 36 75  1  0  0  0  0
 36 81  2  0  0  0  0
 37 63  1  0  0  0  0
 37 70  1  0  0  0  0
 37 82  2  0  0  0  0
 38 64  1  0  0  0  0
 38 76  1  0  0  0  0
 38 83  2  0  0  0  0
 39 71  1  0  0  0  0
 39 77  1  0  0  0  0
 39 84  2  0  0  0  0
 40 43  1  0  0  0  0
 41 50  1  0  0  0  0
 42 70  1  0  0  0  0
 43 45  1  0  0  0  0
 44 46  1  0  0  0  0
 44 47  1  0  0  0  0
 45 49  1  0  0  0  0
 46 51  1  0  0  0  0
 47 71  1  0  0  0  0
 48 51  1  0  0  0  0
 48 71  1  0  0  0  0
 49 75  1  0  0  0  0
 50 70  1  0  0  0  0
 51 69  1  0  0  0  0
 53 64  1  0  0  0  0
 54 66  1  0  0  0  0
 55 66  1  0  0  0  0
 56 66  1  0  0  0  0
 57 67  1  0  0  0  0
 58 67  1  0  0  0  0
 59 67  1  0  0  0  0
 60 78  1  0  0  0  0
 61 86  1  0  0  0  0
 62 65  1  0  0  0  0
 62 77  1  0  0  0  0
 63 66  1  0  0  0  0
 63 76  1  0  0  0  0
 64 78  1  0  0  0  0
 65 67  1  0  0  0  0
 65 74  1  0  0  0  0
 68 69  1  0  0  0  0
M  CHG  1  78   1
M  ISO  4  39 100  61 101  77 100  86 101
M  END
> <Batch ID>
0023

> <Smiles>
CNC(C)C(=O)NC(C(=O)N1Cc2cc([101O:1][101CH2:1]c3cc(C)c(Cl)c(C(=O)NC(C[100NH:0][100C:0](=O)N4CCCC(n5nc(-c6ccc(Oc7ccc(F)cc7F)cc6)c(C(N)=O)c5N)C4)C(C)(C)C)c3Cl)ccc2CC1C(=O)NC1CCCc2ccccc21)C(C)(C)C

> <Shape>
0.287

> <Color>
0.187

> <Negative vol penalty>
0.000

$$$$

  -OEChem-04052316193D

 88 96  0     1  0  0  0  0  0999 V2000
  -20.5409  -17.8024   16.5335 C   0  0  0  0  0  0  0  0  0  0  0  0
  -21.6316  -18.3710   17.1833 C   0  0  0  0  0  0  0  0  0  0  0  0
  -21.8570  -24.0811   20.2037 C   0  0  0  0  0  0  0  0  0  0  0  0
  -20.9966  -23.1630   22.2662 C   0  0  0  0  0  0  0  0  0  0  0  0
  -20.2382  -16.4556   16.7300 C   0  0  0  0  0  0  0  0  0  0  0  0
  -22.4198  -17.5933   18.0310 C   0  0  0  0  0  0  0  0  0  0  0  0
  -27.3755  -18.3382   17.3024 C   0  0  0  0  0  0  0  0  0  0  0  0
  -22.4176  -22.8439   19.8867 C   0  0  0  0  0  0  0  0  0  0  0  0
  -21.5572  -21.9257   21.9492 C   0  0  0  0  0  0  0  0  0  0  0  0
  -27.9338  -19.4911   17.8528 C   0  0  0  0  0  0  0  0  0  0  0  0
  -23.0674  -18.6211   21.8550 C   0  0  0  0  0  0  0  0  0  0  0  0
  -23.7520  -17.9421   22.8629 C   0  0  0  0  0  0  0  0  0  0  0  0
  -28.7774  -18.1924   19.7023 C   0  0  0  0  0  0  0  0  0  0  0  0
  -25.2930  -19.7921   23.0624 C   0  0  0  0  0  0  0  0  0  0  0  0
  -21.1465  -24.2407   21.3935 C   0  0  0  0  0  0  0  0  0  0  0  0
  -19.2794  -25.9790   21.3895 C   0  0  0  0  0  0  0  0  0  0  0  0
  -21.0287  -15.6587   17.5729 C   0  0  0  0  0  0  0  0  0  0  0  0
  -27.5049  -17.1035   17.9545 C   0  0  0  0  0  0  0  0  0  0  0  0
  -22.1266  -16.2350   18.2400 C   0  0  0  0  0  0  0  0  0  0  0  0
  -28.2220  -17.0248   19.1568 C   0  0  0  0  0  0  0  0  0  0  0  0
  -22.2677  -21.7661   20.7595 C   0  0  0  0  0  0  0  0  0  0  0  0
  -28.6324  -19.4188   19.0544 C   0  0  0  0  0  0  0  0  0  0  0  0
  -23.4956  -19.8855   21.4506 C   0  0  0  0  0  0  0  0  0  0  0  0
  -24.8648  -18.5277   23.4666 C   0  0  0  0  0  0  0  0  0  0  0  0
  -24.6084  -20.4711   22.0544 C   0  0  0  0  0  0  0  0  0  0  0  0
  -20.5677  -25.5187   21.7217 C   0  0  0  0  0  0  0  0  0  0  0  0
  -19.2168  -27.2416   21.9265 C   0  0  0  0  0  0  0  0  0  0  0  0
  -18.2329  -25.3237   20.6607 C   0  0  0  0  0  0  0  0  0  0  0  0
  -22.8139  -33.2075   20.9170 C   0  0  0  0  0  0  0  0  0  0  0  0
  -25.4732  -15.0076   19.2128 C   0  0  0  0  0  0  0  0  0  0  0  0
  -28.1567  -13.2261   19.5973 C   0  0  0  0  0  0  0  0  0  0  0  0
  -31.5533  -13.1359   19.9163 C   0  0  0  0  0  0  0  0  0  0  0  0
  -23.3421  -31.2936   23.3087 C   0  0  0  0  0  0  0  0  0  0  0  0
  -20.6343  -14.2195   17.7911 C   0  0  0  0  0  0  0  0  0  0  0  0
  -26.9197  -15.8645   17.3341 C   0  0  0  0  0  0  0  0  0  0  0  0
  -28.4068  -15.7200   19.8861 C   0  0  0  0  0  0  0  0  0  0  0  0
  -21.7413  -13.3721   18.4130 C   0  0  0  0  0  0  0  0  0  0  0  0
  -20.9622  -29.9039   25.4802 C   0  0  0  0  0  0  0  0  0  0  0  0
  -22.3723  -14.1018   19.5946 C   0  0  0  0  0  0  0  0  0  0  0  0
  -20.4775  -28.6525   24.7515 C   0  0  0  0  0  0  0  0  0  0  0  0
  -24.8072  -32.0165   19.9828 C   0  0  0  0  0  0  0  0  0  0  0  0
  -22.4606  -30.0985   25.2862 C   0  0  0  0  0  0  0  0  0  0  0  0
  -22.3884  -28.9469   23.0943 C   0  0  0  0  0  0  0  0  0  0  0  0
  -24.1398  -30.0815   21.2109 C   0  0  0  0  0  0  0  0  0  0  0  0
  -23.0201  -15.4180   19.1480 C   0  0  1  0  0  0  0  0  0  0  0  0
  -24.0813  -32.4838   21.2452 C   0  0  2  0  0  0  0  0  0  0  0  0
  -26.6727  -14.7494   18.3455 C   0  0  1  0  0  0  0  0  0  0  0  0
  -20.8762  -28.6967   23.2672 C   0  0  1  0  0  0  0  0  0  0  0  0
  -25.2797  -30.6217   20.3665 C   0  0  1  0  0  0  0  0  0  0  0  0
  -22.8887  -34.7092   20.8550 C   0  0  0  0  0  0  0  0  0  0  0  0
  -33.4583  -11.5379   20.2547 C   0  0  0  0  0  0  0  0  0  0  0  0
  -25.7019  -27.5312   18.2705 C   0  0  0  0  0  0  0  0  0  0  0  0
  -27.4079  -12.9610   22.5433 C   0  0  0  0  0  0  0  0  0  0  0  0
  -29.7514  -12.2071   22.9992 C   0  0  0  0  0  0  0  0  0  0  0  0
  -28.2813  -10.8646   21.4962 C   0  0  0  0  0  0  0  0  0  0  0  0
  -32.8009  -13.8967   17.3427 C   0  0  0  0  0  0  0  0  0  0  0  0
  -28.2934  -25.0212   21.4492 C   0  0  0  0  0  0  0  0  0  0  0  0
  -27.6432  -26.3840   21.1998 C   0  0  0  0  0  0  0  0  0  0  0  0
  -28.0474  -24.0679   20.2774 C   0  0  0  0  0  0  0  0  0  0  0  0
  -28.1756  -27.0967   19.9517 C   0  0  0  0  0  0  0  0  0  0  0  0
  -28.7232  -22.7180   20.5081 C   0  0  0  0  0  0  0  0  0  0  0  0
  -27.5435  -28.4748   19.7232 C   0  0  0  0  0  0  0  0  0  0  0  0
  -28.5191  -21.7785   19.3280 C   0  0  0  0  0  0  0  0  0  1  0  0
  -29.1947  -13.0775   20.6833 C   0  0  1  0  0  0  0  0  0  0  0  0
  -32.6065  -12.2798   19.2365 C   0  0  2  0  0  0  0  0  0  0  0  0
  -26.0328  -28.4175   19.4645 C   0  0  1  0  0  0  0  0  0  0  0  0
  -28.6539  -12.3026   21.9180 C   0  0  0  0  0  0  0  0  0  0  0  0
  -21.2727  -26.4160   22.4159 N   0  0  0  0  0  0  0  0  0  0  0  0
  -20.4245  -27.4528   22.5241 N   0  0  0  0  0  0  0  0  0  0  0  0
  -27.8106  -14.5377   19.2425 N   0  0  0  0  0  0  0  0  0  0  0  0
  -22.8203  -30.1196   23.8675 N   0  0  0  0  0  0  0  0  0  0  0  0
  -23.6935  -31.2626   21.9562 N   0  0  0  0  0  0  0  0  0  0  0  0
  -18.2472  -28.1807   21.9409 N   0  0  0  0  0  0  0  0  0  0  0  0
  -18.4641  -24.0279   20.1794 N   0  0  0  0  0  0  0  0  0  0  0  0
  -24.2938  -15.1635   18.5099 N   0  0  0  0  0  0  0  0  0  0  0  0
  -30.3583  -12.4620   20.0543 N   0  0  0  0  0  0  0  0  0  0  0  0
  -25.5117  -29.7866   19.1761 N   0  3  0  0  0  0  0  0  0  0  0  0
  -33.5037  -13.1279   18.4018 N   0  3  0  0  0  0  0  0  0  0  0  0
  -17.1315  -25.8775   20.4286 O   0  0  0  0  0  0  0  0  0  0  0  0
  -21.7627  -32.6046   20.7060 O   0  0  0  0  0  0  0  0  0  0  0  0
  -25.6076  -15.0599   20.4297 O   0  0  0  0  0  0  0  0  0  0  0  0
  -27.6760  -12.2158   19.0778 O   0  0  0  0  0  0  0  0  0  0  0  0
  -31.7702  -14.2862   20.2912 O   0  0  0  0  0  0  0  0  0  0  0  0
  -23.5057  -32.3145   23.9893 O   0  0  0  0  0  0  0  0  0  0  0  0
  -22.8144  -20.5586   20.4504 O   0  0  0  0  0  0  0  0  0  0  0  0
  -29.1817  -20.5510   19.5981 O   0  0  0  0  0  0  0  0  0  1  0  0
  -25.5212  -17.8762   24.4356 F   0  0  0  0  0  0  0  0  0  0  0  0
  -25.0239  -21.6861   21.6710 F   0  0  0  0  0  0  0  0  0  0  0  0
  1  2  1  0  0  0  0
  1  5  2  0  0  0  0
  2  6  2  0  0  0  0
  3  8  2  0  0  0  0
  3 15  1  0  0  0  0
  4  9  1  0  0  0  0
  4 15  2  0  0  0  0
  5 17  1  0  0  0  0
  6 19  1  0  0  0  0
  7 10  2  0  0  0  0
  7 18  1  0  0  0  0
  8 21  1  0  0  0  0
  9 21  2  0  0  0  0
 10 22  1  0  0  0  0
 11 12  2  0  0  0  0
 11 23  1  0  0  0  0
 12 24  1  0  0  0  0
 13 20  1  0  0  0  0
 13 22  2  0  0  0  0
 14 24  2  0  0  0  0
 14 25  1  0  0  0  0
 15 26  1  0  0  0  0
 16 26  1  0  0  0  0
 16 27  2  0  0  0  0
 16 28  1  0  0  0  0
 17 19  2  0  0  0  0
 17 34  1  0  0  0  0
 18 20  2  0  0  0  0
 18 35  1  0  0  0  0
 19 45  1  0  0  0  0
 20 36  1  0  0  0  0
 21 85  1  0  0  0  0
 22 86  1  0  0  0  0
 23 25  2  0  0  0  0
 23 85  1  0  0  0  0
 24 87  1  0  0  0  0
 25 88  1  0  0  0  0
 26 68  2  0  0  0  0
 27 69  1  0  0  0  0
 27 73  1  0  0  0  0
 28 74  1  0  0  0  0
 28 79  2  0  0  0  0
 29 46  1  0  0  0  0
 29 50  1  0  0  0  0
 29 80  2  0  0  0  0
 30 47  1  0  0  0  0
 30 75  1  0  0  0  0
 30 81  2  0  0  0  0
 31 64  1  0  0  0  0
 31 70  1  0  0  0  0
 31 82  2  0  0  0  0
 32 65  1  0  0  0  0
 32 76  1  0  0  0  0
 32 83  2  0  0  0  0
 33 71  1  0  0  0  0
 33 72  1  0  0  0  0
 33 84  2  0  0  0  0
 34 37  1  0  0  0  0
 35 47  1  0  0  0  0
 36 70  1  0  0  0  0
 37 39  1  0  0  0  0
 38 40  1  0  0  0  0
 38 42  1  0  0  0  0
 39 45  1  0  0  0  0
 40 48  1  0  0  0  0
 41 46  1  0  0  0  0
 41 49  1  0  0  0  0
 42 71  1  0  0  0  0
 43 48  1  0  0  0  0
 43 71  1  0  0  0  0
 44 49  1  0  0  0  0
 44 72  1  0  0  0  0
 45 75  1  0  0  0  0
 46 72  1  0  0  0  0
 47 70  1  0  0  0  0
 48 69  1  0  0  0  0
 49 77  1  0  0  0  0
 51 65  1  0  0  0  0
 52 66  1  0  0  0  0
 53 67  1  0  0  0  0
 54 67  1  0  0  0  0
 55 67  1  0  0  0  0
 56 78  1  0  0  0  0
 57 58  1  0  0  0  0
 57 59  1  0  0  0  0
 58 60  1  0  0  0  0
 59 61  1  0  0  0  0
 60 62  1  0  0  0  0
 61 63  1  0  0  0  0
 62 66  1  0  0  0  0
 63 86  1  0  0  0  0
 64 67  1  0  0  0  0
 64 76  1  0  0  0  0
 65 78  1  0  0  0  0
 66 77  1  0  0  0  0
 68 69  1  0  0  0  0
M  CHG  2  77   1  78   1
M  ISO  4  33 100  63 101  72 100  86 101
M  END
> <Batch ID>
0023

> <Smiles>
CNC(C)C(=O)NC(C(=O)N1Cc2cc([101O:1][101CH2:1]CCCCCCC(C)NC3CC(C(C)=O)[100N:0]([100C:0](=O)N4CCCC(n5nc(-c6ccc(Oc7ccc(F)cc7F)cc6)c(C(N)=O)c5N)C4)C3)ccc2CC1C(=O)NC1CCCc2ccccc21)C(C)(C)C

> <Shape>
0.222

> <Color>
0.072

> <Negative vol penalty>
0.000

$$$$

  -OEChem-04052316193D

 87 95  0     1  0  0  0  0  0999 V2000
  -29.7114  -32.3306   34.8407 C   0  0  0  0  0  0  0  0  0  0  0  0
  -30.3170  -31.3842   34.0204 C   0  0  0  0  0  0  0  0  0  0  0  0
  -23.0759   -9.8680   19.9404 C   0  0  0  0  0  0  0  0  0  0  0  0
  -23.8351   -9.8746   22.2340 C   0  0  0  0  0  0  0  0  0  0  0  0
  -29.0322  -33.4090   34.2754 C   0  0  0  0  0  0  0  0  0  0  0  0
  -30.2429  -31.5151   32.6341 C   0  0  0  0  0  0  0  0  0  0  0  0
  -34.5379  -29.9611   28.5545 C   0  0  0  0  0  0  0  0  0  0  0  0
  -22.3318   -8.7149   20.1900 C   0  0  0  0  0  0  0  0  0  0  0  0
  -23.0909   -8.7215   22.4836 C   0  0  0  0  0  0  0  0  0  0  0  0
  -34.7024  -28.8355   27.7484 C   0  0  0  0  0  0  0  0  0  0  0  0
  -19.8625   -7.9241   23.0851 C   0  0  0  0  0  0  0  0  0  0  0  0
  -19.1052   -7.8842   24.2557 C   0  0  0  0  0  0  0  0  0  0  0  0
  -33.6439  -29.9984   25.9191 C   0  0  0  0  0  0  0  0  0  0  0  0
  -32.0661  -16.5793   22.5254 C   0  0  0  0  0  0  0  0  0  0  0  0
  -20.3461   -5.9465   24.9923 C   0  0  0  0  0  0  0  0  0  0  0  0
  -23.8276  -10.4478   20.9624 C   0  0  0  0  0  0  0  0  0  0  0  0
  -24.1698  -12.9730   20.8427 C   0  0  0  0  0  0  0  0  0  0  0  0
  -28.9579  -33.5585   32.8816 C   0  0  0  0  0  0  0  0  0  0  0  0
  -33.9143  -31.1119   28.0514 C   0  0  0  0  0  0  0  0  0  0  0  0
  -29.5609  -32.5958   32.0496 C   0  0  0  0  0  0  0  0  0  0  0  0
  -33.4749  -31.1381   26.7201 C   0  0  0  0  0  0  0  0  0  0  0  0
  -32.6889  -17.4481   23.4214 C   0  0  0  0  0  0  0  0  0  0  0  0
  -31.9230  -18.3279   24.1863 C   0  0  0  0  0  0  0  0  0  0  0  0
  -30.5343  -18.3389   24.0552 C   0  0  0  0  0  0  0  0  0  0  0  0
  -30.6774  -16.5903   22.3942 C   0  0  0  0  0  0  0  0  0  0  0  0
  -22.3393   -8.1417   21.4616 C   0  0  0  0  0  0  0  0  0  0  0  0
  -34.2528  -28.8530   26.4313 C   0  0  0  0  0  0  0  0  0  0  0  0
  -20.8616   -6.9752   22.8680 C   0  0  0  0  0  0  0  0  0  0  0  0
  -19.3470   -6.8954   25.2094 C   0  0  0  0  0  0  0  0  0  0  0  0
  -21.1034   -5.9864   23.8216 C   0  0  0  0  0  0  0  0  0  0  0  0
  -29.9116  -17.4700   23.1591 C   0  0  0  0  0  0  0  0  0  0  0  0
  -24.5969  -11.6386   20.7050 C   0  0  0  0  0  0  0  0  0  0  0  0
  -25.2622  -13.7223   20.4799 C   0  0  0  0  0  0  0  0  0  0  0  0
  -22.8993  -13.4889   21.2613 C   0  0  0  0  0  0  0  0  0  0  0  0
  -31.2856  -32.7415   28.7851 C   0  0  0  0  0  0  0  0  0  0  0  0
  -32.4145  -34.8092   26.5552 C   0  0  0  0  0  0  0  0  0  0  0  0
  -34.3619  -35.3192   23.7994 C   0  0  0  0  0  0  0  0  0  0  0  0
  -30.7285  -14.7671   20.6564 C   0  0  0  0  0  0  0  0  0  0  0  0
  -28.1723  -34.7152   32.3163 C   0  0  0  0  0  0  0  0  0  0  0  0
  -33.7684  -32.3271   28.9257 C   0  0  0  0  0  0  0  0  0  0  0  0
  -32.8173  -32.3559   26.1258 C   0  0  0  0  0  0  0  0  0  0  0  0
  -28.4597  -34.9838   30.8413 C   0  0  0  0  0  0  0  0  0  0  0  0
  -29.6144  -12.3537   18.2875 C   0  0  0  0  0  0  0  0  0  0  0  0
  -28.4387  -33.6813   30.0476 C   0  0  0  0  0  0  0  0  0  0  0  0
  -28.1746  -12.0623   18.7166 C   0  0  0  0  0  0  0  0  0  0  0  0
  -30.5292  -12.5823   19.4894 C   0  0  0  0  0  0  0  0  0  0  0  0
  -28.6219  -13.3069   20.8702 C   0  0  0  0  0  0  0  0  0  0  0  0
  -29.5235  -32.7166   30.5416 C   0  0  1  0  0  0  0  0  0  0  0  0
  -32.6570  -33.2650   28.4647 C   0  0  1  0  0  0  0  0  0  0  0  0
  -27.6494  -13.1339   19.6921 C   0  0  2  0  0  0  0  0  0  0  0  0
  -34.1776  -17.4169   23.5421 C   0  0  0  0  0  0  0  0  0  0  0  0
  -29.7303  -19.2924   24.8843 C   0  0  0  0  0  0  0  0  0  0  0  0
  -35.0542  -37.1067   22.1799 C   0  0  0  0  0  0  0  0  0  0  0  0
  -29.7018  -34.6046   25.1734 C   0  0  0  0  0  0  0  0  0  0  0  0
  -30.7449  -35.6073   23.1302 C   0  0  0  0  0  0  0  0  0  0  0  0
  -30.6600  -36.9132   25.2539 C   0  0  0  0  0  0  0  0  0  0  0  0
  -37.2126  -35.0582   24.5508 C   0  0  0  0  0  0  0  0  0  0  0  0
  -32.5974  -19.2624   25.1469 C   0  0  0  0  0  0  0  0  0  0  0  0
  -33.8286  -24.0514   25.9542 C   0  0  0  0  0  0  0  0  0  0  0  0
  -33.2543  -23.0153   24.9871 C   0  0  0  0  0  0  0  0  0  0  0  0
  -33.8759  -25.4392   25.3189 C   0  0  0  0  0  0  0  0  0  0  0  0
  -33.2436  -21.6294   25.6146 C   0  0  0  0  0  0  0  0  0  0  0  0
  -34.4067  -26.4840   26.2902 C   0  0  0  0  0  0  0  0  0  1  0  0
  -32.2563  -34.9621   25.0617 C   0  0  1  0  0  0  0  0  0  0  0  0
  -35.3910  -36.3876   23.4769 C   0  0  2  0  0  0  0  0  0  0  0  0
  -30.8514  -35.4980   24.6663 C   0  0  0  0  0  0  0  0  0  0  0  0
  -25.8619  -11.5427   20.2871 N   0  0  0  0  0  0  0  0  0  0  0  0
  -26.2390  -12.8262   20.1590 N   0  0  0  0  0  0  0  0  0  0  0  0
  -32.6919  -33.5167   27.0226 N   0  0  0  0  0  0  0  0  0  0  0  0
  -29.9701  -13.6131   20.3668 N   0  0  0  0  0  0  0  0  0  0  0  0
  -25.4728  -15.0538   20.4071 N   0  0  0  0  0  0  0  0  0  0  0  0
  -21.8871  -12.5798   21.5982 N   0  0  0  0  0  0  0  0  0  0  0  0
  -30.0810  -15.6922   21.4747 N   0  0  0  0  0  0  0  0  0  0  0  0
  -30.8198  -33.1104   30.0326 N   0  0  0  0  0  0  0  0  0  0  0  0
  -33.3631  -35.8026   24.6179 N   0  0  0  0  0  0  0  0  0  0  0  0
  -36.7441  -35.7786   23.3390 N   0  3  0  0  0  0  0  0  0  0  0  0
  -32.6387  -20.6689   24.6607 N   0  3  0  0  0  0  0  0  0  0  0  0
  -22.6632  -14.7195   21.3187 O   0  0  0  0  0  0  0  0  0  0  0  0
  -30.6932  -32.0549   27.9608 O   0  0  0  0  0  0  0  0  0  0  0  0
  -32.3033  -35.8013   27.2798 O   0  0  0  0  0  0  0  0  0  0  0  0
  -34.4347  -34.1716   23.3654 O   0  0  0  0  0  0  0  0  0  0  0  0
  -31.8577  -14.9357   20.1891 O   0  0  0  0  0  0  0  0  0  0  0  0
  -21.6131   -7.0167   21.7056 O   0  0  0  0  0  0  0  0  0  0  0  0
  -34.4115  -27.7556   25.6425 O   0  0  0  0  0  0  0  0  0  1  0  0
  -18.6207   -6.8581   26.3342 F   0  0  0  0  0  0  0  0  0  0  0  0
  -22.0626   -5.0728   23.6192 F   0  0  0  0  0  0  0  0  0  0  0  0
  -28.1847  -17.4841   22.9982 Cl  0  0  0  0  0  0  0  0  0  0  0  0
  1  2  1  0  0  0  0
  1  5  2  0  0  0  0
  2  6  2  0  0  0  0
  3  8  2  0  0  0  0
  3 16  1  0  0  0  0
  4  9  1  0  0  0  0
  4 16  2  0  0  0  0
  5 18  1  0  0  0  0
  6 20  1  0  0  0  0
  7 10  2  0  0  0  0
  7 19  1  0  0  0  0
  8 26  1  0  0  0  0
  9 26  2  0  0  0  0
 10 27  1  0  0  0  0
 11 12  2  0  0  0  0
 11 28  1  0  0  0  0
 12 29  1  0  0  0  0
 13 21  1  0  0  0  0
 13 27  2  0  0  0  0
 14 22  2  0  0  0  0
 14 25  1  0  0  0  0
 15 29  2  0  0  0  0
 15 30  1  0  0  0  0
 16 32  1  0  0  0  0
 17 32  1  0  0  0  0
 17 33  2  0  0  0  0
 17 34  1  0  0  0  0
 18 20  2  0  0  0  0
 18 39  1  0  0  0  0
 19 21  2  0  0  0  0
 19 40  1  0  0  0  0
 20 48  1  0  0  0  0
 21 41  1  0  0  0  0
 22 23  1  0  0  0  0
 22 51  1  0  0  0  0
 23 24  2  0  0  0  0
 23 58  1  0  0  0  0
 24 31  1  0  0  0  0
 24 52  1  0  0  0  0
 25 31  2  0  0  0  0
 25 73  1  0  0  0  0
 26 83  1  0  0  0  0
 27 84  1  0  0  0  0
 28 30  2  0  0  0  0
 28 83  1  0  0  0  0
 29 85  1  0  0  0  0
 30 86  1  0  0  0  0
 31 87  1  0  0  0  0
 32 67  2  0  0  0  0
 33 68  1  0  0  0  0
 33 71  1  0  0  0  0
 34 72  1  0  0  0  0
 34 78  2  0  0  0  0
 35 49  1  0  0  0  0
 35 74  1  0  0  0  0
 35 79  2  0  0  0  0
 36 64  1  0  0  0  0
 36 69  1  0  0  0  0
 36 80  2  0  0  0  0
 37 65  1  0  0  0  0
 37 75  1  0  0  0  0
 37 81  2  0  0  0  0
 38 70  1  0  0  0  0
 38 73  1  0  0  0  0
 38 82  2  0  0  0  0
 39 42  1  0  0  0  0
 40 49  1  0  0  0  0
 41 69  1  0  0  0  0
 42 44  1  0  0  0  0
 43 45  1  0  0  0  0
 43 46  1  0  0  0  0
 44 48  1  0  0  0  0
 45 50  1  0  0  0  0
 46 70  1  0  0  0  0
 47 50  1  0  0  0  0
 47 70  1  0  0  0  0
 48 74  1  0  0  0  0
 49 69  1  0  0  0  0
 50 68  1  0  0  0  0
 53 65  1  0  0  0  0
 54 66  1  0  0  0  0
 55 66  1  0  0  0  0
 56 66  1  0  0  0  0
 57 76  1  0  0  0  0
 58 77  1  0  0  0  0
 59 60  1  0  0  0  0
 59 61  1  0  0  0  0
 60 62  1  0  0  0  0
 61 63  1  0  0  0  0
 62 77  1  0  0  0  0
 63 84  1  0  0  0  0
 64 66  1  0  0  0  0
 64 75  1  0  0  0  0
 65 76  1  0  0  0  0
 67 68  1  0  0  0  0
M  CHG  2  76   1  77   1
M  ISO  4  38 100  63 101  73 100  84 101
M  END
> <Batch ID>
0023

> <Smiles>
CNC(C)C(=O)NC(C(=O)N1Cc2cc([101O:1][101CH2:1]CCCCNCc3c(C)cc([100NH:0][100C:0](=O)N4CCCC(n5nc(-c6ccc(Oc7ccc(F)cc7F)cc6)c(C(N)=O)c5N)C4)c(Cl)c3C)ccc2CC1C(=O)NC1CCCc2ccccc21)C(C)(C)C

> <Shape>
0.166

> <Color>
0.192

> <Negative vol penalty>
0.000

$$$$

  -OEChem-04052316193D

 88 96  0     1  0  0  0  0  0999 V2000
  -30.1271  -24.9530   16.3483 C   0  0  0  0  0  0  0  0  0  0  0  0
  -29.0045  -24.7791   17.1513 C   0  0  0  0  0  0  0  0  0  0  0  0
  -23.1211  -12.1205   23.1686 C   0  0  0  0  0  0  0  0  0  0  0  0
  -22.1619  -13.9744   21.9522 C   0  0  0  0  0  0  0  0  0  0  0  0
  -31.1202  -25.8557   16.7263 C   0  0  0  0  0  0  0  0  0  0  0  0
  -28.8747  -25.5072   18.3335 C   0  0  0  0  0  0  0  0  0  0  0  0
  -24.2303  -27.4363   18.9273 C   0  0  0  0  0  0  0  0  0  0  0  0
  -22.0481  -12.1496   24.0593 C   0  0  0  0  0  0  0  0  0  0  0  0
  -21.0888  -14.0036   22.8428 C   0  0  0  0  0  0  0  0  0  0  0  0
  -23.2304  -26.5670   19.3614 C   0  0  0  0  0  0  0  0  0  0  0  0
  -20.4717  -15.1491   25.9634 C   0  0  0  0  0  0  0  0  0  0  0  0
  -20.0646  -16.3924   26.4472 C   0  0  0  0  0  0  0  0  0  0  0  0
  -22.8323  -21.2612   23.4046 C   0  0  0  0  0  0  0  0  0  0  0  0
  -23.4702  -27.4210   21.6046 C   0  0  0  0  0  0  0  0  0  0  0  0
  -25.1283  -20.5093   23.3920 C   0  0  0  0  0  0  0  0  0  0  0  0
  -17.8724  -16.0460   25.4926 C   0  0  0  0  0  0  0  0  0  0  0  0
  -23.1781  -13.0329   22.1151 C   0  0  0  0  0  0  0  0  0  0  0  0
  -23.0792  -22.0338   22.2698 C   0  0  0  0  0  0  0  0  0  0  0  0
  -24.3793  -12.2671   19.9989 C   0  0  0  0  0  0  0  0  0  0  0  0
  -30.9979  -26.6022   17.9089 C   0  0  0  0  0  0  0  0  0  0  0  0
  -24.8663  -28.2982   19.8322 C   0  0  0  0  0  0  0  0  0  0  0  0
  -29.8677  -26.4197   18.7284 C   0  0  0  0  0  0  0  0  0  0  0  0
  -24.4761  -28.3021   21.1790 C   0  0  0  0  0  0  0  0  0  0  0  0
  -25.3751  -21.2819   22.2572 C   0  0  0  0  0  0  0  0  0  0  0  0
  -21.0319  -13.0912   23.8964 C   0  0  0  0  0  0  0  0  0  0  0  0
  -22.8523  -26.5572   20.7008 C   0  0  0  0  0  0  0  0  0  0  0  0
  -19.5791  -14.3542   25.2441 C   0  0  0  0  0  0  0  0  0  0  0  0
  -18.7650  -16.8409   26.2118 C   0  0  0  0  0  0  0  0  0  0  0  0
  -18.2795  -14.8027   25.0088 C   0  0  0  0  0  0  0  0  0  0  0  0
  -23.8569  -20.4990   23.9657 C   0  0  0  0  0  0  0  0  0  0  0  0
  -24.3505  -22.0442   21.6961 C   0  0  0  0  0  0  0  0  0  0  0  0
  -24.2865  -13.0037   21.1950 C   0  0  0  0  0  0  0  0  0  0  0  0
  -25.6190  -12.5808   19.4977 C   0  0  0  0  0  0  0  0  0  0  0  0
  -21.9485  -22.8306   21.7080 C   0  0  0  0  0  0  0  0  0  0  0  0
  -23.4297  -11.3788   19.3948 C   0  0  0  0  0  0  0  0  0  0  0  0
  -27.8516  -28.6657   20.8600 C   0  0  0  0  0  0  0  0  0  0  0  0
  -26.6012  -31.2520   22.3666 C   0  0  0  0  0  0  0  0  0  0  0  0
  -23.8503  -32.8000   23.6640 C   0  0  0  0  0  0  0  0  0  0  0  0
  -29.2208  -17.3129   20.1950 C   0  0  0  0  0  0  0  0  0  0  0  0
  -32.1198  -27.5313   18.3000 C   0  0  0  0  0  0  0  0  0  0  0  0
  -25.9243  -29.2488   19.3430 C   0  0  0  0  0  0  0  0  0  0  0  0
  -25.1136  -29.2222   22.1867 C   0  0  0  0  0  0  0  0  0  0  0  0
  -31.7283  -28.5389   19.3779 C   0  0  0  0  0  0  0  0  0  0  0  0
  -29.9969  -13.9098   20.8973 C   0  0  0  0  0  0  0  0  0  0  0  0
  -30.9799  -27.8446   20.5113 C   0  0  0  0  0  0  0  0  0  0  0  0
  -28.6298  -13.2252   20.9453 C   0  0  0  0  0  0  0  0  0  0  0  0
  -29.9422  -15.3208   21.4786 C   0  0  0  0  0  0  0  0  0  0  0  0
  -27.5463  -15.5109   20.9336 C   0  0  0  0  0  0  0  0  0  0  0  0
  -29.6790  -27.2093   20.0056 C   0  0  1  0  0  0  0  0  0  0  0  0
  -26.8625  -29.7198   20.4500 C   0  0  1  0  0  0  0  0  0  0  0  0
  -27.5389  -14.1060   20.3071 C   0  0  2  0  0  0  0  0  0  0  0  0
  -23.1481  -34.8889   24.8643 C   0  0  0  0  0  0  0  0  0  0  0  0
  -28.3800  -21.7911   19.0666 C   0  0  0  0  0  0  0  0  0  0  0  0
  -27.7811  -30.1564   24.9584 C   0  0  0  0  0  0  0  0  0  0  0  0
  -26.2819  -31.7161   26.2186 C   0  0  0  0  0  0  0  0  0  0  0  0
  -28.0118  -32.6299   24.6709 C   0  0  0  0  0  0  0  0  0  0  0  0
  -22.0430  -33.5977   21.4603 C   0  0  0  0  0  0  0  0  0  0  0  0
  -26.7527  -21.2610   21.6767 C   0  0  0  0  0  0  0  0  0  0  0  0
  -21.2898  -23.8853   22.5877 C   0  0  0  0  0  0  0  0  0  0  0  0
  -28.3482  -19.2435   18.9026 C   0  0  0  0  0  0  0  0  0  0  0  0
  -21.9609  -25.2486   22.4752 C   0  0  0  0  0  0  0  0  0  1  0  0
  -25.9631  -31.5007   23.7120 C   0  0  1  0  0  0  0  0  0  0  0  0
  -23.3261  -34.2166   23.5119 C   0  0  2  0  0  0  0  0  0  0  0  0
  -28.1997  -20.4695   19.8009 C   0  0  2  0  0  0  0  0  0  0  0  0
  -26.9986  -31.4819   24.8716 C   0  0  0  0  0  0  0  0  0  0  0  0
  -25.3803  -13.7304   21.4392 N   0  0  0  0  0  0  0  0  0  0  0  0
  -26.1721  -13.4520   20.3896 N   0  0  0  0  0  0  0  0  0  0  0  0
  -26.1476  -30.1287   21.6608 N   0  0  0  0  0  0  0  0  0  0  0  0
  -28.8885  -16.1046   20.8295 N   0  0  0  0  0  0  0  0  0  0  0  0
  -26.2791  -12.1936   18.3857 N   0  0  0  0  0  0  0  0  0  0  0  0
  -22.2047  -11.1692   20.0428 N   0  0  0  0  0  0  0  0  0  0  0  0
  -28.6579  -28.2198   19.8303 N   0  0  0  0  0  0  0  0  0  0  0  0
  -25.2263  -32.7539   23.5889 N   0  0  0  0  0  0  0  0  0  0  0  0
  -28.1637  -17.9899   19.5992 N   0  0  0  0  0  0  0  0  0  0  0  0
  -22.0096  -34.2095   22.8136 N   0  3  0  0  0  0  0  0  0  0  0  0
  -26.8518  -20.4586   20.4280 N   0  3  0  0  0  0  0  0  0  0  0  0
  -21.5796  -22.6166   20.5555 O   0  0  0  0  0  0  0  0  0  0  0  0
  -23.6672  -10.7758   18.3208 O   0  0  0  0  0  0  0  0  0  0  0  0
  -27.8820  -28.2862   22.0248 O   0  0  0  0  0  0  0  0  0  0  0  0
  -27.4650  -32.0299   21.9540 O   0  0  0  0  0  0  0  0  0  0  0  0
  -23.1131  -31.8318   23.8361 O   0  0  0  0  0  0  0  0  0  0  0  0
  -30.3749  -17.7529   20.1573 O   0  0  0  0  0  0  0  0  0  0  0  0
  -19.9846  -13.1198   24.7652 O   0  0  0  0  0  0  0  0  0  0  0  0
  -21.8771  -25.7092   21.1272 O   0  0  0  0  0  0  0  0  0  1  0  0
  -18.3737  -18.0342   26.6777 F   0  0  0  0  0  0  0  0  0  0  0  0
  -17.4172  -14.0431   24.3195 F   0  0  0  0  0  0  0  0  0  0  0  0
  -23.5519  -19.5451   25.3656 Cl  0  0  0  0  0  0  0  0  0  0  0  0
  -24.6621  -23.0036   20.2875 Cl  0  0  0  0  0  0  0  0  0  0  0  0
  1  2  1  0  0  0  0
  1  5  2  0  0  0  0
  2  6  2  0  0  0  0
  3  8  2  0  0  0  0
  3 17  1  0  0  0  0
  4  9  1  0  0  0  0
  4 17  2  0  0  0  0
  5 20  1  0  0  0  0
  6 22  1  0  0  0  0
  7 10  2  0  0  0  0
  7 21  1  0  0  0  0
  8 25  1  0  0  0  0
  9 25  2  0  0  0  0
 10 26  1  0  0  0  0
 11 12  2  0  0  0  0
 11 27  1  0  0  0  0
 12 28  1  0  0  0  0
 13 18  1  0  0  0  0
 13 30  2  0  0  0  0
 14 23  1  0  0  0  0
 14 26  2  0  0  0  0
 15 24  2  0  0  0  0
 15 30  1  0  0  0  0
 16 28  2  0  0  0  0
 16 29  1  0  0  0  0
 17 32  1  0  0  0  0
 18 31  2  0  0  0  0
 18 34  1  0  0  0  0
 19 32  1  0  0  0  0
 19 33  2  0  0  0  0
 19 35  1  0  0  0  0
 20 22  2  0  0  0  0
 20 40  1  0  0  0  0
 21 23  2  0  0  0  0
 21 41  1  0  0  0  0
 22 49  1  0  0  0  0
 23 42  1  0  0  0  0
 24 31  1  0  0  0  0
 24 58  1  0  0  0  0
 25 83  1  0  0  0  0
 26 84  1  0  0  0  0
 27 29  2  0  0  0  0
 27 83  1  0  0  0  0
 28 85  1  0  0  0  0
 29 86  1  0  0  0  0
 30 87  1  0  0  0  0
 31 88  1  0  0  0  0
 32 66  2  0  0  0  0
 33 67  1  0  0  0  0
 33 70  1  0  0  0  0
 34 59  1  0  0  0  0
 34 77  2  0  0  0  0
 35 71  1  0  0  0  0
 35 78  2  0  0  0  0
 36 50  1  0  0  0  0
 36 72  1  0  0  0  0
 36 79  2  0  0  0  0
 37 62  1  0  0  0  0
 37 68  1  0  0  0  0
 37 80  2  0  0  0  0
 38 63  1  0  0  0  0
 38 73  1  0  0  0  0
 38 81  2  0  0  0  0
 39 69  1  0  0  0  0
 39 74  1  0  0  0  0
 39 82  2  0  0  0  0
 40 43  1  0  0  0  0
 41 50  1  0  0  0  0
 42 68  1  0  0  0  0
 43 45  1  0  0  0  0
 44 46  1  0  0  0  0
 44 47  1  0  0  0  0
 45 49  1  0  0  0  0
 46 51  1  0  0  0  0
 47 69  1  0  0  0  0
 48 51  1  0  0  0  0
 48 69  1  0  0  0  0
 49 72  1  0  0  0  0
 50 68  1  0  0  0  0
 51 67  1  0  0  0  0
 52 63  1  0  0  0  0
 53 64  1  0  0  0  0
 54 65  1  0  0  0  0
 55 65  1  0  0  0  0
 56 65  1  0  0  0  0
 57 75  1  0  0  0  0
 58 76  1  0  0  0  0
 59 61  1  0  0  0  0
 60 64  1  0  0  0  0
 60 74  1  0  0  0  0
 61 84  1  0  0  0  0
 62 65  1  0  0  0  0
 62 73  1  0  0  0  0
 63 75  1  0  0  0  0
 64 76  1  0  0  0  0
 66 67  1  0  0  0  0
M  CHG  2  75   1  76   1
M  ISO  4  39 100  61 101  74 100  84 101
M  END
> <Batch ID>
0023

> <Smiles>
CNC(C)C(=O)NC(C(=O)N1Cc2cc([101O:1][101CH2:1]CC(=O)c3cc(Cl)cc(CNC(C)C[100NH:0][100C:0](=O)N4CCCC(n5nc(-c6ccc(Oc7ccc(F)cc7F)cc6)c(C(N)=O)c5N)C4)c3Cl)ccc2CC1C(=O)NC1CCCc2ccccc21)C(C)(C)C

> <Shape>
0.268

> <Color>
0.072

> <Negative vol penalty>
0.000

$$$$

  -OEChem-04052316193D

 95103  0     1  0  0  0  0  0999 V2000
  -24.3654  -10.3050   20.4605 C   0  0  0  0  0  0  0  0  0  0  0  0
  -23.6365  -11.2496   21.1761 C   0  0  0  0  0  0  0  0  0  0  0  0
  -22.8078  -31.4116   22.2184 C   0  0  0  0  0  0  0  0  0  0  0  0
  -23.9427  -30.7066   24.2313 C   0  0  0  0  0  0  0  0  0  0  0  0
  -25.6404  -10.6189   19.9919 C   0  0  0  0  0  0  0  0  0  0  0  0
  -24.1828  -12.5083   21.4243 C   0  0  0  0  0  0  0  0  0  0  0  0
  -21.1774  -17.8374   21.6959 C   0  0  0  0  0  0  0  0  0  0  0  0
  -21.5789  -31.2792   22.8648 C   0  0  0  0  0  0  0  0  0  0  0  0
  -22.7138  -30.5741   24.8778 C   0  0  0  0  0  0  0  0  0  0  0  0
  -20.7029  -18.5932   22.7671 C   0  0  0  0  0  0  0  0  0  0  0  0
  -19.4689  -28.7793   23.7149 C   0  0  0  0  0  0  0  0  0  0  0  0
  -18.4394  -28.1404   23.0238 C   0  0  0  0  0  0  0  0  0  0  0  0
  -22.7067  -19.9347   22.7003 C   0  0  0  0  0  0  0  0  0  0  0  0
  -17.0917  -30.1392   23.1835 C   0  0  0  0  0  0  0  0  0  0  0  0
  -23.9897  -31.1253   22.9016 C   0  0  0  0  0  0  0  0  0  0  0  0
  -26.0718  -32.4097   22.1786 C   0  0  0  0  0  0  0  0  0  0  0  0
  -26.1988  -11.8854   20.2261 C   0  0  0  0  0  0  0  0  0  0  0  0
  -22.4271  -18.1182   21.1249 C   0  0  0  0  0  0  0  0  0  0  0  0
  -25.4671  -12.8390   20.9595 C   0  0  0  0  0  0  0  0  0  0  0  0
  -23.1936  -19.1827   21.6203 C   0  0  0  0  0  0  0  0  0  0  0  0
  -25.2800  -20.0450   27.8993 C   0  0  0  0  0  0  0  0  0  0  0  0
  -24.3488  -21.0298   28.2097 C   0  0  0  0  0  0  0  0  0  0  0  0
  -26.3013  -20.3214   26.9972 C   0  0  0  0  0  0  0  0  0  0  0  0
  -21.5319  -30.8605   24.1945 C   0  0  0  0  0  0  0  0  0  0  0  0
  -21.4688  -19.6402   23.2714 C   0  0  0  0  0  0  0  0  0  0  0  0
  -19.3097  -30.0982   24.1404 C   0  0  0  0  0  0  0  0  0  0  0  0
  -17.2508  -28.8203   22.7581 C   0  0  0  0  0  0  0  0  0  0  0  0
  -18.1211  -30.7781   23.8746 C   0  0  0  0  0  0  0  0  0  0  0  0
  -25.2594  -31.2613   22.2342 C   0  0  0  0  0  0  0  0  0  0  0  0
  -24.4817  -22.2648   27.5957 C   0  0  0  0  0  0  0  0  0  0  0  0
  -26.3468  -21.5880   26.4373 C   0  0  0  0  0  0  0  0  0  0  0  0
  -27.1589  -32.0255   21.4322 C   0  0  0  0  0  0  0  0  0  0  0  0
  -25.8626  -33.7076   22.7507 C   0  0  0  0  0  0  0  0  0  0  0  0
  -25.1528  -16.5168   20.7940 C   0  0  0  0  0  0  0  0  0  0  0  0
  -26.0034  -19.1006   19.0268 C   0  0  0  0  0  0  0  0  0  0  0  0
  -25.5476  -22.4096   18.3273 C   0  0  0  0  0  0  0  0  0  0  0  0
  -29.6954  -26.7087   20.3603 C   0  0  0  0  0  0  0  0  0  0  0  0
  -27.5995  -12.1624   19.7405 C   0  0  0  0  0  0  0  0  0  0  0  0
  -22.9128  -17.3106   19.9526 C   0  0  0  0  0  0  0  0  0  0  0  0
  -24.5328  -19.5378   21.0296 C   0  0  0  0  0  0  0  0  0  0  0  0
  -27.9558  -13.6466   19.7230 C   0  0  0  0  0  0  0  0  0  0  0  0
  -28.4292  -29.0017   17.9488 C   0  0  0  0  0  0  0  0  0  0  0  0
  -27.5335  -14.3124   21.0289 C   0  0  0  0  0  0  0  0  0  0  0  0
  -27.5466  -29.9444   18.7686 C   0  0  0  0  0  0  0  0  0  0  0  0
  -28.3522  -27.5661   18.4637 C   0  0  0  0  0  0  0  0  0  0  0  0
  -27.7540  -28.3508   20.7221 C   0  0  0  0  0  0  0  0  0  0  0  0
  -26.0155  -14.2237   21.2276 C   0  0  1  0  0  0  0  0  0  0  0  0
  -24.4280  -17.3576   19.7814 C   0  0  1  0  0  0  0  0  0  0  0  0
  -27.8417  -29.8202   20.2755 C   0  0  2  0  0  0  0  0  0  0  0  0
  -25.1830  -18.6947   28.5348 C   0  0  0  0  0  0  0  0  0  0  0  0
  -27.3114  -19.2781   26.6492 C   0  0  0  0  0  0  0  0  0  0  0  0
  -21.7605  -24.9922   26.9745 C   0  0  0  0  0  0  0  0  0  0  0  0
  -23.3535  -21.6655   30.4219 C   0  0  0  0  0  0  0  0  0  0  0  0
  -24.2078  -24.5634   28.5610 C   0  0  0  0  0  0  0  0  0  0  0  0
  -26.4162  -24.2507   16.8599 C   0  0  0  0  0  0  0  0  0  0  0  0
  -28.4793  -19.3378   20.7942 C   0  0  0  0  0  0  0  0  0  0  0  0
  -28.7868  -21.6677   19.9308 C   0  0  0  0  0  0  0  0  0  0  0  0
  -28.8936  -19.7331   18.3597 C   0  0  0  0  0  0  0  0  0  0  0  0
  -22.9094  -22.7858   17.0400 C   0  0  0  0  0  0  0  0  0  0  0  0
  -22.7215  -23.8556   26.6473 C   0  0  0  0  0  0  0  0  0  0  0  0
  -29.3489  -24.5895   23.7810 C   0  0  0  0  0  0  0  0  0  0  0  0
  -21.7181  -20.2759   27.1697 C   0  0  0  0  0  0  0  0  0  0  0  0
  -28.8968  -23.1773   24.1559 C   0  0  0  0  0  0  0  0  0  0  0  0
  -30.4924  -24.5546   22.7627 C   0  0  0  0  0  0  0  0  0  0  0  0
  -20.2886  -20.3655   26.6252 C   0  0  0  0  0  0  0  0  0  0  0  0
  -21.8200  -20.9086   28.5635 C   0  0  0  0  0  0  0  0  0  0  0  0
  -27.7844  -23.2083   25.1989 C   0  0  0  0  0  0  0  0  0  0  0  0
  -30.9572  -25.9501   22.3583 C   0  0  0  0  0  0  0  0  0  0  0  0
  -20.1537  -19.7205   25.2512 C   0  0  0  0  0  0  0  0  0  1  0  0
  -23.2220  -20.7591   29.1918 C   0  0  1  0  0  0  0  0  0  0  0  0
  -23.5115  -23.3620   27.8892 C   0  0  1  0  0  0  0  0  0  0  0  0
  -26.6606  -20.4275   19.3207 C   0  0  1  0  0  0  0  0  0  0  0  0
  -25.3807  -23.1473   17.0111 C   0  0  2  0  0  0  0  0  0  0  0  0
  -28.1807  -20.2839   19.6139 C   0  0  0  0  0  0  0  0  0  0  0  0
  -25.7853  -30.2253   21.5754 N   0  0  0  0  0  0  0  0  0  0  0  0
  -25.4602  -22.5703   26.7143 N   0  0  0  0  0  0  0  0  0  0  0  0
  -26.9399  -30.7212   21.0987 N   0  0  0  0  0  0  0  0  0  0  0  0
  -24.9671  -18.7148   19.8888 N   0  0  0  0  0  0  0  0  0  0  0  0
  -28.6440  -27.5175   19.8985 N   0  0  0  0  0  0  0  0  0  0  0  0
  -28.2711  -32.6794   21.0350 N   0  0  0  0  0  0  0  0  0  0  0  0
  -24.6922  -33.9319   23.4883 N   0  0  0  0  0  0  0  0  0  0  0  0
  -27.3833  -21.8763   25.5147 N   0  0  0  0  0  0  0  0  0  0  0  0
  -25.3399  -15.2042   20.4050 N   0  0  0  0  0  0  0  0  0  0  0  0
  -26.3495  -21.2963   18.1907 N   0  0  0  0  0  0  0  0  0  0  0  0
  -29.9087  -26.7252   21.7333 N   0  0  0  0  0  0  0  0  0  0  0  0
  -24.0249  -23.7606   16.9294 N   0  3  0  0  0  0  0  0  0  0  0  0
  -26.6813  -34.6457   22.5980 O   0  0  0  0  0  0  0  0  0  0  0  0
  -25.5168  -17.0220   21.8495 O   0  0  0  0  0  0  0  0  0  0  0  0
  -26.3904  -18.4343   18.0634 O   0  0  0  0  0  0  0  0  0  0  0  0
  -25.0224  -22.7857   19.3729 O   0  0  0  0  0  0  0  0  0  0  0  0
  -30.3960  -26.0268   19.6045 O   0  0  0  0  0  0  0  0  0  0  0  0
  -20.3330  -30.7313   24.8257 O   0  0  0  0  0  0  0  0  0  0  0  0
  -21.0084  -20.3790   24.3173 O   0  0  0  0  0  0  0  0  0  1  0  0
  -16.2630  -28.2072   22.0930 F   0  0  0  0  0  0  0  0  0  0  0  0
  -17.9629  -32.0456   24.2798 F   0  0  0  0  0  0  0  0  0  0  0  0
  1  2  1  0  0  0  0
  1  5  2  0  0  0  0
  2  6  2  0  0  0  0
  3  8  2  0  0  0  0
  3 15  1  0  0  0  0
  4  9  1  0  0  0  0
  4 15  2  0  0  0  0
  5 17  1  0  0  0  0
  6 19  1  0  0  0  0
  7 10  2  0  0  0  0
  7 18  1  0  0  0  0
  8 24  1  0  0  0  0
  9 24  2  0  0  0  0
 10 25  1  0  0  0  0
 11 12  2  0  0  0  0
 11 26  1  0  0  0  0
 12 27  1  0  0  0  0
 13 20  1  0  0  0  0
 13 25  2  0  0  0  0
 14 27  2  0  0  0  0
 14 28  1  0  0  0  0
 15 29  1  0  0  0  0
 16 29  1  0  0  0  0
 16 32  2  0  0  0  0
 16 33  1  0  0  0  0
 17 19  2  0  0  0  0
 17 38  1  0  0  0  0
 18 20  2  0  0  0  0
 18 39  1  0  0  0  0
 19 47  1  0  0  0  0
 20 40  1  0  0  0  0
 21 22  1  0  0  0  0
 21 23  2  0  0  0  0
 21 50  1  0  0  0  0
 22 30  2  0  0  0  0
 22 70  1  0  0  0  0
 23 31  1  0  0  0  0
 23 51  1  0  0  0  0
 24 92  1  0  0  0  0
 25 93  1  0  0  0  0
 26 28  2  0  0  0  0
 26 92  1  0  0  0  0
 27 94  1  0  0  0  0
 28 95  1  0  0  0  0
 29 75  2  0  0  0  0
 30 71  1  0  0  0  0
 30 76  1  0  0  0  0
 31 76  2  0  0  0  0
 31 82  1  0  0  0  0
 32 77  1  0  0  0  0
 32 80  1  0  0  0  0
 33 81  1  0  0  0  0
 33 87  2  0  0  0  0
 34 48  1  0  0  0  0
 34 83  1  0  0  0  0
 34 88  2  0  0  0  0
 35 72  1  0  0  0  0
 35 78  1  0  0  0  0
 35 89  2  0  0  0  0
 36 73  1  0  0  0  0
 36 84  1  0  0  0  0
 36 90  2  0  0  0  0
 37 79  1  0  0  0  0
 37 85  1  0  0  0  0
 37 91  2  0  0  0  0
 38 41  1  0  0  0  0
 39 48  1  0  0  0  0
 40 78  1  0  0  0  0
 41 43  1  0  0  0  0
 42 44  1  0  0  0  0
 42 45  1  0  0  0  0
 43 47  1  0  0  0  0
 44 49  1  0  0  0  0
 45 79  1  0  0  0  0
 46 49  1  0  0  0  0
 46 79  1  0  0  0  0
 47 83  1  0  0  0  0
 48 78  1  0  0  0  0
 49 77  1  0  0  0  0
 52 60  1  0  0  0  0
 53 70  1  0  0  0  0
 54 71  1  0  0  0  0
 55 73  1  0  0  0  0
 56 74  1  0  0  0  0
 57 74  1  0  0  0  0
 58 74  1  0  0  0  0
 59 86  1  0  0  0  0
 60 71  1  0  0  0  0
 61 63  1  0  0  0  0
 61 64  1  0  0  0  0
 62 65  1  0  0  0  0
 62 66  1  0  0  0  0
 63 67  1  0  0  0  0
 64 68  1  0  0  0  0
 65 69  1  0  0  0  0
 66 70  1  0  0  0  0
 67 82  1  0  0  0  0
 68 85  1  0  0  0  0
 69 93  1  0  0  0  0
 72 74  1  0  0  0  0
 72 84  1  0  0  0  0
 73 86  1  0  0  0  0
 75 77  1  0  0  0  0
M  CHG  1  86   1
M  ISO  4  37 100  69 101  85 100  93 101
M  END
> <Batch ID>
0023

> <Smiles>
CCC(C)c1nc(NCCCCC[100NH:0][100C:0](=O)N2CCCC(n3nc(-c4ccc(Oc5ccc(F)cc5F)cc4)c(C(N)=O)c3N)C2)c(C)c(C)c1C(C)CCC[101CH2:1][101O:1]c1ccc2c(c1)CN(C(=O)C(NC(=O)C(C)NC)C(C)(C)C)C(C(=O)NC1CCCc3ccccc31)C2

> <Shape>
0.214

> <Color>
0.069

> <Negative vol penalty>
0.000

$$$$

  -OEChem-04052316193D

 88 96  0     1  0  0  0  0  0999 V2000
  -24.4863  -28.3330   20.3993 C   0  0  0  0  0  0  0  0  0  0  0  0
  -24.4196  -27.1584   19.6569 C   0  0  0  0  0  0  0  0  0  0  0  0
  -28.7588  -12.7655   20.9532 C   0  0  0  0  0  0  0  0  0  0  0  0
  -28.2001  -12.6162   18.6074 C   0  0  0  0  0  0  0  0  0  0  0  0
  -25.7169  -28.7909   20.8684 C   0  0  0  0  0  0  0  0  0  0  0  0
  -25.5836  -26.4415   19.3822 C   0  0  0  0  0  0  0  0  0  0  0  0
  -25.0128  -21.4611   20.0998 C   0  0  0  0  0  0  0  0  0  0  0  0
  -20.3882  -10.4918   14.2265 C   0  0  0  0  0  0  0  0  0  0  0  0
  -30.1156  -12.7745   20.6295 C   0  0  0  0  0  0  0  0  0  0  0  0
  -29.5569  -12.6252   18.2837 C   0  0  0  0  0  0  0  0  0  0  0  0
  -24.3467  -20.7467   19.1050 C   0  0  0  0  0  0  0  0  0  0  0  0
  -32.4808  -10.5260   19.7493 C   0  0  0  0  0  0  0  0  0  0  0  0
  -33.3303   -9.7114   20.4979 C   0  0  0  0  0  0  0  0  0  0  0  0
  -19.3905  -10.1919   15.1539 C   0  0  0  0  0  0  0  0  0  0  0  0
  -26.4671  -20.0026   18.2278 C   0  0  0  0  0  0  0  0  0  0  0  0
  -34.5845  -11.6566   21.1912 C   0  0  0  0  0  0  0  0  0  0  0  0
  -27.8011  -12.6863   19.9421 C   0  0  0  0  0  0  0  0  0  0  0  0
  -25.5490  -13.7905   20.4073 C   0  0  0  0  0  0  0  0  0  0  0  0
  -26.8953  -28.0741   20.6075 C   0  0  0  0  0  0  0  0  0  0  0  0
  -26.4139  -21.4604   20.1595 C   0  0  0  0  0  0  0  0  0  0  0  0
  -26.8313  -26.8909   19.8471 C   0  0  0  0  0  0  0  0  0  0  0  0
  -27.1486  -20.7158   19.2258 C   0  0  0  0  0  0  0  0  0  0  0  0
  -21.6383   -9.8807   14.3246 C   0  0  0  0  0  0  0  0  0  0  0  0
  -20.8929   -8.6698   16.2779 C   0  0  0  0  0  0  0  0  0  0  0  0
  -30.5146  -12.7044   19.2948 C   0  0  0  0  0  0  0  0  0  0  0  0
  -25.0739  -20.0197   18.1670 C   0  0  0  0  0  0  0  0  0  0  0  0
  -32.6831  -11.9059   19.7216 C   0  0  0  0  0  0  0  0  0  0  0  0
  -34.3821  -10.2767   21.2189 C   0  0  0  0  0  0  0  0  0  0  0  0
  -33.7350  -12.4711   20.4426 C   0  0  0  0  0  0  0  0  0  0  0  0
  -19.6428   -9.2809   16.1796 C   0  0  0  0  0  0  0  0  0  0  0  0
  -21.8906   -8.9698   15.3503 C   0  0  0  0  0  0  0  0  0  0  0  0
  -26.3995  -12.6764   20.2759 C   0  0  0  0  0  0  0  0  0  0  0  0
  -24.3272  -13.2535   20.7316 C   0  0  0  0  0  0  0  0  0  0  0  0
  -25.8376  -15.1861   20.2502 C   0  0  0  0  0  0  0  0  0  0  0  0
  -28.6701  -23.6869   19.9228 C   0  0  0  0  0  0  0  0  0  0  0  0
  -30.6317  -21.2294   20.7198 C   0  0  0  0  0  0  0  0  0  0  0  0
  -31.1684  -17.8601   20.8019 C   0  0  0  0  0  0  0  0  0  0  0  0
  -21.8415   -7.8937   19.7592 C   0  0  0  0  0  0  0  0  0  0  0  0
  -28.2083  -28.6336   21.0952 C   0  0  0  0  0  0  0  0  0  0  0  0
  -27.1166  -22.2145   21.2550 C   0  0  0  0  0  0  0  0  0  0  0  0
  -28.6535  -20.6661   19.2588 C   0  0  0  0  0  0  0  0  0  0  0  0
  -29.3470  -27.6170   21.0795 C   0  0  0  0  0  0  0  0  0  0  0  0
  -22.3560   -9.4756   22.9072 C   0  0  0  0  0  0  0  0  0  0  0  0
  -29.3683  -26.8597   19.7555 C   0  0  0  0  0  0  0  0  0  0  0  0
  -23.3739  -10.5758   22.6016 C   0  0  0  0  0  0  0  0  0  0  0  0
  -22.6241   -8.2153   22.0874 C   0  0  0  0  0  0  0  0  0  0  0  0
  -23.7364   -9.5322   20.3260 C   0  0  0  0  0  0  0  0  0  0  0  0
  -28.0687  -26.0722   19.5494 C   0  0  1  0  0  0  0  0  0  0  0  0
  -28.5621  -22.5597   20.9105 C   0  0  1  0  0  0  0  0  0  0  0  0
  -23.4737  -10.8426   21.0877 C   0  0  2  0  0  0  0  0  0  0  0  0
  -32.8806  -16.1540   21.4763 C   0  0  0  0  0  0  0  0  0  0  0  0
  -32.2737  -21.8992   18.2368 C   0  0  0  0  0  0  0  0  0  0  0  0
  -33.3573  -19.6507   18.4322 C   0  0  0  0  0  0  0  0  0  0  0  0
  -33.6279  -21.3267   20.2598 C   0  0  0  0  0  0  0  0  0  0  0  0
  -29.3310  -16.6217   22.7639 C   0  0  0  0  0  0  0  0  0  0  0  0
  -22.6853  -10.2364   13.2992 C   0  0  0  0  0  0  0  0  0  0  0  0
  -21.1588   -7.6916   17.3817 C   0  0  0  0  0  0  0  0  0  0  0  0
  -23.7305  -11.2382   13.8054 C   0  0  0  0  0  0  0  0  0  0  0  0
  -23.1172  -12.5783   14.2262 C   0  0  0  0  0  0  0  0  0  0  0  0
  -24.1545  -13.5899   14.7235 C   0  0  0  0  0  0  0  0  0  0  0  0
  -23.5367  -14.9015   15.2135 C   0  0  0  0  0  0  0  0  0  0  0  0
  -24.6125  -15.8647   15.7202 C   0  0  0  0  0  0  0  0  0  0  0  0
  -23.9968  -17.1616   16.2411 C   0  0  0  0  0  0  0  0  0  0  0  0
  -25.0638  -18.1419   16.7076 C   0  0  0  0  0  0  0  0  0  1  0  0
  -31.3964  -20.1792   19.9509 C   0  0  1  0  0  0  0  0  0  0  0  0
  -31.6560  -16.9445   21.9102 C   0  0  2  0  0  0  0  0  0  0  0  0
  -32.6355  -20.7663   19.2179 C   0  0  0  0  0  0  0  0  0  0  0  0
  -25.7712  -11.5190   20.4987 N   0  0  0  0  0  0  0  0  0  0  0  0
  -24.5129  -11.9029   20.7735 N   0  0  0  0  0  0  0  0  0  0  0  0
  -29.2949  -21.4249   20.3452 N   0  0  0  0  0  0  0  0  0  0  0  0
  -22.7056   -8.5370   20.6606 N   0  0  0  0  0  0  0  0  0  0  0  0
  -23.1228  -13.8094   20.9824 N   0  0  0  0  0  0  0  0  0  0  0  0
  -27.1450  -15.5645   19.9156 N   0  0  0  0  0  0  0  0  0  0  0  0
  -28.0792  -24.8627   20.3442 N   0  0  0  0  0  0  0  0  0  0  0  0
  -31.7123  -19.1229   20.9063 N   0  0  0  0  0  0  0  0  0  0  0  0
  -21.9805   -8.2612   18.4264 N   0  0  0  0  0  0  0  0  0  0  0  0
  -30.5862  -15.9807   22.2942 N   0  3  0  0  0  0  0  0  0  0  0  0
  -24.9660  -16.0725   20.4183 O   0  0  0  0  0  0  0  0  0  0  0  0
  -29.2482  -23.5037   18.8579 O   0  0  0  0  0  0  0  0  0  0  0  0
  -31.1976  -21.8483   21.6245 O   0  0  0  0  0  0  0  0  0  0  0  0
  -30.3863  -17.4909   19.9287 O   0  0  0  0  0  0  0  0  0  0  0  0
  -21.0042   -7.0581   20.1164 O   0  0  0  0  0  0  0  0  0  0  0  0
  -31.8384  -12.7134   18.9786 O   0  0  0  0  0  0  0  0  0  0  0  0
  -24.4262  -19.3220   17.1946 O   0  0  0  0  0  0  0  0  0  1  0  0
  -35.1968   -9.4945   21.9390 F   0  0  0  0  0  0  0  0  0  0  0  0
  -33.9337  -13.7962   20.4208 F   0  0  0  0  0  0  0  0  0  0  0  0
  -18.3786   -8.9395   17.3056 Cl  0  0  0  0  0  0  0  0  0  0  0  0
  -23.4456   -8.2143   15.4667 Cl  0  0  0  0  0  0  0  0  0  0  0  0
  1  2  1  0  0  0  0
  1  5  2  0  0  0  0
  2  6  2  0  0  0  0
  3  9  2  0  0  0  0
  3 17  1  0  0  0  0
  4 10  1  0  0  0  0
  4 17  2  0  0  0  0
  5 19  1  0  0  0  0
  6 21  1  0  0  0  0
  7 11  2  0  0  0  0
  7 20  1  0  0  0  0
  8 14  2  0  0  0  0
  8 23  1  0  0  0  0
  9 25  1  0  0  0  0
 10 25  2  0  0  0  0
 11 26  1  0  0  0  0
 12 13  2  0  0  0  0
 12 27  1  0  0  0  0
 13 28  1  0  0  0  0
 14 30  1  0  0  0  0
 15 22  1  0  0  0  0
 15 26  2  0  0  0  0
 16 28  2  0  0  0  0
 16 29  1  0  0  0  0
 17 32  1  0  0  0  0
 18 32  1  0  0  0  0
 18 33  2  0  0  0  0
 18 34  1  0  0  0  0
 19 21  2  0  0  0  0
 19 39  1  0  0  0  0
 20 22  2  0  0  0  0
 20 40  1  0  0  0  0
 21 48  1  0  0  0  0
 22 41  1  0  0  0  0
 23 31  2  0  0  0  0
 23 56  1  0  0  0  0
 24 30  2  0  0  0  0
 24 31  1  0  0  0  0
 24 57  1  0  0  0  0
 25 83  1  0  0  0  0
 26 84  1  0  0  0  0
 27 29  2  0  0  0  0
 27 83  1  0  0  0  0
 28 85  1  0  0  0  0
 29 86  1  0  0  0  0
 30 87  1  0  0  0  0
 31 88  1  0  0  0  0
 32 68  2  0  0  0  0
 33 69  1  0  0  0  0
 33 72  1  0  0  0  0
 34 73  1  0  0  0  0
 34 78  2  0  0  0  0
 35 49  1  0  0  0  0
 35 74  1  0  0  0  0
 35 79  2  0  0  0  0
 36 65  1  0  0  0  0
 36 70  1  0  0  0  0
 36 80  2  0  0  0  0
 37 66  1  0  0  0  0
 37 75  1  0  0  0  0
 37 81  2  0  0  0  0
 38 71  1  0  0  0  0
 38 76  1  0  0  0  0
 38 82  2  0  0  0  0
 39 42  1  0  0  0  0
 40 49  1  0  0  0  0
 41 70  1  0  0  0  0
 42 44  1  0  0  0  0
 43 45  1  0  0  0  0
 43 46  1  0  0  0  0
 44 48  1  0  0  0  0
 45 50  1  0  0  0  0
 46 71  1  0  0  0  0
 47 50  1  0  0  0  0
 47 71  1  0  0  0  0
 48 74  1  0  0  0  0
 49 70  1  0  0  0  0
 50 69  1  0  0  0  0
 51 66  1  0  0  0  0
 52 67  1  0  0  0  0
 53 67  1  0  0  0  0
 54 67  1  0  0  0  0
 55 77  1  0  0  0  0
 56 58  1  0  0  0  0
 57 76  1  0  0  0  0
 58 59  1  0  0  0  0
 59 60  1  0  0  0  0
 60 61  1  0  0  0  0
 61 62  1  0  0  0  0
 62 63  1  0  0  0  0
 63 64  1  0  0  0  0
 64 84  1  0  0  0  0
 65 67  1  0  0  0  0
 65 75  1  0  0  0  0
 66 77  1  0  0  0  0
 68 69  1  0  0  0  0
M  CHG  1  77   1
M  ISO  4  38 100  64 101  76 100  84 101
M  END
> <Batch ID>
0023

> <Smiles>
CNC(C)C(=O)NC(C(=O)N1Cc2cc([101O:1][101CH2:1]CCCCCCCc3ccc(Cl)c(C[100NH:0][100C:0](=O)N4CCCC(n5nc(-c6ccc(Oc7ccc(F)cc7F)cc6)c(C(N)=O)c5N)C4)c3Cl)ccc2CC1C(=O)NC1CCCc2ccccc21)C(C)(C)C

> <Shape>
0.246

> <Color>
0.144

> <Negative vol penalty>
0.000

$$$$

  -OEChem-04052316193D

 94102  0     1  0  0  0  0  0999 V2000
  -31.8575  -13.2828   21.8658 C   0  0  0  0  0  0  0  0  0  0  0  0
  -31.2045  -14.4853   22.1164 C   0  0  0  0  0  0  0  0  0  0  0  0
  -29.4543  -23.7753   21.1683 C   0  0  0  0  0  0  0  0  0  0  0  0
  -29.3634  -23.7745   18.7541 C   0  0  0  0  0  0  0  0  0  0  0  0
  -31.2896  -12.3498   20.9992 C   0  0  0  0  0  0  0  0  0  0  0  0
  -29.9836  -14.7561   21.4995 C   0  0  0  0  0  0  0  0  0  0  0  0
  -26.5739  -16.6900   24.7057 C   0  0  0  0  0  0  0  0  0  0  0  0
  -29.4706  -22.3806   21.1682 C   0  0  0  0  0  0  0  0  0  0  0  0
  -29.3797  -22.3798   18.7539 C   0  0  0  0  0  0  0  0  0  0  0  0
  -26.7004  -18.0396   25.0318 C   0  0  0  0  0  0  0  0  0  0  0  0
  -27.1859  -19.8625   19.2848 C   0  0  0  0  0  0  0  0  0  0  0  0
  -26.2868  -19.2040   18.4461 C   0  0  0  0  0  0  0  0  0  0  0  0
  -24.9663  -18.5794   23.4440 C   0  0  0  0  0  0  0  0  0  0  0  0
  -28.3597  -30.6309   24.8896 C   0  0  0  0  0  0  0  0  0  0  0  0
  -25.9781  -30.5164   24.5001 C   0  0  0  0  0  0  0  0  0  0  0  0
  -28.1319  -18.1559   17.2910 C   0  0  0  0  0  0  0  0  0  0  0  0
  -29.4006  -24.4723   19.9612 C   0  0  0  0  0  0  0  0  0  0  0  0
  -30.4941  -26.7767   19.9184 C   0  0  0  0  0  0  0  0  0  0  0  0
  -30.0564  -12.6052   20.3789 C   0  0  0  0  0  0  0  0  0  0  0  0
  -25.6488  -16.2755   23.7368 C   0  0  0  0  0  0  0  0  0  0  0  0
  -29.3993  -13.8263   20.6228 C   0  0  0  0  0  0  0  0  0  0  0  0
  -24.8283  -17.2237   23.1093 C   0  0  0  0  0  0  0  0  0  0  0  0
  -28.2166  -29.8082   26.0069 C   0  0  0  0  0  0  0  0  0  0  0  0
  -25.8349  -29.6937   25.6174 C   0  0  0  0  0  0  0  0  0  0  0  0
  -26.9542  -29.3395   26.3707 C   0  0  0  0  0  0  0  0  0  0  0  0
  -27.2405  -30.9851   24.1363 C   0  0  0  0  0  0  0  0  0  0  0  0
  -29.4333  -21.6828   19.9610 C   0  0  0  0  0  0  0  0  0  0  0  0
  -25.8985  -18.9849   24.3988 C   0  0  0  0  0  0  0  0  0  0  0  0
  -28.5581  -19.6679   19.1266 C   0  0  0  0  0  0  0  0  0  0  0  0
  -26.7598  -18.3507   17.4492 C   0  0  0  0  0  0  0  0  0  0  0  0
  -29.0311  -18.8146   18.1297 C   0  0  0  0  0  0  0  0  0  0  0  0
  -29.3831  -25.9131   19.9607 C   0  0  0  0  0  0  0  0  0  0  0  0
  -29.9498  -28.0376   19.9377 C   0  0  0  0  0  0  0  0  0  0  0  0
  -31.8930  -26.4668   19.8663 C   0  0  0  0  0  0  0  0  0  0  0  0
  -25.8526  -14.8196   20.9186 C   0  0  0  0  0  0  0  0  0  0  0  0
  -22.6152  -14.8185   21.1229 C   0  0  0  0  0  0  0  0  0  0  0  0
  -19.7944  -16.2246   22.4316 C   0  0  0  0  0  0  0  0  0  0  0  0
  -26.5130  -31.7311   21.8767 C   0  0  0  0  0  0  0  0  0  0  0  0
  -29.5049  -11.5865   19.4132 C   0  0  0  0  0  0  0  0  0  0  0  0
  -25.5060  -14.8130   23.4157 C   0  0  0  0  0  0  0  0  0  0  0  0
  -23.8055  -16.8281   22.0769 C   0  0  0  0  0  0  0  0  0  0  0  0
  -28.0267  -11.7904   19.0911 C   0  0  0  0  0  0  0  0  0  0  0  0
  -25.1733  -29.5807   19.3820 C   0  0  0  0  0  0  0  0  0  0  0  0
  -27.7449  -13.2575   18.7828 C   0  0  0  0  0  0  0  0  0  0  0  0
  -26.2432  -28.4915   19.3139 C   0  0  0  0  0  0  0  0  0  0  0  0
  -24.9227  -30.0481   20.8161 C   0  0  0  0  0  0  0  0  0  0  0  0
  -27.2177  -29.3860   21.4636 C   0  0  0  0  0  0  0  0  0  0  0  0
  -28.0614  -14.1460   19.9920 C   0  0  1  0  0  0  0  0  0  0  0  0
  -24.8904  -14.5600   22.0430 C   0  0  1  0  0  0  0  0  0  0  0  0
  -27.5315  -28.9374   20.0277 C   0  0  1  0  0  0  0  0  0  0  0  0
  -29.4307  -29.4441   26.7971 C   0  0  0  0  0  0  0  0  0  0  0  0
  -17.2929  -16.0312   22.3843 C   0  0  0  0  0  0  0  0  0  0  0  0
  -28.0541  -24.0805   27.3020 C   0  0  0  0  0  0  0  0  0  0  0  0
  -29.6594  -25.6167   28.4563 C   0  0  0  0  0  0  0  0  0  0  0  0
  -25.7430  -25.6689   28.6234 C   0  0  0  0  0  0  0  0  0  0  0  0
  -22.5664  -16.1513   18.3786 C   0  0  0  0  0  0  0  0  0  0  0  0
  -20.1816  -16.7830   18.8050 C   0  0  0  0  0  0  0  0  0  0  0  0
  -20.8346  -14.3774   18.7078 C   0  0  0  0  0  0  0  0  0  0  0  0
  -28.3079  -32.9760   23.0616 C   0  0  0  0  0  0  0  0  0  0  0  0
  -19.6679  -15.6519   25.3324 C   0  0  0  0  0  0  0  0  0  0  0  0
  -24.4591  -29.2006   25.9890 C   0  0  0  0  0  0  0  0  0  0  0  0
  -26.8009  -28.4568   27.5685 C   0  0  0  0  0  0  0  0  0  0  0  0
  -24.1851  -27.7534   25.5617 C   0  0  0  0  0  0  0  0  0  0  0  0
  -24.2819  -27.5509   24.0456 C   0  0  0  0  0  0  0  0  0  0  0  0
  -23.9994  -26.1105   23.6073 C   0  0  0  0  0  0  0  0  0  0  0  0
  -24.9181  -25.0827   24.2720 C   0  0  0  0  0  0  0  0  0  0  0  0
  -24.5781  -23.6612   23.8185 C   0  0  0  0  0  0  0  0  0  0  0  0
  -25.4708  -22.6299   24.5054 C   0  0  0  0  0  0  0  0  0  0  0  0
  -25.1670  -21.2171   24.0274 C   0  0  0  0  0  0  0  0  0  1  0  0
  -21.5174  -15.7672   20.7063 C   0  0  1  0  0  0  0  0  0  0  0  0
  -18.5727  -15.6074   23.0881 C   0  0  2  0  0  0  0  0  0  0  0  0
  -28.2328  -25.0554   28.4699 C   0  0  0  0  0  0  0  0  0  0  0  0
  -27.1758  -26.1810   28.5269 C   0  0  1  0  0  0  0  0  0  0  0  0
  -21.2955  -15.7777   19.1674 C   0  0  0  0  0  0  0  0  0  0  0  0
  -28.2209  -26.5698   20.0038 N   0  0  0  0  0  0  0  0  0  0  0  0
  -28.5985  -27.8595   19.9887 N   0  0  0  0  0  0  0  0  0  0  0  0
  -23.7081  -15.3868   21.7927 N   0  0  0  0  0  0  0  0  0  0  0  0
  -26.1844  -30.4244   21.4694 N   0  0  0  0  0  0  0  0  0  0  0  0
  -30.4999  -29.2701   19.9158 N   0  0  0  0  0  0  0  0  0  0  0  0
  -32.2789  -25.1195   19.8530 N   0  0  0  0  0  0  0  0  0  0  0  0
  -27.0034  -14.0567   20.9754 N   0  0  0  0  0  0  0  0  0  0  0  0
  -20.3378  -15.3904   21.4776 N   0  0  0  0  0  0  0  0  0  0  0  0
  -27.3885  -31.8359   22.9789 N   0  0  0  0  0  0  0  0  0  0  0  0
  -18.4848  -16.0260   24.5157 N   0  3  0  0  0  0  0  0  0  0  0  0
  -27.2652  -27.0635   27.3336 N   0  3  0  0  0  0  0  0  0  0  0  0
  -32.7753  -27.3583   19.8491 O   0  0  0  0  0  0  0  0  0  0  0  0
  -25.5712  -15.6494   20.0620 O   0  0  0  0  0  0  0  0  0  0  0  0
  -22.5039  -13.6163   20.8700 O   0  0  0  0  0  0  0  0  0  0  0  0
  -20.2216  -17.3371   22.7322 O   0  0  0  0  0  0  0  0  0  0  0  0
  -26.0790  -32.7271   21.2854 O   0  0  0  0  0  0  0  0  0  0  0  0
  -29.4495  -20.3218   19.9605 O   0  0  0  0  0  0  0  0  0  0  0  0
  -26.0203  -20.3029   24.7147 O   0  0  0  0  0  0  0  0  0  1  0  0
  -25.8961  -17.7171   16.6449 F   0  0  0  0  0  0  0  0  0  0  0  0
  -30.3481  -18.6226   17.9736 F   0  0  0  0  0  0  0  0  0  0  0  0
  1  2  1  0  0  0  0
  1  5  2  0  0  0  0
  2  6  2  0  0  0  0
  3  8  2  0  0  0  0
  3 17  1  0  0  0  0
  4  9  1  0  0  0  0
  4 17  2  0  0  0  0
  5 19  1  0  0  0  0
  6 21  1  0  0  0  0
  7 10  2  0  0  0  0
  7 20  1  0  0  0  0
  8 27  1  0  0  0  0
  9 27  2  0  0  0  0
 10 28  1  0  0  0  0
 11 12  2  0  0  0  0
 11 29  1  0  0  0  0
 12 30  1  0  0  0  0
 13 22  1  0  0  0  0
 13 28  2  0  0  0  0
 14 23  2  0  0  0  0
 14 26  1  0  0  0  0
 15 24  1  0  0  0  0
 15 26  2  0  0  0  0
 16 30  2  0  0  0  0
 16 31  1  0  0  0  0
 17 32  1  0  0  0  0
 18 32  1  0  0  0  0
 18 33  2  0  0  0  0
 18 34  1  0  0  0  0
 19 21  2  0  0  0  0
 19 39  1  0  0  0  0
 20 22  2  0  0  0  0
 20 40  1  0  0  0  0
 21 48  1  0  0  0  0
 22 41  1  0  0  0  0
 23 25  1  0  0  0  0
 23 51  1  0  0  0  0
 24 25  2  0  0  0  0
 24 61  1  0  0  0  0
 25 62  1  0  0  0  0
 26 83  1  0  0  0  0
 27 91  1  0  0  0  0
 28 92  1  0  0  0  0
 29 31  2  0  0  0  0
 29 91  1  0  0  0  0
 30 93  1  0  0  0  0
 31 94  1  0  0  0  0
 32 75  2  0  0  0  0
 33 76  1  0  0  0  0
 33 79  1  0  0  0  0
 34 80  1  0  0  0  0
 34 86  2  0  0  0  0
 35 49  1  0  0  0  0
 35 81  1  0  0  0  0
 35 87  2  0  0  0  0
 36 70  1  0  0  0  0
 36 77  1  0  0  0  0
 36 88  2  0  0  0  0
 37 71  1  0  0  0  0
 37 82  1  0  0  0  0
 37 89  2  0  0  0  0
 38 78  1  0  0  0  0
 38 83  1  0  0  0  0
 38 90  2  0  0  0  0
 39 42  1  0  0  0  0
 40 49  1  0  0  0  0
 41 77  1  0  0  0  0
 42 44  1  0  0  0  0
 43 45  1  0  0  0  0
 43 46  1  0  0  0  0
 44 48  1  0  0  0  0
 45 50  1  0  0  0  0
 46 78  1  0  0  0  0
 47 50  1  0  0  0  0
 47 78  1  0  0  0  0
 48 81  1  0  0  0  0
 49 77  1  0  0  0  0
 50 76  1  0  0  0  0
 52 71  1  0  0  0  0
 53 72  1  0  0  0  0
 54 72  1  0  0  0  0
 55 73  1  0  0  0  0
 56 74  1  0  0  0  0
 57 74  1  0  0  0  0
 58 74  1  0  0  0  0
 59 83  1  0  0  0  0
 60 84  1  0  0  0  0
 61 63  1  0  0  0  0
 62 85  1  0  0  0  0
 63 64  1  0  0  0  0
 64 65  1  0  0  0  0
 65 66  1  0  0  0  0
 66 67  1  0  0  0  0
 67 68  1  0  0  0  0
 68 69  1  0  0  0  0
 69 92  1  0  0  0  0
 70 74  1  0  0  0  0
 70 82  1  0  0  0  0
 71 84  1  0  0  0  0
 72 73  1  0  0  0  0
 73 85  1  0  0  0  0
 75 76  1  0  0  0  0
M  CHG  2  84   1  85   1
M  ISO  4  38 100  69 101  83 100  92 101
M  END
> <Batch ID>
0023

> <Smiles>
CNC(C)C(=O)NC(C(=O)N1Cc2cc([101O:1][101CH2:1]CCCCCCCc3cc([100N:0](C)[100C:0](=O)N4CCCC(n5nc(-c6ccc(Oc7ccc(F)cc7F)cc6)c(C(N)=O)c5N)C4)cc(C)c3CNC(C)C(C)C)ccc2CC1C(=O)NC1CCCc2ccccc21)C(C)(C)C

> <Shape>
0.242

> <Color>
0.081

> <Negative vol penalty>
0.000

$$$$

  -OEChem-04052316193D

100109  0     1  0  0  0  0  0999 V2000
  -28.5380  -19.3662   28.0739 C   0  0  0  0  0  0  0  0  0  0  0  0
  -28.5358  -20.0188   26.8452 C   0  0  0  0  0  0  0  0  0  0  0  0
  -23.1177   -9.8589   19.9485 C   0  0  0  0  0  0  0  0  0  0  0  0
  -23.7342   -9.9730   22.2817 C   0  0  0  0  0  0  0  0  0  0  0  0
  -28.8327  -20.0751   29.2378 C   0  0  0  0  0  0  0  0  0  0  0  0
  -28.8272  -21.3808   26.7799 C   0  0  0  0  0  0  0  0  0  0  0  0
  -32.0192  -22.5061   23.0129 C   0  0  0  0  0  0  0  0  0  0  0  0
  -22.3748   -8.7057   20.2011 C   0  0  0  0  0  0  0  0  0  0  0  0
  -22.9912   -8.8198   22.5344 C   0  0  0  0  0  0  0  0  0  0  0  0
  -31.4886  -22.5652   21.7250 C   0  0  0  0  0  0  0  0  0  0  0  0
  -23.3589   -5.4824   22.1374 C   0  0  0  0  0  0  0  0  0  0  0  0
  -23.9420   -4.4975   22.9346 C   0  0  0  0  0  0  0  0  0  0  0  0
  -31.4040  -24.9712   21.8767 C   0  0  0  0  0  0  0  0  0  0  0  0
  -22.1363   -4.7155   24.5248 C   0  0  0  0  0  0  0  0  0  0  0  0
  -23.7975  -10.4925   20.9887 C   0  0  0  0  0  0  0  0  0  0  0  0
  -24.1135  -13.0154   20.7828 C   0  0  0  0  0  0  0  0  0  0  0  0
  -29.1373  -21.4444   29.1855 C   0  0  0  0  0  0  0  0  0  0  0  0
  -32.2364  -23.6804   23.7478 C   0  0  0  0  0  0  0  0  0  0  0  0
  -29.1250  -22.1089   27.9443 C   0  0  0  0  0  0  0  0  0  0  0  0
  -31.9399  -24.9245   23.1728 C   0  0  0  0  0  0  0  0  0  0  0  0
  -22.3115   -8.1862   21.4941 C   0  0  0  0  0  0  0  0  0  0  0  0
  -31.1782  -23.7977   21.1578 C   0  0  0  0  0  0  0  0  0  0  0  0
  -22.1645   -6.0840   22.5340 C   0  0  0  0  0  0  0  0  0  0  0  0
  -23.3307   -4.1140   24.1283 C   0  0  0  0  0  0  0  0  0  0  0  0
  -21.5532   -5.7005   23.7276 C   0  0  0  0  0  0  0  0  0  0  0  0
  -24.5656  -11.6834   20.7282 C   0  0  0  0  0  0  0  0  0  0  0  0
  -25.2163  -13.7660   20.4556 C   0  0  0  0  0  0  0  0  0  0  0  0
  -22.8130  -13.5285   21.1009 C   0  0  0  0  0  0  0  0  0  0  0  0
  -31.1181  -24.8550   26.4816 C   0  0  0  0  0  0  0  0  0  0  0  0
  -33.3310  -27.1648   25.9430 C   0  0  0  0  0  0  0  0  0  0  0  0
  -33.6899  -15.7961   21.8486 C   0  0  0  0  0  0  0  0  0  0  0  0
  -35.2627  -28.8592   23.6971 C   0  0  0  0  0  0  0  0  0  0  0  0
  -30.5350  -14.9119   21.0427 C   0  0  0  0  0  0  0  0  0  0  0  0
  -29.4032  -22.1786   30.4758 C   0  0  0  0  0  0  0  0  0  0  0  0
  -32.8344  -23.6013   25.1257 C   0  0  0  0  0  0  0  0  0  0  0  0
  -32.1732  -26.2157   23.9122 C   0  0  0  0  0  0  0  0  0  0  0  0
  -30.0684  -23.5381   30.2771 C   0  0  0  0  0  0  0  0  0  0  0  0
  -34.5943  -16.2905   25.2688 C   0  0  0  0  0  0  0  0  0  0  0  0
  -29.7104  -12.3797   18.5922 C   0  0  0  0  0  0  0  0  0  0  0  0
  -29.3671  -24.3190   29.1702 C   0  0  0  0  0  0  0  0  0  0  0  0
  -34.0096  -17.6637   25.5992 C   0  0  0  0  0  0  0  0  0  0  0  0
  -26.8703  -24.8715   18.2049 C   0  0  0  0  0  0  0  0  0  0  0  0
  -28.5323  -24.5922   16.3244 C   0  0  0  0  0  0  0  0  0  0  0  0
  -27.8766  -24.2691   19.1837 C   0  0  0  0  0  0  0  0  0  0  0  0
  -29.5386  -23.9897   17.3033 C   0  0  0  0  0  0  0  0  0  0  0  0
  -28.2503  -12.0839   18.9400 C   0  0  0  0  0  0  0  0  0  0  0  0
  -35.1017  -16.2387   23.8311 C   0  0  0  0  0  0  0  0  0  0  0  0
  -30.5364  -12.6388   19.8487 C   0  0  0  0  0  0  0  0  0  0  0  0
  -33.4822  -17.9738   23.1493 C   0  0  0  0  0  0  0  0  0  0  0  0
  -28.5477  -13.4312   21.0698 C   0  0  0  0  0  0  0  0  0  0  0  0
  -29.4603  -23.5802   27.8297 C   0  0  1  0  0  0  0  0  0  0  0  0
  -32.5338  -24.8297   25.9790 C   0  0  1  0  0  0  0  0  0  0  0  0
  -27.5690  -25.5587   17.0249 C   0  0  0  0  0  0  0  0  0  0  0  0
  -28.8398  -23.3025   18.4832 C   0  0  0  0  0  0  0  0  0  0  0  0
  -32.9318  -18.0640   24.5798 C   0  0  2  0  0  0  0  0  0  0  0  0
  -27.6551  -13.1826   19.8403 C   0  0  2  0  0  0  0  0  0  0  0  0
  -26.5427  -26.1086   16.0361 C   0  0  0  0  0  0  0  0  0  0  0  0
  -36.9421  -30.7181   23.5506 C   0  0  0  0  0  0  0  0  0  0  0  0
  -28.2738  -20.9693   20.4964 C   0  0  0  0  0  0  0  0  0  0  0  0
  -30.7892  -21.7598   18.7558 C   0  0  0  0  0  0  0  0  0  0  0  0
  -31.0904  -29.2110   26.2630 C   0  0  0  0  0  0  0  0  0  0  0  0
  -32.5835  -30.9103   25.1900 C   0  0  0  0  0  0  0  0  0  0  0  0
  -33.2508  -29.8514   27.3479 C   0  0  0  0  0  0  0  0  0  0  0  0
  -33.9383  -18.2814   20.1458 C   0  0  0  0  0  0  0  0  0  0  0  0
  -34.0333  -16.1707   18.8012 C   0  0  0  0  0  0  0  0  0  0  0  0
  -31.9409  -17.5407   18.8477 C   0  0  0  0  0  0  0  0  0  0  0  0
  -37.3475  -27.0480   22.6331 C   0  0  0  0  0  0  0  0  0  0  0  0
  -32.4057  -19.4672   24.8710 C   0  0  0  0  0  0  0  0  0  0  0  0
  -31.3617  -19.8963   23.8397 C   0  0  0  0  0  0  0  0  0  0  0  0
  -30.7962  -21.2984   24.0917 C   0  0  0  0  0  0  0  0  0  0  0  0
  -29.7027  -21.7568   23.1343 C   0  0  0  0  0  0  0  0  0  0  0  0
  -33.3391  -28.4897   25.2195 C   0  0  1  0  0  0  0  0  0  0  0  0
  -32.5989  -16.2848   20.9296 C   0  0  1  0  0  0  0  0  0  0  0  0
  -36.7374  -29.2192   23.7065 C   0  0  2  0  0  0  0  0  0  0  0  0
  -29.1715  -22.1789   20.7305 C   0  0  2  0  0  0  0  0  0  0  0  0
  -29.8661  -22.7525   19.4720 C   0  0  2  0  0  0  0  0  0  1  0  0
  -32.5596  -29.5913   25.9916 C   0  0  0  0  0  0  0  0  0  0  0  0
  -33.1331  -17.0464   19.6934 C   0  0  0  0  0  0  0  0  0  0  0  0
  -25.8551  -11.5899   20.3926 N   0  0  0  0  0  0  0  0  0  0  0  0
  -26.2226  -12.8727   20.2333 N   0  0  0  0  0  0  0  0  0  0  0  0
  -32.7538  -26.0856   25.2589 N   0  0  0  0  0  0  0  0  0  0  0  0
  -34.0523  -16.6440   22.8947 N   0  0  0  0  0  0  0  0  0  0  0  0
  -29.9262  -13.7078   20.6519 N   0  0  0  0  0  0  0  0  0  0  0  0
  -25.4136  -15.0964   20.3391 N   0  0  0  0  0  0  0  0  0  0  0  0
  -21.7940  -12.6185   21.4138 N   0  0  0  0  0  0  0  0  0  0  0  0
  -30.7726  -23.7566   27.2456 N   0  0  0  0  0  0  0  0  0  0  0  0
  -34.7405  -28.8112   24.9724 N   0  0  0  0  0  0  0  0  0  0  0  0
  -31.8434  -15.0934   20.6117 N   0  0  0  0  0  0  0  0  0  0  0  0
  -37.4460  -28.5297   22.5914 N   0  3  0  0  0  0  0  0  0  0  0  0
  -30.2034  -21.7805   21.7386 N   0  3  0  0  0  0  0  0  0  0  0  0
  -22.5578  -14.7566   21.0913 O   0  0  0  0  0  0  0  0  0  0  0  0
  -30.3933  -25.8017   26.1985 O   0  0  0  0  0  0  0  0  0  0  0  0
  -33.8252  -27.0885   27.0707 O   0  0  0  0  0  0  0  0  0  0  0  0
  -34.2018  -14.6927   21.6428 O   0  0  0  0  0  0  0  0  0  0  0  0
  -34.6357  -28.6458   22.6618 O   0  0  0  0  0  0  0  0  0  0  0  0
  -29.9535  -15.7653   21.7214 O   0  0  0  0  0  0  0  0  0  0  0  0
  -21.5864   -7.0611   21.7410 O   0  0  0  0  0  0  0  0  0  0  0  0
  -30.6596  -23.8582   19.9011 O   0  0  0  0  0  0  0  0  0  1  0  0
  -23.8900   -3.1671   24.8929 F   0  0  0  0  0  0  0  0  0  0  0  0
  -20.4050   -6.2740   24.1132 F   0  0  0  0  0  0  0  0  0  0  0  0
  1  2  1  0  0  0  0
  1  5  2  0  0  0  0
  2  6  2  0  0  0  0
  3  8  2  0  0  0  0
  3 15  1  0  0  0  0
  4  9  1  0  0  0  0
  4 15  2  0  0  0  0
  5 17  1  0  0  0  0
  6 19  1  0  0  0  0
  7 10  2  0  0  0  0
  7 18  1  0  0  0  0
  8 21  1  0  0  0  0
  9 21  2  0  0  0  0
 10 22  1  0  0  0  0
 11 12  2  0  0  0  0
 11 23  1  0  0  0  0
 12 24  1  0  0  0  0
 13 20  1  0  0  0  0
 13 22  2  0  0  0  0
 14 24  2  0  0  0  0
 14 25  1  0  0  0  0
 15 26  1  0  0  0  0
 16 26  1  0  0  0  0
 16 27  2  0  0  0  0
 16 28  1  0  0  0  0
 17 19  2  0  0  0  0
 17 34  1  0  0  0  0
 18 20  2  0  0  0  0
 18 35  1  0  0  0  0
 19 51  1  0  0  0  0
 20 36  1  0  0  0  0
 21 97  1  0  0  0  0
 22 98  1  0  0  0  0
 23 25  2  0  0  0  0
 23 97  1  0  0  0  0
 24 99  1  0  0  0  0
 25100  1  0  0  0  0
 26 79  2  0  0  0  0
 27 80  1  0  0  0  0
 27 84  1  0  0  0  0
 28 85  1  0  0  0  0
 28 91  2  0  0  0  0
 29 52  1  0  0  0  0
 29 86  1  0  0  0  0
 29 92  2  0  0  0  0
 30 72  1  0  0  0  0
 30 81  1  0  0  0  0
 30 93  2  0  0  0  0
 31 73  1  0  0  0  0
 31 82  1  0  0  0  0
 31 94  2  0  0  0  0
 32 74  1  0  0  0  0
 32 87  1  0  0  0  0
 32 95  2  0  0  0  0
 33 83  1  0  0  0  0
 33 88  1  0  0  0  0
 33 96  2  0  0  0  0
 34 37  1  0  0  0  0
 35 52  1  0  0  0  0
 36 81  1  0  0  0  0
 37 40  1  0  0  0  0
 38 41  1  0  0  0  0
 38 47  1  0  0  0  0
 39 46  1  0  0  0  0
 39 48  1  0  0  0  0
 40 51  1  0  0  0  0
 41 55  1  0  0  0  0
 42 44  1  0  0  0  0
 42 53  1  0  0  0  0
 43 45  1  0  0  0  0
 43 53  1  0  0  0  0
 44 54  1  0  0  0  0
 45 54  1  0  0  0  0
 46 56  1  0  0  0  0
 47 82  1  0  0  0  0
 48 83  1  0  0  0  0
 49 55  1  0  0  0  0
 49 82  1  0  0  0  0
 50 56  1  0  0  0  0
 50 83  1  0  0  0  0
 51 86  1  0  0  0  0
 52 81  1  0  0  0  0
 53 57  1  0  0  0  0
 54 76  1  0  0  0  0
 55 68  1  0  0  0  0
 56 80  1  0  0  0  0
 58 74  1  0  0  0  0
 59 75  1  0  0  0  0
 60 76  1  0  0  0  0
 61 77  1  0  0  0  0
 62 77  1  0  0  0  0
 63 77  1  0  0  0  0
 64 78  1  0  0  0  0
 65 78  1  0  0  0  0
 66 78  1  0  0  0  0
 67 89  1  0  0  0  0
 68 69  1  0  0  0  0
 69 70  1  0  0  0  0
 70 71  1  0  0  0  0
 71 90  1  0  0  0  0
 72 77  1  0  0  0  0
 72 87  1  0  0  0  0
 73 78  1  0  0  0  0
 73 88  1  0  0  0  0
 74 89  1  0  0  0  0
 75 76  1  0  0  0  0
 75 90  1  0  0  0  0
 76 98  1  0  0  0  0
 79 80  1  0  0  0  0
M  CHG  2  89   1  90   1
M  ISO  4  33 100  76 101  88 100  98 101
M  END
> <Batch ID>
0023

> <Smiles>
CNC(C)C(=O)NC(C(=O)N1Cc2cc([101O:1][101C:1](C)(C3CCC(C)CC3)C(C)NCCCCC3CCCN(C(=O)C([100NH:0][100C:0](=O)N4CCCC(n5nc(-c6ccc(Oc7ccc(F)cc7F)cc6)c(C(N)=O)c5N)C4)C(C)(C)C)C3)ccc2CC1C(=O)NC1CCCc2ccccc21)C(C)(C)C

> <Shape>
0.201

> <Color>
0.168

> <Negative vol penalty>
0.000

$$$$

  -OEChem-04052316193D

 89 97  0     1  0  0  0  0  0999 V2000
  -23.2236  -33.0323   21.9616 C   0  0  0  0  0  0  0  0  0  0  0  0
  -23.0974  -31.6792   21.6639 C   0  0  0  0  0  0  0  0  0  0  0  0
  -22.9775   -9.8909   19.9977 C   0  0  0  0  0  0  0  0  0  0  0  0
  -23.7007   -9.9578   22.3020 C   0  0  0  0  0  0  0  0  0  0  0  0
  -24.4546  -33.6677   21.8041 C   0  0  0  0  0  0  0  0  0  0  0  0
  -24.2020  -30.9610   21.2075 C   0  0  0  0  0  0  0  0  0  0  0  0
  -24.6666  -26.4595   23.4804 C   0  0  0  0  0  0  0  0  0  0  0  0
  -22.2022   -8.7647   20.2737 C   0  0  0  0  0  0  0  0  0  0  0  0
  -22.9253   -8.8316   22.5780 C   0  0  0  0  0  0  0  0  0  0  0  0
  -23.8285  -25.4353   23.0419 C   0  0  0  0  0  0  0  0  0  0  0  0
  -21.4196   -5.7610   23.8083 C   0  0  0  0  0  0  0  0  0  0  0  0
  -21.9972   -4.7479   24.5736 C   0  0  0  0  0  0  0  0  0  0  0  0
  -25.6311  -24.5366   21.7145 C   0  0  0  0  0  0  0  0  0  0  0  0
  -23.7233   -4.4723   22.9057 C   0  0  0  0  0  0  0  0  0  0  0  0
  -23.7268  -10.4874   21.0119 C   0  0  0  0  0  0  0  0  0  0  0  0
  -24.1311  -12.9983   20.8130 C   0  0  0  0  0  0  0  0  0  0  0  0
  -25.5772  -32.9546   21.3547 C   0  0  0  0  0  0  0  0  0  0  0  0
  -25.9924  -26.5363   23.0299 C   0  0  0  0  0  0  0  0  0  0  0  0
  -25.4489  -31.5877   21.0425 C   0  0  0  0  0  0  0  0  0  0  0  0
  -26.4848  -25.5613   22.1507 C   0  0  0  0  0  0  0  0  0  0  0  0
  -25.0335  -19.4659   21.9355 C   0  0  0  0  0  0  0  0  0  0  0  0
  -22.1761   -8.2350   21.5638 C   0  0  0  0  0  0  0  0  0  0  0  0
  -24.3098  -24.4753   22.1566 C   0  0  0  0  0  0  0  0  0  0  0  0
  -21.9937   -6.1297   22.5918 C   0  0  0  0  0  0  0  0  0  0  0  0
  -23.1491   -4.1036   24.1223 C   0  0  0  0  0  0  0  0  0  0  0  0
  -23.1456   -5.4854   22.1405 C   0  0  0  0  0  0  0  0  0  0  0  0
  -26.1839  -19.0614   21.2143 C   0  0  0  0  0  0  0  0  0  0  0  0
  -24.5283  -11.6505   20.7272 C   0  0  0  0  0  0  0  0  0  0  0  0
  -25.4134  -19.6487   23.2468 C   0  0  0  0  0  0  0  0  0  0  0  0
  -25.2466  -13.7092   20.4431 C   0  0  0  0  0  0  0  0  0  0  0  0
  -27.2317  -19.0091   22.1069 C   0  0  0  0  0  0  0  0  0  0  0  0
  -22.8668  -13.5578   21.1930 C   0  0  0  0  0  0  0  0  0  0  0  0
  -27.6777  -28.6588   21.3690 C   0  0  0  0  0  0  0  0  0  0  0  0
  -30.1434  -26.6737   22.0773 C   0  0  0  0  0  0  0  0  0  0  0  0
  -31.1857  -23.5365   22.9251 C   0  0  0  0  0  0  0  0  0  0  0  0
  -30.7495  -14.6050   20.6890 C   0  0  0  0  0  0  0  0  0  0  0  0
  -26.8756  -33.6955   21.1549 C   0  0  0  0  0  0  0  0  0  0  0  0
  -26.8915  -27.6321   23.5332 C   0  0  0  0  0  0  0  0  0  0  0  0
  -27.9061  -25.5874   21.6532 C   0  0  0  0  0  0  0  0  0  0  0  0
  -28.0873  -32.7764   21.0236 C   0  0  0  0  0  0  0  0  0  0  0  0
  -29.5931  -12.1683   18.3648 C   0  0  0  0  0  0  0  0  0  0  0  0
  -27.7886  -31.6339   20.0581 C   0  0  0  0  0  0  0  0  0  0  0  0
  -28.1423  -11.9232   18.7832 C   0  0  0  0  0  0  0  0  0  0  0  0
  -30.4960  -12.4081   19.5728 C   0  0  0  0  0  0  0  0  0  0  0  0
  -28.5906  -13.2302   20.9020 C   0  0  0  0  0  0  0  0  0  0  0  0
  -26.6299  -30.7688   20.5685 C   0  0  1  0  0  0  0  0  0  0  0  0
  -28.0733  -27.9073   22.6085 C   0  0  1  0  0  0  0  0  0  0  0  0
  -27.6314  -13.0387   19.7148 C   0  0  2  0  0  0  0  0  0  0  0  0
  -24.6162  -20.0661   24.4202 C   0  0  0  0  0  0  0  0  0  0  0  0
  -27.8017  -18.0696   25.1519 C   0  0  0  0  0  0  0  0  0  0  0  0
  -33.2638  -22.2119   23.3984 C   0  0  0  0  0  0  0  0  0  0  0  0
  -23.4998  -19.3830   19.8544 C   0  0  0  0  0  0  0  0  0  0  0  0
  -22.6636  -18.6688   22.0761 C   0  0  0  0  0  0  0  0  0  0  0  0
  -30.7571  -26.5737   19.0901 C   0  0  0  0  0  0  0  0  0  0  0  0
  -32.1751  -24.5556   19.5198 C   0  0  0  0  0  0  0  0  0  0  0  0
  -32.7708  -26.7415   20.5638 C   0  0  0  0  0  0  0  0  0  0  0  0
  -30.3057  -22.9225   25.6833 C   0  0  0  0  0  0  0  0  0  0  0  0
  -30.6091  -17.9203   20.8505 C   0  0  0  0  0  0  0  0  0  0  0  0
  -23.0968  -21.1102   21.6506 C   0  0  0  0  0  0  0  0  0  0  0  0
  -27.5319  -19.4415   24.5581 C   0  0  0  0  0  0  0  0  0  0  0  0
  -29.1375  -18.2891   20.6663 C   0  0  0  0  0  0  0  0  0  0  0  0
  -30.8473  -16.7941   21.8540 C   0  0  0  0  0  0  0  0  0  0  0  0
  -24.1087  -22.2283   21.4039 C   0  0  0  0  0  0  0  0  0  1  0  0
  -30.7646  -25.4641   21.4214 C   0  0  1  0  0  0  0  0  0  0  0  0
  -32.1438  -23.0486   23.9968 C   0  0  2  0  0  0  0  0  0  0  0  0
  -23.6155  -19.6674   21.3712 C   0  0  0  0  0  0  0  0  0  0  0  0
  -31.5895  -25.8341   20.1564 C   0  0  0  0  0  0  0  0  0  0  0  0
  -25.7969  -11.5109   20.3336 N   0  0  0  0  0  0  0  0  0  0  0  0
  -26.7516  -19.3678   23.3393 N   0  0  0  0  0  0  0  0  0  0  0  0
  -26.2066  -12.7801   20.1687 N   0  0  0  0  0  0  0  0  0  0  0  0
  -28.7444  -26.6822   22.1692 N   0  0  0  0  0  0  0  0  0  0  0  0
  -29.9563  -13.4787   20.4144 N   0  0  0  0  0  0  0  0  0  0  0  0
  -25.4901  -15.0321   20.3290 N   0  0  0  0  0  0  0  0  0  0  0  0
  -21.8281  -12.6846   21.5436 N   0  0  0  0  0  0  0  0  0  0  0  0
  -28.5333  -18.6837   21.9385 N   0  0  0  0  0  0  0  0  0  0  0  0
  -27.0853  -29.8821   21.6178 N   0  0  0  0  0  0  0  0  0  0  0  0
  -31.5339  -24.7868   22.4595 N   0  0  0  0  0  0  0  0  0  0  0  0
  -30.1595  -15.5756   21.4893 N   0  0  0  0  0  0  0  0  0  0  0  0
  -31.4198  -22.2168   24.9992 N   0  3  0  0  0  0  0  0  0  0  0  0
  -22.6593  -14.7948   21.2051 O   0  0  0  0  0  0  0  0  0  0  0  0
  -27.8952  -28.1659   20.2683 O   0  0  0  0  0  0  0  0  0  0  0  0
  -30.8731  -27.5743   22.4993 O   0  0  0  0  0  0  0  0  0  0  0  0
  -30.2266  -22.8731   22.5371 O   0  0  0  0  0  0  0  0  0  0  0  0
  -31.8965  -14.7382   20.2488 O   0  0  0  0  0  0  0  0  0  0  0  0
  -21.4195   -7.1362   21.8336 O   0  0  0  0  0  0  0  0  0  0  0  0
  -23.4937  -23.4749   21.7265 O   0  0  0  0  0  0  0  0  0  1  0  0
  -23.7046   -3.1318   24.8580 F   0  0  0  0  0  0  0  0  0  0  0  0
  -23.7025   -5.8361   20.9731 F   0  0  0  0  0  0  0  0  0  0  0  0
  -26.2311  -18.7114   19.5499 Cl  0  0  0  0  0  0  0  0  0  0  0  0
  1  2  1  0  0  0  0
  1  5  2  0  0  0  0
  2  6  2  0  0  0  0
  3  8  2  0  0  0  0
  3 15  1  0  0  0  0
  4  9  1  0  0  0  0
  4 15  2  0  0  0  0
  5 17  1  0  0  0  0
  6 19  1  0  0  0  0
  7 10  2  0  0  0  0
  7 18  1  0  0  0  0
  8 22  1  0  0  0  0
  9 22  2  0  0  0  0
 10 23  1  0  0  0  0
 11 12  2  0  0  0  0
 11 24  1  0  0  0  0
 12 25  1  0  0  0  0
 13 20  1  0  0  0  0
 13 23  2  0  0  0  0
 14 25  2  0  0  0  0
 14 26  1  0  0  0  0
 15 28  1  0  0  0  0
 16 28  1  0  0  0  0
 16 30  2  0  0  0  0
 16 32  1  0  0  0  0
 17 19  2  0  0  0  0
 17 37  1  0  0  0  0
 18 20  2  0  0  0  0
 18 38  1  0  0  0  0
 19 46  1  0  0  0  0
 20 39  1  0  0  0  0
 21 27  1  0  0  0  0
 21 29  2  0  0  0  0
 21 66  1  0  0  0  0
 22 85  1  0  0  0  0
 23 86  1  0  0  0  0
 24 26  2  0  0  0  0
 24 85  1  0  0  0  0
 25 87  1  0  0  0  0
 26 88  1  0  0  0  0
 27 31  2  0  0  0  0
 27 89  1  0  0  0  0
 28 68  2  0  0  0  0
 29 49  1  0  0  0  0
 29 69  1  0  0  0  0
 30 70  1  0  0  0  0
 30 73  1  0  0  0  0
 31 69  1  0  0  0  0
 31 75  1  0  0  0  0
 32 74  1  0  0  0  0
 32 80  2  0  0  0  0
 33 47  1  0  0  0  0
 33 76  1  0  0  0  0
 33 81  2  0  0  0  0
 34 64  1  0  0  0  0
 34 71  1  0  0  0  0
 34 82  2  0  0  0  0
 35 65  1  0  0  0  0
 35 77  1  0  0  0  0
 35 83  2  0  0  0  0
 36 72  1  0  0  0  0
 36 78  1  0  0  0  0
 36 84  2  0  0  0  0
 37 40  1  0  0  0  0
 38 47  1  0  0  0  0
 39 71  1  0  0  0  0
 40 42  1  0  0  0  0
 41 43  1  0  0  0  0
 41 44  1  0  0  0  0
 42 46  1  0  0  0  0
 43 48  1  0  0  0  0
 44 72  1  0  0  0  0
 45 48  1  0  0  0  0
 45 72  1  0  0  0  0
 46 76  1  0  0  0  0
 47 71  1  0  0  0  0
 48 70  1  0  0  0  0
 50 60  1  0  0  0  0
 51 65  1  0  0  0  0
 52 66  1  0  0  0  0
 53 66  1  0  0  0  0
 54 67  1  0  0  0  0
 55 67  1  0  0  0  0
 56 67  1  0  0  0  0
 57 79  1  0  0  0  0
 58 61  1  0  0  0  0
 58 62  1  0  0  0  0
 59 63  1  0  0  0  0
 59 66  1  0  0  0  0
 60 69  1  0  0  0  0
 61 75  1  0  0  0  0
 62 78  1  0  0  0  0
 63 86  1  0  0  0  0
 64 67  1  0  0  0  0
 64 77  1  0  0  0  0
 65 79  1  0  0  0  0
 68 70  1  0  0  0  0
M  CHG  1  79   1
M  ISO  4  36 100  63 101  78 100  86 101
M  END
> <Batch ID>
0023

> <Smiles>
CCn1c(C)c(C(C)(C)C[101CH2:1][101O:1]c2ccc3c(c2)CN(C(=O)C(NC(=O)C(C)NC)C(C)(C)C)C(C(=O)NC2CCCc4ccccc42)C3)c(Cl)c1NCCC[100NH:0][100C:0](=O)N1CCCC(n2nc(-c3ccc(Oc4ccc(F)cc4F)cc3)c(C(N)=O)c2N)C1

> <Shape>
0.264

> <Color>
0.200

> <Negative vol penalty>
0.000

$$$$

  -OEChem-04052316193D

 87 95  0     1  0  0  0  0  0999 V2000
  -16.7470  -28.8121   23.8564 C   0  0  0  0  0  0  0  0  0  0  0  0
  -17.1639  -28.5331   22.5588 C   0  0  0  0  0  0  0  0  0  0  0  0
  -25.7527  -15.2284   21.6925 C   0  0  0  0  0  0  0  0  0  0  0  0
  -25.6577  -15.1381   19.2800 C   0  0  0  0  0  0  0  0  0  0  0  0
  -17.5894  -29.5060   24.7240 C   0  0  0  0  0  0  0  0  0  0  0  0
  -18.4232  -28.9487   22.1277 C   0  0  0  0  0  0  0  0  0  0  0  0
  -22.1324  -26.0213   18.2319 C   0  0  0  0  0  0  0  0  0  0  0  0
  -24.3871  -14.9520   21.7566 C   0  0  0  0  0  0  0  0  0  0  0  0
  -24.2920  -14.8617   19.3442 C   0  0  0  0  0  0  0  0  0  0  0  0
  -22.3739  -26.1800   16.8680 C   0  0  0  0  0  0  0  0  0  0  0  0
  -20.8532  -13.7754   18.8828 C   0  0  0  0  0  0  0  0  0  0  0  0
  -20.3572  -12.7600   18.0653 C   0  0  0  0  0  0  0  0  0  0  0  0
  -24.2897  -27.5560   17.3734 C   0  0  0  0  0  0  0  0  0  0  0  0
  -25.8603  -23.9924   14.9550 C   0  0  0  0  0  0  0  0  0  0  0  0
  -21.8212  -11.1726   19.1488 C   0  0  0  0  0  0  0  0  0  0  0  0
  -26.3881  -15.3215   20.4542 C   0  0  0  0  0  0  0  0  0  0  0  0
  -28.8553  -14.6774   20.3802 C   0  0  0  0  0  0  0  0  0  0  0  0
  -18.8635  -29.9219   24.3064 C   0  0  0  0  0  0  0  0  0  0  0  0
  -22.9628  -26.6387   19.1783 C   0  0  0  0  0  0  0  0  0  0  0  0
  -19.2829  -29.6500   22.9901 C   0  0  0  0  0  0  0  0  0  0  0  0
  -24.0582  -27.4014   18.7488 C   0  0  0  0  0  0  0  0  0  0  0  0
  -26.7724  -23.0283   15.3838 C   0  0  0  0  0  0  0  0  0  0  0  0
  -27.6766  -22.4722   14.4789 C   0  0  0  0  0  0  0  0  0  0  0  0
  -27.6685  -22.8802   13.1450 C   0  0  0  0  0  0  0  0  0  0  0  0
  -25.8521  -24.4004   13.6211 C   0  0  0  0  0  0  0  0  0  0  0  0
  -23.6567  -14.7686   20.5825 C   0  0  0  0  0  0  0  0  0  0  0  0
  -23.4509  -26.9498   16.4385 C   0  0  0  0  0  0  0  0  0  0  0  0
  -21.8333  -13.4895   19.8333 C   0  0  0  0  0  0  0  0  0  0  0  0
  -20.8412  -11.4585   18.1983 C   0  0  0  0  0  0  0  0  0  0  0  0
  -22.3172  -12.1881   19.9663 C   0  0  0  0  0  0  0  0  0  0  0  0
  -26.7563  -23.8443   12.7161 C   0  0  0  0  0  0  0  0  0  0  0  0
  -27.7987  -15.6076   20.3872 C   0  0  0  0  0  0  0  0  0  0  0  0
  -29.9902  -15.4474   20.3059 C   0  0  0  0  0  0  0  0  0  0  0  0
  -28.8146  -13.2453   20.4358 C   0  0  0  0  0  0  0  0  0  0  0  0
  -22.5382  -28.8186   21.4523 C   0  0  0  0  0  0  0  0  0  0  0  0
  -25.6211  -28.1069   22.1675 C   0  0  0  0  0  0  0  0  0  0  0  0
  -28.6335  -26.8950   21.1169 C   0  0  0  0  0  0  0  0  0  0  0  0
  -31.0514  -20.9531   18.2052 C   0  0  0  0  0  0  0  0  0  0  0  0
  -19.7201  -30.7104   25.2651 C   0  0  0  0  0  0  0  0  0  0  0  0
  -22.7047  -26.4357   20.6461 C   0  0  0  0  0  0  0  0  0  0  0  0
  -24.9915  -28.0685   19.7247 C   0  0  0  0  0  0  0  0  0  0  0  0
  -21.1868  -30.7880   24.8490 C   0  0  0  0  0  0  0  0  0  0  0  0
  -31.6716  -19.7637   21.5033 C   0  0  0  0  0  0  0  0  0  0  0  0
  -21.3040  -31.1391   23.3692 C   0  0  0  0  0  0  0  0  0  0  0  0
  -30.8446  -18.4797   21.5906 C   0  0  0  0  0  0  0  0  0  0  0  0
  -30.9635  -20.8359   20.6781 C   0  0  0  0  0  0  0  0  0  0  0  0
  -29.7201  -19.1216   19.4176 C   0  0  0  0  0  0  0  0  0  0  0  0
  -20.6515  -30.0626   22.4934 C   0  0  1  0  0  0  0  0  0  0  0  0
  -23.3113  -27.5318   21.5167 C   0  0  1  0  0  0  0  0  0  0  0  0
  -30.4181  -17.9913   20.1932 C   0  0  2  0  0  0  0  0  0  0  0  0
  -26.7599  -22.6088   16.8175 C   0  0  0  0  0  0  0  0  0  0  0  0
  -28.6464  -22.2700   12.1885 C   0  0  0  0  0  0  0  0  0  0  0  0
  -30.9744  -26.4730   21.9167 C   0  0  0  0  0  0  0  0  0  0  0  0
  -26.2261  -31.0906   21.9636 C   0  0  0  0  0  0  0  0  0  0  0  0
  -28.6589  -30.5167   21.8215 C   0  0  0  0  0  0  0  0  0  0  0  0
  -27.3568  -29.9245   23.8652 C   0  0  0  0  0  0  0  0  0  0  0  0
  -23.6011  -24.9673   12.7427 C   0  0  0  0  0  0  0  0  0  0  0  0
  -28.4021  -23.9863   20.6222 C   0  0  0  0  0  0  0  0  0  0  0  0
  -28.6519  -21.4369   14.9435 C   0  0  0  0  0  0  0  0  0  0  0  0
  -30.0720  -21.9739   15.1982 C   0  0  0  0  0  0  0  0  0  0  0  0
  -31.0555  -20.9304   15.7236 C   0  0  0  0  0  0  0  0  0  0  0  0
  -25.2318  -26.7808   13.2906 C   0  0  0  0  0  0  0  0  0  0  0  0
  -25.0453  -27.2957   14.7081 C   0  0  0  0  0  0  0  0  0  1  0  0
  -26.9682  -28.6288   21.7292 C   0  0  1  0  0  0  0  0  0  0  0  0
  -29.5837  -25.8850   21.7345 C   0  0  2  0  0  0  0  0  0  0  0  0
  -27.2840  -30.0293   22.3262 C   0  0  0  0  0  0  0  0  0  0  0  0
  -28.2243  -16.8719   20.3227 N   0  0  0  0  0  0  0  0  0  0  0  0
  -29.5610  -16.7417   20.2745 N   0  0  0  0  0  0  0  0  0  0  0  0
  -24.6937  -27.8454   21.1491 N   0  0  0  0  0  0  0  0  0  0  0  0
  -30.5871  -20.3092   19.3640 N   0  0  0  0  0  0  0  0  0  0  0  0
  -31.3033  -15.1370   20.2650 N   0  0  0  0  0  0  0  0  0  0  0  0
  -27.5651  -12.6147   20.5094 N   0  0  0  0  0  0  0  0  0  0  0  0
  -21.5184  -28.9092   22.3803 N   0  0  0  0  0  0  0  0  0  0  0  0
  -27.9390  -27.5975   22.0789 N   0  0  0  0  0  0  0  0  0  0  0  0
  -30.6533  -20.3854   17.0011 N   0  0  0  0  0  0  0  0  0  0  0  0
  -24.9225  -25.3709   13.2242 N   0  0  3  0  0  0  0  0  0  0  0  0
  -29.6935  -24.6788   20.8662 N   0  3  0  0  0  0  0  0  0  0  0  0
  -29.8561  -12.5461   20.4373 O   0  0  0  0  0  0  0  0  0  0  0  0
  -22.8453  -29.6671   20.6232 O   0  0  0  0  0  0  0  0  0  0  0  0
  -25.4025  -27.9308   23.3687 O   0  0  0  0  0  0  0  0  0  0  0  0
  -28.5214  -27.0482   19.9026 O   0  0  0  0  0  0  0  0  0  0  0  0
  -31.7720  -21.9563   18.2411 O   0  0  0  0  0  0  0  0  0  0  0  0
  -22.3241  -14.4986   20.6447 O   0  0  0  0  0  0  0  0  0  0  0  0
  -23.6885  -27.1070   15.1078 O   0  0  0  0  0  0  0  0  0  1  0  0
  -20.3637  -10.4831   17.4142 F   0  0  0  0  0  0  0  0  0  0  0  0
  -23.2578  -11.9071   20.8785 F   0  0  0  0  0  0  0  0  0  0  0  0
  -26.7455  -24.3487   11.0569 Cl  0  0  0  0  0  0  0  0  0  0  0  0
  1  2  1  0  0  0  0
  1  5  2  0  0  0  0
  2  6  2  0  0  0  0
  3  8  2  0  0  0  0
  3 16  1  0  0  0  0
  4  9  1  0  0  0  0
  4 16  2  0  0  0  0
  5 18  1  0  0  0  0
  6 20  1  0  0  0  0
  7 10  2  0  0  0  0
  7 19  1  0  0  0  0
  8 26  1  0  0  0  0
  9 26  2  0  0  0  0
 10 27  1  0  0  0  0
 11 12  2  0  0  0  0
 11 28  1  0  0  0  0
 12 29  1  0  0  0  0
 13 21  1  0  0  0  0
 13 27  2  0  0  0  0
 14 22  2  0  0  0  0
 14 25  1  0  0  0  0
 15 29  2  0  0  0  0
 15 30  1  0  0  0  0
 16 32  1  0  0  0  0
 17 32  1  0  0  0  0
 17 33  2  0  0  0  0
 17 34  1  0  0  0  0
 18 20  2  0  0  0  0
 18 39  1  0  0  0  0
 19 21  2  0  0  0  0
 19 40  1  0  0  0  0
 20 48  1  0  0  0  0
 21 41  1  0  0  0  0
 22 23  1  0  0  0  0
 22 51  1  0  0  0  0
 23 24  2  0  0  0  0
 23 59  1  0  0  0  0
 24 31  1  0  0  0  0
 24 52  1  0  0  0  0
 25 31  2  0  0  0  0
 25 76  1  0  0  0  0
 26 83  1  0  0  0  0
 27 84  1  0  0  0  0
 28 30  2  0  0  0  0
 28 83  1  0  0  0  0
 29 85  1  0  0  0  0
 30 86  1  0  0  0  0
 31 87  1  0  0  0  0
 32 67  2  0  0  0  0
 33 68  1  0  0  0  0
 33 71  1  0  0  0  0
 34 72  1  0  0  0  0
 34 78  2  0  0  0  0
 35 49  1  0  0  0  0
 35 73  1  0  0  0  0
 35 79  2  0  0  0  0
 36 64  1  0  0  0  0
 36 69  1  0  0  0  0
 36 80  2  0  0  0  0
 37 65  1  0  0  0  0
 37 74  1  0  0  0  0
 37 81  2  0  0  0  0
 38 70  1  0  0  0  0
 38 75  1  0  0  0  0
 38 82  2  0  0  0  0
 39 42  1  0  0  0  0
 40 49  1  0  0  0  0
 41 69  1  0  0  0  0
 42 44  1  0  0  0  0
 43 45  1  0  0  0  0
 43 46  1  0  0  0  0
 44 48  1  0  0  0  0
 45 50  1  0  0  0  0
 46 70  1  0  0  0  0
 47 50  1  0  0  0  0
 47 70  1  0  0  0  0
 48 73  1  0  0  0  0
 49 69  1  0  0  0  0
 50 68  1  0  0  0  0
 53 65  1  0  0  0  0
 54 66  1  0  0  0  0
 55 66  1  0  0  0  0
 56 66  1  0  0  0  0
 57 76  1  0  0  0  0
 58 77  1  0  0  0  0
 59 60  1  0  0  0  0
 60 61  1  0  0  0  0
 61 75  1  0  0  0  0
 62 63  1  0  0  0  0
 62 76  1  0  0  0  0
 63 84  1  0  0  0  0
 64 66  1  0  0  0  0
 64 74  1  0  0  0  0
 65 77  1  0  0  0  0
 67 68  1  0  0  0  0
M  CHG  1  77   1
M  ISO  4  38 100  63 101  75 100  84 101
M  END
> <Batch ID>
0023

> <Smiles>
CNC(C)C(=O)NC(C(=O)N1Cc2cc([101O:1][101CH2:1]CN(C)c3cc(C)c(CCC[100NH:0][100C:0](=O)N4CCCC(n5nc(-c6ccc(Oc7ccc(F)cc7F)cc6)c(C(N)=O)c5N)C4)c(C)c3Cl)ccc2CC1C(=O)NC1CCCc2ccccc21)C(C)(C)C

> <Shape>
0.223

> <Color>
0.086

> <Negative vol penalty>
0.000

$$$$

  -OEChem-04052316193D

104113  0     1  0  0  0  0  0999 V2000
  -27.9793  -32.5078   23.7354 C   0  0  0  0  0  0  0  0  0  0  0  0
  -26.6012  -32.3254   23.7208 C   0  0  0  0  0  0  0  0  0  0  0  0
  -30.2294  -19.8911   20.5937 C   0  0  0  0  0  0  0  0  0  0  0  0
  -27.9734  -19.5411   19.8032 C   0  0  0  0  0  0  0  0  0  0  0  0
  -28.7836  -31.7845   22.8572 C   0  0  0  0  0  0  0  0  0  0  0  0
  -26.0279  -31.4111   22.8364 C   0  0  0  0  0  0  0  0  0  0  0  0
  -19.8462  -28.2872   23.6070 C   0  0  0  0  0  0  0  0  0  0  0  0
  -30.2329  -21.1629   20.0208 C   0  0  0  0  0  0  0  0  0  0  0  0
  -27.9768  -20.8129   19.2303 C   0  0  0  0  0  0  0  0  0  0  0  0
  -18.5635  -27.7428   23.6717 C   0  0  0  0  0  0  0  0  0  0  0  0
  -29.0184  -24.2308   20.7594 C   0  0  0  0  0  0  0  0  0  0  0  0
  -29.5210  -25.2843   21.5229 C   0  0  0  0  0  0  0  0  0  0  0  0
  -18.9322  -26.5973   21.5741 C   0  0  0  0  0  0  0  0  0  0  0  0
  -21.5365  -14.8886   19.5093 C   0  0  0  0  0  0  0  0  0  0  0  0
  -31.2072  -25.6975   19.8427 C   0  0  0  0  0  0  0  0  0  0  0  0
  -29.0997  -19.0802   20.4848 C   0  0  0  0  0  0  0  0  0  0  0  0
  -29.2698  -17.4450   22.4354 C   0  0  0  0  0  0  0  0  0  0  0  0
  -28.2179  -30.8702   21.9534 C   0  0  0  0  0  0  0  0  0  0  0  0
  -20.6835  -27.9761   22.5320 C   0  0  0  0  0  0  0  0  0  0  0  0
  -26.8249  -30.6540   21.9588 C   0  0  0  0  0  0  0  0  0  0  0  0
  -20.2227  -27.1298   21.5102 C   0  0  0  0  0  0  0  0  0  0  0  0
  -20.9988  -14.6809   20.7795 C   0  0  0  0  0  0  0  0  0  0  0  0
  -22.9975  -12.9893   19.8170 C   0  0  0  0  0  0  0  0  0  0  0  0
  -29.1066  -21.6238   19.3392 C   0  0  0  0  0  0  0  0  0  0  0  0
  -18.1075  -26.9001   22.6576 C   0  0  0  0  0  0  0  0  0  0  0  0
  -29.6102  -23.9106   19.5375 C   0  0  0  0  0  0  0  0  0  0  0  0
  -30.6154  -26.0177   21.0646 C   0  0  0  0  0  0  0  0  0  0  0  0
  -30.7046  -24.6439   19.0792 C   0  0  0  0  0  0  0  0  0  0  0  0
  -22.5358  -14.0428   19.0280 C   0  0  0  0  0  0  0  0  0  0  0  0
  -21.4606  -13.6273   21.5684 C   0  0  0  0  0  0  0  0  0  0  0  0
  -22.4599  -12.7815   21.0872 C   0  0  0  0  0  0  0  0  0  0  0  0
  -29.0957  -17.7661   21.0759 C   0  0  0  0  0  0  0  0  0  0  0  0
  -29.1829  -16.0749   22.4784 C   0  0  0  0  0  0  0  0  0  0  0  0
  -29.4902  -18.3080   23.5590 C   0  0  0  0  0  0  0  0  0  0  0  0
  -24.0359  -28.4226   20.9077 C   0  0  0  0  0  0  0  0  0  0  0  0
  -23.2694  -25.4712   20.5727 C   0  0  0  0  0  0  0  0  0  0  0  0
  -22.2495  -22.2228   20.7846 C   0  0  0  0  0  0  0  0  0  0  0  0
  -26.5278  -12.0444   18.9350 C   0  0  0  0  0  0  0  0  0  0  0  0
  -29.1359  -30.1081   21.0304 C   0  0  0  0  0  0  0  0  0  0  0  0
  -22.0504  -28.5886   22.3900 C   0  0  0  0  0  0  0  0  0  0  0  0
  -21.1455  -26.8505   20.3555 C   0  0  0  0  0  0  0  0  0  0  0  0
  -28.4072  -29.4989   19.8370 C   0  0  0  0  0  0  0  0  0  0  0  0
  -29.9771  -12.1869   19.8058 C   0  0  0  0  0  0  0  0  0  0  0  0
  -27.1771  -28.7396   20.3115 C   0  0  0  0  0  0  0  0  0  0  0  0
  -17.7947  -19.6505   23.7431 C   0  0  0  0  0  0  0  0  0  0  0  0
  -30.1581  -13.6039   20.3527 C   0  0  0  0  0  0  0  0  0  0  0  0
  -18.0587  -21.1317   24.0017 C   0  0  0  0  0  0  0  0  0  0  0  0
  -15.7007  -21.6769   23.2814 C   0  0  0  0  0  0  0  0  0  0  0  0
  -28.9856  -12.1523   18.6449 C   0  0  0  0  0  0  0  0  0  0  0  0
  -27.8533  -14.1754   19.4808 C   0  0  0  0  0  0  0  0  0  0  0  0
  -26.1763  -29.6873   20.9846 C   0  0  1  0  0  0  0  0  0  0  0  0
  -23.0753  -27.6353   21.7498 C   0  0  1  0  0  0  0  0  0  0  0  0
  -16.7248  -19.4346   22.6576 C   0  0  2  0  0  0  0  0  0  0  0  0
  -15.4174  -20.1867   23.0136 C   0  0  2  0  0  0  0  0  0  0  0  0
  -28.8019  -14.2524   20.6894 C   0  0  2  0  0  0  0  0  0  0  0  0
  -16.7656  -21.8535   24.3595 C   0  0  2  0  0  0  0  0  0  0  0  0
  -11.9914  -20.6032   21.2617 C   0  0  0  0  0  0  0  0  0  0  0  0
  -22.9260  -19.8986   20.1228 C   0  0  0  0  0  0  0  0  0  0  0  0
  -16.7534  -23.5663   26.9456 C   0  0  0  0  0  0  0  0  0  0  0  0
  -18.4903  -24.9113   25.7013 C   0  0  0  0  0  0  0  0  0  0  0  0
  -18.1240  -15.5691   19.4768 C   0  0  0  0  0  0  0  0  0  0  0  0
  -22.4100  -26.0424   17.7023 C   0  0  0  0  0  0  0  0  0  0  0  0
  -22.1916  -23.5731   17.3514 C   0  0  0  0  0  0  0  0  0  0  0  0
  -24.4121  -24.5592   17.9167 C   0  0  0  0  0  0  0  0  0  0  0  0
  -22.3826  -21.3338   23.6044 C   0  0  0  0  0  0  0  0  0  0  0  0
  -17.4058  -15.0236   23.1256 C   0  0  0  0  0  0  0  0  0  0  0  0
  -19.9249  -15.6197   21.2521 C   0  0  0  0  0  0  0  0  0  0  0  0
  -24.0720  -12.0859   19.2908 C   0  0  0  0  0  0  0  0  0  0  0  0
  -16.5017  -17.9326   22.4592 C   0  0  0  0  0  0  0  0  0  0  0  0
  -14.3520  -20.0617   21.9207 C   0  0  0  0  0  0  0  0  0  0  0  0
  -13.0417  -20.7051   22.3562 C   0  0  0  0  0  0  0  0  0  0  0  0
  -15.5501  -24.3613   22.8699 C   0  0  0  0  0  0  0  0  0  0  0  0
  -17.7938  -17.2434   22.0660 C   0  0  0  0  0  0  0  0  0  0  0  0
  -15.8477  -24.1479   24.3464 C   0  0  0  0  0  0  0  0  0  0  0  0
  -16.6571  -25.0930   22.1209 C   0  0  0  0  0  0  0  0  0  1  0  0
  -22.6262  -24.4224   19.7011 C   0  0  1  0  0  0  0  0  0  0  0  0
  -22.9819  -20.9624   21.2082 C   0  0  2  0  0  0  0  0  0  0  0  0
  -17.7732  -23.5760   25.8181 C   0  0  0  0  0  0  0  0  0  0  0  0
  -18.5040  -15.1638   20.8949 C   0  0  1  0  0  0  0  0  0  0  0  0
  -22.8955  -24.6622   18.1887 C   0  0  0  0  0  0  0  0  0  0  0  0
  -28.9123  -16.6869   20.3105 N   0  0  0  0  0  0  0  0  0  0  0  0
  -28.9707  -15.6743   21.1921 N   0  0  0  0  0  0  0  0  0  0  0  0
  -22.5113  -26.6154   20.8494 N   0  0  0  0  0  0  0  0  0  0  0  0
  -27.7199  -12.7812   19.0301 N   0  0  0  0  0  0  0  0  0  0  0  0
  -29.2682  -15.1858   23.4907 N   0  0  0  0  0  0  0  0  0  0  0  0
  -28.3762  -18.7927   24.2578 N   0  0  0  0  0  0  0  0  0  0  0  0
  -25.1282  -28.9055   21.6027 N   0  0  0  0  0  0  0  0  0  0  0  0
  -23.1000  -23.1342   20.1954 N   0  0  0  0  0  0  0  0  0  0  0  0
  -25.3743  -12.7133   19.3259 N   0  0  0  0  0  0  0  0  0  0  0  0
  -22.3736  -20.4015   22.4477 N   0  3  0  0  0  0  0  0  0  0  0  0
  -17.0532  -23.3039   24.5192 N   0  3  1  0  0  0  0  0  0  0  0  0
  -17.5158  -15.8049   21.8388 N   0  3  1  0  0  0  0  0  0  0  0  0
  -30.6403  -18.6526   23.9221 O   0  0  0  0  0  0  0  0  0  0  0  0
  -23.8049  -28.5797   19.7146 O   0  0  0  0  0  0  0  0  0  0  0  0
  -24.4148  -25.2861   20.9935 O   0  0  0  0  0  0  0  0  0  0  0  0
  -21.0428  -22.3813   20.9558 O   0  0  0  0  0  0  0  0  0  0  0  0
  -26.4946  -10.8751   18.5366 O   0  0  0  0  0  0  0  0  0  0  0  0
  -29.1095  -22.8648   18.7803 O   0  0  0  0  0  0  0  0  0  0  0  0
  -16.8558  -26.3685   22.7293 O   0  0  0  0  0  0  0  0  0  1  0  0
  -31.0970  -27.0304   21.7972 F   0  0  0  0  0  0  0  0  0  0  0  0
  -31.2766  -24.3417   17.9056 F   0  0  0  0  0  0  0  0  0  0  0  0
  -23.1716  -14.3362   17.4493 Cl  0  0  0  0  0  0  0  0  0  0  0  0
  -20.7706  -13.3978   23.1451 Cl  0  0  0  0  0  0  0  0  0  0  0  0
  -23.0526  -11.4625   22.0500 Cl  0  0  0  0  0  0  0  0  0  0  0  0
  1  2  1  0  0  0  0
  1  5  2  0  0  0  0
  2  6  2  0  0  0  0
  3  8  2  0  0  0  0
  3 16  1  0  0  0  0
  4  9  1  0  0  0  0
  4 16  2  0  0  0  0
  5 18  1  0  0  0  0
  6 20  1  0  0  0  0
  7 10  2  0  0  0  0
  7 19  1  0  0  0  0
  8 24  1  0  0  0  0
  9 24  2  0  0  0  0
 10 25  1  0  0  0  0
 11 12  2  0  0  0  0
 11 26  1  0  0  0  0
 12 27  1  0  0  0  0
 13 21  1  0  0  0  0
 13 25  2  0  0  0  0
 14 22  1  0  0  0  0
 14 29  2  0  0  0  0
 15 27  2  0  0  0  0
 15 28  1  0  0  0  0
 16 32  1  0  0  0  0
 17 32  1  0  0  0  0
 17 33  2  0  0  0  0
 17 34  1  0  0  0  0
 18 20  2  0  0  0  0
 18 39  1  0  0  0  0
 19 21  2  0  0  0  0
 19 40  1  0  0  0  0
 20 51  1  0  0  0  0
 21 41  1  0  0  0  0
 22 30  2  0  0  0  0
 22 67  1  0  0  0  0
 23 29  1  0  0  0  0
 23 31  2  0  0  0  0
 23 68  1  0  0  0  0
 24 98  1  0  0  0  0
 25 99  1  0  0  0  0
 26 28  2  0  0  0  0
 26 98  1  0  0  0  0
 27100  1  0  0  0  0
 28101  1  0  0  0  0
 29102  1  0  0  0  0
 30 31  1  0  0  0  0
 30103  1  0  0  0  0
 31104  1  0  0  0  0
 32 81  2  0  0  0  0
 33 82  1  0  0  0  0
 33 85  1  0  0  0  0
 34 86  1  0  0  0  0
 34 93  2  0  0  0  0
 35 52  1  0  0  0  0
 35 87  1  0  0  0  0
 35 94  2  0  0  0  0
 36 76  1  0  0  0  0
 36 83  1  0  0  0  0
 36 95  2  0  0  0  0
 37 77  1  0  0  0  0
 37 88  1  0  0  0  0
 37 96  2  0  0  0  0
 38 84  1  0  0  0  0
 38 89  1  0  0  0  0
 38 97  2  0  0  0  0
 39 42  1  0  0  0  0
 40 52  1  0  0  0  0
 41 83  1  0  0  0  0
 42 44  1  0  0  0  0
 43 46  1  0  0  0  0
 43 49  1  0  0  0  0
 44 51  1  0  0  0  0
 45 47  1  0  0  0  0
 45 53  1  0  0  0  0
 46 55  1  0  0  0  0
 47 56  1  0  0  0  0
 48 54  1  0  0  0  0
 48 56  1  0  0  0  0
 49 84  1  0  0  0  0
 50 55  1  0  0  0  0
 50 84  1  0  0  0  0
 51 87  1  0  0  0  0
 52 83  1  0  0  0  0
 53 54  1  0  0  0  0
 53 69  1  0  0  0  0
 54 70  1  0  0  0  0
 55 82  1  0  0  0  0
 56 91  1  0  0  0  0
 57 71  1  0  0  0  0
 58 77  1  0  0  0  0
 59 78  1  0  0  0  0
 60 78  1  0  0  0  0
 61 79  1  0  0  0  0
 62 80  1  0  0  0  0
 63 80  1  0  0  0  0
 64 80  1  0  0  0  0
 65 90  1  0  0  0  0
 66 92  1  0  0  0  0
 67 79  1  0  0  0  0
 68 89  1  0  0  0  0
 69 73  1  0  0  0  0
 70 71  1  0  0  0  0
 72 74  1  0  0  0  0
 72 75  1  0  0  0  0
 73 92  1  0  0  0  0
 74 91  1  0  0  0  0
 75 99  1  0  0  0  0
 76 80  1  0  0  0  0
 76 88  1  0  0  0  0
 77 90  1  0  0  0  0
 78 91  1  0  0  0  0
 79 92  1  0  0  0  0
 81 82  1  0  0  0  0
M  CHG  3  90   1  91   1  92   1
M  ISO  4  38 100  75 101  89 100  99 101
M  END
> <Batch ID>
0023

> <Smiles>
CCCC1CC(N(CC[101CH2:1][101O:1]c2ccc3c(c2)CN(C(=O)C(NC(=O)C(C)NC)C(C)(C)C)C(C(=O)NC2CCCc4ccccc42)C3)C(C)C)CCC1CCN(C)C(C)Cc1cc(Cl)c(C[100NH:0][100C:0](=O)N2CCCC(n3nc(-c4ccc(Oc5ccc(F)cc5F)cc4)c(C(N)=O)c3N)C2)c(Cl)c1Cl

> <Shape>
0.264

> <Color>
0.048

> <Negative vol penalty>
0.000

$$$$

  -OEChem-04052316193D

 90 99  0     1  0  0  0  0  0999 V2000
  -24.1930  -25.7711   10.3584 C   0  0  0  0  0  0  0  0  0  0  0  0
  -24.7033  -24.9591   11.3662 C   0  0  0  0  0  0  0  0  0  0  0  0
  -23.1911   -9.8161   19.9309 C   0  0  0  0  0  0  0  0  0  0  0  0
  -23.5521  -10.0017   22.3125 C   0  0  0  0  0  0  0  0  0  0  0  0
  -23.8446  -27.0918   10.6382 C   0  0  0  0  0  0  0  0  0  0  0  0
  -24.8665  -25.4677   12.6543 C   0  0  0  0  0  0  0  0  0  0  0  0
  -23.2262  -22.2745   16.2261 C   0  0  0  0  0  0  0  0  0  0  0  0
  -32.1906  -19.5320   16.8145 C   0  0  0  0  0  0  0  0  0  0  0  0
  -22.4217   -8.6710   20.1367 C   0  0  0  0  0  0  0  0  0  0  0  0
  -22.7826   -8.8566   22.5183 C   0  0  0  0  0  0  0  0  0  0  0  0
  -24.0563  -21.2028   16.5520 C   0  0  0  0  0  0  0  0  0  0  0  0
  -23.1811   -5.5088   22.2652 C   0  0  0  0  0  0  0  0  0  0  0  0
  -23.6716   -4.5489   23.1504 C   0  0  0  0  0  0  0  0  0  0  0  0
  -33.1240  -20.5381   17.0638 C   0  0  0  0  0  0  0  0  0  0  0  0
  -24.8277  -22.4001   18.4989 C   0  0  0  0  0  0  0  0  0  0  0  0
  -21.7052   -4.8148   24.5286 C   0  0  0  0  0  0  0  0  0  0  0  0
  -31.6426  -21.5046   18.7095 C   0  0  0  0  0  0  0  0  0  0  0  0
  -23.7563  -10.4815   21.0188 C   0  0  0  0  0  0  0  0  0  0  0  0
  -24.1002  -12.9971   20.7715 C   0  0  0  0  0  0  0  0  0  0  0  0
  -23.9945  -27.6140   11.9326 C   0  0  0  0  0  0  0  0  0  0  0  0
  -23.1987  -23.4235   17.0296 C   0  0  0  0  0  0  0  0  0  0  0  0
  -24.5210  -26.7970   12.9514 C   0  0  0  0  0  0  0  0  0  0  0  0
  -30.9832  -19.5122   17.5127 C   0  0  0  0  0  0  0  0  0  0  0  0
  -23.9945  -23.4840   18.1825 C   0  0  0  0  0  0  0  0  0  0  0  0
  -22.2175   -8.1913   21.4304 C   0  0  0  0  0  0  0  0  0  0  0  0
  -24.8594  -21.2667   17.6869 C   0  0  0  0  0  0  0  0  0  0  0  0
  -21.9526   -6.1218   22.5118 C   0  0  0  0  0  0  0  0  0  0  0  0
  -22.9337   -4.2019   24.2820 C   0  0  0  0  0  0  0  0  0  0  0  0
  -21.2147   -5.7748   23.6434 C   0  0  0  0  0  0  0  0  0  0  0  0
  -32.8500  -21.5244   18.0113 C   0  0  0  0  0  0  0  0  0  0  0  0
  -30.7092  -20.4985   18.4602 C   0  0  0  0  0  0  0  0  0  0  0  0
  -24.5516  -11.6641   20.8068 C   0  0  0  0  0  0  0  0  0  0  0  0
  -25.2342  -13.7376   20.5428 C   0  0  0  0  0  0  0  0  0  0  0  0
  -27.4955  -18.8614   17.3235 C   0  0  0  0  0  0  0  0  0  0  0  0
  -22.7745  -13.5192   20.9313 C   0  0  0  0  0  0  0  0  0  0  0  0
  -28.6884  -19.0145   16.7125 C   0  0  0  0  0  0  0  0  0  0  0  0
  -23.8942  -26.4923   16.5800 C   0  0  0  0  0  0  0  0  0  0  0  0
  -22.6999  -26.8004   19.5802 C   0  0  0  0  0  0  0  0  0  0  0  0
  -22.0071  -25.3417   22.5867 C   0  0  0  0  0  0  0  0  0  0  0  0
  -29.9475  -14.2175   17.3959 C   0  0  0  0  0  0  0  0  0  0  0  0
  -23.6484  -29.0616   12.1759 C   0  0  0  0  0  0  0  0  0  0  0  0
  -22.2779  -24.5600   16.6791 C   0  0  0  0  0  0  0  0  0  0  0  0
  -23.9866  -24.6865   19.0894 C   0  0  0  0  0  0  0  0  0  0  0  0
  -23.5010  -29.4124   13.6543 C   0  0  0  0  0  0  0  0  0  0  0  0
  -30.1119  -12.4405   20.6432 C   0  0  0  0  0  0  0  0  0  0  0  0
  -24.6619  -28.8355   14.4582 C   0  0  0  0  0  0  0  0  0  0  0  0
  -28.6430  -12.1294   20.9249 C   0  0  0  0  0  0  0  0  0  0  0  0
  -29.7073  -17.5539   18.4971 C   0  0  0  0  0  0  0  0  0  0  0  0
  -30.4804  -17.3885   16.1153 C   0  0  0  0  0  0  0  0  0  0  0  0
  -30.3940  -12.5363   19.1472 C   0  0  0  0  0  0  0  0  0  0  0  0
  -28.8330  -16.3117   18.2787 C   0  0  0  0  0  0  0  0  0  0  0  0
  -29.5665  -16.1760   15.9323 C   0  0  0  0  0  0  0  0  0  0  0  0
  -28.0493  -13.1963   18.7130 C   0  0  0  0  0  0  0  0  0  0  0  0
  -24.6894  -27.3050   14.3669 C   0  0  1  0  0  0  0  0  0  0  0  0
  -22.7127  -25.8903   17.2865 C   0  0  1  0  0  0  0  0  0  0  0  0
  -27.7234  -13.1365   20.2130 C   0  0  1  0  0  0  0  0  0  0  0  0
  -29.9769  -18.3833   17.2047 C   0  0  0  0  0  0  0  0  0  0  0  0
  -28.4014  -21.3294   15.7078 C   0  0  0  0  0  0  0  0  0  0  0  0
  -27.9385  -19.2881   14.3062 C   0  0  0  0  0  0  0  0  0  0  0  0
  -21.0669  -25.8563   24.8557 C   0  0  0  0  0  0  0  0  0  0  0  0
  -25.3001  -28.2065   20.3362 C   0  0  0  0  0  0  0  0  0  0  0  0
  -24.7160  -27.8420   22.7433 C   0  0  0  0  0  0  0  0  0  0  0  0
  -23.2369  -29.2397   21.3006 C   0  0  0  0  0  0  0  0  0  0  0  0
  -19.8091  -23.3893   22.2465 C   0  0  0  0  0  0  0  0  0  0  0  0
  -26.1716  -19.4346   16.9270 C   0  0  0  0  0  0  0  0  0  1  0  0
  -28.7775  -19.8682   15.4480 C   0  0  0  0  0  0  0  0  0  0  0  0
  -23.2779  -26.7331   20.9731 C   0  0  1  0  0  0  0  0  0  0  0  0
  -20.7596  -25.3599   23.4515 C   0  0  2  0  0  0  0  0  0  0  0  0
  -24.1345  -27.9833   21.3203 C   0  0  0  0  0  0  0  0  0  0  0  0
  -25.8695  -11.5608   20.6156 N   0  0  0  0  0  0  0  0  0  0  0  0
  -26.2559  -12.8382   20.4579 N   0  0  0  0  0  0  0  0  0  0  0  0
  -23.0742  -25.7746   18.7008 N   0  0  0  0  0  0  0  0  0  0  0  0
  -29.4775  -13.4647   18.4851 N   0  0  0  0  0  0  0  0  0  0  0  0
  -29.3663  -15.4791   17.1983 N   0  0  0  0  0  0  0  0  0  0  0  0
  -25.4469  -15.0639   20.4080 N   0  0  0  0  0  0  0  0  0  0  0  0
  -21.7249  -12.6189   21.1598 N   0  0  0  0  0  0  0  0  0  0  0  0
  -23.6848  -26.7288   15.2348 N   0  0  0  0  0  0  0  0  0  0  0  0
  -22.1507  -26.5125   21.8726 N   0  0  0  0  0  0  0  0  0  0  0  0
  -20.1799  -23.9908   23.5533 N   0  3  0  0  0  0  0  0  0  0  0  0
  -22.5255  -14.7464   20.8569 O   0  0  0  0  0  0  0  0  0  0  0  0
  -24.9195  -26.7264   17.2092 O   0  0  0  0  0  0  0  0  0  0  0  0
  -21.9384  -27.7250   19.2855 O   0  0  0  0  0  0  0  0  0  0  0  0
  -22.7792  -24.3861   22.5512 O   0  0  0  0  0  0  0  0  0  0  0  0
  -30.8344  -13.7876   16.6477 O   0  0  0  0  0  0  0  0  0  0  0  0
  -21.4666   -7.0740   21.6316 O   0  0  0  0  0  0  0  0  0  0  0  0
  -25.6764  -20.2154   18.0090 O   0  0  0  0  0  0  0  0  0  1  0  0
  -23.4042   -3.2789   25.1312 F   0  0  0  0  0  0  0  0  0  0  0  0
  -20.0333   -6.3594   23.8850 F   0  0  0  0  0  0  0  0  0  0  0  0
  -34.0026  -22.7645   18.3199 Cl  0  0  0  0  0  0  0  0  0  0  0  0
  -29.2255  -20.5073   19.3425 Cl  0  0  0  0  0  0  0  0  0  0  0  0
  1  2  1  0  0  0  0
  1  5  2  0  0  0  0
  2  6  2  0  0  0  0
  3  9  2  0  0  0  0
  3 18  1  0  0  0  0
  4 10  1  0  0  0  0
  4 18  2  0  0  0  0
  5 20  1  0  0  0  0
  6 22  1  0  0  0  0
  7 11  2  0  0  0  0
  7 21  1  0  0  0  0
  8 14  2  0  0  0  0
  8 23  1  0  0  0  0
  9 25  1  0  0  0  0
 10 25  2  0  0  0  0
 11 26  1  0  0  0  0
 12 13  2  0  0  0  0
 12 27  1  0  0  0  0
 13 28  1  0  0  0  0
 14 30  1  0  0  0  0
 15 24  1  0  0  0  0
 15 26  2  0  0  0  0
 16 28  2  0  0  0  0
 16 29  1  0  0  0  0
 17 30  2  0  0  0  0
 17 31  1  0  0  0  0
 18 32  1  0  0  0  0
 19 32  1  0  0  0  0
 19 33  2  0  0  0  0
 19 35  1  0  0  0  0
 20 22  2  0  0  0  0
 20 41  1  0  0  0  0
 21 24  2  0  0  0  0
 21 42  1  0  0  0  0
 22 54  1  0  0  0  0
 23 31  2  0  0  0  0
 23 57  1  0  0  0  0
 24 43  1  0  0  0  0
 25 85  1  0  0  0  0
 26 86  1  0  0  0  0
 27 29  2  0  0  0  0
 27 85  1  0  0  0  0
 28 87  1  0  0  0  0
 29 88  1  0  0  0  0
 30 89  1  0  0  0  0
 31 90  1  0  0  0  0
 32 70  2  0  0  0  0
 33 71  1  0  0  0  0
 33 75  1  0  0  0  0
 34 36  2  0  0  0  0
 34 65  1  0  0  0  0
 35 76  1  0  0  0  0
 35 80  2  0  0  0  0
 36 57  1  0  0  0  0
 36 66  1  0  0  0  0
 37 55  1  0  0  0  0
 37 77  1  0  0  0  0
 37 81  2  0  0  0  0
 38 67  1  0  0  0  0
 38 72  1  0  0  0  0
 38 82  2  0  0  0  0
 39 68  1  0  0  0  0
 39 78  1  0  0  0  0
 39 83  2  0  0  0  0
 40 73  1  0  0  0  0
 40 74  1  0  0  0  0
 40 84  2  0  0  0  0
 41 44  1  0  0  0  0
 42 55  1  0  0  0  0
 43 72  1  0  0  0  0
 44 46  1  0  0  0  0
 45 47  1  0  0  0  0
 45 50  1  0  0  0  0
 46 54  1  0  0  0  0
 47 56  1  0  0  0  0
 48 51  1  0  0  0  0
 48 57  1  0  0  0  0
 49 52  1  0  0  0  0
 49 57  1  0  0  0  0
 50 73  1  0  0  0  0
 51 74  1  0  0  0  0
 52 74  1  0  0  0  0
 53 56  1  0  0  0  0
 53 73  1  0  0  0  0
 54 77  1  0  0  0  0
 55 72  1  0  0  0  0
 56 71  1  0  0  0  0
 58 66  1  0  0  0  0
 59 66  1  0  0  0  0
 60 68  1  0  0  0  0
 61 69  1  0  0  0  0
 62 69  1  0  0  0  0
 63 69  1  0  0  0  0
 64 79  1  0  0  0  0
 65 86  1  0  0  0  0
 67 69  1  0  0  0  0
 67 78  1  0  0  0  0
 68 79  1  0  0  0  0
 70 71  1  0  0  0  0
M  CHG  1  79   1
M  ISO  4  40 100  65 101  74 100  86 101
M  END
> <Batch ID>
0023

> <Smiles>
CNC(C)C(=O)NC(C(=O)N1Cc2cc([101O:1][101CH2:1]C=C(C(C)C)C3(c4ccc(Cl)cc4Cl)CC[100N:0]([100C:0](=O)N4CCCC(n5nc(-c6ccc(Oc7ccc(F)cc7F)cc6)c(C(N)=O)c5N)C4)CC3)ccc2CC1C(=O)NC1CCCc2ccccc21)C(C)(C)C

> <Shape>
0.190

> <Color>
0.186

> <Negative vol penalty>
0.000

$$$$

  -OEChem-04052316193D

 85 93  0     1  0  0  0  0  0999 V2000
  -27.3839  -24.2728   17.0055 C   0  0  0  0  0  0  0  0  0  0  0  0
  -26.2117  -24.6337   17.6621 C   0  0  0  0  0  0  0  0  0  0  0  0
  -23.4665  -13.9849   21.0284 C   0  0  0  0  0  0  0  0  0  0  0  0
  -25.6564  -14.9948   21.1743 C   0  0  0  0  0  0  0  0  0  0  0  0
  -28.6198  -24.6430   17.5339 C   0  0  0  0  0  0  0  0  0  0  0  0
  -26.2749  -25.3642   18.8482 C   0  0  0  0  0  0  0  0  0  0  0  0
  -22.9435  -29.1766   18.9616 C   0  0  0  0  0  0  0  0  0  0  0  0
  -24.0549  -12.7445   20.7819 C   0  0  0  0  0  0  0  0  0  0  0  0
  -26.2449  -13.7544   20.9278 C   0  0  0  0  0  0  0  0  0  0  0  0
  -21.6159  -28.8540   19.2395 C   0  0  0  0  0  0  0  0  0  0  0  0
  -25.4651  -11.1327   18.1670 C   0  0  0  0  0  0  0  0  0  0  0  0
  -24.9294  -10.3545   17.1409 C   0  0  0  0  0  0  0  0  0  0  0  0
  -21.9316  -29.5512   21.5272 C   0  0  0  0  0  0  0  0  0  0  0  0
  -24.4372   -8.6006   18.7280 C   0  0  0  0  0  0  0  0  0  0  0  0
  -21.8832  -24.9863   24.7327 C   0  0  0  0  0  0  0  0  0  0  0  0
  -24.2672  -15.1101   21.2245 C   0  0  0  0  0  0  0  0  0  0  0  0
  -23.3239  -16.9400   22.7309 C   0  0  0  0  0  0  0  0  0  0  0  0
  -28.6979  -25.3867   18.7220 C   0  0  0  0  0  0  0  0  0  0  0  0
  -23.7796  -29.6795   19.9689 C   0  0  0  0  0  0  0  0  0  0  0  0
  -27.5131  -25.7436   19.3937 C   0  0  0  0  0  0  0  0  0  0  0  0
  -23.2687  -29.8818   21.2589 C   0  0  0  0  0  0  0  0  0  0  0  0
  -23.1428  -24.5660   25.0988 C   0  0  0  0  0  0  0  0  0  0  0  0
  -23.8814  -24.3558   23.9082 C   0  0  0  0  0  0  0  0  0  0  0  0
  -25.4441  -12.6292   20.7316 C   0  0  0  0  0  0  0  0  0  0  0  0
  -21.1106  -29.0386   20.5231 C   0  0  0  0  0  0  0  0  0  0  0  0
  -25.4871  -10.6448   19.4736 C   0  0  0  0  0  0  0  0  0  0  0  0
  -24.4154   -9.0884   17.4214 C   0  0  0  0  0  0  0  0  0  0  0  0
  -24.9731   -9.3788   19.7541 C   0  0  0  0  0  0  0  0  0  0  0  0
  -23.6599  -16.3918   21.4786 C   0  0  0  0  0  0  0  0  0  0  0  0
  -23.0506  -24.6542   22.8508 C   0  0  0  0  0  0  0  0  0  0  0  0
  -22.7794  -18.1656   22.4343 C   0  0  0  0  0  0  0  0  0  0  0  0
  -23.4893  -16.3905   24.0449 C   0  0  0  0  0  0  0  0  0  0  0  0
  -26.4630  -28.6921   21.3575 C   0  0  0  0  0  0  0  0  0  0  0  0
  -26.3207  -31.5913   22.8053 C   0  0  0  0  0  0  0  0  0  0  0  0
  -24.4113  -34.2291   23.8267 C   0  0  0  0  0  0  0  0  0  0  0  0
  -22.8583  -22.9663   19.5897 C   0  0  0  0  0  0  0  0  0  0  0  0
  -30.0582  -25.7231   19.2797 C   0  0  0  0  0  0  0  0  0  0  0  0
  -25.2019  -30.0478   19.6464 C   0  0  0  0  0  0  0  0  0  0  0  0
  -24.1194  -30.4378   22.3705 C   0  0  0  0  0  0  0  0  0  0  0  0
  -30.0269  -26.8187   20.3422 C   0  0  0  0  0  0  0  0  0  0  0  0
  -21.3598  -20.1524   18.0045 C   0  0  0  0  0  0  0  0  0  0  0  0
  -28.9136  -26.5528   21.3506 C   0  0  0  0  0  0  0  0  0  0  0  0
  -21.8020  -18.9685   18.8664 C   0  0  0  0  0  0  0  0  0  0  0  0
  -22.4568  -21.2086   17.8909 C   0  0  0  0  0  0  0  0  0  0  0  0
  -23.4329  -20.5041   20.0414 C   0  0  0  0  0  0  0  0  0  0  0  0
  -27.5397  -26.5571   20.6694 C   0  0  1  0  0  0  0  0  0  0  0  0
  -26.1066  -30.0696   20.8746 C   0  0  1  0  0  0  0  0  0  0  0  0
  -22.3398  -19.4386   20.2313 C   0  0  2  0  0  0  0  0  0  0  0  0
  -23.6234  -24.3731   26.4816 C   0  0  0  0  0  0  0  0  0  0  0  0
  -25.2839  -23.9004   23.8151 C   0  0  0  0  0  0  0  0  0  0  0  0
  -18.1095  -27.1070   19.1009 C   0  0  0  0  0  0  0  0  0  0  0  0
  -24.5712  -36.4329   25.0163 C   0  0  0  0  0  0  0  0  0  0  0  0
  -26.5578  -30.1309   25.4738 C   0  0  0  0  0  0  0  0  0  0  0  0
  -25.7679  -32.2188   26.6074 C   0  0  0  0  0  0  0  0  0  0  0  0
  -27.9003  -32.2347   25.3131 C   0  0  0  0  0  0  0  0  0  0  0  0
  -18.3245  -27.4600   22.1584 C   0  0  0  0  0  0  0  0  0  0  0  0
  -23.4371  -35.7106   21.4571 C   0  0  0  0  0  0  0  0  0  0  0  0
  -23.3054  -24.6091   21.3953 C   0  0  0  0  0  0  0  0  0  0  0  0
  -19.2408  -26.5730   19.9669 C   0  0  0  0  0  0  0  0  0  0  0  0
  -20.7716  -26.8862   22.0344 C   0  0  0  0  0  0  0  0  0  0  0  0
  -20.6299  -25.4517   22.5621 C   0  0  0  0  0  0  0  0  0  0  0  0
  -25.6993  -32.1234   24.0741 C   0  0  1  0  0  0  0  0  0  0  0  0
  -24.5967  -35.7275   23.6693 C   0  0  2  0  0  0  0  0  0  0  0  0
  -26.4656  -31.6646   25.3469 C   0  0  0  0  0  0  0  0  0  0  0  0
  -19.5493  -27.3925   21.2365 C   0  0  2  0  0  0  0  0  0  1  0  0
  -23.3543  -17.2025   20.4621 N   0  0  0  0  0  0  0  0  0  0  0  0
  -21.8387  -25.0366   23.3639 N   0  0  0  0  0  0  0  0  0  0  0  0
  -22.8205  -18.2726   21.0753 N   0  0  0  0  0  0  0  0  0  0  0  0
  -25.5052  -30.7767   22.0071 N   0  0  0  0  0  0  0  0  0  0  0  0
  -22.9219  -21.6127   19.2199 N   0  0  0  0  0  0  0  0  0  0  0  0
  -22.2742  -19.1512   23.2061 N   0  0  0  0  0  0  0  0  0  0  0  0
  -24.0663  -15.1194   24.1698 N   0  0  0  0  0  0  0  0  0  0  0  0
  -27.1065  -27.9141   20.4140 N   0  0  0  0  0  0  0  0  0  0  0  0
  -25.6199  -33.5712   23.9138 N   0  0  0  0  0  0  0  0  0  0  0  0
  -23.3133  -23.2625   20.8687 N   0  0  0  0  0  0  0  0  0  0  0  0
  -23.5127  -36.2972   22.8199 N   0  3  0  0  0  0  0  0  0  0  0  0
  -23.1208  -17.0015   25.0766 O   0  0  0  0  0  0  0  0  0  0  0  0
  -26.1767  -28.3601   22.5018 O   0  0  0  0  0  0  0  0  0  0  0  0
  -27.4843  -31.8934   22.5290 O   0  0  0  0  0  0  0  0  0  0  0  0
  -23.3048  -33.6959   23.8719 O   0  0  0  0  0  0  0  0  0  0  0  0
  -22.4229  -23.8449   18.8378 O   0  0  0  0  0  0  0  0  0  0  0  0
  -26.0186  -11.4190   20.4914 O   0  0  0  0  0  0  0  0  0  0  0  0
  -19.8153  -28.7239   20.7972 O   0  0  0  0  0  0  0  0  0  1  0  0
  -23.8995   -8.3419   16.4362 F   0  0  0  0  0  0  0  0  0  0  0  0
  -24.9903   -8.9053   21.0076 F   0  0  0  0  0  0  0  0  0  0  0  0
  1  2  1  0  0  0  0
  1  5  2  0  0  0  0
  2  6  2  0  0  0  0
  3  8  2  0  0  0  0
  3 16  1  0  0  0  0
  4  9  1  0  0  0  0
  4 16  2  0  0  0  0
  5 18  1  0  0  0  0
  6 20  1  0  0  0  0
  7 10  2  0  0  0  0
  7 19  1  0  0  0  0
  8 24  1  0  0  0  0
  9 24  2  0  0  0  0
 10 25  1  0  0  0  0
 11 12  2  0  0  0  0
 11 26  1  0  0  0  0
 12 27  1  0  0  0  0
 13 21  1  0  0  0  0
 13 25  2  0  0  0  0
 14 27  2  0  0  0  0
 14 28  1  0  0  0  0
 15 22  2  0  0  0  0
 15 67  1  0  0  0  0
 16 29  1  0  0  0  0
 17 29  1  0  0  0  0
 17 31  2  0  0  0  0
 17 32  1  0  0  0  0
 18 20  2  0  0  0  0
 18 37  1  0  0  0  0
 19 21  2  0  0  0  0
 19 38  1  0  0  0  0
 20 46  1  0  0  0  0
 21 39  1  0  0  0  0
 22 23  1  0  0  0  0
 22 49  1  0  0  0  0
 23 30  2  0  0  0  0
 23 50  1  0  0  0  0
 24 82  1  0  0  0  0
 25 83  1  0  0  0  0
 26 28  2  0  0  0  0
 26 82  1  0  0  0  0
 27 84  1  0  0  0  0
 28 85  1  0  0  0  0
 29 66  2  0  0  0  0
 30 58  1  0  0  0  0
 30 67  1  0  0  0  0
 31 68  1  0  0  0  0
 31 71  1  0  0  0  0
 32 72  1  0  0  0  0
 32 77  2  0  0  0  0
 33 47  1  0  0  0  0
 33 73  1  0  0  0  0
 33 78  2  0  0  0  0
 34 62  1  0  0  0  0
 34 69  1  0  0  0  0
 34 79  2  0  0  0  0
 35 63  1  0  0  0  0
 35 74  1  0  0  0  0
 35 80  2  0  0  0  0
 36 70  1  0  0  0  0
 36 75  1  0  0  0  0
 36 81  2  0  0  0  0
 37 40  1  0  0  0  0
 38 47  1  0  0  0  0
 39 69  1  0  0  0  0
 40 42  1  0  0  0  0
 41 43  1  0  0  0  0
 41 44  1  0  0  0  0
 42 46  1  0  0  0  0
 43 48  1  0  0  0  0
 44 70  1  0  0  0  0
 45 48  1  0  0  0  0
 45 70  1  0  0  0  0
 46 73  1  0  0  0  0
 47 69  1  0  0  0  0
 48 68  1  0  0  0  0
 51 59  1  0  0  0  0
 52 63  1  0  0  0  0
 53 64  1  0  0  0  0
 54 64  1  0  0  0  0
 55 64  1  0  0  0  0
 56 65  1  0  0  0  0
 57 76  1  0  0  0  0
 58 75  1  0  0  0  0
 59 65  1  0  0  0  0
 60 61  1  0  0  0  0
 60 65  1  0  0  0  0
 61 67  1  0  0  0  0
 62 64  1  0  0  0  0
 62 74  1  0  0  0  0
 63 76  1  0  0  0  0
 65 83  1  0  0  0  0
 66 68  1  0  0  0  0
M  CHG  1  76   1
M  ISO  4  36 100  65 101  75 100  83 101
M  END
> <Batch ID>
0023

> <Smiles>
CC[101C:1](C)(CCn1cc(C)c(C)c1C[100NH:0][100C:0](=O)N1CCCC(n2nc(-c3ccc(Oc4ccc(F)cc4F)cc3)c(C(N)=O)c2N)C1)[101O:1]c1ccc2c(c1)CN(C(=O)C(NC(=O)C(C)NC)C(C)(C)C)C(C(=O)NC1CCCc3ccccc31)C2

> <Shape>
0.245

> <Color>
0.076

> <Negative vol penalty>
0.000

$$$$

  -OEChem-04052316193D

 90 98  0     1  0  0  0  0  0999 V2000
  -24.0821  -33.9035   21.3068 C   0  0  0  0  0  0  0  0  0  0  0  0
  -23.9691  -32.5214   21.1952 C   0  0  0  0  0  0  0  0  0  0  0  0
  -23.0407   -9.8923   19.9913 C   0  0  0  0  0  0  0  0  0  0  0  0
  -23.8781   -9.9269   22.2572 C   0  0  0  0  0  0  0  0  0  0  0  0
  -25.3117  -34.5215   21.0828 C   0  0  0  0  0  0  0  0  0  0  0  0
  -25.0853  -31.7566   20.8585 C   0  0  0  0  0  0  0  0  0  0  0  0
  -25.5399  -27.6124   23.7332 C   0  0  0  0  0  0  0  0  0  0  0  0
  -22.3191   -8.7329   20.2757 C   0  0  0  0  0  0  0  0  0  0  0  0
  -23.1565   -8.7676   22.5417 C   0  0  0  0  0  0  0  0  0  0  0  0
  -24.7153  -26.5309   23.4261 C   0  0  0  0  0  0  0  0  0  0  0  0
  -23.4665   -5.4445   22.0011 C   0  0  0  0  0  0  0  0  0  0  0  0
  -24.1179   -4.4322   22.7058 C   0  0  0  0  0  0  0  0  0  0  0  0
  -26.5449  -25.4740   22.2623 C   0  0  0  0  0  0  0  0  0  0  0  0
  -22.4737   -4.6009   24.4680 C   0  0  0  0  0  0  0  0  0  0  0  0
  -23.8203  -10.4892   20.9821 C   0  0  0  0  0  0  0  0  0  0  0  0
  -24.1287  -13.0170   20.8304 C   0  0  0  0  0  0  0  0  0  0  0  0
  -26.4458  -33.7629   20.7526 C   0  0  0  0  0  0  0  0  0  0  0  0
  -26.8723  -27.6378   23.2970 C   0  0  0  0  0  0  0  0  0  0  0  0
  -26.3309  -32.3651   20.6286 C   0  0  0  0  0  0  0  0  0  0  0  0
  -27.3850  -26.5558   22.5673 C   0  0  0  0  0  0  0  0  0  0  0  0
  -22.3770   -8.1706   21.5508 C   0  0  0  0  0  0  0  0  0  0  0  0
  -25.2169  -25.4628   22.6881 C   0  0  0  0  0  0  0  0  0  0  0  0
  -22.3188   -6.0351   22.5299 C   0  0  0  0  0  0  0  0  0  0  0  0
  -23.6215   -4.0104   23.9392 C   0  0  0  0  0  0  0  0  0  0  0  0
  -21.8223   -5.6133   23.7633 C   0  0  0  0  0  0  0  0  0  0  0  0
  -24.5664  -11.6865   20.6888 C   0  0  0  0  0  0  0  0  0  0  0  0
  -25.1991  -13.7756   20.4241 C   0  0  0  0  0  0  0  0  0  0  0  0
  -22.8674  -13.5219   21.2883 C   0  0  0  0  0  0  0  0  0  0  0  0
  -28.5718  -29.5269   21.3873 C   0  0  0  0  0  0  0  0  0  0  0  0
  -31.0376  -27.6778   22.3987 C   0  0  0  0  0  0  0  0  0  0  0  0
  -32.0848  -24.6948   23.6840 C   0  0  0  0  0  0  0  0  0  0  0  0
  -30.8143  -14.5565   20.8446 C   0  0  0  0  0  0  0  0  0  0  0  0
  -27.7428  -34.4802   20.4734 C   0  0  0  0  0  0  0  0  0  0  0  0
  -27.7564  -28.7995   23.6593 C   0  0  0  0  0  0  0  0  0  0  0  0
  -28.8142  -26.5253   22.0928 C   0  0  0  0  0  0  0  0  0  0  0  0
  -28.9621  -33.5618   20.4879 C   0  0  0  0  0  0  0  0  0  0  0  0
  -29.4828  -12.4738   18.0894 C   0  0  0  0  0  0  0  0  0  0  0  0
  -28.6862  -32.2955   19.6833 C   0  0  0  0  0  0  0  0  0  0  0  0
  -28.0736  -12.1395   18.5756 C   0  0  0  0  0  0  0  0  0  0  0  0
  -26.0987  -20.7591   21.7879 C   0  0  0  0  0  0  0  0  0  0  0  0
  -27.2295  -18.6199   22.5149 C   0  0  0  0  0  0  0  0  0  0  0  0
  -30.4431  -12.7083   19.2515 C   0  0  0  0  0  0  0  0  0  0  0  0
  -28.5681  -13.4041   20.7056 C   0  0  0  0  0  0  0  0  0  0  0  0
  -27.5246  -31.4989   20.2895 C   0  0  1  0  0  0  0  0  0  0  0  0
  -28.9515  -28.9553   22.7240 C   0  0  1  0  0  0  0  0  0  0  0  0
  -26.9139  -20.7641   20.4777 C   0  0  2  0  0  0  0  0  0  0  0  0
  -28.0601  -18.5976   21.2145 C   0  0  1  0  0  0  0  0  0  0  0  0
  -27.5648  -13.2078   19.5592 C   0  0  2  0  0  0  0  0  0  0  0  0
  -28.3036  -20.0396   20.6306 C   0  0  0  0  0  0  0  0  0  0  0  0
  -25.8926  -19.3510   22.3556 C   0  0  2  0  0  0  0  0  0  0  0  0
  -26.9898  -22.2093   19.9608 C   0  0  0  0  0  0  0  0  0  0  0  0
  -29.2690  -20.8531   21.5219 C   0  0  0  0  0  0  0  0  0  0  0  0
  -28.9627  -19.9138   19.2347 C   0  0  0  0  0  0  0  0  0  0  0  0
  -24.8804  -18.5380   21.5378 C   0  0  0  0  0  0  0  0  0  0  0  0
  -34.1629  -23.4646   24.3662 C   0  0  0  0  0  0  0  0  0  0  0  0
  -23.2694  -19.8792   25.0112 C   0  0  0  0  0  0  0  0  0  0  0  0
  -31.7009  -27.1753   19.4632 C   0  0  0  0  0  0  0  0  0  0  0  0
  -33.1238  -25.2467   20.1870 C   0  0  0  0  0  0  0  0  0  0  0  0
  -33.6889  -27.5597   20.9309 C   0  0  0  0  0  0  0  0  0  0  0  0
  -31.0646  -15.9442   22.8673 C   0  0  0  0  0  0  0  0  0  0  0  0
  -31.1634  -24.4566   26.4864 C   0  0  0  0  0  0  0  0  0  0  0  0
  -29.3349  -17.7780   21.4693 C   0  0  0  0  0  0  0  0  0  0  0  0
  -23.0810  -22.5970   23.2868 C   0  0  0  0  0  0  0  0  0  0  0  0
  -24.3066  -21.7619   23.6806 C   0  0  0  0  0  0  0  0  0  0  0  0
  -29.0689  -16.2830   21.4572 C   0  0  0  0  0  0  0  0  0  0  0  0
  -23.3749  -24.0930   23.3100 C   0  0  0  0  0  0  0  0  0  1  0  0
  -31.6767  -26.3951   21.9242 C   0  0  1  0  0  0  0  0  0  0  0  0
  -33.0281  -24.3661   24.8271 C   0  0  2  0  0  0  0  0  0  0  0  0
  -24.0231  -20.2565   23.7426 C   0  0  1  0  0  0  0  0  0  0  0  0
  -32.5201  -26.5953   20.6334 C   0  0  0  0  0  0  0  0  0  0  0  0
  -25.8173  -11.6014   20.2283 N   0  0  0  0  0  0  0  0  0  0  0  0
  -26.1748  -12.8880   20.0770 N   0  0  0  0  0  0  0  0  0  0  0  0
  -29.6372  -27.6872   22.4669 N   0  0  0  0  0  0  0  0  0  0  0  0
  -29.9153  -13.6961   20.1933 N   0  0  0  0  0  0  0  0  0  0  0  0
  -25.3916  -15.1087   20.3333 N   0  0  0  0  0  0  0  0  0  0  0  0
  -21.8781  -12.6043   21.6672 N   0  0  0  0  0  0  0  0  0  0  0  0
  -27.9680  -30.7679   21.4571 N   0  0  0  0  0  0  0  0  0  0  0  0
  -32.4330  -25.8724   23.0570 N   0  0  0  0  0  0  0  0  0  0  0  0
  -30.2702  -15.4976   21.7317 N   0  0  0  0  0  0  0  0  0  0  0  0
  -25.2967  -19.5025   23.7280 N   0  3  0  0  0  0  0  0  0  0  0  0
  -32.2928  -23.6732   25.9226 N   0  3  0  0  0  0  0  0  0  0  0  0
  -22.6190  -14.7503   21.3439 O   0  0  0  0  0  0  0  0  0  0  0  0
  -28.8104  -28.8899   20.3680 O   0  0  0  0  0  0  0  0  0  0  0  0
  -31.7547  -28.6337   22.7046 O   0  0  0  0  0  0  0  0  0  0  0  0
  -31.1362  -23.9767   23.3757 O   0  0  0  0  0  0  0  0  0  0  0  0
  -32.0330  -14.4938   20.6373 O   0  0  0  0  0  0  0  0  0  0  0  0
  -21.6728   -7.0395   21.8288 O   0  0  0  0  0  0  0  0  0  0  0  0
  -24.4079  -24.3983   22.3842 O   0  0  0  0  0  0  0  0  0  1  0  0
  -24.2462   -3.0372   24.6150 F   0  0  0  0  0  0  0  0  0  0  0  0
  -20.7194   -6.1761   24.2759 F   0  0  0  0  0  0  0  0  0  0  0  0
  1  2  1  0  0  0  0
  1  5  2  0  0  0  0
  2  6  2  0  0  0  0
  3  8  2  0  0  0  0
  3 15  1  0  0  0  0
  4  9  1  0  0  0  0
  4 15  2  0  0  0  0
  5 17  1  0  0  0  0
  6 19  1  0  0  0  0
  7 10  2  0  0  0  0
  7 18  1  0  0  0  0
  8 21  1  0  0  0  0
  9 21  2  0  0  0  0
 10 22  1  0  0  0  0
 11 12  2  0  0  0  0
 11 23  1  0  0  0  0
 12 24  1  0  0  0  0
 13 20  1  0  0  0  0
 13 22  2  0  0  0  0
 14 24  2  0  0  0  0
 14 25  1  0  0  0  0
 15 26  1  0  0  0  0
 16 26  1  0  0  0  0
 16 27  2  0  0  0  0
 16 28  1  0  0  0  0
 17 19  2  0  0  0  0
 17 33  1  0  0  0  0
 18 20  2  0  0  0  0
 18 34  1  0  0  0  0
 19 44  1  0  0  0  0
 20 35  1  0  0  0  0
 21 87  1  0  0  0  0
 22 88  1  0  0  0  0
 23 25  2  0  0  0  0
 23 87  1  0  0  0  0
 24 89  1  0  0  0  0
 25 90  1  0  0  0  0
 26 71  2  0  0  0  0
 27 72  1  0  0  0  0
 27 75  1  0  0  0  0
 28 76  1  0  0  0  0
 28 82  2  0  0  0  0
 29 45  1  0  0  0  0
 29 77  1  0  0  0  0
 29 83  2  0  0  0  0
 30 67  1  0  0  0  0
 30 73  1  0  0  0  0
 30 84  2  0  0  0  0
 31 68  1  0  0  0  0
 31 78  1  0  0  0  0
 31 85  2  0  0  0  0
 32 74  1  0  0  0  0
 32 79  1  0  0  0  0
 32 86  2  0  0  0  0
 33 36  1  0  0  0  0
 34 45  1  0  0  0  0
 35 73  1  0  0  0  0
 36 38  1  0  0  0  0
 37 39  1  0  0  0  0
 37 42  1  0  0  0  0
 38 44  1  0  0  0  0
 39 48  1  0  0  0  0
 40 46  1  0  0  0  0
 40 50  1  0  0  0  0
 41 47  1  0  0  0  0
 41 50  1  0  0  0  0
 42 74  1  0  0  0  0
 43 48  1  0  0  0  0
 43 74  1  0  0  0  0
 44 77  1  0  0  0  0
 45 73  1  0  0  0  0
 46 49  1  0  0  0  0
 46 51  1  0  0  0  0
 47 49  1  0  0  0  0
 47 62  1  0  0  0  0
 48 72  1  0  0  0  0
 49 52  1  0  0  0  0
 49 53  1  0  0  0  0
 50 54  1  0  0  0  0
 50 80  1  0  0  0  0
 55 68  1  0  0  0  0
 56 69  1  0  0  0  0
 57 70  1  0  0  0  0
 58 70  1  0  0  0  0
 59 70  1  0  0  0  0
 60 79  1  0  0  0  0
 61 81  1  0  0  0  0
 62 65  1  0  0  0  0
 63 64  1  0  0  0  0
 63 66  1  0  0  0  0
 64 69  1  0  0  0  0
 65 79  1  0  0  0  0
 66 88  1  0  0  0  0
 67 70  1  0  0  0  0
 67 78  1  0  0  0  0
 68 81  1  0  0  0  0
 69 80  1  0  0  0  0
 71 72  1  0  0  0  0
M  CHG  2  80   1  81   1
M  ISO  4  32 100  66 101  79 100  88 101
M  END
> <Batch ID>
0023

> <Smiles>
CNC(C)C(=O)NC(C(=O)N1Cc2cc([101O:1][101CH2:1]CCC(C)NC3(C)CC(C)C(C)(C)C(CC[100N:0](C)[100C:0](=O)N4CCCC(n5nc(-c6ccc(Oc7ccc(F)cc7F)cc6)c(C(N)=O)c5N)C4)C3)ccc2CC1C(=O)NC1CCCc2ccccc21)C(C)(C)C

> <Shape>
0.249

> <Color>
0.185

> <Negative vol penalty>
0.000

$$$$

  -OEChem-04052316193D

 84 92  0     1  0  0  0  0  0999 V2000
  -18.9033  -26.1700   18.9292 C   0  0  0  0  0  0  0  0  0  0  0  0
  -20.2644  -26.4538   18.8816 C   0  0  0  0  0  0  0  0  0  0  0  0
  -24.3660  -14.5700   20.3599 C   0  0  0  0  0  0  0  0  0  0  0  0
  -26.1521  -12.9487   20.2256 C   0  0  0  0  0  0  0  0  0  0  0  0
  -18.1625  -26.5011   20.0630 C   0  0  0  0  0  0  0  0  0  0  0  0
  -20.8853  -27.0700   19.9675 C   0  0  0  0  0  0  0  0  0  0  0  0
  -25.3111  -24.9140   21.1548 C   0  0  0  0  0  0  0  0  0  0  0  0
  -23.6127  -13.6771   21.1220 C   0  0  0  0  0  0  0  0  0  0  0  0
  -25.3988  -12.0558   20.9878 C   0  0  0  0  0  0  0  0  0  0  0  0
  -26.4087  -25.2318   20.3560 C   0  0  0  0  0  0  0  0  0  0  0  0
  -22.8212   -9.9228   20.5008 C   0  0  0  0  0  0  0  0  0  0  0  0
  -22.7642   -8.5956   20.0756 C   0  0  0  0  0  0  0  0  0  0  0  0
  -27.1539  -26.8121   22.0194 C   0  0  0  0  0  0  0  0  0  0  0  0
  -23.7431   -7.8836   22.1665 C   0  0  0  0  0  0  0  0  0  0  0  0
  -25.6357  -14.2058   19.9116 C   0  0  0  0  0  0  0  0  0  0  0  0
  -26.0676  -15.6842   17.8781 C   0  0  0  0  0  0  0  0  0  0  0  0
  -18.7767  -27.1129   21.1672 C   0  0  0  0  0  0  0  0  0  0  0  0
  -25.1204  -25.5519   22.3890 C   0  0  0  0  0  0  0  0  0  0  0  0
  -20.1518  -27.4108   21.1167 C   0  0  0  0  0  0  0  0  0  0  0  0
  -26.0544  -26.4987   22.8330 C   0  0  0  0  0  0  0  0  0  0  0  0
  -24.1291  -12.4200   21.4360 C   0  0  0  0  0  0  0  0  0  0  0  0
  -27.3288  -26.1831   20.7870 C   0  0  0  0  0  0  0  0  0  0  0  0
  -23.3392  -10.2305   21.7589 C   0  0  0  0  0  0  0  0  0  0  0  0
  -23.2251   -7.5760   20.9084 C   0  0  0  0  0  0  0  0  0  0  0  0
  -23.8001   -9.2109   22.5917 C   0  0  0  0  0  0  0  0  0  0  0  0
  -26.4141  -15.1275   19.1238 C   0  0  0  0  0  0  0  0  0  0  0  0
  -27.1323  -16.4890   17.5536 C   0  0  0  0  0  0  0  0  0  0  0  0
  -24.8888  -15.4912   17.0851 C   0  0  0  0  0  0  0  0  0  0  0  0
  -22.8693  -27.4281   23.6202 C   0  0  0  0  0  0  0  0  0  0  0  0
  -24.6229  -27.0967   26.3290 C   0  0  0  0  0  0  0  0  0  0  0  0
  -33.0538  -20.3566   18.7189 C   0  0  0  0  0  0  0  0  0  0  0  0
  -28.1203  -27.0701   27.2151 C   0  0  0  0  0  0  0  0  0  0  0  0
  -30.6180  -20.4857   19.3794 C   0  0  0  0  0  0  0  0  0  0  0  0
  -17.9252  -27.4950   22.3519 C   0  0  0  0  0  0  0  0  0  0  0  0
  -23.9457  -25.1784   23.2509 C   0  0  0  0  0  0  0  0  0  0  0  0
  -25.9062  -27.1973   24.1591 C   0  0  0  0  0  0  0  0  0  0  0  0
  -18.7343  -27.8061   23.6085 C   0  0  0  0  0  0  0  0  0  0  0  0
  -31.7200  -16.8971   19.5925 C   0  0  0  0  0  0  0  0  0  0  0  0
  -19.9058  -28.7244   23.2753 C   0  0  0  0  0  0  0  0  0  0  0  0
  -30.3762  -16.1831   19.4795 C   0  0  0  0  0  0  0  0  0  0  0  0
  -31.6557  -23.2149   18.2273 C   0  0  0  0  0  0  0  0  0  0  0  0
  -31.2252  -22.8696   20.6880 C   0  0  0  0  0  0  0  0  0  0  0  0
  -31.5723  -18.2835   20.2109 C   0  0  0  0  0  0  0  0  0  0  0  0
  -29.2350  -18.4375   19.3807 C   0  0  0  0  0  0  0  0  0  0  0  0
  -31.7327  -24.7184   18.4583 C   0  0  0  0  0  0  0  0  0  0  0  0
  -31.3030  -24.3750   20.9062 C   0  0  0  0  0  0  0  0  0  0  0  0
  -20.8663  -28.0559   22.2843 C   0  0  1  0  0  0  0  0  0  0  0  0
  -23.5737  -26.2634   24.2567 C   0  0  1  0  0  0  0  0  0  0  0  0
  -29.3643  -17.0557   18.7221 C   0  0  2  0  0  0  0  0  0  0  0  0
  -32.0538  -22.4332   19.4797 C   0  0  0  0  0  0  0  0  0  0  0  0
  -29.3098  -25.9678   29.1301 C   0  0  0  0  0  0  0  0  0  0  0  0
  -32.1105  -27.0139   20.5272 C   0  0  0  0  0  0  0  0  0  0  0  0
  -24.2631  -29.7869   27.7229 C   0  0  0  0  0  0  0  0  0  0  0  0
  -26.5465  -29.5026   28.7093 C   0  0  0  0  0  0  0  0  0  0  0  0
  -24.7406  -27.8718   29.2588 C   0  0  0  0  0  0  0  0  0  0  0  0
  -29.9715  -25.6463   25.3971 C   0  0  0  0  0  0  0  0  0  0  0  0
  -32.8242  -18.9505   18.2030 C   0  0  0  0  0  0  0  0  0  0  0  0
  -29.5902  -26.9111   20.6785 C   0  0  0  0  0  0  0  0  0  1  0  0
  -25.7774  -27.8427   26.9531 C   0  0  1  0  0  0  0  0  0  0  0  0
  -28.9361  -25.8694   27.6592 C   0  0  2  0  0  0  0  0  0  0  0  0
  -30.8232  -26.5794   19.8455 C   0  0  2  0  0  0  0  0  0  0  0  0
  -25.3281  -28.7503   28.1328 C   0  0  0  0  0  0  0  0  0  0  0  0
  -27.6057  -15.5433   19.5609 N   0  0  0  0  0  0  0  0  0  0  0  0
  -28.0174  -16.3698   18.5844 N   0  0  0  0  0  0  0  0  0  0  0  0
  -24.7377  -26.8025   24.9629 N   0  0  0  0  0  0  0  0  0  0  0  0
  -30.5385  -19.0875   19.5432 N   0  0  0  0  0  0  0  0  0  0  0  0
  -27.3884  -17.2798   16.4900 N   0  0  0  0  0  0  0  0  0  0  0  0
  -24.8803  -14.4544   16.1421 N   0  0  0  0  0  0  0  0  0  0  0  0
  -21.7014  -27.0890   22.9641 N   0  0  0  0  0  0  0  0  0  0  0  0
  -26.7658  -26.8336   27.3183 N   0  0  0  0  0  0  0  0  0  0  0  0
  -31.9234  -21.0135   19.2609 N   0  0  0  0  0  0  0  0  0  0  0  0
  -30.8778  -25.0896   19.6461 N   0  3  0  0  0  0  0  0  0  0  0  0
  -30.1909  -25.7719   26.8610 N   0  3  0  0  0  0  0  0  0  0  0  0
  -23.8791  -16.2270   17.1977 O   0  0  0  0  0  0  0  0  0  0  0  0
  -23.3491  -28.5514   23.7185 O   0  0  0  0  0  0  0  0  0  0  0  0
  -23.6581  -26.7801   27.0294 O   0  0  0  0  0  0  0  0  0  0  0  0
  -34.1684  -20.8818   18.6471 O   0  0  0  0  0  0  0  0  0  0  0  0
  -28.6333  -28.1147   26.8199 O   0  0  0  0  0  0  0  0  0  0  0  0
  -29.6255  -21.2206   19.3337 O   0  0  0  0  0  0  0  0  0  0  0  0
  -23.3945  -11.5486   22.1799 O   0  0  0  0  0  0  0  0  0  0  0  0
  -28.4079  -26.4978   20.0038 O   0  0  0  0  0  0  0  0  0  1  0  0
  -23.1689   -6.3014   20.5006 F   0  0  0  0  0  0  0  0  0  0  0  0
  -24.2977   -9.5002   23.8019 F   0  0  0  0  0  0  0  0  0  0  0  0
  -33.2821  -18.8908   16.4870 Cl  0  0  0  0  0  0  0  0  0  0  0  0
  1  2  1  0  0  0  0
  1  5  2  0  0  0  0
  2  6  2  0  0  0  0
  3  8  2  0  0  0  0
  3 15  1  0  0  0  0
  4  9  1  0  0  0  0
  4 15  2  0  0  0  0
  5 17  1  0  0  0  0
  6 19  1  0  0  0  0
  7 10  2  0  0  0  0
  7 18  1  0  0  0  0
  8 21  1  0  0  0  0
  9 21  2  0  0  0  0
 10 22  1  0  0  0  0
 11 12  2  0  0  0  0
 11 23  1  0  0  0  0
 12 24  1  0  0  0  0
 13 20  1  0  0  0  0
 13 22  2  0  0  0  0
 14 24  2  0  0  0  0
 14 25  1  0  0  0  0
 15 26  1  0  0  0  0
 16 26  1  0  0  0  0
 16 27  2  0  0  0  0
 16 28  1  0  0  0  0
 17 19  2  0  0  0  0
 17 34  1  0  0  0  0
 18 20  2  0  0  0  0
 18 35  1  0  0  0  0
 19 47  1  0  0  0  0
 20 36  1  0  0  0  0
 21 80  1  0  0  0  0
 22 81  1  0  0  0  0
 23 25  2  0  0  0  0
 23 80  1  0  0  0  0
 24 82  1  0  0  0  0
 25 83  1  0  0  0  0
 26 63  2  0  0  0  0
 27 64  1  0  0  0  0
 27 67  1  0  0  0  0
 28 68  1  0  0  0  0
 28 74  2  0  0  0  0
 29 48  1  0  0  0  0
 29 69  1  0  0  0  0
 29 75  2  0  0  0  0
 30 59  1  0  0  0  0
 30 65  1  0  0  0  0
 30 76  2  0  0  0  0
 31 57  1  0  0  0  0
 31 71  1  0  0  0  0
 31 77  2  0  0  0  0
 32 60  1  0  0  0  0
 32 70  1  0  0  0  0
 32 78  2  0  0  0  0
 33 66  1  0  0  0  0
 33 71  1  0  0  0  0
 33 79  2  0  0  0  0
 34 37  1  0  0  0  0
 35 48  1  0  0  0  0
 36 65  1  0  0  0  0
 37 39  1  0  0  0  0
 38 40  1  0  0  0  0
 38 43  1  0  0  0  0
 39 47  1  0  0  0  0
 40 49  1  0  0  0  0
 41 45  1  0  0  0  0
 41 50  1  0  0  0  0
 42 46  1  0  0  0  0
 42 50  1  0  0  0  0
 43 66  1  0  0  0  0
 44 49  1  0  0  0  0
 44 66  1  0  0  0  0
 45 72  1  0  0  0  0
 46 72  1  0  0  0  0
 47 69  1  0  0  0  0
 48 65  1  0  0  0  0
 49 64  1  0  0  0  0
 50 71  1  0  0  0  0
 51 60  1  0  0  0  0
 52 61  1  0  0  0  0
 53 62  1  0  0  0  0
 54 62  1  0  0  0  0
 55 62  1  0  0  0  0
 56 73  1  0  0  0  0
 57 84  1  0  0  0  0
 58 61  1  0  0  0  0
 58 81  1  0  0  0  0
 59 62  1  0  0  0  0
 59 70  1  0  0  0  0
 60 73  1  0  0  0  0
 61 72  1  0  0  0  0
 63 64  1  0  0  0  0
M  CHG  2  72   1  73   1
M  ISO  4  33 100  58 101  71 100  81 101
M  END
> <Batch ID>
0023

> <Smiles>
CNC(C)C(=O)NC(C(=O)N1Cc2cc([101O:1][101CH2:1]C(C)N3CCC([100N:0](C(=O)CCl)[100C:0](=O)N4CCCC(n5nc(-c6ccc(Oc7ccc(F)cc7F)cc6)c(C(N)=O)c5N)C4)CC3)ccc2CC1C(=O)NC1CCCc2ccccc21)C(C)(C)C

> <Shape>
0.196

> <Color>
0.086

> <Negative vol penalty>
0.000

$$$$

  -OEChem-04052316193D

 92100  0     1  0  0  0  0  0999 V2000
  -19.1901  -30.1421    5.6513 C   0  0  0  0  0  0  0  0  0  0  0  0
  -19.6748  -30.1956    6.9542 C   0  0  0  0  0  0  0  0  0  0  0  0
  -23.0001   -9.8939   19.9811 C   0  0  0  0  0  0  0  0  0  0  0  0
  -23.7249   -9.9448   22.2852 C   0  0  0  0  0  0  0  0  0  0  0  0
  -17.9497  -29.5601    5.3935 C   0  0  0  0  0  0  0  0  0  0  0  0
  -18.9188  -29.6679    8.0004 C   0  0  0  0  0  0  0  0  0  0  0  0
  -21.6951  -26.8840   11.1921 C   0  0  0  0  0  0  0  0  0  0  0  0
  -22.2333   -8.7595   20.2473 C   0  0  0  0  0  0  0  0  0  0  0  0
  -22.9580   -8.8104   22.5515 C   0  0  0  0  0  0  0  0  0  0  0  0
  -22.4819  -27.5700   12.1163 C   0  0  0  0  0  0  0  0  0  0  0  0
  -23.2018   -5.4714   22.0797 C   0  0  0  0  0  0  0  0  0  0  0  0
  -23.7890   -4.4541   22.8320 C   0  0  0  0  0  0  0  0  0  0  0  0
  -20.8133  -27.1832   13.8149 C   0  0  0  0  0  0  0  0  0  0  0  0
  -29.7533  -19.2587   22.2689 C   0  0  0  0  0  0  0  0  0  0  0  0
  -31.1983  -17.5861   20.5668 C   0  0  0  0  0  0  0  0  0  0  0  0
  -22.0648   -4.6974   24.5069 C   0  0  0  0  0  0  0  0  0  0  0  0
  -23.7459  -10.4865   21.0000 C   0  0  0  0  0  0  0  0  0  0  0  0
  -24.1318  -13.0020   20.8240 C   0  0  0  0  0  0  0  0  0  0  0  0
  -17.1824  -29.0164    6.4358 C   0  0  0  0  0  0  0  0  0  0  0  0
  -20.4544  -26.3510   11.5702 C   0  0  0  0  0  0  0  0  0  0  0  0
  -17.6663  -29.0792    7.7565 C   0  0  0  0  0  0  0  0  0  0  0  0
  -20.0138  -26.4886   12.8943 C   0  0  0  0  0  0  0  0  0  0  0  0
  -30.6806  -19.8016   21.3795 C   0  0  0  0  0  0  0  0  0  0  0  0
  -29.5486  -17.8795   22.3073 C   0  0  0  0  0  0  0  0  0  0  0  0
  -31.4031  -18.9653   20.5285 C   0  0  0  0  0  0  0  0  0  0  0  0
  -30.2710  -17.0432   21.4563 C   0  0  0  0  0  0  0  0  0  0  0  0
  -22.2122   -8.2178   21.5325 C   0  0  0  0  0  0  0  0  0  0  0  0
  -22.0397  -27.7222   13.4272 C   0  0  0  0  0  0  0  0  0  0  0  0
  -22.0462   -6.1018   22.5411 C   0  0  0  0  0  0  0  0  0  0  0  0
  -23.2205   -4.0671   24.0455 C   0  0  0  0  0  0  0  0  0  0  0  0
  -21.4777   -5.7148   23.7546 C   0  0  0  0  0  0  0  0  0  0  0  0
  -24.5387  -11.6579   20.7255 C   0  0  0  0  0  0  0  0  0  0  0  0
  -25.2417  -13.7243   20.4598 C   0  0  0  0  0  0  0  0  0  0  0  0
  -22.8638  -13.5486   21.2103 C   0  0  0  0  0  0  0  0  0  0  0  0
  -17.4407  -26.8356   10.6837 C   0  0  0  0  0  0  0  0  0  0  0  0
  -16.8654  -24.3296   12.6613 C   0  0  0  0  0  0  0  0  0  0  0  0
  -17.8730  -22.4516   15.3267 C   0  0  0  0  0  0  0  0  0  0  0  0
  -30.7213  -14.6844   20.6948 C   0  0  0  0  0  0  0  0  0  0  0  0
  -15.8263  -28.4398    6.1144 C   0  0  0  0  0  0  0  0  0  0  0  0
  -19.6298  -25.5905   10.5682 C   0  0  0  0  0  0  0  0  0  0  0  0
  -18.6988  -25.9175   13.3558 C   0  0  0  0  0  0  0  0  0  0  0  0
  -15.2553  -27.5679    7.2297 C   0  0  0  0  0  0  0  0  0  0  0  0
  -29.6030  -12.2317   18.3687 C   0  0  0  0  0  0  0  0  0  0  0  0
  -15.4088  -28.2602    8.5803 C   0  0  0  0  0  0  0  0  0  0  0  0
  -28.1523  -11.9743   18.7826 C   0  0  0  0  0  0  0  0  0  0  0  0
  -30.5034  -12.4749   19.5787 C   0  0  0  0  0  0  0  0  0  0  0  0
  -28.5879  -13.2642   20.9118 C   0  0  0  0  0  0  0  0  0  0  0  0
  -16.8867  -28.4955    8.9148 C   0  0  1  0  0  0  0  0  0  0  0  0
  -18.1494  -25.5343   10.9323 C   0  0  1  0  0  0  0  0  0  0  0  0
  -27.6304  -13.0780   19.7234 C   0  0  2  0  0  0  0  0  0  0  0  0
  -28.5489  -17.3254   23.2700 C   0  0  0  0  0  0  0  0  0  0  0  0
  -32.4012  -19.5239   19.5682 C   0  0  0  0  0  0  0  0  0  0  0  0
  -17.1761  -20.4931   16.7325 C   0  0  0  0  0  0  0  0  0  0  0  0
  -14.8107  -26.0827   14.0807 C   0  0  0  0  0  0  0  0  0  0  0  0
  -14.8536  -24.4653   15.9913 C   0  0  0  0  0  0  0  0  0  0  0  0
  -14.0982  -23.7102   13.7370 C   0  0  0  0  0  0  0  0  0  0  0  0
  -20.2883  -20.9109   14.5841 C   0  0  0  0  0  0  0  0  0  0  0  0
  -29.1111  -29.8224   16.2236 C   0  0  0  0  0  0  0  0  0  0  0  0
  -30.8851  -21.2956   21.3563 C   0  0  0  0  0  0  0  0  0  0  0  0
  -30.1542  -22.0055   20.2104 C   0  0  0  0  0  0  0  0  0  0  0  0
  -30.2933  -23.5324   20.1889 C   0  0  0  0  0  0  0  0  0  0  0  0
  -29.6232  -24.1880   18.9795 C   0  0  0  0  0  0  0  0  0  0  0  0
  -29.8135  -25.7073   18.9975 C   0  0  0  0  0  0  0  0  0  0  0  0
  -29.1175  -26.3666   17.8034 C   0  0  0  0  0  0  0  0  0  0  0  0
  -26.4174  -28.4042   15.3853 C   0  0  0  0  0  0  0  0  0  0  0  0
  -24.8966  -28.4660   15.5056 C   0  0  0  0  0  0  0  0  0  0  0  0
  -29.2657  -27.8828   17.7775 C   0  0  0  0  0  0  0  0  0  0  0  0
  -27.0775  -28.4862   16.7536 C   0  0  0  0  0  0  0  0  0  0  0  0
  -24.2197  -28.3420   14.1479 C   0  0  0  0  0  0  0  0  0  1  0  0
  -16.5517  -24.1768   14.1301 C   0  0  1  0  0  0  0  0  0  0  0  0
  -17.9729  -20.9492   15.5202 C   0  0  2  0  0  0  0  0  0  0  0  0
  -15.1025  -24.6213   14.4759 C   0  0  0  0  0  0  0  0  0  0  0  0
  -25.8080  -11.5312   20.3296 N   0  0  0  0  0  0  0  0  0  0  0  0
  -26.2083  -12.8049   20.1760 N   0  0  0  0  0  0  0  0  0  0  0  0
  -17.9257  -25.1879   12.3373 N   0  0  0  0  0  0  0  0  0  0  0  0
  -29.9484  -13.5360   20.4218 N   0  0  0  0  0  0  0  0  0  0  0  0
  -25.4755  -15.0500   20.3578 N   0  0  0  0  0  0  0  0  0  0  0  0
  -21.8318  -12.6647   21.5537 N   0  0  0  0  0  0  0  0  0  0  0  0
  -30.0771  -15.6397   21.4802 N   0  0  0  0  0  0  0  0  0  0  0  0
  -17.5027  -27.2686    9.3729 N   0  0  0  0  0  0  0  0  0  0  0  0
  -16.8479  -22.7890   14.4685 N   0  0  0  0  0  0  0  0  0  0  0  0
  -19.3944  -20.5451   15.7129 N   0  3  0  0  0  0  0  0  0  0  0  0
  -28.5505  -28.4681   16.5841 N   0  3  1  0  0  0  0  0  0  0  0  0
  -22.6473  -14.7840   21.2340 O   0  0  0  0  0  0  0  0  0  0  0  0
  -16.8779  -27.4041   11.6120 O   0  0  0  0  0  0  0  0  0  0  0  0
  -16.1990  -23.7047   11.8324 O   0  0  0  0  0  0  0  0  0  0  0  0
  -18.6264  -23.2465   15.8843 O   0  0  0  0  0  0  0  0  0  0  0  0
  -31.8601  -14.8231   20.2410 O   0  0  0  0  0  0  0  0  0  0  0  0
  -21.4639   -7.1111   21.7927 O   0  0  0  0  0  0  0  0  0  0  0  0
  -22.8054  -28.3919   14.3311 O   0  0  0  0  0  0  0  0  0  1  0  0
  -23.7836   -3.0891   24.7671 F   0  0  0  0  0  0  0  0  0  0  0  0
  -20.3668   -6.3159   24.2024 F   0  0  0  0  0  0  0  0  0  0  0  0
  1  2  1  0  0  0  0
  1  5  2  0  0  0  0
  2  6  2  0  0  0  0
  3  8  2  0  0  0  0
  3 17  1  0  0  0  0
  4  9  1  0  0  0  0
  4 17  2  0  0  0  0
  5 19  1  0  0  0  0
  6 21  1  0  0  0  0
  7 10  2  0  0  0  0
  7 20  1  0  0  0  0
  8 27  1  0  0  0  0
  9 27  2  0  0  0  0
 10 28  1  0  0  0  0
 11 12  2  0  0  0  0
 11 29  1  0  0  0  0
 12 30  1  0  0  0  0
 13 22  1  0  0  0  0
 13 28  2  0  0  0  0
 14 23  1  0  0  0  0
 14 24  2  0  0  0  0
 15 25  1  0  0  0  0
 15 26  2  0  0  0  0
 16 30  2  0  0  0  0
 16 31  1  0  0  0  0
 17 32  1  0  0  0  0
 18 32  1  0  0  0  0
 18 33  2  0  0  0  0
 18 34  1  0  0  0  0
 19 21  2  0  0  0  0
 19 39  1  0  0  0  0
 20 22  2  0  0  0  0
 20 40  1  0  0  0  0
 21 48  1  0  0  0  0
 22 41  1  0  0  0  0
 23 25  2  0  0  0  0
 23 59  1  0  0  0  0
 24 26  1  0  0  0  0
 24 51  1  0  0  0  0
 25 52  1  0  0  0  0
 26 79  1  0  0  0  0
 27 89  1  0  0  0  0
 28 90  1  0  0  0  0
 29 31  2  0  0  0  0
 29 89  1  0  0  0  0
 30 91  1  0  0  0  0
 31 92  1  0  0  0  0
 32 73  2  0  0  0  0
 33 74  1  0  0  0  0
 33 77  1  0  0  0  0
 34 78  1  0  0  0  0
 34 84  2  0  0  0  0
 35 49  1  0  0  0  0
 35 80  1  0  0  0  0
 35 85  2  0  0  0  0
 36 70  1  0  0  0  0
 36 75  1  0  0  0  0
 36 86  2  0  0  0  0
 37 71  1  0  0  0  0
 37 81  1  0  0  0  0
 37 87  2  0  0  0  0
 38 76  1  0  0  0  0
 38 79  1  0  0  0  0
 38 88  2  0  0  0  0
 39 42  1  0  0  0  0
 40 49  1  0  0  0  0
 41 75  1  0  0  0  0
 42 44  1  0  0  0  0
 43 45  1  0  0  0  0
 43 46  1  0  0  0  0
 44 48  1  0  0  0  0
 45 50  1  0  0  0  0
 46 76  1  0  0  0  0
 47 50  1  0  0  0  0
 47 76  1  0  0  0  0
 48 80  1  0  0  0  0
 49 75  1  0  0  0  0
 50 74  1  0  0  0  0
 53 71  1  0  0  0  0
 54 72  1  0  0  0  0
 55 72  1  0  0  0  0
 56 72  1  0  0  0  0
 57 82  1  0  0  0  0
 58 83  1  0  0  0  0
 59 60  1  0  0  0  0
 60 61  1  0  0  0  0
 61 62  1  0  0  0  0
 62 63  1  0  0  0  0
 63 64  1  0  0  0  0
 64 67  1  0  0  0  0
 65 66  1  0  0  0  0
 65 68  1  0  0  0  0
 66 69  1  0  0  0  0
 67 83  1  0  0  0  0
 68 83  1  0  0  0  0
 69 90  1  0  0  0  0
 70 72  1  0  0  0  0
 70 81  1  0  0  0  0
 71 82  1  0  0  0  0
 73 74  1  0  0  0  0
M  CHG  2  82   1  83   1
M  ISO  4  38 100  69 101  79 100  90 101
M  END
> <Batch ID>
0023

> <Smiles>
CNC(C)C(=O)NC(C(=O)N1Cc2cc([101O:1][101CH2:1]CCCN(C)CCCCCCCc3cc(C)c([100NH:0][100C:0](=O)N4CCCC(n5nc(-c6ccc(Oc7ccc(F)cc7F)cc6)c(C(N)=O)c5N)C4)cc3C)ccc2CC1C(=O)NC1CCCc2ccccc21)C(C)(C)C

> <Shape>
0.208

> <Color>
0.189

> <Negative vol penalty>
0.000

$$$$

  -OEChem-04052316193D

 92102  0     1  0  0  0  0  0999 V2000
  -22.8034  -20.8698   31.7823 C   0  0  0  0  0  0  0  0  0  0  0  0
  -23.4136  -20.0479   30.8402 C   0  0  0  0  0  0  0  0  0  0  0  0
  -23.2882   -9.7995   19.9133 C   0  0  0  0  0  0  0  0  0  0  0  0
  -23.7400   -9.9397   22.2825 C   0  0  0  0  0  0  0  0  0  0  0  0
  -21.4140  -20.9822   31.8119 C   0  0  0  0  0  0  0  0  0  0  0  0
  -22.6347  -19.3372   29.9278 C   0  0  0  0  0  0  0  0  0  0  0  0
  -24.4587  -19.5832   25.2100 C   0  0  0  0  0  0  0  0  0  0  0  0
  -22.5619   -8.6270   20.1211 C   0  0  0  0  0  0  0  0  0  0  0  0
  -23.0136   -8.7671   22.4904 C   0  0  0  0  0  0  0  0  0  0  0  0
  -25.5474  -18.7675   24.9049 C   0  0  0  0  0  0  0  0  0  0  0  0
  -20.9749   -6.0068   23.6915 C   0  0  0  0  0  0  0  0  0  0  0  0
  -20.0737   -5.9813   24.7558 C   0  0  0  0  0  0  0  0  0  0  0  0
  -24.0603  -17.1866   23.8521 C   0  0  0  0  0  0  0  0  0  0  0  0
  -18.8639   -7.8287   23.7756 C   0  0  0  0  0  0  0  0  0  0  0  0
  -32.6376  -15.7477   29.1088 C   0  0  0  0  0  0  0  0  0  0  0  0
  -23.8773  -10.4559   20.9940 C   0  0  0  0  0  0  0  0  0  0  0  0
  -24.1367  -12.9859   20.7958 C   0  0  0  0  0  0  0  0  0  0  0  0
  -20.6181  -20.2800   30.8932 C   0  0  0  0  0  0  0  0  0  0  0  0
  -23.1592  -19.2008   24.8474 C   0  0  0  0  0  0  0  0  0  0  0  0
  -21.2333  -19.4393   29.9460 C   0  0  0  0  0  0  0  0  0  0  0  0
  -22.9571  -18.0004   24.1514 C   0  0  0  0  0  0  0  0  0  0  0  0
  -22.4246   -8.1108   21.4096 C   0  0  0  0  0  0  0  0  0  0  0  0
  -25.3481  -17.5676   24.2284 C   0  0  0  0  0  0  0  0  0  0  0  0
  -20.8206   -6.9433   22.6692 C   0  0  0  0  0  0  0  0  0  0  0  0
  -19.0182   -6.8922   24.7978 C   0  0  0  0  0  0  0  0  0  0  0  0
  -19.7651   -7.8541   22.7113 C   0  0  0  0  0  0  0  0  0  0  0  0
  -24.6282  -11.6668   20.7799 C   0  0  0  0  0  0  0  0  0  0  0  0
  -31.9482  -15.8528   30.3318 C   0  0  0  0  0  0  0  0  0  0  0  0
  -32.7474  -14.3960   28.8916 C   0  0  0  0  0  0  0  0  0  0  0  0
  -25.2381  -13.7658   20.5405 C   0  0  0  0  0  0  0  0  0  0  0  0
  -22.8037  -13.4635   21.0212 C   0  0  0  0  0  0  0  0  0  0  0  0
  -20.4878  -18.5435   26.4396 C   0  0  0  0  0  0  0  0  0  0  0  0
  -19.2144  -18.3798   23.4607 C   0  0  0  0  0  0  0  0  0  0  0  0
  -19.7100  -17.8775   20.1217 C   0  0  0  0  0  0  0  0  0  0  0  0
  -31.1094  -12.9225   21.3577 C   0  0  0  0  0  0  0  0  0  0  0  0
  -19.1179  -20.3966   30.9945 C   0  0  0  0  0  0  0  0  0  0  0  0
  -21.9983  -20.1047   25.1602 C   0  0  0  0  0  0  0  0  0  0  0  0
  -21.5842  -17.5542   23.7220 C   0  0  0  0  0  0  0  0  0  0  0  0
  -18.3831  -19.9011   29.7516 C   0  0  0  0  0  0  0  0  0  0  0  0
  -29.4593  -13.6626   18.2907 C   0  0  0  0  0  0  0  0  0  0  0  0
  -18.9422  -18.5550   29.3020 C   0  0  0  0  0  0  0  0  0  0  0  0
  -30.1347  -17.4524   31.3437 C   0  0  0  0  0  0  0  0  0  0  0  0
  -30.7777  -18.1959   30.2150 C   0  0  0  0  0  0  0  0  0  0  0  0
  -32.8288  -12.1577   25.7912 C   0  0  0  0  0  0  0  0  0  0  0  0
  -27.9897  -13.3540   18.5823 C   0  0  0  0  0  0  0  0  0  0  0  0
  -31.8698  -11.8883   24.6313 C   0  0  0  0  0  0  0  0  0  0  0  0
  -32.1770  -14.6007   25.7730 C   0  0  0  0  0  0  0  0  0  0  0  0
  -30.3928  -12.6830   18.9985 C   0  0  0  0  0  0  0  0  0  0  0  0
  -28.7069  -12.2533   20.7440 C   0  0  0  0  0  0  0  0  0  0  0  0
  -20.4237  -18.6715   28.9236 C   0  0  1  0  0  0  0  0  0  0  0  0
  -31.5850  -17.1787   30.9973 C   0  0  0  0  0  0  0  0  0  0  0  0
  -20.6619  -19.3699   25.1969 C   0  0  1  0  0  0  0  0  0  0  0  0
  -32.3740  -13.3506   26.6435 C   0  0  2  0  0  0  0  0  0  0  0  0
  -27.7287  -13.2487   20.0969 C   0  0  2  0  0  0  0  0  0  0  0  0
  -31.6722  -13.1358   23.7653 C   0  0  2  0  0  0  0  0  0  0  0  0
  -31.2100  -14.3198   24.6223 C   0  0  2  0  0  0  0  0  0  0  0  0
  -18.4728  -17.7682   17.9411 C   0  0  0  0  0  0  0  0  0  0  0  0
  -30.5653  -17.9100   23.6931 C   0  0  0  0  0  0  0  0  0  0  0  0
  -18.1691  -15.6090   24.1954 C   0  0  0  0  0  0  0  0  0  0  0  0
  -17.7976  -15.1791   21.7571 C   0  0  0  0  0  0  0  0  0  0  0  0
  -16.5620  -17.0205   22.8995 C   0  0  0  0  0  0  0  0  0  0  0  0
  -31.9990  -12.3784   30.1894 C   0  0  0  0  0  0  0  0  0  0  0  0
  -21.2432  -20.1493   19.0049 C   0  0  0  0  0  0  0  0  0  0  0  0
  -33.3759  -13.6257   27.7634 C   0  0  0  0  0  0  0  0  0  0  0  0
  -28.7355  -16.1843   23.9260 C   0  0  0  0  0  0  0  0  0  0  0  0
  -27.6985  -17.2226   24.3399 C   0  0  0  0  0  0  0  0  0  1  0  0
  -19.0326  -17.2879   22.4342 C   0  0  1  0  0  0  0  0  0  0  0  0
  -19.2428  -18.6569   18.9056 C   0  0  2  0  0  0  0  0  0  0  0  0
  -30.1707  -16.5670   24.2930 C   0  0  1  0  0  0  0  0  0  0  0  0
  -17.9161  -16.2813   22.8312 C   0  0  0  0  0  0  0  0  0  0  0  0
  -25.9397  -11.6082   20.5338 N   0  0  0  0  0  0  0  0  0  0  0  0
  -31.6416  -14.6626   30.8547 N   0  0  0  0  0  0  0  0  0  0  0  0
  -32.1406  -13.7969   29.9560 N   0  0  0  0  0  0  0  0  0  0  0  0
  -26.2816  -12.9002   20.3927 N   0  0  0  0  0  0  0  0  0  0  0  0
  -20.4805  -18.4694   24.0565 N   0  0  0  0  0  0  0  0  0  0  0  0
  -30.0941  -12.6313   20.4317 N   0  0  0  0  0  0  0  0  0  0  0  0
  -25.4060  -15.1007   20.4303 N   0  0  0  0  0  0  0  0  0  0  0  0
  -21.7912  -12.5265   21.2689 N   0  0  0  0  0  0  0  0  0  0  0  0
  -20.5651  -19.2690   27.6131 N   0  0  0  0  0  0  0  0  0  0  0  0
  -18.8056  -17.9598   21.1593 N   0  0  0  0  0  0  0  0  0  0  0  0
  -30.7402  -12.8567   22.6956 N   0  0  0  0  0  0  0  0  0  0  0  0
  -31.1162  -15.5382   23.7770 N   0  3  0  0  0  0  0  0  0  0  0  0
  -20.4098  -19.2357   18.1816 N   0  3  0  0  0  0  0  0  0  0  0  0
  -22.5158  -14.6839   20.9872 O   0  0  0  0  0  0  0  0  0  0  0  0
  -20.2959  -17.3372   26.3411 O   0  0  0  0  0  0  0  0  0  0  0  0
  -18.2702  -19.1304   23.7189 O   0  0  0  0  0  0  0  0  0  0  0  0
  -20.7692  -17.2548   20.1472 O   0  0  0  0  0  0  0  0  0  0  0  0
  -32.2582  -13.2244   21.0171 O   0  0  0  0  0  0  0  0  0  0  0  0
  -21.7157   -6.9668   21.6128 O   0  0  0  0  0  0  0  0  0  0  0  0
  -26.4089  -16.7693   23.9300 O   0  0  0  0  0  0  0  0  0  1  0  0
  -18.1520   -6.8666   25.8192 F   0  0  0  0  0  0  0  0  0  0  0  0
  -19.6111   -8.7553   21.7315 F   0  0  0  0  0  0  0  0  0  0  0  0
  1  2  1  0  0  0  0
  1  5  2  0  0  0  0
  2  6  2  0  0  0  0
  3  8  2  0  0  0  0
  3 16  1  0  0  0  0
  4  9  1  0  0  0  0
  4 16  2  0  0  0  0
  5 18  1  0  0  0  0
  6 20  1  0  0  0  0
  7 10  2  0  0  0  0
  7 19  1  0  0  0  0
  8 22  1  0  0  0  0
  9 22  2  0  0  0  0
 10 23  1  0  0  0  0
 11 12  2  0  0  0  0
 11 24  1  0  0  0  0
 12 25  1  0  0  0  0
 13 21  1  0  0  0  0
 13 23  2  0  0  0  0
 14 25  2  0  0  0  0
 14 26  1  0  0  0  0
 15 28  1  0  0  0  0
 15 29  2  0  0  0  0
 16 27  1  0  0  0  0
 17 27  1  0  0  0  0
 17 30  2  0  0  0  0
 17 31  1  0  0  0  0
 18 20  2  0  0  0  0
 18 36  1  0  0  0  0
 19 21  2  0  0  0  0
 19 37  1  0  0  0  0
 20 50  1  0  0  0  0
 21 38  1  0  0  0  0
 22 89  1  0  0  0  0
 23 90  1  0  0  0  0
 24 26  2  0  0  0  0
 24 89  1  0  0  0  0
 25 91  1  0  0  0  0
 26 92  1  0  0  0  0
 27 71  2  0  0  0  0
 28 51  1  0  0  0  0
 28 72  2  0  0  0  0
 29 64  1  0  0  0  0
 29 73  1  0  0  0  0
 30 74  1  0  0  0  0
 30 77  1  0  0  0  0
 31 78  1  0  0  0  0
 31 84  2  0  0  0  0
 32 52  1  0  0  0  0
 32 79  1  0  0  0  0
 32 85  2  0  0  0  0
 33 67  1  0  0  0  0
 33 75  1  0  0  0  0
 33 86  2  0  0  0  0
 34 68  1  0  0  0  0
 34 80  1  0  0  0  0
 34 87  2  0  0  0  0
 35 76  1  0  0  0  0
 35 81  1  0  0  0  0
 35 88  2  0  0  0  0
 36 39  1  0  0  0  0
 37 52  1  0  0  0  0
 38 75  1  0  0  0  0
 39 41  1  0  0  0  0
 40 45  1  0  0  0  0
 40 48  1  0  0  0  0
 41 50  1  0  0  0  0
 42 43  1  0  0  0  0
 42 51  1  0  0  0  0
 43 51  1  0  0  0  0
 44 46  1  0  0  0  0
 44 53  1  0  0  0  0
 45 54  1  0  0  0  0
 46 55  1  0  0  0  0
 47 53  1  0  0  0  0
 47 56  1  0  0  0  0
 48 76  1  0  0  0  0
 49 54  1  0  0  0  0
 49 76  1  0  0  0  0
 50 79  1  0  0  0  0
 52 75  1  0  0  0  0
 53 64  1  0  0  0  0
 54 74  1  0  0  0  0
 55 56  1  0  0  0  0
 55 81  1  0  0  0  0
 56 82  1  0  0  0  0
 57 68  1  0  0  0  0
 58 69  1  0  0  0  0
 59 70  1  0  0  0  0
 60 70  1  0  0  0  0
 61 70  1  0  0  0  0
 62 73  1  0  0  0  0
 63 83  1  0  0  0  0
 65 66  1  0  0  0  0
 65 69  1  0  0  0  0
 66 90  1  0  0  0  0
 67 70  1  0  0  0  0
 67 80  1  0  0  0  0
 68 83  1  0  0  0  0
 69 82  1  0  0  0  0
 71 74  1  0  0  0  0
 72 73  1  0  0  0  0
M  CHG  2  82   1  83   1
M  ISO  4  35 100  66 101  81 100  90 101
M  END
> <Batch ID>
0023

> <Smiles>
CNC(C)C(=O)NC(C(=O)N1Cc2cc([101O:1][101CH2:1]CC(C)NC3CC(Cc4cc(C5CC5)nn4C)CCC3[100NH:0][100C:0](=O)N3CCCC(n4nc(-c5ccc(Oc6ccc(F)cc6F)cc5)c(C(N)=O)c4N)C3)ccc2CC1C(=O)NC1CCCc2ccccc21)C(C)(C)C

> <Shape>
0.130

> <Color>
0.167

> <Negative vol penalty>
0.000

$$$$

  -OEChem-04052316193D

 87 95  0     1  0  0  0  0  0999 V2000
  -30.5694  -24.4637   18.5277 C   0  0  0  0  0  0  0  0  0  0  0  0
  -29.1805  -24.5357   18.4959 C   0  0  0  0  0  0  0  0  0  0  0  0
  -27.6248  -18.5897   22.4503 C   0  0  0  0  0  0  0  0  0  0  0  0
  -27.0252  -19.8311   20.4662 C   0  0  0  0  0  0  0  0  0  0  0  0
  -31.2712  -25.0248   19.5938 C   0  0  0  0  0  0  0  0  0  0  0  0
  -28.4924  -25.1679   19.5309 C   0  0  0  0  0  0  0  0  0  0  0  0
  -23.3311  -28.4314   19.0659 C   0  0  0  0  0  0  0  0  0  0  0  0
  -28.7847  -18.1407   21.8189 C   0  0  0  0  0  0  0  0  0  0  0  0
  -28.1851  -19.3821   19.8348 C   0  0  0  0  0  0  0  0  0  0  0  0
  -21.9944  -28.1108   19.2986 C   0  0  0  0  0  0  0  0  0  0  0  0
  -29.6308  -15.7862   19.5463 C   0  0  0  0  0  0  0  0  0  0  0  0
  -29.9512  -14.4340   19.6664 C   0  0  0  0  0  0  0  0  0  0  0  0
  -22.1651  -29.0372   21.5194 C   0  0  0  0  0  0  0  0  0  0  0  0
  -32.0429  -15.0234   20.7222 C   0  0  0  0  0  0  0  0  0  0  0  0
  -26.7450  -19.4349   21.7740 C   0  0  0  0  0  0  0  0  0  0  0  0
  -25.3966  -21.0646   23.2000 C   0  0  0  0  0  0  0  0  0  0  0  0
  -30.5919  -25.6727   20.6375 C   0  0  0  0  0  0  0  0  0  0  0  0
  -24.0992  -29.0486   20.0637 C   0  0  0  0  0  0  0  0  0  0  0  0
  -29.1856  -25.7370   20.6127 C   0  0  0  0  0  0  0  0  0  0  0  0
  -23.5106  -29.3669   21.2959 C   0  0  0  0  0  0  0  0  0  0  0  0
  -29.0648  -18.5369   20.5112 C   0  0  0  0  0  0  0  0  0  0  0  0
  -21.4120  -28.4110   20.5265 C   0  0  0  0  0  0  0  0  0  0  0  0
  -30.5165  -16.7571   20.0141 C   0  0  0  0  0  0  0  0  0  0  0  0
  -31.1572  -14.0526   20.2544 C   0  0  0  0  0  0  0  0  0  0  0  0
  -31.7225  -16.3756   20.6021 C   0  0  0  0  0  0  0  0  0  0  0  0
  -25.5465  -19.8986   22.4255 C   0  0  0  0  0  0  0  0  0  0  0  0
  -24.0794  -21.0515   23.5889 C   0  0  0  0  0  0  0  0  0  0  0  0
  -26.3618  -22.0696   23.5377 C   0  0  0  0  0  0  0  0  0  0  0  0
  -26.7108  -28.2585   21.6944 C   0  0  0  0  0  0  0  0  0  0  0  0
  -26.4412  -31.2833   22.8348 C   0  0  0  0  0  0  0  0  0  0  0  0
  -24.4365  -33.9694   23.4771 C   0  0  0  0  0  0  0  0  0  0  0  0
  -19.1641  -18.5510   21.2571 C   0  0  0  0  0  0  0  0  0  0  0  0
  -31.3909  -26.2227   21.7924 C   0  0  0  0  0  0  0  0  0  0  0  0
  -25.5323  -29.4121   19.7874 C   0  0  0  0  0  0  0  0  0  0  0  0
  -24.2864  -30.0475   22.3929 C   0  0  0  0  0  0  0  0  0  0  0  0
  -30.6084  -27.2033   22.6622 C   0  0  0  0  0  0  0  0  0  0  0  0
  -20.4813  -18.0403   24.5252 C   0  0  0  0  0  0  0  0  0  0  0  0
  -29.2251  -26.6461   22.9829 C   0  0  0  0  0  0  0  0  0  0  0  0
  -21.9153  -18.5639   24.4276 C   0  0  0  0  0  0  0  0  0  0  0  0
  -17.8034  -21.9305   20.5832 C   0  0  0  0  0  0  0  0  0  0  0  0
  -17.3291  -20.5876   20.0280 C   0  0  0  0  0  0  0  0  0  0  0  0
  -19.4949  -22.1053   18.7101 C   0  0  0  0  0  0  0  0  0  0  0  0
  -20.0440  -17.3484   23.2360 C   0  0  0  0  0  0  0  0  0  0  0  0
  -21.6433  -18.6796   21.9153 C   0  0  0  0  0  0  0  0  0  0  0  0
  -28.4049  -26.4362   21.7043 C   0  0  1  0  0  0  0  0  0  0  0  0
  -26.3630  -29.5739   21.0567 C   0  0  1  0  0  0  0  0  0  0  0  0
  -19.0383  -20.7420   18.1497 C   0  0  2  0  0  0  0  0  0  0  0  0
  -22.1100  -19.4346   23.1717 C   0  0  2  0  0  0  0  0  0  0  0  0
  -18.3686  -22.8009   19.4683 C   0  0  2  0  0  0  0  0  0  0  0  0
  -18.4304  -19.8227   19.2561 C   0  0  2  0  0  0  0  0  0  0  0  0
  -20.7115  -21.0038   16.3111 C   0  0  0  0  0  0  0  0  0  0  0  0
  -24.4939  -36.2829   24.4477 C   0  0  0  0  0  0  0  0  0  0  0  0
  -26.5429  -30.0991   25.6450 C   0  0  0  0  0  0  0  0  0  0  0  0
  -25.6572  -32.2723   26.5174 C   0  0  0  0  0  0  0  0  0  0  0  0
  -27.8614  -32.2038   25.3515 C   0  0  0  0  0  0  0  0  0  0  0  0
  -23.5812  -35.1889   20.9198 C   0  0  0  0  0  0  0  0  0  0  0  0
  -20.1964  -20.0973   17.3768 C   0  0  0  0  0  0  0  0  0  0  0  0
  -18.4786  -26.3407   20.9243 C   0  0  0  0  0  0  0  0  0  0  0  0
  -17.8567  -25.0975   20.3062 C   0  0  0  0  0  0  0  0  0  0  0  0
  -19.5816  -26.9611   20.0755 C   0  0  0  0  0  0  0  0  0  1  0  0
  -25.7387  -31.9253   24.0066 C   0  0  1  0  0  0  0  0  0  0  0  0
  -24.6088  -35.4484   23.1815 C   0  0  2  0  0  0  0  0  0  0  0  0
  -17.7964  -18.5651   18.6341 C   0  0  0  0  0  0  0  0  0  0  0  0
  -26.4357  -31.6106   25.3603 C   0  0  0  0  0  0  0  0  0  0  0  0
  -24.4148  -19.1959   22.3273 N   0  0  0  0  0  0  0  0  0  0  0  0
  -23.5414  -19.9224   23.0452 N   0  0  0  0  0  0  0  0  0  0  0  0
  -25.6860  -30.3771   22.0768 N   0  0  0  0  0  0  0  0  0  0  0  0
  -20.2531  -18.2280   22.0833 N   0  0  0  0  0  0  0  0  0  0  0  0
  -23.3405  -21.8959   24.3396 N   0  0  0  0  0  0  0  0  0  0  0  0
  -27.6700  -21.9286   23.0550 N   0  0  0  0  0  0  0  0  0  0  0  0
  -27.8837  -27.6985   21.2253 N   0  0  0  0  0  0  0  0  0  0  0  0
  -25.6476  -33.3483   23.6982 N   0  0  0  0  0  0  0  0  0  0  0  0
  -19.4478  -19.3953   20.1906 N   0  0  0  0  0  0  0  0  0  0  0  0
  -18.8933  -24.0603   20.0606 N   0  3  0  0  0  0  0  0  0  0  0  0
  -23.5682  -35.9089   22.2192 N   0  3  0  0  0  0  0  0  0  0  0  0
  -26.0768  -23.0547   24.2600 O   0  0  0  0  0  0  0  0  0  0  0  0
  -25.9705  -27.7873   22.5497 O   0  0  0  0  0  0  0  0  0  0  0  0
  -27.6144  -31.5803   22.5963 O   0  0  0  0  0  0  0  0  0  0  0  0
  -23.3373  -33.4208   23.5124 O   0  0  0  0  0  0  0  0  0  0  0  0
  -18.0224  -18.1232   21.4582 O   0  0  0  0  0  0  0  0  0  0  0  0
  -30.1966  -18.0991   19.8948 O   0  0  0  0  0  0  0  0  0  0  0  0
  -20.0985  -28.0964   20.7582 O   0  0  0  0  0  0  0  0  0  1  0  0
  -31.4641  -12.7539   20.3711 F   0  0  0  0  0  0  0  0  0  0  0  0
  -32.5768  -17.3037   21.0544 F   0  0  0  0  0  0  0  0  0  0  0  0
  -16.8159  -18.9249   17.7986 F   0  0  0  0  0  0  0  0  0  0  0  0
  -18.7271  -17.8820   17.9590 F   0  0  0  0  0  0  0  0  0  0  0  0
  -17.2932  -17.7921   19.6027 F   0  0  0  0  0  0  0  0  0  0  0  0
  1  2  1  0  0  0  0
  1  5  2  0  0  0  0
  2  6  2  0  0  0  0
  3  8  2  0  0  0  0
  3 15  1  0  0  0  0
  4  9  1  0  0  0  0
  4 15  2  0  0  0  0
  5 17  1  0  0  0  0
  6 19  1  0  0  0  0
  7 10  2  0  0  0  0
  7 18  1  0  0  0  0
  8 21  1  0  0  0  0
  9 21  2  0  0  0  0
 10 22  1  0  0  0  0
 11 12  2  0  0  0  0
 11 23  1  0  0  0  0
 12 24  1  0  0  0  0
 13 20  1  0  0  0  0
 13 22  2  0  0  0  0
 14 24  2  0  0  0  0
 14 25  1  0  0  0  0
 15 26  1  0  0  0  0
 16 26  1  0  0  0  0
 16 27  2  0  0  0  0
 16 28  1  0  0  0  0
 17 19  2  0  0  0  0
 17 33  1  0  0  0  0
 18 20  2  0  0  0  0
 18 34  1  0  0  0  0
 19 45  1  0  0  0  0
 20 35  1  0  0  0  0
 21 81  1  0  0  0  0
 22 82  1  0  0  0  0
 23 25  2  0  0  0  0
 23 81  1  0  0  0  0
 24 83  1  0  0  0  0
 25 84  1  0  0  0  0
 26 65  2  0  0  0  0
 27 66  1  0  0  0  0
 27 69  1  0  0  0  0
 28 70  1  0  0  0  0
 28 76  2  0  0  0  0
 29 46  1  0  0  0  0
 29 71  1  0  0  0  0
 29 77  2  0  0  0  0
 30 61  1  0  0  0  0
 30 67  1  0  0  0  0
 30 78  2  0  0  0  0
 31 62  1  0  0  0  0
 31 72  1  0  0  0  0
 31 79  2  0  0  0  0
 32 68  1  0  0  0  0
 32 73  1  0  0  0  0
 32 80  2  0  0  0  0
 33 36  1  0  0  0  0
 34 46  1  0  0  0  0
 35 67  1  0  0  0  0
 36 38  1  0  0  0  0
 37 39  1  0  0  0  0
 37 43  1  0  0  0  0
 38 45  1  0  0  0  0
 39 48  1  0  0  0  0
 40 41  1  0  0  0  0
 40 49  1  0  0  0  0
 41 50  1  0  0  0  0
 42 47  1  0  0  0  0
 42 49  1  0  0  0  0
 43 68  1  0  0  0  0
 44 48  1  0  0  0  0
 44 68  1  0  0  0  0
 45 71  1  0  0  0  0
 46 67  1  0  0  0  0
 47 50  1  0  0  0  0
 47 57  1  0  0  0  0
 48 66  1  0  0  0  0
 49 74  1  0  0  0  0
 50 63  1  0  0  0  0
 50 73  1  0  0  0  0
 51 57  1  0  0  0  0
 52 62  1  0  0  0  0
 53 64  1  0  0  0  0
 54 64  1  0  0  0  0
 55 64  1  0  0  0  0
 56 75  1  0  0  0  0
 58 59  1  0  0  0  0
 58 60  1  0  0  0  0
 59 74  1  0  0  0  0
 60 82  1  0  0  0  0
 61 64  1  0  0  0  0
 61 72  1  0  0  0  0
 62 75  1  0  0  0  0
 63 85  1  0  0  0  0
 63 86  1  0  0  0  0
 63 87  1  0  0  0  0
 65 66  1  0  0  0  0
M  CHG  2  74   1  75   1
M  ISO  4  32 100  60 101  73 100  82 101
M  END
> <Batch ID>
0023

> <Smiles>
CCC1CC(NCC[101CH2:1][101O:1]c2ccc3c(c2)CN(C(=O)C(NC(=O)C(C)NC)C(C)(C)C)C(C(=O)NC2CCCc4ccccc42)C3)CCC1([100NH:0][100C:0](=O)N1CCCC(n2nc(-c3ccc(Oc4ccc(F)cc4F)cc3)c(C(N)=O)c2N)C1)C(F)(F)F

> <Shape>
0.227

> <Color>
0.060

> <Negative vol penalty>
0.000

$$$$

  -OEChem-04052316193D

100110  0     1  0  0  0  0  0999 V2000
  -21.8809  -11.1665   21.5006 C   0  0  0  0  0  0  0  0  0  0  0  0
  -21.7439  -12.4017   22.1259 C   0  0  0  0  0  0  0  0  0  0  0  0
  -26.8534  -18.1196   19.8598 C   0  0  0  0  0  0  0  0  0  0  0  0
  -29.2468  -17.8034   19.7673 C   0  0  0  0  0  0  0  0  0  0  0  0
  -22.4082  -11.0935   20.2120 C   0  0  0  0  0  0  0  0  0  0  0  0
  -22.1353  -13.5645   21.4633 C   0  0  0  0  0  0  0  0  0  0  0  0
  -19.5091  -19.0835   21.8503 C   0  0  0  0  0  0  0  0  0  0  0  0
  -26.6641  -16.8369   19.3456 C   0  0  0  0  0  0  0  0  0  0  0  0
  -29.0575  -16.5207   19.2532 C   0  0  0  0  0  0  0  0  0  0  0  0
  -19.8245  -20.2226   22.5898 C   0  0  0  0  0  0  0  0  0  0  0  0
  -29.2001  -13.0277   18.2546 C   0  0  0  0  0  0  0  0  0  0  0  0
  -29.9662  -11.9933   18.7919 C   0  0  0  0  0  0  0  0  0  0  0  0
  -21.0092  -21.1205   20.6900 C   0  0  0  0  0  0  0  0  0  0  0  0
  -29.0166  -12.4222   20.9717 C   0  0  0  0  0  0  0  0  0  0  0  0
  -28.1448  -18.6029   20.0706 C   0  0  0  0  0  0  0  0  0  0  0  0
  -27.8882  -20.4241   21.8384 C   0  0  0  0  0  0  0  0  0  0  0  0
  -22.7972  -12.2569   19.5295 C   0  0  0  0  0  0  0  0  0  0  0  0
  -19.9514  -18.9494   20.5264 C   0  0  0  0  0  0  0  0  0  0  0  0
  -22.6695  -13.5069   20.1649 C   0  0  0  0  0  0  0  0  0  0  0  0
  -20.6960  -19.9799   19.9351 C   0  0  0  0  0  0  0  0  0  0  0  0
  -23.5460  -26.0347   21.8035 C   0  0  0  0  0  0  0  0  0  0  0  0
  -23.7773  -27.2661   21.1567 C   0  0  0  0  0  0  0  0  0  0  0  0
  -22.2795  -25.7880   22.3688 C   0  0  0  0  0  0  0  0  0  0  0  0
  -22.7851  -28.2408   21.0711 C   0  0  0  0  0  0  0  0  0  0  0  0
  -21.2875  -26.7873   22.2647 C   0  0  0  0  0  0  0  0  0  0  0  0
  -21.5374  -28.0008   21.6260 C   0  0  0  0  0  0  0  0  0  0  0  0
  -27.7661  -16.0374   19.0424 C   0  0  0  0  0  0  0  0  0  0  0  0
  -20.5771  -21.2400   22.0107 C   0  0  0  0  0  0  0  0  0  0  0  0
  -28.3423  -13.7594   19.0759 C   0  0  0  0  0  0  0  0  0  0  0  0
  -29.8745  -11.6905   20.1504 C   0  0  0  0  0  0  0  0  0  0  0  0
  -28.2505  -13.4566   20.4344 C   0  0  0  0  0  0  0  0  0  0  0  0
  -28.3410  -19.9281   20.6011 C   0  0  0  0  0  0  0  0  0  0  0  0
  -28.3292  -21.7245   21.8691 C   0  0  0  0  0  0  0  0  0  0  0  0
  -27.1363  -19.7680   22.8679 C   0  0  0  0  0  0  0  0  0  0  0  0
  -21.8476  -16.9124   18.9904 C   0  0  0  0  0  0  0  0  0  0  0  0
  -20.8694  -18.5745   16.3822 C   0  0  0  0  0  0  0  0  0  0  0  0
  -19.6234  -21.4807   15.0982 C   0  0  0  0  0  0  0  0  0  0  0  0
  -29.2021  -26.6127   19.5761 C   0  0  0  0  0  0  0  0  0  0  0  0
  -23.4059  -12.1236   18.1561 C   0  0  0  0  0  0  0  0  0  0  0  0
  -19.5801  -17.7263   19.7335 C   0  0  0  0  0  0  0  0  0  0  0  0
  -24.6751  -25.0348   21.8224 C   0  0  0  0  0  0  0  0  0  0  0  0
  -21.1776  -19.8936   18.5106 C   0  0  0  0  0  0  0  0  0  0  0  0
  -23.4483  -13.4366   17.3786 C   0  0  0  0  0  0  0  0  0  0  0  0
  -25.1287  -24.6254   23.2185 C   0  0  0  0  0  0  0  0  0  0  0  0
  -31.5678  -24.1904   18.8779 C   0  0  0  0  0  0  0  0  0  0  0  0
  -23.9761  -14.5630   18.2614 C   0  0  0  0  0  0  0  0  0  0  0  0
  -24.2150  -23.6046   23.8885 C   0  0  0  0  0  0  0  0  0  0  0  0
  -30.9139  -22.8961   19.3619 C   0  0  0  0  0  0  0  0  0  0  0  0
  -26.2515  -27.6246   21.5674 C   0  0  0  0  0  0  0  0  0  0  0  0
  -25.4658  -26.6229   19.3811 C   0  0  0  0  0  0  0  0  0  0  0  0
  -30.5542  -25.0842   18.1722 C   0  0  0  0  0  0  0  0  0  0  0  0
  -27.6001  -27.9261   20.9180 C   0  0  0  0  0  0  0  0  0  0  0  0
  -26.8304  -26.9483   18.7809 C   0  0  0  0  0  0  0  0  0  0  0  0
  -28.6954  -24.1309   19.4953 C   0  0  0  0  0  0  0  0  0  0  0  0
  -25.1190  -27.5901   20.5267 C   0  0  0  0  0  0  0  0  0  0  0  0
  -21.8971  -24.5010   23.0832 C   0  0  2  0  0  0  0  0  0  0  0  0
  -23.0597  -14.7929   19.4692 C   0  0  1  0  0  0  0  0  0  0  0  0
  -20.5194  -17.4673   18.5596 C   0  0  1  0  0  0  0  0  0  0  0  0
  -22.8118  -24.0980   24.2678 C   0  0  2  0  0  0  0  0  0  0  0  0
  -29.6762  -23.1929   20.2269 C   0  0  1  0  0  0  0  0  0  0  0  0
  -22.8676  -25.1940   25.3422 C   0  0  0  0  0  0  0  0  0  0  0  0
  -25.0185  -34.2071   20.8074 C   0  0  0  0  0  0  0  0  0  0  0  0
  -19.9276  -26.3996   24.3513 C   0  0  0  0  0  0  0  0  0  0  0  0
  -19.1719  -25.4213   22.1543 C   0  0  0  0  0  0  0  0  0  0  0  0
  -20.0240  -29.5506   22.9150 C   0  0  0  0  0  0  0  0  0  0  0  0
  -19.2458  -28.5547   20.7339 C   0  0  0  0  0  0  0  0  0  0  0  0
  -18.9654  -22.5524   12.9266 C   0  0  0  0  0  0  0  0  0  0  0  0
  -23.8137  -18.9913   15.6986 C   0  0  0  0  0  0  0  0  0  0  0  0
  -23.1189  -20.8109   14.1254 C   0  0  0  0  0  0  0  0  0  0  0  0
  -22.3514  -18.4692   13.7381 C   0  0  0  0  0  0  0  0  0  0  0  0
  -16.8195  -21.8210   15.9821 C   0  0  0  0  0  0  0  0  0  0  0  0
  -23.0580  -29.5413   20.3822 C   0  0  0  0  0  0  0  0  0  0  0  0
  -21.6566  -23.3577   22.0892 C   0  0  0  0  0  0  0  0  0  1  0  0
  -24.8413  -32.8459   21.4613 C   0  0  0  0  0  0  0  0  0  0  0  0
  -23.8551  -30.5310   21.2385 C   0  0  0  0  0  0  0  0  0  0  0  0
  -24.0637  -31.8877   20.5581 C   0  0  0  0  0  0  0  0  0  0  0  0
  -19.9086  -26.5898   22.8269 C   0  0  0  0  0  0  0  0  0  0  0  0
  -20.4670  -29.0428   21.5321 C   0  0  0  0  0  0  0  0  0  0  0  0
  -21.3616  -19.7981   15.6477 C   0  0  1  0  0  0  0  0  0  0  0  0
  -18.4888  -21.7474   14.1256 C   0  0  2  0  0  0  0  0  0  0  0  0
  -22.6541  -19.5185   14.8299 C   0  0  0  0  0  0  0  0  0  0  0  0
  -29.0176  -20.8392   19.8968 N   0  0  0  0  0  0  0  0  0  0  0  0
  -28.9931  -21.9208   20.6940 N   0  0  0  0  0  0  0  0  0  0  0  0
  -20.7943  -18.6751   17.7786 N   0  0  0  0  0  0  0  0  0  0  0  0
  -29.3918  -25.3370   19.0234 N   0  0  0  0  0  0  0  0  0  0  0  0
  -27.8758  -27.0107   19.8114 N   0  0  0  0  0  0  0  0  0  0  0  0
  -28.2098  -22.7078   22.7863 N   0  0  0  0  0  0  0  0  0  0  0  0
  -25.7371  -19.8304   22.8162 N   0  0  0  0  0  0  0  0  0  0  0  0
  -21.8805  -15.5336   19.0751 N   0  0  0  0  0  0  0  0  0  0  0  0
  -20.2386  -20.2726   14.8464 N   0  0  0  0  0  0  0  0  0  0  0  0
  -17.3977  -22.5075   14.7983 N   0  3  0  0  0  0  0  0  0  0  0  0
  -27.6891  -19.1588   23.8148 O   0  0  0  0  0  0  0  0  0  0  0  0
  -22.7744  -17.6784   19.2269 O   0  0  0  0  0  0  0  0  0  0  0  0
  -20.5561  -17.5690   15.7400 O   0  0  0  0  0  0  0  0  0  0  0  0
  -19.9354  -22.2672   15.9896 O   0  0  0  0  0  0  0  0  0  0  0  0
  -30.1572  -27.3506   19.8486 O   0  0  0  0  0  0  0  0  0  0  0  0
  -27.5817  -14.7856   18.5409 O   0  0  0  0  0  0  0  0  0  0  0  0
  -20.8900  -22.3638   22.7377 O   0  0  0  0  0  0  0  0  0  1  0  0
  -30.6091  -10.6961   20.6659 F   0  0  0  0  0  0  0  0  0  0  0  0
  -27.4273  -14.1552   21.2281 F   0  0  0  0  0  0  0  0  0  0  0  0
  1  2  1  0  0  0  0
  1  5  2  0  0  0  0
  2  6  2  0  0  0  0
  3  8  2  0  0  0  0
  3 15  1  0  0  0  0
  4  9  1  0  0  0  0
  4 15  2  0  0  0  0
  5 17  1  0  0  0  0
  6 19  1  0  0  0  0
  7 10  2  0  0  0  0
  7 18  1  0  0  0  0
  8 27  1  0  0  0  0
  9 27  2  0  0  0  0
 10 28  1  0  0  0  0
 11 12  2  0  0  0  0
 11 29  1  0  0  0  0
 12 30  1  0  0  0  0
 13 20  1  0  0  0  0
 13 28  2  0  0  0  0
 14 30  2  0  0  0  0
 14 31  1  0  0  0  0
 15 32  1  0  0  0  0
 16 32  1  0  0  0  0
 16 33  2  0  0  0  0
 16 34  1  0  0  0  0
 17 19  2  0  0  0  0
 17 39  1  0  0  0  0
 18 20  2  0  0  0  0
 18 40  1  0  0  0  0
 19 57  1  0  0  0  0
 20 42  1  0  0  0  0
 21 22  1  0  0  0  0
 21 23  2  0  0  0  0
 21 41  1  0  0  0  0
 22 24  2  0  0  0  0
 22 55  1  0  0  0  0
 23 25  1  0  0  0  0
 23 56  1  0  0  0  0
 24 26  1  0  0  0  0
 24 72  1  0  0  0  0
 25 26  2  0  0  0  0
 25 77  1  0  0  0  0
 26 78  1  0  0  0  0
 27 97  1  0  0  0  0
 28 98  1  0  0  0  0
 29 31  2  0  0  0  0
 29 97  1  0  0  0  0
 30 99  1  0  0  0  0
 31100  1  0  0  0  0
 32 82  2  0  0  0  0
 33 83  1  0  0  0  0
 33 87  1  0  0  0  0
 34 88  1  0  0  0  0
 34 92  2  0  0  0  0
 35 58  1  0  0  0  0
 35 89  1  0  0  0  0
 35 93  2  0  0  0  0
 36 79  1  0  0  0  0
 36 84  1  0  0  0  0
 36 94  2  0  0  0  0
 37 80  1  0  0  0  0
 37 90  1  0  0  0  0
 37 95  2  0  0  0  0
 38 85  1  0  0  0  0
 38 86  1  0  0  0  0
 38 96  2  0  0  0  0
 39 43  1  0  0  0  0
 40 58  1  0  0  0  0
 41 44  1  0  0  0  0
 42 84  1  0  0  0  0
 43 46  1  0  0  0  0
 44 47  1  0  0  0  0
 45 48  1  0  0  0  0
 45 51  1  0  0  0  0
 46 57  1  0  0  0  0
 47 59  1  0  0  0  0
 48 60  1  0  0  0  0
 49 52  1  0  0  0  0
 49 55  1  0  0  0  0
 50 53  1  0  0  0  0
 50 55  1  0  0  0  0
 51 85  1  0  0  0  0
 52 86  1  0  0  0  0
 53 86  1  0  0  0  0
 54 60  1  0  0  0  0
 54 85  1  0  0  0  0
 56 59  1  0  0  0  0
 56 73  1  0  0  0  0
 57 89  1  0  0  0  0
 58 84  1  0  0  0  0
 59 61  1  0  0  0  0
 60 83  1  0  0  0  0
 62 74  1  0  0  0  0
 63 77  1  0  0  0  0
 64 77  1  0  0  0  0
 65 78  1  0  0  0  0
 66 78  1  0  0  0  0
 67 80  1  0  0  0  0
 68 81  1  0  0  0  0
 69 81  1  0  0  0  0
 70 81  1  0  0  0  0
 71 91  1  0  0  0  0
 72 75  1  0  0  0  0
 73 98  1  0  0  0  0
 74 76  1  0  0  0  0
 75 76  1  0  0  0  0
 79 81  1  0  0  0  0
 79 90  1  0  0  0  0
 80 91  1  0  0  0  0
 82 83  1  0  0  0  0
M  CHG  1  91   1
M  ISO  4  38 100  73 101  86 100  98 101
M  END
> <Batch ID>
0023

> <Smiles>
CCCCCc1c(C(C)C)c(C(C)C)c2c(c1C1CC[100N:0]([100C:0](=O)N3CCCC(n4nc(-c5ccc(Oc6ccc(F)cc6F)cc5)c(C(N)=O)c4N)C3)CC1)CCCC(C)C2[101CH2:1][101O:1]c1ccc2c(c1)CN(C(=O)C(NC(=O)C(C)NC)C(C)(C)C)C(C(=O)NC1CCCc3ccccc31)C2

> <Shape>
0.243

> <Color>
0.037

> <Negative vol penalty>
0.000

$$$$

  -OEChem-04052316193D

 91 99  0     1  0  0  0  0  0999 V2000
  -29.8379  -21.2387   25.1403 C   0  0  0  0  0  0  0  0  0  0  0  0
  -28.9043  -22.2031   24.7781 C   0  0  0  0  0  0  0  0  0  0  0  0
  -23.0008   -9.8978   19.9774 C   0  0  0  0  0  0  0  0  0  0  0  0
  -23.7358   -9.9373   22.2786 C   0  0  0  0  0  0  0  0  0  0  0  0
  -29.4782  -19.8927   25.1442 C   0  0  0  0  0  0  0  0  0  0  0  0
  -27.6074  -21.8229   24.4310 C   0  0  0  0  0  0  0  0  0  0  0  0
  -24.3420  -25.4288   23.6975 C   0  0  0  0  0  0  0  0  0  0  0  0
  -22.2369   -8.7609   20.2409 C   0  0  0  0  0  0  0  0  0  0  0  0
  -22.9717   -8.8004   22.5421 C   0  0  0  0  0  0  0  0  0  0  0  0
  -24.3758  -26.2601   22.5788 C   0  0  0  0  0  0  0  0  0  0  0  0
  -23.2182   -5.4644   22.0512 C   0  0  0  0  0  0  0  0  0  0  0  0
  -23.8103   -4.4439   22.7953 C   0  0  0  0  0  0  0  0  0  0  0  0
  -22.5343  -25.0328   21.6187 C   0  0  0  0  0  0  0  0  0  0  0  0
  -25.9291  -25.8354   17.4851 C   0  0  0  0  0  0  0  0  0  0  0  0
  -26.0269  -27.8636   18.7942 C   0  0  0  0  0  0  0  0  0  0  0  0
  -22.0932   -4.6757   24.4792 C   0  0  0  0  0  0  0  0  0  0  0  0
  -23.7504  -10.4860   20.9962 C   0  0  0  0  0  0  0  0  0  0  0  0
  -24.1318  -13.0030   20.8321 C   0  0  0  0  0  0  0  0  0  0  0  0
  -28.1796  -19.4956   24.7848 C   0  0  0  0  0  0  0  0  0  0  0  0
  -23.4097  -24.3847   23.7805 C   0  0  0  0  0  0  0  0  0  0  0  0
  -27.2182  -20.4714   24.4519 C   0  0  0  0  0  0  0  0  0  0  0  0
  -22.4891  -24.1913   22.7407 C   0  0  0  0  0  0  0  0  0  0  0  0
  -25.2833  -26.9025   18.1094 C   0  0  0  0  0  0  0  0  0  0  0  0
  -28.0623  -26.6903   18.2307 C   0  0  0  0  0  0  0  0  0  0  0  0
  -22.2223   -8.2123   21.5232 C   0  0  0  0  0  0  0  0  0  0  0  0
  -23.4737  -26.0604   21.5379 C   0  0  0  0  0  0  0  0  0  0  0  0
  -22.0637   -6.0906   22.5211 C   0  0  0  0  0  0  0  0  0  0  0  0
  -23.2477   -4.0495   24.0093 C   0  0  0  0  0  0  0  0  0  0  0  0
  -21.5012   -5.6962   23.7350 C   0  0  0  0  0  0  0  0  0  0  0  0
  -27.3186  -25.7292   17.5458 C   0  0  0  0  0  0  0  0  0  0  0  0
  -27.4164  -27.7575   18.8549 C   0  0  0  0  0  0  0  0  0  0  0  0
  -24.5402  -11.6601   20.7246 C   0  0  0  0  0  0  0  0  0  0  0  0
  -25.2390  -13.7289   20.4669 C   0  0  0  0  0  0  0  0  0  0  0  0
  -22.8648  -13.5457   21.2270 C   0  0  0  0  0  0  0  0  0  0  0  0
  -23.6002  -21.2185   23.9883 C   0  0  0  0  0  0  0  0  0  0  0  0
  -20.3857  -21.4395   24.3630 C   0  0  0  0  0  0  0  0  0  0  0  0
  -17.5246  -23.2263   23.8455 C   0  0  0  0  0  0  0  0  0  0  0  0
  -30.7353  -14.6692   20.6971 C   0  0  0  0  0  0  0  0  0  0  0  0
  -27.8419  -18.0258   24.8138 C   0  0  0  0  0  0  0  0  0  0  0  0
  -23.3687  -23.5135   25.0060 C   0  0  0  0  0  0  0  0  0  0  0  0
  -21.4551  -23.0972   22.7902 C   0  0  0  0  0  0  0  0  0  0  0  0
  -26.5908  -17.6874   24.0097 C   0  0  0  0  0  0  0  0  0  0  0  0
  -29.5876  -12.2567   18.3435 C   0  0  0  0  0  0  0  0  0  0  0  0
  -25.4574  -18.6278   24.3914 C   0  0  0  0  0  0  0  0  0  0  0  0
  -28.1413  -11.9929   18.7658 C   0  0  0  0  0  0  0  0  0  0  0  0
  -30.4949  -12.4867   19.5501 C   0  0  0  0  0  0  0  0  0  0  0  0
  -28.5895  -13.2726   20.9013 C   0  0  0  0  0  0  0  0  0  0  0  0
  -25.8105  -20.0789   24.0411 C   0  0  1  0  0  0  0  0  0  0  0  0
  -22.7135  -22.1589   24.7545 C   0  0  1  0  0  0  0  0  0  0  0  0
  -27.6257  -13.0901   19.7164 C   0  0  2  0  0  0  0  0  0  0  0  0
  -15.0466  -23.1325   24.2308 C   0  0  0  0  0  0  0  0  0  0  0  0
  -20.1071  -19.4455   22.0703 C   0  0  0  0  0  0  0  0  0  0  0  0
  -17.7016  -20.1115   21.8758 C   0  0  0  0  0  0  0  0  0  0  0  0
  -18.5380  -19.0651   23.9802 C   0  0  0  0  0  0  0  0  0  0  0  0
  -17.5755  -25.6662   25.5198 C   0  0  0  0  0  0  0  0  0  0  0  0
  -23.7975  -27.0157   18.0450 C   0  0  0  0  0  0  0  0  0  0  0  0
  -29.5568  -26.5757   18.2965 C   0  0  0  0  0  0  0  0  0  0  0  0
  -30.9395  -20.4144   20.3477 C   0  0  0  0  0  0  0  0  0  0  0  0
  -31.6014  -21.7250   20.7801 C   0  0  0  0  0  0  0  0  0  0  0  0
  -31.2626  -19.2797   21.3220 C   0  0  0  0  0  0  0  0  0  0  0  0
  -31.2450  -22.8666   19.8254 C   0  0  0  0  0  0  0  0  0  0  0  0
  -30.5674  -17.9790   20.9094 C   0  0  0  0  0  0  0  0  0  0  0  0
  -31.8260  -24.2174   20.2519 C   0  0  0  0  0  0  0  0  0  0  0  0
  -30.8203  -16.8418   21.8936 C   0  0  0  0  0  0  0  0  0  0  0  0
  -31.4923  -25.3430   19.2828 C   0  0  0  0  0  0  0  0  0  0  0  0
  -23.0929  -26.3020   19.2028 C   0  0  0  0  0  0  0  0  0  1  0  0
  -19.1984  -21.4429   23.4307 C   0  0  1  0  0  0  0  0  0  0  0  0
  -16.3866  -23.5983   24.7788 C   0  0  2  0  0  0  0  0  0  0  0  0
  -18.9069  -20.0357   22.8371 C   0  0  0  0  0  0  0  0  0  0  0  0
  -25.8079  -11.5373   20.3223 N   0  0  0  0  0  0  0  0  0  0  0  0
  -26.2056  -12.8124   20.1739 N   0  0  0  0  0  0  0  0  0  0  0  0
  -21.4593  -22.2679   24.0066 N   0  0  0  0  0  0  0  0  0  0  0  0
  -29.9504  -13.5402   20.4102 N   0  0  0  0  0  0  0  0  0  0  0  0
  -25.4704  -15.0555   20.3710 N   0  0  0  0  0  0  0  0  0  0  0  0
  -21.8356  -12.6584   21.5701 N   0  0  0  0  0  0  0  0  0  0  0  0
  -24.8092  -20.9575   24.6045 N   0  0  0  0  0  0  0  0  0  0  0  0
  -18.0885  -22.0148   24.1852 N   0  0  0  0  0  0  0  0  0  0  0  0
  -30.1411  -15.6228   21.5146 N   0  0  0  0  0  0  0  0  0  0  0  0
  -16.3306  -25.0760   24.9641 N   0  3  0  0  0  0  0  0  0  0  0  0
  -30.0199  -25.5223   19.2403 N   0  3  0  0  0  0  0  0  0  0  0  0
  -22.6466  -14.7806   21.2583 O   0  0  0  0  0  0  0  0  0  0  0  0
  -23.2154  -20.7624   22.9180 O   0  0  0  0  0  0  0  0  0  0  0  0
  -20.3586  -20.7334   25.3741 O   0  0  0  0  0  0  0  0  0  0  0  0
  -17.8755  -23.9375   22.9065 O   0  0  0  0  0  0  0  0  0  0  0  0
  -31.8786  -14.8189   20.2530 O   0  0  0  0  0  0  0  0  0  0  0  0
  -21.4767   -7.1030   21.7808 O   0  0  0  0  0  0  0  0  0  0  0  0
  -23.5052  -26.8757   20.4368 O   0  0  0  0  0  0  0  0  0  1  0  0
  -23.8155   -3.0685   24.7230 F   0  0  0  0  0  0  0  0  0  0  0  0
  -20.3915   -6.2932   24.1910 F   0  0  0  0  0  0  0  0  0  0  0  0
  -28.0774  -24.3919   16.7595 Cl  0  0  0  0  0  0  0  0  0  0  0  0
  -28.2980  -28.9687   19.7140 Cl  0  0  0  0  0  0  0  0  0  0  0  0
  1  2  1  0  0  0  0
  1  5  2  0  0  0  0
  2  6  2  0  0  0  0
  3  8  2  0  0  0  0
  3 17  1  0  0  0  0
  4  9  1  0  0  0  0
  4 17  2  0  0  0  0
  5 19  1  0  0  0  0
  6 21  1  0  0  0  0
  7 10  2  0  0  0  0
  7 20  1  0  0  0  0
  8 25  1  0  0  0  0
  9 25  2  0  0  0  0
 10 26  1  0  0  0  0
 11 12  2  0  0  0  0
 11 27  1  0  0  0  0
 12 28  1  0  0  0  0
 13 22  1  0  0  0  0
 13 26  2  0  0  0  0
 14 23  1  0  0  0  0
 14 30  2  0  0  0  0
 15 23  2  0  0  0  0
 15 31  1  0  0  0  0
 16 28  2  0  0  0  0
 16 29  1  0  0  0  0
 17 32  1  0  0  0  0
 18 32  1  0  0  0  0
 18 33  2  0  0  0  0
 18 34  1  0  0  0  0
 19 21  2  0  0  0  0
 19 39  1  0  0  0  0
 20 22  2  0  0  0  0
 20 40  1  0  0  0  0
 21 48  1  0  0  0  0
 22 41  1  0  0  0  0
 23 56  1  0  0  0  0
 24 30  1  0  0  0  0
 24 31  2  0  0  0  0
 24 57  1  0  0  0  0
 25 86  1  0  0  0  0
 26 87  1  0  0  0  0
 27 29  2  0  0  0  0
 27 86  1  0  0  0  0
 28 88  1  0  0  0  0
 29 89  1  0  0  0  0
 30 90  1  0  0  0  0
 31 91  1  0  0  0  0
 32 70  2  0  0  0  0
 33 71  1  0  0  0  0
 33 74  1  0  0  0  0
 34 75  1  0  0  0  0
 34 81  2  0  0  0  0
 35 49  1  0  0  0  0
 35 76  1  0  0  0  0
 35 82  2  0  0  0  0
 36 67  1  0  0  0  0
 36 72  1  0  0  0  0
 36 83  2  0  0  0  0
 37 68  1  0  0  0  0
 37 77  1  0  0  0  0
 37 84  2  0  0  0  0
 38 73  1  0  0  0  0
 38 78  1  0  0  0  0
 38 85  2  0  0  0  0
 39 42  1  0  0  0  0
 40 49  1  0  0  0  0
 41 72  1  0  0  0  0
 42 44  1  0  0  0  0
 43 45  1  0  0  0  0
 43 46  1  0  0  0  0
 44 48  1  0  0  0  0
 45 50  1  0  0  0  0
 46 73  1  0  0  0  0
 47 50  1  0  0  0  0
 47 73  1  0  0  0  0
 48 76  1  0  0  0  0
 49 72  1  0  0  0  0
 50 71  1  0  0  0  0
 51 68  1  0  0  0  0
 52 69  1  0  0  0  0
 53 69  1  0  0  0  0
 54 69  1  0  0  0  0
 55 79  1  0  0  0  0
 56 66  1  0  0  0  0
 57 80  1  0  0  0  0
 58 59  1  0  0  0  0
 58 60  1  0  0  0  0
 59 61  1  0  0  0  0
 60 62  1  0  0  0  0
 61 63  1  0  0  0  0
 62 64  1  0  0  0  0
 63 65  1  0  0  0  0
 64 78  1  0  0  0  0
 65 80  1  0  0  0  0
 66 87  1  0  0  0  0
 67 69  1  0  0  0  0
 67 77  1  0  0  0  0
 68 79  1  0  0  0  0
 70 71  1  0  0  0  0
M  CHG  2  79   1  80   1
M  ISO  4  38 100  66 101  78 100  87 101
M  END
> <Batch ID>
0023

> <Smiles>
CNC(C)C(=O)NC(C(=O)N1Cc2cc([101O:1][101CH2:1]Cc3cc(Cl)c(CNCCCCCCCC[100NH:0][100C:0](=O)N4CCCC(n5nc(-c6ccc(Oc7ccc(F)cc7F)cc6)c(C(N)=O)c5N)C4)c(Cl)c3)ccc2CC1C(=O)NC1CCCc2ccccc21)C(C)(C)C

> <Shape>
0.221

> <Color>
0.189

> <Negative vol penalty>
0.000

$$$$

  -OEChem-04052316193D

 91 99  0     1  0  0  0  0  0999 V2000
  -28.3760  -38.8079   23.5565 C   0  0  0  0  0  0  0  0  0  0  0  0
  -28.7665  -37.8772   24.5139 C   0  0  0  0  0  0  0  0  0  0  0  0
  -23.5155   -9.7242   21.9946 C   0  0  0  0  0  0  0  0  0  0  0  0
  -24.1985   -8.7393   19.8969 C   0  0  0  0  0  0  0  0  0  0  0  0
  -27.0631  -38.8145   23.0872 C   0  0  0  0  0  0  0  0  0  0  0  0
  -27.8440  -36.9532   25.0034 C   0  0  0  0  0  0  0  0  0  0  0  0
  -29.0035  -29.8707   24.3830 C   0  0  0  0  0  0  0  0  0  0  0  0
  -22.5924   -8.6946   22.1775 C   0  0  0  0  0  0  0  0  0  0  0  0
  -23.2755   -7.7096   20.0797 C   0  0  0  0  0  0  0  0  0  0  0  0
  -29.2522  -28.5022   24.4910 C   0  0  0  0  0  0  0  0  0  0  0  0
  -20.3093   -6.1299   23.3710 C   0  0  0  0  0  0  0  0  0  0  0  0
  -20.2385   -5.5388   24.6325 C   0  0  0  0  0  0  0  0  0  0  0  0
  -27.0786  -28.1759   25.4994 C   0  0  0  0  0  0  0  0  0  0  0  0
  -22.5551   -4.8770   24.4524 C   0  0  0  0  0  0  0  0  0  0  0  0
  -24.3186   -9.7466   20.8543 C   0  0  0  0  0  0  0  0  0  0  0  0
  -26.6137  -10.8349   21.0896 C   0  0  0  0  0  0  0  0  0  0  0  0
  -26.1266  -37.8839   23.5641 C   0  0  0  0  0  0  0  0  0  0  0  0
  -27.7837  -30.3953   24.8193 C   0  0  0  0  0  0  0  0  0  0  0  0
  -26.5170  -36.9482   24.5410 C   0  0  0  0  0  0  0  0  0  0  0  0
  -26.8189  -29.5440   25.3823 C   0  0  0  0  0  0  0  0  0  0  0  0
  -22.4724   -7.6873   21.2201 C   0  0  0  0  0  0  0  0  0  0  0  0
  -28.2922  -27.6570   25.0480 C   0  0  0  0  0  0  0  0  0  0  0  0
  -21.5030   -6.0944   22.6502 C   0  0  0  0  0  0  0  0  0  0  0  0
  -21.3614   -4.9124   25.1732 C   0  0  0  0  0  0  0  0  0  0  0  0
  -22.6259   -5.4681   23.1909 C   0  0  0  0  0  0  0  0  0  0  0  0
  -25.2719  -10.8102   20.6645 C   0  0  0  0  0  0  0  0  0  0  0  0
  -27.0846  -12.0547   20.6692 C   0  0  0  0  0  0  0  0  0  0  0  0
  -28.9703  -19.7326   17.2644 C   0  0  0  0  0  0  0  0  0  0  0  0
  -28.2368  -18.6207   17.4744 C   0  0  0  0  0  0  0  0  0  0  0  0
  -29.8765  -18.6587   19.0727 C   0  0  0  0  0  0  0  0  0  0  0  0
  -27.3672   -9.8438   21.8007 C   0  0  0  0  0  0  0  0  0  0  0  0
  -25.6188  -33.4314   25.2327 C   0  0  0  0  0  0  0  0  0  0  0  0
  -23.7866  -31.1491   24.3139 C   0  0  0  0  0  0  0  0  0  0  0  0
  -22.1925  -28.4888   22.8930 C   0  0  0  0  0  0  0  0  0  0  0  0
  -27.4100  -15.6326   16.3451 C   0  0  0  0  0  0  0  0  0  0  0  0
  -24.7066  -37.9604   23.0616 C   0  0  0  0  0  0  0  0  0  0  0  0
  -27.4972  -31.8718   24.7789 C   0  0  0  0  0  0  0  0  0  0  0  0
  -25.5349  -30.1577   25.8700 C   0  0  0  0  0  0  0  0  0  0  0  0
  -23.8877  -36.7063   23.3565 C   0  0  0  0  0  0  0  0  0  0  0  0
  -24.6553  -16.0821   18.8354 C   0  0  0  0  0  0  0  0  0  0  0  0
  -24.0852  -36.2681   24.8042 C   0  0  0  0  0  0  0  0  0  0  0  0
  -24.6513  -14.7140   19.5158 C   0  0  0  0  0  0  0  0  0  0  0  0
  -25.1383  -15.9799   17.3937 C   0  0  0  0  0  0  0  0  0  0  0  0
  -26.4876  -13.9774   17.9283 C   0  0  0  0  0  0  0  0  0  0  0  0
  -25.5518  -35.9139   25.0782 C   0  0  1  0  0  0  0  0  0  0  0  0
  -26.0201  -32.1922   24.4880 C   0  0  1  0  0  0  0  0  0  0  0  0
  -26.0261  -14.0349   19.3940 C   0  0  2  0  0  0  0  0  0  0  0  0
  -28.8231  -20.7873   16.2270 C   0  0  0  0  0  0  0  0  0  0  0  0
  -19.9402  -27.7549   22.0648 C   0  0  0  0  0  0  0  0  0  0  0  0
  -27.5221  -18.4695   13.9787 C   0  0  0  0  0  0  0  0  0  0  0  0
  -29.6382  -17.5858   15.0104 C   0  0  0  0  0  0  0  0  0  0  0  0
  -22.8571  -30.7648   27.1935 C   0  0  0  0  0  0  0  0  0  0  0  0
  -21.0927  -29.2063   26.3411 C   0  0  0  0  0  0  0  0  0  0  0  0
  -21.0921  -31.5972   25.6294 C   0  0  0  0  0  0  0  0  0  0  0  0
  -28.2455  -16.7041   19.1025 C   0  0  0  0  0  0  0  0  0  0  0  0
  -23.2049  -28.0933   20.1403 C   0  0  0  0  0  0  0  0  0  0  0  0
  -27.0546  -18.1070   16.7334 C   0  0  0  0  0  0  0  0  0  0  0  0
  -29.3613  -23.1995   20.9966 C   0  0  0  0  0  0  0  0  0  0  0  0
  -28.8574  -23.0021   22.4281 C   0  0  0  0  0  0  0  0  0  0  0  0
  -29.8763  -21.9110   20.3478 C   0  0  0  0  0  0  0  0  0  0  0  0
  -28.3850  -24.3249   23.0359 C   0  0  0  0  0  0  0  0  0  0  0  0
  -30.4090  -22.1173   18.9259 C   0  0  0  0  0  0  0  0  0  0  0  0
  -27.8505  -24.1263   24.4527 C   0  0  0  0  0  0  0  0  0  0  0  0
  -30.9693  -20.8321   18.3223 C   0  0  0  0  0  0  0  0  0  0  0  0
  -27.4180  -25.4443   25.0795 C   0  0  0  0  0  0  0  0  0  1  0  0
  -22.8567  -30.0330   24.7175 C   0  0  1  0  0  0  0  0  0  0  0  0
  -21.2700  -28.3914   21.6914 C   0  0  2  0  0  0  0  0  0  0  0  0
  -28.1774  -17.2939   14.6926 C   0  0  0  0  0  0  0  0  0  0  0  0
  -22.0021  -30.3955   25.9648 C   0  0  0  0  0  0  0  0  0  0  0  0
  -24.9134  -11.9257   20.0234 N   0  0  0  0  0  0  0  0  0  0  0  0
  -26.0369  -12.6629   20.0426 N   0  0  0  0  0  0  0  0  0  0  0  0
  -28.7578  -17.9421   18.5659 N   0  0  0  0  0  0  0  0  0  0  0  0
  -29.9809  -19.7939   18.2172 N   0  0  0  0  0  0  0  0  0  0  0  0
  -25.0570  -31.1579   24.9026 N   0  0  0  0  0  0  0  0  0  0  0  0
  -26.4381  -15.3014   17.3037 N   0  0  0  0  0  0  0  0  0  0  0  0
  -28.2885  -12.6557   20.7781 N   0  0  0  0  0  0  0  0  0  0  0  0
  -26.7295   -8.6473   22.1558 N   0  0  0  0  0  0  0  0  0  0  0  0
  -25.8637  -34.6050   24.5454 N   0  0  0  0  0  0  0  0  0  0  0  0
  -22.0733  -29.7053   23.5312 N   0  0  0  0  0  0  0  0  0  0  0  0
  -27.4503  -16.9661   15.9107 N   0  0  0  0  0  0  0  0  0  0  0  0
  -21.9001  -27.5694   20.6199 N   0  3  0  0  0  0  0  0  0  0  0  0
  -30.5872  -18.3696   20.0241 O   0  0  0  0  0  0  0  0  0  0  0  0
  -28.5655  -10.0210   22.1265 O   0  0  0  0  0  0  0  0  0  0  0  0
  -25.1220  -33.3316   26.3485 O   0  0  0  0  0  0  0  0  0  0  0  0
  -23.3979  -31.9947   23.5033 O   0  0  0  0  0  0  0  0  0  0  0  0
  -22.9411  -27.5756   23.2338 O   0  0  0  0  0  0  0  0  0  0  0  0
  -28.2029  -14.7873   15.9107 O   0  0  0  0  0  0  0  0  0  0  0  0
  -21.5719   -6.6824   21.3983 O   0  0  0  0  0  0  0  0  0  0  0  0
  -28.5415  -26.3116   25.1470 O   0  0  0  0  0  0  0  0  0  1  0  0
  -21.2937   -4.3463   26.3852 F   0  0  0  0  0  0  0  0  0  0  0  0
  -23.7758   -5.4319   22.5037 F   0  0  0  0  0  0  0  0  0  0  0  0
  1  2  1  0  0  0  0
  1  5  2  0  0  0  0
  2  6  2  0  0  0  0
  3  8  2  0  0  0  0
  3 15  1  0  0  0  0
  4  9  1  0  0  0  0
  4 15  2  0  0  0  0
  5 17  1  0  0  0  0
  6 19  1  0  0  0  0
  7 10  2  0  0  0  0
  7 18  1  0  0  0  0
  8 21  1  0  0  0  0
  9 21  2  0  0  0  0
 10 22  1  0  0  0  0
 11 12  2  0  0  0  0
 11 23  1  0  0  0  0
 12 24  1  0  0  0  0
 13 20  1  0  0  0  0
 13 22  2  0  0  0  0
 14 24  2  0  0  0  0
 14 25  1  0  0  0  0
 15 26  1  0  0  0  0
 16 26  1  0  0  0  0
 16 27  2  0  0  0  0
 16 31  1  0  0  0  0
 17 19  2  0  0  0  0
 17 36  1  0  0  0  0
 18 20  2  0  0  0  0
 18 37  1  0  0  0  0
 19 45  1  0  0  0  0
 20 38  1  0  0  0  0
 21 88  1  0  0  0  0
 22 89  1  0  0  0  0
 23 25  2  0  0  0  0
 23 88  1  0  0  0  0
 24 90  1  0  0  0  0
 25 91  1  0  0  0  0
 26 70  2  0  0  0  0
 27 71  1  0  0  0  0
 27 76  1  0  0  0  0
 28 29  2  0  0  0  0
 28 48  1  0  0  0  0
 28 73  1  0  0  0  0
 29 57  1  0  0  0  0
 29 72  1  0  0  0  0
 30 72  1  0  0  0  0
 30 73  1  0  0  0  0
 30 82  2  0  0  0  0
 31 77  1  0  0  0  0
 31 83  2  0  0  0  0
 32 46  1  0  0  0  0
 32 78  1  0  0  0  0
 32 84  2  0  0  0  0
 33 66  1  0  0  0  0
 33 74  1  0  0  0  0
 33 85  2  0  0  0  0
 34 67  1  0  0  0  0
 34 79  1  0  0  0  0
 34 86  2  0  0  0  0
 35 75  1  0  0  0  0
 35 80  1  0  0  0  0
 35 87  2  0  0  0  0
 36 39  1  0  0  0  0
 37 46  1  0  0  0  0
 38 74  1  0  0  0  0
 39 41  1  0  0  0  0
 40 42  1  0  0  0  0
 40 43  1  0  0  0  0
 41 45  1  0  0  0  0
 42 47  1  0  0  0  0
 43 75  1  0  0  0  0
 44 47  1  0  0  0  0
 44 75  1  0  0  0  0
 45 78  1  0  0  0  0
 46 74  1  0  0  0  0
 47 71  1  0  0  0  0
 49 67  1  0  0  0  0
 50 68  1  0  0  0  0
 51 68  1  0  0  0  0
 52 69  1  0  0  0  0
 53 69  1  0  0  0  0
 54 69  1  0  0  0  0
 55 72  1  0  0  0  0
 56 81  1  0  0  0  0
 57 80  1  0  0  0  0
 58 59  1  0  0  0  0
 58 60  1  0  0  0  0
 59 61  1  0  0  0  0
 60 62  1  0  0  0  0
 61 63  1  0  0  0  0
 62 64  1  0  0  0  0
 63 65  1  0  0  0  0
 64 73  1  0  0  0  0
 65 89  1  0  0  0  0
 66 69  1  0  0  0  0
 66 79  1  0  0  0  0
 67 81  1  0  0  0  0
 68 80  1  0  0  0  0
 70 71  1  0  0  0  0
M  CHG  1  81   1
M  ISO  4  35 100  65 101  80 100  89 101
M  END
> <Batch ID>
0023

> <Smiles>
CNC(C)C(=O)NC(C(=O)N1Cc2cc([101O:1][101CH2:1]CCCCCCCn3c(C)c(C[100N:0](C(C)C)[100C:0](=O)N4CCCC(n5nc(-c6ccc(Oc7ccc(F)cc7F)cc6)c(C(N)=O)c5N)C4)n(C)c3=O)ccc2CC1C(=O)NC1CCCc2ccccc21)C(C)(C)C

> <Shape>
0.288

> <Color>
0.099

> <Negative vol penalty>
0.000

$$$$

  -OEChem-04052316193D

 91100  0     1  0  0  0  0  0999 V2000
  -20.9681  -29.6319   14.7482 C   0  0  0  0  0  0  0  0  0  0  0  0
  -22.2395  -29.3474   15.2360 C   0  0  0  0  0  0  0  0  0  0  0  0
  -22.9799   -9.5592   21.0921 C   0  0  0  0  0  0  0  0  0  0  0  0
  -23.9913  -10.6144   23.0159 C   0  0  0  0  0  0  0  0  0  0  0  0
  -20.2606  -30.7257   15.2453 C   0  0  0  0  0  0  0  0  0  0  0  0
  -22.8047  -30.1573   16.2204 C   0  0  0  0  0  0  0  0  0  0  0  0
  -25.0001  -27.4788   19.9151 C   0  0  0  0  0  0  0  0  0  0  0  0
  -22.2383   -8.7321   21.9356 C   0  0  0  0  0  0  0  0  0  0  0  0
  -23.2496   -9.7873   23.8594 C   0  0  0  0  0  0  0  0  0  0  0  0
  -26.2571  -26.9377   19.6487 C   0  0  0  0  0  0  0  0  0  0  0  0
  -20.3459   -6.0970   23.5783 C   0  0  0  0  0  0  0  0  0  0  0  0
  -20.2765   -4.7403   23.2621 C   0  0  0  0  0  0  0  0  0  0  0  0
  -27.2880  -28.7532   20.8573 C   0  0  0  0  0  0  0  0  0  0  0  0
  -22.6799   -4.5747   23.4454 C   0  0  0  0  0  0  0  0  0  0  0  0
  -23.8565  -10.5003   21.6322 C   0  0  0  0  0  0  0  0  0  0  0  0
  -24.1257  -12.2711   19.8158 C   0  0  0  0  0  0  0  0  0  0  0  0
  -20.8135  -31.5437   16.2432 C   0  0  0  0  0  0  0  0  0  0  0  0
  -24.8780  -28.6690   20.6466 C   0  0  0  0  0  0  0  0  0  0  0  0
  -22.1045  -31.2638   16.7304 C   0  0  0  0  0  0  0  0  0  0  0  0
  -26.0282  -29.3059   21.1338 C   0  0  0  0  0  0  0  0  0  0  0  0
  -28.7408  -18.3818   18.7382 C   0  0  0  0  0  0  0  0  0  0  0  0
  -22.3731   -8.8462   23.3193 C   0  0  0  0  0  0  0  0  0  0  0  0
  -27.4015  -27.5765   20.1173 C   0  0  0  0  0  0  0  0  0  0  0  0
  -21.5822   -6.6926   23.8281 C   0  0  0  0  0  0  0  0  0  0  0  0
  -21.4435   -3.9791   23.1956 C   0  0  0  0  0  0  0  0  0  0  0  0
  -22.7492   -5.9315   23.7616 C   0  0  0  0  0  0  0  0  0  0  0  0
  -24.6233  -11.3545   20.7614 C   0  0  0  0  0  0  0  0  0  0  0  0
  -29.4585  -19.4454   18.2482 C   0  0  0  0  0  0  0  0  0  0  0  0
  -29.7041  -17.3796   18.9602 C   0  0  0  0  0  0  0  0  0  0  0  0
  -25.2484  -12.8279   19.2536 C   0  0  0  0  0  0  0  0  0  0  0  0
  -22.7700  -12.5907   19.4762 C   0  0  0  0  0  0  0  0  0  0  0  0
  -23.7227  -31.5671   20.0383 C   0  0  0  0  0  0  0  0  0  0  0  0
  -24.3214  -32.0416   23.1909 C   0  0  0  0  0  0  0  0  0  0  0  0
  -26.9472  -31.2208   25.5253 C   0  0  0  0  0  0  0  0  0  0  0  0
  -30.3302  -15.0573   19.7095 C   0  0  0  0  0  0  0  0  0  0  0  0
  -20.0300  -32.7426   16.7157 C   0  0  0  0  0  0  0  0  0  0  0  0
  -23.5135  -29.2253   20.9483 C   0  0  0  0  0  0  0  0  0  0  0  0
  -25.9502  -30.5750   21.9411 C   0  0  0  0  0  0  0  0  0  0  0  0
  -20.5476  -33.3307   18.0259 C   0  0  0  0  0  0  0  0  0  0  0  0
  -30.1200  -11.5041   19.6235 C   0  0  0  0  0  0  0  0  0  0  0  0
  -22.0660  -33.4704   17.9854 C   0  0  0  0  0  0  0  0  0  0  0  0
  -28.6303  -11.2238   19.8341 C   0  0  0  0  0  0  0  0  0  0  0  0
  -27.4760  -22.7233   18.4510 C   0  0  0  0  0  0  0  0  0  0  0  0
  -30.5943  -12.6994   20.4481 C   0  0  0  0  0  0  0  0  0  0  0  0
  -28.3209  -13.6478   20.4786 C   0  0  0  0  0  0  0  0  0  0  0  0
  -28.2263  -23.8949   17.8327 C   0  0  0  0  0  0  0  0  0  0  0  0
  -30.2017  -23.4113   19.3099 C   0  0  0  0  0  0  0  0  0  0  0  0
  -22.7414  -32.1042   17.8158 C   0  0  1  0  0  0  0  0  0  0  0  0
  -23.5330  -30.7179   21.2633 C   0  0  1  0  0  0  0  0  0  0  0  0
  -28.4098  -21.6199   18.9733 C   0  0  2  0  0  0  0  0  0  0  0  0
  -29.4531  -22.2313   19.9372 C   0  0  1  0  0  0  0  0  0  0  0  0
  -27.7822  -12.4927   19.6188 C   0  0  2  0  0  0  0  0  0  0  0  0
  -27.2872  -18.3166   18.9737 C   0  0  0  0  0  0  0  0  0  0  0  0
  -30.4487  -21.1988   20.4686 C   0  0  0  0  0  0  0  0  0  0  0  0
  -28.0584  -20.7722   16.6253 C   0  0  0  0  0  0  0  0  0  0  0  0
  -26.8749  -30.8899   28.0118 C   0  0  0  0  0  0  0  0  0  0  0  0
  -30.2672  -25.4177   16.8548 C   0  0  0  0  0  0  0  0  0  0  0  0
  -29.6335  -28.2048   18.0014 C   0  0  0  0  0  0  0  0  0  0  0  0
  -25.0970  -34.9900   23.3146 C   0  0  0  0  0  0  0  0  0  0  0  0
  -26.5722  -34.4484   25.2635 C   0  0  0  0  0  0  0  0  0  0  0  0
  -24.1101  -34.0814   25.4253 C   0  0  0  0  0  0  0  0  0  0  0  0
  -31.8985  -19.7970   17.7618 C   0  0  0  0  0  0  0  0  0  0  0  0
  -28.1556  -28.5272   25.3185 C   0  0  0  0  0  0  0  0  0  0  0  0
  -29.0238  -20.8305   17.8105 C   0  0  2  0  0  0  0  0  0  0  0  0
  -25.5027  -32.5321   23.9927 C   0  0  1  0  0  0  0  0  0  0  0  0
  -26.8764  -30.2070   26.6529 C   0  0  2  0  0  0  0  0  0  0  0  0
  -29.9006  -25.6763   18.3122 C   0  0  1  0  0  0  0  0  0  0  0  0
  -28.9982  -26.9066   18.4871 C   0  0  1  0  0  0  0  0  0  1  0  0
  -25.3239  -33.9996   24.4741 C   0  0  0  0  0  0  0  0  0  0  0  0
  -25.9581  -11.3274   20.8004 N   0  0  0  0  0  0  0  0  0  0  0  0
  -30.9396  -17.7714   18.6376 N   0  0  0  0  0  0  0  0  0  0  0  0
  -30.7574  -19.0317   18.2078 N   0  0  0  0  0  0  0  0  0  0  0  0
  -26.3089  -12.2338   19.8723 N   0  0  0  0  0  0  0  0  0  0  0  0
  -24.5937  -31.0831   22.2044 N   0  0  0  0  0  0  0  0  0  0  0  0
  -29.7470  -13.8655   20.1894 N   0  0  0  0  0  0  0  0  0  0  0  0
  -25.4221  -13.7627   18.2953 N   0  0  0  0  0  0  0  0  0  0  0  0
  -22.1309  -13.6224   20.1774 N   0  0  0  0  0  0  0  0  0  0  0  0
  -29.4218  -16.0877   19.4693 N   0  0  0  0  0  0  0  0  0  0  0  0
  -22.7514  -31.3860   19.0722 N   0  0  0  0  0  0  0  0  0  0  0  0
  -25.6923  -31.5683   25.0714 N   0  0  0  0  0  0  0  0  0  0  0  0
  -29.2097  -24.4462   18.8344 N   0  3  1  0  0  0  0  0  0  0  0  0
  -28.0441  -29.2829   26.5926 N   0  3  0  0  0  0  0  0  0  0  0  0
  -22.1384  -11.9687   18.5887 O   0  0  0  0  0  0  0  0  0  0  0  0
  -24.6787  -32.3312   19.9749 O   0  0  0  0  0  0  0  0  0  0  0  0
  -23.1975  -32.4870   23.4357 O   0  0  0  0  0  0  0  0  0  0  0  0
  -28.0092  -31.6633   25.0930 O   0  0  0  0  0  0  0  0  0  0  0  0
  -31.5425  -15.1478   19.4995 O   0  0  0  0  0  0  0  0  0  0  0  0
  -21.6493   -8.0395   24.1427 O   0  0  0  0  0  0  0  0  0  0  0  0
  -28.6296  -27.0509   19.8581 O   0  0  0  0  0  0  0  0  0  1  0  0
  -21.3766   -2.6759   22.8934 F   0  0  0  0  0  0  0  0  0  0  0  0
  -23.9397   -6.4978   24.0017 F   0  0  0  0  0  0  0  0  0  0  0  0
  1  2  1  0  0  0  0
  1  5  2  0  0  0  0
  2  6  2  0  0  0  0
  3  8  2  0  0  0  0
  3 15  1  0  0  0  0
  4  9  1  0  0  0  0
  4 15  2  0  0  0  0
  5 17  1  0  0  0  0
  6 19  1  0  0  0  0
  7 10  2  0  0  0  0
  7 18  1  0  0  0  0
  8 22  1  0  0  0  0
  9 22  2  0  0  0  0
 10 23  1  0  0  0  0
 11 12  2  0  0  0  0
 11 24  1  0  0  0  0
 12 25  1  0  0  0  0
 13 20  1  0  0  0  0
 13 23  2  0  0  0  0
 14 25  2  0  0  0  0
 14 26  1  0  0  0  0
 15 27  1  0  0  0  0
 16 27  1  0  0  0  0
 16 30  2  0  0  0  0
 16 31  1  0  0  0  0
 17 19  2  0  0  0  0
 17 36  1  0  0  0  0
 18 20  2  0  0  0  0
 18 37  1  0  0  0  0
 19 48  1  0  0  0  0
 20 38  1  0  0  0  0
 21 28  2  0  0  0  0
 21 29  1  0  0  0  0
 21 53  1  0  0  0  0
 22 88  1  0  0  0  0
 23 89  1  0  0  0  0
 24 26  2  0  0  0  0
 24 88  1  0  0  0  0
 25 90  1  0  0  0  0
 26 91  1  0  0  0  0
 27 70  2  0  0  0  0
 28 64  1  0  0  0  0
 28 72  1  0  0  0  0
 29 71  2  0  0  0  0
 29 78  1  0  0  0  0
 30 73  1  0  0  0  0
 30 76  1  0  0  0  0
 31 77  1  0  0  0  0
 31 83  2  0  0  0  0
 32 49  1  0  0  0  0
 32 79  1  0  0  0  0
 32 84  2  0  0  0  0
 33 65  1  0  0  0  0
 33 74  1  0  0  0  0
 33 85  2  0  0  0  0
 34 66  1  0  0  0  0
 34 80  1  0  0  0  0
 34 86  2  0  0  0  0
 35 75  1  0  0  0  0
 35 78  1  0  0  0  0
 35 87  2  0  0  0  0
 36 39  1  0  0  0  0
 37 49  1  0  0  0  0
 38 74  1  0  0  0  0
 39 41  1  0  0  0  0
 40 42  1  0  0  0  0
 40 44  1  0  0  0  0
 41 48  1  0  0  0  0
 42 52  1  0  0  0  0
 43 46  1  0  0  0  0
 43 50  1  0  0  0  0
 44 75  1  0  0  0  0
 45 52  1  0  0  0  0
 45 75  1  0  0  0  0
 46 81  1  0  0  0  0
 47 51  1  0  0  0  0
 47 81  1  0  0  0  0
 48 79  1  0  0  0  0
 49 74  1  0  0  0  0
 50 51  1  0  0  0  0
 50 64  1  0  0  0  0
 51 54  1  0  0  0  0
 52 73  1  0  0  0  0
 55 64  1  0  0  0  0
 56 66  1  0  0  0  0
 57 67  1  0  0  0  0
 58 68  1  0  0  0  0
 59 69  1  0  0  0  0
 60 69  1  0  0  0  0
 61 69  1  0  0  0  0
 62 72  1  0  0  0  0
 63 82  1  0  0  0  0
 65 69  1  0  0  0  0
 65 80  1  0  0  0  0
 66 82  1  0  0  0  0
 67 68  1  0  0  0  0
 67 81  1  0  0  0  0
 68 89  1  0  0  0  0
 70 73  1  0  0  0  0
 71 72  1  0  0  0  0
M  CHG  2  81   1  82   1
M  ISO  4  35 100  68 101  78 100  89 101
M  END
> <Batch ID>
0023

> <Smiles>
CNC(C)C(=O)NC(C(=O)N1Cc2cc([101O:1][101CH:1](C)C(C)N3CCC(C(C)c4c(C)c([100NH:0][100C:0](=O)N5CCCC(n6nc(-c7ccc(Oc8ccc(F)cc8F)cc7)c(C(N)=O)c6N)C5)nn4C)C(C)C3)ccc2CC1C(=O)NC1CCCc2ccccc21)C(C)(C)C

> <Shape>
0.348

> <Color>
0.139

> <Negative vol penalty>
0.000

$$$$

  -OEChem-04052316193D

 94103  0     1  0  0  0  0  0999 V2000
  -19.4268  -24.0508   22.1781 C   0  0  0  0  0  0  0  0  0  0  0  0
  -20.6255  -24.3883   21.5580 C   0  0  0  0  0  0  0  0  0  0  0  0
  -28.3280  -15.8043   21.5445 C   0  0  0  0  0  0  0  0  0  0  0  0
  -27.5742  -15.8470   19.2495 C   0  0  0  0  0  0  0  0  0  0  0  0
  -18.5713  -25.0539   22.6318 C   0  0  0  0  0  0  0  0  0  0  0  0
  -20.9689  -25.7293   21.3901 C   0  0  0  0  0  0  0  0  0  0  0  0
  -25.7977  -26.6637   22.5964 C   0  0  0  0  0  0  0  0  0  0  0  0
  -28.9155  -14.5578   21.3283 C   0  0  0  0  0  0  0  0  0  0  0  0
  -28.1617  -14.6005   19.0333 C   0  0  0  0  0  0  0  0  0  0  0  0
  -26.7682  -26.3057   21.6617 C   0  0  0  0  0  0  0  0  0  0  0  0
  -29.1524  -11.2678   17.9745 C   0  0  0  0  0  0  0  0  0  0  0  0
  -28.4101  -10.3129   17.2798 C   0  0  0  0  0  0  0  0  0  0  0  0
  -27.6717  -22.2637   16.4272 C   0  0  0  0  0  0  0  0  0  0  0  0
  -26.8951  -28.5989   20.9240 C   0  0  0  0  0  0  0  0  0  0  0  0
  -26.6984  -10.4049   18.9824 C   0  0  0  0  0  0  0  0  0  0  0  0
  -27.6573  -16.4489   20.5051 C   0  0  0  0  0  0  0  0  0  0  0  0
  -27.6468  -18.9994   20.5551 C   0  0  0  0  0  0  0  0  0  0  0  0
  -18.9089  -26.4078   22.4781 C   0  0  0  0  0  0  0  0  0  0  0  0
  -25.3599  -27.9923   22.6946 C   0  0  0  0  0  0  0  0  0  0  0  0
  -20.1165  -26.7515   21.8410 C   0  0  0  0  0  0  0  0  0  0  0  0
  -26.8016  -21.2037   16.1724 C   0  0  0  0  0  0  0  0  0  0  0  0
  -25.9208  -28.9717   21.8625 C   0  0  0  0  0  0  0  0  0  0  0  0
  -27.3737  -23.5405   15.9512 C   0  0  0  0  0  0  0  0  0  0  0  0
  -26.2056  -23.7573   15.2203 C   0  0  0  0  0  0  0  0  0  0  0  0
  -25.3355  -22.6973   14.9654 C   0  0  0  0  0  0  0  0  0  0  0  0
  -28.8323  -13.9559   20.0728 C   0  0  0  0  0  0  0  0  0  0  0  0
  -27.3150  -27.2728   20.8233 C   0  0  0  0  0  0  0  0  0  0  0  0
  -28.6678  -11.7912   19.1732 C   0  0  0  0  0  0  0  0  0  0  0  0
  -27.1830   -9.8814   17.7837 C   0  0  0  0  0  0  0  0  0  0  0  0
  -27.4408  -11.3597   19.6771 C   0  0  0  0  0  0  0  0  0  0  0  0
  -25.6335  -21.4205   15.4414 C   0  0  0  0  0  0  0  0  0  0  0  0
  -27.0498  -17.7363   20.7279 C   0  0  0  0  0  0  0  0  0  0  0  0
  -26.6616  -19.8942   20.8945 C   0  0  0  0  0  0  0  0  0  0  0  0
  -28.9734  -19.3340   20.1261 C   0  0  0  0  0  0  0  0  0  0  0  0
  -22.5754  -29.4721   22.2943 C   0  0  0  0  0  0  0  0  0  0  0  0
  -24.2255  -32.0401   23.3920 C   0  0  0  0  0  0  0  0  0  0  0  0
  -27.2427  -33.5727   23.8325 C   0  0  0  0  0  0  0  0  0  0  0  0
  -20.6830  -19.5665   20.9045 C   0  0  0  0  0  0  0  0  0  0  0  0
  -17.9302  -27.4572   22.9423 C   0  0  0  0  0  0  0  0  0  0  0  0
  -24.3316  -28.3672   23.7263 C   0  0  0  0  0  0  0  0  0  0  0  0
  -25.4998  -30.4156   21.9420 C   0  0  0  0  0  0  0  0  0  0  0  0
  -18.5423  -28.8505   23.0619 C   0  0  0  0  0  0  0  0  0  0  0  0
  -22.7901  -20.3255   23.6723 C   0  0  0  0  0  0  0  0  0  0  0  0
  -28.4462  -19.2168   16.3196 C   0  0  0  0  0  0  0  0  0  0  0  0
  -27.1842  -18.6898   15.7114 C   0  0  0  0  0  0  0  0  0  0  0  0
  -19.3701  -29.1781   21.8233 C   0  0  0  0  0  0  0  0  0  0  0  0
  -24.1746  -19.8619   23.2160 C   0  0  0  0  0  0  0  0  0  0  0  0
  -21.6883  -19.3992   23.1623 C   0  0  0  0  0  0  0  0  0  0  0  0
  -23.0795  -18.7091   21.2486 C   0  0  0  0  0  0  0  0  0  0  0  0
  -27.1235  -19.8407   16.6820 C   0  0  0  0  0  0  0  0  0  0  0  0
  -20.5357  -28.1947   21.6628 C   0  0  1  0  0  0  0  0  0  0  0  0
  -23.5885  -29.6560   23.3885 C   0  0  1  0  0  0  0  0  0  0  0  0
  -24.2185  -19.6433   21.6916 C   0  0  2  0  0  0  0  0  0  0  0  0
  -26.1712  -25.2694   13.2205 C   0  0  0  0  0  0  0  0  0  0  0  0
  -28.2693  -35.6817   24.7246 C   0  0  0  0  0  0  0  0  0  0  0  0
  -23.3038  -33.5401   20.8999 C   0  0  0  0  0  0  0  0  0  0  0  0
  -25.0807  -35.2445   21.3537 C   0  0  0  0  0  0  0  0  0  0  0  0
  -23.2480  -34.8853   23.0075 C   0  0  0  0  0  0  0  0  0  0  0  0
  -28.8094  -32.0903   25.8590 C   0  0  0  0  0  0  0  0  0  0  0  0
  -28.3305  -24.6694   16.2409 C   0  0  0  0  0  0  0  0  0  0  0  0
  -25.8847  -25.1269   14.7114 C   0  0  0  0  0  0  0  0  0  0  0  0
  -24.0789  -22.9065   14.1851 C   0  0  0  0  0  0  0  0  0  0  0  0
  -27.8542  -25.6160   17.3483 C   0  0  0  0  0  0  0  0  0  0  0  0
  -22.7982  -22.4740   14.9215 C   0  0  0  0  0  0  0  0  0  0  0  0
  -22.5480  -23.2835   16.1987 C   0  0  0  0  0  0  0  0  0  0  0  0
  -21.2437  -22.9075   16.9089 C   0  0  0  0  0  0  0  0  0  0  0  0
  -21.2192  -21.4603   17.4073 C   0  0  0  0  0  0  0  0  0  0  0  0
  -19.8838  -21.1308   18.0828 C   0  0  0  0  0  0  0  0  0  0  0  0
  -28.7998  -26.7966   17.5744 C   0  0  0  0  0  0  0  0  0  0  0  0
  -19.8207  -19.6902   18.5807 C   0  0  0  0  0  0  0  0  0  0  0  0
  -28.3153  -27.6918   18.7068 C   0  0  0  0  0  0  0  0  0  1  0  0
  -25.0517  -33.1316   22.7557 C   0  0  1  0  0  0  0  0  0  0  0  0
  -27.8607  -34.2515   25.0415 C   0  0  2  0  0  0  0  0  0  0  0  0
  -24.1778  -34.1729   22.0011 C   0  0  0  0  0  0  0  0  0  0  0  0
  -25.7834  -17.8172   21.1448 N   0  0  0  0  0  0  0  0  0  0  0  0
  -25.5767  -19.1419   21.2369 N   0  0  0  0  0  0  0  0  0  0  0  0
  -24.4867  -30.7312   22.9625 N   0  0  0  0  0  0  0  0  0  0  0  0
  -21.7851  -19.2350   21.7099 N   0  0  0  0  0  0  0  0  0  0  0  0
  -26.6262  -21.2432   20.9305 N   0  0  0  0  0  0  0  0  0  0  0  0
  -29.8583  -18.2920   19.8168 N   0  0  0  0  0  0  0  0  0  0  0  0
  -21.6072  -28.5275   22.5769 N   0  0  0  0  0  0  0  0  0  0  0  0
  -25.8697  -33.6988   23.8223 N   0  0  0  0  0  0  0  0  0  0  0  0
  -20.8610  -19.3872   19.5381 N   0  0  0  0  0  0  0  0  0  0  0  0
  -29.0700  -33.5061   25.4922 N   0  3  0  0  0  0  0  0  0  0  0  0
  -29.3676  -20.5214   20.0359 O   0  0  0  0  0  0  0  0  0  0  0  0
  -22.6645  -30.1389   21.2700 O   0  0  0  0  0  0  0  0  0  0  0  0
  -23.3844  -32.3371   24.2440 O   0  0  0  0  0  0  0  0  0  0  0  0
  -27.9114  -32.9922   22.9802 O   0  0  0  0  0  0  0  0  0  0  0  0
  -19.6212  -19.9957   21.3683 O   0  0  0  0  0  0  0  0  0  0  0  0
  -29.4057  -12.7397   19.8614 O   0  0  0  0  0  0  0  0  0  0  0  0
  -28.2619  -26.9259   19.9097 O   0  0  0  0  0  0  0  0  0  1  0  0
  -26.4695   -8.9656   17.1156 F   0  0  0  0  0  0  0  0  0  0  0  0
  -26.9695  -11.8598   20.8276 F   0  0  0  0  0  0  0  0  0  0  0  0
  -24.7964  -20.4014   15.1959 F   0  0  0  0  0  0  0  0  0  0  0  0
  1  2  1  0  0  0  0
  1  5  2  0  0  0  0
  2  6  2  0  0  0  0
  3  8  2  0  0  0  0
  3 16  1  0  0  0  0
  4  9  1  0  0  0  0
  4 16  2  0  0  0  0
  5 18  1  0  0  0  0
  6 20  1  0  0  0  0
  7 10  2  0  0  0  0
  7 19  1  0  0  0  0
  8 26  1  0  0  0  0
  9 26  2  0  0  0  0
 10 27  1  0  0  0  0
 11 12  2  0  0  0  0
 11 28  1  0  0  0  0
 12 29  1  0  0  0  0
 13 21  1  0  0  0  0
 13 23  2  0  0  0  0
 14 22  1  0  0  0  0
 14 27  2  0  0  0  0
 15 29  2  0  0  0  0
 15 30  1  0  0  0  0
 16 32  1  0  0  0  0
 17 32  1  0  0  0  0
 17 33  2  0  0  0  0
 17 34  1  0  0  0  0
 18 20  2  0  0  0  0
 18 39  1  0  0  0  0
 19 22  2  0  0  0  0
 19 40  1  0  0  0  0
 20 51  1  0  0  0  0
 21 31  2  0  0  0  0
 21 50  1  0  0  0  0
 22 41  1  0  0  0  0
 23 24  1  0  0  0  0
 23 60  1  0  0  0  0
 24 25  2  0  0  0  0
 24 61  1  0  0  0  0
 25 31  1  0  0  0  0
 25 62  1  0  0  0  0
 26 90  1  0  0  0  0
 27 91  1  0  0  0  0
 28 30  2  0  0  0  0
 28 90  1  0  0  0  0
 29 92  1  0  0  0  0
 30 93  1  0  0  0  0
 31 94  1  0  0  0  0
 32 75  2  0  0  0  0
 33 76  1  0  0  0  0
 33 79  1  0  0  0  0
 34 80  1  0  0  0  0
 34 85  2  0  0  0  0
 35 52  1  0  0  0  0
 35 81  1  0  0  0  0
 35 86  2  0  0  0  0
 36 72  1  0  0  0  0
 36 77  1  0  0  0  0
 36 87  2  0  0  0  0
 37 73  1  0  0  0  0
 37 82  1  0  0  0  0
 37 88  2  0  0  0  0
 38 78  1  0  0  0  0
 38 83  1  0  0  0  0
 38 89  2  0  0  0  0
 39 42  1  0  0  0  0
 40 52  1  0  0  0  0
 41 77  1  0  0  0  0
 42 46  1  0  0  0  0
 43 47  1  0  0  0  0
 43 48  1  0  0  0  0
 44 45  1  0  0  0  0
 44 50  1  0  0  0  0
 45 50  1  0  0  0  0
 46 51  1  0  0  0  0
 47 53  1  0  0  0  0
 48 78  1  0  0  0  0
 49 53  1  0  0  0  0
 49 78  1  0  0  0  0
 51 81  1  0  0  0  0
 52 77  1  0  0  0  0
 53 76  1  0  0  0  0
 54 61  1  0  0  0  0
 55 73  1  0  0  0  0
 56 74  1  0  0  0  0
 57 74  1  0  0  0  0
 58 74  1  0  0  0  0
 59 84  1  0  0  0  0
 60 63  1  0  0  0  0
 62 64  1  0  0  0  0
 63 69  1  0  0  0  0
 64 65  1  0  0  0  0
 65 66  1  0  0  0  0
 66 67  1  0  0  0  0
 67 68  1  0  0  0  0
 68 70  1  0  0  0  0
 69 71  1  0  0  0  0
 70 83  1  0  0  0  0
 71 91  1  0  0  0  0
 72 74  1  0  0  0  0
 72 82  1  0  0  0  0
 73 84  1  0  0  0  0
 75 76  1  0  0  0  0
M  CHG  1  84   1
M  ISO  4  38 100  71 101  83 100  91 101
M  END
> <Batch ID>
0023

> <Smiles>
CCc1c(CCC[101CH2:1][101O:1]c2ccc3c(c2)CN(C(=O)C(NC(=O)C(C)NC)C(C)(C)C)C(C(=O)NC2CCCc4ccccc42)C3)cc(C2CC2)c(F)c1CCCCCCC[100NH:0][100C:0](=O)N1CCCC(n2nc(-c3ccc(Oc4ccc(F)cc4F)cc3)c(C(N)=O)c2N)C1

> <Shape>
0.220

> <Color>
0.094

> <Negative vol penalty>
0.000

$$$$

  -OEChem-04052316193D

 88 96  0     1  0  0  0  0  0999 V2000
  -18.7941  -24.5009   20.8026 C   0  0  0  0  0  0  0  0  0  0  0  0
  -20.1349  -24.6673   20.4711 C   0  0  0  0  0  0  0  0  0  0  0  0
  -25.2412  -13.3158   21.5070 C   0  0  0  0  0  0  0  0  0  0  0  0
  -25.7694  -13.3265   19.1494 C   0  0  0  0  0  0  0  0  0  0  0  0
  -18.1681  -25.4144   21.6497 C   0  0  0  0  0  0  0  0  0  0  0  0
  -20.8503  -25.7480   20.9857 C   0  0  0  0  0  0  0  0  0  0  0  0
  -25.4303  -24.4136   22.6851 C   0  0  0  0  0  0  0  0  0  0  0  0
  -25.1240  -11.9263   21.4744 C   0  0  0  0  0  0  0  0  0  0  0  0
  -25.6522  -11.9370   19.1169 C   0  0  0  0  0  0  0  0  0  0  0  0
  -26.4295  -24.2147   21.7334 C   0  0  0  0  0  0  0  0  0  0  0  0
  -24.3327   -8.4066   21.9319 C   0  0  0  0  0  0  0  0  0  0  0  0
  -23.2395   -7.8311   22.5795 C   0  0  0  0  0  0  0  0  0  0  0  0
  -27.3041  -26.4137   22.2007 C   0  0  0  0  0  0  0  0  0  0  0  0
  -27.4528  -23.5502   15.6276 C   0  0  0  0  0  0  0  0  0  0  0  0
  -24.6911  -23.4131   15.9974 C   0  0  0  0  0  0  0  0  0  0  0  0
  -21.7391   -9.0643   21.1424 C   0  0  0  0  0  0  0  0  0  0  0  0
  -25.5639  -14.0159   20.3445 C   0  0  0  0  0  0  0  0  0  0  0  0
  -26.8466  -16.2010   20.6409 C   0  0  0  0  0  0  0  0  0  0  0  0
  -18.8787  -26.5014   22.1827 C   0  0  0  0  0  0  0  0  0  0  0  0
  -25.3538  -25.6204   23.3952 C   0  0  0  0  0  0  0  0  0  0  0  0
  -20.2329  -26.6776   21.8397 C   0  0  0  0  0  0  0  0  0  0  0  0
  -26.3045  -26.6245   23.1628 C   0  0  0  0  0  0  0  0  0  0  0  0
  -26.6061  -24.3529   14.8632 C   0  0  0  0  0  0  0  0  0  0  0  0
  -25.5378  -22.6103   16.7618 C   0  0  0  0  0  0  0  0  0  0  0  0
  -25.3295  -11.2368   20.2794 C   0  0  0  0  0  0  0  0  0  0  0  0
  -27.3648  -25.2159   21.4890 C   0  0  0  0  0  0  0  0  0  0  0  0
  -24.1291   -9.3110   20.8897 C   0  0  0  0  0  0  0  0  0  0  0  0
  -21.9427   -8.1599   22.1847 C   0  0  0  0  0  0  0  0  0  0  0  0
  -22.8323   -9.6398   20.4949 C   0  0  0  0  0  0  0  0  0  0  0  0
  -26.9186  -22.6789   16.5769 C   0  0  0  0  0  0  0  0  0  0  0  0
  -25.2252  -24.2844   15.0480 C   0  0  0  0  0  0  0  0  0  0  0  0
  -25.6845  -15.4514   20.3773 C   0  0  0  0  0  0  0  0  0  0  0  0
  -26.4381  -17.5094   20.5545 C   0  0  0  0  0  0  0  0  0  0  0  0
  -28.1764  -15.7544   20.9373 C   0  0  0  0  0  0  0  0  0  0  0  0
  -23.1967  -27.9413   23.6484 C   0  0  0  0  0  0  0  0  0  0  0  0
  -30.3124  -26.5093   16.3012 C   0  0  0  0  0  0  0  0  0  0  0  0
  -25.2328  -29.0548   25.9148 C   0  0  0  0  0  0  0  0  0  0  0  0
  -28.4085  -29.1515   27.1609 C   0  0  0  0  0  0  0  0  0  0  0  0
  -23.6086  -21.5705   18.0041 C   0  0  0  0  0  0  0  0  0  0  0  0
  -18.1467  -27.4891   23.0564 C   0  0  0  0  0  0  0  0  0  0  0  0
  -24.2860  -25.8091   24.4376 C   0  0  0  0  0  0  0  0  0  0  0  0
  -26.2783  -27.9304   23.9128 C   0  0  0  0  0  0  0  0  0  0  0  0
  -19.0749  -28.3976   23.8584 C   0  0  0  0  0  0  0  0  0  0  0  0
  -21.7924  -19.4971   20.2579 C   0  0  0  0  0  0  0  0  0  0  0  0
  -20.1809  -28.9522   22.9663 C   0  0  0  0  0  0  0  0  0  0  0  0
  -22.7387  -18.3214   20.5116 C   0  0  0  0  0  0  0  0  0  0  0  0
  -21.8721  -19.9879   18.8135 C   0  0  0  0  0  0  0  0  0  0  0  0
  -24.1714  -19.1310   18.5935 C   0  0  0  0  0  0  0  0  0  0  0  0
  -21.0491  -27.8233   22.3976 C   0  0  1  0  0  0  0  0  0  0  0  0
  -23.9938  -27.2766   24.7349 C   0  0  1  0  0  0  0  0  0  0  0  0
  -24.1740  -18.6439   20.0517 C   0  0  2  0  0  0  0  0  0  0  0  0
  -31.7612  -26.1005   16.1790 C   0  0  0  0  0  0  0  0  0  0  0  0
  -29.7722  -30.1773   29.0009 C   0  0  0  0  0  0  0  0  0  0  0  0
  -25.2399  -31.7162   24.4225 C   0  0  0  0  0  0  0  0  0  0  0  0
  -27.2876  -32.3551   25.7137 C   0  0  0  0  0  0  0  0  0  0  0  0
  -25.1449  -31.9171   26.9135 C   0  0  0  0  0  0  0  0  0  0  0  0
  -29.1041  -26.5016   28.2803 C   0  0  0  0  0  0  0  0  0  0  0  0
  -27.2231  -25.2817   13.8483 C   0  0  0  0  0  0  0  0  0  0  0  0
  -29.8177  -26.9463   17.6687 C   0  0  0  0  0  0  0  0  0  0  0  0
  -27.2424  -26.7303   14.3470 C   0  0  0  0  0  0  0  0  0  0  0  0
  -29.2624  -25.7780   18.4769 C   0  0  0  0  0  0  0  0  0  0  0  0
  -28.0912  -26.9013   15.6020 C   0  0  0  0  0  0  0  0  0  0  0  0
  -28.8259  -26.1814   19.8800 C   0  0  0  0  0  0  0  0  0  1  0  0
  -26.4269  -29.9785   25.9184 C   0  0  1  0  0  0  0  0  0  0  0  0
  -28.9429  -28.9772   28.5710 C   0  0  2  0  0  0  0  0  0  0  0  0
  -26.0244  -31.4680   25.7264 C   0  0  0  0  0  0  0  0  0  0  0  0
  -24.6178  -16.2197   20.1413 N   0  0  0  0  0  0  0  0  0  0  0  0
  -29.4565  -26.4761   15.3360 N   0  0  0  0  0  0  0  0  0  0  0  0
  -25.1080  -17.4658   20.2564 N   0  0  0  0  0  0  0  0  0  0  0  0
  -25.2112  -28.0696   24.9174 N   0  0  0  0  0  0  0  0  0  0  0  0
  -23.2608  -20.2777   18.4495 N   0  0  0  0  0  0  0  0  0  0  0  0
  -27.0906  -18.6816   20.7053 N   0  0  0  0  0  0  0  0  0  0  0  0
  -28.4227  -14.3755   20.9870 N   0  0  0  0  0  0  0  0  0  0  0  0
  -24.9633  -21.7368   17.7182 N   0  0  0  0  0  0  0  0  0  0  0  0
  -21.9756  -27.3439   23.4007 N   0  0  0  0  0  0  0  0  0  0  0  0
  -27.1475  -29.7093   27.1581 N   0  0  0  0  0  0  0  0  0  0  0  0
  -29.7994  -27.7603   28.6536 N   0  3  0  0  0  0  0  0  0  0  0  0
  -29.1148  -16.5543   21.1679 O   0  0  0  0  0  0  0  0  0  0  0  0
  -23.6550  -28.9244   23.0781 O   0  0  0  0  0  0  0  0  0  0  0  0
  -24.3553  -29.1974   26.7699 O   0  0  0  0  0  0  0  0  0  0  0  0
  -29.0473  -28.8289   26.1618 O   0  0  0  0  0  0  0  0  0  0  0  0
  -22.7715  -22.4719   17.9111 O   0  0  0  0  0  0  0  0  0  0  0  0
  -25.2155   -9.8809   20.2473 O   0  0  0  0  0  0  0  0  0  0  0  0
  -28.3408  -25.0245   20.5601 O   0  0  0  0  0  0  0  0  0  1  0  0
  -20.8930   -7.6060   22.8056 F   0  0  0  0  0  0  0  0  0  0  0  0
  -22.6304  -10.5071   19.4935 F   0  0  0  0  0  0  0  0  0  0  0  0
  -28.0027  -21.7022   17.5017 Cl  0  0  0  0  0  0  0  0  0  0  0  0
  -24.1474  -25.2619   14.1193 Cl  0  0  0  0  0  0  0  0  0  0  0  0
  1  2  1  0  0  0  0
  1  5  2  0  0  0  0
  2  6  2  0  0  0  0
  3  8  2  0  0  0  0
  3 17  1  0  0  0  0
  4  9  1  0  0  0  0
  4 17  2  0  0  0  0
  5 19  1  0  0  0  0
  6 21  1  0  0  0  0
  7 10  2  0  0  0  0
  7 20  1  0  0  0  0
  8 25  1  0  0  0  0
  9 25  2  0  0  0  0
 10 26  1  0  0  0  0
 11 12  2  0  0  0  0
 11 27  1  0  0  0  0
 12 28  1  0  0  0  0
 13 22  1  0  0  0  0
 13 26  2  0  0  0  0
 14 23  1  0  0  0  0
 14 30  2  0  0  0  0
 15 24  2  0  0  0  0
 15 31  1  0  0  0  0
 16 28  2  0  0  0  0
 16 29  1  0  0  0  0
 17 32  1  0  0  0  0
 18 32  1  0  0  0  0
 18 33  2  0  0  0  0
 18 34  1  0  0  0  0
 19 21  2  0  0  0  0
 19 40  1  0  0  0  0
 20 22  2  0  0  0  0
 20 41  1  0  0  0  0
 21 49  1  0  0  0  0
 22 42  1  0  0  0  0
 23 31  2  0  0  0  0
 23 58  1  0  0  0  0
 24 30  1  0  0  0  0
 24 74  1  0  0  0  0
 25 83  1  0  0  0  0
 26 84  1  0  0  0  0
 27 29  2  0  0  0  0
 27 83  1  0  0  0  0
 28 85  1  0  0  0  0
 29 86  1  0  0  0  0
 30 87  1  0  0  0  0
 31 88  1  0  0  0  0
 32 67  2  0  0  0  0
 33 69  1  0  0  0  0
 33 72  1  0  0  0  0
 34 73  1  0  0  0  0
 34 78  2  0  0  0  0
 35 50  1  0  0  0  0
 35 75  1  0  0  0  0
 35 79  2  0  0  0  0
 36 52  1  0  0  0  0
 36 59  1  0  0  0  0
 36 68  2  0  0  0  0
 37 64  1  0  0  0  0
 37 70  1  0  0  0  0
 37 80  2  0  0  0  0
 38 65  1  0  0  0  0
 38 76  1  0  0  0  0
 38 81  2  0  0  0  0
 39 71  1  0  0  0  0
 39 74  1  0  0  0  0
 39 82  2  0  0  0  0
 40 43  1  0  0  0  0
 41 50  1  0  0  0  0
 42 70  1  0  0  0  0
 43 45  1  0  0  0  0
 44 46  1  0  0  0  0
 44 47  1  0  0  0  0
 45 49  1  0  0  0  0
 46 51  1  0  0  0  0
 47 71  1  0  0  0  0
 48 51  1  0  0  0  0
 48 71  1  0  0  0  0
 49 75  1  0  0  0  0
 50 70  1  0  0  0  0
 51 69  1  0  0  0  0
 53 65  1  0  0  0  0
 54 66  1  0  0  0  0
 55 66  1  0  0  0  0
 56 66  1  0  0  0  0
 57 77  1  0  0  0  0
 58 60  1  0  0  0  0
 59 61  1  0  0  0  0
 60 62  1  0  0  0  0
 61 63  1  0  0  0  0
 62 68  1  0  0  0  0
 63 84  1  0  0  0  0
 64 66  1  0  0  0  0
 64 76  1  0  0  0  0
 65 77  1  0  0  0  0
 67 69  1  0  0  0  0
M  CHG  1  77   1
M  ISO  4  39 100  63 101  74 100  84 101
M  END
> <Batch ID>
0023

> <Smiles>
CNC(C)C(=O)NC(C(=O)N1Cc2cc([101O:1][101CH2:1]CC=C(C)NCCCc3cc(Cl)c([100NH:0][100C:0](=O)N4CCCC(n5nc(-c6ccc(Oc7ccc(F)cc7F)cc6)c(C(N)=O)c5N)C4)cc3Cl)ccc2CC1C(=O)NC1CCCc2ccccc21)C(C)(C)C

> <Shape>
0.202

> <Color>
0.080

> <Negative vol penalty>
0.000

$$$$

  -OEChem-04052316193D

 85 94  0     1  0  0  0  0  0999 V2000
  -23.1107  -10.3764   19.3781 C   0  0  0  0  0  0  0  0  0  0  0  0
  -22.3309  -11.5270   19.4351 C   0  0  0  0  0  0  0  0  0  0  0  0
  -29.3123  -28.1729   21.2550 C   0  0  0  0  0  0  0  0  0  0  0  0
  -28.0643  -26.2522   22.0234 C   0  0  0  0  0  0  0  0  0  0  0  0
  -24.4170  -10.3961   19.8650 C   0  0  0  0  0  0  0  0  0  0  0  0
  -22.8567  -12.6980   19.9799 C   0  0  0  0  0  0  0  0  0  0  0  0
  -21.6838  -18.4384   18.1972 C   0  0  0  0  0  0  0  0  0  0  0  0
  -30.4571  -27.6793   21.8805 C   0  0  0  0  0  0  0  0  0  0  0  0
  -29.2092  -25.7585   22.6489 C   0  0  0  0  0  0  0  0  0  0  0  0
  -20.8196  -19.4154   18.6896 C   0  0  0  0  0  0  0  0  0  0  0  0
  -32.0294  -24.1275   21.7505 C   0  0  0  0  0  0  0  0  0  0  0  0
  -32.3223  -22.7735   21.5876 C   0  0  0  0  0  0  0  0  0  0  0  0
  -22.6347  -20.3732   19.9574 C   0  0  0  0  0  0  0  0  0  0  0  0
  -32.1848  -22.4560   23.9787 C   0  0  0  0  0  0  0  0  0  0  0  0
  -28.1158  -27.4594   21.3265 C   0  0  0  0  0  0  0  0  0  0  0  0
  -26.5081  -27.7172   19.3627 C   0  0  0  0  0  0  0  0  0  0  0  0
  -24.9624  -11.5705   20.4072 C   0  0  0  0  0  0  0  0  0  0  0  0
  -23.0296  -18.4149   18.5904 C   0  0  0  0  0  0  0  0  0  0  0  0
  -24.1711  -12.7331   20.4757 C   0  0  0  0  0  0  0  0  0  0  0  0
  -23.5145  -19.3964   19.4666 C   0  0  0  0  0  0  0  0  0  0  0  0
  -30.4057  -26.4721   22.5774 C   0  0  0  0  0  0  0  0  0  0  0  0
  -21.2944  -20.3813   19.5721 C   0  0  0  0  0  0  0  0  0  0  0  0
  -31.8142  -24.6458   23.0276 C   0  0  0  0  0  0  0  0  0  0  0  0
  -32.4000  -21.9378   22.7017 C   0  0  0  0  0  0  0  0  0  0  0  0
  -31.8919  -23.8100   24.1417 C   0  0  0  0  0  0  0  0  0  0  0  0
  -26.9327  -27.9690   20.6811 C   0  0  0  0  0  0  0  0  0  0  0  0
  -20.4596  -25.6476   22.0571 C   0  0  0  0  0  0  0  0  0  0  0  0
  -19.8210  -26.2017   23.1479 C   0  0  0  0  0  0  0  0  0  0  0  0
  -25.3384  -28.4260   19.2374 C   0  0  0  0  0  0  0  0  0  0  0  0
  -19.9100  -23.8069   23.1021 C   0  0  0  0  0  0  0  0  0  0  0  0
  -19.7566  -22.4418   23.4345 C   0  0  0  0  0  0  0  0  0  0  0  0
  -27.1167  -26.9143   18.3426 C   0  0  0  0  0  0  0  0  0  0  0  0
  -19.1114  -21.4684   22.6999 C   0  0  0  0  0  0  0  0  0  0  0  0
  -24.8782  -16.3442   20.1392 C   0  0  0  0  0  0  0  0  0  0  0  0
  -27.2194  -18.4522   19.3662 C   0  0  0  0  0  0  0  0  0  0  0  0
  -28.0819  -21.6478   18.5352 C   0  0  0  0  0  0  0  0  0  0  0  0
  -20.8227  -29.7416   22.8229 C   0  0  0  0  0  0  0  0  0  0  0  0
  -26.3634  -11.5305   20.9642 C   0  0  0  0  0  0  0  0  0  0  0  0
  -23.9551  -17.3703   18.0294 C   0  0  0  0  0  0  0  0  0  0  0  0
  -24.9554  -19.4272   19.9038 C   0  0  0  0  0  0  0  0  0  0  0  0
  -21.0683  -26.4804   20.9858 C   0  0  0  0  0  0  0  0  0  0  0  0
  -19.6279  -27.6559   23.3906 C   0  0  0  0  0  0  0  0  0  0  0  0
  -26.9713  -12.9135   21.1837 C   0  0  0  0  0  0  0  0  0  0  0  0
  -23.2754  -32.2378   21.6018 C   0  0  0  0  0  0  0  0  0  0  0  0
  -25.9746  -13.8292   21.8871 C   0  0  0  0  0  0  0  0  0  0  0  0
  -24.4582  -31.3618   21.1911 C   0  0  0  0  0  0  0  0  0  0  0  0
  -20.5537  -27.9264   21.0703 C   0  0  0  0  0  0  0  0  0  0  0  0
  -22.4510  -31.5941   22.7128 C   0  0  0  0  0  0  0  0  0  0  0  0
  -23.1683  -29.3425   21.9856 C   0  0  0  0  0  0  0  0  0  0  0  0
  -24.7142  -14.0294   21.0368 C   0  0  1  0  0  0  0  0  0  0  0  0
  -25.1864  -17.1340   18.8986 C   0  0  1  0  0  0  0  0  0  0  0  0
  -23.9887  -29.9408   20.8340 C   0  0  2  0  0  0  0  0  0  0  0  0
  -19.0360  -20.0490   23.2087 C   0  0  0  0  0  0  0  0  0  0  0  0
  -16.9383  -21.5171   21.4086 C   0  0  0  0  0  0  0  0  0  0  0  0
  -30.0761  -23.0744   18.0007 C   0  0  0  0  0  0  0  0  0  0  0  0
  -27.9545  -18.5294   22.3266 C   0  0  0  0  0  0  0  0  0  0  0  0
  -29.2603  -20.6175   21.8763 C   0  0  0  0  0  0  0  0  0  0  0  0
  -29.9091  -18.4793   20.7673 C   0  0  0  0  0  0  0  0  0  0  0  0
  -27.0585  -22.2676   15.8282 C   0  0  0  0  0  0  0  0  0  0  0  0
  -19.0787  -20.9796   20.1955 C   0  0  0  0  0  0  0  0  0  1  0  0
  -18.4482  -21.7658   21.3536 C   0  0  2  0  0  0  0  0  0  0  0  0
  -27.8126  -19.6776   20.0185 C   0  0  1  0  0  0  0  0  0  0  0  0
  -28.9705  -22.1973   17.4339 C   0  0  2  0  0  0  0  0  0  0  0  0
  -28.7065  -19.3245   21.2406 C   0  0  0  0  0  0  0  0  0  0  0  0
  -26.1005  -28.7750   21.3458 N   0  0  0  0  0  0  0  0  0  0  0  0
  -20.5160  -24.2711   22.0295 N   0  0  0  0  0  0  0  0  0  0  0  0
  -25.1413  -29.0358   20.4413 N   0  0  0  0  0  0  0  0  0  0  0  0
  -25.8195  -18.3810   19.3327 N   0  0  0  0  0  0  0  0  0  0  0  0
  -20.4876  -28.4228   22.4670 N   0  0  0  0  0  0  0  0  0  0  0  0
  -22.0594  -30.2271   22.3689 N   0  0  0  0  0  0  0  0  0  0  0  0
  -24.4695  -28.5810   18.2159 N   0  0  0  0  0  0  0  0  0  0  0  0
  -28.3169  -26.2541   18.6392 N   0  0  0  0  0  0  0  0  0  0  0  0
  -24.9682  -14.9755   19.9715 N   0  0  0  0  0  0  0  0  0  0  0  0
  -28.5057  -20.4072   18.9622 N   0  0  0  0  0  0  0  0  0  0  0  0
  -28.1677  -23.0119   16.4785 N   0  3  0  0  0  0  0  0  0  0  0  0
  -26.6197  -26.7993   17.1966 O   0  0  0  0  0  0  0  0  0  0  0  0
  -24.5822  -16.9329   21.1723 O   0  0  0  0  0  0  0  0  0  0  0  0
  -27.9704  -17.5933   18.8972 O   0  0  0  0  0  0  0  0  0  0  0  0
  -27.1112  -22.2598   18.9754 O   0  0  0  0  0  0  0  0  0  0  0  0
  -20.0614  -30.4406   23.5034 O   0  0  0  0  0  0  0  0  0  0  0  0
  -31.5227  -25.9900   23.1876 O   0  0  0  0  0  0  0  0  0  0  0  0
  -20.4471  -21.3423   20.0580 O   0  0  0  0  0  0  0  0  0  1  0  0
  -32.6798  -20.6373   22.5449 F   0  0  0  0  0  0  0  0  0  0  0  0
  -31.6850  -24.3019   25.3709 F   0  0  0  0  0  0  0  0  0  0  0  0
  -19.2536  -24.9748   24.1813 S   0  0  0  0  0  0  0  0  0  0  0  0
  1  2  1  0  0  0  0
  1  5  2  0  0  0  0
  2  6  2  0  0  0  0
  3  8  2  0  0  0  0
  3 15  1  0  0  0  0
  4  9  1  0  0  0  0
  4 15  2  0  0  0  0
  5 17  1  0  0  0  0
  6 19  1  0  0  0  0
  7 10  2  0  0  0  0
  7 18  1  0  0  0  0
  8 21  1  0  0  0  0
  9 21  2  0  0  0  0
 10 22  1  0  0  0  0
 11 12  2  0  0  0  0
 11 23  1  0  0  0  0
 12 24  1  0  0  0  0
 13 20  1  0  0  0  0
 13 22  2  0  0  0  0
 14 24  2  0  0  0  0
 14 25  1  0  0  0  0
 15 26  1  0  0  0  0
 16 26  1  0  0  0  0
 16 29  2  0  0  0  0
 16 32  1  0  0  0  0
 17 19  2  0  0  0  0
 17 38  1  0  0  0  0
 18 20  2  0  0  0  0
 18 39  1  0  0  0  0
 19 50  1  0  0  0  0
 20 40  1  0  0  0  0
 21 81  1  0  0  0  0
 22 82  1  0  0  0  0
 23 25  2  0  0  0  0
 23 81  1  0  0  0  0
 24 83  1  0  0  0  0
 25 84  1  0  0  0  0
 26 65  2  0  0  0  0
 27 28  2  0  0  0  0
 27 41  1  0  0  0  0
 27 66  1  0  0  0  0
 28 42  1  0  0  0  0
 28 85  1  0  0  0  0
 29 67  1  0  0  0  0
 29 71  1  0  0  0  0
 30 31  1  0  0  0  0
 30 66  2  0  0  0  0
 30 85  1  0  0  0  0
 31 33  2  0  0  0  0
 32 72  1  0  0  0  0
 32 76  2  0  0  0  0
 33 53  1  0  0  0  0
 33 61  1  0  0  0  0
 34 51  1  0  0  0  0
 34 73  1  0  0  0  0
 34 77  2  0  0  0  0
 35 62  1  0  0  0  0
 35 68  1  0  0  0  0
 35 78  2  0  0  0  0
 36 63  1  0  0  0  0
 36 74  1  0  0  0  0
 36 79  2  0  0  0  0
 37 69  1  0  0  0  0
 37 70  1  0  0  0  0
 37 80  2  0  0  0  0
 38 43  1  0  0  0  0
 39 51  1  0  0  0  0
 40 68  1  0  0  0  0
 41 47  1  0  0  0  0
 42 69  1  0  0  0  0
 43 45  1  0  0  0  0
 44 46  1  0  0  0  0
 44 48  1  0  0  0  0
 45 50  1  0  0  0  0
 46 52  1  0  0  0  0
 47 69  1  0  0  0  0
 48 70  1  0  0  0  0
 49 52  1  0  0  0  0
 49 70  1  0  0  0  0
 50 73  1  0  0  0  0
 51 68  1  0  0  0  0
 52 67  1  0  0  0  0
 54 61  1  0  0  0  0
 55 63  1  0  0  0  0
 56 64  1  0  0  0  0
 57 64  1  0  0  0  0
 58 64  1  0  0  0  0
 59 75  1  0  0  0  0
 60 61  1  0  0  0  0
 60 82  1  0  0  0  0
 62 64  1  0  0  0  0
 62 74  1  0  0  0  0
 63 75  1  0  0  0  0
 65 67  1  0  0  0  0
M  CHG  1  75   1
M  ISO  4  37 100  60 101  69 100  82 101
M  END
> <Batch ID>
0023

> <Smiles>
CNC(C)C(=O)NC(C(=O)N1Cc2cc([101O:1][101CH2:1]C(C)C(C)=Cc3nc4c(s3)C[100N:0]([100C:0](=O)N3CCCC(n5nc(-c6ccc(Oc7ccc(F)cc7F)cc6)c(C(N)=O)c5N)C3)CC4)ccc2CC1C(=O)NC1CCCc2ccccc21)C(C)(C)C

> <Shape>
0.219

> <Color>
0.051

> <Negative vol penalty>
0.000

$$$$

  -OEChem-04052316193D

 90 98  0     1  0  0  0  0  0999 V2000
  -30.6676  -31.3244   25.5674 C   0  0  0  0  0  0  0  0  0  0  0  0
  -30.1023  -30.2785   24.8449 C   0  0  0  0  0  0  0  0  0  0  0  0
  -28.2409  -16.4717   21.7228 C   0  0  0  0  0  0  0  0  0  0  0  0
  -28.5113  -15.5774   19.4947 C   0  0  0  0  0  0  0  0  0  0  0  0
  -29.8468  -32.2659   26.1868 C   0  0  0  0  0  0  0  0  0  0  0  0
  -28.7156  -30.1730   24.7423 C   0  0  0  0  0  0  0  0  0  0  0  0
  -27.1899  -29.1349   20.0264 C   0  0  0  0  0  0  0  0  0  0  0  0
  -26.9768  -15.8875   21.8038 C   0  0  0  0  0  0  0  0  0  0  0  0
  -27.2472  -14.9932   19.5758 C   0  0  0  0  0  0  0  0  0  0  0  0
  -27.3152  -27.8159   19.5925 C   0  0  0  0  0  0  0  0  0  0  0  0
  -24.2400  -12.9642   19.3349 C   0  0  0  0  0  0  0  0  0  0  0  0
  -24.1051  -11.6457   18.9003 C   0  0  0  0  0  0  0  0  0  0  0  0
  -27.5553  -23.5683   16.9212 C   0  0  0  0  0  0  0  0  0  0  0  0
  -24.9715  -27.4542   20.0347 C   0  0  0  0  0  0  0  0  0  0  0  0
  -25.7187  -10.9358   20.5524 C   0  0  0  0  0  0  0  0  0  0  0  0
  -27.3750  -21.4674   18.7477 C   0  0  0  0  0  0  0  0  0  0  0  0
  -29.0081  -16.3167   20.5681 C   0  0  0  0  0  0  0  0  0  0  0  0
  -27.4829  -22.2521   16.4652 C   0  0  0  0  0  0  0  0  0  0  0  0
  -31.5418  -16.3463   20.8628 C   0  0  0  0  0  0  0  0  0  0  0  0
  -28.4496  -32.1773   26.0837 C   0  0  0  0  0  0  0  0  0  0  0  0
  -25.9549  -29.6212   20.4787 C   0  0  0  0  0  0  0  0  0  0  0  0
  -27.8753  -31.1135   25.3620 C   0  0  0  0  0  0  0  0  0  0  0  0
  -24.8326  -28.7806   20.4714 C   0  0  0  0  0  0  0  0  0  0  0  0
  -27.5376  -23.8341   18.2904 C   0  0  0  0  0  0  0  0  0  0  0  0
  -26.4800  -15.1483   20.7304 C   0  0  0  0  0  0  0  0  0  0  0  0
  -26.2065  -26.9745   19.5993 C   0  0  0  0  0  0  0  0  0  0  0  0
  -25.1144  -13.2685   20.3783 C   0  0  0  0  0  0  0  0  0  0  0  0
  -24.8443  -10.6315   19.5090 C   0  0  0  0  0  0  0  0  0  0  0  0
  -25.8537  -12.2544   20.9870 C   0  0  0  0  0  0  0  0  0  0  0  0
  -27.3928  -21.2016   17.3785 C   0  0  0  0  0  0  0  0  0  0  0  0
  -27.4474  -22.7836   19.2037 C   0  0  0  0  0  0  0  0  0  0  0  0
  -30.3136  -16.9203   20.4836 C   0  0  0  0  0  0  0  0  0  0  0  0
  -32.4742  -17.3161   20.5858 C   0  0  0  0  0  0  0  0  0  0  0  0
  -27.5049  -22.0223   15.0255 C   0  0  0  0  0  0  0  0  0  0  0  0
  -31.8154  -15.0521   21.4159 C   0  0  0  0  0  0  0  0  0  0  0  0
  -24.8730  -30.7788   23.2343 C   0  0  0  0  0  0  0  0  0  0  0  0
  -22.1984  -31.3586   21.4929 C   0  0  0  0  0  0  0  0  0  0  0  0
  -20.2825  -30.5775   18.7788 C   0  0  0  0  0  0  0  0  0  0  0  0
  -32.5620  -21.9099   16.7465 C   0  0  0  0  0  0  0  0  0  0  0  0
  -27.6023  -33.1919   26.8100 C   0  0  0  0  0  0  0  0  0  0  0  0
  -25.8303  -31.0542   20.9184 C   0  0  0  0  0  0  0  0  0  0  0  0
  -23.4798  -29.2598   20.9282 C   0  0  0  0  0  0  0  0  0  0  0  0
  -26.1503  -33.2213   26.3399 C   0  0  0  0  0  0  0  0  0  0  0  0
  -32.9591  -22.0661   20.2813 C   0  0  0  0  0  0  0  0  0  0  0  0
  -25.5940  -31.8047   26.2359 C   0  0  0  0  0  0  0  0  0  0  0  0
  -32.4369  -20.7132   20.7682 C   0  0  0  0  0  0  0  0  0  0  0  0
  -32.1531  -22.5879   19.0938 C   0  0  0  0  0  0  0  0  0  0  0  0
  -31.5167  -20.2959   18.4492 C   0  0  0  0  0  0  0  0  0  0  0  0
  -26.3759  -30.9791   25.2071 C   0  0  1  0  0  0  0  0  0  0  0  0
  -24.6404  -31.2945   21.8424 C   0  0  1  0  0  0  0  0  0  0  0  0
  -32.3330  -19.7026   19.6102 C   0  0  2  0  0  0  0  0  0  0  0  0
  -18.1337  -31.1973   17.6403 C   0  0  0  0  0  0  0  0  0  0  0  0
  -20.6334  -29.8297   23.6196 C   0  0  0  0  0  0  0  0  0  0  0  0
  -18.7328  -29.6592   21.9989 C   0  0  0  0  0  0  0  0  0  0  0  0
  -19.5061  -31.8984   22.7805 C   0  0  0  0  0  0  0  0  0  0  0  0
  -30.0396  -21.2531   11.0403 C   0  0  0  0  0  0  0  0  0  0  0  0
  -28.4579  -19.9012   12.4125 C   0  0  0  0  0  0  0  0  0  0  0  0
  -21.6930  -31.4040   16.3118 C   0  0  0  0  0  0  0  0  0  0  0  0
  -27.6171  -25.2634   18.7401 C   0  0  0  0  0  0  0  0  0  1  0  0
  -31.8168  -21.6025   13.5202 C   0  0  0  0  0  0  0  0  0  0  0  0
  -30.6268  -20.6351   13.4368 C   0  0  0  0  0  0  0  0  0  0  0  0
  -32.9227  -21.0801   14.4356 C   0  0  0  0  0  0  0  0  0  0  0  0
  -28.7807  -22.3589   12.8976 C   0  0  0  0  0  0  0  0  0  0  0  0
  -20.9441  -30.5832   21.1698 C   0  0  1  0  0  0  0  0  0  0  0  0
  -19.6312  -31.4500   17.7209 C   0  0  2  0  0  0  0  0  0  0  0  0
  -19.9799  -30.4827   22.3854 C   0  0  0  0  0  0  0  0  0  0  0  0
  -29.4859  -21.0526   12.4651 C   0  0  0  0  0  0  0  0  0  0  0  0
  -30.4501  -18.1589   20.0025 N   0  0  0  0  0  0  0  0  0  0  0  0
  -31.7750  -18.3711   20.0777 N   0  0  0  0  0  0  0  0  0  0  0  0
  -23.4104  -30.6673   21.3546 N   0  0  0  0  0  0  0  0  0  0  0  0
  -32.0943  -21.5826   18.0300 N   0  0  0  0  0  0  0  0  0  0  0  0
  -33.8157  -17.3608   20.7299 N   0  0  0  0  0  0  0  0  0  0  0  0
  -30.7414  -14.1792   21.6367 N   0  0  0  0  0  0  0  0  0  0  0  0
  -28.6230  -22.4895   14.3283 N   0  0  0  0  0  0  0  0  0  0  0  0
  -25.9719  -31.3325   23.8631 N   0  0  0  0  0  0  0  0  0  0  0  0
  -20.3604  -31.2221   19.9953 N   0  0  0  0  0  0  0  0  0  0  0  0
  -32.4759  -20.8976   15.7986 N   0  0  0  0  0  0  0  0  0  0  0  0
  -20.2271  -31.1738   16.3831 N   0  3  0  0  0  0  0  0  0  0  0  0
  -26.5526  -21.4545   14.4661 O   0  0  0  0  0  0  0  0  0  0  0  0
  -32.9761  -14.6869   21.7210 O   0  0  0  0  0  0  0  0  0  0  0  0
  -24.1111  -29.9417   23.7037 O   0  0  0  0  0  0  0  0  0  0  0  0
  -22.1067  -32.5364   21.8477 O   0  0  0  0  0  0  0  0  0  0  0  0
  -20.6788  -29.4369   18.5500 O   0  0  0  0  0  0  0  0  0  0  0  0
  -33.0271  -23.0202   16.4676 O   0  0  0  0  0  0  0  0  0  0  0  0
  -25.2467  -14.5779   20.8092 O   0  0  0  0  0  0  0  0  0  0  0  0
  -26.3261  -25.6864   19.1770 O   0  0  0  0  0  0  0  0  0  1  0  0
  -24.7134   -9.3652   19.0925 F   0  0  0  0  0  0  0  0  0  0  0  0
  -26.6944  -12.5404   21.9906 F   0  0  0  0  0  0  0  0  0  0  0  0
  -27.3024  -19.5584   16.8546 Cl  0  0  0  0  0  0  0  0  0  0  0  0
  -27.4226  -23.0751   20.9048 Cl  0  0  0  0  0  0  0  0  0  0  0  0
  1  2  1  0  0  0  0
  1  5  2  0  0  0  0
  2  6  2  0  0  0  0
  3  8  2  0  0  0  0
  3 17  1  0  0  0  0
  4  9  1  0  0  0  0
  4 17  2  0  0  0  0
  5 20  1  0  0  0  0
  6 22  1  0  0  0  0
  7 10  2  0  0  0  0
  7 21  1  0  0  0  0
  8 25  1  0  0  0  0
  9 25  2  0  0  0  0
 10 26  1  0  0  0  0
 11 12  2  0  0  0  0
 11 27  1  0  0  0  0
 12 28  1  0  0  0  0
 13 18  2  0  0  0  0
 13 24  1  0  0  0  0
 14 23  1  0  0  0  0
 14 26  2  0  0  0  0
 15 28  2  0  0  0  0
 15 29  1  0  0  0  0
 16 30  2  0  0  0  0
 16 31  1  0  0  0  0
 17 32  1  0  0  0  0
 18 30  1  0  0  0  0
 18 34  1  0  0  0  0
 19 32  1  0  0  0  0
 19 33  2  0  0  0  0
 19 35  1  0  0  0  0
 20 22  2  0  0  0  0
 20 40  1  0  0  0  0
 21 23  2  0  0  0  0
 21 41  1  0  0  0  0
 22 49  1  0  0  0  0
 23 42  1  0  0  0  0
 24 31  2  0  0  0  0
 24 59  1  0  0  0  0
 25 85  1  0  0  0  0
 26 86  1  0  0  0  0
 27 29  2  0  0  0  0
 27 85  1  0  0  0  0
 28 87  1  0  0  0  0
 29 88  1  0  0  0  0
 30 89  1  0  0  0  0
 31 90  1  0  0  0  0
 32 68  2  0  0  0  0
 33 69  1  0  0  0  0
 33 72  1  0  0  0  0
 34 74  1  0  0  0  0
 34 79  2  0  0  0  0
 35 73  1  0  0  0  0
 35 80  2  0  0  0  0
 36 50  1  0  0  0  0
 36 75  1  0  0  0  0
 36 81  2  0  0  0  0
 37 64  1  0  0  0  0
 37 70  1  0  0  0  0
 37 82  2  0  0  0  0
 38 65  1  0  0  0  0
 38 76  1  0  0  0  0
 38 83  2  0  0  0  0
 39 71  1  0  0  0  0
 39 77  1  0  0  0  0
 39 84  2  0  0  0  0
 40 43  1  0  0  0  0
 41 50  1  0  0  0  0
 42 70  1  0  0  0  0
 43 45  1  0  0  0  0
 44 46  1  0  0  0  0
 44 47  1  0  0  0  0
 45 49  1  0  0  0  0
 46 51  1  0  0  0  0
 47 71  1  0  0  0  0
 48 51  1  0  0  0  0
 48 71  1  0  0  0  0
 49 75  1  0  0  0  0
 50 70  1  0  0  0  0
 51 69  1  0  0  0  0
 52 65  1  0  0  0  0
 53 66  1  0  0  0  0
 54 66  1  0  0  0  0
 55 66  1  0  0  0  0
 56 67  1  0  0  0  0
 57 67  1  0  0  0  0
 58 78  1  0  0  0  0
 59 86  1  0  0  0  0
 60 61  1  0  0  0  0
 60 62  1  0  0  0  0
 61 67  1  0  0  0  0
 62 77  1  0  0  0  0
 63 67  1  0  0  0  0
 63 74  1  0  0  0  0
 64 66  1  0  0  0  0
 64 76  1  0  0  0  0
 65 78  1  0  0  0  0
 68 69  1  0  0  0  0
M  CHG  1  78   1
M  ISO  4  39 100  59 101  77 100  86 101
M  END
> <Batch ID>
0023

> <Smiles>
CNC(C)C(=O)NC(C(=O)N1Cc2cc([101O:1][101CH2:1]c3cc(C(=O)NCC(C)(C)CCC[100NH:0][100C:0](=O)N4CCCC(n5nc(-c6ccc(Oc7ccc(F)cc7F)cc6)c(C(N)=O)c5N)C4)c(Cl)cc3Cl)ccc2CC1C(=O)NC1CCCc2ccccc21)C(C)(C)C

> <Shape>
0.218

> <Color>
0.073

> <Negative vol penalty>
0.000

$$$$

  -OEChem-04052316193D

 86 95  0     1  0  0  0  0  0999 V2000
  -32.9143  -32.6675   16.5819 C   0  0  0  0  0  0  0  0  0  0  0  0
  -33.0398  -31.8435   17.6957 C   0  0  0  0  0  0  0  0  0  0  0  0
  -23.2772  -10.0667   22.1924 C   0  0  0  0  0  0  0  0  0  0  0  0
  -23.4670   -9.5866   19.8322 C   0  0  0  0  0  0  0  0  0  0  0  0
  -31.7771  -32.5847   15.7795 C   0  0  0  0  0  0  0  0  0  0  0  0
  -32.0276  -30.9368   18.0084 C   0  0  0  0  0  0  0  0  0  0  0  0
  -32.7023  -25.3726   20.4762 C   0  0  0  0  0  0  0  0  0  0  0  0
  -22.5190   -8.9091   22.3670 C   0  0  0  0  0  0  0  0  0  0  0  0
  -22.7088   -8.4289   20.0068 C   0  0  0  0  0  0  0  0  0  0  0  0
  -32.5786  -24.9052   21.7838 C   0  0  0  0  0  0  0  0  0  0  0  0
  -23.0739   -5.5840   22.6295 C   0  0  0  0  0  0  0  0  0  0  0  0
  -23.3842   -4.7633   23.7138 C   0  0  0  0  0  0  0  0  0  0  0  0
  -29.9343  -17.4142   23.1158 C   0  0  0  0  0  0  0  0  0  0  0  0
  -30.3112  -24.2250   21.3198 C   0  0  0  0  0  0  0  0  0  0  0  0
  -31.9388  -17.0862   21.8139 C   0  0  0  0  0  0  0  0  0  0  0  0
  -21.1504   -5.0670   24.5828 C   0  0  0  0  0  0  0  0  0  0  0  0
  -23.7512  -10.4056   20.9250 C   0  0  0  0  0  0  0  0  0  0  0  0
  -24.1395  -12.9252   21.0167 C   0  0  0  0  0  0  0  0  0  0  0  0
  -30.7548  -31.6698   16.0770 C   0  0  0  0  0  0  0  0  0  0  0  0
  -31.6260  -25.2795   19.5822 C   0  0  0  0  0  0  0  0  0  0  0  0
  -30.8750  -30.8426   17.2100 C   0  0  0  0  0  0  0  0  0  0  0  0
  -30.4526  -18.5959   23.6790 C   0  0  0  0  0  0  0  0  0  0  0  0
  -30.4247  -24.6897   20.0006 C   0  0  0  0  0  0  0  0  0  0  0  0
  -31.7287  -19.0275   23.2623 C   0  0  0  0  0  0  0  0  0  0  0  0
  -32.4655  -18.2606   22.3444 C   0  0  0  0  0  0  0  0  0  0  0  0
  -30.6711  -16.6656   22.1962 C   0  0  0  0  0  0  0  0  0  0  0  0
  -22.2348   -8.0901   21.2742 C   0  0  0  0  0  0  0  0  0  0  0  0
  -31.3820  -24.3339   22.2067 C   0  0  0  0  0  0  0  0  0  0  0  0
  -21.8019   -6.1463   22.5218 C   0  0  0  0  0  0  0  0  0  0  0  0
  -22.4224   -4.5048   24.6904 C   0  0  0  0  0  0  0  0  0  0  0  0
  -20.8402   -5.8878   23.4984 C   0  0  0  0  0  0  0  0  0  0  0  0
  -24.5340  -11.6016   20.7439 C   0  0  0  0  0  0  0  0  0  0  0  0
  -25.2321  -13.6857   20.6784 C   0  0  0  0  0  0  0  0  0  0  0  0
  -22.8967  -13.4227   21.5300 C   0  0  0  0  0  0  0  0  0  0  0  0
  -29.8546  -27.3754   17.9782 C   0  0  0  0  0  0  0  0  0  0  0  0
  -28.5983  -24.7008   16.6401 C   0  0  0  0  0  0  0  0  0  0  0  0
  -27.5692  -21.4296   17.7614 C   0  0  0  0  0  0  0  0  0  0  0  0
  -30.7211  -14.6190   20.7282 C   0  0  0  0  0  0  0  0  0  0  0  0
  -29.5229  -31.6497   15.2073 C   0  0  0  0  0  0  0  0  0  0  0  0
  -31.7843  -25.7641   18.1671 C   0  0  0  0  0  0  0  0  0  0  0  0
  -29.2460  -24.5477   19.0737 C   0  0  0  0  0  0  0  0  0  0  0  0
  -32.3565  -20.2799   23.8084 C   0  0  0  0  0  0  0  0  0  0  0  0
  -28.6659  -30.4003   15.3938 C   0  0  0  0  0  0  0  0  0  0  0  0
  -29.4685  -12.4465   18.2007 C   0  0  0  0  0  0  0  0  0  0  0  0
  -28.4687  -30.1048   16.8772 C   0  0  0  0  0  0  0  0  0  0  0  0
  -28.0406  -12.1419   18.6594 C   0  0  0  0  0  0  0  0  0  0  0  0
  -30.4331  -12.5511   19.3806 C   0  0  0  0  0  0  0  0  0  0  0  0
  -28.5953  -13.1808   20.8955 C   0  0  0  0  0  0  0  0  0  0  0  0
  -30.5093  -20.4343   25.4459 C   0  0  0  0  0  0  0  0  0  0  0  0
  -29.8098  -29.8291   17.5679 C   0  0  1  0  0  0  0  0  0  0  0  0
  -30.4540  -26.0857   17.4933 C   0  0  1  0  0  0  0  0  0  0  0  0
  -27.5750  -13.1304   19.7465 C   0  0  2  0  0  0  0  0  0  0  0  0
  -29.6290  -19.4215   24.6737 C   0  0  0  0  0  0  0  0  0  0  0  0
  -33.8374  -18.6694   21.9082 C   0  0  0  0  0  0  0  0  0  0  0  0
  -28.9607  -18.5278   25.7437 C   0  0  0  0  0  0  0  0  0  0  0  0
  -28.5193  -20.1638   23.8978 C   0  0  0  0  0  0  0  0  0  0  0  0
  -27.4486  -19.2461   16.5303 C   0  0  0  0  0  0  0  0  0  0  0  0
  -25.6891  -25.4742   16.1417 C   0  0  0  0  0  0  0  0  0  0  0  0
  -25.0670  -23.0713   16.4690 C   0  0  0  0  0  0  0  0  0  0  0  0
  -26.5820  -23.7218   14.5970 C   0  0  0  0  0  0  0  0  0  0  0  0
  -29.2839  -20.0762   19.7581 C   0  0  0  0  0  0  0  0  0  0  0  0
  -32.0773  -22.3581   25.1623 C   0  0  0  0  0  0  0  0  0  0  0  0
  -32.4402  -23.3964   24.1191 C   0  0  0  0  0  0  0  0  0  1  0  0
  -27.4502  -23.7780   16.9708 C   0  0  1  0  0  0  0  0  0  0  0  0
  -28.2656  -20.1109   17.4776 C   0  0  2  0  0  0  0  0  0  0  0  0
  -26.2110  -24.0255   16.0649 C   0  0  0  0  0  0  0  0  0  0  0  0
  -25.7798  -11.5224   20.2688 N   0  0  0  0  0  0  0  0  0  0  0  0
  -26.1776  -12.8057   20.2404 N   0  0  0  0  0  0  0  0  0  0  0  0
  -29.4479  -25.0423   17.7018 N   0  0  0  0  0  0  0  0  0  0  0  0
  -29.9290  -13.5084   20.3677 N   0  0  0  0  0  0  0  0  0  0  0  0
  -25.4666  -15.0146   20.7159 N   0  0  0  0  0  0  0  0  0  0  0  0
  -21.8863  -13.7628   20.6201 N   0  0  0  0  0  0  0  0  0  0  0  0
  -30.1243  -15.4777   21.6507 N   0  0  0  0  0  0  0  0  0  0  0  0
  -30.2656  -28.4883   17.2697 N   0  0  0  0  0  0  0  0  0  0  0  0
  -27.9825  -22.4217   16.8976 N   0  0  0  0  0  0  0  0  0  0  0  0
  -31.3826  -21.2049   24.4938 N   0  3  1  0  0  0  0  0  0  0  0  0
  -28.4751  -19.3528   18.7435 N   0  3  0  0  0  0  0  0  0  0  0  0
  -22.6941  -13.5770   22.7582 O   0  0  0  0  0  0  0  0  0  0  0  0
  -29.0756  -27.3617   18.9241 O   0  0  0  0  0  0  0  0  0  0  0  0
  -28.7402  -25.0981   15.4809 O   0  0  0  0  0  0  0  0  0  0  0  0
  -26.7385  -21.5649   18.6571 O   0  0  0  0  0  0  0  0  0  0  0  0
  -31.8348  -14.8099   20.2330 O   0  0  0  0  0  0  0  0  0  0  0  0
  -21.4952   -6.9602   21.4443 O   0  0  0  0  0  0  0  0  0  0  0  0
  -31.2574  -23.8742   23.4919 O   0  0  0  0  0  0  0  0  0  1  0  0
  -22.7200   -3.7154   25.7309 F   0  0  0  0  0  0  0  0  0  0  0  0
  -19.6161   -6.4241   23.3998 F   0  0  0  0  0  0  0  0  0  0  0  0
  1  2  1  0  0  0  0
  1  5  2  0  0  0  0
  2  6  2  0  0  0  0
  3  8  2  0  0  0  0
  3 17  1  0  0  0  0
  4  9  1  0  0  0  0
  4 17  2  0  0  0  0
  5 19  1  0  0  0  0
  6 21  1  0  0  0  0
  7 10  2  0  0  0  0
  7 20  1  0  0  0  0
  8 27  1  0  0  0  0
  9 27  2  0  0  0  0
 10 28  1  0  0  0  0
 11 12  2  0  0  0  0
 11 29  1  0  0  0  0
 12 30  1  0  0  0  0
 13 22  1  0  0  0  0
 13 26  2  0  0  0  0
 14 23  1  0  0  0  0
 14 28  2  0  0  0  0
 15 25  2  0  0  0  0
 15 26  1  0  0  0  0
 16 30  2  0  0  0  0
 16 31  1  0  0  0  0
 17 32  1  0  0  0  0
 18 32  1  0  0  0  0
 18 33  2  0  0  0  0
 18 34  1  0  0  0  0
 19 21  2  0  0  0  0
 19 39  1  0  0  0  0
 20 23  2  0  0  0  0
 20 40  1  0  0  0  0
 21 50  1  0  0  0  0
 22 24  2  0  0  0  0
 22 53  1  0  0  0  0
 23 41  1  0  0  0  0
 24 25  1  0  0  0  0
 24 42  1  0  0  0  0
 25 54  1  0  0  0  0
 26 73  1  0  0  0  0
 27 83  1  0  0  0  0
 28 84  1  0  0  0  0
 29 31  2  0  0  0  0
 29 83  1  0  0  0  0
 30 85  1  0  0  0  0
 31 86  1  0  0  0  0
 32 67  2  0  0  0  0
 33 68  1  0  0  0  0
 33 71  1  0  0  0  0
 34 72  1  0  0  0  0
 34 78  2  0  0  0  0
 35 51  1  0  0  0  0
 35 74  1  0  0  0  0
 35 79  2  0  0  0  0
 36 64  1  0  0  0  0
 36 69  1  0  0  0  0
 36 80  2  0  0  0  0
 37 65  1  0  0  0  0
 37 75  1  0  0  0  0
 37 81  2  0  0  0  0
 38 70  1  0  0  0  0
 38 73  1  0  0  0  0
 38 82  2  0  0  0  0
 39 43  1  0  0  0  0
 40 51  1  0  0  0  0
 41 69  1  0  0  0  0
 42 76  1  0  0  0  0
 43 45  1  0  0  0  0
 44 46  1  0  0  0  0
 44 47  1  0  0  0  0
 45 50  1  0  0  0  0
 46 52  1  0  0  0  0
 47 70  1  0  0  0  0
 48 52  1  0  0  0  0
 48 70  1  0  0  0  0
 49 53  1  0  0  0  0
 49 76  1  0  0  0  0
 50 74  1  0  0  0  0
 51 69  1  0  0  0  0
 52 68  1  0  0  0  0
 53 55  1  0  0  0  0
 53 56  1  0  0  0  0
 57 65  1  0  0  0  0
 58 66  1  0  0  0  0
 59 66  1  0  0  0  0
 60 66  1  0  0  0  0
 61 77  1  0  0  0  0
 62 63  1  0  0  0  0
 62 76  1  0  0  0  0
 63 84  1  0  0  0  0
 64 66  1  0  0  0  0
 64 75  1  0  0  0  0
 65 77  1  0  0  0  0
 67 68  1  0  0  0  0
M  CHG  2  76   1  77   1
M  ISO  4  38 100  63 101  73 100  84 101
M  END
> <Batch ID>
0023

> <Smiles>
CNC(C)C(=O)NC(C(=O)N1Cc2cc([101O:1][101CH2:1]CN3Cc4c(C)cc([100NH:0][100C:0](=O)N5CCCC(n6nc(-c7ccc(Oc8ccc(F)cc8F)cc7)c(C(N)=O)c6N)C5)cc4C(C)(C)C3)ccc2CC1C(=O)NC1CCCc2ccccc21)C(C)(C)C

> <Shape>
0.232

> <Color>
0.170

> <Negative vol penalty>
0.000

$$$$

  -OEChem-04052316192D

  0  0  0     0  0  0  0  0  0999 V2000
M  END
$$$$

  -OEChem-04052316193D

 83 91  0     1  0  0  0  0  0999 V2000
  -20.7481  -21.2732   24.1581 C   0  0  0  0  0  0  0  0  0  0  0  0
  -22.1287  -21.3369   24.3167 C   0  0  0  0  0  0  0  0  0  0  0  0
  -25.1467  -14.7894   22.0036 C   0  0  0  0  0  0  0  0  0  0  0  0
  -26.8513  -14.8584   20.2928 C   0  0  0  0  0  0  0  0  0  0  0  0
  -20.1136  -22.1093   23.2403 C   0  0  0  0  0  0  0  0  0  0  0  0
  -22.8759  -22.2362   23.5569 C   0  0  0  0  0  0  0  0  0  0  0  0
  -28.7400  -26.3339   23.9279 C   0  0  0  0  0  0  0  0  0  0  0  0
  -25.0813  -13.4014   21.8825 C   0  0  0  0  0  0  0  0  0  0  0  0
  -26.7859  -13.4703   20.1717 C   0  0  0  0  0  0  0  0  0  0  0  0
  -29.9189  -26.5930   23.2301 C   0  0  0  0  0  0  0  0  0  0  0  0
  -23.6947  -11.1477   19.7795 C   0  0  0  0  0  0  0  0  0  0  0  0
  -22.4302  -10.5612   19.7288 C   0  0  0  0  0  0  0  0  0  0  0  0
  -28.7063  -28.0440   21.7323 C   0  0  0  0  0  0  0  0  0  0  0  0
  -27.4998  -25.0217   17.2776 C   0  0  0  0  0  0  0  0  0  0  0  0
  -29.7126  -25.9882   17.3560 C   0  0  0  0  0  0  0  0  0  0  0  0
  -22.9414   -9.2869   21.7167 C   0  0  0  0  0  0  0  0  0  0  0  0
  -26.0317  -15.5180   21.2087 C   0  0  0  0  0  0  0  0  0  0  0  0
  -26.9326  -17.6923   22.1928 C   0  0  0  0  0  0  0  0  0  0  0  0
  -20.8523  -23.0261   22.4757 C   0  0  0  0  0  0  0  0  0  0  0  0
  -27.5314  -26.9203   23.5259 C   0  0  0  0  0  0  0  0  0  0  0  0
  -22.2509  -23.0845   22.6271 C   0  0  0  0  0  0  0  0  0  0  0  0
  -27.5139  -27.7927   22.4283 C   0  0  0  0  0  0  0  0  0  0  0  0
  -28.4458  -25.9160   16.7767 C   0  0  0  0  0  0  0  0  0  0  0  0
  -27.8206  -24.1997   18.3579 C   0  0  0  0  0  0  0  0  0  0  0  0
  -25.9008  -12.7418   20.9666 C   0  0  0  0  0  0  0  0  0  0  0  0
  -29.9016  -27.4458   22.1304 C   0  0  0  0  0  0  0  0  0  0  0  0
  -24.5826  -10.8037   20.7988 C   0  0  0  0  0  0  0  0  0  0  0  0
  -30.0334  -25.1662   18.4363 C   0  0  0  0  0  0  0  0  0  0  0  0
  -22.0535   -9.6308   20.6973 C   0  0  0  0  0  0  0  0  0  0  0  0
  -24.2059   -9.8733   21.7674 C   0  0  0  0  0  0  0  0  0  0  0  0
  -29.0874  -24.2719   18.9373 C   0  0  0  0  0  0  0  0  0  0  0  0
  -26.0993  -16.9519   21.3330 C   0  0  0  0  0  0  0  0  0  0  0  0
  -26.6180  -19.0033   21.9309 C   0  0  0  0  0  0  0  0  0  0  0  0
  -27.9043  -17.2357   23.1431 C   0  0  0  0  0  0  0  0  0  0  0  0
  -24.7369  -25.8147   22.4904 C   0  0  0  0  0  0  0  0  0  0  0  0
  -23.8728  -28.9354   22.6822 C   0  0  0  0  0  0  0  0  0  0  0  0
  -24.8299  -32.2112   22.6953 C   0  0  0  0  0  0  0  0  0  0  0  0
  -25.5384  -23.1329   18.3553 C   0  0  0  0  0  0  0  0  0  0  0  0
  -20.1279  -23.8763   21.4624 C   0  0  0  0  0  0  0  0  0  0  0  0
  -26.2734  -26.6517   24.3055 C   0  0  0  0  0  0  0  0  0  0  0  0
  -26.2462  -28.4635   21.9685 C   0  0  0  0  0  0  0  0  0  0  0  0
  -20.9484  -25.0637   20.9655 C   0  0  0  0  0  0  0  0  0  0  0  0
  -22.8242  -21.0071   19.2450 C   0  0  0  0  0  0  0  0  0  0  0  0
  -22.3648  -24.6226   20.6104 C   0  0  0  0  0  0  0  0  0  0  0  0
  -23.5029  -19.8235   19.9382 C   0  0  0  0  0  0  0  0  0  0  0  0
  -23.6567  -21.5338   18.0774 C   0  0  0  0  0  0  0  0  0  0  0  0
  -25.7284  -20.6781   19.0995 C   0  0  0  0  0  0  0  0  0  0  0  0
  -23.0931  -24.0642   21.8390 C   0  0  1  0  0  0  0  0  0  0  0  0
  -25.0043  -26.8989   23.4957 C   0  0  1  0  0  0  0  0  0  0  0  0
  -24.9583  -20.1545   20.3227 C   0  0  2  0  0  0  0  0  0  0  0  0
  -28.1023  -26.7956   15.6224 C   0  0  0  0  0  0  0  0  0  0  0  0
  -23.8949  -34.5361   22.8282 C   0  0  0  0  0  0  0  0  0  0  0  0
  -22.9599  -28.7317   19.7779 C   0  0  0  0  0  0  0  0  0  0  0  0
  -22.9387  -31.2334   19.6819 C   0  0  0  0  0  0  0  0  0  0  0  0
  -21.4277  -30.0348   21.2640 C   0  0  0  0  0  0  0  0  0  0  0  0
  -26.3129  -32.7898   25.1903 C   0  0  0  0  0  0  0  0  0  0  0  0
  -32.8185  -26.7290   20.1227 C   0  0  0  0  0  0  0  0  0  0  0  0
  -32.0348  -26.6667   21.4244 C   0  0  0  0  0  0  0  0  0  1  0  0
  -31.9235  -26.5298   18.9097 C   0  0  0  0  0  0  0  0  0  0  0  0
  -23.9094  -30.1147   21.7404 C   0  0  1  0  0  0  0  0  0  0  0  0
  -24.4636  -33.3640   23.6126 C   0  0  2  0  0  0  0  0  0  0  0  0
  -22.8326  -30.0146   20.6233 C   0  0  0  0  0  0  0  0  0  0  0  0
  -25.3142  -17.7280   20.5813 N   0  0  0  0  0  0  0  0  0  0  0  0
  -25.6527  -18.9698   20.9679 N   0  0  0  0  0  0  0  0  0  0  0  0
  -25.0411  -28.1642   22.7595 N   0  0  0  0  0  0  0  0  0  0  0  0
  -25.0218  -21.8299   18.5174 N   0  0  0  0  0  0  0  0  0  0  0  0
  -27.0755  -20.1700   22.4328 N   0  0  0  0  0  0  0  0  0  0  0  0
  -28.1022  -15.8556   23.2857 N   0  0  0  0  0  0  0  0  0  0  0  0
  -26.8346  -23.3036   18.8404 N   0  0  0  0  0  0  0  0  0  0  0  0
  -23.5464  -25.1425   22.6912 N   0  0  0  0  0  0  0  0  0  0  0  0
  -23.7964  -31.3066   22.5742 N   0  0  0  0  0  0  0  0  0  0  0  0
  -25.6654  -33.8355   24.3572 N   0  3  0  0  0  0  0  0  0  0  0  0
  -28.5653  -18.0277   23.8567 O   0  0  0  0  0  0  0  0  0  0  0  0
  -25.5497  -25.6047   21.5977 O   0  0  0  0  0  0  0  0  0  0  0  0
  -22.8478  -28.7111   23.3309 O   0  0  0  0  0  0  0  0  0  0  0  0
  -25.9223  -32.1240   22.1388 O   0  0  0  0  0  0  0  0  0  0  0  0
  -24.8695  -24.0380   17.8500 O   0  0  0  0  0  0  0  0  0  0  0  0
  -25.8374  -11.3874   20.8483 O   0  0  0  0  0  0  0  0  0  0  0  0
  -31.0507  -27.6999   21.4471 O   0  0  0  0  0  0  0  0  0  1  0  0
  -31.2866  -25.2614   18.9832 O   0  0  0  0  0  0  0  0  0  0  0  0
  -20.8385   -9.0689   20.6493 F   0  0  0  0  0  0  0  0  0  0  0  0
  -25.0542   -9.5397   22.7497 F   0  0  0  0  0  0  0  0  0  0  0  0
  -29.5009  -23.2574   20.2793 Cl  0  0  0  0  0  0  0  0  0  0  0  0
  1  2  1  0  0  0  0
  1  5  2  0  0  0  0
  2  6  2  0  0  0  0
  3  8  2  0  0  0  0
  3 17  1  0  0  0  0
  4  9  1  0  0  0  0
  4 17  2  0  0  0  0
  5 19  1  0  0  0  0
  6 21  1  0  0  0  0
  7 10  2  0  0  0  0
  7 20  1  0  0  0  0
  8 25  1  0  0  0  0
  9 25  2  0  0  0  0
 10 26  1  0  0  0  0
 11 12  2  0  0  0  0
 11 27  1  0  0  0  0
 12 29  1  0  0  0  0
 13 22  1  0  0  0  0
 13 26  2  0  0  0  0
 14 23  1  0  0  0  0
 14 24  2  0  0  0  0
 15 23  2  0  0  0  0
 15 28  1  0  0  0  0
 16 29  2  0  0  0  0
 16 30  1  0  0  0  0
 17 32  1  0  0  0  0
 18 32  1  0  0  0  0
 18 33  2  0  0  0  0
 18 34  1  0  0  0  0
 19 21  2  0  0  0  0
 19 39  1  0  0  0  0
 20 22  2  0  0  0  0
 20 40  1  0  0  0  0
 21 48  1  0  0  0  0
 22 41  1  0  0  0  0
 23 51  1  0  0  0  0
 24 31  1  0  0  0  0
 24 69  1  0  0  0  0
 25 78  1  0  0  0  0
 26 79  1  0  0  0  0
 27 30  2  0  0  0  0
 27 78  1  0  0  0  0
 28 31  2  0  0  0  0
 28 80  1  0  0  0  0
 29 81  1  0  0  0  0
 30 82  1  0  0  0  0
 31 83  1  0  0  0  0
 32 63  2  0  0  0  0
 33 64  1  0  0  0  0
 33 67  1  0  0  0  0
 34 68  1  0  0  0  0
 34 73  2  0  0  0  0
 35 49  1  0  0  0  0
 35 70  1  0  0  0  0
 35 74  2  0  0  0  0
 36 60  1  0  0  0  0
 36 65  1  0  0  0  0
 36 75  2  0  0  0  0
 37 61  1  0  0  0  0
 37 71  1  0  0  0  0
 37 76  2  0  0  0  0
 38 66  1  0  0  0  0
 38 69  1  0  0  0  0
 38 77  2  0  0  0  0
 39 42  1  0  0  0  0
 40 49  1  0  0  0  0
 41 65  1  0  0  0  0
 42 44  1  0  0  0  0
 43 45  1  0  0  0  0
 43 46  1  0  0  0  0
 44 48  1  0  0  0  0
 45 50  1  0  0  0  0
 46 66  1  0  0  0  0
 47 50  1  0  0  0  0
 47 66  1  0  0  0  0
 48 70  1  0  0  0  0
 49 65  1  0  0  0  0
 50 64  1  0  0  0  0
 52 61  1  0  0  0  0
 53 62  1  0  0  0  0
 54 62  1  0  0  0  0
 55 62  1  0  0  0  0
 56 72  1  0  0  0  0
 57 58  1  0  0  0  0
 57 59  1  0  0  0  0
 58 79  1  0  0  0  0
 59 80  1  0  0  0  0
 60 62  1  0  0  0  0
 60 71  1  0  0  0  0
 61 72  1  0  0  0  0
 63 64  1  0  0  0  0
M  CHG  1  72   1
M  ISO  4  38 100  58 101  69 100  79 101
M  END
> <Batch ID>
0023

> <Smiles>
CNC(C)C(=O)NC(C(=O)N1Cc2cc([101O:1][101CH2:1]CCOc3cc(C)cc([100NH:0][100C:0](=O)N4CCCC(n5nc(-c6ccc(Oc7ccc(F)cc7F)cc6)c(C(N)=O)c5N)C4)c3Cl)ccc2CC1C(=O)NC1CCCc2ccccc21)C(C)(C)C

> <Shape>
0.199

> <Color>
0.068

> <Negative vol penalty>
0.000

$$$$

  -OEChem-04052316193D

 87 95  0     1  0  0  0  0  0999 V2000
  -26.0979  -27.5272   14.7977 C   0  0  0  0  0  0  0  0  0  0  0  0
  -25.9958  -26.1447   14.6806 C   0  0  0  0  0  0  0  0  0  0  0  0
  -26.8916  -25.7964   22.9888 C   0  0  0  0  0  0  0  0  0  0  0  0
  -28.8954  -25.1505   24.1740 C   0  0  0  0  0  0  0  0  0  0  0  0
  -25.9087  -28.1365   16.0374 C   0  0  0  0  0  0  0  0  0  0  0  0
  -25.7054  -25.3705   15.8035 C   0  0  0  0  0  0  0  0  0  0  0  0
  -22.2877  -19.3729   17.7176 C   0  0  0  0  0  0  0  0  0  0  0  0
  -26.6104  -26.7389   23.9778 C   0  0  0  0  0  0  0  0  0  0  0  0
  -28.6142  -26.0930   25.1630 C   0  0  0  0  0  0  0  0  0  0  0  0
  -22.5027  -18.1883   18.4207 C   0  0  0  0  0  0  0  0  0  0  0  0
  -25.5548  -29.5652   26.0058 C   0  0  0  0  0  0  0  0  0  0  0  0
  -25.1533  -30.8362   25.5950 C   0  0  0  0  0  0  0  0  0  0  0  0
  -22.1175  -19.3570   20.4956 C   0  0  0  0  0  0  0  0  0  0  0  0
  -28.1786  -11.3828   19.5522 C   0  0  0  0  0  0  0  0  0  0  0  0
  -27.2439  -31.1157   24.4166 C   0  0  0  0  0  0  0  0  0  0  0  0
  -28.0341  -25.0021   23.0869 C   0  0  0  0  0  0  0  0  0  0  0  0
  -29.0810  -24.2239   20.8946 C   0  0  0  0  0  0  0  0  0  0  0  0
  -25.6063  -27.3703   17.1742 C   0  0  0  0  0  0  0  0  0  0  0  0
  -21.9962  -20.5627   18.4000 C   0  0  0  0  0  0  0  0  0  0  0  0
  -25.5133  -25.9700   17.0598 C   0  0  0  0  0  0  0  0  0  0  0  0
  -21.8967  -20.5548   19.7987 C   0  0  0  0  0  0  0  0  0  0  0  0
  -29.2836  -11.6468   20.3615 C   0  0  0  0  0  0  0  0  0  0  0  0
  -27.6582  -12.3854   18.7338 C   0  0  0  0  0  0  0  0  0  0  0  0
  -29.3476  -13.9158   19.5341 C   0  0  0  0  0  0  0  0  0  0  0  0
  -27.4717  -26.8872   25.0649 C   0  0  0  0  0  0  0  0  0  0  0  0
  -22.4205  -18.1808   19.8100 C   0  0  0  0  0  0  0  0  0  0  0  0
  -26.8009  -29.0694   25.6221 C   0  0  0  0  0  0  0  0  0  0  0  0
  -25.9978  -31.6115   24.8004 C   0  0  0  0  0  0  0  0  0  0  0  0
  -27.6454  -29.8446   24.8275 C   0  0  0  0  0  0  0  0  0  0  0  0
  -29.8681  -12.9133   20.3525 C   0  0  0  0  0  0  0  0  0  0  0  0
  -28.2426  -13.6518   18.7248 C   0  0  0  0  0  0  0  0  0  0  0  0
  -28.3249  -24.0280   22.0658 C   0  0  0  0  0  0  0  0  0  0  0  0
  -29.0610  -23.0034   20.2649 C   0  0  0  0  0  0  0  0  0  0  0  0
  -29.7423  -25.4036   20.4185 C   0  0  0  0  0  0  0  0  0  0  0  0
  -23.4117  -23.3955   18.6748 C   0  0  0  0  0  0  0  0  0  0  0  0
  -20.7051  -24.1553   20.2933 C   0  0  0  0  0  0  0  0  0  0  0  0
  -18.0246  -23.0902   22.1174 C   0  0  0  0  0  0  0  0  0  0  0  0
  -29.5978  -17.5597   20.4234 C   0  0  0  0  0  0  0  0  0  0  0  0
  -25.4569  -28.0694   18.5022 C   0  0  0  0  0  0  0  0  0  0  0  0
  -21.7406  -21.8265   17.6254 C   0  0  0  0  0  0  0  0  0  0  0  0
  -21.5666  -21.8010   20.5773 C   0  0  0  0  0  0  0  0  0  0  0  0
  -24.7825  -27.2115   19.5697 C   0  0  0  0  0  0  0  0  0  0  0  0
  -26.3100  -18.8611   21.1943 C   0  0  0  0  0  0  0  0  0  0  0  0
  -25.3880  -25.8116   19.5906 C   0  0  0  0  0  0  0  0  0  0  0  0
  -26.6103  -20.3478   21.3935 C   0  0  0  0  0  0  0  0  0  0  0  0
  -27.4374  -17.9911   21.7423 C   0  0  0  0  0  0  0  0  0  0  0  0
  -29.0854  -19.7875   21.3810 C   0  0  0  0  0  0  0  0  0  0  0  0
  -25.1753  -25.0984   18.2499 C   0  0  1  0  0  0  0  0  0  0  0  0
  -21.9575  -23.0892   18.4536 C   0  0  1  0  0  0  0  0  0  0  0  0
  -27.9933  -20.7208   20.8274 C   0  0  2  0  0  0  0  0  0  0  0  0
  -29.8082  -10.5411   21.2205 C   0  0  0  0  0  0  0  0  0  0  0  0
  -16.0054  -23.9474   23.3362 C   0  0  0  0  0  0  0  0  0  0  0  0
  -22.4878  -25.0836   22.5890 C   0  0  0  0  0  0  0  0  0  0  0  0
  -20.4787  -25.0223   24.0817 C   0  0  0  0  0  0  0  0  0  0  0  0
  -20.5290  -26.5671   22.1237 C   0  0  0  0  0  0  0  0  0  0  0  0
  -16.1808  -21.5811   20.3620 C   0  0  0  0  0  0  0  0  0  0  0  0
  -26.4645  -12.0526   17.8746 C   0  0  0  0  0  0  0  0  0  0  0  0
  -29.9746  -15.2775   19.5255 C   0  0  0  0  0  0  0  0  0  0  0  0
  -25.1340  -12.0519   18.6360 C   0  0  0  0  0  0  0  0  0  0  0  0
  -24.8002  -13.4110   19.2612 C   0  0  0  0  0  0  0  0  0  0  0  0
  -23.4513  -13.3699   19.9840 C   0  0  0  0  0  0  0  0  0  0  0  0
  -23.1009  -14.6825   20.6856 C   0  0  0  0  0  0  0  0  0  0  0  0
  -22.9310  -15.8593   19.7342 C   0  0  0  0  0  0  0  0  0  1  0  0
  -20.2660  -24.0827   21.7358 C   0  0  1  0  0  0  0  0  0  0  0  0
  -16.5452  -23.4153   22.0177 C   0  0  2  0  0  0  0  0  0  0  0  0
  -20.9486  -25.1657   22.6183 C   0  0  0  0  0  0  0  0  0  0  0  0
  -27.8584  -22.7813   22.1759 N   0  0  0  0  0  0  0  0  0  0  0  0
  -28.3227  -22.1828   21.0658 N   0  0  0  0  0  0  0  0  0  0  0  0
  -21.3313  -23.0129   19.7751 N   0  0  0  0  0  0  0  0  0  0  0  0
  -28.7234  -18.3852   21.1497 N   0  0  0  0  0  0  0  0  0  0  0  0
  -29.6032  -22.5630   19.1097 N   0  0  0  0  0  0  0  0  0  0  0  0
  -29.6621  -26.5715   21.1891 N   0  0  0  0  0  0  0  0  0  0  0  0
  -23.8179  -24.6070   18.1486 N   0  0  0  0  0  0  0  0  0  0  0  0
  -18.8089  -24.1535   21.7230 N   0  0  0  0  0  0  0  0  0  0  0  0
  -29.1842  -16.2439   20.2551 N   0  0  0  0  0  0  0  0  0  0  0  0
  -15.7706  -22.1963   21.6505 N   0  3  0  0  0  0  0  0  0  0  0  0
  -30.3715  -25.4259   19.3336 O   0  0  0  0  0  0  0  0  0  0  0  0
  -24.1130  -22.5929   19.2796 O   0  0  0  0  0  0  0  0  0  0  0  0
  -20.4937  -25.1851   19.6479 O   0  0  0  0  0  0  0  0  0  0  0  0
  -18.4428  -22.0031   22.5097 O   0  0  0  0  0  0  0  0  0  0  0  0
  -30.6663  -17.9668   19.9546 O   0  0  0  0  0  0  0  0  0  0  0  0
  -27.1977  -27.8069   26.0301 O   0  0  0  0  0  0  0  0  0  0  0  0
  -22.6306  -17.0261   20.4988 O   0  0  0  0  0  0  0  0  0  1  0  0
  -25.6115  -32.8315   24.4047 F   0  0  0  0  0  0  0  0  0  0  0  0
  -28.8431  -29.3732   24.4547 F   0  0  0  0  0  0  0  0  0  0  0  0
  -31.2408  -13.2333   21.3605 Cl  0  0  0  0  0  0  0  0  0  0  0  0
  -27.5905  -14.8929   17.7056 Cl  0  0  0  0  0  0  0  0  0  0  0  0
  1  2  1  0  0  0  0
  1  5  2  0  0  0  0
  2  6  2  0  0  0  0
  3  8  2  0  0  0  0
  3 16  1  0  0  0  0
  4  9  1  0  0  0  0
  4 16  2  0  0  0  0
  5 18  1  0  0  0  0
  6 20  1  0  0  0  0
  7 10  2  0  0  0  0
  7 19  1  0  0  0  0
  8 25  1  0  0  0  0
  9 25  2  0  0  0  0
 10 26  1  0  0  0  0
 11 12  2  0  0  0  0
 11 27  1  0  0  0  0
 12 28  1  0  0  0  0
 13 21  1  0  0  0  0
 13 26  2  0  0  0  0
 14 22  2  0  0  0  0
 14 23  1  0  0  0  0
 15 28  2  0  0  0  0
 15 29  1  0  0  0  0
 16 32  1  0  0  0  0
 17 32  1  0  0  0  0
 17 33  2  0  0  0  0
 17 34  1  0  0  0  0
 18 20  2  0  0  0  0
 18 39  1  0  0  0  0
 19 21  2  0  0  0  0
 19 40  1  0  0  0  0
 20 48  1  0  0  0  0
 21 41  1  0  0  0  0
 22 30  1  0  0  0  0
 22 51  1  0  0  0  0
 23 31  2  0  0  0  0
 23 57  1  0  0  0  0
 24 30  2  0  0  0  0
 24 31  1  0  0  0  0
 24 58  1  0  0  0  0
 25 82  1  0  0  0  0
 26 83  1  0  0  0  0
 27 29  2  0  0  0  0
 27 82  1  0  0  0  0
 28 84  1  0  0  0  0
 29 85  1  0  0  0  0
 30 86  1  0  0  0  0
 31 87  1  0  0  0  0
 32 67  2  0  0  0  0
 33 68  1  0  0  0  0
 33 71  1  0  0  0  0
 34 72  1  0  0  0  0
 34 77  2  0  0  0  0
 35 49  1  0  0  0  0
 35 73  1  0  0  0  0
 35 78  2  0  0  0  0
 36 64  1  0  0  0  0
 36 69  1  0  0  0  0
 36 79  2  0  0  0  0
 37 65  1  0  0  0  0
 37 74  1  0  0  0  0
 37 80  2  0  0  0  0
 38 70  1  0  0  0  0
 38 75  1  0  0  0  0
 38 81  2  0  0  0  0
 39 42  1  0  0  0  0
 40 49  1  0  0  0  0
 41 69  1  0  0  0  0
 42 44  1  0  0  0  0
 43 45  1  0  0  0  0
 43 46  1  0  0  0  0
 44 48  1  0  0  0  0
 45 50  1  0  0  0  0
 46 70  1  0  0  0  0
 47 50  1  0  0  0  0
 47 70  1  0  0  0  0
 48 73  1  0  0  0  0
 49 69  1  0  0  0  0
 50 68  1  0  0  0  0
 52 65  1  0  0  0  0
 53 66  1  0  0  0  0
 54 66  1  0  0  0  0
 55 66  1  0  0  0  0
 56 76  1  0  0  0  0
 57 59  1  0  0  0  0
 58 75  1  0  0  0  0
 59 60  1  0  0  0  0
 60 61  1  0  0  0  0
 61 62  1  0  0  0  0
 62 63  1  0  0  0  0
 63 83  1  0  0  0  0
 64 66  1  0  0  0  0
 64 74  1  0  0  0  0
 65 76  1  0  0  0  0
 67 68  1  0  0  0  0
M  CHG  1  76   1
M  ISO  4  38 100  63 101  75 100  83 101
M  END
> <Batch ID>
0023

> <Smiles>
CNC(C)C(=O)NC(C(=O)N1Cc2cc([101O:1][101CH2:1]CCCCCc3cc(C)c(Cl)c(C[100NH:0][100C:0](=O)N4CCCC(n5nc(-c6ccc(Oc7ccc(F)cc7F)cc6)c(C(N)=O)c5N)C4)c3Cl)ccc2CC1C(=O)NC1CCCc2ccccc21)C(C)(C)C

> <Shape>
0.195

> <Color>
0.060

> <Negative vol penalty>
0.000

$$$$

  -OEChem-04052316193D

 88 96  0     1  0  0  0  0  0999 V2000
  -20.4682  -23.3608   22.7918 C   0  0  0  0  0  0  0  0  0  0  0  0
  -21.8260  -23.6262   22.9375 C   0  0  0  0  0  0  0  0  0  0  0  0
  -27.0021  -12.9157   21.1178 C   0  0  0  0  0  0  0  0  0  0  0  0
  -26.6530  -13.5059   18.8011 C   0  0  0  0  0  0  0  0  0  0  0  0
  -19.6233  -24.3307   22.2537 C   0  0  0  0  0  0  0  0  0  0  0  0
  -22.3400  -24.8613   22.5442 C   0  0  0  0  0  0  0  0  0  0  0  0
  -25.5375  -26.8096   25.9538 C   0  0  0  0  0  0  0  0  0  0  0  0
  -26.2911  -11.7316   20.9233 C   0  0  0  0  0  0  0  0  0  0  0  0
  -25.9420  -12.3217   18.6066 C   0  0  0  0  0  0  0  0  0  0  0  0
  -26.8305  -26.2893   25.9842 C   0  0  0  0  0  0  0  0  0  0  0  0
  -23.0563  -10.7768   20.7018 C   0  0  0  0  0  0  0  0  0  0  0  0
  -22.1109  -10.4238   21.6647 C   0  0  0  0  0  0  0  0  0  0  0  0
  -27.6159  -28.1830   24.7128 C   0  0  0  0  0  0  0  0  0  0  0  0
  -23.3114   -8.3708   22.0907 C   0  0  0  0  0  0  0  0  0  0  0  0
  -27.1830  -13.8029   20.0567 C   0  0  0  0  0  0  0  0  0  0  0  0
  -29.3018  -15.2230   20.0982 C   0  0  0  0  0  0  0  0  0  0  0  0
  -20.1256  -25.5818   21.8626 C   0  0  0  0  0  0  0  0  0  0  0  0
  -25.2715  -28.0171   25.2922 C   0  0  0  0  0  0  0  0  0  0  0  0
  -21.5013  -25.8483   21.9992 C   0  0  0  0  0  0  0  0  0  0  0  0
  -26.3191  -28.7178   24.6777 C   0  0  0  0  0  0  0  0  0  0  0  0
  -28.1853  -24.0004   19.3203 C   0  0  0  0  0  0  0  0  0  0  0  0
  -26.8897  -23.9829   18.7475 C   0  0  0  0  0  0  0  0  0  0  0  0
  -25.7610  -11.4346   19.6677 C   0  0  0  0  0  0  0  0  0  0  0  0
  -27.8695  -26.9745   25.3612 C   0  0  0  0  0  0  0  0  0  0  0  0
  -24.1292   -9.9268   20.4333 C   0  0  0  0  0  0  0  0  0  0  0  0
  -22.2385   -9.2209   22.3592 C   0  0  0  0  0  0  0  0  0  0  0  0
  -24.2567   -8.7238   21.1277 C   0  0  0  0  0  0  0  0  0  0  0  0
  -27.9169  -15.0266   20.2571 C   0  0  0  0  0  0  0  0  0  0  0  0
  -28.2194  -25.0349   20.2291 C   0  0  0  0  0  0  0  0  0  0  0  0
  -26.1714  -25.0075   19.3236 C   0  0  0  0  0  0  0  0  0  0  0  0
  -29.4982  -16.5473   20.4051 C   0  0  0  0  0  0  0  0  0  0  0  0
  -30.3197  -14.2917   19.7080 C   0  0  0  0  0  0  0  0  0  0  0  0
  -23.4625  -28.8700   22.8217 C   0  0  0  0  0  0  0  0  0  0  0  0
  -25.8144  -21.2923   20.2452 C   0  0  0  0  0  0  0  0  0  0  0  0
  -24.3794  -31.8602   23.6821 C   0  0  0  0  0  0  0  0  0  0  0  0
  -26.6655  -33.8511   25.2495 C   0  0  0  0  0  0  0  0  0  0  0  0
  -19.1817  -26.5813   21.2423 C   0  0  0  0  0  0  0  0  0  0  0  0
  -23.8760  -28.5785   25.2915 C   0  0  0  0  0  0  0  0  0  0  0  0
  -26.0898  -30.0282   23.9715 C   0  0  0  0  0  0  0  0  0  0  0  0
  -19.7411  -28.0009   21.1975 C   0  0  0  0  0  0  0  0  0  0  0  0
  -27.6956  -20.0935   23.0495 C   0  0  0  0  0  0  0  0  0  0  0  0
  -21.1761  -27.9932   20.6802 C   0  0  0  0  0  0  0  0  0  0  0  0
  -28.0672  -18.6664   22.6488 C   0  0  0  0  0  0  0  0  0  0  0  0
  -26.3156  -20.4791   22.5260 C   0  0  0  0  0  0  0  0  0  0  0  0
  -26.5279  -18.8838   20.6467 C   0  0  0  0  0  0  0  0  0  0  0  0
  -22.0923  -27.1852   21.6072 C   0  0  1  0  0  0  0  0  0  0  0  0
  -23.6262  -29.5569   24.1479 C   0  0  1  0  0  0  0  0  0  0  0  0
  -27.9278  -18.4648   21.1295 C   0  0  2  0  0  0  0  0  0  0  0  0
  -29.2994  -23.0812   19.0058 C   0  0  0  0  0  0  0  0  0  0  0  0
  -24.7754  -25.4408   19.0972 C   0  0  0  0  0  0  0  0  0  0  0  0
  -27.1640  -36.2582   25.7541 C   0  0  0  0  0  0  0  0  0  0  0  0
  -32.0162  -24.5616   22.6886 C   0  0  0  0  0  0  0  0  0  0  0  0
  -24.7601  -21.8284   16.6129 C   0  0  0  0  0  0  0  0  0  0  0  0
  -25.3059  -32.2691   20.8038 C   0  0  0  0  0  0  0  0  0  0  0  0
  -26.6196  -34.2531   21.5821 C   0  0  0  0  0  0  0  0  0  0  0  0
  -24.1358  -34.2358   21.8125 C   0  0  0  0  0  0  0  0  0  0  0  0
  -26.6134  -26.7745   21.0399 C   0  0  0  0  0  0  0  0  0  0  0  0
  -26.5317  -33.3873   28.1695 C   0  0  0  0  0  0  0  0  0  0  0  0
  -29.3397  -25.5089   21.1212 C   0  0  0  0  0  0  0  0  0  0  0  0
  -25.7396  -20.9833   18.7711 C   0  0  0  0  0  0  0  0  0  0  0  0
  -29.5229  -24.6703   22.3937 C   0  0  0  0  0  0  0  0  0  0  0  0
  -30.5691  -24.6541   24.7663 C   0  0  0  0  0  0  0  0  0  0  0  0
  -29.2622  -25.0485   25.4448 C   0  0  0  0  0  0  0  0  0  1  0  0
  -25.5313  -32.7690   23.3268 C   0  0  1  0  0  0  0  0  0  0  0  0
  -26.4993  -34.9826   26.2478 C   0  0  2  0  0  0  0  0  0  0  0  0
  -30.7073  -25.0833   23.2934 C   0  0  1  0  0  0  0  0  0  0  0  0
  -25.2994  -22.2180   17.9850 C   0  0  1  0  0  0  0  0  0  0  0  0
  -25.4024  -33.3561   21.8928 C   0  0  0  0  0  0  0  0  0  0  0  0
  -27.2787  -16.1372   20.6356 N   0  0  0  0  0  0  0  0  0  0  0  0
  -26.9899  -25.6403   20.2224 N   0  0  0  0  0  0  0  0  0  0  0  0
  -28.2670  -17.0442   20.7173 N   0  0  0  0  0  0  0  0  0  0  0  0
  -24.7069  -30.5328   23.9928 N   0  0  0  0  0  0  0  0  0  0  0  0
  -26.2163  -20.2520   21.0831 N   0  0  0  0  0  0  0  0  0  0  0  0
  -30.6023  -17.3235   20.4357 N   0  0  0  0  0  0  0  0  0  0  0  0
  -29.9448  -12.9704   19.4287 N   0  0  0  0  0  0  0  0  0  0  0  0
  -26.4356  -23.1234   17.8097 N   0  0  0  0  0  0  0  0  0  0  0  0
  -22.4263  -27.9564   22.7853 N   0  0  0  0  0  0  0  0  0  0  0  0
  -25.5974  -33.7754   24.3808 N   0  0  0  0  0  0  0  0  0  0  0  0
  -27.1077  -34.6120   27.5568 N   0  3  0  0  0  0  0  0  0  0  0  0
  -31.5283  -14.6174   19.6259 O   0  0  0  0  0  0  0  0  0  0  0  0
  -24.2191  -29.1493   21.8991 O   0  0  0  0  0  0  0  0  0  0  0  0
  -25.5266  -22.4260   20.6380 O   0  0  0  0  0  0  0  0  0  0  0  0
  -23.2321  -32.3132   23.6908 O   0  0  0  0  0  0  0  0  0  0  0  0
  -27.6466  -33.1109   25.2389 O   0  0  0  0  0  0  0  0  0  0  0  0
  -25.0674  -10.2790   19.4775 O   0  0  0  0  0  0  0  0  0  0  0  0
  -29.1325  -26.4685   25.3887 O   0  0  0  0  0  0  0  0  0  1  0  0
  -21.3314   -8.8827   23.2850 F   0  0  0  0  0  0  0  0  0  0  0  0
  -25.2859   -7.9037   20.8749 F   0  0  0  0  0  0  0  0  0  0  0  0
  1  2  1  0  0  0  0
  1  5  2  0  0  0  0
  2  6  2  0  0  0  0
  3  8  2  0  0  0  0
  3 15  1  0  0  0  0
  4  9  1  0  0  0  0
  4 15  2  0  0  0  0
  5 17  1  0  0  0  0
  6 19  1  0  0  0  0
  7 10  2  0  0  0  0
  7 18  1  0  0  0  0
  8 23  1  0  0  0  0
  9 23  2  0  0  0  0
 10 24  1  0  0  0  0
 11 12  2  0  0  0  0
 11 25  1  0  0  0  0
 12 26  1  0  0  0  0
 13 20  1  0  0  0  0
 13 24  2  0  0  0  0
 14 26  2  0  0  0  0
 14 27  1  0  0  0  0
 15 28  1  0  0  0  0
 16 28  1  0  0  0  0
 16 31  2  0  0  0  0
 16 32  1  0  0  0  0
 17 19  2  0  0  0  0
 17 37  1  0  0  0  0
 18 20  2  0  0  0  0
 18 38  1  0  0  0  0
 19 46  1  0  0  0  0
 20 39  1  0  0  0  0
 21 22  1  0  0  0  0
 21 29  2  0  0  0  0
 21 49  1  0  0  0  0
 22 30  2  0  0  0  0
 22 76  1  0  0  0  0
 23 85  1  0  0  0  0
 24 86  1  0  0  0  0
 25 27  2  0  0  0  0
 25 85  1  0  0  0  0
 26 87  1  0  0  0  0
 27 88  1  0  0  0  0
 28 69  2  0  0  0  0
 29 59  1  0  0  0  0
 29 70  1  0  0  0  0
 30 50  1  0  0  0  0
 30 70  1  0  0  0  0
 31 71  1  0  0  0  0
 31 74  1  0  0  0  0
 32 75  1  0  0  0  0
 32 80  2  0  0  0  0
 33 47  1  0  0  0  0
 33 77  1  0  0  0  0
 33 81  2  0  0  0  0
 34 60  1  0  0  0  0
 34 73  1  0  0  0  0
 34 82  2  0  0  0  0
 35 64  1  0  0  0  0
 35 72  1  0  0  0  0
 35 83  2  0  0  0  0
 36 65  1  0  0  0  0
 36 78  1  0  0  0  0
 36 84  2  0  0  0  0
 37 40  1  0  0  0  0
 38 47  1  0  0  0  0
 39 72  1  0  0  0  0
 40 42  1  0  0  0  0
 41 43  1  0  0  0  0
 41 44  1  0  0  0  0
 42 46  1  0  0  0  0
 43 48  1  0  0  0  0
 44 73  1  0  0  0  0
 45 48  1  0  0  0  0
 45 73  1  0  0  0  0
 46 77  1  0  0  0  0
 47 72  1  0  0  0  0
 48 71  1  0  0  0  0
 51 65  1  0  0  0  0
 52 66  1  0  0  0  0
 53 67  1  0  0  0  0
 54 68  1  0  0  0  0
 55 68  1  0  0  0  0
 56 68  1  0  0  0  0
 57 70  1  0  0  0  0
 58 79  1  0  0  0  0
 59 61  1  0  0  0  0
 60 67  1  0  0  0  0
 61 66  1  0  0  0  0
 62 63  1  0  0  0  0
 62 66  1  0  0  0  0
 63 86  1  0  0  0  0
 64 68  1  0  0  0  0
 64 78  1  0  0  0  0
 65 79  1  0  0  0  0
 67 76  1  0  0  0  0
 69 71  1  0  0  0  0
M  CHG  1  79   1
M  ISO  4  34 100  60 100  63 101  86 101
M  END
> <Batch ID>
0023

> <Smiles>
CNC(C)C(=O)NC(C(=O)N1Cc2cc([101O:1][101CH2:1]CC(C)CCc3c(C)c(NC(C)[100CH2:0][100C:0](=O)N4CCCC(n5nc(-c6ccc(Oc7ccc(F)cc7F)cc6)c(C(N)=O)c5N)C4)c(C)n3C)ccc2CC1C(=O)NC1CCCc2ccccc21)C(C)(C)C

> <Shape>
0.233

> <Color>
0.085

> <Negative vol penalty>
0.000

$$$$

  -OEChem-04052316193D

 95103  0     1  0  0  0  0  0999 V2000
  -33.4336  -28.2285   16.8247 C   0  0  0  0  0  0  0  0  0  0  0  0
  -32.3864  -27.4257   17.2656 C   0  0  0  0  0  0  0  0  0  0  0  0
  -22.9882  -10.0131   19.9888 C   0  0  0  0  0  0  0  0  0  0  0  0
  -24.0750   -9.8262   22.1384 C   0  0  0  0  0  0  0  0  0  0  0  0
  -33.8195  -29.3410   17.5711 C   0  0  0  0  0  0  0  0  0  0  0  0
  -31.7252  -27.7345   18.4538 C   0  0  0  0  0  0  0  0  0  0  0  0
  -26.6912  -27.3924   18.0215 C   0  0  0  0  0  0  0  0  0  0  0  0
  -22.2876   -8.8335   20.2404 C   0  0  0  0  0  0  0  0  0  0  0  0
  -23.3744   -8.6466   22.3901 C   0  0  0  0  0  0  0  0  0  0  0  0
  -26.1349  -26.1144   18.0525 C   0  0  0  0  0  0  0  0  0  0  0  0
  -20.2680   -7.7601   23.3826 C   0  0  0  0  0  0  0  0  0  0  0  0
  -19.6902   -7.6077   24.6429 C   0  0  0  0  0  0  0  0  0  0  0  0
  -25.5435  -26.4345   20.3692 C   0  0  0  0  0  0  0  0  0  0  0  0
  -30.8349  -19.7675   21.0625 C   0  0  0  0  0  0  0  0  0  0  0  0
  -31.2079  -18.7994   18.4729 C   0  0  0  0  0  0  0  0  0  0  0  0
  -21.0237   -5.6276   25.0148 C   0  0  0  0  0  0  0  0  0  0  0  0
  -23.8820  -10.5094   20.9377 C   0  0  0  0  0  0  0  0  0  0  0  0
  -24.2055  -13.0391   20.9952 C   0  0  0  0  0  0  0  0  0  0  0  0
  -33.1564  -29.6691   18.7641 C   0  0  0  0  0  0  0  0  0  0  0  0
  -26.6876  -28.1982   19.1691 C   0  0  0  0  0  0  0  0  0  0  0  0
  -32.1035  -28.8517   19.2176 C   0  0  0  0  0  0  0  0  0  0  0  0
  -26.0982  -27.7234   20.3494 C   0  0  0  0  0  0  0  0  0  0  0  0
  -31.3736  -18.4963   20.8641 C   0  0  0  0  0  0  0  0  0  0  0  0
  -30.6691  -20.0706   18.6713 C   0  0  0  0  0  0  0  0  0  0  0  0
  -22.4806   -8.1503   21.4410 C   0  0  0  0  0  0  0  0  0  0  0  0
  -25.5635  -25.6341   19.2272 C   0  0  0  0  0  0  0  0  0  0  0  0
  -21.2236   -6.8462   22.9383 C   0  0  0  0  0  0  0  0  0  0  0  0
  -20.0680   -6.5415   25.4590 C   0  0  0  0  0  0  0  0  0  0  0  0
  -30.4826  -20.5547   19.9661 C   0  0  0  0  0  0  0  0  0  0  0  0
  -21.6015   -5.7800   23.7544 C   0  0  0  0  0  0  0  0  0  0  0  0
  -31.5601  -18.0122   19.5693 C   0  0  0  0  0  0  0  0  0  0  0  0
  -24.6065  -11.7275   20.6781 C   0  0  0  0  0  0  0  0  0  0  0  0
  -25.2337  -13.8308   20.5451 C   0  0  0  0  0  0  0  0  0  0  0  0
  -23.0104  -13.5006   21.6390 C   0  0  0  0  0  0  0  0  0  0  0  0
  -28.9339  -29.5012   21.0022 C   0  0  0  0  0  0  0  0  0  0  0  0
  -26.3920  -30.9118   22.4413 C   0  0  0  0  0  0  0  0  0  0  0  0
  -23.0524  -30.8428   23.1405 C   0  0  0  0  0  0  0  0  0  0  0  0
  -30.8706  -14.5531   20.4014 C   0  0  0  0  0  0  0  0  0  0  0  0
  -33.6403  -30.8546   19.5612 C   0  0  0  0  0  0  0  0  0  0  0  0
  -27.2679  -29.5847   19.1119 C   0  0  0  0  0  0  0  0  0  0  0  0
  -26.0506  -28.5568   21.6031 C   0  0  0  0  0  0  0  0  0  0  0  0
  -32.6431  -31.3272   20.6160 C   0  0  0  0  0  0  0  0  0  0  0  0
  -29.2104  -12.7502   17.6274 C   0  0  0  0  0  0  0  0  0  0  0  0
  -32.0979  -30.1409   21.4048 C   0  0  0  0  0  0  0  0  0  0  0  0
  -27.8603  -12.3740   18.2355 C   0  0  0  0  0  0  0  0  0  0  0  0
  -30.2981  -12.8686   18.6907 C   0  0  0  0  0  0  0  0  0  0  0  0
  -28.6076  -13.4253   20.4073 C   0  0  0  0  0  0  0  0  0  0  0  0
  -31.3456  -29.1681   20.4886 C   0  0  1  0  0  0  0  0  0  0  0  0
  -27.6682  -30.1220   20.4824 C   0  0  1  0  0  0  0  0  0  0  0  0
  -27.4795  -13.3433   19.3680 C   0  0  2  0  0  0  0  0  0  0  0  0
  -21.2706  -32.1120   24.3700 C   0  0  0  0  0  0  0  0  0  0  0  0
  -26.0928  -21.9274   20.3749 C   0  0  0  0  0  0  0  0  0  0  0  0
  -24.9310  -20.6081   16.8990 C   0  0  0  0  0  0  0  0  0  0  0  0
  -33.2774  -17.3243   22.0747 C   0  0  0  0  0  0  0  0  0  0  0  0
  -31.5924  -18.5067   23.4095 C   0  0  0  0  0  0  0  0  0  0  0  0
  -27.4419  -29.8165   25.0885 C   0  0  0  0  0  0  0  0  0  0  0  0
  -25.1948  -30.2790   26.0910 C   0  0  0  0  0  0  0  0  0  0  0  0
  -26.5719  -32.1585   25.2002 C   0  0  0  0  0  0  0  0  0  0  0  0
  -29.5818  -16.5260   23.0356 C   0  0  0  0  0  0  0  0  0  0  0  0
  -31.6799  -15.2061   22.9159 C   0  0  0  0  0  0  0  0  0  0  0  0
  -29.3507  -16.4906   20.2771 C   0  0  0  0  0  0  0  0  0  0  0  0
  -21.5197  -31.3269   20.6555 C   0  0  0  0  0  0  0  0  0  0  0  0
  -30.2893  -20.9194   17.4844 C   0  0  0  0  0  0  0  0  0  0  0  0
  -29.3119  -20.2358   16.5192 C   0  0  0  0  0  0  0  0  0  0  0  0
  -27.9497  -19.8823   17.1082 C   0  0  0  0  0  0  0  0  0  0  0  0
  -25.5906  -23.4069   18.3939 C   0  0  0  0  0  0  0  0  0  1  0  0
  -25.4755  -30.5515   23.5855 C   0  0  1  0  0  0  0  0  0  0  0  0
  -21.9798  -31.9123   23.0397 C   0  0  2  0  0  0  0  0  0  0  0  0
  -25.4075  -22.0075   19.0017 C   0  0  1  0  0  0  0  0  0  0  0  0
  -25.8639  -20.8544   18.0795 C   0  0  2  0  0  0  0  0  0  0  0  0
  -31.7387  -17.6855   22.0653 C   0  0  0  0  0  0  0  0  0  0  0  0
  -26.1735  -30.6847   24.9684 C   0  0  0  0  0  0  0  0  0  0  0  0
  -30.8709  -16.3202   22.2125 C   0  0  0  0  0  0  0  0  0  0  0  0
  -25.7966  -11.6842   20.0733 N   0  0  0  0  0  0  0  0  0  0  0  0
  -26.1521  -12.9785   20.0065 N   0  0  0  0  0  0  0  0  0  0  0  0
  -26.6368  -29.9032   21.4986 N   0  0  0  0  0  0  0  0  0  0  0  0
  -29.8926  -13.7620   19.7764 N   0  0  0  0  0  0  0  0  0  0  0  0
  -25.4326  -15.1660   20.5614 N   0  0  0  0  0  0  0  0  0  0  0  0
  -22.0576  -12.5532   22.0375 N   0  0  0  0  0  0  0  0  0  0  0  0
  -30.0287  -29.6819   20.1786 N   0  0  0  0  0  0  0  0  0  0  0  0
  -24.2866  -31.3832   23.4336 N   0  0  0  0  0  0  0  0  0  0  0  0
  -30.4590  -15.7929   20.9134 N   0  0  0  0  0  0  0  0  0  0  0  0
  -20.9638  -31.5323   22.0178 N   0  3  0  0  0  0  0  0  0  0  0  0
  -27.2294  -21.1080   17.5391 N   0  3  0  0  0  0  0  0  0  0  0  0
  -22.7864  -14.7184   21.8398 O   0  0  0  0  0  0  0  0  0  0  0  0
  -28.9188  -28.9037   22.0720 O   0  0  0  0  0  0  0  0  0  0  0  0
  -26.8673  -32.0486   22.3821 O   0  0  0  0  0  0  0  0  0  0  0  0
  -22.8180  -29.6471   22.9793 O   0  0  0  0  0  0  0  0  0  0  0  0
  -32.0466  -14.1770   20.4879 O   0  0  0  0  0  0  0  0  0  0  0  0
  -21.7969   -6.9994   21.6870 O   0  0  0  0  0  0  0  0  0  0  0  0
  -25.0204  -24.3868   19.2604 O   0  0  0  0  0  0  0  0  0  1  0  0
  -19.5142   -6.3961   26.6699 F   0  0  0  0  0  0  0  0  0  0  0  0
  -29.9657  -21.7751   20.1659 F   0  0  0  0  0  0  0  0  0  0  0  0
  -22.5199   -4.8996   23.3335 F   0  0  0  0  0  0  0  0  0  0  0  0
  -32.2227  -16.4436   19.2867 Cl  0  0  0  0  0  0  0  0  0  0  0  0
  1  2  1  0  0  0  0
  1  5  2  0  0  0  0
  2  6  2  0  0  0  0
  3  8  2  0  0  0  0
  3 17  1  0  0  0  0
  4  9  1  0  0  0  0
  4 17  2  0  0  0  0
  5 19  1  0  0  0  0
  6 21  1  0  0  0  0
  7 10  2  0  0  0  0
  7 20  1  0  0  0  0
  8 25  1  0  0  0  0
  9 25  2  0  0  0  0
 10 26  1  0  0  0  0
 11 12  2  0  0  0  0
 11 27  1  0  0  0  0
 12 28  1  0  0  0  0
 13 22  1  0  0  0  0
 13 26  2  0  0  0  0
 14 23  2  0  0  0  0
 14 29  1  0  0  0  0
 15 24  1  0  0  0  0
 15 31  2  0  0  0  0
 16 28  2  0  0  0  0
 16 30  1  0  0  0  0
 17 32  1  0  0  0  0
 18 32  1  0  0  0  0
 18 33  2  0  0  0  0
 18 34  1  0  0  0  0
 19 21  2  0  0  0  0
 19 39  1  0  0  0  0
 20 22  2  0  0  0  0
 20 40  1  0  0  0  0
 21 48  1  0  0  0  0
 22 41  1  0  0  0  0
 23 31  1  0  0  0  0
 23 71  1  0  0  0  0
 24 29  2  0  0  0  0
 24 63  1  0  0  0  0
 25 90  1  0  0  0  0
 26 91  1  0  0  0  0
 27 30  2  0  0  0  0
 27 90  1  0  0  0  0
 28 92  1  0  0  0  0
 29 93  1  0  0  0  0
 30 94  1  0  0  0  0
 31 95  1  0  0  0  0
 32 74  2  0  0  0  0
 33 75  1  0  0  0  0
 33 78  1  0  0  0  0
 34 79  1  0  0  0  0
 34 85  2  0  0  0  0
 35 49  1  0  0  0  0
 35 80  1  0  0  0  0
 35 86  2  0  0  0  0
 36 67  1  0  0  0  0
 36 76  1  0  0  0  0
 36 87  2  0  0  0  0
 37 68  1  0  0  0  0
 37 81  1  0  0  0  0
 37 88  2  0  0  0  0
 38 77  1  0  0  0  0
 38 82  1  0  0  0  0
 38 89  2  0  0  0  0
 39 42  1  0  0  0  0
 40 49  1  0  0  0  0
 41 76  1  0  0  0  0
 42 44  1  0  0  0  0
 43 45  1  0  0  0  0
 43 46  1  0  0  0  0
 44 48  1  0  0  0  0
 45 50  1  0  0  0  0
 46 77  1  0  0  0  0
 47 50  1  0  0  0  0
 47 77  1  0  0  0  0
 48 80  1  0  0  0  0
 49 76  1  0  0  0  0
 50 75  1  0  0  0  0
 51 68  1  0  0  0  0
 52 69  1  0  0  0  0
 53 70  1  0  0  0  0
 54 71  1  0  0  0  0
 55 71  1  0  0  0  0
 56 72  1  0  0  0  0
 57 72  1  0  0  0  0
 58 72  1  0  0  0  0
 59 73  1  0  0  0  0
 60 73  1  0  0  0  0
 61 82  1  0  0  0  0
 62 83  1  0  0  0  0
 63 64  1  0  0  0  0
 64 65  1  0  0  0  0
 65 84  1  0  0  0  0
 66 69  1  0  0  0  0
 66 91  1  0  0  0  0
 67 72  1  0  0  0  0
 67 81  1  0  0  0  0
 68 83  1  0  0  0  0
 69 70  1  0  0  0  0
 70 84  1  0  0  0  0
 71 73  1  0  0  0  0
 73 82  1  0  0  0  0
 74 75  1  0  0  0  0
M  CHG  2  83   1  84   1
M  ISO  4  38 100  66 101  82 100  91 101
M  END
> <Batch ID>
0023

> <Smiles>
CNC(C)C(=O)NC(C(=O)N1Cc2cc([101O:1][101CH2:1]C(C)C(C)NCCCc3cc(Cl)c(C(C)(C)C(C)(C)[100N:0](C)[100C:0](=O)N4CCCC(n5nc(-c6ccc(Oc7ccc(F)cc7F)cc6)c(C(N)=O)c5N)C4)cc3F)ccc2CC1C(=O)NC1CCCc2ccccc21)C(C)(C)C

> <Shape>
0.327

> <Color>
0.190

> <Negative vol penalty>
0.000

$$$$

  -OEChem-04052316193D

 93102  0     1  0  0  0  0  0999 V2000
  -30.7038  -17.0937   14.0977 C   0  0  0  0  0  0  0  0  0  0  0  0
  -29.9792  -18.2540   14.3508 C   0  0  0  0  0  0  0  0  0  0  0  0
  -26.6544  -14.2722   20.0114 C   0  0  0  0  0  0  0  0  0  0  0  0
  -24.4382  -14.0226   19.0821 C   0  0  0  0  0  0  0  0  0  0  0  0
  -31.1846  -16.3281   15.1590 C   0  0  0  0  0  0  0  0  0  0  0  0
  -29.7341  -18.6488   15.6655 C   0  0  0  0  0  0  0  0  0  0  0  0
  -29.4222  -24.3842   17.7900 C   0  0  0  0  0  0  0  0  0  0  0  0
  -26.6746  -12.9139   20.3280 C   0  0  0  0  0  0  0  0  0  0  0  0
  -24.4584  -12.6643   19.3988 C   0  0  0  0  0  0  0  0  0  0  0  0
  -28.3449  -25.2252   18.0653 C   0  0  0  0  0  0  0  0  0  0  0  0
  -23.7804   -9.2058   20.2868 C   0  0  0  0  0  0  0  0  0  0  0  0
  -22.6405   -8.6608   20.8776 C   0  0  0  0  0  0  0  0  0  0  0  0
  -28.4292  -24.5644   20.3838 C   0  0  0  0  0  0  0  0  0  0  0  0
  -20.9349  -26.2911   23.5837 C   0  0  0  0  0  0  0  0  0  0  0  0
  -22.8696  -10.1922   22.7322 C   0  0  0  0  0  0  0  0  0  0  0  0
  -25.5362  -14.8266   19.3885 C   0  0  0  0  0  0  0  0  0  0  0  0
  -25.9484  -16.8306   17.8648 C   0  0  0  0  0  0  0  0  0  0  0  0
  -30.9536  -16.7188   16.4874 C   0  0  0  0  0  0  0  0  0  0  0  0
  -30.0052  -23.6174   18.8091 C   0  0  0  0  0  0  0  0  0  0  0  0
  -30.2111  -17.8869   16.7456 C   0  0  0  0  0  0  0  0  0  0  0  0
  -29.5155  -23.7164   20.1193 C   0  0  0  0  0  0  0  0  0  0  0  0
  -20.4650  -27.1267   22.5705 C   0  0  0  0  0  0  0  0  0  0  0  0
  -20.3479  -24.3567   22.2607 C   0  0  0  0  0  0  0  0  0  0  0  0
  -25.5766  -12.1100   20.0217 C   0  0  0  0  0  0  0  0  0  0  0  0
  -27.8463  -25.3133   19.3617 C   0  0  0  0  0  0  0  0  0  0  0  0
  -24.4650  -10.2440   20.9186 C   0  0  0  0  0  0  0  0  0  0  0  0
  -22.1850   -9.1540   22.1003 C   0  0  0  0  0  0  0  0  0  0  0  0
  -24.0095  -10.7372   22.1413 C   0  0  0  0  0  0  0  0  0  0  0  0
  -19.8779  -25.1922   21.2475 C   0  0  0  0  0  0  0  0  0  0  0  0
  -20.8764  -24.9061   23.4288 C   0  0  0  0  0  0  0  0  0  0  0  0
  -19.9364  -26.5773   21.4024 C   0  0  0  0  0  0  0  0  0  0  0  0
  -25.5145  -16.2297   19.0616 C   0  0  0  0  0  0  0  0  0  0  0  0
  -25.7184  -18.1718   18.0509 C   0  0  0  0  0  0  0  0  0  0  0  0
  -26.5092  -16.2300   16.6898 C   0  0  0  0  0  0  0  0  0  0  0  0
  -22.9120  -29.3177   22.4778 C   0  0  0  0  0  0  0  0  0  0  0  0
  -30.3665  -20.5057   19.3477 C   0  0  0  0  0  0  0  0  0  0  0  0
  -32.1373  -21.5427   21.8599 C   0  0  0  0  0  0  0  0  0  0  0  0
  -32.8258  -24.0358   24.0864 C   0  0  0  0  0  0  0  0  0  0  0  0
  -21.8533  -21.0655   21.4483 C   0  0  0  0  0  0  0  0  0  0  0  0
  -31.4527  -15.8335   17.6017 C   0  0  0  0  0  0  0  0  0  0  0  0
  -31.1838  -22.7353   18.5011 C   0  0  0  0  0  0  0  0  0  0  0  0
  -30.1189  -22.9295   21.2530 C   0  0  0  0  0  0  0  0  0  0  0  0
  -31.4710  -16.5213   18.9644 C   0  0  0  0  0  0  0  0  0  0  0  0
  -25.4479  -21.4821   21.4971 C   0  0  0  0  0  0  0  0  0  0  0  0
  -30.1597  -17.2623   19.2059 C   0  0  0  0  0  0  0  0  0  0  0  0
  -23.8954  -29.2059   20.1857 C   0  0  0  0  0  0  0  0  0  0  0  0
  -24.6398  -27.8770   20.2927 C   0  0  0  0  0  0  0  0  0  0  0  0
  -25.9098  -20.2258   20.7564 C   0  0  0  0  0  0  0  0  0  0  0  0
  -25.2545  -30.1086   22.1216 C   0  0  0  0  0  0  0  0  0  0  0  0
  -24.2412  -21.1888   22.3838 C   0  0  0  0  0  0  0  0  0  0  0  0
  -23.5422  -19.3283   20.9265 C   0  0  0  0  0  0  0  0  0  0  0  0
  -29.9459  -18.3612   18.1580 C   0  0  1  0  0  0  0  0  0  0  0  0
  -23.8602  -29.9671   21.5092 C   0  0  2  0  0  0  0  0  0  0  0  0
  -31.3701  -21.6112   19.5155 C   0  0  1  0  0  0  0  0  0  0  0  0
  -26.0564  -28.0497   20.8642 C   0  0  1  0  0  0  0  0  0  0  0  0
  -26.0082  -28.7690   22.2335 C   0  0  1  0  0  0  0  0  0  0  0  0
  -24.7455  -19.5640   19.9957 C   0  0  2  0  0  0  0  0  0  0  0  0
  -27.4040  -29.0230   22.8121 C   0  0  0  0  0  0  0  0  0  0  0  0
  -34.2984  -24.5763   26.0452 C   0  0  0  0  0  0  0  0  0  0  0  0
  -30.3944  -19.7915   23.6504 C   0  0  0  0  0  0  0  0  0  0  0  0
  -31.2563  -21.0708   25.6224 C   0  0  0  0  0  0  0  0  0  0  0  0
  -32.8321  -19.7525   24.2075 C   0  0  0  0  0  0  0  0  0  0  0  0
  -34.0859  -26.3031   22.6615 C   0  0  0  0  0  0  0  0  0  0  0  0
  -20.5466  -28.6117   22.7762 C   0  0  0  0  0  0  0  0  0  0  0  0
  -20.2716  -22.8775   22.0585 C   0  0  0  0  0  0  0  0  0  0  0  0
  -26.7316  -26.6972   20.9422 C   0  0  0  0  0  0  0  0  0  1  0  0
  -31.8474  -21.8965   23.2986 C   0  0  1  0  0  0  0  0  0  0  0  0
  -34.1389  -24.6517   24.5347 C   0  0  2  0  0  0  0  0  0  0  0  0
  -31.5697  -20.6413   24.1732 C   0  0  0  0  0  0  0  0  0  0  0  0
  -25.0445  -17.1165   19.9429 N   0  0  0  0  0  0  0  0  0  0  0  0
  -25.1819  -18.2883   19.2994 N   0  0  0  0  0  0  0  0  0  0  0  0
  -31.2656  -22.0763   20.9001 N   0  0  0  0  0  0  0  0  0  0  0  0
  -23.1622  -20.5772   21.5953 N   0  0  0  0  0  0  0  0  0  0  0  0
  -25.9249  -19.2512   17.2668 N   0  0  0  0  0  0  0  0  0  0  0  0
  -26.6768  -14.8387   16.6656 N   0  0  0  0  0  0  0  0  0  0  0  0
  -30.7598  -19.5178   18.4652 N   0  0  0  0  0  0  0  0  0  0  0  0
  -21.6171  -29.2060   22.0083 N   0  0  0  0  0  0  0  0  0  0  0  0
  -32.9726  -22.7055   23.7547 N   0  0  0  0  0  0  0  0  0  0  0  0
  -21.5728  -22.2495   22.1193 N   0  0  0  0  0  0  0  0  0  0  0  0
  -34.2059  -26.0832   24.1258 N   0  3  0  0  0  0  0  0  0  0  0  0
  -26.8667  -16.9088   15.6973 O   0  0  0  0  0  0  0  0  0  0  0  0
  -23.3250  -28.9443   23.5694 O   0  0  0  0  0  0  0  0  0  0  0  0
  -29.3138  -20.5452   19.9738 O   0  0  0  0  0  0  0  0  0  0  0  0
  -33.1057  -20.8253   21.5969 O   0  0  0  0  0  0  0  0  0  0  0  0
  -31.7743  -24.6703   24.0391 O   0  0  0  0  0  0  0  0  0  0  0  0
  -20.9986  -20.4915   20.7648 O   0  0  0  0  0  0  0  0  0  0  0  0
  -25.5961  -10.7845   20.3304 O   0  0  0  0  0  0  0  0  0  0  0  0
  -26.7945  -26.1329   19.6330 O   0  0  0  0  0  0  0  0  0  1  0  0
  -21.0894   -8.6316   22.6669 F   0  0  0  0  0  0  0  0  0  0  0  0
  -24.6623  -11.7352   22.7525 F   0  0  0  0  0  0  0  0  0  0  0  0
  -19.3722  -24.6578   20.1252 F   0  0  0  0  0  0  0  0  0  0  0  0
  -21.4714  -23.9045   24.7025 Cl  0  0  0  0  0  0  0  0  0  0  0  0
  -19.3467  -27.5876   20.1322 Cl  0  0  0  0  0  0  0  0  0  0  0  0
  1  2  1  0  0  0  0
  1  5  2  0  0  0  0
  2  6  2  0  0  0  0
  3  8  2  0  0  0  0
  3 16  1  0  0  0  0
  4  9  1  0  0  0  0
  4 16  2  0  0  0  0
  5 18  1  0  0  0  0
  6 20  1  0  0  0  0
  7 10  2  0  0  0  0
  7 19  1  0  0  0  0
  8 24  1  0  0  0  0
  9 24  2  0  0  0  0
 10 25  1  0  0  0  0
 11 12  2  0  0  0  0
 11 26  1  0  0  0  0
 12 27  1  0  0  0  0
 13 21  1  0  0  0  0
 13 25  2  0  0  0  0
 14 22  1  0  0  0  0
 14 30  2  0  0  0  0
 15 27  2  0  0  0  0
 15 28  1  0  0  0  0
 16 32  1  0  0  0  0
 17 32  1  0  0  0  0
 17 33  2  0  0  0  0
 17 34  1  0  0  0  0
 18 20  2  0  0  0  0
 18 40  1  0  0  0  0
 19 21  2  0  0  0  0
 19 41  1  0  0  0  0
 20 52  1  0  0  0  0
 21 42  1  0  0  0  0
 22 31  2  0  0  0  0
 22 64  1  0  0  0  0
 23 29  2  0  0  0  0
 23 30  1  0  0  0  0
 23 65  1  0  0  0  0
 24 87  1  0  0  0  0
 25 88  1  0  0  0  0
 26 28  2  0  0  0  0
 26 87  1  0  0  0  0
 27 89  1  0  0  0  0
 28 90  1  0  0  0  0
 29 31  1  0  0  0  0
 29 91  1  0  0  0  0
 30 92  1  0  0  0  0
 31 93  1  0  0  0  0
 32 70  2  0  0  0  0
 33 71  1  0  0  0  0
 33 74  1  0  0  0  0
 34 75  1  0  0  0  0
 34 81  2  0  0  0  0
 35 53  1  0  0  0  0
 35 77  1  0  0  0  0
 35 82  2  0  0  0  0
 36 54  1  0  0  0  0
 36 76  1  0  0  0  0
 36 83  2  0  0  0  0
 37 67  1  0  0  0  0
 37 72  1  0  0  0  0
 37 84  2  0  0  0  0
 38 68  1  0  0  0  0
 38 78  1  0  0  0  0
 38 85  2  0  0  0  0
 39 73  1  0  0  0  0
 39 79  1  0  0  0  0
 39 86  2  0  0  0  0
 40 43  1  0  0  0  0
 41 54  1  0  0  0  0
 42 72  1  0  0  0  0
 43 45  1  0  0  0  0
 44 48  1  0  0  0  0
 44 50  1  0  0  0  0
 45 52  1  0  0  0  0
 46 47  1  0  0  0  0
 46 53  1  0  0  0  0
 47 55  1  0  0  0  0
 48 57  1  0  0  0  0
 49 53  1  0  0  0  0
 49 56  1  0  0  0  0
 50 73  1  0  0  0  0
 51 57  1  0  0  0  0
 51 73  1  0  0  0  0
 52 76  1  0  0  0  0
 54 72  1  0  0  0  0
 55 56  1  0  0  0  0
 55 66  1  0  0  0  0
 56 58  1  0  0  0  0
 57 71  1  0  0  0  0
 59 68  1  0  0  0  0
 60 69  1  0  0  0  0
 61 69  1  0  0  0  0
 62 69  1  0  0  0  0
 63 80  1  0  0  0  0
 64 77  1  0  0  0  0
 65 79  1  0  0  0  0
 66 88  1  0  0  0  0
 67 69  1  0  0  0  0
 67 78  1  0  0  0  0
 68 80  1  0  0  0  0
 70 71  1  0  0  0  0
M  CHG  1  80   1
M  ISO  4  39 100  66 101  79 100  88 101
M  END
> <Batch ID>
0023

> <Smiles>
CNC(C)C(=O)NC(C(=O)N1Cc2cc([101O:1][101CH2:1]C3CCC(C(=O)NCc4cc(Cl)c(C[100NH:0][100C:0](=O)N5CCCC(n6nc(-c7ccc(Oc8ccc(F)cc8F)cc7)c(C(N)=O)c6N)C5)c(F)c4Cl)CC3C)ccc2CC1C(=O)NC1CCCc2ccccc21)C(C)(C)C

> <Shape>
0.202

> <Color>
0.083

> <Negative vol penalty>
0.000

$$$$
