
  -OEChem-04052316223D

 90 98  0     1  0  0  0  0  0999 V2000
  -16.8771  -29.5695   24.6427 C   0  0  0  0  0  0  0  0  0  0  0  0
  -17.1919  -28.2385   24.3881 C   0  0  0  0  0  0  0  0  0  0  0  0
  -23.0067  -10.4267   20.9187 C   0  0  0  0  0  0  0  0  0  0  0  0
  -24.5486   -9.0141   22.1287 C   0  0  0  0  0  0  0  0  0  0  0  0
  -17.3570  -30.5715   23.8005 C   0  0  0  0  0  0  0  0  0  0  0  0
  -17.9858  -27.9087   23.2902 C   0  0  0  0  0  0  0  0  0  0  0  0
  -22.0834  -23.3707   22.9407 C   0  0  0  0  0  0  0  0  0  0  0  0
  -22.1157   -9.3593   20.8078 C   0  0  0  0  0  0  0  0  0  0  0  0
  -23.6576   -7.9466   22.0179 C   0  0  0  0  0  0  0  0  0  0  0  0
  -22.0159  -22.0851   22.4055 C   0  0  0  0  0  0  0  0  0  0  0  0
  -20.8197   -6.9058   23.5291 C   0  0  0  0  0  0  0  0  0  0  0  0
  -20.5882   -6.1359   24.6689 C   0  0  0  0  0  0  0  0  0  0  0  0
  -23.0055  -22.8918   20.3587 C   0  0  0  0  0  0  0  0  0  0  0  0
  -21.4009   -4.1774   23.5110 C   0  0  0  0  0  0  0  0  0  0  0  0
  -25.3502  -17.7442   22.9674 C   0  0  0  0  0  0  0  0  0  0  0  0
  -24.2232  -10.2541   21.5791 C   0  0  0  0  0  0  0  0  0  0  0  0
  -25.7356  -17.8956   24.2811 C   0  0  0  0  0  0  0  0  0  0  0  0
  -25.2056  -12.3090   22.7280 C   0  0  0  0  0  0  0  0  0  0  0  0
  -18.1653  -30.2547   22.6973 C   0  0  0  0  0  0  0  0  0  0  0  0
  -22.6033  -24.4305   22.1837 C   0  0  0  0  0  0  0  0  0  0  0  0
  -18.4759  -28.9074   22.4316 C   0  0  0  0  0  0  0  0  0  0  0  0
  -23.0809  -24.1894   20.8876 C   0  0  0  0  0  0  0  0  0  0  0  0
  -24.6201  -17.5660   25.0899 C   0  0  0  0  0  0  0  0  0  0  0  0
  -22.4411   -8.1193   21.3574 C   0  0  0  0  0  0  0  0  0  0  0  0
  -22.4743  -21.8461   21.1133 C   0  0  0  0  0  0  0  0  0  0  0  0
  -21.3418   -6.3116   22.3802 C   0  0  0  0  0  0  0  0  0  0  0  0
  -20.8788   -4.7717   24.6598 C   0  0  0  0  0  0  0  0  0  0  0  0
  -21.6324   -4.9474   22.3711 C   0  0  0  0  0  0  0  0  0  0  0  0
  -25.1443  -11.3562   21.6935 C   0  0  0  0  0  0  0  0  0  0  0  0
  -23.5870  -17.2229   24.2458 C   0  0  0  0  0  0  0  0  0  0  0  0
  -26.2433  -13.1356   22.3724 C   0  0  0  0  0  0  0  0  0  0  0  0
  -27.0437  -18.3147   24.6960 C   0  0  0  0  0  0  0  0  0  0  0  0
  -24.3970  -12.4354   23.9052 C   0  0  0  0  0  0  0  0  0  0  0  0
  -21.4452  -27.1756   21.0761 C   0  0  0  0  0  0  0  0  0  0  0  0
  -24.5222  -27.6588   20.1703 C   0  0  0  0  0  0  0  0  0  0  0  0
  -27.5487  -26.3083   19.3557 C   0  0  0  0  0  0  0  0  0  0  0  0
  -31.4280  -13.8860   20.4485 C   0  0  0  0  0  0  0  0  0  0  0  0
  -18.6215  -31.3682   21.7880 C   0  0  0  0  0  0  0  0  0  0  0  0
  -22.6939  -25.8061   22.7853 C   0  0  0  0  0  0  0  0  0  0  0  0
  -23.6667  -25.2888   20.0411 C   0  0  0  0  0  0  0  0  0  0  0  0
  -19.7664  -30.9673   20.8613 C   0  0  0  0  0  0  0  0  0  0  0  0
  -28.8335  -13.4917   18.0423 C   0  0  0  0  0  0  0  0  0  0  0  0
  -19.4789  -29.6182   20.2102 C   0  0  0  0  0  0  0  0  0  0  0  0
  -27.6502  -12.9739   18.8618 C   0  0  0  0  0  0  0  0  0  0  0  0
  -30.1598  -12.9285   18.5481 C   0  0  0  0  0  0  0  0  0  0  0  0
  -29.2264  -12.6129   20.8070 C   0  0  0  0  0  0  0  0  0  0  0  0
  -19.3549  -28.5119   21.2649 C   0  0  1  0  0  0  0  0  0  0  0  0
  -22.7683  -26.9126   21.7377 C   0  0  1  0  0  0  0  0  0  0  0  0
  -27.8721  -13.1970   20.3698 C   0  0  2  0  0  0  0  0  0  0  0  0
  -24.5707  -17.5857   26.5665 C   0  0  0  0  0  0  0  0  0  0  0  0
  -22.2048  -16.7982   24.5537 C   0  0  0  0  0  0  0  0  0  0  0  0
  -29.8604  -26.9531   18.6226 C   0  0  0  0  0  0  0  0  0  0  0  0
  -23.8481  -15.8804   20.9244 C   0  0  0  0  0  0  0  0  0  0  0  0
  -23.4782  -28.1883   17.3526 C   0  0  0  0  0  0  0  0  0  0  0  0
  -25.8139  -27.8819   16.5048 C   0  0  0  0  0  0  0  0  0  0  0  0
  -25.2997  -29.7317   18.0974 C   0  0  0  0  0  0  0  0  0  0  0  0
  -28.7731  -25.1159   21.7719 C   0  0  0  0  0  0  0  0  0  0  0  0
  -28.2829  -17.9822   23.8305 C   0  0  0  0  0  0  0  0  0  0  0  0
  -29.6164  -18.4798   24.3936 C   0  0  0  0  0  0  0  0  0  0  0  0
  -30.8510  -18.1090   23.5623 C   0  0  0  0  0  0  0  0  0  0  0  0
  -31.0636  -16.5997   23.4189 C   0  0  0  0  0  0  0  0  0  0  0  0
  -32.2997  -16.2952   22.5657 C   0  0  0  0  0  0  0  0  0  0  0  0
  -23.0935  -18.2845   20.7864 C   0  0  0  0  0  0  0  0  0  0  0  0
  -32.5759  -14.7994   22.4503 C   0  0  0  0  0  0  0  0  0  0  0  0
  -22.5077  -19.4999   21.5010 C   0  0  0  0  0  0  0  0  0  1  0  0
  -25.3351  -27.3471   18.9370 C   0  0  1  0  0  0  0  0  0  0  0  0
  -28.9576  -26.6477   19.8076 C   0  0  2  0  0  0  0  0  0  0  0  0
  -23.2372  -17.0530   21.7012 C   0  0  2  0  0  0  0  0  0  0  0  0
  -24.9690  -28.2667   17.7380 C   0  0  0  0  0  0  0  0  0  0  0  0
  -26.0692  -11.5579   20.7512 N   0  0  0  0  0  0  0  0  0  0  0  0
  -24.0423  -17.3346   22.9581 N   0  0  0  0  0  0  0  0  0  0  0  0
  -26.7216  -12.6469   21.1923 N   0  0  0  0  0  0  0  0  0  0  0  0
  -23.7277  -26.6178   20.6715 N   0  0  0  0  0  0  0  0  0  0  0  0
  -30.3092  -13.1746   19.9844 N   0  0  0  0  0  0  0  0  0  0  0  0
  -26.7841  -14.2255   22.9572 N   0  0  0  0  0  0  0  0  0  0  0  0
  -23.3739  -11.5011   24.1166 N   0  0  0  0  0  0  0  0  0  0  0  0
  -20.6643  -28.1088   21.7310 N   0  0  0  0  0  0  0  0  0  0  0  0
  -26.7349  -27.4213   19.3413 N   0  0  0  0  0  0  0  0  0  0  0  0
  -31.4892  -14.0808   21.8229 N   0  0  0  0  0  0  0  0  0  0  0  0
  -29.5470  -25.5081   20.5660 N   0  3  0  0  0  0  0  0  0  0  0  0
  -27.2110  -18.9752   25.7508 O   0  0  0  0  0  0  0  0  0  0  0  0
  -24.5658  -13.3596   24.7365 O   0  0  0  0  0  0  0  0  0  0  0  0
  -21.1548  -26.5772   20.0469 O   0  0  0  0  0  0  0  0  0  0  0  0
  -24.5951  -28.7821   20.6748 O   0  0  0  0  0  0  0  0  0  0  0  0
  -27.2054  -25.1704   19.0430 O   0  0  0  0  0  0  0  0  0  0  0  0
  -32.3044  -14.3203   19.6934 O   0  0  0  0  0  0  0  0  0  0  0  0
  -21.5718   -7.0775   21.2496 O   0  0  0  0  0  0  0  0  0  0  0  0
  -22.4090  -20.5923   20.5882 O   0  0  0  0  0  0  0  0  0  1  0  0
  -20.6579   -4.0327   25.7550 F   0  0  0  0  0  0  0  0  0  0  0  0
  -22.1352   -4.3711   21.2707 F   0  0  0  0  0  0  0  0  0  0  0  0
  1  2  1  0  0  0  0
  1  5  2  0  0  0  0
  2  6  2  0  0  0  0
  3  8  2  0  0  0  0
  3 16  1  0  0  0  0
  4  9  1  0  0  0  0
  4 16  2  0  0  0  0
  5 19  1  0  0  0  0
  6 21  1  0  0  0  0
  7 10  2  0  0  0  0
  7 20  1  0  0  0  0
  8 24  1  0  0  0  0
  9 24  2  0  0  0  0
 10 25  1  0  0  0  0
 11 12  2  0  0  0  0
 11 26  1  0  0  0  0
 12 27  1  0  0  0  0
 13 22  1  0  0  0  0
 13 25  2  0  0  0  0
 14 27  2  0  0  0  0
 14 28  1  0  0  0  0
 15 17  2  0  0  0  0
 15 71  1  0  0  0  0
 16 29  1  0  0  0  0
 17 23  1  0  0  0  0
 17 32  1  0  0  0  0
 18 29  1  0  0  0  0
 18 31  2  0  0  0  0
 18 33  1  0  0  0  0
 19 21  2  0  0  0  0
 19 38  1  0  0  0  0
 20 22  2  0  0  0  0
 20 39  1  0  0  0  0
 21 47  1  0  0  0  0
 22 40  1  0  0  0  0
 23 30  2  0  0  0  0
 23 50  1  0  0  0  0
 24 87  1  0  0  0  0
 25 88  1  0  0  0  0
 26 28  2  0  0  0  0
 26 87  1  0  0  0  0
 27 89  1  0  0  0  0
 28 90  1  0  0  0  0
 29 70  2  0  0  0  0
 30 51  1  0  0  0  0
 30 71  1  0  0  0  0
 31 72  1  0  0  0  0
 31 75  1  0  0  0  0
 32 58  1  0  0  0  0
 32 81  2  0  0  0  0
 33 76  1  0  0  0  0
 33 82  2  0  0  0  0
 34 48  1  0  0  0  0
 34 77  1  0  0  0  0
 34 83  2  0  0  0  0
 35 66  1  0  0  0  0
 35 73  1  0  0  0  0
 35 84  2  0  0  0  0
 36 67  1  0  0  0  0
 36 78  1  0  0  0  0
 36 85  2  0  0  0  0
 37 74  1  0  0  0  0
 37 79  1  0  0  0  0
 37 86  2  0  0  0  0
 38 41  1  0  0  0  0
 39 48  1  0  0  0  0
 40 73  1  0  0  0  0
 41 43  1  0  0  0  0
 42 44  1  0  0  0  0
 42 45  1  0  0  0  0
 43 47  1  0  0  0  0
 44 49  1  0  0  0  0
 45 74  1  0  0  0  0
 46 49  1  0  0  0  0
 46 74  1  0  0  0  0
 47 77  1  0  0  0  0
 48 73  1  0  0  0  0
 49 72  1  0  0  0  0
 52 67  1  0  0  0  0
 53 68  1  0  0  0  0
 54 69  1  0  0  0  0
 55 69  1  0  0  0  0
 56 69  1  0  0  0  0
 57 80  1  0  0  0  0
 58 59  1  0  0  0  0
 59 60  1  0  0  0  0
 60 61  1  0  0  0  0
 61 62  1  0  0  0  0
 62 64  1  0  0  0  0
 63 65  1  0  0  0  0
 63 68  1  0  0  0  0
 64 79  1  0  0  0  0
 65 88  1  0  0  0  0
 66 69  1  0  0  0  0
 66 78  1  0  0  0  0
 67 80  1  0  0  0  0
 68 71  1  0  0  0  0
 70 72  1  0  0  0  0
M  CHG  1  80   1
M  ISO  4  37 100  65 101  79 100  88 101
M  END
> <Batch ID>
0024

> <Smiles>
CNC(C)C(=O)NC(C(=O)N1Cc2cc([101O:1][101CH2:1]CC(C)n3cc(C(=O)CCCCCC[100NH:0][100C:0](=O)N4CCCC(n5nc(-c6ccc(Oc7ccc(F)cc7F)cc6)c(C(N)=O)c5N)C4)c(C)c3C)ccc2CC1C(=O)NC1CCCc2ccccc21)C(C)(C)C

> <Shape>
0.243

> <Color>
0.123

> <Negative vol penalty>
0.000

$$$$

  -OEChem-04052316223D

 87 95  0     1  0  0  0  0  0999 V2000
  -27.8226  -28.3226   17.9088 C   0  0  0  0  0  0  0  0  0  0  0  0
  -27.2542  -27.1271   17.4811 C   0  0  0  0  0  0  0  0  0  0  0  0
  -19.6188  -22.1069   25.1940 C   0  0  0  0  0  0  0  0  0  0  0  0
  -19.2051  -22.2550   22.8183 C   0  0  0  0  0  0  0  0  0  0  0  0
  -29.0853  -28.3207   18.4999 C   0  0  0  0  0  0  0  0  0  0  0  0
  -27.9487  -25.9289   17.6432 C   0  0  0  0  0  0  0  0  0  0  0  0
  -26.8467  -18.9632   18.9008 C   0  0  0  0  0  0  0  0  0  0  0  0
  -19.2114  -23.4320   25.3476 C   0  0  0  0  0  0  0  0  0  0  0  0
  -18.7976  -23.5801   22.9718 C   0  0  0  0  0  0  0  0  0  0  0  0
  -27.1734  -17.7105   18.3834 C   0  0  0  0  0  0  0  0  0  0  0  0
  -20.2556  -26.6056   23.3613 C   0  0  0  0  0  0  0  0  0  0  0  0
  -20.7399  -27.5424   22.4484 C   0  0  0  0  0  0  0  0  0  0  0  0
  -29.3143  -17.8186   19.4899 C   0  0  0  0  0  0  0  0  0  0  0  0
  -27.6818  -13.5995   18.5396 C   0  0  0  0  0  0  0  0  0  0  0  0
  -18.4775  -28.0514   21.7704 C   0  0  0  0  0  0  0  0  0  0  0  0
  -19.6157  -21.5184   23.9293 C   0  0  0  0  0  0  0  0  0  0  0  0
  -19.2299  -18.9983   23.8386 C   0  0  0  0  0  0  0  0  0  0  0  0
  -29.7916  -27.1207   18.6782 C   0  0  0  0  0  0  0  0  0  0  0  0
  -27.7572  -19.6590   19.7090 C   0  0  0  0  0  0  0  0  0  0  0  0
  -29.2227  -25.9110   18.2361 C   0  0  0  0  0  0  0  0  0  0  0  0
  -28.9957  -19.0788   20.0183 C   0  0  0  0  0  0  0  0  0  0  0  0
  -27.0417  -13.4696   19.7720 C   0  0  0  0  0  0  0  0  0  0  0  0
  -29.0927  -12.6491   20.7506 C   0  0  0  0  0  0  0  0  0  0  0  0
  -29.0273  -13.2542   18.4126 C   0  0  0  0  0  0  0  0  0  0  0  0
  -18.8008  -24.1687   24.2365 C   0  0  0  0  0  0  0  0  0  0  0  0
  -28.4085  -17.1392   18.6756 C   0  0  0  0  0  0  0  0  0  0  0  0
  -18.8822  -26.3916   23.4787 C   0  0  0  0  0  0  0  0  0  0  0  0
  -19.8509  -28.2653   21.6530 C   0  0  0  0  0  0  0  0  0  0  0  0
  -17.9932  -27.1145   22.6833 C   0  0  0  0  0  0  0  0  0  0  0  0
  -27.7471  -12.9944   20.8776 C   0  0  0  0  0  0  0  0  0  0  0  0
  -29.7327  -12.7790   19.5181 C   0  0  0  0  0  0  0  0  0  0  0  0
  -20.0370  -20.1497   23.7700 C   0  0  0  0  0  0  0  0  0  0  0  0
  -20.0984  -17.9567   23.6216 C   0  0  0  0  0  0  0  0  0  0  0  0
  -17.8210  -18.8809   24.0770 C   0  0  0  0  0  0  0  0  0  0  0  0
  -29.2915  -22.4337   19.4836 C   0  0  0  0  0  0  0  0  0  0  0  0
  -30.2394  -21.7098   22.5002 C   0  0  0  0  0  0  0  0  0  0  0  0
  -30.8090  -19.3124   24.8614 C   0  0  0  0  0  0  0  0  0  0  0  0
  -24.1642  -15.6711   20.7592 C   0  0  0  0  0  0  0  0  0  0  0  0
  -31.1737  -27.1743   19.2794 C   0  0  0  0  0  0  0  0  0  0  0  0
  -27.3790  -20.9977   20.2812 C   0  0  0  0  0  0  0  0  0  0  0  0
  -30.0004  -19.7758   20.8977 C   0  0  0  0  0  0  0  0  0  0  0  0
  -31.6842  -25.8165   19.7549 C   0  0  0  0  0  0  0  0  0  0  0  0
  -25.1539  -17.8605   23.4656 C   0  0  0  0  0  0  0  0  0  0  0  0
  -31.4340  -24.7503   18.6930 C   0  0  0  0  0  0  0  0  0  0  0  0
  -23.8322  -18.5587   23.7908 C   0  0  0  0  0  0  0  0  0  0  0  0
  -25.3033  -17.6313   21.9645 C   0  0  0  0  0  0  0  0  0  0  0  0
  -22.8578  -17.5724   21.6654 C   0  0  0  0  0  0  0  0  0  0  0  0
  -29.9343  -24.5878   18.4171 C   0  0  1  0  0  0  0  0  0  0  0  0
  -28.5871  -21.8432   20.6722 C   0  0  1  0  0  0  0  0  0  0  0  0
  -22.6366  -17.8123   23.1699 C   0  0  2  0  0  0  0  0  0  0  0  0
  -29.8113  -12.1424   21.9603 C   0  0  0  0  0  0  0  0  0  0  0  0
  -31.6175  -19.0226   27.2193 C   0  0  0  0  0  0  0  0  0  0  0  0
  -33.1130  -22.1292   21.5639 C   0  0  0  0  0  0  0  0  0  0  0  0
  -33.8848  -20.9298   23.6216 C   0  0  0  0  0  0  0  0  0  0  0  0
  -32.6070  -23.0622   23.8283 C   0  0  0  0  0  0  0  0  0  0  0  0
  -31.7569  -14.3535   16.4947 C   0  0  0  0  0  0  0  0  0  0  0  0
  -29.5929  -15.1711   15.5157 C   0  0  0  0  0  0  0  0  0  0  0  0
  -29.6332  -12.2980   16.2038 C   0  0  0  0  0  0  0  0  0  0  0  0
  -28.2264  -18.1557   25.7278 C   0  0  0  0  0  0  0  0  0  0  0  0
  -25.6029  -13.8392   19.9042 C   0  0  0  0  0  0  0  0  0  0  0  0
  -30.1113  -15.6611   17.9195 C   0  0  0  0  0  0  0  0  0  1  0  0
  -31.4023  -20.9605   23.1046 C   0  0  1  0  0  0  0  0  0  0  0  0
  -30.4058  -19.2213   26.3220 C   0  0  2  0  0  0  0  0  0  0  0  0
  -32.7338  -21.7579   23.0114 C   0  0  0  0  0  0  0  0  0  0  0  0
  -30.2795  -14.6428   16.7804 C   0  0  0  0  0  0  0  0  0  0  0  0
  -21.3198  -19.8665   23.5285 N   0  0  0  0  0  0  0  0  0  0  0  0
  -21.3253  -18.5253   23.4435 N   0  0  0  0  0  0  0  0  0  0  0  0
  -29.5866  -21.0854   21.4279 N   0  0  0  0  0  0  0  0  0  0  0  0
  -24.1416  -16.9001   21.4394 N   0  0  0  0  0  0  0  0  0  0  0  0
  -19.9248  -16.6190   23.5677 N   0  0  0  0  0  0  0  0  0  0  0  0
  -17.0778  -20.0517   24.2802 N   0  0  0  0  0  0  0  0  0  0  0  0
  -29.3078  -23.8153   19.4684 N   0  0  0  0  0  0  0  0  0  0  0  0
  -31.0045  -20.6188   24.4660 N   0  0  0  0  0  0  0  0  0  0  0  0
  -25.4201  -15.1043   20.5802 N   0  0  0  0  0  0  0  0  0  0  0  0
  -29.6372  -13.3963   17.1641 N   0  0  3  0  0  0  0  0  0  0  0  0
  -29.4733  -18.0779   26.5316 N   0  3  0  0  0  0  0  0  0  0  0  0
  -17.2411  -17.7696   24.1254 O   0  0  0  0  0  0  0  0  0  0  0  0
  -29.7851  -21.6907   18.6433 O   0  0  0  0  0  0  0  0  0  0  0  0
  -29.9176  -22.8052   22.9671 O   0  0  0  0  0  0  0  0  0  0  0  0
  -30.9413  -18.3233   24.1439 O   0  0  0  0  0  0  0  0  0  0  0  0
  -23.1397  -15.1168   20.3464 O   0  0  0  0  0  0  0  0  0  0  0  0
  -18.4029  -25.4617   24.3860 O   0  0  0  0  0  0  0  0  0  0  0  0
  -28.7302  -15.9168   18.1714 O   0  0  0  0  0  0  0  0  0  1  0  0
  -20.3160  -29.1661   20.7775 F   0  0  0  0  0  0  0  0  0  0  0  0
  -16.6727  -26.9141   22.7924 F   0  0  0  0  0  0  0  0  0  0  0  0
  -27.1295  -12.8698   22.0619 F   0  0  0  0  0  0  0  0  0  0  0  0
  -31.4050  -12.3479   19.3662 Cl  0  0  0  0  0  0  0  0  0  0  0  0
  1  2  1  0  0  0  0
  1  5  2  0  0  0  0
  2  6  2  0  0  0  0
  3  8  2  0  0  0  0
  3 16  1  0  0  0  0
  4  9  1  0  0  0  0
  4 16  2  0  0  0  0
  5 18  1  0  0  0  0
  6 20  1  0  0  0  0
  7 10  2  0  0  0  0
  7 19  1  0  0  0  0
  8 25  1  0  0  0  0
  9 25  2  0  0  0  0
 10 26  1  0  0  0  0
 11 12  2  0  0  0  0
 11 27  1  0  0  0  0
 12 28  1  0  0  0  0
 13 21  1  0  0  0  0
 13 26  2  0  0  0  0
 14 22  2  0  0  0  0
 14 24  1  0  0  0  0
 15 28  2  0  0  0  0
 15 29  1  0  0  0  0
 16 32  1  0  0  0  0
 17 32  1  0  0  0  0
 17 33  2  0  0  0  0
 17 34  1  0  0  0  0
 18 20  2  0  0  0  0
 18 39  1  0  0  0  0
 19 21  2  0  0  0  0
 19 40  1  0  0  0  0
 20 48  1  0  0  0  0
 21 41  1  0  0  0  0
 22 30  1  0  0  0  0
 22 60  1  0  0  0  0
 23 30  2  0  0  0  0
 23 31  1  0  0  0  0
 23 51  1  0  0  0  0
 24 31  2  0  0  0  0
 24 75  1  0  0  0  0
 25 82  1  0  0  0  0
 26 83  1  0  0  0  0
 27 29  2  0  0  0  0
 27 82  1  0  0  0  0
 28 84  1  0  0  0  0
 29 85  1  0  0  0  0
 30 86  1  0  0  0  0
 31 87  1  0  0  0  0
 32 66  2  0  0  0  0
 33 67  1  0  0  0  0
 33 70  1  0  0  0  0
 34 71  1  0  0  0  0
 34 77  2  0  0  0  0
 35 49  1  0  0  0  0
 35 72  1  0  0  0  0
 35 78  2  0  0  0  0
 36 62  1  0  0  0  0
 36 68  1  0  0  0  0
 36 79  2  0  0  0  0
 37 63  1  0  0  0  0
 37 73  1  0  0  0  0
 37 80  2  0  0  0  0
 38 69  1  0  0  0  0
 38 74  1  0  0  0  0
 38 81  2  0  0  0  0
 39 42  1  0  0  0  0
 40 49  1  0  0  0  0
 41 68  1  0  0  0  0
 42 44  1  0  0  0  0
 43 45  1  0  0  0  0
 43 46  1  0  0  0  0
 44 48  1  0  0  0  0
 45 50  1  0  0  0  0
 46 69  1  0  0  0  0
 47 50  1  0  0  0  0
 47 69  1  0  0  0  0
 48 72  1  0  0  0  0
 49 68  1  0  0  0  0
 50 67  1  0  0  0  0
 52 63  1  0  0  0  0
 53 64  1  0  0  0  0
 54 64  1  0  0  0  0
 55 64  1  0  0  0  0
 56 65  1  0  0  0  0
 57 65  1  0  0  0  0
 58 75  1  0  0  0  0
 59 76  1  0  0  0  0
 60 74  1  0  0  0  0
 61 65  1  0  0  0  0
 61 83  1  0  0  0  0
 62 64  1  0  0  0  0
 62 73  1  0  0  0  0
 63 76  1  0  0  0  0
 65 75  1  0  0  0  0
 66 67  1  0  0  0  0
M  CHG  1  76   1
M  ISO  4  38 100  61 101  74 100  83 101
M  END
> <Batch ID>
0024

> <Smiles>
CNC(C)C(=O)NC(C(=O)N1Cc2cc([101O:1][101CH2:1]C(C)(C)N(C)c3cc(C[100NH:0][100C:0](=O)N4CCCC(n5nc(-c6ccc(Oc7ccc(F)cc7F)cc6)c(C(N)=O)c5N)C4)c(F)c(C)c3Cl)ccc2CC1C(=O)NC1CCCc2ccccc21)C(C)(C)C

> <Shape>
0.208

> <Color>
0.057

> <Negative vol penalty>
0.000

$$$$

  -OEChem-04052316223D

 85 94  0     1  0  0  0  0  0999 V2000
  -25.3508  -22.8916   18.0842 C   0  0  0  0  0  0  0  0  0  0  0  0
  -25.7871  -21.5778   17.9559 C   0  0  0  0  0  0  0  0  0  0  0  0
  -24.9371  -29.0774   21.1094 C   0  0  0  0  0  0  0  0  0  0  0  0
  -24.4682  -27.6652   23.0128 C   0  0  0  0  0  0  0  0  0  0  0  0
  -24.4915  -23.2382   19.1247 C   0  0  0  0  0  0  0  0  0  0  0  0
  -25.3547  -20.6078   18.8609 C   0  0  0  0  0  0  0  0  0  0  0  0
  -26.6020  -15.9457   17.9053 C   0  0  0  0  0  0  0  0  0  0  0  0
  -23.6331  -29.5703   21.1538 C   0  0  0  0  0  0  0  0  0  0  0  0
  -23.1641  -28.1582   23.0572 C   0  0  0  0  0  0  0  0  0  0  0  0
  -27.9045  -15.4695   18.0484 C   0  0  0  0  0  0  0  0  0  0  0  0
  -19.6044  -28.7781   23.4495 C   0  0  0  0  0  0  0  0  0  0  0  0
  -18.5695  -27.8592   23.6230 C   0  0  0  0  0  0  0  0  0  0  0  0
  -27.2757  -14.3870   20.1104 C   0  0  0  0  0  0  0  0  0  0  0  0
  -19.2189  -26.7422   21.5815 C   0  0  0  0  0  0  0  0  0  0  0  0
  -31.2238  -15.9646   21.5864 C   0  0  0  0  0  0  0  0  0  0  0  0
  -25.3547  -28.1248   22.0389 C   0  0  0  0  0  0  0  0  0  0  0  0
  -27.8299  -28.1334   22.6562 C   0  0  0  0  0  0  0  0  0  0  0  0
  -24.0588  -22.2739   20.0498 C   0  0  0  0  0  0  0  0  0  0  0  0
  -25.6276  -15.6548   18.8709 C   0  0  0  0  0  0  0  0  0  0  0  0
  -24.4684  -20.9329   19.9036 C   0  0  0  0  0  0  0  0  0  0  0  0
  -25.9609  -14.8586   19.9759 C   0  0  0  0  0  0  0  0  0  0  0  0
  -30.0885  -17.4520   23.0974 C   0  0  0  0  0  0  0  0  0  0  0  0
  -22.7466  -29.1108   22.1277 C   0  0  0  0  0  0  0  0  0  0  0  0
  -28.2422  -14.6924   19.1526 C   0  0  0  0  0  0  0  0  0  0  0  0
  -20.4465  -28.6791   22.3419 C   0  0  0  0  0  0  0  0  0  0  0  0
  -18.3768  -26.8412   22.6890 C   0  0  0  0  0  0  0  0  0  0  0  0
  -20.2538  -27.6612   21.4080 C   0  0  0  0  0  0  0  0  0  0  0  0
  -31.2356  -17.0933   22.3983 C   0  0  0  0  0  0  0  0  0  0  0  0
  -26.7015  -27.6148   21.9932 C   0  0  0  0  0  0  0  0  0  0  0  0
  -30.0491  -15.2341   21.5083 C   0  0  0  0  0  0  0  0  0  0  0  0
  -28.9644  -16.6551   22.9514 C   0  0  0  0  0  0  0  0  0  0  0  0
  -28.8570  -27.2981   22.2906 C   0  0  0  0  0  0  0  0  0  0  0  0
  -27.9397  -29.2687   23.5249 C   0  0  0  0  0  0  0  0  0  0  0  0
  -23.8486  -17.3871   20.8553 C   0  0  0  0  0  0  0  0  0  0  0  0
  -22.4669  -14.5228   21.4951 C   0  0  0  0  0  0  0  0  0  0  0  0
  -22.7307  -11.1204   21.5219 C   0  0  0  0  0  0  0  0  0  0  0  0
  -29.0228  -21.6016   20.4537 C   0  0  0  0  0  0  0  0  0  0  0  0
  -23.1225  -22.7023   21.1521 C   0  0  0  0  0  0  0  0  0  0  0  0
  -24.2205  -16.1537   18.6882 C   0  0  0  0  0  0  0  0  0  0  0  0
  -24.9466  -14.5008   21.0303 C   0  0  0  0  0  0  0  0  0  0  0  0
  -23.0751  -21.7111   22.3104 C   0  0  0  0  0  0  0  0  0  0  0  0
  -30.2747  -24.4477   18.7189 C   0  0  0  0  0  0  0  0  0  0  0  0
  -22.8610  -20.3014   21.7798 C   0  0  0  0  0  0  0  0  0  0  0  0
  -29.6027  -25.6289   19.4212 C   0  0  0  0  0  0  0  0  0  0  0  0
  -29.7048  -12.6857   21.2743 C   0  0  0  0  0  0  0  0  0  0  0  0
  -31.0945  -12.9813   20.8032 C   0  0  0  0  0  0  0  0  0  0  0  0
  -29.3421  -23.2420   18.6252 C   0  0  0  0  0  0  0  0  0  0  0  0
  -28.0886  -23.9888   20.6113 C   0  0  0  0  0  0  0  0  0  0  0  0
  -24.0356  -19.8671   20.8941 C   0  0  1  0  0  0  0  0  0  0  0  0
  -23.4375  -16.2254   19.9955 C   0  0  1  0  0  0  0  0  0  0  0  0
  -29.0091  -25.2098   20.7796 C   0  0  2  0  0  0  0  0  0  0  0  0
  -30.0136  -14.0288   20.6493 C   0  0  0  0  0  0  0  0  0  1  0  0
  -21.4515   -9.0502   22.1344 C   0  0  0  0  0  0  0  0  0  0  0  0
  -23.0259  -15.0537   24.4473 C   0  0  0  0  0  0  0  0  0  0  0  0
  -22.6185  -12.6234   24.8897 C   0  0  0  0  0  0  0  0  0  0  0  0
  -20.7860  -14.0470   23.9743 C   0  0  0  0  0  0  0  0  0  0  0  0
  -22.7912  -10.1192   18.7375 C   0  0  0  0  0  0  0  0  0  0  0  0
  -30.0663  -18.6580   23.9785 C   0  0  0  0  0  0  0  0  0  0  0  0
  -29.8974  -19.9918   23.2263 C   0  0  0  0  0  0  0  0  0  0  0  0
  -28.6336  -20.0774   22.3732 C   0  0  0  0  0  0  0  0  0  0  0  0
  -22.7234  -13.4085   22.4807 C   0  0  1  0  0  0  0  0  0  0  0  0
  -21.7941  -10.0335   21.0261 C   0  0  2  0  0  0  0  0  0  0  0  0
  -22.3083  -13.7913   23.9293 C   0  0  0  0  0  0  0  0  0  0  0  0
  -26.9849  -26.5338   21.2616 N   0  0  0  0  0  0  0  0  0  0  0  0
  -28.9150  -15.5514   22.1722 N   0  0  0  0  0  0  0  0  0  0  0  0
  -28.3031  -26.3664   21.4628 N   0  0  0  0  0  0  0  0  0  0  0  0
  -23.5858  -15.0177   20.8102 N   0  0  0  0  0  0  0  0  0  0  0  0
  -28.8148  -22.8951   19.9471 N   0  0  0  0  0  0  0  0  0  0  0  0
  -30.1710  -27.2770   22.5996 N   0  0  0  0  0  0  0  0  0  0  0  0
  -26.7861  -30.0173   23.7951 N   0  0  0  0  0  0  0  0  0  0  0  0
  -23.7013  -18.6183   20.2455 N   0  0  0  0  0  0  0  0  0  0  0  0
  -22.0393  -12.2323   21.9541 N   0  0  0  0  0  0  0  0  0  0  0  0
  -28.4958  -21.3581   21.7161 N   0  0  0  0  0  0  0  0  0  0  0  0
  -22.4237   -9.2785   19.9060 N   0  3  0  0  0  0  0  0  0  0  0  0
  -29.0318  -29.6189   24.0330 O   0  0  0  0  0  0  0  0  0  0  0  0
  -24.2671  -17.1816   21.9886 O   0  0  0  0  0  0  0  0  0  0  0  0
  -21.3152  -14.9340   21.3334 O   0  0  0  0  0  0  0  0  0  0  0  0
  -23.9533  -10.9941   21.5289 O   0  0  0  0  0  0  0  0  0  0  0  0
  -29.6377  -20.7301   19.8297 O   0  0  0  0  0  0  0  0  0  0  0  0
  -21.4740  -29.5918   22.1715 O   0  0  0  0  0  0  0  0  0  0  0  0
  -29.5130  -14.2268   19.2951 O   0  0  0  0  0  0  0  0  0  1  0  0
  -17.3838  -25.9579   22.8566 F   0  0  0  0  0  0  0  0  0  0  0  0
  -21.0604  -27.5603   20.3426 F   0  0  0  0  0  0  0  0  0  0  0  0
  -32.6871  -18.0187   22.5109 Cl  0  0  0  0  0  0  0  0  0  0  0  0
  -27.4835  -16.9902   23.7608 Cl  0  0  0  0  0  0  0  0  0  0  0  0
  1  2  1  0  0  0  0
  1  5  2  0  0  0  0
  2  6  2  0  0  0  0
  3  8  2  0  0  0  0
  3 16  1  0  0  0  0
  4  9  1  0  0  0  0
  4 16  2  0  0  0  0
  5 18  1  0  0  0  0
  6 20  1  0  0  0  0
  7 10  2  0  0  0  0
  7 19  1  0  0  0  0
  8 23  1  0  0  0  0
  9 23  2  0  0  0  0
 10 24  1  0  0  0  0
 11 12  2  0  0  0  0
 11 25  1  0  0  0  0
 12 26  1  0  0  0  0
 13 21  1  0  0  0  0
 13 24  2  0  0  0  0
 14 26  2  0  0  0  0
 14 27  1  0  0  0  0
 15 28  2  0  0  0  0
 15 30  1  0  0  0  0
 16 29  1  0  0  0  0
 17 29  1  0  0  0  0
 17 32  2  0  0  0  0
 17 33  1  0  0  0  0
 18 20  2  0  0  0  0
 18 38  1  0  0  0  0
 19 21  2  0  0  0  0
 19 39  1  0  0  0  0
 20 49  1  0  0  0  0
 21 40  1  0  0  0  0
 22 28  1  0  0  0  0
 22 31  2  0  0  0  0
 22 58  1  0  0  0  0
 23 80  1  0  0  0  0
 24 81  1  0  0  0  0
 25 27  2  0  0  0  0
 25 80  1  0  0  0  0
 26 82  1  0  0  0  0
 27 83  1  0  0  0  0
 28 84  1  0  0  0  0
 29 64  2  0  0  0  0
 30 52  1  0  0  0  0
 30 65  2  0  0  0  0
 31 65  1  0  0  0  0
 31 85  1  0  0  0  0
 32 66  1  0  0  0  0
 32 69  1  0  0  0  0
 33 70  1  0  0  0  0
 33 75  2  0  0  0  0
 34 50  1  0  0  0  0
 34 71  1  0  0  0  0
 34 76  2  0  0  0  0
 35 61  1  0  0  0  0
 35 67  1  0  0  0  0
 35 77  2  0  0  0  0
 36 62  1  0  0  0  0
 36 72  1  0  0  0  0
 36 78  2  0  0  0  0
 37 68  1  0  0  0  0
 37 73  1  0  0  0  0
 37 79  2  0  0  0  0
 38 41  1  0  0  0  0
 39 50  1  0  0  0  0
 40 67  1  0  0  0  0
 41 43  1  0  0  0  0
 42 44  1  0  0  0  0
 42 47  1  0  0  0  0
 43 49  1  0  0  0  0
 44 51  1  0  0  0  0
 45 46  1  0  0  0  0
 45 52  1  0  0  0  0
 46 52  1  0  0  0  0
 47 68  1  0  0  0  0
 48 51  1  0  0  0  0
 48 68  1  0  0  0  0
 49 71  1  0  0  0  0
 50 67  1  0  0  0  0
 51 66  1  0  0  0  0
 52 81  1  0  0  0  0
 53 62  1  0  0  0  0
 54 63  1  0  0  0  0
 55 63  1  0  0  0  0
 56 63  1  0  0  0  0
 57 74  1  0  0  0  0
 58 59  1  0  0  0  0
 59 60  1  0  0  0  0
 60 73  1  0  0  0  0
 61 63  1  0  0  0  0
 61 72  1  0  0  0  0
 62 74  1  0  0  0  0
 64 66  1  0  0  0  0
M  CHG  1  74   1
M  ISO  4  37 100  52 101  73 100  81 101
M  END
> <Batch ID>
0024

> <Smiles>
CNC(C)C(=O)NC(C(=O)N1Cc2cc([101O:1][101C:1]3(c4cc(Cl)c(CCC[100NH:0][100C:0](=O)N5CCCC(n6nc(-c7ccc(Oc8ccc(F)cc8F)cc7)c(C(N)=O)c6N)C5)c(Cl)n4)CC3)ccc2CC1C(=O)NC1CCCc2ccccc21)C(C)(C)C

> <Shape>
0.266

> <Color>
0.053

> <Negative vol penalty>
0.000

$$$$

  -OEChem-04052316223D

 90 98  0     1  0  0  0  0  0999 V2000
  -19.2192  -28.3606   17.9339 C   0  0  0  0  0  0  0  0  0  0  0  0
  -19.5453  -27.4123   18.8981 C   0  0  0  0  0  0  0  0  0  0  0  0
  -29.5773  -21.4896   19.6624 C   0  0  0  0  0  0  0  0  0  0  0  0
  -27.6510  -20.4927   20.7266 C   0  0  0  0  0  0  0  0  0  0  0  0
  -19.8828  -29.5865   17.9110 C   0  0  0  0  0  0  0  0  0  0  0  0
  -20.5362  -27.6890   19.8394 C   0  0  0  0  0  0  0  0  0  0  0  0
  -19.1860  -26.3491   24.5327 C   0  0  0  0  0  0  0  0  0  0  0  0
  -28.8355  -22.6409   19.3981 C   0  0  0  0  0  0  0  0  0  0  0  0
  -26.9092  -21.6440   20.4624 C   0  0  0  0  0  0  0  0  0  0  0  0
  -19.2666  -24.9954   24.8564 C   0  0  0  0  0  0  0  0  0  0  0  0
  -24.6119  -24.4609   20.3880 C   0  0  0  0  0  0  0  0  0  0  0  0
  -23.8189  -24.9723   21.4152 C   0  0  0  0  0  0  0  0  0  0  0  0
  -21.3680  -25.3936   25.9722 C   0  0  0  0  0  0  0  0  0  0  0  0
  -24.8757  -12.0663   20.0156 C   0  0  0  0  0  0  0  0  0  0  0  0
  -25.7848  -25.2594   22.7900 C   0  0  0  0  0  0  0  0  0  0  0  0
  -28.9850  -20.4154   20.3266 C   0  0  0  0  0  0  0  0  0  0  0  0
  -30.5230  -18.9558   21.7449 C   0  0  0  0  0  0  0  0  0  0  0  0
  -20.8756  -29.8821   18.8584 C   0  0  0  0  0  0  0  0  0  0  0  0
  -20.2029  -27.2347   24.9174 C   0  0  0  0  0  0  0  0  0  0  0  0
  -21.2148  -28.9195   19.8283 C   0  0  0  0  0  0  0  0  0  0  0  0
  -21.2967  -26.7585   25.6543 C   0  0  0  0  0  0  0  0  0  0  0  0
  -26.2710  -12.1817   20.2328 C   0  0  0  0  0  0  0  0  0  0  0  0
  -27.5015  -22.7181   19.7982 C   0  0  0  0  0  0  0  0  0  0  0  0
  -20.3591  -24.5169   25.5738 C   0  0  0  0  0  0  0  0  0  0  0  0
  -25.9914  -24.3487   20.5618 C   0  0  0  0  0  0  0  0  0  0  0  0
  -24.4053  -25.3715   22.6162 C   0  0  0  0  0  0  0  0  0  0  0  0
  -26.5778  -24.7479   21.7627 C   0  0  0  0  0  0  0  0  0  0  0  0
  -29.7506  -19.2256   20.5993 C   0  0  0  0  0  0  0  0  0  0  0  0
  -24.2481  -12.3672   21.2043 C   0  0  0  0  0  0  0  0  0  0  0  0
  -26.4535  -12.5494   21.5477 C   0  0  0  0  0  0  0  0  0  0  0  0
  -31.0450  -17.7053   21.5203 C   0  0  0  0  0  0  0  0  0  0  0  0
  -30.7484  -19.7631   22.9081 C   0  0  0  0  0  0  0  0  0  0  0  0
  -22.2599  -29.0979   23.3679 C   0  0  0  0  0  0  0  0  0  0  0  0
  -22.9959  -30.1115   26.3601 C   0  0  0  0  0  0  0  0  0  0  0  0
  -22.1415  -13.7562   21.3040 C   0  0  0  0  0  0  0  0  0  0  0  0
  -23.0405  -29.4617   29.7101 C   0  0  0  0  0  0  0  0  0  0  0  0
  -29.2580  -13.0846   18.1578 C   0  0  0  0  0  0  0  0  0  0  0  0
  -21.5985  -31.2025   18.7645 C   0  0  0  0  0  0  0  0  0  0  0  0
  -20.0880  -28.6968   24.5836 C   0  0  0  0  0  0  0  0  0  0  0  0
  -22.4049  -27.6717   26.1086 C   0  0  0  0  0  0  0  0  0  0  0  0
  -22.3744  -31.5633   20.0287 C   0  0  0  0  0  0  0  0  0  0  0  0
  -32.3796  -14.7869   17.9718 C   0  0  0  0  0  0  0  0  0  0  0  0
  -23.1835  -30.3664   20.5183 C   0  0  0  0  0  0  0  0  0  0  0  0
  -32.1295  -16.0931   18.7275 C   0  0  0  0  0  0  0  0  0  0  0  0
  -31.1499  -14.3491   17.1791 C   0  0  0  0  0  0  0  0  0  0  0  0
  -29.6572  -15.5580   18.7231 C   0  0  0  0  0  0  0  0  0  0  0  0
  -22.2666  -29.1921   20.8815 C   0  0  1  0  0  0  0  0  0  0  0  0
  -21.4330  -29.4167   24.5813 C   0  0  1  0  0  0  0  0  0  0  0  0
  -30.8504  -16.0105   19.5821 C   0  0  2  0  0  0  0  0  0  0  0  0
  -27.6997  -12.8059   22.3009 C   0  0  0  0  0  0  0  0  0  0  0  0
  -23.7366  -30.4652   31.9023 C   0  0  0  0  0  0  0  0  0  0  0  0
  -25.9106  -29.4700   25.7254 C   0  0  0  0  0  0  0  0  0  0  0  0
  -26.3956  -29.5760   28.1793 C   0  0  0  0  0  0  0  0  0  0  0  0
  -25.5622  -31.6017   26.9858 C   0  0  0  0  0  0  0  0  0  0  0  0
  -24.9712  -13.0267   23.5072 C   0  0  0  0  0  0  0  0  0  0  0  0
  -20.2659  -29.4268   30.7395 C   0  0  0  0  0  0  0  0  0  0  0  0
  -27.3283  -11.9495   19.2288 C   0  0  0  0  0  0  0  0  0  0  0  0
  -22.7804  -12.4009   21.5386 C   0  0  0  0  0  0  0  0  0  0  0  0
  -20.8014  -18.6231   24.0995 C   0  0  0  0  0  0  0  0  0  0  0  0
  -20.2039  -17.5921   23.1394 C   0  0  0  0  0  0  0  0  0  0  0  0
  -19.9912  -19.9214   24.0922 C   0  0  0  0  0  0  0  0  0  0  0  0
  -20.9857  -16.2771   23.0981 C   0  0  0  0  0  0  0  0  0  0  0  0
  -20.6038  -20.9641   25.0247 C   0  0  0  0  0  0  0  0  0  0  0  0
  -20.3483  -15.2216   22.2023 C   0  0  0  0  0  0  0  0  0  0  0  0
  -19.8281  -22.2733   24.9905 C   0  0  0  0  0  0  0  0  0  1  0  0
  -23.9772  -29.6812   27.4235 C   0  0  1  0  0  0  0  0  0  0  0  0
  -22.6032  -30.2923   30.9032 C   0  0  2  0  0  0  0  0  0  0  0  0
  -25.4417  -30.0644   27.0684 C   0  0  0  0  0  0  0  0  0  0  0  0
  -29.7769  -18.2270   19.7127 N   0  0  0  0  0  0  0  0  0  0  0  0
  -25.2171  -12.6590   22.1285 N   0  0  0  0  0  0  0  0  0  0  0  0
  -30.5722  -17.3175   20.3012 N   0  0  0  0  0  0  0  0  0  0  0  0
  -22.2500  -29.0917   25.7522 N   0  0  0  0  0  0  0  0  0  0  0  0
  -29.9719  -14.2893   18.0478 N   0  0  0  0  0  0  0  0  0  0  0  0
  -31.8577  -16.9107   22.2487 N   0  0  0  0  0  0  0  0  0  0  0  0
  -30.1358  -21.0218   22.9767 N   0  0  0  0  0  0  0  0  0  0  0  0
  -21.6472  -29.4145   22.1705 N   0  0  0  0  0  0  0  0  0  0  0  0
  -21.1131  -14.0044   22.2075 N   0  0  0  0  0  0  0  0  0  0  0  0
  -23.4973  -30.2526   28.6771 N   0  0  0  0  0  0  0  0  0  0  0  0
  -28.1584  -13.1124   19.0069 N   0  0  0  0  0  0  0  0  0  0  0  0
  -21.4594  -29.6376   31.5988 N   0  3  0  0  0  0  0  0  0  0  0  0
  -31.4848  -19.3866   23.8512 O   0  0  0  0  0  0  0  0  0  0  0  0
  -23.3721  -28.6028   23.5077 O   0  0  0  0  0  0  0  0  0  0  0  0
  -22.8897  -31.3091   26.0842 O   0  0  0  0  0  0  0  0  0  0  0  0
  -22.5014  -14.5319   20.4222 O   0  0  0  0  0  0  0  0  0  0  0  0
  -22.9860  -28.2339   29.6973 O   0  0  0  0  0  0  0  0  0  0  0  0
  -29.5800  -12.0587   17.5489 O   0  0  0  0  0  0  0  0  0  0  0  0
  -26.7774  -23.8415   19.5407 O   0  0  0  0  0  0  0  0  0  0  0  0
  -20.4406  -23.1960   25.8905 O   0  0  0  0  0  0  0  0  0  1  0  0
  -23.6438  -25.8641   23.6020 F   0  0  0  0  0  0  0  0  0  0  0  0
  -27.9026  -24.6436   21.9351 F   0  0  0  0  0  0  0  0  0  0  0  0
  1  2  1  0  0  0  0
  1  5  2  0  0  0  0
  2  6  2  0  0  0  0
  3  8  2  0  0  0  0
  3 16  1  0  0  0  0
  4  9  1  0  0  0  0
  4 16  2  0  0  0  0
  5 18  1  0  0  0  0
  6 20  1  0  0  0  0
  7 10  2  0  0  0  0
  7 19  1  0  0  0  0
  8 23  1  0  0  0  0
  9 23  2  0  0  0  0
 10 24  1  0  0  0  0
 11 12  2  0  0  0  0
 11 25  1  0  0  0  0
 12 26  1  0  0  0  0
 13 21  1  0  0  0  0
 13 24  2  0  0  0  0
 14 22  1  0  0  0  0
 14 29  2  0  0  0  0
 15 26  2  0  0  0  0
 15 27  1  0  0  0  0
 16 28  1  0  0  0  0
 17 28  1  0  0  0  0
 17 31  2  0  0  0  0
 17 32  1  0  0  0  0
 18 20  2  0  0  0  0
 18 38  1  0  0  0  0
 19 21  2  0  0  0  0
 19 39  1  0  0  0  0
 20 47  1  0  0  0  0
 21 40  1  0  0  0  0
 22 30  2  0  0  0  0
 22 57  1  0  0  0  0
 23 87  1  0  0  0  0
 24 88  1  0  0  0  0
 25 27  2  0  0  0  0
 25 87  1  0  0  0  0
 26 89  1  0  0  0  0
 27 90  1  0  0  0  0
 28 69  2  0  0  0  0
 29 58  1  0  0  0  0
 29 70  1  0  0  0  0
 30 50  1  0  0  0  0
 30 70  1  0  0  0  0
 31 71  1  0  0  0  0
 31 74  1  0  0  0  0
 32 75  1  0  0  0  0
 32 81  2  0  0  0  0
 33 48  1  0  0  0  0
 33 76  1  0  0  0  0
 33 82  2  0  0  0  0
 34 66  1  0  0  0  0
 34 72  1  0  0  0  0
 34 83  2  0  0  0  0
 35 58  1  0  0  0  0
 35 77  1  0  0  0  0
 35 84  2  0  0  0  0
 36 67  1  0  0  0  0
 36 78  1  0  0  0  0
 36 85  2  0  0  0  0
 37 73  1  0  0  0  0
 37 79  1  0  0  0  0
 37 86  2  0  0  0  0
 38 41  1  0  0  0  0
 39 48  1  0  0  0  0
 40 72  1  0  0  0  0
 41 43  1  0  0  0  0
 42 44  1  0  0  0  0
 42 45  1  0  0  0  0
 43 47  1  0  0  0  0
 44 49  1  0  0  0  0
 45 73  1  0  0  0  0
 46 49  1  0  0  0  0
 46 73  1  0  0  0  0
 47 76  1  0  0  0  0
 48 72  1  0  0  0  0
 49 71  1  0  0  0  0
 51 67  1  0  0  0  0
 52 68  1  0  0  0  0
 53 68  1  0  0  0  0
 54 68  1  0  0  0  0
 55 70  1  0  0  0  0
 56 80  1  0  0  0  0
 57 79  1  0  0  0  0
 59 60  1  0  0  0  0
 59 61  1  0  0  0  0
 60 62  1  0  0  0  0
 61 63  1  0  0  0  0
 62 64  1  0  0  0  0
 63 65  1  0  0  0  0
 64 77  1  0  0  0  0
 65 88  1  0  0  0  0
 66 68  1  0  0  0  0
 66 78  1  0  0  0  0
 67 80  1  0  0  0  0
 69 71  1  0  0  0  0
M  CHG  1  80   1
M  ISO  4  37 100  65 101  79 100  88 101
M  END
> <Batch ID>
0024

> <Smiles>
CNC(C)C(=O)NC(C(=O)N1Cc2cc([101O:1][101CH2:1]CCCCCCNC(=O)Cc3cc(C[100NH:0][100C:0](=O)N4CCCC(n5nc(-c6ccc(Oc7ccc(F)cc7F)cc6)c(C(N)=O)c5N)C4)c(C)n3C)ccc2CC1C(=O)NC1CCCc2ccccc21)C(C)(C)C

> <Shape>
0.188

> <Color>
0.079

> <Negative vol penalty>
0.000

$$$$

  -OEChem-04052316223D

 88 96  0     1  0  0  0  0  0999 V2000
  -28.2251  -25.5182   13.5834 C   0  0  0  0  0  0  0  0  0  0  0  0
  -27.9092  -24.8275   14.7490 C   0  0  0  0  0  0  0  0  0  0  0  0
  -23.6527  -14.7187   24.6338 C   0  0  0  0  0  0  0  0  0  0  0  0
  -23.4841  -16.2099   22.7403 C   0  0  0  0  0  0  0  0  0  0  0  0
  -28.2259  -26.9124   13.5792 C   0  0  0  0  0  0  0  0  0  0  0  0
  -27.5948  -25.5307   15.9114 C   0  0  0  0  0  0  0  0  0  0  0  0
  -23.5416  -23.6420   18.2883 C   0  0  0  0  0  0  0  0  0  0  0  0
  -22.8581  -15.5838   25.3859 C   0  0  0  0  0  0  0  0  0  0  0  0
  -22.6894  -17.0750   23.4924 C   0  0  0  0  0  0  0  0  0  0  0  0
  -23.7289  -22.4870   19.0463 C   0  0  0  0  0  0  0  0  0  0  0  0
  -20.9144  -19.8523   25.0240 C   0  0  0  0  0  0  0  0  0  0  0  0
  -21.1979  -21.2164   24.9569 C   0  0  0  0  0  0  0  0  0  0  0  0
  -23.8209  -23.8250   21.0514 C   0  0  0  0  0  0  0  0  0  0  0  0
  -27.6065  -22.2524   21.1598 C   0  0  0  0  0  0  0  0  0  0  0  0
  -23.4195  -20.7965   25.8086 C   0  0  0  0  0  0  0  0  0  0  0  0
  -23.9658  -15.0318   23.3110 C   0  0  0  0  0  0  0  0  0  0  0  0
  -24.3532  -13.0683   21.7291 C   0  0  0  0  0  0  0  0  0  0  0  0
  -27.9019  -27.6331   14.7396 C   0  0  0  0  0  0  0  0  0  0  0  0
  -23.5035  -24.9004   18.9060 C   0  0  0  0  0  0  0  0  0  0  0  0
  -27.5925  -26.9359   15.9230 C   0  0  0  0  0  0  0  0  0  0  0  0
  -23.6305  -24.9943   20.2992 C   0  0  0  0  0  0  0  0  0  0  0  0
  -27.6237  -20.9065   21.5255 C   0  0  0  0  0  0  0  0  0  0  0  0
  -29.6903  -20.6029   20.3114 C   0  0  0  0  0  0  0  0  0  0  0  0
  -22.3764  -16.7619   24.8152 C   0  0  0  0  0  0  0  0  0  0  0  0
  -23.8714  -22.5786   20.4278 C   0  0  0  0  0  0  0  0  0  0  0  0
  -21.8834  -18.9603   25.4834 C   0  0  0  0  0  0  0  0  0  0  0  0
  -22.4505  -21.6885   25.3492 C   0  0  0  0  0  0  0  0  0  0  0  0
  -23.1360  -19.4324   25.8757 C   0  0  0  0  0  0  0  0  0  0  0  0
  -28.6312  -22.7736   20.3697 C   0  0  0  0  0  0  0  0  0  0  0  0
  -28.6655  -20.0817   21.1014 C   0  0  0  0  0  0  0  0  0  0  0  0
  -29.6730  -21.9488   19.9456 C   0  0  0  0  0  0  0  0  0  0  0  0
  -24.7872  -14.1388   22.5338 C   0  0  0  0  0  0  0  0  0  0  0  0
  -25.5089  -12.5394   21.2086 C   0  0  0  0  0  0  0  0  0  0  0  0
  -23.0241  -12.5944   21.4748 C   0  0  0  0  0  0  0  0  0  0  0  0
  -25.2625  -27.5418   18.7260 C   0  0  0  0  0  0  0  0  0  0  0  0
  -22.9585  -28.7413   20.6689 C   0  0  0  0  0  0  0  0  0  0  0  0
  -20.5023  -28.1443   22.9619 C   0  0  0  0  0  0  0  0  0  0  0  0
  -30.9402  -14.8377   20.1742 C   0  0  0  0  0  0  0  0  0  0  0  0
  -27.9622  -29.1395   14.6990 C   0  0  0  0  0  0  0  0  0  0  0  0
  -23.2740  -26.1343   18.0771 C   0  0  0  0  0  0  0  0  0  0  0  0
  -23.5765  -26.3195   21.0129 C   0  0  0  0  0  0  0  0  0  0  0  0
  -27.2525  -29.8093   15.8729 C   0  0  0  0  0  0  0  0  0  0  0  0
  -30.1609  -12.0113   22.1943 C   0  0  0  0  0  0  0  0  0  0  0  0
  -27.6422  -29.1378   17.1859 C   0  0  0  0  0  0  0  0  0  0  0  0
  -28.6561  -12.1394   22.4378 C   0  0  0  0  0  0  0  0  0  0  0  0
  -30.8471  -13.3753   22.1715 C   0  0  0  0  0  0  0  0  0  0  0  0
  -28.7552  -14.4765   21.4749 C   0  0  0  0  0  0  0  0  0  0  0  0
  -27.2219  -27.6631   17.1973 C   0  0  1  0  0  0  0  0  0  0  0  0
  -23.7661  -27.4094   18.7549 C   0  0  1  0  0  0  0  0  0  0  0  0
  -28.0108  -13.1306   21.4506 C   0  0  2  0  0  0  0  0  0  0  0  0
  -18.8188  -29.3273   24.3984 C   0  0  0  0  0  0  0  0  0  0  0  0
  -32.0938  -18.3955   17.3376 C   0  0  0  0  0  0  0  0  0  0  0  0
  -25.1832  -29.5797   22.5814 C   0  0  0  0  0  0  0  0  0  0  0  0
  -23.4476  -29.8698   24.3624 C   0  0  0  0  0  0  0  0  0  0  0  0
  -23.3597  -31.2677   22.2982 C   0  0  0  0  0  0  0  0  0  0  0  0
  -18.2376  -26.7731   21.6390 C   0  0  0  0  0  0  0  0  0  0  0  0
  -26.4953  -20.3880   22.3809 C   0  0  0  0  0  0  0  0  0  0  0  0
  -30.8087  -19.7129   19.8577 C   0  0  0  0  0  0  0  0  0  0  0  0
  -25.4654  -19.5619   21.6073 C   0  0  0  0  0  0  0  0  0  0  0  0
  -30.8716  -16.3205   18.1853 C   0  0  0  0  0  0  0  0  0  0  0  0
  -24.7271  -20.3626   20.5408 C   0  0  0  0  0  0  0  0  0  1  0  0
  -22.7523  -28.8172   22.1625 C   0  0  1  0  0  0  0  0  0  0  0  0
  -19.0737  -28.6479   23.0620 C   0  0  2  0  0  0  0  0  0  0  0  0
  -31.4375  -17.6984   18.5215 C   0  0  2  0  0  0  0  0  0  0  0  0
  -23.6887  -29.8587   22.8378 C   0  0  0  0  0  0  0  0  0  0  0  0
  -26.1150  -14.2827   22.5282 N   0  0  0  0  0  0  0  0  0  0  0  0
  -26.5254  -13.2956   21.7138 N   0  0  0  0  0  0  0  0  0  0  0  0
  -23.3566  -27.4978   20.1580 N   0  0  0  0  0  0  0  0  0  0  0  0
  -30.1881  -14.2672   21.2144 N   0  0  0  0  0  0  0  0  0  0  0  0
  -25.7448  -11.5059   20.3728 N   0  0  0  0  0  0  0  0  0  0  0  0
  -21.9508  -13.2530   22.0900 N   0  0  0  0  0  0  0  0  0  0  0  0
  -25.8026  -27.5440   17.4541 N   0  0  0  0  0  0  0  0  0  0  0  0
  -21.3303  -29.0719   22.3658 N   0  0  0  0  0  0  0  0  0  0  0  0
  -30.2372  -15.6657   19.3077 N   0  0  0  0  0  0  0  0  0  0  0  0
  -18.1144  -27.5164   22.9194 N   0  3  0  0  0  0  0  0  0  0  0  0
  -30.3441  -18.5671   19.0336 N   0  3  0  0  0  0  0  0  0  0  0  0
  -22.7962  -11.6056   20.7373 O   0  0  0  0  0  0  0  0  0  0  0  0
  -25.8811  -27.6364   19.7796 O   0  0  0  0  0  0  0  0  0  0  0  0
  -22.7662  -29.7463   19.9800 O   0  0  0  0  0  0  0  0  0  0  0  0
  -20.8498  -27.0401   23.3748 O   0  0  0  0  0  0  0  0  0  0  0  0
  -32.1476  -14.6206   20.0255 O   0  0  0  0  0  0  0  0  0  0  0  0
  -21.6007  -17.6062   25.5487 O   0  0  0  0  0  0  0  0  0  0  0  0
  -24.0549  -21.4529   21.1699 O   0  0  0  0  0  0  0  0  0  1  0  0
  -22.7231  -22.9982   25.2833 F   0  0  0  0  0  0  0  0  0  0  0  0
  -24.0713  -18.5801   26.3168 F   0  0  0  0  0  0  0  0  0  0  0  0
  -28.5458  -24.4506   19.9541 Cl  0  0  0  0  0  0  0  0  0  0  0  0
  -28.6797  -18.4105   21.5608 Cl  0  0  0  0  0  0  0  0  0  0  0  0
  -30.9560  -22.5805   18.9608 Cl  0  0  0  0  0  0  0  0  0  0  0  0
  1  2  1  0  0  0  0
  1  5  2  0  0  0  0
  2  6  2  0  0  0  0
  3  8  2  0  0  0  0
  3 16  1  0  0  0  0
  4  9  1  0  0  0  0
  4 16  2  0  0  0  0
  5 18  1  0  0  0  0
  6 20  1  0  0  0  0
  7 10  2  0  0  0  0
  7 19  1  0  0  0  0
  8 24  1  0  0  0  0
  9 24  2  0  0  0  0
 10 25  1  0  0  0  0
 11 12  2  0  0  0  0
 11 26  1  0  0  0  0
 12 27  1  0  0  0  0
 13 21  1  0  0  0  0
 13 25  2  0  0  0  0
 14 22  1  0  0  0  0
 14 29  2  0  0  0  0
 15 27  2  0  0  0  0
 15 28  1  0  0  0  0
 16 32  1  0  0  0  0
 17 32  1  0  0  0  0
 17 33  2  0  0  0  0
 17 34  1  0  0  0  0
 18 20  2  0  0  0  0
 18 39  1  0  0  0  0
 19 21  2  0  0  0  0
 19 40  1  0  0  0  0
 20 48  1  0  0  0  0
 21 41  1  0  0  0  0
 22 30  2  0  0  0  0
 22 57  1  0  0  0  0
 23 30  1  0  0  0  0
 23 31  2  0  0  0  0
 23 58  1  0  0  0  0
 24 82  1  0  0  0  0
 25 83  1  0  0  0  0
 26 28  2  0  0  0  0
 26 82  1  0  0  0  0
 27 84  1  0  0  0  0
 28 85  1  0  0  0  0
 29 31  1  0  0  0  0
 29 86  1  0  0  0  0
 30 87  1  0  0  0  0
 31 88  1  0  0  0  0
 32 66  2  0  0  0  0
 33 67  1  0  0  0  0
 33 70  1  0  0  0  0
 34 71  1  0  0  0  0
 34 77  2  0  0  0  0
 35 49  1  0  0  0  0
 35 72  1  0  0  0  0
 35 78  2  0  0  0  0
 36 62  1  0  0  0  0
 36 68  1  0  0  0  0
 36 79  2  0  0  0  0
 37 63  1  0  0  0  0
 37 73  1  0  0  0  0
 37 80  2  0  0  0  0
 38 69  1  0  0  0  0
 38 74  1  0  0  0  0
 38 81  2  0  0  0  0
 39 42  1  0  0  0  0
 40 49  1  0  0  0  0
 41 68  1  0  0  0  0
 42 44  1  0  0  0  0
 43 45  1  0  0  0  0
 43 46  1  0  0  0  0
 44 48  1  0  0  0  0
 45 50  1  0  0  0  0
 46 69  1  0  0  0  0
 47 50  1  0  0  0  0
 47 69  1  0  0  0  0
 48 72  1  0  0  0  0
 49 68  1  0  0  0  0
 50 67  1  0  0  0  0
 51 63  1  0  0  0  0
 52 64  1  0  0  0  0
 53 65  1  0  0  0  0
 54 65  1  0  0  0  0
 55 65  1  0  0  0  0
 56 75  1  0  0  0  0
 57 59  1  0  0  0  0
 58 76  1  0  0  0  0
 59 61  1  0  0  0  0
 60 64  1  0  0  0  0
 60 74  1  0  0  0  0
 61 83  1  0  0  0  0
 62 65  1  0  0  0  0
 62 73  1  0  0  0  0
 63 75  1  0  0  0  0
 64 76  1  0  0  0  0
 66 67  1  0  0  0  0
M  CHG  2  75   1  76   1
M  ISO  4  38 100  61 101  74 100  83 101
M  END
> <Batch ID>
0024

> <Smiles>
CNC(C)C(=O)NC(C(=O)N1Cc2cc([101O:1][101CH2:1]CCc3cc(Cl)c(Cl)c(CNC(C)C[100NH:0][100C:0](=O)N4CCCC(n5nc(-c6ccc(Oc7ccc(F)cc7F)cc6)c(C(N)=O)c5N)C4)c3Cl)ccc2CC1C(=O)NC1CCCc2ccccc21)C(C)(C)C

> <Shape>
0.206

> <Color>
0.069

> <Negative vol penalty>
0.000

$$$$

  -OEChem-04052316223D

 83 91  0     1  0  0  0  0  0999 V2000
  -23.5968  -21.2615   23.9362 C   0  0  0  0  0  0  0  0  0  0  0  0
  -24.9360  -20.8944   24.0219 C   0  0  0  0  0  0  0  0  0  0  0  0
  -23.0759   -9.8669   19.9413 C   0  0  0  0  0  0  0  0  0  0  0  0
  -23.8344   -9.8756   22.2352 C   0  0  0  0  0  0  0  0  0  0  0  0
  -23.2500  -22.5194   23.4451 C   0  0  0  0  0  0  0  0  0  0  0  0
  -25.9292  -21.7848   23.6154 C   0  0  0  0  0  0  0  0  0  0  0  0
  -29.7840  -22.0227   26.8909 C   0  0  0  0  0  0  0  0  0  0  0  0
  -22.3319   -8.7140   20.1916 C   0  0  0  0  0  0  0  0  0  0  0  0
  -23.0903   -8.7226   22.4855 C   0  0  0  0  0  0  0  0  0  0  0  0
  -30.7126  -20.9832   26.8580 C   0  0  0  0  0  0  0  0  0  0  0  0
  -19.8617   -7.9254   23.0866 C   0  0  0  0  0  0  0  0  0  0  0  0
  -19.1040   -7.8864   24.2570 C   0  0  0  0  0  0  0  0  0  0  0  0
  -32.2079  -22.3678   25.5672 C   0  0  0  0  0  0  0  0  0  0  0  0
  -31.5779  -19.3834   22.8273 C   0  0  0  0  0  0  0  0  0  0  0  0
  -20.3449   -5.9494   24.9957 C   0  0  0  0  0  0  0  0  0  0  0  0
  -23.8273  -10.4477   20.9631 C   0  0  0  0  0  0  0  0  0  0  0  0
  -24.1693  -12.9728   20.8414 C   0  0  0  0  0  0  0  0  0  0  0  0
  -24.2399  -23.4293   23.0415 C   0  0  0  0  0  0  0  0  0  0  0  0
  -30.0564  -23.2408   26.2518 C   0  0  0  0  0  0  0  0  0  0  0  0
  -25.5952  -23.0556   23.1172 C   0  0  0  0  0  0  0  0  0  0  0  0
  -31.2822  -23.4221   25.5957 C   0  0  0  0  0  0  0  0  0  0  0  0
  -30.4182  -19.3432   22.0534 C   0  0  0  0  0  0  0  0  0  0  0  0
  -32.2409  -18.2000   23.1523 C   0  0  0  0  0  0  0  0  0  0  0  0
  -30.5842  -16.9361   21.9295 C   0  0  0  0  0  0  0  0  0  0  0  0
  -22.3390   -8.1419   21.4637 C   0  0  0  0  0  0  0  0  0  0  0  0
  -31.9235  -21.1547   26.1936 C   0  0  0  0  0  0  0  0  0  0  0  0
  -20.8610   -6.9764   22.8706 C   0  0  0  0  0  0  0  0  0  0  0  0
  -19.3456   -6.8984   25.2116 C   0  0  0  0  0  0  0  0  0  0  0  0
  -21.1025   -5.9884   23.8252 C   0  0  0  0  0  0  0  0  0  0  0  0
  -29.9213  -18.1196   21.6045 C   0  0  0  0  0  0  0  0  0  0  0  0
  -31.7440  -16.9763   22.7035 C   0  0  0  0  0  0  0  0  0  0  0  0
  -24.5965  -11.6384   20.7049 C   0  0  0  0  0  0  0  0  0  0  0  0
  -25.2617  -13.7219   20.4782 C   0  0  0  0  0  0  0  0  0  0  0  0
  -22.8985  -13.4889   21.2591 C   0  0  0  0  0  0  0  0  0  0  0  0
  -28.7219  -24.8736   23.8733 C   0  0  0  0  0  0  0  0  0  0  0  0
  -30.9009  -27.1244   24.7148 C   0  0  0  0  0  0  0  0  0  0  0  0
  -33.8896  -27.8542   26.1921 C   0  0  0  0  0  0  0  0  0  0  0  0
  -30.7278  -14.7675   20.6557 C   0  0  0  0  0  0  0  0  0  0  0  0
  -23.8144  -24.7599   22.4729 C   0  0  0  0  0  0  0  0  0  0  0  0
  -29.0555  -24.3616   26.3193 C   0  0  0  0  0  0  0  0  0  0  0  0
  -31.6314  -24.7175   24.9112 C   0  0  0  0  0  0  0  0  0  0  0  0
  -24.9431  -25.7860   22.4140 C   0  0  0  0  0  0  0  0  0  0  0  0
  -29.6148  -12.3519   18.2885 C   0  0  0  0  0  0  0  0  0  0  0  0
  -26.2055  -25.1582   21.8317 C   0  0  0  0  0  0  0  0  0  0  0  0
  -28.1749  -12.0607   18.7173 C   0  0  0  0  0  0  0  0  0  0  0  0
  -30.5291  -12.5816   19.4905 C   0  0  0  0  0  0  0  0  0  0  0  0
  -28.6213  -13.3072   20.8700 C   0  0  0  0  0  0  0  0  0  0  0  0
  -26.7025  -24.0031   22.7093 C   0  0  1  0  0  0  0  0  0  0  0  0
  -29.2227  -25.3804   25.1962 C   0  0  1  0  0  0  0  0  0  0  0  0
  -27.6493  -13.1331   19.6917 C   0  0  2  0  0  0  0  0  0  0  0  0
  -29.7420  -20.6372   21.7309 C   0  0  0  0  0  0  0  0  0  0  0  0
  -35.4220  -29.7774   26.6925 C   0  0  0  0  0  0  0  0  0  0  0  0
  -31.8042  -27.1598   21.8006 C   0  0  0  0  0  0  0  0  0  0  0  0
  -33.8895  -28.3354   22.5339 C   0  0  0  0  0  0  0  0  0  0  0  0
  -31.6660  -29.4128   22.8774 C   0  0  0  0  0  0  0  0  0  0  0  0
  -33.6734  -27.4177   29.1113 C   0  0  0  0  0  0  0  0  0  0  0  0
  -33.4910  -18.2936   23.9902 C   0  0  0  0  0  0  0  0  0  0  0  0
  -33.2837  -17.8938   25.4526 C   0  0  0  0  0  0  0  0  0  0  0  0
  -32.3201  -18.8097   26.1982 C   0  0  0  0  0  0  0  0  0  1  0  0
  -32.3221  -27.4389   24.3146 C   0  0  1  0  0  0  0  0  0  0  0  0
  -34.2797  -28.9146   27.2059 C   0  0  2  0  0  0  0  0  0  0  0  0
  -32.4134  -28.0615   22.8928 C   0  0  0  0  0  0  0  0  0  0  0  0
  -25.8617  -11.5422   20.2875 N   0  0  0  0  0  0  0  0  0  0  0  0
  -26.2387  -12.8257   20.1585 N   0  0  0  0  0  0  0  0  0  0  0  0
  -30.6174  -25.7812   24.9997 N   0  0  0  0  0  0  0  0  0  0  0  0
  -29.9696  -13.6131   20.3668 N   0  0  0  0  0  0  0  0  0  0  0  0
  -25.4722  -15.0533   20.4044 N   0  0  0  0  0  0  0  0  0  0  0  0
  -21.8864  -12.5800   21.5964 N   0  0  0  0  0  0  0  0  0  0  0  0
  -30.0799  -15.6932   21.4730 N   0  0  0  0  0  0  0  0  0  0  0  0
  -27.3876  -24.5143   23.8771 N   0  0  0  0  0  0  0  0  0  0  0  0
  -32.8669  -28.2829   25.3725 N   0  0  0  0  0  0  0  0  0  0  0  0
  -34.7092  -28.2773   28.4828 N   0  3  0  0  0  0  0  0  0  0  0  0
  -22.6623  -14.7196   21.3154 O   0  0  0  0  0  0  0  0  0  0  0  0
  -29.4889  -24.8143   22.9194 O   0  0  0  0  0  0  0  0  0  0  0  0
  -30.0746  -28.0380   24.7796 O   0  0  0  0  0  0  0  0  0  0  0  0
  -34.4397  -26.7569   26.1307 O   0  0  0  0  0  0  0  0  0  0  0  0
  -31.8572  -14.9358   20.1886 O   0  0  0  0  0  0  0  0  0  0  0  0
  -21.6129   -7.0170   21.7084 O   0  0  0  0  0  0  0  0  0  0  0  0
  -32.8313  -20.1415   26.1595 O   0  0  0  0  0  0  0  0  0  1  0  0
  -18.6189   -6.8620   26.3362 F   0  0  0  0  0  0  0  0  0  0  0  0
  -22.0620   -5.0748   23.6239 F   0  0  0  0  0  0  0  0  0  0  0  0
  -28.4770  -18.0833   20.6441 Cl  0  0  0  0  0  0  0  0  0  0  0  0
  -32.5781  -15.5118   23.1147 Cl  0  0  0  0  0  0  0  0  0  0  0  0
  1  2  1  0  0  0  0
  1  5  2  0  0  0  0
  2  6  2  0  0  0  0
  3  8  2  0  0  0  0
  3 16  1  0  0  0  0
  4  9  1  0  0  0  0
  4 16  2  0  0  0  0
  5 18  1  0  0  0  0
  6 20  1  0  0  0  0
  7 10  2  0  0  0  0
  7 19  1  0  0  0  0
  8 25  1  0  0  0  0
  9 25  2  0  0  0  0
 10 26  1  0  0  0  0
 11 12  2  0  0  0  0
 11 27  1  0  0  0  0
 12 28  1  0  0  0  0
 13 21  1  0  0  0  0
 13 26  2  0  0  0  0
 14 22  2  0  0  0  0
 14 23  1  0  0  0  0
 15 28  2  0  0  0  0
 15 29  1  0  0  0  0
 16 32  1  0  0  0  0
 17 32  1  0  0  0  0
 17 33  2  0  0  0  0
 17 34  1  0  0  0  0
 18 20  2  0  0  0  0
 18 39  1  0  0  0  0
 19 21  2  0  0  0  0
 19 40  1  0  0  0  0
 20 48  1  0  0  0  0
 21 41  1  0  0  0  0
 22 30  1  0  0  0  0
 22 51  1  0  0  0  0
 23 31  2  0  0  0  0
 23 57  1  0  0  0  0
 24 30  2  0  0  0  0
 24 31  1  0  0  0  0
 24 69  1  0  0  0  0
 25 78  1  0  0  0  0
 26 79  1  0  0  0  0
 27 29  2  0  0  0  0
 27 78  1  0  0  0  0
 28 80  1  0  0  0  0
 29 81  1  0  0  0  0
 30 82  1  0  0  0  0
 31 83  1  0  0  0  0
 32 63  2  0  0  0  0
 33 64  1  0  0  0  0
 33 67  1  0  0  0  0
 34 68  1  0  0  0  0
 34 73  2  0  0  0  0
 35 49  1  0  0  0  0
 35 70  1  0  0  0  0
 35 74  2  0  0  0  0
 36 60  1  0  0  0  0
 36 65  1  0  0  0  0
 36 75  2  0  0  0  0
 37 61  1  0  0  0  0
 37 71  1  0  0  0  0
 37 76  2  0  0  0  0
 38 66  1  0  0  0  0
 38 69  1  0  0  0  0
 38 77  2  0  0  0  0
 39 42  1  0  0  0  0
 40 49  1  0  0  0  0
 41 65  1  0  0  0  0
 42 44  1  0  0  0  0
 43 45  1  0  0  0  0
 43 46  1  0  0  0  0
 44 48  1  0  0  0  0
 45 50  1  0  0  0  0
 46 66  1  0  0  0  0
 47 50  1  0  0  0  0
 47 66  1  0  0  0  0
 48 70  1  0  0  0  0
 49 65  1  0  0  0  0
 50 64  1  0  0  0  0
 52 61  1  0  0  0  0
 53 62  1  0  0  0  0
 54 62  1  0  0  0  0
 55 62  1  0  0  0  0
 56 72  1  0  0  0  0
 57 58  1  0  0  0  0
 58 59  1  0  0  0  0
 59 79  1  0  0  0  0
 60 62  1  0  0  0  0
 60 71  1  0  0  0  0
 61 72  1  0  0  0  0
 63 64  1  0  0  0  0
M  CHG  1  72   1
M  ISO  4  38 100  59 101  69 100  79 101
M  END
> <Batch ID>
0024

> <Smiles>
CNC(C)C(=O)NC(C(=O)N1Cc2cc([101O:1][101CH2:1]CCc3cc(C)c(Cl)c([100NH:0][100C:0](=O)N4CCCC(n5nc(-c6ccc(Oc7ccc(F)cc7F)cc6)c(C(N)=O)c5N)C4)c3Cl)ccc2CC1C(=O)NC1CCCc2ccccc21)C(C)(C)C

> <Shape>
0.187

> <Color>
0.200

> <Negative vol penalty>
0.000

$$$$

  -OEChem-04052316223D

 87 95  0     1  0  0  0  0  0999 V2000
  -29.1173  -34.2059   26.3532 C   0  0  0  0  0  0  0  0  0  0  0  0
  -28.9285  -33.1588   25.4570 C   0  0  0  0  0  0  0  0  0  0  0  0
  -23.3958   -9.6153   20.9464 C   0  0  0  0  0  0  0  0  0  0  0  0
  -24.0245  -10.3856   23.1483 C   0  0  0  0  0  0  0  0  0  0  0  0
  -28.2056  -34.4088   27.3885 C   0  0  0  0  0  0  0  0  0  0  0  0
  -27.8285  -32.3132   25.5961 C   0  0  0  0  0  0  0  0  0  0  0  0
  -25.5175  -31.3904   21.1856 C   0  0  0  0  0  0  0  0  0  0  0  0
  -22.7526   -8.5158   21.5146 C   0  0  0  0  0  0  0  0  0  0  0  0
  -23.3813   -9.2860   23.7166 C   0  0  0  0  0  0  0  0  0  0  0  0
  -26.1154  -30.4608   20.3357 C   0  0  0  0  0  0  0  0  0  0  0  0
  -19.8185   -7.8750   23.0681 C   0  0  0  0  0  0  0  0  0  0  0  0
  -18.5506   -7.5465   22.5885 C   0  0  0  0  0  0  0  0  0  0  0  0
  -24.5529  -28.7817   21.0827 C   0  0  0  0  0  0  0  0  0  0  0  0
  -19.3647   -5.3700   21.9273 C   0  0  0  0  0  0  0  0  0  0  0  0
  -24.0318  -10.5502   21.7632 C   0  0  0  0  0  0  0  0  0  0  0  0
  -24.1375  -12.9468   20.8956 C   0  0  0  0  0  0  0  0  0  0  0  0
  -27.0886  -33.5712   27.5346 C   0  0  0  0  0  0  0  0  0  0  0  0
  -24.4379  -31.0190   21.9998 C   0  0  0  0  0  0  0  0  0  0  0  0
  -26.9018  -32.5043   26.6350 C   0  0  0  0  0  0  0  0  0  0  0  0
  -23.9414  -29.7090   21.9402 C   0  0  0  0  0  0  0  0  0  0  0  0
  -29.5090  -19.3663   18.6667 C   0  0  0  0  0  0  0  0  0  0  0  0
  -29.8164  -20.3707   19.5844 C   0  0  0  0  0  0  0  0  0  0  0  0
  -29.7538  -17.7046   20.4034 C   0  0  0  0  0  0  0  0  0  0  0  0
  -22.7454   -8.3511   22.8997 C   0  0  0  0  0  0  0  0  0  0  0  0
  -25.6350  -29.1555   20.2863 C   0  0  0  0  0  0  0  0  0  0  0  0
  -20.8596   -6.9511   22.9772 C   0  0  0  0  0  0  0  0  0  0  0  0
  -18.3237   -6.2940   22.0181 C   0  0  0  0  0  0  0  0  0  0  0  0
  -20.6327   -5.6986   22.4068 C   0  0  0  0  0  0  0  0  0  0  0  0
  -29.4776  -18.0332   19.0762 C   0  0  0  0  0  0  0  0  0  0  0  0
  -30.0925  -20.0421   20.9116 C   0  0  0  0  0  0  0  0  0  0  0  0
  -30.0612  -18.7091   21.3211 C   0  0  0  0  0  0  0  0  0  0  0  0
  -24.6969  -11.6860   21.1768 C   0  0  0  0  0  0  0  0  0  0  0  0
  -25.1715  -13.6671   20.3493 C   0  0  0  0  0  0  0  0  0  0  0  0
  -22.8025  -13.4243   21.1093 C   0  0  0  0  0  0  0  0  0  0  0  0
  -23.9301  -30.9002   25.1354 C   0  0  0  0  0  0  0  0  0  0  0  0
  -20.9065  -30.1588   24.2240 C   0  0  0  0  0  0  0  0  0  0  0  0
  -18.8300  -28.8972   21.8274 C   0  0  0  0  0  0  0  0  0  0  0  0
  -30.4953  -15.2981   20.3303 C   0  0  0  0  0  0  0  0  0  0  0  0
  -26.1561  -33.8010   28.6974 C   0  0  0  0  0  0  0  0  0  0  0  0
  -23.7869  -32.0405   22.8915 C   0  0  0  0  0  0  0  0  0  0  0  0
  -22.7718  -29.2653   22.7791 C   0  0  0  0  0  0  0  0  0  0  0  0
  -24.8138  -33.0887   28.5517 C   0  0  0  0  0  0  0  0  0  0  0  0
  -29.7477  -12.1842   18.7742 C   0  0  0  0  0  0  0  0  0  0  0  0
  -25.0215  -31.6440   28.1082 C   0  0  0  0  0  0  0  0  0  0  0  0
  -28.3210  -11.8807   19.2374 C   0  0  0  0  0  0  0  0  0  0  0  0
  -30.5695  -12.8569   19.8723 C   0  0  0  0  0  0  0  0  0  0  0  0
  -28.5292  -13.7501   20.9253 C   0  0  0  0  0  0  0  0  0  0  0  0
  -25.7074  -31.5807   26.7381 C   0  0  1  0  0  0  0  0  0  0  0  0
  -23.0224  -31.4173   24.0553 C   0  0  1  0  0  0  0  0  0  0  0  0
  -27.6435  -13.1310   19.8317 C   0  0  2  0  0  0  0  0  0  0  0  0
  -29.2134  -19.7373   17.2456 C   0  0  0  0  0  0  0  0  0  0  0  0
  -16.4136  -28.3837   21.3863 C   0  0  0  0  0  0  0  0  0  0  0  0
  -21.1076  -27.6914   26.0077 C   0  0  0  0  0  0  0  0  0  0  0  0
  -19.1140  -26.7545   24.8177 C   0  0  0  0  0  0  0  0  0  0  0  0
  -18.9083  -28.8773   26.1116 C   0  0  0  0  0  0  0  0  0  0  0  0
  -18.7323  -30.7636   19.5327 C   0  0  0  0  0  0  0  0  0  0  0  0
  -29.8458  -21.7975   19.1215 C   0  0  0  0  0  0  0  0  0  0  0  0
  -27.4426  -24.6979   19.7159 C   0  0  0  0  0  0  0  0  0  0  0  0
  -27.4043  -26.1667   19.3008 C   0  0  0  0  0  0  0  0  0  0  0  0
  -28.6878  -24.0099   19.1767 C   0  0  0  0  0  0  0  0  0  0  0  0
  -26.1854  -26.8799   19.8689 C   0  0  0  0  0  0  0  0  0  1  0  0
  -20.1654  -28.8796   23.9181 C   0  0  1  0  0  0  0  0  0  0  0  0
  -17.5237  -29.4145   21.2525 C   0  0  2  0  0  0  0  0  0  0  0  0
  -19.8471  -28.0582   25.1993 C   0  0  0  0  0  0  0  0  0  0  0  0
  -25.9861  -11.6065   20.8370 N   0  0  0  0  0  0  0  0  0  0  0  0
  -26.2455  -12.8265   20.3366 N   0  0  0  0  0  0  0  0  0  0  0  0
  -22.1733  -30.2991   23.6396 N   0  0  0  0  0  0  0  0  0  0  0  0
  -29.8675  -14.0357   20.3846 N   0  0  0  0  0  0  0  0  0  0  0  0
  -25.2577  -14.9312   19.8833 N   0  0  0  0  0  0  0  0  0  0  0  0
  -21.8649  -12.5534   21.6808 N   0  0  0  0  0  0  0  0  0  0  0  0
  -29.7187  -16.3496   20.8162 N   0  0  0  0  0  0  0  0  0  0  0  0
  -24.7570  -31.8620   25.6836 N   0  0  0  0  0  0  0  0  0  0  0  0
  -18.9882  -29.2643   23.1471 N   0  0  0  0  0  0  0  0  0  0  0  0
  -17.6878  -29.7438   19.8084 N   0  3  0  0  0  0  0  0  0  0  0  0
  -28.6592  -22.5793   19.5653 N   0  3  0  0  0  0  0  0  0  0  0  0
  -22.4473  -14.5835   20.7873 O   0  0  0  0  0  0  0  0  0  0  0  0
  -23.8826  -29.7166   25.4492 O   0  0  0  0  0  0  0  0  0  0  0  0
  -20.3778  -31.0054   24.9487 O   0  0  0  0  0  0  0  0  0  0  0  0
  -19.6284  -28.2307   21.1725 O   0  0  0  0  0  0  0  0  0  0  0  0
  -31.6271  -15.4404   19.8605 O   0  0  0  0  0  0  0  0  0  0  0  0
  -22.1176   -7.2785   23.4546 O   0  0  0  0  0  0  0  0  0  0  0  0
  -26.2172  -28.2461   19.4581 O   0  0  0  0  0  0  0  0  0  1  0  0
  -17.1057   -5.9780   21.5590 F   0  0  0  0  0  0  0  0  0  0  0  0
  -21.6286   -4.8063   22.3178 F   0  0  0  0  0  0  0  0  0  0  0  0
  -29.0906  -16.7896   17.9284 Cl  0  0  0  0  0  0  0  0  0  0  0  0
  -30.4725  -21.3152   22.0309 Cl  0  0  0  0  0  0  0  0  0  0  0  0
  -30.4031  -18.2786   22.9717 Cl  0  0  0  0  0  0  0  0  0  0  0  0
  1  2  1  0  0  0  0
  1  5  2  0  0  0  0
  2  6  2  0  0  0  0
  3  8  2  0  0  0  0
  3 15  1  0  0  0  0
  4  9  1  0  0  0  0
  4 15  2  0  0  0  0
  5 17  1  0  0  0  0
  6 19  1  0  0  0  0
  7 10  2  0  0  0  0
  7 18  1  0  0  0  0
  8 24  1  0  0  0  0
  9 24  2  0  0  0  0
 10 25  1  0  0  0  0
 11 12  2  0  0  0  0
 11 26  1  0  0  0  0
 12 27  1  0  0  0  0
 13 20  1  0  0  0  0
 13 25  2  0  0  0  0
 14 27  2  0  0  0  0
 14 28  1  0  0  0  0
 15 32  1  0  0  0  0
 16 32  1  0  0  0  0
 16 33  2  0  0  0  0
 16 34  1  0  0  0  0
 17 19  2  0  0  0  0
 17 39  1  0  0  0  0
 18 20  2  0  0  0  0
 18 40  1  0  0  0  0
 19 48  1  0  0  0  0
 20 41  1  0  0  0  0
 21 22  1  0  0  0  0
 21 29  2  0  0  0  0
 21 51  1  0  0  0  0
 22 30  2  0  0  0  0
 22 57  1  0  0  0  0
 23 29  1  0  0  0  0
 23 31  2  0  0  0  0
 23 71  1  0  0  0  0
 24 81  1  0  0  0  0
 25 82  1  0  0  0  0
 26 28  2  0  0  0  0
 26 81  1  0  0  0  0
 27 83  1  0  0  0  0
 28 84  1  0  0  0  0
 29 85  1  0  0  0  0
 30 31  1  0  0  0  0
 30 86  1  0  0  0  0
 31 87  1  0  0  0  0
 32 65  2  0  0  0  0
 33 66  1  0  0  0  0
 33 69  1  0  0  0  0
 34 70  1  0  0  0  0
 34 76  2  0  0  0  0
 35 49  1  0  0  0  0
 35 72  1  0  0  0  0
 35 77  2  0  0  0  0
 36 62  1  0  0  0  0
 36 67  1  0  0  0  0
 36 78  2  0  0  0  0
 37 63  1  0  0  0  0
 37 73  1  0  0  0  0
 37 79  2  0  0  0  0
 38 68  1  0  0  0  0
 38 71  1  0  0  0  0
 38 80  2  0  0  0  0
 39 42  1  0  0  0  0
 40 49  1  0  0  0  0
 41 67  1  0  0  0  0
 42 44  1  0  0  0  0
 43 45  1  0  0  0  0
 43 46  1  0  0  0  0
 44 48  1  0  0  0  0
 45 50  1  0  0  0  0
 46 68  1  0  0  0  0
 47 50  1  0  0  0  0
 47 68  1  0  0  0  0
 48 72  1  0  0  0  0
 49 67  1  0  0  0  0
 50 66  1  0  0  0  0
 52 63  1  0  0  0  0
 53 64  1  0  0  0  0
 54 64  1  0  0  0  0
 55 64  1  0  0  0  0
 56 74  1  0  0  0  0
 57 75  1  0  0  0  0
 58 59  1  0  0  0  0
 58 60  1  0  0  0  0
 59 61  1  0  0  0  0
 60 75  1  0  0  0  0
 61 82  1  0  0  0  0
 62 64  1  0  0  0  0
 62 73  1  0  0  0  0
 63 74  1  0  0  0  0
 65 66  1  0  0  0  0
M  CHG  2  74   1  75   1
M  ISO  4  38 100  61 101  71 100  82 101
M  END
> <Batch ID>
0024

> <Smiles>
CNC(C)C(=O)NC(C(=O)N1Cc2cc([101O:1][101CH2:1]CCCNCc3c(C)c(Cl)c([100NH:0][100C:0](=O)N4CCCC(n5nc(-c6ccc(Oc7ccc(F)cc7F)cc6)c(C(N)=O)c5N)C4)c(Cl)c3Cl)ccc2CC1C(=O)NC1CCCc2ccccc21)C(C)(C)C

> <Shape>
0.360

> <Color>
0.159

> <Negative vol penalty>
0.000

$$$$

  -OEChem-04052316223D

 93102  0     1  0  0  0  0  0999 V2000
  -23.9706  -36.9043   16.2962 C   0  0  0  0  0  0  0  0  0  0  0  0
  -24.5557  -35.6437   16.2335 C   0  0  0  0  0  0  0  0  0  0  0  0
  -23.9592   -9.2945   21.4973 C   0  0  0  0  0  0  0  0  0  0  0  0
  -24.4748  -10.4217   23.5712 C   0  0  0  0  0  0  0  0  0  0  0  0
  -32.2377  -18.6780   21.5311 C   0  0  0  0  0  0  0  0  0  0  0  0
  -23.9713  -37.6130   17.4969 C   0  0  0  0  0  0  0  0  0  0  0  0
  -25.1430  -35.0915   17.3713 C   0  0  0  0  0  0  0  0  0  0  0  0
  -25.2499  -29.1772   18.9575 C   0  0  0  0  0  0  0  0  0  0  0  0
  -32.3983  -17.3157   21.7838 C   0  0  0  0  0  0  0  0  0  0  0  0
  -23.4829   -8.1960   22.2128 C   0  0  0  0  0  0  0  0  0  0  0  0
  -23.9984   -9.3231   24.2867 C   0  0  0  0  0  0  0  0  0  0  0  0
  -26.2202  -28.1860   18.8175 C   0  0  0  0  0  0  0  0  0  0  0  0
  -20.6756   -7.3458   23.8947 C   0  0  0  0  0  0  0  0  0  0  0  0
  -19.4674   -6.7807   23.4866 C   0  0  0  0  0  0  0  0  0  0  0  0
  -26.9751  -28.6156   21.0680 C   0  0  0  0  0  0  0  0  0  0  0  0
  -20.5860   -4.6766   23.0884 C   0  0  0  0  0  0  0  0  0  0  0  0
  -24.4552  -10.4074   22.1765 C   0  0  0  0  0  0  0  0  0  0  0  0
  -31.1556  -19.3663   22.0798 C   0  0  0  0  0  0  0  0  0  0  0  0
  -24.2116  -12.6638   21.0117 C   0  0  0  0  0  0  0  0  0  0  0  0
  -24.5503  -37.0651   18.6524 C   0  0  0  0  0  0  0  0  0  0  0  0
  -25.1418  -29.9039   20.1520 C   0  0  0  0  0  0  0  0  0  0  0  0
  -25.1526  -35.7941   18.5883 C   0  0  0  0  0  0  0  0  0  0  0  0
  -26.0009  -29.6139   21.2215 C   0  0  0  0  0  0  0  0  0  0  0  0
  -31.4769  -16.6416   22.5852 C   0  0  0  0  0  0  0  0  0  0  0  0
  -23.5025   -8.2103   23.6074 C   0  0  0  0  0  0  0  0  0  0  0  0
  -27.0849  -27.9070   19.8719 C   0  0  0  0  0  0  0  0  0  0  0  0
  -21.8390   -6.5763   23.8997 C   0  0  0  0  0  0  0  0  0  0  0  0
  -19.4226   -5.4461   23.0834 C   0  0  0  0  0  0  0  0  0  0  0  0
  -21.7942   -5.2417   23.4966 C   0  0  0  0  0  0  0  0  0  0  0  0
  -30.2341  -18.6922   22.8811 C   0  0  0  0  0  0  0  0  0  0  0  0
  -30.3947  -17.3299   23.1339 C   0  0  0  0  0  0  0  0  0  0  0  0
  -24.9479  -11.5422   21.4380 C   0  0  0  0  0  0  0  0  0  0  0  0
  -25.1295  -13.4488   20.3578 C   0  0  0  0  0  0  0  0  0  0  0  0
  -29.3502  -24.0082   18.5130 C   0  0  0  0  0  0  0  0  0  0  0  0
  -29.0143  -23.1330   21.1817 C   0  0  0  0  0  0  0  0  0  0  0  0
  -28.4616  -24.6172   19.3212 C   0  0  0  0  0  0  0  0  0  0  0  0
  -28.2084  -24.0683   20.6496 C   0  0  0  0  0  0  0  0  0  0  0  0
  -31.0360  -20.8196   21.7756 C   0  0  0  0  0  0  0  0  0  0  0  0
  -22.8221  -12.9687   21.1908 C   0  0  0  0  0  0  0  0  0  0  0  0
  -25.4400  -32.9664   20.9493 C   0  0  0  0  0  0  0  0  0  0  0  0
  -24.4227  -31.9092   23.8424 C   0  0  0  0  0  0  0  0  0  0  0  0
  -24.1104  -29.3094   26.0310 C   0  0  0  0  0  0  0  0  0  0  0  0
  -31.0821  -13.9557   20.7579 C   0  0  0  0  0  0  0  0  0  0  0  0
  -24.5686  -37.8888   19.9157 C   0  0  0  0  0  0  0  0  0  0  0  0
  -24.0723  -30.9516   20.2965 C   0  0  0  0  0  0  0  0  0  0  0  0
  -25.9129  -30.3513   22.5318 C   0  0  0  0  0  0  0  0  0  0  0  0
  -24.8805  -37.0750   21.1690 C   0  0  0  0  0  0  0  0  0  0  0  0
  -29.1922  -13.1588   17.8476 C   0  0  0  0  0  0  0  0  0  0  0  0
  -26.0742  -36.1569   20.9260 C   0  0  0  0  0  0  0  0  0  0  0  0
  -27.8237  -12.7553   18.3993 C   0  0  0  0  0  0  0  0  0  0  0  0
  -30.3266  -12.6995   18.7610 C   0  0  0  0  0  0  0  0  0  0  0  0
  -28.8308  -12.7202   20.7195 C   0  0  0  0  0  0  0  0  0  0  0  0
  -25.7777  -35.1510   19.8072 C   0  0  1  0  0  0  0  0  0  0  0  0
  -30.2047  -22.5907   20.4406 C   0  0  2  0  0  0  0  0  0  0  0  0
  -24.3877  -31.9824   21.3760 C   0  0  1  0  0  0  0  0  0  0  0  0
  -27.6521  -13.2102   19.8611 C   0  0  2  0  0  0  0  0  0  0  0  0
  -30.1019  -22.7756   18.9194 C   0  0  0  0  0  0  0  0  0  0  0  0
  -31.7117  -21.7978   22.7154 C   0  0  0  0  0  0  0  0  0  0  0  0
  -23.2713  -28.7610   28.3316 C   0  0  0  0  0  0  0  0  0  0  0  0
  -26.8847  -33.2422   25.0555 C   0  0  0  0  0  0  0  0  0  0  0  0
  -26.5111  -31.8878   27.1277 C   0  0  0  0  0  0  0  0  0  0  0  0
  -24.7841  -33.5264   26.3826 C   0  0  0  0  0  0  0  0  0  0  0  0
  -22.1392  -27.3703   24.9760 C   0  0  0  0  0  0  0  0  0  0  0  0
  -31.6941  -15.1821   22.8269 C   0  0  0  0  0  0  0  0  0  0  0  0
  -27.7305  -25.8493   18.8693 C   0  0  0  0  0  0  0  0  0  1  0  0
  -25.0972  -31.3794   25.0847 C   0  0  1  0  0  0  0  0  0  0  0  0
  -22.9306  -28.8188   26.8506 C   0  0  2  0  0  0  0  0  0  0  0  0
  -25.8225  -32.4962   25.8874 C   0  0  0  0  0  0  0  0  0  0  0  0
  -26.2344  -11.6053   21.0845 N   0  0  0  0  0  0  0  0  0  0  0  0
  -30.3583  -21.1616   20.7390 N   0  0  0  0  0  0  0  0  0  0  0  0
  -26.3136  -12.7758   20.4291 N   0  0  0  0  0  0  0  0  0  0  0  0
  -24.8549  -31.3711   22.6220 N   0  0  0  0  0  0  0  0  0  0  0  0
  -30.1043  -13.1651   20.1320 N   0  0  0  0  0  0  0  0  0  0  0  0
  -25.0312  -14.6422   19.7344 N   0  0  0  0  0  0  0  0  0  0  0  0
  -22.0214  -12.0529   21.8868 N   0  0  0  0  0  0  0  0  0  0  0  0
  -24.9397  -34.0790   20.3003 N   0  0  0  0  0  0  0  0  0  0  0  0
  -24.0670  -30.6742   25.8394 N   0  0  0  0  0  0  0  0  0  0  0  0
  -30.7894  -14.3598   22.0547 N   0  0  0  0  0  0  0  0  0  0  0  0
  -22.5240  -27.4550   26.4084 N   0  3  0  0  0  0  0  0  0  0  0  0
  -22.3024  -14.0144   20.7327 O   0  0  0  0  0  0  0  0  0  0  0  0
  -26.6184  -32.7341   21.1923 O   0  0  0  0  0  0  0  0  0  0  0  0
  -23.5397  -32.7637   23.9514 O   0  0  0  0  0  0  0  0  0  0  0  0
  -24.9853  -28.5576   25.6067 O   0  0  0  0  0  0  0  0  0  0  0  0
  -32.1355  -14.2820   20.2003 O   0  0  0  0  0  0  0  0  0  0  0  0
  -23.0376   -7.1386   24.3059 O   0  0  0  0  0  0  0  0  0  0  0  0
  -28.0334  -26.9404   19.7377 O   0  0  0  0  0  0  0  0  0  1  0  0
  -18.2620   -4.9032   22.6930 F   0  0  0  0  0  0  0  0  0  0  0  0
  -22.9084   -4.4972   23.5003 F   0  0  0  0  0  0  0  0  0  0  0  0
  -29.5005  -21.6870   18.3629 F   0  0  0  0  0  0  0  0  0  0  0  0
  -31.3646  -22.8044   18.4084 F   0  0  0  0  0  0  0  0  0  0  0  0
  -28.8962  -19.5748   23.5508 Cl  0  0  0  0  0  0  0  0  0  0  0  0
  -29.2661  -16.4614   24.1270 Cl  0  0  0  0  0  0  0  0  0  0  0  0
  -26.8701  -24.6468   21.5852 Cl  0  0  0  0  0  0  0  0  0  0  0  0
  1  2  1  0  0  0  0
  1  6  2  0  0  0  0
  2  7  2  0  0  0  0
  3 10  2  0  0  0  0
  3 17  1  0  0  0  0
  4 11  1  0  0  0  0
  4 17  2  0  0  0  0
  5  9  2  0  0  0  0
  5 18  1  0  0  0  0
  6 20  1  0  0  0  0
  7 22  1  0  0  0  0
  8 12  2  0  0  0  0
  8 21  1  0  0  0  0
  9 24  1  0  0  0  0
 10 25  1  0  0  0  0
 11 25  2  0  0  0  0
 12 26  1  0  0  0  0
 13 14  2  0  0  0  0
 13 27  1  0  0  0  0
 14 28  1  0  0  0  0
 15 23  1  0  0  0  0
 15 26  2  0  0  0  0
 16 28  2  0  0  0  0
 16 29  1  0  0  0  0
 17 32  1  0  0  0  0
 18 30  2  0  0  0  0
 18 38  1  0  0  0  0
 19 32  1  0  0  0  0
 19 33  2  0  0  0  0
 19 39  1  0  0  0  0
 20 22  2  0  0  0  0
 20 44  1  0  0  0  0
 21 23  2  0  0  0  0
 21 45  1  0  0  0  0
 22 53  1  0  0  0  0
 23 46  1  0  0  0  0
 24 31  2  0  0  0  0
 24 64  1  0  0  0  0
 25 85  1  0  0  0  0
 26 86  1  0  0  0  0
 27 29  2  0  0  0  0
 27 85  1  0  0  0  0
 28 87  1  0  0  0  0
 29 88  1  0  0  0  0
 30 31  1  0  0  0  0
 30 91  1  0  0  0  0
 31 92  1  0  0  0  0
 32 69  2  0  0  0  0
 33 71  1  0  0  0  0
 33 74  1  0  0  0  0
 34 36  2  0  0  0  0
 34 57  1  0  0  0  0
 35 37  2  0  0  0  0
 35 54  1  0  0  0  0
 36 37  1  0  0  0  0
 36 65  1  0  0  0  0
 37 93  1  0  0  0  0
 38 58  1  0  0  0  0
 38 70  2  0  0  0  0
 39 75  1  0  0  0  0
 39 80  2  0  0  0  0
 40 55  1  0  0  0  0
 40 76  1  0  0  0  0
 40 81  2  0  0  0  0
 41 66  1  0  0  0  0
 41 72  1  0  0  0  0
 41 82  2  0  0  0  0
 42 67  1  0  0  0  0
 42 77  1  0  0  0  0
 42 83  2  0  0  0  0
 43 73  1  0  0  0  0
 43 78  1  0  0  0  0
 43 84  2  0  0  0  0
 44 47  1  0  0  0  0
 45 55  1  0  0  0  0
 46 72  1  0  0  0  0
 47 49  1  0  0  0  0
 48 50  1  0  0  0  0
 48 51  1  0  0  0  0
 49 53  1  0  0  0  0
 50 56  1  0  0  0  0
 51 73  1  0  0  0  0
 52 56  1  0  0  0  0
 52 73  1  0  0  0  0
 53 76  1  0  0  0  0
 54 57  1  0  0  0  0
 54 70  1  0  0  0  0
 55 72  1  0  0  0  0
 56 71  1  0  0  0  0
 57 89  1  0  0  0  0
 57 90  1  0  0  0  0
 59 67  1  0  0  0  0
 60 68  1  0  0  0  0
 61 68  1  0  0  0  0
 62 68  1  0  0  0  0
 63 79  1  0  0  0  0
 64 78  1  0  0  0  0
 65 86  1  0  0  0  0
 66 68  1  0  0  0  0
 66 77  1  0  0  0  0
 67 79  1  0  0  0  0
 69 71  1  0  0  0  0
M  CHG  1  79   1
M  ISO  4  43 100  65 101  78 100  86 101
M  END
> <Batch ID>
0024

> <Smiles>
C=C(NC1C=C(Cl)C([101CH2:1][101O:1]c2ccc3c(c2)CN(C(=O)C(NC(=O)C(C)NC)C(C)(C)C)C(C(=O)NC2CCCc4ccccc42)C3)=CC1(F)F)c1ccc(C[100NH:0][100C:0](=O)N2CCCC(n3nc(-c4ccc(Oc5ccc(F)cc5F)cc4)c(C(N)=O)c3N)C2)c(Cl)c1Cl

> <Shape>
0.322

> <Color>
0.176

> <Negative vol penalty>
0.000

$$$$

  -OEChem-04052316223D

 82 90  0     1  0  0  0  0  0999 V2000
  -26.7459  -12.1535   17.1663 C   0  0  0  0  0  0  0  0  0  0  0  0
  -26.0662  -13.3324   16.8770 C   0  0  0  0  0  0  0  0  0  0  0  0
  -29.2988  -25.3982   19.7683 C   0  0  0  0  0  0  0  0  0  0  0  0
  -27.3856  -23.9305   19.9188 C   0  0  0  0  0  0  0  0  0  0  0  0
  -26.7167  -11.6327   18.4593 C   0  0  0  0  0  0  0  0  0  0  0  0
  -25.3560  -13.9906   17.8804 C   0  0  0  0  0  0  0  0  0  0  0  0
  -23.4906  -20.5744   19.9993 C   0  0  0  0  0  0  0  0  0  0  0  0
  -19.0219  -24.7428   22.1487 C   0  0  0  0  0  0  0  0  0  0  0  0
  -19.3268  -26.0822   21.9064 C   0  0  0  0  0  0  0  0  0  0  0  0
  -30.1279  -24.3614   20.1965 C   0  0  0  0  0  0  0  0  0  0  0  0
  -28.2147  -22.8936   20.3469 C   0  0  0  0  0  0  0  0  0  0  0  0
  -22.3623  -21.3120   20.3554 C   0  0  0  0  0  0  0  0  0  0  0  0
  -29.8783  -19.7580   21.1335 C   0  0  0  0  0  0  0  0  0  0  0  0
  -29.6945  -18.5004   20.5590 C   0  0  0  0  0  0  0  0  0  0  0  0
  -22.4478  -20.3618   22.5710 C   0  0  0  0  0  0  0  0  0  0  0  0
  -30.1779  -19.4252   18.3800 C   0  0  0  0  0  0  0  0  0  0  0  0
  -27.9276  -25.1827   19.6295 C   0  0  0  0  0  0  0  0  0  0  0  0
  -26.7221  -26.5714   17.8615 C   0  0  0  0  0  0  0  0  0  0  0  0
  -26.0138  -12.2900   19.4813 C   0  0  0  0  0  0  0  0  0  0  0  0
  -24.1004  -19.7152   20.9247 C   0  0  0  0  0  0  0  0  0  0  0  0
  -25.3163  -13.4774   19.1879 C   0  0  0  0  0  0  0  0  0  0  0  0
  -23.5852  -19.6163   22.2250 C   0  0  0  0  0  0  0  0  0  0  0  0
  -19.4216  -24.1414   23.3422 C   0  0  0  0  0  0  0  0  0  0  0  0
  -20.0315  -26.8201   22.8575 C   0  0  0  0  0  0  0  0  0  0  0  0
  -29.5859  -23.1091   20.4857 C   0  0  0  0  0  0  0  0  0  0  0  0
  -21.8391  -21.2036   21.6406 C   0  0  0  0  0  0  0  0  0  0  0  0
  -30.2118  -20.8494   20.3313 C   0  0  0  0  0  0  0  0  0  0  0  0
  -29.8444  -18.3340   19.1822 C   0  0  0  0  0  0  0  0  0  0  0  0
  -30.3616  -20.6829   18.9545 C   0  0  0  0  0  0  0  0  0  0  0  0
  -20.1263  -24.8793   24.2932 C   0  0  0  0  0  0  0  0  0  0  0  0
  -20.4313  -26.2187   24.0509 C   0  0  0  0  0  0  0  0  0  0  0  0
  -27.0706  -26.2535   19.1879 C   0  0  0  0  0  0  0  0  0  0  0  0
  -25.8940  -27.6612   17.9758 C   0  0  0  0  0  0  0  0  0  0  0  0
  -27.1121  -25.9382   16.6356 C   0  0  0  0  0  0  0  0  0  0  0  0
  -24.6317  -16.5845   21.0668 C   0  0  0  0  0  0  0  0  0  0  0  0
  -26.2998  -17.3828   23.7319 C   0  0  0  0  0  0  0  0  0  0  0  0
  -26.8083  -19.6002   26.2758 C   0  0  0  0  0  0  0  0  0  0  0  0
  -22.3707  -29.6601   22.3851 C   0  0  0  0  0  0  0  0  0  0  0  0
  -25.9720  -11.6636   20.8526 C   0  0  0  0  0  0  0  0  0  0  0  0
  -25.3327  -18.9467   20.5331 C   0  0  0  0  0  0  0  0  0  0  0  0
  -24.2149  -18.7235   23.2617 C   0  0  0  0  0  0  0  0  0  0  0  0
  -25.5060  -12.6216   21.9459 C   0  0  0  0  0  0  0  0  0  0  0  0
  -25.0260  -31.4245   20.7998 C   0  0  0  0  0  0  0  0  0  0  0  0
  -24.2622  -13.3811   21.4956 C   0  0  0  0  0  0  0  0  0  0  0  0
  -25.8196  -30.3280   20.0872 C   0  0  0  0  0  0  0  0  0  0  0  0
  -24.4760  -30.9425   22.1404 C   0  0  0  0  0  0  0  0  0  0  0  0
  -24.4764  -28.6044   21.3614 C   0  0  0  0  0  0  0  0  0  0  0  0
  -24.5553  -14.2337   20.2552 C   0  0  1  0  0  0  0  0  0  0  0  0
  -25.5673  -17.7125   21.3986 C   0  0  1  0  0  0  0  0  0  0  0  0
  -25.0040  -29.0256   19.9792 C   0  0  2  0  0  0  0  0  0  0  0  0
  -27.9050  -20.6255   28.2867 C   0  0  0  0  0  0  0  0  0  0  0  0
  -24.6325  -15.3210   25.2414 C   0  0  0  0  0  0  0  0  0  0  0  0
  -25.3880  -16.3792   27.3810 C   0  0  0  0  0  0  0  0  0  0  0  0
  -27.0593  -15.3443   25.8452 C   0  0  0  0  0  0  0  0  0  0  0  0
  -28.6624  -21.1858   24.6004 C   0  0  0  0  0  0  0  0  0  0  0  0
  -19.0670  -22.6899   23.5563 C   0  0  0  0  0  0  0  0  0  0  0  0
  -20.3336  -28.2522   22.5505 C   0  0  0  0  0  0  0  0  0  0  0  0
  -20.2548  -21.7625   23.3239 C   0  0  0  0  0  0  0  0  0  1  0  0
  -25.9673  -17.5306   25.1970 C   0  0  1  0  0  0  0  0  0  0  0  0
  -28.0764  -20.2241   26.8299 C   0  0  2  0  0  0  0  0  0  0  0  0
  -25.7485  -16.1592   25.8963 C   0  0  0  0  0  0  0  0  0  0  0  0
  -26.5098  -27.0750   20.0793 N   0  0  0  0  0  0  0  0  0  0  0  0
  -25.8007  -27.9199   19.3117 N   0  0  0  0  0  0  0  0  0  0  0  0
  -25.4142  -17.9876   22.8287 N   0  0  0  0  0  0  0  0  0  0  0  0
  -23.7113  -29.7050   21.9681 N   0  0  0  0  0  0  0  0  0  0  0  0
  -25.2439  -28.4138   17.0630 N   0  0  0  0  0  0  0  0  0  0  0  0
  -27.9681  -24.8302   16.6988 N   0  0  0  0  0  0  0  0  0  0  0  0
  -25.2660  -15.4385   20.6264 N   0  0  0  0  0  0  0  0  0  0  0  0
  -27.0366  -18.3343   25.7793 N   0  0  0  0  0  0  0  0  0  0  0  0
  -21.7170  -28.4513   22.1797 N   0  0  0  0  0  0  0  0  0  0  0  0
  -28.4406  -21.4390   26.0474 N   0  3  0  0  0  0  0  0  0  0  0  0
  -26.7264  -26.3530   15.5164 O   0  0  0  0  0  0  0  0  0  0  0  0
  -23.4240  -16.7417   21.2019 O   0  0  0  0  0  0  0  0  0  0  0  0
  -27.3120  -16.7601   23.4013 O   0  0  0  0  0  0  0  0  0  0  0  0
  -25.7228  -20.1766   26.2862 O   0  0  0  0  0  0  0  0  0  0  0  0
  -21.7972  -30.6275   22.8973 O   0  0  0  0  0  0  0  0  0  0  0  0
  -30.3946  -22.0972   20.9033 O   0  0  0  0  0  0  0  0  0  0  0  0
  -20.7376  -21.9219   21.9906 O   0  0  0  0  0  0  0  0  0  1  0  0
  -29.6694  -17.1258   18.6308 F   0  0  0  0  0  0  0  0  0  0  0  0
  -30.6831  -21.7273   18.1788 F   0  0  0  0  0  0  0  0  0  0  0  0
  -20.6090  -24.1009   25.7677 Cl  0  0  0  0  0  0  0  0  0  0  0  0
  -21.3065  -27.1651   25.2134 Cl  0  0  0  0  0  0  0  0  0  0  0  0
  1  2  1  0  0  0  0
  1  5  2  0  0  0  0
  2  6  2  0  0  0  0
  3 10  2  0  0  0  0
  3 17  1  0  0  0  0
  4 11  1  0  0  0  0
  4 17  2  0  0  0  0
  5 19  1  0  0  0  0
  6 21  1  0  0  0  0
  7 12  2  0  0  0  0
  7 20  1  0  0  0  0
  8  9  2  0  0  0  0
  8 23  1  0  0  0  0
  9 24  1  0  0  0  0
 10 25  1  0  0  0  0
 11 25  2  0  0  0  0
 12 26  1  0  0  0  0
 13 14  2  0  0  0  0
 13 27  1  0  0  0  0
 14 28  1  0  0  0  0
 15 22  1  0  0  0  0
 15 26  2  0  0  0  0
 16 28  2  0  0  0  0
 16 29  1  0  0  0  0
 17 32  1  0  0  0  0
 18 32  1  0  0  0  0
 18 33  2  0  0  0  0
 18 34  1  0  0  0  0
 19 21  2  0  0  0  0
 19 39  1  0  0  0  0
 20 22  2  0  0  0  0
 20 40  1  0  0  0  0
 21 48  1  0  0  0  0
 22 41  1  0  0  0  0
 23 30  2  0  0  0  0
 23 56  1  0  0  0  0
 24 31  2  0  0  0  0
 24 57  1  0  0  0  0
 25 77  1  0  0  0  0
 26 78  1  0  0  0  0
 27 29  2  0  0  0  0
 27 77  1  0  0  0  0
 28 79  1  0  0  0  0
 29 80  1  0  0  0  0
 30 31  1  0  0  0  0
 30 81  1  0  0  0  0
 31 82  1  0  0  0  0
 32 62  2  0  0  0  0
 33 63  1  0  0  0  0
 33 66  1  0  0  0  0
 34 67  1  0  0  0  0
 34 72  2  0  0  0  0
 35 49  1  0  0  0  0
 35 68  1  0  0  0  0
 35 73  2  0  0  0  0
 36 59  1  0  0  0  0
 36 64  1  0  0  0  0
 36 74  2  0  0  0  0
 37 60  1  0  0  0  0
 37 69  1  0  0  0  0
 37 75  2  0  0  0  0
 38 65  1  0  0  0  0
 38 70  1  0  0  0  0
 38 76  2  0  0  0  0
 39 42  1  0  0  0  0
 40 49  1  0  0  0  0
 41 64  1  0  0  0  0
 42 44  1  0  0  0  0
 43 45  1  0  0  0  0
 43 46  1  0  0  0  0
 44 48  1  0  0  0  0
 45 50  1  0  0  0  0
 46 65  1  0  0  0  0
 47 50  1  0  0  0  0
 47 65  1  0  0  0  0
 48 68  1  0  0  0  0
 49 64  1  0  0  0  0
 50 63  1  0  0  0  0
 51 60  1  0  0  0  0
 52 61  1  0  0  0  0
 53 61  1  0  0  0  0
 54 61  1  0  0  0  0
 55 71  1  0  0  0  0
 56 58  1  0  0  0  0
 57 70  1  0  0  0  0
 58 78  1  0  0  0  0
 59 61  1  0  0  0  0
 59 69  1  0  0  0  0
 60 71  1  0  0  0  0
 62 63  1  0  0  0  0
M  CHG  1  71   1
M  ISO  4  38 100  58 101  70 100  78 101
M  END
> <Batch ID>
0024

> <Smiles>
CNC(C)C(=O)NC(C(=O)N1Cc2cc([101O:1][101CH2:1]Cc3ccc(C[100NH:0][100C:0](=O)N4CCCC(n5nc(-c6ccc(Oc7ccc(F)cc7F)cc6)c(C(N)=O)c5N)C4)c(Cl)c3Cl)ccc2CC1C(=O)NC1CCCc2ccccc21)C(C)(C)C

> <Shape>
0.191

> <Color>
0.064

> <Negative vol penalty>
0.000

$$$$

  -OEChem-04052316223D

 88 96  0     1  0  0  0  0  0999 V2000
  -19.9042  -10.9369   22.2659 C   0  0  0  0  0  0  0  0  0  0  0  0
  -20.5927  -12.0033   22.8353 C   0  0  0  0  0  0  0  0  0  0  0  0
  -22.5972  -28.4312   19.4752 C   0  0  0  0  0  0  0  0  0  0  0  0
  -22.7966  -27.6375   21.7484 C   0  0  0  0  0  0  0  0  0  0  0  0
  -20.6012   -9.9519   21.5674 C   0  0  0  0  0  0  0  0  0  0  0  0
  -21.9789  -12.0847   22.7075 C   0  0  0  0  0  0  0  0  0  0  0  0
  -23.5474  -16.7436   21.4912 C   0  0  0  0  0  0  0  0  0  0  0  0
  -21.2074  -28.4156   19.5916 C   0  0  0  0  0  0  0  0  0  0  0  0
  -21.4067  -27.6219   21.8648 C   0  0  0  0  0  0  0  0  0  0  0  0
  -23.5937  -17.6876   22.5161 C   0  0  0  0  0  0  0  0  0  0  0  0
  -18.9275  -29.8579   22.3893 C   0  0  0  0  0  0  0  0  0  0  0  0
  -18.3701  -30.3897   23.5520 C   0  0  0  0  0  0  0  0  0  0  0  0
  -25.9722  -17.3406   22.7202 C   0  0  0  0  0  0  0  0  0  0  0  0
  -28.8476  -19.7761   23.1199 C   0  0  0  0  0  0  0  0  0  0  0  0
  -17.3600  -28.2513   24.0459 C   0  0  0  0  0  0  0  0  0  0  0  0
  -23.3919  -28.0421   20.5536 C   0  0  0  0  0  0  0  0  0  0  0  0
  -25.6942  -29.1263   20.7312 C   0  0  0  0  0  0  0  0  0  0  0  0
  -21.9956  -10.0263   21.4227 C   0  0  0  0  0  0  0  0  0  0  0  0
  -24.7133  -16.0819   21.0798 C   0  0  0  0  0  0  0  0  0  0  0  0
  -22.6953  -11.0990   22.0076 C   0  0  0  0  0  0  0  0  0  0  0  0
  -25.9384  -16.3904   21.6881 C   0  0  0  0  0  0  0  0  0  0  0  0
  -29.0903  -20.0559   24.4647 C   0  0  0  0  0  0  0  0  0  0  0  0
  -29.2732  -21.3747   24.8806 C   0  0  0  0  0  0  0  0  0  0  0  0
  -28.9710  -22.1338   22.6070 C   0  0  0  0  0  0  0  0  0  0  0  0
  -20.6121  -28.0110   20.7864 C   0  0  0  0  0  0  0  0  0  0  0  0
  -24.8057  -17.9842   23.1327 C   0  0  0  0  0  0  0  0  0  0  0  0
  -18.7011  -28.5227   22.0548 C   0  0  0  0  0  0  0  0  0  0  0  0
  -17.5864  -29.5865   24.3804 C   0  0  0  0  0  0  0  0  0  0  0  0
  -17.9174  -27.7195   22.8831 C   0  0  0  0  0  0  0  0  0  0  0  0
  -28.7881  -20.8150   22.1910 C   0  0  0  0  0  0  0  0  0  0  0  0
  -29.2136  -22.4136   23.9518 C   0  0  0  0  0  0  0  0  0  0  0  0
  -24.8277  -28.0574   20.4338 C   0  0  0  0  0  0  0  0  0  0  0  0
  -26.9480  -28.6397   20.4523 C   0  0  0  0  0  0  0  0  0  0  0  0
  -25.3927  -30.4414   21.2164 C   0  0  0  0  0  0  0  0  0  0  0  0
  -25.6774  -13.0533   21.0374 C   0  0  0  0  0  0  0  0  0  0  0  0
  -28.2182  -14.2918   19.4460 C   0  0  0  0  0  0  0  0  0  0  0  0
  -30.1740  -17.0073   18.7764 C   0  0  0  0  0  0  0  0  0  0  0  0
  -29.2485  -23.1269   20.3085 C   0  0  0  0  0  0  0  0  0  0  0  0
  -22.7108   -8.9129   20.6993 C   0  0  0  0  0  0  0  0  0  0  0  0
  -24.6511  -15.0856   19.9547 C   0  0  0  0  0  0  0  0  0  0  0  0
  -27.2220  -15.7228   21.2695 C   0  0  0  0  0  0  0  0  0  0  0  0
  -24.1371   -9.2705   20.2893 C   0  0  0  0  0  0  0  0  0  0  0  0
  -29.2002  -25.4843   17.6407 C   0  0  0  0  0  0  0  0  0  0  0  0
  -24.8775   -9.9272   21.4500 C   0  0  0  0  0  0  0  0  0  0  0  0
  -28.1567  -26.5123   18.0841 C   0  0  0  0  0  0  0  0  0  0  0  0
  -28.8085  -24.0657   18.0502 C   0  0  0  0  0  0  0  0  0  0  0  0
  -27.4496  -24.9231   19.9176 C   0  0  0  0  0  0  0  0  0  0  0  0
  -24.1962  -11.2354   21.8694 C   0  0  1  0  0  0  0  0  0  0  0  0
  -25.8138  -14.0979   19.9661 C   0  0  1  0  0  0  0  0  0  0  0  0
  -27.8320  -26.3745   19.5845 C   0  0  2  0  0  0  0  0  0  0  0  0
  -29.1498  -18.9236   25.4376 C   0  0  0  0  0  0  0  0  0  0  0  0
  -32.1990  -17.7016   17.4671 C   0  0  0  0  0  0  0  0  0  0  0  0
  -30.0124  -12.9245   21.5005 C   0  0  0  0  0  0  0  0  0  0  0  0
  -31.8899  -14.3937   20.7357 C   0  0  0  0  0  0  0  0  0  0  0  0
  -30.8354  -12.7895   19.1428 C   0  0  0  0  0  0  0  0  0  0  0  0
  -28.6216  -18.9679   17.1937 C   0  0  0  0  0  0  0  0  0  0  0  0
  -29.5353  -21.6524   26.3395 C   0  0  0  0  0  0  0  0  0  0  0  0
  -28.2743  -21.6153   27.2118 C   0  0  0  0  0  0  0  0  0  0  0  0
  -27.2286  -22.6544   26.7926 C   0  0  0  0  0  0  0  0  0  0  0  0
  -25.9693  -22.6326   27.6646 C   0  0  0  0  0  0  0  0  0  0  0  0
  -25.2786  -21.2674   27.6989 C   0  0  0  0  0  0  0  0  0  0  0  0
  -24.8241  -20.8418   26.3009 C   0  0  0  0  0  0  0  0  0  0  0  0
  -24.1045  -19.4952   26.3362 C   0  0  0  0  0  0  0  0  0  0  0  0
  -23.6869  -19.0451   24.9434 C   0  0  0  0  0  0  0  0  0  1  0  0
  -29.5598  -14.8555   19.8476 C   0  0  1  0  0  0  0  0  0  0  0  0
  -30.6828  -17.5840   17.4677 C   0  0  2  0  0  0  0  0  0  0  0  0
  -30.5500  -13.7522   20.3161 C   0  0  0  0  0  0  0  0  0  0  0  0
  -25.4761  -26.9737   19.9990 N   0  0  0  0  0  0  0  0  0  0  0  0
  -26.7634  -27.3590   20.0212 N   0  0  0  0  0  0  0  0  0  0  0  0
  -27.1084  -14.7513   20.1692 N   0  0  0  0  0  0  0  0  0  0  0  0
  -28.5196  -24.0107   19.4849 N   0  0  0  0  0  0  0  0  0  0  0  0
  -28.1793  -29.1868   20.5361 N   0  0  0  0  0  0  0  0  0  0  0  0
  -24.0520  -30.7763   21.4501 N   0  0  0  0  0  0  0  0  0  0  0  0
  -28.9091  -23.1858   21.6598 N   0  0  0  0  0  0  0  0  0  0  0  0
  -24.5251  -12.2966   20.9419 N   0  0  0  0  0  0  0  0  0  0  0  0
  -30.0312  -15.6374   18.7097 N   0  0  0  0  0  0  0  0  0  0  0  0
  -30.1062  -18.9392   17.2399 N   0  3  0  0  0  0  0  0  0  0  0  0
  -26.2845  -31.2997   21.4205 O   0  0  0  0  0  0  0  0  0  0  0  0
  -26.5535  -12.9410   21.8868 O   0  0  0  0  0  0  0  0  0  0  0  0
  -28.1563  -13.4793   18.5199 O   0  0  0  0  0  0  0  0  0  0  0  0
  -29.9312  -17.7020   19.7608 O   0  0  0  0  0  0  0  0  0  0  0  0
  -30.1292  -22.3928   19.8530 O   0  0  0  0  0  0  0  0  0  0  0  0
  -19.2558  -27.9959   20.9004 O   0  0  0  0  0  0  0  0  0  0  0  0
  -24.8536  -18.9048   24.1337 O   0  0  0  0  0  0  0  0  0  1  0  0
  -17.0524  -30.0969   25.4977 F   0  0  0  0  0  0  0  0  0  0  0  0
  -17.6973  -26.4358   22.5676 F   0  0  0  0  0  0  0  0  0  0  0  0
  -28.4849  -20.4168   20.5366 Cl  0  0  0  0  0  0  0  0  0  0  0  0
  -29.4427  -24.0517   24.4777 Cl  0  0  0  0  0  0  0  0  0  0  0  0
  1  2  1  0  0  0  0
  1  5  2  0  0  0  0
  2  6  2  0  0  0  0
  3  8  2  0  0  0  0
  3 16  1  0  0  0  0
  4  9  1  0  0  0  0
  4 16  2  0  0  0  0
  5 18  1  0  0  0  0
  6 20  1  0  0  0  0
  7 10  2  0  0  0  0
  7 19  1  0  0  0  0
  8 25  1  0  0  0  0
  9 25  2  0  0  0  0
 10 26  1  0  0  0  0
 11 12  2  0  0  0  0
 11 27  1  0  0  0  0
 12 28  1  0  0  0  0
 13 21  1  0  0  0  0
 13 26  2  0  0  0  0
 14 22  2  0  0  0  0
 14 30  1  0  0  0  0
 15 28  2  0  0  0  0
 15 29  1  0  0  0  0
 16 32  1  0  0  0  0
 17 32  1  0  0  0  0
 17 33  2  0  0  0  0
 17 34  1  0  0  0  0
 18 20  2  0  0  0  0
 18 39  1  0  0  0  0
 19 21  2  0  0  0  0
 19 40  1  0  0  0  0
 20 48  1  0  0  0  0
 21 41  1  0  0  0  0
 22 23  1  0  0  0  0
 22 51  1  0  0  0  0
 23 31  2  0  0  0  0
 23 57  1  0  0  0  0
 24 30  2  0  0  0  0
 24 31  1  0  0  0  0
 24 74  1  0  0  0  0
 25 83  1  0  0  0  0
 26 84  1  0  0  0  0
 27 29  2  0  0  0  0
 27 83  1  0  0  0  0
 28 85  1  0  0  0  0
 29 86  1  0  0  0  0
 30 87  1  0  0  0  0
 31 88  1  0  0  0  0
 32 68  2  0  0  0  0
 33 69  1  0  0  0  0
 33 72  1  0  0  0  0
 34 73  1  0  0  0  0
 34 78  2  0  0  0  0
 35 49  1  0  0  0  0
 35 75  1  0  0  0  0
 35 79  2  0  0  0  0
 36 65  1  0  0  0  0
 36 70  1  0  0  0  0
 36 80  2  0  0  0  0
 37 66  1  0  0  0  0
 37 76  1  0  0  0  0
 37 81  2  0  0  0  0
 38 71  1  0  0  0  0
 38 74  1  0  0  0  0
 38 82  2  0  0  0  0
 39 42  1  0  0  0  0
 40 49  1  0  0  0  0
 41 70  1  0  0  0  0
 42 44  1  0  0  0  0
 43 45  1  0  0  0  0
 43 46  1  0  0  0  0
 44 48  1  0  0  0  0
 45 50  1  0  0  0  0
 46 71  1  0  0  0  0
 47 50  1  0  0  0  0
 47 71  1  0  0  0  0
 48 75  1  0  0  0  0
 49 70  1  0  0  0  0
 50 69  1  0  0  0  0
 52 66  1  0  0  0  0
 53 67  1  0  0  0  0
 54 67  1  0  0  0  0
 55 67  1  0  0  0  0
 56 77  1  0  0  0  0
 57 58  1  0  0  0  0
 58 59  1  0  0  0  0
 59 60  1  0  0  0  0
 60 61  1  0  0  0  0
 61 62  1  0  0  0  0
 62 63  1  0  0  0  0
 63 64  1  0  0  0  0
 64 84  1  0  0  0  0
 65 67  1  0  0  0  0
 65 76  1  0  0  0  0
 66 77  1  0  0  0  0
 68 69  1  0  0  0  0
M  CHG  1  77   1
M  ISO  4  38 100  64 101  74 100  84 101
M  END
> <Batch ID>
0024

> <Smiles>
CNC(C)C(=O)NC(C(=O)N1Cc2cc([101O:1][101CH2:1]CCCCCCCc3c(C)cc(Cl)c([100NH:0][100C:0](=O)N4CCCC(n5nc(-c6ccc(Oc7ccc(F)cc7F)cc6)c(C(N)=O)c5N)C4)c3Cl)ccc2CC1C(=O)NC1CCCc2ccccc21)C(C)(C)C

> <Shape>
0.288

> <Color>
0.060

> <Negative vol penalty>
0.000

$$$$

  -OEChem-04052316223D

 86 94  0     1  0  0  0  0  0999 V2000
  -25.0185  -19.7224   19.5853 C   0  0  0  0  0  0  0  0  0  0  0  0
  -24.1809  -20.7950   19.2965 C   0  0  0  0  0  0  0  0  0  0  0  0
  -24.5297  -14.4163   19.9525 C   0  0  0  0  0  0  0  0  0  0  0  0
  -26.1294  -13.0711   21.1643 C   0  0  0  0  0  0  0  0  0  0  0  0
  -25.0445  -19.1865   20.8722 C   0  0  0  0  0  0  0  0  0  0  0  0
  -23.3680  -21.3317   20.2943 C   0  0  0  0  0  0  0  0  0  0  0  0
  -26.8284  -24.6907   21.4115 C   0  0  0  0  0  0  0  0  0  0  0  0
  -23.5169  -13.5207   20.2953 C   0  0  0  0  0  0  0  0  0  0  0  0
  -25.1165  -12.1755   21.5072 C   0  0  0  0  0  0  0  0  0  0  0  0
  -27.4377  -24.8752   20.1712 C   0  0  0  0  0  0  0  0  0  0  0  0
  -23.4264   -9.6436   20.0360 C   0  0  0  0  0  0  0  0  0  0  0  0
  -23.6953   -8.2810   19.9073 C   0  0  0  0  0  0  0  0  0  0  0  0
  -25.4927  -26.0764   19.4011 C   0  0  0  0  0  0  0  0  0  0  0  0
  -30.2379  -23.5988   20.5783 C   0  0  0  0  0  0  0  0  0  0  0  0
  -23.2899   -7.9779   22.2697 C   0  0  0  0  0  0  0  0  0  0  0  0
  -25.8361  -14.1915   20.3869 C   0  0  0  0  0  0  0  0  0  0  0  0
  -27.3091  -15.4614   18.7362 C   0  0  0  0  0  0  0  0  0  0  0  0
  -24.2386  -19.7231   21.8887 C   0  0  0  0  0  0  0  0  0  0  0  0
  -25.5401  -25.1891   21.6528 C   0  0  0  0  0  0  0  0  0  0  0  0
  -23.3822  -20.8016   21.5956 C   0  0  0  0  0  0  0  0  0  0  0  0
  -24.8702  -25.8992   20.6462 C   0  0  0  0  0  0  0  0  0  0  0  0
  -29.4127  -24.0986   17.9607 C   0  0  0  0  0  0  0  0  0  0  0  0
  -29.7361  -25.1609   18.8049 C   0  0  0  0  0  0  0  0  0  0  0  0
  -29.9145  -22.5365   19.7342 C   0  0  0  0  0  0  0  0  0  0  0  0
  -23.8102  -12.4003   21.0727 C   0  0  0  0  0  0  0  0  0  0  0  0
  -26.7687  -25.5656   19.1648 C   0  0  0  0  0  0  0  0  0  0  0  0
  -23.0894  -10.1734   21.2816 C   0  0  0  0  0  0  0  0  0  0  0  0
  -23.6269   -7.4481   21.0241 C   0  0  0  0  0  0  0  0  0  0  0  0
  -23.0211   -9.3406   22.3984 C   0  0  0  0  0  0  0  0  0  0  0  0
  -30.1486  -24.9110   20.1137 C   0  0  0  0  0  0  0  0  0  0  0  0
  -29.5019  -22.7864   18.4254 C   0  0  0  0  0  0  0  0  0  0  0  0
  -26.8829  -15.1159   20.0326 C   0  0  0  0  0  0  0  0  0  0  0  0
  -28.3201  -16.3690   18.9375 C   0  0  0  0  0  0  0  0  0  0  0  0
  -26.8335  -15.0030   17.4636 C   0  0  0  0  0  0  0  0  0  0  0  0
  -22.7330  -23.8898   22.3848 C   0  0  0  0  0  0  0  0  0  0  0  0
  -21.8136  -26.9873   22.6713 C   0  0  0  0  0  0  0  0  0  0  0  0
  -22.3290  -30.2527   21.8237 C   0  0  0  0  0  0  0  0  0  0  0  0
  -30.4142  -20.8340   21.5225 C   0  0  0  0  0  0  0  0  0  0  0  0
  -24.2661  -19.0799   23.2526 C   0  0  0  0  0  0  0  0  0  0  0  0
  -24.9074  -25.0048   23.0049 C   0  0  0  0  0  0  0  0  0  0  0  0
  -23.4939  -26.4717   20.8613 C   0  0  0  0  0  0  0  0  0  0  0  0
  -23.6502  -19.9472   24.3475 C   0  0  0  0  0  0  0  0  0  0  0  0
  -30.7609  -17.6961   23.1688 C   0  0  0  0  0  0  0  0  0  0  0  0
  -22.3172  -20.5258   23.8837 C   0  0  0  0  0  0  0  0  0  0  0  0
  -29.8180  -16.7735   22.3930 C   0  0  0  0  0  0  0  0  0  0  0  0
  -30.1937  -19.1087   23.2972 C   0  0  0  0  0  0  0  0  0  0  0  0
  -28.8484  -18.8111   21.2549 C   0  0  0  0  0  0  0  0  0  0  0  0
  -22.5039  -21.4272   22.6574 C   0  0  1  0  0  0  0  0  0  0  0  0
  -23.3857  -25.1092   22.9718 C   0  0  1  0  0  0  0  0  0  0  0  0
  -29.4063  -17.3942   21.0436 C   0  0  2  0  0  0  0  0  0  0  0  0
  -28.9716  -24.3864   16.5582 C   0  0  0  0  0  0  0  0  0  0  0  0
  -22.0179  -32.7427   21.8517 C   0  0  0  0  0  0  0  0  0  0  0  0
  -30.0467  -27.5935   19.4168 C   0  0  0  0  0  0  0  0  0  0  0  0
  -30.6552  -26.8793   17.1370 C   0  0  0  0  0  0  0  0  0  0  0  0
  -19.5388  -26.3606   20.7367 C   0  0  0  0  0  0  0  0  0  0  0  0
  -19.2398  -28.8233   20.3998 C   0  0  0  0  0  0  0  0  0  0  0  0
  -18.8987  -27.8250   22.6603 C   0  0  0  0  0  0  0  0  0  0  0  0
  -28.0672  -27.3111   16.2977 C   0  0  0  0  0  0  0  0  0  0  0  0
  -27.4541  -28.0239   18.6068 C   0  0  0  0  0  0  0  0  0  0  0  0
  -24.2567  -30.5851   24.0446 C   0  0  0  0  0  0  0  0  0  0  0  0
  -21.2428  -28.0242   21.7342 C   0  0  1  0  0  0  0  0  0  0  0  0
  -22.3926  -31.5141   22.6660 C   0  0  2  0  0  0  0  0  0  0  0  0
  -29.6311  -26.6175   18.2768 C   0  0  0  0  0  0  0  0  0  0  0  0
  -19.7552  -27.7459   21.3777 C   0  0  0  0  0  0  0  0  0  0  0  0
  -28.1509  -26.9231   17.7853 C   0  0  0  0  0  0  0  0  0  1  0  0
  -27.5674  -15.7521   20.9870 N   0  0  0  0  0  0  0  0  0  0  0  0
  -28.4339  -16.5064   20.2897 N   0  0  0  0  0  0  0  0  0  0  0  0
  -22.9148  -26.2598   22.1982 N   0  0  0  0  0  0  0  0  0  0  0  0
  -29.8300  -19.6337   21.9793 N   0  0  0  0  0  0  0  0  0  0  0  0
  -29.1141  -17.0550   18.0881 N   0  0  0  0  0  0  0  0  0  0  0  0
  -27.4320  -13.8703   16.8952 N   0  0  0  0  0  0  0  0  0  0  0  0
  -30.0172  -21.2177   20.2420 N   0  0  0  0  0  0  0  0  0  0  0  0
  -23.0280  -22.7169   23.0531 N   0  0  0  0  0  0  0  0  0  0  0  0
  -21.4736  -29.3180   22.3675 N   0  0  0  0  0  0  0  0  0  0  0  0
  -23.7685  -31.7087   23.2043 N   0  3  0  0  0  0  0  0  0  0  0  0
  -25.9165  -15.5905   16.8412 O   0  0  0  0  0  0  0  0  0  0  0  0
  -22.0136  -24.0047   21.3994 O   0  0  0  0  0  0  0  0  0  0  0  0
  -21.3057  -26.8337   23.7849 O   0  0  0  0  0  0  0  0  0  0  0  0
  -22.9710  -30.1123   20.7851 O   0  0  0  0  0  0  0  0  0  0  0  0
  -31.2289  -21.4601   22.2053 O   0  0  0  0  0  0  0  0  0  0  0  0
  -22.8220  -11.5263   21.4076 O   0  0  0  0  0  0  0  0  0  0  0  0
  -27.3609  -25.7465   17.9530 O   0  0  0  0  0  0  0  0  0  1  0  0
  -23.8836   -6.1393   20.9001 F   0  0  0  0  0  0  0  0  0  0  0  0
  -22.6967   -9.8436   23.5974 F   0  0  0  0  0  0  0  0  0  0  0  0
  -30.5525  -26.1977   21.1920 Cl  0  0  0  0  0  0  0  0  0  0  0  0
  -29.0990  -21.4667   17.3744 Cl  0  0  0  0  0  0  0  0  0  0  0  0
  1  2  1  0  0  0  0
  1  5  2  0  0  0  0
  2  6  2  0  0  0  0
  3  8  2  0  0  0  0
  3 16  1  0  0  0  0
  4  9  1  0  0  0  0
  4 16  2  0  0  0  0
  5 18  1  0  0  0  0
  6 20  1  0  0  0  0
  7 10  2  0  0  0  0
  7 19  1  0  0  0  0
  8 25  1  0  0  0  0
  9 25  2  0  0  0  0
 10 26  1  0  0  0  0
 11 12  2  0  0  0  0
 11 27  1  0  0  0  0
 12 28  1  0  0  0  0
 13 21  1  0  0  0  0
 13 26  2  0  0  0  0
 14 24  1  0  0  0  0
 14 30  2  0  0  0  0
 15 28  2  0  0  0  0
 15 29  1  0  0  0  0
 16 32  1  0  0  0  0
 17 32  1  0  0  0  0
 17 33  2  0  0  0  0
 17 34  1  0  0  0  0
 18 20  2  0  0  0  0
 18 39  1  0  0  0  0
 19 21  2  0  0  0  0
 19 40  1  0  0  0  0
 20 48  1  0  0  0  0
 21 41  1  0  0  0  0
 22 23  2  0  0  0  0
 22 31  1  0  0  0  0
 22 51  1  0  0  0  0
 23 30  1  0  0  0  0
 23 63  1  0  0  0  0
 24 31  2  0  0  0  0
 24 72  1  0  0  0  0
 25 81  1  0  0  0  0
 26 82  1  0  0  0  0
 27 29  2  0  0  0  0
 27 81  1  0  0  0  0
 28 83  1  0  0  0  0
 29 84  1  0  0  0  0
 30 85  1  0  0  0  0
 31 86  1  0  0  0  0
 32 66  2  0  0  0  0
 33 67  1  0  0  0  0
 33 70  1  0  0  0  0
 34 71  1  0  0  0  0
 34 76  2  0  0  0  0
 35 49  1  0  0  0  0
 35 73  1  0  0  0  0
 35 77  2  0  0  0  0
 36 61  1  0  0  0  0
 36 68  1  0  0  0  0
 36 78  2  0  0  0  0
 37 62  1  0  0  0  0
 37 74  1  0  0  0  0
 37 79  2  0  0  0  0
 38 69  1  0  0  0  0
 38 72  1  0  0  0  0
 38 80  2  0  0  0  0
 39 42  1  0  0  0  0
 40 49  1  0  0  0  0
 41 68  1  0  0  0  0
 42 44  1  0  0  0  0
 43 45  1  0  0  0  0
 43 46  1  0  0  0  0
 44 48  1  0  0  0  0
 45 50  1  0  0  0  0
 46 69  1  0  0  0  0
 47 50  1  0  0  0  0
 47 69  1  0  0  0  0
 48 73  1  0  0  0  0
 49 68  1  0  0  0  0
 50 67  1  0  0  0  0
 52 62  1  0  0  0  0
 53 63  1  0  0  0  0
 54 63  1  0  0  0  0
 55 64  1  0  0  0  0
 56 64  1  0  0  0  0
 57 64  1  0  0  0  0
 58 65  1  0  0  0  0
 59 65  1  0  0  0  0
 60 75  1  0  0  0  0
 61 64  1  0  0  0  0
 61 74  1  0  0  0  0
 62 75  1  0  0  0  0
 63 65  1  0  0  0  0
 65 82  1  0  0  0  0
 66 67  1  0  0  0  0
M  CHG  1  75   1
M  ISO  4  38 100  65 101  72 100  82 101
M  END
> <Batch ID>
0024

> <Smiles>
CNC(C)C(=O)NC(C(=O)N1Cc2cc([101O:1][101C:1](C)(C)C(C)(C)c3c(Cl)cc([100NH:0][100C:0](=O)N4CCCC(n5nc(-c6ccc(Oc7ccc(F)cc7F)cc6)c(C(N)=O)c5N)C4)c(Cl)c3C)ccc2CC1C(=O)NC1CCCc2ccccc21)C(C)(C)C

> <Shape>
0.246

> <Color>
0.044

> <Negative vol penalty>
0.000

$$$$

  -OEChem-04052316223D

 93101  0     1  0  0  0  0  0999 V2000
  -29.0377  -33.6388   13.3031 C   0  0  0  0  0  0  0  0  0  0  0  0
  -28.8520  -32.5392   14.1349 C   0  0  0  0  0  0  0  0  0  0  0  0
  -21.7704   -5.7207   24.8943 C   0  0  0  0  0  0  0  0  0  0  0  0
  -21.8867   -5.3493   22.5099 C   0  0  0  0  0  0  0  0  0  0  0  0
  -29.3805  -34.8748   13.8496 C   0  0  0  0  0  0  0  0  0  0  0  0
  -29.0100  -32.6749   15.5137 C   0  0  0  0  0  0  0  0  0  0  0  0
  -25.3128  -30.4046   18.1255 C   0  0  0  0  0  0  0  0  0  0  0  0
  -21.1123   -4.5011   25.0522 C   0  0  0  0  0  0  0  0  0  0  0  0
  -21.2286   -4.1296   22.6678 C   0  0  0  0  0  0  0  0  0  0  0  0
  -25.3870  -29.0189   18.2606 C   0  0  0  0  0  0  0  0  0  0  0  0
  -21.9327   -1.2223   25.1490 C   0  0  0  0  0  0  0  0  0  0  0  0
  -22.3551   -0.3869   26.1830 C   0  0  0  0  0  0  0  0  0  0  0  0
  -26.2859  -29.2897   20.4828 C   0  0  0  0  0  0  0  0  0  0  0  0
  -25.3609  -15.3630   20.3509 C   0  0  0  0  0  0  0  0  0  0  0  0
  -20.1474   -0.4798   27.1599 C   0  0  0  0  0  0  0  0  0  0  0  0
  -22.1576   -6.1449   23.6231 C   0  0  0  0  0  0  0  0  0  0  0  0
  -24.2258   -7.6325   23.4914 C   0  0  0  0  0  0  0  0  0  0  0  0
  -29.5333  -35.0279   15.2366 C   0  0  0  0  0  0  0  0  0  0  0  0
  -25.7355  -31.2447   19.1657 C   0  0  0  0  0  0  0  0  0  0  0  0
  -29.3564  -33.9138   16.0791 C   0  0  0  0  0  0  0  0  0  0  0  0
  -26.2136  -30.6857   20.3594 C   0  0  0  0  0  0  0  0  0  0  0  0
  -27.7473  -14.2718   19.4036 C   0  0  0  0  0  0  0  0  0  0  0  0
  -27.6902  -15.6185   19.7624 C   0  0  0  0  0  0  0  0  0  0  0  0
  -25.4179  -14.0164   19.9920 C   0  0  0  0  0  0  0  0  0  0  0  0
  -20.8415   -3.7055   23.9390 C   0  0  0  0  0  0  0  0  0  0  0  0
  -25.8763  -28.4613   19.4382 C   0  0  0  0  0  0  0  0  0  0  0  0
  -20.6176   -1.6865   25.1204 C   0  0  0  0  0  0  0  0  0  0  0  0
  -21.4625   -0.0156   27.1885 C   0  0  0  0  0  0  0  0  0  0  0  0
  -19.7250   -1.3152   26.1259 C   0  0  0  0  0  0  0  0  0  0  0  0
  -26.4971  -16.1641   20.2360 C   0  0  0  0  0  0  0  0  0  0  0  0
  -26.6111  -13.4707   19.5184 C   0  0  0  0  0  0  0  0  0  0  0  0
  -22.8369   -7.4050   23.4593 C   0  0  0  0  0  0  0  0  0  0  0  0
  -24.3571   -8.9842   23.2864 C   0  0  0  0  0  0  0  0  0  0  0  0
  -25.3010   -6.7048   23.6888 C   0  0  0  0  0  0  0  0  0  0  0  0
  -27.9936  -33.4592   19.4834 C   0  0  0  0  0  0  0  0  0  0  0  0
  -26.5939  -33.9144   22.3741 C   0  0  0  0  0  0  0  0  0  0  0  0
  -24.6936  -32.6393   24.9059 C   0  0  0  0  0  0  0  0  0  0  0  0
  -22.9949  -13.6553   20.5794 C   0  0  0  0  0  0  0  0  0  0  0  0
  -29.9508  -36.3727   15.7769 C   0  0  0  0  0  0  0  0  0  0  0  0
  -25.6240  -32.7371   19.0145 C   0  0  0  0  0  0  0  0  0  0  0  0
  -26.6610  -31.5437   21.5135 C   0  0  0  0  0  0  0  0  0  0  0  0
  -29.7323  -36.5196   17.2805 C   0  0  0  0  0  0  0  0  0  0  0  0
  -20.8838  -12.6663   23.2705 C   0  0  0  0  0  0  0  0  0  0  0  0
  -30.2493  -35.2885   18.0179 C   0  0  0  0  0  0  0  0  0  0  0  0
  -21.3180  -11.2280   23.5622 C   0  0  0  0  0  0  0  0  0  0  0  0
  -20.9246  -12.9790   21.7758 C   0  0  0  0  0  0  0  0  0  0  0  0
  -22.6365  -11.2463   21.4062 C   0  0  0  0  0  0  0  0  0  0  0  0
  -29.4946  -34.0268   17.5819 C   0  0  1  0  0  0  0  0  0  0  0  0
  -26.5631  -33.5033   19.9410 C   0  0  1  0  0  0  0  0  0  0  0  0
  -22.6739  -10.9043   22.9047 C   0  0  2  0  0  0  0  0  0  0  0  0
  -29.0374  -13.7033   18.8970 C   0  0  0  0  0  0  0  0  0  0  0  0
  -23.7504  -33.2357   27.1536 C   0  0  0  0  0  0  0  0  0  0  0  0
  -31.7243  -20.7142   21.3256 C   0  0  0  0  0  0  0  0  0  0  0  0
  -29.5001  -16.5823   18.1855 C   0  0  0  0  0  0  0  0  0  0  0  0
  -30.0762  -15.8613   20.4860 C   0  0  0  0  0  0  0  0  0  0  0  0
  -29.3497  -33.5363   23.6281 C   0  0  0  0  0  0  0  0  0  0  0  0
  -28.2209  -33.1931   25.8363 C   0  0  0  0  0  0  0  0  0  0  0  0
  -27.9849  -35.3704   24.6420 C   0  0  0  0  0  0  0  0  0  0  0  0
  -21.9113  -32.2850   23.9614 C   0  0  0  0  0  0  0  0  0  0  0  0
  -28.5052  -24.6094   20.7506 C   0  0  0  0  0  0  0  0  0  0  0  0
  -28.9268  -23.2413   20.2115 C   0  0  0  0  0  0  0  0  0  0  0  0
  -27.3847  -25.2148   19.9067 C   0  0  0  0  0  0  0  0  0  0  0  0
  -30.0550  -22.5859   21.0182 C   0  0  0  0  0  0  0  0  0  0  0  0
  -28.6925  -17.9394   20.1579 C   0  0  0  0  0  0  0  0  0  0  0  0
  -29.8816  -18.8891   20.0230 C   0  0  0  0  0  0  0  0  0  0  0  0
  -26.9860  -26.5953   20.4090 C   0  0  0  0  0  0  0  0  0  1  0  0
  -26.7789  -33.3330   23.7549 C   0  0  1  0  0  0  0  0  0  0  0  0
  -23.5005  -33.2064   25.6538 C   0  0  2  0  0  0  0  0  0  0  0  0
  -30.5712  -21.2453   20.4828 C   0  0  2  0  0  0  0  0  0  0  0  0
  -28.9503  -16.4932   19.6296 C   0  0  0  0  0  0  0  0  0  0  0  0
  -28.0771  -33.8418   24.4430 C   0  0  0  0  0  0  0  0  0  0  0  0
  -22.1360   -8.5227   23.2506 N   0  0  0  0  0  0  0  0  0  0  0  0
  -23.0883   -9.4655   23.1497 N   0  0  0  0  0  0  0  0  0  0  0  0
  -26.5386  -32.9973   21.3149 N   0  0  0  0  0  0  0  0  0  0  0  0
  -22.2403  -12.6513   21.2222 N   0  0  0  0  0  0  0  0  0  0  0  0
  -25.4330   -9.7962   23.2117 N   0  0  0  0  0  0  0  0  0  0  0  0
  -24.9893   -5.3525   23.8850 N   0  0  0  0  0  0  0  0  0  0  0  0
  -24.2434  -13.2346   20.1223 N   0  0  0  0  0  0  0  0  0  0  0  0
  -28.1947  -33.9711   18.2157 N   0  0  0  0  0  0  0  0  0  0  0  0
  -25.5556  -33.6325   24.4912 N   0  0  0  0  0  0  0  0  0  0  0  0
  -22.2871  -32.3807   25.3955 N   0  3  0  0  0  0  0  0  0  0  0  0
  -29.4787  -20.2340   20.5104 N   0  3  0  0  0  0  0  0  0  0  0  0
  -26.5019   -7.0670   23.7075 O   0  0  0  0  0  0  0  0  0  0  0  0
  -28.8515  -32.9965   20.2260 O   0  0  0  0  0  0  0  0  0  0  0  0
  -26.4947  -35.1367   22.2409 O   0  0  0  0  0  0  0  0  0  0  0  0
  -24.8476  -31.4354   24.7124 O   0  0  0  0  0  0  0  0  0  0  0  0
  -22.5767  -14.8106   20.4685 O   0  0  0  0  0  0  0  0  0  0  0  0
  -20.1995   -2.5152   24.0927 O   0  0  0  0  0  0  0  0  0  0  0  0
  -25.9504  -27.1091   19.5725 O   0  0  0  0  0  0  0  0  0  1  0  0
  -21.8678    0.7879   28.1806 F   0  0  0  0  0  0  0  0  0  0  0  0
  -18.4600   -1.7571   26.1032 F   0  0  0  0  0  0  0  0  0  0  0  0
  -26.3831  -17.8274   20.6855 Cl  0  0  0  0  0  0  0  0  0  0  0  0
  -26.6837  -11.7964   19.0713 Cl  0  0  0  0  0  0  0  0  0  0  0  0
  1  2  1  0  0  0  0
  1  5  2  0  0  0  0
  2  6  2  0  0  0  0
  3  8  2  0  0  0  0
  3 16  1  0  0  0  0
  4  9  1  0  0  0  0
  4 16  2  0  0  0  0
  5 18  1  0  0  0  0
  6 20  1  0  0  0  0
  7 10  2  0  0  0  0
  7 19  1  0  0  0  0
  8 25  1  0  0  0  0
  9 25  2  0  0  0  0
 10 26  1  0  0  0  0
 11 12  2  0  0  0  0
 11 27  1  0  0  0  0
 12 28  1  0  0  0  0
 13 21  1  0  0  0  0
 13 26  2  0  0  0  0
 14 24  1  0  0  0  0
 14 30  2  0  0  0  0
 15 28  2  0  0  0  0
 15 29  1  0  0  0  0
 16 32  1  0  0  0  0
 17 32  1  0  0  0  0
 17 33  2  0  0  0  0
 17 34  1  0  0  0  0
 18 20  2  0  0  0  0
 18 39  1  0  0  0  0
 19 21  2  0  0  0  0
 19 40  1  0  0  0  0
 20 48  1  0  0  0  0
 21 41  1  0  0  0  0
 22 23  2  0  0  0  0
 22 31  1  0  0  0  0
 22 51  1  0  0  0  0
 23 30  1  0  0  0  0
 23 70  1  0  0  0  0
 24 31  2  0  0  0  0
 24 78  1  0  0  0  0
 25 88  1  0  0  0  0
 26 89  1  0  0  0  0
 27 29  2  0  0  0  0
 27 88  1  0  0  0  0
 28 90  1  0  0  0  0
 29 91  1  0  0  0  0
 30 92  1  0  0  0  0
 31 93  1  0  0  0  0
 32 72  2  0  0  0  0
 33 73  1  0  0  0  0
 33 76  1  0  0  0  0
 34 77  1  0  0  0  0
 34 83  2  0  0  0  0
 35 49  1  0  0  0  0
 35 79  1  0  0  0  0
 35 84  2  0  0  0  0
 36 67  1  0  0  0  0
 36 74  1  0  0  0  0
 36 85  2  0  0  0  0
 37 68  1  0  0  0  0
 37 80  1  0  0  0  0
 37 86  2  0  0  0  0
 38 75  1  0  0  0  0
 38 78  1  0  0  0  0
 38 87  2  0  0  0  0
 39 42  1  0  0  0  0
 40 49  1  0  0  0  0
 41 74  1  0  0  0  0
 42 44  1  0  0  0  0
 43 45  1  0  0  0  0
 43 46  1  0  0  0  0
 44 48  1  0  0  0  0
 45 50  1  0  0  0  0
 46 75  1  0  0  0  0
 47 50  1  0  0  0  0
 47 75  1  0  0  0  0
 48 79  1  0  0  0  0
 49 74  1  0  0  0  0
 50 73  1  0  0  0  0
 52 68  1  0  0  0  0
 53 69  1  0  0  0  0
 54 70  1  0  0  0  0
 55 70  1  0  0  0  0
 56 71  1  0  0  0  0
 57 71  1  0  0  0  0
 58 71  1  0  0  0  0
 59 81  1  0  0  0  0
 60 61  1  0  0  0  0
 60 62  1  0  0  0  0
 61 63  1  0  0  0  0
 62 66  1  0  0  0  0
 63 69  1  0  0  0  0
 64 65  1  0  0  0  0
 64 70  1  0  0  0  0
 65 82  1  0  0  0  0
 66 89  1  0  0  0  0
 67 71  1  0  0  0  0
 67 80  1  0  0  0  0
 68 81  1  0  0  0  0
 69 82  1  0  0  0  0
 72 73  1  0  0  0  0
M  CHG  2  81   1  82   1
M  ISO  4  38 100  66 101  78 100  89 101
M  END
> <Batch ID>
0024

> <Smiles>
CNC(C)C(=O)NC(C(=O)N1Cc2cc([101O:1][101CH2:1]CCCCC(C)NCCC(C)(C)c3c(Cl)cc([100NH:0][100C:0](=O)N4CCCC(n5nc(-c6ccc(Oc7ccc(F)cc7F)cc6)c(C(N)=O)c5N)C4)c(Cl)c3C)ccc2CC1C(=O)NC1CCCc2ccccc21)C(C)(C)C

> <Shape>
0.242

> <Color>
0.067

> <Negative vol penalty>
0.000

$$$$

  -OEChem-04052316223D

 81 89  0     1  0  0  0  0  0999 V2000
  -37.4372  -29.9314   17.4780 C   0  0  0  0  0  0  0  0  0  0  0  0
  -37.0837  -28.6685   17.9421 C   0  0  0  0  0  0  0  0  0  0  0  0
  -23.0016   -9.8752   19.9802 C   0  0  0  0  0  0  0  0  0  0  0  0
  -23.7258   -9.9318   22.2844 C   0  0  0  0  0  0  0  0  0  0  0  0
  -36.5019  -30.9653   17.4928 C   0  0  0  0  0  0  0  0  0  0  0  0
  -35.7948  -28.4390   18.4224 C   0  0  0  0  0  0  0  0  0  0  0  0
  -32.5323  -23.2834   17.8923 C   0  0  0  0  0  0  0  0  0  0  0  0
  -22.2394   -8.7381   20.2477 C   0  0  0  0  0  0  0  0  0  0  0  0
  -22.9635   -8.7948   22.5519 C   0  0  0  0  0  0  0  0  0  0  0  0
  -32.3043  -22.2233   18.7687 C   0  0  0  0  0  0  0  0  0  0  0  0
  -23.2207   -5.4562   22.0843 C   0  0  0  0  0  0  0  0  0  0  0  0
  -23.8119   -4.4422   22.8379 C   0  0  0  0  0  0  0  0  0  0  0  0
  -30.2327  -23.2480   19.4599 C   0  0  0  0  0  0  0  0  0  0  0  0
  -31.1749  -18.3777   23.7184 C   0  0  0  0  0  0  0  0  0  0  0  0
  -22.0865   -4.6806   24.5122 C   0  0  0  0  0  0  0  0  0  0  0  0
  -23.7449  -10.4721   20.9986 C   0  0  0  0  0  0  0  0  0  0  0  0
  -24.1207  -12.9889   20.8195 C   0  0  0  0  0  0  0  0  0  0  0  0
  -35.1980  -30.7459   17.9645 C   0  0  0  0  0  0  0  0  0  0  0  0
  -31.6160  -24.3409   17.8009 C   0  0  0  0  0  0  0  0  0  0  0  0
  -34.8416  -29.4713   18.4448 C   0  0  0  0  0  0  0  0  0  0  0  0
  -30.4501  -24.3190   18.5797 C   0  0  0  0  0  0  0  0  0  0  0  0
  -31.5769  -19.3434   22.7957 C   0  0  0  0  0  0  0  0  0  0  0  0
  -30.6707  -17.1554   23.2739 C   0  0  0  0  0  0  0  0  0  0  0  0
  -31.4747  -19.0868   21.4284 C   0  0  0  0  0  0  0  0  0  0  0  0
  -30.5685  -16.8989   21.9066 C   0  0  0  0  0  0  0  0  0  0  0  0
  -22.2202   -8.1979   21.5335 C   0  0  0  0  0  0  0  0  0  0  0  0
  -31.1559  -22.2069   19.5548 C   0  0  0  0  0  0  0  0  0  0  0  0
  -22.0625   -6.0825   22.5447 C   0  0  0  0  0  0  0  0  0  0  0  0
  -23.2448   -4.0544   24.0518 C   0  0  0  0  0  0  0  0  0  0  0  0
  -21.4954   -5.6947   23.7586 C   0  0  0  0  0  0  0  0  0  0  0  0
  -30.9705  -17.8646   20.9839 C   0  0  0  0  0  0  0  0  0  0  0  0
  -24.5330  -11.6463   20.7227 C   0  0  0  0  0  0  0  0  0  0  0  0
  -25.2278  -13.7152   20.4546 C   0  0  0  0  0  0  0  0  0  0  0  0
  -22.8505  -13.5309   21.2049 C   0  0  0  0  0  0  0  0  0  0  0  0
  -31.7377  -27.4686   18.3546 C   0  0  0  0  0  0  0  0  0  0  0  0
  -28.7417  -27.4105   17.1126 C   0  0  0  0  0  0  0  0  0  0  0  0
  -25.9119  -25.6195   16.4556 C   0  0  0  0  0  0  0  0  0  0  0  0
  -30.7035  -14.6975   20.6893 C   0  0  0  0  0  0  0  0  0  0  0  0
  -34.2358  -31.9065   18.0050 C   0  0  0  0  0  0  0  0  0  0  0  0
  -31.8633  -25.4638   16.8312 C   0  0  0  0  0  0  0  0  0  0  0  0
  -29.4252  -25.4201   18.5041 C   0  0  0  0  0  0  0  0  0  0  0  0
  -32.7794  -31.4844   18.1813 C   0  0  0  0  0  0  0  0  0  0  0  0
  -29.5954  -12.2375   18.3660 C   0  0  0  0  0  0  0  0  0  0  0  0
  -32.6553  -30.4456   19.2914 C   0  0  0  0  0  0  0  0  0  0  0  0
  -28.1457  -11.9748   18.7800 C   0  0  0  0  0  0  0  0  0  0  0  0
  -30.4946  -12.4858   19.5758 C   0  0  0  0  0  0  0  0  0  0  0  0
  -28.5758  -13.2690   20.9077 C   0  0  0  0  0  0  0  0  0  0  0  0
  -33.4460  -29.1767   18.9504 C   0  0  1  0  0  0  0  0  0  0  0  0
  -31.1159  -26.7430   17.1950 C   0  0  1  0  0  0  0  0  0  0  0  0
  -27.6192  -13.0775   19.7194 C   0  0  2  0  0  0  0  0  0  0  0  0
  -32.1146  -20.6427   23.3003 C   0  0  0  0  0  0  0  0  0  0  0  0
  -30.2497  -16.1418   24.2888 C   0  0  0  0  0  0  0  0  0  0  0  0
  -23.6178  -25.8535   15.4659 C   0  0  0  0  0  0  0  0  0  0  0  0
  -27.8034  -28.8499   19.6340 C   0  0  0  0  0  0  0  0  0  0  0  0
  -25.4561  -28.2127   19.0403 C   0  0  0  0  0  0  0  0  0  0  0  0
  -26.7721  -29.6818   17.5130 C   0  0  0  0  0  0  0  0  0  0  0  0
  -26.4861  -23.6130   14.3571 C   0  0  0  0  0  0  0  0  0  0  0  0
  -31.9140  -20.1399   20.4541 C   0  0  0  0  0  0  0  0  0  1  0  0
  -27.3537  -27.2268   17.6771 C   0  0  1  0  0  0  0  0  0  0  0  0
  -25.0703  -25.4908   15.1988 C   0  0  2  0  0  0  0  0  0  0  0  0
  -26.8664  -28.4729   18.4692 C   0  0  0  0  0  0  0  0  0  0  0  0
  -25.8029  -11.5242   20.3271 N   0  0  0  0  0  0  0  0  0  0  0  0
  -26.1981  -12.7993   20.1721 N   0  0  0  0  0  0  0  0  0  0  0  0
  -29.7152  -26.4991   17.5454 N   0  0  0  0  0  0  0  0  0  0  0  0
  -29.9352  -13.5457   20.4176 N   0  0  0  0  0  0  0  0  0  0  0  0
  -25.4563  -15.0417   20.3510 N   0  0  0  0  0  0  0  0  0  0  0  0
  -21.8220  -12.6433   21.5492 N   0  0  0  0  0  0  0  0  0  0  0  0
  -30.0553  -15.6512   21.4734 N   0  0  0  0  0  0  0  0  0  0  0  0
  -32.7198  -28.3708   17.9925 N   0  0  0  0  0  0  0  0  0  0  0  0
  -26.5000  -26.8630   16.5514 N   0  0  0  0  0  0  0  0  0  0  0  0
  -25.1187  -24.0932   14.6838 N   0  3  0  0  0  0  0  0  0  0  0  0
  -22.6291  -14.7654   21.2271 O   0  0  0  0  0  0  0  0  0  0  0  0
  -31.3538  -27.2288   19.4934 O   0  0  0  0  0  0  0  0  0  0  0  0
  -28.9526  -28.3244   16.3113 O   0  0  0  0  0  0  0  0  0  0  0  0
  -26.0324  -24.7093   17.2726 O   0  0  0  0  0  0  0  0  0  0  0  0
  -31.8418  -14.8402   20.2355 O   0  0  0  0  0  0  0  0  0  0  0  0
  -21.4763   -7.0885   21.7950 O   0  0  0  0  0  0  0  0  0  0  0  0
  -30.9313  -21.1737   20.4115 O   0  0  0  0  0  0  0  0  0  1  0  0
  -23.8117   -3.0796   24.7746 F   0  0  0  0  0  0  0  0  0  0  0  0
  -20.3820   -6.2919   24.2055 F   0  0  0  0  0  0  0  0  0  0  0  0
  -30.8449  -17.5526   19.2818 Cl  0  0  0  0  0  0  0  0  0  0  0  0
  1  2  1  0  0  0  0
  1  5  2  0  0  0  0
  2  6  2  0  0  0  0
  3  8  2  0  0  0  0
  3 16  1  0  0  0  0
  4  9  1  0  0  0  0
  4 16  2  0  0  0  0
  5 18  1  0  0  0  0
  6 20  1  0  0  0  0
  7 10  2  0  0  0  0
  7 19  1  0  0  0  0
  8 26  1  0  0  0  0
  9 26  2  0  0  0  0
 10 27  1  0  0  0  0
 11 12  2  0  0  0  0
 11 28  1  0  0  0  0
 12 29  1  0  0  0  0
 13 21  1  0  0  0  0
 13 27  2  0  0  0  0
 14 22  2  0  0  0  0
 14 23  1  0  0  0  0
 15 29  2  0  0  0  0
 15 30  1  0  0  0  0
 16 32  1  0  0  0  0
 17 32  1  0  0  0  0
 17 33  2  0  0  0  0
 17 34  1  0  0  0  0
 18 20  2  0  0  0  0
 18 39  1  0  0  0  0
 19 21  2  0  0  0  0
 19 40  1  0  0  0  0
 20 48  1  0  0  0  0
 21 41  1  0  0  0  0
 22 24  1  0  0  0  0
 22 51  1  0  0  0  0
 23 25  2  0  0  0  0
 23 52  1  0  0  0  0
 24 31  2  0  0  0  0
 24 58  1  0  0  0  0
 25 31  1  0  0  0  0
 25 68  1  0  0  0  0
 26 77  1  0  0  0  0
 27 78  1  0  0  0  0
 28 30  2  0  0  0  0
 28 77  1  0  0  0  0
 29 79  1  0  0  0  0
 30 80  1  0  0  0  0
 31 81  1  0  0  0  0
 32 62  2  0  0  0  0
 33 63  1  0  0  0  0
 33 66  1  0  0  0  0
 34 67  1  0  0  0  0
 34 72  2  0  0  0  0
 35 49  1  0  0  0  0
 35 69  1  0  0  0  0
 35 73  2  0  0  0  0
 36 59  1  0  0  0  0
 36 64  1  0  0  0  0
 36 74  2  0  0  0  0
 37 60  1  0  0  0  0
 37 70  1  0  0  0  0
 37 75  2  0  0  0  0
 38 65  1  0  0  0  0
 38 68  1  0  0  0  0
 38 76  2  0  0  0  0
 39 42  1  0  0  0  0
 40 49  1  0  0  0  0
 41 64  1  0  0  0  0
 42 44  1  0  0  0  0
 43 45  1  0  0  0  0
 43 46  1  0  0  0  0
 44 48  1  0  0  0  0
 45 50  1  0  0  0  0
 46 65  1  0  0  0  0
 47 50  1  0  0  0  0
 47 65  1  0  0  0  0
 48 69  1  0  0  0  0
 49 64  1  0  0  0  0
 50 63  1  0  0  0  0
 53 60  1  0  0  0  0
 54 61  1  0  0  0  0
 55 61  1  0  0  0  0
 56 61  1  0  0  0  0
 57 71  1  0  0  0  0
 58 78  1  0  0  0  0
 59 61  1  0  0  0  0
 59 70  1  0  0  0  0
 60 71  1  0  0  0  0
 62 63  1  0  0  0  0
M  CHG  1  71   1
M  ISO  4  38 100  58 101  68 100  78 101
M  END
> <Batch ID>
0024

> <Smiles>
CNC(C)C(=O)NC(C(=O)N1Cc2cc([101O:1][101CH2:1]c3c(C)cc(C)c([100NH:0][100C:0](=O)N4CCCC(n5nc(-c6ccc(Oc7ccc(F)cc7F)cc6)c(C(N)=O)c5N)C4)c3Cl)ccc2CC1C(=O)NC1CCCc2ccccc21)C(C)(C)C

> <Shape>
0.250

> <Color>
0.208

> <Negative vol penalty>
0.000

$$$$

  -OEChem-04052316223D

 89 98  0     1  0  0  0  0  0999 V2000
  -39.3240  -22.2127   10.7769 C   0  0  0  0  0  0  0  0  0  0  0  0
  -38.7399  -22.7330   11.9273 C   0  0  0  0  0  0  0  0  0  0  0  0
  -23.0774   -9.8654   19.9412 C   0  0  0  0  0  0  0  0  0  0  0  0
  -23.8356   -9.8747   22.2351 C   0  0  0  0  0  0  0  0  0  0  0  0
  -38.9234  -22.6735    9.5235 C   0  0  0  0  0  0  0  0  0  0  0  0
  -37.7555  -23.7154   11.8250 C   0  0  0  0  0  0  0  0  0  0  0  0
  -33.8091  -22.8362   14.8742 C   0  0  0  0  0  0  0  0  0  0  0  0
  -22.3343   -8.7119   20.1915 C   0  0  0  0  0  0  0  0  0  0  0  0
  -23.0924   -8.7212   22.4855 C   0  0  0  0  0  0  0  0  0  0  0  0
  -33.9666  -23.1450   16.2246 C   0  0  0  0  0  0  0  0  0  0  0  0
  -19.8644   -7.9214   23.0862 C   0  0  0  0  0  0  0  0  0  0  0  0
  -19.1066   -7.8818   24.2565 C   0  0  0  0  0  0  0  0  0  0  0  0
  -32.7710  -25.2125   15.8851 C   0  0  0  0  0  0  0  0  0  0  0  0
  -31.1512  -17.6814   20.5895 C   0  0  0  0  0  0  0  0  0  0  0  0
  -20.3488   -5.9459   24.9954 C   0  0  0  0  0  0  0  0  0  0  0  0
  -23.8282  -10.4468   20.9630 C   0  0  0  0  0  0  0  0  0  0  0  0
  -24.1682  -12.9721   20.8413 C   0  0  0  0  0  0  0  0  0  0  0  0
  -37.9268  -23.6550    9.4054 C   0  0  0  0  0  0  0  0  0  0  0  0
  -33.1397  -23.7198   14.0154 C   0  0  0  0  0  0  0  0  0  0  0  0
  -37.3422  -24.1907   10.5688 C   0  0  0  0  0  0  0  0  0  0  0  0
  -32.6040  -24.9113   14.5247 C   0  0  0  0  0  0  0  0  0  0  0  0
  -30.6123  -19.8694   21.4608 C   0  0  0  0  0  0  0  0  0  0  0  0
  -31.3342  -19.0641   20.5798 C   0  0  0  0  0  0  0  0  0  0  0  0
  -29.7073  -19.2918   22.3514 C   0  0  0  0  0  0  0  0  0  0  0  0
  -29.5243  -17.9091   22.3611 C   0  0  0  0  0  0  0  0  0  0  0  0
  -30.2462  -17.1038   21.4801 C   0  0  0  0  0  0  0  0  0  0  0  0
  -22.3417   -8.1398   21.4636 C   0  0  0  0  0  0  0  0  0  0  0  0
  -33.4501  -24.3346   16.7296 C   0  0  0  0  0  0  0  0  0  0  0  0
  -20.8644   -6.9732   22.8703 C   0  0  0  0  0  0  0  0  0  0  0  0
  -19.3488   -6.8941   25.2111 C   0  0  0  0  0  0  0  0  0  0  0  0
  -21.1066   -5.9854   23.8250 C   0  0  0  0  0  0  0  0  0  0  0  0
  -24.5966  -11.6380   20.7049 C   0  0  0  0  0  0  0  0  0  0  0  0
  -25.2601  -13.7221   20.4783 C   0  0  0  0  0  0  0  0  0  0  0  0
  -22.8970  -13.4873   21.2589 C   0  0  0  0  0  0  0  0  0  0  0  0
  -33.9490  -25.3759   11.4258 C   0  0  0  0  0  0  0  0  0  0  0  0
  -30.7867  -26.0968   11.3751 C   0  0  0  0  0  0  0  0  0  0  0  0
  -27.8598  -26.4156   13.1009 C   0  0  0  0  0  0  0  0  0  0  0  0
  -30.7254  -14.7719   20.6563 C   0  0  0  0  0  0  0  0  0  0  0  0
  -37.5604  -24.1557    8.0307 C   0  0  0  0  0  0  0  0  0  0  0  0
  -32.9548  -23.3596   12.5668 C   0  0  0  0  0  0  0  0  0  0  0  0
  -31.8594  -25.8843   13.6487 C   0  0  0  0  0  0  0  0  0  0  0  0
  -36.2449  -24.9294    7.9949 C   0  0  0  0  0  0  0  0  0  0  0  0
  -29.6145  -12.3554   18.2890 C   0  0  0  0  0  0  0  0  0  0  0  0
  -36.1891  -25.9406    9.1356 C   0  0  0  0  0  0  0  0  0  0  0  0
  -28.1748  -12.0631   18.7177 C   0  0  0  0  0  0  0  0  0  0  0  0
  -32.2678  -21.6963   21.7907 C   0  0  0  0  0  0  0  0  0  0  0  0
  -30.4282  -21.9255   20.0731 C   0  0  0  0  0  0  0  0  0  0  0  0
  -30.5286  -12.5858   19.4912 C   0  0  0  0  0  0  0  0  0  0  0  0
  -28.6201  -13.3099   20.8705 C   0  0  0  0  0  0  0  0  0  0  0  0
  -32.5224  -23.1956   21.7039 C   0  0  0  0  0  0  0  0  0  0  0  0
  -30.6967  -23.4232   19.9997 C   0  0  0  0  0  0  0  0  0  0  0  0
  -30.8099  -21.3509   21.4468 C   0  0  0  0  0  0  0  0  0  0  0  0
  -36.2536  -25.2395   10.4979 C   0  0  1  0  0  0  0  0  0  0  0  0
  -32.7040  -24.5729   11.6766 C   0  0  1  0  0  0  0  0  0  0  0  0
  -27.6482  -13.1351   19.6920 C   0  0  2  0  0  0  0  0  0  0  0  0
  -32.3066  -19.6579   19.6137 C   0  0  0  0  0  0  0  0  0  0  0  0
  -28.9330  -20.1563   23.2960 C   0  0  0  0  0  0  0  0  0  0  0  0
  -28.5513  -17.2918   23.3166 C   0  0  0  0  0  0  0  0  0  0  0  0
  -25.4531  -27.0576   12.7960 C   0  0  0  0  0  0  0  0  0  0  0  0
  -31.4284  -25.9771   20.8327 C   0  0  0  0  0  0  0  0  0  0  0  0
  -31.5870  -29.0395   11.2736 C   0  0  0  0  0  0  0  0  0  0  0  0
  -29.2419  -29.6277   11.9237 C   0  0  0  0  0  0  0  0  0  0  0  0
  -29.6762  -28.4260    9.7813 C   0  0  0  0  0  0  0  0  0  0  0  0
  -26.9188  -23.7378   13.9393 C   0  0  0  0  0  0  0  0  0  0  0  0
  -32.5849  -25.4346   18.6525 C   0  0  0  0  0  0  0  0  0  1  0  0
  -29.9290  -27.1871   11.9707 C   0  0  1  0  0  0  0  0  0  0  0  0
  -26.4571  -25.9154   12.8063 C   0  0  2  0  0  0  0  0  0  0  0  0
  -32.4967  -25.1417   20.1460 C   0  0  2  0  0  0  0  0  0  0  0  0
  -30.1242  -28.5528   11.2537 C   0  0  0  0  0  0  0  0  0  0  0  0
  -25.8618  -11.5428   20.2877 N   0  0  0  0  0  0  0  0  0  0  0  0
  -26.2379  -12.8266   20.1586 N   0  0  0  0  0  0  0  0  0  0  0  0
  -31.7102  -25.4901   12.2381 N   0  0  0  0  0  0  0  0  0  0  0  0
  -29.9682  -13.6169   20.3674 N   0  0  0  0  0  0  0  0  0  0  0  0
  -25.4696  -15.0537   20.4044 N   0  0  0  0  0  0  0  0  0  0  0  0
  -21.8856  -12.5776   21.5961 N   0  0  0  0  0  0  0  0  0  0  0  0
  -30.0767  -15.6971   21.4735 N   0  0  0  0  0  0  0  0  0  0  0  0
  -34.9695  -24.6602   10.8294 N   0  0  0  0  0  0  0  0  0  0  0  0
  -28.5582  -26.6886   11.9438 N   0  0  0  0  0  0  0  0  0  0  0  0
  -32.1489  -23.7024   20.3265 N   0  3  0  0  0  0  0  0  0  0  0  0
  -26.0329  -24.9260   13.8369 N   0  3  0  0  0  0  0  0  0  0  0  0
  -22.6598  -14.7178   21.3151 O   0  0  0  0  0  0  0  0  0  0  0  0
  -33.9808  -26.5578   11.7480 O   0  0  0  0  0  0  0  0  0  0  0  0
  -30.6376  -25.7897   10.1897 O   0  0  0  0  0  0  0  0  0  0  0  0
  -28.2914  -26.5540   14.2433 O   0  0  0  0  0  0  0  0  0  0  0  0
  -31.8547  -14.9411   20.1894 O   0  0  0  0  0  0  0  0  0  0  0  0
  -21.6164   -7.0143   21.7083 O   0  0  0  0  0  0  0  0  0  0  0  0
  -33.6030  -24.6388   18.0472 O   0  0  0  0  0  0  0  0  0  1  0  0
  -18.6220   -6.8571   26.3357 F   0  0  0  0  0  0  0  0  0  0  0  0
  -22.0668   -5.0725   23.6238 F   0  0  0  0  0  0  0  0  0  0  0  0
  1  2  1  0  0  0  0
  1  5  2  0  0  0  0
  2  6  2  0  0  0  0
  3  8  2  0  0  0  0
  3 16  1  0  0  0  0
  4  9  1  0  0  0  0
  4 16  2  0  0  0  0
  5 18  1  0  0  0  0
  6 20  1  0  0  0  0
  7 10  2  0  0  0  0
  7 19  1  0  0  0  0
  8 27  1  0  0  0  0
  9 27  2  0  0  0  0
 10 28  1  0  0  0  0
 11 12  2  0  0  0  0
 11 29  1  0  0  0  0
 12 30  1  0  0  0  0
 13 21  1  0  0  0  0
 13 28  2  0  0  0  0
 14 23  2  0  0  0  0
 14 26  1  0  0  0  0
 15 30  2  0  0  0  0
 15 31  1  0  0  0  0
 16 32  1  0  0  0  0
 17 32  1  0  0  0  0
 17 33  2  0  0  0  0
 17 34  1  0  0  0  0
 18 20  2  0  0  0  0
 18 39  1  0  0  0  0
 19 21  2  0  0  0  0
 19 40  1  0  0  0  0
 20 53  1  0  0  0  0
 21 41  1  0  0  0  0
 22 23  1  0  0  0  0
 22 24  2  0  0  0  0
 22 52  1  0  0  0  0
 23 56  1  0  0  0  0
 24 25  1  0  0  0  0
 24 57  1  0  0  0  0
 25 26  2  0  0  0  0
 25 58  1  0  0  0  0
 26 76  1  0  0  0  0
 27 86  1  0  0  0  0
 28 87  1  0  0  0  0
 29 31  2  0  0  0  0
 29 86  1  0  0  0  0
 30 88  1  0  0  0  0
 31 89  1  0  0  0  0
 32 70  2  0  0  0  0
 33 71  1  0  0  0  0
 33 74  1  0  0  0  0
 34 75  1  0  0  0  0
 34 81  2  0  0  0  0
 35 54  1  0  0  0  0
 35 77  1  0  0  0  0
 35 82  2  0  0  0  0
 36 66  1  0  0  0  0
 36 72  1  0  0  0  0
 36 83  2  0  0  0  0
 37 67  1  0  0  0  0
 37 78  1  0  0  0  0
 37 84  2  0  0  0  0
 38 73  1  0  0  0  0
 38 76  1  0  0  0  0
 38 85  2  0  0  0  0
 39 42  1  0  0  0  0
 40 54  1  0  0  0  0
 41 72  1  0  0  0  0
 42 44  1  0  0  0  0
 43 45  1  0  0  0  0
 43 48  1  0  0  0  0
 44 53  1  0  0  0  0
 45 55  1  0  0  0  0
 46 50  1  0  0  0  0
 46 52  1  0  0  0  0
 47 51  1  0  0  0  0
 47 52  1  0  0  0  0
 48 73  1  0  0  0  0
 49 55  1  0  0  0  0
 49 73  1  0  0  0  0
 50 79  1  0  0  0  0
 51 79  1  0  0  0  0
 53 77  1  0  0  0  0
 54 72  1  0  0  0  0
 55 71  1  0  0  0  0
 59 67  1  0  0  0  0
 60 68  1  0  0  0  0
 61 69  1  0  0  0  0
 62 69  1  0  0  0  0
 63 69  1  0  0  0  0
 64 80  1  0  0  0  0
 65 68  1  0  0  0  0
 65 87  1  0  0  0  0
 66 69  1  0  0  0  0
 66 78  1  0  0  0  0
 67 80  1  0  0  0  0
 68 79  1  0  0  0  0
 70 71  1  0  0  0  0
M  CHG  2  79   1  80   1
M  ISO  4  38 100  65 101  76 100  87 101
M  END
> <Batch ID>
0024

> <Smiles>
CNC(C)C(=O)NC(C(=O)N1Cc2cc([101O:1][101CH2:1]C(C)N3CCC(c4c(C)cc([100NH:0][100C:0](=O)N5CCCC(n6nc(-c7ccc(Oc8ccc(F)cc8F)cc7)c(C(N)=O)c6N)C5)c(C)c4C)CC3)ccc2CC1C(=O)NC1CCCc2ccccc21)C(C)(C)C

> <Shape>
0.193

> <Color>
0.188

> <Negative vol penalty>
0.000

$$$$

  -OEChem-04052316223D

 82 90  0     1  0  0  0  0  0999 V2000
  -28.0372  -20.7217   27.1523 C   0  0  0  0  0  0  0  0  0  0  0  0
  -28.2132  -21.3640   25.9308 C   0  0  0  0  0  0  0  0  0  0  0  0
  -22.5175  -13.0246   20.3823 C   0  0  0  0  0  0  0  0  0  0  0  0
  -22.6750  -14.1823   22.4970 C   0  0  0  0  0  0  0  0  0  0  0  0
  -26.7570  -20.5802   27.6861 C   0  0  0  0  0  0  0  0  0  0  0  0
  -27.1088  -21.8642   25.2420 C   0  0  0  0  0  0  0  0  0  0  0  0
  -27.9016  -26.5227   23.4212 C   0  0  0  0  0  0  0  0  0  0  0  0
  -21.7690  -12.0166   20.9899 C   0  0  0  0  0  0  0  0  0  0  0  0
  -21.9264  -13.1743   23.1046 C   0  0  0  0  0  0  0  0  0  0  0  0
  -28.6658  -26.6310   22.2601 C   0  0  0  0  0  0  0  0  0  0  0  0
  -20.1216   -8.9571   22.0620 C   0  0  0  0  0  0  0  0  0  0  0  0
  -20.4493   -7.6345   21.7638 C   0  0  0  0  0  0  0  0  0  0  0  0
  -26.6472  -26.8672   20.9607 C   0  0  0  0  0  0  0  0  0  0  0  0
  -29.9443  -21.3443   18.9029 C   0  0  0  0  0  0  0  0  0  0  0  0
  -28.0658  -23.3635   19.3233 C   0  0  0  0  0  0  0  0  0  0  0  0
  -22.6737   -7.9886   22.6378 C   0  0  0  0  0  0  0  0  0  0  0  0
  -22.9706  -14.1075   21.1359 C   0  0  0  0  0  0  0  0  0  0  0  0
  -23.2570  -16.3223   19.9030 C   0  0  0  0  0  0  0  0  0  0  0  0
  -25.6374  -21.0875   27.0081 C   0  0  0  0  0  0  0  0  0  0  0  0
  -26.5017  -26.5750   23.3593 C   0  0  0  0  0  0  0  0  0  0  0  0
  -25.8123  -21.7282   25.7666 C   0  0  0  0  0  0  0  0  0  0  0  0
  -25.8676  -26.7619   22.1227 C   0  0  0  0  0  0  0  0  0  0  0  0
  -30.0914  -22.5771   18.2671 C   0  0  0  0  0  0  0  0  0  0  0  0
  -29.1522  -23.5867   18.4773 C   0  0  0  0  0  0  0  0  0  0  0  0
  -28.8579  -21.1211   19.7488 C   0  0  0  0  0  0  0  0  0  0  0  0
  -21.4734  -12.0914   22.3510 C   0  0  0  0  0  0  0  0  0  0  0  0
  -28.0385  -26.8003   21.0293 C   0  0  0  0  0  0  0  0  0  0  0  0
  -21.0700   -9.7955   22.6480 C   0  0  0  0  0  0  0  0  0  0  0  0
  -21.7253   -7.1502   22.0517 C   0  0  0  0  0  0  0  0  0  0  0  0
  -22.3460   -9.3112   22.9360 C   0  0  0  0  0  0  0  0  0  0  0  0
  -27.9186  -22.1307   19.9590 C   0  0  0  0  0  0  0  0  0  0  0  0
  -23.7443  -15.1488   20.5089 C   0  0  0  0  0  0  0  0  0  0  0  0
  -24.3829  -16.9745   19.4630 C   0  0  0  0  0  0  0  0  0  0  0  0
  -21.9074  -16.7818   19.7514 C   0  0  0  0  0  0  0  0  0  0  0  0
  -24.1477  -24.5657   24.0842 C   0  0  0  0  0  0  0  0  0  0  0  0
  -22.2758  -27.1215   23.3868 C   0  0  0  0  0  0  0  0  0  0  0  0
  -21.9175  -30.0849   21.7325 C   0  0  0  0  0  0  0  0  0  0  0  0
  -29.5958  -18.7654   20.2514 C   0  0  0  0  0  0  0  0  0  0  0  0
  -24.2684  -20.8688   27.6021 C   0  0  0  0  0  0  0  0  0  0  0  0
  -25.6927  -26.4834   24.6241 C   0  0  0  0  0  0  0  0  0  0  0  0
  -24.3684  -26.8448   22.0048 C   0  0  0  0  0  0  0  0  0  0  0  0
  -23.1894  -21.7578   26.9891 C   0  0  0  0  0  0  0  0  0  0  0  0
  -29.1851  -15.4065   19.1441 C   0  0  0  0  0  0  0  0  0  0  0  0
  -23.2912  -21.7487   25.4672 C   0  0  0  0  0  0  0  0  0  0  0  0
  -27.6929  -15.1365   19.3506 C   0  0  0  0  0  0  0  0  0  0  0  0
  -29.7611  -16.2859   20.2525 C   0  0  0  0  0  0  0  0  0  0  0  0
  -27.5473  -17.2736   20.6918 C   0  0  0  0  0  0  0  0  0  0  0  0
  -24.6417  -22.3061   25.0012 C   0  0  1  0  0  0  0  0  0  0  0  0
  -24.2548  -26.0345   24.3824 C   0  0  1  0  0  0  0  0  0  0  0  0
  -26.9079  -16.4454   19.5653 C   0  0  2  0  0  0  0  0  0  0  0  0
  -31.2608  -22.7914   17.3630 C   0  0  0  0  0  0  0  0  0  0  0  0
  -20.2613  -31.9255   21.3245 C   0  0  0  0  0  0  0  0  0  0  0  0
  -20.7574  -25.3217   21.4463 C   0  0  0  0  0  0  0  0  0  0  0  0
  -19.7866  -27.3811   20.4050 C   0  0  0  0  0  0  0  0  0  0  0  0
  -19.3130  -26.8530   22.7966 C   0  0  0  0  0  0  0  0  0  0  0  0
  -23.6937  -32.1119   22.9554 C   0  0  0  0  0  0  0  0  0  0  0  0
  -29.2900  -24.9272   17.8008 C   0  0  0  0  0  0  0  0  0  0  0  0
  -30.3516  -25.8299   18.4330 C   0  0  0  0  0  0  0  0  0  0  0  0
  -30.0333  -26.2200   19.8717 C   0  0  0  0  0  0  0  0  0  1  0  0
  -21.6181  -27.6557   22.1374 C   0  0  1  0  0  0  0  0  0  0  0  0
  -21.4121  -31.4405   22.1923 C   0  0  2  0  0  0  0  0  0  0  0  0
  -20.3970  -26.7994   21.6980 C   0  0  0  0  0  0  0  0  0  0  0  0
  -25.0760  -15.0579   20.4600 N   0  0  0  0  0  0  0  0  0  0  0  0
  -25.4351  -16.1827   19.8180 N   0  0  0  0  0  0  0  0  0  0  0  0
  -23.6208  -26.7436   23.2691 N   0  0  0  0  0  0  0  0  0  0  0  0
  -28.9691  -17.5095   20.3956 N   0  0  0  0  0  0  0  0  0  0  0  0
  -24.5656  -18.1423   18.8109 N   0  0  0  0  0  0  0  0  0  0  0  0
  -20.8704  -15.9890   20.2618 N   0  0  0  0  0  0  0  0  0  0  0  0
  -28.7362  -19.8564   20.3761 N   0  0  0  0  0  0  0  0  0  0  0  0
  -24.6471  -23.7510   25.0824 N   0  0  0  0  0  0  0  0  0  0  0  0
  -21.3009  -29.0536   22.4089 N   0  0  0  0  0  0  0  0  0  0  0  0
  -22.5065  -32.4501   22.1289 N   0  3  0  0  0  0  0  0  0  0  0  0
  -21.6281  -17.8554   19.1658 O   0  0  0  0  0  0  0  0  0  0  0  0
  -23.6476  -24.1987   23.0273 O   0  0  0  0  0  0  0  0  0  0  0  0
  -21.6223  -27.0490   24.4305 O   0  0  0  0  0  0  0  0  0  0  0  0
  -22.7711  -29.9538   20.8580 O   0  0  0  0  0  0  0  0  0  0  0  0
  -30.8007  -18.8650   20.0062 O   0  0  0  0  0  0  0  0  0  0  0  0
  -20.7428  -11.1081   22.9442 O   0  0  0  0  0  0  0  0  0  0  0  0
  -28.7820  -26.9057   19.8944 O   0  0  0  0  0  0  0  0  0  1  0  0
  -22.0394   -5.8797   21.7667 F   0  0  0  0  0  0  0  0  0  0  0  0
  -23.2609  -10.1116   23.5000 F   0  0  0  0  0  0  0  0  0  0  0  0
  -26.5587  -21.8968   20.9990 Cl  0  0  0  0  0  0  0  0  0  0  0  0
  1  2  1  0  0  0  0
  1  5  2  0  0  0  0
  2  6  2  0  0  0  0
  3  8  2  0  0  0  0
  3 17  1  0  0  0  0
  4  9  1  0  0  0  0
  4 17  2  0  0  0  0
  5 19  1  0  0  0  0
  6 21  1  0  0  0  0
  7 10  2  0  0  0  0
  7 20  1  0  0  0  0
  8 26  1  0  0  0  0
  9 26  2  0  0  0  0
 10 27  1  0  0  0  0
 11 12  2  0  0  0  0
 11 28  1  0  0  0  0
 12 29  1  0  0  0  0
 13 22  1  0  0  0  0
 13 27  2  0  0  0  0
 14 23  1  0  0  0  0
 14 25  2  0  0  0  0
 15 24  1  0  0  0  0
 15 31  2  0  0  0  0
 16 29  2  0  0  0  0
 16 30  1  0  0  0  0
 17 32  1  0  0  0  0
 18 32  1  0  0  0  0
 18 33  2  0  0  0  0
 18 34  1  0  0  0  0
 19 21  2  0  0  0  0
 19 39  1  0  0  0  0
 20 22  2  0  0  0  0
 20 40  1  0  0  0  0
 21 48  1  0  0  0  0
 22 41  1  0  0  0  0
 23 24  2  0  0  0  0
 23 51  1  0  0  0  0
 24 57  1  0  0  0  0
 25 31  1  0  0  0  0
 25 69  1  0  0  0  0
 26 78  1  0  0  0  0
 27 79  1  0  0  0  0
 28 30  2  0  0  0  0
 28 78  1  0  0  0  0
 29 80  1  0  0  0  0
 30 81  1  0  0  0  0
 31 82  1  0  0  0  0
 32 63  2  0  0  0  0
 33 64  1  0  0  0  0
 33 67  1  0  0  0  0
 34 68  1  0  0  0  0
 34 73  2  0  0  0  0
 35 49  1  0  0  0  0
 35 70  1  0  0  0  0
 35 74  2  0  0  0  0
 36 60  1  0  0  0  0
 36 65  1  0  0  0  0
 36 75  2  0  0  0  0
 37 61  1  0  0  0  0
 37 71  1  0  0  0  0
 37 76  2  0  0  0  0
 38 66  1  0  0  0  0
 38 69  1  0  0  0  0
 38 77  2  0  0  0  0
 39 42  1  0  0  0  0
 40 49  1  0  0  0  0
 41 65  1  0  0  0  0
 42 44  1  0  0  0  0
 43 45  1  0  0  0  0
 43 46  1  0  0  0  0
 44 48  1  0  0  0  0
 45 50  1  0  0  0  0
 46 66  1  0  0  0  0
 47 50  1  0  0  0  0
 47 66  1  0  0  0  0
 48 70  1  0  0  0  0
 49 65  1  0  0  0  0
 50 64  1  0  0  0  0
 52 61  1  0  0  0  0
 53 62  1  0  0  0  0
 54 62  1  0  0  0  0
 55 62  1  0  0  0  0
 56 72  1  0  0  0  0
 57 58  1  0  0  0  0
 58 59  1  0  0  0  0
 59 79  1  0  0  0  0
 60 62  1  0  0  0  0
 60 71  1  0  0  0  0
 61 72  1  0  0  0  0
 63 64  1  0  0  0  0
M  CHG  1  72   1
M  ISO  4  38 100  59 101  69 100  79 101
M  END
> <Batch ID>
0024

> <Smiles>
CNC(C)C(=O)NC(C(=O)N1Cc2cc([101O:1][101CH2:1]CCc3cc(Cl)c([100NH:0][100C:0](=O)N4CCCC(n5nc(-c6ccc(Oc7ccc(F)cc7F)cc6)c(C(N)=O)c5N)C4)cc3C)ccc2CC1C(=O)NC1CCCc2ccccc21)C(C)(C)C

> <Shape>
0.222

> <Color>
0.055

> <Negative vol penalty>
0.000

$$$$

  -OEChem-04052316223D

 84 92  0     1  0  0  0  0  0999 V2000
  -19.5978  -24.6203   17.3536 C   0  0  0  0  0  0  0  0  0  0  0  0
  -20.6465  -25.4571   17.7180 C   0  0  0  0  0  0  0  0  0  0  0  0
  -23.6544  -17.2273   22.9238 C   0  0  0  0  0  0  0  0  0  0  0  0
  -24.8054  -18.5315   21.2472 C   0  0  0  0  0  0  0  0  0  0  0  0
  -19.7319  -23.2404   17.4920 C   0  0  0  0  0  0  0  0  0  0  0  0
  -21.8339  -24.9138   18.2098 C   0  0  0  0  0  0  0  0  0  0  0  0
  -25.5802  -28.0189   18.9357 C   0  0  0  0  0  0  0  0  0  0  0  0
  -24.0738  -16.0532   22.2985 C   0  0  0  0  0  0  0  0  0  0  0  0
  -25.2249  -17.3574   20.6218 C   0  0  0  0  0  0  0  0  0  0  0  0
  -25.5986  -28.9479   19.9752 C   0  0  0  0  0  0  0  0  0  0  0  0
  -23.1836  -14.2090   19.6094 C   0  0  0  0  0  0  0  0  0  0  0  0
  -22.2400  -13.1972   19.4324 C   0  0  0  0  0  0  0  0  0  0  0  0
  -27.1371  -27.5450   21.1936 C   0  0  0  0  0  0  0  0  0  0  0  0
  -22.1228  -30.1030   24.2108 C   0  0  0  0  0  0  0  0  0  0  0  0
  -23.5951  -11.7011   20.7601 C   0  0  0  0  0  0  0  0  0  0  0  0
  -24.0202  -18.4665   22.3981 C   0  0  0  0  0  0  0  0  0  0  0  0
  -24.2579  -20.3903   24.0565 C   0  0  0  0  0  0  0  0  0  0  0  0
  -20.9172  -22.6815   17.9975 C   0  0  0  0  0  0  0  0  0  0  0  0
  -26.3329  -26.8389   19.0223 C   0  0  0  0  0  0  0  0  0  0  0  0
  -21.9974  -23.5223   18.3345 C   0  0  0  0  0  0  0  0  0  0  0  0
  -27.1285  -26.6039   20.1527 C   0  0  0  0  0  0  0  0  0  0  0  0
  -23.1722  -29.1910   24.2282 C   0  0  0  0  0  0  0  0  0  0  0  0
  -24.8590  -16.1182   21.1475 C   0  0  0  0  0  0  0  0  0  0  0  0
  -26.3749  -28.7096   21.1056 C   0  0  0  0  0  0  0  0  0  0  0  0
  -24.3331  -13.9668   20.3617 C   0  0  0  0  0  0  0  0  0  0  0  0
  -22.4457  -11.9432   20.0078 C   0  0  0  0  0  0  0  0  0  0  0  0
  -24.5388  -12.7129   20.9370 C   0  0  0  0  0  0  0  0  0  0  0  0
  -22.9478  -27.8739   23.8431 C   0  0  0  0  0  0  0  0  0  0  0  0
  -23.5868  -19.6798   23.0434 C   0  0  0  0  0  0  0  0  0  0  0  0
  -20.8779  -29.6515   23.8034 C   0  0  0  0  0  0  0  0  0  0  0  0
  -21.6658  -27.5222   23.4523 C   0  0  0  0  0  0  0  0  0  0  0  0
  -23.4395  -21.4600   24.3255 C   0  0  0  0  0  0  0  0  0  0  0  0
  -25.5093  -20.1086   24.6971 C   0  0  0  0  0  0  0  0  0  0  0  0
  -25.6435  -23.7361   19.0578 C   0  0  0  0  0  0  0  0  0  0  0  0
  -28.8698  -23.4159   18.9558 C   0  0  0  0  0  0  0  0  0  0  0  0
  -31.6207  -24.9407   19.0903 C   0  0  0  0  0  0  0  0  0  0  0  0
  -20.1889  -25.6524   22.6344 C   0  0  0  0  0  0  0  0  0  0  0  0
  -21.0114  -21.1809   18.1192 C   0  0  0  0  0  0  0  0  0  0  0  0
  -26.3230  -25.8595   17.8807 C   0  0  0  0  0  0  0  0  0  0  0  0
  -27.9705  -25.3622   20.2856 C   0  0  0  0  0  0  0  0  0  0  0  0
  -22.1261  -20.7293   19.0571 C   0  0  0  0  0  0  0  0  0  0  0  0
  -18.6939  -22.4285   22.8549 C   0  0  0  0  0  0  0  0  0  0  0  0
  -23.4234  -21.4407   18.7030 C   0  0  0  0  0  0  0  0  0  0  0  0
  -19.8888  -21.4844   23.0069 C   0  0  0  0  0  0  0  0  0  0  0  0
  -19.0052  -23.5901   21.9128 C   0  0  0  0  0  0  0  0  0  0  0  0
  -21.4142  -23.4038   22.3936 C   0  0  0  0  0  0  0  0  0  0  0  0
  -23.2870  -22.9557   18.9004 C   0  0  1  0  0  0  0  0  0  0  0  0
  -26.7272  -24.4494   18.2998 C   0  0  1  0  0  0  0  0  0  0  0  0
  -21.1702  -22.2535   23.3839 C   0  0  2  0  0  0  0  0  0  0  0  0
  -19.7285  -30.6030   23.7727 C   0  0  0  0  0  0  0  0  0  0  0  0
  -26.3825  -31.8508   25.7987 C   0  0  0  0  0  0  0  0  0  0  0  0
  -33.9869  -25.7749   19.1423 C   0  0  0  0  0  0  0  0  0  0  0  0
  -28.6451  -21.6299   21.4195 C   0  0  0  0  0  0  0  0  0  0  0  0
  -31.1056  -21.9276   21.7737 C   0  0  0  0  0  0  0  0  0  0  0  0
  -30.2704  -20.8295   19.6955 C   0  0  0  0  0  0  0  0  0  0  0  0
  -31.7833  -25.0114   16.1360 C   0  0  0  0  0  0  0  0  0  0  0  0
  -24.5330  -29.6735   24.6711 C   0  0  0  0  0  0  0  0  0  0  0  0
  -26.4429  -31.3342   24.3678 C   0  0  0  0  0  0  0  0  0  0  0  0
  -25.2133  -30.3896   22.3238 C   0  0  0  0  0  0  0  0  0  1  0  0
  -29.9681  -23.3225   19.9874 C   0  0  1  0  0  0  0  0  0  0  0  0
  -32.9434  -25.0048   18.3481 C   0  0  2  0  0  0  0  0  0  0  0  0
  -25.1034  -30.8119   23.7978 C   0  0  1  0  0  0  0  0  0  0  0  0
  -29.9800  -21.9500   20.7177 C   0  0  0  0  0  0  0  0  0  0  0  0
  -22.4309  -20.2499   22.6927 N   0  0  0  0  0  0  0  0  0  0  0  0
  -20.6214  -28.3800   23.4223 N   0  0  0  0  0  0  0  0  0  0  0  0
  -22.3694  -21.3301   23.4900 N   0  0  0  0  0  0  0  0  0  0  0  0
  -27.9224  -24.4318   19.1456 N   0  0  0  0  0  0  0  0  0  0  0  0
  -20.2295  -24.2743   22.3344 N   0  0  0  0  0  0  0  0  0  0  0  0
  -23.5380  -22.4897   25.1930 N   0  0  0  0  0  0  0  0  0  0  0  0
  -26.2214  -18.9685   24.3002 N   0  0  0  0  0  0  0  0  0  0  0  0
  -21.4060  -26.1869   23.0558 N   0  0  0  0  0  0  0  0  0  0  0  0
  -24.4580  -23.6097   18.3591 N   0  0  0  0  0  0  0  0  0  0  0  0
  -31.2102  -23.6398   19.2911 N   0  0  0  0  0  0  0  0  0  0  0  0
  -32.7656  -25.6770   17.0299 N   0  3  0  0  0  0  0  0  0  0  0  0
  -25.9742  -20.8371   25.6064 O   0  0  0  0  0  0  0  0  0  0  0  0
  -25.8668  -23.3293   20.1919 O   0  0  0  0  0  0  0  0  0  0  0  0
  -28.8573  -22.6214   18.0123 O   0  0  0  0  0  0  0  0  0  0  0  0
  -31.0143  -25.9443   19.4586 O   0  0  0  0  0  0  0  0  0  0  0  0
  -19.1446  -26.3041   22.5516 O   0  0  0  0  0  0  0  0  0  0  0  0
  -25.2686  -14.9726   20.5371 O   0  0  0  0  0  0  0  0  0  0  0  0
  -26.3942  -29.6144   22.1219 O   0  0  0  0  0  0  0  0  0  1  0  0
  -21.5387  -10.9722   19.8390 F   0  0  0  0  0  0  0  0  0  0  0  0
  -25.6405  -12.4747   21.6617 F   0  0  0  0  0  0  0  0  0  0  0  0
  -24.2401  -26.7259   23.8561 Cl  0  0  0  0  0  0  0  0  0  0  0  0
  1  2  1  0  0  0  0
  1  5  2  0  0  0  0
  2  6  2  0  0  0  0
  3  8  2  0  0  0  0
  3 16  1  0  0  0  0
  4  9  1  0  0  0  0
  4 16  2  0  0  0  0
  5 18  1  0  0  0  0
  6 20  1  0  0  0  0
  7 10  2  0  0  0  0
  7 19  1  0  0  0  0
  8 23  1  0  0  0  0
  9 23  2  0  0  0  0
 10 24  1  0  0  0  0
 11 12  2  0  0  0  0
 11 25  1  0  0  0  0
 12 26  1  0  0  0  0
 13 21  1  0  0  0  0
 13 24  2  0  0  0  0
 14 22  1  0  0  0  0
 14 30  2  0  0  0  0
 15 26  2  0  0  0  0
 15 27  1  0  0  0  0
 16 29  1  0  0  0  0
 17 29  1  0  0  0  0
 17 32  2  0  0  0  0
 17 33  1  0  0  0  0
 18 20  2  0  0  0  0
 18 38  1  0  0  0  0
 19 21  2  0  0  0  0
 19 39  1  0  0  0  0
 20 47  1  0  0  0  0
 21 40  1  0  0  0  0
 22 28  2  0  0  0  0
 22 57  1  0  0  0  0
 23 80  1  0  0  0  0
 24 81  1  0  0  0  0
 25 27  2  0  0  0  0
 25 80  1  0  0  0  0
 26 82  1  0  0  0  0
 27 83  1  0  0  0  0
 28 31  1  0  0  0  0
 28 84  1  0  0  0  0
 29 64  2  0  0  0  0
 30 50  1  0  0  0  0
 30 65  1  0  0  0  0
 31 65  2  0  0  0  0
 31 71  1  0  0  0  0
 32 66  1  0  0  0  0
 32 69  1  0  0  0  0
 33 70  1  0  0  0  0
 33 75  2  0  0  0  0
 34 48  1  0  0  0  0
 34 72  1  0  0  0  0
 34 76  2  0  0  0  0
 35 60  1  0  0  0  0
 35 67  1  0  0  0  0
 35 77  2  0  0  0  0
 36 61  1  0  0  0  0
 36 73  1  0  0  0  0
 36 78  2  0  0  0  0
 37 68  1  0  0  0  0
 37 71  1  0  0  0  0
 37 79  2  0  0  0  0
 38 41  1  0  0  0  0
 39 48  1  0  0  0  0
 40 67  1  0  0  0  0
 41 43  1  0  0  0  0
 42 44  1  0  0  0  0
 42 45  1  0  0  0  0
 43 47  1  0  0  0  0
 44 49  1  0  0  0  0
 45 68  1  0  0  0  0
 46 49  1  0  0  0  0
 46 68  1  0  0  0  0
 47 72  1  0  0  0  0
 48 67  1  0  0  0  0
 49 66  1  0  0  0  0
 51 58  1  0  0  0  0
 52 61  1  0  0  0  0
 53 63  1  0  0  0  0
 54 63  1  0  0  0  0
 55 63  1  0  0  0  0
 56 74  1  0  0  0  0
 57 62  1  0  0  0  0
 58 62  1  0  0  0  0
 59 62  1  0  0  0  0
 59 81  1  0  0  0  0
 60 63  1  0  0  0  0
 60 73  1  0  0  0  0
 61 74  1  0  0  0  0
 64 66  1  0  0  0  0
M  CHG  1  74   1
M  ISO  4  37 100  59 101  71 100  81 101
M  END
> <Batch ID>
0024

> <Smiles>
CCC(Cc1cc(C)nc([100NH:0][100C:0](=O)N2CCCC(n3nc(-c4ccc(Oc5ccc(F)cc5F)cc4)c(C(N)=O)c3N)C2)c1Cl)[101CH2:1][101O:1]c1ccc2c(c1)CN(C(=O)C(NC(=O)C(C)NC)C(C)(C)C)C(C(=O)NC1CCCc3ccccc31)C2

> <Shape>
0.194

> <Color>
0.065

> <Negative vol penalty>
0.000

$$$$

  -OEChem-04052316223D

 96104  0     1  0  0  0  0  0999 V2000
  -30.2513  -25.0565   18.3064 C   0  0  0  0  0  0  0  0  0  0  0  0
  -28.8626  -25.1109   18.3689 C   0  0  0  0  0  0  0  0  0  0  0  0
  -27.1986  -12.3597   19.4679 C   0  0  0  0  0  0  0  0  0  0  0  0
  -24.9330  -13.1645   19.7057 C   0  0  0  0  0  0  0  0  0  0  0  0
  -31.0165  -25.6235   19.3247 C   0  0  0  0  0  0  0  0  0  0  0  0
  -28.2382  -25.7314   19.4503 C   0  0  0  0  0  0  0  0  0  0  0  0
  -23.0168  -28.9303   19.3472 C   0  0  0  0  0  0  0  0  0  0  0  0
  -26.7250  -11.0502   19.3872 C   0  0  0  0  0  0  0  0  0  0  0  0
  -24.4594  -11.8550   19.6250 C   0  0  0  0  0  0  0  0  0  0  0  0
  -21.7031  -28.5920   19.6686 C   0  0  0  0  0  0  0  0  0  0  0  0
  -22.6793   -8.6937   19.8428 C   0  0  0  0  0  0  0  0  0  0  0  0
  -21.7027   -8.2999   20.7575 C   0  0  0  0  0  0  0  0  0  0  0  0
  -22.0120  -29.5142   21.8761 C   0  0  0  0  0  0  0  0  0  0  0  0
  -23.2166   -8.7766   22.5790 C   0  0  0  0  0  0  0  0  0  0  0  0
  -26.3026  -13.4169   19.6272 C   0  0  0  0  0  0  0  0  0  0  0  0
  -26.9978  -15.6666   18.6460 C   0  0  0  0  0  0  0  0  0  0  0  0
  -30.4013  -26.2597   20.4144 C   0  0  0  0  0  0  0  0  0  0  0  0
  -23.8429  -29.5543   20.2931 C   0  0  0  0  0  0  0  0  0  0  0  0
  -28.9958  -26.3063   20.4848 C   0  0  0  0  0  0  0  0  0  0  0  0
  -23.3351  -29.8617   21.5634 C   0  0  0  0  0  0  0  0  0  0  0  0
  -23.9618  -21.8786   22.5039 C   0  0  0  0  0  0  0  0  0  0  0  0
  -22.7415  -21.2216   22.6163 C   0  0  0  0  0  0  0  0  0  0  0  0
  -24.1714  -22.7697   21.4573 C   0  0  0  0  0  0  0  0  0  0  0  0
  -25.3554  -10.7978   19.4657 C   0  0  0  0  0  0  0  0  0  0  0  0
  -21.2013  -28.8813   20.9341 C   0  0  0  0  0  0  0  0  0  0  0  0
  -23.9246   -9.1288   20.2961 C   0  0  0  0  0  0  0  0  0  0  0  0
  -21.9713   -8.3414   22.1256 C   0  0  0  0  0  0  0  0  0  0  0  0
  -24.1933   -9.1703   21.6643 C   0  0  0  0  0  0  0  0  0  0  0  0
  -26.7912  -14.7697   19.7112 C   0  0  0  0  0  0  0  0  0  0  0  0
  -21.7712  -21.4883   21.6639 C   0  0  0  0  0  0  0  0  0  0  0  0
  -23.1371  -22.9670   20.5567 C   0  0  0  0  0  0  0  0  0  0  0  0
  -27.4660  -16.8101   19.2459 C   0  0  0  0  0  0  0  0  0  0  0  0
  -26.7854  -15.4827   17.2401 C   0  0  0  0  0  0  0  0  0  0  0  0
  -26.5684  -28.7930   21.7406 C   0  0  0  0  0  0  0  0  0  0  0  0
  -26.3388  -31.8108   22.9077 C   0  0  0  0  0  0  0  0  0  0  0  0
  -24.3487  -34.4694   23.6939 C   0  0  0  0  0  0  0  0  0  0  0  0
  -26.7692  -19.9332   24.0702 C   0  0  0  0  0  0  0  0  0  0  0  0
  -31.2696  -26.8166   21.5146 C   0  0  0  0  0  0  0  0  0  0  0  0
  -25.2494  -29.9369   19.9219 C   0  0  0  0  0  0  0  0  0  0  0  0
  -24.1747  -30.5490   22.6080 C   0  0  0  0  0  0  0  0  0  0  0  0
  -30.5355  -27.7847   22.4389 C   0  0  0  0  0  0  0  0  0  0  0  0
  -29.6102  -17.8442   23.5789 C   0  0  0  0  0  0  0  0  0  0  0  0
  -29.1841  -27.2090   22.8503 C   0  0  0  0  0  0  0  0  0  0  0  0
  -29.1921  -16.9218   22.4325 C   0  0  0  0  0  0  0  0  0  0  0  0
  -28.4390  -18.1565   24.5078 C   0  0  0  0  0  0  0  0  0  0  0  0
  -26.8223  -17.7689   22.6885 C   0  0  0  0  0  0  0  0  0  0  0  0
  -28.2820  -26.9924   21.6293 C   0  0  1  0  0  0  0  0  0  0  0  0
  -26.1620  -30.1056   21.1328 C   0  0  1  0  0  0  0  0  0  0  0  0
  -27.9568  -17.4705   21.6934 C   0  0  2  0  0  0  0  0  0  0  0  0
  -22.4863  -20.2607   23.7288 C   0  0  0  0  0  0  0  0  0  0  0  0
  -26.6529  -22.5342   21.1866 C   0  0  0  0  0  0  0  0  0  0  0  0
  -24.4427  -36.7807   24.6669 C   0  0  0  0  0  0  0  0  0  0  0  0
  -24.4683  -23.5484   18.4276 C   0  0  0  0  0  0  0  0  0  0  0  0
  -23.6205  -25.3638   19.8881 C   0  0  0  0  0  0  0  0  0  0  0  0
  -26.6451  -30.6202   25.7003 C   0  0  0  0  0  0  0  0  0  0  0  0
  -25.7934  -32.7795   26.6385 C   0  0  0  0  0  0  0  0  0  0  0  0
  -27.9144  -32.7423   25.3260 C   0  0  0  0  0  0  0  0  0  0  0  0
  -23.3072  -35.6852   21.2047 C   0  0  0  0  0  0  0  0  0  0  0  0
  -25.4696  -23.4903   21.3093 C   0  0  0  0  0  0  0  0  0  0  0  0
  -25.0455  -21.6263   23.5031 C   0  0  0  0  0  0  0  0  0  0  0  0
  -20.4346  -20.8103   21.7325 C   0  0  0  0  0  0  0  0  0  0  0  0
  -17.6232  -24.9991   21.9592 C   0  0  0  0  0  0  0  0  0  0  0  0
  -18.8078  -25.9678   21.9291 C   0  0  0  0  0  0  0  0  0  0  0  0
  -17.9580  -23.6919   21.2350 C   0  0  0  0  0  0  0  0  0  0  0  0
  -18.4885  -27.2595   22.6789 C   0  0  0  0  0  0  0  0  0  0  0  0
  -19.0912  -22.9103   21.8880 C   0  0  0  0  0  0  0  0  0  0  0  0
  -19.6462  -28.2457   22.6174 C   0  0  0  0  0  0  0  0  0  1  0  0
  -25.7092  -32.4406   24.1267 C   0  0  1  0  0  0  0  0  0  0  0  0
  -24.4821  -35.9513   23.3928 C   0  0  2  0  0  0  0  0  0  0  0  0
  -23.3035  -23.9102   19.4103 C   0  0  0  0  0  0  0  0  0  0  0  0
  -26.5001  -32.1309   25.4291 C   0  0  0  0  0  0  0  0  0  0  0  0
  -22.0134  -23.9671   18.5429 C   0  0  0  0  0  0  0  0  0  0  0  0
  -27.1028  -15.2979   20.8978 N   0  0  0  0  0  0  0  0  0  0  0  0
  -21.9381  -22.3472   20.6333 N   0  0  0  0  0  0  0  0  0  0  0  0
  -27.5101  -16.5390   20.5818 N   0  0  0  0  0  0  0  0  0  0  0  0
  -25.5455  -30.8973   22.1992 N   0  0  0  0  0  0  0  0  0  0  0  0
  -27.3008  -18.6744   23.7448 N   0  0  0  0  0  0  0  0  0  0  0  0
  -27.8404  -18.0109   18.7556 N   0  0  0  0  0  0  0  0  0  0  0  0
  -26.3000  -14.2459   16.7939 N   0  0  0  0  0  0  0  0  0  0  0  0
  -27.7139  -28.2493   21.1913 N   0  0  0  0  0  0  0  0  0  0  0  0
  -25.5796  -33.8632   23.8303 N   0  0  0  0  0  0  0  0  0  0  0  0
  -25.6956  -20.3518   23.2937 N   0  0  0  0  0  0  0  0  0  0  0  0
  -23.3731  -36.4013   22.5047 N   0  3  0  0  0  0  0  0  0  0  0  0
  -19.3314  -21.6370   21.1694 N   0  3  0  0  0  0  0  0  0  0  0  0
  -27.0346  -16.3827   16.4026 O   0  0  0  0  0  0  0  0  0  0  0  0
  -25.8937  -28.3099   22.6423 O   0  0  0  0  0  0  0  0  0  0  0  0
  -27.4894  -32.1234   22.5915 O   0  0  0  0  0  0  0  0  0  0  0  0
  -23.2613  -33.9068   23.8014 O   0  0  0  0  0  0  0  0  0  0  0  0
  -27.2214  -20.6346   24.9815 O   0  0  0  0  0  0  0  0  0  0  0  0
  -24.8929   -9.5202   19.3868 O   0  0  0  0  0  0  0  0  0  0  0  0
  -19.9195  -28.5516   21.2507 O   0  0  0  0  0  0  0  0  0  1  0  0
  -21.0328   -7.9647   23.0040 F   0  0  0  0  0  0  0  0  0  0  0  0
  -25.3874   -9.5886   22.1059 F   0  0  0  0  0  0  0  0  0  0  0  0
  -20.9303  -24.3819   19.2413 F   0  0  0  0  0  0  0  0  0  0  0  0
  -21.7089  -22.7568   18.0255 F   0  0  0  0  0  0  0  0  0  0  0  0
  -22.1739  -24.8233   17.5080 F   0  0  0  0  0  0  0  0  0  0  0  0
  1  2  1  0  0  0  0
  1  5  2  0  0  0  0
  2  6  2  0  0  0  0
  3  8  2  0  0  0  0
  3 15  1  0  0  0  0
  4  9  1  0  0  0  0
  4 15  2  0  0  0  0
  5 17  1  0  0  0  0
  6 19  1  0  0  0  0
  7 10  2  0  0  0  0
  7 18  1  0  0  0  0
  8 24  1  0  0  0  0
  9 24  2  0  0  0  0
 10 25  1  0  0  0  0
 11 12  2  0  0  0  0
 11 26  1  0  0  0  0
 12 27  1  0  0  0  0
 13 20  1  0  0  0  0
 13 25  2  0  0  0  0
 14 27  2  0  0  0  0
 14 28  1  0  0  0  0
 15 29  1  0  0  0  0
 16 29  1  0  0  0  0
 16 32  2  0  0  0  0
 16 33  1  0  0  0  0
 17 19  2  0  0  0  0
 17 38  1  0  0  0  0
 18 20  2  0  0  0  0
 18 39  1  0  0  0  0
 19 47  1  0  0  0  0
 20 40  1  0  0  0  0
 21 22  1  0  0  0  0
 21 23  2  0  0  0  0
 21 60  1  0  0  0  0
 22 30  2  0  0  0  0
 22 50  1  0  0  0  0
 23 31  1  0  0  0  0
 23 59  1  0  0  0  0
 24 90  1  0  0  0  0
 25 91  1  0  0  0  0
 26 28  2  0  0  0  0
 26 90  1  0  0  0  0
 27 92  1  0  0  0  0
 28 93  1  0  0  0  0
 29 73  2  0  0  0  0
 30 61  1  0  0  0  0
 30 74  1  0  0  0  0
 31 70  1  0  0  0  0
 31 74  2  0  0  0  0
 32 75  1  0  0  0  0
 32 78  1  0  0  0  0
 33 79  1  0  0  0  0
 33 85  2  0  0  0  0
 34 48  1  0  0  0  0
 34 80  1  0  0  0  0
 34 86  2  0  0  0  0
 35 68  1  0  0  0  0
 35 76  1  0  0  0  0
 35 87  2  0  0  0  0
 36 69  1  0  0  0  0
 36 81  1  0  0  0  0
 36 88  2  0  0  0  0
 37 77  1  0  0  0  0
 37 82  1  0  0  0  0
 37 89  2  0  0  0  0
 38 41  1  0  0  0  0
 39 48  1  0  0  0  0
 40 76  1  0  0  0  0
 41 43  1  0  0  0  0
 42 44  1  0  0  0  0
 42 45  1  0  0  0  0
 43 47  1  0  0  0  0
 44 49  1  0  0  0  0
 45 77  1  0  0  0  0
 46 49  1  0  0  0  0
 46 77  1  0  0  0  0
 47 80  1  0  0  0  0
 48 76  1  0  0  0  0
 49 75  1  0  0  0  0
 51 59  1  0  0  0  0
 52 69  1  0  0  0  0
 53 70  1  0  0  0  0
 54 70  1  0  0  0  0
 55 71  1  0  0  0  0
 56 71  1  0  0  0  0
 57 71  1  0  0  0  0
 58 83  1  0  0  0  0
 60 82  1  0  0  0  0
 61 84  1  0  0  0  0
 62 63  1  0  0  0  0
 62 64  1  0  0  0  0
 63 65  1  0  0  0  0
 64 66  1  0  0  0  0
 65 67  1  0  0  0  0
 66 84  1  0  0  0  0
 67 91  1  0  0  0  0
 68 71  1  0  0  0  0
 68 81  1  0  0  0  0
 69 83  1  0  0  0  0
 70 72  1  0  0  0  0
 72 94  1  0  0  0  0
 72 95  1  0  0  0  0
 72 96  1  0  0  0  0
 73 75  1  0  0  0  0
M  CHG  2  83   1  84   1
M  ISO  4  37 100  67 101  82 100  91 101
M  END
> <Batch ID>
0024

> <Smiles>
CCc1c(C(C)(C)C(F)(F)F)nc(CNCCCCC[101CH2:1][101O:1]c2ccc3c(c2)CN(C(=O)C(NC(=O)C(C)NC)C(C)(C)C)C(C(=O)NC2CCCc4ccccc42)C3)c(C)c1C[100NH:0][100C:0](=O)N1CCCC(n2nc(-c3ccc(Oc4ccc(F)cc4F)cc3)c(C(N)=O)c2N)C1

> <Shape>
0.287

> <Color>
0.059

> <Negative vol penalty>
0.000

$$$$

  -OEChem-04052316223D

 93101  0     1  0  0  0  0  0999 V2000
  -18.5190  -24.7824   22.2658 C   0  0  0  0  0  0  0  0  0  0  0  0
  -19.6877  -24.9343   21.5265 C   0  0  0  0  0  0  0  0  0  0  0  0
  -31.2441  -10.6448   18.3754 C   0  0  0  0  0  0  0  0  0  0  0  0
  -30.6007  -12.0923   16.5511 C   0  0  0  0  0  0  0  0  0  0  0  0
  -17.8803  -25.9027   22.7958 C   0  0  0  0  0  0  0  0  0  0  0  0
  -20.2178  -26.2067   21.3160 C   0  0  0  0  0  0  0  0  0  0  0  0
  -25.2292  -26.3656   22.0268 C   0  0  0  0  0  0  0  0  0  0  0  0
  -32.0356   -9.8975   17.5033 C   0  0  0  0  0  0  0  0  0  0  0  0
  -31.3922  -11.3449   15.6790 C   0  0  0  0  0  0  0  0  0  0  0  0
  -26.0337  -25.8688   21.0022 C   0  0  0  0  0  0  0  0  0  0  0  0
  -34.6702  -11.0782   14.9014 C   0  0  0  0  0  0  0  0  0  0  0  0
  -35.4859  -11.7753   14.0103 C   0  0  0  0  0  0  0  0  0  0  0  0
  -26.4428  -28.1206   20.2397 C   0  0  0  0  0  0  0  0  0  0  0  0
  -29.7346  -19.2365   17.5331 C   0  0  0  0  0  0  0  0  0  0  0  0
  -34.3448  -10.7352   12.1520 C   0  0  0  0  0  0  0  0  0  0  0  0
  -30.5266  -11.7422   17.8993 C   0  0  0  0  0  0  0  0  0  0  0  0
  -27.1310  -18.8135   18.4416 C   0  0  0  0  0  0  0  0  0  0  0  0
  -30.0997  -13.6375   19.5525 C   0  0  0  0  0  0  0  0  0  0  0  0
  -18.4080  -27.1887   22.5998 C   0  0  0  0  0  0  0  0  0  0  0  0
  -25.0163  -27.7453   22.1592 C   0  0  0  0  0  0  0  0  0  0  0  0
  -19.5848  -27.3454   21.8427 C   0  0  0  0  0  0  0  0  0  0  0  0
  -25.6372  -28.6325   21.2684 C   0  0  0  0  0  0  0  0  0  0  0  0
  -29.0122  -18.1291   17.0888 C   0  0  0  0  0  0  0  0  0  0  0  0
  -29.1553  -20.1324   18.4317 C   0  0  0  0  0  0  0  0  0  0  0  0
  -27.7104  -17.9176   17.5430 C   0  0  0  0  0  0  0  0  0  0  0  0
  -27.8535  -19.9209   18.8859 C   0  0  0  0  0  0  0  0  0  0  0  0
  -32.1097  -10.2475   16.1551 C   0  0  0  0  0  0  0  0  0  0  0  0
  -26.6383  -26.7461   20.1068 C   0  0  0  0  0  0  0  0  0  0  0  0
  -33.6918  -10.2095   14.4179 C   0  0  0  0  0  0  0  0  0  0  0  0
  -35.3232  -11.6039   12.6356 C   0  0  0  0  0  0  0  0  0  0  0  0
  -33.5291  -10.0380   13.0432 C   0  0  0  0  0  0  0  0  0  0  0  0
  -29.7084  -12.5143   18.7996 C   0  0  0  0  0  0  0  0  0  0  0  0
  -28.9676  -14.0017   20.2396 C   0  0  0  0  0  0  0  0  0  0  0  0
  -25.7685  -18.5931   18.9169 C   0  0  0  0  0  0  0  0  0  0  0  0
  -31.3727  -14.2932   19.6243 C   0  0  0  0  0  0  0  0  0  0  0  0
  -22.4710  -29.6449   22.0290 C   0  0  0  0  0  0  0  0  0  0  0  0
  -24.6030  -31.9142   22.9385 C   0  0  0  0  0  0  0  0  0  0  0  0
  -27.8513  -32.9534   23.0645 C   0  0  0  0  0  0  0  0  0  0  0  0
  -23.1277  -13.1846   19.2009 C   0  0  0  0  0  0  0  0  0  0  0  0
  -17.6564  -28.3738   23.1522 C   0  0  0  0  0  0  0  0  0  0  0  0
  -24.1673  -28.2669   23.2859 C   0  0  0  0  0  0  0  0  0  0  0  0
  -25.4569  -30.1237   21.3796 C   0  0  0  0  0  0  0  0  0  0  0  0
  -18.4874  -29.6535   23.2004 C   0  0  0  0  0  0  0  0  0  0  0  0
  -24.9527  -12.1647   22.0829 C   0  0  0  0  0  0  0  0  0  0  0  0
  -19.2283  -29.8588   21.8830 C   0  0  0  0  0  0  0  0  0  0  0  0
  -26.4138  -12.2400   21.6361 C   0  0  0  0  0  0  0  0  0  0  0  0
  -24.0409  -11.6908   20.9533 C   0  0  0  0  0  0  0  0  0  0  0  0
  -25.6130  -12.5390   19.2554 C   0  0  0  0  0  0  0  0  0  0  0  0
  -20.2042  -28.7070   21.6136 C   0  0  1  0  0  0  0  0  0  0  0  0
  -23.6046  -29.6588   23.0152 C   0  0  1  0  0  0  0  0  0  0  0  0
  -26.5633  -13.0658   20.3442 C   0  0  2  0  0  0  0  0  0  0  0  0
  -29.6567  -17.1854   16.1267 C   0  0  0  0  0  0  0  0  0  0  0  0
  -26.9396  -16.7279   17.0626 C   0  0  0  0  0  0  0  0  0  0  0  0
  -27.2388  -20.8867   19.8499 C   0  0  0  0  0  0  0  0  0  0  0  0
  -29.2784  -34.8683   23.8349 C   0  0  0  0  0  0  0  0  0  0  0  0
  -31.5753  -23.8719   17.9745 C   0  0  0  0  0  0  0  0  0  0  0  0
  -23.6827  -33.5616   20.5408 C   0  0  0  0  0  0  0  0  0  0  0  0
  -25.7402  -34.9638   20.8028 C   0  0  0  0  0  0  0  0  0  0  0  0
  -24.0484  -34.8803   22.6340 C   0  0  0  0  0  0  0  0  0  0  0  0
  -29.3617  -31.2268   24.9344 C   0  0  0  0  0  0  0  0  0  0  0  0
  -29.9538  -21.3155   18.8939 C   0  0  0  0  0  0  0  0  0  0  0  0
  -24.5838  -19.1962   18.1447 C   0  0  0  0  0  0  0  0  0  0  0  0
  -23.2979  -18.3775   18.2743 C   0  0  0  0  0  0  0  0  0  0  0  0
  -23.4969  -16.9452   17.7755 C   0  0  0  0  0  0  0  0  0  0  0  0
  -22.2171  -16.1193   17.9344 C   0  0  0  0  0  0  0  0  0  0  0  0
  -29.4110  -25.0432   18.5441 C   0  0  0  0  0  0  0  0  0  0  0  0
  -22.3654  -14.7017   17.3908 C   0  0  0  0  0  0  0  0  0  0  0  0
  -28.1210  -25.0446   19.3570 C   0  0  0  0  0  0  0  0  0  1  0  0
  -25.5219  -32.8690   22.2153 C   0  0  1  0  0  0  0  0  0  0  0  0
  -28.6853  -33.5167   24.2009 C   0  0  2  0  0  0  0  0  0  0  0  0
  -30.2644  -23.7894   18.7453 C   0  0  1  0  0  0  0  0  0  0  0  0
  -24.7503  -34.0405   21.5447 C   0  0  0  0  0  0  0  0  0  0  0  0
  -28.4277  -12.1863   18.9904 N   0  0  0  0  0  0  0  0  0  0  0  0
  -28.0046  -13.1090   19.8711 N   0  0  0  0  0  0  0  0  0  0  0  0
  -24.6125  -30.5844   22.4941 N   0  0  0  0  0  0  0  0  0  0  0  0
  -24.2303  -12.5163   19.7580 N   0  0  0  0  0  0  0  0  0  0  0  0
  -28.7119  -14.9952   21.1171 N   0  0  0  0  0  0  0  0  0  0  0  0
  -32.4285  -13.7889   18.8527 N   0  0  0  0  0  0  0  0  0  0  0  0
  -21.4004  -28.8604   22.4136 N   0  0  0  0  0  0  0  0  0  0  0  0
  -26.5207  -33.2922   23.1908 N   0  0  0  0  0  0  0  0  0  0  0  0
  -23.3956  -13.9506   18.0730 N   0  0  0  0  0  0  0  0  0  0  0  0
  -29.8022  -32.5878   24.5335 N   0  3  0  0  0  0  0  0  0  0  0  0
  -29.5234  -22.5905   18.2636 N   0  3  0  0  0  0  0  0  0  0  0  0
  -25.5572  -17.9206   19.9435 O   0  0  0  0  0  0  0  0  0  0  0  0
  -31.5727  -15.2867   20.3636 O   0  0  0  0  0  0  0  0  0  0  0  0
  -22.5605  -30.2987   20.9964 O   0  0  0  0  0  0  0  0  0  0  0  0
  -23.9080  -32.3313   23.8683 O   0  0  0  0  0  0  0  0  0  0  0  0
  -28.3327  -32.2832   22.1536 O   0  0  0  0  0  0  0  0  0  0  0  0
  -21.9898  -13.1090   19.6768 O   0  0  0  0  0  0  0  0  0  0  0  0
  -32.8822   -9.5186   15.3038 O   0  0  0  0  0  0  0  0  0  0  0  0
  -27.4235  -26.2638   19.1054 O   0  0  0  0  0  0  0  0  0  1  0  0
  -36.1057  -12.2746   11.7800 F   0  0  0  0  0  0  0  0  0  0  0  0
  -32.5901   -9.2057   12.5726 F   0  0  0  0  0  0  0  0  0  0  0  0
  1  2  1  0  0  0  0
  1  5  2  0  0  0  0
  2  6  2  0  0  0  0
  3  8  2  0  0  0  0
  3 16  1  0  0  0  0
  4  9  1  0  0  0  0
  4 16  2  0  0  0  0
  5 19  1  0  0  0  0
  6 21  1  0  0  0  0
  7 10  2  0  0  0  0
  7 20  1  0  0  0  0
  8 27  1  0  0  0  0
  9 27  2  0  0  0  0
 10 28  1  0  0  0  0
 11 12  2  0  0  0  0
 11 29  1  0  0  0  0
 12 30  1  0  0  0  0
 13 22  1  0  0  0  0
 13 28  2  0  0  0  0
 14 23  2  0  0  0  0
 14 24  1  0  0  0  0
 15 30  2  0  0  0  0
 15 31  1  0  0  0  0
 16 32  1  0  0  0  0
 17 25  2  0  0  0  0
 17 26  1  0  0  0  0
 17 34  1  0  0  0  0
 18 32  1  0  0  0  0
 18 33  2  0  0  0  0
 18 35  1  0  0  0  0
 19 21  2  0  0  0  0
 19 40  1  0  0  0  0
 20 22  2  0  0  0  0
 20 41  1  0  0  0  0
 21 49  1  0  0  0  0
 22 42  1  0  0  0  0
 23 25  1  0  0  0  0
 23 52  1  0  0  0  0
 24 26  2  0  0  0  0
 24 61  1  0  0  0  0
 25 53  1  0  0  0  0
 26 54  1  0  0  0  0
 27 90  1  0  0  0  0
 28 91  1  0  0  0  0
 29 31  2  0  0  0  0
 29 90  1  0  0  0  0
 30 92  1  0  0  0  0
 31 93  1  0  0  0  0
 32 73  2  0  0  0  0
 33 74  1  0  0  0  0
 33 77  1  0  0  0  0
 34 62  1  0  0  0  0
 34 84  2  0  0  0  0
 35 78  1  0  0  0  0
 35 85  2  0  0  0  0
 36 50  1  0  0  0  0
 36 79  1  0  0  0  0
 36 86  2  0  0  0  0
 37 69  1  0  0  0  0
 37 75  1  0  0  0  0
 37 87  2  0  0  0  0
 38 70  1  0  0  0  0
 38 80  1  0  0  0  0
 38 88  2  0  0  0  0
 39 76  1  0  0  0  0
 39 81  1  0  0  0  0
 39 89  2  0  0  0  0
 40 43  1  0  0  0  0
 41 50  1  0  0  0  0
 42 75  1  0  0  0  0
 43 45  1  0  0  0  0
 44 46  1  0  0  0  0
 44 47  1  0  0  0  0
 45 49  1  0  0  0  0
 46 51  1  0  0  0  0
 47 76  1  0  0  0  0
 48 51  1  0  0  0  0
 48 76  1  0  0  0  0
 49 79  1  0  0  0  0
 50 75  1  0  0  0  0
 51 74  1  0  0  0  0
 55 70  1  0  0  0  0
 56 71  1  0  0  0  0
 57 72  1  0  0  0  0
 58 72  1  0  0  0  0
 59 72  1  0  0  0  0
 60 82  1  0  0  0  0
 61 83  1  0  0  0  0
 62 63  1  0  0  0  0
 63 64  1  0  0  0  0
 64 65  1  0  0  0  0
 65 67  1  0  0  0  0
 66 68  1  0  0  0  0
 66 71  1  0  0  0  0
 67 81  1  0  0  0  0
 68 91  1  0  0  0  0
 69 72  1  0  0  0  0
 69 80  1  0  0  0  0
 70 82  1  0  0  0  0
 71 83  1  0  0  0  0
 73 74  1  0  0  0  0
M  CHG  2  82   1  83   1
M  ISO  4  39 100  68 101  81 100  91 101
M  END
> <Batch ID>
0024

> <Smiles>
CNC(C)C(=O)NC(C(=O)N1Cc2cc([101O:1][101CH2:1]CC(C)NCc3cc(C)c(C)c(C(=O)CCCCC[100NH:0][100C:0](=O)N4CCCC(n5nc(-c6ccc(Oc7ccc(F)cc7F)cc6)c(C(N)=O)c5N)C4)c3C)ccc2CC1C(=O)NC1CCCc2ccccc21)C(C)(C)C

> <Shape>
0.273

> <Color>
0.094

> <Negative vol penalty>
0.000

$$$$

  -OEChem-04052316223D

 89 97  0     1  0  0  0  0  0999 V2000
  -28.1986  -30.4105   28.3292 C   0  0  0  0  0  0  0  0  0  0  0  0
  -27.9081  -29.3939   27.4250 C   0  0  0  0  0  0  0  0  0  0  0  0
  -23.0187  -10.2251   20.5867 C   0  0  0  0  0  0  0  0  0  0  0  0
  -24.5085   -9.0807   22.1059 C   0  0  0  0  0  0  0  0  0  0  0  0
  -27.3792  -31.5365   28.3972 C   0  0  0  0  0  0  0  0  0  0  0  0
  -26.7973  -29.5022   26.5891 C   0  0  0  0  0  0  0  0  0  0  0  0
  -26.3068  -27.4622   20.8355 C   0  0  0  0  0  0  0  0  0  0  0  0
  -22.1979   -9.0983   20.5427 C   0  0  0  0  0  0  0  0  0  0  0  0
  -23.6876   -7.9538   22.0619 C   0  0  0  0  0  0  0  0  0  0  0  0
  -25.7393  -26.3095   20.2942 C   0  0  0  0  0  0  0  0  0  0  0  0
  -20.7756   -6.9400   23.4450 C   0  0  0  0  0  0  0  0  0  0  0  0
  -20.4762   -6.3106   24.6532 C   0  0  0  0  0  0  0  0  0  0  0  0
  -23.7078  -27.5292   19.8421 C   0  0  0  0  0  0  0  0  0  0  0  0
  -26.7745  -16.7951   19.0554 C   0  0  0  0  0  0  0  0  0  0  0  0
  -21.4942   -4.2742   23.8446 C   0  0  0  0  0  0  0  0  0  0  0  0
  -24.1741  -10.2164   21.3683 C   0  0  0  0  0  0  0  0  0  0  0  0
  -24.9367  -12.4602   22.3121 C   0  0  0  0  0  0  0  0  0  0  0  0
  -26.2634  -31.6632   27.5549 C   0  0  0  0  0  0  0  0  0  0  0  0
  -25.5739  -28.6563   20.8942 C   0  0  0  0  0  0  0  0  0  0  0  0
  -25.9615  -30.6304   26.6468 C   0  0  0  0  0  0  0  0  0  0  0  0
  -24.2691  -28.6963   20.3823 C   0  0  0  0  0  0  0  0  0  0  0  0
  -25.3984  -16.5774   19.1209 C   0  0  0  0  0  0  0  0  0  0  0  0
  -24.7876  -15.7004   18.2246 C   0  0  0  0  0  0  0  0  0  0  0  0
  -26.9292  -15.2589   17.1971 C   0  0  0  0  0  0  0  0  0  0  0  0
  -22.5323   -7.9626   21.2803 C   0  0  0  0  0  0  0  0  0  0  0  0
  -24.4386  -26.3421   19.8000 C   0  0  0  0  0  0  0  0  0  0  0  0
  -21.4342   -6.2364   22.4365 C   0  0  0  0  0  0  0  0  0  0  0  0
  -20.8356   -4.9777   24.8530 C   0  0  0  0  0  0  0  0  0  0  0  0
  -21.7935   -4.9035   22.6363 C   0  0  0  0  0  0  0  0  0  0  0  0
  -27.5400  -16.1359   18.0935 C   0  0  0  0  0  0  0  0  0  0  0  0
  -25.5530  -15.0411   17.2626 C   0  0  0  0  0  0  0  0  0  0  0  0
  -25.0227  -11.3799   21.4137 C   0  0  0  0  0  0  0  0  0  0  0  0
  -25.9601  -13.2978   21.9410 C   0  0  0  0  0  0  0  0  0  0  0  0
  -24.0144  -12.6864   23.3863 C   0  0  0  0  0  0  0  0  0  0  0  0
  -24.5439  -30.5432   23.2357 C   0  0  0  0  0  0  0  0  0  0  0  0
  -23.6318  -32.4473   20.7730 C   0  0  0  0  0  0  0  0  0  0  0  0
  -22.7643  -32.7122   17.4830 C   0  0  0  0  0  0  0  0  0  0  0  0
  -28.7867  -13.7125   16.5269 C   0  0  0  0  0  0  0  0  0  0  0  0
  -25.3800  -32.8772   27.6979 C   0  0  0  0  0  0  0  0  0  0  0  0
  -26.2098  -29.8979   21.4568 C   0  0  0  0  0  0  0  0  0  0  0  0
  -23.4473  -29.9583   20.4034 C   0  0  0  0  0  0  0  0  0  0  0  0
  -24.4364  -33.0864   26.5163 C   0  0  0  0  0  0  0  0  0  0  0  0
  -30.2767  -13.2933   19.8880 C   0  0  0  0  0  0  0  0  0  0  0  0
  -23.7528  -31.7755   26.1405 C   0  0  0  0  0  0  0  0  0  0  0  0
  -29.1057  -12.7656   20.7149 C   0  0  0  0  0  0  0  0  0  0  0  0
  -30.1565  -12.8983   18.4193 C   0  0  0  0  0  0  0  0  0  0  0  0
  -27.6894  -12.7836   18.6231 C   0  0  0  0  0  0  0  0  0  0  0  0
  -24.7796  -30.7227   25.7061 C   0  0  1  0  0  0  0  0  0  0  0  0
  -25.1904  -30.9273   21.9348 C   0  0  1  0  0  0  0  0  0  0  0  0
  -27.7663  -13.2025   20.0989 C   0  0  1  0  0  0  0  0  0  0  0  0
  -23.3083  -15.4834   18.3135 C   0  0  0  0  0  0  0  0  0  0  0  0
  -22.0336  -34.3916   15.7675 C   0  0  0  0  0  0  0  0  0  0  0  0
  -21.7292  -18.2566   20.8879 C   0  0  0  0  0  0  0  0  0  0  0  0
  -20.8350  -32.4725   21.9925 C   0  0  0  0  0  0  0  0  0  0  0  0
  -19.9652  -33.3286   19.8065 C   0  0  0  0  0  0  0  0  0  0  0  0
  -21.6077  -34.6808   21.1089 C   0  0  0  0  0  0  0  0  0  0  0  0
  -27.5942  -15.0055   14.8130 C   0  0  0  0  0  0  0  0  0  0  0  0
  -25.1416  -32.1973   15.7971 C   0  0  0  0  0  0  0  0  0  0  0  0
  -24.5997  -17.3006   20.1649 C   0  0  0  0  0  0  0  0  0  0  0  0
  -23.6679  -21.5562   20.2455 C   0  0  0  0  0  0  0  0  0  0  0  0
  -23.2249  -22.9136   19.6891 C   0  0  0  0  0  0  0  0  0  0  0  0
  -22.5588  -20.5088   20.0953 C   0  0  0  0  0  0  0  0  0  0  0  0
  -24.3223  -23.9668   19.7973 C   0  0  0  0  0  0  0  0  0  1  0  0
  -22.3859  -32.5832   19.9314 C   0  0  1  0  0  0  0  0  0  0  0  0
  -23.2160  -33.6710   16.3962 C   0  0  2  0  0  0  0  0  0  0  0  0
  -22.9526  -19.1228   20.6180 C   0  0  2  0  0  0  0  0  0  0  0  0
  -21.2130  -33.2419   20.7111 C   0  0  0  0  0  0  0  0  0  0  0  0
  -26.0217  -11.5161   20.5375 N   0  0  0  0  0  0  0  0  0  0  0  0
  -26.5727  -12.6920   20.8837 N   0  0  0  0  0  0  0  0  0  0  0  0
  -24.1110  -31.1444   20.9694 N   0  0  0  0  0  0  0  0  0  0  0  0
  -28.8537  -13.2668   17.8630 N   0  0  0  0  0  0  0  0  0  0  0  0
  -26.3866  -14.4861   22.4190 N   0  0  0  0  0  0  0  0  0  0  0  0
  -23.0248  -11.7245   23.6309 N   0  0  0  0  0  0  0  0  0  0  0  0
  -25.2272  -30.9807   24.3543 N   0  0  0  0  0  0  0  0  0  0  0  0
  -22.7833  -33.3053   18.7276 N   0  0  0  0  0  0  0  0  0  0  0  0
  -27.7251  -14.5792   16.2045 N   0  0  0  0  0  0  0  0  0  0  0  0
  -23.9414  -32.9335   15.3234 N   0  3  0  0  0  0  0  0  0  0  0  0
  -23.7968  -18.4215   19.6110 N   0  3  0  0  0  0  0  0  0  0  0  0
  -24.0560  -13.7190   24.0974 O   0  0  0  0  0  0  0  0  0  0  0  0
  -23.5015  -29.8990   23.2253 O   0  0  0  0  0  0  0  0  0  0  0  0
  -24.1643  -33.4604   21.2331 O   0  0  0  0  0  0  0  0  0  0  0  0
  -22.4247  -31.5541   17.2505 O   0  0  0  0  0  0  0  0  0  0  0  0
  -29.5847  -13.3216   15.6660 O   0  0  0  0  0  0  0  0  0  0  0  0
  -21.7314   -6.8629   21.2378 O   0  0  0  0  0  0  0  0  0  0  0  0
  -23.8821  -25.2183   19.2717 O   0  0  0  0  0  0  0  0  0  1  0  0
  -20.5494   -4.3739   26.0140 F   0  0  0  0  0  0  0  0  0  0  0  0
  -22.4275   -4.2228   21.6717 F   0  0  0  0  0  0  0  0  0  0  0  0
  -29.2412  -16.4393   18.0529 Cl  0  0  0  0  0  0  0  0  0  0  0  0
  -24.7851  -13.9518   16.1510 Cl  0  0  0  0  0  0  0  0  0  0  0  0
  1  2  1  0  0  0  0
  1  5  2  0  0  0  0
  2  6  2  0  0  0  0
  3  8  2  0  0  0  0
  3 16  1  0  0  0  0
  4  9  1  0  0  0  0
  4 16  2  0  0  0  0
  5 18  1  0  0  0  0
  6 20  1  0  0  0  0
  7 10  2  0  0  0  0
  7 19  1  0  0  0  0
  8 25  1  0  0  0  0
  9 25  2  0  0  0  0
 10 26  1  0  0  0  0
 11 12  2  0  0  0  0
 11 27  1  0  0  0  0
 12 28  1  0  0  0  0
 13 21  1  0  0  0  0
 13 26  2  0  0  0  0
 14 22  1  0  0  0  0
 14 30  2  0  0  0  0
 15 28  2  0  0  0  0
 15 29  1  0  0  0  0
 16 32  1  0  0  0  0
 17 32  1  0  0  0  0
 17 33  2  0  0  0  0
 17 34  1  0  0  0  0
 18 20  2  0  0  0  0
 18 39  1  0  0  0  0
 19 21  2  0  0  0  0
 19 40  1  0  0  0  0
 20 48  1  0  0  0  0
 21 41  1  0  0  0  0
 22 23  2  0  0  0  0
 22 59  1  0  0  0  0
 23 31  1  0  0  0  0
 23 51  1  0  0  0  0
 24 30  1  0  0  0  0
 24 31  2  0  0  0  0
 24 76  1  0  0  0  0
 25 84  1  0  0  0  0
 26 85  1  0  0  0  0
 27 29  2  0  0  0  0
 27 84  1  0  0  0  0
 28 86  1  0  0  0  0
 29 87  1  0  0  0  0
 30 88  1  0  0  0  0
 31 89  1  0  0  0  0
 32 68  2  0  0  0  0
 33 69  1  0  0  0  0
 33 72  1  0  0  0  0
 34 73  1  0  0  0  0
 34 79  2  0  0  0  0
 35 49  1  0  0  0  0
 35 74  1  0  0  0  0
 35 80  2  0  0  0  0
 36 64  1  0  0  0  0
 36 70  1  0  0  0  0
 36 81  2  0  0  0  0
 37 65  1  0  0  0  0
 37 75  1  0  0  0  0
 37 82  2  0  0  0  0
 38 71  1  0  0  0  0
 38 76  1  0  0  0  0
 38 83  2  0  0  0  0
 39 42  1  0  0  0  0
 40 49  1  0  0  0  0
 41 70  1  0  0  0  0
 42 44  1  0  0  0  0
 43 45  1  0  0  0  0
 43 46  1  0  0  0  0
 44 48  1  0  0  0  0
 45 50  1  0  0  0  0
 46 71  1  0  0  0  0
 47 50  1  0  0  0  0
 47 71  1  0  0  0  0
 48 74  1  0  0  0  0
 49 70  1  0  0  0  0
 50 69  1  0  0  0  0
 52 65  1  0  0  0  0
 53 66  1  0  0  0  0
 54 67  1  0  0  0  0
 55 67  1  0  0  0  0
 56 67  1  0  0  0  0
 57 76  1  0  0  0  0
 58 77  1  0  0  0  0
 59 78  1  0  0  0  0
 60 61  1  0  0  0  0
 60 62  1  0  0  0  0
 61 63  1  0  0  0  0
 62 66  1  0  0  0  0
 63 85  1  0  0  0  0
 64 67  1  0  0  0  0
 64 75  1  0  0  0  0
 65 77  1  0  0  0  0
 66 78  1  0  0  0  0
 68 69  1  0  0  0  0
M  CHG  2  77   1  78   1
M  ISO  4  38 100  63 101  76 100  85 101
M  END
> <Batch ID>
0024

> <Smiles>
CNC(C)C(=O)NC(C(=O)N1Cc2cc([101O:1][101CH2:1]CCCC(C)NCc3cc(Cl)c([100N:0](C)[100C:0](=O)N4CCCC(n5nc(-c6ccc(Oc7ccc(F)cc7F)cc6)c(C(N)=O)c5N)C4)c(Cl)c3C)ccc2CC1C(=O)NC1CCCc2ccccc21)C(C)(C)C

> <Shape>
0.241

> <Color>
0.127

> <Negative vol penalty>
0.000

$$$$

  -OEChem-04052316223D

 83 91  0     1  0  0  0  0  0999 V2000
  -35.3485  -34.3316   26.9753 C   0  0  0  0  0  0  0  0  0  0  0  0
  -35.8198  -33.0674   26.6361 C   0  0  0  0  0  0  0  0  0  0  0  0
  -22.9687   -9.9295   19.9530 C   0  0  0  0  0  0  0  0  0  0  0  0
  -23.7442   -9.8701   22.2404 C   0  0  0  0  0  0  0  0  0  0  0  0
  -33.9761  -34.5666   27.0466 C   0  0  0  0  0  0  0  0  0  0  0  0
  -34.9189  -32.0371   26.3692 C   0  0  0  0  0  0  0  0  0  0  0  0
  -34.1686  -26.1928   22.2952 C   0  0  0  0  0  0  0  0  0  0  0  0
  -22.1924   -8.7944   20.1867 C   0  0  0  0  0  0  0  0  0  0  0  0
  -22.9679   -8.7350   22.4741 C   0  0  0  0  0  0  0  0  0  0  0  0
  -33.8624  -24.8369   22.4028 C   0  0  0  0  0  0  0  0  0  0  0  0
  -23.1555   -5.4171   21.8520 C   0  0  0  0  0  0  0  0  0  0  0  0
  -23.7450   -4.3604   22.5459 C   0  0  0  0  0  0  0  0  0  0  0  0
  -31.5132  -25.3797   22.4793 C   0  0  0  0  0  0  0  0  0  0  0  0
  -30.6963  -18.1000   24.1637 C   0  0  0  0  0  0  0  0  0  0  0  0
  -32.1727  -16.3253   22.5975 C   0  0  0  0  0  0  0  0  0  0  0  0
  -22.0613   -4.5520   24.2680 C   0  0  0  0  0  0  0  0  0  0  0  0
  -23.7446  -10.4673   20.9798 C   0  0  0  0  0  0  0  0  0  0  0  0
  -24.1610  -12.9830   20.9049 C   0  0  0  0  0  0  0  0  0  0  0  0
  -33.0578  -33.5412   26.7710 C   0  0  0  0  0  0  0  0  0  0  0  0
  -33.1482  -27.1547   22.2898 C   0  0  0  0  0  0  0  0  0  0  0  0
  -33.5329  -32.2583   26.4382 C   0  0  0  0  0  0  0  0  0  0  0  0
  -31.8089  -26.7470   22.3689 C   0  0  0  0  0  0  0  0  0  0  0  0
  -32.0846  -18.0493   24.2877 C   0  0  0  0  0  0  0  0  0  0  0  0
  -30.7843  -16.3759   22.4734 C   0  0  0  0  0  0  0  0  0  0  0  0
  -22.1920   -8.1972   21.4472 C   0  0  0  0  0  0  0  0  0  0  0  0
  -32.5347  -24.4304   22.4977 C   0  0  0  0  0  0  0  0  0  0  0  0
  -22.0190   -6.0413   22.3662 C   0  0  0  0  0  0  0  0  0  0  0  0
  -23.1979   -3.9278   23.7539 C   0  0  0  0  0  0  0  0  0  0  0  0
  -21.4719   -5.6087   23.5741 C   0  0  0  0  0  0  0  0  0  0  0  0
  -30.0461  -17.2633   23.2565 C   0  0  0  0  0  0  0  0  0  0  0  0
  -32.8229  -17.1620   23.5046 C   0  0  0  0  0  0  0  0  0  0  0  0
  -24.5472  -11.6395   20.7389 C   0  0  0  0  0  0  0  0  0  0  0  0
  -25.2725  -13.7064   20.5477 C   0  0  0  0  0  0  0  0  0  0  0  0
  -22.9094  -13.5283   21.3429 C   0  0  0  0  0  0  0  0  0  0  0  0
  -32.3525  -29.5914   24.1694 C   0  0  0  0  0  0  0  0  0  0  0  0
  -30.1564  -30.1570   21.8501 C   0  0  0  0  0  0  0  0  0  0  0  0
  -28.2683  -28.9286   19.2863 C   0  0  0  0  0  0  0  0  0  0  0  0
  -30.7686  -14.5854   20.7014 C   0  0  0  0  0  0  0  0  0  0  0  0
  -31.5839  -33.8307   26.9071 C   0  0  0  0  0  0  0  0  0  0  0  0
  -33.4937  -28.6115   22.1461 C   0  0  0  0  0  0  0  0  0  0  0  0
  -30.6755  -27.7386   22.3471 C   0  0  0  0  0  0  0  0  0  0  0  0
  -30.6936  -32.7831   26.2437 C   0  0  0  0  0  0  0  0  0  0  0  0
  -29.5663  -12.2514   18.2964 C   0  0  0  0  0  0  0  0  0  0  0  0
  -31.1581  -31.3775   26.6118 C   0  0  0  0  0  0  0  0  0  0  0  0
  -28.1215  -11.9947   18.7311 C   0  0  0  0  0  0  0  0  0  0  0  0
  -30.4960  -12.4299   19.4953 C   0  0  0  0  0  0  0  0  0  0  0  0
  -28.6211  -13.1843   20.9041 C   0  0  0  0  0  0  0  0  0  0  0  0
  -32.5869  -31.1215   26.1174 C   0  0  1  0  0  0  0  0  0  0  0  0
  -32.4009  -29.5391   22.6686 C   0  0  1  0  0  0  0  0  0  0  0  0
  -27.6355  -13.0626   19.7305 C   0  0  2  0  0  0  0  0  0  0  0  0
  -26.5399  -29.6225   17.6045 C   0  0  0  0  0  0  0  0  0  0  0  0
  -28.0287  -30.1489   24.0370 C   0  0  0  0  0  0  0  0  0  0  0  0
  -26.2934  -29.8900   22.2510 C   0  0  0  0  0  0  0  0  0  0  0  0
  -27.7344  -31.9256   22.3018 C   0  0  0  0  0  0  0  0  0  0  0  0
  -30.0327  -28.2341   17.0140 C   0  0  0  0  0  0  0  0  0  0  0  0
  -32.7492  -18.9707   25.2793 C   0  0  0  0  0  0  0  0  0  0  0  0
  -33.4399  -20.1783   24.6359 C   0  0  0  0  0  0  0  0  0  0  0  0
  -32.4667  -21.1074   23.9089 C   0  0  0  0  0  0  0  0  0  0  0  0
  -33.1928  -22.2723   23.2498 C   0  0  0  0  0  0  0  0  0  1  0  0
  -28.7361  -29.7154   21.5921 C   0  0  1  0  0  0  0  0  0  0  0  0
  -28.0248  -29.4422   17.8787 C   0  0  2  0  0  0  0  0  0  0  0  0
  -27.7194  -30.4012   22.5479 C   0  0  0  0  0  0  0  0  0  0  0  0
  -25.8057  -11.5140   20.3095 N   0  0  0  0  0  0  0  0  0  0  0  0
  -26.2199  -12.7880   20.2026 N   0  0  0  0  0  0  0  0  0  0  0  0
  -31.0647  -29.1519   22.2115 N   0  0  0  0  0  0  0  0  0  0  0  0
  -29.9742  -13.4600   20.3961 N   0  0  0  0  0  0  0  0  0  0  0  0
  -25.5221  -15.0322   20.4983 N   0  0  0  0  0  0  0  0  0  0  0  0
  -21.8731  -12.6434   21.6705 N   0  0  0  0  0  0  0  0  0  0  0  0
  -30.1548  -15.5135   21.5419 N   0  0  0  0  0  0  0  0  0  0  0  0
  -32.5885  -30.8468   24.6965 N   0  0  0  0  0  0  0  0  0  0  0  0
  -28.4835  -29.9597   20.1761 N   0  0  0  0  0  0  0  0  0  0  0  0
  -28.5752  -28.4866   16.8762 N   0  3  0  0  0  0  0  0  0  0  0  0
  -22.7104  -14.7641   21.4252 O   0  0  0  0  0  0  0  0  0  0  0  0
  -32.1171  -28.5688   24.8024 O   0  0  0  0  0  0  0  0  0  0  0  0
  -30.4508  -31.3487   21.7282 O   0  0  0  0  0  0  0  0  0  0  0  0
  -28.2641  -27.7325   19.5690 O   0  0  0  0  0  0  0  0  0  0  0  0
  -31.8990  -14.7293   20.2287 O   0  0  0  0  0  0  0  0  0  0  0  0
  -21.4344   -7.0898   21.6757 O   0  0  0  0  0  0  0  0  0  0  0  0
  -32.2331  -23.1076   22.6035 O   0  0  0  0  0  0  0  0  0  1  0  0
  -23.7632   -2.9121   24.4193 F   0  0  0  0  0  0  0  0  0  0  0  0
  -20.3794   -6.2037   24.0725 F   0  0  0  0  0  0  0  0  0  0  0  0
  -28.3254  -17.3578   23.1349 Cl  0  0  0  0  0  0  0  0  0  0  0  0
  -34.5420  -17.0712   23.6323 Cl  0  0  0  0  0  0  0  0  0  0  0  0
  1  2  1  0  0  0  0
  1  5  2  0  0  0  0
  2  6  2  0  0  0  0
  3  8  2  0  0  0  0
  3 17  1  0  0  0  0
  4  9  1  0  0  0  0
  4 17  2  0  0  0  0
  5 19  1  0  0  0  0
  6 21  1  0  0  0  0
  7 10  2  0  0  0  0
  7 20  1  0  0  0  0
  8 25  1  0  0  0  0
  9 25  2  0  0  0  0
 10 26  1  0  0  0  0
 11 12  2  0  0  0  0
 11 27  1  0  0  0  0
 12 28  1  0  0  0  0
 13 22  1  0  0  0  0
 13 26  2  0  0  0  0
 14 23  1  0  0  0  0
 14 30  2  0  0  0  0
 15 24  2  0  0  0  0
 15 31  1  0  0  0  0
 16 28  2  0  0  0  0
 16 29  1  0  0  0  0
 17 32  1  0  0  0  0
 18 32  1  0  0  0  0
 18 33  2  0  0  0  0
 18 34  1  0  0  0  0
 19 21  2  0  0  0  0
 19 39  1  0  0  0  0
 20 22  2  0  0  0  0
 20 40  1  0  0  0  0
 21 48  1  0  0  0  0
 22 41  1  0  0  0  0
 23 31  2  0  0  0  0
 23 56  1  0  0  0  0
 24 30  1  0  0  0  0
 24 69  1  0  0  0  0
 25 78  1  0  0  0  0
 26 79  1  0  0  0  0
 27 29  2  0  0  0  0
 27 78  1  0  0  0  0
 28 80  1  0  0  0  0
 29 81  1  0  0  0  0
 30 82  1  0  0  0  0
 31 83  1  0  0  0  0
 32 63  2  0  0  0  0
 33 64  1  0  0  0  0
 33 67  1  0  0  0  0
 34 68  1  0  0  0  0
 34 73  2  0  0  0  0
 35 49  1  0  0  0  0
 35 70  1  0  0  0  0
 35 74  2  0  0  0  0
 36 60  1  0  0  0  0
 36 65  1  0  0  0  0
 36 75  2  0  0  0  0
 37 61  1  0  0  0  0
 37 71  1  0  0  0  0
 37 76  2  0  0  0  0
 38 66  1  0  0  0  0
 38 69  1  0  0  0  0
 38 77  2  0  0  0  0
 39 42  1  0  0  0  0
 40 49  1  0  0  0  0
 41 65  1  0  0  0  0
 42 44  1  0  0  0  0
 43 45  1  0  0  0  0
 43 46  1  0  0  0  0
 44 48  1  0  0  0  0
 45 50  1  0  0  0  0
 46 66  1  0  0  0  0
 47 50  1  0  0  0  0
 47 66  1  0  0  0  0
 48 70  1  0  0  0  0
 49 65  1  0  0  0  0
 50 64  1  0  0  0  0
 51 61  1  0  0  0  0
 52 62  1  0  0  0  0
 53 62  1  0  0  0  0
 54 62  1  0  0  0  0
 55 72  1  0  0  0  0
 56 57  1  0  0  0  0
 57 58  1  0  0  0  0
 58 59  1  0  0  0  0
 59 79  1  0  0  0  0
 60 62  1  0  0  0  0
 60 71  1  0  0  0  0
 61 72  1  0  0  0  0
 63 64  1  0  0  0  0
M  CHG  1  72   1
M  ISO  4  38 100  59 101  69 100  79 101
M  END
> <Batch ID>
0024

> <Smiles>
CNC(C)C(=O)NC(C(=O)N1Cc2cc([101O:1][101CH2:1]CCCc3cc(Cl)c([100NH:0][100C:0](=O)N4CCCC(n5nc(-c6ccc(Oc7ccc(F)cc7F)cc6)c(C(N)=O)c5N)C4)cc3Cl)ccc2CC1C(=O)NC1CCCc2ccccc21)C(C)(C)C

> <Shape>
0.212

> <Color>
0.212

> <Negative vol penalty>
0.000

$$$$

  -OEChem-04052316223D

 82 90  0     1  0  0  0  0  0999 V2000
  -28.3056  -11.2670   22.1562 C   0  0  0  0  0  0  0  0  0  0  0  0
  -28.8195  -12.5145   21.8172 C   0  0  0  0  0  0  0  0  0  0  0  0
  -19.6413  -29.0203   23.1544 C   0  0  0  0  0  0  0  0  0  0  0  0
  -20.4747  -26.7882   22.7541 C   0  0  0  0  0  0  0  0  0  0  0  0
  -27.0167  -10.9139   21.7588 C   0  0  0  0  0  0  0  0  0  0  0  0
  -28.0451  -13.4093   21.0796 C   0  0  0  0  0  0  0  0  0  0  0  0
  -27.9932  -19.5129   21.5787 C   0  0  0  0  0  0  0  0  0  0  0  0
  -18.3631  -28.6112   22.7746 C   0  0  0  0  0  0  0  0  0  0  0  0
  -19.1964  -26.3790   22.3743 C   0  0  0  0  0  0  0  0  0  0  0  0
  -28.6187  -20.5195   20.8443 C   0  0  0  0  0  0  0  0  0  0  0  0
  -17.2140  -26.6122   19.6455 C   0  0  0  0  0  0  0  0  0  0  0  0
  -17.0984  -25.8313   18.4955 C   0  0  0  0  0  0  0  0  0  0  0  0
  -26.6176  -20.7921   19.5249 C   0  0  0  0  0  0  0  0  0  0  0  0
  -16.1120  -24.0541   19.8016 C   0  0  0  0  0  0  0  0  0  0  0  0
  -30.6736  -25.9415   19.8133 C   0  0  0  0  0  0  0  0  0  0  0  0
  -20.6972  -28.1088   23.1441 C   0  0  0  0  0  0  0  0  0  0  0  0
  -22.5698  -28.5046   24.8305 C   0  0  0  0  0  0  0  0  0  0  0  0
  -26.2225  -11.8085   21.0243 C   0  0  0  0  0  0  0  0  0  0  0  0
  -26.6767  -19.1302   21.2841 C   0  0  0  0  0  0  0  0  0  0  0  0
  -26.7448  -13.0673   20.6708 C   0  0  0  0  0  0  0  0  0  0  0  0
  -25.9768  -19.7822   20.2588 C   0  0  0  0  0  0  0  0  0  0  0  0
  -28.9920  -24.9322   18.4025 C   0  0  0  0  0  0  0  0  0  0  0  0
  -28.4429  -26.8667   19.7416 C   0  0  0  0  0  0  0  0  0  0  0  0
  -18.1406  -27.2905   22.3846 C   0  0  0  0  0  0  0  0  0  0  0  0
  -27.9319  -21.1572   19.8153 C   0  0  0  0  0  0  0  0  0  0  0  0
  -16.7786  -26.1141   20.8735 C   0  0  0  0  0  0  0  0  0  0  0  0
  -16.5474  -24.5523   18.5736 C   0  0  0  0  0  0  0  0  0  0  0  0
  -16.2276  -24.8350   20.9516 C   0  0  0  0  0  0  0  0  0  0  0  0
  -30.2961  -24.9602   18.8967 C   0  0  0  0  0  0  0  0  0  0  0  0
  -29.7469  -26.8948   20.2358 C   0  0  0  0  0  0  0  0  0  0  0  0
  -28.0654  -25.8854   18.8249 C   0  0  0  0  0  0  0  0  0  0  0  0
  -22.0180  -28.5310   23.5357 C   0  0  0  0  0  0  0  0  0  0  0  0
  -23.8389  -29.0057   24.6732 C   0  0  0  0  0  0  0  0  0  0  0  0
  -21.9874  -28.0662   26.0651 C   0  0  0  0  0  0  0  0  0  0  0  0
  -25.2867  -16.4431   20.3090 C   0  0  0  0  0  0  0  0  0  0  0  0
  -22.5627  -18.1396   20.7825 C   0  0  0  0  0  0  0  0  0  0  0  0
  -21.0509  -21.1916   20.9982 C   0  0  0  0  0  0  0  0  0  0  0  0
  -27.5962  -29.2215   20.0319 C   0  0  0  0  0  0  0  0  0  0  0  0
  -24.8526  -11.3640   20.5765 C   0  0  0  0  0  0  0  0  0  0  0  0
  -26.0069  -18.0611   22.1032 C   0  0  0  0  0  0  0  0  0  0  0  0
  -24.5549  -19.4225   19.9161 C   0  0  0  0  0  0  0  0  0  0  0  0
  -23.9586  -12.5135   20.1188 C   0  0  0  0  0  0  0  0  0  0  0  0
  -26.3720  -31.9870   21.9109 C   0  0  0  0  0  0  0  0  0  0  0  0
  -24.7229  -13.4439   19.1824 C   0  0  0  0  0  0  0  0  0  0  0  0
  -25.1704  -31.4106   22.6633 C   0  0  0  0  0  0  0  0  0  0  0  0
  -26.4969  -31.3990   20.5065 C   0  0  0  0  0  0  0  0  0  0  0  0
  -25.3080  -29.3554   21.1990 C   0  0  0  0  0  0  0  0  0  0  0  0
  -25.9264  -14.0749   19.8929 C   0  0  1  0  0  0  0  0  0  0  0  0
  -24.8392  -17.3977   21.3796 C   0  0  1  0  0  0  0  0  0  0  0  0
  -25.1786  -29.8695   22.6421 C   0  0  2  0  0  0  0  0  0  0  0  0
  -18.8075  -22.2578   21.3555 C   0  0  0  0  0  0  0  0  0  0  0  0
  -21.7740  -17.4336   17.9207 C   0  0  0  0  0  0  0  0  0  0  0  0
  -20.0595  -19.2555   18.0178 C   0  0  0  0  0  0  0  0  0  0  0  0
  -19.9044  -17.3150   19.5775 C   0  0  0  0  0  0  0  0  0  0  0  0
  -21.9670  -22.5689   23.4523 C   0  0  0  0  0  0  0  0  0  0  0  0
  -28.5898  -23.8680   17.4106 C   0  0  0  0  0  0  0  0  0  0  0  0
  -27.7779  -22.7505   18.0564 C   0  0  0  0  0  0  0  0  0  1  0  0
  -21.7088  -19.0498   19.9331 C   0  0  1  0  0  0  0  0  0  0  0  0
  -20.0854  -21.7676   22.0183 C   0  0  2  0  0  0  0  0  0  0  0  0
  -20.8891  -18.2692   18.8672 C   0  0  0  0  0  0  0  0  0  0  0  0
  -22.8669  -29.0110   22.6231 N   0  0  0  0  0  0  0  0  0  0  0  0
  -23.9650  -29.2910   23.3454 N   0  0  0  0  0  0  0  0  0  0  0  0
  -23.9457  -18.3665   20.7416 N   0  0  0  0  0  0  0  0  0  0  0  0
  -26.5024  -29.9357   20.5652 N   0  0  0  0  0  0  0  0  0  0  0  0
  -24.8481  -29.2259   25.5424 N   0  0  0  0  0  0  0  0  0  0  0  0
  -20.6732  -27.5794   26.0482 N   0  0  0  0  0  0  0  0  0  0  0  0
  -27.5056  -27.8373   20.1742 N   0  0  0  0  0  0  0  0  0  0  0  0
  -25.4952  -15.1527   20.7571 N   0  0  0  0  0  0  0  0  0  0  0  0
  -20.8950  -19.8285   20.8603 N   0  0  0  0  0  0  0  0  0  0  0  0
  -20.7125  -22.9138   22.7353 N   0  3  0  0  0  0  0  0  0  0  0  0
  -22.6081  -28.1204   27.1539 O   0  0  0  0  0  0  0  0  0  0  0  0
  -25.4306  -16.8471   19.1611 O   0  0  0  0  0  0  0  0  0  0  0  0
  -22.0219  -17.2642   21.4629 O   0  0  0  0  0  0  0  0  0  0  0  0
  -21.8597  -21.8823   20.3823 O   0  0  0  0  0  0  0  0  0  0  0  0
  -28.5562  -29.7971   19.5132 O   0  0  0  0  0  0  0  0  0  0  0  0
  -16.8933  -26.8909   22.0142 O   0  0  0  0  0  0  0  0  0  0  0  0
  -28.5404  -22.1395   19.0965 O   0  0  0  0  0  0  0  0  0  1  0  0
  -16.4351  -23.8030   17.4689 F   0  0  0  0  0  0  0  0  0  0  0  0
  -15.8065  -24.3515   22.1283 F   0  0  0  0  0  0  0  0  0  0  0  0
  -31.4753  -23.7992   18.4017 Cl  0  0  0  0  0  0  0  0  0  0  0  0
  -30.2631  -28.0900   21.3736 Cl  0  0  0  0  0  0  0  0  0  0  0  0
  -26.4436  -25.8443   18.2082 Cl  0  0  0  0  0  0  0  0  0  0  0  0
  1  2  1  0  0  0  0
  1  5  2  0  0  0  0
  2  6  2  0  0  0  0
  3  8  2  0  0  0  0
  3 16  1  0  0  0  0
  4  9  1  0  0  0  0
  4 16  2  0  0  0  0
  5 18  1  0  0  0  0
  6 20  1  0  0  0  0
  7 10  2  0  0  0  0
  7 19  1  0  0  0  0
  8 24  1  0  0  0  0
  9 24  2  0  0  0  0
 10 25  1  0  0  0  0
 11 12  2  0  0  0  0
 11 26  1  0  0  0  0
 12 27  1  0  0  0  0
 13 21  1  0  0  0  0
 13 25  2  0  0  0  0
 14 27  2  0  0  0  0
 14 28  1  0  0  0  0
 15 29  2  0  0  0  0
 15 30  1  0  0  0  0
 16 32  1  0  0  0  0
 17 32  1  0  0  0  0
 17 33  2  0  0  0  0
 17 34  1  0  0  0  0
 18 20  2  0  0  0  0
 18 39  1  0  0  0  0
 19 21  2  0  0  0  0
 19 40  1  0  0  0  0
 20 48  1  0  0  0  0
 21 41  1  0  0  0  0
 22 29  1  0  0  0  0
 22 31  2  0  0  0  0
 22 56  1  0  0  0  0
 23 30  2  0  0  0  0
 23 31  1  0  0  0  0
 23 67  1  0  0  0  0
 24 76  1  0  0  0  0
 25 77  1  0  0  0  0
 26 28  2  0  0  0  0
 26 76  1  0  0  0  0
 27 78  1  0  0  0  0
 28 79  1  0  0  0  0
 29 80  1  0  0  0  0
 30 81  1  0  0  0  0
 31 82  1  0  0  0  0
 32 61  2  0  0  0  0
 33 62  1  0  0  0  0
 33 65  1  0  0  0  0
 34 66  1  0  0  0  0
 34 71  2  0  0  0  0
 35 49  1  0  0  0  0
 35 68  1  0  0  0  0
 35 72  2  0  0  0  0
 36 58  1  0  0  0  0
 36 63  1  0  0  0  0
 36 73  2  0  0  0  0
 37 59  1  0  0  0  0
 37 69  1  0  0  0  0
 37 74  2  0  0  0  0
 38 64  1  0  0  0  0
 38 67  1  0  0  0  0
 38 75  2  0  0  0  0
 39 42  1  0  0  0  0
 40 49  1  0  0  0  0
 41 63  1  0  0  0  0
 42 44  1  0  0  0  0
 43 45  1  0  0  0  0
 43 46  1  0  0  0  0
 44 48  1  0  0  0  0
 45 50  1  0  0  0  0
 46 64  1  0  0  0  0
 47 50  1  0  0  0  0
 47 64  1  0  0  0  0
 48 68  1  0  0  0  0
 49 63  1  0  0  0  0
 50 62  1  0  0  0  0
 51 59  1  0  0  0  0
 52 60  1  0  0  0  0
 53 60  1  0  0  0  0
 54 60  1  0  0  0  0
 55 70  1  0  0  0  0
 56 57  1  0  0  0  0
 57 77  1  0  0  0  0
 58 60  1  0  0  0  0
 58 69  1  0  0  0  0
 59 70  1  0  0  0  0
 61 62  1  0  0  0  0
M  CHG  1  70   1
M  ISO  4  38 100  57 101  67 100  77 101
M  END
> <Batch ID>
0024

> <Smiles>
CNC(C)C(=O)NC(C(=O)N1Cc2cc([101O:1][101CH2:1]Cc3c(Cl)cc(Cl)c([100NH:0][100C:0](=O)N4CCCC(n5nc(-c6ccc(Oc7ccc(F)cc7F)cc6)c(C(N)=O)c5N)C4)c3Cl)ccc2CC1C(=O)NC1CCCc2ccccc21)C(C)(C)C

> <Shape>
0.233

> <Color>
0.073

> <Negative vol penalty>
0.000

$$$$

  -OEChem-04052316223D

 80 88  0     1  0  0  0  0  0999 V2000
  -31.5399  -21.0450   10.7421 C   0  0  0  0  0  0  0  0  0  0  0  0
  -31.1872  -20.5654   11.9994 C   0  0  0  0  0  0  0  0  0  0  0  0
  -23.0855   -9.8043   20.0122 C   0  0  0  0  0  0  0  0  0  0  0  0
  -23.8019   -9.9330   22.3160 C   0  0  0  0  0  0  0  0  0  0  0  0
  -32.1548  -22.2903   10.6195 C   0  0  0  0  0  0  0  0  0  0  0  0
  -31.4501  -21.3305   13.1352 C   0  0  0  0  0  0  0  0  0  0  0  0
  -28.0411  -21.6770   18.2110 C   0  0  0  0  0  0  0  0  0  0  0  0
  -22.3379   -8.6646   20.3083 C   0  0  0  0  0  0  0  0  0  0  0  0
  -23.0542   -8.7933   22.6121 C   0  0  0  0  0  0  0  0  0  0  0  0
  -28.1414  -21.0512   19.4528 C   0  0  0  0  0  0  0  0  0  0  0  0
  -22.9071   -5.3670   20.7838 C   0  0  0  0  0  0  0  0  0  0  0  0
  -22.9924   -4.2897   19.9020 C   0  0  0  0  0  0  0  0  0  0  0  0
  -29.3061  -22.9765   20.3222 C   0  0  0  0  0  0  0  0  0  0  0  0
  -31.8265  -17.5241   21.4796 C   0  0  0  0  0  0  0  0  0  0  0  0
  -20.6148   -4.4327   19.4972 C   0  0  0  0  0  0  0  0  0  0  0  0
  -23.8176  -10.4385   21.0160 C   0  0  0  0  0  0  0  0  0  0  0  0
  -24.1597  -12.9545   20.7700 C   0  0  0  0  0  0  0  0  0  0  0  0
  -32.4166  -23.0753   11.7535 C   0  0  0  0  0  0  0  0  0  0  0  0
  -28.5831  -22.9549   18.0121 C   0  0  0  0  0  0  0  0  0  0  0  0
  -32.0703  -22.5869   13.0278 C   0  0  0  0  0  0  0  0  0  0  0  0
  -29.2091  -23.6174   19.0776 C   0  0  0  0  0  0  0  0  0  0  0  0
  -30.5505  -16.9802   21.7678 C   0  0  0  0  0  0  0  0  0  0  0  0
  -22.3222   -8.1591   21.6083 C   0  0  0  0  0  0  0  0  0  0  0  0
  -28.7766  -21.6997   20.5079 C   0  0  0  0  0  0  0  0  0  0  0  0
  -21.6756   -5.9771   21.0225 C   0  0  0  0  0  0  0  0  0  0  0  0
  -21.8463   -3.8225   19.2587 C   0  0  0  0  0  0  0  0  0  0  0  0
  -20.5295   -5.5100   20.3791 C   0  0  0  0  0  0  0  0  0  0  0  0
  -24.5905  -11.6156   20.7107 C   0  0  0  0  0  0  0  0  0  0  0  0
  -31.8829  -18.7715   22.0612 C   0  0  0  0  0  0  0  0  0  0  0  0
  -25.2580  -13.6858   20.3886 C   0  0  0  0  0  0  0  0  0  0  0  0
  -29.8659  -17.9118   22.5167 C   0  0  0  0  0  0  0  0  0  0  0  0
  -22.8812  -13.4894   21.1373 C   0  0  0  0  0  0  0  0  0  0  0  0
  -30.8470  -24.1643   16.1372 C   0  0  0  0  0  0  0  0  0  0  0  0
  -29.8122  -26.9832   17.3642 C   0  0  0  0  0  0  0  0  0  0  0  0
  -28.2489  -28.6359   19.9080 C   0  0  0  0  0  0  0  0  0  0  0  0
  -30.7191  -14.7487   20.6109 C   0  0  0  0  0  0  0  0  0  0  0  0
  -33.1260  -24.3943   11.5752 C   0  0  0  0  0  0  0  0  0  0  0  0
  -28.4430  -23.6273   16.6740 C   0  0  0  0  0  0  0  0  0  0  0  0
  -29.7896  -24.9984   18.9215 C   0  0  0  0  0  0  0  0  0  0  0  0
  -33.0302  -25.3070   12.7951 C   0  0  0  0  0  0  0  0  0  0  0  0
  -29.6515  -12.2118   18.3523 C   0  0  0  0  0  0  0  0  0  0  0  0
  -33.3329  -24.5271   14.0705 C   0  0  0  0  0  0  0  0  0  0  0  0
  -28.2042  -11.9406   18.7694 C   0  0  0  0  0  0  0  0  0  0  0  0
  -30.5435  -12.5050   19.5573 C   0  0  0  0  0  0  0  0  0  0  0  0
  -28.6102  -13.2978   20.8624 C   0  0  0  0  0  0  0  0  0  0  0  0
  -32.3166  -23.3983   14.2812 C   0  0  1  0  0  0  0  0  0  0  0  0
  -29.4838  -24.7182   16.4415 C   0  0  1  0  0  0  0  0  0  0  0  0
  -27.6600  -13.0611   19.6772 C   0  0  2  0  0  0  0  0  0  0  0  0
  -32.9787  -19.7626   22.0684 C   0  0  0  0  0  0  0  0  0  0  0  0
  -27.5865  -30.9412   20.6460 C   0  0  0  0  0  0  0  0  0  0  0  0
  -32.7046  -27.5616   18.1450 C   0  0  0  0  0  0  0  0  0  0  0  0
  -31.8600  -29.3560   19.6732 C   0  0  0  0  0  0  0  0  0  0  0  0
  -31.4625  -29.5235   17.2162 C   0  0  0  0  0  0  0  0  0  0  0  0
  -25.3737  -27.9341   19.9131 C   0  0  0  0  0  0  0  0  0  0  0  0
  -30.3428  -20.2553   23.4480 C   0  0  0  0  0  0  0  0  0  0  0  0
  -30.0112  -21.4197   22.5211 C   0  0  0  0  0  0  0  0  0  1  0  0
  -30.1708  -27.8213   18.5676 C   0  0  1  0  0  0  0  0  0  0  0  0
  -27.1533  -29.6867   19.9034 C   0  0  2  0  0  0  0  0  0  0  0  0
  -31.5403  -28.5388   18.4032 C   0  0  0  0  0  0  0  0  0  0  0  0
  -25.8631  -11.5001   20.3219 N   0  0  0  0  0  0  0  0  0  0  0  0
  -30.6854  -18.9967   22.6886 N   0  0  0  0  0  0  0  0  0  0  0  0
  -26.2414  -12.7758   20.1335 N   0  0  0  0  0  0  0  0  0  0  0  0
  -29.6330  -25.6114   17.5922 N   0  0  0  0  0  0  0  0  0  0  0  0
  -29.9673  -13.5796   20.3686 N   0  0  0  0  0  0  0  0  0  0  0  0
  -25.4687  -15.0119   20.2497 N   0  0  0  0  0  0  0  0  0  0  0  0
  -21.8637  -12.5974   21.5027 N   0  0  0  0  0  0  0  0  0  0  0  0
  -30.0556  -15.7144   21.3672 N   0  0  0  0  0  0  0  0  0  0  0  0
  -31.0715  -23.9285   14.7943 N   0  0  0  0  0  0  0  0  0  0  0  0
  -29.0457  -28.7239   18.7862 N   0  0  0  0  0  0  0  0  0  0  0  0
  -25.9233  -29.1555   20.5558 N   0  3  0  0  0  0  0  0  0  0  0  0
  -22.6429  -14.7209   21.1255 O   0  0  0  0  0  0  0  0  0  0  0  0
  -31.6373  -23.9671   17.0528 O   0  0  0  0  0  0  0  0  0  0  0  0
  -29.6885  -27.5268   16.2638 O   0  0  0  0  0  0  0  0  0  0  0  0
  -28.3864  -27.8211   20.8178 O   0  0  0  0  0  0  0  0  0  0  0  0
  -31.8567  -14.8946   20.1565 O   0  0  0  0  0  0  0  0  0  0  0  0
  -21.5926   -7.0471   21.8976 O   0  0  0  0  0  0  0  0  0  0  0  0
  -28.8764  -21.0909   21.7208 O   0  0  0  0  0  0  0  0  0  1  0  0
  -21.9287   -2.7889   18.4107 F   0  0  0  0  0  0  0  0  0  0  0  0
  -19.3438   -6.0928   20.6034 F   0  0  0  0  0  0  0  0  0  0  0  0
  -28.3006  -17.8931   23.1852 Cl  0  0  0  0  0  0  0  0  0  0  0  0
  1  2  1  0  0  0  0
  1  5  2  0  0  0  0
  2  6  2  0  0  0  0
  3  8  2  0  0  0  0
  3 16  1  0  0  0  0
  4  9  1  0  0  0  0
  4 16  2  0  0  0  0
  5 18  1  0  0  0  0
  6 20  1  0  0  0  0
  7 10  2  0  0  0  0
  7 19  1  0  0  0  0
  8 23  1  0  0  0  0
  9 23  2  0  0  0  0
 10 24  1  0  0  0  0
 11 12  2  0  0  0  0
 11 25  1  0  0  0  0
 12 26  1  0  0  0  0
 13 21  1  0  0  0  0
 13 24  2  0  0  0  0
 14 22  1  0  0  0  0
 14 29  2  0  0  0  0
 15 26  2  0  0  0  0
 15 27  1  0  0  0  0
 16 28  1  0  0  0  0
 17 28  1  0  0  0  0
 17 30  2  0  0  0  0
 17 32  1  0  0  0  0
 18 20  2  0  0  0  0
 18 37  1  0  0  0  0
 19 21  2  0  0  0  0
 19 38  1  0  0  0  0
 20 46  1  0  0  0  0
 21 39  1  0  0  0  0
 22 31  2  0  0  0  0
 22 67  1  0  0  0  0
 23 76  1  0  0  0  0
 24 77  1  0  0  0  0
 25 27  2  0  0  0  0
 25 76  1  0  0  0  0
 26 78  1  0  0  0  0
 27 79  1  0  0  0  0
 28 60  2  0  0  0  0
 29 49  1  0  0  0  0
 29 61  1  0  0  0  0
 30 62  1  0  0  0  0
 30 65  1  0  0  0  0
 31 61  1  0  0  0  0
 31 80  1  0  0  0  0
 32 66  1  0  0  0  0
 32 71  2  0  0  0  0
 33 47  1  0  0  0  0
 33 68  1  0  0  0  0
 33 72  2  0  0  0  0
 34 57  1  0  0  0  0
 34 63  1  0  0  0  0
 34 73  2  0  0  0  0
 35 58  1  0  0  0  0
 35 69  1  0  0  0  0
 35 74  2  0  0  0  0
 36 64  1  0  0  0  0
 36 67  1  0  0  0  0
 36 75  2  0  0  0  0
 37 40  1  0  0  0  0
 38 47  1  0  0  0  0
 39 63  1  0  0  0  0
 40 42  1  0  0  0  0
 41 43  1  0  0  0  0
 41 44  1  0  0  0  0
 42 46  1  0  0  0  0
 43 48  1  0  0  0  0
 44 64  1  0  0  0  0
 45 48  1  0  0  0  0
 45 64  1  0  0  0  0
 46 68  1  0  0  0  0
 47 63  1  0  0  0  0
 48 62  1  0  0  0  0
 50 58  1  0  0  0  0
 51 59  1  0  0  0  0
 52 59  1  0  0  0  0
 53 59  1  0  0  0  0
 54 70  1  0  0  0  0
 55 56  1  0  0  0  0
 55 61  1  0  0  0  0
 56 77  1  0  0  0  0
 57 59  1  0  0  0  0
 57 69  1  0  0  0  0
 58 70  1  0  0  0  0
 60 62  1  0  0  0  0
M  CHG  1  70   1
M  ISO  4  36 100  56 101  67 100  77 101
M  END
> <Batch ID>
0024

> <Smiles>
CNC(C)C(=O)NC(C(=O)N1Cc2cc([101O:1][101CH2:1]Cn3c(C)cc([100NH:0][100C:0](=O)N4CCCC(n5nc(-c6ccc(Oc7ccc(F)cc7F)cc6)c(C(N)=O)c5N)C4)c3Cl)ccc2CC1C(=O)NC1CCCc2ccccc21)C(C)(C)C

> <Shape>
0.269

> <Color>
0.202

> <Negative vol penalty>
0.000

$$$$

  -OEChem-04052316223D

 92100  0     1  0  0  0  0  0999 V2000
  -31.9666  -24.5263   21.6551 C   0  0  0  0  0  0  0  0  0  0  0  0
  -30.9104  -25.0667   20.9287 C   0  0  0  0  0  0  0  0  0  0  0  0
  -22.9568  -10.0601   19.8671 C   0  0  0  0  0  0  0  0  0  0  0  0
  -23.9367   -9.6540   22.0378 C   0  0  0  0  0  0  0  0  0  0  0  0
  -32.0299  -24.7134   23.0353 C   0  0  0  0  0  0  0  0  0  0  0  0
  -29.9161  -25.7939   21.5824 C   0  0  0  0  0  0  0  0  0  0  0  0
  -28.7092  -30.0635   19.1413 C   0  0  0  0  0  0  0  0  0  0  0  0
  -22.1990   -8.8957   19.9913 C   0  0  0  0  0  0  0  0  0  0  0  0
  -23.1788   -8.4897   22.1621 C   0  0  0  0  0  0  0  0  0  0  0  0
  -27.8807  -29.9469   18.0261 C   0  0  0  0  0  0  0  0  0  0  0  0
  -19.9978   -7.6621   22.9472 C   0  0  0  0  0  0  0  0  0  0  0  0
  -19.3578   -7.4342   24.1654 C   0  0  0  0  0  0  0  0  0  0  0  0
  -25.9910  -30.6166   19.3675 C   0  0  0  0  0  0  0  0  0  0  0  0
  -24.5632  -24.9101   19.8531 C   0  0  0  0  0  0  0  0  0  0  0  0
  -20.5930   -5.3746   24.4290 C   0  0  0  0  0  0  0  0  0  0  0  0
  -23.8258  -10.4393   20.8903 C   0  0  0  0  0  0  0  0  0  0  0  0
  -24.2470  -12.9398   21.1688 C   0  0  0  0  0  0  0  0  0  0  0  0
  -31.0410  -25.4514   23.7048 C   0  0  0  0  0  0  0  0  0  0  0  0
  -28.1820  -30.4476   20.3826 C   0  0  0  0  0  0  0  0  0  0  0  0
  -29.9655  -25.9900   22.9730 C   0  0  0  0  0  0  0  0  0  0  0  0
  -26.8153  -30.7398   20.4963 C   0  0  0  0  0  0  0  0  0  0  0  0
  -24.1004  -24.8750   18.5377 C   0  0  0  0  0  0  0  0  0  0  0  0
  -24.2022  -23.6996   17.7937 C   0  0  0  0  0  0  0  0  0  0  0  0
  -25.2297  -22.5943   19.6803 C   0  0  0  0  0  0  0  0  0  0  0  0
  -22.3100   -8.1105   21.1388 C   0  0  0  0  0  0  0  0  0  0  0  0
  -26.5209  -30.2207   18.1397 C   0  0  0  0  0  0  0  0  0  0  0  0
  -20.9353   -6.7463   22.4698 C   0  0  0  0  0  0  0  0  0  0  0  0
  -19.6554   -6.2905   24.9063 C   0  0  0  0  0  0  0  0  0  0  0  0
  -21.2329   -5.6025   23.2107 C   0  0  0  0  0  0  0  0  0  0  0  0
  -25.1279  -23.7697   20.4244 C   0  0  0  0  0  0  0  0  0  0  0  0
  -24.7669  -22.5592   18.3650 C   0  0  0  0  0  0  0  0  0  0  0  0
  -24.6094  -11.6416   20.7622 C   0  0  0  0  0  0  0  0  0  0  0  0
  -25.3253  -13.7196   20.8289 C   0  0  0  0  0  0  0  0  0  0  0  0
  -23.0433  -13.3996   21.7977 C   0  0  0  0  0  0  0  0  0  0  0  0
  -27.9677  -29.0862   23.2469 C   0  0  0  0  0  0  0  0  0  0  0  0
  -26.8117  -31.9914   24.1104 C   0  0  0  0  0  0  0  0  0  0  0  0
  -25.2870  -34.8977   23.1748 C   0  0  0  0  0  0  0  0  0  0  0  0
  -30.8350  -14.5839   20.6253 C   0  0  0  0  0  0  0  0  0  0  0  0
  -31.1270  -25.5870   25.2044 C   0  0  0  0  0  0  0  0  0  0  0  0
  -29.0938  -30.5946   21.5699 C   0  0  0  0  0  0  0  0  0  0  0  0
  -26.2035  -31.1756   21.8018 C   0  0  0  0  0  0  0  0  0  0  0  0
  -30.2325  -26.6877   25.7688 C   0  0  0  0  0  0  0  0  0  0  0  0
  -29.3829  -12.6725   17.9958 C   0  0  0  0  0  0  0  0  0  0  0  0
  -28.8355  -26.6040   25.1620 C   0  0  0  0  0  0  0  0  0  0  0  0
  -27.9847  -12.3360   18.5172 C   0  0  0  0  0  0  0  0  0  0  0  0
  -30.4203  -12.6636   19.1163 C   0  0  0  0  0  0  0  0  0  0  0  0
  -28.6913  -13.1796   20.7949 C   0  0  0  0  0  0  0  0  0  0  0  0
  -28.8810  -26.8058   23.6426 C   0  0  1  0  0  0  0  0  0  0  0  0
  -28.3591  -30.4956   22.9032 C   0  0  1  0  0  0  0  0  0  0  0  0
  -27.6010  -13.2311   19.7109 C   0  0  2  0  0  0  0  0  0  0  0  0
  -23.6985  -23.6857   16.3834 C   0  0  0  0  0  0  0  0  0  0  0  0
  -24.4392  -37.0669   24.1092 C   0  0  0  0  0  0  0  0  0  0  0  0
  -24.3839  -30.5445   25.2603 C   0  0  0  0  0  0  0  0  0  0  0  0
  -23.1829  -32.7408   25.3041 C   0  0  0  0  0  0  0  0  0  0  0  0
  -25.2448  -32.4213   26.6713 C   0  0  0  0  0  0  0  0  0  0  0  0
  -27.1386  -36.4796   21.4930 C   0  0  0  0  0  0  0  0  0  0  0  0
  -23.4976  -26.1164   17.9490 C   0  0  0  0  0  0  0  0  0  0  0  0
  -29.0105  -19.4908   20.8585 C   0  0  0  0  0  0  0  0  0  0  0  0
  -29.2928  -18.1666   21.5728 C   0  0  0  0  0  0  0  0  0  0  0  0
  -27.5195  -19.8399   20.9052 C   0  0  0  0  0  0  0  0  0  0  0  0
  -30.7771  -17.7974   21.4897 C   0  0  0  0  0  0  0  0  0  0  0  0
  -24.8100  -28.6380   15.3838 C   0  0  0  0  0  0  0  0  0  0  0  0
  -27.1995  -21.1507   20.1918 C   0  0  0  0  0  0  0  0  0  0  0  0
  -31.1005  -16.4853   22.1980 C   0  0  0  0  0  0  0  0  0  0  0  0
  -23.8118  -27.9982   16.3369 C   0  0  0  0  0  0  0  0  0  0  0  0
  -26.0752  -29.1411   16.0680 C   0  0  0  0  0  0  0  0  0  1  0  0
  -25.4428  -32.6259   24.1592 C   0  0  1  0  0  0  0  0  0  0  0  0
  -25.6181  -36.3494   23.4704 C   0  0  2  0  0  0  0  0  0  0  0  0
  -24.5745  -32.0731   25.3244 C   0  0  0  0  0  0  0  0  0  0  0  0
  -25.8229  -11.5954   20.2063 N   0  0  0  0  0  0  0  0  0  0  0  0
  -26.2325  -12.8742   20.2611 N   0  0  0  0  0  0  0  0  0  0  0  0
  -27.1351  -31.2986   22.9352 N   0  0  0  0  0  0  0  0  0  0  0  0
  -29.9971  -13.5332   20.2166 N   0  0  0  0  0  0  0  0  0  0  0  0
  -25.5765  -15.0392   20.9632 N   0  0  0  0  0  0  0  0  0  0  0  0
  -22.0364  -12.4655   22.0767 N   0  0  0  0  0  0  0  0  0  0  0  0
  -25.8039  -21.4385   20.2644 N   0  0  0  0  0  0  0  0  0  0  0  0
  -29.0328  -28.2092   23.3235 N   0  0  0  0  0  0  0  0  0  0  0  0
  -25.6625  -34.0673   24.2095 N   0  0  0  0  0  0  0  0  0  0  0  0
  -30.3556  -15.3638   21.6706 N   0  0  0  0  0  0  0  0  0  0  0  0
  -25.9788  -37.0647   22.2137 N   0  3  0  0  0  0  0  0  0  0  0  0
  -24.4011  -26.8030   16.9847 N   0  3  0  0  0  0  0  0  0  0  0  0
  -22.8593  -14.6059   22.0883 O   0  0  0  0  0  0  0  0  0  0  0  0
  -26.7869  -28.8148   23.4306 O   0  0  0  0  0  0  0  0  0  0  0  0
  -27.5690  -32.1124   25.0766 O   0  0  0  0  0  0  0  0  0  0  0  0
  -24.7458  -34.5370   22.1319 O   0  0  0  0  0  0  0  0  0  0  0  0
  -31.9270  -14.8134   20.0943 O   0  0  0  0  0  0  0  0  0  0  0  0
  -21.5704   -6.9744   21.2605 O   0  0  0  0  0  0  0  0  0  0  0  0
  -25.7098  -30.1070   17.0529 O   0  0  0  0  0  0  0  0  0  1  0  0
  -19.0419   -6.0725   26.0769 F   0  0  0  0  0  0  0  0  0  0  0  0
  -22.1336   -4.7197   22.7578 F   0  0  0  0  0  0  0  0  0  0  0  0
  -25.6870  -23.8626   22.0572 Cl  0  0  0  0  0  0  0  0  0  0  0  0
  -24.8901  -21.1008   17.4333 Cl  0  0  0  0  0  0  0  0  0  0  0  0
  1  2  1  0  0  0  0
  1  5  2  0  0  0  0
  2  6  2  0  0  0  0
  3  8  2  0  0  0  0
  3 16  1  0  0  0  0
  4  9  1  0  0  0  0
  4 16  2  0  0  0  0
  5 18  1  0  0  0  0
  6 20  1  0  0  0  0
  7 10  2  0  0  0  0
  7 19  1  0  0  0  0
  8 25  1  0  0  0  0
  9 25  2  0  0  0  0
 10 26  1  0  0  0  0
 11 12  2  0  0  0  0
 11 27  1  0  0  0  0
 12 28  1  0  0  0  0
 13 21  1  0  0  0  0
 13 26  2  0  0  0  0
 14 22  1  0  0  0  0
 14 30  2  0  0  0  0
 15 28  2  0  0  0  0
 15 29  1  0  0  0  0
 16 32  1  0  0  0  0
 17 32  1  0  0  0  0
 17 33  2  0  0  0  0
 17 34  1  0  0  0  0
 18 20  2  0  0  0  0
 18 39  1  0  0  0  0
 19 21  2  0  0  0  0
 19 40  1  0  0  0  0
 20 48  1  0  0  0  0
 21 41  1  0  0  0  0
 22 23  2  0  0  0  0
 22 57  1  0  0  0  0
 23 31  1  0  0  0  0
 23 51  1  0  0  0  0
 24 30  1  0  0  0  0
 24 31  2  0  0  0  0
 24 76  1  0  0  0  0
 25 87  1  0  0  0  0
 26 88  1  0  0  0  0
 27 29  2  0  0  0  0
 27 87  1  0  0  0  0
 28 89  1  0  0  0  0
 29 90  1  0  0  0  0
 30 91  1  0  0  0  0
 31 92  1  0  0  0  0
 32 70  2  0  0  0  0
 33 71  1  0  0  0  0
 33 74  1  0  0  0  0
 34 75  1  0  0  0  0
 34 82  2  0  0  0  0
 35 49  1  0  0  0  0
 35 77  1  0  0  0  0
 35 83  2  0  0  0  0
 36 67  1  0  0  0  0
 36 72  1  0  0  0  0
 36 84  2  0  0  0  0
 37 68  1  0  0  0  0
 37 78  1  0  0  0  0
 37 85  2  0  0  0  0
 38 73  1  0  0  0  0
 38 79  1  0  0  0  0
 38 86  2  0  0  0  0
 39 42  1  0  0  0  0
 40 49  1  0  0  0  0
 41 72  1  0  0  0  0
 42 44  1  0  0  0  0
 43 45  1  0  0  0  0
 43 46  1  0  0  0  0
 44 48  1  0  0  0  0
 45 50  1  0  0  0  0
 46 73  1  0  0  0  0
 47 50  1  0  0  0  0
 47 73  1  0  0  0  0
 48 77  1  0  0  0  0
 49 72  1  0  0  0  0
 50 71  1  0  0  0  0
 52 68  1  0  0  0  0
 53 69  1  0  0  0  0
 54 69  1  0  0  0  0
 55 69  1  0  0  0  0
 56 80  1  0  0  0  0
 57 81  1  0  0  0  0
 58 59  1  0  0  0  0
 58 60  1  0  0  0  0
 59 61  1  0  0  0  0
 60 63  1  0  0  0  0
 61 64  1  0  0  0  0
 62 65  1  0  0  0  0
 62 66  1  0  0  0  0
 63 76  1  0  0  0  0
 64 79  1  0  0  0  0
 65 81  1  0  0  0  0
 66 88  1  0  0  0  0
 67 69  1  0  0  0  0
 67 78  1  0  0  0  0
 68 80  1  0  0  0  0
 70 71  1  0  0  0  0
M  CHG  2  80   1  81   1
M  ISO  4  38 100  66 101  79 100  88 101
M  END
> <Batch ID>
0024

> <Smiles>
CNC(C)C(=O)NC(C(=O)N1Cc2cc([101O:1][101CH2:1]CCNCc3cc(Cl)c(NCCCCCC[100NH:0][100C:0](=O)N4CCCC(n5nc(-c6ccc(Oc7ccc(F)cc7F)cc6)c(C(N)=O)c5N)C4)c(Cl)c3C)ccc2CC1C(=O)NC1CCCc2ccccc21)C(C)(C)C

> <Shape>
0.314

> <Color>
0.187

> <Negative vol penalty>
0.000

$$$$

  -OEChem-04052316223D

 85 93  0     1  0  0  0  0  0999 V2000
  -23.5326  -25.8747   19.7988 C   0  0  0  0  0  0  0  0  0  0  0  0
  -24.4053  -26.0118   20.8736 C   0  0  0  0  0  0  0  0  0  0  0  0
  -23.0016   -9.8927   19.9808 C   0  0  0  0  0  0  0  0  0  0  0  0
  -23.7266   -9.9446   22.2849 C   0  0  0  0  0  0  0  0  0  0  0  0
  -23.7600  -24.8892   18.8391 C   0  0  0  0  0  0  0  0  0  0  0  0
  -25.5053  -25.1628   20.9898 C   0  0  0  0  0  0  0  0  0  0  0  0
  -32.2734  -25.0837   23.3356 C   0  0  0  0  0  0  0  0  0  0  0  0
  -22.2356   -8.7579   20.2473 C   0  0  0  0  0  0  0  0  0  0  0  0
  -22.9606   -8.8098   22.5514 C   0  0  0  0  0  0  0  0  0  0  0  0
  -33.1148  -24.3520   24.1725 C   0  0  0  0  0  0  0  0  0  0  0  0
  -23.2066   -5.4709   22.0802 C   0  0  0  0  0  0  0  0  0  0  0  0
  -23.7946   -4.4541   22.8326 C   0  0  0  0  0  0  0  0  0  0  0  0
  -33.4518  -22.7375   22.4121 C   0  0  0  0  0  0  0  0  0  0  0  0
  -32.4427  -17.0999   23.9345 C   0  0  0  0  0  0  0  0  0  0  0  0
  -22.0705   -4.6965   24.5077 C   0  0  0  0  0  0  0  0  0  0  0  0
  -23.7472  -10.4861   20.9995 C   0  0  0  0  0  0  0  0  0  0  0  0
  -24.1313  -13.0018   20.8230 C   0  0  0  0  0  0  0  0  0  0  0  0
  -24.8687  -24.0339   18.9385 C   0  0  0  0  0  0  0  0  0  0  0  0
  -32.0058  -24.6413   22.0321 C   0  0  0  0  0  0  0  0  0  0  0  0
  -25.7470  -24.1640   20.0313 C   0  0  0  0  0  0  0  0  0  0  0  0
  -32.6087  -23.4667   21.5598 C   0  0  0  0  0  0  0  0  0  0  0  0
  -31.8540  -18.3422   24.1703 C   0  0  0  0  0  0  0  0  0  0  0  0
  -30.6742  -18.6910   23.5131 C   0  0  0  0  0  0  0  0  0  0  0  0
  -30.6718  -16.5550   22.3840 C   0  0  0  0  0  0  0  0  0  0  0  0
  -22.2151   -8.2165   21.5326 C   0  0  0  0  0  0  0  0  0  0  0  0
  -33.7019  -23.1772   23.7118 C   0  0  0  0  0  0  0  0  0  0  0  0
  -22.0506   -6.1005   22.5416 C   0  0  0  0  0  0  0  0  0  0  0  0
  -23.2265   -4.0669   24.0463 C   0  0  0  0  0  0  0  0  0  0  0  0
  -21.4825   -5.7134   23.7553 C   0  0  0  0  0  0  0  0  0  0  0  0
  -31.8517  -16.2063   23.0413 C   0  0  0  0  0  0  0  0  0  0  0  0
  -30.0831  -17.7973   22.6199 C   0  0  0  0  0  0  0  0  0  0  0  0
  -24.5391  -11.6580   20.7247 C   0  0  0  0  0  0  0  0  0  0  0  0
  -25.2407  -13.7248   20.4585 C   0  0  0  0  0  0  0  0  0  0  0  0
  -22.8630  -13.5477   21.2093 C   0  0  0  0  0  0  0  0  0  0  0  0
  -29.3930  -23.7444   20.4598 C   0  0  0  0  0  0  0  0  0  0  0  0
  -31.4201  -23.6511   17.9291 C   0  0  0  0  0  0  0  0  0  0  0  0
  -34.6237  -23.3458   16.7929 C   0  0  0  0  0  0  0  0  0  0  0  0
  -30.7197  -14.6887   20.6926 C   0  0  0  0  0  0  0  0  0  0  0  0
  -25.0468  -22.9529   17.9020 C   0  0  0  0  0  0  0  0  0  0  0  0
  -31.1172  -25.4562   21.1328 C   0  0  0  0  0  0  0  0  0  0  0  0
  -32.3698  -22.9595   20.1619 C   0  0  0  0  0  0  0  0  0  0  0  0
  -26.4439  -22.3377   17.8974 C   0  0  0  0  0  0  0  0  0  0  0  0
  -29.6027  -12.2347   18.3671 C   0  0  0  0  0  0  0  0  0  0  0  0
  -26.8878  -22.0105   19.3196 C   0  0  0  0  0  0  0  0  0  0  0  0
  -28.1523  -11.9765   18.7813 C   0  0  0  0  0  0  0  0  0  0  0  0
  -30.5031  -12.4788   19.5769 C   0  0  0  0  0  0  0  0  0  0  0  0
  -28.5872  -13.2671   20.9102 C   0  0  0  0  0  0  0  0  0  0  0  0
  -26.9651  -23.2783   20.1788 C   0  0  1  0  0  0  0  0  0  0  0  0
  -30.5070  -24.6403   19.9972 C   0  0  1  0  0  0  0  0  0  0  0  0
  -27.6298  -13.0800   19.7219 C   0  0  2  0  0  0  0  0  0  0  0  0
  -30.0612  -20.0308   23.7816 C   0  0  0  0  0  0  0  0  0  0  0  0
  -35.9626  -23.2693   14.6719 C   0  0  0  0  0  0  0  0  0  0  0  0
  -30.4818  -20.7888   17.4428 C   0  0  0  0  0  0  0  0  0  0  0  0
  -32.4793  -20.4581   15.9701 C   0  0  0  0  0  0  0  0  0  0  0  0
  -30.7587  -22.1621   15.3711 C   0  0  0  0  0  0  0  0  0  0  0  0
  -32.8879  -22.1230   26.2518 C   0  0  0  0  0  0  0  0  0  0  0  0
  -35.0185  -20.8022   26.1794 C   0  0  0  0  0  0  0  0  0  0  0  0
  -36.1643  -25.7592   17.5417 C   0  0  0  0  0  0  0  0  0  0  0  0
  -32.5159  -19.2893   25.1409 C   0  0  0  0  0  0  0  0  0  0  0  0
  -33.2822  -20.4001   24.4086 C   0  0  0  0  0  0  0  0  0  0  0  0
  -32.3150  -22.6022   17.3143 C   0  0  1  0  0  0  0  0  0  0  0  0
  -35.4148  -24.1544   15.7806 C   0  0  2  0  0  0  0  0  0  0  0  0
  -31.5119  -21.5111   16.5516 C   0  0  0  0  0  0  0  0  0  0  0  0
  -33.9170  -21.4548   25.3375 C   0  0  0  0  0  0  0  0  0  1  0  0
  -25.8085  -11.5320   20.3286 N   0  0  0  0  0  0  0  0  0  0  0  0
  -26.2078  -12.8060   20.1748 N   0  0  0  0  0  0  0  0  0  0  0  0
  -31.4883  -23.7881   19.3228 N   0  0  0  0  0  0  0  0  0  0  0  0
  -29.9475  -13.5397   20.4200 N   0  0  0  0  0  0  0  0  0  0  0  0
  -25.4735  -15.0506   20.3562 N   0  0  0  0  0  0  0  0  0  0  0  0
  -21.8316  -12.6631   21.5530 N   0  0  0  0  0  0  0  0  0  0  0  0
  -30.0749  -15.6437   21.4779 N   0  0  0  0  0  0  0  0  0  0  0  0
  -28.1705  -24.0203   19.8776 N   0  0  0  0  0  0  0  0  0  0  0  0
  -33.2790  -23.3213   16.4885 N   0  0  0  0  0  0  0  0  0  0  0  0
  -36.5600  -24.8383   16.4452 N   0  3  0  0  0  0  0  0  0  0  0  0
  -22.6457  -14.7829   21.2328 O   0  0  0  0  0  0  0  0  0  0  0  0
  -29.6256  -22.8668   21.2828 O   0  0  0  0  0  0  0  0  0  0  0  0
  -30.6928  -24.3290   17.1990 O   0  0  0  0  0  0  0  0  0  0  0  0
  -35.1467  -22.7882   17.7552 O   0  0  0  0  0  0  0  0  0  0  0  0
  -31.8583  -14.8280   20.2386 O   0  0  0  0  0  0  0  0  0  0  0  0
  -21.4676   -7.1093   21.7931 O   0  0  0  0  0  0  0  0  0  0  0  0
  -34.5230  -22.4607   24.5269 O   0  0  0  0  0  0  0  0  0  1  0  0
  -23.7904   -3.0895   24.7679 F   0  0  0  0  0  0  0  0  0  0  0  0
  -20.3713   -6.3138   24.2031 F   0  0  0  0  0  0  0  0  0  0  0  0
  -32.6196  -14.6794   22.7830 Cl  0  0  0  0  0  0  0  0  0  0  0  0
  -28.6153  -18.2393   21.8060 Cl  0  0  0  0  0  0  0  0  0  0  0  0
  1  2  1  0  0  0  0
  1  5  2  0  0  0  0
  2  6  2  0  0  0  0
  3  8  2  0  0  0  0
  3 16  1  0  0  0  0
  4  9  1  0  0  0  0
  4 16  2  0  0  0  0
  5 18  1  0  0  0  0
  6 20  1  0  0  0  0
  7 10  2  0  0  0  0
  7 19  1  0  0  0  0
  8 25  1  0  0  0  0
  9 25  2  0  0  0  0
 10 26  1  0  0  0  0
 11 12  2  0  0  0  0
 11 27  1  0  0  0  0
 12 28  1  0  0  0  0
 13 21  1  0  0  0  0
 13 26  2  0  0  0  0
 14 22  1  0  0  0  0
 14 30  2  0  0  0  0
 15 28  2  0  0  0  0
 15 29  1  0  0  0  0
 16 32  1  0  0  0  0
 17 32  1  0  0  0  0
 17 33  2  0  0  0  0
 17 34  1  0  0  0  0
 18 20  2  0  0  0  0
 18 39  1  0  0  0  0
 19 21  2  0  0  0  0
 19 40  1  0  0  0  0
 20 48  1  0  0  0  0
 21 41  1  0  0  0  0
 22 23  2  0  0  0  0
 22 59  1  0  0  0  0
 23 31  1  0  0  0  0
 23 51  1  0  0  0  0
 24 30  1  0  0  0  0
 24 31  2  0  0  0  0
 24 71  1  0  0  0  0
 25 80  1  0  0  0  0
 26 81  1  0  0  0  0
 27 29  2  0  0  0  0
 27 80  1  0  0  0  0
 28 82  1  0  0  0  0
 29 83  1  0  0  0  0
 30 84  1  0  0  0  0
 31 85  1  0  0  0  0
 32 65  2  0  0  0  0
 33 66  1  0  0  0  0
 33 69  1  0  0  0  0
 34 70  1  0  0  0  0
 34 75  2  0  0  0  0
 35 49  1  0  0  0  0
 35 72  1  0  0  0  0
 35 76  2  0  0  0  0
 36 61  1  0  0  0  0
 36 67  1  0  0  0  0
 36 77  2  0  0  0  0
 37 62  1  0  0  0  0
 37 73  1  0  0  0  0
 37 78  2  0  0  0  0
 38 68  1  0  0  0  0
 38 71  1  0  0  0  0
 38 79  2  0  0  0  0
 39 42  1  0  0  0  0
 40 49  1  0  0  0  0
 41 67  1  0  0  0  0
 42 44  1  0  0  0  0
 43 45  1  0  0  0  0
 43 46  1  0  0  0  0
 44 48  1  0  0  0  0
 45 50  1  0  0  0  0
 46 68  1  0  0  0  0
 47 50  1  0  0  0  0
 47 68  1  0  0  0  0
 48 72  1  0  0  0  0
 49 67  1  0  0  0  0
 50 66  1  0  0  0  0
 52 62  1  0  0  0  0
 53 63  1  0  0  0  0
 54 63  1  0  0  0  0
 55 63  1  0  0  0  0
 56 64  1  0  0  0  0
 57 64  1  0  0  0  0
 58 74  1  0  0  0  0
 59 60  1  0  0  0  0
 60 64  1  0  0  0  0
 61 63  1  0  0  0  0
 61 73  1  0  0  0  0
 62 74  1  0  0  0  0
 64 81  1  0  0  0  0
 65 66  1  0  0  0  0
M  CHG  1  74   1
M  ISO  4  38 100  64 101  71 100  81 101
M  END
> <Batch ID>
0024

> <Smiles>
CNC(C)C(=O)NC(C(=O)N1Cc2cc([101O:1][101C:1](C)(C)CCc3cc(Cl)c([100NH:0][100C:0](=O)N4CCCC(n5nc(-c6ccc(Oc7ccc(F)cc7F)cc6)c(C(N)=O)c5N)C4)c(Cl)c3C)ccc2CC1C(=O)NC1CCCc2ccccc21)C(C)(C)C

> <Shape>
0.227

> <Color>
0.202

> <Negative vol penalty>
0.000

$$$$

  -OEChem-04052316223D

 84 92  0     1  0  0  0  0  0999 V2000
  -23.8663   -7.9876   21.6998 C   0  0  0  0  0  0  0  0  0  0  0  0
  -24.6143   -9.1448   21.8917 C   0  0  0  0  0  0  0  0  0  0  0  0
  -20.4703  -27.4724   19.7819 C   0  0  0  0  0  0  0  0  0  0  0  0
  -20.7590  -26.0546   21.7167 C   0  0  0  0  0  0  0  0  0  0  0  0
  -22.6054   -8.0638   21.1097 C   0  0  0  0  0  0  0  0  0  0  0  0
  -24.1022  -10.3788   21.4925 C   0  0  0  0  0  0  0  0  0  0  0  0
  -24.7865  -13.9862   24.9802 C   0  0  0  0  0  0  0  0  0  0  0  0
  -19.1024  -27.2001   19.7864 C   0  0  0  0  0  0  0  0  0  0  0  0
  -19.3910  -25.7823   21.7213 C   0  0  0  0  0  0  0  0  0  0  0  0
  -26.0578  -14.5512   25.0708 C   0  0  0  0  0  0  0  0  0  0  0  0
  -17.2403  -23.7970   20.0290 C   0  0  0  0  0  0  0  0  0  0  0  0
  -16.8440  -22.4714   20.2057 C   0  0  0  0  0  0  0  0  0  0  0  0
  -25.2987  -16.4498   23.7910 C   0  0  0  0  0  0  0  0  0  0  0  0
  -15.6350  -23.0990   22.2012 C   0  0  0  0  0  0  0  0  0  0  0  0
  -30.5540  -22.4853   22.8765 C   0  0  0  0  0  0  0  0  0  0  0  0
  -21.2987  -26.8996   20.7470 C   0  0  0  0  0  0  0  0  0  0  0  0
  -23.3730  -28.2274   21.4116 C   0  0  0  0  0  0  0  0  0  0  0  0
  -22.0736   -9.3005   20.7119 C   0  0  0  0  0  0  0  0  0  0  0  0
  -23.7629  -14.6447   24.2838 C   0  0  0  0  0  0  0  0  0  0  0  0
  -22.8336  -10.4715   20.8953 C   0  0  0  0  0  0  0  0  0  0  0  0
  -24.0145  -15.8923   23.6951 C   0  0  0  0  0  0  0  0  0  0  0  0
  -28.7920  -21.0655   23.7228 C   0  0  0  0  0  0  0  0  0  0  0  0
  -28.4071  -22.4346   21.7697 C   0  0  0  0  0  0  0  0  0  0  0  0
  -18.5627  -26.3551   20.7561 C   0  0  0  0  0  0  0  0  0  0  0  0
  -26.3149  -15.7819   24.4737 C   0  0  0  0  0  0  0  0  0  0  0  0
  -16.8341  -24.7736   20.9383 C   0  0  0  0  0  0  0  0  0  0  0  0
  -16.0413  -22.1224   21.2918 C   0  0  0  0  0  0  0  0  0  0  0  0
  -16.0314  -24.4246   22.0244 C   0  0  0  0  0  0  0  0  0  0  0  0
  -30.0950  -21.5557   23.8096 C   0  0  0  0  0  0  0  0  0  0  0  0
  -29.7101  -22.9249   21.8566 C   0  0  0  0  0  0  0  0  0  0  0  0
  -27.9480  -21.5050   22.7028 C   0  0  0  0  0  0  0  0  0  0  0  0
  -22.7120  -27.1800   20.7424 C   0  0  0  0  0  0  0  0  0  0  0  0
  -24.6977  -28.0579   21.0908 C   0  0  0  0  0  0  0  0  0  0  0  0
  -22.8374  -29.2612   22.2485 C   0  0  0  0  0  0  0  0  0  0  0  0
  -21.9958  -13.9724   21.7285 C   0  0  0  0  0  0  0  0  0  0  0  0
  -20.4528  -16.7018   22.5605 C   0  0  0  0  0  0  0  0  0  0  0  0
  -20.5495  -19.7085   24.1720 C   0  0  0  0  0  0  0  0  0  0  0  0
  -27.9255  -23.3030   19.4545 C   0  0  0  0  0  0  0  0  0  0  0  0
  -20.7260   -9.3273   20.0352 C   0  0  0  0  0  0  0  0  0  0  0  0
  -22.3897  -14.0345   24.2179 C   0  0  0  0  0  0  0  0  0  0  0  0
  -22.9445  -16.6494   22.9534 C   0  0  0  0  0  0  0  0  0  0  0  0
  -20.0986  -10.7179   19.9820 C   0  0  0  0  0  0  0  0  0  0  0  0
  -27.5212  -26.3329   17.6286 C   0  0  0  0  0  0  0  0  0  0  0  0
  -21.1238  -11.7487   19.5202 C   0  0  0  0  0  0  0  0  0  0  0  0
  -26.3059  -26.9922   18.2848 C   0  0  0  0  0  0  0  0  0  0  0  0
  -27.3743  -24.8138   17.5601 C   0  0  0  0  0  0  0  0  0  0  0  0
  -25.8495  -24.8210   19.4951 C   0  0  0  0  0  0  0  0  0  0  0  0
  -22.3020  -11.8316   20.4982 C   0  0  1  0  0  0  0  0  0  0  0  0
  -21.5618  -14.5513   23.0454 C   0  0  1  0  0  0  0  0  0  0  0  0
  -25.9800  -26.3455   19.6454 C   0  0  2  0  0  0  0  0  0  0  0  0
  -19.1485  -21.7361   24.6446 C   0  0  0  0  0  0  0  0  0  0  0  0
  -28.5423  -17.4816   26.4232 C   0  0  0  0  0  0  0  0  0  0  0  0
  -20.9238  -17.6882   19.7118 C   0  0  0  0  0  0  0  0  0  0  0  0
  -20.3819  -20.0026   20.4979 C   0  0  0  0  0  0  0  0  0  0  0  0
  -18.6572  -18.2054   20.6335 C   0  0  0  0  0  0  0  0  0  0  0  0
  -20.6675  -19.2521   27.0938 C   0  0  0  0  0  0  0  0  0  0  0  0
  -28.3018  -20.0605   24.7343 C   0  0  0  0  0  0  0  0  0  0  0  0
  -28.2349  -18.6234   24.1970 C   0  0  0  0  0  0  0  0  0  0  0  0
  -20.6169  -18.1657   22.2304 C   0  0  1  0  0  0  0  0  0  0  0  0
  -19.5807  -20.3645   25.1393 C   0  0  2  0  0  0  0  0  0  0  0  0
  -27.6545  -17.6109   25.1921 C   0  0  1  0  0  0  0  0  0  1  0  0
  -20.1658  -18.5006   20.7807 C   0  0  0  0  0  0  0  0  0  0  0  0
  -23.5479  -26.4027   20.0488 N   0  0  0  0  0  0  0  0  0  0  0  0
  -24.7477  -26.9622   20.2802 N   0  0  0  0  0  0  0  0  0  0  0  0
  -21.6198  -16.0083   22.9113 N   0  0  0  0  0  0  0  0  0  0  0  0
  -27.0706  -24.2708   18.8859 N   0  0  0  0  0  0  0  0  0  0  0  0
  -25.8130  -28.7408   21.4257 N   0  0  0  0  0  0  0  0  0  0  0  0
  -21.4545  -29.2887   22.4741 N   0  0  0  0  0  0  0  0  0  0  0  0
  -27.5539  -22.8846   20.7318 N   0  0  0  0  0  0  0  0  0  0  0  0
  -21.9320  -12.5932   21.6718 N   0  0  0  0  0  0  0  0  0  0  0  0
  -19.8970  -18.9006   23.2649 N   0  0  0  0  0  0  0  0  0  0  0  0
  -20.2151  -20.5262   26.4780 N   0  3  0  0  0  0  0  0  0  0  0  0
  -23.5618  -30.1442   22.7671 O   0  0  0  0  0  0  0  0  0  0  0  0
  -22.3602  -14.7217   20.8299 O   0  0  0  0  0  0  0  0  0  0  0  0
  -19.3295  -16.1940   22.5158 O   0  0  0  0  0  0  0  0  0  0  0  0
  -21.7632  -19.8971   24.2144 O   0  0  0  0  0  0  0  0  0  0  0  0
  -28.9296  -22.8969   18.8639 O   0  0  0  0  0  0  0  0  0  0  0  0
  -17.2278  -26.0894   20.7610 O   0  0  0  0  0  0  0  0  0  0  0  0
  -27.5551  -16.3353   24.5601 O   0  0  0  0  0  0  0  0  0  1  0  0
  -15.6595  -20.8496   21.4606 F   0  0  0  0  0  0  0  0  0  0  0  0
  -15.6371  -25.3586   22.9007 F   0  0  0  0  0  0  0  0  0  0  0  0
  -31.1734  -21.0398   25.0564 Cl  0  0  0  0  0  0  0  0  0  0  0  0
  -30.3254  -24.0783   20.7251 Cl  0  0  0  0  0  0  0  0  0  0  0  0
  -26.3271  -20.8932   22.6009 Cl  0  0  0  0  0  0  0  0  0  0  0  0
  1  2  1  0  0  0  0
  1  5  2  0  0  0  0
  2  6  2  0  0  0  0
  3  8  2  0  0  0  0
  3 16  1  0  0  0  0
  4  9  1  0  0  0  0
  4 16  2  0  0  0  0
  5 18  1  0  0  0  0
  6 20  1  0  0  0  0
  7 10  2  0  0  0  0
  7 19  1  0  0  0  0
  8 24  1  0  0  0  0
  9 24  2  0  0  0  0
 10 25  1  0  0  0  0
 11 12  2  0  0  0  0
 11 26  1  0  0  0  0
 12 27  1  0  0  0  0
 13 21  1  0  0  0  0
 13 25  2  0  0  0  0
 14 27  2  0  0  0  0
 14 28  1  0  0  0  0
 15 29  2  0  0  0  0
 15 30  1  0  0  0  0
 16 32  1  0  0  0  0
 17 32  1  0  0  0  0
 17 33  2  0  0  0  0
 17 34  1  0  0  0  0
 18 20  2  0  0  0  0
 18 39  1  0  0  0  0
 19 21  2  0  0  0  0
 19 40  1  0  0  0  0
 20 48  1  0  0  0  0
 21 41  1  0  0  0  0
 22 29  1  0  0  0  0
 22 31  2  0  0  0  0
 22 57  1  0  0  0  0
 23 30  2  0  0  0  0
 23 31  1  0  0  0  0
 23 69  1  0  0  0  0
 24 78  1  0  0  0  0
 25 79  1  0  0  0  0
 26 28  2  0  0  0  0
 26 78  1  0  0  0  0
 27 80  1  0  0  0  0
 28 81  1  0  0  0  0
 29 82  1  0  0  0  0
 30 83  1  0  0  0  0
 31 84  1  0  0  0  0
 32 63  2  0  0  0  0
 33 64  1  0  0  0  0
 33 67  1  0  0  0  0
 34 68  1  0  0  0  0
 34 73  2  0  0  0  0
 35 49  1  0  0  0  0
 35 70  1  0  0  0  0
 35 74  2  0  0  0  0
 36 59  1  0  0  0  0
 36 65  1  0  0  0  0
 36 75  2  0  0  0  0
 37 60  1  0  0  0  0
 37 71  1  0  0  0  0
 37 76  2  0  0  0  0
 38 66  1  0  0  0  0
 38 69  1  0  0  0  0
 38 77  2  0  0  0  0
 39 42  1  0  0  0  0
 40 49  1  0  0  0  0
 41 65  1  0  0  0  0
 42 44  1  0  0  0  0
 43 45  1  0  0  0  0
 43 46  1  0  0  0  0
 44 48  1  0  0  0  0
 45 50  1  0  0  0  0
 46 66  1  0  0  0  0
 47 50  1  0  0  0  0
 47 66  1  0  0  0  0
 48 70  1  0  0  0  0
 49 65  1  0  0  0  0
 50 64  1  0  0  0  0
 51 60  1  0  0  0  0
 52 61  1  0  0  0  0
 53 62  1  0  0  0  0
 54 62  1  0  0  0  0
 55 62  1  0  0  0  0
 56 72  1  0  0  0  0
 57 58  1  0  0  0  0
 58 61  1  0  0  0  0
 59 62  1  0  0  0  0
 59 71  1  0  0  0  0
 60 72  1  0  0  0  0
 61 79  1  0  0  0  0
 63 64  1  0  0  0  0
M  CHG  1  72   1
M  ISO  4  38 100  61 101  69 100  79 101
M  END
> <Batch ID>
0024

> <Smiles>
CNC(C)C(=O)NC(C(=O)N1Cc2cc([101O:1][101CH:1](C)CCc3c(Cl)cc(Cl)c([100NH:0][100C:0](=O)N4CCCC(n5nc(-c6ccc(Oc7ccc(F)cc7F)cc6)c(C(N)=O)c5N)C4)c3Cl)ccc2CC1C(=O)NC1CCCc2ccccc21)C(C)(C)C

> <Shape>
0.145

> <Color>
0.099

> <Negative vol penalty>
0.000

$$$$

  -OEChem-04052316223D

 87 95  0     1  0  0  0  0  0999 V2000
  -31.0144  -25.5344   13.4739 C   0  0  0  0  0  0  0  0  0  0  0  0
  -30.2392  -24.8194   14.3812 C   0  0  0  0  0  0  0  0  0  0  0  0
  -31.0498  -18.0920   19.0101 C   0  0  0  0  0  0  0  0  0  0  0  0
  -28.7135  -17.5421   18.7338 C   0  0  0  0  0  0  0  0  0  0  0  0
  -31.6174  -26.7295   13.8639 C   0  0  0  0  0  0  0  0  0  0  0  0
  -30.0674  -25.2986   15.6794 C   0  0  0  0  0  0  0  0  0  0  0  0
  -25.2587  -25.0016   17.2394 C   0  0  0  0  0  0  0  0  0  0  0  0
  -31.3928  -16.7650   18.7512 C   0  0  0  0  0  0  0  0  0  0  0  0
  -29.0565  -16.2151   18.4747 C   0  0  0  0  0  0  0  0  0  0  0  0
  -24.7980  -23.7507   17.6479 C   0  0  0  0  0  0  0  0  0  0  0  0
  -29.9523  -13.4812   20.2509 C   0  0  0  0  0  0  0  0  0  0  0  0
  -29.2100  -12.4845   20.8843 C   0  0  0  0  0  0  0  0  0  0  0  0
  -25.1176  -24.3919   19.9514 C   0  0  0  0  0  0  0  0  0  0  0  0
  -28.5484  -11.6092   18.7318 C   0  0  0  0  0  0  0  0  0  0  0  0
  -29.7101  -18.4805   19.0015 C   0  0  0  0  0  0  0  0  0  0  0  0
  -29.2205  -20.8931   18.3326 C   0  0  0  0  0  0  0  0  0  0  0  0
  -31.4450  -27.2286   15.1646 C   0  0  0  0  0  0  0  0  0  0  0  0
  -25.6634  -25.9547   18.1851 C   0  0  0  0  0  0  0  0  0  0  0  0
  -30.6697  -26.5008   16.0875 C   0  0  0  0  0  0  0  0  0  0  0  0
  -25.5807  -25.6550   19.5524 C   0  0  0  0  0  0  0  0  0  0  0  0
  -30.3962  -15.8266   18.4835 C   0  0  0  0  0  0  0  0  0  0  0  0
  -24.7301  -23.4447   19.0039 C   0  0  0  0  0  0  0  0  0  0  0  0
  -29.9925  -13.5420   18.8579 C   0  0  0  0  0  0  0  0  0  0  0  0
  -28.5081  -11.5485   20.1248 C   0  0  0  0  0  0  0  0  0  0  0  0
  -29.2906  -12.6060   18.0984 C   0  0  0  0  0  0  0  0  0  0  0  0
  -29.3551  -19.8510   19.2695 C   0  0  0  0  0  0  0  0  0  0  0  0
  -19.5600  -19.9446   20.3832 C   0  0  0  0  0  0  0  0  0  0  0  0
  -19.6322  -20.1414   21.7420 C   0  0  0  0  0  0  0  0  0  0  0  0
  -28.8728  -21.9884   19.0849 C   0  0  0  0  0  0  0  0  0  0  0  0
  -17.9535  -21.2766   21.0913 C   0  0  0  0  0  0  0  0  0  0  0  0
  -29.3941  -20.8728   16.9095 C   0  0  0  0  0  0  0  0  0  0  0  0
  -28.3923  -27.4478   18.8388 C   0  0  0  0  0  0  0  0  0  0  0  0
  -26.5395  -29.0899   20.9348 C   0  0  0  0  0  0  0  0  0  0  0  0
  -23.7175  -29.1822   22.8517 C   0  0  0  0  0  0  0  0  0  0  0  0
  -26.1873  -22.5971   24.4017 C   0  0  0  0  0  0  0  0  0  0  0  0
  -32.1553  -28.5007   15.5541 C   0  0  0  0  0  0  0  0  0  0  0  0
  -26.1328  -27.3090   17.7291 C   0  0  0  0  0  0  0  0  0  0  0  0
  -25.9840  -26.6506   20.6082 C   0  0  0  0  0  0  0  0  0  0  0  0
  -31.6168  -29.1310   16.8359 C   0  0  0  0  0  0  0  0  0  0  0  0
  -29.3905  -23.8386   23.4666 C   0  0  0  0  0  0  0  0  0  0  0  0
  -31.4502  -28.0729   17.9220 C   0  0  0  0  0  0  0  0  0  0  0  0
  -29.7325  -23.0515   22.2004 C   0  0  0  0  0  0  0  0  0  0  0  0
  -28.6335  -22.9802   24.4776 C   0  0  0  0  0  0  0  0  0  0  0  0
  -27.7686  -21.5314   22.6812 C   0  0  0  0  0  0  0  0  0  0  0  0
  -30.4395  -27.0007   17.4972 C   0  0  1  0  0  0  0  0  0  0  0  0
  -27.0043  -28.0180   18.7612 C   0  0  1  0  0  0  0  0  0  0  0  0
  -28.4835  -22.3710   21.6087 C   0  0  2  0  0  0  0  0  0  0  0  0
  -16.7672  -22.1542   21.0260 C   0  0  0  0  0  0  0  0  0  0  0  0
  -22.4932  -30.6407   24.4861 C   0  0  0  0  0  0  0  0  0  0  0  0
  -28.5490  -28.3406   23.1051 C   0  0  0  0  0  0  0  0  0  0  0  0
  -26.8350  -28.9787   24.8149 C   0  0  0  0  0  0  0  0  0  0  0  0
  -27.7095  -30.6932   23.2280 C   0  0  0  0  0  0  0  0  0  0  0  0
  -17.9852  -20.7983   18.6278 C   0  0  0  0  0  0  0  0  0  0  0  0
  -21.3430  -29.3573   21.0940 C   0  0  0  0  0  0  0  0  0  0  0  0
  -20.4083  -19.1359   19.4343 C   0  0  0  0  0  0  0  0  0  0  0  0
  -21.3713  -19.9799   18.5919 C   0  0  0  0  0  0  0  0  0  0  0  0
  -21.4593  -21.0553   24.3517 C   0  0  0  0  0  0  0  0  0  0  0  0
  -22.9061  -20.9078   23.8642 C   0  0  0  0  0  0  0  0  0  0  0  0
  -22.4133  -20.7180   19.4335 C   0  0  0  0  0  0  0  0  0  0  0  0
  -20.6025  -19.8353   24.0203 C   0  0  0  0  0  0  0  0  0  0  0  0
  -23.7592  -22.1309   24.1864 C   0  0  0  0  0  0  0  0  0  0  0  0
  -23.3256  -21.5758   18.5672 C   0  0  0  0  0  0  0  0  0  1  0  0
  -26.1369  -28.9053   22.3780 C   0  0  1  0  0  0  0  0  0  0  0  0
  -22.6521  -30.2495   23.0251 C   0  0  2  0  0  0  0  0  0  0  0  0
  -27.3018  -29.2098   23.3618 C   0  0  0  0  0  0  0  0  0  0  0  0
  -29.1129  -20.2486   20.5214 N   0  0  0  0  0  0  0  0  0  0  0  0
  -18.6293  -20.9713   22.1767 N   0  0  0  0  0  0  0  0  0  0  0  0
  -18.4794  -20.6777   19.9804 N   0  0  0  0  0  0  0  0  0  0  0  0
  -28.8226  -21.5528   20.3764 N   0  0  0  0  0  0  0  0  0  0  0  0
  -26.4422  -27.9588   20.1120 N   0  0  0  0  0  0  0  0  0  0  0  0
  -27.4596  -22.3649   23.8536 N   0  0  0  0  0  0  0  0  0  0  0  0
  -28.6082  -23.2719   18.7611 N   0  0  0  0  0  0  0  0  0  0  0  0
  -29.7518  -19.6639   16.2972 N   0  0  0  0  0  0  0  0  0  0  0  0
  -20.5509  -19.6071   22.5757 N   0  0  0  0  0  0  0  0  0  0  0  0
  -29.0871  -27.4941   17.6452 N   0  0  0  0  0  0  0  0  0  0  0  0
  -24.9523  -29.7325   22.5803 N   0  0  0  0  0  0  0  0  0  0  0  0
  -25.1282  -21.9817   23.7457 N   0  0  0  0  0  0  0  0  0  0  0  0
  -21.3379  -29.7555   22.5252 N   0  3  0  0  0  0  0  0  0  0  0  0
  -29.2526  -21.9002   16.2038 O   0  0  0  0  0  0  0  0  0  0  0  0
  -28.8031  -27.0004   19.9031 O   0  0  0  0  0  0  0  0  0  0  0  0
  -26.9194  -30.1986   20.5499 O   0  0  0  0  0  0  0  0  0  0  0  0
  -23.4791  -27.9806   22.9512 O   0  0  0  0  0  0  0  0  0  0  0  0
  -26.0078  -23.3050   25.3985 O   0  0  0  0  0  0  0  0  0  0  0  0
  -30.7305  -14.5317   18.2305 O   0  0  0  0  0  0  0  0  0  0  0  0
  -24.2814  -22.2243   19.4053 O   0  0  0  0  0  0  0  0  0  1  0  0
  -27.7966  -10.5905   20.7332 F   0  0  0  0  0  0  0  0  0  0  0  0
  -29.3265  -12.6586   16.7598 F   0  0  0  0  0  0  0  0  0  0  0  0
  1  2  1  0  0  0  0
  1  5  2  0  0  0  0
  2  6  2  0  0  0  0
  3  8  2  0  0  0  0
  3 15  1  0  0  0  0
  4  9  1  0  0  0  0
  4 15  2  0  0  0  0
  5 17  1  0  0  0  0
  6 19  1  0  0  0  0
  7 10  2  0  0  0  0
  7 18  1  0  0  0  0
  8 21  1  0  0  0  0
  9 21  2  0  0  0  0
 10 22  1  0  0  0  0
 11 12  2  0  0  0  0
 11 23  1  0  0  0  0
 12 24  1  0  0  0  0
 13 20  1  0  0  0  0
 13 22  2  0  0  0  0
 14 24  2  0  0  0  0
 14 25  1  0  0  0  0
 15 26  1  0  0  0  0
 16 26  1  0  0  0  0
 16 29  2  0  0  0  0
 16 31  1  0  0  0  0
 17 19  2  0  0  0  0
 17 36  1  0  0  0  0
 18 20  2  0  0  0  0
 18 37  1  0  0  0  0
 19 45  1  0  0  0  0
 20 38  1  0  0  0  0
 21 84  1  0  0  0  0
 22 85  1  0  0  0  0
 23 25  2  0  0  0  0
 23 84  1  0  0  0  0
 24 86  1  0  0  0  0
 25 87  1  0  0  0  0
 26 66  2  0  0  0  0
 27 28  2  0  0  0  0
 27 55  1  0  0  0  0
 27 68  1  0  0  0  0
 28 67  1  0  0  0  0
 28 74  1  0  0  0  0
 29 69  1  0  0  0  0
 29 72  1  0  0  0  0
 30 48  1  0  0  0  0
 30 67  2  0  0  0  0
 30 68  1  0  0  0  0
 31 73  1  0  0  0  0
 31 79  2  0  0  0  0
 32 46  1  0  0  0  0
 32 75  1  0  0  0  0
 32 80  2  0  0  0  0
 33 63  1  0  0  0  0
 33 70  1  0  0  0  0
 33 81  2  0  0  0  0
 34 64  1  0  0  0  0
 34 76  1  0  0  0  0
 34 82  2  0  0  0  0
 35 71  1  0  0  0  0
 35 77  1  0  0  0  0
 35 83  2  0  0  0  0
 36 39  1  0  0  0  0
 37 46  1  0  0  0  0
 38 70  1  0  0  0  0
 39 41  1  0  0  0  0
 40 42  1  0  0  0  0
 40 43  1  0  0  0  0
 41 45  1  0  0  0  0
 42 47  1  0  0  0  0
 43 71  1  0  0  0  0
 44 47  1  0  0  0  0
 44 71  1  0  0  0  0
 45 75  1  0  0  0  0
 46 70  1  0  0  0  0
 47 69  1  0  0  0  0
 49 64  1  0  0  0  0
 50 65  1  0  0  0  0
 51 65  1  0  0  0  0
 52 65  1  0  0  0  0
 53 68  1  0  0  0  0
 54 78  1  0  0  0  0
 55 56  1  0  0  0  0
 56 59  1  0  0  0  0
 57 58  1  0  0  0  0
 57 60  1  0  0  0  0
 58 61  1  0  0  0  0
 59 62  1  0  0  0  0
 60 74  1  0  0  0  0
 61 77  1  0  0  0  0
 62 85  1  0  0  0  0
 63 65  1  0  0  0  0
 63 76  1  0  0  0  0
 64 78  1  0  0  0  0
 66 69  1  0  0  0  0
M  CHG  1  78   1
M  ISO  4  35 100  62 101  77 100  85 101
M  END
> <Batch ID>
0024

> <Smiles>
CNC(C)C(=O)NC(C(=O)N1Cc2cc([101O:1][101CH2:1]CCCc3c(NCCCC[100NH:0][100C:0](=O)N4CCCC(n5nc(-c6ccc(Oc7ccc(F)cc7F)cc6)c(C(N)=O)c5N)C4)nc(C)n3C)ccc2CC1C(=O)NC1CCCc2ccccc21)C(C)(C)C

> <Shape>
0.180

> <Color>
0.085

> <Negative vol penalty>
0.000

$$$$

  -OEChem-04052316223D

 89 97  0     1  0  0  0  0  0999 V2000
  -21.4995  -32.3895   24.8189 C   0  0  0  0  0  0  0  0  0  0  0  0
  -21.8734  -31.2640   25.5462 C   0  0  0  0  0  0  0  0  0  0  0  0
  -23.0655   -9.8769   19.9539 C   0  0  0  0  0  0  0  0  0  0  0  0
  -23.8221   -9.8965   22.2483 C   0  0  0  0  0  0  0  0  0  0  0  0
  -21.3865  -32.3155   23.4312 C   0  0  0  0  0  0  0  0  0  0  0  0
  -22.1336  -30.0636   24.8862 C   0  0  0  0  0  0  0  0  0  0  0  0
  -26.3030  -25.8480   26.4194 C   0  0  0  0  0  0  0  0  0  0  0  0
  -22.3132   -8.7310   20.2118 C   0  0  0  0  0  0  0  0  0  0  0  0
  -23.0697   -8.7507   22.5062 C   0  0  0  0  0  0  0  0  0  0  0  0
  -26.2078  -24.6453   27.1181 C   0  0  0  0  0  0  0  0  0  0  0  0
  -19.8351   -7.9804   23.1101 C   0  0  0  0  0  0  0  0  0  0  0  0
  -19.0762   -7.9550   24.2801 C   0  0  0  0  0  0  0  0  0  0  0  0
  -26.0358  -23.4521   25.0287 C   0  0  0  0  0  0  0  0  0  0  0  0
  -20.3028   -6.0147   25.0336 C   0  0  0  0  0  0  0  0  0  0  0  0
  -23.8200  -10.4596   20.9722 C   0  0  0  0  0  0  0  0  0  0  0  0
  -24.1799  -12.9813   20.8329 C   0  0  0  0  0  0  0  0  0  0  0  0
  -21.6548  -31.1160   22.7530 C   0  0  0  0  0  0  0  0  0  0  0  0
  -26.2543  -25.8629   25.0181 C   0  0  0  0  0  0  0  0  0  0  0  0
  -22.0228  -29.9731   23.4882 C   0  0  0  0  0  0  0  0  0  0  0  0
  -26.1332  -24.6561   24.3145 C   0  0  0  0  0  0  0  0  0  0  0  0
  -30.2411  -17.8479   22.7422 C   0  0  0  0  0  0  0  0  0  0  0  0
  -30.7104  -16.5661   22.3631 C   0  0  0  0  0  0  0  0  0  0  0  0
  -22.3152   -8.1679   21.4879 C   0  0  0  0  0  0  0  0  0  0  0  0
  -26.0713  -23.4474   26.4229 C   0  0  0  0  0  0  0  0  0  0  0  0
  -20.8278   -7.0229   22.9017 C   0  0  0  0  0  0  0  0  0  0  0  0
  -19.3100   -6.9722   25.2419 C   0  0  0  0  0  0  0  0  0  0  0  0
  -21.0617   -6.0401   23.8635 C   0  0  0  0  0  0  0  0  0  0  0  0
  -24.5979  -11.6430   20.7063 C   0  0  0  0  0  0  0  0  0  0  0  0
  -31.1410  -18.3641   23.6482 C   0  0  0  0  0  0  0  0  0  0  0  0
  -31.8829  -16.3379   23.0492 C   0  0  0  0  0  0  0  0  0  0  0  0
  -25.2778  -13.7202   20.4654 C   0  0  0  0  0  0  0  0  0  0  0  0
  -22.9124  -13.5093   21.2458 C   0  0  0  0  0  0  0  0  0  0  0  0
  -24.3047  -27.1368   22.8548 C   0  0  0  0  0  0  0  0  0  0  0  0
  -26.5318  -26.0351   20.7694 C   0  0  0  0  0  0  0  0  0  0  0  0
  -29.0455  -23.8210   20.1170 C   0  0  0  0  0  0  0  0  0  0  0  0
  -30.7509  -14.7287   20.6401 C   0  0  0  0  0  0  0  0  0  0  0  0
  -21.4734  -31.0721   21.2564 C   0  0  0  0  0  0  0  0  0  0  0  0
  -26.3852  -27.1660   24.2784 C   0  0  0  0  0  0  0  0  0  0  0  0
  -26.0962  -24.6159   22.8093 C   0  0  0  0  0  0  0  0  0  0  0  0
  -22.1304  -29.8614   20.5985 C   0  0  0  0  0  0  0  0  0  0  0  0
  -29.6231  -12.3041   18.2893 C   0  0  0  0  0  0  0  0  0  0  0  0
  -21.7998  -28.5887   21.3717 C   0  0  0  0  0  0  0  0  0  0  0  0
  -28.1808  -12.0260   18.7190 C   0  0  0  0  0  0  0  0  0  0  0  0
  -30.5380  -12.5360   19.4905 C   0  0  0  0  0  0  0  0  0  0  0  0
  -28.6341  -13.2848   20.8631 C   0  0  0  0  0  0  0  0  0  0  0  0
  -22.3374  -28.6594   22.8061 C   0  0  1  0  0  0  0  0  0  0  0  0
  -25.8070  -27.1130   22.8676 C   0  0  1  0  0  0  0  0  0  0  0  0
  -27.6619  -13.1090   19.6852 C   0  0  2  0  0  0  0  0  0  0  0  0
  -29.0136  -18.5126   22.2567 C   0  0  0  0  0  0  0  0  0  0  0  0
  -32.7879  -15.1679   23.0325 C   0  0  0  0  0  0  0  0  0  0  0  0
  -30.6505  -23.1385   18.3127 C   0  0  0  0  0  0  0  0  0  0  0  0
  -24.2688  -24.6129   19.2978 C   0  0  0  0  0  0  0  0  0  0  0  0
  -25.9942  -23.2243   18.1303 C   0  0  0  0  0  0  0  0  0  0  0  0
  -25.9609  -25.6979   17.8099 C   0  0  0  0  0  0  0  0  0  0  0  0
  -31.3970  -21.6564   26.5416 C   0  0  0  0  0  0  0  0  0  0  0  0
  -29.2023  -21.9981   25.4154 C   0  0  0  0  0  0  0  0  0  0  0  0
  -33.2752  -17.5959   24.7053 C   0  0  0  0  0  0  0  0  0  0  0  0
  -31.3928  -24.4795   21.7950 C   0  0  0  0  0  0  0  0  0  0  0  0
  -28.0193  -18.7670   27.5209 C   0  0  0  0  0  0  0  0  0  0  0  0
  -31.1406  -19.6879   24.3736 C   0  0  0  0  0  0  0  0  0  0  0  0
  -30.1505  -19.6817   25.5460 C   0  0  0  0  0  0  0  0  0  0  0  0
  -27.0268  -20.7549   28.6451 C   0  0  0  0  0  0  0  0  0  0  0  0
  -29.3217  -20.8832   27.6873 C   0  0  0  0  0  0  0  0  0  0  0  0
  -26.6457  -22.1944   28.3609 C   0  0  0  0  0  0  0  0  0  1  0  0
  -26.7452  -24.7444   20.0162 C   0  0  1  0  0  0  0  0  0  0  0  0
  -30.4341  -24.0163   19.5356 C   0  0  2  0  0  0  0  0  0  0  0  0
  -25.7410  -24.5705   18.8420 C   0  0  0  0  0  0  0  0  0  0  0  0
  -30.0065  -21.0289   26.3098 C   0  0  0  0  0  0  0  0  0  0  0  0
  -25.8626  -11.5350   20.2907 N   0  0  0  0  0  0  0  0  0  0  0  0
  -32.1347  -17.4374   23.8275 N   0  0  0  0  0  0  0  0  0  0  0  0
  -26.2488  -12.8148   20.1528 N   0  0  0  0  0  0  0  0  0  0  0  0
  -26.2214  -25.9168   22.1316 N   0  0  0  0  0  0  0  0  0  0  0  0
  -29.9850  -13.5776   20.3588 N   0  0  0  0  0  0  0  0  0  0  0  0
  -25.4977  -15.0495   20.3822 N   0  0  0  0  0  0  0  0  0  0  0  0
  -21.8936  -12.6100   21.5886 N   0  0  0  0  0  0  0  0  0  0  0  0
  -30.1089  -15.6648   21.4501 N   0  0  0  0  0  0  0  0  0  0  0  0
  -23.7624  -28.4074   22.8247 N   0  0  0  0  0  0  0  0  0  0  0  0
  -28.1464  -24.7354   19.6103 N   0  0  0  0  0  0  0  0  0  0  0  0
  -31.4726  -23.6751   20.5486 N   0  3  0  0  0  0  0  0  0  0  0  0
  -27.9459  -20.2726   27.5836 N   0  3  1  0  0  0  0  0  0  0  0  0
  -22.6848  -14.7420   21.2931 O   0  0  0  0  0  0  0  0  0  0  0  0
  -23.6835  -26.0806   22.8694 O   0  0  0  0  0  0  0  0  0  0  0  0
  -26.6437  -27.1090   20.1728 O   0  0  0  0  0  0  0  0  0  0  0  0
  -28.7837  -22.9426   20.9358 O   0  0  0  0  0  0  0  0  0  0  0  0
  -31.8819  -14.8858   20.1729 O   0  0  0  0  0  0  0  0  0  0  0  0
  -21.5810   -7.0499   21.7400 O   0  0  0  0  0  0  0  0  0  0  0  0
  -25.9775  -22.2721   27.1024 O   0  0  0  0  0  0  0  0  0  1  0  0
  -18.5822   -6.9489   26.3661 F   0  0  0  0  0  0  0  0  0  0  0  0
  -22.0148   -5.1183   23.6695 F   0  0  0  0  0  0  0  0  0  0  0  0
  1  2  1  0  0  0  0
  1  5  2  0  0  0  0
  2  6  2  0  0  0  0
  3  8  2  0  0  0  0
  3 15  1  0  0  0  0
  4  9  1  0  0  0  0
  4 15  2  0  0  0  0
  5 17  1  0  0  0  0
  6 19  1  0  0  0  0
  7 10  2  0  0  0  0
  7 18  1  0  0  0  0
  8 23  1  0  0  0  0
  9 23  2  0  0  0  0
 10 24  1  0  0  0  0
 11 12  2  0  0  0  0
 11 25  1  0  0  0  0
 12 26  1  0  0  0  0
 13 20  1  0  0  0  0
 13 24  2  0  0  0  0
 14 26  2  0  0  0  0
 14 27  1  0  0  0  0
 15 28  1  0  0  0  0
 16 28  1  0  0  0  0
 16 31  2  0  0  0  0
 16 32  1  0  0  0  0
 17 19  2  0  0  0  0
 17 37  1  0  0  0  0
 18 20  2  0  0  0  0
 18 38  1  0  0  0  0
 19 46  1  0  0  0  0
 20 39  1  0  0  0  0
 21 22  1  0  0  0  0
 21 29  2  0  0  0  0
 21 49  1  0  0  0  0
 22 30  2  0  0  0  0
 22 76  1  0  0  0  0
 23 86  1  0  0  0  0
 24 87  1  0  0  0  0
 25 27  2  0  0  0  0
 25 86  1  0  0  0  0
 26 88  1  0  0  0  0
 27 89  1  0  0  0  0
 28 69  2  0  0  0  0
 29 60  1  0  0  0  0
 29 70  1  0  0  0  0
 30 50  1  0  0  0  0
 30 70  1  0  0  0  0
 31 71  1  0  0  0  0
 31 74  1  0  0  0  0
 32 75  1  0  0  0  0
 32 81  2  0  0  0  0
 33 47  1  0  0  0  0
 33 77  1  0  0  0  0
 33 82  2  0  0  0  0
 34 65  1  0  0  0  0
 34 72  1  0  0  0  0
 34 83  2  0  0  0  0
 35 66  1  0  0  0  0
 35 78  1  0  0  0  0
 35 84  2  0  0  0  0
 36 73  1  0  0  0  0
 36 76  1  0  0  0  0
 36 85  2  0  0  0  0
 37 40  1  0  0  0  0
 38 47  1  0  0  0  0
 39 72  1  0  0  0  0
 40 42  1  0  0  0  0
 41 43  1  0  0  0  0
 41 44  1  0  0  0  0
 42 46  1  0  0  0  0
 43 48  1  0  0  0  0
 44 73  1  0  0  0  0
 45 48  1  0  0  0  0
 45 73  1  0  0  0  0
 46 77  1  0  0  0  0
 47 72  1  0  0  0  0
 48 71  1  0  0  0  0
 51 66  1  0  0  0  0
 52 67  1  0  0  0  0
 53 67  1  0  0  0  0
 54 67  1  0  0  0  0
 55 68  1  0  0  0  0
 56 68  1  0  0  0  0
 57 70  1  0  0  0  0
 58 79  1  0  0  0  0
 59 80  1  0  0  0  0
 60 61  1  0  0  0  0
 61 68  1  0  0  0  0
 62 64  1  0  0  0  0
 62 80  1  0  0  0  0
 63 68  1  0  0  0  0
 63 80  1  0  0  0  0
 64 87  1  0  0  0  0
 65 67  1  0  0  0  0
 65 78  1  0  0  0  0
 66 79  1  0  0  0  0
 69 71  1  0  0  0  0
M  CHG  2  79   1  80   1
M  ISO  4  36 100  64 101  76 100  87 101
M  END
> <Batch ID>
0024

> <Smiles>
CNC(C)C(=O)NC(C(=O)N1Cc2cc([101O:1][101CH2:1]CN(C)CC(C)(C)CCc3c(C)c([100NH:0][100C:0](=O)N4CCCC(n5nc(-c6ccc(Oc7ccc(F)cc7F)cc6)c(C(N)=O)c5N)C4)c(C)n3C)ccc2CC1C(=O)NC1CCCc2ccccc21)C(C)(C)C

> <Shape>
0.249

> <Color>
0.189

> <Negative vol penalty>
0.000

$$$$

  -OEChem-04052316223D

 89 97  0     1  0  0  0  0  0999 V2000
  -18.9366  -35.3827   20.3181 C   0  0  0  0  0  0  0  0  0  0  0  0
  -19.1084  -34.0039   20.3876 C   0  0  0  0  0  0  0  0  0  0  0  0
  -22.9599  -10.0915   20.4833 C   0  0  0  0  0  0  0  0  0  0  0  0
  -24.3840   -9.0723   22.1476 C   0  0  0  0  0  0  0  0  0  0  0  0
  -19.8420  -36.1615   19.5986 C   0  0  0  0  0  0  0  0  0  0  0  0
  -20.1852  -33.4029   19.7366 C   0  0  0  0  0  0  0  0  0  0  0  0
  -22.5189  -29.9547   22.6191 C   0  0  0  0  0  0  0  0  0  0  0  0
  -22.1655   -8.9452   20.4610 C   0  0  0  0  0  0  0  0  0  0  0  0
  -23.5896   -7.9260   22.1254 C   0  0  0  0  0  0  0  0  0  0  0  0
  -21.9068  -28.7081   22.7420 C   0  0  0  0  0  0  0  0  0  0  0  0
  -20.6249   -6.9269   23.4034 C   0  0  0  0  0  0  0  0  0  0  0  0
  -20.2704   -6.3621   24.6285 C   0  0  0  0  0  0  0  0  0  0  0  0
  -23.4185  -27.8097   21.0907 C   0  0  0  0  0  0  0  0  0  0  0  0
  -23.3181  -23.8686   24.6961 C   0  0  0  0  0  0  0  0  0  0  0  0
  -23.1368  -23.5740   22.3050 C   0  0  0  0  0  0  0  0  0  0  0  0
  -21.3728   -4.3063   23.9997 C   0  0  0  0  0  0  0  0  0  0  0  0
  -24.0692  -10.1550   21.3265 C   0  0  0  0  0  0  0  0  0  0  0  0
  -24.7325  -12.4671   22.1762 C   0  0  0  0  0  0  0  0  0  0  0  0
  -20.9359  -35.5708   18.9465 C   0  0  0  0  0  0  0  0  0  0  0  0
  -23.5801  -30.1412   21.7215 C   0  0  0  0  0  0  0  0  0  0  0  0
  -21.1054  -34.1744   19.0066 C   0  0  0  0  0  0  0  0  0  0  0  0
  -24.0440  -29.0590   20.9601 C   0  0  0  0  0  0  0  0  0  0  0  0
  -22.5848  -23.9919   23.5159 C   0  0  0  0  0  0  0  0  0  0  0  0
  -24.6034  -23.3275   24.6653 C   0  0  0  0  0  0  0  0  0  0  0  0
  -24.4221  -23.0329   22.2742 C   0  0  0  0  0  0  0  0  0  0  0  0
  -25.1554  -22.9096   23.4544 C   0  0  0  0  0  0  0  0  0  0  0  0
  -22.4803   -7.8624   21.2821 C   0  0  0  0  0  0  0  0  0  0  0  0
  -22.3547  -27.6361   21.9756 C   0  0  0  0  0  0  0  0  0  0  0  0
  -21.3533   -6.1814   22.4764 C   0  0  0  0  0  0  0  0  0  0  0  0
  -20.6444   -5.0518   24.9267 C   0  0  0  0  0  0  0  0  0  0  0  0
  -21.7273   -4.8711   22.7745 C   0  0  0  0  0  0  0  0  0  0  0  0
  -24.8906  -11.3386   21.3495 C   0  0  0  0  0  0  0  0  0  0  0  0
  -25.7582  -13.3052   21.8129 C   0  0  0  0  0  0  0  0  0  0  0  0
  -23.7467  -12.7339   23.1824 C   0  0  0  0  0  0  0  0  0  0  0  0
  -24.0514  -31.9488   19.1497 C   0  0  0  0  0  0  0  0  0  0  0  0
  -27.0648  -30.7649   19.3498 C   0  0  0  0  0  0  0  0  0  0  0  0
  -29.1342  -28.2771   20.4340 C   0  0  0  0  0  0  0  0  0  0  0  0
  -31.1188  -14.1580   20.5158 C   0  0  0  0  0  0  0  0  0  0  0  0
  -21.8616  -36.4484   18.1417 C   0  0  0  0  0  0  0  0  0  0  0  0
  -24.2472  -31.4855   21.6202 C   0  0  0  0  0  0  0  0  0  0  0  0
  -25.1930  -29.2019   19.9968 C   0  0  0  0  0  0  0  0  0  0  0  0
  -23.1869  -35.7764   17.7920 C   0  0  0  0  0  0  0  0  0  0  0  0
  -28.9539  -13.0926   17.8977 C   0  0  0  0  0  0  0  0  0  0  0  0
  -22.9476  -34.3633   17.2699 C   0  0  0  0  0  0  0  0  0  0  0  0
  -27.6939  -12.6289   18.6308 C   0  0  0  0  0  0  0  0  0  0  0  0
  -30.2198  -12.7555   18.6824 C   0  0  0  0  0  0  0  0  0  0  0  0
  -28.9729  -12.7774   20.8081 C   0  0  0  0  0  0  0  0  0  0  0  0
  -22.2749  -33.4884   18.3345 C   0  0  1  0  0  0  0  0  0  0  0  0
  -24.9832  -31.6892   20.2995 C   0  0  1  0  0  0  0  0  0  0  0  0
  -27.6676  -13.1451   20.0820 C   0  0  2  0  0  0  0  0  0  0  0  0
  -25.3649  -23.2095   25.9456 C   0  0  0  0  0  0  0  0  0  0  0  0
  -24.9874  -22.5943   20.9623 C   0  0  0  0  0  0  0  0  0  0  0  0
  -31.5414  -27.5686   20.4142 C   0  0  0  0  0  0  0  0  0  0  0  0
  -26.7826  -29.8961   16.4385 C   0  0  0  0  0  0  0  0  0  0  0  0
  -28.7645  -28.4016   16.7650 C   0  0  0  0  0  0  0  0  0  0  0  0
  -29.0099  -30.8704   17.0252 C   0  0  0  0  0  0  0  0  0  0  0  0
  -29.3033  -28.3594   23.3876 C   0  0  0  0  0  0  0  0  0  0  0  0
  -21.1938  -24.5770   23.5500 C   0  0  0  0  0  0  0  0  0  0  0  0
  -29.8001  -18.8083   22.6309 C   0  0  0  0  0  0  0  0  0  0  0  0
  -28.4211  -19.1462   23.2001 C   0  0  0  0  0  0  0  0  0  0  0  0
  -30.1310  -17.3260   22.8166 C   0  0  0  0  0  0  0  0  0  0  0  0
  -28.1042  -20.6340   23.0447 C   0  0  0  0  0  0  0  0  0  0  0  0
  -31.4988  -16.9836   22.2188 C   0  0  0  0  0  0  0  0  0  0  0  0
  -26.7135  -20.9646   23.5763 C   0  0  0  0  0  0  0  0  0  0  0  0
  -31.8865  -15.5251   22.4396 C   0  0  0  0  0  0  0  0  0  0  0  0
  -21.1966  -26.0903   23.3632 C   0  0  0  0  0  0  0  0  0  1  0  0
  -27.7766  -29.5539   18.7966 C   0  0  1  0  0  0  0  0  0  0  0  0
  -30.4591  -28.3198   21.1737 C   0  0  2  0  0  0  0  0  0  0  0  0
  -28.0605  -29.6780   17.2730 C   0  0  0  0  0  0  0  0  0  0  0  0
  -25.9345  -11.4468   20.5233 N   0  0  0  0  0  0  0  0  0  0  0  0
  -26.4415  -12.6533   20.8289 N   0  0  0  0  0  0  0  0  0  0  0  0
  -25.8083  -30.5377   19.9288 N   0  0  0  0  0  0  0  0  0  0  0  0
  -30.1315  -13.2744   20.0495 N   0  0  0  0  0  0  0  0  0  0  0  0
  -26.1333  -14.5289   22.2424 N   0  0  0  0  0  0  0  0  0  0  0  0
  -22.7642  -11.7652   23.4288 N   0  0  0  0  0  0  0  0  0  0  0  0
  -26.4585  -22.3615   23.4232 N   0  0  0  0  0  0  0  0  0  0  0  0
  -23.2433  -33.0567   19.3196 N   0  0  0  0  0  0  0  0  0  0  0  0
  -28.9713  -29.3738   19.6143 N   0  0  0  0  0  0  0  0  0  0  0  0
  -30.9563  -14.6073   21.8206 N   0  0  0  0  0  0  0  0  0  0  0  0
  -30.3188  -27.7042   22.5236 N   0  3  0  0  0  0  0  0  0  0  0  0
  -23.7275  -13.8068   23.8322 O   0  0  0  0  0  0  0  0  0  0  0  0
  -24.0657  -31.2003   18.1796 O   0  0  0  0  0  0  0  0  0  0  0  0
  -27.6070  -31.8705   19.2773 O   0  0  0  0  0  0  0  0  0  0  0  0
  -28.3263  -27.3606   20.5671 O   0  0  0  0  0  0  0  0  0  0  0  0
  -32.0715  -14.5239   19.8190 O   0  0  0  0  0  0  0  0  0  0  0  0
  -21.7052   -6.7438   21.2608 O   0  0  0  0  0  0  0  0  0  0  0  0
  -21.7585  -26.4184   22.0932 O   0  0  0  0  0  0  0  0  0  1  0  0
  -20.3052   -4.5101   26.1038 F   0  0  0  0  0  0  0  0  0  0  0  0
  -22.4281   -4.1504   21.8884 F   0  0  0  0  0  0  0  0  0  0  0  0
  1  2  1  0  0  0  0
  1  5  2  0  0  0  0
  2  6  2  0  0  0  0
  3  8  2  0  0  0  0
  3 17  1  0  0  0  0
  4  9  1  0  0  0  0
  4 17  2  0  0  0  0
  5 19  1  0  0  0  0
  6 21  1  0  0  0  0
  7 10  2  0  0  0  0
  7 20  1  0  0  0  0
  8 27  1  0  0  0  0
  9 27  2  0  0  0  0
 10 28  1  0  0  0  0
 11 12  2  0  0  0  0
 11 29  1  0  0  0  0
 12 30  1  0  0  0  0
 13 22  1  0  0  0  0
 13 28  2  0  0  0  0
 14 23  1  0  0  0  0
 14 24  2  0  0  0  0
 15 23  2  0  0  0  0
 15 25  1  0  0  0  0
 16 30  2  0  0  0  0
 16 31  1  0  0  0  0
 17 32  1  0  0  0  0
 18 32  1  0  0  0  0
 18 33  2  0  0  0  0
 18 34  1  0  0  0  0
 19 21  2  0  0  0  0
 19 39  1  0  0  0  0
 20 22  2  0  0  0  0
 20 40  1  0  0  0  0
 21 48  1  0  0  0  0
 22 41  1  0  0  0  0
 23 58  1  0  0  0  0
 24 26  1  0  0  0  0
 24 51  1  0  0  0  0
 25 26  2  0  0  0  0
 25 52  1  0  0  0  0
 26 76  1  0  0  0  0
 27 86  1  0  0  0  0
 28 87  1  0  0  0  0
 29 31  2  0  0  0  0
 29 86  1  0  0  0  0
 30 88  1  0  0  0  0
 31 89  1  0  0  0  0
 32 70  2  0  0  0  0
 33 71  1  0  0  0  0
 33 74  1  0  0  0  0
 34 75  1  0  0  0  0
 34 81  2  0  0  0  0
 35 49  1  0  0  0  0
 35 77  1  0  0  0  0
 35 82  2  0  0  0  0
 36 67  1  0  0  0  0
 36 72  1  0  0  0  0
 36 83  2  0  0  0  0
 37 68  1  0  0  0  0
 37 78  1  0  0  0  0
 37 84  2  0  0  0  0
 38 73  1  0  0  0  0
 38 79  1  0  0  0  0
 38 85  2  0  0  0  0
 39 42  1  0  0  0  0
 40 49  1  0  0  0  0
 41 72  1  0  0  0  0
 42 44  1  0  0  0  0
 43 45  1  0  0  0  0
 43 46  1  0  0  0  0
 44 48  1  0  0  0  0
 45 50  1  0  0  0  0
 46 73  1  0  0  0  0
 47 50  1  0  0  0  0
 47 73  1  0  0  0  0
 48 77  1  0  0  0  0
 49 72  1  0  0  0  0
 50 71  1  0  0  0  0
 53 68  1  0  0  0  0
 54 69  1  0  0  0  0
 55 69  1  0  0  0  0
 56 69  1  0  0  0  0
 57 80  1  0  0  0  0
 58 66  1  0  0  0  0
 59 60  1  0  0  0  0
 59 61  1  0  0  0  0
 60 62  1  0  0  0  0
 61 63  1  0  0  0  0
 62 64  1  0  0  0  0
 63 65  1  0  0  0  0
 64 76  1  0  0  0  0
 65 79  1  0  0  0  0
 66 87  1  0  0  0  0
 67 69  1  0  0  0  0
 67 78  1  0  0  0  0
 68 80  1  0  0  0  0
 70 71  1  0  0  0  0
M  CHG  1  80   1
M  ISO  4  38 100  66 101  79 100  87 101
M  END
> <Batch ID>
0024

> <Smiles>
CNC(C)C(=O)NC(C(=O)N1Cc2cc([101O:1][101CH2:1]Cc3cc(C)c(NCCCCCCC[100NH:0][100C:0](=O)N4CCCC(n5nc(-c6ccc(Oc7ccc(F)cc7F)cc6)c(C(N)=O)c5N)C4)c(C)c3)ccc2CC1C(=O)NC1CCCc2ccccc21)C(C)(C)C

> <Shape>
0.256

> <Color>
0.144

> <Negative vol penalty>
0.000

$$$$

  -OEChem-04052316223D

 86 94  0     1  0  0  0  0  0999 V2000
  -27.3386  -17.7057   18.0832 C   0  0  0  0  0  0  0  0  0  0  0  0
  -26.4263  -18.7246   17.8285 C   0  0  0  0  0  0  0  0  0  0  0  0
  -24.4462  -13.8788   20.1813 C   0  0  0  0  0  0  0  0  0  0  0  0
  -24.7370  -14.3349   22.5359 C   0  0  0  0  0  0  0  0  0  0  0  0
  -28.3410  -17.8908   19.0345 C   0  0  0  0  0  0  0  0  0  0  0  0
  -26.5151  -19.9289   18.5258 C   0  0  0  0  0  0  0  0  0  0  0  0
  -25.2268  -25.5227   16.3915 C   0  0  0  0  0  0  0  0  0  0  0  0
  -25.5623  -13.0427   20.2053 C   0  0  0  0  0  0  0  0  0  0  0  0
  -25.8531  -13.4986   22.5600 C   0  0  0  0  0  0  0  0  0  0  0  0
  -24.0990  -26.3342   16.5075 C   0  0  0  0  0  0  0  0  0  0  0  0
  -28.5497  -11.0699   19.5668 C   0  0  0  0  0  0  0  0  0  0  0  0
  -29.4769  -11.1935   18.5322 C   0  0  0  0  0  0  0  0  0  0  0  0
  -25.1212  -27.4782   18.3691 C   0  0  0  0  0  0  0  0  0  0  0  0
  -22.7144  -27.7154   21.3880 C   0  0  0  0  0  0  0  0  0  0  0  0
  -29.8553  -13.4992   19.1467 C   0  0  0  0  0  0  0  0  0  0  0  0
  -24.0335  -14.5250   21.3466 C   0  0  0  0  0  0  0  0  0  0  0  0
  -21.5413  -15.0268   21.5581 C   0  0  0  0  0  0  0  0  0  0  0  0
  -28.4481  -19.1015   19.7369 C   0  0  0  0  0  0  0  0  0  0  0  0
  -26.3075  -25.6759   17.2718 C   0  0  0  0  0  0  0  0  0  0  0  0
  -27.5190  -20.1298   19.4884 C   0  0  0  0  0  0  0  0  0  0  0  0
  -26.2626  -26.6691   18.2605 C   0  0  0  0  0  0  0  0  0  0  0  0
  -20.6167  -25.9006   21.6861 C   0  0  0  0  0  0  0  0  0  0  0  0
  -21.8978  -25.5636   22.1229 C   0  0  0  0  0  0  0  0  0  0  0  0
  -21.4333  -28.0524   20.9511 C   0  0  0  0  0  0  0  0  0  0  0  0
  -26.2658  -12.8525   21.3947 C   0  0  0  0  0  0  0  0  0  0  0  0
  -24.0449  -27.3102   17.4983 C   0  0  0  0  0  0  0  0  0  0  0  0
  -28.2751  -12.1610   20.3914 C   0  0  0  0  0  0  0  0  0  0  0  0
  -30.1298  -12.4081   18.3221 C   0  0  0  0  0  0  0  0  0  0  0  0
  -28.9280  -13.3756   20.1814 C   0  0  0  0  0  0  0  0  0  0  0  0
  -22.9467  -26.4710   21.9739 C   0  0  0  0  0  0  0  0  0  0  0  0
  -20.3845  -27.1450   21.1002 C   0  0  0  0  0  0  0  0  0  0  0  0
  -22.8810  -15.3894   21.3222 C   0  0  0  0  0  0  0  0  0  0  0  0
  -20.8388  -16.1987   21.4187 C   0  0  0  0  0  0  0  0  0  0  0  0
  -20.9820  -13.7452   21.8749 C   0  0  0  0  0  0  0  0  0  0  0  0
  -27.7269  -23.8184   19.4256 C   0  0  0  0  0  0  0  0  0  0  0  0
  -29.8253  -26.2861   19.5978 C   0  0  0  0  0  0  0  0  0  0  0  0
  -30.4280  -29.6140   19.1409 C   0  0  0  0  0  0  0  0  0  0  0  0
  -22.4242  -21.8423   22.1204 C   0  0  0  0  0  0  0  0  0  0  0  0
  -29.5194  -19.2376   20.7897 C   0  0  0  0  0  0  0  0  0  0  0  0
  -27.5279  -24.8104   17.1164 C   0  0  0  0  0  0  0  0  0  0  0  0
  -27.4048  -26.8875   19.2177 C   0  0  0  0  0  0  0  0  0  0  0  0
  -29.7737  -20.6809   21.2168 C   0  0  0  0  0  0  0  0  0  0  0  0
  -20.9806  -20.4005   19.1313 C   0  0  0  0  0  0  0  0  0  0  0  0
  -28.4544  -21.4010   21.4771 C   0  0  0  0  0  0  0  0  0  0  0  0
  -21.1822  -18.9058   19.3867 C   0  0  0  0  0  0  0  0  0  0  0  0
  -22.1653  -21.2137   19.6444 C   0  0  0  0  0  0  0  0  0  0  0  0
  -22.6859  -19.5041   21.3414 C   0  0  0  0  0  0  0  0  0  0  0  0
  -27.5978  -21.4596   20.2066 C   0  0  1  0  0  0  0  0  0  0  0  0
  -28.3563  -24.7109   18.3936 C   0  0  1  0  0  0  0  0  0  0  0  0
  -21.5117  -18.6294   20.8656 C   0  0  2  0  0  0  0  0  0  0  0  0
  -19.5025  -24.9136   21.8543 C   0  0  0  0  0  0  0  0  0  0  0  0
  -32.2259  -31.3447   19.4044 C   0  0  0  0  0  0  0  0  0  0  0  0
  -29.3568  -26.3102   22.6128 C   0  0  0  0  0  0  0  0  0  0  0  0
  -30.3919  -28.5888   22.6851 C   0  0  0  0  0  0  0  0  0  0  0  0
  -31.7396  -26.6322   21.9247 C   0  0  0  0  0  0  0  0  0  0  0  0
  -21.5204  -30.5261   21.1331 C   0  0  0  0  0  0  0  0  0  0  0  0
  -30.4283  -30.2222   16.2446 C   0  0  0  0  0  0  0  0  0  0  0  0
  -22.1351  -24.2248   22.7505 C   0  0  0  0  0  0  0  0  0  0  0  0
  -21.8054  -30.1474   18.1447 C   0  0  0  0  0  0  0  0  0  0  0  0
  -20.7647  -29.4460   19.0092 C   0  0  0  0  0  0  0  0  0  0  0  0
  -23.1457  -29.4220   18.1209 C   0  0  0  0  0  0  0  0  0  1  0  0
  -29.9262  -27.5483   20.4198 C   0  0  1  0  0  0  0  0  0  0  0  0
  -31.5710  -30.3468   18.4621 C   0  0  2  0  0  0  0  0  0  0  0  0
  -30.3311  -27.2647   21.8939 C   0  0  0  0  0  0  0  0  0  0  0  0
  -23.0235  -16.6899   21.0533 N   0  0  0  0  0  0  0  0  0  0  0  0
  -21.7642  -17.1547   21.1192 N   0  0  0  0  0  0  0  0  0  0  0  0
  -28.5733  -26.0120   19.0294 N   0  0  0  0  0  0  0  0  0  0  0  0
  -22.4144  -20.9182   21.0624 N   0  0  0  0  0  0  0  0  0  0  0  0
  -19.5258  -16.4944   21.5244 N   0  0  0  0  0  0  0  0  0  0  0  0
  -21.8460  -12.6466   21.9802 N   0  0  0  0  0  0  0  0  0  0  0  0
  -28.0867  -22.4889   19.3145 N   0  0  0  0  0  0  0  0  0  0  0  0
  -30.8458  -28.4278   19.7062 N   0  0  0  0  0  0  0  0  0  0  0  0
  -22.1647  -23.1618   21.7707 N   0  0  0  0  0  0  0  0  0  0  0  0
  -21.2352  -29.3116   20.3667 N   0  0  3  0  0  0  0  0  0  0  0  0
  -31.0754  -31.0851   17.2662 N   0  3  0  0  0  0  0  0  0  0  0  0
  -19.7505  -13.5760   22.0430 O   0  0  0  0  0  0  0  0  0  0  0  0
  -26.9720  -24.3006   20.2618 O   0  0  0  0  0  0  0  0  0  0  0  0
  -30.8226  -25.5735   19.4591 O   0  0  0  0  0  0  0  0  0  0  0  0
  -29.2800  -30.0520   19.1703 O   0  0  0  0  0  0  0  0  0  0  0  0
  -22.6427  -21.5148   23.2918 O   0  0  0  0  0  0  0  0  0  0  0  0
  -27.3548  -12.0364   21.4186 O   0  0  0  0  0  0  0  0  0  0  0  0
  -22.9451  -28.1031   17.6142 O   0  0  0  0  0  0  0  0  0  1  0  0
  -31.0214  -12.5263   17.3295 F   0  0  0  0  0  0  0  0  0  0  0  0
  -28.6693  -14.4270   20.9710 F   0  0  0  0  0  0  0  0  0  0  0  0
  -24.5468  -26.0927   22.5012 Cl  0  0  0  0  0  0  0  0  0  0  0  0
  -18.7912  -27.5626   20.5574 Cl  0  0  0  0  0  0  0  0  0  0  0  0
  1  2  1  0  0  0  0
  1  5  2  0  0  0  0
  2  6  2  0  0  0  0
  3  8  2  0  0  0  0
  3 16  1  0  0  0  0
  4  9  1  0  0  0  0
  4 16  2  0  0  0  0
  5 18  1  0  0  0  0
  6 20  1  0  0  0  0
  7 10  2  0  0  0  0
  7 19  1  0  0  0  0
  8 25  1  0  0  0  0
  9 25  2  0  0  0  0
 10 26  1  0  0  0  0
 11 12  2  0  0  0  0
 11 27  1  0  0  0  0
 12 28  1  0  0  0  0
 13 21  1  0  0  0  0
 13 26  2  0  0  0  0
 14 24  1  0  0  0  0
 14 30  2  0  0  0  0
 15 28  2  0  0  0  0
 15 29  1  0  0  0  0
 16 32  1  0  0  0  0
 17 32  1  0  0  0  0
 17 33  2  0  0  0  0
 17 34  1  0  0  0  0
 18 20  2  0  0  0  0
 18 39  1  0  0  0  0
 19 21  2  0  0  0  0
 19 40  1  0  0  0  0
 20 48  1  0  0  0  0
 21 41  1  0  0  0  0
 22 23  2  0  0  0  0
 22 31  1  0  0  0  0
 22 51  1  0  0  0  0
 23 30  1  0  0  0  0
 23 58  1  0  0  0  0
 24 31  2  0  0  0  0
 24 74  1  0  0  0  0
 25 81  1  0  0  0  0
 26 82  1  0  0  0  0
 27 29  2  0  0  0  0
 27 81  1  0  0  0  0
 28 83  1  0  0  0  0
 29 84  1  0  0  0  0
 30 85  1  0  0  0  0
 31 86  1  0  0  0  0
 32 65  2  0  0  0  0
 33 66  1  0  0  0  0
 33 69  1  0  0  0  0
 34 70  1  0  0  0  0
 34 76  2  0  0  0  0
 35 49  1  0  0  0  0
 35 71  1  0  0  0  0
 35 77  2  0  0  0  0
 36 62  1  0  0  0  0
 36 67  1  0  0  0  0
 36 78  2  0  0  0  0
 37 63  1  0  0  0  0
 37 72  1  0  0  0  0
 37 79  2  0  0  0  0
 38 68  1  0  0  0  0
 38 73  1  0  0  0  0
 38 80  2  0  0  0  0
 39 42  1  0  0  0  0
 40 49  1  0  0  0  0
 41 67  1  0  0  0  0
 42 44  1  0  0  0  0
 43 45  1  0  0  0  0
 43 46  1  0  0  0  0
 44 48  1  0  0  0  0
 45 50  1  0  0  0  0
 46 68  1  0  0  0  0
 47 50  1  0  0  0  0
 47 68  1  0  0  0  0
 48 71  1  0  0  0  0
 49 67  1  0  0  0  0
 50 66  1  0  0  0  0
 52 63  1  0  0  0  0
 53 64  1  0  0  0  0
 54 64  1  0  0  0  0
 55 64  1  0  0  0  0
 56 74  1  0  0  0  0
 57 75  1  0  0  0  0
 58 73  1  0  0  0  0
 59 60  1  0  0  0  0
 59 61  1  0  0  0  0
 60 74  1  0  0  0  0
 61 82  1  0  0  0  0
 62 64  1  0  0  0  0
 62 72  1  0  0  0  0
 63 75  1  0  0  0  0
 65 66  1  0  0  0  0
M  CHG  1  75   1
M  ISO  4  38 100  61 101  73 100  82 101
M  END
> <Batch ID>
0024

> <Smiles>
CNC(C)C(=O)NC(C(=O)N1Cc2cc([101O:1][101CH2:1]CCN(C)c3cc(Cl)c(C[100NH:0][100C:0](=O)N4CCCC(n5nc(-c6ccc(Oc7ccc(F)cc7F)cc6)c(C(N)=O)c5N)C4)c(C)c3Cl)ccc2CC1C(=O)NC1CCCc2ccccc21)C(C)(C)C

> <Shape>
0.211

> <Color>
0.056

> <Negative vol penalty>
0.000

$$$$

  -OEChem-04052316223D

 86 94  0     1  0  0  0  0  0999 V2000
  -16.6824  -28.6156   23.7525 C   0  0  0  0  0  0  0  0  0  0  0  0
  -17.3329  -27.9979   22.6891 C   0  0  0  0  0  0  0  0  0  0  0  0
  -24.1106   -9.8372   22.1606 C   0  0  0  0  0  0  0  0  0  0  0  0
  -23.0950  -11.8563   23.0143 C   0  0  0  0  0  0  0  0  0  0  0  0
  -17.2247  -29.7640   24.3278 C   0  0  0  0  0  0  0  0  0  0  0  0
  -18.5256  -28.5291   22.1996 C   0  0  0  0  0  0  0  0  0  0  0  0
  -22.0403  -24.9775   21.3760 C   0  0  0  0  0  0  0  0  0  0  0  0
  -23.3978   -9.0842   23.0936 C   0  0  0  0  0  0  0  0  0  0  0  0
  -22.3821  -11.1033   23.9473 C   0  0  0  0  0  0  0  0  0  0  0  0
  -21.9135  -24.2129   20.2171 C   0  0  0  0  0  0  0  0  0  0  0  0
  -20.2554   -7.8883   23.4516 C   0  0  0  0  0  0  0  0  0  0  0  0
  -19.6346   -6.7218   23.0049 C   0  0  0  0  0  0  0  0  0  0  0  0
  -23.5779  -25.5851   19.1371 C   0  0  0  0  0  0  0  0  0  0  0  0
  -20.9487   -5.4257   24.5639 C   0  0  0  0  0  0  0  0  0  0  0  0
  -23.9593  -11.2233   22.1210 C   0  0  0  0  0  0  0  0  0  0  0  0
  -24.2893  -12.3483   19.8554 C   0  0  0  0  0  0  0  0  0  0  0  0
  -18.4298  -30.3039   23.8513 C   0  0  0  0  0  0  0  0  0  0  0  0
  -22.9304  -26.0602   21.4207 C   0  0  0  0  0  0  0  0  0  0  0  0
  -19.0839  -29.6866   22.7681 C   0  0  0  0  0  0  0  0  0  0  0  0
  -23.7159  -26.3602   20.2986 C   0  0  0  0  0  0  0  0  0  0  0  0
  -28.2466  -21.2573   19.1872 C   0  0  0  0  0  0  0  0  0  0  0  0
  -27.1699  -20.5538   17.1421 C   0  0  0  0  0  0  0  0  0  0  0  0
  -27.9719  -18.9040   18.7144 C   0  0  0  0  0  0  0  0  0  0  0  0
  -22.5335   -9.7172   23.9869 C   0  0  0  0  0  0  0  0  0  0  0  0
  -22.6803  -24.5184   19.0964 C   0  0  0  0  0  0  0  0  0  0  0  0
  -21.2228   -7.8236   24.4543 C   0  0  0  0  0  0  0  0  0  0  0  0
  -19.9813   -5.4905   23.5611 C   0  0  0  0  0  0  0  0  0  0  0  0
  -21.5695   -6.5922   25.0105 C   0  0  0  0  0  0  0  0  0  0  0  0
  -27.6204  -21.5727   17.9814 C   0  0  0  0  0  0  0  0  0  0  0  0
  -28.4224  -19.9230   19.5537 C   0  0  0  0  0  0  0  0  0  0  0  0
  -27.3456  -19.2194   17.5086 C   0  0  0  0  0  0  0  0  0  0  0  0
  -24.6958  -12.0018   21.1579 C   0  0  0  0  0  0  0  0  0  0  0  0
  -25.3338  -13.0864   19.3547 C   0  0  0  0  0  0  0  0  0  0  0  0
  -23.0760  -12.0314   19.1603 C   0  0  0  0  0  0  0  0  0  0  0  0
  -22.6295  -29.1951   21.8515 C   0  0  0  0  0  0  0  0  0  0  0  0
  -25.8723  -29.1131   21.8478 C   0  0  0  0  0  0  0  0  0  0  0  0
  -28.7287  -27.5049   20.8984 C   0  0  0  0  0  0  0  0  0  0  0  0
  -29.1991  -17.0558   19.9079 C   0  0  0  0  0  0  0  0  0  0  0  0
  -18.9527  -31.5739   24.4745 C   0  0  0  0  0  0  0  0  0  0  0  0
  -23.0749  -26.8586   22.6872 C   0  0  0  0  0  0  0  0  0  0  0  0
  -24.7009  -27.4997   20.3019 C   0  0  0  0  0  0  0  0  0  0  0  0
  -20.4149  -31.8588   24.1410 C   0  0  0  0  0  0  0  0  0  0  0  0
  -30.0087  -13.8194   21.1518 C   0  0  0  0  0  0  0  0  0  0  0  0
  -20.6696  -31.6658   22.6494 C   0  0  0  0  0  0  0  0  0  0  0  0
  -28.6652  -13.0865   21.1571 C   0  0  0  0  0  0  0  0  0  0  0  0
  -29.8534  -15.2912   21.5306 C   0  0  0  0  0  0  0  0  0  0  0  0
  -27.5173  -15.3006   20.7484 C   0  0  0  0  0  0  0  0  0  0  0  0
  -20.3926  -30.2184   22.2253 C   0  0  1  0  0  0  0  0  0  0  0  0
  -23.6381  -28.2566   22.4513 C   0  0  1  0  0  0  0  0  0  0  0  0
  -27.6142  -13.8302   20.3099 C   0  0  2  0  0  0  0  0  0  0  0  0
  -28.7289  -22.3471   20.0845 C   0  0  0  0  0  0  0  0  0  0  0  0
  -31.1852  -27.0142   20.7507 C   0  0  0  0  0  0  0  0  0  0  0  0
  -25.7991  -31.2502   19.6712 C   0  0  0  0  0  0  0  0  0  0  0  0
  -28.1926  -30.7178   19.1652 C   0  0  0  0  0  0  0  0  0  0  0  0
  -27.5601  -31.5952   21.4131 C   0  0  0  0  0  0  0  0  0  0  0  0
  -28.6560  -25.8186   23.3294 C   0  0  0  0  0  0  0  0  0  0  0  0
  -26.4982  -20.9390   15.8480 C   0  0  0  0  0  0  0  0  0  0  0  0
  -24.9687  -20.8458   15.8922 C   0  0  0  0  0  0  0  0  0  0  0  0
  -24.3485  -21.6946   17.0065 C   0  0  0  0  0  0  0  0  0  0  0  0
  -22.8240  -21.5957   16.9938 C   0  0  0  0  0  0  0  0  0  0  0  0
  -22.1995  -22.4022   18.1236 C   0  0  0  0  0  0  0  0  0  1  0  0
  -26.9433  -29.2239   20.7897 C   0  0  1  0  0  0  0  0  0  0  0  0
  -29.9815  -27.1358   21.6721 C   0  0  2  0  0  0  0  0  0  0  0  0
  -27.1039  -30.6765   20.2588 C   0  0  0  0  0  0  0  0  0  0  0  0
  -25.9043  -12.4802   21.4653 N   0  0  0  0  0  0  0  0  0  0  0  0
  -26.2662  -13.1349   20.3488 N   0  0  0  0  0  0  0  0  0  0  0  0
  -24.8013  -28.2546   21.5618 N   0  0  0  0  0  0  0  0  0  0  0  0
  -28.8448  -15.9317   20.6836 N   0  0  0  0  0  0  0  0  0  0  0  0
  -25.5365  -13.6920   18.1653 N   0  0  0  0  0  0  0  0  0  0  0  0
  -22.1079  -11.2638   19.8219 N   0  0  0  0  0  0  0  0  0  0  0  0
  -28.1665  -17.5597   19.1177 N   0  0  0  0  0  0  0  0  0  0  0  0
  -21.4895  -29.3587   22.6151 N   0  0  0  0  0  0  0  0  0  0  0  0
  -28.1563  -28.6647   21.3765 N   0  0  0  0  0  0  0  0  0  0  0  0
  -29.7928  -25.8343   22.3731 N   0  3  0  0  0  0  0  0  0  0  0  0
  -22.8638  -12.4036   17.9813 O   0  0  0  0  0  0  0  0  0  0  0  0
  -22.8685  -29.7322   20.7763 O   0  0  0  0  0  0  0  0  0  0  0  0
  -25.9854  -29.7589   22.8927 O   0  0  0  0  0  0  0  0  0  0  0  0
  -28.3027  -26.8337   19.9610 O   0  0  0  0  0  0  0  0  0  0  0  0
  -30.3423  -17.5195   19.9215 O   0  0  0  0  0  0  0  0  0  0  0  0
  -21.8376   -8.9827   24.8972 O   0  0  0  0  0  0  0  0  0  0  0  0
  -22.5580  -23.7742   17.9637 O   0  0  0  0  0  0  0  0  0  1  0  0
  -19.3840   -4.3705   23.1332 F   0  0  0  0  0  0  0  0  0  0  0  0
  -22.4973   -6.5238   25.9750 F   0  0  0  0  0  0  0  0  0  0  0  0
  -27.4527  -22.8566   17.6305 F   0  0  0  0  0  0  0  0  0  0  0  0
  -29.0251  -19.6237   20.7146 F   0  0  0  0  0  0  0  0  0  0  0  0
  -26.7836  -17.9567   16.4614 Cl  0  0  0  0  0  0  0  0  0  0  0  0
  1  2  1  0  0  0  0
  1  5  2  0  0  0  0
  2  6  2  0  0  0  0
  3  8  2  0  0  0  0
  3 15  1  0  0  0  0
  4  9  1  0  0  0  0
  4 15  2  0  0  0  0
  5 17  1  0  0  0  0
  6 19  1  0  0  0  0
  7 10  2  0  0  0  0
  7 18  1  0  0  0  0
  8 24  1  0  0  0  0
  9 24  2  0  0  0  0
 10 25  1  0  0  0  0
 11 12  2  0  0  0  0
 11 26  1  0  0  0  0
 12 27  1  0  0  0  0
 13 20  1  0  0  0  0
 13 25  2  0  0  0  0
 14 27  2  0  0  0  0
 14 28  1  0  0  0  0
 15 32  1  0  0  0  0
 16 32  1  0  0  0  0
 16 33  2  0  0  0  0
 16 34  1  0  0  0  0
 17 19  2  0  0  0  0
 17 39  1  0  0  0  0
 18 20  2  0  0  0  0
 18 40  1  0  0  0  0
 19 48  1  0  0  0  0
 20 41  1  0  0  0  0
 21 29  2  0  0  0  0
 21 30  1  0  0  0  0
 21 51  1  0  0  0  0
 22 29  1  0  0  0  0
 22 31  2  0  0  0  0
 22 57  1  0  0  0  0
 23 30  2  0  0  0  0
 23 31  1  0  0  0  0
 23 71  1  0  0  0  0
 24 80  1  0  0  0  0
 25 81  1  0  0  0  0
 26 28  2  0  0  0  0
 26 80  1  0  0  0  0
 27 82  1  0  0  0  0
 28 83  1  0  0  0  0
 29 84  1  0  0  0  0
 30 85  1  0  0  0  0
 31 86  1  0  0  0  0
 32 65  2  0  0  0  0
 33 66  1  0  0  0  0
 33 69  1  0  0  0  0
 34 70  1  0  0  0  0
 34 75  2  0  0  0  0
 35 49  1  0  0  0  0
 35 72  1  0  0  0  0
 35 76  2  0  0  0  0
 36 62  1  0  0  0  0
 36 67  1  0  0  0  0
 36 77  2  0  0  0  0
 37 63  1  0  0  0  0
 37 73  1  0  0  0  0
 37 78  2  0  0  0  0
 38 68  1  0  0  0  0
 38 71  1  0  0  0  0
 38 79  2  0  0  0  0
 39 42  1  0  0  0  0
 40 49  1  0  0  0  0
 41 67  1  0  0  0  0
 42 44  1  0  0  0  0
 43 45  1  0  0  0  0
 43 46  1  0  0  0  0
 44 48  1  0  0  0  0
 45 50  1  0  0  0  0
 46 68  1  0  0  0  0
 47 50  1  0  0  0  0
 47 68  1  0  0  0  0
 48 72  1  0  0  0  0
 49 67  1  0  0  0  0
 50 66  1  0  0  0  0
 52 63  1  0  0  0  0
 53 64  1  0  0  0  0
 54 64  1  0  0  0  0
 55 64  1  0  0  0  0
 56 74  1  0  0  0  0
 57 58  1  0  0  0  0
 58 59  1  0  0  0  0
 59 60  1  0  0  0  0
 60 61  1  0  0  0  0
 61 81  1  0  0  0  0
 62 64  1  0  0  0  0
 62 73  1  0  0  0  0
 63 74  1  0  0  0  0
 65 66  1  0  0  0  0
M  CHG  1  74   1
M  ISO  4  38 100  61 101  71 100  81 101
M  END
> <Batch ID>
0024

> <Smiles>
CNC(C)C(=O)NC(C(=O)N1Cc2cc([101O:1][101CH2:1]CCCCc3c(F)c(C)c(F)c([100NH:0][100C:0](=O)N4CCCC(n5nc(-c6ccc(Oc7ccc(F)cc7F)cc6)c(C(N)=O)c5N)C4)c3Cl)ccc2CC1C(=O)NC1CCCc2ccccc21)C(C)(C)C

> <Shape>
0.278

> <Color>
0.101

> <Negative vol penalty>
0.000

$$$$

  -OEChem-04052316223D

 88 96  0     1  0  0  0  0  0999 V2000
  -24.0827   -7.5965   25.6005 C   0  0  0  0  0  0  0  0  0  0  0  0
  -25.2849   -8.1867   25.2242 C   0  0  0  0  0  0  0  0  0  0  0  0
  -24.1649  -30.6754   20.4484 C   0  0  0  0  0  0  0  0  0  0  0  0
  -23.7856  -29.1334   22.2693 C   0  0  0  0  0  0  0  0  0  0  0  0
  -22.9723   -7.6830   24.7618 C   0  0  0  0  0  0  0  0  0  0  0  0
  -25.3778   -8.8630   24.0083 C   0  0  0  0  0  0  0  0  0  0  0  0
  -28.7267  -13.8499   22.8158 C   0  0  0  0  0  0  0  0  0  0  0  0
  -23.1985  -31.5332   20.9734 C   0  0  0  0  0  0  0  0  0  0  0  0
  -22.8192  -29.9913   22.7944 C   0  0  0  0  0  0  0  0  0  0  0  0
  -29.9747  -14.0208   22.2183 C   0  0  0  0  0  0  0  0  0  0  0  0
  -19.5858  -30.7710   22.1877 C   0  0  0  0  0  0  0  0  0  0  0  0
  -18.3843  -30.2079   22.6179 C   0  0  0  0  0  0  0  0  0  0  0  0
  -28.8964  -14.4623   20.1061 C   0  0  0  0  0  0  0  0  0  0  0  0
  -18.7923  -31.0414   24.8486 C   0  0  0  0  0  0  0  0  0  0  0  0
  -24.4584  -29.4754   21.0962 C   0  0  0  0  0  0  0  0  0  0  0  0
  -26.8349  -28.5848   20.8383 C   0  0  0  0  0  0  0  0  0  0  0  0
  -23.0489   -8.3690   23.5394 C   0  0  0  0  0  0  0  0  0  0  0  0
  -27.5525  -13.9734   22.0592 C   0  0  0  0  0  0  0  0  0  0  0  0
  -24.2678   -8.9577   23.1518 C   0  0  0  0  0  0  0  0  0  0  0  0
  -27.6346  -14.2950   20.6969 C   0  0  0  0  0  0  0  0  0  0  0  0
  -31.1282  -19.6867   19.6614 C   0  0  0  0  0  0  0  0  0  0  0  0
  -22.5257  -31.1912   22.1465 C   0  0  0  0  0  0  0  0  0  0  0  0
  -30.0598  -14.3242   20.8626 C   0  0  0  0  0  0  0  0  0  0  0  0
  -20.3906  -31.4692   23.0880 C   0  0  0  0  0  0  0  0  0  0  0  0
  -17.9875  -30.3432   23.9482 C   0  0  0  0  0  0  0  0  0  0  0  0
  -19.9939  -31.6044   24.4184 C   0  0  0  0  0  0  0  0  0  0  0  0
  -31.0078  -20.7579   20.5396 C   0  0  0  0  0  0  0  0  0  0  0  0
  -29.9764  -21.6751   20.3714 C   0  0  0  0  0  0  0  0  0  0  0  0
  -25.4562  -28.5885   20.5540 C   0  0  0  0  0  0  0  0  0  0  0  0
  -30.1988  -19.5782   18.6395 C   0  0  0  0  0  0  0  0  0  0  0  0
  -29.0987  -21.4777   19.3176 C   0  0  0  0  0  0  0  0  0  0  0  0
  -27.3398  -27.5595   20.0764 C   0  0  0  0  0  0  0  0  0  0  0  0
  -27.5916  -29.4322   21.7129 C   0  0  0  0  0  0  0  0  0  0  0  0
  -25.1625  -12.0230   21.2926 C   0  0  0  0  0  0  0  0  0  0  0  0
  -23.8980  -14.7145   19.9970 C   0  0  0  0  0  0  0  0  0  0  0  0
  -24.4222  -17.8221   18.6875 C   0  0  0  0  0  0  0  0  0  0  0  0
  -27.0650  -22.3549   18.1171 C   0  0  0  0  0  0  0  0  0  0  0  0
  -21.8352   -8.3954   22.6445 C   0  0  0  0  0  0  0  0  0  0  0  0
  -26.2131  -13.8123   22.7245 C   0  0  0  0  0  0  0  0  0  0  0  0
  -26.4033  -14.4584   19.8451 C   0  0  0  0  0  0  0  0  0  0  0  0
  -21.9124   -9.4510   21.5445 C   0  0  0  0  0  0  0  0  0  0  0  0
  -25.2031  -24.8424   16.3786 C   0  0  0  0  0  0  0  0  0  0  0  0
  -23.2746   -9.4095   20.8593 C   0  0  0  0  0  0  0  0  0  0  0  0
  -25.2164  -26.0385   17.3333 C   0  0  0  0  0  0  0  0  0  0  0  0
  -25.1021  -23.5170   17.1314 C   0  0  0  0  0  0  0  0  0  0  0  0
  -26.1210  -24.5185   19.1384 C   0  0  0  0  0  0  0  0  0  0  0  0
  -24.4011   -9.7212   21.8520 C   0  0  1  0  0  0  0  0  0  0  0  0
  -25.0990  -13.4541   21.7458 C   0  0  1  0  0  0  0  0  0  0  0  0
  -26.2870  -25.8727   18.4295 C   0  0  2  0  0  0  0  0  0  0  0  0
  -30.2744  -18.4487   17.6647 C   0  0  0  0  0  0  0  0  0  0  0  0
  -23.1983  -19.7670   17.6792 C   0  0  0  0  0  0  0  0  0  0  0  0
  -23.5820  -13.1610   17.3900 C   0  0  0  0  0  0  0  0  0  0  0  0
  -23.2696  -15.3455   16.2073 C   0  0  0  0  0  0  0  0  0  0  0  0
  -21.6475  -14.6378   17.9653 C   0  0  0  0  0  0  0  0  0  0  0  0
  -25.3244  -19.6510   20.8323 C   0  0  0  0  0  0  0  0  0  0  0  0
  -32.2261  -18.6629   19.7972 C   0  0  0  0  0  0  0  0  0  0  0  0
  -31.7126  -17.3613   20.4177 C   0  0  0  0  0  0  0  0  0  0  0  0
  -32.8310  -16.3182   20.5213 C   0  0  0  0  0  0  0  0  0  0  0  0
  -23.9653  -15.3841   18.6457 C   0  0  1  0  0  0  0  0  0  0  0  0
  -23.7495  -19.1558   18.9580 C   0  0  2  0  0  0  0  0  0  0  0  0
  -32.3303  -14.9913   21.0990 C   0  0  2  0  0  0  0  0  0  1  0  0
  -23.1395  -14.6272   17.5674 C   0  0  0  0  0  0  0  0  0  0  0  0
  -33.4351  -13.9548   21.1584 C   0  0  0  0  0  0  0  0  0  0  0  0
  -25.1074  -27.6410   19.6796 N   0  0  0  0  0  0  0  0  0  0  0  0
  -29.1835  -20.4492   18.4443 N   0  0  0  0  0  0  0  0  0  0  0  0
  -26.2743  -27.0323   19.4078 N   0  0  0  0  0  0  0  0  0  0  0  0
  -25.1171  -14.2850   20.5401 N   0  0  0  0  0  0  0  0  0  0  0  0
  -26.1502  -23.4285   18.1505 N   0  0  0  0  0  0  0  0  0  0  0  0
  -28.5868  -27.0667   19.9197 N   0  0  0  0  0  0  0  0  0  0  0  0
  -26.9158  -30.4355   22.4207 N   0  0  0  0  0  0  0  0  0  0  0  0
  -28.0366  -22.3939   19.1166 N   0  0  0  0  0  0  0  0  0  0  0  0
  -24.4720  -11.1443   22.1054 N   0  0  0  0  0  0  0  0  0  0  0  0
  -23.5502  -16.7671   18.8542 N   0  0  0  0  0  0  0  0  0  0  0  0
  -24.7213  -20.1143   19.5561 N   0  3  0  0  0  0  0  0  0  0  0  0
  -28.8329  -29.3141   21.8498 O   0  0  0  0  0  0  0  0  0  0  0  0
  -25.7902  -11.7372   20.2796 O   0  0  0  0  0  0  0  0  0  0  0  0
  -22.8048  -14.5841   20.5535 O   0  0  0  0  0  0  0  0  0  0  0  0
  -25.6022  -17.7261   18.3574 O   0  0  0  0  0  0  0  0  0  0  0  0
  -27.0085  -21.4809   17.2481 O   0  0  0  0  0  0  0  0  0  0  0  0
  -21.5828  -32.0282   22.6593 O   0  0  0  0  0  0  0  0  0  0  0  0
  -31.2767  -14.4909   20.2768 O   0  0  0  0  0  0  0  0  0  1  0  0
  -16.8330  -29.8038   24.3608 F   0  0  0  0  0  0  0  0  0  0  0  0
  -20.7623  -32.2750   25.2877 F   0  0  0  0  0  0  0  0  0  0  0  0
  -32.9716  -12.7772   21.6314 F   0  0  0  0  0  0  0  0  0  0  0  0
  -34.4482  -14.3517   21.9573 F   0  0  0  0  0  0  0  0  0  0  0  0
  -33.9446  -13.7248   19.9280 F   0  0  0  0  0  0  0  0  0  0  0  0
  -32.1568  -20.9248   21.8295 Cl  0  0  0  0  0  0  0  0  0  0  0  0
  -29.7835  -23.0275   21.4373 Cl  0  0  0  0  0  0  0  0  0  0  0  0
  1  2  1  0  0  0  0
  1  5  2  0  0  0  0
  2  6  2  0  0  0  0
  3  8  2  0  0  0  0
  3 15  1  0  0  0  0
  4  9  1  0  0  0  0
  4 15  2  0  0  0  0
  5 17  1  0  0  0  0
  6 19  1  0  0  0  0
  7 10  2  0  0  0  0
  7 18  1  0  0  0  0
  8 22  1  0  0  0  0
  9 22  2  0  0  0  0
 10 23  1  0  0  0  0
 11 12  2  0  0  0  0
 11 24  1  0  0  0  0
 12 25  1  0  0  0  0
 13 20  1  0  0  0  0
 13 23  2  0  0  0  0
 14 25  2  0  0  0  0
 14 26  1  0  0  0  0
 15 29  1  0  0  0  0
 16 29  1  0  0  0  0
 16 32  2  0  0  0  0
 16 33  1  0  0  0  0
 17 19  2  0  0  0  0
 17 38  1  0  0  0  0
 18 20  2  0  0  0  0
 18 39  1  0  0  0  0
 19 47  1  0  0  0  0
 20 40  1  0  0  0  0
 21 27  2  0  0  0  0
 21 30  1  0  0  0  0
 21 56  1  0  0  0  0
 22 80  1  0  0  0  0
 23 81  1  0  0  0  0
 24 26  2  0  0  0  0
 24 80  1  0  0  0  0
 25 82  1  0  0  0  0
 26 83  1  0  0  0  0
 27 28  1  0  0  0  0
 27 87  1  0  0  0  0
 28 31  2  0  0  0  0
 28 88  1  0  0  0  0
 29 64  2  0  0  0  0
 30 50  1  0  0  0  0
 30 65  2  0  0  0  0
 31 65  1  0  0  0  0
 31 71  1  0  0  0  0
 32 66  1  0  0  0  0
 32 69  1  0  0  0  0
 33 70  1  0  0  0  0
 33 75  2  0  0  0  0
 34 48  1  0  0  0  0
 34 72  1  0  0  0  0
 34 76  2  0  0  0  0
 35 59  1  0  0  0  0
 35 67  1  0  0  0  0
 35 77  2  0  0  0  0
 36 60  1  0  0  0  0
 36 73  1  0  0  0  0
 36 78  2  0  0  0  0
 37 68  1  0  0  0  0
 37 71  1  0  0  0  0
 37 79  2  0  0  0  0
 38 41  1  0  0  0  0
 39 48  1  0  0  0  0
 40 67  1  0  0  0  0
 41 43  1  0  0  0  0
 42 44  1  0  0  0  0
 42 45  1  0  0  0  0
 43 47  1  0  0  0  0
 44 49  1  0  0  0  0
 45 68  1  0  0  0  0
 46 49  1  0  0  0  0
 46 68  1  0  0  0  0
 47 72  1  0  0  0  0
 48 67  1  0  0  0  0
 49 66  1  0  0  0  0
 51 60  1  0  0  0  0
 52 62  1  0  0  0  0
 53 62  1  0  0  0  0
 54 62  1  0  0  0  0
 55 74  1  0  0  0  0
 56 57  1  0  0  0  0
 57 58  1  0  0  0  0
 58 61  1  0  0  0  0
 59 62  1  0  0  0  0
 59 73  1  0  0  0  0
 60 74  1  0  0  0  0
 61 63  1  0  0  0  0
 61 81  1  0  0  0  0
 63 84  1  0  0  0  0
 63 85  1  0  0  0  0
 63 86  1  0  0  0  0
 64 66  1  0  0  0  0
M  CHG  1  74   1
M  ISO  4  37 100  61 101  71 100  81 101
M  END
> <Batch ID>
0024

> <Smiles>
CNC(C)C(=O)NC(C(=O)N1Cc2cc([101O:1][101CH:1](CCCc3c(C)nc([100NH:0][100C:0](=O)N4CCCC(n5nc(-c6ccc(Oc7ccc(F)cc7F)cc6)c(C(N)=O)c5N)C4)c(Cl)c3Cl)C(F)(F)F)ccc2CC1C(=O)NC1CCCc2ccccc21)C(C)(C)C

> <Shape>
0.239

> <Color>
0.095

> <Negative vol penalty>
0.000

$$$$

  -OEChem-04052316223D

 92101  0     1  0  0  0  0  0999 V2000
  -35.6229  -26.9525   12.9925 C   0  0  0  0  0  0  0  0  0  0  0  0
  -35.0637  -25.8058   13.5473 C   0  0  0  0  0  0  0  0  0  0  0  0
  -22.2308  -24.1570   21.0892 C   0  0  0  0  0  0  0  0  0  0  0  0
  -21.9818  -22.7399   23.0301 C   0  0  0  0  0  0  0  0  0  0  0  0
  -35.7037  -28.1224   13.7467 C   0  0  0  0  0  0  0  0  0  0  0  0
  -34.5859  -25.8280   14.8571 C   0  0  0  0  0  0  0  0  0  0  0  0
  -29.7521  -22.7838   17.0646 C   0  0  0  0  0  0  0  0  0  0  0  0
  -26.0156  -13.7679   19.1407 C   0  0  0  0  0  0  0  0  0  0  0  0
  -27.2234  -13.6852   19.8334 C   0  0  0  0  0  0  0  0  0  0  0  0
  -21.7571  -25.2448   21.8227 C   0  0  0  0  0  0  0  0  0  0  0  0
  -21.5082  -23.8277   23.7635 C   0  0  0  0  0  0  0  0  0  0  0  0
  -29.6404  -21.5897   17.7754 C   0  0  0  0  0  0  0  0  0  0  0  0
  -18.7701  -26.4350   22.8644 C   0  0  0  0  0  0  0  0  0  0  0  0
  -17.8228  -27.2607   22.2591 C   0  0  0  0  0  0  0  0  0  0  0  0
  -29.5714  -22.8330   19.8415 C   0  0  0  0  0  0  0  0  0  0  0  0
  -19.3234  -29.1417   22.4764 C   0  0  0  0  0  0  0  0  0  0  0  0
  -28.1517  -18.0032   20.8523 C   0  0  0  0  0  0  0  0  0  0  0  0
  -22.3431  -22.9045   21.6929 C   0  0  0  0  0  0  0  0  0  0  0  0
  -24.1694  -21.3622   20.8021 C   0  0  0  0  0  0  0  0  0  0  0  0
  -35.2178  -28.1616   15.0632 C   0  0  0  0  0  0  0  0  0  0  0  0
  -29.7853  -24.0130   17.7387 C   0  0  0  0  0  0  0  0  0  0  0  0
  -34.6614  -26.9991   15.6301 C   0  0  0  0  0  0  0  0  0  0  0  0
  -29.6810  -24.0415   19.1367 C   0  0  0  0  0  0  0  0  0  0  0  0
  -24.8075  -13.7096   19.8356 C   0  0  0  0  0  0  0  0  0  0  0  0
  -27.2232  -13.5441   21.2211 C   0  0  0  0  0  0  0  0  0  0  0  0
  -24.8074  -13.5686   21.2233 C   0  0  0  0  0  0  0  0  0  0  0  0
  -29.0394  -15.9475   21.7300 C   0  0  0  0  0  0  0  0  0  0  0  0
  -21.3958  -25.0802   23.1598 C   0  0  0  0  0  0  0  0  0  0  0  0
  -29.5529  -21.6139   19.1643 C   0  0  0  0  0  0  0  0  0  0  0  0
  -19.9940  -26.9627   23.2758 C   0  0  0  0  0  0  0  0  0  0  0  0
  -18.0994  -28.6140   22.0651 C   0  0  0  0  0  0  0  0  0  0  0  0
  -20.2707  -28.3160   23.0818 C   0  0  0  0  0  0  0  0  0  0  0  0
  -28.0402  -16.9142   21.7095 C   0  0  0  0  0  0  0  0  0  0  0  0
  -26.0152  -13.4858   21.9161 C   0  0  0  0  0  0  0  0  0  0  0  0
  -22.8318  -21.7804   20.9356 C   0  0  0  0  0  0  0  0  0  0  0  0
  -29.2731  -18.0786   20.0420 C   0  0  0  0  0  0  0  0  0  0  0  0
  -30.1210  -16.1148   20.8803 C   0  0  0  0  0  0  0  0  0  0  0  0
  -24.1042  -20.2577   19.9883 C   0  0  0  0  0  0  0  0  0  0  0  0
  -25.3640  -21.9220   21.3636 C   0  0  0  0  0  0  0  0  0  0  0  0
  -31.9036  -26.3678   18.0067 C   0  0  0  0  0  0  0  0  0  0  0  0
  -29.4903  -27.8327   19.6044 C   0  0  0  0  0  0  0  0  0  0  0  0
  -26.6148  -27.5332   21.4178 C   0  0  0  0  0  0  0  0  0  0  0  0
  -21.7311  -15.4227   18.5268 C   0  0  0  0  0  0  0  0  0  0  0  0
  -35.3700  -29.4359   15.8555 C   0  0  0  0  0  0  0  0  0  0  0  0
  -29.8793  -25.2937   16.9556 C   0  0  0  0  0  0  0  0  0  0  0  0
  -29.6916  -25.3360   19.9065 C   0  0  0  0  0  0  0  0  0  0  0  0
  -34.4999  -29.4814   17.1090 C   0  0  0  0  0  0  0  0  0  0  0  0
  -20.2761  -18.4095   17.2467 C   0  0  0  0  0  0  0  0  0  0  0  0
  -34.6083  -28.1707   17.8818 C   0  0  0  0  0  0  0  0  0  0  0  0
  -20.9168  -19.5170   18.0852 C   0  0  0  0  0  0  0  0  0  0  0  0
  -20.0169  -17.1529   18.0748 C   0  0  0  0  0  0  0  0  0  0  0  0
  -21.8349  -17.7386   19.6322 C   0  0  0  0  0  0  0  0  0  0  0  0
  -34.1097  -26.9905   17.0392 C   0  0  1  0  0  0  0  0  0  0  0  0
  -30.4213  -26.4586   17.7782 C   0  0  1  0  0  0  0  0  0  0  0  0
  -22.1668  -19.0067   18.8271 C   0  0  2  0  0  0  0  0  0  0  0  0
  -23.1395  -12.0846   22.3647 C   0  0  0  0  0  0  0  0  0  0  0  0
  -24.5480  -28.2587   22.6424 C   0  0  0  0  0  0  0  0  0  0  0  0
  -31.4457  -28.2679   21.9059 C   0  0  0  0  0  0  0  0  0  0  0  0
  -29.4863  -28.7547   23.3865 C   0  0  0  0  0  0  0  0  0  0  0  0
  -29.9554  -30.2167   21.4205 C   0  0  0  0  0  0  0  0  0  0  0  0
  -24.9913  -27.4843   18.9438 C   0  0  0  0  0  0  0  0  0  0  0  0
  -28.5544  -13.4575   21.9273 C   0  0  0  0  0  0  0  0  0  0  0  0
  -23.4990  -13.5063   21.9490 C   0  0  0  0  0  0  0  0  0  0  0  0
  -28.9510  -14.7650   22.6387 C   0  0  0  0  0  0  0  0  0  0  0  0
  -23.5294  -13.8002   19.0680 C   0  0  0  0  0  0  0  0  0  0  0  0
  -29.4264  -19.2398   19.1042 C   0  0  0  0  0  0  0  0  0  1  0  0
  -29.0413  -27.8897   21.0446 C   0  0  1  0  0  0  0  0  0  0  0  0
  -25.2760  -28.2402   21.3073 C   0  0  2  0  0  0  0  0  0  0  0  0
  -29.9839  -28.7576   21.9253 C   0  0  0  0  0  0  0  0  0  0  0  0
  -21.9793  -21.0048   20.2606 N   0  0  0  0  0  0  0  0  0  0  0  0
  -30.2642  -17.1592   20.0339 N   0  0  0  0  0  0  0  0  0  0  0  0
  -22.7831  -20.0882   19.6950 N   0  0  0  0  0  0  0  0  0  0  0  0
  -29.7916  -26.5611   19.0963 N   0  0  0  0  0  0  0  0  0  0  0  0
  -21.2422  -16.7202   18.7511 N   0  0  0  0  0  0  0  0  0  0  0  0
  -25.0487  -19.4246   19.5021 N   0  0  0  0  0  0  0  0  0  0  0  0
  -25.2512  -23.0576   22.1773 N   0  0  0  0  0  0  0  0  0  0  0  0
  -32.6629  -26.9613   17.0165 N   0  0  0  0  0  0  0  0  0  0  0  0
  -27.6559  -28.3463   21.0225 N   0  0  0  0  0  0  0  0  0  0  0  0
  -22.9007  -15.0955   19.2017 N   0  0  0  0  0  0  0  0  0  0  0  0
  -24.4086  -27.5538   20.3085 N   0  3  0  0  0  0  0  0  0  0  0  0
  -26.4994  -21.4396   21.1367 O   0  0  0  0  0  0  0  0  0  0  0  0
  -32.3270  -25.8023   19.0081 O   0  0  0  0  0  0  0  0  0  0  0  0
  -29.5639  -28.8771   18.9521 O   0  0  0  0  0  0  0  0  0  0  0  0
  -26.7262  -26.3767   21.8186 O   0  0  0  0  0  0  0  0  0  0  0  0
  -21.1698  -14.6173   17.7761 O   0  0  0  0  0  0  0  0  0  0  0  0
  -20.9338  -26.1414   23.8759 O   0  0  0  0  0  0  0  0  0  0  0  0
  -29.4445  -20.4498   19.8606 O   0  0  0  0  0  0  0  0  0  1  0  0
  -17.1902  -29.4065   21.4824 F   0  0  0  0  0  0  0  0  0  0  0  0
  -21.4452  -28.8284   23.4739 F   0  0  0  0  0  0  0  0  0  0  0  0
  -26.6518  -16.7991   22.7277 Cl  0  0  0  0  0  0  0  0  0  0  0  0
  -26.0190  -13.3064   23.6392 Cl  0  0  0  0  0  0  0  0  0  0  0  0
  -31.4222  -14.9910   20.8094 Cl  0  0  0  0  0  0  0  0  0  0  0  0
  1  2  1  0  0  0  0
  1  5  2  0  0  0  0
  2  6  2  0  0  0  0
  3 10  2  0  0  0  0
  3 18  1  0  0  0  0
  4 11  1  0  0  0  0
  4 18  2  0  0  0  0
  5 20  1  0  0  0  0
  6 22  1  0  0  0  0
  7 12  2  0  0  0  0
  7 21  1  0  0  0  0
  8  9  1  0  0  0  0
  8 24  2  0  0  0  0
  9 25  2  0  0  0  0
 10 28  1  0  0  0  0
 11 28  2  0  0  0  0
 12 29  1  0  0  0  0
 13 14  2  0  0  0  0
 13 30  1  0  0  0  0
 14 31  1  0  0  0  0
 15 23  1  0  0  0  0
 15 29  2  0  0  0  0
 16 31  2  0  0  0  0
 16 32  1  0  0  0  0
 17 33  2  0  0  0  0
 17 36  1  0  0  0  0
 18 35  1  0  0  0  0
 19 35  1  0  0  0  0
 19 38  2  0  0  0  0
 19 39  1  0  0  0  0
 20 22  2  0  0  0  0
 20 44  1  0  0  0  0
 21 23  2  0  0  0  0
 21 45  1  0  0  0  0
 22 53  1  0  0  0  0
 23 46  1  0  0  0  0
 24 26  1  0  0  0  0
 24 65  1  0  0  0  0
 25 34  1  0  0  0  0
 25 62  1  0  0  0  0
 26 34  2  0  0  0  0
 26 63  1  0  0  0  0
 27 33  1  0  0  0  0
 27 37  2  0  0  0  0
 27 64  1  0  0  0  0
 28 86  1  0  0  0  0
 29 87  1  0  0  0  0
 30 32  2  0  0  0  0
 30 86  1  0  0  0  0
 31 88  1  0  0  0  0
 32 89  1  0  0  0  0
 33 90  1  0  0  0  0
 34 91  1  0  0  0  0
 35 70  2  0  0  0  0
 36 66  1  0  0  0  0
 36 71  2  0  0  0  0
 37 71  1  0  0  0  0
 37 92  1  0  0  0  0
 38 72  1  0  0  0  0
 38 75  1  0  0  0  0
 39 76  1  0  0  0  0
 39 81  2  0  0  0  0
 40 54  1  0  0  0  0
 40 77  1  0  0  0  0
 40 82  2  0  0  0  0
 41 67  1  0  0  0  0
 41 73  1  0  0  0  0
 41 83  2  0  0  0  0
 42 68  1  0  0  0  0
 42 78  1  0  0  0  0
 42 84  2  0  0  0  0
 43 74  1  0  0  0  0
 43 79  1  0  0  0  0
 43 85  2  0  0  0  0
 44 47  1  0  0  0  0
 45 54  1  0  0  0  0
 46 73  1  0  0  0  0
 47 49  1  0  0  0  0
 48 50  1  0  0  0  0
 48 51  1  0  0  0  0
 49 53  1  0  0  0  0
 50 55  1  0  0  0  0
 51 74  1  0  0  0  0
 52 55  1  0  0  0  0
 52 74  1  0  0  0  0
 53 77  1  0  0  0  0
 54 73  1  0  0  0  0
 55 72  1  0  0  0  0
 56 63  1  0  0  0  0
 57 68  1  0  0  0  0
 58 69  1  0  0  0  0
 59 69  1  0  0  0  0
 60 69  1  0  0  0  0
 61 80  1  0  0  0  0
 62 64  1  0  0  0  0
 65 79  1  0  0  0  0
 66 87  1  0  0  0  0
 67 69  1  0  0  0  0
 67 78  1  0  0  0  0
 68 80  1  0  0  0  0
 70 72  1  0  0  0  0
M  CHG  1  80   1
M  ISO  4  43 100  66 101  79 100  87 101
M  END
> <Batch ID>
0024

> <Smiles>
CCc1c(C[100NH:0][100C:0](=O)N2CCCC(n3nc(-c4ccc(Oc5ccc(F)cc5F)cc4)c(C(N)=O)c3N)C2)ccc(CCc2c(Cl)cc([101CH2:1][101O:1]c3ccc4c(c3)CN(C(=O)C(NC(=O)C(C)NC)C(C)(C)C)C(C(=O)NC3CCCc5ccccc53)C4)nc2Cl)c1Cl

> <Shape>
0.226

> <Color>
0.053

> <Negative vol penalty>
0.000

$$$$

  -OEChem-04052316223D

 82 90  0     1  0  0  0  0  0999 V2000
  -17.2216  -25.6521   23.5399 C   0  0  0  0  0  0  0  0  0  0  0  0
  -18.3215  -25.5539   22.6938 C   0  0  0  0  0  0  0  0  0  0  0  0
  -26.4880  -11.0946   21.1211 C   0  0  0  0  0  0  0  0  0  0  0  0
  -25.5029  -12.6633   19.5700 C   0  0  0  0  0  0  0  0  0  0  0  0
  -16.7957  -26.9028   23.9853 C   0  0  0  0  0  0  0  0  0  0  0  0
  -18.9956  -26.7064   22.2917 C   0  0  0  0  0  0  0  0  0  0  0  0
  -24.0278  -26.2079   22.5618 C   0  0  0  0  0  0  0  0  0  0  0  0
  -25.2188  -10.6096   21.4367 C   0  0  0  0  0  0  0  0  0  0  0  0
  -24.2337  -12.1783   19.8856 C   0  0  0  0  0  0  0  0  0  0  0  0
  -24.6527  -25.4946   21.5398 C   0  0  0  0  0  0  0  0  0  0  0  0
  -22.3217   -9.5070   19.0925 C   0  0  0  0  0  0  0  0  0  0  0  0
  -21.4441   -9.2576   18.0374 C   0  0  0  0  0  0  0  0  0  0  0  0
  -25.2857  -27.5703   20.4862 C   0  0  0  0  0  0  0  0  0  0  0  0
  -29.6327  -21.1305   20.5452 C   0  0  0  0  0  0  0  0  0  0  0  0
  -19.8840  -10.8567   18.9571 C   0  0  0  0  0  0  0  0  0  0  0  0
  -26.6300  -12.1215   20.1878 C   0  0  0  0  0  0  0  0  0  0  0  0
  -28.8002  -12.1605   18.8475 C   0  0  0  0  0  0  0  0  0  0  0  0
  -17.4708  -28.0705   23.5963 C   0  0  0  0  0  0  0  0  0  0  0  0
  -24.0177  -27.6101   22.5479 C   0  0  0  0  0  0  0  0  0  0  0  0
  -18.5775  -27.9740   22.7313 C   0  0  0  0  0  0  0  0  0  0  0  0
  -24.6621  -28.2991   21.5105 C   0  0  0  0  0  0  0  0  0  0  0  0
  -29.0671  -22.3770   20.2768 C   0  0  0  0  0  0  0  0  0  0  0  0
  -27.9124  -21.4427   18.3713 C   0  0  0  0  0  0  0  0  0  0  0  0
  -28.2070  -22.5331   19.1899 C   0  0  0  0  0  0  0  0  0  0  0  0
  -28.4781  -20.1963   18.6397 C   0  0  0  0  0  0  0  0  0  0  0  0
  -29.3382  -20.0402   19.7266 C   0  0  0  0  0  0  0  0  0  0  0  0
  -24.0917  -11.1514   20.8189 C   0  0  0  0  0  0  0  0  0  0  0  0
  -25.2793  -26.1758   20.5003 C   0  0  0  0  0  0  0  0  0  0  0  0
  -21.9804  -10.4312   20.0800 C   0  0  0  0  0  0  0  0  0  0  0  0
  -20.2253   -9.9325   17.9697 C   0  0  0  0  0  0  0  0  0  0  0  0
  -20.7616  -11.1060   20.0123 C   0  0  0  0  0  0  0  0  0  0  0  0
  -27.9408  -12.6234   19.8618 C   0  0  0  0  0  0  0  0  0  0  0  0
  -29.9124  -12.9600   18.9485 C   0  0  0  0  0  0  0  0  0  0  0  0
  -28.6102  -11.1024   17.8988 C   0  0  0  0  0  0  0  0  0  0  0  0
  -21.7526  -29.8357   22.4060 C   0  0  0  0  0  0  0  0  0  0  0  0
  -24.2513  -31.8533   22.8624 C   0  0  0  0  0  0  0  0  0  0  0  0
  -27.6067  -32.4161   22.5959 C   0  0  0  0  0  0  0  0  0  0  0  0
  -30.7943  -18.4785   21.0635 C   0  0  0  0  0  0  0  0  0  0  0  0
  -16.9446  -29.4037   24.0655 C   0  0  0  0  0  0  0  0  0  0  0  0
  -23.3623  -28.3650   23.6717 C   0  0  0  0  0  0  0  0  0  0  0  0
  -24.6971  -29.8040   21.4599 C   0  0  0  0  0  0  0  0  0  0  0  0
  -17.9417  -30.5467   23.8938 C   0  0  0  0  0  0  0  0  0  0  0  0
  -32.4211  -15.5001   22.1405 C   0  0  0  0  0  0  0  0  0  0  0  0
  -18.5702  -30.5027   22.5046 C   0  0  0  0  0  0  0  0  0  0  0  0
  -31.5383  -14.3822   21.5809 C   0  0  0  0  0  0  0  0  0  0  0  0
  -31.5939  -16.6986   22.6022 C   0  0  0  0  0  0  0  0  0  0  0  0
  -29.7798  -16.1151   21.0409 C   0  0  0  0  0  0  0  0  0  0  0  0
  -19.3499  -29.1993   22.2929 C   0  0  1  0  0  0  0  0  0  0  0  0
  -22.9692  -29.7878   23.2865 C   0  0  1  0  0  0  0  0  0  0  0  0
  -30.5727  -14.9128   20.5031 C   0  0  2  0  0  0  0  0  0  0  0  0
  -29.4017  -23.5293   21.1666 C   0  0  0  0  0  0  0  0  0  0  0  0
  -26.9897  -21.6110   17.2053 C   0  0  0  0  0  0  0  0  0  0  0  0
  -28.1618  -19.0281   17.7587 C   0  0  0  0  0  0  0  0  0  0  0  0
  -29.3488  -34.1731   23.0147 C   0  0  0  0  0  0  0  0  0  0  0  0
  -23.3306  -33.3563   20.3718 C   0  0  0  0  0  0  0  0  0  0  0  0
  -25.5747  -34.4639   20.2957 C   0  0  0  0  0  0  0  0  0  0  0  0
  -24.0758  -34.8201   22.2577 C   0  0  0  0  0  0  0  0  0  0  0  0
  -29.0464  -30.6939   24.5247 C   0  0  0  0  0  0  0  0  0  0  0  0
  -27.5977  -23.8836   18.9017 C   0  0  0  0  0  0  0  0  0  0  0  0
  -26.4369  -24.2074   19.8360 C   0  0  0  0  0  0  0  0  0  1  0  0
  -25.2151  -32.5830   21.9582 C   0  0  1  0  0  0  0  0  0  0  0  0
  -28.6172  -32.9681   23.5852 C   0  0  2  0  0  0  0  0  0  0  0  0
  -24.5469  -33.7775   21.2205 C   0  0  0  0  0  0  0  0  0  0  0  0
  -28.4623  -13.6382   20.5562 N   0  0  0  0  0  0  0  0  0  0  0  0
  -29.6614  -13.8195   19.9773 N   0  0  0  0  0  0  0  0  0  0  0  0
  -24.0368  -30.4971   22.5784 N   0  0  0  0  0  0  0  0  0  0  0  0
  -30.7060  -17.1492   21.5282 N   0  0  0  0  0  0  0  0  0  0  0  0
  -31.0708  -13.0046   18.2568 N   0  0  0  0  0  0  0  0  0  0  0  0
  -27.4088  -10.3814   17.9338 N   0  0  0  0  0  0  0  0  0  0  0  0
  -29.9232  -18.7829   20.0180 N   0  0  0  0  0  0  0  0  0  0  0  0
  -20.6288  -29.2601   22.9675 N   0  0  0  0  0  0  0  0  0  0  0  0
  -26.3532  -32.9563   22.7911 N   0  0  0  0  0  0  0  0  0  0  0  0
  -29.6254  -31.9266   23.9312 N   0  3  0  0  0  0  0  0  0  0  0  0
  -29.4867  -10.7943   17.0560 O   0  0  0  0  0  0  0  0  0  0  0  0
  -21.8275  -30.3575   21.2998 O   0  0  0  0  0  0  0  0  0  0  0  0
  -23.7141  -32.4623   23.7909 O   0  0  0  0  0  0  0  0  0  0  0  0
  -27.9008  -31.5912   21.7336 O   0  0  0  0  0  0  0  0  0  0  0  0
  -31.6036  -19.2796   21.5384 O   0  0  0  0  0  0  0  0  0  0  0  0
  -22.8531  -10.6782   21.1264 O   0  0  0  0  0  0  0  0  0  0  0  0
  -25.8894  -25.4820   19.5012 O   0  0  0  0  0  0  0  0  0  1  0  0
  -19.3833   -9.6940   16.9556 F   0  0  0  0  0  0  0  0  0  0  0  0
  -20.4287  -11.9959   20.9574 F   0  0  0  0  0  0  0  0  0  0  0  0
  1  2  1  0  0  0  0
  1  5  2  0  0  0  0
  2  6  2  0  0  0  0
  3  8  2  0  0  0  0
  3 16  1  0  0  0  0
  4  9  1  0  0  0  0
  4 16  2  0  0  0  0
  5 18  1  0  0  0  0
  6 20  1  0  0  0  0
  7 10  2  0  0  0  0
  7 19  1  0  0  0  0
  8 27  1  0  0  0  0
  9 27  2  0  0  0  0
 10 28  1  0  0  0  0
 11 12  2  0  0  0  0
 11 29  1  0  0  0  0
 12 30  1  0  0  0  0
 13 21  1  0  0  0  0
 13 28  2  0  0  0  0
 14 22  2  0  0  0  0
 14 26  1  0  0  0  0
 15 30  2  0  0  0  0
 15 31  1  0  0  0  0
 16 32  1  0  0  0  0
 17 32  1  0  0  0  0
 17 33  2  0  0  0  0
 17 34  1  0  0  0  0
 18 20  2  0  0  0  0
 18 39  1  0  0  0  0
 19 21  2  0  0  0  0
 19 40  1  0  0  0  0
 20 48  1  0  0  0  0
 21 41  1  0  0  0  0
 22 24  1  0  0  0  0
 22 51  1  0  0  0  0
 23 24  2  0  0  0  0
 23 25  1  0  0  0  0
 23 52  1  0  0  0  0
 24 59  1  0  0  0  0
 25 26  2  0  0  0  0
 25 53  1  0  0  0  0
 26 70  1  0  0  0  0
 27 79  1  0  0  0  0
 28 80  1  0  0  0  0
 29 31  2  0  0  0  0
 29 79  1  0  0  0  0
 30 81  1  0  0  0  0
 31 82  1  0  0  0  0
 32 64  2  0  0  0  0
 33 65  1  0  0  0  0
 33 68  1  0  0  0  0
 34 69  1  0  0  0  0
 34 74  2  0  0  0  0
 35 49  1  0  0  0  0
 35 71  1  0  0  0  0
 35 75  2  0  0  0  0
 36 61  1  0  0  0  0
 36 66  1  0  0  0  0
 36 76  2  0  0  0  0
 37 62  1  0  0  0  0
 37 72  1  0  0  0  0
 37 77  2  0  0  0  0
 38 67  1  0  0  0  0
 38 70  1  0  0  0  0
 38 78  2  0  0  0  0
 39 42  1  0  0  0  0
 40 49  1  0  0  0  0
 41 66  1  0  0  0  0
 42 44  1  0  0  0  0
 43 45  1  0  0  0  0
 43 46  1  0  0  0  0
 44 48  1  0  0  0  0
 45 50  1  0  0  0  0
 46 67  1  0  0  0  0
 47 50  1  0  0  0  0
 47 67  1  0  0  0  0
 48 71  1  0  0  0  0
 49 66  1  0  0  0  0
 50 65  1  0  0  0  0
 54 62  1  0  0  0  0
 55 63  1  0  0  0  0
 56 63  1  0  0  0  0
 57 63  1  0  0  0  0
 58 73  1  0  0  0  0
 59 60  1  0  0  0  0
 60 80  1  0  0  0  0
 61 63  1  0  0  0  0
 61 72  1  0  0  0  0
 62 73  1  0  0  0  0
 64 65  1  0  0  0  0
M  CHG  1  73   1
M  ISO  4  38 100  60 101  70 100  80 101
M  END
> <Batch ID>
0024

> <Smiles>
CNC(C)C(=O)NC(C(=O)N1Cc2cc([101O:1][101CH2:1]Cc3c(C)cc([100NH:0][100C:0](=O)N4CCCC(n5nc(-c6ccc(Oc7ccc(F)cc7F)cc6)c(C(N)=O)c5N)C4)c(C)c3C)ccc2CC1C(=O)NC1CCCc2ccccc21)C(C)(C)C

> <Shape>
0.312

> <Color>
0.068

> <Negative vol penalty>
0.000

$$$$

  -OEChem-04052316223D

 89 97  0     1  0  0  0  0  0999 V2000
  -32.9465  -31.8788   15.7716 C   0  0  0  0  0  0  0  0  0  0  0  0
  -32.5416  -30.5787   16.0564 C   0  0  0  0  0  0  0  0  0  0  0  0
  -29.4902  -12.0853   19.6864 C   0  0  0  0  0  0  0  0  0  0  0  0
  -28.3269  -13.6045   21.1614 C   0  0  0  0  0  0  0  0  0  0  0  0
  -32.7924  -32.8811   16.7285 C   0  0  0  0  0  0  0  0  0  0  0  0
  -31.9835  -30.2798   17.2988 C   0  0  0  0  0  0  0  0  0  0  0  0
  -27.5617  -26.2061   18.4643 C   0  0  0  0  0  0  0  0  0  0  0  0
  -30.5387  -12.9982   19.5730 C   0  0  0  0  0  0  0  0  0  0  0  0
  -29.3754  -14.5174   21.0481 C   0  0  0  0  0  0  0  0  0  0  0  0
  -27.5953  -24.8941   18.9348 C   0  0  0  0  0  0  0  0  0  0  0  0
  -30.4532  -16.8078   18.8067 C   0  0  0  0  0  0  0  0  0  0  0  0
  -30.1262  -18.1475   18.5975 C   0  0  0  0  0  0  0  0  0  0  0  0
  -27.1981  -25.6940   21.1757 C   0  0  0  0  0  0  0  0  0  0  0  0
  -28.5196  -21.2426   23.0863 C   0  0  0  0  0  0  0  0  0  0  0  0
  -31.2527  -18.7429   20.6502 C   0  0  0  0  0  0  0  0  0  0  0  0
  -28.3843  -12.3884   20.4806 C   0  0  0  0  0  0  0  0  0  0  0  0
  -27.3690  -10.1288   21.0896 C   0  0  0  0  0  0  0  0  0  0  0  0
  -32.2232  -32.5964   17.9797 C   0  0  0  0  0  0  0  0  0  0  0  0
  -27.3566  -27.2745   19.3490 C   0  0  0  0  0  0  0  0  0  0  0  0
  -31.8229  -31.2789   18.2739 C   0  0  0  0  0  0  0  0  0  0  0  0
  -27.1598  -27.0184   20.7135 C   0  0  0  0  0  0  0  0  0  0  0  0
  -28.6527  -19.8896   23.3979 C   0  0  0  0  0  0  0  0  0  0  0  0
  -27.3577  -21.7050   22.4684 C   0  0  0  0  0  0  0  0  0  0  0  0
  -26.4620  -19.4612   22.4736 C   0  0  0  0  0  0  0  0  0  0  0  0
  -30.4813  -14.2142   20.2538 C   0  0  0  0  0  0  0  0  0  0  0  0
  -27.4164  -24.6381   20.2911 C   0  0  0  0  0  0  0  0  0  0  0  0
  -31.1799  -16.4356   19.9377 C   0  0  0  0  0  0  0  0  0  0  0  0
  -30.5260  -19.1151   19.5193 C   0  0  0  0  0  0  0  0  0  0  0  0
  -31.5796  -17.4032   20.8594 C   0  0  0  0  0  0  0  0  0  0  0  0
  -27.6239  -18.9989   23.0915 C   0  0  0  0  0  0  0  0  0  0  0  0
  -26.3289  -20.8143   22.1620 C   0  0  0  0  0  0  0  0  0  0  0  0
  -27.3006  -11.4460   20.5976 C   0  0  0  0  0  0  0  0  0  0  0  0
  -26.0819   -9.6591   20.9932 C   0  0  0  0  0  0  0  0  0  0  0  0
  -28.4952   -9.3954   21.5891 C   0  0  0  0  0  0  0  0  0  0  0  0
  -29.0534  -29.8131   20.2320 C   0  0  0  0  0  0  0  0  0  0  0  0
  -26.3413  -30.5816   21.8370 C   0  0  0  0  0  0  0  0  0  0  0  0
  -23.4394  -29.5294   23.2926 C   0  0  0  0  0  0  0  0  0  0  0  0
  -20.7463  -12.3746   20.9046 C   0  0  0  0  0  0  0  0  0  0  0  0
  -32.1205  -33.7030   18.9993 C   0  0  0  0  0  0  0  0  0  0  0  0
  -27.2964  -28.6819   18.8217 C   0  0  0  0  0  0  0  0  0  0  0  0
  -26.9159  -28.1287   21.7016 C   0  0  0  0  0  0  0  0  0  0  0  0
  -31.1759  -33.3812   20.1544 C   0  0  0  0  0  0  0  0  0  0  0  0
  -22.0819  -10.1977   18.4240 C   0  0  0  0  0  0  0  0  0  0  0  0
  -31.4408  -31.9759   20.6851 C   0  0  0  0  0  0  0  0  0  0  0  0
  -23.5770  -10.1519   18.7442 C   0  0  0  0  0  0  0  0  0  0  0  0
  -21.4923  -11.5831   18.6790 C   0  0  0  0  0  0  0  0  0  0  0  0
  -23.2361  -12.0773   20.3489 C   0  0  0  0  0  0  0  0  0  0  0  0
  -31.1904  -30.9205   19.6011 C   0  0  1  0  0  0  0  0  0  0  0  0
  -27.5932  -29.7325   19.8874 C   0  0  1  0  0  0  0  0  0  0  0  0
  -23.8637  -10.6856   20.1606 C   0  0  2  0  0  0  0  0  0  0  0  0
  -29.9148  -19.4401   24.0618 C   0  0  0  0  0  0  0  0  0  0  0  0
  -21.4473  -30.3836   24.5571 C   0  0  0  0  0  0  0  0  0  0  0  0
  -28.0516  -30.8425   24.3503 C   0  0  0  0  0  0  0  0  0  0  0  0
  -25.9492  -30.7490   25.7065 C   0  0  0  0  0  0  0  0  0  0  0  0
  -26.3056  -32.6136   24.0882 C   0  0  0  0  0  0  0  0  0  0  0  0
  -21.5668  -28.6090   21.1937 C   0  0  0  0  0  0  0  0  0  0  0  0
  -25.3569  -18.5039   22.1427 C   0  0  0  0  0  0  0  0  0  0  0  0
  -27.2586  -23.1689   22.1546 C   0  0  0  0  0  0  0  0  0  1  0  0
  -21.0566  -15.5287   23.4045 C   0  0  0  0  0  0  0  0  0  0  0  0
  -20.7418  -17.0279   23.4148 C   0  0  0  0  0  0  0  0  0  0  0  0
  -19.8279  -14.6522   23.1404 C   0  0  0  0  0  0  0  0  0  0  0  0
  -21.9521  -17.9013   23.7515 C   0  0  0  0  0  0  0  0  0  0  0  0
  -20.1549  -13.1622   23.1826 C   0  0  0  0  0  0  0  0  0  0  0  0
  -23.0587  -17.7162   22.7226 C   0  0  0  0  0  0  0  0  0  0  0  0
  -25.7977  -30.2956   23.2160 C   0  0  1  0  0  0  0  0  0  0  0  0
  -22.0153  -30.0447   23.1878 C   0  0  2  0  0  0  0  0  0  0  0  0
  -26.5325  -31.1042   24.3222 C   0  0  0  0  0  0  0  0  0  0  0  0
  -26.0677  -11.7909   20.2168 N   0  0  0  0  0  0  0  0  0  0  0  0
  -25.3495  -10.6835   20.4695 N   0  0  0  0  0  0  0  0  0  0  0  0
  -26.8721  -29.4881   21.1382 N   0  0  0  0  0  0  0  0  0  0  0  0
  -21.7983  -12.0302   20.0400 N   0  0  0  0  0  0  0  0  0  0  0  0
  -25.5166   -8.4738   21.3062 N   0  0  0  0  0  0  0  0  0  0  0  0
  -28.7842   -9.4660   22.9587 N   0  0  0  0  0  0  0  0  0  0  0  0
  -29.7710  -30.6888   19.4397 N   0  0  0  0  0  0  0  0  0  0  0  0
  -24.3617  -30.5442   23.1484 N   0  0  0  0  0  0  0  0  0  0  0  0
  -21.1233  -12.7820   22.1785 N   0  0  0  0  0  0  0  0  0  0  0  0
  -21.1384  -29.0187   22.5559 N   0  3  0  0  0  0  0  0  0  0  0  0
  -24.1943  -18.6150   23.0614 N   0  3  0  0  0  0  0  0  0  0  0  0
  -29.2333   -8.7113   20.8403 O   0  0  0  0  0  0  0  0  0  0  0  0
  -29.4961  -29.1325   21.1499 O   0  0  0  0  0  0  0  0  0  0  0  0
  -26.2901  -31.7314   21.3933 O   0  0  0  0  0  0  0  0  0  0  0  0
  -23.7068  -28.3456   23.4869 O   0  0  0  0  0  0  0  0  0  0  0  0
  -19.5586  -12.3179   20.5681 O   0  0  0  0  0  0  0  0  0  0  0  0
  -31.5044  -15.1052   20.1436 O   0  0  0  0  0  0  0  0  0  0  0  0
  -27.4494  -23.3586   20.7532 O   0  0  0  0  0  0  0  0  0  1  0  0
  -30.2132  -20.4018   19.3174 F   0  0  0  0  0  0  0  0  0  0  0  0
  -32.2790  -17.0518   21.9472 F   0  0  0  0  0  0  0  0  0  0  0  0
  -27.7966  -17.3195   23.4821 Cl  0  0  0  0  0  0  0  0  0  0  0  0
  -24.8880  -21.3958   21.3939 Cl  0  0  0  0  0  0  0  0  0  0  0  0
  1  2  1  0  0  0  0
  1  5  2  0  0  0  0
  2  6  2  0  0  0  0
  3  8  2  0  0  0  0
  3 16  1  0  0  0  0
  4  9  1  0  0  0  0
  4 16  2  0  0  0  0
  5 18  1  0  0  0  0
  6 20  1  0  0  0  0
  7 10  2  0  0  0  0
  7 19  1  0  0  0  0
  8 25  1  0  0  0  0
  9 25  2  0  0  0  0
 10 26  1  0  0  0  0
 11 12  2  0  0  0  0
 11 27  1  0  0  0  0
 12 28  1  0  0  0  0
 13 21  1  0  0  0  0
 13 26  2  0  0  0  0
 14 22  2  0  0  0  0
 14 23  1  0  0  0  0
 15 28  2  0  0  0  0
 15 29  1  0  0  0  0
 16 32  1  0  0  0  0
 17 32  1  0  0  0  0
 17 33  2  0  0  0  0
 17 34  1  0  0  0  0
 18 20  2  0  0  0  0
 18 39  1  0  0  0  0
 19 21  2  0  0  0  0
 19 40  1  0  0  0  0
 20 48  1  0  0  0  0
 21 41  1  0  0  0  0
 22 30  1  0  0  0  0
 22 51  1  0  0  0  0
 23 31  2  0  0  0  0
 23 58  1  0  0  0  0
 24 30  2  0  0  0  0
 24 31  1  0  0  0  0
 24 57  1  0  0  0  0
 25 84  1  0  0  0  0
 26 85  1  0  0  0  0
 27 29  2  0  0  0  0
 27 84  1  0  0  0  0
 28 86  1  0  0  0  0
 29 87  1  0  0  0  0
 30 88  1  0  0  0  0
 31 89  1  0  0  0  0
 32 68  2  0  0  0  0
 33 69  1  0  0  0  0
 33 72  1  0  0  0  0
 34 73  1  0  0  0  0
 34 79  2  0  0  0  0
 35 49  1  0  0  0  0
 35 74  1  0  0  0  0
 35 80  2  0  0  0  0
 36 65  1  0  0  0  0
 36 70  1  0  0  0  0
 36 81  2  0  0  0  0
 37 66  1  0  0  0  0
 37 75  1  0  0  0  0
 37 82  2  0  0  0  0
 38 71  1  0  0  0  0
 38 76  1  0  0  0  0
 38 83  2  0  0  0  0
 39 42  1  0  0  0  0
 40 49  1  0  0  0  0
 41 70  1  0  0  0  0
 42 44  1  0  0  0  0
 43 45  1  0  0  0  0
 43 46  1  0  0  0  0
 44 48  1  0  0  0  0
 45 50  1  0  0  0  0
 46 71  1  0  0  0  0
 47 50  1  0  0  0  0
 47 71  1  0  0  0  0
 48 74  1  0  0  0  0
 49 70  1  0  0  0  0
 50 69  1  0  0  0  0
 52 66  1  0  0  0  0
 53 67  1  0  0  0  0
 54 67  1  0  0  0  0
 55 67  1  0  0  0  0
 56 77  1  0  0  0  0
 57 78  1  0  0  0  0
 58 85  1  0  0  0  0
 59 60  1  0  0  0  0
 59 61  1  0  0  0  0
 60 62  1  0  0  0  0
 61 63  1  0  0  0  0
 62 64  1  0  0  0  0
 63 76  1  0  0  0  0
 64 78  1  0  0  0  0
 65 67  1  0  0  0  0
 65 75  1  0  0  0  0
 66 77  1  0  0  0  0
 68 69  1  0  0  0  0
M  CHG  2  77   1  78   1
M  ISO  4  38 100  58 101  76 100  85 101
M  END
> <Batch ID>
0024

> <Smiles>
CNC(C)C(=O)NC(C(=O)N1Cc2cc([101O:1][101CH2:1]c3cc(C)c(Cl)c(CNCCCCCC[100NH:0][100C:0](=O)N4CCCC(n5nc(-c6ccc(Oc7ccc(F)cc7F)cc6)c(C(N)=O)c5N)C4)c3Cl)ccc2CC1C(=O)NC1CCCc2ccccc21)C(C)(C)C

> <Shape>
0.215

> <Color>
0.089

> <Negative vol penalty>
0.000

$$$$

  -OEChem-04052316223D

 84 92  0     1  0  0  0  0  0999 V2000
  -29.8769  -23.6142   17.8177 C   0  0  0  0  0  0  0  0  0  0  0  0
  -28.6582  -23.7049   18.4825 C   0  0  0  0  0  0  0  0  0  0  0  0
  -27.4337  -16.0776   19.1096 C   0  0  0  0  0  0  0  0  0  0  0  0
  -26.7020  -17.7343   20.7086 C   0  0  0  0  0  0  0  0  0  0  0  0
  -30.9547  -24.3964   18.2304 C   0  0  0  0  0  0  0  0  0  0  0  0
  -28.5169  -24.5772   19.5612 C   0  0  0  0  0  0  0  0  0  0  0  0
  -24.2105  -27.2342   19.3602 C   0  0  0  0  0  0  0  0  0  0  0  0
  -28.7286  -16.5929   19.1682 C   0  0  0  0  0  0  0  0  0  0  0  0
  -27.9968  -18.2496   20.7673 C   0  0  0  0  0  0  0  0  0  0  0  0
  -23.0406  -26.5807   19.7448 C   0  0  0  0  0  0  0  0  0  0  0  0
  -32.3051  -17.2434   19.1696 C   0  0  0  0  0  0  0  0  0  0  0  0
  -33.3600  -16.3365   19.2710 C   0  0  0  0  0  0  0  0  0  0  0  0
  -23.1634  -27.6455   21.9059 C   0  0  0  0  0  0  0  0  0  0  0  0
  -32.4461  -15.5054   21.3473 C   0  0  0  0  0  0  0  0  0  0  0  0
  -26.4204  -16.6483   19.8798 C   0  0  0  0  0  0  0  0  0  0  0  0
  -24.5348  -15.0992   20.6232 C   0  0  0  0  0  0  0  0  0  0  0  0
  -30.8238  -25.2858   19.3086 C   0  0  0  0  0  0  0  0  0  0  0  0
  -24.8728  -28.0913   20.2508 C   0  0  0  0  0  0  0  0  0  0  0  0
  -29.5944  -25.3711   19.9896 C   0  0  0  0  0  0  0  0  0  0  0  0
  -24.3402  -28.3107   21.5292 C   0  0  0  0  0  0  0  0  0  0  0  0
  -29.0101  -17.6788   19.9971 C   0  0  0  0  0  0  0  0  0  0  0  0
  -22.5185  -26.7840   21.0188 C   0  0  0  0  0  0  0  0  0  0  0  0
  -31.3207  -17.2814   20.1572 C   0  0  0  0  0  0  0  0  0  0  0  0
  -33.4305  -15.4675   20.3598 C   0  0  0  0  0  0  0  0  0  0  0  0
  -31.3911  -16.4123   21.2459 C   0  0  0  0  0  0  0  0  0  0  0  0
  -19.0475  -21.6050   22.4573 C   0  0  0  0  0  0  0  0  0  0  0  0
  -18.3895  -20.7518   21.5375 C   0  0  0  0  0  0  0  0  0  0  0  0
  -25.0825  -16.1168   19.8192 C   0  0  0  0  0  0  0  0  0  0  0  0
  -19.9711  -22.3405   21.7479 C   0  0  0  0  0  0  0  0  0  0  0  0
  -18.9312  -20.9917   20.2939 C   0  0  0  0  0  0  0  0  0  0  0  0
  -23.2440  -14.9640   20.1739 C   0  0  0  0  0  0  0  0  0  0  0  0
  -25.1389  -14.3439   21.6816 C   0  0  0  0  0  0  0  0  0  0  0  0
  -20.9145  -23.3776   22.2608 C   0  0  0  0  0  0  0  0  0  0  0  0
  -27.7442  -28.1264   21.6138 C   0  0  0  0  0  0  0  0  0  0  0  0
  -26.7698  -31.0285   22.6865 C   0  0  0  0  0  0  0  0  0  0  0  0
  -24.1792  -33.1108   23.4609 C   0  0  0  0  0  0  0  0  0  0  0  0
  -19.4862  -18.6970   17.3819 C   0  0  0  0  0  0  0  0  0  0  0  0
  -32.0307  -26.0762   19.7483 C   0  0  0  0  0  0  0  0  0  0  0  0
  -26.1192  -28.8095   19.8114 C   0  0  0  0  0  0  0  0  0  0  0  0
  -25.0019  -29.2366   22.5158 C   0  0  0  0  0  0  0  0  0  0  0  0
  -31.6900  -27.2499   20.6629 C   0  0  0  0  0  0  0  0  0  0  0  0
  -20.5719  -15.5035   16.2419 C   0  0  0  0  0  0  0  0  0  0  0  0
  -30.7167  -26.8123   21.7529 C   0  0  0  0  0  0  0  0  0  0  0  0
  -21.8016  -15.2067   17.1020 C   0  0  0  0  0  0  0  0  0  0  0  0
  -20.4750  -16.9859   15.8883 C   0  0  0  0  0  0  0  0  0  0  0  0
  -21.7521  -17.6057   17.9029 C   0  0  0  0  0  0  0  0  0  0  0  0
  -29.3948  -26.3237   21.1484 C   0  0  1  0  0  0  0  0  0  0  0  0
  -26.9915  -29.2612   20.9786 C   0  0  1  0  0  0  0  0  0  0  0  0
  -21.8624  -16.1325   18.3318 C   0  0  2  0  0  0  0  0  0  0  0  0
  -23.6956  -35.4068   24.3507 C   0  0  0  0  0  0  0  0  0  0  0  0
  -27.4586  -30.0793   25.5033 C   0  0  0  0  0  0  0  0  0  0  0  0
  -26.1012  -31.9818   26.4011 C   0  0  0  0  0  0  0  0  0  0  0  0
  -28.1186  -32.4400   25.0074 C   0  0  0  0  0  0  0  0  0  0  0  0
  -20.6994  -22.4970   19.3591 C   0  0  0  0  0  0  0  0  0  0  0  0
  -22.7834  -33.9064   20.9754 C   0  0  0  0  0  0  0  0  0  0  0  0
  -18.6196  -20.3850   18.9815 C   0  0  0  0  0  0  0  0  0  0  0  0
  -20.3416  -24.6143   22.9410 C   0  0  0  0  0  0  0  0  0  0  0  0
  -21.2335  -25.8395   22.7831 C   0  0  0  0  0  0  0  0  0  1  0  0
  -26.0341  -31.5251   23.9076 C   0  0  1  0  0  0  0  0  0  0  0  0
  -23.9123  -34.5621   23.1048 C   0  0  2  0  0  0  0  0  0  0  0  0
  -26.9165  -31.4875   25.1872 C   0  0  0  0  0  0  0  0  0  0  0  0
  -24.2109  -16.5941   18.9266 N   0  0  0  0  0  0  0  0  0  0  0  0
  -19.8918  -21.9591   20.4339 N   0  0  0  0  0  0  0  0  0  0  0  0
  -23.1026  -15.8731   19.1670 N   0  0  0  0  0  0  0  0  0  0  0  0
  -26.2217  -29.9108   22.0413 N   0  0  0  0  0  0  0  0  0  0  0  0
  -20.5370  -17.8090   17.0985 N   0  0  0  0  0  0  0  0  0  0  0  0
  -22.2275  -14.1572   20.5456 N   0  0  0  0  0  0  0  0  0  0  0  0
  -26.4738  -14.6105   22.0151 N   0  0  0  0  0  0  0  0  0  0  0  0
  -28.5775  -27.4478   20.7450 N   0  0  0  0  0  0  0  0  0  0  0  0
  -25.5291  -32.8512   23.5687 N   0  0  0  0  0  0  0  0  0  0  0  0
  -19.6210  -19.4347   18.5517 N   0  0  0  0  0  0  0  0  0  0  0  0
  -22.6986  -34.6702   22.2468 N   0  3  0  0  0  0  0  0  0  0  0  0
  -24.5184  -13.4473   22.3019 O   0  0  0  0  0  0  0  0  0  0  0  0
  -22.1238  -23.2083   22.1221 O   0  0  0  0  0  0  0  0  0  0  0  0
  -27.5821  -27.8852   22.8043 O   0  0  0  0  0  0  0  0  0  0  0  0
  -27.7891  -31.6151   22.3144 O   0  0  0  0  0  0  0  0  0  0  0  0
  -23.2799  -32.2903   23.6305 O   0  0  0  0  0  0  0  0  0  0  0  0
  -18.4983  -18.8191   16.6497 O   0  0  0  0  0  0  0  0  0  0  0  0
  -30.2736  -18.1818   20.0547 O   0  0  0  0  0  0  0  0  0  0  0  0
  -21.3770  -26.1469   21.3970 O   0  0  0  0  0  0  0  0  0  1  0  0
  -34.4428  -14.5956   20.4562 F   0  0  0  0  0  0  0  0  0  0  0  0
  -30.4477  -16.4433   22.1972 F   0  0  0  0  0  0  0  0  0  0  0  0
  -18.7402  -21.6920   24.1309 Cl  0  0  0  0  0  0  0  0  0  0  0  0
  -17.1569  -19.6376   21.9083 Cl  0  0  0  0  0  0  0  0  0  0  0  0
  1  2  1  0  0  0  0
  1  5  2  0  0  0  0
  2  6  2  0  0  0  0
  3  8  2  0  0  0  0
  3 15  1  0  0  0  0
  4  9  1  0  0  0  0
  4 15  2  0  0  0  0
  5 17  1  0  0  0  0
  6 19  1  0  0  0  0
  7 10  2  0  0  0  0
  7 18  1  0  0  0  0
  8 21  1  0  0  0  0
  9 21  2  0  0  0  0
 10 22  1  0  0  0  0
 11 12  2  0  0  0  0
 11 23  1  0  0  0  0
 12 24  1  0  0  0  0
 13 20  1  0  0  0  0
 13 22  2  0  0  0  0
 14 24  2  0  0  0  0
 14 25  1  0  0  0  0
 15 28  1  0  0  0  0
 16 28  1  0  0  0  0
 16 31  2  0  0  0  0
 16 32  1  0  0  0  0
 17 19  2  0  0  0  0
 17 38  1  0  0  0  0
 18 20  2  0  0  0  0
 18 39  1  0  0  0  0
 19 47  1  0  0  0  0
 20 40  1  0  0  0  0
 21 79  1  0  0  0  0
 22 80  1  0  0  0  0
 23 25  2  0  0  0  0
 23 79  1  0  0  0  0
 24 81  1  0  0  0  0
 25 82  1  0  0  0  0
 26 27  1  0  0  0  0
 26 29  2  0  0  0  0
 26 83  1  0  0  0  0
 27 30  2  0  0  0  0
 27 84  1  0  0  0  0
 28 62  2  0  0  0  0
 29 33  1  0  0  0  0
 29 63  1  0  0  0  0
 30 56  1  0  0  0  0
 30 63  1  0  0  0  0
 31 64  1  0  0  0  0
 31 67  1  0  0  0  0
 32 68  1  0  0  0  0
 32 73  2  0  0  0  0
 33 57  1  0  0  0  0
 33 74  2  0  0  0  0
 34 48  1  0  0  0  0
 34 69  1  0  0  0  0
 34 75  2  0  0  0  0
 35 59  1  0  0  0  0
 35 65  1  0  0  0  0
 35 76  2  0  0  0  0
 36 60  1  0  0  0  0
 36 70  1  0  0  0  0
 36 77  2  0  0  0  0
 37 66  1  0  0  0  0
 37 71  1  0  0  0  0
 37 78  2  0  0  0  0
 38 41  1  0  0  0  0
 39 48  1  0  0  0  0
 40 65  1  0  0  0  0
 41 43  1  0  0  0  0
 42 44  1  0  0  0  0
 42 45  1  0  0  0  0
 43 47  1  0  0  0  0
 44 49  1  0  0  0  0
 45 66  1  0  0  0  0
 46 49  1  0  0  0  0
 46 66  1  0  0  0  0
 47 69  1  0  0  0  0
 48 65  1  0  0  0  0
 49 64  1  0  0  0  0
 50 60  1  0  0  0  0
 51 61  1  0  0  0  0
 52 61  1  0  0  0  0
 53 61  1  0  0  0  0
 54 63  1  0  0  0  0
 55 72  1  0  0  0  0
 56 71  1  0  0  0  0
 57 58  1  0  0  0  0
 58 80  1  0  0  0  0
 59 61  1  0  0  0  0
 59 70  1  0  0  0  0
 60 72  1  0  0  0  0
 62 64  1  0  0  0  0
M  CHG  1  72   1
M  ISO  4  37 100  58 101  71 100  80 101
M  END
> <Batch ID>
0024

> <Smiles>
CNC(C)C(=O)NC(C(=O)N1Cc2cc([101O:1][101CH2:1]CC(=O)c3c(Cl)c(Cl)c(C[100NH:0][100C:0](=O)N4CCCC(n5nc(-c6ccc(Oc7ccc(F)cc7F)cc6)c(C(N)=O)c5N)C4)n3C)ccc2CC1C(=O)NC1CCCc2ccccc21)C(C)(C)C

> <Shape>
0.234

> <Color>
0.073

> <Negative vol penalty>
0.000

$$$$

  -OEChem-04052316223D

 94103  0     1  0  0  0  0  0999 V2000
  -18.4851  -24.6798   20.9130 C   0  0  0  0  0  0  0  0  0  0  0  0
  -19.8268  -24.7866   20.5609 C   0  0  0  0  0  0  0  0  0  0  0  0
  -29.1215  -17.3938   21.7392 C   0  0  0  0  0  0  0  0  0  0  0  0
  -28.3930  -19.4691   22.7390 C   0  0  0  0  0  0  0  0  0  0  0  0
  -17.9117  -25.6237   21.7641 C   0  0  0  0  0  0  0  0  0  0  0  0
  -20.5956  -25.8380   21.0588 C   0  0  0  0  0  0  0  0  0  0  0  0
  -25.1388  -24.3162   22.6984 C   0  0  0  0  0  0  0  0  0  0  0  0
  -29.2705  -16.8347   23.0084 C   0  0  0  0  0  0  0  0  0  0  0  0
  -28.5419  -18.9100   24.0082 C   0  0  0  0  0  0  0  0  0  0  0  0
  -26.1142  -24.0696   21.7333 C   0  0  0  0  0  0  0  0  0  0  0  0
  -30.1867  -14.9771   25.9973 C   0  0  0  0  0  0  0  0  0  0  0  0
  -31.3456  -14.2440   26.2527 C   0  0  0  0  0  0  0  0  0  0  0  0
  -27.0895  -26.2312   22.1752 C   0  0  0  0  0  0  0  0  0  0  0  0
  -32.6857  -16.1984   25.7816 C   0  0  0  0  0  0  0  0  0  0  0  0
  -28.6828  -18.7110   21.6045 C   0  0  0  0  0  0  0  0  0  0  0  0
  -27.3754  -19.2730   19.4873 C   0  0  0  0  0  0  0  0  0  0  0  0
  -18.6763  -26.6818   22.2803 C   0  0  0  0  0  0  0  0  0  0  0  0
  -25.1249  -25.5288   23.4027 C   0  0  0  0  0  0  0  0  0  0  0  0
  -20.0315  -26.7977   21.9164 C   0  0  0  0  0  0  0  0  0  0  0  0
  -26.1143  -26.4898   23.1506 C   0  0  0  0  0  0  0  0  0  0  0  0
  -28.9807  -17.5927   24.1429 C   0  0  0  0  0  0  0  0  0  0  0  0
  -27.0880  -25.0283   21.4695 C   0  0  0  0  0  0  0  0  0  0  0  0
  -30.2773  -16.3208   25.6339 C   0  0  0  0  0  0  0  0  0  0  0  0
  -32.5951  -14.8547   26.1449 C   0  0  0  0  0  0  0  0  0  0  0  0
  -31.5267  -16.9314   25.5261 C   0  0  0  0  0  0  0  0  0  0  0  0
  -28.5292  -19.2893   20.2938 C   0  0  0  0  0  0  0  0  0  0  0  0
  -27.7418  -19.9505   18.3501 C   0  0  0  0  0  0  0  0  0  0  0  0
  -32.8581  -22.8477   25.3199 C   0  0  0  0  0  0  0  0  0  0  0  0
  -26.0876  -18.6971   19.7433 C   0  0  0  0  0  0  0  0  0  0  0  0
  -33.8263  -22.7996   24.3929 C   0  0  0  0  0  0  0  0  0  0  0  0
  -23.0736  -27.9417   23.6742 C   0  0  0  0  0  0  0  0  0  0  0  0
  -25.1893  -28.9779   25.9041 C   0  0  0  0  0  0  0  0  0  0  0  0
  -28.3844  -28.9440   27.1029 C   0  0  0  0  0  0  0  0  0  0  0  0
  -31.6408  -24.0979   17.2526 C   0  0  0  0  0  0  0  0  0  0  0  0
  -18.0006  -27.7045   23.1590 C   0  0  0  0  0  0  0  0  0  0  0  0
  -24.0818  -25.7685   24.4595 C   0  0  0  0  0  0  0  0  0  0  0  0
  -26.1555  -27.7993   23.8934 C   0  0  0  0  0  0  0  0  0  0  0  0
  -18.9788  -28.5762   23.9422 C   0  0  0  0  0  0  0  0  0  0  0  0
  -31.5443  -20.9570   15.6410 C   0  0  0  0  0  0  0  0  0  0  0  0
  -20.0943  -29.0781   23.0307 C   0  0  0  0  0  0  0  0  0  0  0  0
  -35.2874  -24.7064   25.2763 C   0  0  0  0  0  0  0  0  0  0  0  0
  -35.0165  -26.0306   24.5321 C   0  0  0  0  0  0  0  0  0  0  0  0
  -30.6460  -20.1597   16.5855 C   0  0  0  0  0  0  0  0  0  0  0  0
  -29.4784  -26.3765   19.3831 C   0  0  0  0  0  0  0  0  0  0  0  0
  -32.5087  -21.8706   16.3997 C   0  0  0  0  0  0  0  0  0  0  0  0
  -30.9445  -21.9718   18.3143 C   0  0  0  0  0  0  0  0  0  0  0  0
  -20.9045  -27.9100   22.4557 C   0  0  1  0  0  0  0  0  0  0  0  0
  -34.6512  -23.9767   24.0656 C   0  0  2  0  0  0  0  0  0  0  0  0
  -23.8575  -27.2488   24.7527 C   0  0  1  0  0  0  0  0  0  0  0  0
  -33.8652  -25.2961   23.7970 C   0  0  2  0  0  0  0  0  0  0  0  0
  -27.9527  -24.9366   18.0936 C   0  0  2  0  0  0  0  0  0  0  0  0
  -29.9252  -21.0906   17.5759 C   0  0  2  0  0  0  0  0  0  0  0  0
  -28.1060  -25.6907   19.4247 C   0  0  1  0  0  0  0  0  0  1  0  0
  -28.8934  -25.6915   17.1123 C   0  0  0  0  0  0  0  0  0  0  0  0
  -30.1289  -25.9677   18.0420 C   0  0  1  0  0  0  0  0  0  0  0  0
  -34.1313  -21.5451   23.6293 C   0  0  0  0  0  0  0  0  0  0  0  0
  -26.4914  -24.8079   17.6715 C   0  0  0  0  0  0  0  0  0  0  0  0
  -29.2381  -24.8200   15.8911 C   0  0  0  0  0  0  0  0  0  0  0  0
  -28.2537  -26.9957   16.5829 C   0  0  0  0  0  0  0  0  0  0  0  0
  -29.8182  -29.9194   28.9168 C   0  0  0  0  0  0  0  0  0  0  0  0
  -25.2886  -31.6289   24.3967 C   0  0  0  0  0  0  0  0  0  0  0  0
  -27.3809  -32.1855   25.6540 C   0  0  0  0  0  0  0  0  0  0  0  0
  -25.2394  -31.8464   26.8877 C   0  0  0  0  0  0  0  0  0  0  0  0
  -28.9821  -26.2723   28.2271 C   0  0  0  0  0  0  0  0  0  0  0  0
  -33.6494  -25.6760   22.3454 C   0  0  0  0  0  0  0  0  0  0  0  0
  -32.5079  -24.8540   21.7479 C   0  0  0  0  0  0  0  0  0  0  0  0
  -32.2437  -25.2443   20.2914 C   0  0  0  0  0  0  0  0  0  0  0  0
  -31.1484  -24.3985   19.6496 C   0  0  0  0  0  0  0  0  0  0  0  0
  -26.4219  -29.8493   25.8849 C   0  0  1  0  0  0  0  0  0  0  0  0
  -28.9319  -28.7540   28.5060 C   0  0  2  0  0  0  0  0  0  0  0  0
  -31.0881  -27.0538   17.5445 C   0  0  0  0  0  0  0  0  0  0  0  0
  -26.0810  -31.3538   25.6903 C   0  0  0  0  0  0  0  0  0  0  0  0
  -29.5520  -19.9265   19.7177 N   0  0  0  0  0  0  0  0  0  0  0  0
  -29.0422  -20.3168   18.5371 N   0  0  0  0  0  0  0  0  0  0  0  0
  -25.1104  -27.9895   24.9128 N   0  0  0  0  0  0  0  0  0  0  0  0
  -31.7855  -22.7074   17.3670 N   0  0  0  0  0  0  0  0  0  0  0  0
  -27.0753  -20.2625   17.2183 N   0  0  0  0  0  0  0  0  0  0  0  0
  -25.8814  -18.0367   20.9621 N   0  0  0  0  0  0  0  0  0  0  0  0
  -21.8243  -27.3962   23.4479 N   0  0  0  0  0  0  0  0  0  0  0  0
  -27.1486  -29.5556   27.1154 N   0  0  0  0  0  0  0  0  0  0  0  0
  -30.9121  -24.7525   18.2570 N   0  0  0  0  0  0  0  0  0  0  0  0
  -29.7363  -27.5018   28.5829 N   0  3  0  0  0  0  0  0  0  0  0  0
  -25.1526  -18.7518   18.9088 O   0  0  0  0  0  0  0  0  0  0  0  0
  -23.5652  -28.9012   23.0916 O   0  0  0  0  0  0  0  0  0  0  0  0
  -24.3316  -29.1625   26.7712 O   0  0  0  0  0  0  0  0  0  0  0  0
  -28.9938  -28.5891   26.0964 O   0  0  0  0  0  0  0  0  0  0  0  0
  -32.1286  -24.7210   16.3009 O   0  0  0  0  0  0  0  0  0  0  0  0
  -29.1258  -17.0474   25.3815 O   0  0  0  0  0  0  0  0  0  0  0  0
  -28.0480  -24.7886   20.5204 O   0  0  0  0  0  0  0  0  0  1  0  0
  -33.7078  -14.1510   26.3917 F   0  0  0  0  0  0  0  0  0  0  0  0
  -31.6200  -18.2223   25.1786 F   0  0  0  0  0  0  0  0  0  0  0  0
  -32.0595  -27.2508   18.4463 F   0  0  0  0  0  0  0  0  0  0  0  0
  -31.6385  -26.6772   16.3823 F   0  0  0  0  0  0  0  0  0  0  0  0
  -30.4204  -28.2013   17.3619 F   0  0  0  0  0  0  0  0  0  0  0  0
  1  2  1  0  0  0  0
  1  5  2  0  0  0  0
  2  6  2  0  0  0  0
  3  8  2  0  0  0  0
  3 15  1  0  0  0  0
  4  9  1  0  0  0  0
  4 15  2  0  0  0  0
  5 17  1  0  0  0  0
  6 19  1  0  0  0  0
  7 10  2  0  0  0  0
  7 18  1  0  0  0  0
  8 21  1  0  0  0  0
  9 21  2  0  0  0  0
 10 22  1  0  0  0  0
 11 12  2  0  0  0  0
 11 23  1  0  0  0  0
 12 24  1  0  0  0  0
 13 20  1  0  0  0  0
 13 22  2  0  0  0  0
 14 24  2  0  0  0  0
 14 25  1  0  0  0  0
 15 26  1  0  0  0  0
 16 26  1  0  0  0  0
 16 27  2  0  0  0  0
 16 29  1  0  0  0  0
 17 19  2  0  0  0  0
 17 35  1  0  0  0  0
 18 20  2  0  0  0  0
 18 36  1  0  0  0  0
 19 47  1  0  0  0  0
 20 37  1  0  0  0  0
 21 88  1  0  0  0  0
 22 89  1  0  0  0  0
 23 25  2  0  0  0  0
 23 88  1  0  0  0  0
 24 90  1  0  0  0  0
 25 91  1  0  0  0  0
 26 73  2  0  0  0  0
 27 74  1  0  0  0  0
 27 77  1  0  0  0  0
 28 30  2  0  0  0  0
 29 78  1  0  0  0  0
 29 83  2  0  0  0  0
 30 48  1  0  0  0  0
 30 56  1  0  0  0  0
 31 49  1  0  0  0  0
 31 79  1  0  0  0  0
 31 84  2  0  0  0  0
 32 69  1  0  0  0  0
 32 75  1  0  0  0  0
 32 85  2  0  0  0  0
 33 70  1  0  0  0  0
 33 80  1  0  0  0  0
 33 86  2  0  0  0  0
 34 76  1  0  0  0  0
 34 81  1  0  0  0  0
 34 87  2  0  0  0  0
 35 38  1  0  0  0  0
 36 49  1  0  0  0  0
 37 75  1  0  0  0  0
 38 40  1  0  0  0  0
 39 43  1  0  0  0  0
 39 45  1  0  0  0  0
 40 47  1  0  0  0  0
 41 42  1  0  0  0  0
 41 48  1  0  0  0  0
 42 50  1  0  0  0  0
 43 52  1  0  0  0  0
 44 53  1  0  0  0  0
 44 55  1  0  0  0  0
 45 76  1  0  0  0  0
 46 52  1  0  0  0  0
 46 76  1  0  0  0  0
 47 79  1  0  0  0  0
 48 50  1  0  0  0  0
 49 75  1  0  0  0  0
 50 65  1  0  0  0  0
 51 53  1  0  0  0  0
 51 54  1  0  0  0  0
 51 57  1  0  0  0  0
 52 74  1  0  0  0  0
 53 89  1  0  0  0  0
 54 55  1  0  0  0  0
 54 58  1  0  0  0  0
 54 59  1  0  0  0  0
 55 71  1  0  0  0  0
 55 81  1  0  0  0  0
 60 70  1  0  0  0  0
 61 72  1  0  0  0  0
 62 72  1  0  0  0  0
 63 72  1  0  0  0  0
 64 82  1  0  0  0  0
 65 66  1  0  0  0  0
 66 67  1  0  0  0  0
 67 68  1  0  0  0  0
 68 81  1  0  0  0  0
 69 72  1  0  0  0  0
 69 80  1  0  0  0  0
 70 82  1  0  0  0  0
 71 92  1  0  0  0  0
 71 93  1  0  0  0  0
 71 94  1  0  0  0  0
 73 74  1  0  0  0  0
M  CHG  1  82   1
M  ISO  4  34 100  53 101  81 100  89 101
M  END
> <Batch ID>
0024

> <Smiles>
C=C(C)C1CCC1CCCC[100N:0]([100C:0](=O)N1CCCC(n2nc(-c3ccc(Oc4ccc(F)cc4F)cc3)c(C(N)=O)c2N)C1)C1(C(F)(F)F)C[101CH:1]([101O:1]c2ccc3c(c2)CN(C(=O)C(NC(=O)C(C)NC)C(C)(C)C)C(C(=O)NC2CCCc4ccccc42)C3)C(C)C1(C)C

> <Shape>
0.174

> <Color>
0.061

> <Negative vol penalty>
0.000

$$$$

  -OEChem-04052316223D

 82 90  0     1  0  0  0  0  0999 V2000
  -18.9892  -34.1279   21.4466 C   0  0  0  0  0  0  0  0  0  0  0  0
  -20.3182  -33.8610   21.1336 C   0  0  0  0  0  0  0  0  0  0  0  0
  -28.2742  -17.0568   20.3194 C   0  0  0  0  0  0  0  0  0  0  0  0
  -30.1801  -17.5005   21.7364 C   0  0  0  0  0  0  0  0  0  0  0  0
  -18.3271  -33.3480   22.3939 C   0  0  0  0  0  0  0  0  0  0  0  0
  -20.9863  -32.8147   21.7687 C   0  0  0  0  0  0  0  0  0  0  0  0
  -25.2639  -29.1659   19.3408 C   0  0  0  0  0  0  0  0  0  0  0  0
  -28.3833  -15.6947   20.5992 C   0  0  0  0  0  0  0  0  0  0  0  0
  -30.2891  -16.1383   22.0162 C   0  0  0  0  0  0  0  0  0  0  0  0
  -26.6564  -29.1799   19.4073 C   0  0  0  0  0  0  0  0  0  0  0  0
  -30.2964  -13.0928   19.6020 C   0  0  0  0  0  0  0  0  0  0  0  0
  -30.1914  -12.2021   18.5337 C   0  0  0  0  0  0  0  0  0  0  0  0
  -26.5800  -27.5838   21.2145 C   0  0  0  0  0  0  0  0  0  0  0  0
  -28.2776  -11.1675   19.5845 C   0  0  0  0  0  0  0  0  0  0  0  0
  -29.1727  -17.9597   20.8880 C   0  0  0  0  0  0  0  0  0  0  0  0
  -28.3108  -20.3236   21.3086 C   0  0  0  0  0  0  0  0  0  0  0  0
  -18.9845  -32.2855   23.0338 C   0  0  0  0  0  0  0  0  0  0  0  0
  -24.5173  -28.3677   20.2194 C   0  0  0  0  0  0  0  0  0  0  0  0
  -20.3328  -32.0207   22.7265 C   0  0  0  0  0  0  0  0  0  0  0  0
  -25.1783  -27.5596   21.1554 C   0  0  0  0  0  0  0  0  0  0  0  0
  -31.9578  -28.9381   19.5144 C   0  0  0  0  0  0  0  0  0  0  0  0
  -29.3907  -15.2354   21.4476 C   0  0  0  0  0  0  0  0  0  0  0  0
  -27.3146  -28.3909   20.3461 C   0  0  0  0  0  0  0  0  0  0  0  0
  -29.3921  -13.0208   20.6616 C   0  0  0  0  0  0  0  0  0  0  0  0
  -29.1820  -11.2395   18.5250 C   0  0  0  0  0  0  0  0  0  0  0  0
  -28.3827  -12.0582   20.6528 C   0  0  0  0  0  0  0  0  0  0  0  0
  -32.8658  -28.0563   18.8780 C   0  0  0  0  0  0  0  0  0  0  0  0
  -29.0610  -19.3669   20.5989 C   0  0  0  0  0  0  0  0  0  0  0  0
  -31.5721  -28.3478   20.6976 C   0  0  0  0  0  0  0  0  0  0  0  0
  -33.0072  -26.9539   19.6917 C   0  0  0  0  0  0  0  0  0  0  0  0
  -28.5355  -21.5016   20.6391 C   0  0  0  0  0  0  0  0  0  0  0  0
  -27.4849  -20.1619   22.4694 C   0  0  0  0  0  0  0  0  0  0  0  0
  -22.3514  -28.9361   22.4754 C   0  0  0  0  0  0  0  0  0  0  0  0
  -22.1339  -25.7001   22.5347 C   0  0  0  0  0  0  0  0  0  0  0  0
  -23.6069  -22.6854   21.9114 C   0  0  0  0  0  0  0  0  0  0  0  0
  -32.7373  -24.3024   17.8082 C   0  0  0  0  0  0  0  0  0  0  0  0
  -18.2416  -31.5002   24.0855 C   0  0  0  0  0  0  0  0  0  0  0  0
  -23.0168  -28.3436   20.1170 C   0  0  0  0  0  0  0  0  0  0  0  0
  -24.4237  -26.6696   22.1077 C   0  0  0  0  0  0  0  0  0  0  0  0
  -18.9086  -30.1735   24.4395 C   0  0  0  0  0  0  0  0  0  0  0  0
  -30.0695  -22.6866   16.0911 C   0  0  0  0  0  0  0  0  0  0  0  0
  -20.4062  -30.3693   24.6535 C   0  0  0  0  0  0  0  0  0  0  0  0
  -29.4677  -21.7548   17.1444 C   0  0  0  0  0  0  0  0  0  0  0  0
  -31.5877  -22.7836   16.2246 C   0  0  0  0  0  0  0  0  0  0  0  0
  -31.4669  -22.2238   18.6216 C   0  0  0  0  0  0  0  0  0  0  0  0
  -21.0841  -30.8787   23.3758 C   0  0  1  0  0  0  0  0  0  0  0  0
  -22.3375  -27.8836   21.4032 C   0  0  1  0  0  0  0  0  0  0  0  0
  -29.9322  -22.1374   18.5626 C   0  0  2  0  0  0  0  0  0  0  0  0
  -31.5013  -30.2511   19.0119 C   0  0  0  0  0  0  0  0  0  0  0  0
  -23.1971  -20.2167   22.0977 C   0  0  0  0  0  0  0  0  0  0  0  0
  -22.6336  -25.8465   25.5412 C   0  0  0  0  0  0  0  0  0  0  0  0
  -23.1554  -23.3982   25.5033 C   0  0  0  0  0  0  0  0  0  0  0  0
  -20.8835  -24.1976   24.8536 C   0  0  0  0  0  0  0  0  0  0  0  0
  -32.0815  -26.2104   21.8947 C   0  0  0  0  0  0  0  0  0  0  0  0
  -23.8631  -22.3047   18.9876 C   0  0  0  0  0  0  0  0  0  0  0  0
  -30.6262  -28.8385   21.7666 C   0  0  0  0  0  0  0  0  0  0  0  0
  -33.8265  -25.7353   19.5169 C   0  0  0  0  0  0  0  0  0  0  0  0
  -29.2628  -28.1599   21.6904 C   0  0  0  0  0  0  0  0  0  1  0  0
  -22.8311  -24.5954   23.2914 C   0  0  1  0  0  0  0  0  0  0  0  0
  -23.0979  -21.4428   21.2035 C   0  0  2  0  0  0  0  0  0  0  0  0
  -22.3903  -24.5276   24.7808 C   0  0  0  0  0  0  0  0  0  0  0  0
  -29.7132  -19.8917   19.5581 N   0  0  0  0  0  0  0  0  0  0  0  0
  -32.2160  -27.1419   20.7947 N   0  0  0  0  0  0  0  0  0  0  0  0
  -29.3736  -21.1910   19.6090 N   0  0  0  0  0  0  0  0  0  0  0  0
  -22.9577  -26.6856   21.9727 N   0  0  0  0  0  0  0  0  0  0  0  0
  -31.9617  -23.1514   17.5923 N   0  0  0  0  0  0  0  0  0  0  0  0
  -28.0958  -22.7626   20.8370 N   0  0  0  0  0  0  0  0  0  0  0  0
  -27.3642  -18.8834   23.0307 N   0  0  0  0  0  0  0  0  0  0  0  0
  -21.2694  -29.7945   22.4352 N   0  0  0  0  0  0  0  0  0  0  0  0
  -22.5875  -23.3690   22.5397 N   0  0  0  0  0  0  0  0  0  0  0  0
  -33.0420  -24.5824   19.1347 N   0  0  0  0  0  0  0  0  0  0  0  0
  -23.8914  -21.1888   19.9678 N   0  3  0  0  0  0  0  0  0  0  0  0
  -26.8590  -21.1197   22.9836 O   0  0  0  0  0  0  0  0  0  0  0  0
  -23.2748  -28.9661   23.2806 O   0  0  0  0  0  0  0  0  0  0  0  0
  -20.9041  -25.6852   22.4396 O   0  0  0  0  0  0  0  0  0  0  0  0
  -24.7911  -23.0146   21.9104 O   0  0  0  0  0  0  0  0  0  0  0  0
  -33.1248  -25.0298   16.8875 O   0  0  0  0  0  0  0  0  0  0  0  0
  -29.4972  -13.9064   21.7211 O   0  0  0  0  0  0  0  0  0  0  0  0
  -28.6737  -28.4031   20.4136 O   0  0  0  0  0  0  0  0  0  1  0  0
  -29.0803  -10.3852   17.4983 F   0  0  0  0  0  0  0  0  0  0  0  0
  -27.5103  -11.9849   21.6674 F   0  0  0  0  0  0  0  0  0  0  0  0
  -33.6270  -28.3326   17.3825 Cl  0  0  0  0  0  0  0  0  0  0  0  0
  1  2  1  0  0  0  0
  1  5  2  0  0  0  0
  2  6  2  0  0  0  0
  3  8  2  0  0  0  0
  3 15  1  0  0  0  0
  4  9  1  0  0  0  0
  4 15  2  0  0  0  0
  5 17  1  0  0  0  0
  6 19  1  0  0  0  0
  7 10  2  0  0  0  0
  7 18  1  0  0  0  0
  8 22  1  0  0  0  0
  9 22  2  0  0  0  0
 10 23  1  0  0  0  0
 11 12  2  0  0  0  0
 11 24  1  0  0  0  0
 12 25  1  0  0  0  0
 13 20  1  0  0  0  0
 13 23  2  0  0  0  0
 14 25  2  0  0  0  0
 14 26  1  0  0  0  0
 15 28  1  0  0  0  0
 16 28  1  0  0  0  0
 16 31  2  0  0  0  0
 16 32  1  0  0  0  0
 17 19  2  0  0  0  0
 17 37  1  0  0  0  0
 18 20  2  0  0  0  0
 18 38  1  0  0  0  0
 19 46  1  0  0  0  0
 20 39  1  0  0  0  0
 21 27  1  0  0  0  0
 21 29  2  0  0  0  0
 21 49  1  0  0  0  0
 22 78  1  0  0  0  0
 23 79  1  0  0  0  0
 24 26  2  0  0  0  0
 24 78  1  0  0  0  0
 25 80  1  0  0  0  0
 26 81  1  0  0  0  0
 27 30  2  0  0  0  0
 27 82  1  0  0  0  0
 28 62  2  0  0  0  0
 29 56  1  0  0  0  0
 29 63  1  0  0  0  0
 30 57  1  0  0  0  0
 30 63  1  0  0  0  0
 31 64  1  0  0  0  0
 31 67  1  0  0  0  0
 32 68  1  0  0  0  0
 32 73  2  0  0  0  0
 33 47  1  0  0  0  0
 33 69  1  0  0  0  0
 33 74  2  0  0  0  0
 34 59  1  0  0  0  0
 34 65  1  0  0  0  0
 34 75  2  0  0  0  0
 35 60  1  0  0  0  0
 35 70  1  0  0  0  0
 35 76  2  0  0  0  0
 36 66  1  0  0  0  0
 36 71  1  0  0  0  0
 36 77  2  0  0  0  0
 37 40  1  0  0  0  0
 38 47  1  0  0  0  0
 39 65  1  0  0  0  0
 40 42  1  0  0  0  0
 41 43  1  0  0  0  0
 41 44  1  0  0  0  0
 42 46  1  0  0  0  0
 43 48  1  0  0  0  0
 44 66  1  0  0  0  0
 45 48  1  0  0  0  0
 45 66  1  0  0  0  0
 46 69  1  0  0  0  0
 47 65  1  0  0  0  0
 48 64  1  0  0  0  0
 50 60  1  0  0  0  0
 51 61  1  0  0  0  0
 52 61  1  0  0  0  0
 53 61  1  0  0  0  0
 54 63  1  0  0  0  0
 55 72  1  0  0  0  0
 56 58  1  0  0  0  0
 57 71  1  0  0  0  0
 58 79  1  0  0  0  0
 59 61  1  0  0  0  0
 59 70  1  0  0  0  0
 60 72  1  0  0  0  0
 62 64  1  0  0  0  0
M  CHG  1  72   1
M  ISO  4  36 100  58 101  71 100  79 101
M  END
> <Batch ID>
0024

> <Smiles>
CNC(C)C(=O)NC(C(=O)N1Cc2cc([101O:1][101CH2:1]Cc3c(C)c(Cl)c(C[100NH:0][100C:0](=O)N4CCCC(n5nc(-c6ccc(Oc7ccc(F)cc7F)cc6)c(C(N)=O)c5N)C4)n3C)ccc2CC1C(=O)NC1CCCc2ccccc21)C(C)(C)C

> <Shape>
0.213

> <Color>
0.079

> <Negative vol penalty>
0.000

$$$$

  -OEChem-04052316223D

 89 97  0     1  0  0  0  0  0999 V2000
  -19.7669  -10.9495   21.5183 C   0  0  0  0  0  0  0  0  0  0  0  0
  -20.3609  -12.0849   22.0601 C   0  0  0  0  0  0  0  0  0  0  0  0
  -19.9964  -27.9288   21.6134 C   0  0  0  0  0  0  0  0  0  0  0  0
  -21.5242  -26.5830   22.9141 C   0  0  0  0  0  0  0  0  0  0  0  0
  -20.5612   -9.8929   21.0749 C   0  0  0  0  0  0  0  0  0  0  0  0
  -21.7495  -12.1638   22.1598 C   0  0  0  0  0  0  0  0  0  0  0  0
  -23.5528  -16.6525   20.6615 C   0  0  0  0  0  0  0  0  0  0  0  0
  -19.1733  -26.8176   21.4305 C   0  0  0  0  0  0  0  0  0  0  0  0
  -20.7010  -25.4718   22.7312 C   0  0  0  0  0  0  0  0  0  0  0  0
  -23.4354  -17.7162   21.5551 C   0  0  0  0  0  0  0  0  0  0  0  0
  -20.0732  -23.2100   20.2979 C   0  0  0  0  0  0  0  0  0  0  0  0
  -20.6812  -22.0026   19.9544 C   0  0  0  0  0  0  0  0  0  0  0  0
  -25.7410  -17.4210   22.2002 C   0  0  0  0  0  0  0  0  0  0  0  0
  -24.9006  -21.3439   20.3468 C   0  0  0  0  0  0  0  0  0  0  0  0
  -19.7953  -20.9861   21.9592 C   0  0  0  0  0  0  0  0  0  0  0  0
  -21.1719  -27.8114   22.3552 C   0  0  0  0  0  0  0  0  0  0  0  0
  -21.9619  -29.8995   23.5894 C   0  0  0  0  0  0  0  0  0  0  0  0
  -21.9606   -9.9629   21.1603 C   0  0  0  0  0  0  0  0  0  0  0  0
  -24.7641  -15.9568   20.5383 C   0  0  0  0  0  0  0  0  0  0  0  0
  -22.5631  -11.1066   21.7184 C   0  0  0  0  0  0  0  0  0  0  0  0
  -25.8719  -16.3504   21.3025 C   0  0  0  0  0  0  0  0  0  0  0  0
  -25.1737  -22.2011   21.4127 C   0  0  0  0  0  0  0  0  0  0  0  0
  -26.8414  -23.3297   20.0776 C   0  0  0  0  0  0  0  0  0  0  0  0
  -19.5256  -25.5892   21.9894 C   0  0  0  0  0  0  0  0  0  0  0  0
  -24.5287  -18.0988   22.3267 C   0  0  0  0  0  0  0  0  0  0  0  0
  -19.3262  -23.3055   21.4721 C   0  0  0  0  0  0  0  0  0  0  0  0
  -20.5423  -20.8907   20.7850 C   0  0  0  0  0  0  0  0  0  0  0  0
  -19.1873  -22.1936   22.3027 C   0  0  0  0  0  0  0  0  0  0  0  0
  -25.5979  -21.4795   19.1463 C   0  0  0  0  0  0  0  0  0  0  0  0
  -26.1441  -23.1941   21.2781 C   0  0  0  0  0  0  0  0  0  0  0  0
  -26.5682  -22.4724   19.0117 C   0  0  0  0  0  0  0  0  0  0  0  0
  -22.0229  -28.9587   22.5440 C   0  0  0  0  0  0  0  0  0  0  0  0
  -22.9761  -30.7841   23.3149 C   0  0  0  0  0  0  0  0  0  0  0  0
  -21.0683  -29.9677   24.7086 C   0  0  0  0  0  0  0  0  0  0  0  0
  -25.6879  -12.9560   21.0337 C   0  0  0  0  0  0  0  0  0  0  0  0
  -28.4749  -14.0141   19.7551 C   0  0  0  0  0  0  0  0  0  0  0  0
  -30.5458  -16.6456   19.0967 C   0  0  0  0  0  0  0  0  0  0  0  0
  -28.0906  -30.2968   20.2399 C   0  0  0  0  0  0  0  0  0  0  0  0
  -22.7756   -8.7759   20.7115 C   0  0  0  0  0  0  0  0  0  0  0  0
  -24.8822  -14.8287   19.5505 C   0  0  0  0  0  0  0  0  0  0  0  0
  -27.2004  -15.6492   21.1930 C   0  0  0  0  0  0  0  0  0  0  0  0
  -24.2546   -9.0945   20.5079 C   0  0  0  0  0  0  0  0  0  0  0  0
  -25.4560  -32.6200   19.6584 C   0  0  0  0  0  0  0  0  0  0  0  0
  -24.7951   -9.8969   21.6873 C   0  0  0  0  0  0  0  0  0  0  0  0
  -24.2719  -32.0300   20.4263 C   0  0  0  0  0  0  0  0  0  0  0  0
  -26.3180  -31.5298   19.0257 C   0  0  0  0  0  0  0  0  0  0  0  0
  -25.6007  -29.8989   20.7285 C   0  0  0  0  0  0  0  0  0  0  0  0
  -24.0671  -11.2399   21.8206 C   0  0  1  0  0  0  0  0  0  0  0  0
  -26.0152  -13.8617   19.8804 C   0  0  1  0  0  0  0  0  0  0  0  0
  -24.7336  -30.9575   21.4312 C   0  0  2  0  0  0  0  0  0  0  0  0
  -32.7708  -17.1934   18.0737 C   0  0  0  0  0  0  0  0  0  0  0  0
  -29.8802  -12.9289   22.2366 C   0  0  0  0  0  0  0  0  0  0  0  0
  -31.8762  -14.3113   21.6254 C   0  0  0  0  0  0  0  0  0  0  0  0
  -31.0889  -12.5123   20.0871 C   0  0  0  0  0  0  0  0  0  0  0  0
  -29.3056  -18.3802   17.0443 C   0  0  0  0  0  0  0  0  0  0  0  0
  -24.3941  -22.0165   22.6900 C   0  0  0  0  0  0  0  0  0  0  0  0
  -25.1879  -21.3271   23.8019 C   0  0  0  0  0  0  0  0  0  0  0  0
  -29.4506  -26.5532   20.9093 C   0  0  0  0  0  0  0  0  0  0  0  0
  -29.9882  -25.4105   20.0465 C   0  0  0  0  0  0  0  0  0  0  0  0
  -30.2698  -27.8319   20.7107 C   0  0  0  0  0  0  0  0  0  0  0  0
  -29.1983  -24.1252   20.2712 C   0  0  0  0  0  0  0  0  0  0  0  0
  -29.7493  -28.9952   21.5490 C   0  0  0  0  0  0  0  0  0  0  0  0
  -25.5949  -19.8992   23.4570 C   0  0  0  0  0  0  0  0  0  1  0  0
  -29.7354  -14.6365   20.3055 C   0  0  1  0  0  0  0  0  0  0  0  0
  -31.2752  -17.0615   17.8320 C   0  0  2  0  0  0  0  0  0  0  0  0
  -30.6197  -13.6094   21.0673 C   0  0  0  0  0  0  0  0  0  0  0  0
  -22.9986  -29.2212   21.6704 N   0  0  0  0  0  0  0  0  0  0  0  0
  -23.5600  -30.3370   22.1663 N   0  0  0  0  0  0  0  0  0  0  0  0
  -27.2639  -14.5482   20.2176 N   0  0  0  0  0  0  0  0  0  0  0  0
  -26.7239  -30.5456   20.0321 N   0  0  0  0  0  0  0  0  0  0  0  0
  -23.4165  -31.8930   23.9464 N   0  0  0  0  0  0  0  0  0  0  0  0
  -20.0843  -28.9783   24.8393 N   0  0  0  0  0  0  0  0  0  0  0  0
  -27.8266  -24.3398   19.9441 N   0  0  0  0  0  0  0  0  0  0  0  0
  -24.5601  -12.1817   20.8385 N   0  0  0  0  0  0  0  0  0  0  0  0
  -30.4012  -15.2767   19.1762 N   0  0  0  0  0  0  0  0  0  0  0  0
  -28.3887  -29.3542   21.2164 N   0  0  0  0  0  0  0  0  0  0  0  0
  -30.7605  -18.3724   17.3445 N   0  3  0  0  0  0  0  0  0  0  0  0
  -21.1299  -30.8883   25.5585 O   0  0  0  0  0  0  0  0  0  0  0  0
  -26.4062  -12.9582   22.0265 O   0  0  0  0  0  0  0  0  0  0  0  0
  -28.5617  -13.0929   18.9393 O   0  0  0  0  0  0  0  0  0  0  0  0
  -30.1476  -17.4540   19.9324 O   0  0  0  0  0  0  0  0  0  0  0  0
  -28.9794  -30.8758   19.6062 O   0  0  0  0  0  0  0  0  0  0  0  0
  -18.7225  -24.5048   21.8113 O   0  0  0  0  0  0  0  0  0  0  0  0
  -24.4166  -19.1363   23.2000 O   0  0  0  0  0  0  0  0  0  1  0  0
  -21.1250  -19.7308   20.4542 F   0  0  0  0  0  0  0  0  0  0  0  0
  -18.4699  -22.2789   23.4314 F   0  0  0  0  0  0  0  0  0  0  0  0
  -25.2072  -20.3821   17.8676 Cl  0  0  0  0  0  0  0  0  0  0  0  0
  -26.4732  -24.2552   22.6103 Cl  0  0  0  0  0  0  0  0  0  0  0  0
  -27.4452  -22.6506   17.5219 Cl  0  0  0  0  0  0  0  0  0  0  0  0
  1  2  1  0  0  0  0
  1  5  2  0  0  0  0
  2  6  2  0  0  0  0
  3  8  2  0  0  0  0
  3 16  1  0  0  0  0
  4  9  1  0  0  0  0
  4 16  2  0  0  0  0
  5 18  1  0  0  0  0
  6 20  1  0  0  0  0
  7 10  2  0  0  0  0
  7 19  1  0  0  0  0
  8 24  1  0  0  0  0
  9 24  2  0  0  0  0
 10 25  1  0  0  0  0
 11 12  2  0  0  0  0
 11 26  1  0  0  0  0
 12 27  1  0  0  0  0
 13 21  1  0  0  0  0
 13 25  2  0  0  0  0
 14 22  1  0  0  0  0
 14 29  2  0  0  0  0
 15 27  2  0  0  0  0
 15 28  1  0  0  0  0
 16 32  1  0  0  0  0
 17 32  1  0  0  0  0
 17 33  2  0  0  0  0
 17 34  1  0  0  0  0
 18 20  2  0  0  0  0
 18 39  1  0  0  0  0
 19 21  2  0  0  0  0
 19 40  1  0  0  0  0
 20 48  1  0  0  0  0
 21 41  1  0  0  0  0
 22 30  2  0  0  0  0
 22 56  1  0  0  0  0
 23 30  1  0  0  0  0
 23 31  2  0  0  0  0
 23 73  1  0  0  0  0
 24 83  1  0  0  0  0
 25 84  1  0  0  0  0
 26 28  2  0  0  0  0
 26 83  1  0  0  0  0
 27 85  1  0  0  0  0
 28 86  1  0  0  0  0
 29 31  1  0  0  0  0
 29 87  1  0  0  0  0
 30 88  1  0  0  0  0
 31 89  1  0  0  0  0
 32 67  2  0  0  0  0
 33 68  1  0  0  0  0
 33 71  1  0  0  0  0
 34 72  1  0  0  0  0
 34 78  2  0  0  0  0
 35 49  1  0  0  0  0
 35 74  1  0  0  0  0
 35 79  2  0  0  0  0
 36 64  1  0  0  0  0
 36 69  1  0  0  0  0
 36 80  2  0  0  0  0
 37 65  1  0  0  0  0
 37 75  1  0  0  0  0
 37 81  2  0  0  0  0
 38 70  1  0  0  0  0
 38 76  1  0  0  0  0
 38 82  2  0  0  0  0
 39 42  1  0  0  0  0
 40 49  1  0  0  0  0
 41 69  1  0  0  0  0
 42 44  1  0  0  0  0
 43 45  1  0  0  0  0
 43 46  1  0  0  0  0
 44 48  1  0  0  0  0
 45 50  1  0  0  0  0
 46 70  1  0  0  0  0
 47 50  1  0  0  0  0
 47 70  1  0  0  0  0
 48 74  1  0  0  0  0
 49 69  1  0  0  0  0
 50 68  1  0  0  0  0
 51 65  1  0  0  0  0
 52 66  1  0  0  0  0
 53 66  1  0  0  0  0
 54 66  1  0  0  0  0
 55 77  1  0  0  0  0
 56 57  1  0  0  0  0
 57 63  1  0  0  0  0
 58 59  1  0  0  0  0
 58 60  1  0  0  0  0
 59 61  1  0  0  0  0
 60 62  1  0  0  0  0
 61 73  1  0  0  0  0
 62 76  1  0  0  0  0
 63 84  1  0  0  0  0
 64 66  1  0  0  0  0
 64 75  1  0  0  0  0
 65 77  1  0  0  0  0
 67 68  1  0  0  0  0
M  CHG  1  77   1
M  ISO  4  38 100  63 101  76 100  84 101
M  END
> <Batch ID>
0024

> <Smiles>
CNC(C)C(=O)NC(C(=O)N1Cc2cc([101O:1][101CH2:1]CCc3cc(Cl)c(Cl)c(NCCCCC[100NH:0][100C:0](=O)N4CCCC(n5nc(-c6ccc(Oc7ccc(F)cc7F)cc6)c(C(N)=O)c5N)C4)c3Cl)ccc2CC1C(=O)NC1CCCc2ccccc21)C(C)(C)C

> <Shape>
0.248

> <Color>
0.050

> <Negative vol penalty>
0.000

$$$$

  -OEChem-04052316223D

 82 90  0     1  0  0  0  0  0999 V2000
  -17.2557  -25.0503   24.8660 C   0  0  0  0  0  0  0  0  0  0  0  0
  -18.0121  -24.0890   24.2033 C   0  0  0  0  0  0  0  0  0  0  0  0
  -24.3635  -13.6254   24.1919 C   0  0  0  0  0  0  0  0  0  0  0  0
  -23.6095  -15.4878   22.8503 C   0  0  0  0  0  0  0  0  0  0  0  0
  -17.4099  -26.3988   24.5471 C   0  0  0  0  0  0  0  0  0  0  0  0
  -18.9225  -24.4757   23.2203 C   0  0  0  0  0  0  0  0  0  0  0  0
  -24.3207  -21.8672   21.9712 C   0  0  0  0  0  0  0  0  0  0  0  0
  -23.8510  -14.2406   25.3340 C   0  0  0  0  0  0  0  0  0  0  0  0
  -23.0970  -16.1030   23.9925 C   0  0  0  0  0  0  0  0  0  0  0  0
  -24.7159  -20.9474   21.0008 C   0  0  0  0  0  0  0  0  0  0  0  0
  -21.9085  -18.3316   26.6060 C   0  0  0  0  0  0  0  0  0  0  0  0
  -22.1612  -19.6926   26.7781 C   0  0  0  0  0  0  0  0  0  0  0  0
  -25.4730  -22.7596   19.6001 C   0  0  0  0  0  0  0  0  0  0  0  0
  -24.5366  -19.2514   26.7785 C   0  0  0  0  0  0  0  0  0  0  0  0
  -26.0862  -18.6034   14.7640 C   0  0  0  0  0  0  0  0  0  0  0  0
  -24.2428  -14.2490   22.9500 C   0  0  0  0  0  0  0  0  0  0  0  0
  -24.1020  -12.7237   20.9100 C   0  0  0  0  0  0  0  0  0  0  0  0
  -18.3296  -26.8029   23.5665 C   0  0  0  0  0  0  0  0  0  0  0  0
  -24.4890  -23.2429   21.7584 C   0  0  0  0  0  0  0  0  0  0  0  0
  -19.0882  -25.8307   22.8870 C   0  0  0  0  0  0  0  0  0  0  0  0
  -25.0815  -23.6946   20.5705 C   0  0  0  0  0  0  0  0  0  0  0  0
  -27.9912  -18.0250   16.1326 C   0  0  0  0  0  0  0  0  0  0  0  0
  -26.5853  -19.8916   16.7460 C   0  0  0  0  0  0  0  0  0  0  0  0
  -23.2178  -15.4794   25.2343 C   0  0  0  0  0  0  0  0  0  0  0  0
  -25.2894  -21.3937   19.8138 C   0  0  0  0  0  0  0  0  0  0  0  0
  -22.9699  -17.4306   26.5202 C   0  0  0  0  0  0  0  0  0  0  0  0
  -23.4752  -20.1525   26.8644 C   0  0  0  0  0  0  0  0  0  0  0  0
  -24.2839  -17.8905   26.6065 C   0  0  0  0  0  0  0  0  0  0  0  0
  -27.1898  -17.7885   15.0157 C   0  0  0  0  0  0  0  0  0  0  0  0
  -25.7839  -19.6550   15.6292 C   0  0  0  0  0  0  0  0  0  0  0  0
  -27.6890  -19.0766   16.9978 C   0  0  0  0  0  0  0  0  0  0  0  0
  -24.7724  -13.6143   21.7699 C   0  0  0  0  0  0  0  0  0  0  0  0
  -25.0316  -12.4090   19.9491 C   0  0  0  0  0  0  0  0  0  0  0  0
  -22.7591  -12.2256   20.9742 C   0  0  0  0  0  0  0  0  0  0  0  0
  -22.5286  -25.7357   21.5427 C   0  0  0  0  0  0  0  0  0  0  0  0
  -25.3029  -27.4133   21.4369 C   0  0  0  0  0  0  0  0  0  0  0  0
  -28.6428  -27.4479   20.7362 C   0  0  0  0  0  0  0  0  0  0  0  0
  -29.8642  -15.2618   17.8615 C   0  0  0  0  0  0  0  0  0  0  0  0
  -18.4272  -28.2682   23.2228 C   0  0  0  0  0  0  0  0  0  0  0  0
  -24.0820  -24.2208   22.8264 C   0  0  0  0  0  0  0  0  0  0  0  0
  -25.3027  -25.1600   20.3020 C   0  0  0  0  0  0  0  0  0  0  0  0
  -19.6834  -28.6261   22.4326 C   0  0  0  0  0  0  0  0  0  0  0  0
  -29.7543  -12.0057   19.2976 C   0  0  0  0  0  0  0  0  0  0  0  0
  -19.8986  -27.6340   21.2941 C   0  0  0  0  0  0  0  0  0  0  0  0
  -28.4045  -11.9684   20.0165 C   0  0  0  0  0  0  0  0  0  0  0  0
  -30.4029  -13.3853   19.3863 C   0  0  0  0  0  0  0  0  0  0  0  0
  -28.2022  -14.4630   19.6492 C   0  0  0  0  0  0  0  0  0  0  0  0
  -20.1039  -26.2128   21.8322 C   0  0  1  0  0  0  0  0  0  0  0  0
  -23.8297  -25.6250   22.2860 C   0  0  1  0  0  0  0  0  0  0  0  0
  -27.4834  -13.1074   19.5394 C   0  0  2  0  0  0  0  0  0  0  0  0
  -30.6347  -28.9741   20.7115 C   0  0  0  0  0  0  0  0  0  0  0  0
  -24.2780  -28.7054   18.8698 C   0  0  0  0  0  0  0  0  0  0  0  0
  -26.6183  -29.4590   18.3973 C   0  0  0  0  0  0  0  0  0  0  0  0
  -25.4354  -30.2735   20.4369 C   0  0  0  0  0  0  0  0  0  0  0  0
  -30.0798  -25.7948   22.7265 C   0  0  0  0  0  0  0  0  0  0  0  0
  -29.1747  -17.1447   16.3992 C   0  0  0  0  0  0  0  0  0  0  0  0
  -26.2561  -21.0251   17.6724 C   0  0  0  0  0  0  0  0  0  1  0  0
  -26.2315  -27.8758   20.3401 C   0  0  1  0  0  0  0  0  0  0  0  0
  -29.8317  -27.9694   21.5230 C   0  0  2  0  0  0  0  0  0  0  0  0
  -25.6350  -29.0509   19.5150 C   0  0  0  0  0  0  0  0  0  0  0  0
  -26.0307  -13.8499   21.3889 N   0  0  0  0  0  0  0  0  0  0  0  0
  -26.1584  -13.1028   20.2792 N   0  0  0  0  0  0  0  0  0  0  0  0
  -24.8823  -26.0773   21.3741 N   0  0  0  0  0  0  0  0  0  0  0  0
  -29.4780  -14.4202   18.9177 N   0  0  0  0  0  0  0  0  0  0  0  0
  -24.9868  -11.6091   18.8626 N   0  0  0  0  0  0  0  0  0  0  0  0
  -21.9382  -12.6511   22.0275 N   0  0  0  0  0  0  0  0  0  0  0  0
  -21.4486  -26.0552   22.3433 N   0  0  0  0  0  0  0  0  0  0  0  0
  -27.5034  -28.1836   20.9850 N   0  0  0  0  0  0  0  0  0  0  0  0
  -28.9260  -16.2111   17.4750 N   0  0  0  0  0  0  0  0  0  0  0  0
  -30.7333  -26.8458   21.9047 N   0  3  0  0  0  0  0  0  0  0  0  0
  -22.3058  -11.4142   20.1318 O   0  0  0  0  0  0  0  0  0  0  0  0
  -22.5064  -25.5468   20.3321 O   0  0  0  0  0  0  0  0  0  0  0  0
  -24.9690  -28.2062   22.3209 O   0  0  0  0  0  0  0  0  0  0  0  0
  -28.7182  -26.4866   19.9742 O   0  0  0  0  0  0  0  0  0  0  0  0
  -30.9615  -15.1703   17.3007 O   0  0  0  0  0  0  0  0  0  0  0  0
  -22.7174  -16.0799   26.3486 O   0  0  0  0  0  0  0  0  0  0  0  0
  -25.6754  -20.4981   18.8647 O   0  0  0  0  0  0  0  0  0  1  0  0
  -23.7178  -21.4596   27.0281 F   0  0  0  0  0  0  0  0  0  0  0  0
  -25.3077  -17.0298   26.5235 F   0  0  0  0  0  0  0  0  0  0  0  0
  -27.5269  -16.4975   13.9187 Cl  0  0  0  0  0  0  0  0  0  0  0  0
  -24.4083  -20.6394   15.2789 Cl  0  0  0  0  0  0  0  0  0  0  0  0
  -28.6853  -19.3721   18.3856 Cl  0  0  0  0  0  0  0  0  0  0  0  0
  1  2  1  0  0  0  0
  1  5  2  0  0  0  0
  2  6  2  0  0  0  0
  3  8  2  0  0  0  0
  3 16  1  0  0  0  0
  4  9  1  0  0  0  0
  4 16  2  0  0  0  0
  5 18  1  0  0  0  0
  6 20  1  0  0  0  0
  7 10  2  0  0  0  0
  7 19  1  0  0  0  0
  8 24  1  0  0  0  0
  9 24  2  0  0  0  0
 10 25  1  0  0  0  0
 11 12  2  0  0  0  0
 11 26  1  0  0  0  0
 12 27  1  0  0  0  0
 13 21  1  0  0  0  0
 13 25  2  0  0  0  0
 14 27  2  0  0  0  0
 14 28  1  0  0  0  0
 15 29  1  0  0  0  0
 15 30  2  0  0  0  0
 16 32  1  0  0  0  0
 17 32  1  0  0  0  0
 17 33  2  0  0  0  0
 17 34  1  0  0  0  0
 18 20  2  0  0  0  0
 18 39  1  0  0  0  0
 19 21  2  0  0  0  0
 19 40  1  0  0  0  0
 20 48  1  0  0  0  0
 21 41  1  0  0  0  0
 22 29  2  0  0  0  0
 22 31  1  0  0  0  0
 22 56  1  0  0  0  0
 23 30  1  0  0  0  0
 23 31  2  0  0  0  0
 23 57  1  0  0  0  0
 24 76  1  0  0  0  0
 25 77  1  0  0  0  0
 26 28  2  0  0  0  0
 26 76  1  0  0  0  0
 27 78  1  0  0  0  0
 28 79  1  0  0  0  0
 29 80  1  0  0  0  0
 30 81  1  0  0  0  0
 31 82  1  0  0  0  0
 32 61  2  0  0  0  0
 33 62  1  0  0  0  0
 33 65  1  0  0  0  0
 34 66  1  0  0  0  0
 34 71  2  0  0  0  0
 35 49  1  0  0  0  0
 35 67  1  0  0  0  0
 35 72  2  0  0  0  0
 36 58  1  0  0  0  0
 36 63  1  0  0  0  0
 36 73  2  0  0  0  0
 37 59  1  0  0  0  0
 37 68  1  0  0  0  0
 37 74  2  0  0  0  0
 38 64  1  0  0  0  0
 38 69  1  0  0  0  0
 38 75  2  0  0  0  0
 39 42  1  0  0  0  0
 40 49  1  0  0  0  0
 41 63  1  0  0  0  0
 42 44  1  0  0  0  0
 43 45  1  0  0  0  0
 43 46  1  0  0  0  0
 44 48  1  0  0  0  0
 45 50  1  0  0  0  0
 46 64  1  0  0  0  0
 47 50  1  0  0  0  0
 47 64  1  0  0  0  0
 48 67  1  0  0  0  0
 49 63  1  0  0  0  0
 50 62  1  0  0  0  0
 51 59  1  0  0  0  0
 52 60  1  0  0  0  0
 53 60  1  0  0  0  0
 54 60  1  0  0  0  0
 55 70  1  0  0  0  0
 56 69  1  0  0  0  0
 57 77  1  0  0  0  0
 58 60  1  0  0  0  0
 58 68  1  0  0  0  0
 59 70  1  0  0  0  0
 61 62  1  0  0  0  0
M  CHG  1  70   1
M  ISO  4  38 100  57 101  69 100  77 101
M  END
> <Batch ID>
0024

> <Smiles>
CNC(C)C(=O)NC(C(=O)N1Cc2cc([101O:1][101CH2:1]c3c(Cl)cc(Cl)c(C[100NH:0][100C:0](=O)N4CCCC(n5nc(-c6ccc(Oc7ccc(F)cc7F)cc6)c(C(N)=O)c5N)C4)c3Cl)ccc2CC1C(=O)NC1CCCc2ccccc21)C(C)(C)C

> <Shape>
0.173

> <Color>
0.086

> <Negative vol penalty>
0.000

$$$$

  -OEChem-04052316223D

 88 96  0     1  0  0  0  0  0999 V2000
  -36.1658  -32.6442   18.6663 C   0  0  0  0  0  0  0  0  0  0  0  0
  -35.1128  -32.0157   19.3234 C   0  0  0  0  0  0  0  0  0  0  0  0
  -23.1989   -9.7624   19.8230 C   0  0  0  0  0  0  0  0  0  0  0  0
  -23.9578   -9.6952   22.1158 C   0  0  0  0  0  0  0  0  0  0  0  0
  -36.5319  -33.9419   19.0209 C   0  0  0  0  0  0  0  0  0  0  0  0
  -34.4260  -32.6842   20.3362 C   0  0  0  0  0  0  0  0  0  0  0  0
  -29.4034  -32.1690   19.9453 C   0  0  0  0  0  0  0  0  0  0  0  0
  -22.5239   -8.5564   20.0111 C   0  0  0  0  0  0  0  0  0  0  0  0
  -23.2827   -8.4891   22.3038 C   0  0  0  0  0  0  0  0  0  0  0  0
  -28.8515  -30.9635   20.3767 C   0  0  0  0  0  0  0  0  0  0  0  0
  -20.1069   -7.4740   22.8556 C   0  0  0  0  0  0  0  0  0  0  0  0
  -19.3539   -7.3294   24.0208 C   0  0  0  0  0  0  0  0  0  0  0  0
  -28.2112  -32.0074   22.4550 C   0  0  0  0  0  0  0  0  0  0  0  0
  -31.4714  -18.5175   24.5395 C   0  0  0  0  0  0  0  0  0  0  0  0
  -20.7068   -5.4323   24.6595 C   0  0  0  0  0  0  0  0  0  0  0  0
  -23.9160  -10.3318   20.8754 C   0  0  0  0  0  0  0  0  0  0  0  0
  -24.1095  -12.8754   20.8868 C   0  0  0  0  0  0  0  0  0  0  0  0
  -35.8430  -34.6303   20.0320 C   0  0  0  0  0  0  0  0  0  0  0  0
  -29.3730  -33.3017   20.7713 C   0  0  0  0  0  0  0  0  0  0  0  0
  -34.7842  -33.9919   20.7056 C   0  0  0  0  0  0  0  0  0  0  0  0
  -28.7611  -33.2267   22.0308 C   0  0  0  0  0  0  0  0  0  0  0  0
  -30.2574  -18.8234   23.9246 C   0  0  0  0  0  0  0  0  0  0  0  0
  -30.3948  -16.7828   22.6383 C   0  0  0  0  0  0  0  0  0  0  0  0
  -22.5657   -7.9198   21.2515 C   0  0  0  0  0  0  0  0  0  0  0  0
  -28.2579  -30.8818   21.6328 C   0  0  0  0  0  0  0  0  0  0  0  0
  -21.1598   -6.5977   22.5923 C   0  0  0  0  0  0  0  0  0  0  0  0
  -19.6539   -6.3086   24.9228 C   0  0  0  0  0  0  0  0  0  0  0  0
  -32.1472  -17.3444   24.2038 C   0  0  0  0  0  0  0  0  0  0  0  0
  -21.4597   -5.5769   23.4943 C   0  0  0  0  0  0  0  0  0  0  0  0
  -29.7191  -17.9561   22.9740 C   0  0  0  0  0  0  0  0  0  0  0  0
  -31.6089  -16.4770   23.2533 C   0  0  0  0  0  0  0  0  0  0  0  0
  -24.6140  -11.5773   20.6816 C   0  0  0  0  0  0  0  0  0  0  0  0
  -25.1559  -13.7052   20.5657 C   0  0  0  0  0  0  0  0  0  0  0  0
  -22.8112  -13.2938   21.3284 C   0  0  0  0  0  0  0  0  0  0  0  0
  -31.5759  -35.1492   22.1270 C   0  0  0  0  0  0  0  0  0  0  0  0
  -28.9993  -36.9221   22.9873 C   0  0  0  0  0  0  0  0  0  0  0  0
  -25.6462  -37.0477   23.6102 C   0  0  0  0  0  0  0  0  0  0  0  0
  -30.5516  -15.0579   20.8090 C   0  0  0  0  0  0  0  0  0  0  0  0
  -36.3057  -36.0143   20.4129 C   0  0  0  0  0  0  0  0  0  0  0  0
  -29.9490  -34.6016   20.2805 C   0  0  0  0  0  0  0  0  0  0  0  0
  -28.6845  -34.4192   22.9475 C   0  0  0  0  0  0  0  0  0  0  0  0
  -35.2852  -36.7915   21.2404 C   0  0  0  0  0  0  0  0  0  0  0  0
  -29.5795  -12.7088   18.3162 C   0  0  0  0  0  0  0  0  0  0  0  0
  -34.7284  -35.9172   22.3595 C   0  0  0  0  0  0  0  0  0  0  0  0
  -28.1595  -12.3118   18.7263 C   0  0  0  0  0  0  0  0  0  0  0  0
  -30.4801  -12.9282   19.5306 C   0  0  0  0  0  0  0  0  0  0  0  0
  -28.5344  -13.4676   20.9422 C   0  0  0  0  0  0  0  0  0  0  0  0
  -33.9989  -34.6933   21.7925 C   0  0  1  0  0  0  0  0  0  0  0  0
  -30.3188  -35.5562   21.4117 C   0  0  1  0  0  0  0  0  0  0  0  0
  -27.5730  -13.2990   19.7544 C   0  0  2  0  0  0  0  0  0  0  0  0
  -23.8345  -38.6270   24.3318 C   0  0  0  0  0  0  0  0  0  0  0  0
  -29.9985  -36.7497   25.8651 C   0  0  0  0  0  0  0  0  0  0  0  0
  -27.7295  -37.4875   26.6236 C   0  0  0  0  0  0  0  0  0  0  0  0
  -29.1174  -38.9936   25.1995 C   0  0  0  0  0  0  0  0  0  0  0  0
  -24.1633  -36.6889   21.0742 C   0  0  0  0  0  0  0  0  0  0  0  0
  -29.5642  -20.1029   24.3202 C   0  0  0  0  0  0  0  0  0  0  0  0
  -29.7498  -21.2434   23.3117 C   0  0  0  0  0  0  0  0  0  0  0  0
  -29.0272  -22.5297   23.7267 C   0  0  0  0  0  0  0  0  0  0  0  0
  -29.1976  -23.6721   22.7204 C   0  0  0  0  0  0  0  0  0  0  0  0
  -28.5391  -24.9789   23.1686 C   0  0  0  0  0  0  0  0  0  0  0  0
  -28.7595  -26.0908   22.1404 C   0  0  0  0  0  0  0  0  0  0  0  0
  -28.1324  -27.4053   22.6000 C   0  0  0  0  0  0  0  0  0  0  0  0
  -28.3109  -28.5052   21.5631 C   0  0  0  0  0  0  0  0  0  1  0  0
  -28.0608  -36.9405   24.1696 C   0  0  1  0  0  0  0  0  0  0  0  0
  -24.5718  -38.0165   23.1502 C   0  0  2  0  0  0  0  0  0  0  0  0
  -28.7295  -37.5197   25.4482 C   0  0  0  0  0  0  0  0  0  0  0  0
  -25.8822  -11.5773   20.2623 N   0  0  0  0  0  0  0  0  0  0  0  0
  -26.1834  -12.8856   20.2015 N   0  0  0  0  0  0  0  0  0  0  0  0
  -29.2674  -35.6661   22.4250 N   0  0  0  0  0  0  0  0  0  0  0  0
  -29.8620  -13.8779   20.4585 N   0  0  0  0  0  0  0  0  0  0  0  0
  -25.2880  -15.0487   20.5621 N   0  0  0  0  0  0  0  0  0  0  0  0
  -21.8543  -12.3108   21.6155 N   0  0  0  0  0  0  0  0  0  0  0  0
  -29.8515  -15.9000   21.6724 N   0  0  0  0  0  0  0  0  0  0  0  0
  -32.6867  -35.0661   21.3092 N   0  0  0  0  0  0  0  0  0  0  0  0
  -26.8720  -37.6665   23.7359 N   0  0  0  0  0  0  0  0  0  0  0  0
  -23.5786  -37.3168   22.2871 N   0  3  0  0  0  0  0  0  0  0  0  0
  -22.5034  -14.5039   21.4486 O   0  0  0  0  0  0  0  0  0  0  0  0
  -31.5410  -34.9285   23.3318 O   0  0  0  0  0  0  0  0  0  0  0  0
  -29.4713  -37.9840   22.5734 O   0  0  0  0  0  0  0  0  0  0  0  0
  -25.4199  -35.8616   23.8390 O   0  0  0  0  0  0  0  0  0  0  0  0
  -31.6687  -15.3162   20.3538 O   0  0  0  0  0  0  0  0  0  0  0  0
  -21.9069   -6.7430   21.4354 O   0  0  0  0  0  0  0  0  0  0  0  0
  -27.7190  -29.7062   22.0566 O   0  0  0  0  0  0  0  0  0  1  0  0
  -18.9317   -6.1708   26.0424 F   0  0  0  0  0  0  0  0  0  0  0  0
  -33.3128  -17.0663   24.8056 F   0  0  0  0  0  0  0  0  0  0  0  0
  -22.4707   -4.7327   23.2474 F   0  0  0  0  0  0  0  0  0  0  0  0
  -28.2100  -18.3490   22.2141 Cl  0  0  0  0  0  0  0  0  0  0  0  0
  -32.4784  -15.0321   22.8690 Cl  0  0  0  0  0  0  0  0  0  0  0  0
  1  2  1  0  0  0  0
  1  5  2  0  0  0  0
  2  6  2  0  0  0  0
  3  8  2  0  0  0  0
  3 16  1  0  0  0  0
  4  9  1  0  0  0  0
  4 16  2  0  0  0  0
  5 18  1  0  0  0  0
  6 20  1  0  0  0  0
  7 10  2  0  0  0  0
  7 19  1  0  0  0  0
  8 24  1  0  0  0  0
  9 24  2  0  0  0  0
 10 25  1  0  0  0  0
 11 12  2  0  0  0  0
 11 26  1  0  0  0  0
 12 27  1  0  0  0  0
 13 21  1  0  0  0  0
 13 25  2  0  0  0  0
 14 22  1  0  0  0  0
 14 28  2  0  0  0  0
 15 27  2  0  0  0  0
 15 29  1  0  0  0  0
 16 32  1  0  0  0  0
 17 32  1  0  0  0  0
 17 33  2  0  0  0  0
 17 34  1  0  0  0  0
 18 20  2  0  0  0  0
 18 39  1  0  0  0  0
 19 21  2  0  0  0  0
 19 40  1  0  0  0  0
 20 48  1  0  0  0  0
 21 41  1  0  0  0  0
 22 30  2  0  0  0  0
 22 56  1  0  0  0  0
 23 30  1  0  0  0  0
 23 31  2  0  0  0  0
 23 73  1  0  0  0  0
 24 82  1  0  0  0  0
 25 83  1  0  0  0  0
 26 29  2  0  0  0  0
 26 82  1  0  0  0  0
 27 84  1  0  0  0  0
 28 31  1  0  0  0  0
 28 85  1  0  0  0  0
 29 86  1  0  0  0  0
 30 87  1  0  0  0  0
 31 88  1  0  0  0  0
 32 67  2  0  0  0  0
 33 68  1  0  0  0  0
 33 71  1  0  0  0  0
 34 72  1  0  0  0  0
 34 77  2  0  0  0  0
 35 49  1  0  0  0  0
 35 74  1  0  0  0  0
 35 78  2  0  0  0  0
 36 64  1  0  0  0  0
 36 69  1  0  0  0  0
 36 79  2  0  0  0  0
 37 65  1  0  0  0  0
 37 75  1  0  0  0  0
 37 80  2  0  0  0  0
 38 70  1  0  0  0  0
 38 73  1  0  0  0  0
 38 81  2  0  0  0  0
 39 42  1  0  0  0  0
 40 49  1  0  0  0  0
 41 69  1  0  0  0  0
 42 44  1  0  0  0  0
 43 45  1  0  0  0  0
 43 46  1  0  0  0  0
 44 48  1  0  0  0  0
 45 50  1  0  0  0  0
 46 70  1  0  0  0  0
 47 50  1  0  0  0  0
 47 70  1  0  0  0  0
 48 74  1  0  0  0  0
 49 69  1  0  0  0  0
 50 68  1  0  0  0  0
 51 65  1  0  0  0  0
 52 66  1  0  0  0  0
 53 66  1  0  0  0  0
 54 66  1  0  0  0  0
 55 76  1  0  0  0  0
 56 57  1  0  0  0  0
 57 58  1  0  0  0  0
 58 59  1  0  0  0  0
 59 60  1  0  0  0  0
 60 61  1  0  0  0  0
 61 62  1  0  0  0  0
 62 63  1  0  0  0  0
 63 83  1  0  0  0  0
 64 66  1  0  0  0  0
 64 75  1  0  0  0  0
 65 76  1  0  0  0  0
 67 68  1  0  0  0  0
M  CHG  1  76   1
M  ISO  4  38 100  63 101  73 100  83 101
M  END
> <Batch ID>
0024

> <Smiles>
CNC(C)C(=O)NC(C(=O)N1Cc2cc([101O:1][101CH2:1]CCCCCCCc3cc(F)c(Cl)c([100NH:0][100C:0](=O)N4CCCC(n5nc(-c6ccc(Oc7ccc(F)cc7F)cc6)c(C(N)=O)c5N)C4)c3Cl)ccc2CC1C(=O)NC1CCCc2ccccc21)C(C)(C)C

> <Shape>
0.244

> <Color>
0.203

> <Negative vol penalty>
0.000

$$$$

  -OEChem-04052316223D

 85 93  0     1  0  0  0  0  0999 V2000
  -26.9005  -33.3845   14.5429 C   0  0  0  0  0  0  0  0  0  0  0  0
  -27.0108  -32.1233   15.1197 C   0  0  0  0  0  0  0  0  0  0  0  0
  -27.5039  -11.4177   20.5597 C   0  0  0  0  0  0  0  0  0  0  0  0
  -27.0380  -12.2921   18.3562 C   0  0  0  0  0  0  0  0  0  0  0  0
  -26.9178  -34.5222   15.3486 C   0  0  0  0  0  0  0  0  0  0  0  0
  -27.1396  -31.9992   16.5026 C   0  0  0  0  0  0  0  0  0  0  0  0
  -24.1727  -28.3663   18.4116 C   0  0  0  0  0  0  0  0  0  0  0  0
  -26.4184  -10.5494   20.4447 C   0  0  0  0  0  0  0  0  0  0  0  0
  -25.9525  -11.4237   18.2411 C   0  0  0  0  0  0  0  0  0  0  0  0
  -24.6022  -27.0486   18.2606 C   0  0  0  0  0  0  0  0  0  0  0  0
  -23.5517   -8.3540   20.8761 C   0  0  0  0  0  0  0  0  0  0  0  0
  -22.6932   -8.2383   21.9693 C   0  0  0  0  0  0  0  0  0  0  0  0
  -25.4187  -27.0610   20.5305 C   0  0  0  0  0  0  0  0  0  0  0  0
  -22.1941  -10.5979   21.8273 C   0  0  0  0  0  0  0  0  0  0  0  0
  -25.2236  -21.8940   18.0532 C   0  0  0  0  0  0  0  0  0  0  0  0
  -27.8137  -12.2891   19.5155 C   0  0  0  0  0  0  0  0  0  0  0  0
  -30.2669  -12.9380   19.2533 C   0  0  0  0  0  0  0  0  0  0  0  0
  -27.0371  -34.4115   16.7430 C   0  0  0  0  0  0  0  0  0  0  0  0
  -24.3730  -29.0460   19.6217 C   0  0  0  0  0  0  0  0  0  0  0  0
  -27.1598  -33.1366   17.3276 C   0  0  0  0  0  0  0  0  0  0  0  0
  -24.9885  -28.3864   20.6951 C   0  0  0  0  0  0  0  0  0  0  0  0
  -25.6428  -10.5523   19.2854 C   0  0  0  0  0  0  0  0  0  0  0  0
  -25.2280  -26.3966   19.3191 C   0  0  0  0  0  0  0  0  0  0  0  0
  -23.7315   -9.5918   20.2585 C   0  0  0  0  0  0  0  0  0  0  0  0
  -22.0144   -9.3602   22.4449 C   0  0  0  0  0  0  0  0  0  0  0  0
  -23.0527  -10.7137   20.7341 C   0  0  0  0  0  0  0  0  0  0  0  0
  -26.1730  -20.8425   18.0614 C   0  0  0  0  0  0  0  0  0  0  0  0
  -28.9346  -13.1868   19.6339 C   0  0  0  0  0  0  0  0  0  0  0  0
  -25.9216  -23.0777   17.9587 C   0  0  0  0  0  0  0  0  0  0  0  0
  -27.4224  -21.4157   17.9718 C   0  0  0  0  0  0  0  0  0  0  0  0
  -30.9361  -14.0948   19.5699 C   0  0  0  0  0  0  0  0  0  0  0  0
  -30.8475  -11.7660   18.6660 C   0  0  0  0  0  0  0  0  0  0  0  0
  -25.9872  -31.6409   20.4963 C   0  0  0  0  0  0  0  0  0  0  0  0
  -24.5406  -31.1034   23.3495 C   0  0  0  0  0  0  0  0  0  0  0  0
  -23.0530  -28.8820   25.4707 C   0  0  0  0  0  0  0  0  0  0  0  0
  -29.1798  -19.7873   20.1713 C   0  0  0  0  0  0  0  0  0  0  0  0
  -27.0986  -35.6721   17.5687 C   0  0  0  0  0  0  0  0  0  0  0  0
  -23.8798  -30.4584   19.7773 C   0  0  0  0  0  0  0  0  0  0  0  0
  -25.2091  -29.0651   22.0215 C   0  0  0  0  0  0  0  0  0  0  0  0
  -26.8615  -35.4368   19.0582 C   0  0  0  0  0  0  0  0  0  0  0  0
  -30.8090  -17.7796   22.6190 C   0  0  0  0  0  0  0  0  0  0  0  0
  -27.6840  -34.2494   19.5486 C   0  0  0  0  0  0  0  0  0  0  0  0
  -30.6336  -16.3524   22.0972 C   0  0  0  0  0  0  0  0  0  0  0  0
  -29.5815  -18.6410   22.3302 C   0  0  0  0  0  0  0  0  0  0  0  0
  -28.9839  -17.2363   20.3954 C   0  0  0  0  0  0  0  0  0  0  0  0
  -27.2762  -32.9598   18.8261 C   0  0  1  0  0  0  0  0  0  0  0  0
  -24.5973  -31.2232   20.8854 C   0  0  1  0  0  0  0  0  0  0  0  0
  -30.2184  -16.3449   20.6137 C   0  0  2  0  0  0  0  0  0  0  0  0
  -29.0295  -23.9663   19.1383 C   0  0  0  0  0  0  0  0  0  0  0  0
  -22.0060  -28.7296   27.7462 C   0  0  0  0  0  0  0  0  0  0  0  0
  -30.7459  -19.7675   16.6776 C   0  0  0  0  0  0  0  0  0  0  0  0
  -29.5192  -21.6709   15.6137 C   0  0  0  0  0  0  0  0  0  0  0  0
  -28.4515  -19.4200   15.7753 C   0  0  0  0  0  0  0  0  0  0  0  0
  -27.3107  -31.1787   24.6265 C   0  0  0  0  0  0  0  0  0  0  0  0
  -26.3260  -30.1009   26.6604 C   0  0  0  0  0  0  0  0  0  0  0  0
  -25.5279  -32.3494   25.9324 C   0  0  0  0  0  0  0  0  0  0  0  0
  -20.4483  -28.0429   24.3436 C   0  0  0  0  0  0  0  0  0  0  0  0
  -25.4170  -24.4900   17.9103 C   0  0  0  0  0  0  0  0  0  1  0  0
  -28.3292  -23.7428   17.8090 C   0  0  0  0  0  0  0  0  0  0  0  0
  -28.7613  -20.7886   17.9394 C   0  0  2  0  0  0  0  0  0  0  0  0
  -24.8801  -30.3089   24.5875 C   0  0  1  0  0  0  0  0  0  0  0  0
  -21.7601  -28.9566   26.2627 C   0  0  2  0  0  0  0  0  0  0  0  0
  -29.3617  -20.4301   16.5130 C   0  0  0  0  0  0  0  0  0  0  0  0
  -26.0089  -30.9721   25.4262 C   0  0  0  0  0  0  0  0  0  0  0  0
  -28.7656  -14.4059   20.1528 N   0  0  0  0  0  0  0  0  0  0  0  0
  -27.2573  -22.7748   17.9102 N   0  0  0  0  0  0  0  0  0  0  0  0
  -30.0006  -14.9334   20.1005 N   0  0  0  0  0  0  0  0  0  0  0  0
  -24.7148  -30.4482   22.1223 N   0  0  0  0  0  0  0  0  0  0  0  0
  -29.2417  -18.5918   20.9062 N   0  0  0  0  0  0  0  0  0  0  0  0
  -32.2278  -14.4663   19.4434 N   0  0  0  0  0  0  0  0  0  0  0  0
  -30.0170  -10.6672   18.4064 N   0  0  0  0  0  0  0  0  0  0  0  0
  -26.0396  -32.4436   19.3728 N   0  0  0  0  0  0  0  0  0  0  0  0
  -23.6268  -30.1256   25.3114 N   0  0  0  0  0  0  0  0  0  0  0  0
  -28.8572  -19.6509   18.8267 N   0  0  0  0  0  0  0  0  0  0  0  0
  -20.7982  -27.9246   25.7825 N   0  3  0  0  0  0  0  0  0  0  0  0
  -32.0699  -11.6892   18.3950 O   0  0  0  0  0  0  0  0  0  0  0  0
  -26.9412  -31.2641   21.1667 O   0  0  0  0  0  0  0  0  0  0  0  0
  -24.1289  -32.2602   23.4675 O   0  0  0  0  0  0  0  0  0  0  0  0
  -23.5103  -27.8257   25.0399 O   0  0  0  0  0  0  0  0  0  0  0  0
  -29.4012  -20.8938   20.6750 O   0  0  0  0  0  0  0  0  0  0  0  0
  -24.5836   -9.7049   19.1728 O   0  0  0  0  0  0  0  0  0  0  0  0
  -25.6488  -25.1107   19.1742 O   0  0  0  0  0  0  0  0  0  1  0  0
  -21.1888   -9.2485   23.4938 F   0  0  0  0  0  0  0  0  0  0  0  0
  -23.2205  -11.9051   20.1441 F   0  0  0  0  0  0  0  0  0  0  0  0
  -25.7918  -19.1908   18.1645 Cl  0  0  0  0  0  0  0  0  0  0  0  0
  1  2  1  0  0  0  0
  1  5  2  0  0  0  0
  2  6  2  0  0  0  0
  3  8  2  0  0  0  0
  3 16  1  0  0  0  0
  4  9  1  0  0  0  0
  4 16  2  0  0  0  0
  5 18  1  0  0  0  0
  6 20  1  0  0  0  0
  7 10  2  0  0  0  0
  7 19  1  0  0  0  0
  8 22  1  0  0  0  0
  9 22  2  0  0  0  0
 10 23  1  0  0  0  0
 11 12  2  0  0  0  0
 11 24  1  0  0  0  0
 12 25  1  0  0  0  0
 13 21  1  0  0  0  0
 13 23  2  0  0  0  0
 14 25  2  0  0  0  0
 14 26  1  0  0  0  0
 15 27  1  0  0  0  0
 15 29  2  0  0  0  0
 16 28  1  0  0  0  0
 17 28  1  0  0  0  0
 17 31  2  0  0  0  0
 17 32  1  0  0  0  0
 18 20  2  0  0  0  0
 18 37  1  0  0  0  0
 19 21  2  0  0  0  0
 19 38  1  0  0  0  0
 20 46  1  0  0  0  0
 21 39  1  0  0  0  0
 22 81  1  0  0  0  0
 23 82  1  0  0  0  0
 24 26  2  0  0  0  0
 24 81  1  0  0  0  0
 25 83  1  0  0  0  0
 26 84  1  0  0  0  0
 27 30  2  0  0  0  0
 27 85  1  0  0  0  0
 28 65  2  0  0  0  0
 29 58  1  0  0  0  0
 29 66  1  0  0  0  0
 30 60  1  0  0  0  0
 30 66  1  0  0  0  0
 31 67  1  0  0  0  0
 31 70  1  0  0  0  0
 32 71  1  0  0  0  0
 32 76  2  0  0  0  0
 33 47  1  0  0  0  0
 33 72  1  0  0  0  0
 33 77  2  0  0  0  0
 34 61  1  0  0  0  0
 34 68  1  0  0  0  0
 34 78  2  0  0  0  0
 35 62  1  0  0  0  0
 35 73  1  0  0  0  0
 35 79  2  0  0  0  0
 36 69  1  0  0  0  0
 36 74  1  0  0  0  0
 36 80  2  0  0  0  0
 37 40  1  0  0  0  0
 38 47  1  0  0  0  0
 39 68  1  0  0  0  0
 40 42  1  0  0  0  0
 41 43  1  0  0  0  0
 41 44  1  0  0  0  0
 42 46  1  0  0  0  0
 43 48  1  0  0  0  0
 44 69  1  0  0  0  0
 45 48  1  0  0  0  0
 45 69  1  0  0  0  0
 46 72  1  0  0  0  0
 47 68  1  0  0  0  0
 48 67  1  0  0  0  0
 49 59  1  0  0  0  0
 50 62  1  0  0  0  0
 51 63  1  0  0  0  0
 52 63  1  0  0  0  0
 53 63  1  0  0  0  0
 54 64  1  0  0  0  0
 55 64  1  0  0  0  0
 56 64  1  0  0  0  0
 57 75  1  0  0  0  0
 58 82  1  0  0  0  0
 59 66  1  0  0  0  0
 60 63  1  0  0  0  0
 60 74  1  0  0  0  0
 61 64  1  0  0  0  0
 61 73  1  0  0  0  0
 62 75  1  0  0  0  0
 65 67  1  0  0  0  0
M  CHG  1  75   1
M  ISO  4  36 100  58 101  74 100  82 101
M  END
> <Batch ID>
0024

> <Smiles>
CCn1c([101CH2:1][101O:1]c2ccc3c(c2)CN(C(=O)C(NC(=O)C(C)NC)C(C)(C)C)C(C(=O)NC2CCCc4ccccc42)C3)cc(Cl)c1C([100NH:0][100C:0](=O)N1CCCC(n2nc(-c3ccc(Oc4ccc(F)cc4F)cc3)c(C(N)=O)c2N)C1)C(C)(C)C

> <Shape>
0.263

> <Color>
0.087

> <Negative vol penalty>
0.000

$$$$

  -OEChem-04052316223D

 83 91  0     1  0  0  0  0  0999 V2000
  -30.8686  -23.9952   18.7569 C   0  0  0  0  0  0  0  0  0  0  0  0
  -29.5112  -23.8371   19.0172 C   0  0  0  0  0  0  0  0  0  0  0  0
  -26.7664  -13.0395   20.0725 C   0  0  0  0  0  0  0  0  0  0  0  0
  -24.5121  -13.6511   20.6897 C   0  0  0  0  0  0  0  0  0  0  0  0
  -31.6340  -24.8508   19.5481 C   0  0  0  0  0  0  0  0  0  0  0  0
  -28.9185  -24.5337   20.0698 C   0  0  0  0  0  0  0  0  0  0  0  0
  -23.2261  -26.7851   20.2516 C   0  0  0  0  0  0  0  0  0  0  0  0
  -26.5707  -11.7698   20.6157 C   0  0  0  0  0  0  0  0  0  0  0  0
  -24.3163  -12.3813   21.2329 C   0  0  0  0  0  0  0  0  0  0  0  0
  -22.0448  -26.3043   20.8149 C   0  0  0  0  0  0  0  0  0  0  0  0
  -23.6406   -9.2683   20.1046 C   0  0  0  0  0  0  0  0  0  0  0  0
  -22.4455   -8.6143   19.8056 C   0  0  0  0  0  0  0  0  0  0  0  0
  -22.4431  -27.6454   22.7801 C   0  0  0  0  0  0  0  0  0  0  0  0
  -21.4410  -23.5625   20.6522 C   0  0  0  0  0  0  0  0  0  0  0  0
  -21.9044   -8.5272   22.1586 C   0  0  0  0  0  0  0  0  0  0  0  0
  -25.7371  -13.9802   20.1095 C   0  0  0  0  0  0  0  0  0  0  0  0
  -25.6865  -15.6990   18.2252 C   0  0  0  0  0  0  0  0  0  0  0  0
  -31.0484  -25.5657   20.6048 C   0  0  0  0  0  0  0  0  0  0  0  0
  -24.0317  -27.6928   20.9542 C   0  0  0  0  0  0  0  0  0  0  0  0
  -29.6771  -25.3987   20.8767 C   0  0  0  0  0  0  0  0  0  0  0  0
  -23.6328  -28.1381   22.2225 C   0  0  0  0  0  0  0  0  0  0  0  0
  -21.3068  -24.0834   21.9392 C   0  0  0  0  0  0  0  0  0  0  0  0
  -22.2736  -23.8097   22.9067 C   0  0  0  0  0  0  0  0  0  0  0  0
  -23.5087  -22.4939   21.3003 C   0  0  0  0  0  0  0  0  0  0  0  0
  -25.3457  -11.4407   21.1959 C   0  0  0  0  0  0  0  0  0  0  0  0
  -21.6546  -26.7322   22.0805 C   0  0  0  0  0  0  0  0  0  0  0  0
  -23.9678   -9.5517   21.4307 C   0  0  0  0  0  0  0  0  0  0  0  0
  -21.5773   -8.2438   20.8325 C   0  0  0  0  0  0  0  0  0  0  0  0
  -23.0996   -9.1811   22.4576 C   0  0  0  0  0  0  0  0  0  0  0  0
  -22.5419  -22.7677   20.3328 C   0  0  0  0  0  0  0  0  0  0  0  0
  -23.3745  -23.0149   22.5872 C   0  0  0  0  0  0  0  0  0  0  0  0
  -25.9388  -15.2922   19.5491 C   0  0  0  0  0  0  0  0  0  0  0  0
  -26.0390  -17.0263   18.2008 C   0  0  0  0  0  0  0  0  0  0  0  0
  -25.1789  -14.9447   17.1166 C   0  0  0  0  0  0  0  0  0  0  0  0
  -27.0046  -27.6497   22.0782 C   0  0  0  0  0  0  0  0  0  0  0  0
  -26.3686  -30.7519   22.7814 C   0  0  0  0  0  0  0  0  0  0  0  0
  -24.0348  -33.1554   23.4322 C   0  0  0  0  0  0  0  0  0  0  0  0
  -25.9069  -21.7536   21.5167 C   0  0  0  0  0  0  0  0  0  0  0  0
  -31.9261  -26.4427   21.4622 C   0  0  0  0  0  0  0  0  0  0  0  0
  -25.2893  -28.2225   20.3216 C   0  0  0  0  0  0  0  0  0  0  0  0
  -24.4519  -29.1272   23.0095 C   0  0  0  0  0  0  0  0  0  0  0  0
  -31.1439  -27.4310   22.3235 C   0  0  0  0  0  0  0  0  0  0  0  0
  -28.9151  -19.9203   21.0003 C   0  0  0  0  0  0  0  0  0  0  0  0
  -29.9802  -26.7299   23.0172 C   0  0  0  0  0  0  0  0  0  0  0  0
  -28.4313  -18.5792   20.4438 C   0  0  0  0  0  0  0  0  0  0  0  0
  -27.9638  -20.4702   22.0616 C   0  0  0  0  0  0  0  0  0  0  0  0
  -26.0744  -19.2227   21.0905 C   0  0  0  0  0  0  0  0  0  0  0  0
  -28.9928  -26.1561   21.9939 C   0  0  1  0  0  0  0  0  0  0  0  0
  -26.2946  -28.7497   21.3408 C   0  0  1  0  0  0  0  0  0  0  0  0
  -26.9664  -18.6605   19.9715 C   0  0  2  0  0  0  0  0  0  0  0  0
  -22.1075  -24.3792   24.2819 C   0  0  0  0  0  0  0  0  0  0  0  0
  -23.8205  -35.5886   24.0075 C   0  0  0  0  0  0  0  0  0  0  0  0
  -19.1852  -25.0951   21.0310 C   0  0  0  0  0  0  0  0  0  0  0  0
  -19.3040  -24.3779   23.4476 C   0  0  0  0  0  0  0  0  0  0  0  0
  -27.2215  -30.1467   25.6478 C   0  0  0  0  0  0  0  0  0  0  0  0
  -26.1081  -32.2749   26.3545 C   0  0  0  0  0  0  0  0  0  0  0  0
  -28.0264  -32.3424   24.7613 C   0  0  0  0  0  0  0  0  0  0  0  0
  -22.4965  -33.7218   20.9681 C   0  0  0  0  0  0  0  0  0  0  0  0
  -25.7857  -31.4814   23.9675 C   0  0  1  0  0  0  0  0  0  0  0  0
  -23.8574  -34.5610   22.8870 C   0  0  2  0  0  0  0  0  0  0  0  0
  -20.0912  -24.9492   22.2607 C   0  0  0  0  0  0  0  0  0  1  0  0
  -26.7708  -31.5412   25.1690 C   0  0  0  0  0  0  0  0  0  0  0  0
  -26.4149  -16.2809   20.3105 N   0  0  0  0  0  0  0  0  0  0  0  0
  -26.4647  -17.3222   19.4623 N   0  0  0  0  0  0  0  0  0  0  0  0
  -25.6765  -29.6111   22.3509 N   0  0  0  0  0  0  0  0  0  0  0  0
  -26.5956  -20.5225   21.5419 N   0  0  0  0  0  0  0  0  0  0  0  0
  -26.0233  -17.9575   17.2235 N   0  0  0  0  0  0  0  0  0  0  0  0
  -24.8673  -13.5927   17.3152 N   0  0  0  0  0  0  0  0  0  0  0  0
  -24.6254  -21.6864   20.9709 N   0  0  0  0  0  0  0  0  0  0  0  0
  -28.1557  -27.2066   21.4552 N   0  0  0  0  0  0  0  0  0  0  0  0
  -25.3632  -32.7883   23.4757 N   0  0  0  0  0  0  0  0  0  0  0  0
  -22.5862  -34.6609   22.1157 N   0  3  0  0  0  0  0  0  0  0  0  0
  -25.0221  -15.4502   15.9794 O   0  0  0  0  0  0  0  0  0  0  0  0
  -26.5431  -27.2349   23.1349 O   0  0  0  0  0  0  0  0  0  0  0  0
  -27.3960  -31.1826   22.2517 O   0  0  0  0  0  0  0  0  0  0  0  0
  -23.0898  -32.4546   23.7876 O   0  0  0  0  0  0  0  0  0  0  0  0
  -26.4265  -22.7963   21.9226 O   0  0  0  0  0  0  0  0  0  0  0  0
  -25.1543  -10.2017   21.7259 O   0  0  0  0  0  0  0  0  0  0  0  0
  -20.5024  -26.2641   22.6328 O   0  0  0  0  0  0  0  0  0  1  0  0
  -20.4289   -7.6172   20.5451 F   0  0  0  0  0  0  0  0  0  0  0  0
  -23.4079   -9.4517   23.7334 F   0  0  0  0  0  0  0  0  0  0  0  0
  -22.6628  -22.1457   18.7246 Cl  0  0  0  0  0  0  0  0  0  0  0  0
  -24.5727  -22.6789   23.7971 Cl  0  0  0  0  0  0  0  0  0  0  0  0
  1  2  1  0  0  0  0
  1  5  2  0  0  0  0
  2  6  2  0  0  0  0
  3  8  2  0  0  0  0
  3 16  1  0  0  0  0
  4  9  1  0  0  0  0
  4 16  2  0  0  0  0
  5 18  1  0  0  0  0
  6 20  1  0  0  0  0
  7 10  2  0  0  0  0
  7 19  1  0  0  0  0
  8 25  1  0  0  0  0
  9 25  2  0  0  0  0
 10 26  1  0  0  0  0
 11 12  2  0  0  0  0
 11 27  1  0  0  0  0
 12 28  1  0  0  0  0
 13 21  1  0  0  0  0
 13 26  2  0  0  0  0
 14 22  1  0  0  0  0
 14 30  2  0  0  0  0
 15 28  2  0  0  0  0
 15 29  1  0  0  0  0
 16 32  1  0  0  0  0
 17 32  1  0  0  0  0
 17 33  2  0  0  0  0
 17 34  1  0  0  0  0
 18 20  2  0  0  0  0
 18 39  1  0  0  0  0
 19 21  2  0  0  0  0
 19 40  1  0  0  0  0
 20 48  1  0  0  0  0
 21 41  1  0  0  0  0
 22 23  2  0  0  0  0
 22 61  1  0  0  0  0
 23 31  1  0  0  0  0
 23 51  1  0  0  0  0
 24 30  1  0  0  0  0
 24 31  2  0  0  0  0
 24 69  1  0  0  0  0
 25 78  1  0  0  0  0
 26 79  1  0  0  0  0
 27 29  2  0  0  0  0
 27 78  1  0  0  0  0
 28 80  1  0  0  0  0
 29 81  1  0  0  0  0
 30 82  1  0  0  0  0
 31 83  1  0  0  0  0
 32 63  2  0  0  0  0
 33 64  1  0  0  0  0
 33 67  1  0  0  0  0
 34 68  1  0  0  0  0
 34 73  2  0  0  0  0
 35 49  1  0  0  0  0
 35 70  1  0  0  0  0
 35 74  2  0  0  0  0
 36 59  1  0  0  0  0
 36 65  1  0  0  0  0
 36 75  2  0  0  0  0
 37 60  1  0  0  0  0
 37 71  1  0  0  0  0
 37 76  2  0  0  0  0
 38 66  1  0  0  0  0
 38 69  1  0  0  0  0
 38 77  2  0  0  0  0
 39 42  1  0  0  0  0
 40 49  1  0  0  0  0
 41 65  1  0  0  0  0
 42 44  1  0  0  0  0
 43 45  1  0  0  0  0
 43 46  1  0  0  0  0
 44 48  1  0  0  0  0
 45 50  1  0  0  0  0
 46 66  1  0  0  0  0
 47 50  1  0  0  0  0
 47 66  1  0  0  0  0
 48 70  1  0  0  0  0
 49 65  1  0  0  0  0
 50 64  1  0  0  0  0
 52 60  1  0  0  0  0
 53 61  1  0  0  0  0
 54 61  1  0  0  0  0
 55 62  1  0  0  0  0
 56 62  1  0  0  0  0
 57 62  1  0  0  0  0
 58 72  1  0  0  0  0
 59 62  1  0  0  0  0
 59 71  1  0  0  0  0
 60 72  1  0  0  0  0
 61 79  1  0  0  0  0
 63 64  1  0  0  0  0
M  CHG  1  72   1
M  ISO  4  38 100  61 101  69 100  79 101
M  END
> <Batch ID>
0024

> <Smiles>
CNC(C)C(=O)NC(C(=O)N1Cc2cc([101O:1][101C:1](C)(C)c3cc(Cl)c([100NH:0][100C:0](=O)N4CCCC(n5nc(-c6ccc(Oc7ccc(F)cc7F)cc6)c(C(N)=O)c5N)C4)c(Cl)c3C)ccc2CC1C(=O)NC1CCCc2ccccc21)C(C)(C)C

> <Shape>
0.247

> <Color>
0.070

> <Negative vol penalty>
0.000

$$$$

  -OEChem-04052316223D

 92100  0     1  0  0  0  0  0999 V2000
  -27.2863  -24.9901   15.0331 C   0  0  0  0  0  0  0  0  0  0  0  0
  -26.0628  -25.2992   15.6187 C   0  0  0  0  0  0  0  0  0  0  0  0
  -23.3000  -10.3039   22.0200 C   0  0  0  0  0  0  0  0  0  0  0  0
  -24.7526   -8.7207   20.9153 C   0  0  0  0  0  0  0  0  0  0  0  0
  -28.4523  -25.0270   15.7966 C   0  0  0  0  0  0  0  0  0  0  0  0
  -26.0045  -25.6444   16.9684 C   0  0  0  0  0  0  0  0  0  0  0  0
  -22.2088  -29.6822   19.5750 C   0  0  0  0  0  0  0  0  0  0  0  0
  -22.2525   -9.3849   21.9599 C   0  0  0  0  0  0  0  0  0  0  0  0
  -23.7051   -7.8016   20.8552 C   0  0  0  0  0  0  0  0  0  0  0  0
  -21.0112  -29.5290   20.2722 C   0  0  0  0  0  0  0  0  0  0  0  0
  -22.1800   -5.6255   22.9431 C   0  0  0  0  0  0  0  0  0  0  0  0
  -22.4583   -4.3042   23.2928 C   0  0  0  0  0  0  0  0  0  0  0  0
  -22.2231  -29.5972   22.3569 C   0  0  0  0  0  0  0  0  0  0  0  0
  -21.7934   -3.5801   21.0859 C   0  0  0  0  0  0  0  0  0  0  0  0
  -24.5501   -9.9719   21.4977 C   0  0  0  0  0  0  0  0  0  0  0  0
  -26.5776  -11.0671   22.5920 C   0  0  0  0  0  0  0  0  0  0  0  0
  -28.4096  -25.3823   17.1540 C   0  0  0  0  0  0  0  0  0  0  0  0
  -23.4258  -29.7833   20.2644 C   0  0  0  0  0  0  0  0  0  0  0  0
  -27.1709  -25.6849   17.7511 C   0  0  0  0  0  0  0  0  0  0  0  0
  -23.4345  -29.7542   21.6662 C   0  0  0  0  0  0  0  0  0  0  0  0
  -22.4462  -19.0226   19.2888 C   0  0  0  0  0  0  0  0  0  0  0  0
  -22.8518  -20.3450   19.1090 C   0  0  0  0  0  0  0  0  0  0  0  0
  -24.7549  -18.3109   19.2624 C   0  0  0  0  0  0  0  0  0  0  0  0
  -22.4551   -8.1337   21.3775 C   0  0  0  0  0  0  0  0  0  0  0  0
  -21.0185  -29.4836   21.6633 C   0  0  0  0  0  0  0  0  0  0  0  0
  -21.7083   -5.9241   21.6648 C   0  0  0  0  0  0  0  0  0  0  0  0
  -22.2650   -3.2815   22.3642 C   0  0  0  0  0  0  0  0  0  0  0  0
  -21.5150   -4.9014   20.7362 C   0  0  0  0  0  0  0  0  0  0  0  0
  -23.3978  -18.0055   19.3656 C   0  0  0  0  0  0  0  0  0  0  0  0
  -24.2089  -20.6503   19.0058 C   0  0  0  0  0  0  0  0  0  0  0  0
  -25.1605  -19.6333   19.0825 C   0  0  0  0  0  0  0  0  0  0  0  0
  -25.6324  -10.9210   21.5590 C   0  0  0  0  0  0  0  0  0  0  0  0
  -27.3850  -12.0972   22.1756 C   0  0  0  0  0  0  0  0  0  0  0  0
  -26.7135  -10.3368   23.8184 C   0  0  0  0  0  0  0  0  0  0  0  0
  -26.0941  -28.0592   20.3695 C   0  0  0  0  0  0  0  0  0  0  0  0
  -27.1430  -30.5109   22.2165 C   0  0  0  0  0  0  0  0  0  0  0  0
  -26.3754  -33.1093   24.2915 C   0  0  0  0  0  0  0  0  0  0  0  0
  -26.1779  -16.5728   18.1904 C   0  0  0  0  0  0  0  0  0  0  0  0
  -29.6903  -25.3625   17.9503 C   0  0  0  0  0  0  0  0  0  0  0  0
  -24.7060  -29.9750   19.4985 C   0  0  0  0  0  0  0  0  0  0  0  0
  -24.7120  -29.8788   22.4541 C   0  0  0  0  0  0  0  0  0  0  0  0
  -29.5911  -26.1021   19.2820 C   0  0  0  0  0  0  0  0  0  0  0  0
  -29.0222  -14.2236   18.2220 C   0  0  0  0  0  0  0  0  0  0  0  0
  -28.3144  -25.7078   20.0178 C   0  0  0  0  0  0  0  0  0  0  0  0
  -28.5212  -13.0944   19.1209 C   0  0  0  0  0  0  0  0  0  0  0  0
  -27.8770  -14.9131   17.4866 C   0  0  0  0  0  0  0  0  0  0  0  0
  -26.2984  -14.2846   19.2874 C   0  0  0  0  0  0  0  0  0  0  0  0
  -27.0701  -26.0881   19.2062 C   0  0  1  0  0  0  0  0  0  0  0  0
  -25.9423  -29.5517   20.2857 C   0  0  1  0  0  0  0  0  0  0  0  0
  -27.4246  -13.5982   20.0751 C   0  0  1  0  0  0  0  0  0  0  0  0
  -20.9845  -18.7128   19.3994 C   0  0  0  0  0  0  0  0  0  0  0  0
  -27.4467  -34.9069   25.6766 C   0  0  0  0  0  0  0  0  0  0  0  0
  -16.8468  -26.3221   23.0206 C   0  0  0  0  0  0  0  0  0  0  0  0
  -27.8875  -28.4373   24.3274 C   0  0  0  0  0  0  0  0  0  0  0  0
  -28.0456  -30.2960   25.9972 C   0  0  0  0  0  0  0  0  0  0  0  0
  -29.5679  -30.2640   24.0213 C   0  0  0  0  0  0  0  0  0  0  0  0
  -26.4538  -17.0638   20.6096 C   0  0  0  0  0  0  0  0  0  0  0  0
  -25.0621  -35.2548   22.7323 C   0  0  0  0  0  0  0  0  0  0  0  0
  -21.8057  -21.4279   19.0275 C   0  0  0  0  0  0  0  0  0  0  0  0
  -21.6385  -22.2268   20.3251 C   0  0  0  0  0  0  0  0  0  0  0  0
  -20.5197  -23.2702   20.2472 C   0  0  0  0  0  0  0  0  0  0  0  0
  -20.4094  -24.0630   21.5510 C   0  0  0  0  0  0  0  0  0  0  0  0
  -18.5845  -27.9575   23.8488 C   0  0  0  0  0  0  0  0  0  0  0  0
  -19.3204  -25.1214   21.4556 C   0  0  0  0  0  0  0  0  0  0  0  0
  -19.9155  -28.6593   23.6023 C   0  0  0  0  0  0  0  0  0  1  0  0
  -27.1235  -30.8208   23.6938 C   0  0  1  0  0  0  0  0  0  0  0  0
  -26.8547  -34.5494   24.3221 C   0  0  2  0  0  0  0  0  0  0  0  0
  -18.2176  -26.9365   22.7701 C   0  0  1  0  0  0  0  0  0  0  0  0
  -28.1321  -29.9502   24.4953 C   0  0  0  0  0  0  0  0  0  0  0  0
  -25.8206  -11.7891   20.5614 N   0  0  0  0  0  0  0  0  0  0  0  0
  -26.8933  -12.4904   20.9657 N   0  0  0  0  0  0  0  0  0  0  0  0
  -25.9385  -30.0583   21.6596 N   0  0  0  0  0  0  0  0  0  0  0  0
  -26.8272  -15.3416   18.4117 N   0  0  0  0  0  0  0  0  0  0  0  0
  -28.4604  -12.6959   22.7300 N   0  0  0  0  0  0  0  0  0  0  0  0
  -25.7991   -9.3098   24.0894 N   0  0  0  0  0  0  0  0  0  0  0  0
  -26.8053  -27.5062   19.3217 N   0  0  0  0  0  0  0  0  0  0  0  0
  -27.3481  -32.2574   23.8125 N   0  0  0  0  0  0  0  0  0  0  0  0
  -25.7370  -17.2556   19.3446 N   0  0  0  0  0  0  0  0  0  0  0  0
  -25.7229  -35.4781   24.0440 N   0  3  0  0  0  0  0  0  0  0  0  0
  -19.2190  -25.8340   22.7556 N   0  3  0  0  0  0  0  0  0  0  0  0
  -27.6091  -10.5984   24.6568 O   0  0  0  0  0  0  0  0  0  0  0  0
  -25.6036  -27.4542   21.3156 O   0  0  0  0  0  0  0  0  0  0  0  0
  -28.1865  -30.6715   21.5786 O   0  0  0  0  0  0  0  0  0  0  0  0
  -25.2519  -32.7733   24.6593 O   0  0  0  0  0  0  0  0  0  0  0  0
  -26.0311  -17.0379   17.0538 O   0  0  0  0  0  0  0  0  0  0  0  0
  -21.4332   -7.2365   21.3189 O   0  0  0  0  0  0  0  0  0  0  0  0
  -19.8511  -29.3335   22.3462 O   0  0  0  0  0  0  0  0  0  1  0  0
  -22.5338   -2.0129   22.6997 F   0  0  0  0  0  0  0  0  0  0  0  0
  -21.0632   -5.1822   19.5062 F   0  0  0  0  0  0  0  0  0  0  0  0
  -22.8846  -16.3627   19.5931 Cl  0  0  0  0  0  0  0  0  0  0  0  0
  -24.6829  -22.3065   18.7817 Cl  0  0  0  0  0  0  0  0  0  0  0  0
  -26.8577  -19.9934   18.9556 Cl  0  0  0  0  0  0  0  0  0  0  0  0
  1  2  1  0  0  0  0
  1  5  2  0  0  0  0
  2  6  2  0  0  0  0
  3  8  2  0  0  0  0
  3 15  1  0  0  0  0
  4  9  1  0  0  0  0
  4 15  2  0  0  0  0
  5 17  1  0  0  0  0
  6 19  1  0  0  0  0
  7 10  2  0  0  0  0
  7 18  1  0  0  0  0
  8 24  1  0  0  0  0
  9 24  2  0  0  0  0
 10 25  1  0  0  0  0
 11 12  2  0  0  0  0
 11 26  1  0  0  0  0
 12 27  1  0  0  0  0
 13 20  1  0  0  0  0
 13 25  2  0  0  0  0
 14 27  2  0  0  0  0
 14 28  1  0  0  0  0
 15 32  1  0  0  0  0
 16 32  1  0  0  0  0
 16 33  2  0  0  0  0
 16 34  1  0  0  0  0
 17 19  2  0  0  0  0
 17 39  1  0  0  0  0
 18 20  2  0  0  0  0
 18 40  1  0  0  0  0
 19 48  1  0  0  0  0
 20 41  1  0  0  0  0
 21 22  1  0  0  0  0
 21 29  2  0  0  0  0
 21 51  1  0  0  0  0
 22 30  2  0  0  0  0
 22 59  1  0  0  0  0
 23 29  1  0  0  0  0
 23 31  2  0  0  0  0
 23 78  1  0  0  0  0
 24 86  1  0  0  0  0
 25 87  1  0  0  0  0
 26 28  2  0  0  0  0
 26 86  1  0  0  0  0
 27 88  1  0  0  0  0
 28 89  1  0  0  0  0
 29 90  1  0  0  0  0
 30 31  1  0  0  0  0
 30 91  1  0  0  0  0
 31 92  1  0  0  0  0
 32 70  2  0  0  0  0
 33 71  1  0  0  0  0
 33 74  1  0  0  0  0
 34 75  1  0  0  0  0
 34 81  2  0  0  0  0
 35 49  1  0  0  0  0
 35 76  1  0  0  0  0
 35 82  2  0  0  0  0
 36 66  1  0  0  0  0
 36 72  1  0  0  0  0
 36 83  2  0  0  0  0
 37 67  1  0  0  0  0
 37 77  1  0  0  0  0
 37 84  2  0  0  0  0
 38 73  1  0  0  0  0
 38 78  1  0  0  0  0
 38 85  2  0  0  0  0
 39 42  1  0  0  0  0
 40 49  1  0  0  0  0
 41 72  1  0  0  0  0
 42 44  1  0  0  0  0
 43 45  1  0  0  0  0
 43 46  1  0  0  0  0
 44 48  1  0  0  0  0
 45 50  1  0  0  0  0
 46 73  1  0  0  0  0
 47 50  1  0  0  0  0
 47 73  1  0  0  0  0
 48 76  1  0  0  0  0
 49 72  1  0  0  0  0
 50 71  1  0  0  0  0
 52 67  1  0  0  0  0
 53 68  1  0  0  0  0
 54 69  1  0  0  0  0
 55 69  1  0  0  0  0
 56 69  1  0  0  0  0
 57 78  1  0  0  0  0
 58 79  1  0  0  0  0
 59 60  1  0  0  0  0
 60 61  1  0  0  0  0
 61 62  1  0  0  0  0
 62 64  1  0  0  0  0
 63 65  1  0  0  0  0
 63 68  1  0  0  0  0
 64 80  1  0  0  0  0
 65 87  1  0  0  0  0
 66 69  1  0  0  0  0
 66 77  1  0  0  0  0
 67 79  1  0  0  0  0
 68 80  1  0  0  0  0
 70 71  1  0  0  0  0
M  CHG  2  79   1  80   1
M  ISO  4  38 100  65 101  78 100  87 101
M  END
> <Batch ID>
0024

> <Smiles>
CNC(C)C(=O)NC(C(=O)N1Cc2cc([101O:1][101CH2:1]CC(C)NCCCCCc3c(C)c(Cl)c([100N:0](C)[100C:0](=O)N4CCCC(n5nc(-c6ccc(Oc7ccc(F)cc7F)cc6)c(C(N)=O)c5N)C4)c(Cl)c3Cl)ccc2CC1C(=O)NC1CCCc2ccccc21)C(C)(C)C

> <Shape>
0.295

> <Color>
0.073

> <Negative vol penalty>
0.000

$$$$

  -OEChem-04052316223D

 92100  0     1  0  0  0  0  0999 V2000
  -33.1122  -27.1658   36.3577 C   0  0  0  0  0  0  0  0  0  0  0  0
  -32.8679  -26.2134   35.3734 C   0  0  0  0  0  0  0  0  0  0  0  0
  -22.9995   -9.8938   19.9817 C   0  0  0  0  0  0  0  0  0  0  0  0
  -23.7239   -9.9463   22.2859 C   0  0  0  0  0  0  0  0  0  0  0  0
  -34.1839  -27.0015   37.2343 C   0  0  0  0  0  0  0  0  0  0  0  0
  -33.6958  -25.0966   35.2646 C   0  0  0  0  0  0  0  0  0  0  0  0
  -31.0904  -20.8014   34.6263 C   0  0  0  0  0  0  0  0  0  0  0  0
  -22.2326   -8.7597   20.2486 C   0  0  0  0  0  0  0  0  0  0  0  0
  -22.9569   -8.8122   22.5529 C   0  0  0  0  0  0  0  0  0  0  0  0
  -30.5885  -20.5446   33.3512 C   0  0  0  0  0  0  0  0  0  0  0  0
  -21.4743   -5.7204   23.7580 C   0  0  0  0  0  0  0  0  0  0  0  0
  -22.0598   -4.7050   24.5141 C   0  0  0  0  0  0  0  0  0  0  0  0
  -32.4363  -19.0518   32.9311 C   0  0  0  0  0  0  0  0  0  0  0  0
  -32.4449  -17.0958   23.9344 C   0  0  0  0  0  0  0  0  0  0  0  0
  -23.7866   -4.4562   22.8428 C   0  0  0  0  0  0  0  0  0  0  0  0
  -23.7452  -10.4871   21.0004 C   0  0  0  0  0  0  0  0  0  0  0  0
  -24.1312  -13.0025   20.8227 C   0  0  0  0  0  0  0  0  0  0  0  0
  -35.0196  -25.8773   37.1423 C   0  0  0  0  0  0  0  0  0  0  0  0
  -32.2768  -20.1927   35.0602 C   0  0  0  0  0  0  0  0  0  0  0  0
  -34.7805  -24.9179   36.1400 C   0  0  0  0  0  0  0  0  0  0  0  0
  -32.9497  -19.3005   34.2132 C   0  0  0  0  0  0  0  0  0  0  0  0
  -31.8571  -18.3387   24.1694 C   0  0  0  0  0  0  0  0  0  0  0  0
  -30.6777  -18.6880   23.5117 C   0  0  0  0  0  0  0  0  0  0  0  0
  -30.6740  -16.5515   22.3837 C   0  0  0  0  0  0  0  0  0  0  0  0
  -22.2112   -8.2189   21.5342 C   0  0  0  0  0  0  0  0  0  0  0  0
  -31.2630  -19.6719   32.5023 C   0  0  0  0  0  0  0  0  0  0  0  0
  -22.0449   -6.1036   22.5442 C   0  0  0  0  0  0  0  0  0  0  0  0
  -23.2159   -4.0729   24.0565 C   0  0  0  0  0  0  0  0  0  0  0  0
  -23.2010   -5.4715   22.0866 C   0  0  0  0  0  0  0  0  0  0  0  0
  -31.8534  -16.2022   23.0414 C   0  0  0  0  0  0  0  0  0  0  0  0
  -30.0861  -17.7944   22.6188 C   0  0  0  0  0  0  0  0  0  0  0  0
  -24.5381  -11.6583   20.7251 C   0  0  0  0  0  0  0  0  0  0  0  0
  -25.2413  -13.7245   20.4581 C   0  0  0  0  0  0  0  0  0  0  0  0
  -22.8633  -13.5495   21.2084 C   0  0  0  0  0  0  0  0  0  0  0  0
  -35.1370  -21.2443   35.9640 C   0  0  0  0  0  0  0  0  0  0  0  0
  -35.6328  -18.1170   36.6685 C   0  0  0  0  0  0  0  0  0  0  0  0
  -34.8032  -14.8543   36.1088 C   0  0  0  0  0  0  0  0  0  0  0  0
  -30.7210  -14.6843   20.6932 C   0  0  0  0  0  0  0  0  0  0  0  0
  -36.1940  -25.7670   38.0821 C   0  0  0  0  0  0  0  0  0  0  0  0
  -32.7907  -20.4595   36.4484 C   0  0  0  0  0  0  0  0  0  0  0  0
  -34.2165  -18.6057   34.6386 C   0  0  0  0  0  0  0  0  0  0  0  0
  -36.7991  -24.3667   38.1390 C   0  0  0  0  0  0  0  0  0  0  0  0
  -29.6028  -12.2300   18.3687 C   0  0  0  0  0  0  0  0  0  0  0  0
  -36.9860  -23.8083   36.7318 C   0  0  0  0  0  0  0  0  0  0  0  0
  -28.1520  -11.9731   18.7825 C   0  0  0  0  0  0  0  0  0  0  0  0
  -30.5030  -12.4741   19.5786 C   0  0  0  0  0  0  0  0  0  0  0  0
  -28.5874  -13.2644   20.9109 C   0  0  0  0  0  0  0  0  0  0  0  0
  -35.6413  -23.6805   36.0059 C   0  0  1  0  0  0  0  0  0  0  0  0
  -34.2835  -20.1818   36.5966 C   0  0  1  0  0  0  0  0  0  0  0  0
  -27.6301  -13.0774   19.7225 C   0  0  2  0  0  0  0  0  0  0  0  0
  -30.0401  -23.3835   21.8177 C   0  0  0  0  0  0  0  0  0  0  0  0
  -35.4078  -12.5205   36.8056 C   0  0  0  0  0  0  0  0  0  0  0  0
  -32.9451  -20.6543   24.5148 C   0  0  0  0  0  0  0  0  0  0  0  0
  -33.8521  -18.6690   25.6725 C   0  0  0  0  0  0  0  0  0  0  0  0
  -38.1477  -18.2570   34.9464 C   0  0  0  0  0  0  0  0  0  0  0  0
  -38.1712  -15.7539   34.9001 C   0  0  0  0  0  0  0  0  0  0  0  0
  -38.4082  -16.9617   37.0698 C   0  0  0  0  0  0  0  0  0  0  0  0
  -32.0847  -14.3393   37.1594 C   0  0  0  0  0  0  0  0  0  0  0  0
  -30.0656  -20.0285   23.7793 C   0  0  0  0  0  0  0  0  0  0  0  0
  -29.7390  -22.3948   22.9328 C   0  0  0  0  0  0  0  0  0  0  0  0
  -30.3333  -21.0179   22.6366 C   0  0  0  0  0  0  0  0  0  0  0  0
  -31.1831  -19.5263   28.8787 C   0  0  0  0  0  0  0  0  0  0  0  0
  -32.1709  -19.2027   27.7549 C   0  0  0  0  0  0  0  0  0  0  0  0
  -31.7254  -19.1064   30.2391 C   0  0  0  0  0  0  0  0  0  1  0  0
  -36.1606  -16.9215   35.9127 C   0  0  1  0  0  0  0  0  0  0  0  0
  -34.5010  -13.7137   37.0639 C   0  0  2  0  0  0  0  0  0  0  0  0
  -32.5339  -19.3066   25.1610 C   0  0  0  0  0  0  0  0  0  0  0  0
  -37.6991  -16.9880   35.6982 C   0  0  0  0  0  0  0  0  0  0  0  0
  -31.6096  -19.5919   26.3842 C   0  0  0  0  0  0  0  0  0  0  0  0
  -25.8074  -11.5312   20.3295 N   0  0  0  0  0  0  0  0  0  0  0  0
  -26.2078  -12.8047   20.1751 N   0  0  0  0  0  0  0  0  0  0  0  0
  -34.6824  -18.9041   36.0029 N   0  0  0  0  0  0  0  0  0  0  0  0
  -29.9479  -13.5358   20.4209 N   0  0  0  0  0  0  0  0  0  0  0  0
  -25.4752  -15.0501   20.3552 N   0  0  0  0  0  0  0  0  0  0  0  0
  -21.8311  -12.6658   21.5522 N   0  0  0  0  0  0  0  0  0  0  0  0
  -30.0767  -15.6402   21.4779 N   0  0  0  0  0  0  0  0  0  0  0  0
  -34.9249  -22.5122   36.4710 N   0  0  0  0  0  0  0  0  0  0  0  0
  -35.7099  -15.7435   36.6459 N   0  0  0  0  0  0  0  0  0  0  0  0
  -33.0863  -13.2707   36.9105 N   0  3  0  0  0  0  0  0  0  0  0  0
  -22.6469  -14.7849   21.2312 O   0  0  0  0  0  0  0  0  0  0  0  0
  -35.9305  -20.9364   35.0824 O   0  0  0  0  0  0  0  0  0  0  0  0
  -36.0433  -18.3401   37.8102 O   0  0  0  0  0  0  0  0  0  0  0  0
  -34.2894  -14.9452   34.9961 O   0  0  0  0  0  0  0  0  0  0  0  0
  -31.8598  -14.8226   20.2395 O   0  0  0  0  0  0  0  0  0  0  0  0
  -21.4628   -7.1124   21.7950 O   0  0  0  0  0  0  0  0  0  0  0  0
  -30.7757  -19.4200   31.2570 O   0  0  0  0  0  0  0  0  0  1  0  0
  -23.7790   -3.0989   24.7835 F   0  0  0  0  0  0  0  0  0  0  0  0
  -23.7545   -5.8362   20.9219 F   0  0  0  0  0  0  0  0  0  0  0  0
  -30.4307  -18.9293   26.2027 F   0  0  0  0  0  0  0  0  0  0  0  0
  -31.2840  -20.9139   26.4138 F   0  0  0  0  0  0  0  0  0  0  0  0
  -32.6203  -14.6747   22.7841 Cl  0  0  0  0  0  0  0  0  0  0  0  0
  -28.6189  -18.2370   21.8042 Cl  0  0  0  0  0  0  0  0  0  0  0  0
  1  2  1  0  0  0  0
  1  5  2  0  0  0  0
  2  6  2  0  0  0  0
  3  8  2  0  0  0  0
  3 16  1  0  0  0  0
  4  9  1  0  0  0  0
  4 16  2  0  0  0  0
  5 18  1  0  0  0  0
  6 20  1  0  0  0  0
  7 10  2  0  0  0  0
  7 19  1  0  0  0  0
  8 25  1  0  0  0  0
  9 25  2  0  0  0  0
 10 26  1  0  0  0  0
 11 12  2  0  0  0  0
 11 27  1  0  0  0  0
 12 28  1  0  0  0  0
 13 21  1  0  0  0  0
 13 26  2  0  0  0  0
 14 22  2  0  0  0  0
 14 30  1  0  0  0  0
 15 28  2  0  0  0  0
 15 29  1  0  0  0  0
 16 32  1  0  0  0  0
 17 32  1  0  0  0  0
 17 33  2  0  0  0  0
 17 34  1  0  0  0  0
 18 20  2  0  0  0  0
 18 39  1  0  0  0  0
 19 21  2  0  0  0  0
 19 40  1  0  0  0  0
 20 48  1  0  0  0  0
 21 41  1  0  0  0  0
 22 23  1  0  0  0  0
 22 67  1  0  0  0  0
 23 31  2  0  0  0  0
 23 59  1  0  0  0  0
 24 30  2  0  0  0  0
 24 31  1  0  0  0  0
 24 76  1  0  0  0  0
 25 85  1  0  0  0  0
 26 86  1  0  0  0  0
 27 29  2  0  0  0  0
 27 85  1  0  0  0  0
 28 87  1  0  0  0  0
 29 88  1  0  0  0  0
 30 91  1  0  0  0  0
 31 92  1  0  0  0  0
 32 70  2  0  0  0  0
 33 71  1  0  0  0  0
 33 74  1  0  0  0  0
 34 75  1  0  0  0  0
 34 80  2  0  0  0  0
 35 49  1  0  0  0  0
 35 77  1  0  0  0  0
 35 81  2  0  0  0  0
 36 65  1  0  0  0  0
 36 72  1  0  0  0  0
 36 82  2  0  0  0  0
 37 66  1  0  0  0  0
 37 78  1  0  0  0  0
 37 83  2  0  0  0  0
 38 73  1  0  0  0  0
 38 76  1  0  0  0  0
 38 84  2  0  0  0  0
 39 42  1  0  0  0  0
 40 49  1  0  0  0  0
 41 72  1  0  0  0  0
 42 44  1  0  0  0  0
 43 45  1  0  0  0  0
 43 46  1  0  0  0  0
 44 48  1  0  0  0  0
 45 50  1  0  0  0  0
 46 73  1  0  0  0  0
 47 50  1  0  0  0  0
 47 73  1  0  0  0  0
 48 77  1  0  0  0  0
 49 72  1  0  0  0  0
 50 71  1  0  0  0  0
 51 60  1  0  0  0  0
 52 66  1  0  0  0  0
 53 67  1  0  0  0  0
 54 67  1  0  0  0  0
 55 68  1  0  0  0  0
 56 68  1  0  0  0  0
 57 68  1  0  0  0  0
 58 79  1  0  0  0  0
 59 61  1  0  0  0  0
 60 61  1  0  0  0  0
 62 63  1  0  0  0  0
 62 64  1  0  0  0  0
 63 69  1  0  0  0  0
 64 86  1  0  0  0  0
 65 68  1  0  0  0  0
 65 78  1  0  0  0  0
 66 79  1  0  0  0  0
 67 69  1  0  0  0  0
 69 89  1  0  0  0  0
 69 90  1  0  0  0  0
 70 71  1  0  0  0  0
M  CHG  1  79   1
M  ISO  4  38 100  64 101  76 100  86 101
M  END
> <Batch ID>
0024

> <Smiles>
CCCCc1c(C(C)(C)C(F)(F)CC[101CH2:1][101O:1]c2ccc3c(c2)CN(C(=O)C(NC(=O)C(C)NC)C(C)(C)C)C(C(=O)NC2CCCc4ccccc42)C3)cc(Cl)c([100NH:0][100C:0](=O)N2CCCC(n3nc(-c4ccc(Oc5ccc(F)cc5F)cc4)c(C(N)=O)c3N)C2)c1Cl

> <Shape>
0.174

> <Color>
0.198

> <Negative vol penalty>
0.000

$$$$

  -OEChem-04052316223D

 94103  0     1  0  0  0  0  0999 V2000
  -32.8017  -14.4546   19.9276 C   0  0  0  0  0  0  0  0  0  0  0  0
  -31.9079  -15.4359   19.5108 C   0  0  0  0  0  0  0  0  0  0  0  0
  -28.6102  -24.2604   20.3839 C   0  0  0  0  0  0  0  0  0  0  0  0
  -27.7362  -26.3880   21.1231 C   0  0  0  0  0  0  0  0  0  0  0  0
  -32.3850  -13.1272   20.0187 C   0  0  0  0  0  0  0  0  0  0  0  0
  -30.5972  -15.0901   19.1837 C   0  0  0  0  0  0  0  0  0  0  0  0
  -25.5636  -18.4555   20.1015 C   0  0  0  0  0  0  0  0  0  0  0  0
  -29.7402  -24.9010   19.8759 C   0  0  0  0  0  0  0  0  0  0  0  0
  -28.8663  -27.0287   20.6151 C   0  0  0  0  0  0  0  0  0  0  0  0
  -24.8238  -19.2852   19.2602 C   0  0  0  0  0  0  0  0  0  0  0  0
  -30.0124  -28.0395   17.5992 C   0  0  0  0  0  0  0  0  0  0  0  0
  -29.8185  -29.2068   16.8607 C   0  0  0  0  0  0  0  0  0  0  0  0
  -23.3050  -17.4656   18.8112 C   0  0  0  0  0  0  0  0  0  0  0  0
  -31.1574  -30.4362   18.4523 C   0  0  0  0  0  0  0  0  0  0  0  0
  -27.6082  -25.0039   21.0075 C   0  0  0  0  0  0  0  0  0  0  0  0
  -26.4021  -23.3452   22.5248 C   0  0  0  0  0  0  0  0  0  0  0  0
  -31.0659  -12.7664   19.7018 C   0  0  0  0  0  0  0  0  0  0  0  0
  -25.1853  -17.1193   20.2958 C   0  0  0  0  0  0  0  0  0  0  0  0
  -30.1630  -13.7564   19.2694 C   0  0  0  0  0  0  0  0  0  0  0  0
  -24.0402  -16.6217   19.6575 C   0  0  0  0  0  0  0  0  0  0  0  0
  -18.8660  -25.4719   19.1068 C   0  0  0  0  0  0  0  0  0  0  0  0
  -29.8683  -26.2852   19.9915 C   0  0  0  0  0  0  0  0  0  0  0  0
  -23.6959  -18.7896   18.6126 C   0  0  0  0  0  0  0  0  0  0  0  0
  -30.7788  -28.0706   18.7643 C   0  0  0  0  0  0  0  0  0  0  0  0
  -30.3910  -30.4051   17.2872 C   0  0  0  0  0  0  0  0  0  0  0  0
  -31.3513  -29.2689   19.1908 C   0  0  0  0  0  0  0  0  0  0  0  0
  -18.1087  -24.3058   19.1013 C   0  0  0  0  0  0  0  0  0  0  0  0
  -18.4644  -23.2564   18.2614 C   0  0  0  0  0  0  0  0  0  0  0  0
  -26.4403  -24.3427   21.5321 C   0  0  0  0  0  0  0  0  0  0  0  0
  -19.9610  -25.5380   18.2603 C   0  0  0  0  0  0  0  0  0  0  0  0
  -19.5772  -23.4218   17.4526 C   0  0  0  0  0  0  0  0  0  0  0  0
  -25.0679  -23.0503   22.6639 C   0  0  0  0  0  0  0  0  0  0  0  0
  -27.4765  -22.7395   23.2558 C   0  0  0  0  0  0  0  0  0  0  0  0
  -26.5365  -14.2995   19.7238 C   0  0  0  0  0  0  0  0  0  0  0  0
  -23.9384  -13.1715   21.3049 C   0  0  0  0  0  0  0  0  0  0  0  0
  -20.7079  -13.6614   22.2900 C   0  0  0  0  0  0  0  0  0  0  0  0
  -20.1977  -26.0766   21.8089 C   0  0  0  0  0  0  0  0  0  0  0  0
  -30.6749  -11.3114   19.7702 C   0  0  0  0  0  0  0  0  0  0  0  0
  -25.9787  -16.2447   21.2275 C   0  0  0  0  0  0  0  0  0  0  0  0
  -23.5802  -15.2003   19.8486 C   0  0  0  0  0  0  0  0  0  0  0  0
  -29.1652  -11.0855   19.7650 C   0  0  0  0  0  0  0  0  0  0  0  0
  -20.9584  -23.0104   20.2303 C   0  0  0  0  0  0  0  0  0  0  0  0
  -28.5031  -11.9281   18.6794 C   0  0  0  0  0  0  0  0  0  0  0  0
  -19.0378  -28.7036   23.5343 C   0  0  0  0  0  0  0  0  0  0  0  0
  -22.4632  -22.9088   20.4759 C   0  0  0  0  0  0  0  0  0  0  0  0
  -19.0155  -30.2049   23.8294 C   0  0  0  0  0  0  0  0  0  0  0  0
  -16.5213  -30.2483   23.4384 C   0  0  0  0  0  0  0  0  0  0  0  0
  -20.5258  -24.4396   19.8974 C   0  0  0  0  0  0  0  0  0  0  0  0
  -22.4660  -25.3421   21.1399 C   0  0  0  0  0  0  0  0  0  0  0  0
  -28.7261  -13.4245   18.9296 C   0  0  1  0  0  0  0  0  0  0  0  0
  -25.7967  -14.7557   20.9495 C   0  0  1  0  0  0  0  0  0  0  0  0
  -17.8946  -28.2914   22.5982 C   0  0  2  0  0  0  0  0  0  0  0  0
  -22.9178  -23.9277   21.5352 C   0  0  2  0  0  0  0  0  0  0  0  0
  -16.5405  -28.7498   23.1489 C   0  0  2  0  0  0  0  0  0  0  0  0
  -17.6627  -30.6954   24.3511 C   0  0  1  0  0  0  0  0  0  0  0  0
  -20.8148  -26.7636   18.2209 C   0  0  0  0  0  0  0  0  0  0  0  0
  -18.8384  -12.5461   23.5384 C   0  0  0  0  0  0  0  0  0  0  0  0
  -23.4208  -11.3590   18.9055 C   0  0  0  0  0  0  0  0  0  0  0  0
  -21.0990  -10.9959   19.7690 C   0  0  0  0  0  0  0  0  0  0  0  0
  -23.0610  -10.2736   21.1297 C   0  0  0  0  0  0  0  0  0  0  0  0
  -20.6158  -15.8198   24.3129 C   0  0  0  0  0  0  0  0  0  0  0  0
  -18.5282  -26.6292   19.9890 C   0  0  0  0  0  0  0  0  0  0  0  0
  -20.0268  -22.3387   16.5168 C   0  0  0  0  0  0  0  0  0  0  0  0
  -17.9025  -26.7799   22.3706 C   0  0  0  0  0  0  0  0  0  0  0  0
  -21.1032  -20.0934   16.3202 C   0  0  0  0  0  0  0  0  0  0  0  0
  -21.8011  -19.0250   17.1386 C   0  0  0  0  0  0  0  0  0  1  0  0
  -22.5483  -12.7392   20.9055 C   0  0  1  0  0  0  0  0  0  0  0  0
  -20.0281  -13.4884   23.6362 C   0  0  2  0  0  0  0  0  0  0  0  0
  -22.5418  -11.3682   20.1721 C   0  0  0  0  0  0  0  0  0  0  0  0
  -25.2269  -24.6601   21.0730 N   0  0  0  0  0  0  0  0  0  0  0  0
  -20.3374  -24.5395   17.4304 N   0  0  0  0  0  0  0  0  0  0  0  0
  -24.4136  -23.8574   21.7803 N   0  0  0  0  0  0  0  0  0  0  0  0
  -24.3928  -14.3828   20.7644 N   0  0  0  0  0  0  0  0  0  0  0  0
  -21.0203  -25.3851   20.9074 N   0  0  0  0  0  0  0  0  0  0  0  0
  -24.4022  -22.1819   23.4546 N   0  0  0  0  0  0  0  0  0  0  0  0
  -28.0786  -21.5891   22.7281 N   0  0  0  0  0  0  0  0  0  0  0  0
  -27.8371  -13.9014   19.9673 N   0  0  0  0  0  0  0  0  0  0  0  0
  -21.7458  -12.7690   22.1235 N   0  0  0  0  0  0  0  0  0  0  0  0
  -18.8983  -26.3894   21.3825 N   0  0  0  0  0  0  0  0  0  0  0  0
  -19.5456  -14.8032   24.1457 N   0  3  0  0  0  0  0  0  0  0  0  0
  -20.6998  -21.2090   17.2130 N   0  3  0  0  0  0  0  0  0  0  0  0
  -27.8795  -23.1951   24.3528 O   0  0  0  0  0  0  0  0  0  0  0  0
  -25.9688  -14.3068   18.6378 O   0  0  0  0  0  0  0  0  0  0  0  0
  -24.5941  -12.4642   22.0739 O   0  0  0  0  0  0  0  0  0  0  0  0
  -20.3514  -14.5016   21.4668 O   0  0  0  0  0  0  0  0  0  0  0  0
  -20.6037  -26.4045   22.9313 O   0  0  0  0  0  0  0  0  0  0  0  0
  -30.9710  -26.9107   19.4960 O   0  0  0  0  0  0  0  0  0  0  0  0
  -22.9723  -19.5971   17.7903 O   0  0  0  0  0  0  0  0  0  1  0  0
  -30.2060  -31.5257   16.5770 F   0  0  0  0  0  0  0  0  0  0  0  0
  -32.0895  -29.3047   20.3087 F   0  0  0  0  0  0  0  0  0  0  0  0
  -15.5785  -28.4887   22.2191 F   0  0  0  0  0  0  0  0  0  0  0  0
  -16.7308  -24.1876   20.1492 Cl  0  0  0  0  0  0  0  0  0  0  0  0
  -17.5636  -21.7805   18.2069 Cl  0  0  0  0  0  0  0  0  0  0  0  0
  -17.3894  -30.1109   26.0234 Cl  0  0  0  0  0  0  0  0  0  0  0  0
  1  2  1  0  0  0  0
  1  5  2  0  0  0  0
  2  6  2  0  0  0  0
  3  8  2  0  0  0  0
  3 15  1  0  0  0  0
  4  9  1  0  0  0  0
  4 15  2  0  0  0  0
  5 17  1  0  0  0  0
  6 19  1  0  0  0  0
  7 10  2  0  0  0  0
  7 18  1  0  0  0  0
  8 22  1  0  0  0  0
  9 22  2  0  0  0  0
 10 23  1  0  0  0  0
 11 12  2  0  0  0  0
 11 24  1  0  0  0  0
 12 25  1  0  0  0  0
 13 20  1  0  0  0  0
 13 23  2  0  0  0  0
 14 25  2  0  0  0  0
 14 26  1  0  0  0  0
 15 29  1  0  0  0  0
 16 29  1  0  0  0  0
 16 32  2  0  0  0  0
 16 33  1  0  0  0  0
 17 19  2  0  0  0  0
 17 38  1  0  0  0  0
 18 20  2  0  0  0  0
 18 39  1  0  0  0  0
 19 50  1  0  0  0  0
 20 40  1  0  0  0  0
 21 27  2  0  0  0  0
 21 30  1  0  0  0  0
 21 62  1  0  0  0  0
 22 87  1  0  0  0  0
 23 88  1  0  0  0  0
 24 26  2  0  0  0  0
 24 87  1  0  0  0  0
 25 89  1  0  0  0  0
 26 90  1  0  0  0  0
 27 28  1  0  0  0  0
 27 92  1  0  0  0  0
 28 31  2  0  0  0  0
 28 93  1  0  0  0  0
 29 70  2  0  0  0  0
 30 56  1  0  0  0  0
 30 71  2  0  0  0  0
 31 63  1  0  0  0  0
 31 71  1  0  0  0  0
 32 72  1  0  0  0  0
 32 75  1  0  0  0  0
 33 76  1  0  0  0  0
 33 82  2  0  0  0  0
 34 51  1  0  0  0  0
 34 77  1  0  0  0  0
 34 83  2  0  0  0  0
 35 67  1  0  0  0  0
 35 73  1  0  0  0  0
 35 84  2  0  0  0  0
 36 68  1  0  0  0  0
 36 78  1  0  0  0  0
 36 85  2  0  0  0  0
 37 74  1  0  0  0  0
 37 79  1  0  0  0  0
 37 86  2  0  0  0  0
 38 41  1  0  0  0  0
 39 51  1  0  0  0  0
 40 73  1  0  0  0  0
 41 43  1  0  0  0  0
 42 45  1  0  0  0  0
 42 48  1  0  0  0  0
 43 50  1  0  0  0  0
 44 46  1  0  0  0  0
 44 52  1  0  0  0  0
 45 53  1  0  0  0  0
 46 55  1  0  0  0  0
 47 54  1  0  0  0  0
 47 55  1  0  0  0  0
 48 74  1  0  0  0  0
 49 53  1  0  0  0  0
 49 74  1  0  0  0  0
 50 77  1  0  0  0  0
 51 73  1  0  0  0  0
 52 54  1  0  0  0  0
 52 64  1  0  0  0  0
 53 72  1  0  0  0  0
 54 91  1  0  0  0  0
 55 94  1  0  0  0  0
 57 68  1  0  0  0  0
 58 69  1  0  0  0  0
 59 69  1  0  0  0  0
 60 69  1  0  0  0  0
 61 80  1  0  0  0  0
 62 79  1  0  0  0  0
 63 81  1  0  0  0  0
 64 79  1  0  0  0  0
 65 66  1  0  0  0  0
 65 81  1  0  0  0  0
 66 88  1  0  0  0  0
 67 69  1  0  0  0  0
 67 78  1  0  0  0  0
 68 80  1  0  0  0  0
 70 72  1  0  0  0  0
M  CHG  2  80   1  81   1
M  ISO  4  37 100  66 101  79 100  88 101
M  END
> <Batch ID>
0024

> <Smiles>
CNC(C)C(=O)NC(C(=O)N1Cc2cc([101O:1][101CH2:1]CNCc3nc(C)c(C[100N:0](CC4CCC(Cl)CC4F)[100C:0](=O)N4CCCC(n5nc(-c6ccc(Oc7ccc(F)cc7F)cc6)c(C(N)=O)c5N)C4)c(Cl)c3Cl)ccc2CC1C(=O)NC1CCCc2ccccc21)C(C)(C)C

> <Shape>
0.209

> <Color>
0.046

> <Negative vol penalty>
0.000

$$$$

  -OEChem-04052316223D

 88 96  0     1  0  0  0  0  0999 V2000
  -31.1182  -34.5306   22.8918 C   0  0  0  0  0  0  0  0  0  0  0  0
  -30.8091  -33.7099   21.8117 C   0  0  0  0  0  0  0  0  0  0  0  0
  -28.4877  -10.9593   22.7492 C   0  0  0  0  0  0  0  0  0  0  0  0
  -26.9610  -12.6163   21.8770 C   0  0  0  0  0  0  0  0  0  0  0  0
  -30.5768  -34.2610   24.1480 C   0  0  0  0  0  0  0  0  0  0  0  0
  -29.9593  -32.6185   21.9876 C   0  0  0  0  0  0  0  0  0  0  0  0
  -24.9904  -28.7963   18.5210 C   0  0  0  0  0  0  0  0  0  0  0  0
  -27.4108  -10.1263   23.0518 C   0  0  0  0  0  0  0  0  0  0  0  0
  -25.8840  -11.7831   22.1796 C   0  0  0  0  0  0  0  0  0  0  0  0
  -24.6820  -27.4771   18.1919 C   0  0  0  0  0  0  0  0  0  0  0  0
  -24.3935   -9.0585   20.8472 C   0  0  0  0  0  0  0  0  0  0  0  0
  -23.4008   -8.9075   19.8790 C   0  0  0  0  0  0  0  0  0  0  0  0
  -23.7426  -27.1547   20.3903 C   0  0  0  0  0  0  0  0  0  0  0  0
  -28.8149  -21.3406   21.3872 C   0  0  0  0  0  0  0  0  0  0  0  0
  -21.7631   -9.7904   21.4204 C   0  0  0  0  0  0  0  0  0  0  0  0
  -28.2629  -12.2044   22.1618 C   0  0  0  0  0  0  0  0  0  0  0  0
  -30.1065  -13.1073   20.6474 C   0  0  0  0  0  0  0  0  0  0  0  0
  -29.7122  -33.1714   24.3373 C   0  0  0  0  0  0  0  0  0  0  0  0
  -24.6866  -29.3022   19.7930 C   0  0  0  0  0  0  0  0  0  0  0  0
  -29.4068  -32.3333   23.2479 C   0  0  0  0  0  0  0  0  0  0  0  0
  -24.0459  -28.4814   20.7321 C   0  0  0  0  0  0  0  0  0  0  0  0
  -27.7399  -21.5226   20.5173 C   0  0  0  0  0  0  0  0  0  0  0  0
  -28.5970  -20.8359   22.6692 C   0  0  0  0  0  0  0  0  0  0  0  0
  -27.3040  -20.5133   23.0813 C   0  0  0  0  0  0  0  0  0  0  0  0
  -26.4469  -21.2000   20.9293 C   0  0  0  0  0  0  0  0  0  0  0  0
  -26.1089  -10.5381   22.7670 C   0  0  0  0  0  0  0  0  0  0  0  0
  -24.0606  -26.6552   19.1276 C   0  0  0  0  0  0  0  0  0  0  0  0
  -24.0709   -9.5753   22.1021 C   0  0  0  0  0  0  0  0  0  0  0  0
  -22.0857   -9.2735   20.1656 C   0  0  0  0  0  0  0  0  0  0  0  0
  -22.7558   -9.9413   22.3886 C   0  0  0  0  0  0  0  0  0  0  0  0
  -26.2290  -20.6953   22.2113 C   0  0  0  0  0  0  0  0  0  0  0  0
  -29.3750  -13.0657   21.8494 C   0  0  0  0  0  0  0  0  0  0  0  0
  -31.0490  -14.0851   20.8527 C   0  0  0  0  0  0  0  0  0  0  0  0
  -29.9482  -12.3316   19.4520 C   0  0  0  0  0  0  0  0  0  0  0  0
  -26.3914  -30.4674   22.2096 C   0  0  0  0  0  0  0  0  0  0  0  0
  -25.1825  -22.9008   19.5482 C   0  0  0  0  0  0  0  0  0  0  0  0
  -23.4651  -31.1010   23.4578 C   0  0  0  0  0  0  0  0  0  0  0  0
  -20.1341  -30.3647   23.5515 C   0  0  0  0  0  0  0  0  0  0  0  0
  -31.2489  -18.8634   24.4553 C   0  0  0  0  0  0  0  0  0  0  0  0
  -29.1890  -32.8922   25.7240 C   0  0  0  0  0  0  0  0  0  0  0  0
  -25.0016  -30.7355   20.1233 C   0  0  0  0  0  0  0  0  0  0  0  0
  -23.6802  -28.9825   22.1046 C   0  0  0  0  0  0  0  0  0  0  0  0
  -27.9995  -31.9357   25.7451 C   0  0  0  0  0  0  0  0  0  0  0  0
  -33.5796  -16.1745   24.3343 C   0  0  0  0  0  0  0  0  0  0  0  0
  -28.2694  -30.7283   24.8529 C   0  0  0  0  0  0  0  0  0  0  0  0
  -32.8323  -15.0766   23.5753 C   0  0  0  0  0  0  0  0  0  0  0  0
  -32.6435  -16.9722   25.2395 C   0  0  0  0  0  0  0  0  0  0  0  0
  -30.7123  -16.4375   23.8047 C   0  0  0  0  0  0  0  0  0  0  0  0
  -28.4692  -31.1545   23.3934 C   0  0  1  0  0  0  0  0  0  0  0  0
  -25.1117  -30.9927   21.6230 C   0  0  1  0  0  0  0  0  0  0  0  0
  -31.6044  -15.6420   22.8364 C   0  0  2  0  0  0  0  0  0  0  0  0
  -28.0028  -22.0647   19.1502 C   0  0  0  0  0  0  0  0  0  0  0  0
  -27.0934  -19.9730   24.4619 C   0  0  0  0  0  0  0  0  0  0  0  0
  -18.0018  -31.0266   24.6973 C   0  0  0  0  0  0  0  0  0  0  0  0
  -23.8983  -20.9957   20.5064 C   0  0  0  0  0  0  0  0  0  0  0  0
  -25.5410  -20.5455   18.7000 C   0  0  0  0  0  0  0  0  0  0  0  0
  -24.3435  -29.5910   25.9595 C   0  0  0  0  0  0  0  0  0  0  0  0
  -21.9378  -29.4604   26.6407 C   0  0  0  0  0  0  0  0  0  0  0  0
  -23.0466  -31.6825   26.4048 C   0  0  0  0  0  0  0  0  0  0  0  0
  -18.8778  -31.1763   20.9978 C   0  0  0  0  0  0  0  0  0  0  0  0
  -29.7670  -20.6513   23.5796 C   0  0  0  0  0  0  0  0  0  0  0  0
  -24.6294  -23.2210   18.1595 C   0  0  0  0  0  0  0  0  0  0  0  0
  -24.6101  -24.7143   17.8679 C   0  0  0  0  0  0  0  0  0  1  0  0
  -22.4894  -30.3490   24.3304 C   0  0  1  0  0  0  0  0  0  0  0  0
  -18.9042  -31.2527   23.4942 C   0  0  2  0  0  0  0  0  0  0  0  0
  -25.2796  -21.4086   19.9554 C   0  0  0  0  0  0  0  0  0  0  0  0
  -22.9628  -30.2604   25.8087 C   0  0  0  0  0  0  0  0  0  0  0  0
  -29.8150  -13.9468   22.7516 N   0  0  0  0  0  0  0  0  0  0  0  0
  -30.8333  -14.5513   22.1162 N   0  0  0  0  0  0  0  0  0  0  0  0
  -24.0146  -30.3891   22.3820 N   0  0  0  0  0  0  0  0  0  0  0  0
  -31.5009  -17.4817   24.4774 N   0  0  0  0  0  0  0  0  0  0  0  0
  -32.0330  -14.5829   20.0740 N   0  0  0  0  0  0  0  0  0  0  0  0
  -28.9297  -11.3697   19.4097 N   0  0  0  0  0  0  0  0  0  0  0  0
  -27.1942  -31.4415   22.7717 N   0  0  0  0  0  0  0  0  0  0  0  0
  -21.1970  -31.0028   24.1550 N   0  0  0  0  0  0  0  0  0  0  0  0
  -30.1503  -19.2626   23.7040 N   0  0  0  0  0  0  0  0  0  0  0  0
  -18.1195  -30.9716   22.2588 N   0  3  0  0  0  0  0  0  0  0  0  0
  -30.6985  -12.4754   18.4571 O   0  0  0  0  0  0  0  0  0  0  0  0
  -26.6318  -29.2669   22.1575 O   0  0  0  0  0  0  0  0  0  0  0  0
  -25.5544  -23.8000   20.3054 O   0  0  0  0  0  0  0  0  0  0  0  0
  -23.7246  -32.2788   23.7167 O   0  0  0  0  0  0  0  0  0  0  0  0
  -20.1491  -29.2182   23.1089 O   0  0  0  0  0  0  0  0  0  0  0  0
  -31.9542  -19.6813   25.0559 O   0  0  0  0  0  0  0  0  0  0  0  0
  -25.0577   -9.7253   23.0620 O   0  0  0  0  0  0  0  0  0  0  0  0
  -23.7591  -25.3669   18.8092 O   0  0  0  0  0  0  0  0  0  1  0  0
  -21.1328   -9.1299   19.2352 F   0  0  0  0  0  0  0  0  0  0  0  0
  -22.4401  -10.4395   23.5919 F   0  0  0  0  0  0  0  0  0  0  0  0
  -24.6225  -20.2945   22.7233 Cl  0  0  0  0  0  0  0  0  0  0  0  0
  1  2  1  0  0  0  0
  1  5  2  0  0  0  0
  2  6  2  0  0  0  0
  3  8  2  0  0  0  0
  3 16  1  0  0  0  0
  4  9  1  0  0  0  0
  4 16  2  0  0  0  0
  5 18  1  0  0  0  0
  6 20  1  0  0  0  0
  7 10  2  0  0  0  0
  7 19  1  0  0  0  0
  8 26  1  0  0  0  0
  9 26  2  0  0  0  0
 10 27  1  0  0  0  0
 11 12  2  0  0  0  0
 11 28  1  0  0  0  0
 12 29  1  0  0  0  0
 13 21  1  0  0  0  0
 13 27  2  0  0  0  0
 14 22  2  0  0  0  0
 14 23  1  0  0  0  0
 15 29  2  0  0  0  0
 15 30  1  0  0  0  0
 16 32  1  0  0  0  0
 17 32  1  0  0  0  0
 17 33  2  0  0  0  0
 17 34  1  0  0  0  0
 18 20  2  0  0  0  0
 18 40  1  0  0  0  0
 19 21  2  0  0  0  0
 19 41  1  0  0  0  0
 20 49  1  0  0  0  0
 21 42  1  0  0  0  0
 22 25  1  0  0  0  0
 22 52  1  0  0  0  0
 23 24  2  0  0  0  0
 23 61  1  0  0  0  0
 24 31  1  0  0  0  0
 24 53  1  0  0  0  0
 25 31  2  0  0  0  0
 25 66  1  0  0  0  0
 26 84  1  0  0  0  0
 27 85  1  0  0  0  0
 28 30  2  0  0  0  0
 28 84  1  0  0  0  0
 29 86  1  0  0  0  0
 30 87  1  0  0  0  0
 31 88  1  0  0  0  0
 32 68  2  0  0  0  0
 33 69  1  0  0  0  0
 33 72  1  0  0  0  0
 34 73  1  0  0  0  0
 34 78  2  0  0  0  0
 35 50  1  0  0  0  0
 35 74  1  0  0  0  0
 35 79  2  0  0  0  0
 36 62  1  0  0  0  0
 36 66  1  0  0  0  0
 36 80  2  0  0  0  0
 37 64  1  0  0  0  0
 37 70  1  0  0  0  0
 37 81  2  0  0  0  0
 38 65  1  0  0  0  0
 38 75  1  0  0  0  0
 38 82  2  0  0  0  0
 39 71  1  0  0  0  0
 39 76  1  0  0  0  0
 39 83  2  0  0  0  0
 40 43  1  0  0  0  0
 41 50  1  0  0  0  0
 42 70  1  0  0  0  0
 43 45  1  0  0  0  0
 44 46  1  0  0  0  0
 44 47  1  0  0  0  0
 45 49  1  0  0  0  0
 46 51  1  0  0  0  0
 47 71  1  0  0  0  0
 48 51  1  0  0  0  0
 48 71  1  0  0  0  0
 49 74  1  0  0  0  0
 50 70  1  0  0  0  0
 51 69  1  0  0  0  0
 54 65  1  0  0  0  0
 55 66  1  0  0  0  0
 56 66  1  0  0  0  0
 57 67  1  0  0  0  0
 58 67  1  0  0  0  0
 59 67  1  0  0  0  0
 60 77  1  0  0  0  0
 61 76  1  0  0  0  0
 62 63  1  0  0  0  0
 63 85  1  0  0  0  0
 64 67  1  0  0  0  0
 64 75  1  0  0  0  0
 65 77  1  0  0  0  0
 68 69  1  0  0  0  0
M  CHG  1  77   1
M  ISO  4  39 100  63 101  76 100  85 101
M  END
> <Batch ID>
0024

> <Smiles>
CNC(C)C(=O)NC(C(=O)N1Cc2cc([101O:1][101CH2:1]CC(=O)C(C)(C)c3c(C)cc(C[100NH:0][100C:0](=O)N4CCCC(n5nc(-c6ccc(Oc7ccc(F)cc7F)cc6)c(C(N)=O)c5N)C4)c(C)c3Cl)ccc2CC1C(=O)NC1CCCc2ccccc21)C(C)(C)C

> <Shape>
0.223

> <Color>
0.070

> <Negative vol penalty>
0.000

$$$$

  -OEChem-04052316223D

 87 95  0     1  0  0  0  0  0999 V2000
  -28.4027  -10.7568   19.9158 C   0  0  0  0  0  0  0  0  0  0  0  0
  -28.4815  -11.8299   19.0340 C   0  0  0  0  0  0  0  0  0  0  0  0
  -19.7693  -28.8671   23.5564 C   0  0  0  0  0  0  0  0  0  0  0  0
  -20.6810  -26.9641   22.3798 C   0  0  0  0  0  0  0  0  0  0  0  0
  -27.2923  -10.6197   20.7477 C   0  0  0  0  0  0  0  0  0  0  0  0
  -27.4493  -12.7660   18.9828 C   0  0  0  0  0  0  0  0  0  0  0  0
  -27.9788  -18.7760   17.9312 C   0  0  0  0  0  0  0  0  0  0  0  0
  -18.5286  -28.6413   22.9602 C   0  0  0  0  0  0  0  0  0  0  0  0
  -19.4403  -26.7382   21.7837 C   0  0  0  0  0  0  0  0  0  0  0  0
  -27.8060  -19.5459   16.7818 C   0  0  0  0  0  0  0  0  0  0  0  0
  -16.4802  -25.3537   22.6446 C   0  0  0  0  0  0  0  0  0  0  0  0
  -16.0092  -24.0413   22.6092 C   0  0  0  0  0  0  0  0  0  0  0  0
  -25.5481  -20.0491   17.4656 C   0  0  0  0  0  0  0  0  0  0  0  0
  -15.9482  -24.1282   20.1955 C   0  0  0  0  0  0  0  0  0  0  0  0
  -29.1486  -24.6030   20.2360 C   0  0  0  0  0  0  0  0  0  0  0  0
  -20.8455  -28.0285   23.2661 C   0  0  0  0  0  0  0  0  0  0  0  0
  -22.5949  -27.7323   25.0990 C   0  0  0  0  0  0  0  0  0  0  0  0
  -26.2504  -11.5599   20.7135 C   0  0  0  0  0  0  0  0  0  0  0  0
  -26.9321  -18.6277   18.8526 C   0  0  0  0  0  0  0  0  0  0  0  0
  -26.3233  -12.6407   19.8141 C   0  0  0  0  0  0  0  0  0  0  0  0
  -25.7109  -19.2788   18.6272 C   0  0  0  0  0  0  0  0  0  0  0  0
  -28.6838  -26.9282   19.7732 C   0  0  0  0  0  0  0  0  0  0  0  0
  -27.5908  -25.1988   18.4880 C   0  0  0  0  0  0  0  0  0  0  0  0
  -18.3641  -27.5769   22.0739 C   0  0  0  0  0  0  0  0  0  0  0  0
  -26.5896  -20.1802   16.5474 C   0  0  0  0  0  0  0  0  0  0  0  0
  -16.6852  -26.0534   21.4555 C   0  0  0  0  0  0  0  0  0  0  0  0
  -15.7432  -23.4285   21.3847 C   0  0  0  0  0  0  0  0  0  0  0  0
  -16.4192  -25.4407   20.2309 C   0  0  0  0  0  0  0  0  0  0  0  0
  -29.3580  -25.9545   20.5101 C   0  0  0  0  0  0  0  0  0  0  0  0
  -28.2650  -24.2252   19.2249 C   0  0  0  0  0  0  0  0  0  0  0  0
  -27.8002  -26.5504   18.7621 C   0  0  0  0  0  0  0  0  0  0  0  0
  -22.1275  -28.2616   23.8812 C   0  0  0  0  0  0  0  0  0  0  0  0
  -23.8589  -28.2517   25.2366 C   0  0  0  0  0  0  0  0  0  0  0  0
  -21.9446  -26.8499   26.0233 C   0  0  0  0  0  0  0  0  0  0  0  0
  -25.2391  -16.1705   19.9477 C   0  0  0  0  0  0  0  0  0  0  0  0
  -23.9988  -18.4134   21.9359 C   0  0  0  0  0  0  0  0  0  0  0  0
  -23.3304  -21.7069   22.5304 C   0  0  0  0  0  0  0  0  0  0  0  0
  -27.8888  -30.2704   21.2950 C   0  0  0  0  0  0  0  0  0  0  0  0
  -25.0482  -11.3438   21.5982 C   0  0  0  0  0  0  0  0  0  0  0  0
  -27.1433  -17.8156   20.1009 C   0  0  0  0  0  0  0  0  0  0  0  0
  -24.5626  -19.1679   19.5954 C   0  0  0  0  0  0  0  0  0  0  0  0
  -24.1716  -12.5845   21.7485 C   0  0  0  0  0  0  0  0  0  0  0  0
  -26.4924  -32.0617   24.0369 C   0  0  0  0  0  0  0  0  0  0  0  0
  -23.9214  -13.2292   20.3889 C   0  0  0  0  0  0  0  0  0  0  0  0
  -25.2576  -31.2432   24.4178 C   0  0  0  0  0  0  0  0  0  0  0  0
  -26.7182  -32.0730   22.5266 C   0  0  0  0  0  0  0  0  0  0  0  0
  -25.5428  -29.9209   22.2803 C   0  0  0  0  0  0  0  0  0  0  0  0
  -25.2354  -13.6905   19.7469 C   0  0  1  0  0  0  0  0  0  0  0  0
  -25.8400  -17.3140   20.7150 C   0  0  1  0  0  0  0  0  0  0  0  0
  -25.3060  -29.8338   23.7977 C   0  0  2  0  0  0  0  0  0  0  0  0
  -22.2741  -23.2281   24.2238 C   0  0  0  0  0  0  0  0  0  0  0  0
  -25.9304  -25.0687   14.3316 C   0  0  0  0  0  0  0  0  0  0  0  0
  -21.2321  -17.5435   20.9880 C   0  0  0  0  0  0  0  0  0  0  0  0
  -20.3127  -19.6655   21.9472 C   0  0  0  0  0  0  0  0  0  0  0  0
  -21.4007  -17.9914   23.4427 C   0  0  0  0  0  0  0  0  0  0  0  0
  -25.8703  -23.1570   22.9834 C   0  0  0  0  0  0  0  0  0  0  0  0
  -28.9376  -28.3651   20.0996 C   0  0  0  0  0  0  0  0  0  0  0  0
  -26.6415  -24.7871   17.4016 C   0  0  0  0  0  0  0  0  0  0  0  0
  -27.1391  -22.8554   14.1870 C   0  0  0  0  0  0  0  0  0  0  0  0
  -27.5744  -21.5757   14.8925 C   0  0  0  0  0  0  0  0  0  1  0  0
  -22.8300  -19.3670   21.8753 C   0  0  1  0  0  0  0  0  0  0  0  0
  -23.5652  -22.5779   23.7514 C   0  0  2  0  0  0  0  0  0  0  0  0
  -26.4122  -23.8451   15.0997 C   0  0  1  0  0  0  0  0  0  0  0  0
  -21.4647  -18.6426   22.0439 C   0  0  0  0  0  0  0  0  0  0  0  0
  -23.0217  -29.0564   23.2874 N   0  0  0  0  0  0  0  0  0  0  0  0
  -24.0637  -29.0305   24.1358 N   0  0  0  0  0  0  0  0  0  0  0  0
  -24.8160  -18.3575   20.7980 N   0  0  0  0  0  0  0  0  0  0  0  0
  -26.7556  -30.7060   22.0015 N   0  0  0  0  0  0  0  0  0  0  0  0
  -24.8040  -28.1138   26.1906 N   0  0  0  0  0  0  0  0  0  0  0  0
  -20.6466  -26.4115   25.7280 N   0  0  0  0  0  0  0  0  0  0  0  0
  -25.6861  -14.9264   20.3500 N   0  0  0  0  0  0  0  0  0  0  0  0
  -23.0891  -20.3946   22.8780 N   0  0  0  0  0  0  0  0  0  0  0  0
  -27.8450  -28.9592   20.8372 N   0  0  0  0  0  0  0  0  0  0  0  0
  -24.5466  -23.6548   23.4384 N   0  3  0  0  0  0  0  0  0  0  0  0
  -27.3317  -24.3108   16.1749 N   0  3  0  0  0  0  0  0  0  0  0  0
  -22.4920  -26.4748   27.0878 O   0  0  0  0  0  0  0  0  0  0  0  0
  -24.4287  -16.3998   19.0575 O   0  0  0  0  0  0  0  0  0  0  0  0
  -24.1840  -17.7482   22.9580 O   0  0  0  0  0  0  0  0  0  0  0  0
  -23.3547  -22.1474   21.3833 O   0  0  0  0  0  0  0  0  0  0  0  0
  -28.8693  -30.9945   21.0922 O   0  0  0  0  0  0  0  0  0  0  0  0
  -17.1536  -27.3561   21.4922 O   0  0  0  0  0  0  0  0  0  0  0  0
  -26.4180  -20.9318   15.4260 O   0  0  0  0  0  0  0  0  0  1  0  0
  -15.2924  -22.1677   21.3508 F   0  0  0  0  0  0  0  0  0  0  0  0
  -16.6154  -26.1075   19.0852 F   0  0  0  0  0  0  0  0  0  0  0  0
  -30.2097  -26.3061   21.4838 F   0  0  0  0  0  0  0  0  0  0  0  0
  -28.0365  -22.5407   18.9201 Cl  0  0  0  0  0  0  0  0  0  0  0  0
  -26.9656  -27.7646   17.8500 Cl  0  0  0  0  0  0  0  0  0  0  0  0
  1  2  1  0  0  0  0
  1  5  2  0  0  0  0
  2  6  2  0  0  0  0
  3  8  2  0  0  0  0
  3 16  1  0  0  0  0
  4  9  1  0  0  0  0
  4 16  2  0  0  0  0
  5 18  1  0  0  0  0
  6 20  1  0  0  0  0
  7 10  2  0  0  0  0
  7 19  1  0  0  0  0
  8 24  1  0  0  0  0
  9 24  2  0  0  0  0
 10 25  1  0  0  0  0
 11 12  2  0  0  0  0
 11 26  1  0  0  0  0
 12 27  1  0  0  0  0
 13 21  1  0  0  0  0
 13 25  2  0  0  0  0
 14 27  2  0  0  0  0
 14 28  1  0  0  0  0
 15 29  1  0  0  0  0
 15 30  2  0  0  0  0
 16 32  1  0  0  0  0
 17 32  1  0  0  0  0
 17 33  2  0  0  0  0
 17 34  1  0  0  0  0
 18 20  2  0  0  0  0
 18 39  1  0  0  0  0
 19 21  2  0  0  0  0
 19 40  1  0  0  0  0
 20 48  1  0  0  0  0
 21 41  1  0  0  0  0
 22 29  2  0  0  0  0
 22 31  1  0  0  0  0
 22 57  1  0  0  0  0
 23 30  1  0  0  0  0
 23 31  2  0  0  0  0
 23 58  1  0  0  0  0
 24 81  1  0  0  0  0
 25 82  1  0  0  0  0
 26 28  2  0  0  0  0
 26 81  1  0  0  0  0
 27 83  1  0  0  0  0
 28 84  1  0  0  0  0
 29 85  1  0  0  0  0
 30 86  1  0  0  0  0
 31 87  1  0  0  0  0
 32 65  2  0  0  0  0
 33 66  1  0  0  0  0
 33 69  1  0  0  0  0
 34 70  1  0  0  0  0
 34 76  2  0  0  0  0
 35 49  1  0  0  0  0
 35 71  1  0  0  0  0
 35 77  2  0  0  0  0
 36 61  1  0  0  0  0
 36 67  1  0  0  0  0
 36 78  2  0  0  0  0
 37 62  1  0  0  0  0
 37 72  1  0  0  0  0
 37 79  2  0  0  0  0
 38 68  1  0  0  0  0
 38 73  1  0  0  0  0
 38 80  2  0  0  0  0
 39 42  1  0  0  0  0
 40 49  1  0  0  0  0
 41 67  1  0  0  0  0
 42 44  1  0  0  0  0
 43 45  1  0  0  0  0
 43 46  1  0  0  0  0
 44 48  1  0  0  0  0
 45 50  1  0  0  0  0
 46 68  1  0  0  0  0
 47 50  1  0  0  0  0
 47 68  1  0  0  0  0
 48 71  1  0  0  0  0
 49 67  1  0  0  0  0
 50 66  1  0  0  0  0
 51 62  1  0  0  0  0
 52 63  1  0  0  0  0
 53 64  1  0  0  0  0
 54 64  1  0  0  0  0
 55 64  1  0  0  0  0
 56 74  1  0  0  0  0
 57 73  1  0  0  0  0
 58 75  1  0  0  0  0
 59 60  1  0  0  0  0
 59 63  1  0  0  0  0
 60 82  1  0  0  0  0
 61 64  1  0  0  0  0
 61 72  1  0  0  0  0
 62 74  1  0  0  0  0
 63 75  1  0  0  0  0
 65 66  1  0  0  0  0
M  CHG  2  74   1  75   1
M  ISO  4  38 100  60 101  73 100  82 101
M  END
> <Batch ID>
0024

> <Smiles>
CNC(C)C(=O)NC(C(=O)N1Cc2cc([101O:1][101CH2:1]CC(C)NCc3c(Cl)cc(F)c(C[100NH:0][100C:0](=O)N4CCCC(n5nc(-c6ccc(Oc7ccc(F)cc7F)cc6)c(C(N)=O)c5N)C4)c3Cl)ccc2CC1C(=O)NC1CCCc2ccccc21)C(C)(C)C

> <Shape>
0.198

> <Color>
0.068

> <Negative vol penalty>
0.000

$$$$

  -OEChem-04052316223D

 87 95  0     1  0  0  0  0  0999 V2000
  -25.2752   -6.7710   22.7956 C   0  0  0  0  0  0  0  0  0  0  0  0
  -26.2275   -7.6225   22.2446 C   0  0  0  0  0  0  0  0  0  0  0  0
  -22.8587  -30.6413   20.8743 C   0  0  0  0  0  0  0  0  0  0  0  0
  -22.7720  -28.7160   22.3313 C   0  0  0  0  0  0  0  0  0  0  0  0
  -23.9185   -7.0586   22.6525 C   0  0  0  0  0  0  0  0  0  0  0  0
  -25.8234   -8.7616   21.5491 C   0  0  0  0  0  0  0  0  0  0  0  0
  -28.6745  -14.1791   21.3847 C   0  0  0  0  0  0  0  0  0  0  0  0
  -21.4792  -30.5602   20.6850 C   0  0  0  0  0  0  0  0  0  0  0  0
  -21.3924  -28.6349   22.1420 C   0  0  0  0  0  0  0  0  0  0  0  0
  -29.5364  -14.7576   20.4539 C   0  0  0  0  0  0  0  0  0  0  0  0
  -18.6254  -30.1934   23.2977 C   0  0  0  0  0  0  0  0  0  0  0  0
  -17.8294  -29.9858   24.4240 C   0  0  0  0  0  0  0  0  0  0  0  0
  -27.6705  -15.9140   19.4537 C   0  0  0  0  0  0  0  0  0  0  0  0
  -29.9491  -22.8822   20.3088 C   0  0  0  0  0  0  0  0  0  0  0  0
  -16.9990  -27.9325   23.4588 C   0  0  0  0  0  0  0  0  0  0  0  0
  -23.5051  -29.7191   21.6974 C   0  0  0  0  0  0  0  0  0  0  0  0
  -25.6108  -30.5259   22.8903 C   0  0  0  0  0  0  0  0  0  0  0  0
  -23.4978   -8.2069   21.9633 C   0  0  0  0  0  0  0  0  0  0  0  0
  -27.3002  -14.4557   21.3501 C   0  0  0  0  0  0  0  0  0  0  0  0
  -24.4597   -9.0641   21.3955 C   0  0  0  0  0  0  0  0  0  0  0  0
  -26.7937  -15.3397   20.3867 C   0  0  0  0  0  0  0  0  0  0  0  0
  -29.9926  -21.4987   20.4810 C   0  0  0  0  0  0  0  0  0  0  0  0
  -28.7426  -21.7152   22.5371 C   0  0  0  0  0  0  0  0  0  0  0  0
  -29.3023  -23.6822   21.2509 C   0  0  0  0  0  0  0  0  0  0  0  0
  -20.7460  -29.5570   21.3188 C   0  0  0  0  0  0  0  0  0  0  0  0
  -29.0341  -15.6229   19.4865 C   0  0  0  0  0  0  0  0  0  0  0  0
  -18.6083  -29.2706   22.2518 C   0  0  0  0  0  0  0  0  0  0  0  0
  -17.0162  -28.8553   24.5046 C   0  0  0  0  0  0  0  0  0  0  0  0
  -17.7951  -28.1401   22.3323 C   0  0  0  0  0  0  0  0  0  0  0  0
  -29.3894  -20.9152   21.5951 C   0  0  0  0  0  0  0  0  0  0  0  0
  -28.6991  -23.0987   22.3650 C   0  0  0  0  0  0  0  0  0  0  0  0
  -24.9303  -29.8021   21.8930 C   0  0  0  0  0  0  0  0  0  0  0  0
  -26.9400  -30.2803   22.6463 C   0  0  0  0  0  0  0  0  0  0  0  0
  -25.0882  -31.3469   23.9432 C   0  0  0  0  0  0  0  0  0  0  0  0
  -24.6734  -12.7208   20.9100 C   0  0  0  0  0  0  0  0  0  0  0  0
  -23.1809  -15.5092   21.6306 C   0  0  0  0  0  0  0  0  0  0  0  0
  -23.3113  -18.9172   21.7552 C   0  0  0  0  0  0  0  0  0  0  0  0
  -29.8381  -25.7883   19.9766 C   0  0  0  0  0  0  0  0  0  0  0  0
  -22.0192   -8.4509   21.7938 C   0  0  0  0  0  0  0  0  0  0  0  0
  -26.3877  -13.8445   22.3778 C   0  0  0  0  0  0  0  0  0  0  0  0
  -25.3292  -15.6852   20.3195 C   0  0  0  0  0  0  0  0  0  0  0  0
  -21.6824   -9.8766   21.3646 C   0  0  0  0  0  0  0  0  0  0  0  0
  -29.9615  -29.2323   19.0817 C   0  0  0  0  0  0  0  0  0  0  0  0
  -22.5906  -10.3186   20.2215 C   0  0  0  0  0  0  0  0  0  0  0  0
  -28.7507  -29.8363   19.7968 C   0  0  0  0  0  0  0  0  0  0  0  0
  -29.6702  -27.8252   18.5631 C   0  0  0  0  0  0  0  0  0  0  0  0
  -27.9368  -27.4934   20.2820 C   0  0  0  0  0  0  0  0  0  0  0  0
  -24.0614  -10.3225   20.6554 C   0  0  1  0  0  0  0  0  0  0  0  0
  -24.9305  -13.7948   21.9288 C   0  0  1  0  0  0  0  0  0  0  0  0
  -28.2029  -28.8850   20.8788 C   0  0  2  0  0  0  0  0  0  0  0  0
  -28.1071  -21.0490   23.7154 C   0  0  0  0  0  0  0  0  0  0  0  0
  -22.5699  -21.2584   22.2713 C   0  0  0  0  0  0  0  0  0  0  0  0
  -21.6188  -15.2008   19.0277 C   0  0  0  0  0  0  0  0  0  0  0  0
  -20.9864  -17.6169   19.2023 C   0  0  0  0  0  0  0  0  0  0  0  0
  -20.2639  -16.0096   20.9679 C   0  0  0  0  0  0  0  0  0  0  0  0
  -29.6988  -19.6412   15.9345 C   0  0  0  0  0  0  0  0  0  0  0  0
  -31.9294  -20.3522   16.8467 C   0  0  0  0  0  0  0  0  0  0  0  0
  -24.5223  -18.8297   24.4543 C   0  0  0  0  0  0  0  0  0  0  0  0
  -30.6870  -20.6402   19.4652 C   0  0  0  0  0  0  0  0  0  0  0  0
  -30.7935  -18.2238   17.7050 C   0  0  0  0  0  0  0  0  0  0  0  0
  -29.5154  -17.4758   18.0755 C   0  0  0  0  0  0  0  0  0  1  0  0
  -22.6933  -16.6971   20.8367 C   0  0  1  0  0  0  0  0  0  0  0  0
  -22.9358  -19.9002   22.8493 C   0  0  2  0  0  0  0  0  0  0  0  0
  -21.4180  -16.3733   20.0084 C   0  0  0  0  0  0  0  0  0  0  0  0
  -30.6054  -19.6570   17.1705 C   0  0  0  0  0  0  0  0  0  0  0  0
  -25.7587  -29.1460   21.0761 N   0  0  0  0  0  0  0  0  0  0  0  0
  -26.9734  -29.4567   21.5597 N   0  0  0  0  0  0  0  0  0  0  0  0
  -24.4764  -15.0573   21.3422 N   0  0  0  0  0  0  0  0  0  0  0  0
  -29.1589  -26.9794   19.6439 N   0  0  0  0  0  0  0  0  0  0  0  0
  -28.0716  -30.6908   23.2572 N   0  0  0  0  0  0  0  0  0  0  0  0
  -23.6983  -31.4915   24.0504 N   0  0  0  0  0  0  0  0  0  0  0  0
  -29.2781  -25.0834   21.0416 N   0  0  0  0  0  0  0  0  0  0  0  0
  -24.3491  -11.4935   21.4558 N   0  0  0  0  0  0  0  0  0  0  0  0
  -22.5242  -17.7857   21.7931 N   0  0  0  0  0  0  0  0  0  0  0  0
  -24.0736  -20.0828   23.7944 N   0  3  0  0  0  0  0  0  0  0  0  0
  -29.9093  -20.4768   18.2139 N   0  3  0  0  0  0  0  0  0  0  0  0
  -25.8324  -31.9479   24.7547 O   0  0  0  0  0  0  0  0  0  0  0  0
  -24.7612  -12.9863   19.7169 O   0  0  0  0  0  0  0  0  0  0  0  0
  -22.4421  -15.0054   22.4804 O   0  0  0  0  0  0  0  0  0  0  0  0
  -24.2103  -19.1332   20.9455 O   0  0  0  0  0  0  0  0  0  0  0  0
  -30.8583  -25.4346   19.3798 O   0  0  0  0  0  0  0  0  0  0  0  0
  -19.3998  -29.4777   21.1345 O   0  0  0  0  0  0  0  0  0  0  0  0
  -29.8731  -16.1884   18.5764 O   0  0  0  0  0  0  0  0  0  1  0  0
  -16.2529  -28.6553   25.5870 F   0  0  0  0  0  0  0  0  0  0  0  0
  -17.7753  -27.2495   21.3313 F   0  0  0  0  0  0  0  0  0  0  0  0
  -29.4311  -19.5843   21.7585 F   0  0  0  0  0  0  0  0  0  0  0  0
  -27.8935  -24.0882   23.5388 Cl  0  0  0  0  0  0  0  0  0  0  0  0
  1  2  1  0  0  0  0
  1  5  2  0  0  0  0
  2  6  2  0  0  0  0
  3  8  2  0  0  0  0
  3 16  1  0  0  0  0
  4  9  1  0  0  0  0
  4 16  2  0  0  0  0
  5 18  1  0  0  0  0
  6 20  1  0  0  0  0
  7 10  2  0  0  0  0
  7 19  1  0  0  0  0
  8 25  1  0  0  0  0
  9 25  2  0  0  0  0
 10 26  1  0  0  0  0
 11 12  2  0  0  0  0
 11 27  1  0  0  0  0
 12 28  1  0  0  0  0
 13 21  1  0  0  0  0
 13 26  2  0  0  0  0
 14 22  1  0  0  0  0
 14 24  2  0  0  0  0
 15 28  2  0  0  0  0
 15 29  1  0  0  0  0
 16 32  1  0  0  0  0
 17 32  1  0  0  0  0
 17 33  2  0  0  0  0
 17 34  1  0  0  0  0
 18 20  2  0  0  0  0
 18 39  1  0  0  0  0
 19 21  2  0  0  0  0
 19 40  1  0  0  0  0
 20 48  1  0  0  0  0
 21 41  1  0  0  0  0
 22 30  2  0  0  0  0
 22 59  1  0  0  0  0
 23 30  1  0  0  0  0
 23 31  2  0  0  0  0
 23 51  1  0  0  0  0
 24 31  1  0  0  0  0
 24 72  1  0  0  0  0
 25 82  1  0  0  0  0
 26 83  1  0  0  0  0
 27 29  2  0  0  0  0
 27 82  1  0  0  0  0
 28 84  1  0  0  0  0
 29 85  1  0  0  0  0
 30 86  1  0  0  0  0
 31 87  1  0  0  0  0
 32 66  2  0  0  0  0
 33 67  1  0  0  0  0
 33 70  1  0  0  0  0
 34 71  1  0  0  0  0
 34 77  2  0  0  0  0
 35 49  1  0  0  0  0
 35 73  1  0  0  0  0
 35 78  2  0  0  0  0
 36 62  1  0  0  0  0
 36 68  1  0  0  0  0
 36 79  2  0  0  0  0
 37 63  1  0  0  0  0
 37 74  1  0  0  0  0
 37 80  2  0  0  0  0
 38 69  1  0  0  0  0
 38 72  1  0  0  0  0
 38 81  2  0  0  0  0
 39 42  1  0  0  0  0
 40 49  1  0  0  0  0
 41 68  1  0  0  0  0
 42 44  1  0  0  0  0
 43 45  1  0  0  0  0
 43 46  1  0  0  0  0
 44 48  1  0  0  0  0
 45 50  1  0  0  0  0
 46 69  1  0  0  0  0
 47 50  1  0  0  0  0
 47 69  1  0  0  0  0
 48 73  1  0  0  0  0
 49 68  1  0  0  0  0
 50 67  1  0  0  0  0
 52 63  1  0  0  0  0
 53 64  1  0  0  0  0
 54 64  1  0  0  0  0
 55 64  1  0  0  0  0
 56 65  1  0  0  0  0
 57 65  1  0  0  0  0
 58 75  1  0  0  0  0
 59 76  1  0  0  0  0
 60 61  1  0  0  0  0
 60 65  1  0  0  0  0
 61 83  1  0  0  0  0
 62 64  1  0  0  0  0
 62 74  1  0  0  0  0
 63 75  1  0  0  0  0
 65 76  1  0  0  0  0
 66 67  1  0  0  0  0
M  CHG  2  75   1  76   1
M  ISO  4  38 100  61 101  72 100  83 101
M  END
> <Batch ID>
0024

> <Smiles>
CNC(C)C(=O)NC(C(=O)N1Cc2cc([101O:1][101CH2:1]CC(C)(C)NCc3cc([100NH:0][100C:0](=O)N4CCCC(n5nc(-c6ccc(Oc7ccc(F)cc7F)cc6)c(C(N)=O)c5N)C4)c(Cl)c(C)c3F)ccc2CC1C(=O)NC1CCCc2ccccc21)C(C)(C)C

> <Shape>
0.287

> <Color>
0.055

> <Negative vol penalty>
0.000

$$$$

  -OEChem-04052316223D

 90 98  0     1  0  0  0  0  0999 V2000
  -29.2044  -18.8635   25.2467 C   0  0  0  0  0  0  0  0  0  0  0  0
  -29.8905  -19.9607   24.7360 C   0  0  0  0  0  0  0  0  0  0  0  0
  -23.1792   -9.8496   19.9343 C   0  0  0  0  0  0  0  0  0  0  0  0
  -23.8327   -9.9361   22.2586 C   0  0  0  0  0  0  0  0  0  0  0  0
  -27.8587  -18.6767   24.9334 C   0  0  0  0  0  0  0  0  0  0  0  0
  -29.2315  -20.8713   23.9108 C   0  0  0  0  0  0  0  0  0  0  0  0
  -30.2478  -25.6817   25.1243 C   0  0  0  0  0  0  0  0  0  0  0  0
  -22.4553   -8.6832   20.1812 C   0  0  0  0  0  0  0  0  0  0  0  0
  -23.1087   -8.7697   22.5056 C   0  0  0  0  0  0  0  0  0  0  0  0
  -31.4726  -26.1990   24.7049 C   0  0  0  0  0  0  0  0  0  0  0  0
  -19.8785   -7.8989   22.9829 C   0  0  0  0  0  0  0  0  0  0  0  0
  -19.0700   -7.8680   24.1191 C   0  0  0  0  0  0  0  0  0  0  0  0
  -30.3726  -27.2863   22.8536 C   0  0  0  0  0  0  0  0  0  0  0  0
  -34.2318  -22.4696   18.6968 C   0  0  0  0  0  0  0  0  0  0  0  0
  -20.3269   -5.9849   24.9624 C   0  0  0  0  0  0  0  0  0  0  0  0
  -23.8679  -10.4761   20.9730 C   0  0  0  0  0  0  0  0  0  0  0  0
  -24.1482  -13.0058   20.8010 C   0  0  0  0  0  0  0  0  0  0  0  0
  -27.1803  -19.5907   24.1118 C   0  0  0  0  0  0  0  0  0  0  0  0
  -29.0758  -25.9543   24.4041 C   0  0  0  0  0  0  0  0  0  0  0  0
  -27.8758  -20.6959   23.5851 C   0  0  0  0  0  0  0  0  0  0  0  0
  -29.1337  -26.7733   23.2675 C   0  0  0  0  0  0  0  0  0  0  0  0
  -33.3033  -23.2554   19.3794 C   0  0  0  0  0  0  0  0  0  0  0  0
  -32.1598  -22.6701   19.9229 C   0  0  0  0  0  0  0  0  0  0  0  0
  -31.9446  -21.2990   19.7835 C   0  0  0  0  0  0  0  0  0  0  0  0
  -32.8731  -20.5131   19.1008 C   0  0  0  0  0  0  0  0  0  0  0  0
  -22.4200   -8.1432   21.4668 C   0  0  0  0  0  0  0  0  0  0  0  0
  -31.5356  -26.9991   23.5677 C   0  0  0  0  0  0  0  0  0  0  0  0
  -20.9112   -6.9727   22.8364 C   0  0  0  0  0  0  0  0  0  0  0  0
  -19.2942   -6.9111   25.1088 C   0  0  0  0  0  0  0  0  0  0  0  0
  -34.0166  -21.0985   18.5574 C   0  0  0  0  0  0  0  0  0  0  0  0
  -21.1354   -6.0158   23.8261 C   0  0  0  0  0  0  0  0  0  0  0  0
  -24.6164  -11.6807   20.7185 C   0  0  0  0  0  0  0  0  0  0  0  0
  -25.2358  -13.7755   20.4675 C   0  0  0  0  0  0  0  0  0  0  0  0
  -22.8467  -13.4969   21.1482 C   0  0  0  0  0  0  0  0  0  0  0  0
  -26.9482  -24.1923   22.8318 C   0  0  0  0  0  0  0  0  0  0  0  0
  -25.3819  -27.0205   22.5667 C   0  0  0  0  0  0  0  0  0  0  0  0
  -25.5410  -30.4295   22.5445 C   0  0  0  0  0  0  0  0  0  0  0  0
  -30.4476  -15.0745   20.8005 C   0  0  0  0  0  0  0  0  0  0  0  0
  -25.7380  -19.3213   23.7626 C   0  0  0  0  0  0  0  0  0  0  0  0
  -27.7584  -25.4106   24.8849 C   0  0  0  0  0  0  0  0  0  0  0  0
  -27.9014  -27.1125   22.4708 C   0  0  0  0  0  0  0  0  0  0  0  0
  -25.0141  -20.5349   23.1853 C   0  0  0  0  0  0  0  0  0  0  0  0
  -29.7066  -12.5016   18.4976 C   0  0  0  0  0  0  0  0  0  0  0  0
  -25.8692  -21.2080   22.1163 C   0  0  0  0  0  0  0  0  0  0  0  0
  -28.2691  -12.1552   18.8831 C   0  0  0  0  0  0  0  0  0  0  0  0
  -30.5789  -12.7803   19.7231 C   0  0  0  0  0  0  0  0  0  0  0  0
  -28.5834  -13.4591   21.0192 C   0  0  0  0  0  0  0  0  0  0  0  0
  -27.1890  -21.7190   22.7066 C   0  0  1  0  0  0  0  0  0  0  0  0
  -26.7069  -25.3306   23.7825 C   0  0  1  0  0  0  0  0  0  0  0  0
  -27.6713  -13.2334   19.8035 C   0  0  2  0  0  0  0  0  0  0  0  0
  -31.1674  -23.5146   20.6578 C   0  0  0  0  0  0  0  0  0  0  0  0
  -30.7167  -20.6727   20.3671 C   0  0  0  0  0  0  0  0  0  0  0  0
  -24.1022  -32.4669   22.2687 C   0  0  0  0  0  0  0  0  0  0  0  0
  -25.2856  -26.5420   19.5548 C   0  0  0  0  0  0  0  0  0  0  0  0
  -24.7246  -28.9638   19.2583 C   0  0  0  0  0  0  0  0  0  0  0  0
  -23.1803  -27.4744   20.5308 C   0  0  0  0  0  0  0  0  0  0  0  0
  -32.8161  -14.2153   21.0381 C   0  0  0  0  0  0  0  0  0  0  0  0
  -26.1911  -31.3989   25.2641 C   0  0  0  0  0  0  0  0  0  0  0  0
  -33.5613  -24.7349   19.5166 C   0  0  0  0  0  0  0  0  0  0  0  0
  -34.1060  -25.1441   20.8898 C   0  0  0  0  0  0  0  0  0  0  0  0
  -34.4338  -26.6376   20.9839 C   0  0  0  0  0  0  0  0  0  0  0  0
  -34.9435  -27.0054   22.3762 C   0  0  0  0  0  0  0  0  0  0  0  0
  -33.1791  -16.7610   19.2749 C   0  0  0  0  0  0  0  0  0  0  0  0
  -33.7309  -18.1704   19.0634 C   0  0  0  0  0  0  0  0  0  0  0  0
  -32.3735  -16.5950   20.5616 C   0  0  0  0  0  0  0  0  0  0  0  0
  -33.8961  -26.7357   23.4472 C   0  0  0  0  0  0  0  0  0  1  0  0
  -25.3829  -28.1538   21.5694 C   0  0  1  0  0  0  0  0  0  0  0  0
  -24.7088  -31.4814   23.2554 C   0  0  2  0  0  0  0  0  0  0  0  0
  -24.6670  -27.7757   20.2420 C   0  0  0  0  0  0  0  0  0  0  0  0
  -25.9012  -11.6091   20.3604 N   0  0  0  0  0  0  0  0  0  0  0  0
  -26.2496  -12.8989   20.2149 N   0  0  0  0  0  0  0  0  0  0  0  0
  -26.6379  -26.5518   22.9775 N   0  0  0  0  0  0  0  0  0  0  0  0
  -29.9495  -13.7790   20.5977 N   0  0  0  0  0  0  0  0  0  0  0  0
  -25.4141  -15.1100   20.3684 N   0  0  0  0  0  0  0  0  0  0  0  0
  -21.8447  -12.5692   21.4637 N   0  0  0  0  0  0  0  0  0  0  0  0
  -32.6717  -19.1231   18.9509 N   0  0  0  0  0  0  0  0  0  0  0  0
  -26.9732  -22.9500   23.4364 N   0  0  0  0  0  0  0  0  0  0  0  0
  -24.8013  -29.3022   22.2559 N   0  0  0  0  0  0  0  0  0  0  0  0
  -31.8367  -15.2497   20.7112 N   0  0  0  0  0  0  0  0  0  0  0  0
  -25.5507  -32.2418   24.2218 N   0  3  0  0  0  0  0  0  0  0  0  0
  -22.5757  -14.7217   21.1619 O   0  0  0  0  0  0  0  0  0  0  0  0
  -27.0989  -24.4238   21.6379 O   0  0  0  0  0  0  0  0  0  0  0  0
  -24.3064  -26.5725   22.9720 O   0  0  0  0  0  0  0  0  0  0  0  0
  -26.7276  -30.5930   22.2691 O   0  0  0  0  0  0  0  0  0  0  0  0
  -29.6939  -16.0227   21.0555 O   0  0  0  0  0  0  0  0  0  0  0  0
  -21.7135   -7.0051   21.7081 O   0  0  0  0  0  0  0  0  0  0  0  0
  -32.7299  -27.5048   23.1558 O   0  0  0  0  0  0  0  0  0  1  0  0
  -18.5187   -6.8826   26.2006 F   0  0  0  0  0  0  0  0  0  0  0  0
  -34.9151  -20.3537   17.8975 F   0  0  0  0  0  0  0  0  0  0  0  0
  -22.1268   -5.1242   23.6915 F   0  0  0  0  0  0  0  0  0  0  0  0
  1  2  1  0  0  0  0
  1  5  2  0  0  0  0
  2  6  2  0  0  0  0
  3  8  2  0  0  0  0
  3 16  1  0  0  0  0
  4  9  1  0  0  0  0
  4 16  2  0  0  0  0
  5 18  1  0  0  0  0
  6 20  1  0  0  0  0
  7 10  2  0  0  0  0
  7 19  1  0  0  0  0
  8 26  1  0  0  0  0
  9 26  2  0  0  0  0
 10 27  1  0  0  0  0
 11 12  2  0  0  0  0
 11 28  1  0  0  0  0
 12 29  1  0  0  0  0
 13 21  1  0  0  0  0
 13 27  2  0  0  0  0
 14 22  1  0  0  0  0
 14 30  2  0  0  0  0
 15 29  2  0  0  0  0
 15 31  1  0  0  0  0
 16 32  1  0  0  0  0
 17 32  1  0  0  0  0
 17 33  2  0  0  0  0
 17 34  1  0  0  0  0
 18 20  2  0  0  0  0
 18 39  1  0  0  0  0
 19 21  2  0  0  0  0
 19 40  1  0  0  0  0
 20 48  1  0  0  0  0
 21 41  1  0  0  0  0
 22 23  2  0  0  0  0
 22 59  1  0  0  0  0
 23 24  1  0  0  0  0
 23 51  1  0  0  0  0
 24 25  2  0  0  0  0
 24 52  1  0  0  0  0
 25 30  1  0  0  0  0
 25 76  1  0  0  0  0
 26 86  1  0  0  0  0
 27 87  1  0  0  0  0
 28 31  2  0  0  0  0
 28 86  1  0  0  0  0
 29 88  1  0  0  0  0
 30 89  1  0  0  0  0
 31 90  1  0  0  0  0
 32 70  2  0  0  0  0
 33 71  1  0  0  0  0
 33 74  1  0  0  0  0
 34 75  1  0  0  0  0
 34 81  2  0  0  0  0
 35 49  1  0  0  0  0
 35 77  1  0  0  0  0
 35 82  2  0  0  0  0
 36 67  1  0  0  0  0
 36 72  1  0  0  0  0
 36 83  2  0  0  0  0
 37 68  1  0  0  0  0
 37 78  1  0  0  0  0
 37 84  2  0  0  0  0
 38 73  1  0  0  0  0
 38 79  1  0  0  0  0
 38 85  2  0  0  0  0
 39 42  1  0  0  0  0
 40 49  1  0  0  0  0
 41 72  1  0  0  0  0
 42 44  1  0  0  0  0
 43 45  1  0  0  0  0
 43 46  1  0  0  0  0
 44 48  1  0  0  0  0
 45 50  1  0  0  0  0
 46 73  1  0  0  0  0
 47 50  1  0  0  0  0
 47 73  1  0  0  0  0
 48 77  1  0  0  0  0
 49 72  1  0  0  0  0
 50 71  1  0  0  0  0
 53 68  1  0  0  0  0
 54 69  1  0  0  0  0
 55 69  1  0  0  0  0
 56 69  1  0  0  0  0
 57 79  1  0  0  0  0
 58 80  1  0  0  0  0
 59 60  1  0  0  0  0
 60 61  1  0  0  0  0
 61 62  1  0  0  0  0
 62 66  1  0  0  0  0
 63 64  1  0  0  0  0
 63 65  1  0  0  0  0
 64 76  1  0  0  0  0
 65 79  1  0  0  0  0
 66 87  1  0  0  0  0
 67 69  1  0  0  0  0
 67 78  1  0  0  0  0
 68 80  1  0  0  0  0
 70 71  1  0  0  0  0
M  CHG  1  80   1
M  ISO  4  38 100  66 101  79 100  87 101
M  END
> <Batch ID>
0024

> <Smiles>
CNC(C)C(=O)NC(C(=O)N1Cc2cc([101O:1][101CH2:1]CCCCc3cc(F)c(NCCC[100N:0](C)[100C:0](=O)N4CCCC(n5nc(-c6ccc(Oc7ccc(F)cc7F)cc6)c(C(N)=O)c5N)C4)c(C)c3C)ccc2CC1C(=O)NC1CCCc2ccccc21)C(C)(C)C

> <Shape>
0.230

> <Color>
0.176

> <Negative vol penalty>
0.000

$$$$

  -OEChem-04052316223D

 83 91  0     1  0  0  0  0  0999 V2000
  -36.3819  -27.6634   19.4445 C   0  0  0  0  0  0  0  0  0  0  0  0
  -36.0538  -26.5945   20.2723 C   0  0  0  0  0  0  0  0  0  0  0  0
  -23.1013   -9.8731   20.1001 C   0  0  0  0  0  0  0  0  0  0  0  0
  -23.8138  -10.0453   22.4022 C   0  0  0  0  0  0  0  0  0  0  0  0
  -35.3800  -28.5078   18.9681 C   0  0  0  0  0  0  0  0  0  0  0  0
  -34.7235  -26.3701   20.6251 C   0  0  0  0  0  0  0  0  0  0  0  0
  -33.4176  -21.4898   20.2754 C   0  0  0  0  0  0  0  0  0  0  0  0
  -22.3723   -8.7255   20.4115 C   0  0  0  0  0  0  0  0  0  0  0  0
  -23.0847   -8.8977   22.7137 C   0  0  0  0  0  0  0  0  0  0  0  0
  -33.8260  -20.6459   21.3073 C   0  0  0  0  0  0  0  0  0  0  0  0
  -23.4437   -5.5521   22.3836 C   0  0  0  0  0  0  0  0  0  0  0  0
  -24.0618   -4.5879   23.1797 C   0  0  0  0  0  0  0  0  0  0  0  0
  -31.6240  -20.7829   22.2829 C   0  0  0  0  0  0  0  0  0  0  0  0
  -22.3230   -4.8423   24.8377 C   0  0  0  0  0  0  0  0  0  0  0  0
  -31.8078  -16.7181   24.6501 C   0  0  0  0  0  0  0  0  0  0  0  0
  -32.5179  -15.7867   22.7415 C   0  0  0  0  0  0  0  0  0  0  0  0
  -23.8221  -10.5330   21.0954 C   0  0  0  0  0  0  0  0  0  0  0  0
  -24.1232  -13.0506   20.8149 C   0  0  0  0  0  0  0  0  0  0  0  0
  -34.0357  -28.2880   19.3074 C   0  0  0  0  0  0  0  0  0  0  0  0
  -32.1103  -21.9962   20.2454 C   0  0  0  0  0  0  0  0  0  0  0  0
  -33.7028  -27.2132   20.1538 C   0  0  0  0  0  0  0  0  0  0  0  0
  -31.2007  -21.6310   21.2481 C   0  0  0  0  0  0  0  0  0  0  0  0
  -30.7774  -15.9459   24.1610 C   0  0  0  0  0  0  0  0  0  0  0  0
  -31.2266  -15.3567   22.9535 C   0  0  0  0  0  0  0  0  0  0  0  0
  -22.3639   -8.2378   21.7183 C   0  0  0  0  0  0  0  0  0  0  0  0
  -32.9301  -20.2946   22.3128 C   0  0  0  0  0  0  0  0  0  0  0  0
  -22.2653   -6.1615   22.8145 C   0  0  0  0  0  0  0  0  0  0  0  0
  -23.5014   -4.2329   24.4068 C   0  0  0  0  0  0  0  0  0  0  0  0
  -21.7049   -5.8066   24.0416 C   0  0  0  0  0  0  0  0  0  0  0  0
  -24.5759  -11.7183   20.7742 C   0  0  0  0  0  0  0  0  0  0  0  0
  -25.2096  -13.7945   20.4239 C   0  0  0  0  0  0  0  0  0  0  0  0
  -22.8357  -13.5695   21.1740 C   0  0  0  0  0  0  0  0  0  0  0  0
  -30.8272  -24.9021   20.3600 C   0  0  0  0  0  0  0  0  0  0  0  0
  -28.0735  -23.2839   19.7931 C   0  0  0  0  0  0  0  0  0  0  0  0
  -26.3501  -20.3442   19.9781 C   0  0  0  0  0  0  0  0  0  0  0  0
  -30.9639  -13.9089   20.9087 C   0  0  0  0  0  0  0  0  0  0  0  0
  -32.9929  -29.2556   18.8064 C   0  0  0  0  0  0  0  0  0  0  0  0
  -31.6774  -22.8840   19.1110 C   0  0  0  0  0  0  0  0  0  0  0  0
  -29.7801  -22.1314   21.2507 C   0  0  0  0  0  0  0  0  0  0  0  0
  -31.5655  -28.7273   18.9231 C   0  0  0  0  0  0  0  0  0  0  0  0
  -29.3647  -12.8403   17.9123 C   0  0  0  0  0  0  0  0  0  0  0  0
  -31.3340  -28.1148   20.3009 C   0  0  0  0  0  0  0  0  0  0  0  0
  -27.9222  -12.5719   18.3471 C   0  0  0  0  0  0  0  0  0  0  0  0
  -30.3667  -12.4414   18.9943 C   0  0  0  0  0  0  0  0  0  0  0  0
  -28.6711  -12.7535   20.7540 C   0  0  0  0  0  0  0  0  0  0  0  0
  -32.2684  -26.9224   20.5387 C   0  0  1  0  0  0  0  0  0  0  0  0
  -30.4730  -23.7534   19.4586 C   0  0  1  0  0  0  0  0  0  0  0  0
  -27.6221  -13.1996   19.7225 C   0  0  2  0  0  0  0  0  0  0  0  0
  -24.1065  -19.3408   19.4712 C   0  0  0  0  0  0  0  0  0  0  0  0
  -28.9608  -18.2044   25.3096 C   0  0  0  0  0  0  0  0  0  0  0  0
  -28.2171  -17.2778   23.1161 C   0  0  0  0  0  0  0  0  0  0  0  0
  -27.0595  -16.5910   25.2315 C   0  0  0  0  0  0  0  0  0  0  0  0
  -26.9048  -24.6612   22.2522 C   0  0  0  0  0  0  0  0  0  0  0  0
  -25.0725  -22.9550   22.2508 C   0  0  0  0  0  0  0  0  0  0  0  0
  -25.3412  -24.4956   20.3074 C   0  0  0  0  0  0  0  0  0  0  0  0
  -27.5195  -18.4002   18.0775 C   0  0  0  0  0  0  0  0  0  0  0  0
  -29.4522  -15.7743   24.7897 C   0  0  0  0  0  0  0  0  0  0  0  0
  -34.1936  -17.3039   23.9386 C   0  0  0  0  0  0  0  0  0  0  0  0
  -34.3357  -18.5101   23.0167 C   0  0  0  0  0  0  0  0  0  1  0  0
  -27.0177  -22.6354   20.6554 C   0  0  1  0  0  0  0  0  0  0  0  0
  -25.5122  -19.6015   18.9529 C   0  0  2  0  0  0  0  0  0  0  0  0
  -28.4195  -16.9429   24.6040 C   0  0  0  0  0  0  0  0  0  0  0  0
  -26.1113  -23.6787   21.3678 C   0  0  0  0  0  0  0  0  0  0  0  0
  -25.8505  -11.6184   20.3878 N   0  0  0  0  0  0  0  0  0  0  0  0
  -32.8608  -16.6136   23.7792 N   0  0  0  0  0  0  0  0  0  0  0  0
  -26.2080  -12.8974   20.1819 N   0  0  0  0  0  0  0  0  0  0  0  0
  -29.4066  -23.0018   20.1236 N   0  0  0  0  0  0  0  0  0  0  0  0
  -30.0216  -13.0769   20.2678 N   0  0  0  0  0  0  0  0  0  0  0  0
  -25.3987  -15.1219   20.2668 N   0  0  0  0  0  0  0  0  0  0  0  0
  -21.8328  -12.6661   21.5512 N   0  0  0  0  0  0  0  0  0  0  0  0
  -30.5120  -14.4838   22.0961 N   0  0  0  0  0  0  0  0  0  0  0  0
  -31.7832  -25.7526   19.8384 N   0  0  0  0  0  0  0  0  0  0  0  0
  -26.2960  -21.7090   19.7898 N   0  0  0  0  0  0  0  0  0  0  0  0
  -26.1411  -18.2918   18.6208 N   0  3  0  0  0  0  0  0  0  0  0  0
  -22.5774  -14.7967   21.1450 O   0  0  0  0  0  0  0  0  0  0  0  0
  -30.2730  -25.0098   21.4477 O   0  0  0  0  0  0  0  0  0  0  0  0
  -27.7282  -24.0082   18.8562 O   0  0  0  0  0  0  0  0  0  0  0  0
  -26.9857  -19.7711   20.8602 O   0  0  0  0  0  0  0  0  0  0  0  0
  -32.0790  -14.1192   20.4248 O   0  0  0  0  0  0  0  0  0  0  0  0
  -21.6525   -7.1181   22.0226 O   0  0  0  0  0  0  0  0  0  0  0  0
  -33.3263  -19.4716   23.3215 O   0  0  0  0  0  0  0  0  0  1  0  0
  -24.0942   -3.3059   25.1705 F   0  0  0  0  0  0  0  0  0  0  0  0
  -20.5724   -6.3877   24.4604 F   0  0  0  0  0  0  0  0  0  0  0  0
  1  2  1  0  0  0  0
  1  5  2  0  0  0  0
  2  6  2  0  0  0  0
  3  8  2  0  0  0  0
  3 17  1  0  0  0  0
  4  9  1  0  0  0  0
  4 17  2  0  0  0  0
  5 19  1  0  0  0  0
  6 21  1  0  0  0  0
  7 10  2  0  0  0  0
  7 20  1  0  0  0  0
  8 25  1  0  0  0  0
  9 25  2  0  0  0  0
 10 26  1  0  0  0  0
 11 12  2  0  0  0  0
 11 27  1  0  0  0  0
 12 28  1  0  0  0  0
 13 22  1  0  0  0  0
 13 26  2  0  0  0  0
 14 28  2  0  0  0  0
 14 29  1  0  0  0  0
 15 23  2  0  0  0  0
 15 65  1  0  0  0  0
 16 24  2  0  0  0  0
 16 65  1  0  0  0  0
 17 30  1  0  0  0  0
 18 30  1  0  0  0  0
 18 31  2  0  0  0  0
 18 32  1  0  0  0  0
 19 21  2  0  0  0  0
 19 37  1  0  0  0  0
 20 22  2  0  0  0  0
 20 38  1  0  0  0  0
 21 46  1  0  0  0  0
 22 39  1  0  0  0  0
 23 24  1  0  0  0  0
 23 57  1  0  0  0  0
 24 71  1  0  0  0  0
 25 80  1  0  0  0  0
 26 81  1  0  0  0  0
 27 29  2  0  0  0  0
 27 80  1  0  0  0  0
 28 82  1  0  0  0  0
 29 83  1  0  0  0  0
 30 64  2  0  0  0  0
 31 66  1  0  0  0  0
 31 69  1  0  0  0  0
 32 70  1  0  0  0  0
 32 75  2  0  0  0  0
 33 47  1  0  0  0  0
 33 72  1  0  0  0  0
 33 76  2  0  0  0  0
 34 60  1  0  0  0  0
 34 67  1  0  0  0  0
 34 77  2  0  0  0  0
 35 61  1  0  0  0  0
 35 73  1  0  0  0  0
 35 78  2  0  0  0  0
 36 68  1  0  0  0  0
 36 71  1  0  0  0  0
 36 79  2  0  0  0  0
 37 40  1  0  0  0  0
 38 47  1  0  0  0  0
 39 67  1  0  0  0  0
 40 42  1  0  0  0  0
 41 43  1  0  0  0  0
 41 44  1  0  0  0  0
 42 46  1  0  0  0  0
 43 48  1  0  0  0  0
 44 68  1  0  0  0  0
 45 48  1  0  0  0  0
 45 68  1  0  0  0  0
 46 72  1  0  0  0  0
 47 67  1  0  0  0  0
 48 66  1  0  0  0  0
 49 61  1  0  0  0  0
 50 62  1  0  0  0  0
 51 62  1  0  0  0  0
 52 62  1  0  0  0  0
 53 63  1  0  0  0  0
 54 63  1  0  0  0  0
 55 63  1  0  0  0  0
 56 74  1  0  0  0  0
 57 62  1  0  0  0  0
 58 59  1  0  0  0  0
 58 65  1  0  0  0  0
 59 81  1  0  0  0  0
 60 63  1  0  0  0  0
 60 73  1  0  0  0  0
 61 74  1  0  0  0  0
 64 66  1  0  0  0  0
M  CHG  1  74   1
M  ISO  4  36 100  59 101  71 100  81 101
M  END
> <Batch ID>
0024

> <Smiles>
CNC(C)C(=O)NC(C(=O)N1Cc2cc([101O:1][101CH2:1]Cn3cc(CC(C)(C)C)c([100NH:0][100C:0](=O)N4CCCC(n5nc(-c6ccc(Oc7ccc(F)cc7F)cc6)c(C(N)=O)c5N)C4)c3)ccc2CC1C(=O)NC1CCCc2ccccc21)C(C)(C)C

> <Shape>
0.225

> <Color>
0.190

> <Negative vol penalty>
0.000

$$$$

  -OEChem-04052316223D

 89 97  0     1  0  0  0  0  0999 V2000
  -26.5257   -9.2328   19.4883 C   0  0  0  0  0  0  0  0  0  0  0  0
  -26.5594   -9.8254   20.7465 C   0  0  0  0  0  0  0  0  0  0  0  0
  -26.3163  -27.9177   18.9064 C   0  0  0  0  0  0  0  0  0  0  0  0
  -26.3235  -27.1979   21.2126 C   0  0  0  0  0  0  0  0  0  0  0  0
  -27.4389   -9.6241   18.5100 C   0  0  0  0  0  0  0  0  0  0  0  0
  -27.5071  -10.8090   21.0275 C   0  0  0  0  0  0  0  0  0  0  0  0
  -25.5227  -14.7779   23.4678 C   0  0  0  0  0  0  0  0  0  0  0  0
  -25.8649  -29.1771   19.3008 C   0  0  0  0  0  0  0  0  0  0  0  0
  -25.8721  -28.4573   21.6071 C   0  0  0  0  0  0  0  0  0  0  0  0
  -25.2815  -14.6304   24.8330 C   0  0  0  0  0  0  0  0  0  0  0  0
  -27.1865  -31.5321   22.0958 C   0  0  0  0  0  0  0  0  0  0  0  0
  -27.8074  -32.1266   23.1943 C   0  0  0  0  0  0  0  0  0  0  0  0
  -27.3217  -15.8234   25.3162 C   0  0  0  0  0  0  0  0  0  0  0  0
  -25.6902  -32.1907   24.3564 C   0  0  0  0  0  0  0  0  0  0  0  0
  -26.5456  -26.9280   19.8623 C   0  0  0  0  0  0  0  0  0  0  0  0
  -28.3480  -25.2061   19.3202 C   0  0  0  0  0  0  0  0  0  0  0  0
  -28.3920  -10.6198   18.7762 C   0  0  0  0  0  0  0  0  0  0  0  0
  -26.6727  -15.4409   23.0157 C   0  0  0  0  0  0  0  0  0  0  0  0
  -28.4347  -11.2130   20.0524 C   0  0  0  0  0  0  0  0  0  0  0  0
  -27.5739  -15.9803   23.9447 C   0  0  0  0  0  0  0  0  0  0  0  0
  -25.6428  -29.4470   20.6512 C   0  0  0  0  0  0  0  0  0  0  0  0
  -26.1826  -15.1506   25.7574 C   0  0  0  0  0  0  0  0  0  0  0  0
  -25.8174  -31.2669   22.1276 C   0  0  0  0  0  0  0  0  0  0  0  0
  -27.0593  -32.4559   24.3246 C   0  0  0  0  0  0  0  0  0  0  0  0
  -25.0693  -31.5962   23.2578 C   0  0  0  0  0  0  0  0  0  0  0  0
  -27.0113  -25.6266   19.4554 C   0  0  0  0  0  0  0  0  0  0  0  0
  -28.2567  -23.8975   18.9129 C   0  0  0  0  0  0  0  0  0  0  0  0
  -22.4006  -19.9531   27.5099 C   0  0  0  0  0  0  0  0  0  0  0  0
  -29.5634  -25.9332   19.5429 C   0  0  0  0  0  0  0  0  0  0  0  0
  -29.2032  -14.6124   21.2797 C   0  0  0  0  0  0  0  0  0  0  0  0
  -29.8963  -17.7742   21.4918 C   0  0  0  0  0  0  0  0  0  0  0  0
  -23.0495  -19.3867   22.9192 C   0  0  0  0  0  0  0  0  0  0  0  0
  -29.5273  -20.7138   23.1858 C   0  0  0  0  0  0  0  0  0  0  0  0
  -24.0236  -19.7123   19.5579 C   0  0  0  0  0  0  0  0  0  0  0  0
  -29.3890  -10.9760   17.7020 C   0  0  0  0  0  0  0  0  0  0  0  0
  -26.9048  -15.6151   21.5398 C   0  0  0  0  0  0  0  0  0  0  0  0
  -28.8131  -16.7184   23.5111 C   0  0  0  0  0  0  0  0  0  0  0  0
  -22.9956  -20.2447   26.1536 C   0  0  0  0  0  0  0  0  0  0  0  0
  -30.1196  -12.2911   17.9610 C   0  0  0  0  0  0  0  0  0  0  0  0
  -25.3942  -20.9176   16.5009 C   0  0  0  0  0  0  0  0  0  0  0  0
  -30.6076  -12.3553   19.4048 C   0  0  0  0  0  0  0  0  0  0  0  0
  -26.0847  -22.2232   16.8993 C   0  0  0  0  0  0  0  0  0  0  0  0
  -22.3584  -17.9232   26.2926 C   0  0  0  0  0  0  0  0  0  0  0  0
  -24.1035  -20.6991   17.2872 C   0  0  0  0  0  0  0  0  0  0  0  0
  -24.9420  -22.0761   19.1512 C   0  0  0  0  0  0  0  0  0  0  0  0
  -29.4318  -12.3010   20.3876 C   0  0  1  0  0  0  0  0  0  0  0  0
  -28.3695  -15.8592   21.1900 C   0  0  1  0  0  0  0  0  0  0  0  0
  -26.2773  -22.3128   18.4251 C   0  0  2  0  0  0  0  0  0  0  0  0
  -22.4423  -19.0955   25.3170 C   0  0  2  0  0  0  0  0  0  0  0  0
  -21.8301  -18.5435   27.6007 C   0  0  2  0  0  0  0  0  0  0  0  0
  -19.8097  -19.3995   28.7983 C   0  0  0  0  0  0  0  0  0  0  0  0
  -30.2443  -23.1182   23.1382 C   0  0  0  0  0  0  0  0  0  0  0  0
  -32.6444  -16.9730   22.5483 C   0  0  0  0  0  0  0  0  0  0  0  0
  -32.9403  -19.3229   23.3601 C   0  0  0  0  0  0  0  0  0  0  0  0
  -32.6652  -18.8727   20.9219 C   0  0  0  0  0  0  0  0  0  0  0  0
  -26.7370  -21.6611   22.9103 C   0  0  0  0  0  0  0  0  0  0  0  0
  -20.7019  -15.9535   28.8401 C   0  0  0  0  0  0  0  0  0  0  0  0
  -24.0219  -18.8563   21.8874 C   0  0  0  0  0  0  0  0  0  0  0  0
  -20.3027  -18.6145   27.6281 C   0  0  0  0  0  0  0  0  0  0  0  0
  -22.3653  -17.8065   28.8247 C   0  0  0  0  0  0  0  0  0  0  0  0
  -24.4785  -15.5367   28.9094 C   0  0  0  0  0  0  0  0  0  0  0  0
  -23.0678  -15.5086   29.4779 C   0  0  0  0  0  0  0  0  0  0  0  0
  -24.5871  -14.9457   27.5091 C   0  0  0  0  0  0  0  0  0  1  0  0
  -30.6716  -18.6362   22.4587 C   0  0  1  0  0  0  0  0  0  0  0  0
  -29.1851  -22.1143   22.7103 C   0  0  2  0  0  0  0  0  0  0  0  0
  -32.2081  -18.4357   22.3307 C   0  0  0  0  0  0  0  0  0  0  0  0
  -26.1351  -24.6634   19.1579 N   0  0  0  0  0  0  0  0  0  0  0  0
  -26.9228  -23.6246   18.8317 N   0  0  0  0  0  0  0  0  0  0  0  0
  -28.9990  -16.8571   22.0572 N   0  0  0  0  0  0  0  0  0  0  0  0
  -24.3552  -20.7952   18.7271 N   0  0  0  0  0  0  0  0  0  0  0  0
  -29.1880  -22.9653   18.6198 N   0  0  0  0  0  0  0  0  0  0  0  0
  -29.4764  -27.2686   19.9592 N   0  0  0  0  0  0  0  0  0  0  0  0
  -28.7728  -13.5875   20.4589 N   0  0  0  0  0  0  0  0  0  0  0  0
  -23.2518  -18.8045   24.1684 N   0  0  0  0  0  0  0  0  0  0  0  0
  -30.2268  -20.0068   22.2307 N   0  0  0  0  0  0  0  0  0  0  0  0
  -24.3008  -19.8835   20.9087 N   0  0  0  0  0  0  0  0  0  0  0  0
  -27.8741  -22.5461   23.2720 N   0  3  0  0  0  0  0  0  0  0  0  0
  -22.1527  -16.3227   28.6439 N   0  3  1  0  0  0  0  0  0  0  0  0
  -22.3951  -20.7618   28.4304 O   0  0  0  0  0  0  0  0  0  0  0  0
  -30.6932  -25.4190   19.3618 O   0  0  0  0  0  0  0  0  0  0  0  0
  -30.1666  -14.5830   22.0364 O   0  0  0  0  0  0  0  0  0  0  0  0
  -30.0749  -17.9145   20.2794 O   0  0  0  0  0  0  0  0  0  0  0  0
  -22.1697  -20.2035   22.6590 O   0  0  0  0  0  0  0  0  0  0  0  0
  -29.2093  -20.2907   24.2950 O   0  0  0  0  0  0  0  0  0  0  0  0
  -23.5228  -18.6680   19.1270 O   0  0  0  0  0  0  0  0  0  0  0  0
  -25.2026  -30.6759   21.0365 O   0  0  0  0  0  0  0  0  0  0  0  0
  -25.9499  -15.0074   27.0906 O   0  0  0  0  0  0  0  0  0  1  0  0
  -27.6559  -33.0254   25.3800 F   0  0  0  0  0  0  0  0  0  0  0  0
  -23.7539  -31.3428   23.2946 F   0  0  0  0  0  0  0  0  0  0  0  0
  1  2  1  0  0  0  0
  1  5  2  0  0  0  0
  2  6  2  0  0  0  0
  3  8  2  0  0  0  0
  3 15  1  0  0  0  0
  4  9  1  0  0  0  0
  4 15  2  0  0  0  0
  5 17  1  0  0  0  0
  6 19  1  0  0  0  0
  7 10  2  0  0  0  0
  7 18  1  0  0  0  0
  8 21  1  0  0  0  0
  9 21  2  0  0  0  0
 10 22  1  0  0  0  0
 11 12  2  0  0  0  0
 11 23  1  0  0  0  0
 12 24  1  0  0  0  0
 13 20  1  0  0  0  0
 13 22  2  0  0  0  0
 14 24  2  0  0  0  0
 14 25  1  0  0  0  0
 15 26  1  0  0  0  0
 16 26  1  0  0  0  0
 16 27  2  0  0  0  0
 16 29  1  0  0  0  0
 17 19  2  0  0  0  0
 17 35  1  0  0  0  0
 18 20  2  0  0  0  0
 18 36  1  0  0  0  0
 19 46  1  0  0  0  0
 20 37  1  0  0  0  0
 21 86  1  0  0  0  0
 22 87  1  0  0  0  0
 23 25  2  0  0  0  0
 23 86  1  0  0  0  0
 24 88  1  0  0  0  0
 25 89  1  0  0  0  0
 26 67  2  0  0  0  0
 27 68  1  0  0  0  0
 27 71  1  0  0  0  0
 28 38  1  0  0  0  0
 28 50  1  0  0  0  0
 28 79  2  0  0  0  0
 29 72  1  0  0  0  0
 29 80  2  0  0  0  0
 30 47  1  0  0  0  0
 30 73  1  0  0  0  0
 30 81  2  0  0  0  0
 31 64  1  0  0  0  0
 31 69  1  0  0  0  0
 31 82  2  0  0  0  0
 32 58  1  0  0  0  0
 32 74  1  0  0  0  0
 32 83  2  0  0  0  0
 33 65  1  0  0  0  0
 33 75  1  0  0  0  0
 33 84  2  0  0  0  0
 34 70  1  0  0  0  0
 34 76  1  0  0  0  0
 34 85  2  0  0  0  0
 35 39  1  0  0  0  0
 36 47  1  0  0  0  0
 37 69  1  0  0  0  0
 38 49  1  0  0  0  0
 39 41  1  0  0  0  0
 40 42  1  0  0  0  0
 40 44  1  0  0  0  0
 41 46  1  0  0  0  0
 42 48  1  0  0  0  0
 43 49  1  0  0  0  0
 43 50  1  0  0  0  0
 44 70  1  0  0  0  0
 45 48  1  0  0  0  0
 45 70  1  0  0  0  0
 46 73  1  0  0  0  0
 47 69  1  0  0  0  0
 48 68  1  0  0  0  0
 49 74  1  0  0  0  0
 50 59  1  0  0  0  0
 50 60  1  0  0  0  0
 51 59  1  0  0  0  0
 52 65  1  0  0  0  0
 53 66  1  0  0  0  0
 54 66  1  0  0  0  0
 55 66  1  0  0  0  0
 56 77  1  0  0  0  0
 57 78  1  0  0  0  0
 58 76  1  0  0  0  0
 60 78  1  0  0  0  0
 61 62  1  0  0  0  0
 61 63  1  0  0  0  0
 62 78  1  0  0  0  0
 63 87  1  0  0  0  0
 64 66  1  0  0  0  0
 64 75  1  0  0  0  0
 65 77  1  0  0  0  0
 67 68  1  0  0  0  0
M  CHG  2  77   1  78   1
M  ISO  4  34 100  63 101  76 100  87 101
M  END
> <Batch ID>
0024

> <Smiles>
CCC1(CN(C)CC[101CH2:1][101O:1]c2ccc3c(c2)CN(C(=O)C(NC(=O)C(C)NC)C(C)(C)C)C(C(=O)NC2CCCc4ccccc42)C3)CC(NC(=O)C[100NH:0][100C:0](=O)N2CCCC(n3nc(-c4ccc(Oc5ccc(F)cc5F)cc4)c(C(N)=O)c3N)C2)CC1=O

> <Shape>
0.185

> <Color>
0.068

> <Negative vol penalty>
0.000

$$$$

  -OEChem-04052316223D

 85 93  0     1  0  0  0  0  0999 V2000
  -27.4386  -37.6670   23.7654 C   0  0  0  0  0  0  0  0  0  0  0  0
  -27.9933  -36.7576   22.8706 C   0  0  0  0  0  0  0  0  0  0  0  0
  -24.2439  -13.7609   20.6414 C   0  0  0  0  0  0  0  0  0  0  0  0
  -26.6285  -13.5082   20.9360 C   0  0  0  0  0  0  0  0  0  0  0  0
  -26.6434  -37.2123   24.8165 C   0  0  0  0  0  0  0  0  0  0  0  0
  -27.7540  -35.3928   23.0270 C   0  0  0  0  0  0  0  0  0  0  0  0
  -26.9193  -29.3962   19.1981 C   0  0  0  0  0  0  0  0  0  0  0  0
  -24.1366  -12.4024   20.3442 C   0  0  0  0  0  0  0  0  0  0  0  0
  -26.5212  -12.1496   20.6388 C   0  0  0  0  0  0  0  0  0  0  0  0
  -27.4132  -28.0952   19.1129 C   0  0  0  0  0  0  0  0  0  0  0  0
  -23.1834   -8.9277   19.8611 C   0  0  0  0  0  0  0  0  0  0  0  0
  -22.1475   -8.2123   20.4617 C   0  0  0  0  0  0  0  0  0  0  0  0
  -25.9589  -27.4312   20.9193 C   0  0  0  0  0  0  0  0  0  0  0  0
  -21.8249  -19.4824   20.6020 C   0  0  0  0  0  0  0  0  0  0  0  0
  -23.0318   -8.7622   22.6418 C   0  0  0  0  0  0  0  0  0  0  0  0
  -25.4899  -14.3139   20.9373 C   0  0  0  0  0  0  0  0  0  0  0  0
  -25.5088  -16.3203   22.5126 C   0  0  0  0  0  0  0  0  0  0  0  0
  -26.3863  -35.8420   24.9803 C   0  0  0  0  0  0  0  0  0  0  0  0
  -25.9477  -29.7275   20.1535 C   0  0  0  0  0  0  0  0  0  0  0  0
  -26.9557  -34.9193   24.0821 C   0  0  0  0  0  0  0  0  0  0  0  0
  -25.4525  -28.7365   21.0129 C   0  0  0  0  0  0  0  0  0  0  0  0
  -22.3294  -20.3518   21.5690 C   0  0  0  0  0  0  0  0  0  0  0  0
  -22.1898  -19.6389   19.2649 C   0  0  0  0  0  0  0  0  0  0  0  0
  -23.1989  -21.3778   21.1989 C   0  0  0  0  0  0  0  0  0  0  0  0
  -23.5638  -21.5344   19.8617 C   0  0  0  0  0  0  0  0  0  0  0  0
  -23.0592  -20.6649   18.8947 C   0  0  0  0  0  0  0  0  0  0  0  0
  -25.2752  -11.5967   20.3429 C   0  0  0  0  0  0  0  0  0  0  0  0
  -26.9351  -27.1132   19.9755 C   0  0  0  0  0  0  0  0  0  0  0  0
  -24.1435   -9.5604   20.6509 C   0  0  0  0  0  0  0  0  0  0  0  0
  -22.0717   -8.1296   21.8521 C   0  0  0  0  0  0  0  0  0  0  0  0
  -24.0677   -9.4776   22.0412 C   0  0  0  0  0  0  0  0  0  0  0  0
  -25.6014  -15.7173   21.2439 C   0  0  0  0  0  0  0  0  0  0  0  0
  -25.6818  -17.6609   22.2691 C   0  0  0  0  0  0  0  0  0  0  0  0
  -25.2863  -15.7220   23.7965 C   0  0  0  0  0  0  0  0  0  0  0  0
  -25.8241  -31.7151   22.6310 C   0  0  0  0  0  0  0  0  0  0  0  0
  -22.7151  -30.7937   22.7170 C   0  0  0  0  0  0  0  0  0  0  0  0
  -20.3681  -28.4409   21.9404 C   0  0  0  0  0  0  0  0  0  0  0  0
  -24.7701  -20.7486   17.0625 C   0  0  0  0  0  0  0  0  0  0  0  0
  -25.5594  -35.3944   26.1595 C   0  0  0  0  0  0  0  0  0  0  0  0
  -25.4058  -31.1293   20.2148 C   0  0  0  0  0  0  0  0  0  0  0  0
  -24.3949  -29.0361   22.0426 C   0  0  0  0  0  0  0  0  0  0  0  0
  -25.0474  -33.9616   26.0356 C   0  0  0  0  0  0  0  0  0  0  0  0
  -27.7707  -20.6994   19.2274 C   0  0  0  0  0  0  0  0  0  0  0  0
  -26.1692  -33.0309   25.5859 C   0  0  0  0  0  0  0  0  0  0  0  0
  -27.5833  -19.4183   20.0380 C   0  0  0  0  0  0  0  0  0  0  0  0
  -27.1088  -20.6039   17.8561 C   0  0  0  0  0  0  0  0  0  0  0  0
  -25.4705  -18.9628   18.7303 C   0  0  0  0  0  0  0  0  0  0  0  0
  -26.6989  -33.4329   24.2041 C   0  0  1  0  0  0  0  0  0  0  0  0
  -24.7904  -31.4734   21.5677 C   0  0  1  0  0  0  0  0  0  0  0  0
  -26.0937  -19.0487   20.1316 C   0  0  1  0  0  0  0  0  0  0  0  0
  -21.9241  -20.1613   22.9940 C   0  0  0  0  0  0  0  0  0  0  0  0
  -21.6336  -18.6908   18.2522 C   0  0  0  0  0  0  0  0  0  0  0  0
  -23.7381  -22.3086   22.2386 C   0  0  0  0  0  0  0  0  0  0  0  0
  -17.9180  -27.9510   22.1728 C   0  0  0  0  0  0  0  0  0  0  0  0
  -23.1401  -30.0726   25.6512 C   0  0  0  0  0  0  0  0  0  0  0  0
  -21.0204  -28.7435   25.5593 C   0  0  0  0  0  0  0  0  0  0  0  0
  -20.9652  -31.2052   25.1596 C   0  0  0  0  0  0  0  0  0  0  0  0
  -22.4342  -21.3348   16.5814 C   0  0  0  0  0  0  0  0  0  0  0  0
  -19.9862  -28.3675   19.0065 C   0  0  0  0  0  0  0  0  0  0  0  0
  -24.5038  -22.6454   19.4669 C   0  0  0  0  0  0  0  0  0  0  0  0
  -25.9707  -22.3682   19.8145 C   0  0  0  0  0  0  0  0  0  0  0  0
  -26.8972  -23.5371   19.4770 C   0  0  0  0  0  0  0  0  0  0  0  0
  -26.5286  -24.7877   20.2636 C   0  0  0  0  0  0  0  0  0  1  0  0
  -21.9472  -29.6846   23.3945 C   0  0  1  0  0  0  0  0  0  0  0  0
  -18.9999  -28.5583   21.2934 C   0  0  2  0  0  0  0  0  0  0  0  0
  -21.7895  -29.9209   24.9232 C   0  0  0  0  0  0  0  0  0  0  0  0
  -25.8165  -16.6023   20.2669 N   0  0  0  0  0  0  0  0  0  0  0  0
  -25.8603  -17.7750   20.9218 N   0  0  0  0  0  0  0  0  0  0  0  0
  -23.9012  -30.4229   22.0677 N   0  0  0  0  0  0  0  0  0  0  0  0
  -25.7075  -20.1928   17.9572 N   0  0  0  0  0  0  0  0  0  0  0  0
  -25.6972  -18.7415   23.0782 N   0  0  0  0  0  0  0  0  0  0  0  0
  -25.1294  -14.3311   23.8673 N   0  0  0  0  0  0  0  0  0  0  0  0
  -25.7930  -32.9885   23.1667 N   0  0  0  0  0  0  0  0  0  0  0  0
  -20.6837  -29.5643   22.6751 N   0  0  0  0  0  0  0  0  0  0  0  0
  -23.4378  -20.8226   17.5117 N   0  0  0  0  0  0  0  0  0  0  0  0
  -18.9865  -27.8558   19.9791 N   0  3  0  0  0  0  0  0  0  0  0  0
  -25.2121  -16.4026   24.8476 O   0  0  0  0  0  0  0  0  0  0  0  0
  -26.5921  -30.8127   22.9433 O   0  0  0  0  0  0  0  0  0  0  0  0
  -22.2751  -31.9454   22.7561 O   0  0  0  0  0  0  0  0  0  0  0  0
  -21.0837  -27.4502   21.8104 O   0  0  0  0  0  0  0  0  0  0  0  0
  -25.0864  -21.1036   15.9203 O   0  0  0  0  0  0  0  0  0  0  0  0
  -25.1709  -10.2709   20.0531 O   0  0  0  0  0  0  0  0  0  0  0  0
  -27.4160  -25.8427   19.8948 O   0  0  0  0  0  0  0  0  0  1  0  0
  -21.0760   -7.4438   22.4287 F   0  0  0  0  0  0  0  0  0  0  0  0
  -24.9865  -10.0843   22.8052 F   0  0  0  0  0  0  0  0  0  0  0  0
  1  2  1  0  0  0  0
  1  5  2  0  0  0  0
  2  6  2  0  0  0  0
  3  8  2  0  0  0  0
  3 16  1  0  0  0  0
  4  9  1  0  0  0  0
  4 16  2  0  0  0  0
  5 18  1  0  0  0  0
  6 20  1  0  0  0  0
  7 10  2  0  0  0  0
  7 19  1  0  0  0  0
  8 27  1  0  0  0  0
  9 27  2  0  0  0  0
 10 28  1  0  0  0  0
 11 12  2  0  0  0  0
 11 29  1  0  0  0  0
 12 30  1  0  0  0  0
 13 21  1  0  0  0  0
 13 28  2  0  0  0  0
 14 22  1  0  0  0  0
 14 23  2  0  0  0  0
 15 30  2  0  0  0  0
 15 31  1  0  0  0  0
 16 32  1  0  0  0  0
 17 32  1  0  0  0  0
 17 33  2  0  0  0  0
 17 34  1  0  0  0  0
 18 20  2  0  0  0  0
 18 39  1  0  0  0  0
 19 21  2  0  0  0  0
 19 40  1  0  0  0  0
 20 48  1  0  0  0  0
 21 41  1  0  0  0  0
 22 24  2  0  0  0  0
 22 51  1  0  0  0  0
 23 26  1  0  0  0  0
 23 52  1  0  0  0  0
 24 25  1  0  0  0  0
 24 53  1  0  0  0  0
 25 26  2  0  0  0  0
 25 60  1  0  0  0  0
 26 75  1  0  0  0  0
 27 82  1  0  0  0  0
 28 83  1  0  0  0  0
 29 31  2  0  0  0  0
 29 82  1  0  0  0  0
 30 84  1  0  0  0  0
 31 85  1  0  0  0  0
 32 67  2  0  0  0  0
 33 68  1  0  0  0  0
 33 71  1  0  0  0  0
 34 72  1  0  0  0  0
 34 77  2  0  0  0  0
 35 49  1  0  0  0  0
 35 73  1  0  0  0  0
 35 78  2  0  0  0  0
 36 64  1  0  0  0  0
 36 69  1  0  0  0  0
 36 79  2  0  0  0  0
 37 65  1  0  0  0  0
 37 74  1  0  0  0  0
 37 80  2  0  0  0  0
 38 70  1  0  0  0  0
 38 75  1  0  0  0  0
 38 81  2  0  0  0  0
 39 42  1  0  0  0  0
 40 49  1  0  0  0  0
 41 69  1  0  0  0  0
 42 44  1  0  0  0  0
 43 45  1  0  0  0  0
 43 46  1  0  0  0  0
 44 48  1  0  0  0  0
 45 50  1  0  0  0  0
 46 70  1  0  0  0  0
 47 50  1  0  0  0  0
 47 70  1  0  0  0  0
 48 73  1  0  0  0  0
 49 69  1  0  0  0  0
 50 68  1  0  0  0  0
 54 65  1  0  0  0  0
 55 66  1  0  0  0  0
 56 66  1  0  0  0  0
 57 66  1  0  0  0  0
 58 75  1  0  0  0  0
 59 76  1  0  0  0  0
 60 61  1  0  0  0  0
 61 62  1  0  0  0  0
 62 63  1  0  0  0  0
 63 83  1  0  0  0  0
 64 66  1  0  0  0  0
 64 74  1  0  0  0  0
 65 76  1  0  0  0  0
 67 68  1  0  0  0  0
M  CHG  1  76   1
M  ISO  4  38 100  63 101  75 100  83 101
M  END
> <Batch ID>
0024

> <Smiles>
CNC(C)C(=O)NC(C(=O)N1Cc2cc([101O:1][101CH2:1]CCCc3c(C)c(C)cc(C)c3[100N:0](C)[100C:0](=O)N3CCCC(n4nc(-c5ccc(Oc6ccc(F)cc6F)cc5)c(C(N)=O)c4N)C3)ccc2CC1C(=O)NC1CCCc2ccccc21)C(C)(C)C

> <Shape>
0.248

> <Color>
0.094

> <Negative vol penalty>
0.000

$$$$

  -OEChem-04052316223D

 94102  0     1  0  0  0  0  0999 V2000
  -28.5533  -31.9166   19.2942 C   0  0  0  0  0  0  0  0  0  0  0  0
  -28.5650  -30.6865   19.9439 C   0  0  0  0  0  0  0  0  0  0  0  0
  -30.2300  -19.6778   19.8744 C   0  0  0  0  0  0  0  0  0  0  0  0
  -28.0113  -19.6639   20.8306 C   0  0  0  0  0  0  0  0  0  0  0  0
  -27.4740  -32.7828   19.4635 C   0  0  0  0  0  0  0  0  0  0  0  0
  -27.4978  -30.3223   20.7642 C   0  0  0  0  0  0  0  0  0  0  0  0
  -25.2237  -24.6927   21.5646 C   0  0  0  0  0  0  0  0  0  0  0  0
  -30.0116  -20.9659   19.3860 C   0  0  0  0  0  0  0  0  0  0  0  0
  -27.7929  -20.9521   20.3423 C   0  0  0  0  0  0  0  0  0  0  0  0
  -25.4174  -23.7355   22.5596 C   0  0  0  0  0  0  0  0  0  0  0  0
  -30.0250  -24.1237   20.5949 C   0  0  0  0  0  0  0  0  0  0  0  0
  -31.0421  -25.0628   20.7656 C   0  0  0  0  0  0  0  0  0  0  0  0
  -21.4292  -16.2301   23.0240 C   0  0  0  0  0  0  0  0  0  0  0  0
  -23.4228  -24.5032   23.6781 C   0  0  0  0  0  0  0  0  0  0  0  0
  -20.7221  -14.6515   20.8353 C   0  0  0  0  0  0  0  0  0  0  0  0
  -31.1891  -25.3392   18.3700 C   0  0  0  0  0  0  0  0  0  0  0  0
  -29.2299  -19.0267   20.5966 C   0  0  0  0  0  0  0  0  0  0  0  0
  -20.0996  -16.1720   22.6066 C   0  0  0  0  0  0  0  0  0  0  0  0
  -29.9956  -17.3405   22.3511 C   0  0  0  0  0  0  0  0  0  0  0  0
  -26.3886  -32.4250   20.2786 C   0  0  0  0  0  0  0  0  0  0  0  0
  -24.1322  -25.5710   21.6248 C   0  0  0  0  0  0  0  0  0  0  0  0
  -26.4036  -31.1852   20.9456 C   0  0  0  0  0  0  0  0  0  0  0  0
  -23.2160  -25.4690   22.6813 C   0  0  0  0  0  0  0  0  0  0  0  0
  -22.0518  -14.7097   21.2527 C   0  0  0  0  0  0  0  0  0  0  0  0
  -28.7930  -21.6031   19.6200 C   0  0  0  0  0  0  0  0  0  0  0  0
  -24.5185  -23.6425   23.6181 C   0  0  0  0  0  0  0  0  0  0  0  0
  -29.5900  -23.7922   19.3116 C   0  0  0  0  0  0  0  0  0  0  0  0
  -31.6241  -25.6706   19.6532 C   0  0  0  0  0  0  0  0  0  0  0  0
  -30.1720  -24.4000   18.1992 C   0  0  0  0  0  0  0  0  0  0  0  0
  -22.4053  -15.4990   22.3470 C   0  0  0  0  0  0  0  0  0  0  0  0
  -19.7460  -15.3827   21.5123 C   0  0  0  0  0  0  0  0  0  0  0  0
  -29.4548  -17.6958   21.1009 C   0  0  0  0  0  0  0  0  0  0  0  0
  -30.0007  -15.9671   22.3452 C   0  0  0  0  0  0  0  0  0  0  0  0
  -19.1126  -16.9608   23.3526 C   0  0  0  0  0  0  0  0  0  0  0  0
  -30.4524  -18.1772   23.4221 C   0  0  0  0  0  0  0  0  0  0  0  0
  -18.7485  -18.2343   23.0839 C   0  0  0  0  0  0  0  0  0  0  0  0
  -23.8002  -28.7242   21.8504 C   0  0  0  0  0  0  0  0  0  0  0  0
  -20.6569  -28.0305   21.4494 C   0  0  0  0  0  0  0  0  0  0  0  0
  -18.1371  -25.7448   21.7189 C   0  0  0  0  0  0  0  0  0  0  0  0
  -26.7452  -11.8901   19.4072 C   0  0  0  0  0  0  0  0  0  0  0  0
  -25.2663  -33.4145   20.4685 C   0  0  0  0  0  0  0  0  0  0  0  0
  -23.9224  -26.5803   20.5294 C   0  0  0  0  0  0  0  0  0  0  0  0
  -22.0169  -26.3748   22.7814 C   0  0  0  0  0  0  0  0  0  0  0  0
  -24.0015  -32.7952   21.0577 C   0  0  0  0  0  0  0  0  0  0  0  0
  -30.2885  -12.2365   19.3635 C   0  0  0  0  0  0  0  0  0  0  0  0
  -24.3471  -31.9061   22.2481 C   0  0  0  0  0  0  0  0  0  0  0  0
  -30.5254  -13.6428   19.9166 C   0  0  0  0  0  0  0  0  0  0  0  0
  -29.0319  -12.1747   18.4980 C   0  0  0  0  0  0  0  0  0  0  0  0
  -28.0444  -14.0862   19.7000 C   0  0  0  0  0  0  0  0  0  0  0  0
  -25.2531  -30.7439   21.8240 C   0  0  1  0  0  0  0  0  0  0  0  0
  -23.0613  -27.7625   20.9632 C   0  0  1  0  0  0  0  0  0  0  0  0
  -29.2696  -14.1857   20.6248 C   0  0  2  0  0  0  0  0  0  0  0  0
  -17.7126  -18.9551   23.9263 C   0  0  0  0  0  0  0  0  0  0  0  0
  -15.8347  -24.7774   21.4729 C   0  0  0  0  0  0  0  0  0  0  0  0
  -18.7240  -20.4632   21.8926 C   0  0  0  0  0  0  0  0  0  0  0  0
  -19.0893  -18.4443   20.5131 C   0  0  0  0  0  0  0  0  0  0  0  0
  -20.1092  -29.6252   23.9924 C   0  0  0  0  0  0  0  0  0  0  0  0
  -17.8491  -28.5530   24.0947 C   0  0  0  0  0  0  0  0  0  0  0  0
  -18.4564  -29.9957   22.1525 C   0  0  0  0  0  0  0  0  0  0  0  0
  -18.7520  -24.6642   19.0331 C   0  0  0  0  0  0  0  0  0  0  0  0
  -23.0684  -13.9132   20.5002 C   0  0  0  0  0  0  0  0  0  0  0  0
  -23.4701  -12.5914   21.1809 C   0  0  0  0  0  0  0  0  0  0  0  0
  -22.8952  -19.7571   23.5472 C   0  0  0  0  0  0  0  0  0  0  0  0
  -23.3749  -20.0419   24.9716 C   0  0  0  0  0  0  0  0  0  0  0  0
  -21.3772  -19.5495   23.5048 C   0  0  0  0  0  0  0  0  0  0  0  0
  -24.8754  -20.3393   25.0841 C   0  0  0  0  0  0  0  0  0  0  0  0
  -20.9048  -19.2261   22.0799 C   0  0  0  0  0  0  0  0  0  0  0  0
  -24.4692  -11.7525   20.3869 C   0  0  0  0  0  0  0  0  0  0  0  0
  -25.3543  -21.4980   24.2167 C   0  0  0  0  0  0  0  0  0  1  0  0
  -19.5073  -27.7068   22.3727 C   0  0  1  0  0  0  0  0  0  0  0  0
  -17.0541  -25.3197   20.7437 C   0  0  2  0  0  0  0  0  0  0  0  0
  -19.3628  -19.0522   21.9136 C   0  0  0  0  0  0  0  0  0  0  0  0
  -19.0041  -28.9542   23.1525 C   0  0  0  0  0  0  0  0  0  0  0  0
  -29.1393  -16.6337   20.3549 N   0  0  0  0  0  0  0  0  0  0  0  0
  -29.4831  -15.5976   21.1386 N   0  0  0  0  0  0  0  0  0  0  0  0
  -21.8587  -27.3495   21.6894 N   0  0  0  0  0  0  0  0  0  0  0  0
  -27.8771  -12.7025   19.2286 N   0  0  0  0  0  0  0  0  0  0  0  0
  -30.3974  -15.0514   23.2544 N   0  0  0  0  0  0  0  0  0  0  0  0
  -30.3759  -19.5676   23.2629 N   0  0  0  0  0  0  0  0  0  0  0  0
  -24.4788  -29.7139   21.1652 N   0  0  0  0  0  0  0  0  0  0  0  0
  -18.4885  -27.0670   21.5474 N   0  0  0  0  0  0  0  0  0  0  0  0
  -25.6978  -12.4653   20.1164 N   0  0  0  0  0  0  0  0  0  0  0  0
  -17.5663  -24.2588   19.8310 N   0  3  0  0  0  0  0  0  0  0  0  0
  -30.9299  -17.7059   24.4820 O   0  0  0  0  0  0  0  0  0  0  0  0
  -23.7565  -28.5799   23.0665 O   0  0  0  0  0  0  0  0  0  0  0  0
  -20.4924  -28.8520   20.5439 O   0  0  0  0  0  0  0  0  0  0  0  0
  -18.6201  -24.9813   22.5521 O   0  0  0  0  0  0  0  0  0  0  0  0
  -26.6754  -10.7358   18.9718 O   0  0  0  0  0  0  0  0  0  0  0  0
  -28.5796  -22.8602   19.1438 O   0  0  0  0  0  0  0  0  0  0  0  0
  -24.7071  -22.7023   24.5985 O   0  0  0  0  0  0  0  0  0  1  0  0
  -32.5997  -26.5736   19.8174 F   0  0  0  0  0  0  0  0  0  0  0  0
  -29.7575  -24.0865   16.9640 F   0  0  0  0  0  0  0  0  0  0  0  0
  -24.0415  -15.5993   22.8879 Cl  0  0  0  0  0  0  0  0  0  0  0  0
  -18.1134  -15.2763   20.9518 Cl  0  0  0  0  0  0  0  0  0  0  0  0
  1  2  1  0  0  0  0
  1  5  2  0  0  0  0
  2  6  2  0  0  0  0
  3  8  2  0  0  0  0
  3 17  1  0  0  0  0
  4  9  1  0  0  0  0
  4 17  2  0  0  0  0
  5 20  1  0  0  0  0
  6 22  1  0  0  0  0
  7 10  2  0  0  0  0
  7 21  1  0  0  0  0
  8 25  1  0  0  0  0
  9 25  2  0  0  0  0
 10 26  1  0  0  0  0
 11 12  2  0  0  0  0
 11 27  1  0  0  0  0
 12 28  1  0  0  0  0
 13 18  1  0  0  0  0
 13 30  2  0  0  0  0
 14 23  1  0  0  0  0
 14 26  2  0  0  0  0
 15 24  2  0  0  0  0
 15 31  1  0  0  0  0
 16 28  2  0  0  0  0
 16 29  1  0  0  0  0
 17 32  1  0  0  0  0
 18 31  2  0  0  0  0
 18 34  1  0  0  0  0
 19 32  1  0  0  0  0
 19 33  2  0  0  0  0
 19 35  1  0  0  0  0
 20 22  2  0  0  0  0
 20 41  1  0  0  0  0
 21 23  2  0  0  0  0
 21 42  1  0  0  0  0
 22 50  1  0  0  0  0
 23 43  1  0  0  0  0
 24 30  1  0  0  0  0
 24 61  1  0  0  0  0
 25 89  1  0  0  0  0
 26 90  1  0  0  0  0
 27 29  2  0  0  0  0
 27 89  1  0  0  0  0
 28 91  1  0  0  0  0
 29 92  1  0  0  0  0
 30 93  1  0  0  0  0
 31 94  1  0  0  0  0
 32 74  2  0  0  0  0
 33 75  1  0  0  0  0
 33 78  1  0  0  0  0
 34 36  2  0  0  0  0
 35 79  1  0  0  0  0
 35 84  2  0  0  0  0
 36 53  1  0  0  0  0
 36 72  1  0  0  0  0
 37 51  1  0  0  0  0
 37 80  1  0  0  0  0
 37 85  2  0  0  0  0
 38 70  1  0  0  0  0
 38 76  1  0  0  0  0
 38 86  2  0  0  0  0
 39 71  1  0  0  0  0
 39 81  1  0  0  0  0
 39 87  2  0  0  0  0
 40 77  1  0  0  0  0
 40 82  1  0  0  0  0
 40 88  2  0  0  0  0
 41 44  1  0  0  0  0
 42 51  1  0  0  0  0
 43 76  1  0  0  0  0
 44 46  1  0  0  0  0
 45 47  1  0  0  0  0
 45 48  1  0  0  0  0
 46 50  1  0  0  0  0
 47 52  1  0  0  0  0
 48 77  1  0  0  0  0
 49 52  1  0  0  0  0
 49 77  1  0  0  0  0
 50 80  1  0  0  0  0
 51 76  1  0  0  0  0
 52 75  1  0  0  0  0
 54 71  1  0  0  0  0
 55 72  1  0  0  0  0
 56 72  1  0  0  0  0
 57 73  1  0  0  0  0
 58 73  1  0  0  0  0
 59 73  1  0  0  0  0
 60 83  1  0  0  0  0
 61 62  1  0  0  0  0
 62 68  1  0  0  0  0
 63 64  1  0  0  0  0
 63 65  1  0  0  0  0
 64 66  1  0  0  0  0
 65 67  1  0  0  0  0
 66 69  1  0  0  0  0
 67 72  1  0  0  0  0
 68 82  1  0  0  0  0
 69 90  1  0  0  0  0
 70 73  1  0  0  0  0
 70 81  1  0  0  0  0
 71 83  1  0  0  0  0
 74 75  1  0  0  0  0
M  CHG  1  83   1
M  ISO  4  40 100  69 101  82 100  90 101
M  END
> <Batch ID>
0024

> <Smiles>
CNC(C)C(=O)NC(C(=O)N1Cc2cc([101O:1][101CH2:1]CCCCCC(C)(C)C(C)=Cc3cc(Cl)c(CCC[100NH:0][100C:0](=O)N4CCCC(n5nc(-c6ccc(Oc7ccc(F)cc7F)cc6)c(C(N)=O)c5N)C4)cc3Cl)ccc2CC1C(=O)NC1CCCc2ccccc21)C(C)(C)C

> <Shape>
0.273

> <Color>
0.047

> <Negative vol penalty>
0.000

$$$$

  -OEChem-04052316223D

105115  0     1  0  0  0  0  0999 V2000
  -14.6053  -29.0900   24.0853 C   0  0  0  0  0  0  0  0  0  0  0  0
  -14.7933  -27.7281   23.8727 C   0  0  0  0  0  0  0  0  0  0  0  0
  -27.9429  -29.1103   22.2617 C   0  0  0  0  0  0  0  0  0  0  0  0
  -27.1364  -29.6123   20.0403 C   0  0  0  0  0  0  0  0  0  0  0  0
  -15.6862  -29.9653   23.9878 C   0  0  0  0  0  0  0  0  0  0  0  0
  -16.0621  -27.2408   23.5614 C   0  0  0  0  0  0  0  0  0  0  0  0
  -18.4552  -21.8611   25.2461 C   0  0  0  0  0  0  0  0  0  0  0  0
  -27.3316  -30.2671   22.7451 C   0  0  0  0  0  0  0  0  0  0  0  0
  -26.5250  -30.7691   20.5237 C   0  0  0  0  0  0  0  0  0  0  0  0
  -18.5789  -20.6408   24.5833 C   0  0  0  0  0  0  0  0  0  0  0  0
  -24.2191  -31.2632   23.6129 C   0  0  0  0  0  0  0  0  0  0  0  0
  -23.4959  -31.1660   24.8017 C   0  0  0  0  0  0  0  0  0  0  0  0
  -20.8254  -21.2296   23.9310 C   0  0  0  0  0  0  0  0  0  0  0  0
  -28.0445  -19.2498   24.3321 C   0  0  0  0  0  0  0  0  0  0  0  0
  -25.6230  -13.4801   22.0294 C   0  0  0  0  0  0  0  0  0  0  0  0
  -24.9531  -32.8009   25.8219 C   0  0  0  0  0  0  0  0  0  0  0  0
  -25.4702  -18.2580   24.7471 C   0  0  0  0  0  0  0  0  0  0  0  0
  -27.8453  -28.7829   20.9093 C   0  0  0  0  0  0  0  0  0  0  0  0
  -29.8480  -27.2712   20.4494 C   0  0  0  0  0  0  0  0  0  0  0  0
  -16.9708  -29.4873   23.6846 C   0  0  0  0  0  0  0  0  0  0  0  0
  -19.5136  -22.7810   25.2470 C   0  0  0  0  0  0  0  0  0  0  0  0
  -17.1609  -28.1107   23.4584 C   0  0  0  0  0  0  0  0  0  0  0  0
  -20.7136  -22.4598   24.5966 C   0  0  0  0  0  0  0  0  0  0  0  0
  -27.2833  -18.8106   23.2489 C   0  0  0  0  0  0  0  0  0  0  0  0
  -26.4470  -14.0337   21.0495 C   0  0  0  0  0  0  0  0  0  0  0  0
  -24.7123  -13.6984   19.4016 C   0  0  0  0  0  0  0  0  0  0  0  0
  -23.8884  -13.1449   20.3815 C   0  0  0  0  0  0  0  0  0  0  0  0
  -26.6227  -31.0965   21.8761 C   0  0  0  0  0  0  0  0  0  0  0  0
  -19.7631  -20.3261   23.9231 C   0  0  0  0  0  0  0  0  0  0  0  0
  -25.3093  -32.1293   23.5287 C   0  0  0  0  0  0  0  0  0  0  0  0
  -23.8629  -31.9348   25.9061 C   0  0  0  0  0  0  0  0  0  0  0  0
  -27.5186  -19.1930   25.6228 C   0  0  0  0  0  0  0  0  0  0  0  0
  -25.6763  -32.8982   24.6331 C   0  0  0  0  0  0  0  0  0  0  0  0
  -24.3437  -13.0357   21.6954 C   0  0  0  0  0  0  0  0  0  0  0  0
  -25.9962  -18.3148   23.4564 C   0  0  0  0  0  0  0  0  0  0  0  0
  -26.2315  -18.6971   25.8303 C   0  0  0  0  0  0  0  0  0  0  0  0
  -25.9917  -14.1428   19.7356 C   0  0  0  0  0  0  0  0  0  0  0  0
  -28.4771  -27.5883   20.4092 C   0  0  0  0  0  0  0  0  0  0  0  0
  -29.9327  -26.0375   19.8516 C   0  0  0  0  0  0  0  0  0  0  0  0
  -30.9467  -28.0243   20.9798 C   0  0  0  0  0  0  0  0  0  0  0  0
  -28.8526  -16.5733   21.8903 C   0  0  0  0  0  0  0  0  0  0  0  0
  -19.9091  -25.7464   24.1730 C   0  0  0  0  0  0  0  0  0  0  0  0
  -22.7679  -25.4967   25.6855 C   0  0  0  0  0  0  0  0  0  0  0  0
  -25.2388  -23.4775   26.8954 C   0  0  0  0  0  0  0  0  0  0  0  0
  -28.1585  -20.9182   18.9966 C   0  0  0  0  0  0  0  0  0  0  0  0
  -18.0993  -30.4778   23.5434 C   0  0  0  0  0  0  0  0  0  0  0  0
  -19.3739  -24.0818   25.9892 C   0  0  0  0  0  0  0  0  0  0  0  0
  -21.8867  -23.4043   24.5851 C   0  0  0  0  0  0  0  0  0  0  0  0
  -19.4829  -29.8338   23.5782 C   0  0  0  0  0  0  0  0  0  0  0  0
  -26.5189  -23.3994   17.2267 C   0  0  0  0  0  0  0  0  0  0  0  0
  -19.5236  -28.6069   22.6727 C   0  0  0  0  0  0  0  0  0  0  0  0
  -26.9877  -24.6926   17.8929 C   0  0  0  0  0  0  0  0  0  0  0  0
  -29.8110  -18.2135   20.3337 C   0  0  0  0  0  0  0  0  0  0  0  0
  -26.2507  -22.3168   18.2656 C   0  0  0  0  0  0  0  0  0  0  0  0
  -30.0424  -19.6867   20.0252 C   0  0  0  0  0  0  0  0  0  0  0  0
  -28.1580  -20.3614   21.4694 C   0  0  0  0  0  0  0  0  0  0  0  0
  -27.9056  -23.3045   19.8170 C   0  0  0  0  0  0  0  0  0  0  0  0
  -27.8942  -18.8902   21.8574 C   0  0  1  0  0  0  0  0  0  0  0  0
  -18.5269  -27.5407   23.1431 C   0  0  1  0  0  0  0  0  0  0  0  0
  -29.1704  -18.0300   21.7151 C   0  0  1  0  0  0  0  0  0  0  0  0
  -20.3311  -25.1600   25.4905 C   0  0  1  0  0  0  0  0  0  0  0  0
  -28.1969  -24.4350   18.8092 C   0  0  2  0  0  0  0  0  0  0  0  0
  -24.2076  -13.8085   17.9954 C   0  0  0  0  0  0  0  0  0  0  0  0
  -29.5514  -15.8461   23.0111 C   0  0  0  0  0  0  0  0  0  0  0  0
  -27.4677  -23.5645   28.0452 C   0  0  0  0  0  0  0  0  0  0  0  0
  -24.0872  -26.3204   23.0604 C   0  0  0  0  0  0  0  0  0  0  0  0
  -26.2629  -25.4808   23.9711 C   0  0  0  0  0  0  0  0  0  0  0  0
  -25.0839  -27.3659   25.1020 C   0  0  0  0  0  0  0  0  0  0  0  0
  -24.2213  -21.9757   29.2338 C   0  0  0  0  0  0  0  0  0  0  0  0
  -27.8176  -14.4984   21.4555 C   0  0  0  0  0  0  0  0  0  0  0  0
  -22.5175  -12.6698   20.0106 C   0  0  0  0  0  0  0  0  0  0  0  0
  -20.0074  -16.5870   21.8697 C   0  0  0  0  0  0  0  0  0  0  0  0
  -20.3294  -15.7273   20.6466 C   0  0  0  0  0  0  0  0  0  0  0  0
  -19.0575  -17.7283   21.5128 C   0  0  0  0  0  0  0  0  0  0  0  0
  -21.3039  -14.6144   21.0028 C   0  0  0  0  0  0  0  0  0  0  0  0
  -18.6985  -18.5631   22.7338 C   0  0  0  0  0  0  0  0  0  1  0  0
  -24.1473  -25.0253   25.2932 C   0  0  1  0  0  0  0  0  0  0  0  0
  -25.9618  -23.4595   28.2301 C   0  0  2  0  0  0  0  0  0  0  0  0
  -24.8727  -26.0309   24.3551 C   0  0  0  0  0  0  0  0  0  0  0  0
  -27.7436  -26.6333   19.8314 N   0  0  0  0  0  0  0  0  0  0  0  0
  -28.0202  -15.9092   21.1622 N   0  0  0  0  0  0  0  0  0  0  0  0
  -28.6571  -25.7039   19.5029 N   0  0  0  0  0  0  0  0  0  0  0  0
  -21.6990  -24.6663   25.3196 N   0  0  0  0  0  0  0  0  0  0  0  0
  -27.4190  -22.1039   19.1197 N   0  0  0  0  0  0  0  0  0  0  0  0
  -28.8009  -20.4464   20.1509 N   0  0  0  0  0  0  0  0  0  0  0  0
  -30.9732  -25.2165   19.5953 N   0  0  0  0  0  0  0  0  0  0  0  0
  -31.6161  -28.9170   20.1316 N   0  0  0  0  0  0  0  0  0  0  0  0
  -19.0535  -26.8256   24.2858 N   0  0  0  0  0  0  0  0  0  0  0  0
  -24.8555  -24.7532   26.5393 N   0  0  0  0  0  0  0  0  0  0  0  0
  -25.6652  -22.1962   28.9629 N   0  3  0  0  0  0  0  0  0  0  0  0
  -21.5517  -13.7797   19.7972 N   0  3  0  0  0  0  0  0  0  0  0  0
  -31.3342  -27.8970   22.1660 O   0  0  0  0  0  0  0  0  0  0  0  0
  -20.3299  -25.2570   23.1314 O   0  0  0  0  0  0  0  0  0  0  0  0
  -22.6439  -26.5589   26.3003 O   0  0  0  0  0  0  0  0  0  0  0  0
  -25.0378  -22.4619   26.2331 O   0  0  0  0  0  0  0  0  0  0  0  0
  -28.2406  -20.3158   17.9189 O   0  0  0  0  0  0  0  0  0  0  0  0
  -26.0258  -32.2253   22.3475 O   0  0  0  0  0  0  0  0  0  0  0  0
  -19.8871  -19.1271   23.2701 O   0  0  0  0  0  0  0  0  0  1  0  0
  -23.1674  -31.8425   27.0472 F   0  0  0  0  0  0  0  0  0  0  0  0
  -28.2625  -19.6190   26.6537 F   0  0  0  0  0  0  0  0  0  0  0  0
  -26.7220  -33.7328   24.5578 F   0  0  0  0  0  0  0  0  0  0  0  0
  -23.3563  -12.3547   22.9375 Cl  0  0  0  0  0  0  0  0  0  0  0  0
  -25.0261  -17.7616   22.1401 Cl  0  0  0  0  0  0  0  0  0  0  0  0
  -25.5772  -18.6253   27.4211 Cl  0  0  0  0  0  0  0  0  0  0  0  0
  -27.0181  -14.8320   18.5217 Cl  0  0  0  0  0  0  0  0  0  0  0  0
  1  2  1  0  0  0  0
  1  5  2  0  0  0  0
  2  6  2  0  0  0  0
  3  8  2  0  0  0  0
  3 18  1  0  0  0  0
  4  9  1  0  0  0  0
  4 18  2  0  0  0  0
  5 20  1  0  0  0  0
  6 22  1  0  0  0  0
  7 10  2  0  0  0  0
  7 21  1  0  0  0  0
  8 28  1  0  0  0  0
  9 28  2  0  0  0  0
 10 29  1  0  0  0  0
 11 12  2  0  0  0  0
 11 30  1  0  0  0  0
 12 31  1  0  0  0  0
 13 23  1  0  0  0  0
 13 29  2  0  0  0  0
 14 24  1  0  0  0  0
 14 32  2  0  0  0  0
 15 25  1  0  0  0  0
 15 34  2  0  0  0  0
 16 31  2  0  0  0  0
 16 33  1  0  0  0  0
 17 35  1  0  0  0  0
 17 36  2  0  0  0  0
 18 38  1  0  0  0  0
 19 38  1  0  0  0  0
 19 39  2  0  0  0  0
 19 40  1  0  0  0  0
 20 22  2  0  0  0  0
 20 46  1  0  0  0  0
 21 23  2  0  0  0  0
 21 47  1  0  0  0  0
 22 59  1  0  0  0  0
 23 48  1  0  0  0  0
 24 35  2  0  0  0  0
 24 58  1  0  0  0  0
 25 37  2  0  0  0  0
 25 70  1  0  0  0  0
 26 27  2  0  0  0  0
 26 37  1  0  0  0  0
 26 63  1  0  0  0  0
 27 34  1  0  0  0  0
 27 71  1  0  0  0  0
 28 97  1  0  0  0  0
 29 98  1  0  0  0  0
 30 33  2  0  0  0  0
 30 97  1  0  0  0  0
 31 99  1  0  0  0  0
 32 36  1  0  0  0  0
 32100  1  0  0  0  0
 33101  1  0  0  0  0
 34102  1  0  0  0  0
 35103  1  0  0  0  0
 36104  1  0  0  0  0
 37105  1  0  0  0  0
 38 80  2  0  0  0  0
 39 82  1  0  0  0  0
 39 86  1  0  0  0  0
 40 87  1  0  0  0  0
 40 92  2  0  0  0  0
 41 60  1  0  0  0  0
 41 64  1  0  0  0  0
 41 81  2  0  0  0  0
 42 61  1  0  0  0  0
 42 88  1  0  0  0  0
 42 93  2  0  0  0  0
 43 77  1  0  0  0  0
 43 83  1  0  0  0  0
 43 94  2  0  0  0  0
 44 78  1  0  0  0  0
 44 89  1  0  0  0  0
 44 95  2  0  0  0  0
 45 84  1  0  0  0  0
 45 85  1  0  0  0  0
 45 96  2  0  0  0  0
 46 49  1  0  0  0  0
 47 61  1  0  0  0  0
 48 83  1  0  0  0  0
 49 51  1  0  0  0  0
 50 52  1  0  0  0  0
 50 54  1  0  0  0  0
 51 59  1  0  0  0  0
 52 62  1  0  0  0  0
 53 55  1  0  0  0  0
 53 60  1  0  0  0  0
 54 84  1  0  0  0  0
 55 85  1  0  0  0  0
 56 58  1  0  0  0  0
 56 85  1  0  0  0  0
 57 62  1  0  0  0  0
 57 84  1  0  0  0  0
 58 60  1  0  0  0  0
 59 88  1  0  0  0  0
 61 83  1  0  0  0  0
 62 82  1  0  0  0  0
 65 78  1  0  0  0  0
 66 79  1  0  0  0  0
 67 79  1  0  0  0  0
 68 79  1  0  0  0  0
 69 90  1  0  0  0  0
 70 81  1  0  0  0  0
 71 91  1  0  0  0  0
 72 73  1  0  0  0  0
 72 74  1  0  0  0  0
 73 75  1  0  0  0  0
 74 76  1  0  0  0  0
 75 91  1  0  0  0  0
 76 98  1  0  0  0  0
 77 79  1  0  0  0  0
 77 89  1  0  0  0  0
 78 90  1  0  0  0  0
 80 82  1  0  0  0  0
M  CHG  2  90   1  91   1
M  ISO  4  45 100  76 101  85 100  98 101
M  END
> <Batch ID>
0024

> <Smiles>
CNC(C)C(=O)NC(C(=O)N1Cc2cc([101O:1][101CH2:1]CCCCNCc3c(Cl)cc(CNC(C)=C4CC[100N:0]([100C:0](=O)N5CCCC(n6nc(-c7ccc(Oc8ccc(F)cc8F)cc7)c(C(N)=O)c6N)C5)CC4c4cc(F)c(Cl)cc4Cl)c(Cl)c3C)ccc2CC1C(=O)NC1CCCc2ccccc21)C(C)(C)C

> <Shape>
0.236

> <Color>
0.049

> <Negative vol penalty>
0.000

$$$$

  -OEChem-04052316223D

 88 96  0     1  0  0  0  0  0999 V2000
  -32.3456  -14.2898   21.1360 C   0  0  0  0  0  0  0  0  0  0  0  0
  -31.5246  -15.3685   21.4486 C   0  0  0  0  0  0  0  0  0  0  0  0
  -29.0304  -21.1185   24.1777 C   0  0  0  0  0  0  0  0  0  0  0  0
  -28.3890  -22.2784   22.1577 C   0  0  0  0  0  0  0  0  0  0  0  0
  -31.8336  -13.2114   20.4156 C   0  0  0  0  0  0  0  0  0  0  0  0
  -30.1914  -15.3699   21.0401 C   0  0  0  0  0  0  0  0  0  0  0  0
  -25.4187  -17.7400   24.0586 C   0  0  0  0  0  0  0  0  0  0  0  0
  -28.7853  -19.8956   23.5533 C   0  0  0  0  0  0  0  0  0  0  0  0
  -28.1439  -21.0554   21.5333 C   0  0  0  0  0  0  0  0  0  0  0  0
  -24.7391  -18.9511   23.9360 C   0  0  0  0  0  0  0  0  0  0  0  0
  -27.6946  -18.2287   19.2915 C   0  0  0  0  0  0  0  0  0  0  0  0
  -28.1753  -18.0544   17.9937 C   0  0  0  0  0  0  0  0  0  0  0  0
  -23.0906  -17.8778   22.5397 C   0  0  0  0  0  0  0  0  0  0  0  0
  -25.6482  -30.8236   21.0273 C   0  0  0  0  0  0  0  0  0  0  0  0
  -30.4304  -18.4203   18.7799 C   0  0  0  0  0  0  0  0  0  0  0  0
  -28.8322  -22.3100   23.4799 C   0  0  0  0  0  0  0  0  0  0  0  0
  -30.2974  -24.2880   24.1494 C   0  0  0  0  0  0  0  0  0  0  0  0
  -30.4909  -13.1952   20.0065 C   0  0  0  0  0  0  0  0  0  0  0  0
  -24.9446  -16.5892   23.4126 C   0  0  0  0  0  0  0  0  0  0  0  0
  -29.6613  -14.2909   20.3125 C   0  0  0  0  0  0  0  0  0  0  0  0
  -23.7646  -16.6527   22.6577 C   0  0  0  0  0  0  0  0  0  0  0  0
  -25.6709  -30.0726   19.8522 C   0  0  0  0  0  0  0  0  0  0  0  0
  -24.8726  -30.4043   22.1082 C   0  0  0  0  0  0  0  0  0  0  0  0
  -24.1421  -28.4830   20.8387 C   0  0  0  0  0  0  0  0  0  0  0  0
  -28.3421  -19.8640   22.2311 C   0  0  0  0  0  0  0  0  0  0  0  0
  -23.5764  -19.0208   23.1742 C   0  0  0  0  0  0  0  0  0  0  0  0
  -28.5818  -18.4988   20.3335 C   0  0  0  0  0  0  0  0  0  0  0  0
  -29.5432  -18.1502   17.7379 C   0  0  0  0  0  0  0  0  0  0  0  0
  -29.9496  -18.5946   20.0777 C   0  0  0  0  0  0  0  0  0  0  0  0
  -24.9178  -28.9023   19.7578 C   0  0  0  0  0  0  0  0  0  0  0  0
  -24.1195  -29.2340   22.0139 C   0  0  0  0  0  0  0  0  0  0  0  0
  -29.0846  -23.5737   24.1245 C   0  0  0  0  0  0  0  0  0  0  0  0
  -30.0175  -25.4143   24.8840 C   0  0  0  0  0  0  0  0  0  0  0  0
  -31.5638  -23.9626   23.5610 C   0  0  0  0  0  0  0  0  0  0  0  0
  -26.0852  -14.6429   21.1732 C   0  0  0  0  0  0  0  0  0  0  0  0
  -23.4161  -12.9297   21.8538 C   0  0  0  0  0  0  0  0  0  0  0  0
  -20.2325  -12.8922   23.0826 C   0  0  0  0  0  0  0  0  0  0  0  0
  -25.7289  -29.1888   25.8193 C   0  0  0  0  0  0  0  0  0  0  0  0
  -29.9951  -12.0288   19.1890 C   0  0  0  0  0  0  0  0  0  0  0  0
  -25.6746  -15.2844   23.5765 C   0  0  0  0  0  0  0  0  0  0  0  0
  -23.2028  -15.4414   21.9609 C   0  0  0  0  0  0  0  0  0  0  0  0
  -28.4729  -11.9385   19.1173 C   0  0  0  0  0  0  0  0  0  0  0  0
  -26.5458  -26.6512   28.1793 C   0  0  0  0  0  0  0  0  0  0  0  0
  -27.8711  -13.3051   18.8061 C   0  0  0  0  0  0  0  0  0  0  0  0
  -27.3965  -25.6653   27.3766 C   0  0  0  0  0  0  0  0  0  0  0  0
  -25.4258  -27.2505   27.3317 C   0  0  0  0  0  0  0  0  0  0  0  0
  -26.7195  -26.8846   25.2662 C   0  0  0  0  0  0  0  0  0  0  0  0
  -28.2032  -14.3181   19.9084 C   0  0  1  0  0  0  0  0  0  0  0  0
  -25.3839  -14.2920   22.4549 C   0  0  1  0  0  0  0  0  0  0  0  0
  -27.8964  -26.2961   26.0631 C   0  0  2  0  0  0  0  0  0  0  0  0
  -26.5183  -30.5597   18.7208 C   0  0  0  0  0  0  0  0  0  0  0  0
  -18.2900  -11.3524   23.4739 C   0  0  0  0  0  0  0  0  0  0  0  0
  -22.7614  -13.0023   18.8745 C   0  0  0  0  0  0  0  0  0  0  0  0
  -20.4216  -12.3165   19.4430 C   0  0  0  0  0  0  0  0  0  0  0  0
  -22.3294  -10.8031   19.9843 C   0  0  0  0  0  0  0  0  0  0  0  0
  -20.3033  -13.3572   26.0045 C   0  0  0  0  0  0  0  0  0  0  0  0
  -24.8815  -31.2402   23.3480 C   0  0  0  0  0  0  0  0  0  0  0  0
  -23.3307  -27.2251   20.7368 C   0  0  0  0  0  0  0  0  0  0  0  0
  -23.8061  -23.7772   22.2945 C   0  0  0  0  0  0  0  0  0  0  0  0
  -23.0306  -22.4625   22.2568 C   0  0  0  0  0  0  0  0  0  0  0  0
  -26.1299  -31.0369   24.2122 C   0  0  0  0  0  0  0  0  0  0  0  0
  -23.1116  -24.8453   21.4631 C   0  0  0  0  0  0  0  0  0  0  0  0
  -23.6903  -21.3957   23.1190 C   0  0  0  0  0  0  0  0  0  1  0  0
  -21.9971  -12.9118   21.3389 C   0  0  1  0  0  0  0  0  0  0  0  0
  -19.5454  -11.9682   24.0718 C   0  0  2  0  0  0  0  0  0  0  0  0
  -21.8888  -12.2819   19.9216 C   0  0  0  0  0  0  0  0  0  0  0  0
  -28.1071  -24.1940   24.7905 N   0  0  0  0  0  0  0  0  0  0  0  0
  -28.7053  -25.3100   25.2409 N   0  0  0  0  0  0  0  0  0  0  0  0
  -23.9561  -14.1901   22.1463 N   0  0  0  0  0  0  0  0  0  0  0  0
  -25.9668  -27.8335   26.1016 N   0  0  0  0  0  0  0  0  0  0  0  0
  -30.7684  -26.4737   25.2531 N   0  0  0  0  0  0  0  0  0  0  0  0
  -31.6775  -22.7667   22.8391 N   0  0  0  0  0  0  0  0  0  0  0  0
  -27.3540  -14.1071   21.0612 N   0  0  0  0  0  0  0  0  0  0  0  0
  -21.2021  -12.2332   22.3568 N   0  0  0  0  0  0  0  0  0  0  0  0
  -26.2825  -29.6630   24.6363 N   0  0  0  0  0  0  0  0  0  0  0  0
  -19.1613  -12.7186   25.3008 N   0  3  0  0  0  0  0  0  0  0  0  0
  -23.9218  -26.0868   21.4924 N   0  3  0  0  0  0  0  0  0  0  0  0
  -32.5692  -24.7022   23.6860 O   0  0  0  0  0  0  0  0  0  0  0  0
  -25.5167  -15.3464   20.3465 O   0  0  0  0  0  0  0  0  0  0  0  0
  -24.0206  -11.8642   21.9980 O   0  0  0  0  0  0  0  0  0  0  0  0
  -19.9359  -14.0789   22.9628 O   0  0  0  0  0  0  0  0  0  0  0  0
  -25.0763  -29.9232   26.5688 O   0  0  0  0  0  0  0  0  0  0  0  0
  -28.1031  -18.6708   21.6215 O   0  0  0  0  0  0  0  0  0  0  0  0
  -22.9114  -20.2018   23.0524 O   0  0  0  0  0  0  0  0  0  1  0  0
  -30.0048  -17.9813   16.4919 F   0  0  0  0  0  0  0  0  0  0  0  0
  -30.8069  -18.8528   21.0748 F   0  0  0  0  0  0  0  0  0  0  0  0
  -24.9514  -27.9745   18.2947 Cl  0  0  0  0  0  0  0  0  0  0  0  0
  -23.1577  -28.7191   23.3608 Cl  0  0  0  0  0  0  0  0  0  0  0  0
  1  2  1  0  0  0  0
  1  5  2  0  0  0  0
  2  6  2  0  0  0  0
  3  8  2  0  0  0  0
  3 16  1  0  0  0  0
  4  9  1  0  0  0  0
  4 16  2  0  0  0  0
  5 18  1  0  0  0  0
  6 20  1  0  0  0  0
  7 10  2  0  0  0  0
  7 19  1  0  0  0  0
  8 25  1  0  0  0  0
  9 25  2  0  0  0  0
 10 26  1  0  0  0  0
 11 12  2  0  0  0  0
 11 27  1  0  0  0  0
 12 28  1  0  0  0  0
 13 21  1  0  0  0  0
 13 26  2  0  0  0  0
 14 22  1  0  0  0  0
 14 23  2  0  0  0  0
 15 28  2  0  0  0  0
 15 29  1  0  0  0  0
 16 32  1  0  0  0  0
 17 32  1  0  0  0  0
 17 33  2  0  0  0  0
 17 34  1  0  0  0  0
 18 20  2  0  0  0  0
 18 39  1  0  0  0  0
 19 21  2  0  0  0  0
 19 40  1  0  0  0  0
 20 48  1  0  0  0  0
 21 41  1  0  0  0  0
 22 30  2  0  0  0  0
 22 51  1  0  0  0  0
 23 31  1  0  0  0  0
 23 57  1  0  0  0  0
 24 30  1  0  0  0  0
 24 31  2  0  0  0  0
 24 58  1  0  0  0  0
 25 83  1  0  0  0  0
 26 84  1  0  0  0  0
 27 29  2  0  0  0  0
 27 83  1  0  0  0  0
 28 85  1  0  0  0  0
 29 86  1  0  0  0  0
 30 87  1  0  0  0  0
 31 88  1  0  0  0  0
 32 67  2  0  0  0  0
 33 68  1  0  0  0  0
 33 71  1  0  0  0  0
 34 72  1  0  0  0  0
 34 78  2  0  0  0  0
 35 49  1  0  0  0  0
 35 73  1  0  0  0  0
 35 79  2  0  0  0  0
 36 64  1  0  0  0  0
 36 69  1  0  0  0  0
 36 80  2  0  0  0  0
 37 65  1  0  0  0  0
 37 74  1  0  0  0  0
 37 81  2  0  0  0  0
 38 70  1  0  0  0  0
 38 75  1  0  0  0  0
 38 82  2  0  0  0  0
 39 42  1  0  0  0  0
 40 49  1  0  0  0  0
 41 69  1  0  0  0  0
 42 44  1  0  0  0  0
 43 45  1  0  0  0  0
 43 46  1  0  0  0  0
 44 48  1  0  0  0  0
 45 50  1  0  0  0  0
 46 70  1  0  0  0  0
 47 50  1  0  0  0  0
 47 70  1  0  0  0  0
 48 73  1  0  0  0  0
 49 69  1  0  0  0  0
 50 68  1  0  0  0  0
 52 65  1  0  0  0  0
 53 66  1  0  0  0  0
 54 66  1  0  0  0  0
 55 66  1  0  0  0  0
 56 76  1  0  0  0  0
 57 61  1  0  0  0  0
 58 77  1  0  0  0  0
 59 60  1  0  0  0  0
 59 62  1  0  0  0  0
 60 63  1  0  0  0  0
 61 75  1  0  0  0  0
 62 77  1  0  0  0  0
 63 84  1  0  0  0  0
 64 66  1  0  0  0  0
 64 74  1  0  0  0  0
 65 76  1  0  0  0  0
 67 68  1  0  0  0  0
M  CHG  2  76   1  77   1
M  ISO  4  38 100  63 101  75 100  84 101
M  END
> <Batch ID>
0024

> <Smiles>
CNC(C)C(=O)NC(C(=O)N1Cc2cc([101O:1][101CH2:1]CCCNCc3c(Cl)c(C)cc(CC[100NH:0][100C:0](=O)N4CCCC(n5nc(-c6ccc(Oc7ccc(F)cc7F)cc6)c(C(N)=O)c5N)C4)c3Cl)ccc2CC1C(=O)NC1CCCc2ccccc21)C(C)(C)C

> <Shape>
0.205

> <Color>
0.055

> <Negative vol penalty>
0.000

$$$$

  -OEChem-04052316223D

 88 98  0     1  0  0  0  0  0999 V2000
  -25.6919  -32.5127   25.3640 C   0  0  0  0  0  0  0  0  0  0  0  0
  -26.5221  -31.4006   25.2672 C   0  0  0  0  0  0  0  0  0  0  0  0
  -23.0795   -9.8632   19.9468 C   0  0  0  0  0  0  0  0  0  0  0  0
  -23.8385   -9.8822   22.2404 C   0  0  0  0  0  0  0  0  0  0  0  0
  -24.4823  -32.5407   24.6712 C   0  0  0  0  0  0  0  0  0  0  0  0
  -26.1426  -30.3152   24.4783 C   0  0  0  0  0  0  0  0  0  0  0  0
  -29.8664  -26.6689   21.1267 C   0  0  0  0  0  0  0  0  0  0  0  0
  -22.3400   -8.7081   20.2010 C   0  0  0  0  0  0  0  0  0  0  0  0
  -23.0990   -8.7271   22.4947 C   0  0  0  0  0  0  0  0  0  0  0  0
  -30.4272  -25.4118   21.3481 C   0  0  0  0  0  0  0  0  0  0  0  0
  -19.3944   -7.9058   21.6544 C   0  0  0  0  0  0  0  0  0  0  0  0
  -18.0879   -7.8525   21.1689 C   0  0  0  0  0  0  0  0  0  0  0  0
  -28.5835  -24.3895   20.1761 C   0  0  0  0  0  0  0  0  0  0  0  0
  -18.6557   -5.9064   19.8545 C   0  0  0  0  0  0  0  0  0  0  0  0
  -23.8288  -10.4502   20.9665 C   0  0  0  0  0  0  0  0  0  0  0  0
  -24.1608  -12.9762   20.8366 C   0  0  0  0  0  0  0  0  0  0  0  0
  -24.0923  -31.4591   23.8657 C   0  0  0  0  0  0  0  0  0  0  0  0
  -28.6524  -26.7956   20.4361 C   0  0  0  0  0  0  0  0  0  0  0  0
  -24.9260  -30.3282   23.7751 C   0  0  0  0  0  0  0  0  0  0  0  0
  -28.0119  -25.6496   19.9431 C   0  0  0  0  0  0  0  0  0  0  0  0
  -22.3498   -8.1401   21.4750 C   0  0  0  0  0  0  0  0  0  0  0  0
  -29.7846  -24.2717   20.8748 C   0  0  0  0  0  0  0  0  0  0  0  0
  -20.3316   -6.9594   21.2400 C   0  0  0  0  0  0  0  0  0  0  0  0
  -17.7185   -6.8528   20.2690 C   0  0  0  0  0  0  0  0  0  0  0  0
  -19.9622   -5.9597   20.3401 C   0  0  0  0  0  0  0  0  0  0  0  0
  -24.5933  -11.6430   20.7043 C   0  0  0  0  0  0  0  0  0  0  0  0
  -31.3368  -20.3847   21.5568 C   0  0  0  0  0  0  0  0  0  0  0  0
  -31.5013  -19.1345   21.0046 C   0  0  0  0  0  0  0  0  0  0  0  0
  -25.2501  -13.7285   20.4707 C   0  0  0  0  0  0  0  0  0  0  0  0
  -33.3580  -20.3043   20.9109 C   0  0  0  0  0  0  0  0  0  0  0  0
  -22.8881  -13.4887   21.2530 C   0  0  0  0  0  0  0  0  0  0  0  0
  -25.7322  -27.9421   21.0715 C   0  0  0  0  0  0  0  0  0  0  0  0
  -25.3264  -27.2496   17.8452 C   0  0  0  0  0  0  0  0  0  0  0  0
  -22.4346  -29.0597   17.8721 C   0  0  0  0  0  0  0  0  0  0  0  0
  -30.7298  -14.7697   20.6570 C   0  0  0  0  0  0  0  0  0  0  0  0
  -22.7536  -31.5154   23.1733 C   0  0  0  0  0  0  0  0  0  0  0  0
  -28.0795  -28.1636   20.1814 C   0  0  0  0  0  0  0  0  0  0  0  0
  -26.7099  -25.7327   19.1932 C   0  0  0  0  0  0  0  0  0  0  0  0
  -22.5991  -30.4809   22.0614 C   0  0  0  0  0  0  0  0  0  0  0  0
  -35.6644  -17.0480   19.5694 C   0  0  0  0  0  0  0  0  0  0  0  0
  -35.5306  -18.1877   18.5740 C   0  0  0  0  0  0  0  0  0  0  0  0
  -29.6024  -12.3713   18.2793 C   0  0  0  0  0  0  0  0  0  0  0  0
  -23.0736  -29.1113   22.5367 C   0  0  0  0  0  0  0  0  0  0  0  0
  -29.0761  -19.6924   22.3349 C   0  0  0  0  0  0  0  0  0  0  0  0
  -29.0833  -18.6740   21.1697 C   0  0  0  0  0  0  0  0  0  0  0  0
  -34.6413  -17.3984   20.6397 C   0  0  0  0  0  0  0  0  0  0  0  0
  -34.0264  -18.4195   18.4854 C   0  0  0  0  0  0  0  0  0  0  0  0
  -28.1659  -12.0737   18.7128 C   0  0  0  0  0  0  0  0  0  0  0  0
  -30.5182  -12.6005   19.4796 C   0  0  0  0  0  0  0  0  0  0  0  0
  -28.6131  -13.3296   20.8626 C   0  0  0  0  0  0  0  0  0  0  0  0
  -24.5606  -29.1416   22.9098 C   0  0  1  0  0  0  0  0  0  0  0  0
  -30.0503  -20.8838   22.1171 C   0  0  2  0  0  0  0  0  0  0  0  0
  -30.4826  -18.0556   20.9009 C   0  0  2  0  0  0  0  0  0  0  0  0
  -26.5878  -28.1492   19.8540 C   0  0  1  0  0  0  0  0  0  0  0  0
  -33.4654  -18.0150   19.8633 C   0  0  0  0  0  0  0  0  0  0  0  0
  -27.6401  -13.1465   19.6853 C   0  0  2  0  0  0  0  0  0  0  0  0
  -20.6826  -29.9963   16.3388 C   0  0  0  0  0  0  0  0  0  0  0  0
  -27.2510  -29.4613   17.0026 C   0  0  0  0  0  0  0  0  0  0  0  0
  -25.2697  -30.8203   16.2986 C   0  0  0  0  0  0  0  0  0  0  0  0
  -25.7444  -28.6401   15.1833 C   0  0  0  0  0  0  0  0  0  0  0  0
  -20.2941  -27.4711   19.1581 C   0  0  0  0  0  0  0  0  0  0  0  0
  -29.4284  -21.9437   21.2055 C   0  0  0  0  0  0  0  0  0  1  0  0
  -30.7868  -16.9254   21.8854 C   0  0  0  0  0  0  0  0  0  0  0  0
  -24.8610  -28.6540   17.5521 C   0  0  1  0  0  0  0  0  0  0  0  0
  -21.0892  -28.8190   17.2114 C   0  0  2  0  0  0  0  0  0  0  0  0
  -25.7837  -29.3843   16.5358 C   0  0  0  0  0  0  0  0  0  0  0  0
  -25.8587  -11.5505   20.2868 N   0  0  0  0  0  0  0  0  0  0  0  0
  -32.4973  -21.1093   21.4998 N   0  0  0  0  0  0  0  0  0  0  0  0
  -32.7989  -19.0953   20.5856 N   0  0  0  0  0  0  0  0  0  0  0  0
  -26.2306  -12.8350   20.1536 N   0  0  0  0  0  0  0  0  0  0  0  0
  -26.2369  -27.0915   18.8977 N   0  0  0  0  0  0  0  0  0  0  0  0
  -29.9633  -13.6303   20.3613 N   0  0  0  0  0  0  0  0  0  0  0  0
  -25.4554  -15.0604   20.3925 N   0  0  0  0  0  0  0  0  0  0  0  0
  -34.6569  -20.5410   20.6075 N   0  0  0  0  0  0  0  0  0  0  0  0
  -21.8796  -12.5769   21.5935 N   0  0  0  0  0  0  0  0  0  0  0  0
  -25.3814  -29.1118   21.7183 N   0  0  0  0  0  0  0  0  0  0  0  0
  -23.4708  -28.5424   17.1239 N   0  0  0  0  0  0  0  0  0  0  0  0
  -30.1267  -15.6995   21.4951 N   0  0  0  0  0  0  0  0  0  0  0  0
  -20.0345  -28.6130   18.2439 N   0  3  0  0  0  0  0  0  0  0  0  0
  -22.6471  -14.7186   21.3054 O   0  0  0  0  0  0  0  0  0  0  0  0
  -25.4125  -26.8053   21.3990 O   0  0  0  0  0  0  0  0  0  0  0  0
  -24.9018  -26.3177   17.1564 O   0  0  0  0  0  0  0  0  0  0  0  0
  -22.5545  -29.6510   18.9428 O   0  0  0  0  0  0  0  0  0  0  0  0
  -31.8652  -14.9478   20.2031 O   0  0  0  0  0  0  0  0  0  0  0  0
  -21.6281   -7.0132   21.7235 O   0  0  0  0  0  0  0  0  0  0  0  0
  -30.3301  -23.0435   21.0890 O   0  0  0  0  0  0  0  0  0  1  0  0
  -16.4634   -6.8009   19.8040 F   0  0  0  0  0  0  0  0  0  0  0  0
  -20.8579   -5.0471   19.9392 F   0  0  0  0  0  0  0  0  0  0  0  0
  1  2  1  0  0  0  0
  1  5  2  0  0  0  0
  2  6  2  0  0  0  0
  3  8  2  0  0  0  0
  3 15  1  0  0  0  0
  4  9  1  0  0  0  0
  4 15  2  0  0  0  0
  5 17  1  0  0  0  0
  6 19  1  0  0  0  0
  7 10  2  0  0  0  0
  7 18  1  0  0  0  0
  8 21  1  0  0  0  0
  9 21  2  0  0  0  0
 10 22  1  0  0  0  0
 11 12  2  0  0  0  0
 11 23  1  0  0  0  0
 12 24  1  0  0  0  0
 13 20  1  0  0  0  0
 13 22  2  0  0  0  0
 14 24  2  0  0  0  0
 14 25  1  0  0  0  0
 15 26  1  0  0  0  0
 16 26  1  0  0  0  0
 16 29  2  0  0  0  0
 16 31  1  0  0  0  0
 17 19  2  0  0  0  0
 17 36  1  0  0  0  0
 18 20  2  0  0  0  0
 18 37  1  0  0  0  0
 19 51  1  0  0  0  0
 20 38  1  0  0  0  0
 21 85  1  0  0  0  0
 22 86  1  0  0  0  0
 23 25  2  0  0  0  0
 23 85  1  0  0  0  0
 24 87  1  0  0  0  0
 25 88  1  0  0  0  0
 26 67  2  0  0  0  0
 27 28  2  0  0  0  0
 27 52  1  0  0  0  0
 27 68  1  0  0  0  0
 28 53  1  0  0  0  0
 28 69  1  0  0  0  0
 29 70  1  0  0  0  0
 29 73  1  0  0  0  0
 30 68  2  0  0  0  0
 30 69  1  0  0  0  0
 30 74  1  0  0  0  0
 31 75  1  0  0  0  0
 31 80  2  0  0  0  0
 32 54  1  0  0  0  0
 32 76  1  0  0  0  0
 32 81  2  0  0  0  0
 33 64  1  0  0  0  0
 33 71  1  0  0  0  0
 33 82  2  0  0  0  0
 34 65  1  0  0  0  0
 34 77  1  0  0  0  0
 34 83  2  0  0  0  0
 35 72  1  0  0  0  0
 35 78  1  0  0  0  0
 35 84  2  0  0  0  0
 36 39  1  0  0  0  0
 37 54  1  0  0  0  0
 38 71  1  0  0  0  0
 39 43  1  0  0  0  0
 40 41  1  0  0  0  0
 40 46  1  0  0  0  0
 41 47  1  0  0  0  0
 42 48  1  0  0  0  0
 42 49  1  0  0  0  0
 43 51  1  0  0  0  0
 44 45  1  0  0  0  0
 44 52  1  0  0  0  0
 45 53  1  0  0  0  0
 46 55  1  0  0  0  0
 47 55  1  0  0  0  0
 48 56  1  0  0  0  0
 49 72  1  0  0  0  0
 50 56  1  0  0  0  0
 50 72  1  0  0  0  0
 51 76  1  0  0  0  0
 52 62  1  0  0  0  0
 53 63  1  0  0  0  0
 54 71  1  0  0  0  0
 55 69  1  0  0  0  0
 56 70  1  0  0  0  0
 57 65  1  0  0  0  0
 58 66  1  0  0  0  0
 59 66  1  0  0  0  0
 60 66  1  0  0  0  0
 61 79  1  0  0  0  0
 62 86  1  0  0  0  0
 63 78  1  0  0  0  0
 64 66  1  0  0  0  0
 64 77  1  0  0  0  0
 65 79  1  0  0  0  0
 67 70  1  0  0  0  0
M  CHG  1  79   1
M  ISO  4  35 100  62 101  78 100  86 101
M  END
> <Batch ID>
0024

> <Smiles>
CNC(C)C(=O)NC(C(=O)N1Cc2cc([101O:1][101CH2:1]C3CCC(C[100NH:0][100C:0](=O)N4CCCC(n5nc(-c6ccc(Oc7ccc(F)cc7F)cc6)c(C(N)=O)c5N)C4)c4c3nc(N)n4C3CCCC3)ccc2CC1C(=O)NC1CCCc2ccccc21)C(C)(C)C

> <Shape>
0.299

> <Color>
0.177

> <Negative vol penalty>
0.000

$$$$

  -OEChem-04052316223D

100109  0     1  0  0  0  0  0999 V2000
  -29.2832  -29.9074   27.3606 C   0  0  0  0  0  0  0  0  0  0  0  0
  -29.0469  -28.7840   26.5748 C   0  0  0  0  0  0  0  0  0  0  0  0
  -24.3807   -9.4407   21.2304 C   0  0  0  0  0  0  0  0  0  0  0  0
  -24.9880  -10.4394   23.3449 C   0  0  0  0  0  0  0  0  0  0  0  0
  -28.4402  -31.0138   27.2646 C   0  0  0  0  0  0  0  0  0  0  0  0
  -27.9667  -28.7659   25.6931 C   0  0  0  0  0  0  0  0  0  0  0  0
  -27.7343  -26.0461   20.2110 C   0  0  0  0  0  0  0  0  0  0  0  0
  -24.1936   -8.2124   21.8643 C   0  0  0  0  0  0  0  0  0  0  0  0
  -24.8008   -9.2111   23.9788 C   0  0  0  0  0  0  0  0  0  0  0  0
  -27.2102  -24.8241   19.7916 C   0  0  0  0  0  0  0  0  0  0  0  0
  -23.2066   -4.8984   22.9861 C   0  0  0  0  0  0  0  0  0  0  0  0
  -22.0638   -4.1680   22.6603 C   0  0  0  0  0  0  0  0  0  0  0  0
  -25.1740  -25.9329   19.1255 C   0  0  0  0  0  0  0  0  0  0  0  0
  -20.6786   -5.9906   23.4325 C   0  0  0  0  0  0  0  0  0  0  0  0
  -24.7780  -10.5542   21.9707 C   0  0  0  0  0  0  0  0  0  0  0  0
  -24.0109  -12.8322   21.1161 C   0  0  0  0  0  0  0  0  0  0  0  0
  -27.3548  -31.0130   26.3743 C   0  0  0  0  0  0  0  0  0  0  0  0
  -26.9768  -27.2210   20.1006 C   0  0  0  0  0  0  0  0  0  0  0  0
  -27.1076  -29.8728   25.5860 C   0  0  0  0  0  0  0  0  0  0  0  0
  -25.6918  -27.1689   19.5418 C   0  0  0  0  0  0  0  0  0  0  0  0
  -24.6900  -15.7783   22.8695 C   0  0  0  0  0  0  0  0  0  0  0  0
  -25.1178  -17.0675   22.5724 C   0  0  0  0  0  0  0  0  0  0  0  0
  -24.4036   -8.0976   23.2385 C   0  0  0  0  0  0  0  0  0  0  0  0
  -25.9288  -24.7669   19.2514 C   0  0  0  0  0  0  0  0  0  0  0  0
  -23.0854   -6.1750   23.5352 C   0  0  0  0  0  0  0  0  0  0  0  0
  -20.7999   -4.7140   22.8835 C   0  0  0  0  0  0  0  0  0  0  0  0
  -21.8214   -6.7210   23.7584 C   0  0  0  0  0  0  0  0  0  0  0  0
  -23.3296  -15.5093   22.9709 C   0  0  0  0  0  0  0  0  0  0  0  0
  -24.9720  -11.8232   21.3164 C   0  0  0  0  0  0  0  0  0  0  0  0
  -24.1529  -18.0445   22.3872 C   0  0  0  0  0  0  0  0  0  0  0  0
  -22.4448  -16.5561   22.7681 C   0  0  0  0  0  0  0  0  0  0  0  0
  -24.6890  -13.8256   20.4531 C   0  0  0  0  0  0  0  0  0  0  0  0
  -22.6287  -12.8682   21.4956 C   0  0  0  0  0  0  0  0  0  0  0  0
  -25.8224  -29.3476   22.1618 C   0  0  0  0  0  0  0  0  0  0  0  0
  -24.9676  -30.9235   19.4585 C   0  0  0  0  0  0  0  0  0  0  0  0
  -24.2205  -30.7752   16.1318 C   0  0  0  0  0  0  0  0  0  0  0  0
  -29.4278  -16.9620   20.2980 C   0  0  0  0  0  0  0  0  0  0  0  0
  -26.4434  -32.2141   26.3398 C   0  0  0  0  0  0  0  0  0  0  0  0
  -27.5667  -28.5353   20.5329 C   0  0  0  0  0  0  0  0  0  0  0  0
  -24.8455  -28.4046   19.3828 C   0  0  0  0  0  0  0  0  0  0  0  0
  -25.5413  -32.2590   25.1091 C   0  0  0  0  0  0  0  0  0  0  0  0
  -29.2577  -13.8485   18.3033 C   0  0  0  0  0  0  0  0  0  0  0  0
  -24.8980  -30.8969   24.8687 C   0  0  0  0  0  0  0  0  0  0  0  0
  -28.0904  -13.1032   18.9481 C   0  0  0  0  0  0  0  0  0  0  0  0
  -30.0099  -19.1206   22.3061 C   0  0  0  0  0  0  0  0  0  0  0  0
  -29.9598  -14.7702   19.2959 C   0  0  0  0  0  0  0  0  0  0  0  0
  -27.8813  -14.9874   20.6174 C   0  0  0  0  0  0  0  0  0  0  0  0
  -30.8447  -21.3315   21.4287 C   0  0  0  0  0  0  0  0  0  0  0  0
  -25.9608  -29.8246   24.5999 C   0  0  1  0  0  0  0  0  0  0  0  0
  -26.5102  -29.5897   20.8481 C   0  0  1  0  0  0  0  0  0  0  0  0
  -30.4717  -20.5367   22.6776 C   0  0  2  0  0  0  0  0  0  0  0  0
  -27.1233  -14.0851   19.6321 C   0  0  2  0  0  0  0  0  0  0  0  0
  -28.8682  -19.1521   21.2828 C   0  0  1  0  0  0  0  0  0  0  0  0
  -29.2495  -19.9654   20.0380 C   0  0  1  0  0  0  0  0  0  0  0  0
  -32.0956  -21.8491   24.0521 C   0  0  0  0  0  0  0  0  0  0  0  0
  -28.4678  -21.0425   17.9220 C   0  0  0  0  0  0  0  0  0  0  0  0
  -27.1825  -13.0027   26.2469 C   0  0  0  0  0  0  0  0  0  0  0  0
  -23.5230  -32.2212   14.2031 C   0  0  0  0  0  0  0  0  0  0  0  0
  -22.1266  -31.0270   20.5667 C   0  0  0  0  0  0  0  0  0  0  0  0
  -21.3240  -31.5965   18.2646 C   0  0  0  0  0  0  0  0  0  0  0  0
  -22.8894  -33.1324   19.4533 C   0  0  0  0  0  0  0  0  0  0  0  0
  -26.6696  -30.1203   14.6047 C   0  0  0  0  0  0  0  0  0  0  0  0
  -25.7064  -14.6988   23.0763 C   0  0  0  0  0  0  0  0  0  0  0  0
  -26.5700  -17.3902   22.4544 C   0  0  0  0  0  0  0  0  0  0  0  0
  -24.5555  -19.4612   22.0629 C   0  0  0  0  0  0  0  0  0  0  0  0
  -31.6519  -20.4822   23.6457 C   0  0  0  0  0  0  0  0  0  0  0  0
  -28.0949  -20.1466   19.0583 C   0  0  0  0  0  0  0  0  0  0  0  0
  -26.9656  -13.2957   24.7709 C   0  0  0  0  0  0  0  0  0  0  0  0
  -25.8993  -14.3713   24.5639 C   0  0  0  0  0  0  0  0  0  0  0  0
  -23.9363  -20.0002   20.7684 C   0  0  0  0  0  0  0  0  0  0  0  0
  -24.2953  -21.4645   20.4966 C   0  0  0  0  0  0  0  0  0  0  0  0
  -23.6832  -21.9497   19.1837 C   0  0  0  0  0  0  0  0  0  0  0  0
  -27.0584  -17.4988   21.0053 C   0  0  0  0  0  0  0  0  0  0  0  0
  -23.9989  -23.4160   18.9249 C   0  0  0  0  0  0  0  0  0  1  0  0
  -23.7522  -30.9289   18.5632 C   0  0  1  0  0  0  0  0  0  0  0  0
  -24.6945  -31.6086   14.9549 C   0  0  2  0  0  0  0  0  0  0  0  0
  -22.5380  -31.6474   19.2166 C   0  0  0  0  0  0  0  0  0  0  0  0
  -26.1695  -12.1461   20.8205 N   0  0  0  0  0  0  0  0  0  0  0  0
  -22.8227  -17.8212   22.4778 N   0  0  0  0  0  0  0  0  0  0  0  0
  -25.9653  -13.3690   20.3021 N   0  0  0  0  0  0  0  0  0  0  0  0
  -25.4642  -29.6649   19.8260 N   0  0  0  0  0  0  0  0  0  0  0  0
  -29.0117  -15.6630   19.9629 N   0  0  0  0  0  0  0  0  0  0  0  0
  -21.0535  -16.3063   22.8667 N   0  0  0  0  0  0  0  0  0  0  0  0
  -24.3121  -15.0365   19.9902 N   0  0  0  0  0  0  0  0  0  0  0  0
  -22.0922  -11.7633   22.1707 N   0  0  0  0  0  0  0  0  0  0  0  0
  -26.4542  -29.9309   23.2435 N   0  0  0  0  0  0  0  0  0  0  0  0
  -24.1808  -31.5122   17.2965 N   0  0  0  0  0  0  0  0  0  0  0  0
  -28.4876  -17.7927   20.9263 N   0  0  0  0  0  0  0  0  0  0  0  0
  -29.6888  -21.3341   20.4829 N   0  3  0  0  0  0  0  0  0  0  0  0
  -25.4742  -30.7663   14.0043 N   0  3  0  0  0  0  0  0  0  0  0  0
  -21.8871  -13.8441   21.2290 O   0  0  0  0  0  0  0  0  0  0  0  0
  -24.7938  -28.6821   22.1917 O   0  0  0  0  0  0  0  0  0  0  0  0
  -25.4626  -31.9964   19.8127 O   0  0  0  0  0  0  0  0  0  0  0  0
  -23.9125  -29.5899   16.0276 O   0  0  0  0  0  0  0  0  0  0  0  0
  -30.5713  -17.3600   20.0410 O   0  0  0  0  0  0  0  0  0  0  0  0
  -24.2208   -6.8992   23.8574 O   0  0  0  0  0  0  0  0  0  0  0  0
  -25.4146  -23.5754   18.8419 O   0  0  0  0  0  0  0  0  0  1  0  0
  -19.7026   -4.0131   22.5691 F   0  0  0  0  0  0  0  0  0  0  0  0
  -21.6986   -7.9474   24.2845 F   0  0  0  0  0  0  0  0  0  0  0  0
  -22.7746  -13.9131   23.3377 Cl  0  0  0  0  0  0  0  0  0  0  0  0
  1  2  1  0  0  0  0
  1  5  2  0  0  0  0
  2  6  2  0  0  0  0
  3  8  2  0  0  0  0
  3 15  1  0  0  0  0
  4  9  1  0  0  0  0
  4 15  2  0  0  0  0
  5 17  1  0  0  0  0
  6 19  1  0  0  0  0
  7 10  2  0  0  0  0
  7 18  1  0  0  0  0
  8 23  1  0  0  0  0
  9 23  2  0  0  0  0
 10 24  1  0  0  0  0
 11 12  2  0  0  0  0
 11 25  1  0  0  0  0
 12 26  1  0  0  0  0
 13 20  1  0  0  0  0
 13 24  2  0  0  0  0
 14 26  2  0  0  0  0
 14 27  1  0  0  0  0
 15 29  1  0  0  0  0
 16 29  1  0  0  0  0
 16 32  2  0  0  0  0
 16 33  1  0  0  0  0
 17 19  2  0  0  0  0
 17 38  1  0  0  0  0
 18 20  2  0  0  0  0
 18 39  1  0  0  0  0
 19 49  1  0  0  0  0
 20 40  1  0  0  0  0
 21 22  2  0  0  0  0
 21 28  1  0  0  0  0
 21 63  1  0  0  0  0
 22 30  1  0  0  0  0
 22 64  1  0  0  0  0
 23 96  1  0  0  0  0
 24 97  1  0  0  0  0
 25 27  2  0  0  0  0
 25 96  1  0  0  0  0
 26 98  1  0  0  0  0
 27 99  1  0  0  0  0
 28 31  2  0  0  0  0
 28100  1  0  0  0  0
 29 78  2  0  0  0  0
 30 65  1  0  0  0  0
 30 79  2  0  0  0  0
 31 79  1  0  0  0  0
 31 83  1  0  0  0  0
 32 80  1  0  0  0  0
 32 84  1  0  0  0  0
 33 85  1  0  0  0  0
 33 91  2  0  0  0  0
 34 50  1  0  0  0  0
 34 86  1  0  0  0  0
 34 92  2  0  0  0  0
 35 75  1  0  0  0  0
 35 81  1  0  0  0  0
 35 93  2  0  0  0  0
 36 76  1  0  0  0  0
 36 87  1  0  0  0  0
 36 94  2  0  0  0  0
 37 82  1  0  0  0  0
 37 88  1  0  0  0  0
 37 95  2  0  0  0  0
 38 41  1  0  0  0  0
 39 50  1  0  0  0  0
 40 81  1  0  0  0  0
 41 43  1  0  0  0  0
 42 44  1  0  0  0  0
 42 46  1  0  0  0  0
 43 49  1  0  0  0  0
 44 52  1  0  0  0  0
 45 51  1  0  0  0  0
 45 53  1  0  0  0  0
 46 82  1  0  0  0  0
 47 52  1  0  0  0  0
 47 82  1  0  0  0  0
 48 51  1  0  0  0  0
 48 89  1  0  0  0  0
 49 86  1  0  0  0  0
 50 81  1  0  0  0  0
 51 66  1  0  0  0  0
 52 80  1  0  0  0  0
 53 54  1  0  0  0  0
 53 88  1  0  0  0  0
 54 67  1  0  0  0  0
 54 89  1  0  0  0  0
 55 66  1  0  0  0  0
 56 67  1  0  0  0  0
 57 68  1  0  0  0  0
 58 76  1  0  0  0  0
 59 77  1  0  0  0  0
 60 77  1  0  0  0  0
 61 77  1  0  0  0  0
 62 90  1  0  0  0  0
 63 69  1  0  0  0  0
 64 73  1  0  0  0  0
 65 70  1  0  0  0  0
 68 69  1  0  0  0  0
 70 71  1  0  0  0  0
 71 72  1  0  0  0  0
 72 74  1  0  0  0  0
 73 88  1  0  0  0  0
 74 97  1  0  0  0  0
 75 77  1  0  0  0  0
 75 87  1  0  0  0  0
 76 90  1  0  0  0  0
 78 80  1  0  0  0  0
M  CHG  2  89   1  90   1
M  ISO  4  37 100  74 101  88 100  97 101
M  END
> <Batch ID>
0024

> <Smiles>
CCCCc1c(Cl)c(N)nc(CCCC[101CH2:1][101O:1]c2ccc3c(c2)CN(C(=O)C(NC(=O)C(C)NC)C(C)(C)C)C(C(=O)NC2CCCc4ccccc42)C3)c1CC[100N:0](C1CC(CC)CNC1CC)[100C:0](=O)N1CCCC(n2nc(-c3ccc(Oc4ccc(F)cc4F)cc3)c(C(N)=O)c2N)C1

> <Shape>
0.271

> <Color>
0.095

> <Negative vol penalty>
0.000

$$$$

  -OEChem-04052316223D

 88 96  0     1  0  0  0  0  0999 V2000
  -25.9722  -35.5329   21.9858 C   0  0  0  0  0  0  0  0  0  0  0  0
  -26.5293  -34.2582   21.9732 C   0  0  0  0  0  0  0  0  0  0  0  0
  -27.9200  -12.9010   18.5427 C   0  0  0  0  0  0  0  0  0  0  0  0
  -28.8284  -13.0081   20.7789 C   0  0  0  0  0  0  0  0  0  0  0  0
  -24.6667  -35.7174   22.4391 C   0  0  0  0  0  0  0  0  0  0  0  0
  -25.7815  -33.1673   22.4149 C   0  0  0  0  0  0  0  0  0  0  0  0
  -26.1733  -29.1677   19.3337 C   0  0  0  0  0  0  0  0  0  0  0  0
  -29.1183  -13.3999   18.0321 C   0  0  0  0  0  0  0  0  0  0  0  0
  -30.0267  -13.5070   20.2682 C   0  0  0  0  0  0  0  0  0  0  0  0
  -27.3341  -28.4014   19.4294 C   0  0  0  0  0  0  0  0  0  0  0  0
  -30.6474  -16.4009   17.7496 C   0  0  0  0  0  0  0  0  0  0  0  0
  -30.5717  -17.4094   16.7890 C   0  0  0  0  0  0  0  0  0  0  0  0
  -26.1491  -26.7848   20.7717 C   0  0  0  0  0  0  0  0  0  0  0  0
  -31.7361  -15.9957   15.2132 C   0  0  0  0  0  0  0  0  0  0  0  0
  -27.7750  -12.7052   19.9162 C   0  0  0  0  0  0  0  0  0  0  0  0
  -26.1961  -10.8398   20.6478 C   0  0  0  0  0  0  0  0  0  0  0  0
  -23.8991  -34.6269   22.8775 C   0  0  0  0  0  0  0  0  0  0  0  0
  -24.9926  -28.7530   19.9664 C   0  0  0  0  0  0  0  0  0  0  0  0
  -24.4649  -33.3376   22.8758 C   0  0  0  0  0  0  0  0  0  0  0  0
  -24.9740  -27.5463   20.6803 C   0  0  0  0  0  0  0  0  0  0  0  0
  -27.9658  -18.8988   20.6423 C   0  0  0  0  0  0  0  0  0  0  0  0
  -27.5462  -20.1582   20.2141 C   0  0  0  0  0  0  0  0  0  0  0  0
  -25.7013  -18.0789   20.4504 C   0  0  0  0  0  0  0  0  0  0  0  0
  -30.1717  -13.7028   18.8948 C   0  0  0  0  0  0  0  0  0  0  0  0
  -27.3229  -27.2113   20.1509 C   0  0  0  0  0  0  0  0  0  0  0  0
  -31.2675  -15.1899   17.4422 C   0  0  0  0  0  0  0  0  0  0  0  0
  -31.1160  -17.2067   15.5208 C   0  0  0  0  0  0  0  0  0  0  0  0
  -31.8118  -14.9872   16.1740 C   0  0  0  0  0  0  0  0  0  0  0  0
  -27.0434  -17.8591   20.7604 C   0  0  0  0  0  0  0  0  0  0  0  0
  -26.2041  -20.3780   19.9041 C   0  0  0  0  0  0  0  0  0  0  0  0
  -25.2816  -19.3384   20.0222 C   0  0  0  0  0  0  0  0  0  0  0  0
  -26.5372  -12.1904   20.4444 C   0  0  0  0  0  0  0  0  0  0  0  0
  -24.9238  -10.8810   21.1636 C   0  0  0  0  0  0  0  0  0  0  0  0
  -26.9610   -9.6541   20.3935 C   0  0  0  0  0  0  0  0  0  0  0  0
  -23.1316  -29.9490   22.2489 C   0  0  0  0  0  0  0  0  0  0  0  0
  -21.2362  -27.4307   21.4825 C   0  0  0  0  0  0  0  0  0  0  0  0
  -20.9761  -24.3014   20.1458 C   0  0  0  0  0  0  0  0  0  0  0  0
  -24.4479  -16.3020   21.7213 C   0  0  0  0  0  0  0  0  0  0  0  0
  -22.5087  -34.8824   23.4030 C   0  0  0  0  0  0  0  0  0  0  0  0
  -23.7417  -29.5774   19.8312 C   0  0  0  0  0  0  0  0  0  0  0  0
  -23.7268  -27.0467   21.3609 C   0  0  0  0  0  0  0  0  0  0  0  0
  -21.6539  -33.6215   23.5024 C   0  0  0  0  0  0  0  0  0  0  0  0
  -22.3070  -14.0705   19.7384 C   0  0  0  0  0  0  0  0  0  0  0  0
  -22.4428  -32.4920   24.1571 C   0  0  0  0  0  0  0  0  0  0  0  0
  -22.2105  -12.8381   20.6361 C   0  0  0  0  0  0  0  0  0  0  0  0
  -22.3658  -15.3478   20.5657 C   0  0  0  0  0  0  0  0  0  0  0  0
  -23.4332  -14.1577   22.4525 C   0  0  0  0  0  0  0  0  0  0  0  0
  -23.6769  -32.1258   23.3237 C   0  0  1  0  0  0  0  0  0  0  0  0
  -22.7320  -29.3182   20.9451 C   0  0  1  0  0  0  0  0  0  0  0  0
  -23.2852  -12.7987   21.7380 C   0  0  2  0  0  0  0  0  0  0  0  0
  -29.4114  -18.6799   20.9695 C   0  0  0  0  0  0  0  0  0  0  0  0
  -19.3044  -22.4855   19.6927 C   0  0  0  0  0  0  0  0  0  0  0  0
  -30.5018  -22.6039   17.1493 C   0  0  0  0  0  0  0  0  0  0  0  0
  -21.2643  -26.6708   24.4375 C   0  0  0  0  0  0  0  0  0  0  0  0
  -20.4167  -24.4053   23.7913 C   0  0  0  0  0  0  0  0  0  0  0  0
  -19.0398  -26.4314   23.3199 C   0  0  0  0  0  0  0  0  0  0  0  0
  -21.4435  -24.4398   17.2267 C   0  0  0  0  0  0  0  0  0  0  0  0
  -28.5554  -21.2620   20.0958 C   0  0  0  0  0  0  0  0  0  0  0  0
  -30.1142  -25.1998   19.0218 C   0  0  0  0  0  0  0  0  0  0  0  0
  -29.1628  -24.0261   18.7540 C   0  0  0  0  0  0  0  0  0  0  0  0
  -29.3691  -26.5238   19.1527 C   0  0  0  0  0  0  0  0  0  1  0  0
  -21.1196  -25.9995   21.9486 C   0  0  1  0  0  0  0  0  0  0  0  0
  -20.0060  -23.7147   19.1363 C   0  0  2  0  0  0  0  0  0  0  0  0
  -29.8870  -22.6920   18.5400 C   0  0  1  0  0  0  0  0  0  0  0  0
  -20.4843  -25.8869   23.3633 C   0  0  0  0  0  0  0  0  0  0  0  0
  -25.5604  -13.0284   20.8016 N   0  0  0  0  0  0  0  0  0  0  0  0
  -24.5929  -12.2022   21.2346 N   0  0  0  0  0  0  0  0  0  0  0  0
  -22.5310  -27.8913   21.2050 N   0  0  0  0  0  0  0  0  0  0  0  0
  -23.4727  -15.2966   21.5303 N   0  0  0  0  0  0  0  0  0  0  0  0
  -24.0670   -9.9155   21.5587 N   0  0  0  0  0  0  0  0  0  0  0  0
  -28.2506   -9.7921   19.8622 N   0  0  0  0  0  0  0  0  0  0  0  0
  -24.7677  -17.0198   20.5694 N   0  0  0  0  0  0  0  0  0  0  0  0
  -23.2959  -31.3195   22.1839 N   0  0  0  0  0  0  0  0  0  0  0  0
  -20.3867  -25.2892   20.9062 N   0  0  0  0  0  0  0  0  0  0  0  0
  -20.7272  -23.3216   17.8928 N   0  3  0  0  0  0  0  0  0  0  0  0
  -28.9263  -21.5634   18.6889 N   0  3  0  0  0  0  0  0  0  0  0  0
  -26.5079   -8.5056   20.6149 O   0  0  0  0  0  0  0  0  0  0  0  0
  -23.2785  -29.2447   23.2409 O   0  0  0  0  0  0  0  0  0  0  0  0
  -20.2153  -28.1125   21.3621 O   0  0  0  0  0  0  0  0  0  0  0  0
  -22.1393  -23.9189   20.2520 O   0  0  0  0  0  0  0  0  0  0  0  0
  -24.9838  -16.4874   22.8169 O   0  0  0  0  0  0  0  0  0  0  0  0
  -31.3412  -14.1894   18.3968 O   0  0  0  0  0  0  0  0  0  0  0  0
  -28.4548  -26.4618   20.2465 O   0  0  0  0  0  0  0  0  0  1  0  0
  -31.0418  -18.1746   14.5978 F   0  0  0  0  0  0  0  0  0  0  0  0
  -32.4077  -13.8255   15.8724 F   0  0  0  0  0  0  0  0  0  0  0  0
  -27.5748  -16.2937   21.2905 Cl  0  0  0  0  0  0  0  0  0  0  0  0
  -25.7119  -21.9574   19.3740 Cl  0  0  0  0  0  0  0  0  0  0  0  0
  -23.6034  -19.5924   19.6410 Cl  0  0  0  0  0  0  0  0  0  0  0  0
  1  2  1  0  0  0  0
  1  5  2  0  0  0  0
  2  6  2  0  0  0  0
  3  8  2  0  0  0  0
  3 15  1  0  0  0  0
  4  9  1  0  0  0  0
  4 15  2  0  0  0  0
  5 17  1  0  0  0  0
  6 19  1  0  0  0  0
  7 10  2  0  0  0  0
  7 18  1  0  0  0  0
  8 24  1  0  0  0  0
  9 24  2  0  0  0  0
 10 25  1  0  0  0  0
 11 12  2  0  0  0  0
 11 26  1  0  0  0  0
 12 27  1  0  0  0  0
 13 20  1  0  0  0  0
 13 25  2  0  0  0  0
 14 27  2  0  0  0  0
 14 28  1  0  0  0  0
 15 32  1  0  0  0  0
 16 32  1  0  0  0  0
 16 33  2  0  0  0  0
 16 34  1  0  0  0  0
 17 19  2  0  0  0  0
 17 39  1  0  0  0  0
 18 20  2  0  0  0  0
 18 40  1  0  0  0  0
 19 48  1  0  0  0  0
 20 41  1  0  0  0  0
 21 22  1  0  0  0  0
 21 29  2  0  0  0  0
 21 51  1  0  0  0  0
 22 30  2  0  0  0  0
 22 58  1  0  0  0  0
 23 29  1  0  0  0  0
 23 31  2  0  0  0  0
 23 72  1  0  0  0  0
 24 82  1  0  0  0  0
 25 83  1  0  0  0  0
 26 28  2  0  0  0  0
 26 82  1  0  0  0  0
 27 84  1  0  0  0  0
 28 85  1  0  0  0  0
 29 86  1  0  0  0  0
 30 31  1  0  0  0  0
 30 87  1  0  0  0  0
 31 88  1  0  0  0  0
 32 66  2  0  0  0  0
 33 67  1  0  0  0  0
 33 70  1  0  0  0  0
 34 71  1  0  0  0  0
 34 77  2  0  0  0  0
 35 49  1  0  0  0  0
 35 73  1  0  0  0  0
 35 78  2  0  0  0  0
 36 62  1  0  0  0  0
 36 68  1  0  0  0  0
 36 79  2  0  0  0  0
 37 63  1  0  0  0  0
 37 74  1  0  0  0  0
 37 80  2  0  0  0  0
 38 69  1  0  0  0  0
 38 72  1  0  0  0  0
 38 81  2  0  0  0  0
 39 42  1  0  0  0  0
 40 49  1  0  0  0  0
 41 68  1  0  0  0  0
 42 44  1  0  0  0  0
 43 45  1  0  0  0  0
 43 46  1  0  0  0  0
 44 48  1  0  0  0  0
 45 50  1  0  0  0  0
 46 69  1  0  0  0  0
 47 50  1  0  0  0  0
 47 69  1  0  0  0  0
 48 73  1  0  0  0  0
 49 68  1  0  0  0  0
 50 67  1  0  0  0  0
 52 63  1  0  0  0  0
 53 64  1  0  0  0  0
 54 65  1  0  0  0  0
 55 65  1  0  0  0  0
 56 65  1  0  0  0  0
 57 75  1  0  0  0  0
 58 76  1  0  0  0  0
 59 60  1  0  0  0  0
 59 61  1  0  0  0  0
 60 64  1  0  0  0  0
 61 83  1  0  0  0  0
 62 65  1  0  0  0  0
 62 74  1  0  0  0  0
 63 75  1  0  0  0  0
 64 76  1  0  0  0  0
 66 67  1  0  0  0  0
M  CHG  2  75   1  76   1
M  ISO  4  38 100  61 101  72 100  83 101
M  END
> <Batch ID>
0024

> <Smiles>
CNC(C)C(=O)NC(C(=O)N1Cc2cc([101O:1][101CH2:1]CCC(C)NCc3c(C)c(Cl)c([100NH:0][100C:0](=O)N4CCCC(n5nc(-c6ccc(Oc7ccc(F)cc7F)cc6)c(C(N)=O)c5N)C4)c(Cl)c3Cl)ccc2CC1C(=O)NC1CCCc2ccccc21)C(C)(C)C

> <Shape>
0.282

> <Color>
0.078

> <Negative vol penalty>
0.000

$$$$

  -OEChem-04052316223D

 85 93  0     1  0  0  0  0  0999 V2000
  -30.4633  -23.2656   25.1721 C   0  0  0  0  0  0  0  0  0  0  0  0
  -29.0837  -23.3956   25.0482 C   0  0  0  0  0  0  0  0  0  0  0  0
  -29.6954  -28.6327   18.6751 C   0  0  0  0  0  0  0  0  0  0  0  0
  -29.2706  -26.9734   20.3791 C   0  0  0  0  0  0  0  0  0  0  0  0
  -31.1704  -22.4665   24.2747 C   0  0  0  0  0  0  0  0  0  0  0  0
  -28.4106  -22.7272   24.0262 C   0  0  0  0  0  0  0  0  0  0  0  0
  -22.7838  -20.3232   24.2813 C   0  0  0  0  0  0  0  0  0  0  0  0
  -31.0318  -28.2369   18.6228 C   0  0  0  0  0  0  0  0  0  0  0  0
  -30.6071  -26.5776   20.3267 C   0  0  0  0  0  0  0  0  0  0  0  0
  -21.5427  -20.7932   23.8541 C   0  0  0  0  0  0  0  0  0  0  0  0
  -32.5639  -24.6770   18.3319 C   0  0  0  0  0  0  0  0  0  0  0  0
  -32.8323  -23.3086   18.3043 C   0  0  0  0  0  0  0  0  0  0  0  0
  -21.7844  -19.5483   21.8020 C   0  0  0  0  0  0  0  0  0  0  0  0
  -19.2362  -26.8015   20.6831 C   0  0  0  0  0  0  0  0  0  0  0  0
  -34.0920  -23.5143   20.3556 C   0  0  0  0  0  0  0  0  0  0  0  0
  -28.8147  -28.0010   19.5533 C   0  0  0  0  0  0  0  0  0  0  0  0
  -26.3658  -27.9005   18.8462 C   0  0  0  0  0  0  0  0  0  0  0  0
  -30.5044  -21.7803   23.2470 C   0  0  0  0  0  0  0  0  0  0  0  0
  -23.5406  -19.4694   23.4661 C   0  0  0  0  0  0  0  0  0  0  0  0
  -29.1096  -21.9192   23.1134 C   0  0  0  0  0  0  0  0  0  0  0  0
  -23.0336  -19.0668   22.2223 C   0  0  0  0  0  0  0  0  0  0  0  0
  -18.6908  -25.8105   21.4991 C   0  0  0  0  0  0  0  0  0  0  0  0
  -18.6102  -26.0082   22.8775 C   0  0  0  0  0  0  0  0  0  0  0  0
  -19.6206  -28.1881   22.6239 C   0  0  0  0  0  0  0  0  0  0  0  0
  -31.4877  -27.2093   19.4486 C   0  0  0  0  0  0  0  0  0  0  0  0
  -21.0441  -20.4081   22.6131 C   0  0  0  0  0  0  0  0  0  0  0  0
  -33.0597  -25.4642   19.3712 C   0  0  0  0  0  0  0  0  0  0  0  0
  -33.5963  -22.7272   19.3162 C   0  0  0  0  0  0  0  0  0  0  0  0
  -33.8237  -24.8829   20.3831 C   0  0  0  0  0  0  0  0  0  0  0  0
  -19.7012  -27.9903   21.2455 C   0  0  0  0  0  0  0  0  0  0  0  0
  -19.0751  -27.1970   23.4399 C   0  0  0  0  0  0  0  0  0  0  0  0
  -27.4342  -28.4099   19.6083 C   0  0  0  0  0  0  0  0  0  0  0  0
  -25.2712  -28.6141   19.2694 C   0  0  0  0  0  0  0  0  0  0  0  0
  -26.3630  -26.8740   17.8452 C   0  0  0  0  0  0  0  0  0  0  0  0
  -26.3907  -19.6452   22.0697 C   0  0  0  0  0  0  0  0  0  0  0  0
  -25.7668  -16.5585   21.2916 C   0  0  0  0  0  0  0  0  0  0  0  0
  -23.4413  -14.1187   20.7569 C   0  0  0  0  0  0  0  0  0  0  0  0
  -22.1914  -30.8296   23.3624 C   0  0  0  0  0  0  0  0  0  0  0  0
  -31.3175  -20.9658   22.2723 C   0  0  0  0  0  0  0  0  0  0  0  0
  -24.8656  -18.9498   23.9529 C   0  0  0  0  0  0  0  0  0  0  0  0
  -23.7978  -18.1358   21.3181 C   0  0  0  0  0  0  0  0  0  0  0  0
  -30.4811  -19.9927   21.4453 C   0  0  0  0  0  0  0  0  0  0  0  0
  -24.9548  -32.7386   22.1807 C   0  0  0  0  0  0  0  0  0  0  0  0
  -29.2397  -20.6888   20.8964 C   0  0  0  0  0  0  0  0  0  0  0  0
  -25.7607  -31.7393   21.3489 C   0  0  0  0  0  0  0  0  0  0  0  0
  -24.3307  -32.0777   23.4078 C   0  0  0  0  0  0  0  0  0  0  0  0
  -24.3236  -29.8819   22.2889 C   0  0  0  0  0  0  0  0  0  0  0  0
  -28.3406  -21.1904   22.0329 C   0  0  1  0  0  0  0  0  0  0  0  0
  -25.7816  -18.4952   22.8208 C   0  0  1  0  0  0  0  0  0  0  0  0
  -24.9260  -30.4894   21.0105 C   0  0  2  0  0  0  0  0  0  0  0  0
  -18.0208  -24.9305   23.7340 C   0  0  0  0  0  0  0  0  0  0  0  0
  -23.2329  -11.7068   20.0960 C   0  0  0  0  0  0  0  0  0  0  0  0
  -26.3271  -17.3083   18.3875 C   0  0  0  0  0  0  0  0  0  0  0  0
  -25.2039  -15.1808   17.6944 C   0  0  0  0  0  0  0  0  0  0  0  0
  -27.2667  -15.1013   19.0950 C   0  0  0  0  0  0  0  0  0  0  0  0
  -22.1597  -13.4049   23.3272 C   0  0  0  0  0  0  0  0  0  0  0  0
  -20.1216  -29.4674   23.2229 C   0  0  0  0  0  0  0  0  0  0  0  0
  -18.1987  -24.5419   20.8669 C   0  0  0  0  0  0  0  0  0  0  0  0
  -18.6227  -22.1043   20.5249 C   0  0  0  0  0  0  0  0  0  0  0  0
  -19.6491  -21.0198   20.7867 C   0  0  0  0  0  0  0  0  0  1  0  0
  -25.0915  -15.8633   20.1342 C   0  0  1  0  0  0  0  0  0  0  0  0
  -23.3513  -12.6868   21.2529 C   0  0  2  0  0  0  0  0  0  0  0  0
  -25.9585  -15.8825   18.8437 C   0  0  0  0  0  0  0  0  0  0  0  0
  -27.0529  -29.3728   20.4517 N   0  0  0  0  0  0  0  0  0  0  0  0
  -25.7326  -29.4743   20.2220 N   0  0  0  0  0  0  0  0  0  0  0  0
  -25.0912  -17.6598   21.8360 N   0  0  0  0  0  0  0  0  0  0  0  0
  -23.5514  -30.9002   23.0180 N   0  0  0  0  0  0  0  0  0  0  0  0
  -23.9687  -28.5835   18.9160 N   0  0  0  0  0  0  0  0  0  0  0  0
  -27.5746  -26.2430   17.5318 N   0  0  0  0  0  0  0  0  0  0  0  0
  -27.5848  -20.0945   22.6006 N   0  0  0  0  0  0  0  0  0  0  0  0
  -24.7501  -14.5252   20.6048 N   0  0  0  0  0  0  0  0  0  0  0  0
  -21.5250  -29.6825   22.9491 N   0  0  0  0  0  0  0  0  0  0  0  0
  -22.1624  -12.5180   22.1354 N   0  3  0  0  0  0  0  0  0  0  0  0
  -19.1118  -23.3881   21.0877 N   0  3  0  0  0  0  0  0  0  0  0  0
  -25.3199  -26.5379   17.2348 O   0  0  0  0  0  0  0  0  0  0  0  0
  -25.8205  -20.0908   21.0809 O   0  0  0  0  0  0  0  0  0  0  0  0
  -26.8504  -16.1355   21.7023 O   0  0  0  0  0  0  0  0  0  0  0  0
  -22.4498  -14.8064   20.5238 O   0  0  0  0  0  0  0  0  0  0  0  0
  -21.6126  -31.7251   23.9869 O   0  0  0  0  0  0  0  0  0  0  0  0
  -32.7917  -26.8226   19.3976 O   0  0  0  0  0  0  0  0  0  0  0  0
  -19.8333  -20.8660   22.1933 O   0  0  0  0  0  0  0  0  0  1  0  0
  -33.8526  -21.4127   19.2905 F   0  0  0  0  0  0  0  0  0  0  0  0
  -34.3017  -25.6338   21.3849 F   0  0  0  0  0  0  0  0  0  0  0  0
  -20.3689  -29.1901   20.1978 Cl  0  0  0  0  0  0  0  0  0  0  0  0
  -18.9736  -27.4400   25.1533 Cl  0  0  0  0  0  0  0  0  0  0  0  0
  1  2  1  0  0  0  0
  1  5  2  0  0  0  0
  2  6  2  0  0  0  0
  3  8  2  0  0  0  0
  3 16  1  0  0  0  0
  4  9  1  0  0  0  0
  4 16  2  0  0  0  0
  5 18  1  0  0  0  0
  6 20  1  0  0  0  0
  7 10  2  0  0  0  0
  7 19  1  0  0  0  0
  8 25  1  0  0  0  0
  9 25  2  0  0  0  0
 10 26  1  0  0  0  0
 11 12  2  0  0  0  0
 11 27  1  0  0  0  0
 12 28  1  0  0  0  0
 13 21  1  0  0  0  0
 13 26  2  0  0  0  0
 14 22  1  0  0  0  0
 14 30  2  0  0  0  0
 15 28  2  0  0  0  0
 15 29  1  0  0  0  0
 16 32  1  0  0  0  0
 17 32  1  0  0  0  0
 17 33  2  0  0  0  0
 17 34  1  0  0  0  0
 18 20  2  0  0  0  0
 18 39  1  0  0  0  0
 19 21  2  0  0  0  0
 19 40  1  0  0  0  0
 20 48  1  0  0  0  0
 21 41  1  0  0  0  0
 22 23  2  0  0  0  0
 22 58  1  0  0  0  0
 23 31  1  0  0  0  0
 23 51  1  0  0  0  0
 24 30  1  0  0  0  0
 24 31  2  0  0  0  0
 24 57  1  0  0  0  0
 25 80  1  0  0  0  0
 26 81  1  0  0  0  0
 27 29  2  0  0  0  0
 27 80  1  0  0  0  0
 28 82  1  0  0  0  0
 29 83  1  0  0  0  0
 30 84  1  0  0  0  0
 31 85  1  0  0  0  0
 32 64  2  0  0  0  0
 33 65  1  0  0  0  0
 33 68  1  0  0  0  0
 34 69  1  0  0  0  0
 34 75  2  0  0  0  0
 35 49  1  0  0  0  0
 35 70  1  0  0  0  0
 35 76  2  0  0  0  0
 36 61  1  0  0  0  0
 36 66  1  0  0  0  0
 36 77  2  0  0  0  0
 37 62  1  0  0  0  0
 37 71  1  0  0  0  0
 37 78  2  0  0  0  0
 38 67  1  0  0  0  0
 38 72  1  0  0  0  0
 38 79  2  0  0  0  0
 39 42  1  0  0  0  0
 40 49  1  0  0  0  0
 41 66  1  0  0  0  0
 42 44  1  0  0  0  0
 43 45  1  0  0  0  0
 43 46  1  0  0  0  0
 44 48  1  0  0  0  0
 45 50  1  0  0  0  0
 46 67  1  0  0  0  0
 47 50  1  0  0  0  0
 47 67  1  0  0  0  0
 48 70  1  0  0  0  0
 49 66  1  0  0  0  0
 50 65  1  0  0  0  0
 52 62  1  0  0  0  0
 53 63  1  0  0  0  0
 54 63  1  0  0  0  0
 55 63  1  0  0  0  0
 56 73  1  0  0  0  0
 57 72  1  0  0  0  0
 58 74  1  0  0  0  0
 59 60  1  0  0  0  0
 59 74  1  0  0  0  0
 60 81  1  0  0  0  0
 61 63  1  0  0  0  0
 61 71  1  0  0  0  0
 62 73  1  0  0  0  0
 64 65  1  0  0  0  0
M  CHG  2  73   1  74   1
M  ISO  4  38 100  60 101  72 100  81 101
M  END
> <Batch ID>
0024

> <Smiles>
CNC(C)C(=O)NC(C(=O)N1Cc2cc([101O:1][101CH2:1]CNCc3cc(Cl)c(C[100NH:0][100C:0](=O)N4CCCC(n5nc(-c6ccc(Oc7ccc(F)cc7F)cc6)c(C(N)=O)c5N)C4)c(Cl)c3C)ccc2CC1C(=O)NC1CCCc2ccccc21)C(C)(C)C

> <Shape>
0.199

> <Color>
0.077

> <Negative vol penalty>
0.000

$$$$

  -OEChem-04052316223D

 90 98  0     1  0  0  0  0  0999 V2000
  -21.8808  -34.9092   15.3048 C   0  0  0  0  0  0  0  0  0  0  0  0
  -22.6084  -33.7280   15.4083 C   0  0  0  0  0  0  0  0  0  0  0  0
  -23.9422   -9.4493   21.4347 C   0  0  0  0  0  0  0  0  0  0  0  0
  -24.3570  -10.5265   23.5571 C   0  0  0  0  0  0  0  0  0  0  0  0
  -22.0800  -35.9327   16.2304 C   0  0  0  0  0  0  0  0  0  0  0  0
  -23.5364  -33.5699   16.4370 C   0  0  0  0  0  0  0  0  0  0  0  0
  -24.8972  -28.3879   19.4036 C   0  0  0  0  0  0  0  0  0  0  0  0
  -23.4222   -8.3390   22.0999 C   0  0  0  0  0  0  0  0  0  0  0  0
  -23.8369   -9.4162   24.2223 C   0  0  0  0  0  0  0  0  0  0  0  0
  -25.9348  -27.4682   19.2575 C   0  0  0  0  0  0  0  0  0  0  0  0
  -20.5258   -7.4740   23.6150 C   0  0  0  0  0  0  0  0  0  0  0  0
  -19.3367   -6.9275   23.1324 C   0  0  0  0  0  0  0  0  0  0  0  0
  -27.1599  -28.5807   21.0127 C   0  0  0  0  0  0  0  0  0  0  0  0
  -20.4604   -4.8240   22.7456 C   0  0  0  0  0  0  0  0  0  0  0  0
  -24.4097  -10.5430   22.1634 C   0  0  0  0  0  0  0  0  0  0  0  0
  -24.2418  -12.8264   21.0383 C   0  0  0  0  0  0  0  0  0  0  0  0
  -23.0040  -35.7833   17.2766 C   0  0  0  0  0  0  0  0  0  0  0  0
  -24.9881  -29.4192   20.3495 C   0  0  0  0  0  0  0  0  0  0  0  0
  -23.7491  -34.5929   17.3767 C   0  0  0  0  0  0  0  0  0  0  0  0
  -26.1210  -29.5106   21.1706 C   0  0  0  0  0  0  0  0  0  0  0  0
  -31.9964  -21.2445   23.2450 C   0  0  0  0  0  0  0  0  0  0  0  0
  -33.0595  -20.8606   22.4277 C   0  0  0  0  0  0  0  0  0  0  0  0
  -31.3346  -20.2931   24.0214 C   0  0  0  0  0  0  0  0  0  0  0  0
  -32.7990  -18.5739   23.1629 C   0  0  0  0  0  0  0  0  0  0  0  0
  -23.3695   -8.3225   23.4936 C   0  0  0  0  0  0  0  0  0  0  0  0
  -27.0676  -27.5662   20.0601 C   0  0  0  0  0  0  0  0  0  0  0  0
  -21.6823   -6.6956   23.6629 C   0  0  0  0  0  0  0  0  0  0  0  0
  -19.3040   -5.6025   22.6977 C   0  0  0  0  0  0  0  0  0  0  0  0
  -21.6496   -5.3705   23.2282 C   0  0  0  0  0  0  0  0  0  0  0  0
  -33.4607  -19.5253   22.3866 C   0  0  0  0  0  0  0  0  0  0  0  0
  -31.7359  -18.9579   23.9803 C   0  0  0  0  0  0  0  0  0  0  0  0
  -24.9476  -11.6900   21.4769 C   0  0  0  0  0  0  0  0  0  0  0  0
  -25.1976  -13.6184   20.4504 C   0  0  0  0  0  0  0  0  0  0  0  0
  -22.8470  -13.1381   21.1521 C   0  0  0  0  0  0  0  0  0  0  0  0
  -25.0283  -32.5945   20.2092 C   0  0  0  0  0  0  0  0  0  0  0  0
  -31.0623  -13.9450   21.3301 C   0  0  0  0  0  0  0  0  0  0  0  0
  -24.9351  -32.3498   23.4424 C   0  0  0  0  0  0  0  0  0  0  0  0
  -25.5641  -30.4776   26.2256 C   0  0  0  0  0  0  0  0  0  0  0  0
  -23.2190  -36.9359   18.2253 C   0  0  0  0  0  0  0  0  0  0  0  0
  -23.8486  -30.3872   20.5131 C   0  0  0  0  0  0  0  0  0  0  0  0
  -26.2586  -30.5871   22.2150 C   0  0  0  0  0  0  0  0  0  0  0  0
  -23.9506  -36.5423   19.5060 C   0  0  0  0  0  0  0  0  0  0  0  0
  -29.3809  -13.3744   18.1561 C   0  0  0  0  0  0  0  0  0  0  0  0
  -25.1654  -35.6783   19.1828 C   0  0  0  0  0  0  0  0  0  0  0  0
  -27.9878  -12.9514   18.6199 C   0  0  0  0  0  0  0  0  0  0  0  0
  -30.4654  -12.8707   19.1049 C   0  0  0  0  0  0  0  0  0  0  0  0
  -28.8659  -12.8569   20.9933 C   0  0  0  0  0  0  0  0  0  0  0  0
  -24.7470  -34.3741   18.4932 C   0  0  1  0  0  0  0  0  0  0  0  0
  -24.2716  -31.7051   21.1547 C   0  0  1  0  0  0  0  0  0  0  0  0
  -27.7409  -13.3711   20.0795 C   0  0  2  0  0  0  0  0  0  0  0  0
  -33.7581  -21.8972   21.6026 C   0  0  0  0  0  0  0  0  0  0  0  0
  -30.1957  -20.7255   24.8930 C   0  0  0  0  0  0  0  0  0  0  0  0
  -25.4186  -30.5601   28.7295 C   0  0  0  0  0  0  0  0  0  0  0  0
  -34.7389  -15.0459   21.3814 C   0  0  0  0  0  0  0  0  0  0  0  0
  -27.4020  -34.1437   23.5242 C   0  0  0  0  0  0  0  0  0  0  0  0
  -27.7618  -33.4227   25.8946 C   0  0  0  0  0  0  0  0  0  0  0  0
  -25.6838  -34.6526   25.2687 C   0  0  0  0  0  0  0  0  0  0  0  0
  -23.6947  -28.1847   26.3084 C   0  0  0  0  0  0  0  0  0  0  0  0
  -31.5628  -22.6882   23.2900 C   0  0  0  0  0  0  0  0  0  0  0  0
  -33.2299  -17.1385   23.1185 C   0  0  0  0  0  0  0  0  0  0  0  0
  -32.4126  -14.2917   20.7552 C   0  0  0  0  0  0  0  0  0  0  0  0
  -30.7034  -23.1144   22.0944 C   0  0  0  0  0  0  0  0  0  0  0  0
  -30.2094  -24.5609   22.1966 C   0  0  0  0  0  0  0  0  0  0  0  0
  -29.3843  -24.9516   20.9718 C   0  0  0  0  0  0  0  0  0  0  0  0
  -28.8532  -26.3738   21.0827 C   0  0  0  0  0  0  0  0  0  1  0  0
  -25.9697  -32.2494   24.5372 C   0  0  1  0  0  0  0  0  0  0  0  0
  -24.7122  -30.1640   27.4423 C   0  0  2  0  0  0  0  0  0  0  0  0
  -33.2698  -15.0307   21.7790 C   0  0  2  0  0  0  0  0  0  0  0  0
  -26.7029  -33.5979   24.7853 C   0  0  0  0  0  0  0  0  0  0  0  0
  -26.2511  -11.7508   21.1918 N   0  0  0  0  0  0  0  0  0  0  0  0
  -26.3719  -12.9348   20.5677 N   0  0  0  0  0  0  0  0  0  0  0  0
  -25.1205  -31.5135   22.3324 N   0  0  0  0  0  0  0  0  0  0  0  0
  -30.1793  -13.2678   20.4887 N   0  0  0  0  0  0  0  0  0  0  0  0
  -25.1397  -14.8260   19.8496 N   0  0  0  0  0  0  0  0  0  0  0  0
  -22.0052  -12.2135   21.7851 N   0  0  0  0  0  0  0  0  0  0  0  0
  -24.2248  -33.4348   19.4625 N   0  0  0  0  0  0  0  0  0  0  0  0
  -25.2759  -31.7224   25.7074 N   0  0  0  0  0  0  0  0  0  0  0  0
  -24.4103  -28.7058   27.5014 N   0  3  0  0  0  0  0  0  0  0  0  0
  -32.8072  -16.4410   21.8765 N   0  3  0  0  0  0  0  0  0  0  0  0
  -22.3587  -14.1977   20.6912 O   0  0  0  0  0  0  0  0  0  0  0  0
  -26.2508  -32.5245   20.1617 O   0  0  0  0  0  0  0  0  0  0  0  0
  -30.8011  -14.2695   22.4914 O   0  0  0  0  0  0  0  0  0  0  0  0
  -23.9933  -33.1360   23.5707 O   0  0  0  0  0  0  0  0  0  0  0  0
  -26.4040  -29.6978   25.7816 O   0  0  0  0  0  0  0  0  0  0  0  0
  -22.8618   -7.2394   24.1430 O   0  0  0  0  0  0  0  0  0  0  0  0
  -28.0821  -26.6702   19.9191 O   0  0  0  0  0  0  0  0  0  1  0  0
  -18.1616   -5.0773   22.2358 F   0  0  0  0  0  0  0  0  0  0  0  0
  -22.7571   -4.6174   23.2729 F   0  0  0  0  0  0  0  0  0  0  0  0
  -34.7821  -19.0512   21.3692 Cl  0  0  0  0  0  0  0  0  0  0  0  0
  -30.9120  -17.7782   24.9474 Cl  0  0  0  0  0  0  0  0  0  0  0  0
  1  2  1  0  0  0  0
  1  5  2  0  0  0  0
  2  6  2  0  0  0  0
  3  8  2  0  0  0  0
  3 15  1  0  0  0  0
  4  9  1  0  0  0  0
  4 15  2  0  0  0  0
  5 17  1  0  0  0  0
  6 19  1  0  0  0  0
  7 10  2  0  0  0  0
  7 18  1  0  0  0  0
  8 25  1  0  0  0  0
  9 25  2  0  0  0  0
 10 26  1  0  0  0  0
 11 12  2  0  0  0  0
 11 27  1  0  0  0  0
 12 28  1  0  0  0  0
 13 20  1  0  0  0  0
 13 26  2  0  0  0  0
 14 28  2  0  0  0  0
 14 29  1  0  0  0  0
 15 32  1  0  0  0  0
 16 32  1  0  0  0  0
 16 33  2  0  0  0  0
 16 34  1  0  0  0  0
 17 19  2  0  0  0  0
 17 39  1  0  0  0  0
 18 20  2  0  0  0  0
 18 40  1  0  0  0  0
 19 48  1  0  0  0  0
 20 41  1  0  0  0  0
 21 22  1  0  0  0  0
 21 23  2  0  0  0  0
 21 59  1  0  0  0  0
 22 30  2  0  0  0  0
 22 51  1  0  0  0  0
 23 31  1  0  0  0  0
 23 52  1  0  0  0  0
 24 30  1  0  0  0  0
 24 31  2  0  0  0  0
 24 60  1  0  0  0  0
 25 85  1  0  0  0  0
 26 86  1  0  0  0  0
 27 29  2  0  0  0  0
 27 85  1  0  0  0  0
 28 87  1  0  0  0  0
 29 88  1  0  0  0  0
 30 89  1  0  0  0  0
 31 90  1  0  0  0  0
 32 70  2  0  0  0  0
 33 71  1  0  0  0  0
 33 74  1  0  0  0  0
 34 75  1  0  0  0  0
 34 80  2  0  0  0  0
 35 49  1  0  0  0  0
 35 76  1  0  0  0  0
 35 81  2  0  0  0  0
 36 61  1  0  0  0  0
 36 73  1  0  0  0  0
 36 82  2  0  0  0  0
 37 66  1  0  0  0  0
 37 72  1  0  0  0  0
 37 83  2  0  0  0  0
 38 67  1  0  0  0  0
 38 77  1  0  0  0  0
 38 84  2  0  0  0  0
 39 42  1  0  0  0  0
 40 49  1  0  0  0  0
 41 72  1  0  0  0  0
 42 44  1  0  0  0  0
 43 45  1  0  0  0  0
 43 46  1  0  0  0  0
 44 48  1  0  0  0  0
 45 50  1  0  0  0  0
 46 73  1  0  0  0  0
 47 50  1  0  0  0  0
 47 73  1  0  0  0  0
 48 76  1  0  0  0  0
 49 72  1  0  0  0  0
 50 71  1  0  0  0  0
 53 67  1  0  0  0  0
 54 68  1  0  0  0  0
 55 69  1  0  0  0  0
 56 69  1  0  0  0  0
 57 69  1  0  0  0  0
 58 78  1  0  0  0  0
 59 62  1  0  0  0  0
 60 79  1  0  0  0  0
 61 68  1  0  0  0  0
 62 63  1  0  0  0  0
 63 64  1  0  0  0  0
 64 65  1  0  0  0  0
 65 86  1  0  0  0  0
 66 69  1  0  0  0  0
 66 77  1  0  0  0  0
 67 78  1  0  0  0  0
 68 79  1  0  0  0  0
 70 71  1  0  0  0  0
M  CHG  2  78   1  79   1
M  ISO  4  36 100  61 100  65 101  86 101
M  END
> <Batch ID>
0024

> <Smiles>
CNC(C)C(=O)NC(C(=O)N1Cc2cc([101O:1][101CH2:1]CCCCc3c(C)c(Cl)c(CNC(C)[100CH2:0][100C:0](=O)N4CCCC(n5nc(-c6ccc(Oc7ccc(F)cc7F)cc6)c(C(N)=O)c5N)C4)c(Cl)c3C)ccc2CC1C(=O)NC1CCCc2ccccc21)C(C)(C)C

> <Shape>
0.282

> <Color>
0.169

> <Negative vol penalty>
0.000

$$$$

  -OEChem-04052316223D

 87 95  0     1  0  0  0  0  0999 V2000
  -22.1303  -16.0242   13.7380 C   0  0  0  0  0  0  0  0  0  0  0  0
  -23.3509  -15.4990   14.1500 C   0  0  0  0  0  0  0  0  0  0  0  0
  -26.3801  -27.6783   18.9286 C   0  0  0  0  0  0  0  0  0  0  0  0
  -26.6798  -27.5943   21.3245 C   0  0  0  0  0  0  0  0  0  0  0  0
  -21.2765  -16.6139   14.6692 C   0  0  0  0  0  0  0  0  0  0  0  0
  -23.7189  -15.5644   15.4935 C   0  0  0  0  0  0  0  0  0  0  0  0
  -26.9533  -11.4167   18.6306 C   0  0  0  0  0  0  0  0  0  0  0  0
  -25.9047  -28.9853   19.0339 C   0  0  0  0  0  0  0  0  0  0  0  0
  -26.2044  -28.9014   21.4298 C   0  0  0  0  0  0  0  0  0  0  0  0
  -28.3017  -11.3459   18.9777 C   0  0  0  0  0  0  0  0  0  0  0  0
  -27.2008  -32.0829   19.4322 C   0  0  0  0  0  0  0  0  0  0  0  0
  -27.6869  -33.0245   18.5253 C   0  0  0  0  0  0  0  0  0  0  0  0
  -27.7920  -12.3088   21.1300 C   0  0  0  0  0  0  0  0  0  0  0  0
  -25.4405  -33.4146   17.7261 C   0  0  0  0  0  0  0  0  0  0  0  0
  -26.7677  -26.9827   20.0740 C   0  0  0  0  0  0  0  0  0  0  0  0
  -28.5936  -25.2249   19.7848 C   0  0  0  0  0  0  0  0  0  0  0  0
  -21.6300  -16.6779   16.0262 C   0  0  0  0  0  0  0  0  0  0  0  0
  -26.0141  -11.9452   19.5279 C   0  0  0  0  0  0  0  0  0  0  0  0
  -22.8696  -16.1568   16.4434 C   0  0  0  0  0  0  0  0  0  0  0  0
  -26.4319  -12.3829   20.7928 C   0  0  0  0  0  0  0  0  0  0  0  0
  -30.4094  -16.5517   21.4605 C   0  0  0  0  0  0  0  0  0  0  0  0
  -29.2123  -17.2213   21.1056 C   0  0  0  0  0  0  0  0  0  0  0  0
  -25.8169  -29.5969   20.2845 C   0  0  0  0  0  0  0  0  0  0  0  0
  -28.7217  -11.7946   20.2265 C   0  0  0  0  0  0  0  0  0  0  0  0
  -25.8345  -31.8070   19.4861 C   0  0  0  0  0  0  0  0  0  0  0  0
  -26.8068  -33.6904   17.6723 C   0  0  0  0  0  0  0  0  0  0  0  0
  -24.9544  -32.4729   18.6331 C   0  0  0  0  0  0  0  0  0  0  0  0
  -27.2583  -25.6322   19.9659 C   0  0  0  0  0  0  0  0  0  0  0  0
  -30.8953  -17.1541   22.5999 C   0  0  0  0  0  0  0  0  0  0  0  0
  -28.5318  -23.8533   19.7453 C   0  0  0  0  0  0  0  0  0  0  0  0
  -29.0033  -18.2125   22.0389 C   0  0  0  0  0  0  0  0  0  0  0  0
  -29.7835  -26.0155   19.6632 C   0  0  0  0  0  0  0  0  0  0  0  0
  -24.0334  -14.4310   19.4963 C   0  0  0  0  0  0  0  0  0  0  0  0
  -22.9925  -13.1405   22.2844 C   0  0  0  0  0  0  0  0  0  0  0  0
  -23.6524  -11.1622   24.9858 C   0  0  0  0  0  0  0  0  0  0  0  0
  -26.6336  -19.0043   21.7167 C   0  0  0  0  0  0  0  0  0  0  0  0
  -20.6951  -17.3674   16.9881 C   0  0  0  0  0  0  0  0  0  0  0  0
  -24.5593  -11.9900   19.1484 C   0  0  0  0  0  0  0  0  0  0  0  0
  -25.4604  -12.9399   21.7999 C   0  0  0  0  0  0  0  0  0  0  0  0
  -20.9944  -17.0613   18.4534 C   0  0  0  0  0  0  0  0  0  0  0  0
  -24.5519  -20.7436   19.4105 C   0  0  0  0  0  0  0  0  0  0  0  0
  -22.4888  -17.1897   18.7312 C   0  0  0  0  0  0  0  0  0  0  0  0
  -25.1803  -22.1370   19.3345 C   0  0  0  0  0  0  0  0  0  0  0  0
  -24.6263  -20.1642   20.8221 C   0  0  0  0  0  0  0  0  0  0  0  0
  -26.5959  -21.5489   21.3438 C   0  0  0  0  0  0  0  0  0  0  0  0
  -23.2934  -16.1865   17.8959 C   0  0  1  0  0  0  0  0  0  0  0  0
  -23.7659  -13.0219   19.9441 C   0  0  1  0  0  0  0  0  0  0  0  0
  -26.6030  -22.1467   19.9274 C   0  0  2  0  0  0  0  0  0  0  0  0
  -28.3476  -16.9127   19.9473 C   0  0  0  0  0  0  0  0  0  0  0  0
  -22.6206  -10.3288   27.1162 C   0  0  0  0  0  0  0  0  0  0  0  0
  -23.4686  -15.8630   23.5773 C   0  0  0  0  0  0  0  0  0  0  0  0
  -23.3458  -14.7446   25.8139 C   0  0  0  0  0  0  0  0  0  0  0  0
  -21.3646  -14.7194   24.2982 C   0  0  0  0  0  0  0  0  0  0  0  0
  -30.8132  -13.0715   18.7363 C   0  0  0  0  0  0  0  0  0  0  0  0
  -32.2810  -12.5490   20.7014 C   0  0  0  0  0  0  0  0  0  0  0  0
  -30.1886  -19.0389   24.0850 C   0  0  0  0  0  0  0  0  0  0  0  0
  -23.8455   -8.3412   24.1120 C   0  0  0  0  0  0  0  0  0  0  0  0
  -31.0386  -15.3926   20.7274 C   0  0  0  0  0  0  0  0  0  0  0  0
  -30.3121  -14.0744   21.0308 C   0  0  0  0  0  0  0  0  0  0  0  0
  -23.3719  -13.2880   23.7382 C   0  0  1  0  0  0  0  0  0  0  0  0
  -22.8522  -10.0498   25.6392 C   0  0  2  0  0  0  0  0  0  0  0  0
  -32.1080  -16.8565   23.3919 C   0  0  0  0  0  0  0  0  0  0  0  0
  -22.9066  -14.6451   24.3374 C   0  0  0  0  0  0  0  0  0  0  0  0
  -30.8492  -12.8572   20.2510 C   0  0  0  0  0  0  0  0  0  1  0  0
  -26.4102  -24.6028   20.0364 N   0  0  0  0  0  0  0  0  0  0  0  0
  -30.0327  -18.1625   22.9423 N   0  0  0  0  0  0  0  0  0  0  0  0
  -27.2145  -23.5350   19.8988 N   0  0  0  0  0  0  0  0  0  0  0  0
  -24.0497  -12.9688   21.3796 N   0  0  0  0  0  0  0  0  0  0  0  0
  -26.0042  -20.2021   21.3167 N   0  0  0  0  0  0  0  0  0  0  0  0
  -29.4763  -22.9007   19.5944 N   0  0  0  0  0  0  0  0  0  0  0  0
  -29.6677  -27.4109   19.7259 N   0  0  0  0  0  0  0  0  0  0  0  0
  -27.9538  -19.1594   22.1379 N   0  0  0  0  0  0  0  0  0  0  0  0
  -23.2083  -14.8632   18.4756 N   0  0  0  0  0  0  0  0  0  0  0  0
  -22.8332  -12.1170   24.4215 N   0  0  0  0  0  0  0  0  0  0  0  0
  -23.5722   -8.7511   25.5135 N   0  3  0  0  0  0  0  0  0  0  0  0
  -30.9137  -25.5005   19.4873 O   0  0  0  0  0  0  0  0  0  0  0  0
  -24.9215  -15.0787   20.0379 O   0  0  0  0  0  0  0  0  0  0  0  0
  -21.8016  -13.1692   21.9644 O   0  0  0  0  0  0  0  0  0  0  0  0
  -24.8812  -11.1839   24.9802 O   0  0  0  0  0  0  0  0  0  0  0  0
  -26.0535  -17.9168   21.6621 O   0  0  0  0  0  0  0  0  0  0  0  0
  -25.3532  -30.8725   20.3876 O   0  0  0  0  0  0  0  0  0  0  0  0
  -30.0373  -11.7271   20.5676 O   0  0  0  0  0  0  0  0  0  1  0  0
  -27.2737  -34.5958   16.8025 F   0  0  0  0  0  0  0  0  0  0  0  0
  -23.6406  -32.2130   18.6810 F   0  0  0  0  0  0  0  0  0  0  0  0
  -32.8551  -15.8159   22.9029 F   0  0  0  0  0  0  0  0  0  0  0  0
  -32.9901  -17.9025   23.4789 F   0  0  0  0  0  0  0  0  0  0  0  0
  -31.8326  -16.5160   24.6899 F   0  0  0  0  0  0  0  0  0  0  0  0
  1  2  1  0  0  0  0
  1  5  2  0  0  0  0
  2  6  2  0  0  0  0
  3  8  2  0  0  0  0
  3 15  1  0  0  0  0
  4  9  1  0  0  0  0
  4 15  2  0  0  0  0
  5 17  1  0  0  0  0
  6 19  1  0  0  0  0
  7 10  2  0  0  0  0
  7 18  1  0  0  0  0
  8 23  1  0  0  0  0
  9 23  2  0  0  0  0
 10 24  1  0  0  0  0
 11 12  2  0  0  0  0
 11 25  1  0  0  0  0
 12 26  1  0  0  0  0
 13 20  1  0  0  0  0
 13 24  2  0  0  0  0
 14 26  2  0  0  0  0
 14 27  1  0  0  0  0
 15 28  1  0  0  0  0
 16 28  1  0  0  0  0
 16 30  2  0  0  0  0
 16 32  1  0  0  0  0
 17 19  2  0  0  0  0
 17 37  1  0  0  0  0
 18 20  2  0  0  0  0
 18 38  1  0  0  0  0
 19 46  1  0  0  0  0
 20 39  1  0  0  0  0
 21 22  1  0  0  0  0
 21 29  2  0  0  0  0
 21 58  1  0  0  0  0
 22 31  2  0  0  0  0
 22 49  1  0  0  0  0
 23 81  1  0  0  0  0
 24 82  1  0  0  0  0
 25 27  2  0  0  0  0
 25 81  1  0  0  0  0
 26 83  1  0  0  0  0
 27 84  1  0  0  0  0
 28 65  2  0  0  0  0
 29 62  1  0  0  0  0
 29 66  1  0  0  0  0
 30 67  1  0  0  0  0
 30 70  1  0  0  0  0
 31 66  1  0  0  0  0
 31 72  1  0  0  0  0
 32 71  1  0  0  0  0
 32 76  2  0  0  0  0
 33 47  1  0  0  0  0
 33 73  1  0  0  0  0
 33 77  2  0  0  0  0
 34 60  1  0  0  0  0
 34 68  1  0  0  0  0
 34 78  2  0  0  0  0
 35 61  1  0  0  0  0
 35 74  1  0  0  0  0
 35 79  2  0  0  0  0
 36 69  1  0  0  0  0
 36 72  1  0  0  0  0
 36 80  2  0  0  0  0
 37 40  1  0  0  0  0
 38 47  1  0  0  0  0
 39 68  1  0  0  0  0
 40 42  1  0  0  0  0
 41 43  1  0  0  0  0
 41 44  1  0  0  0  0
 42 46  1  0  0  0  0
 43 48  1  0  0  0  0
 44 69  1  0  0  0  0
 45 48  1  0  0  0  0
 45 69  1  0  0  0  0
 46 73  1  0  0  0  0
 47 68  1  0  0  0  0
 48 67  1  0  0  0  0
 50 61  1  0  0  0  0
 51 63  1  0  0  0  0
 52 63  1  0  0  0  0
 53 63  1  0  0  0  0
 54 64  1  0  0  0  0
 55 64  1  0  0  0  0
 56 66  1  0  0  0  0
 57 75  1  0  0  0  0
 58 59  1  0  0  0  0
 59 64  1  0  0  0  0
 60 63  1  0  0  0  0
 60 74  1  0  0  0  0
 61 75  1  0  0  0  0
 62 85  1  0  0  0  0
 62 86  1  0  0  0  0
 62 87  1  0  0  0  0
 64 82  1  0  0  0  0
 65 67  1  0  0  0  0
M  CHG  1  75   1
M  ISO  4  36 100  64 101  72 100  82 101
M  END
> <Batch ID>
0024

> <Smiles>
CNC(C)C(=O)NC(C(=O)N1Cc2cc([101O:1][101C:1](C)(C)CCc3c(C)c([100NH:0][100C:0](=O)N4CCCC(n5nc(-c6ccc(Oc7ccc(F)cc7F)cc6)c(C(N)=O)c5N)C4)n(C)c3C(F)(F)F)ccc2CC1C(=O)NC1CCCc2ccccc21)C(C)(C)C

> <Shape>
0.197

> <Color>
0.078

> <Negative vol penalty>
0.000

$$$$

  -OEChem-04052316223D

 96104  0     1  0  0  0  0  0999 V2000
  -18.9131   -8.2528   22.2997 C   0  0  0  0  0  0  0  0  0  0  0  0
  -18.6312   -9.4122   21.5843 C   0  0  0  0  0  0  0  0  0  0  0  0
  -29.0265  -24.1857   18.6593 C   0  0  0  0  0  0  0  0  0  0  0  0
  -27.6310  -23.8906   20.6093 C   0  0  0  0  0  0  0  0  0  0  0  0
  -19.9909   -8.2253   23.1837 C   0  0  0  0  0  0  0  0  0  0  0  0
  -19.4263  -10.5451   21.7534 C   0  0  0  0  0  0  0  0  0  0  0  0
  -21.9549  -16.1827   18.1284 C   0  0  0  0  0  0  0  0  0  0  0  0
  -29.4594  -22.8643   18.7691 C   0  0  0  0  0  0  0  0  0  0  0  0
  -28.0638  -22.5692   20.7191 C   0  0  0  0  0  0  0  0  0  0  0  0
  -22.0246  -17.5727   18.2103 C   0  0  0  0  0  0  0  0  0  0  0  0
  -30.7876  -20.9268   21.8658 C   0  0  0  0  0  0  0  0  0  0  0  0
  -31.1453  -20.4652   23.1324 C   0  0  0  0  0  0  0  0  0  0  0  0
  -23.9080  -17.3843   19.7058 C   0  0  0  0  0  0  0  0  0  0  0  0
  -18.8362  -29.0192   21.5127 C   0  0  0  0  0  0  0  0  0  0  0  0
  -29.4348  -18.7644   22.9956 C   0  0  0  0  0  0  0  0  0  0  0  0
  -28.1124  -24.6989   19.5795 C   0  0  0  0  0  0  0  0  0  0  0  0
  -26.5543  -26.5379   18.7439 C   0  0  0  0  0  0  0  0  0  0  0  0
  -20.8054   -9.3555   23.3566 C   0  0  0  0  0  0  0  0  0  0  0  0
  -22.8560  -15.3815   18.8444 C   0  0  0  0  0  0  0  0  0  0  0  0
  -20.5152  -10.5331   22.6416 C   0  0  0  0  0  0  0  0  0  0  0  0
  -23.8493  -15.9843   19.6292 C   0  0  0  0  0  0  0  0  0  0  0  0
  -18.5330  -27.7667   22.0465 C   0  0  0  0  0  0  0  0  0  0  0  0
  -18.3435  -27.6217   23.4208 C   0  0  0  0  0  0  0  0  0  0  0  0
  -18.7602  -29.9816   23.7275 C   0  0  0  0  0  0  0  0  0  0  0  0
  -28.9780  -22.0560   19.7989 C   0  0  0  0  0  0  0  0  0  0  0  0
  -22.9993  -18.1737   19.0014 C   0  0  0  0  0  0  0  0  0  0  0  0
  -29.7534  -20.3074   21.1640 C   0  0  0  0  0  0  0  0  0  0  0  0
  -30.4689  -19.3839   23.6973 C   0  0  0  0  0  0  0  0  0  0  0  0
  -29.0770  -19.2262   21.7289 C   0  0  0  0  0  0  0  0  0  0  0  0
  -18.9498  -30.1267   22.3532 C   0  0  0  0  0  0  0  0  0  0  0  0
  -18.4570  -28.7291   24.2613 C   0  0  0  0  0  0  0  0  0  0  0  0
  -27.6653  -26.0641   19.4670 C   0  0  0  0  0  0  0  0  0  0  0  0
  -26.5607  -27.8950   18.9548 C   0  0  0  0  0  0  0  0  0  0  0  0
  -25.6016  -25.8157   17.9522 C   0  0  0  0  0  0  0  0  0  0  0  0
  -22.5834  -13.2036   21.1436 C   0  0  0  0  0  0  0  0  0  0  0  0
  -22.2649  -30.5965   25.8758 C   0  0  0  0  0  0  0  0  0  0  0  0
  -25.7637  -12.8272   20.6273 C   0  0  0  0  0  0  0  0  0  0  0  0
  -28.6931  -14.1629   19.4952 C   0  0  0  0  0  0  0  0  0  0  0  0
  -27.0827  -32.2891   22.3556 C   0  0  0  0  0  0  0  0  0  0  0  0
  -21.9307   -9.2928   24.3588 C   0  0  0  0  0  0  0  0  0  0  0  0
  -22.7845  -13.8839   18.7243 C   0  0  0  0  0  0  0  0  0  0  0  0
  -24.8532  -15.1693   20.4015 C   0  0  0  0  0  0  0  0  0  0  0  0
  -22.9505  -10.4177   24.2007 C   0  0  0  0  0  0  0  0  0  0  0  0
  -30.0735  -30.8885   21.0250 C   0  0  0  0  0  0  0  0  0  0  0  0
  -22.2439  -11.7599   24.0388 C   0  0  0  0  0  0  0  0  0  0  0  0
  -29.6231  -29.5456   20.4474 C   0  0  0  0  0  0  0  0  0  0  0  0
  -29.3220  -31.2309   22.3096 C   0  0  0  0  0  0  0  0  0  0  0  0
  -27.4016  -29.8495   21.6185 C   0  0  0  0  0  0  0  0  0  0  0  0
  -21.3695  -11.7747   22.7792 C   0  0  1  0  0  0  0  0  0  0  0  0
  -23.4284  -13.1586   19.9019 C   0  0  1  0  0  0  0  0  0  0  0  0
  -28.0915  -29.4874   20.2921 C   0  0  2  0  0  0  0  0  0  0  0  0
  -18.0188  -26.2675   23.9717 C   0  0  0  0  0  0  0  0  0  0  0  0
  -23.1290  -29.5482   26.5357 C   0  0  0  0  0  0  0  0  0  0  0  0
  -31.1317  -13.6296   19.2378 C   0  0  0  0  0  0  0  0  0  0  0  0
  -26.1751  -13.2763   23.6171 C   0  0  0  0  0  0  0  0  0  0  0  0
  -28.6020  -13.6786   23.1519 C   0  0  0  0  0  0  0  0  0  0  0  0
  -27.5849  -11.4612   22.6311 C   0  0  0  0  0  0  0  0  0  0  0  0
  -28.5654  -14.4556   16.5530 C   0  0  0  0  0  0  0  0  0  0  0  0
  -18.8835  -31.1750   24.6259 C   0  0  0  0  0  0  0  0  0  0  0  0
  -18.4170  -26.5932   21.1190 C   0  0  0  0  0  0  0  0  0  0  0  0
  -22.9161  -31.9205   25.5160 C   0  0  0  0  0  0  0  0  0  0  0  0
  -23.4938  -31.9119   24.1012 C   0  0  0  0  0  0  0  0  0  0  0  0
  -20.6594  -22.3686   19.6272 C   0  0  0  0  0  0  0  0  0  0  0  0
  -24.2141  -33.2197   23.7523 C   0  0  0  0  0  0  0  0  0  0  0  0
  -20.7469  -23.6468   20.4621 C   0  0  0  0  0  0  0  0  0  0  0  0
  -21.9436  -21.5485   19.7293 C   0  0  0  0  0  0  0  0  0  0  0  0
  -20.3337  -31.5640   24.9208 C   0  0  0  0  0  0  0  0  0  0  0  0
  -24.7793  -33.2127   22.3350 C   0  0  0  0  0  0  0  0  0  0  0  0
  -19.4781  -24.4754   20.3267 C   0  0  0  0  0  0  0  0  0  0  0  0
  -21.8480  -20.2536   18.9350 C   0  0  0  0  0  0  0  0  0  1  0  0
  -27.0188  -13.4552   21.1835 C   0  0  1  0  0  0  0  0  0  0  0  0
  -29.7637  -13.6072   18.5736 C   0  0  2  0  0  0  0  0  0  0  0  0
  -27.3252  -12.9834   22.6330 C   0  0  0  0  0  0  0  0  0  0  0  0
  -28.3293  -27.0409   20.0906 N   0  0  0  0  0  0  0  0  0  0  0  0
  -21.0294  -30.4421   25.5571 N   0  0  0  0  0  0  0  0  0  0  0  0
  -27.6335  -28.1421   19.7599 N   0  0  0  0  0  0  0  0  0  0  0  0
  -24.7383  -13.7087   20.2567 N   0  0  0  0  0  0  0  0  0  0  0  0
  -27.8748  -31.1590   22.0942 N   0  0  0  0  0  0  0  0  0  0  0  0
  -25.7532  -28.8893   18.5284 N   0  0  0  0  0  0  0  0  0  0  0  0
  -25.7419  -24.4257   17.8413 N   0  0  0  0  0  0  0  0  0  0  0  0
  -22.1862  -11.9609   21.5991 N   0  0  0  0  0  0  0  0  0  0  0  0
  -28.0794  -13.1663   20.2243 N   0  0  0  0  0  0  0  0  0  0  0  0
  -25.7219  -32.1377   22.1189 N   0  0  0  0  0  0  0  0  0  0  0  0
  -29.8365  -14.4107   17.3206 N   0  3  0  0  0  0  0  0  0  0  0  0
  -19.5897  -25.6785   21.1860 N   0  3  0  0  0  0  0  0  0  0  0  0
  -24.6636  -26.3883   17.3474 O   0  0  0  0  0  0  0  0  0  0  0  0
  -22.3131  -14.2855   21.6516 O   0  0  0  0  0  0  0  0  0  0  0  0
  -25.6984  -11.6002   20.5187 O   0  0  0  0  0  0  0  0  0  0  0  0
  -28.4302  -15.3615   19.5644 O   0  0  0  0  0  0  0  0  0  0  0  0
  -27.5541  -33.3558   22.7641 O   0  0  0  0  0  0  0  0  0  0  0  0
  -29.4000  -20.7664   19.9062 O   0  0  0  0  0  0  0  0  0  0  0  0
  -23.0691  -19.5303   19.0836 O   0  0  0  0  0  0  0  0  0  1  0  0
  -30.8136  -18.9397   24.9131 F   0  0  0  0  0  0  0  0  0  0  0  0
  -28.0835  -18.6262   21.0590 F   0  0  0  0  0  0  0  0  0  0  0  0
  -19.3266  -31.6583   21.6494 Cl  0  0  0  0  0  0  0  0  0  0  0  0
  -18.2209  -28.5459   25.9688 Cl  0  0  0  0  0  0  0  0  0  0  0  0
  1  2  1  0  0  0  0
  1  5  2  0  0  0  0
  2  6  2  0  0  0  0
  3  8  2  0  0  0  0
  3 16  1  0  0  0  0
  4  9  1  0  0  0  0
  4 16  2  0  0  0  0
  5 18  1  0  0  0  0
  6 20  1  0  0  0  0
  7 10  2  0  0  0  0
  7 19  1  0  0  0  0
  8 25  1  0  0  0  0
  9 25  2  0  0  0  0
 10 26  1  0  0  0  0
 11 12  2  0  0  0  0
 11 27  1  0  0  0  0
 12 28  1  0  0  0  0
 13 21  1  0  0  0  0
 13 26  2  0  0  0  0
 14 22  1  0  0  0  0
 14 30  2  0  0  0  0
 15 28  2  0  0  0  0
 15 29  1  0  0  0  0
 16 32  1  0  0  0  0
 17 32  1  0  0  0  0
 17 33  2  0  0  0  0
 17 34  1  0  0  0  0
 18 20  2  0  0  0  0
 18 40  1  0  0  0  0
 19 21  2  0  0  0  0
 19 41  1  0  0  0  0
 20 49  1  0  0  0  0
 21 42  1  0  0  0  0
 22 23  2  0  0  0  0
 22 60  1  0  0  0  0
 23 31  1  0  0  0  0
 23 52  1  0  0  0  0
 24 30  1  0  0  0  0
 24 31  2  0  0  0  0
 24 59  1  0  0  0  0
 25 91  1  0  0  0  0
 26 92  1  0  0  0  0
 27 29  2  0  0  0  0
 27 91  1  0  0  0  0
 28 93  1  0  0  0  0
 29 94  1  0  0  0  0
 30 95  1  0  0  0  0
 31 96  1  0  0  0  0
 32 74  2  0  0  0  0
 33 76  1  0  0  0  0
 33 79  1  0  0  0  0
 34 80  1  0  0  0  0
 34 86  2  0  0  0  0
 35 50  1  0  0  0  0
 35 81  1  0  0  0  0
 35 87  2  0  0  0  0
 36 53  1  0  0  0  0
 36 61  1  0  0  0  0
 36 75  2  0  0  0  0
 37 71  1  0  0  0  0
 37 77  1  0  0  0  0
 37 88  2  0  0  0  0
 38 72  1  0  0  0  0
 38 82  1  0  0  0  0
 38 89  2  0  0  0  0
 39 78  1  0  0  0  0
 39 83  1  0  0  0  0
 39 90  2  0  0  0  0
 40 43  1  0  0  0  0
 41 50  1  0  0  0  0
 42 77  1  0  0  0  0
 43 45  1  0  0  0  0
 44 46  1  0  0  0  0
 44 47  1  0  0  0  0
 45 49  1  0  0  0  0
 46 51  1  0  0  0  0
 47 78  1  0  0  0  0
 48 51  1  0  0  0  0
 48 78  1  0  0  0  0
 49 81  1  0  0  0  0
 50 77  1  0  0  0  0
 51 76  1  0  0  0  0
 54 72  1  0  0  0  0
 55 73  1  0  0  0  0
 56 73  1  0  0  0  0
 57 73  1  0  0  0  0
 58 84  1  0  0  0  0
 59 67  1  0  0  0  0
 60 85  1  0  0  0  0
 61 62  1  0  0  0  0
 62 64  1  0  0  0  0
 63 65  1  0  0  0  0
 63 66  1  0  0  0  0
 64 68  1  0  0  0  0
 65 69  1  0  0  0  0
 66 70  1  0  0  0  0
 67 75  1  0  0  0  0
 68 83  1  0  0  0  0
 69 85  1  0  0  0  0
 70 92  1  0  0  0  0
 71 73  1  0  0  0  0
 71 82  1  0  0  0  0
 72 84  1  0  0  0  0
 74 76  1  0  0  0  0
M  CHG  2  84   1  85   1
M  ISO  4  39 100  70 101  83 100  92 101
M  END
> <Batch ID>
0024

> <Smiles>
C=C(CCCC[100NH:0][100C:0](=O)N1CCCC(n2nc(-c3ccc(Oc4ccc(F)cc4F)cc3)c(C(N)=O)c2N)C1)NCCc1c(Cl)cc(CNCCCC[101CH2:1][101O:1]c2ccc3c(c2)CN(C(=O)C(NC(=O)C(C)NC)C(C)(C)C)C(C(=O)NC2CCCc4ccccc42)C3)c(C)c1Cl

> <Shape>
0.243

> <Color>
0.075

> <Negative vol penalty>
0.000

$$$$

  -OEChem-04052316223D

 85 93  0     1  0  0  0  0  0999 V2000
  -26.8921  -32.0183   25.3135 C   0  0  0  0  0  0  0  0  0  0  0  0
  -27.2458  -31.2782   24.1898 C   0  0  0  0  0  0  0  0  0  0  0  0
  -23.0622   -9.9002   19.9240 C   0  0  0  0  0  0  0  0  0  0  0  0
  -23.8379   -9.8656   22.2118 C   0  0  0  0  0  0  0  0  0  0  0  0
  -27.7992  -32.1688   26.3615 C   0  0  0  0  0  0  0  0  0  0  0  0
  -28.5074  -30.6891   24.1132 C   0  0  0  0  0  0  0  0  0  0  0  0
  -28.3234  -25.9153   22.4333 C   0  0  0  0  0  0  0  0  0  0  0  0
  -22.3129   -8.7478   20.1605 C   0  0  0  0  0  0  0  0  0  0  0  0
  -23.0886   -8.7131   22.4484 C   0  0  0  0  0  0  0  0  0  0  0  0
  -28.1609  -25.7289   21.0612 C   0  0  0  0  0  0  0  0  0  0  0  0
  -19.8597   -7.9255   23.0606 C   0  0  0  0  0  0  0  0  0  0  0  0
  -19.1106   -7.8713   24.2359 C   0  0  0  0  0  0  0  0  0  0  0  0
  -30.5289  -25.3239   20.8420 C   0  0  0  0  0  0  0  0  0  0  0  0
  -28.3100  -21.9051   19.7324 C   0  0  0  0  0  0  0  0  0  0  0  0
  -28.5875  -20.5132   17.7773 C   0  0  0  0  0  0  0  0  0  0  0  0
  -20.3450   -5.9147   24.9324 C   0  0  0  0  0  0  0  0  0  0  0  0
  -23.8248  -10.4591   20.9496 C   0  0  0  0  0  0  0  0  0  0  0  0
  -24.1815  -12.9837   20.8678 C   0  0  0  0  0  0  0  0  0  0  0  0
  -29.0689  -31.5732   26.3019 C   0  0  0  0  0  0  0  0  0  0  0  0
  -29.5936  -25.8179   23.0194 C   0  0  0  0  0  0  0  0  0  0  0  0
  -29.4328  -30.8329   25.1609 C   0  0  0  0  0  0  0  0  0  0  0  0
  -30.7044  -25.5070   22.2222 C   0  0  0  0  0  0  0  0  0  0  0  0
  -28.3253  -21.7599   18.3452 C   0  0  0  0  0  0  0  0  0  0  0  0
  -28.8192  -19.5567   19.9837 C   0  0  0  0  0  0  0  0  0  0  0  0
  -22.3260   -8.1542   21.4228 C   0  0  0  0  0  0  0  0  0  0  0  0
  -29.2642  -25.4361   20.2649 C   0  0  0  0  0  0  0  0  0  0  0  0
  -20.8514   -6.9742   22.8211 C   0  0  0  0  0  0  0  0  0  0  0  0
  -19.3532   -6.8660   25.1719 C   0  0  0  0  0  0  0  0  0  0  0  0
  -21.0940   -5.9689   23.7570 C   0  0  0  0  0  0  0  0  0  0  0  0
  -28.5570  -20.8035   20.5517 C   0  0  0  0  0  0  0  0  0  0  0  0
  -28.8344  -19.4116   18.5965 C   0  0  0  0  0  0  0  0  0  0  0  0
  -24.5995  -11.6493   20.7056 C   0  0  0  0  0  0  0  0  0  0  0  0
  -25.2758  -13.7323   20.5090 C   0  0  0  0  0  0  0  0  0  0  0  0
  -22.9172  -13.5005   21.3038 C   0  0  0  0  0  0  0  0  0  0  0  0
  -31.4906  -27.8144   24.6067 C   0  0  0  0  0  0  0  0  0  0  0  0
  -33.3060  -25.1557   25.0036 C   0  0  0  0  0  0  0  0  0  0  0  0
  -34.1806  -22.0515   23.8875 C   0  0  0  0  0  0  0  0  0  0  0  0
  -30.7669  -14.7146   20.6754 C   0  0  0  0  0  0  0  0  0  0  0  0
  -30.0328  -31.8033   27.4389 C   0  0  0  0  0  0  0  0  0  0  0  0
  -29.7480  -25.9953   24.5051 C   0  0  0  0  0  0  0  0  0  0  0  0
  -32.0863  -25.3715   22.8056 C   0  0  0  0  0  0  0  0  0  0  0  0
  -31.2124  -30.8343   27.4430 C   0  0  0  0  0  0  0  0  0  0  0  0
  -29.5981  -12.3758   18.2586 C   0  0  0  0  0  0  0  0  0  0  0  0
  -31.8099  -30.7148   26.0446 C   0  0  0  0  0  0  0  0  0  0  0  0
  -28.1618  -12.0840   18.6968 C   0  0  0  0  0  0  0  0  0  0  0  0
  -30.5248  -12.5717   19.4564 C   0  0  0  0  0  0  0  0  0  0  0  0
  -28.6372  -13.2919   20.8679 C   0  0  0  0  0  0  0  0  0  0  0  0
  -30.7828  -30.1579   25.0514 C   0  0  1  0  0  0  0  0  0  0  0  0
  -31.1656  -26.3806   24.9167 C   0  0  1  0  0  0  0  0  0  0  0  0
  -27.6539  -13.1423   19.6944 C   0  0  2  0  0  0  0  0  0  0  0  0
  -35.7197  -20.1361   24.3973 C   0  0  0  0  0  0  0  0  0  0  0  0
  -35.6500  -26.7371   23.8570 C   0  0  0  0  0  0  0  0  0  0  0  0
  -36.8512  -24.5686   23.5063 C   0  0  0  0  0  0  0  0  0  0  0  0
  -36.2263  -25.2876   25.8118 C   0  0  0  0  0  0  0  0  0  0  0  0
  -31.9167  -20.1891   24.2940 C   0  0  0  0  0  0  0  0  0  0  0  0
  -28.0589  -22.9509   17.4597 C   0  0  0  0  0  0  0  0  0  0  0  0
  -29.0852  -18.3736   20.8637 C   0  0  0  0  0  0  0  0  0  0  0  0
  -29.3194  -23.7323   17.0827 C   0  0  0  0  0  0  0  0  0  0  0  0
  -30.5748  -18.0156   21.0068 C   0  0  0  0  0  0  0  0  0  0  0  0
  -30.8547  -16.8445   21.9462 C   0  0  0  0  0  0  0  0  0  0  0  0
  -30.0188  -24.3644   18.2805 C   0  0  0  0  0  0  0  0  0  1  0  0
  -34.4212  -24.4970   24.2280 C   0  0  1  0  0  0  0  0  0  0  0  0
  -34.3350  -20.7268   24.6127 C   0  0  2  0  0  0  0  0  0  0  0  0
  -35.7616  -25.2770   24.3392 C   0  0  0  0  0  0  0  0  0  0  0  0
  -25.8608  -11.5524   20.2771 N   0  0  0  0  0  0  0  0  0  0  0  0
  -26.2448  -12.8356   20.1667 N   0  0  0  0  0  0  0  0  0  0  0  0
  -32.1868  -25.5602   24.2623 N   0  0  0  0  0  0  0  0  0  0  0  0
  -29.9868  -13.5891   20.3627 N   0  0  0  0  0  0  0  0  0  0  0  0
  -25.4940  -15.0634   20.4559 N   0  0  0  0  0  0  0  0  0  0  0  0
  -21.9019  -12.5922   21.6335 N   0  0  0  0  0  0  0  0  0  0  0  0
  -30.6479  -28.7261   25.2134 N   0  0  0  0  0  0  0  0  0  0  0  0
  -34.4904  -23.1193   24.7030 N   0  0  0  0  0  0  0  0  0  0  0  0
  -30.1794  -15.6333   21.5364 N   0  0  0  0  0  0  0  0  0  0  0  0
  -33.3246  -19.7471   24.1225 N   0  3  0  0  0  0  0  0  0  0  0  0
  -22.6890  -14.7315   21.3825 O   0  0  0  0  0  0  0  0  0  0  0  0
  -32.4367  -28.0744   23.8726 O   0  0  0  0  0  0  0  0  0  0  0  0
  -33.4207  -25.2994   26.2234 O   0  0  0  0  0  0  0  0  0  0  0  0
  -33.8247  -22.1308   22.7138 O   0  0  0  0  0  0  0  0  0  0  0  0
  -31.9008  -14.8904   20.2167 O   0  0  0  0  0  0  0  0  0  0  0  0
  -21.5948   -7.0298   21.6540 O   0  0  0  0  0  0  0  0  0  0  0  0
  -29.1085  -25.2544   18.9253 O   0  0  0  0  0  0  0  0  0  1  0  0
  -18.6348   -6.8150   26.3013 F   0  0  0  0  0  0  0  0  0  0  0  0
  -22.0462   -5.0529   23.5330 F   0  0  0  0  0  0  0  0  0  0  0  0
  -28.5290  -21.0278   22.2639 Cl  0  0  0  0  0  0  0  0  0  0  0  0
  -29.1554  -17.8869   17.8516 Cl  0  0  0  0  0  0  0  0  0  0  0  0
  1  2  1  0  0  0  0
  1  5  2  0  0  0  0
  2  6  2  0  0  0  0
  3  8  2  0  0  0  0
  3 17  1  0  0  0  0
  4  9  1  0  0  0  0
  4 17  2  0  0  0  0
  5 19  1  0  0  0  0
  6 21  1  0  0  0  0
  7 10  2  0  0  0  0
  7 20  1  0  0  0  0
  8 25  1  0  0  0  0
  9 25  2  0  0  0  0
 10 26  1  0  0  0  0
 11 12  2  0  0  0  0
 11 27  1  0  0  0  0
 12 28  1  0  0  0  0
 13 22  1  0  0  0  0
 13 26  2  0  0  0  0
 14 23  1  0  0  0  0
 14 30  2  0  0  0  0
 15 23  2  0  0  0  0
 15 31  1  0  0  0  0
 16 28  2  0  0  0  0
 16 29  1  0  0  0  0
 17 32  1  0  0  0  0
 18 32  1  0  0  0  0
 18 33  2  0  0  0  0
 18 34  1  0  0  0  0
 19 21  2  0  0  0  0
 19 39  1  0  0  0  0
 20 22  2  0  0  0  0
 20 40  1  0  0  0  0
 21 48  1  0  0  0  0
 22 41  1  0  0  0  0
 23 56  1  0  0  0  0
 24 30  1  0  0  0  0
 24 31  2  0  0  0  0
 24 57  1  0  0  0  0
 25 80  1  0  0  0  0
 26 81  1  0  0  0  0
 27 29  2  0  0  0  0
 27 80  1  0  0  0  0
 28 82  1  0  0  0  0
 29 83  1  0  0  0  0
 30 84  1  0  0  0  0
 31 85  1  0  0  0  0
 32 65  2  0  0  0  0
 33 66  1  0  0  0  0
 33 69  1  0  0  0  0
 34 70  1  0  0  0  0
 34 75  2  0  0  0  0
 35 49  1  0  0  0  0
 35 71  1  0  0  0  0
 35 76  2  0  0  0  0
 36 62  1  0  0  0  0
 36 67  1  0  0  0  0
 36 77  2  0  0  0  0
 37 63  1  0  0  0  0
 37 72  1  0  0  0  0
 37 78  2  0  0  0  0
 38 68  1  0  0  0  0
 38 73  1  0  0  0  0
 38 79  2  0  0  0  0
 39 42  1  0  0  0  0
 40 49  1  0  0  0  0
 41 67  1  0  0  0  0
 42 44  1  0  0  0  0
 43 45  1  0  0  0  0
 43 46  1  0  0  0  0
 44 48  1  0  0  0  0
 45 50  1  0  0  0  0
 46 68  1  0  0  0  0
 47 50  1  0  0  0  0
 47 68  1  0  0  0  0
 48 71  1  0  0  0  0
 49 67  1  0  0  0  0
 50 66  1  0  0  0  0
 51 63  1  0  0  0  0
 52 64  1  0  0  0  0
 53 64  1  0  0  0  0
 54 64  1  0  0  0  0
 55 74  1  0  0  0  0
 56 58  1  0  0  0  0
 57 59  1  0  0  0  0
 58 61  1  0  0  0  0
 59 60  1  0  0  0  0
 60 73  1  0  0  0  0
 61 81  1  0  0  0  0
 62 64  1  0  0  0  0
 62 72  1  0  0  0  0
 63 74  1  0  0  0  0
 65 66  1  0  0  0  0
M  CHG  1  74   1
M  ISO  4  38 100  61 101  73 100  81 101
M  END
> <Batch ID>
0024

> <Smiles>
CNC(C)C(=O)NC(C(=O)N1Cc2cc([101O:1][101CH2:1]CCc3cc(Cl)c(CCC[100NH:0][100C:0](=O)N4CCCC(n5nc(-c6ccc(Oc7ccc(F)cc7F)cc6)c(C(N)=O)c5N)C4)c(Cl)c3)ccc2CC1C(=O)NC1CCCc2ccccc21)C(C)(C)C

> <Shape>
0.284

> <Color>
0.202

> <Negative vol penalty>
0.000

$$$$

  -OEChem-04052316223D

 94102  0     1  0  0  0  0  0999 V2000
  -24.6567  -28.4594   16.9239 C   0  0  0  0  0  0  0  0  0  0  0  0
  -23.8808  -27.4611   17.5043 C   0  0  0  0  0  0  0  0  0  0  0  0
  -29.5376  -23.7229   19.1420 C   0  0  0  0  0  0  0  0  0  0  0  0
  -27.9286  -23.1223   20.8413 C   0  0  0  0  0  0  0  0  0  0  0  0
  -25.2271  -29.4500   17.7221 C   0  0  0  0  0  0  0  0  0  0  0  0
  -23.6758  -27.4523   18.8835 C   0  0  0  0  0  0  0  0  0  0  0  0
  -18.8476  -26.5613   20.1243 C   0  0  0  0  0  0  0  0  0  0  0  0
  -29.2828  -25.0737   19.3781 C   0  0  0  0  0  0  0  0  0  0  0  0
  -27.6739  -24.4732   21.0775 C   0  0  0  0  0  0  0  0  0  0  0  0
  -18.4064  -25.2405   20.0575 C   0  0  0  0  0  0  0  0  0  0  0  0
  -29.3196  -28.6860   19.7851 C   0  0  0  0  0  0  0  0  0  0  0  0
  -30.4142  -29.5451   19.8820 C   0  0  0  0  0  0  0  0  0  0  0  0
  -18.6713  -25.0375   22.4466 C   0  0  0  0  0  0  0  0  0  0  0  0
  -31.2478  -28.2714   21.7581 C   0  0  0  0  0  0  0  0  0  0  0  0
  -28.8605  -22.7471   19.8735 C   0  0  0  0  0  0  0  0  0  0  0  0
  -30.0894  -20.5454   20.2602 C   0  0  0  0  0  0  0  0  0  0  0  0
  -25.0210  -29.4589   19.1107 C   0  0  0  0  0  0  0  0  0  0  0  0
  -19.2150  -27.1277   21.3533 C   0  0  0  0  0  0  0  0  0  0  0  0
  -24.2451  -28.4432   19.7012 C   0  0  0  0  0  0  0  0  0  0  0  0
  -19.1145  -26.3666   22.5266 C   0  0  0  0  0  0  0  0  0  0  0  0
  -25.2601  -13.7146   21.0543 C   0  0  0  0  0  0  0  0  0  0  0  0
  -26.0264  -12.9235   20.1632 C   0  0  0  0  0  0  0  0  0  0  0  0
  -28.3509  -25.4489   20.3459 C   0  0  0  0  0  0  0  0  0  0  0  0
  -18.3209  -24.4775   21.2184 C   0  0  0  0  0  0  0  0  0  0  0  0
  -29.1891  -27.6196   20.6748 C   0  0  0  0  0  0  0  0  0  0  0  0
  -31.3783  -29.3378   20.8685 C   0  0  0  0  0  0  0  0  0  0  0  0
  -30.1532  -27.4122   21.6613 C   0  0  0  0  0  0  0  0  0  0  0  0
  -29.1228  -21.3515   19.6297 C   0  0  0  0  0  0  0  0  0  0  0  0
  -24.2136  -12.9370   21.4987 C   0  0  0  0  0  0  0  0  0  0  0  0
  -25.4248  -11.6865   20.0901 C   0  0  0  0  0  0  0  0  0  0  0  0
  -29.9371  -19.3096   19.6804 C   0  0  0  0  0  0  0  0  0  0  0  0
  -31.0400  -20.8833   21.2790 C   0  0  0  0  0  0  0  0  0  0  0  0
  -21.8995  -28.3340   22.5542 C   0  0  0  0  0  0  0  0  0  0  0  0
  -19.9753  -29.1113   25.0473 C   0  0  0  0  0  0  0  0  0  0  0  0
  -17.1184  -28.4870   26.8065 C   0  0  0  0  0  0  0  0  0  0  0  0
  -26.6847  -15.1621   17.8458 C   0  0  0  0  0  0  0  0  0  0  0  0
  -25.6971  -30.5233   19.9381 C   0  0  0  0  0  0  0  0  0  0  0  0
  -19.6636  -28.5622   21.4121 C   0  0  0  0  0  0  0  0  0  0  0  0
  -19.4777  -26.9341   23.8737 C   0  0  0  0  0  0  0  0  0  0  0  0
  -25.1226  -30.6566   21.3461 C   0  0  0  0  0  0  0  0  0  0  0  0
  -27.2731  -17.8817   15.6245 C   0  0  0  0  0  0  0  0  0  0  0  0
  -24.9593  -29.2827   21.9884 C   0  0  0  0  0  0  0  0  0  0  0  0
  -27.8804  -18.9618   16.5214 C   0  0  0  0  0  0  0  0  0  0  0  0
  -26.1983  -17.0799   16.3552 C   0  0  0  0  0  0  0  0  0  0  0  0
  -27.2353  -17.5741   18.5356 C   0  0  0  0  0  0  0  0  0  0  0  0
  -23.9793  -28.4138   21.1907 C   0  0  1  0  0  0  0  0  0  0  0  0
  -20.5013  -28.8762   22.6478 C   0  0  1  0  0  0  0  0  0  0  0  0
  -28.3635  -18.3725   17.8603 C   0  0  2  0  0  0  0  0  0  0  0  0
  -25.5317  -15.1151   21.4389 C   0  0  0  0  0  0  0  0  0  0  0  0
  -25.8022  -10.4875   19.3114 C   0  0  0  0  0  0  0  0  0  0  0  0
  -22.4561  -10.4200   19.9434 C   0  0  0  0  0  0  0  0  0  0  0  0
  -28.5442  -13.0627   20.2197 C   0  0  0  0  0  0  0  0  0  0  0  0
  -15.8344  -29.2629   28.8182 C   0  0  0  0  0  0  0  0  0  0  0  0
  -21.9614  -27.6762   26.8654 C   0  0  0  0  0  0  0  0  0  0  0  0
  -20.2041  -27.6507   28.6485 C   0  0  0  0  0  0  0  0  0  0  0  0
  -21.0700  -29.8246   27.7843 C   0  0  0  0  0  0  0  0  0  0  0  0
  -14.7722  -29.2349   25.1648 C   0  0  0  0  0  0  0  0  0  0  0  0
  -19.0337  -15.4870   17.3747 C   0  0  0  0  0  0  0  0  0  0  0  0
  -23.0964  -13.2668   22.4563 C   0  0  0  0  0  0  0  0  0  0  0  0
  -21.7645  -13.5861   21.7679 C   0  0  0  0  0  0  0  0  0  0  0  0
  -21.8691  -14.7390   20.7646 C   0  0  0  0  0  0  0  0  0  0  0  0
  -18.6064  -20.1623   19.0362 C   0  0  0  0  0  0  0  0  0  0  0  0
  -20.5126  -15.0427   20.1257 C   0  0  0  0  0  0  0  0  0  0  0  0
  -18.7857  -18.6834   19.3815 C   0  0  0  0  0  0  0  0  0  0  0  0
  -18.2993  -20.9909   20.2817 C   0  0  0  0  0  0  0  0  0  0  0  0
  -23.4149  -10.5975   21.1081 C   0  0  0  0  0  0  0  0  0  0  0  0
  -20.6151  -16.2112   19.1567 C   0  0  0  0  0  0  0  0  0  0  0  0
  -19.0557  -17.8596   18.1311 C   0  0  0  0  0  0  0  0  0  0  0  0
  -18.1617  -22.4706   19.9523 C   0  0  0  0  0  0  0  0  0  1  0  0
  -27.2445  -13.3456   19.4414 C   0  0  2  0  0  0  0  0  0  0  0  0
  -19.5511  -28.4270   26.3243 C   0  0  1  0  0  0  0  0  0  0  0  0
  -16.0275  -29.4110   27.3170 C   0  0  2  0  0  0  0  0  0  0  0  0
  -20.6916  -28.3830   27.3801 C   0  0  0  0  0  0  0  0  0  0  0  0
  -28.4093  -20.6840   18.7189 N   0  0  0  0  0  0  0  0  0  0  0  0
  -24.3236  -11.7064   20.9058 N   0  0  0  0  0  0  0  0  0  0  0  0
  -28.9281  -19.4454   18.7729 N   0  0  0  0  0  0  0  0  0  0  0  0
  -19.9167  -28.3393   23.8783 N   0  0  0  0  0  0  0  0  0  0  0  0
  -26.7211  -16.5473   17.6157 N   0  0  0  0  0  0  0  0  0  0  0  0
  -30.5692  -18.1309   19.8634 N   0  0  0  0  0  0  0  0  0  0  0  0
  -31.0614  -22.1985   21.7630 N   0  0  0  0  0  0  0  0  0  0  0  0
  -22.6143  -28.8054   21.4696 N   0  0  0  0  0  0  0  0  0  0  0  0
  -18.3458  -29.1144   26.7749 N   0  0  0  0  0  0  0  0  0  0  0  0
  -27.2061  -14.7406   19.0628 N   0  0  0  0  0  0  0  0  0  0  0  0
  -14.7333  -29.1057   26.6443 N   0  3  0  0  0  0  0  0  0  0  0  0
  -19.2672  -16.4441   18.5184 N   0  3  1  0  0  0  0  0  0  0  0  0
  -31.8575  -20.0481   21.7346 O   0  0  0  0  0  0  0  0  0  0  0  0
  -22.3007  -27.5475   23.4039 O   0  0  0  0  0  0  0  0  0  0  0  0
  -20.3383  -30.2897   25.0844 O   0  0  0  0  0  0  0  0  0  0  0  0
  -16.9038  -27.3237   26.4730 O   0  0  0  0  0  0  0  0  0  0  0  0
  -26.2266  -14.3600   17.0251 O   0  0  0  0  0  0  0  0  0  0  0  0
  -28.1022  -26.7670   20.5768 O   0  0  0  0  0  0  0  0  0  0  0  0
  -17.8912  -23.1878   21.1559 O   0  0  0  0  0  0  0  0  0  1  0  0
  -32.4302  -30.1620   20.9605 F   0  0  0  0  0  0  0  0  0  0  0  0
  -30.0338  -26.3888   22.5180 F   0  0  0  0  0  0  0  0  0  0  0  0
  1  2  1  0  0  0  0
  1  5  2  0  0  0  0
  2  6  2  0  0  0  0
  3  8  2  0  0  0  0
  3 15  1  0  0  0  0
  4  9  1  0  0  0  0
  4 15  2  0  0  0  0
  5 17  1  0  0  0  0
  6 19  1  0  0  0  0
  7 10  2  0  0  0  0
  7 18  1  0  0  0  0
  8 23  1  0  0  0  0
  9 23  2  0  0  0  0
 10 24  1  0  0  0  0
 11 12  2  0  0  0  0
 11 25  1  0  0  0  0
 12 26  1  0  0  0  0
 13 20  1  0  0  0  0
 13 24  2  0  0  0  0
 14 26  2  0  0  0  0
 14 27  1  0  0  0  0
 15 28  1  0  0  0  0
 16 28  1  0  0  0  0
 16 31  2  0  0  0  0
 16 32  1  0  0  0  0
 17 19  2  0  0  0  0
 17 37  1  0  0  0  0
 18 20  2  0  0  0  0
 18 38  1  0  0  0  0
 19 46  1  0  0  0  0
 20 39  1  0  0  0  0
 21 22  1  0  0  0  0
 21 29  2  0  0  0  0
 21 49  1  0  0  0  0
 22 30  2  0  0  0  0
 22 70  1  0  0  0  0
 23 91  1  0  0  0  0
 24 92  1  0  0  0  0
 25 27  2  0  0  0  0
 25 91  1  0  0  0  0
 26 93  1  0  0  0  0
 27 94  1  0  0  0  0
 28 74  2  0  0  0  0
 29 59  1  0  0  0  0
 29 75  1  0  0  0  0
 30 50  1  0  0  0  0
 30 75  1  0  0  0  0
 31 76  1  0  0  0  0
 31 79  1  0  0  0  0
 32 80  1  0  0  0  0
 32 86  2  0  0  0  0
 33 47  1  0  0  0  0
 33 81  1  0  0  0  0
 33 87  2  0  0  0  0
 34 71  1  0  0  0  0
 34 77  1  0  0  0  0
 34 88  2  0  0  0  0
 35 72  1  0  0  0  0
 35 82  1  0  0  0  0
 35 89  2  0  0  0  0
 36 78  1  0  0  0  0
 36 83  1  0  0  0  0
 36 90  2  0  0  0  0
 37 40  1  0  0  0  0
 38 47  1  0  0  0  0
 39 77  1  0  0  0  0
 40 42  1  0  0  0  0
 41 43  1  0  0  0  0
 41 44  1  0  0  0  0
 42 46  1  0  0  0  0
 43 48  1  0  0  0  0
 44 78  1  0  0  0  0
 45 48  1  0  0  0  0
 45 78  1  0  0  0  0
 46 81  1  0  0  0  0
 47 77  1  0  0  0  0
 48 76  1  0  0  0  0
 51 66  1  0  0  0  0
 52 70  1  0  0  0  0
 53 72  1  0  0  0  0
 54 73  1  0  0  0  0
 55 73  1  0  0  0  0
 56 73  1  0  0  0  0
 57 84  1  0  0  0  0
 58 85  1  0  0  0  0
 59 60  1  0  0  0  0
 60 61  1  0  0  0  0
 61 63  1  0  0  0  0
 62 64  1  0  0  0  0
 62 65  1  0  0  0  0
 63 67  1  0  0  0  0
 64 68  1  0  0  0  0
 65 69  1  0  0  0  0
 66 75  1  0  0  0  0
 67 85  1  0  0  0  0
 68 85  1  0  0  0  0
 69 92  1  0  0  0  0
 70 83  1  0  0  0  0
 71 73  1  0  0  0  0
 71 82  1  0  0  0  0
 72 84  1  0  0  0  0
 74 76  1  0  0  0  0
M  CHG  2  84   1  85   1
M  ISO  4  36 100  69 101  83 100  92 101
M  END
> <Batch ID>
0024

> <Smiles>
CCn1c(C)c(C(C)[100NH:0][100C:0](=O)N2CCCC(n3nc(-c4ccc(Oc5ccc(F)cc5F)cc4)c(C(N)=O)c3N)C2)c(C)c1CCCCCN(C)CCCC[101CH2:1][101O:1]c1ccc2c(c1)CN(C(=O)C(NC(=O)C(C)NC)C(C)(C)C)C(C(=O)NC1CCCc3ccccc31)C2

> <Shape>
0.249

> <Color>
0.078

> <Negative vol penalty>
0.000

$$$$

  -OEChem-04052316223D

 99107  0     1  0  0  0  0  0999 V2000
  -12.4567  -33.2977   21.0440 C   0  0  0  0  0  0  0  0  0  0  0  0
  -12.8731  -32.0067   20.7351 C   0  0  0  0  0  0  0  0  0  0  0  0
  -22.9741  -10.0476   19.9807 C   0  0  0  0  0  0  0  0  0  0  0  0
  -24.1192   -9.5041   22.0375 C   0  0  0  0  0  0  0  0  0  0  0  0
  -13.3777  -34.3445   21.0449 C   0  0  0  0  0  0  0  0  0  0  0  0
  -14.2105  -31.7620   20.4257 C   0  0  0  0  0  0  0  0  0  0  0  0
  -17.4400  -26.7352   21.7704 C   0  0  0  0  0  0  0  0  0  0  0  0
  -22.2677   -8.8473   20.0568 C   0  0  0  0  0  0  0  0  0  0  0  0
  -23.4127   -8.3037   22.1136 C   0  0  0  0  0  0  0  0  0  0  0  0
  -17.7768  -25.6085   21.0215 C   0  0  0  0  0  0  0  0  0  0  0  0
  -20.3260   -7.2865   23.0397 C   0  0  0  0  0  0  0  0  0  0  0  0
  -19.7825   -6.9333   24.2748 C   0  0  0  0  0  0  0  0  0  0  0  0
  -19.9040  -26.6103   20.4823 C   0  0  0  0  0  0  0  0  0  0  0  0
  -20.5647  -19.0886   18.0193 C   0  0  0  0  0  0  0  0  0  0  0  0
  -18.4681  -19.9286   18.8769 C   0  0  0  0  0  0  0  0  0  0  0  0
  -21.1038   -4.9106   24.2779 C   0  0  0  0  0  0  0  0  0  0  0  0
  -23.8999  -10.3760   20.9711 C   0  0  0  0  0  0  0  0  0  0  0  0
  -24.2530  -12.8601   21.4319 C   0  0  0  0  0  0  0  0  0  0  0  0
  -14.7290  -34.1108   20.7447 C   0  0  0  0  0  0  0  0  0  0  0  0
  -18.3297  -27.8144   21.8721 C   0  0  0  0  0  0  0  0  0  0  0  0
  -15.1502  -32.8069   20.4212 C   0  0  0  0  0  0  0  0  0  0  0  0
  -19.5772  -27.7484   21.2352 C   0  0  0  0  0  0  0  0  0  0  0  0
  -19.8397  -19.7240   19.0273 C   0  0  0  0  0  0  0  0  0  0  0  0
  -19.9183  -18.6579   16.8607 C   0  0  0  0  0  0  0  0  0  0  0  0
  -17.8216  -19.4979   17.7183 C   0  0  0  0  0  0  0  0  0  0  0  0
  -22.4870   -7.9753   21.1232 C   0  0  0  0  0  0  0  0  0  0  0  0
  -19.0078  -25.5471   20.3749 C   0  0  0  0  0  0  0  0  0  0  0  0
  -21.2584   -6.4517   22.4237 C   0  0  0  0  0  0  0  0  0  0  0  0
  -20.1713   -5.7454   24.8939 C   0  0  0  0  0  0  0  0  0  0  0  0
  -21.6473   -5.2638   23.0428 C   0  0  0  0  0  0  0  0  0  0  0  0
  -18.5467  -18.8625   16.7102 C   0  0  0  0  0  0  0  0  0  0  0  0
  -24.6303  -11.6155   20.8928 C   0  0  0  0  0  0  0  0  0  0  0  0
  -25.2768  -13.7082   21.0870 C   0  0  0  0  0  0  0  0  0  0  0  0
  -23.0819  -13.2175   22.1778 C   0  0  0  0  0  0  0  0  0  0  0  0
  -18.2423  -30.8800   21.0368 C   0  0  0  0  0  0  0  0  0  0  0  0
  -21.0769  -30.9870   22.6103 C   0  0  0  0  0  0  0  0  0  0  0  0
  -23.8298  -29.3143   23.7374 C   0  0  0  0  0  0  0  0  0  0  0  0
  -30.7250  -14.8084   20.5840 C   0  0  0  0  0  0  0  0  0  0  0  0
  -15.6785  -35.2822   20.7121 C   0  0  0  0  0  0  0  0  0  0  0  0
  -17.9624  -29.0112   22.7057 C   0  0  0  0  0  0  0  0  0  0  0  0
  -20.5762  -28.8716   21.3297 C   0  0  0  0  0  0  0  0  0  0  0  0
  -17.1494  -34.8749   20.7393 C   0  0  0  0  0  0  0  0  0  0  0  0
  -29.1567  -13.0629   17.9063 C   0  0  0  0  0  0  0  0  0  0  0  0
  -17.4096  -33.7473   19.7455 C   0  0  0  0  0  0  0  0  0  0  0  0
  -27.8116  -12.6284   18.4910 C   0  0  0  0  0  0  0  0  0  0  0  0
  -30.2708  -13.0037   18.9490 C   0  0  0  0  0  0  0  0  0  0  0  0
  -28.6485  -13.3094   20.7789 C   0  0  0  0  0  0  0  0  0  0  0  0
  -16.5972  -32.4972   20.1044 C   0  0  1  0  0  0  0  0  0  0  0  0
  -18.7342  -30.2688   22.3183 C   0  0  1  0  0  0  0  0  0  0  0  0
  -27.4829  -13.4058   19.7797 C   0  0  2  0  0  0  0  0  0  0  0  0
  -20.7353  -17.9819   15.8068 C   0  0  0  0  0  0  0  0  0  0  0  0
  -25.9933  -29.6769   24.9561 C   0  0  0  0  0  0  0  0  0  0  0  0
  -22.4582  -18.4417   20.6601 C   0  0  0  0  0  0  0  0  0  0  0  0
  -19.9966  -19.5422   21.6026 C   0  0  0  0  0  0  0  0  0  0  0  0
  -15.7966  -20.4634   18.8641 C   0  0  0  0  0  0  0  0  0  0  0  0
  -15.5723  -18.3968   17.4446 C   0  0  0  0  0  0  0  0  0  0  0  0
  -15.9138  -20.6201   16.3855 C   0  0  0  0  0  0  0  0  0  0  0  0
  -22.2838  -32.2227   20.0951 C   0  0  0  0  0  0  0  0  0  0  0  0
  -24.5537  -31.6846   21.0040 C   0  0  0  0  0  0  0  0  0  0  0  0
  -23.0576  -33.2534   22.2383 C   0  0  0  0  0  0  0  0  0  0  0  0
  -23.0385  -27.4844   25.9247 C   0  0  0  0  0  0  0  0  0  0  0  0
  -28.7171  -19.5499   21.2943 C   0  0  0  0  0  0  0  0  0  0  0  0
  -29.1233  -18.2219   21.9370 C   0  0  0  0  0  0  0  0  0  0  0  0
  -27.2388  -19.8594   21.5422 C   0  0  0  0  0  0  0  0  0  0  0  0
  -30.6099  -17.9292   21.7138 C   0  0  0  0  0  0  0  0  0  0  0  0
  -26.8455  -21.2081   20.9328 C   0  0  0  0  0  0  0  0  0  0  0  0
  -20.9218  -22.6189   19.3157 C   0  0  0  0  0  0  0  0  0  0  0  0
  -20.3577  -21.7569   20.4620 C   0  0  0  0  0  0  0  0  0  0  0  0
  -31.0355  -16.5830   22.2909 C   0  0  0  0  0  0  0  0  0  0  0  0
  -25.4011  -21.6028   21.2147 C   0  0  0  0  0  0  0  0  0  0  0  0
  -23.0266  -20.8970   20.8945 C   0  0  0  0  0  0  0  0  0  0  0  0
  -20.7210  -24.1134   19.5591 C   0  0  0  0  0  0  0  0  0  1  0  0
  -22.5221  -30.7826   22.2247 C   0  0  1  0  0  0  0  0  0  0  0  0
  -24.5233  -29.3103   25.0878 C   0  0  2  0  0  0  0  0  0  0  0  0
  -22.1166  -19.8704   20.1845 C   0  0  2  0  0  0  0  0  0  0  0  0
  -20.5582  -20.2027   20.3152 C   0  0  2  0  0  0  0  0  0  0  0  0
  -16.3508  -19.7384   17.6002 C   0  0  0  0  0  0  0  0  0  0  0  0
  -23.0849  -31.9653   21.3869 C   0  0  0  0  0  0  0  0  0  0  0  0
  -25.8022  -11.6643   20.2538 N   0  0  0  0  0  0  0  0  0  0  0  0
  -26.1701  -12.9498   20.3891 N   0  0  0  0  0  0  0  0  0  0  0  0
  -20.1680  -30.0231   22.1514 N   0  0  0  0  0  0  0  0  0  0  0  0
  -29.8970  -13.7619   20.1454 N   0  0  0  0  0  0  0  0  0  0  0  0
  -25.4911  -15.0213   21.3155 N   0  0  0  0  0  0  0  0  0  0  0  0
  -22.1302  -12.2236   22.4441 N   0  0  0  0  0  0  0  0  0  0  0  0
  -17.2167  -31.7907   21.2051 N   0  0  0  0  0  0  0  0  0  0  0  0
  -23.2448  -30.5333   23.4672 N   0  0  0  0  0  0  0  0  0  0  0  0
  -30.2942  -15.4796   21.7219 N   0  0  0  0  0  0  0  0  0  0  0  0
  -24.4297  -27.9613   25.7142 N   0  3  0  0  0  0  0  0  0  0  0  0
  -24.4608  -20.6177   20.6178 N   0  3  0  0  0  0  0  0  0  0  0  0
  -22.8773  -14.3873   22.5816 O   0  0  0  0  0  0  0  0  0  0  0  0
  -18.7563  -30.5509   19.9742 O   0  0  0  0  0  0  0  0  0  0  0  0
  -20.7670  -31.9620   23.2995 O   0  0  0  0  0  0  0  0  0  0  0  0
  -23.8123  -28.3351   22.9947 O   0  0  0  0  0  0  0  0  0  0  0  0
  -31.7678  -15.1248   20.0016 O   0  0  0  0  0  0  0  0  0  0  0  0
  -21.7977   -6.8041   21.1979 O   0  0  0  0  0  0  0  0  0  0  0  0
  -19.3413  -24.4404   19.6371 O   0  0  0  0  0  0  0  0  0  1  0  0
  -19.6504   -5.4072   26.0807 F   0  0  0  0  0  0  0  0  0  0  0  0
  -22.5435   -4.4583   22.4564 F   0  0  0  0  0  0  0  0  0  0  0  0
  -17.7442  -18.3280   15.2718 Cl  0  0  0  0  0  0  0  0  0  0  0  0
  1  2  1  0  0  0  0
  1  5  2  0  0  0  0
  2  6  2  0  0  0  0
  3  8  2  0  0  0  0
  3 17  1  0  0  0  0
  4  9  1  0  0  0  0
  4 17  2  0  0  0  0
  5 19  1  0  0  0  0
  6 21  1  0  0  0  0
  7 10  2  0  0  0  0
  7 20  1  0  0  0  0
  8 26  1  0  0  0  0
  9 26  2  0  0  0  0
 10 27  1  0  0  0  0
 11 12  2  0  0  0  0
 11 28  1  0  0  0  0
 12 29  1  0  0  0  0
 13 22  1  0  0  0  0
 13 27  2  0  0  0  0
 14 23  1  0  0  0  0
 14 24  2  0  0  0  0
 15 23  2  0  0  0  0
 15 25  1  0  0  0  0
 16 29  2  0  0  0  0
 16 30  1  0  0  0  0
 17 32  1  0  0  0  0
 18 32  1  0  0  0  0
 18 33  2  0  0  0  0
 18 34  1  0  0  0  0
 19 21  2  0  0  0  0
 19 39  1  0  0  0  0
 20 22  2  0  0  0  0
 20 40  1  0  0  0  0
 21 48  1  0  0  0  0
 22 41  1  0  0  0  0
 23 76  1  0  0  0  0
 24 31  1  0  0  0  0
 24 51  1  0  0  0  0
 25 31  2  0  0  0  0
 25 77  1  0  0  0  0
 26 95  1  0  0  0  0
 27 96  1  0  0  0  0
 28 30  2  0  0  0  0
 28 95  1  0  0  0  0
 29 97  1  0  0  0  0
 30 98  1  0  0  0  0
 31 99  1  0  0  0  0
 32 79  2  0  0  0  0
 33 80  1  0  0  0  0
 33 83  1  0  0  0  0
 34 84  1  0  0  0  0
 34 90  2  0  0  0  0
 35 49  1  0  0  0  0
 35 85  1  0  0  0  0
 35 91  2  0  0  0  0
 36 73  1  0  0  0  0
 36 81  1  0  0  0  0
 36 92  2  0  0  0  0
 37 74  1  0  0  0  0
 37 86  1  0  0  0  0
 37 93  2  0  0  0  0
 38 82  1  0  0  0  0
 38 87  1  0  0  0  0
 38 94  2  0  0  0  0
 39 42  1  0  0  0  0
 40 49  1  0  0  0  0
 41 81  1  0  0  0  0
 42 44  1  0  0  0  0
 43 45  1  0  0  0  0
 43 46  1  0  0  0  0
 44 48  1  0  0  0  0
 45 50  1  0  0  0  0
 46 82  1  0  0  0  0
 47 50  1  0  0  0  0
 47 82  1  0  0  0  0
 48 85  1  0  0  0  0
 49 81  1  0  0  0  0
 50 80  1  0  0  0  0
 52 74  1  0  0  0  0
 53 75  1  0  0  0  0
 54 76  1  0  0  0  0
 55 77  1  0  0  0  0
 56 77  1  0  0  0  0
 57 77  1  0  0  0  0
 58 78  1  0  0  0  0
 59 78  1  0  0  0  0
 60 78  1  0  0  0  0
 61 88  1  0  0  0  0
 62 63  1  0  0  0  0
 62 64  1  0  0  0  0
 63 65  1  0  0  0  0
 64 66  1  0  0  0  0
 65 69  1  0  0  0  0
 66 70  1  0  0  0  0
 67 68  1  0  0  0  0
 67 72  1  0  0  0  0
 68 76  1  0  0  0  0
 69 87  1  0  0  0  0
 70 89  1  0  0  0  0
 71 75  1  0  0  0  0
 71 89  1  0  0  0  0
 72 96  1  0  0  0  0
 73 78  1  0  0  0  0
 73 86  1  0  0  0  0
 74 88  1  0  0  0  0
 75 76  1  0  0  0  0
 79 80  1  0  0  0  0
M  CHG  2  88   1  89   1
M  ISO  4  38 100  72 101  87 100  96 101
M  END
> <Batch ID>
0024

> <Smiles>
CNC(C)C(=O)NC(C(=O)N1Cc2cc([101O:1][101CH2:1]CCC(C)(c3cc(C)c(Cl)c(C(C)(C)C)c3)C(C)CNCCCCCCC[100NH:0][100C:0](=O)N3CCCC(n4nc(-c5ccc(Oc6ccc(F)cc6F)cc5)c(C(N)=O)c4N)C3)ccc2CC1C(=O)NC1CCCc2ccccc21)C(C)(C)C

> <Shape>
0.263

> <Color>
0.145

> <Negative vol penalty>
0.000

$$$$

  -OEChem-04052316223D

 98106  0     1  0  0  0  0  0999 V2000
  -26.5199  -34.9908   20.4631 C   0  0  0  0  0  0  0  0  0  0  0  0
  -26.8836  -33.6485   20.4982 C   0  0  0  0  0  0  0  0  0  0  0  0
  -24.2870   -9.3482   21.7598 C   0  0  0  0  0  0  0  0  0  0  0  0
  -22.4090  -10.3348   20.6034 C   0  0  0  0  0  0  0  0  0  0  0  0
  -25.4528  -35.4432   21.2381 C   0  0  0  0  0  0  0  0  0  0  0  0
  -26.1812  -32.7579   21.3092 C   0  0  0  0  0  0  0  0  0  0  0  0
  -25.1003  -28.4133   18.9426 C   0  0  0  0  0  0  0  0  0  0  0  0
  -23.6312   -8.1172   21.7745 C   0  0  0  0  0  0  0  0  0  0  0  0
  -21.7533   -9.1038   20.6181 C   0  0  0  0  0  0  0  0  0  0  0  0
  -26.1295  -27.4806   18.8222 C   0  0  0  0  0  0  0  0  0  0  0  0
  -21.1762   -6.6244   23.5547 C   0  0  0  0  0  0  0  0  0  0  0  0
  -21.1848   -5.9006   24.7469 C   0  0  0  0  0  0  0  0  0  0  0  0
  -25.2297  -26.2549   20.6949 C   0  0  0  0  0  0  0  0  0  0  0  0
  -22.3070   -4.0753   23.6307 C   0  0  0  0  0  0  0  0  0  0  0  0
  -23.6759  -10.4570   21.1743 C   0  0  0  0  0  0  0  0  0  0  0  0
  -25.2212  -12.2182   20.1654 C   0  0  0  0  0  0  0  0  0  0  0  0
  -24.7308  -34.5558   22.0517 C   0  0  0  0  0  0  0  0  0  0  0  0
  -24.1326  -28.2795   19.9486 C   0  0  0  0  0  0  0  0  0  0  0  0
  -25.1043  -33.1991   22.0969 C   0  0  0  0  0  0  0  0  0  0  0  0
  -24.1877  -27.1858   20.8243 C   0  0  0  0  0  0  0  0  0  0  0  0
  -22.3644   -7.9950   21.2036 C   0  0  0  0  0  0  0  0  0  0  0  0
  -26.1960  -26.4028   19.7003 C   0  0  0  0  0  0  0  0  0  0  0  0
  -21.7329   -6.0737   22.4003 C   0  0  0  0  0  0  0  0  0  0  0  0
  -21.7502   -4.6260   24.7850 C   0  0  0  0  0  0  0  0  0  0  0  0
  -22.2983   -4.7991   22.4384 C   0  0  0  0  0  0  0  0  0  0  0  0
  -24.3525  -11.7291   21.1593 C   0  0  0  0  0  0  0  0  0  0  0  0
  -25.5948  -13.4604   20.6168 C   0  0  0  0  0  0  0  0  0  0  0  0
  -25.6520  -11.6045   18.9432 C   0  0  0  0  0  0  0  0  0  0  0  0
  -23.2347  -30.0310   22.4445 C   0  0  0  0  0  0  0  0  0  0  0  0
  -20.8993  -27.7922   22.6811 C   0  0  0  0  0  0  0  0  0  0  0  0
  -30.1544  -18.7792   21.2310 C   0  0  0  0  0  0  0  0  0  0  0  0
  -19.8530  -24.6146   22.0063 C   0  0  0  0  0  0  0  0  0  0  0  0
  -23.0325  -17.3846   24.3039 C   0  0  0  0  0  0  0  0  0  0  0  0
  -23.6149  -35.1003   22.9078 C   0  0  0  0  0  0  0  0  0  0  0  0
  -23.0134  -29.2795   20.0482 C   0  0  0  0  0  0  0  0  0  0  0  0
  -23.1617  -26.9857   21.9087 C   0  0  0  0  0  0  0  0  0  0  0  0
  -22.6844  -34.0208   23.4547 C   0  0  0  0  0  0  0  0  0  0  0  0
  -26.2392  -15.9643   24.6244 C   0  0  0  0  0  0  0  0  0  0  0  0
  -23.4917  -32.8607   24.0284 C   0  0  0  0  0  0  0  0  0  0  0  0
  -26.2027  -14.7470   23.7036 C   0  0  0  0  0  0  0  0  0  0  0  0
  -24.9058  -16.1444   25.3381 C   0  0  0  0  0  0  0  0  0  0  0  0
  -20.8424  -16.0846   24.2689 C   0  0  0  0  0  0  0  0  0  0  0  0
  -23.6892  -15.0789   23.4593 C   0  0  0  0  0  0  0  0  0  0  0  0
  -24.3510  -32.1976   22.9452 C   0  0  1  0  0  0  0  0  0  0  0  0
  -22.3755  -29.3263   21.4333 C   0  0  1  0  0  0  0  0  0  0  0  0
  -19.4857  -16.6838   24.6464 C   0  0  1  0  0  0  0  0  0  0  0  0
  -25.0234  -14.8421   22.7224 C   0  0  2  0  0  0  0  0  0  0  0  0
  -19.4157  -17.8730   23.6901 C   0  0  2  0  0  0  0  0  0  0  0  0
  -20.8400  -18.4349   23.7177 C   0  0  2  0  0  0  0  0  0  0  0  0
  -18.5043  -14.5063   25.3835 C   0  0  0  0  0  0  0  0  0  0  0  0
  -17.9125  -23.0631   22.3589 C   0  0  0  0  0  0  0  0  0  0  0  0
  -21.7493  -27.3929   25.5842 C   0  0  0  0  0  0  0  0  0  0  0  0
  -20.4701  -25.2407   25.5897 C   0  0  0  0  0  0  0  0  0  0  0  0
  -19.2761  -27.3982   25.2125 C   0  0  0  0  0  0  0  0  0  0  0  0
  -19.4045  -24.3270   19.0951 C   0  0  0  0  0  0  0  0  0  0  0  0
  -17.0183  -18.5446   23.7327 C   0  0  0  0  0  0  0  0  0  0  0  0
  -18.5126  -19.1426   25.6327 C   0  0  0  0  0  0  0  0  0  0  0  0
  -29.0375  -17.7534   21.1299 C   0  0  0  0  0  0  0  0  0  0  0  0
  -18.3381  -15.6994   24.4958 C   0  0  0  0  0  0  0  0  0  0  0  0
  -21.2024  -19.1451   22.4185 C   0  0  0  0  0  0  0  0  0  0  0  0
  -27.7175  -18.3291   20.6198 C   0  0  0  0  0  0  0  0  0  0  0  0
  -22.4035  -20.0704   22.6063 C   0  0  0  0  0  0  0  0  0  0  0  0
  -27.1735  -19.4355   21.5288 C   0  0  0  0  0  0  0  0  0  0  0  0
  -22.7802  -20.7558   21.2915 C   0  0  0  0  0  0  0  0  0  0  0  0
  -25.8379  -19.9730   21.0085 C   0  0  0  0  0  0  0  0  0  0  0  0
  -23.9856  -21.6929   21.4149 C   0  0  0  0  0  0  0  0  0  0  0  0
  -25.2779  -21.0551   21.9338 C   0  0  0  0  0  0  0  0  0  0  0  0
  -29.8299  -22.0733   19.0072 C   0  0  0  0  0  0  0  0  0  0  0  0
  -29.3222  -23.5065   19.1770 C   0  0  0  0  0  0  0  0  0  0  0  0
  -30.9409  -21.7541   20.0076 C   0  0  0  0  0  0  0  0  0  0  0  0
  -28.2302  -23.8335   18.1543 C   0  0  0  0  0  0  0  0  0  0  0  0
  -31.4725  -20.3392   19.8131 C   0  0  0  0  0  0  0  0  0  0  0  0
  -27.7314  -25.2679   18.2823 C   0  0  0  0  0  0  0  0  0  1  0  0
  -20.7574  -26.4659   23.3881 C   0  0  1  0  0  0  0  0  0  0  0  0
  -18.5528  -24.0832   21.4305 C   0  0  2  0  0  0  0  0  0  0  0  0
  -20.5838  -26.6290   24.9245 C   0  0  0  0  0  0  0  0  0  0  0  0
  -24.1842  -12.5902   22.1663 N   0  0  0  0  0  0  0  0  0  0  0  0
  -24.9524  -13.6329   21.8075 N   0  0  0  0  0  0  0  0  0  0  0  0
  -22.0905  -27.9938   21.9695 N   0  0  0  0  0  0  0  0  0  0  0  0
  -23.7918  -16.2105   24.3910 N   0  0  0  0  0  0  0  0  0  0  0  0
  -21.6807  -17.2536   23.9723 N   0  0  0  0  0  0  0  0  0  0  0  0
  -26.4069  -14.4109   20.1075 N   0  0  0  0  0  0  0  0  0  0  0  0
  -25.1718  -10.3249   18.6327 N   0  0  0  0  0  0  0  0  0  0  0  0
  -23.5386  -31.3373   22.1119 N   0  0  0  0  0  0  0  0  0  0  0  0
  -30.4349  -19.3515   19.9988 N   0  0  0  0  0  0  0  0  0  0  0  0
  -19.6554  -25.7698   22.7327 N   0  0  0  0  0  0  0  0  0  0  0  0
  -18.7980  -23.4310   20.1131 N   0  3  0  0  0  0  0  0  0  0  0  0
  -18.4341  -18.8767   24.1464 N   0  3  0  0  0  0  0  0  0  0  0  0
  -26.4521  -12.1673   18.1580 O   0  0  0  0  0  0  0  0  0  0  0  0
  -23.5941  -29.4343   23.4527 O   0  0  0  0  0  0  0  0  0  0  0  0
  -19.9839  -28.6160   22.7514 O   0  0  0  0  0  0  0  0  0  0  0  0
  -30.7393  -19.0381   22.2792 O   0  0  0  0  0  0  0  0  0  0  0  0
  -20.9351  -24.0584   21.8324 O   0  0  0  0  0  0  0  0  0  0  0  0
  -23.5299  -18.4933   24.5393 O   0  0  0  0  0  0  0  0  0  0  0  0
  -21.7243   -6.7939   21.2176 O   0  0  0  0  0  0  0  0  0  0  0  0
  -27.2076  -25.4844   19.5846 O   0  0  0  0  0  0  0  0  0  1  0  0
  -21.7598   -3.9317   25.9304 F   0  0  0  0  0  0  0  0  0  0  0  0
  -22.8357   -4.2652   21.3329 F   0  0  0  0  0  0  0  0  0  0  0  0
  1  2  1  0  0  0  0
  1  5  2  0  0  0  0
  2  6  2  0  0  0  0
  3  8  2  0  0  0  0
  3 15  1  0  0  0  0
  4  9  1  0  0  0  0
  4 15  2  0  0  0  0
  5 17  1  0  0  0  0
  6 19  1  0  0  0  0
  7 10  2  0  0  0  0
  7 18  1  0  0  0  0
  8 21  1  0  0  0  0
  9 21  2  0  0  0  0
 10 22  1  0  0  0  0
 11 12  2  0  0  0  0
 11 23  1  0  0  0  0
 12 24  1  0  0  0  0
 13 20  1  0  0  0  0
 13 22  2  0  0  0  0
 14 24  2  0  0  0  0
 14 25  1  0  0  0  0
 15 26  1  0  0  0  0
 16 26  1  0  0  0  0
 16 27  2  0  0  0  0
 16 28  1  0  0  0  0
 17 19  2  0  0  0  0
 17 34  1  0  0  0  0
 18 20  2  0  0  0  0
 18 35  1  0  0  0  0
 19 44  1  0  0  0  0
 20 36  1  0  0  0  0
 21 95  1  0  0  0  0
 22 96  1  0  0  0  0
 23 25  2  0  0  0  0
 23 95  1  0  0  0  0
 24 97  1  0  0  0  0
 25 98  1  0  0  0  0
 26 77  2  0  0  0  0
 27 78  1  0  0  0  0
 27 82  1  0  0  0  0
 28 83  1  0  0  0  0
 28 89  2  0  0  0  0
 29 45  1  0  0  0  0
 29 84  1  0  0  0  0
 29 90  2  0  0  0  0
 30 74  1  0  0  0  0
 30 79  1  0  0  0  0
 30 91  2  0  0  0  0
 31 58  1  0  0  0  0
 31 85  1  0  0  0  0
 31 92  2  0  0  0  0
 32 75  1  0  0  0  0
 32 86  1  0  0  0  0
 32 93  2  0  0  0  0
 33 80  1  0  0  0  0
 33 81  1  0  0  0  0
 33 94  2  0  0  0  0
 34 37  1  0  0  0  0
 35 45  1  0  0  0  0
 36 79  1  0  0  0  0
 37 39  1  0  0  0  0
 38 40  1  0  0  0  0
 38 41  1  0  0  0  0
 39 44  1  0  0  0  0
 40 47  1  0  0  0  0
 41 80  1  0  0  0  0
 42 46  1  0  0  0  0
 42 81  1  0  0  0  0
 43 47  1  0  0  0  0
 43 80  1  0  0  0  0
 44 84  1  0  0  0  0
 45 79  1  0  0  0  0
 46 48  1  0  0  0  0
 46 59  1  0  0  0  0
 47 78  1  0  0  0  0
 48 49  1  0  0  0  0
 48 88  1  0  0  0  0
 49 60  1  0  0  0  0
 49 81  1  0  0  0  0
 50 59  1  0  0  0  0
 51 75  1  0  0  0  0
 52 76  1  0  0  0  0
 53 76  1  0  0  0  0
 54 76  1  0  0  0  0
 55 87  1  0  0  0  0
 56 88  1  0  0  0  0
 57 88  1  0  0  0  0
 58 61  1  0  0  0  0
 60 62  1  0  0  0  0
 61 63  1  0  0  0  0
 62 64  1  0  0  0  0
 63 65  1  0  0  0  0
 64 66  1  0  0  0  0
 65 67  1  0  0  0  0
 66 67  1  0  0  0  0
 68 69  1  0  0  0  0
 68 70  1  0  0  0  0
 69 71  1  0  0  0  0
 70 72  1  0  0  0  0
 71 73  1  0  0  0  0
 72 85  1  0  0  0  0
 73 96  1  0  0  0  0
 74 76  1  0  0  0  0
 74 86  1  0  0  0  0
 75 87  1  0  0  0  0
 77 78  1  0  0  0  0
M  CHG  2  87   1  88   1
M  ISO  4  33 100  73 101  81 100  96 101
M  END
> <Batch ID>
0024

> <Smiles>
CCC1C[100N:0]([100C:0](=O)N2CCCC(n3nc(-c4ccc(Oc5ccc(F)cc5F)cc4)c(C(N)=O)c3N)C2)C(CCCCCCCCCC(=O)NCCCCC[101CH2:1][101O:1]c2ccc3c(c2)CN(C(=O)C(NC(=O)C(C)NC)C(C)(C)C)C(C(=O)NC2CCCc4ccccc42)C3)C1N(C)C

> <Shape>
0.259

> <Color>
0.088

> <Negative vol penalty>
0.000

$$$$

  -OEChem-04052316223D

101111  0     1  0  0  0  0  0999 V2000
  -29.6036  -27.9358   16.2129 C   0  0  0  0  0  0  0  0  0  0  0  0
  -28.4359  -27.1900   16.0888 C   0  0  0  0  0  0  0  0  0  0  0  0
  -23.3215   -9.8656   21.5213 C   0  0  0  0  0  0  0  0  0  0  0  0
  -24.2282  -10.8531   23.5312 C   0  0  0  0  0  0  0  0  0  0  0  0
  -30.1301  -28.1993   17.4768 C   0  0  0  0  0  0  0  0  0  0  0  0
  -27.7944  -26.7062   17.2285 C   0  0  0  0  0  0  0  0  0  0  0  0
  -22.7805  -27.4010   17.0785 C   0  0  0  0  0  0  0  0  0  0  0  0
  -22.7071   -8.8738   22.2857 C   0  0  0  0  0  0  0  0  0  0  0  0
  -23.6137   -9.8613   24.2957 C   0  0  0  0  0  0  0  0  0  0  0  0
  -22.0385  -26.5182   16.2950 C   0  0  0  0  0  0  0  0  0  0  0  0
  -20.5216   -9.1920   25.4837 C   0  0  0  0  0  0  0  0  0  0  0  0
  -19.8513   -9.5896   26.6404 C   0  0  0  0  0  0  0  0  0  0  0  0
  -21.4353  -25.2780   18.2743 C   0  0  0  0  0  0  0  0  0  0  0  0
  -23.1346  -21.1958   17.1110 C   0  0  0  0  0  0  0  0  0  0  0  0
  -21.3147   -8.1981   27.9668 C   0  0  0  0  0  0  0  0  0  0  0  0
  -24.0821  -10.8553   22.1440 C   0  0  0  0  0  0  0  0  0  0  0  0
  -24.1775  -13.1264   20.9863 C   0  0  0  0  0  0  0  0  0  0  0  0
  -29.4895  -27.7267   18.6331 C   0  0  0  0  0  0  0  0  0  0  0  0
  -22.8645  -27.2223   18.4668 C   0  0  0  0  0  0  0  0  0  0  0  0
  -28.3136  -26.9625   18.5090 C   0  0  0  0  0  0  0  0  0  0  0  0
  -22.1769  -26.1615   19.0734 C   0  0  0  0  0  0  0  0  0  0  0  0
  -24.7899  -22.4881   15.9165 C   0  0  0  0  0  0  0  0  0  0  0  0
  -22.4457  -23.0303   15.6979 C   0  0  0  0  0  0  0  0  0  0  0  0
  -24.4678  -21.4458   16.7857 C   0  0  0  0  0  0  0  0  0  0  0  0
  -22.8532   -8.8717   23.6729 C   0  0  0  0  0  0  0  0  0  0  0  0
  -21.3682  -25.4548   16.8925 C   0  0  0  0  0  0  0  0  0  0  0  0
  -21.5885   -8.2973   25.5684 C   0  0  0  0  0  0  0  0  0  0  0  0
  -20.2478   -9.0927   27.8820 C   0  0  0  0  0  0  0  0  0  0  0  0
  -22.1236  -21.9880   16.5670 C   0  0  0  0  0  0  0  0  0  0  0  0
  -21.9850   -7.8004   26.8100 C   0  0  0  0  0  0  0  0  0  0  0  0
  -23.7789  -23.2804   15.3726 C   0  0  0  0  0  0  0  0  0  0  0  0
  -24.7176  -11.8798   21.3549 C   0  0  0  0  0  0  0  0  0  0  0  0
  -25.1681  -13.7246   20.2465 C   0  0  0  0  0  0  0  0  0  0  0  0
  -28.6037  -20.1673   20.5692 C   0  0  0  0  0  0  0  0  0  0  0  0
  -28.9747  -18.9331   20.9628 C   0  0  0  0  0  0  0  0  0  0  0  0
  -26.6746  -19.6005   19.0803 C   0  0  0  0  0  0  0  0  0  0  0  0
  -27.2810  -20.4190   19.9872 C   0  0  0  0  0  0  0  0  0  0  0  0
  -27.3353  -18.3715   18.5655 C   0  0  0  0  0  0  0  0  0  0  0  0
  -28.0145  -17.5106   19.3663 C   0  0  0  0  0  0  0  0  0  0  0  0
  -30.4200  -18.6259   21.0892 C   0  0  0  0  0  0  0  0  0  0  0  0
  -22.8950  -13.6931   21.2858 C   0  0  0  0  0  0  0  0  0  0  0  0
  -25.2268  -26.6551   20.5166 C   0  0  0  0  0  0  0  0  0  0  0  0
  -22.8843  -27.0540   22.7247 C   0  0  0  0  0  0  0  0  0  0  0  0
  -19.5532  -26.9702   23.4620 C   0  0  0  0  0  0  0  0  0  0  0  0
  -30.6980  -14.9876   20.0178 C   0  0  0  0  0  0  0  0  0  0  0  0
  -30.1222  -27.9968   19.9753 C   0  0  0  0  0  0  0  0  0  0  0  0
  -23.6472  -28.1989   19.3011 C   0  0  0  0  0  0  0  0  0  0  0  0
  -22.2186  -25.9376   20.5623 C   0  0  0  0  0  0  0  0  0  0  0  0
  -28.0428  -17.7797   20.8468 C   0  0  0  0  0  0  0  0  0  0  0  0
  -29.0312  -16.5078   18.8792 C   0  0  0  0  0  0  0  0  0  0  0  0
  -29.1771  -27.7660   21.1516 C   0  0  0  0  0  0  0  0  0  0  0  0
  -29.4787  -11.8998   18.3556 C   0  0  0  0  0  0  0  0  0  0  0  0
  -28.4380  -26.4413   20.9907 C   0  0  0  0  0  0  0  0  0  0  0  0
  -28.1232  -11.6757   19.0236 C   0  0  0  0  0  0  0  0  0  0  0  0
  -30.4427  -12.6525   19.2679 C   0  0  0  0  0  0  0  0  0  0  0  0
  -28.5497  -13.7197   20.4422 C   0  0  0  0  0  0  0  0  0  0  0  0
  -27.5753  -26.4415   19.7229 C   0  0  1  0  0  0  0  0  0  0  0  0
  -31.0100  -17.4369   20.2840 C   0  0  2  0  0  0  0  0  0  0  0  0
  -24.0837  -27.6219   20.6442 C   0  0  1  0  0  0  0  0  0  0  0  0
  -27.5419  -13.0063   19.5294 C   0  0  2  0  0  0  0  0  0  0  0  0
  -26.2108  -22.7761   15.5547 C   0  0  0  0  0  0  0  0  0  0  0  0
  -34.0109  -19.0400   18.3397 C   0  0  0  0  0  0  0  0  0  0  0  0
  -20.3500  -23.0661   14.3015 C   0  0  0  0  0  0  0  0  0  0  0  0
  -17.9467  -27.3070   25.3602 C   0  0  0  0  0  0  0  0  0  0  0  0
  -31.0140  -19.1441   18.4533 C   0  0  0  0  0  0  0  0  0  0  0  0
  -23.6818  -24.3438   23.8773 C   0  0  0  0  0  0  0  0  0  0  0  0
  -21.5013  -24.3033   25.1070 C   0  0  0  0  0  0  0  0  0  0  0  0
  -23.1693  -26.0948   25.5877 C   0  0  0  0  0  0  0  0  0  0  0  0
  -18.1823  -29.1877   22.0612 C   0  0  0  0  0  0  0  0  0  0  0  0
  -25.2951  -19.8504   18.5165 C   0  0  0  0  0  0  0  0  0  0  0  0
  -33.1992  -18.4840   19.5010 C   0  0  0  0  0  0  0  0  0  0  0  0
  -21.3639  -23.8756   15.1143 C   0  0  1  0  0  0  0  0  0  1  0  0
  -21.8916  -26.1437   23.4066 C   0  0  1  0  0  0  0  0  0  0  0  0
  -18.6561  -27.9595   24.1839 C   0  0  2  0  0  0  0  0  0  0  0  0
  -31.7975  -17.9978   19.0958 C   0  0  1  0  0  0  0  0  0  0  0  0
  -22.5616  -25.2242   24.4663 C   0  0  0  0  0  0  0  0  0  0  0  0
  -25.9552  -11.6956   20.8877 N   0  0  0  0  0  0  0  0  0  0  0  0
  -26.2010  -12.8344   20.2178 N   0  0  0  0  0  0  0  0  0  0  0  0
  -23.0024  -26.9159   21.3344 N   0  0  0  0  0  0  0  0  0  0  0  0
  -30.1451  -16.2878   19.8520 N   0  0  0  0  0  0  0  0  0  0  0  0
  -29.8513  -13.8894   19.7818 N   0  0  0  0  0  0  0  0  0  0  0  0
  -25.2477  -14.9199   19.6242 N   0  0  0  0  0  0  0  0  0  0  0  0
  -21.9972  -12.9435   22.0582 N   0  0  0  0  0  0  0  0  0  0  0  0
  -25.4643  -20.6447   17.3391 N   0  0  0  0  0  0  0  0  0  0  0  0
  -26.3595  -27.1962   19.9390 N   0  0  0  0  0  0  0  0  0  0  0  0
  -20.8454  -27.0084   23.9416 N   0  0  0  0  0  0  0  0  0  0  0  0
  -17.6245  -28.4981   23.2530 N   0  3  0  0  0  0  0  0  0  0  0  0
  -31.1561  -19.3920   21.7136 O   0  0  0  0  0  0  0  0  0  0  0  0
  -22.5489  -14.8237   20.8669 O   0  0  0  0  0  0  0  0  0  0  0  0
  -25.0917  -25.5039   20.9141 O   0  0  0  0  0  0  0  0  0  0  0  0
  -23.5259  -27.8630   23.3997 O   0  0  0  0  0  0  0  0  0  0  0  0
  -19.1473  -26.2343   22.5652 O   0  0  0  0  0  0  0  0  0  0  0  0
  -31.8823  -14.8197   20.3383 O   0  0  0  0  0  0  0  0  0  0  0  0
  -22.2535   -7.9042   24.4192 O   0  0  0  0  0  0  0  0  0  0  0  0
  -20.6416  -24.5887   16.1277 O   0  0  0  0  0  0  0  0  0  1  0  0
  -19.6049   -9.4758   28.9929 F   0  0  0  0  0  0  0  0  0  0  0  0
  -20.8453  -21.7400   16.8850 F   0  0  0  0  0  0  0  0  0  0  0  0
  -23.0100   -6.9417   26.8979 F   0  0  0  0  0  0  0  0  0  0  0  0
  -24.0875  -24.2826   14.5362 F   0  0  0  0  0  0  0  0  0  0  0  0
  -26.5583  -21.9121   20.5102 Cl  0  0  0  0  0  0  0  0  0  0  0  0
  -27.3493  -18.1753   16.8348 Cl  0  0  0  0  0  0  0  0  0  0  0  0
  1  2  1  0  0  0  0
  1  5  2  0  0  0  0
  2  6  2  0  0  0  0
  3  8  2  0  0  0  0
  3 16  1  0  0  0  0
  4  9  1  0  0  0  0
  4 16  2  0  0  0  0
  5 18  1  0  0  0  0
  6 20  1  0  0  0  0
  7 10  2  0  0  0  0
  7 19  1  0  0  0  0
  8 25  1  0  0  0  0
  9 25  2  0  0  0  0
 10 26  1  0  0  0  0
 11 12  2  0  0  0  0
 11 27  1  0  0  0  0
 12 28  1  0  0  0  0
 13 21  1  0  0  0  0
 13 26  2  0  0  0  0
 14 24  1  0  0  0  0
 14 29  2  0  0  0  0
 15 28  2  0  0  0  0
 15 30  1  0  0  0  0
 16 32  1  0  0  0  0
 17 32  1  0  0  0  0
 17 33  2  0  0  0  0
 17 41  1  0  0  0  0
 18 20  2  0  0  0  0
 18 46  1  0  0  0  0
 19 21  2  0  0  0  0
 19 47  1  0  0  0  0
 20 57  1  0  0  0  0
 21 48  1  0  0  0  0
 22 24  2  0  0  0  0
 22 31  1  0  0  0  0
 22 61  1  0  0  0  0
 23 29  1  0  0  0  0
 23 31  2  0  0  0  0
 23 72  1  0  0  0  0
 24 84  1  0  0  0  0
 25 94  1  0  0  0  0
 26 95  1  0  0  0  0
 27 30  2  0  0  0  0
 27 94  1  0  0  0  0
 28 96  1  0  0  0  0
 29 97  1  0  0  0  0
 30 98  1  0  0  0  0
 31 99  1  0  0  0  0
 32 77  2  0  0  0  0
 33 78  1  0  0  0  0
 33 82  1  0  0  0  0
 34 35  2  0  0  0  0
 34 37  1  0  0  0  0
 35 40  1  0  0  0  0
 35 49  1  0  0  0  0
 36 37  2  0  0  0  0
 36 38  1  0  0  0  0
 36 70  1  0  0  0  0
 37100  1  0  0  0  0
 38 39  2  0  0  0  0
 38101  1  0  0  0  0
 39 49  1  0  0  0  0
 39 50  1  0  0  0  0
 40 58  1  0  0  0  0
 40 88  2  0  0  0  0
 41 83  1  0  0  0  0
 41 89  2  0  0  0  0
 42 59  1  0  0  0  0
 42 85  1  0  0  0  0
 42 90  2  0  0  0  0
 43 73  1  0  0  0  0
 43 79  1  0  0  0  0
 43 91  2  0  0  0  0
 44 74  1  0  0  0  0
 44 86  1  0  0  0  0
 44 92  2  0  0  0  0
 45 80  1  0  0  0  0
 45 81  1  0  0  0  0
 45 93  2  0  0  0  0
 46 51  1  0  0  0  0
 47 59  1  0  0  0  0
 48 79  1  0  0  0  0
 50 80  1  0  0  0  0
 51 53  1  0  0  0  0
 52 54  1  0  0  0  0
 52 55  1  0  0  0  0
 53 57  1  0  0  0  0
 54 60  1  0  0  0  0
 55 81  1  0  0  0  0
 56 60  1  0  0  0  0
 56 81  1  0  0  0  0
 57 85  1  0  0  0  0
 58 75  1  0  0  0  0
 58 80  1  0  0  0  0
 59 79  1  0  0  0  0
 60 78  1  0  0  0  0
 62 71  1  0  0  0  0
 63 72  1  0  0  0  0
 64 74  1  0  0  0  0
 65 75  1  0  0  0  0
 66 76  1  0  0  0  0
 67 76  1  0  0  0  0
 68 76  1  0  0  0  0
 69 87  1  0  0  0  0
 70 84  1  0  0  0  0
 71 75  1  0  0  0  0
 72 95  1  0  0  0  0
 73 76  1  0  0  0  0
 73 86  1  0  0  0  0
 74 87  1  0  0  0  0
 77 78  1  0  0  0  0
M  CHG  1  87   1
M  ISO  4  45 100  72 101  80 100  95 101
M  END
> <Batch ID>
0024

> <Smiles>
CCC(C)C1C(=O)C2=CC(Cl)=C(CNc3cc(F)c([101CH:1](C)[101O:1]c4ccc5c(c4)CN(C(=O)C(NC(=O)C(C)NC)C(C)(C)C)C(C(=O)NC4CCCc6ccccc64)C5)c(F)c3C)C(Cl)=C(C2)C[100N:0]1[100C:0](=O)N1CCCC(n2nc(-c3ccc(Oc4ccc(F)cc4F)cc3)c(C(N)=O)c2N)C1

> <Shape>
0.235

> <Color>
0.135

> <Negative vol penalty>
0.000

$$$$

  -OEChem-04052316223D

 88 96  0     1  0  0  0  0  0999 V2000
  -23.2036   -5.1401   15.9867 C   0  0  0  0  0  0  0  0  0  0  0  0
  -23.3065   -6.5227   16.1017 C   0  0  0  0  0  0  0  0  0  0  0  0
  -18.2445  -30.7411   22.7787 C   0  0  0  0  0  0  0  0  0  0  0  0
  -18.9702  -28.6971   23.8428 C   0  0  0  0  0  0  0  0  0  0  0  0
  -22.9813   -4.3618   17.1219 C   0  0  0  0  0  0  0  0  0  0  0  0
  -23.1861   -7.1280   17.3522 C   0  0  0  0  0  0  0  0  0  0  0  0
  -26.1498  -12.1082   19.3321 C   0  0  0  0  0  0  0  0  0  0  0  0
  -16.9280  -30.2805   22.7916 C   0  0  0  0  0  0  0  0  0  0  0  0
  -17.6536  -28.2364   23.8558 C   0  0  0  0  0  0  0  0  0  0  0  0
  -25.7794  -13.4498   19.4131 C   0  0  0  0  0  0  0  0  0  0  0  0
  -14.4029  -30.0172   25.0249 C   0  0  0  0  0  0  0  0  0  0  0  0
  -13.4089  -30.9069   25.4323 C   0  0  0  0  0  0  0  0  0  0  0  0
  -25.1495  -13.1304   21.7197 C   0  0  0  0  0  0  0  0  0  0  0  0
  -12.3302  -30.6864   23.2817 C   0  0  0  0  0  0  0  0  0  0  0  0
  -19.2656  -29.9493   23.3042 C   0  0  0  0  0  0  0  0  0  0  0  0
  -21.2744  -31.1746   24.2898 C   0  0  0  0  0  0  0  0  0  0  0  0
  -22.8678   -4.9571   18.3882 C   0  0  0  0  0  0  0  0  0  0  0  0
  -26.0124  -11.2635   20.4430 C   0  0  0  0  0  0  0  0  0  0  0  0
  -22.9608   -6.3571   18.5053 C   0  0  0  0  0  0  0  0  0  0  0  0
  -25.5213  -11.7791   21.6509 C   0  0  0  0  0  0  0  0  0  0  0  0
  -16.6325  -29.0282   23.3302 C   0  0  0  0  0  0  0  0  0  0  0  0
  -25.2765  -13.9605   20.6061 C   0  0  0  0  0  0  0  0  0  0  0  0
  -14.3607  -29.4622   23.7459 C   0  0  0  0  0  0  0  0  0  0  0  0
  -12.3725  -31.2415   24.5607 C   0  0  0  0  0  0  0  0  0  0  0  0
  -13.3243  -29.7968   22.8744 C   0  0  0  0  0  0  0  0  0  0  0  0
  -20.6259  -30.4244   23.2906 C   0  0  0  0  0  0  0  0  0  0  0  0
  -22.5436  -31.3705   23.8027 C   0  0  0  0  0  0  0  0  0  0  0  0
  -30.1840  -27.3555   20.8963 C   0  0  0  0  0  0  0  0  0  0  0  0
  -29.1749  -27.1014   20.0313 C   0  0  0  0  0  0  0  0  0  0  0  0
  -20.7743  -31.6516   25.5460 C   0  0  0  0  0  0  0  0  0  0  0  0
  -24.3398   -8.6338   21.0681 C   0  0  0  0  0  0  0  0  0  0  0  0
  -26.0386   -8.6795   23.8311 C   0  0  0  0  0  0  0  0  0  0  0  0
  -27.8076  -10.4967   26.1148 C   0  0  0  0  0  0  0  0  0  0  0  0
  -27.0735  -29.6611   21.4577 C   0  0  0  0  0  0  0  0  0  0  0  0
  -22.5806   -4.0787   19.5801 C   0  0  0  0  0  0  0  0  0  0  0  0
  -26.4415   -9.8251   20.3471 C   0  0  0  0  0  0  0  0  0  0  0  0
  -25.3732  -10.9189   22.8783 C   0  0  0  0  0  0  0  0  0  0  0  0
  -30.3360  -28.7133   21.5499 C   0  0  0  0  0  0  0  0  0  0  0  0
  -28.0947  -28.1223   19.7144 C   0  0  0  0  0  0  0  0  0  0  0  0
  -22.8386   -4.7652   20.9189 C   0  0  0  0  0  0  0  0  0  0  0  0
  -24.4887  -30.5375   19.2182 C   0  0  0  0  0  0  0  0  0  0  0  0
  -22.2283   -6.1632   20.9284 C   0  0  0  0  0  0  0  0  0  0  0  0
  -23.2924  -30.6414   20.1631 C   0  0  0  0  0  0  0  0  0  0  0  0
  -29.4755  -29.7858   20.8954 C   0  0  0  0  0  0  0  0  0  0  0  0
  -25.4011  -29.3620   19.5729 C   0  0  0  0  0  0  0  0  0  0  0  0
  -24.6508  -29.4588   21.9288 C   0  0  0  0  0  0  0  0  0  0  0  0
  -22.8605   -7.0485   19.8477 C   0  0  1  0  0  0  0  0  0  0  0  0
  -25.7767   -8.9324   21.3905 C   0  0  1  0  0  0  0  0  0  0  0  0
  -23.7512  -30.6681   21.6315 C   0  0  2  0  0  0  0  0  0  0  0  0
  -31.2357  -26.3646   21.3165 C   0  0  0  0  0  0  0  0  0  0  0  0
  -29.0416  -10.2645   28.2875 C   0  0  0  0  0  0  0  0  0  0  0  0
  -23.3806   -8.5249   25.3215 C   0  0  0  0  0  0  0  0  0  0  0  0
  -24.5818   -9.2456   27.3965 C   0  0  0  0  0  0  0  0  0  0  0  0
  -25.1990   -7.1013   26.2812 C   0  0  0  0  0  0  0  0  0  0  0  0
  -30.3532  -11.3899   24.8979 C   0  0  0  0  0  0  0  0  0  0  0  0
  -27.2243  -21.0130   19.4745 C   0  0  0  0  0  0  0  0  0  0  0  0
  -26.4216  -20.0162   20.3153 C   0  0  0  0  0  0  0  0  0  0  0  0
  -27.2637  -22.3912   20.1386 C   0  0  0  0  0  0  0  0  0  0  0  0
  -26.3547  -18.6463   19.6367 C   0  0  0  0  0  0  0  0  0  0  0  0
  -28.0452  -23.4332   19.3319 C   0  0  0  0  0  0  0  0  0  0  0  0
  -25.6297  -17.5887   20.4763 C   0  0  0  0  0  0  0  0  0  0  0  0
  -28.1498  -24.7899   20.0359 C   0  0  0  0  0  0  0  0  0  0  0  0
  -25.6161  -16.1933   19.8610 C   0  0  0  0  0  0  0  0  0  1  0  0
  -25.8425   -9.2926   25.1966 C   0  0  1  0  0  0  0  0  0  0  0  0
  -29.1546  -10.2525   26.7709 C   0  0  2  0  0  0  0  0  0  0  0  0
  -28.9958  -25.8055   19.2845 C   0  0  0  0  0  0  0  0  0  0  0  0
  -24.7518   -8.5571   26.0255 C   0  0  0  0  0  0  0  0  0  0  0  0
  -21.4176  -30.1617   22.2475 N   0  0  0  0  0  0  0  0  0  0  0  0
  -22.5767  -30.7503   22.5885 N   0  0  0  0  0  0  0  0  0  0  0  0
  -25.8004   -9.5175   22.7326 N   0  0  0  0  0  0  0  0  0  0  0  0
  -28.1402  -29.2639   20.6369 N   0  0  0  0  0  0  0  0  0  0  0  0
  -25.7761  -29.4003   20.9929 N   0  0  0  0  0  0  0  0  0  0  0  0
  -23.6232  -32.0113   24.2988 N   0  0  0  0  0  0  0  0  0  0  0  0
  -19.4473  -31.3608   25.8907 N   0  0  0  0  0  0  0  0  0  0  0  0
  -24.1617   -7.5163   20.2750 N   0  0  0  0  0  0  0  0  0  0  0  0
  -27.1581   -9.3150   25.8268 N   0  0  0  0  0  0  0  0  0  0  0  0
  -30.1275  -11.3054   26.3638 N   0  3  0  0  0  0  0  0  0  0  0  0
  -21.4782  -32.3300   26.3320 O   0  0  0  0  0  0  0  0  0  0  0  0
  -23.4580   -9.3624   21.5076 O   0  0  0  0  0  0  0  0  0  0  0  0
  -26.3969   -7.5025   23.7425 O   0  0  0  0  0  0  0  0  0  0  0  0
  -27.3733  -11.6231   25.8844 O   0  0  0  0  0  0  0  0  0  0  0  0
  -27.2694  -30.2110   22.5490 O   0  0  0  0  0  0  0  0  0  0  0  0
  -15.3479  -28.5785   23.3433 O   0  0  0  0  0  0  0  0  0  0  0  0
  -24.9109  -15.2794   20.6883 O   0  0  0  0  0  0  0  0  0  1  0  0
  -11.4172  -32.0946   24.9526 F   0  0  0  0  0  0  0  0  0  0  0  0
  -13.2778  -29.2658   21.6448 F   0  0  0  0  0  0  0  0  0  0  0  0
  -28.4415  -26.0497   18.0725 F   0  0  0  0  0  0  0  0  0  0  0  0
  -30.2155  -25.2616   19.0450 F   0  0  0  0  0  0  0  0  0  0  0  0
  1  2  1  0  0  0  0
  1  5  2  0  0  0  0
  2  6  2  0  0  0  0
  3  8  2  0  0  0  0
  3 15  1  0  0  0  0
  4  9  1  0  0  0  0
  4 15  2  0  0  0  0
  5 17  1  0  0  0  0
  6 19  1  0  0  0  0
  7 10  2  0  0  0  0
  7 18  1  0  0  0  0
  8 21  1  0  0  0  0
  9 21  2  0  0  0  0
 10 22  1  0  0  0  0
 11 12  2  0  0  0  0
 11 23  1  0  0  0  0
 12 24  1  0  0  0  0
 13 20  1  0  0  0  0
 13 22  2  0  0  0  0
 14 24  2  0  0  0  0
 14 25  1  0  0  0  0
 15 26  1  0  0  0  0
 16 26  1  0  0  0  0
 16 27  2  0  0  0  0
 16 30  1  0  0  0  0
 17 19  2  0  0  0  0
 17 35  1  0  0  0  0
 18 20  2  0  0  0  0
 18 36  1  0  0  0  0
 19 47  1  0  0  0  0
 20 37  1  0  0  0  0
 21 83  1  0  0  0  0
 22 84  1  0  0  0  0
 23 25  2  0  0  0  0
 23 83  1  0  0  0  0
 24 85  1  0  0  0  0
 25 86  1  0  0  0  0
 26 68  2  0  0  0  0
 27 69  1  0  0  0  0
 27 73  1  0  0  0  0
 28 29  2  0  0  0  0
 28 38  1  0  0  0  0
 28 50  1  0  0  0  0
 29 39  1  0  0  0  0
 29 66  1  0  0  0  0
 30 74  1  0  0  0  0
 30 78  2  0  0  0  0
 31 48  1  0  0  0  0
 31 75  1  0  0  0  0
 31 79  2  0  0  0  0
 32 64  1  0  0  0  0
 32 70  1  0  0  0  0
 32 80  2  0  0  0  0
 33 65  1  0  0  0  0
 33 76  1  0  0  0  0
 33 81  2  0  0  0  0
 34 71  1  0  0  0  0
 34 72  1  0  0  0  0
 34 82  2  0  0  0  0
 35 40  1  0  0  0  0
 36 48  1  0  0  0  0
 37 70  1  0  0  0  0
 38 44  1  0  0  0  0
 39 71  1  0  0  0  0
 40 42  1  0  0  0  0
 41 43  1  0  0  0  0
 41 45  1  0  0  0  0
 42 47  1  0  0  0  0
 43 49  1  0  0  0  0
 44 71  1  0  0  0  0
 45 72  1  0  0  0  0
 46 49  1  0  0  0  0
 46 72  1  0  0  0  0
 47 75  1  0  0  0  0
 48 70  1  0  0  0  0
 49 69  1  0  0  0  0
 51 65  1  0  0  0  0
 52 67  1  0  0  0  0
 53 67  1  0  0  0  0
 54 67  1  0  0  0  0
 55 77  1  0  0  0  0
 56 57  1  0  0  0  0
 56 58  1  0  0  0  0
 57 59  1  0  0  0  0
 58 60  1  0  0  0  0
 59 61  1  0  0  0  0
 60 62  1  0  0  0  0
 61 63  1  0  0  0  0
 62 66  1  0  0  0  0
 63 84  1  0  0  0  0
 64 67  1  0  0  0  0
 64 76  1  0  0  0  0
 65 77  1  0  0  0  0
 66 87  1  0  0  0  0
 66 88  1  0  0  0  0
 68 69  1  0  0  0  0
M  CHG  1  77   1
M  ISO  4  34 100  63 101  71 100  84 101
M  END
> <Batch ID>
0024

> <Smiles>
CNC(C)C(=O)NC(C(=O)N1Cc2cc([101O:1][101CH2:1]CCCCCCCC(F)(F)C3=C(C)CC[100N:0]([100C:0](=O)N4CCCC(n5nc(-c6ccc(Oc7ccc(F)cc7F)cc6)c(C(N)=O)c5N)C4)C3)ccc2CC1C(=O)NC1CCCc2ccccc21)C(C)(C)C

> <Shape>
0.212

> <Color>
0.083

> <Negative vol penalty>
0.000

$$$$

  -OEChem-04052316223D

 93101  0     1  0  0  0  0  0999 V2000
  -18.6913  -25.1996   20.8169 C   0  0  0  0  0  0  0  0  0  0  0  0
  -19.9924  -25.4241   20.3784 C   0  0  0  0  0  0  0  0  0  0  0  0
  -25.5632  -11.0133   20.5489 C   0  0  0  0  0  0  0  0  0  0  0  0
  -26.3360  -13.2740   20.1897 C   0  0  0  0  0  0  0  0  0  0  0  0
  -17.9168  -26.2656   21.2725 C   0  0  0  0  0  0  0  0  0  0  0  0
  -20.5194  -26.7150   20.3943 C   0  0  0  0  0  0  0  0  0  0  0  0
  -25.2320  -26.8671   22.2417 C   0  0  0  0  0  0  0  0  0  0  0  0
  -24.4212  -11.5041   21.1816 C   0  0  0  0  0  0  0  0  0  0  0  0
  -25.1939  -13.7649   20.8224 C   0  0  0  0  0  0  0  0  0  0  0  0
  -26.2620  -26.4649   21.3926 C   0  0  0  0  0  0  0  0  0  0  0  0
  -22.3082  -15.6223   22.0227 C   0  0  0  0  0  0  0  0  0  0  0  0
  -21.6403  -16.6887   21.4210 C   0  0  0  0  0  0  0  0  0  0  0  0
  -26.7680  -28.7760   20.9215 C   0  0  0  0  0  0  0  0  0  0  0  0
  -21.2746  -15.3455   19.4463 C   0  0  0  0  0  0  0  0  0  0  0  0
  -26.5207  -11.8982   20.0530 C   0  0  0  0  0  0  0  0  0  0  0  0
  -27.7551  -10.5902   18.2438 C   0  0  0  0  0  0  0  0  0  0  0  0
  -18.4378  -27.5688   21.3031 C   0  0  0  0  0  0  0  0  0  0  0  0
  -24.9547  -28.2289   22.4290 C   0  0  0  0  0  0  0  0  0  0  0  0
  -19.7506  -27.7997   20.8496 C   0  0  0  0  0  0  0  0  0  0  0  0
  -25.7356  -29.1929   21.7756 C   0  0  0  0  0  0  0  0  0  0  0  0
  -29.7133  -20.9976   17.8267 C   0  0  0  0  0  0  0  0  0  0  0  0
  -31.1058  -20.9203   17.8521 C   0  0  0  0  0  0  0  0  0  0  0  0
  -28.9492  -20.0341   18.4851 C   0  0  0  0  0  0  0  0  0  0  0  0
  -30.9700  -18.9160   19.1944 C   0  0  0  0  0  0  0  0  0  0  0  0
  -24.2365  -12.8799   21.3183 C   0  0  0  0  0  0  0  0  0  0  0  0
  -27.0284  -27.4193   20.7301 C   0  0  0  0  0  0  0  0  0  0  0  0
  -22.4594  -14.4174   21.3363 C   0  0  0  0  0  0  0  0  0  0  0  0
  -21.1234  -16.5504   20.1328 C   0  0  0  0  0  0  0  0  0  0  0  0
  -21.9425  -14.2790   20.0481 C   0  0  0  0  0  0  0  0  0  0  0  0
  -31.7341  -19.8795   18.5360 C   0  0  0  0  0  0  0  0  0  0  0  0
  -29.5775  -18.9934   19.1689 C   0  0  0  0  0  0  0  0  0  0  0  0
  -27.7010  -11.3917   19.3999 C   0  0  0  0  0  0  0  0  0  0  0  0
  -29.0962  -10.3820   18.0328 C   0  0  0  0  0  0  0  0  0  0  0  0
  -26.6884  -10.0796   17.4331 C   0  0  0  0  0  0  0  0  0  0  0  0
  -22.4514  -30.1060   21.8691 C   0  0  0  0  0  0  0  0  0  0  0  0
  -33.9505  -13.5256   19.6655 C   0  0  0  0  0  0  0  0  0  0  0  0
  -24.2548  -32.3147   23.4156 C   0  0  0  0  0  0  0  0  0  0  0  0
  -27.3582  -33.3739   24.3611 C   0  0  0  0  0  0  0  0  0  0  0  0
  -17.5465  -28.6964   21.7598 C   0  0  0  0  0  0  0  0  0  0  0  0
  -23.8575  -28.6469   23.3690 C   0  0  0  0  0  0  0  0  0  0  0  0
  -25.4916  -30.6679   21.9584 C   0  0  0  0  0  0  0  0  0  0  0  0
  -18.3074  -29.9764   22.0961 C   0  0  0  0  0  0  0  0  0  0  0  0
  -33.2578  -10.0788   20.3583 C   0  0  0  0  0  0  0  0  0  0  0  0
  -19.3217  -30.2973   21.0030 C   0  0  0  0  0  0  0  0  0  0  0  0
  -31.7542   -9.9586   20.1135 C   0  0  0  0  0  0  0  0  0  0  0  0
  -33.6205  -11.4378   20.9487 C   0  0  0  0  0  0  0  0  0  0  0  0
  -31.6419  -12.4811   19.8912 C   0  0  0  0  0  0  0  0  0  0  0  0
  -20.3662  -29.1819   20.8748 C   0  0  1  0  0  0  0  0  0  0  0  0
  -23.3308  -30.0504   23.0862 C   0  0  1  0  0  0  0  0  0  0  0  0
  -31.2363  -11.1345   19.2664 C   0  0  2  0  0  0  0  0  0  0  0  0
  -31.9086  -21.9652   17.1401 C   0  0  0  0  0  0  0  0  0  0  0  0
  -27.4552  -20.1349   18.4464 C   0  0  0  0  0  0  0  0  0  0  0  0
  -28.5172  -35.2336   25.5840 C   0  0  0  0  0  0  0  0  0  0  0  0
  -23.8552  -34.1445   21.0069 C   0  0  0  0  0  0  0  0  0  0  0  0
  -25.7580  -35.5418   21.8405 C   0  0  0  0  0  0  0  0  0  0  0  0
  -23.6979  -35.2899   23.2245 C   0  0  0  0  0  0  0  0  0  0  0  0
  -28.4543  -31.5149   26.3864 C   0  0  0  0  0  0  0  0  0  0  0  0
  -31.6453  -17.7970   19.9292 C   0  0  0  0  0  0  0  0  0  0  0  0
  -29.0374  -22.1173   17.0916 C   0  0  0  0  0  0  0  0  0  0  0  0
  -28.6192  -25.8357   17.9038 C   0  0  0  0  0  0  0  0  0  0  0  0
  -32.8325  -15.7180   19.7594 C   0  0  0  0  0  0  0  0  0  0  0  0
  -28.5088  -24.5585   17.0848 C   0  0  0  0  0  0  0  0  0  0  0  0
  -27.8772  -25.7776   19.2334 C   0  0  0  0  0  0  0  0  0  1  0  0
  -33.3332  -14.6128   18.8223 C   0  0  1  0  0  0  0  0  0  0  0  0
  -25.2857  -33.3355   22.9981 C   0  0  1  0  0  0  0  0  0  0  0  0
  -27.8959  -33.8502   25.6984 C   0  0  2  0  0  0  0  0  0  0  0  0
  -24.6528  -34.5502   22.2623 C   0  0  0  0  0  0  0  0  0  0  0  0
  -34.3558  -15.0887   17.8033 C   0  0  0  0  0  0  0  0  0  0  0  0
  -28.9115  -11.6734   19.8891 N   0  0  0  0  0  0  0  0  0  0  0  0
  -29.7388  -11.0453   19.0364 N   0  0  0  0  0  0  0  0  0  0  0  0
  -24.4034  -31.0263   22.8829 N   0  0  0  0  0  0  0  0  0  0  0  0
  -33.0915  -12.5281   20.1273 N   0  0  0  0  0  0  0  0  0  0  0  0
  -29.7767   -9.6980   17.0886 N   0  0  0  0  0  0  0  0  0  0  0  0
  -25.3694  -10.3891   17.7920 N   0  0  0  0  0  0  0  0  0  0  0  0
  -21.3447  -29.2814   21.9365 N   0  0  0  0  0  0  0  0  0  0  0  0
  -26.0244  -33.6872   24.2060 N   0  0  0  0  0  0  0  0  0  0  0  0
  -32.1668  -16.8003   19.0335 N   0  0  0  0  0  0  0  0  0  0  0  0
  -28.9347  -32.9088   26.2040 N   0  3  0  0  0  0  0  0  0  0  0  0
  -29.1118  -23.4177   17.8133 N   0  3  0  0  0  0  0  0  0  0  0  0
  -26.8981   -9.3563   16.4299 O   0  0  0  0  0  0  0  0  0  0  0  0
  -22.7539  -30.8436   20.9384 O   0  0  0  0  0  0  0  0  0  0  0  0
  -35.1606  -13.5619   19.9031 O   0  0  0  0  0  0  0  0  0  0  0  0
  -23.3550  -32.6464   24.1916 O   0  0  0  0  0  0  0  0  0  0  0  0
  -28.0529  -32.7861   23.5350 O   0  0  0  0  0  0  0  0  0  0  0  0
  -23.1220  -13.3593   21.9354 O   0  0  0  0  0  0  0  0  0  0  0  0
  -28.0339  -27.0294   19.9002 O   0  0  0  0  0  0  0  0  0  1  0  0
  -20.4807  -17.5741   19.5557 F   0  0  0  0  0  0  0  0  0  0  0  0
  -22.0836  -13.1236   19.3841 F   0  0  0  0  0  0  0  0  0  0  0  0
  -33.8361  -16.0103   16.9641 F   0  0  0  0  0  0  0  0  0  0  0  0
  -35.4255  -15.6454   18.4161 F   0  0  0  0  0  0  0  0  0  0  0  0
  -34.8178  -14.0644   17.0528 F   0  0  0  0  0  0  0  0  0  0  0  0
  -33.4651  -19.7859   18.5653 Cl  0  0  0  0  0  0  0  0  0  0  0  0
  -28.6248  -17.7982   19.9872 Cl  0  0  0  0  0  0  0  0  0  0  0  0
  1  2  1  0  0  0  0
  1  5  2  0  0  0  0
  2  6  2  0  0  0  0
  3  8  2  0  0  0  0
  3 15  1  0  0  0  0
  4  9  1  0  0  0  0
  4 15  2  0  0  0  0
  5 17  1  0  0  0  0
  6 19  1  0  0  0  0
  7 10  2  0  0  0  0
  7 18  1  0  0  0  0
  8 25  1  0  0  0  0
  9 25  2  0  0  0  0
 10 26  1  0  0  0  0
 11 12  2  0  0  0  0
 11 27  1  0  0  0  0
 12 28  1  0  0  0  0
 13 20  1  0  0  0  0
 13 26  2  0  0  0  0
 14 28  2  0  0  0  0
 14 29  1  0  0  0  0
 15 32  1  0  0  0  0
 16 32  1  0  0  0  0
 16 33  2  0  0  0  0
 16 34  1  0  0  0  0
 17 19  2  0  0  0  0
 17 39  1  0  0  0  0
 18 20  2  0  0  0  0
 18 40  1  0  0  0  0
 19 48  1  0  0  0  0
 20 41  1  0  0  0  0
 21 22  1  0  0  0  0
 21 23  2  0  0  0  0
 21 59  1  0  0  0  0
 22 30  2  0  0  0  0
 22 51  1  0  0  0  0
 23 31  1  0  0  0  0
 23 52  1  0  0  0  0
 24 30  1  0  0  0  0
 24 31  2  0  0  0  0
 24 58  1  0  0  0  0
 25 85  1  0  0  0  0
 26 86  1  0  0  0  0
 27 29  2  0  0  0  0
 27 85  1  0  0  0  0
 28 87  1  0  0  0  0
 29 88  1  0  0  0  0
 30 92  1  0  0  0  0
 31 93  1  0  0  0  0
 32 69  2  0  0  0  0
 33 70  1  0  0  0  0
 33 73  1  0  0  0  0
 34 74  1  0  0  0  0
 34 80  2  0  0  0  0
 35 49  1  0  0  0  0
 35 75  1  0  0  0  0
 35 81  2  0  0  0  0
 36 64  1  0  0  0  0
 36 72  1  0  0  0  0
 36 82  2  0  0  0  0
 37 65  1  0  0  0  0
 37 71  1  0  0  0  0
 37 83  2  0  0  0  0
 38 66  1  0  0  0  0
 38 76  1  0  0  0  0
 38 84  2  0  0  0  0
 39 42  1  0  0  0  0
 40 49  1  0  0  0  0
 41 71  1  0  0  0  0
 42 44  1  0  0  0  0
 43 45  1  0  0  0  0
 43 46  1  0  0  0  0
 44 48  1  0  0  0  0
 45 50  1  0  0  0  0
 46 72  1  0  0  0  0
 47 50  1  0  0  0  0
 47 72  1  0  0  0  0
 48 75  1  0  0  0  0
 49 71  1  0  0  0  0
 50 70  1  0  0  0  0
 53 66  1  0  0  0  0
 54 67  1  0  0  0  0
 55 67  1  0  0  0  0
 56 67  1  0  0  0  0
 57 78  1  0  0  0  0
 58 77  1  0  0  0  0
 59 79  1  0  0  0  0
 60 62  1  0  0  0  0
 60 63  1  0  0  0  0
 61 64  1  0  0  0  0
 61 77  1  0  0  0  0
 62 79  1  0  0  0  0
 63 86  1  0  0  0  0
 64 68  1  0  0  0  0
 65 67  1  0  0  0  0
 65 76  1  0  0  0  0
 66 78  1  0  0  0  0
 68 89  1  0  0  0  0
 68 90  1  0  0  0  0
 68 91  1  0  0  0  0
 69 70  1  0  0  0  0
M  CHG  2  78   1  79   1
M  ISO  4  36 100  63 101  64 100  86 101
M  END
> <Batch ID>
0024

> <Smiles>
CNC(C)C(=O)NC(C(=O)N1Cc2cc([101O:1][101CH2:1]CCNCc3c(C)c(Cl)c(CNC[100CH:0]([100C:0](=O)N4CCCC(n5nc(-c6ccc(Oc7ccc(F)cc7F)cc6)c(C(N)=O)c5N)C4)C(F)(F)F)c(Cl)c3C)ccc2CC1C(=O)NC1CCCc2ccccc21)C(C)(C)C

> <Shape>
0.261

> <Color>
0.080

> <Negative vol penalty>
0.000

$$$$

  -OEChem-04052316223D

 85 93  0     1  0  0  0  0  0999 V2000
  -24.4812  -30.0537   12.0761 C   0  0  0  0  0  0  0  0  0  0  0  0
  -25.1154  -28.9558   12.6488 C   0  0  0  0  0  0  0  0  0  0  0  0
  -23.0700   -9.8743   19.9409 C   0  0  0  0  0  0  0  0  0  0  0  0
  -23.8327   -9.8748   22.2333 C   0  0  0  0  0  0  0  0  0  0  0  0
  -23.4724  -30.7167   12.7737 C   0  0  0  0  0  0  0  0  0  0  0  0
  -24.7419  -28.5211   13.9200 C   0  0  0  0  0  0  0  0  0  0  0  0
  -24.6090  -22.7422   15.9430 C   0  0  0  0  0  0  0  0  0  0  0  0
  -22.3247   -8.7217   20.1890 C   0  0  0  0  0  0  0  0  0  0  0  0
  -23.0873   -8.7222   22.4815 C   0  0  0  0  0  0  0  0  0  0  0  0
  -25.5060  -21.9941   16.7043 C   0  0  0  0  0  0  0  0  0  0  0  0
  -22.8923   -5.4017   20.4715 C   0  0  0  0  0  0  0  0  0  0  0  0
  -22.9564   -4.3742   19.5304 C   0  0  0  0  0  0  0  0  0  0  0  0
  -24.2522  -22.5278   18.6949 C   0  0  0  0  0  0  0  0  0  0  0  0
  -20.5717   -4.5445   19.1819 C   0  0  0  0  0  0  0  0  0  0  0  0
  -30.3205  -19.1592   22.3462 C   0  0  0  0  0  0  0  0  0  0  0  0
  -23.8241  -10.4508   20.9630 C   0  0  0  0  0  0  0  0  0  0  0  0
  -24.1696  -12.9757   20.8485 C   0  0  0  0  0  0  0  0  0  0  0  0
  -23.0796  -30.2840   14.0501 C   0  0  0  0  0  0  0  0  0  0  0  0
  -23.5314  -23.3988   16.5545 C   0  0  0  0  0  0  0  0  0  0  0  0
  -23.7278  -29.1798   14.6359 C   0  0  0  0  0  0  0  0  0  0  0  0
  -23.3416  -23.2815   17.9388 C   0  0  0  0  0  0  0  0  0  0  0  0
  -30.6371  -19.2588   21.0094 C   0  0  0  0  0  0  0  0  0  0  0  0
  -22.3333   -8.1456   21.4593 C   0  0  0  0  0  0  0  0  0  0  0  0
  -25.3293  -21.8891   18.0809 C   0  0  0  0  0  0  0  0  0  0  0  0
  -21.6678   -6.0006   20.7679 C   0  0  0  0  0  0  0  0  0  0  0  0
  -21.7962   -3.9456   18.8856 C   0  0  0  0  0  0  0  0  0  0  0  0
  -20.5076   -5.5720   20.1231 C   0  0  0  0  0  0  0  0  0  0  0  0
  -30.5978  -17.9507   20.4667 C   0  0  0  0  0  0  0  0  0  0  0  0
  -24.5946  -11.6411   20.7071 C   0  0  0  0  0  0  0  0  0  0  0  0
  -25.2624  -13.7244   20.4857 C   0  0  0  0  0  0  0  0  0  0  0  0
  -30.2582  -17.0916   21.4885 C   0  0  0  0  0  0  0  0  0  0  0  0
  -22.9004  -13.4925   21.2702 C   0  0  0  0  0  0  0  0  0  0  0  0
  -22.6265  -26.4319   16.8470 C   0  0  0  0  0  0  0  0  0  0  0  0
  -19.9915  -25.1085   18.1989 C   0  0  0  0  0  0  0  0  0  0  0  0
  -18.5919  -22.4538   19.8239 C   0  0  0  0  0  0  0  0  0  0  0  0
  -30.7305  -14.7612   20.6562 C   0  0  0  0  0  0  0  0  0  0  0  0
  -22.0168  -31.0616   14.7851 C   0  0  0  0  0  0  0  0  0  0  0  0
  -22.5574  -24.1799   15.7156 C   0  0  0  0  0  0  0  0  0  0  0  0
  -22.1890  -23.9504   18.6407 C   0  0  0  0  0  0  0  0  0  0  0  0
  -21.4221  -30.3082   15.9721 C   0  0  0  0  0  0  0  0  0  0  0  0
  -29.6094  -12.3548   18.2835 C   0  0  0  0  0  0  0  0  0  0  0  0
  -22.5283  -29.6833   16.8162 C   0  0  0  0  0  0  0  0  0  0  0  0
  -28.1699  -12.0644   18.7142 C   0  0  0  0  0  0  0  0  0  0  0  0
  -30.5264  -12.5793   19.4846 C   0  0  0  0  0  0  0  0  0  0  0  0
  -28.6222  -13.3033   20.8699 C   0  0  0  0  0  0  0  0  0  0  0  0
  -23.3336  -28.6630   16.0025 C   0  0  1  0  0  0  0  0  0  0  0  0
  -21.7895  -25.2295   16.5131 C   0  0  1  0  0  0  0  0  0  0  0  0
  -27.6477  -13.1344   19.6929 C   0  0  2  0  0  0  0  0  0  0  0  0
  -28.2517  -17.0047   24.0353 C   0  0  0  0  0  0  0  0  0  0  0  0
  -16.4288  -21.6798   20.8334 C   0  0  0  0  0  0  0  0  0  0  0  0
  -30.8855  -21.7364   21.2723 C   0  0  0  0  0  0  0  0  0  0  0  0
  -32.3998  -20.6000   19.6730 C   0  0  0  0  0  0  0  0  0  0  0  0
  -20.4665  -26.9252   20.6039 C   0  0  0  0  0  0  0  0  0  0  0  0
  -18.9080  -25.4737   21.9201 C   0  0  0  0  0  0  0  0  0  0  0  0
  -18.0713  -26.7060   19.9191 C   0  0  0  0  0  0  0  0  0  0  0  0
  -18.4178  -20.1514   17.9726 C   0  0  0  0  0  0  0  0  0  0  0  0
  -28.4778  -20.9096   19.5554 C   0  0  0  0  0  0  0  0  0  0  0  0
  -29.9454  -20.8385   19.1164 C   0  0  0  0  0  0  0  0  0  0  0  0
  -29.7319  -17.3301   23.9327 C   0  0  0  0  0  0  0  0  0  0  0  0
  -27.5499  -21.0844   18.3591 C   0  0  0  0  0  0  0  0  0  1  0  0
  -19.5933  -24.7125   19.6002 C   0  0  1  0  0  0  0  0  0  0  0  0
  -17.2988  -21.6951   19.5861 C   0  0  2  0  0  0  0  0  0  0  0  0
  -30.9692  -20.5636   20.2629 C   0  0  0  0  0  0  0  0  0  0  0  0
  -19.2827  -25.9432   20.4982 C   0  0  0  0  0  0  0  0  0  0  0  0
  -25.8588  -11.5444   20.2871 N   0  0  0  0  0  0  0  0  0  0  0  0
  -30.0919  -17.8372   22.6262 N   0  0  0  0  0  0  0  0  0  0  0  0
  -26.2375  -12.8277   20.1613 N   0  0  0  0  0  0  0  0  0  0  0  0
  -21.2675  -24.7081   17.7779 N   0  0  0  0  0  0  0  0  0  0  0  0
  -29.9700  -13.6088   20.3652 N   0  0  0  0  0  0  0  0  0  0  0  0
  -25.4748  -15.0557   20.4155 N   0  0  0  0  0  0  0  0  0  0  0  0
  -21.8875  -12.5841   21.6065 N   0  0  0  0  0  0  0  0  0  0  0  0
  -30.0855  -15.6852   21.4777 N   0  0  0  0  0  0  0  0  0  0  0  0
  -22.6007  -27.4208   15.8822 N   0  0  0  0  0  0  0  0  0  0  0  0
  -18.4808  -23.7792   19.4600 N   0  0  0  0  0  0  0  0  0  0  0  0
  -17.5889  -20.2858   19.1982 N   0  3  0  0  0  0  0  0  0  0  0  0
  -22.6661  -14.7233   21.3307 O   0  0  0  0  0  0  0  0  0  0  0  0
  -23.2485  -26.4608   17.9024 O   0  0  0  0  0  0  0  0  0  0  0  0
  -19.1969  -25.7434   17.5010 O   0  0  0  0  0  0  0  0  0  0  0  0
  -19.5987  -21.9247   20.2897 O   0  0  0  0  0  0  0  0  0  0  0  0
  -31.8592  -14.9293   20.1877 O   0  0  0  0  0  0  0  0  0  0  0  0
  -21.6059   -7.0211   21.7019 O   0  0  0  0  0  0  0  0  0  0  0  0
  -26.2037  -21.1601   18.8264 O   0  0  0  0  0  0  0  0  0  1  0  0
  -21.8582   -2.9599   17.9807 F   0  0  0  0  0  0  0  0  0  0  0  0
  -19.3286   -6.1443   20.4029 F   0  0  0  0  0  0  0  0  0  0  0  0
  -30.9156  -17.5484   18.8440 Cl  0  0  0  0  0  0  0  0  0  0  0  0
  1  2  1  0  0  0  0
  1  5  2  0  0  0  0
  2  6  2  0  0  0  0
  3  8  2  0  0  0  0
  3 16  1  0  0  0  0
  4  9  1  0  0  0  0
  4 16  2  0  0  0  0
  5 18  1  0  0  0  0
  6 20  1  0  0  0  0
  7 10  2  0  0  0  0
  7 19  1  0  0  0  0
  8 23  1  0  0  0  0
  9 23  2  0  0  0  0
 10 24  1  0  0  0  0
 11 12  2  0  0  0  0
 11 25  1  0  0  0  0
 12 26  1  0  0  0  0
 13 21  1  0  0  0  0
 13 24  2  0  0  0  0
 14 26  2  0  0  0  0
 14 27  1  0  0  0  0
 15 22  2  0  0  0  0
 15 66  1  0  0  0  0
 16 29  1  0  0  0  0
 17 29  1  0  0  0  0
 17 30  2  0  0  0  0
 17 32  1  0  0  0  0
 18 20  2  0  0  0  0
 18 37  1  0  0  0  0
 19 21  2  0  0  0  0
 19 38  1  0  0  0  0
 20 46  1  0  0  0  0
 21 39  1  0  0  0  0
 22 28  1  0  0  0  0
 22 63  1  0  0  0  0
 23 81  1  0  0  0  0
 24 82  1  0  0  0  0
 25 27  2  0  0  0  0
 25 81  1  0  0  0  0
 26 83  1  0  0  0  0
 27 84  1  0  0  0  0
 28 31  2  0  0  0  0
 28 85  1  0  0  0  0
 29 65  2  0  0  0  0
 30 67  1  0  0  0  0
 30 70  1  0  0  0  0
 31 66  1  0  0  0  0
 31 72  1  0  0  0  0
 32 71  1  0  0  0  0
 32 76  2  0  0  0  0
 33 47  1  0  0  0  0
 33 73  1  0  0  0  0
 33 77  2  0  0  0  0
 34 61  1  0  0  0  0
 34 68  1  0  0  0  0
 34 78  2  0  0  0  0
 35 62  1  0  0  0  0
 35 74  1  0  0  0  0
 35 79  2  0  0  0  0
 36 69  1  0  0  0  0
 36 72  1  0  0  0  0
 36 80  2  0  0  0  0
 37 40  1  0  0  0  0
 38 47  1  0  0  0  0
 39 68  1  0  0  0  0
 40 42  1  0  0  0  0
 41 43  1  0  0  0  0
 41 44  1  0  0  0  0
 42 46  1  0  0  0  0
 43 48  1  0  0  0  0
 44 69  1  0  0  0  0
 45 48  1  0  0  0  0
 45 69  1  0  0  0  0
 46 73  1  0  0  0  0
 47 68  1  0  0  0  0
 48 67  1  0  0  0  0
 49 59  1  0  0  0  0
 50 62  1  0  0  0  0
 51 63  1  0  0  0  0
 52 63  1  0  0  0  0
 53 64  1  0  0  0  0
 54 64  1  0  0  0  0
 55 64  1  0  0  0  0
 56 75  1  0  0  0  0
 57 58  1  0  0  0  0
 57 60  1  0  0  0  0
 58 63  1  0  0  0  0
 59 66  1  0  0  0  0
 60 82  1  0  0  0  0
 61 64  1  0  0  0  0
 61 74  1  0  0  0  0
 62 75  1  0  0  0  0
 65 67  1  0  0  0  0
M  CHG  1  75   1
M  ISO  4  36 100  60 101  72 100  82 101
M  END
> <Batch ID>
0024

> <Smiles>
CCn1cc(C(C)(C)CC[101CH2:1][101O:1]c2ccc3c(c2)CN(C(=O)C(NC(=O)C(C)NC)C(C)(C)C)C(C(=O)NC2CCCc4ccccc42)C3)c(Cl)c1[100NH:0][100C:0](=O)N1CCCC(n2nc(-c3ccc(Oc4ccc(F)cc4F)cc3)c(C(N)=O)c2N)C1

> <Shape>
0.197

> <Color>
0.196

> <Negative vol penalty>
0.000

$$$$

  -OEChem-04052316223D

 86 94  0     1  0  0  0  0  0999 V2000
  -26.6571  -24.3514   16.3965 C   0  0  0  0  0  0  0  0  0  0  0  0
  -25.6949  -25.2860   16.7619 C   0  0  0  0  0  0  0  0  0  0  0  0
  -26.9191  -13.7176   20.9776 C   0  0  0  0  0  0  0  0  0  0  0  0
  -24.5438  -14.1431   20.8605 C   0  0  0  0  0  0  0  0  0  0  0  0
  -27.7364  -24.1011   17.2412 C   0  0  0  0  0  0  0  0  0  0  0  0
  -25.8179  -25.9792   17.9666 C   0  0  0  0  0  0  0  0  0  0  0  0
  -22.5923  -29.5988   18.8017 C   0  0  0  0  0  0  0  0  0  0  0  0
  -26.6664  -12.4541   21.5119 C   0  0  0  0  0  0  0  0  0  0  0  0
  -24.2911  -12.8796   21.3947 C   0  0  0  0  0  0  0  0  0  0  0  0
  -21.2515  -29.3596   19.0998 C   0  0  0  0  0  0  0  0  0  0  0  0
  -23.0115   -9.6258   22.3915 C   0  0  0  0  0  0  0  0  0  0  0  0
  -22.0143   -8.8556   21.7932 C   0  0  0  0  0  0  0  0  0  0  0  0
  -21.6874  -29.8455   21.4221 C   0  0  0  0  0  0  0  0  0  0  0  0
  -23.0624  -23.7462   21.6314 C   0  0  0  0  0  0  0  0  0  0  0  0
  -23.2259   -8.9099   19.7037 C   0  0  0  0  0  0  0  0  0  0  0  0
  -25.8578  -14.5621   20.6520 C   0  0  0  0  0  0  0  0  0  0  0  0
  -26.2457  -16.2059   18.7401 C   0  0  0  0  0  0  0  0  0  0  0  0
  -27.8653  -24.7830   18.4625 C   0  0  0  0  0  0  0  0  0  0  0  0
  -23.4945  -29.9531   19.8151 C   0  0  0  0  0  0  0  0  0  0  0  0
  -26.9126  -25.7580   18.8217 C   0  0  0  0  0  0  0  0  0  0  0  0
  -23.0385  -30.0911   21.1339 C   0  0  0  0  0  0  0  0  0  0  0  0
  -22.0362  -24.5699   21.1686 C   0  0  0  0  0  0  0  0  0  0  0  0
  -20.7874  -24.0262   20.8678 C   0  0  0  0  0  0  0  0  0  0  0  0
  -22.8398  -22.3788   21.7933 C   0  0  0  0  0  0  0  0  0  0  0  0
  -25.3524  -12.0351   21.7203 C   0  0  0  0  0  0  0  0  0  0  0  0
  -20.7994  -29.4801   20.4106 C   0  0  0  0  0  0  0  0  0  0  0  0
  -24.1159  -10.0382   21.6458 C   0  0  0  0  0  0  0  0  0  0  0  0
  -22.1215   -8.4976   20.4494 C   0  0  0  0  0  0  0  0  0  0  0  0
  -24.2231   -9.6802   20.3019 C   0  0  0  0  0  0  0  0  0  0  0  0
  -21.5910  -21.8350   21.4925 C   0  0  0  0  0  0  0  0  0  0  0  0
  -20.5648  -22.6587   21.0298 C   0  0  0  0  0  0  0  0  0  0  0  0
  -26.1182  -15.8676   20.1007 C   0  0  0  0  0  0  0  0  0  0  0  0
  -26.4869  -17.5580   18.7436 C   0  0  0  0  0  0  0  0  0  0  0  0
  -26.1542  -15.3723   17.5771 C   0  0  0  0  0  0  0  0  0  0  0  0
  -26.1282  -28.6519   21.0292 C   0  0  0  0  0  0  0  0  0  0  0  0
  -26.2610  -31.4287   22.7007 C   0  0  0  0  0  0  0  0  0  0  0  0
  -24.6000  -34.1175   23.9883 C   0  0  0  0  0  0  0  0  0  0  0  0
  -25.1816  -21.9275   22.6047 C   0  0  0  0  0  0  0  0  0  0  0  0
  -29.0575  -24.4788   19.3350 C   0  0  0  0  0  0  0  0  0  0  0  0
  -24.9320  -30.2338   19.4728 C   0  0  0  0  0  0  0  0  0  0  0  0
  -23.9625  -30.4888   22.2549 C   0  0  0  0  0  0  0  0  0  0  0  0
  -28.8683  -24.9313   20.7791 C   0  0  0  0  0  0  0  0  0  0  0  0
  -28.4195  -21.0102   21.4421 C   0  0  0  0  0  0  0  0  0  0  0  0
  -28.3825  -26.3727   20.8127 C   0  0  0  0  0  0  0  0  0  0  0  0
  -28.2072  -19.6206   20.8369 C   0  0  0  0  0  0  0  0  0  0  0  0
  -27.5630  -21.2226   22.6891 C   0  0  0  0  0  0  0  0  0  0  0  0
  -25.9180  -19.5642   21.9062 C   0  0  0  0  0  0  0  0  0  0  0  0
  -27.0094  -26.5020   20.1414 C   0  0  1  0  0  0  0  0  0  0  0  0
  -25.8702  -30.0870   20.6668 C   0  0  1  0  0  0  0  0  0  0  0  0
  -26.7111  -19.3271   20.6106 C   0  0  2  0  0  0  0  0  0  0  0  0
  -22.3025  -26.0308   21.0037 C   0  0  0  0  0  0  0  0  0  0  0  0
  -24.9705  -36.2003   25.3382 C   0  0  0  0  0  0  0  0  0  0  0  0
  -16.7385  -25.9382   20.8624 C   0  0  0  0  0  0  0  0  0  0  0  0
  -26.4558  -29.7462   25.2386 C   0  0  0  0  0  0  0  0  0  0  0  0
  -25.8691  -31.7924   26.5567 C   0  0  0  0  0  0  0  0  0  0  0  0
  -27.9582  -31.7450   25.1942 C   0  0  0  0  0  0  0  0  0  0  0  0
  -23.6810  -35.8546   21.7754 C   0  0  0  0  0  0  0  0  0  0  0  0
  -19.6955  -24.9265   20.3699 C   0  0  0  0  0  0  0  0  0  0  0  0
  -17.9353  -27.8909   21.9276 C   0  0  0  0  0  0  0  0  0  0  0  0
  -19.1983  -28.7415   22.0065 C   0  0  0  0  0  0  0  0  0  1  0  0
  -25.7209  -31.9048   24.0276 C   0  0  1  0  0  0  0  0  0  0  0  0
  -24.9008  -35.6047   23.9407 C   0  0  2  0  0  0  0  0  0  0  0  0
  -18.0486  -26.7079   20.9640 C   0  0  1  0  0  0  0  0  0  0  0  0
  -26.4838  -31.2877   25.2337 C   0  0  0  0  0  0  0  0  0  0  0  0
  -26.2663  -16.9200   20.9097 N   0  0  0  0  0  0  0  0  0  0  0  0
  -26.4895  -17.9328   20.0550 N   0  0  0  0  0  0  0  0  0  0  0  0
  -25.3602  -30.7464   21.8707 N   0  0  0  0  0  0  0  0  0  0  0  0
  -26.1578  -20.9299   22.3982 N   0  0  0  0  0  0  0  0  0  0  0  0
  -26.6950  -18.4510   17.7528 N   0  0  0  0  0  0  0  0  0  0  0  0
  -25.9013  -14.0051   17.7532 N   0  0  0  0  0  0  0  0  0  0  0  0
  -23.8850  -21.5451   22.2626 N   0  0  0  0  0  0  0  0  0  0  0  0
  -26.6798  -27.9038   20.0067 N   0  0  0  0  0  0  0  0  0  0  0  0
  -25.7538  -33.3626   23.9824 N   0  0  0  0  0  0  0  0  0  0  0  0
  -23.8424  -36.3230   23.1760 N   0  3  0  0  0  0  0  0  0  0  0  0
  -19.0988  -25.7657   21.4412 N   0  3  0  0  0  0  0  0  0  0  0  0
  -26.3089  -15.8236   16.4170 O   0  0  0  0  0  0  0  0  0  0  0  0
  -25.8488  -28.2531   22.1538 O   0  0  0  0  0  0  0  0  0  0  0  0
  -27.4368  -31.6602   22.4082 O   0  0  0  0  0  0  0  0  0  0  0  0
  -23.4559  -33.6704   24.0307 O   0  0  0  0  0  0  0  0  0  0  0  0
  -25.4783  -23.0483   23.0265 O   0  0  0  0  0  0  0  0  0  0  0  0
  -25.1055  -10.8022   22.2414 O   0  0  0  0  0  0  0  0  0  0  0  0
  -19.4914  -29.2466   20.7044 O   0  0  0  0  0  0  0  0  0  1  0  0
  -21.1646   -7.7566   19.8754 F   0  0  0  0  0  0  0  0  0  0  0  0
  -25.2823  -10.0724   19.5808 F   0  0  0  0  0  0  0  0  0  0  0  0
  -21.3837  -20.5182   21.6493 F   0  0  0  0  0  0  0  0  0  0  0  0
  -19.0308  -21.9534   20.6644 Cl  0  0  0  0  0  0  0  0  0  0  0  0
  1  2  1  0  0  0  0
  1  5  2  0  0  0  0
  2  6  2  0  0  0  0
  3  8  2  0  0  0  0
  3 16  1  0  0  0  0
  4  9  1  0  0  0  0
  4 16  2  0  0  0  0
  5 18  1  0  0  0  0
  6 20  1  0  0  0  0
  7 10  2  0  0  0  0
  7 19  1  0  0  0  0
  8 25  1  0  0  0  0
  9 25  2  0  0  0  0
 10 26  1  0  0  0  0
 11 12  2  0  0  0  0
 11 27  1  0  0  0  0
 12 28  1  0  0  0  0
 13 21  1  0  0  0  0
 13 26  2  0  0  0  0
 14 22  2  0  0  0  0
 14 24  1  0  0  0  0
 15 28  2  0  0  0  0
 15 29  1  0  0  0  0
 16 32  1  0  0  0  0
 17 32  1  0  0  0  0
 17 33  2  0  0  0  0
 17 34  1  0  0  0  0
 18 20  2  0  0  0  0
 18 39  1  0  0  0  0
 19 21  2  0  0  0  0
 19 40  1  0  0  0  0
 20 48  1  0  0  0  0
 21 41  1  0  0  0  0
 22 23  1  0  0  0  0
 22 51  1  0  0  0  0
 23 31  2  0  0  0  0
 23 58  1  0  0  0  0
 24 30  2  0  0  0  0
 24 71  1  0  0  0  0
 25 81  1  0  0  0  0
 26 82  1  0  0  0  0
 27 29  2  0  0  0  0
 27 81  1  0  0  0  0
 28 83  1  0  0  0  0
 29 84  1  0  0  0  0
 30 31  1  0  0  0  0
 30 85  1  0  0  0  0
 31 86  1  0  0  0  0
 32 65  2  0  0  0  0
 33 66  1  0  0  0  0
 33 69  1  0  0  0  0
 34 70  1  0  0  0  0
 34 76  2  0  0  0  0
 35 49  1  0  0  0  0
 35 72  1  0  0  0  0
 35 77  2  0  0  0  0
 36 61  1  0  0  0  0
 36 67  1  0  0  0  0
 36 78  2  0  0  0  0
 37 62  1  0  0  0  0
 37 73  1  0  0  0  0
 37 79  2  0  0  0  0
 38 68  1  0  0  0  0
 38 71  1  0  0  0  0
 38 80  2  0  0  0  0
 39 42  1  0  0  0  0
 40 49  1  0  0  0  0
 41 67  1  0  0  0  0
 42 44  1  0  0  0  0
 43 45  1  0  0  0  0
 43 46  1  0  0  0  0
 44 48  1  0  0  0  0
 45 50  1  0  0  0  0
 46 68  1  0  0  0  0
 47 50  1  0  0  0  0
 47 68  1  0  0  0  0
 48 72  1  0  0  0  0
 49 67  1  0  0  0  0
 50 66  1  0  0  0  0
 52 62  1  0  0  0  0
 53 63  1  0  0  0  0
 54 64  1  0  0  0  0
 55 64  1  0  0  0  0
 56 64  1  0  0  0  0
 57 74  1  0  0  0  0
 58 75  1  0  0  0  0
 59 60  1  0  0  0  0
 59 63  1  0  0  0  0
 60 82  1  0  0  0  0
 61 64  1  0  0  0  0
 61 73  1  0  0  0  0
 62 74  1  0  0  0  0
 63 75  1  0  0  0  0
 65 66  1  0  0  0  0
M  CHG  2  74   1  75   1
M  ISO  4  38 100  60 101  71 100  82 101
M  END
> <Batch ID>
0024

> <Smiles>
CNC(C)C(=O)NC(C(=O)N1Cc2cc([101O:1][101CH2:1]CC(C)NCc3c(C)cc([100NH:0][100C:0](=O)N4CCCC(n5nc(-c6ccc(Oc7ccc(F)cc7F)cc6)c(C(N)=O)c5N)C4)c(F)c3Cl)ccc2CC1C(=O)NC1CCCc2ccccc21)C(C)(C)C

> <Shape>
0.283

> <Color>
0.077

> <Negative vol penalty>
0.000

$$$$

  -OEChem-04052316223D

 83 91  0     1  0  0  0  0  0999 V2000
  -16.9285  -28.7935   24.3937 C   0  0  0  0  0  0  0  0  0  0  0  0
  -17.4125  -27.7598   23.5984 C   0  0  0  0  0  0  0  0  0  0  0  0
  -26.5951  -12.3435   20.9819 C   0  0  0  0  0  0  0  0  0  0  0  0
  -25.3555  -14.1054   19.8881 C   0  0  0  0  0  0  0  0  0  0  0  0
  -17.4962  -30.0639   24.3054 C   0  0  0  0  0  0  0  0  0  0  0  0
  -18.4640  -27.9961   22.7135 C   0  0  0  0  0  0  0  0  0  0  0  0
  -22.9260  -24.0948   21.1722 C   0  0  0  0  0  0  0  0  0  0  0  0
  -25.4005  -11.7855   21.4370 C   0  0  0  0  0  0  0  0  0  0  0  0
  -24.1608  -13.5473   20.3432 C   0  0  0  0  0  0  0  0  0  0  0  0
  -23.1000  -23.2559   20.0723 C   0  0  0  0  0  0  0  0  0  0  0  0
  -22.6567   -9.6948   22.5841 C   0  0  0  0  0  0  0  0  0  0  0  0
  -22.5004   -8.3137   22.4678 C   0  0  0  0  0  0  0  0  0  0  0  0
  -24.4560  -24.9431   19.0075 C   0  0  0  0  0  0  0  0  0  0  0  0
  -22.7539   -8.4868   20.0714 C   0  0  0  0  0  0  0  0  0  0  0  0
  -26.5726  -13.5035   20.2075 C   0  0  0  0  0  0  0  0  0  0  0  0
  -28.4710  -13.7984   18.5292 C   0  0  0  0  0  0  0  0  0  0  0  0
  -18.5615  -30.3135   23.4259 C   0  0  0  0  0  0  0  0  0  0  0  0
  -23.5077  -25.3706   21.1933 C   0  0  0  0  0  0  0  0  0  0  0  0
  -19.0456  -29.2713   22.6123 C   0  0  0  0  0  0  0  0  0  0  0  0
  -24.2900  -25.7953   20.1099 C   0  0  0  0  0  0  0  0  0  0  0  0
  -24.1833  -12.3874   21.1176 C   0  0  0  0  0  0  0  0  0  0  0  0
  -23.8627  -23.6811   18.9885 C   0  0  0  0  0  0  0  0  0  0  0  0
  -22.8616  -10.4720   21.4441 C   0  0  0  0  0  0  0  0  0  0  0  0
  -22.5490   -7.7096   21.2115 C   0  0  0  0  0  0  0  0  0  0  0  0
  -22.9102   -9.8680   20.1877 C   0  0  0  0  0  0  0  0  0  0  0  0
  -27.4024  -20.4972   17.6409 C   0  0  0  0  0  0  0  0  0  0  0  0
  -27.8063  -14.0807   19.7377 C   0  0  0  0  0  0  0  0  0  0  0  0
  -26.2929  -21.1794   17.1066 C   0  0  0  0  0  0  0  0  0  0  0  0
  -28.4693  -21.3235   17.3852 C   0  0  0  0  0  0  0  0  0  0  0  0
  -29.5859  -14.6001   18.5552 C   0  0  0  0  0  0  0  0  0  0  0  0
  -28.1125  -12.8926   17.4772 C   0  0  0  0  0  0  0  0  0  0  0  0
  -22.3911  -28.3426   21.3483 C   0  0  0  0  0  0  0  0  0  0  0  0
  -25.5372  -29.0971   21.5833 C   0  0  0  0  0  0  0  0  0  0  0  0
  -28.7794  -28.2238   20.9731 C   0  0  0  0  0  0  0  0  0  0  0  0
  -30.8413  -19.7496   21.3404 C   0  0  0  0  0  0  0  0  0  0  0  0
  -19.1116  -31.7146   23.3312 C   0  0  0  0  0  0  0  0  0  0  0  0
  -23.3327  -26.2531   22.3987 C   0  0  0  0  0  0  0  0  0  0  0  0
  -24.9525  -27.1478   20.0921 C   0  0  0  0  0  0  0  0  0  0  0  0
  -20.4702  -31.7901   22.6393 C   0  0  0  0  0  0  0  0  0  0  0  0
  -32.6304  -16.6825   21.6024 C   0  0  0  0  0  0  0  0  0  0  0  0
  -20.4634  -30.9629   21.3577 C   0  0  0  0  0  0  0  0  0  0  0  0
  -31.6569  -15.6424   21.0451 C   0  0  0  0  0  0  0  0  0  0  0  0
  -31.9037  -17.7720   22.3878 C   0  0  0  0  0  0  0  0  0  0  0  0
  -29.8368  -17.3983   21.0986 C   0  0  0  0  0  0  0  0  0  0  0  0
  -20.2011  -29.4822   21.6582 C   0  0  1  0  0  0  0  0  0  0  0  0
  -23.5452  -27.7324   22.0921 C   0  0  1  0  0  0  0  0  0  0  0  0
  -30.5175  -16.3095   20.2515 C   0  0  2  0  0  0  0  0  0  0  0  0
  -31.1296  -29.0606   21.2454 C   0  0  0  0  0  0  0  0  0  0  0  0
  -25.1248  -31.0103   19.2425 C   0  0  0  0  0  0  0  0  0  0  0  0
  -27.6107  -31.0820   18.9536 C   0  0  0  0  0  0  0  0  0  0  0  0
  -26.5790  -31.8993   21.0726 C   0  0  0  0  0  0  0  0  0  0  0  0
  -28.6820  -23.5597   16.2580 C   0  0  0  0  0  0  0  0  0  0  0  0
  -29.5190  -25.9330   22.6947 C   0  0  0  0  0  0  0  0  0  0  0  0
  -24.8481  -20.7430   17.0962 C   0  0  0  0  0  0  0  0  0  0  0  0
  -29.9068  -21.1865   17.6905 C   0  0  0  0  0  0  0  0  0  0  0  0
  -30.3920  -21.9862   18.9239 C   0  0  0  0  0  0  0  0  0  0  0  0
  -29.6696  -21.6294   20.2213 C   0  0  0  0  0  0  0  0  0  0  0  0
  -24.0185  -21.4585   18.1568 C   0  0  0  0  0  0  0  0  0  1  0  0
  -26.6365  -29.4164   20.5991 C   0  0  1  0  0  0  0  0  0  0  0  0
  -30.0102  -28.2359   21.8616 C   0  0  2  0  0  0  0  0  0  0  0  0
  -26.4738  -30.8272   19.9661 C   0  0  0  0  0  0  0  0  0  0  0  0
  -28.4458  -14.9906   20.4775 N   0  0  0  0  0  0  0  0  0  0  0  0
  -26.6243  -22.3491   16.5534 N   0  0  0  0  0  0  0  0  0  0  0  0
  -27.9541  -22.4083   16.7388 N   0  0  0  0  0  0  0  0  0  0  0  0
  -29.5239  -15.2869   19.7319 N   0  0  0  0  0  0  0  0  0  0  0  0
  -24.7465  -27.9767   21.2913 N   0  0  0  0  0  0  0  0  0  0  0  0
  -30.8366  -18.3652   21.5783 N   0  0  0  0  0  0  0  0  0  0  0  0
  -30.6035  -14.7775   17.6860 N   0  0  0  0  0  0  0  0  0  0  0  0
  -26.9342  -12.1457   17.6113 N   0  0  0  0  0  0  0  0  0  0  0  0
  -21.3995  -28.8496   22.1663 N   0  0  0  0  0  0  0  0  0  0  0  0
  -27.8934  -29.2237   21.3143 N   0  0  0  0  0  0  0  0  0  0  0  0
  -29.7977  -20.2292   20.5584 N   0  0  0  0  0  0  0  0  0  0  0  0
  -30.5103  -26.8480   22.0726 N   0  3  0  0  0  0  0  0  0  0  0  0
  -28.8249  -12.7376   16.4564 O   0  0  0  0  0  0  0  0  0  0  0  0
  -22.4004  -28.3541   20.1229 O   0  0  0  0  0  0  0  0  0  0  0  0
  -25.3903  -29.8111   22.5784 O   0  0  0  0  0  0  0  0  0  0  0  0
  -28.6217  -27.4112   20.0646 O   0  0  0  0  0  0  0  0  0  0  0  0
  -31.7142  -20.5016   21.7871 O   0  0  0  0  0  0  0  0  0  0  0  0
  -23.0174  -11.8430   21.5613 O   0  0  0  0  0  0  0  0  0  0  0  0
  -24.0336  -22.8645   17.9134 O   0  0  0  0  0  0  0  0  0  1  0  0
  -22.4004   -6.3831   21.1001 F   0  0  0  0  0  0  0  0  0  0  0  0
  -23.1080  -10.6092   19.0890 F   0  0  0  0  0  0  0  0  0  0  0  0
  -27.3942  -18.9942   18.4193 Cl  0  0  0  0  0  0  0  0  0  0  0  0
  1  2  1  0  0  0  0
  1  5  2  0  0  0  0
  2  6  2  0  0  0  0
  3  8  2  0  0  0  0
  3 15  1  0  0  0  0
  4  9  1  0  0  0  0
  4 15  2  0  0  0  0
  5 17  1  0  0  0  0
  6 19  1  0  0  0  0
  7 10  2  0  0  0  0
  7 18  1  0  0  0  0
  8 21  1  0  0  0  0
  9 21  2  0  0  0  0
 10 22  1  0  0  0  0
 11 12  2  0  0  0  0
 11 23  1  0  0  0  0
 12 24  1  0  0  0  0
 13 20  1  0  0  0  0
 13 22  2  0  0  0  0
 14 24  2  0  0  0  0
 14 25  1  0  0  0  0
 15 27  1  0  0  0  0
 16 27  1  0  0  0  0
 16 30  2  0  0  0  0
 16 31  1  0  0  0  0
 17 19  2  0  0  0  0
 17 36  1  0  0  0  0
 18 20  2  0  0  0  0
 18 37  1  0  0  0  0
 19 45  1  0  0  0  0
 20 38  1  0  0  0  0
 21 79  1  0  0  0  0
 22 80  1  0  0  0  0
 23 25  2  0  0  0  0
 23 79  1  0  0  0  0
 24 81  1  0  0  0  0
 25 82  1  0  0  0  0
 26 28  1  0  0  0  0
 26 29  2  0  0  0  0
 26 83  1  0  0  0  0
 27 62  2  0  0  0  0
 28 54  1  0  0  0  0
 28 63  2  0  0  0  0
 29 55  1  0  0  0  0
 29 64  1  0  0  0  0
 30 65  1  0  0  0  0
 30 68  1  0  0  0  0
 31 69  1  0  0  0  0
 31 74  2  0  0  0  0
 32 46  1  0  0  0  0
 32 70  1  0  0  0  0
 32 75  2  0  0  0  0
 33 59  1  0  0  0  0
 33 66  1  0  0  0  0
 33 76  2  0  0  0  0
 34 60  1  0  0  0  0
 34 71  1  0  0  0  0
 34 77  2  0  0  0  0
 35 67  1  0  0  0  0
 35 72  1  0  0  0  0
 35 78  2  0  0  0  0
 36 39  1  0  0  0  0
 37 46  1  0  0  0  0
 38 66  1  0  0  0  0
 39 41  1  0  0  0  0
 40 42  1  0  0  0  0
 40 43  1  0  0  0  0
 41 45  1  0  0  0  0
 42 47  1  0  0  0  0
 43 67  1  0  0  0  0
 44 47  1  0  0  0  0
 44 67  1  0  0  0  0
 45 70  1  0  0  0  0
 46 66  1  0  0  0  0
 47 65  1  0  0  0  0
 48 60  1  0  0  0  0
 49 61  1  0  0  0  0
 50 61  1  0  0  0  0
 51 61  1  0  0  0  0
 52 64  1  0  0  0  0
 53 73  1  0  0  0  0
 54 58  1  0  0  0  0
 55 56  1  0  0  0  0
 56 57  1  0  0  0  0
 57 72  1  0  0  0  0
 58 80  1  0  0  0  0
 59 61  1  0  0  0  0
 59 71  1  0  0  0  0
 60 73  1  0  0  0  0
 62 65  1  0  0  0  0
 63 64  1  0  0  0  0
M  CHG  1  73   1
M  ISO  4  35 100  58 101  72 100  80 101
M  END
> <Batch ID>
0024

> <Smiles>
CNC(C)C(=O)NC(C(=O)N1Cc2cc([101O:1][101CH2:1]Cc3nn(C)c(CCC[100NH:0][100C:0](=O)N4CCCC(n5nc(-c6ccc(Oc7ccc(F)cc7F)cc6)c(C(N)=O)c5N)C4)c3Cl)ccc2CC1C(=O)NC1CCCc2ccccc21)C(C)(C)C

> <Shape>
0.273

> <Color>
0.077

> <Negative vol penalty>
0.000

$$$$

  -OEChem-04052316223D

 84 92  0     1  0  0  0  0  0999 V2000
  -26.5873  -35.2780   23.8858 C   0  0  0  0  0  0  0  0  0  0  0  0
  -27.0252  -33.9872   23.6077 C   0  0  0  0  0  0  0  0  0  0  0  0
  -24.6645  -13.0784   25.5030 C   0  0  0  0  0  0  0  0  0  0  0  0
  -24.2439  -15.4454   25.7428 C   0  0  0  0  0  0  0  0  0  0  0  0
  -25.2583  -35.4999   24.2444 C   0  0  0  0  0  0  0  0  0  0  0  0
  -26.1346  -32.9173   23.6890 C   0  0  0  0  0  0  0  0  0  0  0  0
  -26.5363  -29.7520   19.7565 C   0  0  0  0  0  0  0  0  0  0  0  0
  -24.2102  -12.8659   26.8045 C   0  0  0  0  0  0  0  0  0  0  0  0
  -23.7895  -15.2329   27.0443 C   0  0  0  0  0  0  0  0  0  0  0  0
  -27.6036  -28.8550   19.7676 C   0  0  0  0  0  0  0  0  0  0  0  0
  -22.8225  -11.6525   29.9378 C   0  0  0  0  0  0  0  0  0  0  0  0
  -21.9530  -10.5836   30.1547 C   0  0  0  0  0  0  0  0  0  0  0  0
  -26.1247  -27.1142   20.5433 C   0  0  0  0  0  0  0  0  0  0  0  0
  -30.2006  -22.3795   20.3141 C   0  0  0  0  0  0  0  0  0  0  0  0
  -20.3674  -11.5612   28.6160 C   0  0  0  0  0  0  0  0  0  0  0  0
  -24.6814  -14.3683   24.9721 C   0  0  0  0  0  0  0  0  0  0  0  0
  -24.3857  -14.5724   22.4466 C   0  0  0  0  0  0  0  0  0  0  0  0
  -24.3487  -34.4334   24.3208 C   0  0  0  0  0  0  0  0  0  0  0  0
  -25.2552  -29.3389   20.1499 C   0  0  0  0  0  0  0  0  0  0  0  0
  -24.7926  -33.1250   24.0503 C   0  0  0  0  0  0  0  0  0  0  0  0
  -25.0423  -28.0072   20.5339 C   0  0  0  0  0  0  0  0  0  0  0  0
  -29.2291  -23.0312   19.5545 C   0  0  0  0  0  0  0  0  0  0  0  0
  -28.1669  -22.3081   19.0119 C   0  0  0  0  0  0  0  0  0  0  0  0
  -29.0478  -20.2814   19.9885 C   0  0  0  0  0  0  0  0  0  0  0  0
  -23.7726  -13.9430   27.5752 C   0  0  0  0  0  0  0  0  0  0  0  0
  -27.3985  -27.5367   20.1637 C   0  0  0  0  0  0  0  0  0  0  0  0
  -22.4644  -12.6758   29.0600 C   0  0  0  0  0  0  0  0  0  0  0  0
  -20.7255  -10.5379   29.4938 C   0  0  0  0  0  0  0  0  0  0  0  0
  -21.2369  -12.6301   28.3992 C   0  0  0  0  0  0  0  0  0  0  0  0
  -30.1100  -21.0046   20.5311 C   0  0  0  0  0  0  0  0  0  0  0  0
  -28.0762  -20.9331   19.2289 C   0  0  0  0  0  0  0  0  0  0  0  0
  -25.1511  -14.5886   23.6279 C   0  0  0  0  0  0  0  0  0  0  0  0
  -25.2907  -14.8353   21.4474 C   0  0  0  0  0  0  0  0  0  0  0  0
  -22.9821  -14.3406   22.2683 C   0  0  0  0  0  0  0  0  0  0  0  0
  -23.2466  -30.1637   22.4712 C   0  0  0  0  0  0  0  0  0  0  0  0
  -21.2397  -28.1402   20.9219 C   0  0  0  0  0  0  0  0  0  0  0  0
  -20.8638  -25.4732   18.8260 C   0  0  0  0  0  0  0  0  0  0  0  0
  -30.0136  -17.9921   20.4037 C   0  0  0  0  0  0  0  0  0  0  0  0
  -22.9334  -34.7164   24.7586 C   0  0  0  0  0  0  0  0  0  0  0  0
  -24.1090  -30.3118   20.1068 C   0  0  0  0  0  0  0  0  0  0  0  0
  -23.6822  -27.5085   20.9459 C   0  0  0  0  0  0  0  0  0  0  0  0
  -21.9633  -33.5769   24.4573 C   0  0  0  0  0  0  0  0  0  0  0  0
  -30.2083  -14.4908   21.0205 C   0  0  0  0  0  0  0  0  0  0  0  0
  -22.5627  -32.2396   24.8806 C   0  0  0  0  0  0  0  0  0  0  0  0
  -28.8497  -14.1558   21.6403 C   0  0  0  0  0  0  0  0  0  0  0  0
  -30.7147  -15.8601   21.4704 C   0  0  0  0  0  0  0  0  0  0  0  0
  -28.4132  -16.6326   21.8890 C   0  0  0  0  0  0  0  0  0  0  0  0
  -23.8507  -31.9417   24.1035 C   0  0  1  0  0  0  0  0  0  0  0  0
  -22.9528  -29.9137   21.0190 C   0  0  1  0  0  0  0  0  0  0  0  0
  -27.8318  -15.2909   21.4142 C   0  0  2  0  0  0  0  0  0  0  0  0
  -27.1364  -23.0294   18.1989 C   0  0  0  0  0  0  0  0  0  0  0  0
  -19.1032  -24.0260   17.7757 C   0  0  0  0  0  0  0  0  0  0  0  0
  -29.4681  -24.9500   17.8398 C   0  0  0  0  0  0  0  0  0  0  0  0
  -30.6363  -25.0591   20.0310 C   0  0  0  0  0  0  0  0  0  0  0  0
  -20.8418  -26.6984   23.5815 C   0  0  0  0  0  0  0  0  0  0  0  0
  -19.8789  -24.7677   22.3111 C   0  0  0  0  0  0  0  0  0  0  0  0
  -18.7565  -26.9941   22.2329 C   0  0  0  0  0  0  0  0  0  0  0  0
  -21.6915  -26.2495   16.0926 C   0  0  0  0  0  0  0  0  0  0  0  0
  -28.1329  -25.2861   19.9369 C   0  0  0  0  0  0  0  0  0  1  0  0
  -20.9397  -26.6628   21.0017 C   0  0  1  0  0  0  0  0  0  0  0  0
  -19.9743  -25.2620   17.6141 C   0  0  2  0  0  0  0  0  0  0  0  0
  -29.3555  -24.5499   19.3306 C   0  0  0  0  0  0  0  0  0  0  0  0
  -20.1304  -26.2903   22.2759 C   0  0  0  0  0  0  0  0  0  0  0  0
  -26.4430  -14.8415   23.4018 N   0  0  0  0  0  0  0  0  0  0  0  0
  -26.4963  -14.9867   22.0669 N   0  0  0  0  0  0  0  0  0  0  0  0
  -22.5946  -28.4994   20.8931 N   0  0  0  0  0  0  0  0  0  0  0  0
  -29.6997  -16.8860   21.2215 N   0  0  0  0  0  0  0  0  0  0  0  0
  -25.1649  -14.9493   20.1082 N   0  0  0  0  0  0  0  0  0  0  0  0
  -22.1978  -14.0857   23.4015 N   0  0  0  0  0  0  0  0  0  0  0  0
  -28.9598  -18.8850   20.2121 N   0  0  0  0  0  0  0  0  0  0  0  0
  -23.5398  -31.4812   22.7672 N   0  0  0  0  0  0  0  0  0  0  0  0
  -20.2777  -26.3125   19.7497 N   0  0  0  0  0  0  0  0  0  0  0  0
  -20.8025  -25.0960   16.3863 N   0  3  0  0  0  0  0  0  0  0  0  0
  -22.4423  -14.3427   21.1360 O   0  0  0  0  0  0  0  0  0  0  0  0
  -23.2085  -29.2305   23.2647 O   0  0  0  0  0  0  0  0  0  0  0  0
  -20.3061  -28.9454   20.8794 O   0  0  0  0  0  0  0  0  0  0  0  0
  -21.9666  -24.9435   18.9433 O   0  0  0  0  0  0  0  0  0  0  0  0
  -31.1265  -18.1224   19.8876 O   0  0  0  0  0  0  0  0  0  0  0  0
  -23.3290  -13.7360   28.8452 O   0  0  0  0  0  0  0  0  0  0  0  0
  -28.4387  -26.6593   20.1760 O   0  0  0  0  0  0  0  0  0  1  0  0
  -19.8913   -9.5106   29.7010 F   0  0  0  0  0  0  0  0  0  0  0  0
  -20.8879  -13.6096   27.5539 F   0  0  0  0  0  0  0  0  0  0  0  0
  -31.3385  -20.2432   21.4790 Cl  0  0  0  0  0  0  0  0  0  0  0  0
  -26.7515  -20.0408   18.5500 Cl  0  0  0  0  0  0  0  0  0  0  0  0
  1  2  1  0  0  0  0
  1  5  2  0  0  0  0
  2  6  2  0  0  0  0
  3  8  2  0  0  0  0
  3 16  1  0  0  0  0
  4  9  1  0  0  0  0
  4 16  2  0  0  0  0
  5 18  1  0  0  0  0
  6 20  1  0  0  0  0
  7 10  2  0  0  0  0
  7 19  1  0  0  0  0
  8 25  1  0  0  0  0
  9 25  2  0  0  0  0
 10 26  1  0  0  0  0
 11 12  2  0  0  0  0
 11 27  1  0  0  0  0
 12 28  1  0  0  0  0
 13 21  1  0  0  0  0
 13 26  2  0  0  0  0
 14 22  1  0  0  0  0
 14 30  2  0  0  0  0
 15 28  2  0  0  0  0
 15 29  1  0  0  0  0
 16 32  1  0  0  0  0
 17 32  1  0  0  0  0
 17 33  2  0  0  0  0
 17 34  1  0  0  0  0
 18 20  2  0  0  0  0
 18 39  1  0  0  0  0
 19 21  2  0  0  0  0
 19 40  1  0  0  0  0
 20 48  1  0  0  0  0
 21 41  1  0  0  0  0
 22 23  2  0  0  0  0
 22 62  1  0  0  0  0
 23 31  1  0  0  0  0
 23 51  1  0  0  0  0
 24 30  1  0  0  0  0
 24 31  2  0  0  0  0
 24 70  1  0  0  0  0
 25 79  1  0  0  0  0
 26 80  1  0  0  0  0
 27 29  2  0  0  0  0
 27 79  1  0  0  0  0
 28 81  1  0  0  0  0
 29 82  1  0  0  0  0
 30 83  1  0  0  0  0
 31 84  1  0  0  0  0
 32 64  2  0  0  0  0
 33 65  1  0  0  0  0
 33 68  1  0  0  0  0
 34 69  1  0  0  0  0
 34 74  2  0  0  0  0
 35 49  1  0  0  0  0
 35 71  1  0  0  0  0
 35 75  2  0  0  0  0
 36 60  1  0  0  0  0
 36 66  1  0  0  0  0
 36 76  2  0  0  0  0
 37 61  1  0  0  0  0
 37 72  1  0  0  0  0
 37 77  2  0  0  0  0
 38 67  1  0  0  0  0
 38 70  1  0  0  0  0
 38 78  2  0  0  0  0
 39 42  1  0  0  0  0
 40 49  1  0  0  0  0
 41 66  1  0  0  0  0
 42 44  1  0  0  0  0
 43 45  1  0  0  0  0
 43 46  1  0  0  0  0
 44 48  1  0  0  0  0
 45 50  1  0  0  0  0
 46 67  1  0  0  0  0
 47 50  1  0  0  0  0
 47 67  1  0  0  0  0
 48 71  1  0  0  0  0
 49 66  1  0  0  0  0
 50 65  1  0  0  0  0
 52 61  1  0  0  0  0
 53 62  1  0  0  0  0
 54 62  1  0  0  0  0
 55 63  1  0  0  0  0
 56 63  1  0  0  0  0
 57 63  1  0  0  0  0
 58 73  1  0  0  0  0
 59 62  1  0  0  0  0
 59 80  1  0  0  0  0
 60 63  1  0  0  0  0
 60 72  1  0  0  0  0
 61 73  1  0  0  0  0
 64 65  1  0  0  0  0
M  CHG  1  73   1
M  ISO  4  38 100  59 101  70 100  80 101
M  END
> <Batch ID>
0024

> <Smiles>
CNC(C)C(=O)NC(C(=O)N1Cc2cc([101O:1][101CH2:1]C(C)(C)c3cc(Cl)c([100NH:0][100C:0](=O)N4CCCC(n5nc(-c6ccc(Oc7ccc(F)cc7F)cc6)c(C(N)=O)c5N)C4)c(Cl)c3C)ccc2CC1C(=O)NC1CCCc2ccccc21)C(C)(C)C

> <Shape>
0.263

> <Color>
0.114

> <Negative vol penalty>
0.000

$$$$

  -OEChem-04052316223D

 97105  0     1  0  0  0  0  0999 V2000
  -26.4026  -25.0483   28.1749 C   0  0  0  0  0  0  0  0  0  0  0  0
  -27.0028  -24.6529   26.9838 C   0  0  0  0  0  0  0  0  0  0  0  0
  -23.0997   -9.9051   19.9982 C   0  0  0  0  0  0  0  0  0  0  0  0
  -23.6815  -10.0858   22.3362 C   0  0  0  0  0  0  0  0  0  0  0  0
  -25.1483  -25.6566   28.1538 C   0  0  0  0  0  0  0  0  0  0  0  0
  -26.3484  -24.8645   25.7708 C   0  0  0  0  0  0  0  0  0  0  0  0
  -27.6851  -26.3383   18.8891 C   0  0  0  0  0  0  0  0  0  0  0  0
  -22.3373   -8.7705   20.2757 C   0  0  0  0  0  0  0  0  0  0  0  0
  -22.9191   -8.9512   22.6136 C   0  0  0  0  0  0  0  0  0  0  0  0
  -27.3914  -25.8676   17.6101 C   0  0  0  0  0  0  0  0  0  0  0  0
  -23.2474   -5.5983   22.3290 C   0  0  0  0  0  0  0  0  0  0  0  0
  -23.8047   -4.6319   23.1663 C   0  0  0  0  0  0  0  0  0  0  0  0
  -25.2625  -26.9994   17.6890 C   0  0  0  0  0  0  0  0  0  0  0  0
  -21.9777   -4.9244   24.7199 C   0  0  0  0  0  0  0  0  0  0  0  0
  -23.7718  -10.5628   21.0285 C   0  0  0  0  0  0  0  0  0  0  0  0
  -24.1252  -13.0735   20.7473 C   0  0  0  0  0  0  0  0  0  0  0  0
  -24.4824  -25.8846   26.9391 C   0  0  0  0  0  0  0  0  0  0  0  0
  -26.7636  -27.1354   19.5832 C   0  0  0  0  0  0  0  0  0  0  0  0
  -25.0834  -25.4752   25.7334 C   0  0  0  0  0  0  0  0  0  0  0  0
  -25.5480  -27.4811   18.9757 C   0  0  0  0  0  0  0  0  0  0  0  0
  -23.6718  -21.6868   18.9636 C   0  0  0  0  0  0  0  0  0  0  0  0
  -23.7355  -20.7868   20.0274 C   0  0  0  0  0  0  0  0  0  0  0  0
  -22.9145  -21.3784   17.8335 C   0  0  0  0  0  0  0  0  0  0  0  0
  -23.0419  -19.5784   19.9611 C   0  0  0  0  0  0  0  0  0  0  0  0
  -22.2209  -20.1700   17.7672 C   0  0  0  0  0  0  0  0  0  0  0  0
  -22.2469   -8.2935   21.5833 C   0  0  0  0  0  0  0  0  0  0  0  0
  -26.1787  -26.1958   17.0110 C   0  0  0  0  0  0  0  0  0  0  0  0
  -22.0553   -6.2278   22.6872 C   0  0  0  0  0  0  0  0  0  0  0  0
  -23.1698   -4.2949   24.3618 C   0  0  0  0  0  0  0  0  0  0  0  0
  -21.4204   -5.8909   23.8826 C   0  0  0  0  0  0  0  0  0  0  0  0
  -22.2846  -19.2700   18.8310 C   0  0  0  0  0  0  0  0  0  0  0  0
  -24.5600  -11.7345   20.7425 C   0  0  0  0  0  0  0  0  0  0  0  0
  -25.2430  -13.7987   20.4140 C   0  0  0  0  0  0  0  0  0  0  0  0
  -22.8271  -13.6134   21.0282 C   0  0  0  0  0  0  0  0  0  0  0  0
  -25.1400  -26.8389   22.2998 C   0  0  0  0  0  0  0  0  0  0  0  0
  -24.2541  -29.8908   21.6491 C   0  0  0  0  0  0  0  0  0  0  0  0
  -23.7904  -32.3383   19.3164 C   0  0  0  0  0  0  0  0  0  0  0  0
  -30.9746  -13.8033   21.2283 C   0  0  0  0  0  0  0  0  0  0  0  0
  -23.1071  -26.5028   26.9701 C   0  0  0  0  0  0  0  0  0  0  0  0
  -27.1068  -27.6573   20.9515 C   0  0  0  0  0  0  0  0  0  0  0  0
  -24.5333  -28.3506   19.6705 C   0  0  0  0  0  0  0  0  0  0  0  0
  -22.6457  -27.0304   25.6140 C   0  0  0  0  0  0  0  0  0  0  0  0
  -29.5157  -12.7707   18.1490 C   0  0  0  0  0  0  0  0  0  0  0  0
  -22.9157  -26.0013   24.5209 C   0  0  0  0  0  0  0  0  0  0  0  0
  -28.0486  -12.5227   18.5043 C   0  0  0  0  0  0  0  0  0  0  0  0
  -30.4489  -12.3591   19.2855 C   0  0  0  0  0  0  0  0  0  0  0  0
  -28.6662  -12.7124   20.9500 C   0  0  0  0  0  0  0  0  0  0  0  0
  -24.4161  -25.7102   24.3957 C   0  0  1  0  0  0  0  0  0  0  0  0
  -25.8778  -28.0367   21.7719 C   0  0  1  0  0  0  0  0  0  0  0  0
  -27.6830  -13.1640   19.8565 C   0  0  2  0  0  0  0  0  0  0  0  0
  -24.4143  -22.9837   19.0359 C   0  0  0  0  0  0  0  0  0  0  0  0
  -23.1241  -18.6240   21.1127 C   0  0  0  0  0  0  0  0  0  0  0  0
  -20.0924  -20.6142   16.5188 C   0  0  0  0  0  0  0  0  0  0  0  0
  -23.0217  -34.7156   19.0814 C   0  0  0  0  0  0  0  0  0  0  0  0
  -26.9051  -22.8799   22.2588 C   0  0  0  0  0  0  0  0  0  0  0  0
  -21.3570  -28.9810   21.9474 C   0  0  0  0  0  0  0  0  0  0  0  0
  -20.6497  -31.0880   20.7949 C   0  0  0  0  0  0  0  0  0  0  0  0
  -21.8624  -31.2058   22.9716 C   0  0  0  0  0  0  0  0  0  0  0  0
  -26.4191  -33.2070   18.2703 C   0  0  0  0  0  0  0  0  0  0  0  0
  -21.4147  -19.8567   16.5444 C   0  0  0  0  0  0  0  0  0  0  0  0
  -22.8474  -22.3450   16.6932 C   0  0  0  0  0  0  0  0  0  0  0  0
  -24.5502  -21.1197   21.2425 C   0  0  0  0  0  0  0  0  0  0  0  0
  -29.7563  -18.7576   22.4502 C   0  0  0  0  0  0  0  0  0  0  0  0
  -29.8291  -17.2959   22.8972 C   0  0  0  0  0  0  0  0  0  0  0  0
  -28.3232  -19.2917   22.5332 C   0  0  0  0  0  0  0  0  0  0  0  0
  -31.2425  -16.7063   22.8266 C   0  0  0  0  0  0  0  0  0  0  0  0
  -28.2457  -20.7466   22.0576 C   0  0  0  0  0  0  0  0  0  0  0  0
  -25.5306  -23.8032   14.3833 C   0  0  0  0  0  0  0  0  0  0  0  0
  -31.3451  -15.2357   23.2208 C   0  0  0  0  0  0  0  0  0  0  0  0
  -24.1302  -23.5506   14.9213 C   0  0  0  0  0  0  0  0  0  0  0  0
  -26.4572  -24.4855   15.3821 C   0  0  0  0  0  0  0  0  0  1  0  0
  -23.1231  -30.5360   20.8850 C   0  0  1  0  0  0  0  0  0  0  0  0
  -24.2150  -33.7955   19.2872 C   0  0  2  0  0  0  0  0  0  0  0  0
  -26.8475  -21.3593   22.1931 C   0  0  2  0  0  0  0  0  0  0  0  0
  -21.7661  -30.4347   21.6371 C   0  0  0  0  0  0  0  0  0  0  0  0
  -25.8531  -11.6134   20.4305 N   0  0  0  0  0  0  0  0  0  0  0  0
  -26.2404  -12.8856   20.2363 N   0  0  0  0  0  0  0  0  0  0  0  0
  -24.9124  -28.8310   21.0095 N   0  0  0  0  0  0  0  0  0  0  0  0
  -30.0487  -13.0028   20.5390 N   0  0  0  0  0  0  0  0  0  0  0  0
  -25.4602  -15.1219   20.2584 N   0  0  0  0  0  0  0  0  0  0  0  0
  -21.7910  -12.7274   21.3537 N   0  0  0  0  0  0  0  0  0  0  0  0
  -25.0800  -26.7779   23.6790 N   0  0  0  0  0  0  0  0  0  0  0  0
  -23.5489  -31.9023   20.6020 N   0  0  0  0  0  0  0  0  0  0  0  0
  -30.5121  -14.3813   22.4042 N   0  0  0  0  0  0  0  0  0  0  0  0
  -25.1857  -34.0301   18.1810 N   0  3  0  0  0  0  0  0  0  0  0  0
  -24.1764  -22.6363   16.0930 N   0  3  0  0  0  0  0  0  0  0  0  0
  -26.0126  -20.9830   21.0182 N   0  3  0  0  0  0  0  0  0  0  0  0
  -22.5887  -14.8439   20.9755 O   0  0  0  0  0  0  0  0  0  0  0  0
  -24.6593  -26.0308   21.5139 O   0  0  0  0  0  0  0  0  0  0  0  0
  -24.5473  -30.3164   22.7692 O   0  0  0  0  0  0  0  0  0  0  0  0
  -23.6802  -31.6562   18.3000 O   0  0  0  0  0  0  0  0  0  0  0  0
  -32.1263  -13.9934   20.8228 O   0  0  0  0  0  0  0  0  0  0  0  0
  -21.5029   -7.1865   21.8544 O   0  0  0  0  0  0  0  0  0  0  0  0
  -25.8872  -25.7339   15.7542 O   0  0  0  0  0  0  0  0  0  1  0  0
  -23.7042   -3.3657   25.1650 F   0  0  0  0  0  0  0  0  0  0  0  0
  -20.2743   -6.4914   24.2314 F   0  0  0  0  0  0  0  0  0  0  0  0
  -21.4236  -17.7682   18.7478 Cl  0  0  0  0  0  0  0  0  0  0  0  0
  1  2  1  0  0  0  0
  1  5  2  0  0  0  0
  2  6  2  0  0  0  0
  3  8  2  0  0  0  0
  3 15  1  0  0  0  0
  4  9  1  0  0  0  0
  4 15  2  0  0  0  0
  5 17  1  0  0  0  0
  6 19  1  0  0  0  0
  7 10  2  0  0  0  0
  7 18  1  0  0  0  0
  8 26  1  0  0  0  0
  9 26  2  0  0  0  0
 10 27  1  0  0  0  0
 11 12  2  0  0  0  0
 11 28  1  0  0  0  0
 12 29  1  0  0  0  0
 13 20  1  0  0  0  0
 13 27  2  0  0  0  0
 14 29  2  0  0  0  0
 14 30  1  0  0  0  0
 15 32  1  0  0  0  0
 16 32  1  0  0  0  0
 16 33  2  0  0  0  0
 16 34  1  0  0  0  0
 17 19  2  0  0  0  0
 17 39  1  0  0  0  0
 18 20  2  0  0  0  0
 18 40  1  0  0  0  0
 19 48  1  0  0  0  0
 20 41  1  0  0  0  0
 21 22  2  0  0  0  0
 21 23  1  0  0  0  0
 21 51  1  0  0  0  0
 22 24  1  0  0  0  0
 22 62  1  0  0  0  0
 23 25  2  0  0  0  0
 23 61  1  0  0  0  0
 24 31  2  0  0  0  0
 24 52  1  0  0  0  0
 25 31  1  0  0  0  0
 25 60  1  0  0  0  0
 26 93  1  0  0  0  0
 27 94  1  0  0  0  0
 28 30  2  0  0  0  0
 28 93  1  0  0  0  0
 29 95  1  0  0  0  0
 30 96  1  0  0  0  0
 31 97  1  0  0  0  0
 32 76  2  0  0  0  0
 33 77  1  0  0  0  0
 33 80  1  0  0  0  0
 34 81  1  0  0  0  0
 34 88  2  0  0  0  0
 35 49  1  0  0  0  0
 35 82  1  0  0  0  0
 35 89  2  0  0  0  0
 36 72  1  0  0  0  0
 36 78  1  0  0  0  0
 36 90  2  0  0  0  0
 37 73  1  0  0  0  0
 37 83  1  0  0  0  0
 37 91  2  0  0  0  0
 38 79  1  0  0  0  0
 38 84  1  0  0  0  0
 38 92  2  0  0  0  0
 39 42  1  0  0  0  0
 40 49  1  0  0  0  0
 41 78  1  0  0  0  0
 42 44  1  0  0  0  0
 43 45  1  0  0  0  0
 43 46  1  0  0  0  0
 44 48  1  0  0  0  0
 45 50  1  0  0  0  0
 46 79  1  0  0  0  0
 47 50  1  0  0  0  0
 47 79  1  0  0  0  0
 48 82  1  0  0  0  0
 49 78  1  0  0  0  0
 50 77  1  0  0  0  0
 53 60  1  0  0  0  0
 54 73  1  0  0  0  0
 55 74  1  0  0  0  0
 56 75  1  0  0  0  0
 57 75  1  0  0  0  0
 58 75  1  0  0  0  0
 59 85  1  0  0  0  0
 61 86  1  0  0  0  0
 62 87  1  0  0  0  0
 63 64  1  0  0  0  0
 63 65  1  0  0  0  0
 64 66  1  0  0  0  0
 65 67  1  0  0  0  0
 66 69  1  0  0  0  0
 67 74  1  0  0  0  0
 68 70  1  0  0  0  0
 68 71  1  0  0  0  0
 69 84  1  0  0  0  0
 70 86  1  0  0  0  0
 71 94  1  0  0  0  0
 72 75  1  0  0  0  0
 72 83  1  0  0  0  0
 73 85  1  0  0  0  0
 74 87  1  0  0  0  0
 76 77  1  0  0  0  0
M  CHG  3  85   1  86   1  87   1
M  ISO  4  38 100  71 101  84 100  94 101
M  END
> <Batch ID>
0024

> <Smiles>
CCc1c(Cl)c(C)c(CNC(C)CCCCCC[100NH:0][100C:0](=O)N2CCCC(n3nc(-c4ccc(Oc5ccc(F)cc5F)cc4)c(C(N)=O)c3N)C2)c(C)c1CNCC[101CH2:1][101O:1]c1ccc2c(c1)CN(C(=O)C(NC(=O)C(C)NC)C(C)(C)C)C(C(=O)NC1CCCc3ccccc31)C2

> <Shape>
0.248

> <Color>
0.188

> <Negative vol penalty>
0.000

$$$$

  -OEChem-04052316223D

 83 91  0     1  0  0  0  0  0999 V2000
  -26.1601  -28.3838   27.9911 C   0  0  0  0  0  0  0  0  0  0  0  0
  -26.9076  -27.3734   27.3947 C   0  0  0  0  0  0  0  0  0  0  0  0
  -22.9993   -9.8922   19.9838 C   0  0  0  0  0  0  0  0  0  0  0  0
  -23.7231   -9.9488   22.2881 C   0  0  0  0  0  0  0  0  0  0  0  0
  -25.1094  -28.9770   27.2925 C   0  0  0  0  0  0  0  0  0  0  0  0
  -26.6041  -26.9548   26.0997 C   0  0  0  0  0  0  0  0  0  0  0  0
  -30.7317  -26.4095   23.2169 C   0  0  0  0  0  0  0  0  0  0  0  0
  -22.2328   -8.7583   20.2524 C   0  0  0  0  0  0  0  0  0  0  0  0
  -22.9565   -8.8149   22.5567 C   0  0  0  0  0  0  0  0  0  0  0  0
  -31.4912  -25.2555   23.4041 C   0  0  0  0  0  0  0  0  0  0  0  0
  -23.2016   -5.4749   22.0930 C   0  0  0  0  0  0  0  0  0  0  0  0
  -23.7889   -4.4596   22.8479 C   0  0  0  0  0  0  0  0  0  0  0  0
  -30.4564  -24.2666   21.4624 C   0  0  0  0  0  0  0  0  0  0  0  0
  -29.7596  -17.6997   22.6611 C   0  0  0  0  0  0  0  0  0  0  0  0
  -22.0639   -4.7063   24.5215 C   0  0  0  0  0  0  0  0  0  0  0  0
  -23.7445  -10.4875   21.0016 C   0  0  0  0  0  0  0  0  0  0  0  0
  -24.1296  -13.0027   20.8197 C   0  0  0  0  0  0  0  0  0  0  0  0
  -24.7991  -28.5722   25.9846 C   0  0  0  0  0  0  0  0  0  0  0  0
  -29.8194  -26.4967   22.1555 C   0  0  0  0  0  0  0  0  0  0  0  0
  -25.5475  -27.5422   25.3834 C   0  0  0  0  0  0  0  0  0  0  0  0
  -29.6884  -25.4238   21.2623 C   0  0  0  0  0  0  0  0  0  0  0  0
  -30.2477  -18.9372   23.0657 C   0  0  0  0  0  0  0  0  0  0  0  0
  -31.5235  -19.3345   22.6814 C   0  0  0  0  0  0  0  0  0  0  0  0
  -22.2114   -8.2196   21.5388 C   0  0  0  0  0  0  0  0  0  0  0  0
  -31.3516  -24.1827   22.5285 C   0  0  0  0  0  0  0  0  0  0  0  0
  -22.0456   -6.1060   22.5524 C   0  0  0  0  0  0  0  0  0  0  0  0
  -23.2200   -4.0752   24.0621 C   0  0  0  0  0  0  0  0  0  0  0  0
  -21.4767   -5.7216   23.7666 C   0  0  0  0  0  0  0  0  0  0  0  0
  -24.5370  -11.6585   20.7246 C   0  0  0  0  0  0  0  0  0  0  0  0
  -32.2654  -18.4647   21.8984 C   0  0  0  0  0  0  0  0  0  0  0  0
  -30.5803  -16.9032   21.8789 C   0  0  0  0  0  0  0  0  0  0  0  0
  -25.2395  -13.7246   20.4543 C   0  0  0  0  0  0  0  0  0  0  0  0
  -22.8613  -13.5499   21.2042 C   0  0  0  0  0  0  0  0  0  0  0  0
  -26.6702  -26.8639   21.9291 C   0  0  0  0  0  0  0  0  0  0  0  0
  -27.3143  -27.0712   18.7567 C   0  0  0  0  0  0  0  0  0  0  0  0
  -29.4174  -26.3309   16.1729 C   0  0  0  0  0  0  0  0  0  0  0  0
  -30.7187  -14.6870   20.6891 C   0  0  0  0  0  0  0  0  0  0  0  0
  -23.6241  -29.2103   25.2868 C   0  0  0  0  0  0  0  0  0  0  0  0
  -29.0270  -27.7588   21.9515 C   0  0  0  0  0  0  0  0  0  0  0  0
  -28.7377  -25.4751   20.0953 C   0  0  0  0  0  0  0  0  0  0  0  0
  -23.6060  -28.9682   23.7797 C   0  0  0  0  0  0  0  0  0  0  0  0
  -29.6021  -12.2283   18.3684 C   0  0  0  0  0  0  0  0  0  0  0  0
  -23.8774  -27.4991   23.4716 C   0  0  0  0  0  0  0  0  0  0  0  0
  -28.1513  -11.9715   18.7824 C   0  0  0  0  0  0  0  0  0  0  0  0
  -30.5019  -12.4748   19.5782 C   0  0  0  0  0  0  0  0  0  0  0  0
  -28.5856  -13.2666   20.9087 C   0  0  0  0  0  0  0  0  0  0  0  0
  -25.2647  -27.0779   23.9711 C   0  0  1  0  0  0  0  0  0  0  0  0
  -27.7544  -27.5405   21.1390 C   0  0  1  0  0  0  0  0  0  0  0  0
  -27.6287  -13.0772   19.7204 C   0  0  2  0  0  0  0  0  0  0  0  0
  -29.3868  -19.8178   23.9098 C   0  0  0  0  0  0  0  0  0  0  0  0
  -35.5525  -18.3074   19.8798 C   0  0  0  0  0  0  0  0  0  0  0  0
  -29.6575  -26.5994   13.6895 C   0  0  0  0  0  0  0  0  0  0  0  0
  -25.2518  -24.8651   18.3212 C   0  0  0  0  0  0  0  0  0  0  0  0
  -26.2044  -24.5225   16.0314 C   0  0  0  0  0  0  0  0  0  0  0  0
  -25.1748  -26.7124   16.6371 C   0  0  0  0  0  0  0  0  0  0  0  0
  -31.9173  -27.8877   16.4661 C   0  0  0  0  0  0  0  0  0  0  0  0
  -32.0800  -20.6723   23.1042 C   0  0  0  0  0  0  0  0  0  0  0  0
  -33.6430  -18.8373   21.4561 C   0  0  0  0  0  0  0  0  0  0  0  0
  -34.1640  -17.9064   20.3520 C   0  0  0  0  0  0  0  0  0  0  0  0
  -31.5129  -21.8230   22.2799 C   0  0  0  0  0  0  0  0  0  1  0  0
  -27.4176  -26.0831   17.6199 C   0  0  1  0  0  0  0  0  0  0  0  0
  -29.9792  -27.1891   15.0538 C   0  0  2  0  0  0  0  0  0  0  0  0
  -26.0288  -25.5438   17.1754 C   0  0  0  0  0  0  0  0  0  0  0  0
  -25.8065  -11.5313   20.3295 N   0  0  0  0  0  0  0  0  0  0  0  0
  -31.8251  -17.2550   21.4858 N   0  0  0  0  0  0  0  0  0  0  0  0
  -26.2064  -12.8047   20.1730 N   0  0  0  0  0  0  0  0  0  0  0  0
  -27.9805  -26.7283   19.9417 N   0  0  0  0  0  0  0  0  0  0  0  0
  -29.9462  -13.5377   20.4186 N   0  0  0  0  0  0  0  0  0  0  0  0
  -25.4728  -15.0500   20.3491 N   0  0  0  0  0  0  0  0  0  0  0  0
  -21.8295  -12.6664   21.5493 N   0  0  0  0  0  0  0  0  0  0  0  0
  -30.0738  -15.6440   21.4720 N   0  0  0  0  0  0  0  0  0  0  0  0
  -26.2920  -27.5498   23.0675 N   0  0  0  0  0  0  0  0  0  0  0  0
  -28.1643  -26.7549   16.5618 N   0  0  0  0  0  0  0  0  0  0  0  0
  -31.4599  -27.3009   15.1802 N   0  3  0  0  0  0  0  0  0  0  0  0
  -22.6444  -14.7852   21.2249 O   0  0  0  0  0  0  0  0  0  0  0  0
  -26.2097  -25.7991   21.5343 O   0  0  0  0  0  0  0  0  0  0  0  0
  -26.6723  -28.1122   18.5965 O   0  0  0  0  0  0  0  0  0  0  0  0
  -30.0275  -25.3773   16.6515 O   0  0  0  0  0  0  0  0  0  0  0  0
  -31.8576  -14.8250   20.2354 O   0  0  0  0  0  0  0  0  0  0  0  0
  -21.4633   -7.1132   21.8014 O   0  0  0  0  0  0  0  0  0  0  0  0
  -32.0912  -23.0548   22.7094 O   0  0  0  0  0  0  0  0  0  1  0  0
  -23.7832   -3.0992   24.7862 F   0  0  0  0  0  0  0  0  0  0  0  0
  -20.3655   -6.3234   24.2125 F   0  0  0  0  0  0  0  0  0  0  0  0
  1  2  1  0  0  0  0
  1  5  2  0  0  0  0
  2  6  2  0  0  0  0
  3  8  2  0  0  0  0
  3 16  1  0  0  0  0
  4  9  1  0  0  0  0
  4 16  2  0  0  0  0
  5 18  1  0  0  0  0
  6 20  1  0  0  0  0
  7 10  2  0  0  0  0
  7 19  1  0  0  0  0
  8 24  1  0  0  0  0
  9 24  2  0  0  0  0
 10 25  1  0  0  0  0
 11 12  2  0  0  0  0
 11 26  1  0  0  0  0
 12 27  1  0  0  0  0
 13 21  1  0  0  0  0
 13 25  2  0  0  0  0
 14 22  2  0  0  0  0
 14 31  1  0  0  0  0
 15 27  2  0  0  0  0
 15 28  1  0  0  0  0
 16 29  1  0  0  0  0
 17 29  1  0  0  0  0
 17 32  2  0  0  0  0
 17 33  1  0  0  0  0
 18 20  2  0  0  0  0
 18 38  1  0  0  0  0
 19 21  2  0  0  0  0
 19 39  1  0  0  0  0
 20 47  1  0  0  0  0
 21 40  1  0  0  0  0
 22 23  1  0  0  0  0
 22 50  1  0  0  0  0
 23 30  2  0  0  0  0
 23 57  1  0  0  0  0
 24 80  1  0  0  0  0
 25 81  1  0  0  0  0
 26 28  2  0  0  0  0
 26 80  1  0  0  0  0
 27 82  1  0  0  0  0
 28 83  1  0  0  0  0
 29 64  2  0  0  0  0
 30 58  1  0  0  0  0
 30 65  1  0  0  0  0
 31 65  2  0  0  0  0
 31 71  1  0  0  0  0
 32 66  1  0  0  0  0
 32 69  1  0  0  0  0
 33 70  1  0  0  0  0
 33 75  2  0  0  0  0
 34 48  1  0  0  0  0
 34 72  1  0  0  0  0
 34 76  2  0  0  0  0
 35 61  1  0  0  0  0
 35 67  1  0  0  0  0
 35 77  2  0  0  0  0
 36 62  1  0  0  0  0
 36 73  1  0  0  0  0
 36 78  2  0  0  0  0
 37 68  1  0  0  0  0
 37 71  1  0  0  0  0
 37 79  2  0  0  0  0
 38 41  1  0  0  0  0
 39 48  1  0  0  0  0
 40 67  1  0  0  0  0
 41 43  1  0  0  0  0
 42 44  1  0  0  0  0
 42 45  1  0  0  0  0
 43 47  1  0  0  0  0
 44 49  1  0  0  0  0
 45 68  1  0  0  0  0
 46 49  1  0  0  0  0
 46 68  1  0  0  0  0
 47 72  1  0  0  0  0
 48 67  1  0  0  0  0
 49 66  1  0  0  0  0
 51 59  1  0  0  0  0
 52 62  1  0  0  0  0
 53 63  1  0  0  0  0
 54 63  1  0  0  0  0
 55 63  1  0  0  0  0
 56 74  1  0  0  0  0
 57 60  1  0  0  0  0
 58 59  1  0  0  0  0
 60 81  1  0  0  0  0
 61 63  1  0  0  0  0
 61 73  1  0  0  0  0
 62 74  1  0  0  0  0
 64 66  1  0  0  0  0
M  CHG  1  74   1
M  ISO  4  37 100  60 101  71 100  81 101
M  END
> <Batch ID>
0024

> <Smiles>
CCCc1nc([100NH:0][100C:0](=O)N2CCCC(n3nc(-c4ccc(Oc5ccc(F)cc5F)cc4)c(C(N)=O)c3N)C2)cc(C)c1C[101CH2:1][101O:1]c1ccc2c(c1)CN(C(=O)C(NC(=O)C(C)NC)C(C)(C)C)C(C(=O)NC1CCCc3ccccc31)C2

> <Shape>
0.235

> <Color>
0.198

> <Negative vol penalty>
0.000

$$$$

  -OEChem-04052316223D

 90 98  0     1  0  0  0  0  0999 V2000
  -29.1497  -32.5170   23.7320 C   0  0  0  0  0  0  0  0  0  0  0  0
  -29.5467  -31.4307   22.9588 C   0  0  0  0  0  0  0  0  0  0  0  0
  -23.1496  -10.0104   19.8564 C   0  0  0  0  0  0  0  0  0  0  0  0
  -23.9063   -9.8593   22.1458 C   0  0  0  0  0  0  0  0  0  0  0  0
  -28.0689  -32.3926   24.6040 C   0  0  0  0  0  0  0  0  0  0  0  0
  -28.8638  -30.2190   23.0581 C   0  0  0  0  0  0  0  0  0  0  0  0
  -27.8042  -26.2103   18.5510 C   0  0  0  0  0  0  0  0  0  0  0  0
  -22.4256   -8.8292   20.0177 C   0  0  0  0  0  0  0  0  0  0  0  0
  -23.1823   -8.6780   22.3072 C   0  0  0  0  0  0  0  0  0  0  0  0
  -28.4431  -25.0290   18.1770 C   0  0  0  0  0  0  0  0  0  0  0  0
  -19.9678   -7.7817   22.8402 C   0  0  0  0  0  0  0  0  0  0  0  0
  -19.2101   -7.6414   24.0028 C   0  0  0  0  0  0  0  0  0  0  0  0
  -26.8247  -23.7612   19.4389 C   0  0  0  0  0  0  0  0  0  0  0  0
  -20.4842   -5.6762   24.5959 C   0  0  0  0  0  0  0  0  0  0  0  0
  -29.6882  -20.6999   24.2639 C   0  0  0  0  0  0  0  0  0  0  0  0
  -23.8900  -10.5255   20.9205 C   0  0  0  0  0  0  0  0  0  0  0  0
  -24.1878  -13.0581   20.9901 C   0  0  0  0  0  0  0  0  0  0  0  0
  -27.3664  -31.1816   24.7069 C   0  0  0  0  0  0  0  0  0  0  0  0
  -26.6752  -26.1766   19.3821 C   0  0  0  0  0  0  0  0  0  0  0  0
  -27.7734  -30.0779   23.9333 C   0  0  0  0  0  0  0  0  0  0  0  0
  -26.1717  -24.9433   19.8200 C   0  0  0  0  0  0  0  0  0  0  0  0
  -29.8365  -18.5330   23.2060 C   0  0  0  0  0  0  0  0  0  0  0  0
  -29.6156  -20.5240   21.8554 C   0  0  0  0  0  0  0  0  0  0  0  0
  -22.4419   -8.1630   21.2431 C   0  0  0  0  0  0  0  0  0  0  0  0
  -27.9552  -23.8043   18.6233 C   0  0  0  0  0  0  0  0  0  0  0  0
  -20.9836   -6.8692   22.5552 C   0  0  0  0  0  0  0  0  0  0  0  0
  -19.4684   -6.5887   24.8807 C   0  0  0  0  0  0  0  0  0  0  0  0
  -21.2418   -5.8165   23.4331 C   0  0  0  0  0  0  0  0  0  0  0  0
  -29.8112  -19.3139   24.3614 C   0  0  0  0  0  0  0  0  0  0  0  0
  -29.5903  -21.3050   23.0109 C   0  0  0  0  0  0  0  0  0  0  0  0
  -29.7387  -19.1380   21.9529 C   0  0  0  0  0  0  0  0  0  0  0  0
  -24.6385  -11.7455   20.7543 C   0  0  0  0  0  0  0  0  0  0  0  0
  -25.2672  -13.8514   20.6866 C   0  0  0  0  0  0  0  0  0  0  0  0
  -22.9080  -13.5192   21.4430 C   0  0  0  0  0  0  0  0  0  0  0  0
  -25.9822  -27.3063   22.2713 C   0  0  0  0  0  0  0  0  0  0  0  0
  -23.0114  -26.2167   21.5576 C   0  0  0  0  0  0  0  0  0  0  0  0
  -21.0691  -24.0742   19.7454 C   0  0  0  0  0  0  0  0  0  0  0  0
  -31.0438  -13.8755   21.0673 C   0  0  0  0  0  0  0  0  0  0  0  0
  -26.2342  -31.0812   25.6983 C   0  0  0  0  0  0  0  0  0  0  0  0
  -25.9816  -27.4581   19.7548 C   0  0  0  0  0  0  0  0  0  0  0  0
  -24.9509  -24.8516   20.6973 C   0  0  0  0  0  0  0  0  0  0  0  0
  -25.3290  -29.8736   25.4687 C   0  0  0  0  0  0  0  0  0  0  0  0
  -29.3670  -13.2720   17.9850 C   0  0  0  0  0  0  0  0  0  0  0  0
  -26.1629  -28.6165   25.2433 C   0  0  0  0  0  0  0  0  0  0  0  0
  -27.9348  -12.9389   18.4068 C   0  0  0  0  0  0  0  0  0  0  0  0
  -30.3898  -12.7205   18.9757 C   0  0  0  0  0  0  0  0  0  0  0  0
  -28.7353  -12.7816   20.8012 C   0  0  0  0  0  0  0  0  0  0  0  0
  -27.0423  -28.7543   23.9947 C   0  0  1  0  0  0  0  0  0  0  0  0
  -25.1444  -27.3371   21.0244 C   0  0  1  0  0  0  0  0  0  0  0  0
  -27.6655  -13.3652   19.8624 C   0  0  2  0  0  0  0  0  0  0  0  0
  -32.7325  -19.9503   17.9230 C   0  0  0  0  0  0  0  0  0  0  0  0
  -18.6786  -23.3901   19.4065 C   0  0  0  0  0  0  0  0  0  0  0  0
  -23.0856  -24.6652   24.1839 C   0  0  0  0  0  0  0  0  0  0  0  0
  -21.1576  -23.3016   23.3522 C   0  0  0  0  0  0  0  0  0  0  0  0
  -20.8942  -25.7603   23.6807 C   0  0  0  0  0  0  0  0  0  0  0  0
  -21.1232  -24.8727   16.8961 C   0  0  0  0  0  0  0  0  0  0  0  0
  -31.7271  -22.2973   20.3334 C   0  0  0  0  0  0  0  0  0  0  0  0
  -29.9710  -17.0443   23.3168 C   0  0  0  0  0  0  0  0  0  0  0  0
  -29.5087  -21.1803   20.5105 C   0  0  0  0  0  0  0  0  0  0  0  0
  -31.9941  -21.2424   17.6000 C   0  0  0  0  0  0  0  0  0  0  0  0
  -31.3922  -16.5181   23.0520 C   0  0  0  0  0  0  0  0  0  0  0  0
  -31.5470  -15.0078   23.2176 C   0  0  0  0  0  0  0  0  0  0  0  0
  -29.9829  -22.7163   18.0230 C   0  0  0  0  0  0  0  0  0  1  0  0
  -22.2786  -24.9100   21.7436 C   0  0  1  0  0  0  0  0  0  0  0  0
  -19.8036  -24.2999   18.9380 C   0  0  2  0  0  0  0  0  0  0  0  0
  -30.6369  -21.3639   18.2982 C   0  0  2  0  0  0  0  0  0  0  0  0
  -21.8782  -24.6608   23.2251 C   0  0  0  0  0  0  0  0  0  0  0  0
  -25.9053  -11.7030   20.3333 N   0  0  0  0  0  0  0  0  0  0  0  0
  -26.2600  -12.9989   20.3020 N   0  0  0  0  0  0  0  0  0  0  0  0
  -24.3116  -26.1328   21.0396 N   0  0  0  0  0  0  0  0  0  0  0  0
  -30.0784  -13.1629   20.3370 N   0  0  0  0  0  0  0  0  0  0  0  0
  -25.4544  -15.1881   20.7136 N   0  0  0  0  0  0  0  0  0  0  0  0
  -21.9117  -12.5700   21.7089 N   0  0  0  0  0  0  0  0  0  0  0  0
  -26.2546  -28.5548   22.7971 N   0  0  0  0  0  0  0  0  0  0  0  0
  -21.1523  -24.9381   20.8168 N   0  0  0  0  0  0  0  0  0  0  0  0
  -30.6651  -14.2629   22.3469 N   0  0  0  0  0  0  0  0  0  0  0  0
  -20.0554  -24.0305   17.4940 N   0  3  0  0  0  0  0  0  0  0  0  0
  -30.8208  -21.2333   19.7739 N   0  3  1  0  0  0  0  0  0  0  0  0
  -22.6502  -14.7378   21.5914 O   0  0  0  0  0  0  0  0  0  0  0  0
  -26.3527  -26.2294   22.7237 O   0  0  0  0  0  0  0  0  0  0  0  0
  -22.4482  -27.2733   21.8540 O   0  0  0  0  0  0  0  0  0  0  0  0
  -21.8990  -23.2147   19.4568 O   0  0  0  0  0  0  0  0  0  0  0  0
  -32.1584  -14.1511   20.6107 O   0  0  0  0  0  0  0  0  0  0  0  0
  -21.7354   -7.0104   21.4009 O   0  0  0  0  0  0  0  0  0  0  0  0
  -28.5773  -22.6498   18.2602 O   0  0  0  0  0  0  0  0  0  1  0  0
  -18.7418   -6.4549   25.9980 F   0  0  0  0  0  0  0  0  0  0  0  0
  -22.2172   -4.9374   23.1654 F   0  0  0  0  0  0  0  0  0  0  0  0
  -29.9300  -18.6067   25.9328 Cl  0  0  0  0  0  0  0  0  0  0  0  0
  -29.4388  -23.0241   22.9368 Cl  0  0  0  0  0  0  0  0  0  0  0  0
  -29.7688  -18.1680   20.5162 Cl  0  0  0  0  0  0  0  0  0  0  0  0
  1  2  1  0  0  0  0
  1  5  2  0  0  0  0
  2  6  2  0  0  0  0
  3  8  2  0  0  0  0
  3 16  1  0  0  0  0
  4  9  1  0  0  0  0
  4 16  2  0  0  0  0
  5 18  1  0  0  0  0
  6 20  1  0  0  0  0
  7 10  2  0  0  0  0
  7 19  1  0  0  0  0
  8 24  1  0  0  0  0
  9 24  2  0  0  0  0
 10 25  1  0  0  0  0
 11 12  2  0  0  0  0
 11 26  1  0  0  0  0
 12 27  1  0  0  0  0
 13 21  1  0  0  0  0
 13 25  2  0  0  0  0
 14 27  2  0  0  0  0
 14 28  1  0  0  0  0
 15 29  1  0  0  0  0
 15 30  2  0  0  0  0
 16 32  1  0  0  0  0
 17 32  1  0  0  0  0
 17 33  2  0  0  0  0
 17 34  1  0  0  0  0
 18 20  2  0  0  0  0
 18 39  1  0  0  0  0
 19 21  2  0  0  0  0
 19 40  1  0  0  0  0
 20 48  1  0  0  0  0
 21 41  1  0  0  0  0
 22 29  2  0  0  0  0
 22 31  1  0  0  0  0
 22 58  1  0  0  0  0
 23 30  1  0  0  0  0
 23 31  2  0  0  0  0
 23 59  1  0  0  0  0
 24 84  1  0  0  0  0
 25 85  1  0  0  0  0
 26 28  2  0  0  0  0
 26 84  1  0  0  0  0
 27 86  1  0  0  0  0
 28 87  1  0  0  0  0
 29 88  1  0  0  0  0
 30 89  1  0  0  0  0
 31 90  1  0  0  0  0
 32 68  2  0  0  0  0
 33 69  1  0  0  0  0
 33 72  1  0  0  0  0
 34 73  1  0  0  0  0
 34 79  2  0  0  0  0
 35 49  1  0  0  0  0
 35 74  1  0  0  0  0
 35 80  2  0  0  0  0
 36 64  1  0  0  0  0
 36 70  1  0  0  0  0
 36 81  2  0  0  0  0
 37 65  1  0  0  0  0
 37 75  1  0  0  0  0
 37 82  2  0  0  0  0
 38 71  1  0  0  0  0
 38 76  1  0  0  0  0
 38 83  2  0  0  0  0
 39 42  1  0  0  0  0
 40 49  1  0  0  0  0
 41 70  1  0  0  0  0
 42 44  1  0  0  0  0
 43 45  1  0  0  0  0
 43 46  1  0  0  0  0
 44 48  1  0  0  0  0
 45 50  1  0  0  0  0
 46 71  1  0  0  0  0
 47 50  1  0  0  0  0
 47 71  1  0  0  0  0
 48 74  1  0  0  0  0
 49 70  1  0  0  0  0
 50 69  1  0  0  0  0
 51 60  1  0  0  0  0
 52 65  1  0  0  0  0
 53 67  1  0  0  0  0
 54 67  1  0  0  0  0
 55 67  1  0  0  0  0
 56 77  1  0  0  0  0
 57 78  1  0  0  0  0
 58 61  1  0  0  0  0
 59 78  1  0  0  0  0
 60 66  1  0  0  0  0
 61 62  1  0  0  0  0
 62 76  1  0  0  0  0
 63 66  1  0  0  0  0
 63 85  1  0  0  0  0
 64 67  1  0  0  0  0
 64 75  1  0  0  0  0
 65 77  1  0  0  0  0
 66 78  1  0  0  0  0
 68 69  1  0  0  0  0
M  CHG  2  77   1  78   1
M  ISO  4  38 100  63 101  76 100  85 101
M  END
> <Batch ID>
0024

> <Smiles>
CCC(N(C)Cc1c(Cl)cc(Cl)c(CCC[100NH:0][100C:0](=O)N2CCCC(n3nc(-c4ccc(Oc5ccc(F)cc5F)cc4)c(C(N)=O)c3N)C2)c1Cl)[101CH2:1][101O:1]c1ccc2c(c1)CN(C(=O)C(NC(=O)C(C)NC)C(C)(C)C)C(C(=O)NC1CCCc3ccccc31)C2

> <Shape>
0.284

> <Color>
0.184

> <Negative vol penalty>
0.000

$$$$

  -OEChem-04052316223D

 84 92  0     1  0  0  0  0  0999 V2000
  -25.8975  -29.0324   20.3106 C   0  0  0  0  0  0  0  0  0  0  0  0
  -26.6072  -28.1621   21.1317 C   0  0  0  0  0  0  0  0  0  0  0  0
  -23.0940   -9.8379   19.9173 C   0  0  0  0  0  0  0  0  0  0  0  0
  -23.9108   -9.7863   22.1905 C   0  0  0  0  0  0  0  0  0  0  0  0
  -25.6764  -28.7034   18.9739 C   0  0  0  0  0  0  0  0  0  0  0  0
  -27.0954  -26.9617   20.6168 C   0  0  0  0  0  0  0  0  0  0  0  0
  -32.3102  -24.1447   22.1583 C   0  0  0  0  0  0  0  0  0  0  0  0
  -22.4067   -8.6442   20.1371 C   0  0  0  0  0  0  0  0  0  0  0  0
  -23.2235   -8.5925   22.4103 C   0  0  0  0  0  0  0  0  0  0  0  0
  -32.5844  -23.0868   23.0240 C   0  0  0  0  0  0  0  0  0  0  0  0
  -23.6420   -5.3115   21.7101 C   0  0  0  0  0  0  0  0  0  0  0  0
  -24.3188   -4.2862   22.3705 C   0  0  0  0  0  0  0  0  0  0  0  0
  -32.5195  -21.5543   21.1622 C   0  0  0  0  0  0  0  0  0  0  0  0
  -32.2489  -17.3576   23.9823 C   0  0  0  0  0  0  0  0  0  0  0  0
  -22.6553   -4.3166   24.1224 C   0  0  0  0  0  0  0  0  0  0  0  0
  -23.8461  -10.4089   20.9440 C   0  0  0  0  0  0  0  0  0  0  0  0
  -24.0764  -12.9494   20.9199 C   0  0  0  0  0  0  0  0  0  0  0  0
  -26.1704  -27.5028   18.4399 C   0  0  0  0  0  0  0  0  0  0  0  0
  -32.1275  -23.9134   20.7873 C   0  0  0  0  0  0  0  0  0  0  0  0
  -26.8795  -26.6157   19.2721 C   0  0  0  0  0  0  0  0  0  0  0  0
  -32.2456  -22.6112   20.2808 C   0  0  0  0  0  0  0  0  0  0  0  0
  -31.5890  -18.5412   24.3125 C   0  0  0  0  0  0  0  0  0  0  0  0
  -29.8004  -17.9680   22.7928 C   0  0  0  0  0  0  0  0  0  0  0  0
  -30.4603  -16.7843   22.4626 C   0  0  0  0  0  0  0  0  0  0  0  0
  -22.4714   -8.0215   21.3836 C   0  0  0  0  0  0  0  0  0  0  0  0
  -32.6862  -21.7910   22.5265 C   0  0  0  0  0  0  0  0  0  0  0  0
  -22.4719   -5.8395   22.2558 C   0  0  0  0  0  0  0  0  0  0  0  0
  -23.8255   -3.7887   23.5767 C   0  0  0  0  0  0  0  0  0  0  0  0
  -21.9786   -5.3420   23.4619 C   0  0  0  0  0  0  0  0  0  0  0  0
  -31.6846  -16.4791   23.0573 C   0  0  0  0  0  0  0  0  0  0  0  0
  -30.3647  -18.8464   23.7178 C   0  0  0  0  0  0  0  0  0  0  0  0
  -24.5567  -11.6417   20.7174 C   0  0  0  0  0  0  0  0  0  0  0  0
  -25.1259  -13.7599   20.5621 C   0  0  0  0  0  0  0  0  0  0  0  0
  -22.7960  -13.3919   21.3895 C   0  0  0  0  0  0  0  0  0  0  0  0
  -29.7268  -24.3207   18.7441 C   0  0  0  0  0  0  0  0  0  0  0  0
  -31.9517  -23.4327   16.5569 C   0  0  0  0  0  0  0  0  0  0  0  0
  -34.8654  -21.7845   15.8932 C   0  0  0  0  0  0  0  0  0  0  0  0
  -30.5450  -15.0360   20.6508 C   0  0  0  0  0  0  0  0  0  0  0  0
  -25.8655  -27.1685   17.0011 C   0  0  0  0  0  0  0  0  0  0  0  0
  -31.8587  -25.0689   19.8626 C   0  0  0  0  0  0  0  0  0  0  0  0
  -32.0782  -22.3126   18.8141 C   0  0  0  0  0  0  0  0  0  0  0  0
  -26.7388  -26.0506   16.4373 C   0  0  0  0  0  0  0  0  0  0  0  0
  -29.4753  -12.6726   18.2121 C   0  0  0  0  0  0  0  0  0  0  0  0
  -26.8106  -24.8836   17.4171 C   0  0  0  0  0  0  0  0  0  0  0  0
  -28.0608  -12.3013   18.6632 C   0  0  0  0  0  0  0  0  0  0  0  0
  -30.4099  -12.8929   19.4003 C   0  0  0  0  0  0  0  0  0  0  0  0
  -28.5093  -13.4772   20.8547 C   0  0  0  0  0  0  0  0  0  0  0  0
  -27.4463  -25.3156   18.7440 C   0  0  1  0  0  0  0  0  0  0  0  0
  -31.1819  -24.6482   18.5617 C   0  0  1  0  0  0  0  0  0  0  0  0
  -27.5153  -13.3089   19.6940 C   0  0  2  0  0  0  0  0  0  0  0  0
  -28.4853  -18.2839   22.1465 C   0  0  0  0  0  0  0  0  0  0  0  0
  -36.4126  -21.2009   14.0056 C   0  0  0  0  0  0  0  0  0  0  0  0
  -33.6033  -18.9549   25.8778 C   0  0  0  0  0  0  0  0  0  0  0  0
  -31.3121  -19.6372   26.5579 C   0  0  0  0  0  0  0  0  0  0  0  0
  -29.9870  -21.2992   15.6094 C   0  0  0  0  0  0  0  0  0  0  0  0
  -31.8864  -20.1733   14.4293 C   0  0  0  0  0  0  0  0  0  0  0  0
  -31.2068  -22.4826   13.7747 C   0  0  0  0  0  0  0  0  0  0  0  0
  -37.1214  -23.2401   17.1386 C   0  0  0  0  0  0  0  0  0  0  0  0
  -32.4896  -20.8779   24.7136 C   0  0  0  0  0  0  0  0  0  1  0  0
  -32.4085  -22.1193   15.9693 C   0  0  1  0  0  0  0  0  0  0  0  0
  -36.1003  -22.1963   15.1121 C   0  0  2  0  0  0  0  0  0  0  0  0
  -32.2505  -19.4795   25.3393 C   0  0  0  0  0  0  0  0  0  0  0  0
  -31.3735  -21.5236   14.9736 C   0  0  0  0  0  0  0  0  0  0  0  0
  -25.8135  -11.6182   20.2658 N   0  0  0  0  0  0  0  0  0  0  0  0
  -26.1318  -12.9211   20.1815 N   0  0  0  0  0  0  0  0  0  0  0  0
  -31.8104  -23.4750   17.9512 N   0  0  0  0  0  0  0  0  0  0  0  0
  -29.8298  -13.8623   20.3322 N   0  0  0  0  0  0  0  0  0  0  0  0
  -25.2773  -15.1012   20.5390 N   0  0  0  0  0  0  0  0  0  0  0  0
  -21.8328  -12.4265   21.7129 N   0  0  0  0  0  0  0  0  0  0  0  0
  -29.8796  -15.8983   21.5215 N   0  0  0  0  0  0  0  0  0  0  0  0
  -28.8843  -25.4076   18.6093 N   0  0  0  0  0  0  0  0  0  0  0  0
  -33.7230  -22.3677   15.3873 N   0  0  0  0  0  0  0  0  0  0  0  0
  -37.2816  -22.2794   16.0168 N   0  3  0  0  0  0  0  0  0  0  0  0
  -22.5089  -14.6077   21.5030 O   0  0  0  0  0  0  0  0  0  0  0  0
  -29.3931  -23.1670   18.9875 O   0  0  0  0  0  0  0  0  0  0  0  0
  -31.7354  -24.3880   15.8072 O   0  0  0  0  0  0  0  0  0  0  0  0
  -34.9094  -21.0189   16.8537 O   0  0  0  0  0  0  0  0  0  0  0  0
  -31.6537  -15.2726   20.1640 O   0  0  0  0  0  0  0  0  0  0  0  0
  -21.8007   -6.8568   21.5985 O   0  0  0  0  0  0  0  0  0  0  0  0
  -32.9532  -20.7566   23.3695 O   0  0  0  0  0  0  0  0  0  1  0  0
  -24.4747   -2.8030   24.2100 F   0  0  0  0  0  0  0  0  0  0  0  0
  -20.8543   -5.8444   23.9905 F   0  0  0  0  0  0  0  0  0  0  0  0
  -32.5388  -15.0250   22.6798 Cl  0  0  0  0  0  0  0  0  0  0  0  0
  -29.5489  -20.3182   24.1315 Cl  0  0  0  0  0  0  0  0  0  0  0  0
  1  2  1  0  0  0  0
  1  5  2  0  0  0  0
  2  6  2  0  0  0  0
  3  8  2  0  0  0  0
  3 16  1  0  0  0  0
  4  9  1  0  0  0  0
  4 16  2  0  0  0  0
  5 18  1  0  0  0  0
  6 20  1  0  0  0  0
  7 10  2  0  0  0  0
  7 19  1  0  0  0  0
  8 25  1  0  0  0  0
  9 25  2  0  0  0  0
 10 26  1  0  0  0  0
 11 12  2  0  0  0  0
 11 27  1  0  0  0  0
 12 28  1  0  0  0  0
 13 21  1  0  0  0  0
 13 26  2  0  0  0  0
 14 22  1  0  0  0  0
 14 30  2  0  0  0  0
 15 28  2  0  0  0  0
 15 29  1  0  0  0  0
 16 32  1  0  0  0  0
 17 32  1  0  0  0  0
 17 33  2  0  0  0  0
 17 34  1  0  0  0  0
 18 20  2  0  0  0  0
 18 39  1  0  0  0  0
 19 21  2  0  0  0  0
 19 40  1  0  0  0  0
 20 48  1  0  0  0  0
 21 41  1  0  0  0  0
 22 31  2  0  0  0  0
 22 62  1  0  0  0  0
 23 24  2  0  0  0  0
 23 31  1  0  0  0  0
 23 51  1  0  0  0  0
 24 30  1  0  0  0  0
 24 70  1  0  0  0  0
 25 79  1  0  0  0  0
 26 80  1  0  0  0  0
 27 29  2  0  0  0  0
 27 79  1  0  0  0  0
 28 81  1  0  0  0  0
 29 82  1  0  0  0  0
 30 83  1  0  0  0  0
 31 84  1  0  0  0  0
 32 64  2  0  0  0  0
 33 65  1  0  0  0  0
 33 68  1  0  0  0  0
 34 69  1  0  0  0  0
 34 74  2  0  0  0  0
 35 49  1  0  0  0  0
 35 71  1  0  0  0  0
 35 75  2  0  0  0  0
 36 60  1  0  0  0  0
 36 66  1  0  0  0  0
 36 76  2  0  0  0  0
 37 61  1  0  0  0  0
 37 72  1  0  0  0  0
 37 77  2  0  0  0  0
 38 67  1  0  0  0  0
 38 70  1  0  0  0  0
 38 78  2  0  0  0  0
 39 42  1  0  0  0  0
 40 49  1  0  0  0  0
 41 66  1  0  0  0  0
 42 44  1  0  0  0  0
 43 45  1  0  0  0  0
 43 46  1  0  0  0  0
 44 48  1  0  0  0  0
 45 50  1  0  0  0  0
 46 67  1  0  0  0  0
 47 50  1  0  0  0  0
 47 67  1  0  0  0  0
 48 71  1  0  0  0  0
 49 66  1  0  0  0  0
 50 65  1  0  0  0  0
 52 61  1  0  0  0  0
 53 62  1  0  0  0  0
 54 62  1  0  0  0  0
 55 63  1  0  0  0  0
 56 63  1  0  0  0  0
 57 63  1  0  0  0  0
 58 73  1  0  0  0  0
 59 62  1  0  0  0  0
 59 80  1  0  0  0  0
 60 63  1  0  0  0  0
 60 72  1  0  0  0  0
 61 73  1  0  0  0  0
 64 65  1  0  0  0  0
M  CHG  1  73   1
M  ISO  4  38 100  59 101  70 100  80 101
M  END
> <Batch ID>
0024

> <Smiles>
CNC(C)C(=O)NC(C(=O)N1Cc2cc([101O:1][101CH2:1]C(C)(C)c3cc(Cl)c([100NH:0][100C:0](=O)N4CCCC(n5nc(-c6ccc(Oc7ccc(F)cc7F)cc6)c(C(N)=O)c5N)C4)c(C)c3Cl)ccc2CC1C(=O)NC1CCCc2ccccc21)C(C)(C)C

> <Shape>
0.245

> <Color>
0.224

> <Negative vol penalty>
0.000

$$$$

  -OEChem-04052316223D

 91 99  0     1  0  0  0  0  0999 V2000
  -16.6647  -30.0887   23.7642 C   0  0  0  0  0  0  0  0  0  0  0  0
  -17.8002  -30.7128   24.2706 C   0  0  0  0  0  0  0  0  0  0  0  0
  -32.0230  -15.9590   22.8104 C   0  0  0  0  0  0  0  0  0  0  0  0
  -33.1622  -17.6194   21.4754 C   0  0  0  0  0  0  0  0  0  0  0  0
  -16.7846  -28.8935   23.0563 C   0  0  0  0  0  0  0  0  0  0  0  0
  -19.0563  -30.1413   24.0705 C   0  0  0  0  0  0  0  0  0  0  0  0
  -25.9175  -31.9469   23.0804 C   0  0  0  0  0  0  0  0  0  0  0  0
  -32.5360  -14.9508   21.9943 C   0  0  0  0  0  0  0  0  0  0  0  0
  -33.6752  -16.6113   20.6593 C   0  0  0  0  0  0  0  0  0  0  0  0
  -27.1863  -31.6795   23.5926 C   0  0  0  0  0  0  0  0  0  0  0  0
  -31.8662  -13.6207   18.9600 C   0  0  0  0  0  0  0  0  0  0  0  0
  -30.9919  -12.6164   18.5446 C   0  0  0  0  0  0  0  0  0  0  0  0
  -27.2801  -29.6536   22.2863 C   0  0  0  0  0  0  0  0  0  0  0  0
  -32.2293  -25.8465   19.0637 C   0  0  0  0  0  0  0  0  0  0  0  0
  -32.3779  -10.9611   19.6291 C   0  0  0  0  0  0  0  0  0  0  0  0
  -32.3360  -17.2933   22.5510 C   0  0  0  0  0  0  0  0  0  0  0  0
  -32.3923  -18.8685   24.5567 C   0  0  0  0  0  0  0  0  0  0  0  0
  -18.0437  -28.3122   22.8391 C   0  0  0  0  0  0  0  0  0  0  0  0
  -25.3149  -31.0626   22.1741 C   0  0  0  0  0  0  0  0  0  0  0  0
  -19.1931  -28.9365   23.3603 C   0  0  0  0  0  0  0  0  0  0  0  0
  -26.0046  -29.9134   21.7621 C   0  0  0  0  0  0  0  0  0  0  0  0
  -31.8359  -26.4567   20.2546 C   0  0  0  0  0  0  0  0  0  0  0  0
  -31.3904  -24.9198   18.4446 C   0  0  0  0  0  0  0  0  0  0  0  0
  -30.6037  -26.1402   20.8266 C   0  0  0  0  0  0  0  0  0  0  0  0
  -30.1583  -24.6032   19.0165 C   0  0  0  0  0  0  0  0  0  0  0  0
  -29.7649  -25.2134   20.2076 C   0  0  0  0  0  0  0  0  0  0  0  0
  -33.3621  -15.2770   20.9187 C   0  0  0  0  0  0  0  0  0  0  0  0
  -27.8666  -30.5312   23.1978 C   0  0  0  0  0  0  0  0  0  0  0  0
  -32.9964  -13.2952   19.7100 C   0  0  0  0  0  0  0  0  0  0  0  0
  -31.2476  -11.2867   18.8792 C   0  0  0  0  0  0  0  0  0  0  0  0
  -33.2522  -11.9654   20.0445 C   0  0  0  0  0  0  0  0  0  0  0  0
  -31.8060  -18.3352   23.3933 C   0  0  0  0  0  0  0  0  0  0  0  0
  -31.5020  -19.8234   24.9832 C   0  0  0  0  0  0  0  0  0  0  0  0
  -33.6311  -18.5310   25.1948 C   0  0  0  0  0  0  0  0  0  0  0  0
  -22.6808  -29.2836   22.1906 C   0  0  0  0  0  0  0  0  0  0  0  0
  -23.5273  -28.6954   19.1149 C   0  0  0  0  0  0  0  0  0  0  0  0
  -25.9986  -28.5614   16.7651 C   0  0  0  0  0  0  0  0  0  0  0  0
  -27.3546  -23.0852   22.1527 C   0  0  0  0  0  0  0  0  0  0  0  0
  -18.1188  -26.9947   22.1087 C   0  0  0  0  0  0  0  0  0  0  0  0
  -23.9568  -31.3791   21.6103 C   0  0  0  0  0  0  0  0  0  0  0  0
  -25.4101  -28.9425   20.7761 C   0  0  0  0  0  0  0  0  0  0  0  0
  -19.5224  -26.6496   21.6178 C   0  0  0  0  0  0  0  0  0  0  0  0
  -26.8394  -20.8939   24.9112 C   0  0  0  0  0  0  0  0  0  0  0  0
  -20.5475  -26.8860   22.7223 C   0  0  0  0  0  0  0  0  0  0  0  0
  -28.1067  -20.0378   24.9400 C   0  0  0  0  0  0  0  0  0  0  0  0
  -26.4110  -21.2201   23.4822 C   0  0  0  0  0  0  0  0  0  0  0  0
  -28.7269  -20.9779   22.6750 C   0  0  0  0  0  0  0  0  0  0  0  0
  -20.5754  -28.3605   23.1426 C   0  0  1  0  0  0  0  0  0  0  0  0
  -23.2249  -30.1468   21.0876 C   0  0  1  0  0  0  0  0  0  0  0  0
  -29.2297  -20.6699   24.0958 C   0  0  2  0  0  0  0  0  0  0  0  0
  -30.1841  -26.7963   22.1040 C   0  0  0  0  0  0  0  0  0  0  0  0
  -33.1605  -23.5420   17.3242 C   0  0  0  0  0  0  0  0  0  0  0  0
  -28.5370  -24.2008   17.1468 C   0  0  0  0  0  0  0  0  0  0  0  0
  -26.3912  -28.0112   14.3484 C   0  0  0  0  0  0  0  0  0  0  0  0
  -35.0734  -29.5373   20.7707 C   0  0  0  0  0  0  0  0  0  0  0  0
  -23.3452  -25.7199   19.7653 C   0  0  0  0  0  0  0  0  0  0  0  0
  -24.6363  -25.2543   17.6714 C   0  0  0  0  0  0  0  0  0  0  0  0
  -22.4044  -26.3604   17.5384 C   0  0  0  0  0  0  0  0  0  0  0  0
  -26.9393  -31.3044   16.1734 C   0  0  0  0  0  0  0  0  0  0  0  0
  -31.8350  -24.2814   17.1694 C   0  0  0  0  0  0  0  0  0  0  0  0
  -32.7624  -27.4554   20.9040 C   0  0  0  0  0  0  0  0  0  0  0  0
  -29.2610  -23.6084   18.3508 C   0  0  0  0  0  0  0  0  0  0  0  0
  -28.4428  -24.8743   20.8209 C   0  0  0  0  0  0  0  0  0  0  0  0
  -32.7115  -28.8108   20.1901 C   0  0  0  0  0  0  0  0  0  0  0  0
  -31.7200  -30.6804   22.4103 C   0  0  0  0  0  0  0  0  0  0  0  0
  -31.3887  -31.0420   23.8622 C   0  0  0  0  0  0  0  0  0  0  0  0
  -33.1972  -30.3054   22.2566 C   0  0  0  0  0  0  0  0  0  0  0  0
  -29.9161  -31.3880   24.0474 C   0  0  0  0  0  0  0  0  0  1  0  0
  -24.3831  -27.6640   18.4202 C   0  0  1  0  0  0  0  0  0  0  0  0
  -26.0753  -29.1096   15.3516 C   0  0  2  0  0  0  0  0  0  0  0  0
  -33.5888  -29.9139   20.8177 C   0  0  1  0  0  0  0  0  0  0  0  0
  -23.7029  -26.2668   18.3689 C   0  0  0  0  0  0  0  0  0  0  0  0
  -30.6337  -18.9039   23.0995 N   0  0  0  0  0  0  0  0  0  0  0  0
  -30.4762  -19.8045   24.0845 N   0  0  0  0  0  0  0  0  0  0  0  0
  -24.0772  -29.2927   20.2580 N   0  0  0  0  0  0  0  0  0  0  0  0
  -27.5206  -21.8182   22.7360 N   0  0  0  0  0  0  0  0  0  0  0  0
  -31.5042  -20.6690   26.0355 N   0  0  0  0  0  0  0  0  0  0  0  0
  -34.4247  -17.5266   24.6241 N   0  0  0  0  0  0  0  0  0  0  0  0
  -21.3057  -29.1486   22.1730 N   0  0  0  0  0  0  0  0  0  0  0  0
  -24.7085  -28.2185   17.1106 N   0  0  0  0  0  0  0  0  0  0  0  0
  -28.4575  -23.5817   21.4688 N   0  0  0  0  0  0  0  0  0  0  0  0
  -27.1364  -30.1517   15.2571 N   0  3  0  0  0  0  0  0  0  0  0  0
  -34.0148  -19.0917   26.2493 O   0  0  0  0  0  0  0  0  0  0  0  0
  -23.4516  -28.7763   22.9969 O   0  0  0  0  0  0  0  0  0  0  0  0
  -22.4148  -28.9665   18.6560 O   0  0  0  0  0  0  0  0  0  0  0  0
  -26.9850  -28.4452   17.4890 O   0  0  0  0  0  0  0  0  0  0  0  0
  -26.3032  -23.7286   22.2398 O   0  0  0  0  0  0  0  0  0  0  0  0
  -33.8631  -14.2935   20.1223 O   0  0  0  0  0  0  0  0  0  0  0  0
  -29.1049  -30.2675   23.6968 O   0  0  0  0  0  0  0  0  0  1  0  0
  -30.4071  -10.3226   18.4815 F   0  0  0  0  0  0  0  0  0  0  0  0
  -34.3358  -11.6467   20.7657 F   0  0  0  0  0  0  0  0  0  0  0  0
  1  2  1  0  0  0  0
  1  5  2  0  0  0  0
  2  6  2  0  0  0  0
  3  8  2  0  0  0  0
  3 16  1  0  0  0  0
  4  9  1  0  0  0  0
  4 16  2  0  0  0  0
  5 18  1  0  0  0  0
  6 20  1  0  0  0  0
  7 10  2  0  0  0  0
  7 19  1  0  0  0  0
  8 27  1  0  0  0  0
  9 27  2  0  0  0  0
 10 28  1  0  0  0  0
 11 12  2  0  0  0  0
 11 29  1  0  0  0  0
 12 30  1  0  0  0  0
 13 21  1  0  0  0  0
 13 28  2  0  0  0  0
 14 22  2  0  0  0  0
 14 23  1  0  0  0  0
 15 30  2  0  0  0  0
 15 31  1  0  0  0  0
 16 32  1  0  0  0  0
 17 32  1  0  0  0  0
 17 33  2  0  0  0  0
 17 34  1  0  0  0  0
 18 20  2  0  0  0  0
 18 39  1  0  0  0  0
 19 21  2  0  0  0  0
 19 40  1  0  0  0  0
 20 48  1  0  0  0  0
 21 41  1  0  0  0  0
 22 24  1  0  0  0  0
 22 61  1  0  0  0  0
 23 25  2  0  0  0  0
 23 60  1  0  0  0  0
 24 26  2  0  0  0  0
 24 51  1  0  0  0  0
 25 26  1  0  0  0  0
 25 62  1  0  0  0  0
 26 63  1  0  0  0  0
 27 88  1  0  0  0  0
 28 89  1  0  0  0  0
 29 31  2  0  0  0  0
 29 88  1  0  0  0  0
 30 90  1  0  0  0  0
 31 91  1  0  0  0  0
 32 73  2  0  0  0  0
 33 74  1  0  0  0  0
 33 77  1  0  0  0  0
 34 78  1  0  0  0  0
 34 83  2  0  0  0  0
 35 49  1  0  0  0  0
 35 79  1  0  0  0  0
 35 84  2  0  0  0  0
 36 69  1  0  0  0  0
 36 75  1  0  0  0  0
 36 85  2  0  0  0  0
 37 70  1  0  0  0  0
 37 80  1  0  0  0  0
 37 86  2  0  0  0  0
 38 76  1  0  0  0  0
 38 81  1  0  0  0  0
 38 87  2  0  0  0  0
 39 42  1  0  0  0  0
 40 49  1  0  0  0  0
 41 75  1  0  0  0  0
 42 44  1  0  0  0  0
 43 45  1  0  0  0  0
 43 46  1  0  0  0  0
 44 48  1  0  0  0  0
 45 50  1  0  0  0  0
 46 76  1  0  0  0  0
 47 50  1  0  0  0  0
 47 76  1  0  0  0  0
 48 79  1  0  0  0  0
 49 75  1  0  0  0  0
 50 74  1  0  0  0  0
 52 60  1  0  0  0  0
 53 62  1  0  0  0  0
 54 70  1  0  0  0  0
 55 71  1  0  0  0  0
 56 72  1  0  0  0  0
 57 72  1  0  0  0  0
 58 72  1  0  0  0  0
 59 82  1  0  0  0  0
 61 64  1  0  0  0  0
 63 81  1  0  0  0  0
 64 71  1  0  0  0  0
 65 66  1  0  0  0  0
 65 67  1  0  0  0  0
 66 68  1  0  0  0  0
 67 71  1  0  0  0  0
 68 89  1  0  0  0  0
 69 72  1  0  0  0  0
 69 80  1  0  0  0  0
 70 82  1  0  0  0  0
 73 74  1  0  0  0  0
M  CHG  1  82   1
M  ISO  4  38 100  68 101  81 100  89 101
M  END
> <Batch ID>
0024

> <Smiles>
CCc1cc(CCC(C)CCC[101CH2:1][101O:1]c2ccc3c(c2)CN(C(=O)C(NC(=O)C(C)NC)C(C)(C)C)C(C(=O)NC2CCCc4ccccc42)C3)c(C)c(C[100NH:0][100C:0](=O)N2CCCC(n3nc(-c4ccc(Oc5ccc(F)cc5F)cc4)c(C(N)=O)c3N)C2)c1CC

> <Shape>
0.225

> <Color>
0.087

> <Negative vol penalty>
0.000

$$$$

  -OEChem-04052316223D

 94102  0     1  0  0  0  0  0999 V2000
  -30.8843  -26.7248   16.7300 C   0  0  0  0  0  0  0  0  0  0  0  0
  -29.5249  -26.4869   16.9061 C   0  0  0  0  0  0  0  0  0  0  0  0
  -27.2952  -17.4515   17.2336 C   0  0  0  0  0  0  0  0  0  0  0  0
  -25.3681  -18.5054   18.2399 C   0  0  0  0  0  0  0  0  0  0  0  0
  -31.6359  -27.2696   17.7702 C   0  0  0  0  0  0  0  0  0  0  0  0
  -28.9166  -26.7927   18.1230 C   0  0  0  0  0  0  0  0  0  0  0  0
  -23.2099  -28.8460   18.9730 C   0  0  0  0  0  0  0  0  0  0  0  0
  -27.1635  -18.2768   16.1169 C   0  0  0  0  0  0  0  0  0  0  0  0
  -25.2364  -19.3308   17.1232 C   0  0  0  0  0  0  0  0  0  0  0  0
  -22.0251  -28.2033   19.3295 C   0  0  0  0  0  0  0  0  0  0  0  0
  -24.6092  -21.9624   14.6943 C   0  0  0  0  0  0  0  0  0  0  0  0
  -24.3704  -23.3189   14.9141 C   0  0  0  0  0  0  0  0  0  0  0  0
  -22.3939  -28.8147   21.6337 C   0  0  0  0  0  0  0  0  0  0  0  0
  -26.4519  -23.4885   16.1290 C   0  0  0  0  0  0  0  0  0  0  0  0
  -26.3975  -17.5658   18.2951 C   0  0  0  0  0  0  0  0  0  0  0  0
  -27.2812  -16.9704   20.6129 C   0  0  0  0  0  0  0  0  0  0  0  0
  -31.0346  -27.5912   18.9972 C   0  0  0  0  0  0  0  0  0  0  0  0
  -24.0024  -29.4695   19.9474 C   0  0  0  0  0  0  0  0  0  0  0  0
  -29.6612  -27.3411   19.1811 C   0  0  0  0  0  0  0  0  0  0  0  0
  -23.5870  -29.4668   21.2866 C   0  0  0  0  0  0  0  0  0  0  0  0
  -18.7194  -14.9386   21.3507 C   0  0  0  0  0  0  0  0  0  0  0  0
  -19.2836  -13.7341   20.9310 C   0  0  0  0  0  0  0  0  0  0  0  0
  -19.4935  -14.6132   18.6904 C   0  0  0  0  0  0  0  0  0  0  0  0
  -26.1341  -19.2164   16.0616 C   0  0  0  0  0  0  0  0  0  0  0  0
  -21.6185  -28.1851   20.6604 C   0  0  0  0  0  0  0  0  0  0  0  0
  -25.7693  -21.3688   15.1919 C   0  0  0  0  0  0  0  0  0  0  0  0
  -18.5421  -15.9805   20.4403 C   0  0  0  0  0  0  0  0  0  0  0  0
  -25.2917  -24.0820   15.6314 C   0  0  0  0  0  0  0  0  0  0  0  0
  -26.6906  -22.1319   15.9092 C   0  0  0  0  0  0  0  0  0  0  0  0
  -19.6707  -13.5713   19.6008 C   0  0  0  0  0  0  0  0  0  0  0  0
  -18.9292  -15.8178   19.1102 C   0  0  0  0  0  0  0  0  0  0  0  0
  -26.5328  -16.7131   19.4487 C   0  0  0  0  0  0  0  0  0  0  0  0
  -27.0846  -15.8618   21.3995 C   0  0  0  0  0  0  0  0  0  0  0  0
  -28.0824  -18.1098   20.9530 C   0  0  0  0  0  0  0  0  0  0  0  0
  -26.9629  -29.0597   21.0298 C   0  0  0  0  0  0  0  0  0  0  0  0
  -26.3015  -31.7501   22.7170 C   0  0  0  0  0  0  0  0  0  0  0  0
  -23.9471  -33.7963   24.1015 C   0  0  0  0  0  0  0  0  0  0  0  0
  -22.6971  -11.7981   21.6951 C   0  0  0  0  0  0  0  0  0  0  0  0
  -31.8977  -28.1344   20.1084 C   0  0  0  0  0  0  0  0  0  0  0  0
  -25.2641  -30.1815   19.5427 C   0  0  0  0  0  0  0  0  0  0  0  0
  -24.3916  -30.1389   22.3679 C   0  0  0  0  0  0  0  0  0  0  0  0
  -31.1003  -28.7785   21.2396 C   0  0  0  0  0  0  0  0  0  0  0  0
  -26.1530  -11.1783   21.1039 C   0  0  0  0  0  0  0  0  0  0  0  0
  -29.9330  -27.8847   21.6461 C   0  0  0  0  0  0  0  0  0  0  0  0
  -26.7097  -12.5497   20.7177 C   0  0  0  0  0  0  0  0  0  0  0  0
  -24.7397  -10.9705   20.5640 C   0  0  0  0  0  0  0  0  0  0  0  0
  -24.3348  -13.4013   20.5358 C   0  0  0  0  0  0  0  0  0  0  0  0
  -28.9602  -27.6824   20.4781 C   0  0  1  0  0  0  0  0  0  0  0  0
  -26.2549  -30.3411   20.6917 C   0  0  1  0  0  0  0  0  0  0  0  0
  -25.7365  -13.6793   21.1051 C   0  0  2  0  0  0  0  0  0  0  0  0
  -18.3027  -15.1158   22.7763 C   0  0  0  0  0  0  0  0  0  0  0  0
  -19.9228  -14.3996   17.2744 C   0  0  0  0  0  0  0  0  0  0  0  0
  -23.7127  -35.8990   25.4508 C   0  0  0  0  0  0  0  0  0  0  0  0
  -17.8708  -23.7217   25.1736 C   0  0  0  0  0  0  0  0  0  0  0  0
  -27.1258  -30.2270   25.2292 C   0  0  0  0  0  0  0  0  0  0  0  0
  -25.9926  -31.9970   26.5898 C   0  0  0  0  0  0  0  0  0  0  0  0
  -27.9282  -32.5938   25.1337 C   0  0  0  0  0  0  0  0  0  0  0  0
  -22.4332  -35.1478   21.9473 C   0  0  0  0  0  0  0  0  0  0  0  0
  -19.4806  -12.6047   21.8889 C   0  0  0  0  0  0  0  0  0  0  0  0
  -18.9815  -20.4856   22.3023 C   0  0  0  0  0  0  0  0  0  0  0  0
  -18.0779  -19.3678   21.7870 C   0  0  0  0  0  0  0  0  0  0  0  0
  -19.4851  -25.7756   22.3203 C   0  0  0  0  0  0  0  0  0  0  0  0
  -19.3677  -25.1411   23.7124 C   0  0  0  0  0  0  0  0  0  0  0  0
  -20.7020  -12.7794   22.7977 C   0  0  0  0  0  0  0  0  0  0  0  0
  -18.1613  -21.6751   22.7789 C   0  0  0  0  0  0  0  0  0  0  0  0
  -18.8818  -18.1529   21.3464 C   0  0  0  0  0  0  0  0  0  0  0  0
  -20.4013  -26.9945   22.3208 C   0  0  0  0  0  0  0  0  0  1  0  0
  -25.7013  -32.0424   24.0711 C   0  0  1  0  0  0  0  0  0  0  0  0
  -23.7678  -35.3029   24.0529 C   0  0  2  0  0  0  0  0  0  0  0  0
  -18.3924  -23.9594   23.7625 C   0  0  1  0  0  0  0  0  0  0  0  0
  -26.6726  -31.7006   25.2361 C   0  0  0  0  0  0  0  0  0  0  0  0
  -25.9075  -15.5335   19.4879 N   0  0  0  0  0  0  0  0  0  0  0  0
  -26.2627  -15.0397   20.6863 N   0  0  0  0  0  0  0  0  0  0  0  0
  -25.6207  -30.8164   21.9230 N   0  0  0  0  0  0  0  0  0  0  0  0
  -23.8666  -12.0752   20.9682 N   0  0  0  0  0  0  0  0  0  0  0  0
  -27.5364  -15.5197   22.6248 N   0  0  0  0  0  0  0  0  0  0  0  0
  -28.1759  -19.1603   20.0300 N   0  0  0  0  0  0  0  0  0  0  0  0
  -28.1233  -28.8509   20.3092 N   0  0  0  0  0  0  0  0  0  0  0  0
  -25.2770  -33.4378   24.0368 N   0  0  0  0  0  0  0  0  0  0  0  0
  -21.9297  -12.9027   22.0439 N   0  0  0  0  0  0  0  0  0  0  0  0
  -22.5047  -35.6517   23.3430 N   0  3  0  0  0  0  0  0  0  0  0  0
  -19.0780  -22.7161   23.3118 N   0  3  0  0  0  0  0  0  0  0  0  0
  -28.7104  -18.1865   22.0362 O   0  0  0  0  0  0  0  0  0  0  0  0
  -26.4920  -28.3161   21.8825 O   0  0  0  0  0  0  0  0  0  0  0  0
  -27.3323  -32.3342   22.3736 O   0  0  0  0  0  0  0  0  0  0  0  0
  -23.0021  -33.0156   24.1918 O   0  0  0  0  0  0  0  0  0  0  0  0
  -22.3645  -10.6517   22.0147 O   0  0  0  0  0  0  0  0  0  0  0  0
  -26.0053  -20.0221   14.9722 O   0  0  0  0  0  0  0  0  0  0  0  0
  -20.4628  -27.5579   21.0112 O   0  0  0  0  0  0  0  0  0  1  0  0
  -17.9869  -17.1593   20.8660 O   0  0  0  0  0  0  0  0  0  0  0  0
  -25.0630  -25.3850   15.8411 F   0  0  0  0  0  0  0  0  0  0  0  0
  -27.8075  -21.5675   16.3887 F   0  0  0  0  0  0  0  0  0  0  0  0
  -20.2112  -12.4115   19.1977 F   0  0  0  0  0  0  0  0  0  0  0  0
  -18.7069  -17.1151   17.9854 Cl  0  0  0  0  0  0  0  0  0  0  0  0
  1  2  1  0  0  0  0
  1  5  2  0  0  0  0
  2  6  2  0  0  0  0
  3  8  2  0  0  0  0
  3 15  1  0  0  0  0
  4  9  1  0  0  0  0
  4 15  2  0  0  0  0
  5 17  1  0  0  0  0
  6 19  1  0  0  0  0
  7 10  2  0  0  0  0
  7 18  1  0  0  0  0
  8 24  1  0  0  0  0
  9 24  2  0  0  0  0
 10 25  1  0  0  0  0
 11 12  2  0  0  0  0
 11 26  1  0  0  0  0
 12 28  1  0  0  0  0
 13 20  1  0  0  0  0
 13 25  2  0  0  0  0
 14 28  2  0  0  0  0
 14 29  1  0  0  0  0
 15 32  1  0  0  0  0
 16 32  1  0  0  0  0
 16 33  2  0  0  0  0
 16 34  1  0  0  0  0
 17 19  2  0  0  0  0
 17 39  1  0  0  0  0
 18 20  2  0  0  0  0
 18 40  1  0  0  0  0
 19 48  1  0  0  0  0
 20 41  1  0  0  0  0
 21 22  2  0  0  0  0
 21 27  1  0  0  0  0
 21 51  1  0  0  0  0
 22 30  1  0  0  0  0
 22 59  1  0  0  0  0
 23 30  2  0  0  0  0
 23 31  1  0  0  0  0
 23 52  1  0  0  0  0
 24 88  1  0  0  0  0
 25 89  1  0  0  0  0
 26 29  2  0  0  0  0
 26 88  1  0  0  0  0
 27 31  2  0  0  0  0
 27 90  1  0  0  0  0
 28 91  1  0  0  0  0
 29 92  1  0  0  0  0
 30 93  1  0  0  0  0
 31 94  1  0  0  0  0
 32 72  2  0  0  0  0
 33 73  1  0  0  0  0
 33 76  1  0  0  0  0
 34 77  1  0  0  0  0
 34 83  2  0  0  0  0
 35 49  1  0  0  0  0
 35 78  1  0  0  0  0
 35 84  2  0  0  0  0
 36 68  1  0  0  0  0
 36 74  1  0  0  0  0
 36 85  2  0  0  0  0
 37 69  1  0  0  0  0
 37 79  1  0  0  0  0
 37 86  2  0  0  0  0
 38 75  1  0  0  0  0
 38 80  1  0  0  0  0
 38 87  2  0  0  0  0
 39 42  1  0  0  0  0
 40 49  1  0  0  0  0
 41 74  1  0  0  0  0
 42 44  1  0  0  0  0
 43 45  1  0  0  0  0
 43 46  1  0  0  0  0
 44 48  1  0  0  0  0
 45 50  1  0  0  0  0
 46 75  1  0  0  0  0
 47 50  1  0  0  0  0
 47 75  1  0  0  0  0
 48 78  1  0  0  0  0
 49 74  1  0  0  0  0
 50 73  1  0  0  0  0
 53 69  1  0  0  0  0
 54 70  1  0  0  0  0
 55 71  1  0  0  0  0
 56 71  1  0  0  0  0
 57 71  1  0  0  0  0
 58 81  1  0  0  0  0
 59 64  1  0  0  0  0
 60 61  1  0  0  0  0
 60 65  1  0  0  0  0
 61 66  1  0  0  0  0
 62 63  1  0  0  0  0
 62 67  1  0  0  0  0
 63 70  1  0  0  0  0
 64 80  1  0  0  0  0
 65 82  1  0  0  0  0
 66 90  1  0  0  0  0
 67 89  1  0  0  0  0
 68 71  1  0  0  0  0
 68 79  1  0  0  0  0
 69 81  1  0  0  0  0
 70 82  1  0  0  0  0
 72 73  1  0  0  0  0
M  CHG  2  81   1  82   1
M  ISO  4  38 100  67 101  80 100  89 101
M  END
> <Batch ID>
0024

> <Smiles>
CNC(C)C(=O)NC(C(=O)N1Cc2cc([101O:1][101CH2:1]CCC(C)NCCCCOc3c(C)c(CC[100NH:0][100C:0](=O)N4CCCC(n5nc(-c6ccc(Oc7ccc(F)cc7F)cc6)c(C(N)=O)c5N)C4)c(F)c(C)c3Cl)ccc2CC1C(=O)NC1CCCc2ccccc21)C(C)(C)C

> <Shape>
0.246

> <Color>
0.096

> <Negative vol penalty>
0.000

$$$$

  -OEChem-04052316223D

 88 96  0     1  0  0  0  0  0999 V2000
  -27.2756  -19.5561   20.1434 C   0  0  0  0  0  0  0  0  0  0  0  0
  -26.8577  -18.5819   21.0444 C   0  0  0  0  0  0  0  0  0  0  0  0
  -23.1902   -9.8193   19.9325 C   0  0  0  0  0  0  0  0  0  0  0  0
  -23.5687  -10.0007   22.3117 C   0  0  0  0  0  0  0  0  0  0  0  0
  -28.0537  -20.6252   20.5857 C   0  0  0  0  0  0  0  0  0  0  0  0
  -27.2187  -18.6756   22.3880 C   0  0  0  0  0  0  0  0  0  0  0  0
  -23.8739  -16.9698   27.2263 C   0  0  0  0  0  0  0  0  0  0  0  0
  -22.4237   -8.6728   20.1418 C   0  0  0  0  0  0  0  0  0  0  0  0
  -22.8021   -8.8543   22.5211 C   0  0  0  0  0  0  0  0  0  0  0  0
  -23.8851  -15.8212   28.0164 C   0  0  0  0  0  0  0  0  0  0  0  0
  -23.2026   -5.5074   22.2586 C   0  0  0  0  0  0  0  0  0  0  0  0
  -23.7008   -4.5464   23.1382 C   0  0  0  0  0  0  0  0  0  0  0  0
  -25.2974  -16.9438   29.6177 C   0  0  0  0  0  0  0  0  0  0  0  0
  -29.9132  -14.1809   27.1892 C   0  0  0  0  0  0  0  0  0  0  0  0
  -21.7444   -4.8074   24.5315 C   0  0  0  0  0  0  0  0  0  0  0  0
  -23.7627  -10.4832   21.0175 C   0  0  0  0  0  0  0  0  0  0  0  0
  -24.1019  -12.9996   20.7725 C   0  0  0  0  0  0  0  0  0  0  0  0
  -28.4163  -20.7372   21.9372 C   0  0  0  0  0  0  0  0  0  0  0  0
  -24.5844  -18.1124   27.6213 C   0  0  0  0  0  0  0  0  0  0  0  0
  -28.0035  -19.7465   22.8485 C   0  0  0  0  0  0  0  0  0  0  0  0
  -25.2914  -18.1066   28.8321 C   0  0  0  0  0  0  0  0  0  0  0  0
  -29.5515  -12.9726   27.7848 C   0  0  0  0  0  0  0  0  0  0  0  0
  -30.5593  -14.1833   25.9530 C   0  0  0  0  0  0  0  0  0  0  0  0
  -29.8361  -11.7666   27.1443 C   0  0  0  0  0  0  0  0  0  0  0  0
  -30.8438  -12.9773   25.3124 C   0  0  0  0  0  0  0  0  0  0  0  0
  -22.2297   -8.1903   21.4361 C   0  0  0  0  0  0  0  0  0  0  0  0
  -24.5993  -15.8071   29.2109 C   0  0  0  0  0  0  0  0  0  0  0  0
  -21.9753   -6.1185   22.5154 C   0  0  0  0  0  0  0  0  0  0  0  0
  -22.9717   -4.1963   24.2747 C   0  0  0  0  0  0  0  0  0  0  0  0
  -21.2462   -5.7685   23.6519 C   0  0  0  0  0  0  0  0  0  0  0  0
  -30.4823  -11.7690   25.9081 C   0  0  0  0  0  0  0  0  0  0  0  0
  -24.5551  -11.6671   20.8018 C   0  0  0  0  0  0  0  0  0  0  0  0
  -25.2332  -13.7420   20.5368 C   0  0  0  0  0  0  0  0  0  0  0  0
  -22.7768  -13.5199   20.9431 C   0  0  0  0  0  0  0  0  0  0  0  0
  -26.9964  -19.7865   26.4034 C   0  0  0  0  0  0  0  0  0  0  0  0
  -26.3494  -21.7817   28.8778 C   0  0  0  0  0  0  0  0  0  0  0  0
  -25.0171  -22.1977   31.9921 C   0  0  0  0  0  0  0  0  0  0  0  0
  -31.0479  -12.7514   21.5662 C   0  0  0  0  0  0  0  0  0  0  0  0
  -29.2981  -21.8856   22.3594 C   0  0  0  0  0  0  0  0  0  0  0  0
  -24.5404  -19.3524   26.7709 C   0  0  0  0  0  0  0  0  0  0  0  0
  -26.0540  -19.3139   29.3111 C   0  0  0  0  0  0  0  0  0  0  0  0
  -29.3235  -22.1111   23.8690 C   0  0  0  0  0  0  0  0  0  0  0  0
  -29.5204  -13.4676   18.4308 C   0  0  0  0  0  0  0  0  0  0  0  0
  -29.5142  -20.7877   24.6033 C   0  0  0  0  0  0  0  0  0  0  0  0
  -28.0338  -13.2076   18.6803 C   0  0  0  0  0  0  0  0  0  0  0  0
  -30.4016  -12.4784   19.1904 C   0  0  0  0  0  0  0  0  0  0  0  0
  -28.6481  -12.1368   20.8881 C   0  0  0  0  0  0  0  0  0  0  0  0
  -28.3539  -19.8265   24.3185 C   0  0  1  0  0  0  0  0  0  0  0  0
  -25.7199  -20.2880   27.0172 C   0  0  1  0  0  0  0  0  0  0  0  0
  -27.7208  -13.1444   20.1873 C   0  0  2  0  0  0  0  0  0  0  0  0
  -29.4388  -10.4813   27.8021 C   0  0  0  0  0  0  0  0  0  0  0  0
  -24.6709  -23.9337   33.7708 C   0  0  0  0  0  0  0  0  0  0  0  0
  -29.2913  -21.5656   29.6580 C   0  0  0  0  0  0  0  0  0  0  0  0
  -28.6931  -22.5021   31.9015 C   0  0  0  0  0  0  0  0  0  0  0  0
  -28.3287  -23.8662   29.8450 C   0  0  0  0  0  0  0  0  0  0  0  0
  -22.0735  -21.9300   31.8435 C   0  0  0  0  0  0  0  0  0  0  0  0
  -31.5382  -13.0036   23.9859 C   0  0  0  0  0  0  0  0  0  0  0  0
  -28.8576  -13.0003   29.1147 C   0  0  0  0  0  0  0  0  0  0  0  0
  -25.2179  -12.3703   30.1232 C   0  0  0  0  0  0  0  0  0  0  0  0
  -26.6976  -12.6623   30.3225 C   0  0  0  0  0  0  0  0  0  0  0  0
  -24.4869  -13.4337   29.3130 C   0  0  0  0  0  0  0  0  0  1  0  0
  -30.9348  -15.4922   25.3386 C   0  0  0  0  0  0  0  0  0  0  0  0
  -26.8148  -21.8954   30.3094 C   0  0  1  0  0  0  0  0  0  0  0  0
  -24.0739  -23.2470   32.5523 C   0  0  2  0  0  0  0  0  0  0  0  0
  -28.2693  -22.4338   30.4188 C   0  0  0  0  0  0  0  0  0  0  0  0
  -25.8716  -11.5657   20.6007 N   0  0  0  0  0  0  0  0  0  0  0  0
  -26.2554  -12.8439   20.4426 N   0  0  0  0  0  0  0  0  0  0  0  0
  -25.9855  -20.4999   28.4415 N   0  0  0  0  0  0  0  0  0  0  0  0
  -30.0551  -12.4680   20.6137 N   0  0  0  0  0  0  0  0  0  0  0  0
  -25.4434  -15.0687   20.4029 N   0  0  0  0  0  0  0  0  0  0  0  0
  -21.7300  -12.6179   21.1777 N   0  0  0  0  0  0  0  0  0  0  0  0
  -27.1906  -20.1938   25.0973 N   0  0  0  0  0  0  0  0  0  0  0  0
  -25.8217  -22.7128   30.9978 N   0  0  0  0  0  0  0  0  0  0  0  0
  -30.6337  -12.7267   22.8923 N   0  0  0  0  0  0  0  0  0  0  0  0
  -22.7815  -22.6215   32.9514 N   0  3  0  0  0  0  0  0  0  0  0  0
  -27.4011  -12.7054   29.0192 N   0  3  0  0  0  0  0  0  0  0  0  0
  -22.5258  -14.7469   20.8729 O   0  0  0  0  0  0  0  0  0  0  0  0
  -27.7502  -19.0835   27.0662 O   0  0  0  0  0  0  0  0  0  0  0  0
  -26.3034  -22.7943   28.1747 O   0  0  0  0  0  0  0  0  0  0  0  0
  -25.0406  -21.0381   32.3986 O   0  0  0  0  0  0  0  0  0  0  0  0
  -32.2155  -13.0127   21.2573 O   0  0  0  0  0  0  0  0  0  0  0  0
  -21.4816   -7.0718   21.6407 O   0  0  0  0  0  0  0  0  0  0  0  0
  -24.6125  -14.6870   29.9836 O   0  0  0  0  0  0  0  0  0  1  0  0
  -23.4496   -3.2723   25.1185 F   0  0  0  0  0  0  0  0  0  0  0  0
  -20.0659   -6.3512   23.9033 F   0  0  0  0  0  0  0  0  0  0  0  0
  -30.5400  -16.5249   26.1274 F   0  0  0  0  0  0  0  0  0  0  0  0
  -30.3121  -15.6582   24.1432 F   0  0  0  0  0  0  0  0  0  0  0  0
  -30.8358  -10.2706   25.1122 Cl  0  0  0  0  0  0  0  0  0  0  0  0
  1  2  1  0  0  0  0
  1  5  2  0  0  0  0
  2  6  2  0  0  0  0
  3  8  2  0  0  0  0
  3 16  1  0  0  0  0
  4  9  1  0  0  0  0
  4 16  2  0  0  0  0
  5 18  1  0  0  0  0
  6 20  1  0  0  0  0
  7 10  2  0  0  0  0
  7 19  1  0  0  0  0
  8 26  1  0  0  0  0
  9 26  2  0  0  0  0
 10 27  1  0  0  0  0
 11 12  2  0  0  0  0
 11 28  1  0  0  0  0
 12 29  1  0  0  0  0
 13 21  1  0  0  0  0
 13 27  2  0  0  0  0
 14 22  1  0  0  0  0
 14 23  2  0  0  0  0
 15 29  2  0  0  0  0
 15 30  1  0  0  0  0
 16 32  1  0  0  0  0
 17 32  1  0  0  0  0
 17 33  2  0  0  0  0
 17 34  1  0  0  0  0
 18 20  2  0  0  0  0
 18 39  1  0  0  0  0
 19 21  2  0  0  0  0
 19 40  1  0  0  0  0
 20 48  1  0  0  0  0
 21 41  1  0  0  0  0
 22 24  2  0  0  0  0
 22 58  1  0  0  0  0
 23 25  1  0  0  0  0
 23 62  1  0  0  0  0
 24 31  1  0  0  0  0
 24 51  1  0  0  0  0
 25 31  2  0  0  0  0
 25 57  1  0  0  0  0
 26 82  1  0  0  0  0
 27 83  1  0  0  0  0
 28 30  2  0  0  0  0
 28 82  1  0  0  0  0
 29 84  1  0  0  0  0
 30 85  1  0  0  0  0
 31 88  1  0  0  0  0
 32 66  2  0  0  0  0
 33 67  1  0  0  0  0
 33 70  1  0  0  0  0
 34 71  1  0  0  0  0
 34 77  2  0  0  0  0
 35 49  1  0  0  0  0
 35 72  1  0  0  0  0
 35 78  2  0  0  0  0
 36 63  1  0  0  0  0
 36 68  1  0  0  0  0
 36 79  2  0  0  0  0
 37 64  1  0  0  0  0
 37 73  1  0  0  0  0
 37 80  2  0  0  0  0
 38 69  1  0  0  0  0
 38 74  1  0  0  0  0
 38 81  2  0  0  0  0
 39 42  1  0  0  0  0
 40 49  1  0  0  0  0
 41 68  1  0  0  0  0
 42 44  1  0  0  0  0
 43 45  1  0  0  0  0
 43 46  1  0  0  0  0
 44 48  1  0  0  0  0
 45 50  1  0  0  0  0
 46 69  1  0  0  0  0
 47 50  1  0  0  0  0
 47 69  1  0  0  0  0
 48 72  1  0  0  0  0
 49 68  1  0  0  0  0
 50 67  1  0  0  0  0
 52 64  1  0  0  0  0
 53 65  1  0  0  0  0
 54 65  1  0  0  0  0
 55 65  1  0  0  0  0
 56 75  1  0  0  0  0
 57 74  1  0  0  0  0
 58 76  1  0  0  0  0
 59 60  1  0  0  0  0
 59 61  1  0  0  0  0
 60 76  1  0  0  0  0
 61 83  1  0  0  0  0
 62 86  1  0  0  0  0
 62 87  1  0  0  0  0
 63 65  1  0  0  0  0
 63 73  1  0  0  0  0
 64 75  1  0  0  0  0
 66 67  1  0  0  0  0
M  CHG  2  75   1  76   1
M  ISO  4  38 100  61 101  74 100  83 101
M  END
> <Batch ID>
0024

> <Smiles>
CNC(C)C(=O)NC(C(=O)N1Cc2cc([101O:1][101CH2:1]CCNCc3cc(C(F)F)c(C[100NH:0][100C:0](=O)N4CCCC(n5nc(-c6ccc(Oc7ccc(F)cc7F)cc6)c(C(N)=O)c5N)C4)c(Cl)c3C)ccc2CC1C(=O)NC1CCCc2ccccc21)C(C)(C)C

> <Shape>
0.160

> <Color>
0.182

> <Negative vol penalty>
0.000

$$$$

  -OEChem-04052316223D

 96105  0     1  0  0  0  0  0999 V2000
  -16.9454  -27.7305   24.6457 C   0  0  0  0  0  0  0  0  0  0  0  0
  -17.6866  -26.7289   24.0269 C   0  0  0  0  0  0  0  0  0  0  0  0
  -22.1221  -10.6877   20.4667 C   0  0  0  0  0  0  0  0  0  0  0  0
  -24.2189   -9.6244   21.0237 C   0  0  0  0  0  0  0  0  0  0  0  0
  -17.1510  -29.0647   24.2971 C   0  0  0  0  0  0  0  0  0  0  0  0
  -18.6332  -27.0609   23.0583 C   0  0  0  0  0  0  0  0  0  0  0  0
  -22.9967  -24.5649   23.6701 C   0  0  0  0  0  0  0  0  0  0  0  0
  -21.4442   -9.5043   20.7594 C   0  0  0  0  0  0  0  0  0  0  0  0
  -23.5409   -8.4410   21.3165 C   0  0  0  0  0  0  0  0  0  0  0  0
  -23.0365  -23.2381   23.2438 C   0  0  0  0  0  0  0  0  0  0  0  0
  -21.7130   -7.1849   23.8662 C   0  0  0  0  0  0  0  0  0  0  0  0
  -22.0664   -6.5093   25.0343 C   0  0  0  0  0  0  0  0  0  0  0  0
  -24.1439  -23.9294   21.2153 C   0  0  0  0  0  0  0  0  0  0  0  0
  -22.6797   -4.5717   23.7280 C   0  0  0  0  0  0  0  0  0  0  0  0
  -23.5095  -10.7477   20.5988 C   0  0  0  0  0  0  0  0  0  0  0  0
  -24.5081  -13.0211   21.1834 C   0  0  0  0  0  0  0  0  0  0  0  0
  -18.1074  -29.4140   23.3307 C   0  0  0  0  0  0  0  0  0  0  0  0
  -23.5214  -25.5870   22.8660 C   0  0  0  0  0  0  0  0  0  0  0  0
  -18.8508  -28.4010   22.6955 C   0  0  0  0  0  0  0  0  0  0  0  0
  -24.1119  -25.2681   21.6348 C   0  0  0  0  0  0  0  0  0  0  0  0
  -26.0424  -18.7859   22.4284 C   0  0  0  0  0  0  0  0  0  0  0  0
  -25.3111  -18.1828   23.4738 C   0  0  0  0  0  0  0  0  0  0  0  0
  -22.1536   -8.3810   21.1843 C   0  0  0  0  0  0  0  0  0  0  0  0
  -23.6075  -22.9205   22.0149 C   0  0  0  0  0  0  0  0  0  0  0  0
  -21.8429   -6.5539   22.6290 C   0  0  0  0  0  0  0  0  0  0  0  0
  -22.5497   -5.2027   24.9652 C   0  0  0  0  0  0  0  0  0  0  0  0
  -22.3263   -5.2472   22.5599 C   0  0  0  0  0  0  0  0  0  0  0  0
  -27.2682  -18.2014   22.0563 C   0  0  0  0  0  0  0  0  0  0  0  0
  -24.2104  -11.9696   20.2960 C   0  0  0  0  0  0  0  0  0  0  0  0
  -27.7361  -17.0930   22.7420 C   0  0  0  0  0  0  0  0  0  0  0  0
  -25.8998  -17.0750   24.1009 C   0  0  0  0  0  0  0  0  0  0  0  0
  -25.1794  -13.9399   20.4142 C   0  0  0  0  0  0  0  0  0  0  0  0
  -24.2051  -13.1553   22.5784 C   0  0  0  0  0  0  0  0  0  0  0  0
  -22.3188  -28.1623   21.4429 C   0  0  0  0  0  0  0  0  0  0  0  0
  -25.4301  -28.7432   20.7322 C   0  0  0  0  0  0  0  0  0  0  0  0
  -28.5756  -27.5041   20.2660 C   0  0  0  0  0  0  0  0  0  0  0  0
  -28.4082  -13.4729   15.3935 C   0  0  0  0  0  0  0  0  0  0  0  0
  -18.2609  -30.8661   22.9530 C   0  0  0  0  0  0  0  0  0  0  0  0
  -23.4947  -27.0101   23.3522 C   0  0  0  0  0  0  0  0  0  0  0  0
  -24.7073  -26.3260   20.7433 C   0  0  0  0  0  0  0  0  0  0  0  0
  -19.5472  -31.1634   22.1866 C   0  0  0  0  0  0  0  0  0  0  0  0
  -25.5316  -15.5070   15.9074 C   0  0  0  0  0  0  0  0  0  0  0  0
  -19.7585  -30.1358   21.0793 C   0  0  0  0  0  0  0  0  0  0  0  0
  -24.8937  -14.9260   17.1705 C   0  0  0  0  0  0  0  0  0  0  0  0
  -23.3454  -19.6852   22.9353 C   0  0  0  0  0  0  0  0  0  0  0  0
  -26.1464  -14.4166   15.0328 C   0  0  0  0  0  0  0  0  0  0  0  0
  -26.4641  -12.9513   16.9888 C   0  0  0  0  0  0  0  0  0  0  0  0
  -19.9043  -28.7233   21.6579 C   0  0  1  0  0  0  0  0  0  0  0  0
  -23.5967  -28.0297   22.2220 C   0  0  1  0  0  0  0  0  0  0  0  0
  -25.8798  -14.0184   17.9302 C   0  0  2  0  0  0  0  0  0  0  0  0
  -24.3575  -20.7040   22.4271 C   0  0  1  0  0  0  0  0  0  1  0  0
  -25.5300  -20.0204   21.6670 C   0  0  0  0  0  0  0  0  0  0  0  0
  -23.9600  -18.7056   23.9549 C   0  0  0  0  0  0  0  0  0  0  0  0
  -26.6512  -21.0788   21.5026 C   0  0  0  0  0  0  0  0  0  0  0  0
  -25.0918  -19.5702   20.2525 C   0  0  0  0  0  0  0  0  0  0  0  0
  -22.9348  -17.5631   24.1446 C   0  0  0  0  0  0  0  0  0  0  0  0
  -24.1546  -19.4125   25.3141 C   0  0  0  0  0  0  0  0  0  0  0  0
  -30.9030  -28.2167   19.6556 C   0  0  0  0  0  0  0  0  0  0  0  0
  -24.5881  -28.9806   17.8091 C   0  0  0  0  0  0  0  0  0  0  0  0
  -26.9963  -28.7385   17.1683 C   0  0  0  0  0  0  0  0  0  0  0  0
  -26.2650  -30.6803   18.5530 C   0  0  0  0  0  0  0  0  0  0  0  0
  -29.6622  -26.5846   22.8607 C   0  0  0  0  0  0  0  0  0  0  0  0
  -32.2604  -14.5029   20.2358 C   0  0  0  0  0  0  0  0  0  0  0  0
  -32.3818  -14.5003   18.7101 C   0  0  0  0  0  0  0  0  0  0  0  0
  -30.8657  -14.8937   20.7345 C   0  0  0  0  0  0  0  0  0  0  0  0
  -31.4222  -13.4871   18.0803 C   0  0  0  0  0  0  0  0  0  0  0  0
  -30.7232  -14.8183   22.2586 C   0  0  0  0  0  0  0  0  0  0  0  0
  -31.5203  -13.5049   16.5519 C   0  0  0  0  0  0  0  0  0  0  0  0
  -29.3117  -15.1583   22.7323 C   0  0  0  0  0  0  0  0  0  0  0  0
  -30.6195  -12.4641   15.8951 C   0  0  0  0  0  0  0  0  0  0  0  0
  -26.3530  -28.3783   19.5947 C   0  0  1  0  0  0  0  0  0  0  0  0
  -29.9253  -27.9586   20.7915 C   0  0  2  0  0  0  0  0  0  0  0  0
  -26.0377  -29.1745   18.2970 C   0  0  0  0  0  0  0  0  0  0  0  0
  -24.6558  -12.1982   19.0577 N   0  0  0  0  0  0  0  0  0  0  0  0
  -27.0843  -16.5179   23.7653 N   0  0  0  0  0  0  0  0  0  0  0  0
  -25.2403  -13.4040   19.1615 N   0  0  0  0  0  0  0  0  0  0  0  0
  -24.6514  -27.7035   21.2600 N   0  0  0  0  0  0  0  0  0  0  0  0
  -27.0729  -13.5924   15.8127 N   0  0  0  0  0  0  0  0  0  0  0  0
  -25.7176  -15.1460   20.6939 N   0  0  0  0  0  0  0  0  0  0  0  0
  -23.5093  -12.1178   23.2137 N   0  0  0  0  0  0  0  0  0  0  0  0
  -28.9688  -16.4973   22.3782 N   0  0  0  0  0  0  0  0  0  0  0  0
  -21.2301  -28.5364   22.2072 N   0  0  0  0  0  0  0  0  0  0  0  0
  -27.7108  -28.5644   20.0949 N   0  0  0  0  0  0  0  0  0  0  0  0
  -29.2208  -12.6783   16.1929 N   0  0  0  0  0  0  0  0  0  0  0  0
  -30.5089  -26.9201   21.6870 N   0  3  0  0  0  0  0  0  0  0  0  0
  -24.5270  -14.1726   23.2379 O   0  0  0  0  0  0  0  0  0  0  0  0
  -22.3207  -27.9429   20.2372 O   0  0  0  0  0  0  0  0  0  0  0  0
  -25.4063  -29.9063   21.1423 O   0  0  0  0  0  0  0  0  0  0  0  0
  -28.3157  -26.3268   20.0274 O   0  0  0  0  0  0  0  0  0  0  0  0
  -28.8452  -14.0370   14.3846 O   0  0  0  0  0  0  0  0  0  0  0  0
  -21.4924   -7.2262   21.4703 O   0  0  0  0  0  0  0  0  0  0  0  0
  -23.6472  -21.6209   21.5943 O   0  0  0  0  0  0  0  0  0  1  0  0
  -22.8905   -4.5546   26.0868 F   0  0  0  0  0  0  0  0  0  0  0  0
  -22.4544   -4.6362   21.3742 F   0  0  0  0  0  0  0  0  0  0  0  0
  -28.2558  -18.7133   20.7137 Cl  0  0  0  0  0  0  0  0  0  0  0  0
  -25.3053  -16.2370   25.4907 Cl  0  0  0  0  0  0  0  0  0  0  0  0
  1  2  1  0  0  0  0
  1  5  2  0  0  0  0
  2  6  2  0  0  0  0
  3  8  2  0  0  0  0
  3 15  1  0  0  0  0
  4  9  1  0  0  0  0
  4 15  2  0  0  0  0
  5 17  1  0  0  0  0
  6 19  1  0  0  0  0
  7 10  2  0  0  0  0
  7 18  1  0  0  0  0
  8 23  1  0  0  0  0
  9 23  2  0  0  0  0
 10 24  1  0  0  0  0
 11 12  2  0  0  0  0
 11 25  1  0  0  0  0
 12 26  1  0  0  0  0
 13 20  1  0  0  0  0
 13 24  2  0  0  0  0
 14 26  2  0  0  0  0
 14 27  1  0  0  0  0
 15 29  1  0  0  0  0
 16 29  1  0  0  0  0
 16 32  2  0  0  0  0
 16 33  1  0  0  0  0
 17 19  2  0  0  0  0
 17 38  1  0  0  0  0
 18 20  2  0  0  0  0
 18 39  1  0  0  0  0
 19 48  1  0  0  0  0
 20 40  1  0  0  0  0
 21 22  2  0  0  0  0
 21 28  1  0  0  0  0
 21 52  1  0  0  0  0
 22 31  1  0  0  0  0
 22 53  1  0  0  0  0
 23 91  1  0  0  0  0
 24 92  1  0  0  0  0
 25 27  2  0  0  0  0
 25 91  1  0  0  0  0
 26 93  1  0  0  0  0
 27 94  1  0  0  0  0
 28 30  2  0  0  0  0
 28 95  1  0  0  0  0
 29 74  2  0  0  0  0
 30 75  1  0  0  0  0
 30 81  1  0  0  0  0
 31 75  2  0  0  0  0
 31 96  1  0  0  0  0
 32 76  1  0  0  0  0
 32 79  1  0  0  0  0
 33 80  1  0  0  0  0
 33 86  2  0  0  0  0
 34 49  1  0  0  0  0
 34 82  1  0  0  0  0
 34 87  2  0  0  0  0
 35 71  1  0  0  0  0
 35 77  1  0  0  0  0
 35 88  2  0  0  0  0
 36 72  1  0  0  0  0
 36 83  1  0  0  0  0
 36 89  2  0  0  0  0
 37 78  1  0  0  0  0
 37 84  1  0  0  0  0
 37 90  2  0  0  0  0
 38 41  1  0  0  0  0
 39 49  1  0  0  0  0
 40 77  1  0  0  0  0
 41 43  1  0  0  0  0
 42 44  1  0  0  0  0
 42 46  1  0  0  0  0
 43 48  1  0  0  0  0
 44 50  1  0  0  0  0
 45 51  1  0  0  0  0
 45 53  1  0  0  0  0
 46 78  1  0  0  0  0
 47 50  1  0  0  0  0
 47 78  1  0  0  0  0
 48 82  1  0  0  0  0
 49 77  1  0  0  0  0
 50 76  1  0  0  0  0
 51 52  1  0  0  0  0
 51 92  1  0  0  0  0
 52 54  1  0  0  0  0
 52 55  1  0  0  0  0
 53 56  1  0  0  0  0
 53 57  1  0  0  0  0
 58 72  1  0  0  0  0
 59 73  1  0  0  0  0
 60 73  1  0  0  0  0
 61 73  1  0  0  0  0
 62 85  1  0  0  0  0
 63 64  1  0  0  0  0
 63 65  1  0  0  0  0
 64 66  1  0  0  0  0
 65 67  1  0  0  0  0
 66 68  1  0  0  0  0
 67 69  1  0  0  0  0
 68 70  1  0  0  0  0
 69 81  1  0  0  0  0
 70 84  1  0  0  0  0
 71 73  1  0  0  0  0
 71 83  1  0  0  0  0
 72 85  1  0  0  0  0
 74 76  1  0  0  0  0
M  CHG  1  85   1
M  ISO  4  37 100  51 101  84 100  92 101
M  END
> <Batch ID>
0024

> <Smiles>
CNC(C)C(=O)NC(C(=O)N1Cc2cc([101O:1][101CH:1]3CC(C)(C)c4c(Cl)nc(NCCCCCCCC[100NH:0][100C:0](=O)N5CCCC(n6nc(-c7ccc(Oc8ccc(F)cc8F)cc7)c(C(N)=O)c6N)C5)c(Cl)c4C3(C)C)ccc2CC1C(=O)NC1CCCc2ccccc21)C(C)(C)C

> <Shape>
0.234

> <Color>
0.105

> <Negative vol penalty>
0.000

$$$$

  -OEChem-04052316223D

 83 91  0     1  0  0  0  0  0999 V2000
  -28.3832  -11.3568   20.9775 C   0  0  0  0  0  0  0  0  0  0  0  0
  -28.7206  -12.6169   20.4941 C   0  0  0  0  0  0  0  0  0  0  0  0
  -22.7412  -27.6292   22.9026 C   0  0  0  0  0  0  0  0  0  0  0  0
  -23.3077  -29.2670   21.2192 C   0  0  0  0  0  0  0  0  0  0  0  0
  -27.0424  -11.0039   21.1247 C   0  0  0  0  0  0  0  0  0  0  0  0
  -27.7173  -13.5246   20.1566 C   0  0  0  0  0  0  0  0  0  0  0  0
  -28.6536  -18.1893   21.8911 C   0  0  0  0  0  0  0  0  0  0  0  0
  -21.6357  -28.3941   23.2747 C   0  0  0  0  0  0  0  0  0  0  0  0
  -22.2021  -30.0319   21.5913 C   0  0  0  0  0  0  0  0  0  0  0  0
  -29.5770  -18.9581   21.1840 C   0  0  0  0  0  0  0  0  0  0  0  0
  -18.4595  -29.7367   24.4253 C   0  0  0  0  0  0  0  0  0  0  0  0
  -17.2496  -29.0726   24.6268 C   0  0  0  0  0  0  0  0  0  0  0  0
  -27.7657  -20.1250   20.0992 C   0  0  0  0  0  0  0  0  0  0  0  0
  -33.6346  -24.1593   19.1256 C   0  0  0  0  0  0  0  0  0  0  0  0
  -17.2924  -28.2999   22.3381 C   0  0  0  0  0  0  0  0  0  0  0  0
  -23.5772  -28.0657   21.8748 C   0  0  0  0  0  0  0  0  0  0  0  0
  -24.7623  -26.2608   20.5163 C   0  0  0  0  0  0  0  0  0  0  0  0
  -26.0223  -11.9112   20.7979 C   0  0  0  0  0  0  0  0  0  0  0  0
  -27.2770  -18.3754   21.6992 C   0  0  0  0  0  0  0  0  0  0  0  0
  -26.3616  -13.1830   20.2983 C   0  0  0  0  0  0  0  0  0  0  0  0
  -26.8269  -19.3590   20.8071 C   0  0  0  0  0  0  0  0  0  0  0  0
  -32.4834  -24.6172   18.4847 C   0  0  0  0  0  0  0  0  0  0  0  0
  -32.9860  -21.8788   18.6612 C   0  0  0  0  0  0  0  0  0  0  0  0
  -31.8349  -22.3367   18.0203 C   0  0  0  0  0  0  0  0  0  0  0  0
  -21.3662  -29.5954   22.6191 C   0  0  0  0  0  0  0  0  0  0  0  0
  -29.1331  -19.9242   20.2857 C   0  0  0  0  0  0  0  0  0  0  0  0
  -19.0858  -29.6826   23.1801 C   0  0  0  0  0  0  0  0  0  0  0  0
  -16.6661  -28.3542   23.5833 C   0  0  0  0  0  0  0  0  0  0  0  0
  -18.5023  -28.9642   22.1365 C   0  0  0  0  0  0  0  0  0  0  0  0
  -33.8859  -22.7901   19.2139 C   0  0  0  0  0  0  0  0  0  0  0  0
  -31.5836  -23.7059   17.9321 C   0  0  0  0  0  0  0  0  0  0  0  0
  -24.7197  -27.2764   21.4903 C   0  0  0  0  0  0  0  0  0  0  0  0
  -26.0651  -25.8260   20.5305 C   0  0  0  0  0  0  0  0  0  0  0  0
  -23.7178  -25.7557   19.6741 C   0  0  0  0  0  0  0  0  0  0  0  0
  -24.8925  -16.5553   20.6482 C   0  0  0  0  0  0  0  0  0  0  0  0
  -23.0807  -19.0967   21.5320 C   0  0  0  0  0  0  0  0  0  0  0  0
  -22.8961  -22.4476   22.1514 C   0  0  0  0  0  0  0  0  0  0  0  0
  -31.5449  -26.8755   20.6592 C   0  0  0  0  0  0  0  0  0  0  0  0
  -24.5868  -11.4675   20.9293 C   0  0  0  0  0  0  0  0  0  0  0  0
  -26.2937  -17.5563   22.4895 C   0  0  0  0  0  0  0  0  0  0  0  0
  -25.3596  -19.6120   20.5800 C   0  0  0  0  0  0  0  0  0  0  0  0
  -23.5878  -12.6215   20.9030 C   0  0  0  0  0  0  0  0  0  0  0  0
  -29.8236  -26.7931   23.7748 C   0  0  0  0  0  0  0  0  0  0  0  0
  -23.9120  -13.5824   19.7635 C   0  0  0  0  0  0  0  0  0  0  0  0
  -28.3468  -26.8340   23.3780 C   0  0  0  0  0  0  0  0  0  0  0  0
  -30.6811  -27.6513   22.8474 C   0  0  0  0  0  0  0  0  0  0  0  0
  -29.0542  -27.3923   21.0144 C   0  0  0  0  0  0  0  0  0  0  0  0
  -25.3020  -14.2041   19.9448 C   0  0  1  0  0  0  0  0  0  0  0  0
  -24.9184  -17.4777   21.8340 C   0  0  1  0  0  0  0  0  0  0  0  0
  -28.1573  -26.4973   21.8867 C   0  0  2  0  0  0  0  0  0  0  0  0
  -33.2459  -20.4065   18.7483 C   0  0  0  0  0  0  0  0  0  0  0  0
  -21.2728  -24.2409   22.8194 C   0  0  0  0  0  0  0  0  0  0  0  0
  -21.9084  -19.0815   18.7150 C   0  0  0  0  0  0  0  0  0  0  0  0
  -21.0503  -21.3957   19.1347 C   0  0  0  0  0  0  0  0  0  0  0  0
  -20.2441  -19.4954   20.5353 C   0  0  0  0  0  0  0  0  0  0  0  0
  -24.4230  -23.0768   24.6073 C   0  0  0  0  0  0  0  0  0  0  0  0
  -30.8715  -21.3369   17.4280 C   0  0  0  0  0  0  0  0  0  0  0  0
  -32.2557  -26.0933   18.4137 C   0  0  0  0  0  0  0  0  0  0  0  0
  -29.6380  -21.1330   18.3009 C   0  0  0  0  0  0  0  0  0  1  0  0
  -22.6004  -20.3556   20.8512 C   0  0  1  0  0  0  0  0  0  0  0  0
  -22.2954  -23.2267   23.3075 C   0  0  2  0  0  0  0  0  0  0  0  0
  -21.4785  -20.0762   19.8117 C   0  0  0  0  0  0  0  0  0  0  0  0
  -25.9014  -27.4749   22.0804 N   0  0  0  0  0  0  0  0  0  0  0  0
  -26.6988  -26.5780   21.4755 N   0  0  0  0  0  0  0  0  0  0  0  0
  -24.4373  -18.7812   21.3716 N   0  0  0  0  0  0  0  0  0  0  0  0
  -30.4557  -27.2807   21.4482 N   0  0  0  0  0  0  0  0  0  0  0  0
  -26.7190  -24.8775   19.8267 N   0  0  0  0  0  0  0  0  0  0  0  0
  -22.4378  -26.3151   19.7887 N   0  0  0  0  0  0  0  0  0  0  0  0
  -25.2599  -15.2552   20.9386 N   0  0  0  0  0  0  0  0  0  0  0  0
  -22.2125  -21.2733   21.9169 N   0  0  0  0  0  0  0  0  0  0  0  0
  -31.2429  -26.5354   19.3462 N   0  0  0  0  0  0  0  0  0  0  0  0
  -23.3620  -23.9552   24.0509 N   0  3  0  0  0  0  0  0  0  0  0  0
  -23.9097  -24.8243   18.8560 O   0  0  0  0  0  0  0  0  0  0  0  0
  -24.5621  -16.9905   19.5513 O   0  0  0  0  0  0  0  0  0  0  0  0
  -22.2831  -18.4220   22.1880 O   0  0  0  0  0  0  0  0  0  0  0  0
  -23.8717  -22.8432   21.5172 O   0  0  0  0  0  0  0  0  0  0  0  0
  -32.6999  -26.8157   21.0942 O   0  0  0  0  0  0  0  0  0  0  0  0
  -20.2874  -30.3418   22.9818 O   0  0  0  0  0  0  0  0  0  0  0  0
  -30.0323  -20.6755   19.5938 O   0  0  0  0  0  0  0  0  0  1  0  0
  -15.5050  -27.7151   23.7774 F   0  0  0  0  0  0  0  0  0  0  0  0
  -19.0999  -28.9075   20.9384 F   0  0  0  0  0  0  0  0  0  0  0  0
  -35.3234  -22.2648   20.0135 Cl  0  0  0  0  0  0  0  0  0  0  0  0
  -30.1544  -24.2790   17.1377 Cl  0  0  0  0  0  0  0  0  0  0  0  0
  1  2  1  0  0  0  0
  1  5  2  0  0  0  0
  2  6  2  0  0  0  0
  3  8  2  0  0  0  0
  3 16  1  0  0  0  0
  4  9  1  0  0  0  0
  4 16  2  0  0  0  0
  5 18  1  0  0  0  0
  6 20  1  0  0  0  0
  7 10  2  0  0  0  0
  7 19  1  0  0  0  0
  8 25  1  0  0  0  0
  9 25  2  0  0  0  0
 10 26  1  0  0  0  0
 11 12  2  0  0  0  0
 11 27  1  0  0  0  0
 12 28  1  0  0  0  0
 13 21  1  0  0  0  0
 13 26  2  0  0  0  0
 14 22  2  0  0  0  0
 14 30  1  0  0  0  0
 15 28  2  0  0  0  0
 15 29  1  0  0  0  0
 16 32  1  0  0  0  0
 17 32  1  0  0  0  0
 17 33  2  0  0  0  0
 17 34  1  0  0  0  0
 18 20  2  0  0  0  0
 18 39  1  0  0  0  0
 19 21  2  0  0  0  0
 19 40  1  0  0  0  0
 20 48  1  0  0  0  0
 21 41  1  0  0  0  0
 22 31  1  0  0  0  0
 22 58  1  0  0  0  0
 23 24  1  0  0  0  0
 23 30  2  0  0  0  0
 23 51  1  0  0  0  0
 24 31  2  0  0  0  0
 24 57  1  0  0  0  0
 25 78  1  0  0  0  0
 26 79  1  0  0  0  0
 27 29  2  0  0  0  0
 27 78  1  0  0  0  0
 28 80  1  0  0  0  0
 29 81  1  0  0  0  0
 30 82  1  0  0  0  0
 31 83  1  0  0  0  0
 32 63  2  0  0  0  0
 33 64  1  0  0  0  0
 33 67  1  0  0  0  0
 34 68  1  0  0  0  0
 34 73  2  0  0  0  0
 35 49  1  0  0  0  0
 35 69  1  0  0  0  0
 35 74  2  0  0  0  0
 36 60  1  0  0  0  0
 36 65  1  0  0  0  0
 36 75  2  0  0  0  0
 37 61  1  0  0  0  0
 37 70  1  0  0  0  0
 37 76  2  0  0  0  0
 38 66  1  0  0  0  0
 38 71  1  0  0  0  0
 38 77  2  0  0  0  0
 39 42  1  0  0  0  0
 40 49  1  0  0  0  0
 41 65  1  0  0  0  0
 42 44  1  0  0  0  0
 43 45  1  0  0  0  0
 43 46  1  0  0  0  0
 44 48  1  0  0  0  0
 45 50  1  0  0  0  0
 46 66  1  0  0  0  0
 47 50  1  0  0  0  0
 47 66  1  0  0  0  0
 48 69  1  0  0  0  0
 49 65  1  0  0  0  0
 50 64  1  0  0  0  0
 52 61  1  0  0  0  0
 53 62  1  0  0  0  0
 54 62  1  0  0  0  0
 55 62  1  0  0  0  0
 56 72  1  0  0  0  0
 57 59  1  0  0  0  0
 58 71  1  0  0  0  0
 59 79  1  0  0  0  0
 60 62  1  0  0  0  0
 60 70  1  0  0  0  0
 61 72  1  0  0  0  0
 63 64  1  0  0  0  0
M  CHG  1  72   1
M  ISO  4  38 100  59 101  71 100  79 101
M  END
> <Batch ID>
0024

> <Smiles>
CNC(C)C(=O)NC(C(=O)N1Cc2cc([101O:1][101CH2:1]Cc3c(C)c(Cl)cc(C[100NH:0][100C:0](=O)N4CCCC(n5nc(-c6ccc(Oc7ccc(F)cc7F)cc6)c(C(N)=O)c5N)C4)c3Cl)ccc2CC1C(=O)NC1CCCc2ccccc21)C(C)(C)C

> <Shape>
0.207

> <Color>
0.059

> <Negative vol penalty>
0.000

$$$$

  -OEChem-04052316223D

 94102  0     1  0  0  0  0  0999 V2000
  -30.7377  -25.2659   14.0619 C   0  0  0  0  0  0  0  0  0  0  0  0
  -29.4169  -25.2660   14.4987 C   0  0  0  0  0  0  0  0  0  0  0  0
  -25.1957  -12.9436   19.3012 C   0  0  0  0  0  0  0  0  0  0  0  0
  -25.2182  -13.7409   21.5817 C   0  0  0  0  0  0  0  0  0  0  0  0
  -31.7750  -25.4118   14.9821 C   0  0  0  0  0  0  0  0  0  0  0  0
  -29.1326  -25.4108   15.8561 C   0  0  0  0  0  0  0  0  0  0  0  0
  -24.3322  -28.3045   18.3237 C   0  0  0  0  0  0  0  0  0  0  0  0
  -25.3031  -11.6305   19.7592 C   0  0  0  0  0  0  0  0  0  0  0  0
  -25.3255  -12.4278   22.0398 C   0  0  0  0  0  0  0  0  0  0  0  0
  -23.1149  -27.8440   18.8236 C   0  0  0  0  0  0  0  0  0  0  0  0
  -25.2077   -8.0432   20.3404 C   0  0  0  0  0  0  0  0  0  0  0  0
  -24.3800   -7.0835   19.7578 C   0  0  0  0  0  0  0  0  0  0  0  0
  -24.0348  -27.8517   21.0536 C   0  0  0  0  0  0  0  0  0  0  0  0
  -18.3574  -26.1814   23.0023 C   0  0  0  0  0  0  0  0  0  0  0  0
  -19.3023  -28.7527   22.4749 C   0  0  0  0  0  0  0  0  0  0  0  0
  -22.4354   -8.3152   20.4916 C   0  0  0  0  0  0  0  0  0  0  0  0
  -25.1534  -13.9988   20.2125 C   0  0  0  0  0  0  0  0  0  0  0  0
  -23.8593  -16.0783   19.4991 C   0  0  0  0  0  0  0  0  0  0  0  0
  -31.5029  -25.5682   16.3504 C   0  0  0  0  0  0  0  0  0  0  0  0
  -25.4151  -28.5321   19.1851 C   0  0  0  0  0  0  0  0  0  0  0  0
  -30.1672  -25.5576   16.7956 C   0  0  0  0  0  0  0  0  0  0  0  0
  -25.2639  -28.3175   20.5625 C   0  0  0  0  0  0  0  0  0  0  0  0
  -17.9812  -27.2446   23.8230 C   0  0  0  0  0  0  0  0  0  0  0  0
  -19.2062  -26.4038   21.9179 C   0  0  0  0  0  0  0  0  0  0  0  0
  -19.6786  -27.6895   21.6542 C   0  0  0  0  0  0  0  0  0  0  0  0
  -18.4536  -28.5303   23.5593 C   0  0  0  0  0  0  0  0  0  0  0  0
  -25.3679  -11.3725   21.1285 C   0  0  0  0  0  0  0  0  0  0  0  0
  -22.9669  -27.6148   20.1884 C   0  0  0  0  0  0  0  0  0  0  0  0
  -24.6493   -9.1389   20.9986 C   0  0  0  0  0  0  0  0  0  0  0  0
  -22.9938   -7.2195   19.8334 C   0  0  0  0  0  0  0  0  0  0  0  0
  -23.2631   -9.2750   21.0742 C   0  0  0  0  0  0  0  0  0  0  0  0
  -25.0431  -15.3555   19.7399 C   0  0  0  0  0  0  0  0  0  0  0  0
  -24.2901  -17.3083   19.0657 C   0  0  0  0  0  0  0  0  0  0  0  0
  -22.4924  -15.6739   19.6535 C   0  0  0  0  0  0  0  0  0  0  0  0
  -28.3405  -27.3238   19.4782 C   0  0  0  0  0  0  0  0  0  0  0  0
  -28.6579  -29.6556   21.7108 C   0  0  0  0  0  0  0  0  0  0  0  0
  -27.1518  -31.7692   23.9269 C   0  0  0  0  0  0  0  0  0  0  0  0
  -27.8751  -21.6167   20.0156 C   0  0  0  0  0  0  0  0  0  0  0  0
  -32.6591  -25.6752   17.3128 C   0  0  0  0  0  0  0  0  0  0  0  0
  -26.7133  -29.0543   18.6335 C   0  0  0  0  0  0  0  0  0  0  0  0
  -26.3895  -28.5658   21.5319 C   0  0  0  0  0  0  0  0  0  0  0  0
  -32.2591  -26.1993   18.6896 C   0  0  0  0  0  0  0  0  0  0  0  0
  -28.8759  -18.9144   17.6924 C   0  0  0  0  0  0  0  0  0  0  0  0
  -31.0079  -25.4844   19.1901 C   0  0  0  0  0  0  0  0  0  0  0  0
  -27.9105  -17.7876   18.0565 C   0  0  0  0  0  0  0  0  0  0  0  0
  -29.1481  -19.8336   18.8792 C   0  0  0  0  0  0  0  0  0  0  0  0
  -26.9526  -19.2673   19.8657 C   0  0  0  0  0  0  0  0  0  0  0  0
  -29.8176  -25.7372   18.2570 C   0  0  1  0  0  0  0  0  0  0  0  0
  -27.9073  -28.7614   19.5368 C   0  0  1  0  0  0  0  0  0  0  0  0
  -26.6208  -18.3500   18.6792 C   0  0  2  0  0  0  0  0  0  0  0  0
  -17.0711  -26.9825   24.9777 C   0  0  0  0  0  0  0  0  0  0  0  0
  -27.6750  -33.5297   25.6370 C   0  0  0  0  0  0  0  0  0  0  0  0
  -29.5438  -27.4883   23.6673 C   0  0  0  0  0  0  0  0  0  0  0  0
  -29.1327  -29.1040   25.5351 C   0  0  0  0  0  0  0  0  0  0  0  0
  -30.8535  -29.6145   23.8027 C   0  0  0  0  0  0  0  0  0  0  0  0
  -26.5785  -23.3931   21.1304 C   0  0  0  0  0  0  0  0  0  0  0  0
  -25.6331  -33.8292   22.4406 C   0  0  0  0  0  0  0  0  0  0  0  0
  -19.5961  -25.2499   21.0536 C   0  0  0  0  0  0  0  0  0  0  0  0
  -23.4214  -20.2154   21.5208 C   0  0  0  0  0  0  0  0  0  0  0  0
  -22.3820  -21.0931   20.8166 C   0  0  0  0  0  0  0  0  0  0  0  0
  -24.7743  -20.9095   21.7097 C   0  0  0  0  0  0  0  0  0  0  0  0
  -22.0145  -22.3520   21.6046 C   0  0  0  0  0  0  0  0  0  0  0  0
  -25.3848  -21.3660   20.3877 C   0  0  0  0  0  0  0  0  0  0  0  0
  -20.9612  -23.1666   20.8668 C   0  0  0  0  0  0  0  0  0  0  0  0
  -28.4033  -29.7560   23.1955 C   0  0  1  0  0  0  0  0  0  0  0  0
  -27.3296  -33.2551   24.1817 C   0  0  2  0  0  0  0  0  0  0  0  0
  -20.5962  -27.9537   20.4901 C   0  0  0  0  0  0  0  0  0  1  0  0
  -18.0639  -29.6841   24.4238 C   0  0  0  0  0  0  0  0  0  0  0  0
  -29.4625  -28.9841   24.0319 C   0  0  0  0  0  0  0  0  0  0  0  0
  -26.1434  -16.0671   19.4808 N   0  0  0  0  0  0  0  0  0  0  0  0
  -25.6527  -17.2497   19.0726 N   0  0  0  0  0  0  0  0  0  0  0  0
  -27.6411  -29.0702   20.9432 N   0  0  0  0  0  0  0  0  0  0  0  0
  -27.9047  -20.3192   19.4787 N   0  0  0  0  0  0  0  0  0  0  0  0
  -23.6325  -18.4234   18.6830 N   0  0  0  0  0  0  0  0  0  0  0  0
  -22.2272  -14.3754   20.1093 N   0  0  0  0  0  0  0  0  0  0  0  0
  -29.2656  -27.0549   18.4876 N   0  0  0  0  0  0  0  0  0  0  0  0
  -28.3235  -31.1804   23.5005 N   0  0  0  0  0  0  0  0  0  0  0  0
  -26.6623  -22.0513   20.5716 N   0  0  0  0  0  0  0  0  0  0  0  0
  -26.0772  -33.9912   23.8490 N   0  3  0  0  0  0  0  0  0  0  0  0
  -20.6011  -24.3532   21.6865 N   0  3  0  0  0  0  0  0  0  0  0  0
  -21.5344  -16.4359   19.3792 O   0  0  0  0  0  0  0  0  0  0  0  0
  -27.8713  -26.5185   20.2739 O   0  0  0  0  0  0  0  0  0  0  0  0
  -29.7168  -30.0873   21.2483 O   0  0  0  0  0  0  0  0  0  0  0  0
  -26.0817  -31.1882   24.0934 O   0  0  0  0  0  0  0  0  0  0  0  0
  -28.8728  -22.3487   19.9904 O   0  0  0  0  0  0  0  0  0  0  0  0
  -25.4724  -10.0913   21.5758 O   0  0  0  0  0  0  0  0  0  0  0  0
  -21.7801  -27.1646   20.6789 O   0  0  0  0  0  0  0  0  0  1  0  0
  -22.1991   -6.2986   19.2726 F   0  0  0  0  0  0  0  0  0  0  0  0
  -22.7208  -10.3261   21.7042 F   0  0  0  0  0  0  0  0  0  0  0  0
  -20.9547  -29.2646   20.3989 F   0  0  0  0  0  0  0  0  0  0  0  0
  -20.0318  -27.6162   19.2973 F   0  0  0  0  0  0  0  0  0  0  0  0
  -18.6112  -30.8708   24.0289 F   0  0  0  0  0  0  0  0  0  0  0  0
  -16.7175  -29.9060   24.4616 F   0  0  0  0  0  0  0  0  0  0  0  0
  -18.4459  -29.5170   25.7226 F   0  0  0  0  0  0  0  0  0  0  0  0
  1  2  1  0  0  0  0
  1  5  2  0  0  0  0
  2  6  2  0  0  0  0
  3  8  2  0  0  0  0
  3 17  1  0  0  0  0
  4  9  1  0  0  0  0
  4 17  2  0  0  0  0
  5 19  1  0  0  0  0
  6 21  1  0  0  0  0
  7 10  2  0  0  0  0
  7 20  1  0  0  0  0
  8 27  1  0  0  0  0
  9 27  2  0  0  0  0
 10 28  1  0  0  0  0
 11 12  2  0  0  0  0
 11 29  1  0  0  0  0
 12 30  1  0  0  0  0
 13 22  1  0  0  0  0
 13 28  2  0  0  0  0
 14 23  2  0  0  0  0
 14 24  1  0  0  0  0
 15 25  1  0  0  0  0
 15 26  2  0  0  0  0
 16 30  2  0  0  0  0
 16 31  1  0  0  0  0
 17 32  1  0  0  0  0
 18 32  1  0  0  0  0
 18 33  2  0  0  0  0
 18 34  1  0  0  0  0
 19 21  2  0  0  0  0
 19 39  1  0  0  0  0
 20 22  2  0  0  0  0
 20 40  1  0  0  0  0
 21 48  1  0  0  0  0
 22 41  1  0  0  0  0
 23 26  1  0  0  0  0
 23 51  1  0  0  0  0
 24 25  2  0  0  0  0
 24 58  1  0  0  0  0
 25 67  1  0  0  0  0
 26 68  1  0  0  0  0
 27 86  1  0  0  0  0
 28 87  1  0  0  0  0
 29 31  2  0  0  0  0
 29 86  1  0  0  0  0
 30 88  1  0  0  0  0
 31 89  1  0  0  0  0
 32 70  2  0  0  0  0
 33 71  1  0  0  0  0
 33 74  1  0  0  0  0
 34 75  1  0  0  0  0
 34 81  2  0  0  0  0
 35 49  1  0  0  0  0
 35 76  1  0  0  0  0
 35 82  2  0  0  0  0
 36 65  1  0  0  0  0
 36 72  1  0  0  0  0
 36 83  2  0  0  0  0
 37 66  1  0  0  0  0
 37 77  1  0  0  0  0
 37 84  2  0  0  0  0
 38 73  1  0  0  0  0
 38 78  1  0  0  0  0
 38 85  2  0  0  0  0
 39 42  1  0  0  0  0
 40 49  1  0  0  0  0
 41 72  1  0  0  0  0
 42 44  1  0  0  0  0
 43 45  1  0  0  0  0
 43 46  1  0  0  0  0
 44 48  1  0  0  0  0
 45 50  1  0  0  0  0
 46 73  1  0  0  0  0
 47 50  1  0  0  0  0
 47 73  1  0  0  0  0
 48 76  1  0  0  0  0
 49 72  1  0  0  0  0
 50 71  1  0  0  0  0
 52 66  1  0  0  0  0
 53 69  1  0  0  0  0
 54 69  1  0  0  0  0
 55 69  1  0  0  0  0
 56 78  1  0  0  0  0
 57 79  1  0  0  0  0
 58 80  1  0  0  0  0
 59 60  1  0  0  0  0
 59 61  1  0  0  0  0
 60 62  1  0  0  0  0
 61 63  1  0  0  0  0
 62 64  1  0  0  0  0
 63 78  1  0  0  0  0
 64 80  1  0  0  0  0
 65 69  1  0  0  0  0
 65 77  1  0  0  0  0
 66 79  1  0  0  0  0
 67 87  1  0  0  0  0
 67 90  1  0  0  0  0
 67 91  1  0  0  0  0
 68 92  1  0  0  0  0
 68 93  1  0  0  0  0
 68 94  1  0  0  0  0
 70 71  1  0  0  0  0
M  CHG  2  79   1  80   1
M  ISO  4  38 100  67 101  78 100  87 101
M  END
> <Batch ID>
0024

> <Smiles>
CNC(C)C(=O)NC(C(=O)N1Cc2cc([101O:1][101C:1](F)(F)c3cc(C(F)(F)F)c(C)cc3CNCCCCCC[100N:0](C)[100C:0](=O)N3CCCC(n4nc(-c5ccc(Oc6ccc(F)cc6F)cc5)c(C(N)=O)c4N)C3)ccc2CC1C(=O)NC1CCCc2ccccc21)C(C)(C)C

> <Shape>
0.273

> <Color>
0.080

> <Negative vol penalty>
0.000

$$$$

  -OEChem-04052316223D

 85 93  0     1  0  0  0  0  0999 V2000
  -22.9354   -8.9872   21.1636 C   0  0  0  0  0  0  0  0  0  0  0  0
  -23.8611   -9.7073   21.9119 C   0  0  0  0  0  0  0  0  0  0  0  0
  -22.5409  -27.8230   20.7336 C   0  0  0  0  0  0  0  0  0  0  0  0
  -23.7776  -26.9511   22.6171 C   0  0  0  0  0  0  0  0  0  0  0  0
  -22.3882   -9.5456   20.0092 C   0  0  0  0  0  0  0  0  0  0  0  0
  -24.2409  -10.9860   21.5056 C   0  0  0  0  0  0  0  0  0  0  0  0
  -25.6471  -15.7298   25.1146 C   0  0  0  0  0  0  0  0  0  0  0  0
  -21.3435  -27.5711   21.4031 C   0  0  0  0  0  0  0  0  0  0  0  0
  -22.5801  -26.6992   23.2867 C   0  0  0  0  0  0  0  0  0  0  0  0
  -26.8661  -16.2532   25.5434 C   0  0  0  0  0  0  0  0  0  0  0  0
  -19.5071  -29.0110   23.8501 C   0  0  0  0  0  0  0  0  0  0  0  0
  -18.5328  -30.0089   23.8335 C   0  0  0  0  0  0  0  0  0  0  0  0
  -26.7947  -17.8695   23.7541 C   0  0  0  0  0  0  0  0  0  0  0  0
  -31.2932  -22.9800   24.2523 C   0  0  0  0  0  0  0  0  0  0  0  0
  -16.9975  -28.4919   22.7479 C   0  0  0  0  0  0  0  0  0  0  0  0
  -23.7580  -27.5130   21.3406 C   0  0  0  0  0  0  0  0  0  0  0  0
  -25.7618  -28.9524   20.6923 C   0  0  0  0  0  0  0  0  0  0  0  0
  -22.7543  -10.8356   19.5939 C   0  0  0  0  0  0  0  0  0  0  0  0
  -24.9970  -16.2662   23.9939 C   0  0  0  0  0  0  0  0  0  0  0  0
  -23.6991  -11.5617   20.3438 C   0  0  0  0  0  0  0  0  0  0  0  0
  -25.5663  -17.3528   23.3146 C   0  0  0  0  0  0  0  0  0  0  0  0
  -30.2736  -22.1988   23.7085 C   0  0  0  0  0  0  0  0  0  0  0  0
  -31.0061  -22.7915   21.4838 C   0  0  0  0  0  0  0  0  0  0  0  0
  -21.3631  -27.0092   22.6797 C   0  0  0  0  0  0  0  0  0  0  0  0
  -27.4415  -17.3213   24.8614 C   0  0  0  0  0  0  0  0  0  0  0  0
  -19.2267  -27.7535   23.3155 C   0  0  0  0  0  0  0  0  0  0  0  0
  -17.2779  -29.7494   23.2824 C   0  0  0  0  0  0  0  0  0  0  0  0
  -17.9719  -27.4939   22.7644 C   0  0  0  0  0  0  0  0  0  0  0  0
  -32.0256  -23.5728   22.0276 C   0  0  0  0  0  0  0  0  0  0  0  0
  -32.1691  -23.6671   23.4119 C   0  0  0  0  0  0  0  0  0  0  0  0
  -30.1301  -22.1045   22.3243 C   0  0  0  0  0  0  0  0  0  0  0  0
  -24.9952  -27.7725   20.6492 C   0  0  0  0  0  0  0  0  0  0  0  0
  -26.8329  -28.6962   19.8716 C   0  0  0  0  0  0  0  0  0  0  0  0
  -25.5269  -30.1711   21.4102 C   0  0  0  0  0  0  0  0  0  0  0  0
  -24.1363  -15.1415   21.1482 C   0  0  0  0  0  0  0  0  0  0  0  0
  -22.7080  -18.0404   20.8681 C   0  0  0  0  0  0  0  0  0  0  0  0
  -22.5789  -21.3118   21.8316 C   0  0  0  0  0  0  0  0  0  0  0  0
  -29.5214  -23.6352   18.1368 C   0  0  0  0  0  0  0  0  0  0  0  0
  -22.1713  -11.3786   18.3132 C   0  0  0  0  0  0  0  0  0  0  0  0
  -23.6695  -15.7077   23.5601 C   0  0  0  0  0  0  0  0  0  0  0  0
  -24.8988  -17.9778   22.1179 C   0  0  0  0  0  0  0  0  0  0  0  0
  -22.3450  -12.8871   18.1564 C   0  0  0  0  0  0  0  0  0  0  0  0
  -28.0796  -26.1222   16.0361 C   0  0  0  0  0  0  0  0  0  0  0  0
  -23.7752  -13.2976   18.4927 C   0  0  0  0  0  0  0  0  0  0  0  0
  -27.1948  -26.9336   16.9840 C   0  0  0  0  0  0  0  0  0  0  0  0
  -28.0756  -24.6373   16.3926 C   0  0  0  0  0  0  0  0  0  0  0  0
  -27.5359  -25.1476   18.7426 C   0  0  0  0  0  0  0  0  0  0  0  0
  -24.1176  -12.9614   19.9491 C   0  0  1  0  0  0  0  0  0  0  0  0
  -23.3479  -15.9987   22.0975 C   0  0  1  0  0  0  0  0  0  0  0  0
  -27.5520  -26.6591   18.4572 C   0  0  2  0  0  0  0  0  0  0  0  0
  -21.3289  -23.4446   21.4001 C   0  0  0  0  0  0  0  0  0  0  0  0
  -29.0487  -19.3061   27.1261 C   0  0  0  0  0  0  0  0  0  0  0  0
  -24.2183  -18.3912   18.2402 C   0  0  0  0  0  0  0  0  0  0  0  0
  -23.6965  -20.8375   18.3474 C   0  0  0  0  0  0  0  0  0  0  0  0
  -21.8438  -19.1744   18.1913 C   0  0  0  0  0  0  0  0  0  0  0  0
  -21.6518  -21.4721   24.6376 C   0  0  0  0  0  0  0  0  0  0  0  0
  -29.3516  -21.4728   24.6553 C   0  0  0  0  0  0  0  0  0  0  0  0
  -30.8861  -22.7170   19.9952 C   0  0  0  0  0  0  0  0  0  0  0  0
  -29.6376  -19.9681   24.7662 C   0  0  0  0  0  0  0  0  0  0  0  0
  -23.1315  -19.3958   20.3557 C   0  0  1  0  0  0  0  0  0  0  0  0
  -21.4172  -22.1914   22.2572 C   0  0  2  0  0  0  0  0  0  0  0  0
  -28.6490  -19.2084   25.6593 C   0  0  1  0  0  0  0  0  0  1  0  0
  -23.2363  -19.4369   18.8050 C   0  0  0  0  0  0  0  0  0  0  0  0
  -25.5334  -26.8363   19.8631 N   0  0  0  0  0  0  0  0  0  0  0  0
  -26.6497  -27.4279   19.4046 N   0  0  0  0  0  0  0  0  0  0  0  0
  -23.6053  -17.3923   21.7287 N   0  0  0  0  0  0  0  0  0  0  0  0
  -28.4238  -24.4455   17.8026 N   0  0  0  0  0  0  0  0  0  0  0  0
  -27.9041  -29.4343   19.5109 N   0  0  0  0  0  0  0  0  0  0  0  0
  -24.3781  -30.2660   22.2074 N   0  0  0  0  0  0  0  0  0  0  0  0
  -23.5322  -13.9365   20.8440 N   0  0  0  0  0  0  0  0  0  0  0  0
  -22.1882  -20.3572   20.9165 N   0  0  0  0  0  0  0  0  0  0  0  0
  -29.7864  -23.5117   19.4952 N   0  0  0  0  0  0  0  0  0  0  0  0
  -21.5751  -22.6054   23.6801 N   0  3  0  0  0  0  0  0  0  0  0  0
  -26.3038  -31.1529   21.3336 O   0  0  0  0  0  0  0  0  0  0  0  0
  -25.2124  -15.5442   20.7220 O   0  0  0  0  0  0  0  0  0  0  0  0
  -21.6180  -17.5771   20.5233 O   0  0  0  0  0  0  0  0  0  0  0  0
  -23.7197  -21.4593   22.2645 O   0  0  0  0  0  0  0  0  0  0  0  0
  -30.2172  -23.0685   17.2872 O   0  0  0  0  0  0  0  0  0  0  0  0
  -20.1948  -26.7635   23.3334 O   0  0  0  0  0  0  0  0  0  0  0  0
  -28.6316  -17.8336   25.2775 O   0  0  0  0  0  0  0  0  0  1  0  0
  -16.3419  -30.7074   23.2680 F   0  0  0  0  0  0  0  0  0  0  0  0
  -17.6962  -26.2874   22.2505 F   0  0  0  0  0  0  0  0  0  0  0  0
  -32.8659  -24.2317   21.2151 F   0  0  0  0  0  0  0  0  0  0  0  0
  -33.4261  -24.6286   24.0898 Cl  0  0  0  0  0  0  0  0  0  0  0  0
  -28.8636  -21.1351   21.6495 Cl  0  0  0  0  0  0  0  0  0  0  0  0
  1  2  1  0  0  0  0
  1  5  2  0  0  0  0
  2  6  2  0  0  0  0
  3  8  2  0  0  0  0
  3 16  1  0  0  0  0
  4  9  1  0  0  0  0
  4 16  2  0  0  0  0
  5 18  1  0  0  0  0
  6 20  1  0  0  0  0
  7 10  2  0  0  0  0
  7 19  1  0  0  0  0
  8 24  1  0  0  0  0
  9 24  2  0  0  0  0
 10 25  1  0  0  0  0
 11 12  2  0  0  0  0
 11 26  1  0  0  0  0
 12 27  1  0  0  0  0
 13 21  1  0  0  0  0
 13 25  2  0  0  0  0
 14 22  1  0  0  0  0
 14 30  2  0  0  0  0
 15 27  2  0  0  0  0
 15 28  1  0  0  0  0
 16 32  1  0  0  0  0
 17 32  1  0  0  0  0
 17 33  2  0  0  0  0
 17 34  1  0  0  0  0
 18 20  2  0  0  0  0
 18 39  1  0  0  0  0
 19 21  2  0  0  0  0
 19 40  1  0  0  0  0
 20 48  1  0  0  0  0
 21 41  1  0  0  0  0
 22 31  2  0  0  0  0
 22 57  1  0  0  0  0
 23 29  2  0  0  0  0
 23 31  1  0  0  0  0
 23 58  1  0  0  0  0
 24 79  1  0  0  0  0
 25 80  1  0  0  0  0
 26 28  2  0  0  0  0
 26 79  1  0  0  0  0
 27 81  1  0  0  0  0
 28 82  1  0  0  0  0
 29 30  1  0  0  0  0
 29 83  1  0  0  0  0
 30 84  1  0  0  0  0
 31 85  1  0  0  0  0
 32 64  2  0  0  0  0
 33 65  1  0  0  0  0
 33 68  1  0  0  0  0
 34 69  1  0  0  0  0
 34 74  2  0  0  0  0
 35 49  1  0  0  0  0
 35 70  1  0  0  0  0
 35 75  2  0  0  0  0
 36 60  1  0  0  0  0
 36 66  1  0  0  0  0
 36 76  2  0  0  0  0
 37 61  1  0  0  0  0
 37 71  1  0  0  0  0
 37 77  2  0  0  0  0
 38 67  1  0  0  0  0
 38 72  1  0  0  0  0
 38 78  2  0  0  0  0
 39 42  1  0  0  0  0
 40 49  1  0  0  0  0
 41 66  1  0  0  0  0
 42 44  1  0  0  0  0
 43 45  1  0  0  0  0
 43 46  1  0  0  0  0
 44 48  1  0  0  0  0
 45 50  1  0  0  0  0
 46 67  1  0  0  0  0
 47 50  1  0  0  0  0
 47 67  1  0  0  0  0
 48 70  1  0  0  0  0
 49 66  1  0  0  0  0
 50 65  1  0  0  0  0
 51 61  1  0  0  0  0
 52 62  1  0  0  0  0
 53 63  1  0  0  0  0
 54 63  1  0  0  0  0
 55 63  1  0  0  0  0
 56 73  1  0  0  0  0
 57 59  1  0  0  0  0
 58 72  1  0  0  0  0
 59 62  1  0  0  0  0
 60 63  1  0  0  0  0
 60 71  1  0  0  0  0
 61 73  1  0  0  0  0
 62 80  1  0  0  0  0
 64 65  1  0  0  0  0
M  CHG  1  73   1
M  ISO  4  38 100  62 101  72 100  80 101
M  END
> <Batch ID>
0024

> <Smiles>
CNC(C)C(=O)NC(C(=O)N1Cc2cc([101O:1][101CH:1](C)CCc3cc(Cl)c(F)c(C[100NH:0][100C:0](=O)N4CCCC(n5nc(-c6ccc(Oc7ccc(F)cc7F)cc6)c(C(N)=O)c5N)C4)c3Cl)ccc2CC1C(=O)NC1CCCc2ccccc21)C(C)(C)C

> <Shape>
0.199

> <Color>
0.050

> <Negative vol penalty>
0.000

$$$$

  -OEChem-04052316223D

 83 91  0     1  0  0  0  0  0999 V2000
  -30.7098   -9.5185   29.4579 C   0  0  0  0  0  0  0  0  0  0  0  0
  -30.8748  -10.7999   28.9421 C   0  0  0  0  0  0  0  0  0  0  0  0
  -23.2884   -9.7995   19.9129 C   0  0  0  0  0  0  0  0  0  0  0  0
  -23.7391   -9.9398   22.2823 C   0  0  0  0  0  0  0  0  0  0  0  0
  -29.4277   -9.0160   29.6764 C   0  0  0  0  0  0  0  0  0  0  0  0
  -29.7578  -11.5793   28.6433 C   0  0  0  0  0  0  0  0  0  0  0  0
  -30.2281  -16.3523   30.2686 C   0  0  0  0  0  0  0  0  0  0  0  0
  -22.5621   -8.6269   20.1205 C   0  0  0  0  0  0  0  0  0  0  0  0
  -23.0127   -8.7673   22.4899 C   0  0  0  0  0  0  0  0  0  0  0  0
  -31.0208  -17.2093   29.5064 C   0  0  0  0  0  0  0  0  0  0  0  0
  -19.7657   -7.8560   22.7071 C   0  0  0  0  0  0  0  0  0  0  0  0
  -18.8634   -7.8342   23.7705 C   0  0  0  0  0  0  0  0  0  0  0  0
  -29.0361  -18.1390   28.4985 C   0  0  0  0  0  0  0  0  0  0  0  0
  -30.7873  -16.5688   25.1341 C   0  0  0  0  0  0  0  0  0  0  0  0
  -32.8219  -15.3341   23.6785 C   0  0  0  0  0  0  0  0  0  0  0  0
  -20.0692   -5.9869   24.7558 C   0  0  0  0  0  0  0  0  0  0  0  0
  -23.8770  -10.4559   20.9938 C   0  0  0  0  0  0  0  0  0  0  0  0
  -24.1362  -12.9860   20.7955 C   0  0  0  0  0  0  0  0  0  0  0  0
  -28.2945   -9.7932   29.3893 C   0  0  0  0  0  0  0  0  0  0  0  0
  -28.8315  -16.3747   30.1433 C   0  0  0  0  0  0  0  0  0  0  0  0
  -28.4593  -11.0862   28.8569 C   0  0  0  0  0  0  0  0  0  0  0  0
  -28.2278  -17.2830   29.2621 C   0  0  0  0  0  0  0  0  0  0  0  0
  -31.8873  -17.3115   24.7051 C   0  0  0  0  0  0  0  0  0  0  0  0
  -31.7219  -14.5915   24.1076 C   0  0  0  0  0  0  0  0  0  0  0  0
  -22.4242   -8.1108   21.4090 C   0  0  0  0  0  0  0  0  0  0  0  0
  -30.4250  -18.1008   28.6190 C   0  0  0  0  0  0  0  0  0  0  0  0
  -20.8198   -6.9433   22.6680 C   0  0  0  0  0  0  0  0  0  0  0  0
  -19.0151   -6.8997   24.7948 C   0  0  0  0  0  0  0  0  0  0  0  0
  -20.9716   -6.0087   23.6923 C   0  0  0  0  0  0  0  0  0  0  0  0
  -32.9046  -16.6942   23.9772 C   0  0  0  0  0  0  0  0  0  0  0  0
  -30.7046  -15.2088   24.8355 C   0  0  0  0  0  0  0  0  0  0  0  0
  -24.6278  -11.6669   20.7799 C   0  0  0  0  0  0  0  0  0  0  0  0
  -25.2377  -13.7660   20.5406 C   0  0  0  0  0  0  0  0  0  0  0  0
  -22.8032  -13.4635   21.0203 C   0  0  0  0  0  0  0  0  0  0  0  0
  -26.6269  -14.2723   29.2362 C   0  0  0  0  0  0  0  0  0  0  0  0
  -24.5766  -16.6036   30.1764 C   0  0  0  0  0  0  0  0  0  0  0  0
  -24.0339  -19.9218   30.7610 C   0  0  0  0  0  0  0  0  0  0  0  0
  -31.1087  -12.9231   21.3602 C   0  0  0  0  0  0  0  0  0  0  0  0
  -26.9283   -9.1894   29.5978 C   0  0  0  0  0  0  0  0  0  0  0  0
  -27.9892  -15.4624   30.9922 C   0  0  0  0  0  0  0  0  0  0  0  0
  -26.7318  -17.3607   29.1053 C   0  0  0  0  0  0  0  0  0  0  0  0
  -25.8019  -10.2196   29.6065 C   0  0  0  0  0  0  0  0  0  0  0  0
  -29.4598  -13.6628   18.2925 C   0  0  0  0  0  0  0  0  0  0  0  0
  -25.9571  -11.1901   28.4399 C   0  0  0  0  0  0  0  0  0  0  0  0
  -27.9901  -13.3542   18.5836 C   0  0  0  0  0  0  0  0  0  0  0  0
  -30.3931  -12.6834   19.0008 C   0  0  0  0  0  0  0  0  0  0  0  0
  -28.7065  -12.2537   20.7456 C   0  0  0  0  0  0  0  0  0  0  0  0
  -27.2726  -11.9714   28.5436 C   0  0  1  0  0  0  0  0  0  0  0  0
  -26.6024  -15.2134   30.4072 C   0  0  1  0  0  0  0  0  0  0  0  0
  -27.7285  -13.2490   20.0981 C   0  0  2  0  0  0  0  0  0  0  0  0
  -22.2472  -21.5278   31.4860 C   0  0  0  0  0  0  0  0  0  0  0  0
  -23.2800  -16.4007   27.4219 C   0  0  0  0  0  0  0  0  0  0  0  0
  -22.1800  -18.6079   27.8540 C   0  0  0  0  0  0  0  0  0  0  0  0
  -21.6684  -16.6536   29.3174 C   0  0  0  0  0  0  0  0  0  0  0  0
  -25.5937  -20.7686   33.1293 C   0  0  0  0  0  0  0  0  0  0  0  0
  -31.9380  -18.7788   25.0484 C   0  0  0  0  0  0  0  0  0  0  0  0
  -31.6705  -13.1366   23.7681 C   0  0  0  0  0  0  0  0  0  0  0  0
  -32.8991  -19.1110   26.1919 C   0  0  0  0  0  0  0  0  0  0  0  0
  -32.4999  -18.4773   27.5195 C   0  0  0  0  0  0  0  0  0  1  0  0
  -23.9212  -17.7858   29.5043 C   0  0  1  0  0  0  0  0  0  0  0  0
  -23.4031  -20.6477   31.9355 C   0  0  2  0  0  0  0  0  0  0  0  0
  -22.7907  -17.3594   28.5257 C   0  0  0  0  0  0  0  0  0  0  0  0
  -25.9394  -11.6084   20.5344 N   0  0  0  0  0  0  0  0  0  0  0  0
  -26.2813  -12.9004   20.3933 N   0  0  0  0  0  0  0  0  0  0  0  0
  -25.9515  -16.4438   29.9526 N   0  0  0  0  0  0  0  0  0  0  0  0
  -30.0938  -12.6318   20.4338 N   0  0  0  0  0  0  0  0  0  0  0  0
  -25.4056  -15.1009   20.4304 N   0  0  0  0  0  0  0  0  0  0  0  0
  -21.7906  -12.5265   21.2677 N   0  0  0  0  0  0  0  0  0  0  0  0
  -27.1564  -13.0290   29.5246 N   0  0  0  0  0  0  0  0  0  0  0  0
  -23.4809  -18.6723   30.5761 N   0  0  0  0  0  0  0  0  0  0  0  0
  -30.7390  -12.8574   22.6980 N   0  0  0  0  0  0  0  0  0  0  0  0
  -24.4123  -21.5081   32.6153 N   0  3  0  0  0  0  0  0  0  0  0  0
  -22.5152  -14.6839   20.9862 O   0  0  0  0  0  0  0  0  0  0  0  0
  -26.1958  -14.6459   28.1516 O   0  0  0  0  0  0  0  0  0  0  0  0
  -23.8953  -15.8537   30.8800 O   0  0  0  0  0  0  0  0  0  0  0  0
  -24.9253  -20.4154   30.0738 O   0  0  0  0  0  0  0  0  0  0  0  0
  -32.2577  -13.2250   21.0201 O   0  0  0  0  0  0  0  0  0  0  0  0
  -21.7153   -6.9668   21.6120 O   0  0  0  0  0  0  0  0  0  0  0  0
  -31.1964  -18.9379   27.8734 O   0  0  0  0  0  0  0  0  0  1  0  0
  -18.1494   -6.8798   25.8168 F   0  0  0  0  0  0  0  0  0  0  0  0
  -21.9829   -5.1301   23.6608 F   0  0  0  0  0  0  0  0  0  0  0  0
  -34.2795  -17.5818   23.4289 Cl  0  0  0  0  0  0  0  0  0  0  0  0
  -29.3288  -14.3217   25.3829 Cl  0  0  0  0  0  0  0  0  0  0  0  0
  1  2  1  0  0  0  0
  1  5  2  0  0  0  0
  2  6  2  0  0  0  0
  3  8  2  0  0  0  0
  3 17  1  0  0  0  0
  4  9  1  0  0  0  0
  4 17  2  0  0  0  0
  5 19  1  0  0  0  0
  6 21  1  0  0  0  0
  7 10  2  0  0  0  0
  7 20  1  0  0  0  0
  8 25  1  0  0  0  0
  9 25  2  0  0  0  0
 10 26  1  0  0  0  0
 11 12  2  0  0  0  0
 11 27  1  0  0  0  0
 12 28  1  0  0  0  0
 13 22  1  0  0  0  0
 13 26  2  0  0  0  0
 14 23  1  0  0  0  0
 14 31  2  0  0  0  0
 15 24  2  0  0  0  0
 15 30  1  0  0  0  0
 16 28  2  0  0  0  0
 16 29  1  0  0  0  0
 17 32  1  0  0  0  0
 18 32  1  0  0  0  0
 18 33  2  0  0  0  0
 18 34  1  0  0  0  0
 19 21  2  0  0  0  0
 19 39  1  0  0  0  0
 20 22  2  0  0  0  0
 20 40  1  0  0  0  0
 21 48  1  0  0  0  0
 22 41  1  0  0  0  0
 23 30  2  0  0  0  0
 23 56  1  0  0  0  0
 24 31  1  0  0  0  0
 24 57  1  0  0  0  0
 25 78  1  0  0  0  0
 26 79  1  0  0  0  0
 27 29  2  0  0  0  0
 27 78  1  0  0  0  0
 28 80  1  0  0  0  0
 29 81  1  0  0  0  0
 30 82  1  0  0  0  0
 31 83  1  0  0  0  0
 32 63  2  0  0  0  0
 33 64  1  0  0  0  0
 33 67  1  0  0  0  0
 34 68  1  0  0  0  0
 34 73  2  0  0  0  0
 35 49  1  0  0  0  0
 35 69  1  0  0  0  0
 35 74  2  0  0  0  0
 36 60  1  0  0  0  0
 36 65  1  0  0  0  0
 36 75  2  0  0  0  0
 37 61  1  0  0  0  0
 37 70  1  0  0  0  0
 37 76  2  0  0  0  0
 38 66  1  0  0  0  0
 38 71  1  0  0  0  0
 38 77  2  0  0  0  0
 39 42  1  0  0  0  0
 40 49  1  0  0  0  0
 41 65  1  0  0  0  0
 42 44  1  0  0  0  0
 43 45  1  0  0  0  0
 43 46  1  0  0  0  0
 44 48  1  0  0  0  0
 45 50  1  0  0  0  0
 46 66  1  0  0  0  0
 47 50  1  0  0  0  0
 47 66  1  0  0  0  0
 48 69  1  0  0  0  0
 49 65  1  0  0  0  0
 50 64  1  0  0  0  0
 51 61  1  0  0  0  0
 52 62  1  0  0  0  0
 53 62  1  0  0  0  0
 54 62  1  0  0  0  0
 55 72  1  0  0  0  0
 56 58  1  0  0  0  0
 57 71  1  0  0  0  0
 58 59  1  0  0  0  0
 59 79  1  0  0  0  0
 60 62  1  0  0  0  0
 60 70  1  0  0  0  0
 61 72  1  0  0  0  0
 63 64  1  0  0  0  0
M  CHG  1  72   1
M  ISO  4  38 100  59 101  71 100  79 101
M  END
> <Batch ID>
0024

> <Smiles>
CNC(C)C(=O)NC(C(=O)N1Cc2cc([101O:1][101CH2:1]CCc3cc(Cl)c(C[100NH:0][100C:0](=O)N4CCCC(n5nc(-c6ccc(Oc7ccc(F)cc7F)cc6)c(C(N)=O)c5N)C4)cc3Cl)ccc2CC1C(=O)NC1CCCc2ccccc21)C(C)(C)C

> <Shape>
0.136

> <Color>
0.182

> <Negative vol penalty>
0.000

$$$$

  -OEChem-04052316223D

 85 93  0     1  0  0  0  0  0999 V2000
  -22.3054   -7.8553   21.9349 C   0  0  0  0  0  0  0  0  0  0  0  0
  -23.1694   -8.6135   21.1513 C   0  0  0  0  0  0  0  0  0  0  0  0
  -27.6490  -25.7468   21.7267 C   0  0  0  0  0  0  0  0  0  0  0  0
  -29.1950  -26.1840   19.9223 C   0  0  0  0  0  0  0  0  0  0  0  0
  -21.1684   -8.4441   22.4865 C   0  0  0  0  0  0  0  0  0  0  0  0
  -22.8962   -9.9608   20.9179 C   0  0  0  0  0  0  0  0  0  0  0  0
  -26.9929  -12.8921   21.4366 C   0  0  0  0  0  0  0  0  0  0  0  0
  -27.2822  -27.0925   21.7385 C   0  0  0  0  0  0  0  0  0  0  0  0
  -28.8281  -27.5297   19.9340 C   0  0  0  0  0  0  0  0  0  0  0  0
  -27.9061  -12.9023   20.3832 C   0  0  0  0  0  0  0  0  0  0  0  0
  -25.2947  -29.1484   19.9339 C   0  0  0  0  0  0  0  0  0  0  0  0
  -23.9347  -29.4489   20.0088 C   0  0  0  0  0  0  0  0  0  0  0  0
  -26.9712  -14.9839   19.6008 C   0  0  0  0  0  0  0  0  0  0  0  0
  -34.6174  -15.3689   18.0491 C   0  0  0  0  0  0  0  0  0  0  0  0
  -24.3125  -30.6439   22.0744 C   0  0  0  0  0  0  0  0  0  0  0  0
  -28.6055  -25.2926   20.8186 C   0  0  0  0  0  0  0  0  0  0  0  0
  -28.3991  -22.8679   20.0531 C   0  0  0  0  0  0  0  0  0  0  0  0
  -20.8862   -9.8017   22.2677 C   0  0  0  0  0  0  0  0  0  0  0  0
  -26.0533  -13.9239   21.5740 C   0  0  0  0  0  0  0  0  0  0  0  0
  -21.7535  -10.5680   21.4660 C   0  0  0  0  0  0  0  0  0  0  0  0
  -26.0489  -14.9858   20.6583 C   0  0  0  0  0  0  0  0  0  0  0  0
  -33.6953  -16.2372   17.4755 C   0  0  0  0  0  0  0  0  0  0  0  0
  -27.8717  -27.9840   20.8421 C   0  0  0  0  0  0  0  0  0  0  0  0
  -27.8935  -13.9468   19.4634 C   0  0  0  0  0  0  0  0  0  0  0  0
  -26.1637  -29.5956   20.9293 C   0  0  0  0  0  0  0  0  0  0  0  0
  -23.4436  -30.1967   21.0790 C   0  0  0  0  0  0  0  0  0  0  0  0
  -25.6725  -30.3434   21.9995 C   0  0  0  0  0  0  0  0  0  0  0  0
  -33.3096  -17.3843   18.1602 C   0  0  0  0  0  0  0  0  0  0  0  0
  -28.9852  -23.9027   20.8064 C   0  0  0  0  0  0  0  0  0  0  0  0
  -35.1202  -15.6903   19.2996 C   0  0  0  0  0  0  0  0  0  0  0  0
  -33.8708  -17.6154   19.4058 C   0  0  0  0  0  0  0  0  0  0  0  0
  -29.1155  -21.7468   20.3942 C   0  0  0  0  0  0  0  0  0  0  0  0
  -27.3049  -22.9158   19.1279 C   0  0  0  0  0  0  0  0  0  0  0  0
  -22.8791  -14.0867   21.5371 C   0  0  0  0  0  0  0  0  0  0  0  0
  -23.4168  -17.1781   22.3597 C   0  0  0  0  0  0  0  0  0  0  0  0
  -25.5417  -19.8486   22.3593 C   0  0  0  0  0  0  0  0  0  0  0  0
  -33.9515  -19.1713   21.3854 C   0  0  0  0  0  0  0  0  0  0  0  0
  -19.6199  -10.3823   22.8459 C   0  0  0  0  0  0  0  0  0  0  0  0
  -25.0925  -13.9120   22.7313 C   0  0  0  0  0  0  0  0  0  0  0  0
  -25.0737  -16.1279   20.7731 C   0  0  0  0  0  0  0  0  0  0  0  0
  -19.6006  -11.9086   22.8596 C   0  0  0  0  0  0  0  0  0  0  0  0
  -32.5055  -20.9981   24.0778 C   0  0  0  0  0  0  0  0  0  0  0  0
  -20.0618  -12.4605   21.5144 C   0  0  0  0  0  0  0  0  0  0  0  0
  -31.4125  -21.8315   23.4048 C   0  0  0  0  0  0  0  0  0  0  0  0
  -33.7431  -20.8645   23.1922 C   0  0  0  0  0  0  0  0  0  0  0  0
  -32.3912  -21.2036   21.1609 C   0  0  0  0  0  0  0  0  0  0  0  0
  -21.5044  -12.0387   21.2104 C   0  0  1  0  0  0  0  0  0  0  0  0
  -23.8432  -14.7504   22.4792 C   0  0  1  0  0  0  0  0  0  0  0  0
  -31.0996  -21.3118   21.9879 C   0  0  2  0  0  0  0  0  0  0  0  0
  -36.1116  -14.7807   19.9455 C   0  0  0  0  0  0  0  0  0  0  0  0
  -34.2576  -15.8885   15.0566 C   0  0  0  0  0  0  0  0  0  0  0  0
  -25.6865  -22.2508   23.0707 C   0  0  0  0  0  0  0  0  0  0  0  0
  -21.6635  -17.9814   19.9953 C   0  0  0  0  0  0  0  0  0  0  0  0
  -22.6014  -20.2957   20.1756 C   0  0  0  0  0  0  0  0  0  0  0  0
  -21.2982  -19.3289   22.0702 C   0  0  0  0  0  0  0  0  0  0  0  0
  -27.8132  -19.2951   24.1740 C   0  0  0  0  0  0  0  0  0  0  0  0
  -31.4521  -14.3654   17.2907 C   0  0  0  0  0  0  0  0  0  0  0  0
  -30.6460  -13.0672   17.1768 C   0  0  0  0  0  0  0  0  0  0  0  0
  -32.3741  -14.5524   16.0790 C   0  0  0  0  0  0  0  0  0  0  0  0
  -29.7018  -12.8695   18.3565 C   0  0  0  0  0  0  0  0  0  1  0  0
  -33.1381  -15.8934   16.1049 C   0  0  1  0  0  0  0  0  0  0  0  0
  -23.6274  -18.4654   21.5998 C   0  0  1  0  0  0  0  0  0  0  0  0
  -25.9562  -20.8062   23.4619 C   0  0  2  0  0  0  0  0  0  0  0  0
  -22.3149  -18.9955   20.9567 C   0  0  0  0  0  0  0  0  0  0  0  0
  -29.9961  -23.4768   21.5685 N   0  0  0  0  0  0  0  0  0  0  0  0
  -34.7694  -16.7951   19.9952 N   0  0  0  0  0  0  0  0  0  0  0  0
  -30.0506  -22.1620   21.2961 N   0  0  0  0  0  0  0  0  0  0  0  0
  -24.1502  -16.0677   21.9181 N   0  0  0  0  0  0  0  0  0  0  0  0
  -33.3703  -20.3631   21.8677 N   0  0  0  0  0  0  0  0  0  0  0  0
  -29.0304  -20.4561   20.0077 N   0  0  0  0  0  0  0  0  0  0  0  0
  -26.6815  -24.1490   18.8936 N   0  0  0  0  0  0  0  0  0  0  0  0
  -33.4962  -18.7753   20.1283 N   0  0  0  0  0  0  0  0  0  0  0  0
  -22.4373  -12.8489   21.9639 N   0  0  0  0  0  0  0  0  0  0  0  0
  -24.2518  -19.3943   22.5357 N   0  0  0  0  0  0  0  0  0  0  0  0
  -27.4105  -20.6619   23.7537 N   0  3  0  0  0  0  0  0  0  0  0  0
  -26.8815  -21.8922   18.5391 O   0  0  0  0  0  0  0  0  0  0  0  0
  -22.5585  -14.6561   20.5004 O   0  0  0  0  0  0  0  0  0  0  0  0
  -22.6360  -17.1602   23.3144 O   0  0  0  0  0  0  0  0  0  0  0  0
  -26.2862  -19.5379   21.4322 O   0  0  0  0  0  0  0  0  0  0  0  0
  -34.7711  -18.5333   22.0512 O   0  0  0  0  0  0  0  0  0  0  0  0
  -27.5137  -29.2971   20.8531 O   0  0  0  0  0  0  0  0  0  0  0  0
  -28.7833  -13.9588   18.4338 O   0  0  0  0  0  0  0  0  0  1  0  0
  -22.1378  -30.4865   21.1500 F   0  0  0  0  0  0  0  0  0  0  0  0
  -26.5026  -30.7767   22.9581 F   0  0  0  0  0  0  0  0  0  0  0  0
  -32.1661  -18.4771   17.4627 Cl  0  0  0  0  0  0  0  0  0  0  0  0
  1  2  1  0  0  0  0
  1  5  2  0  0  0  0
  2  6  2  0  0  0  0
  3  8  2  0  0  0  0
  3 16  1  0  0  0  0
  4  9  1  0  0  0  0
  4 16  2  0  0  0  0
  5 18  1  0  0  0  0
  6 20  1  0  0  0  0
  7 10  2  0  0  0  0
  7 19  1  0  0  0  0
  8 23  1  0  0  0  0
  9 23  2  0  0  0  0
 10 24  1  0  0  0  0
 11 12  2  0  0  0  0
 11 25  1  0  0  0  0
 12 26  1  0  0  0  0
 13 21  1  0  0  0  0
 13 24  2  0  0  0  0
 14 22  1  0  0  0  0
 14 30  2  0  0  0  0
 15 26  2  0  0  0  0
 15 27  1  0  0  0  0
 16 29  1  0  0  0  0
 17 29  1  0  0  0  0
 17 32  2  0  0  0  0
 17 33  1  0  0  0  0
 18 20  2  0  0  0  0
 18 38  1  0  0  0  0
 19 21  2  0  0  0  0
 19 39  1  0  0  0  0
 20 47  1  0  0  0  0
 21 40  1  0  0  0  0
 22 28  2  0  0  0  0
 22 61  1  0  0  0  0
 23 81  1  0  0  0  0
 24 82  1  0  0  0  0
 25 27  2  0  0  0  0
 25 81  1  0  0  0  0
 26 83  1  0  0  0  0
 27 84  1  0  0  0  0
 28 31  1  0  0  0  0
 28 85  1  0  0  0  0
 29 65  2  0  0  0  0
 30 50  1  0  0  0  0
 30 66  1  0  0  0  0
 31 66  2  0  0  0  0
 31 72  1  0  0  0  0
 32 67  1  0  0  0  0
 32 70  1  0  0  0  0
 33 71  1  0  0  0  0
 33 76  2  0  0  0  0
 34 48  1  0  0  0  0
 34 73  1  0  0  0  0
 34 77  2  0  0  0  0
 35 62  1  0  0  0  0
 35 68  1  0  0  0  0
 35 78  2  0  0  0  0
 36 63  1  0  0  0  0
 36 74  1  0  0  0  0
 36 79  2  0  0  0  0
 37 69  1  0  0  0  0
 37 72  1  0  0  0  0
 37 80  2  0  0  0  0
 38 41  1  0  0  0  0
 39 48  1  0  0  0  0
 40 68  1  0  0  0  0
 41 43  1  0  0  0  0
 42 44  1  0  0  0  0
 42 45  1  0  0  0  0
 43 47  1  0  0  0  0
 44 49  1  0  0  0  0
 45 69  1  0  0  0  0
 46 49  1  0  0  0  0
 46 69  1  0  0  0  0
 47 73  1  0  0  0  0
 48 68  1  0  0  0  0
 49 67  1  0  0  0  0
 51 61  1  0  0  0  0
 52 63  1  0  0  0  0
 53 64  1  0  0  0  0
 54 64  1  0  0  0  0
 55 64  1  0  0  0  0
 56 75  1  0  0  0  0
 57 58  1  0  0  0  0
 57 59  1  0  0  0  0
 58 60  1  0  0  0  0
 59 61  1  0  0  0  0
 60 82  1  0  0  0  0
 62 64  1  0  0  0  0
 62 74  1  0  0  0  0
 63 75  1  0  0  0  0
 65 67  1  0  0  0  0
M  CHG  1  75   1
M  ISO  4  37 100  60 101  72 100  82 101
M  END
> <Batch ID>
0024

> <Smiles>
CNC(C)C(=O)NC(C(=O)N1Cc2cc([101O:1][101CH2:1]CCCC(C)c3cc(C)nc([100NH:0][100C:0](=O)N4CCCC(n5nc(-c6ccc(Oc7ccc(F)cc7F)cc6)c(C(N)=O)c5N)C4)c3Cl)ccc2CC1C(=O)NC1CCCc2ccccc21)C(C)(C)C

> <Shape>
0.200

> <Color>
0.073

> <Negative vol penalty>
0.000

$$$$

  -OEChem-04052316223D

 85 93  0     1  0  0  0  0  0999 V2000
  -30.1632  -11.8563   19.8838 C   0  0  0  0  0  0  0  0  0  0  0  0
  -30.1655  -13.1378   20.4251 C   0  0  0  0  0  0  0  0  0  0  0  0
  -29.0361  -23.5286   21.3818 C   0  0  0  0  0  0  0  0  0  0  0  0
  -29.5244  -23.6228   19.0175 C   0  0  0  0  0  0  0  0  0  0  0  0
  -29.1407  -11.4679   19.0192 C   0  0  0  0  0  0  0  0  0  0  0  0
  -29.1458  -14.0321   20.1012 C   0  0  0  0  0  0  0  0  0  0  0  0
  -26.6775  -18.2817   23.7556 C   0  0  0  0  0  0  0  0  0  0  0  0
  -29.1139  -22.1365   21.3424 C   0  0  0  0  0  0  0  0  0  0  0  0
  -29.6022  -22.2306   18.9781 C   0  0  0  0  0  0  0  0  0  0  0  0
  -26.8993  -19.6521   23.8837 C   0  0  0  0  0  0  0  0  0  0  0  0
  -29.5743  -18.6850   18.1795 C   0  0  0  0  0  0  0  0  0  0  0  0
  -28.9348  -18.0294   17.1276 C   0  0  0  0  0  0  0  0  0  0  0  0
  -25.0303  -20.0851   22.4213 C   0  0  0  0  0  0  0  0  0  0  0  0
  -26.8199  -18.9603   17.8332 C   0  0  0  0  0  0  0  0  0  0  0  0
  -29.2413  -24.2718   20.2193 C   0  0  0  0  0  0  0  0  0  0  0  0
  -30.2099  -26.6135   20.5117 C   0  0  0  0  0  0  0  0  0  0  0  0
  -28.1028  -12.3546   18.6921 C   0  0  0  0  0  0  0  0  0  0  0  0
  -25.6355  -17.8016   22.9494 C   0  0  0  0  0  0  0  0  0  0  0  0
  -28.1092  -13.6556   19.2304 C   0  0  0  0  0  0  0  0  0  0  0  0
  -24.7958  -18.7082   22.2868 C   0  0  0  0  0  0  0  0  0  0  0  0
  -29.3970  -21.4875   20.1406 C   0  0  0  0  0  0  0  0  0  0  0  0
  -26.0775  -20.5540   23.2142 C   0  0  0  0  0  0  0  0  0  0  0  0
  -28.8367  -19.4782   19.0584 C   0  0  0  0  0  0  0  0  0  0  0  0
  -27.5576  -18.1671   16.9543 C   0  0  0  0  0  0  0  0  0  0  0  0
  -27.4595  -19.6159   18.8852 C   0  0  0  0  0  0  0  0  0  0  0  0
  -26.7011  -30.1097   25.0010 C   0  0  0  0  0  0  0  0  0  0  0  0
  -29.1605  -25.7098   20.2592 C   0  0  0  0  0  0  0  0  0  0  0  0
  -25.9191  -29.2699   25.7558 C   0  0  0  0  0  0  0  0  0  0  0  0
  -25.8591  -30.5272   23.9529 C   0  0  0  0  0  0  0  0  0  0  0  0
  -29.6213  -27.8523   20.4387 C   0  0  0  0  0  0  0  0  0  0  0  0
  -31.5932  -26.3562   20.7876 C   0  0  0  0  0  0  0  0  0  0  0  0
  -25.4679  -15.9865   20.3453 C   0  0  0  0  0  0  0  0  0  0  0  0
  -22.2748  -16.2028   20.8740 C   0  0  0  0  0  0  0  0  0  0  0  0
  -19.6781  -17.9294   22.2608 C   0  0  0  0  0  0  0  0  0  0  0  0
  -25.6601  -31.3385   21.6091 C   0  0  0  0  0  0  0  0  0  0  0  0
  -27.0447  -11.9052   17.7158 C   0  0  0  0  0  0  0  0  0  0  0  0
  -25.3928  -16.3210   22.8430 C   0  0  0  0  0  0  0  0  0  0  0  0
  -23.6507  -18.2444   21.4252 C   0  0  0  0  0  0  0  0  0  0  0  0
  -25.7993  -12.7880   17.7183 C   0  0  0  0  0  0  0  0  0  0  0  0
  -25.0521  -29.2454   18.7998 C   0  0  0  0  0  0  0  0  0  0  0  0
  -26.1899  -14.2622   17.6831 C   0  0  0  0  0  0  0  0  0  0  0  0
  -26.1546  -28.1987   18.9570 C   0  0  0  0  0  0  0  0  0  0  0  0
  -24.4456  -29.6445   20.1455 C   0  0  0  0  0  0  0  0  0  0  0  0
  -26.5466  -29.0388   21.3046 C   0  0  0  0  0  0  0  0  0  0  0  0
  -27.0072  -14.6460   18.9225 C   0  0  1  0  0  0  0  0  0  0  0  0
  -24.6218  -15.9307   21.5858 C   0  0  1  0  0  0  0  0  0  0  0  0
  -27.2139  -28.6608   19.9731 C   0  0  1  0  0  0  0  0  0  0  0  0
  -26.2088  -28.5086   26.9863 C   0  0  0  0  0  0  0  0  0  0  0  0
  -17.1799  -17.8795   22.4928 C   0  0  0  0  0  0  0  0  0  0  0  0
  -21.9905  -17.1730   17.9951 C   0  0  0  0  0  0  0  0  0  0  0  0
  -19.6966  -17.9938   18.5718 C   0  0  0  0  0  0  0  0  0  0  0  0
  -20.2258  -15.5613   18.7319 C   0  0  0  0  0  0  0  0  0  0  0  0
  -27.0628  -32.5972   23.2287 C   0  0  0  0  0  0  0  0  0  0  0  0
  -19.8396  -17.7422   25.2100 C   0  0  0  0  0  0  0  0  0  0  0  0
  -24.4723  -26.2248   24.8061 C   0  0  0  0  0  0  0  0  0  0  0  0
  -24.2042  -24.9514   24.0013 C   0  0  0  0  0  0  0  0  0  0  0  0
  -23.2641  -27.1662   24.7737 C   0  0  0  0  0  0  0  0  0  0  0  0
  -25.3948  -23.9968   24.0601 C   0  0  0  0  0  0  0  0  0  0  0  0
  -23.4878  -28.4565   25.5703 C   0  0  0  0  0  0  0  0  0  0  0  0
  -25.1535  -22.7454   23.2278 C   0  0  0  0  0  0  0  0  0  1  0  0
  -21.1824  -17.1534   20.4472 C   0  0  1  0  0  0  0  0  0  0  0  0
  -18.5077  -17.4748   23.1140 C   0  0  2  0  0  0  0  0  0  0  0  0
  -20.7965  -16.9794   18.9511 C   0  0  0  0  0  0  0  0  0  0  0  0
  -27.9936  -26.3223   20.0421 N   0  0  0  0  0  0  0  0  0  0  0  0
  -24.6360  -29.9963   24.0313 N   0  0  0  0  0  0  0  0  0  0  0  0
  -24.7038  -29.2364   25.1377 N   0  0  0  0  0  0  0  0  0  0  0  0
  -28.3062  -27.6242   20.1581 N   0  0  0  0  0  0  0  0  0  0  0  0
  -23.4580  -16.7869   21.3478 N   0  0  0  0  0  0  0  0  0  0  0  0
  -25.4967  -30.0386   21.0942 N   0  0  0  0  0  0  0  0  0  0  0  0
  -30.1055  -29.1036   20.5878 N   0  0  0  0  0  0  0  0  0  0  0  0
  -32.0305  -25.0252   20.8256 N   0  0  0  0  0  0  0  0  0  0  0  0
  -26.1395  -14.8110   20.0690 N   0  0  0  0  0  0  0  0  0  0  0  0
  -20.0770  -16.9490   21.3771 N   0  0  0  0  0  0  0  0  0  0  0  0
  -26.2414  -31.4294   22.8921 N   0  0  0  0  0  0  0  0  0  0  0  0
  -18.5934  -18.0776   24.4743 N   0  3  0  0  0  0  0  0  0  0  0  0
  -32.4136  -27.2786   21.0104 O   0  0  0  0  0  0  0  0  0  0  0  0
  -25.5072  -17.0193   19.6868 O   0  0  0  0  0  0  0  0  0  0  0  0
  -22.0825  -14.9868   20.7967 O   0  0  0  0  0  0  0  0  0  0  0  0
  -20.1852  -19.0440   22.3651 O   0  0  0  0  0  0  0  0  0  0  0  0
  -25.3361  -32.3417   20.9620 O   0  0  0  0  0  0  0  0  0  0  0  0
  -29.4732  -20.1291   20.1019 O   0  0  0  0  0  0  0  0  0  0  0  0
  -26.2921  -21.8922   23.3369 O   0  0  0  0  0  0  0  0  0  1  0  0
  -26.9437  -17.5387   15.9431 F   0  0  0  0  0  0  0  0  0  0  0  0
  -26.7457  -20.3775   19.7256 F   0  0  0  0  0  0  0  0  0  0  0  0
  -28.3157  -30.5534   25.2595 Cl  0  0  0  0  0  0  0  0  0  0  0  0
  1  2  1  0  0  0  0
  1  5  2  0  0  0  0
  2  6  2  0  0  0  0
  3  8  2  0  0  0  0
  3 15  1  0  0  0  0
  4  9  1  0  0  0  0
  4 15  2  0  0  0  0
  5 17  1  0  0  0  0
  6 19  1  0  0  0  0
  7 10  2  0  0  0  0
  7 18  1  0  0  0  0
  8 21  1  0  0  0  0
  9 21  2  0  0  0  0
 10 22  1  0  0  0  0
 11 12  2  0  0  0  0
 11 23  1  0  0  0  0
 12 24  1  0  0  0  0
 13 20  1  0  0  0  0
 13 22  2  0  0  0  0
 14 24  2  0  0  0  0
 14 25  1  0  0  0  0
 15 27  1  0  0  0  0
 16 27  1  0  0  0  0
 16 30  2  0  0  0  0
 16 31  1  0  0  0  0
 17 19  2  0  0  0  0
 17 36  1  0  0  0  0
 18 20  2  0  0  0  0
 18 37  1  0  0  0  0
 19 45  1  0  0  0  0
 20 38  1  0  0  0  0
 21 81  1  0  0  0  0
 22 82  1  0  0  0  0
 23 25  2  0  0  0  0
 23 81  1  0  0  0  0
 24 83  1  0  0  0  0
 25 84  1  0  0  0  0
 26 28  2  0  0  0  0
 26 29  1  0  0  0  0
 26 85  1  0  0  0  0
 27 64  2  0  0  0  0
 28 48  1  0  0  0  0
 28 66  1  0  0  0  0
 29 65  2  0  0  0  0
 29 74  1  0  0  0  0
 30 67  1  0  0  0  0
 30 70  1  0  0  0  0
 31 71  1  0  0  0  0
 31 76  2  0  0  0  0
 32 46  1  0  0  0  0
 32 72  1  0  0  0  0
 32 77  2  0  0  0  0
 33 61  1  0  0  0  0
 33 68  1  0  0  0  0
 33 78  2  0  0  0  0
 34 62  1  0  0  0  0
 34 73  1  0  0  0  0
 34 79  2  0  0  0  0
 35 69  1  0  0  0  0
 35 74  1  0  0  0  0
 35 80  2  0  0  0  0
 36 39  1  0  0  0  0
 37 46  1  0  0  0  0
 38 68  1  0  0  0  0
 39 41  1  0  0  0  0
 40 42  1  0  0  0  0
 40 43  1  0  0  0  0
 41 45  1  0  0  0  0
 42 47  1  0  0  0  0
 43 69  1  0  0  0  0
 44 47  1  0  0  0  0
 44 69  1  0  0  0  0
 45 72  1  0  0  0  0
 46 68  1  0  0  0  0
 47 67  1  0  0  0  0
 49 62  1  0  0  0  0
 50 63  1  0  0  0  0
 51 63  1  0  0  0  0
 52 63  1  0  0  0  0
 53 74  1  0  0  0  0
 54 75  1  0  0  0  0
 55 56  1  0  0  0  0
 55 57  1  0  0  0  0
 56 58  1  0  0  0  0
 57 59  1  0  0  0  0
 58 60  1  0  0  0  0
 59 66  1  0  0  0  0
 60 82  1  0  0  0  0
 61 63  1  0  0  0  0
 61 73  1  0  0  0  0
 62 75  1  0  0  0  0
 64 67  1  0  0  0  0
 65 66  1  0  0  0  0
M  CHG  1  75   1
M  ISO  4  35 100  60 101  74 100  82 101
M  END
> <Batch ID>
0024

> <Smiles>
CNC(C)C(=O)NC(C(=O)N1Cc2cc([101O:1][101CH2:1]CCCCCn3nc([100N:0](C)[100C:0](=O)N4CCCC(n5nc(-c6ccc(Oc7ccc(F)cc7F)cc6)c(C(N)=O)c5N)C4)c(Cl)c3C)ccc2CC1C(=O)NC1CCCc2ccccc21)C(C)(C)C

> <Shape>
0.234

> <Color>
0.085

> <Negative vol penalty>
0.000

$$$$

  -OEChem-04052316223D

 87 95  0     1  0  0  0  0  0999 V2000
  -17.8136  -30.9998   25.9010 C   0  0  0  0  0  0  0  0  0  0  0  0
  -19.0341  -30.4200   26.2319 C   0  0  0  0  0  0  0  0  0  0  0  0
  -23.0659  -10.3653   22.3176 C   0  0  0  0  0  0  0  0  0  0  0  0
  -22.7002  -10.1440   19.9397 C   0  0  0  0  0  0  0  0  0  0  0  0
  -17.2937  -30.8423   24.6169 C   0  0  0  0  0  0  0  0  0  0  0  0
  -19.7350  -29.6815   25.2792 C   0  0  0  0  0  0  0  0  0  0  0  0
  -26.4217  -28.0897   23.2614 C   0  0  0  0  0  0  0  0  0  0  0  0
  -22.6722   -9.0399   22.5015 C   0  0  0  0  0  0  0  0  0  0  0  0
  -22.3065   -8.8185   20.1236 C   0  0  0  0  0  0  0  0  0  0  0  0
  -27.2296  -26.9878   22.9843 C   0  0  0  0  0  0  0  0  0  0  0  0
  -19.7785   -7.3000   22.6548 C   0  0  0  0  0  0  0  0  0  0  0  0
  -18.8996   -7.0252   23.7024 C   0  0  0  0  0  0  0  0  0  0  0  0
  -26.2724  -26.8491   20.7744 C   0  0  0  0  0  0  0  0  0  0  0  0
  -24.0750  -21.6454   18.2314 C   0  0  0  0  0  0  0  0  0  0  0  0
  -20.5372   -5.5479   24.6888 C   0  0  0  0  0  0  0  0  0  0  0  0
  -23.0799  -10.9174   21.0366 C   0  0  0  0  0  0  0  0  0  0  0  0
  -24.7887  -12.7608   20.6014 C   0  0  0  0  0  0  0  0  0  0  0  0
  -17.9932  -30.1096   23.6451 C   0  0  0  0  0  0  0  0  0  0  0  0
  -25.5236  -28.5737   22.2992 C   0  0  0  0  0  0  0  0  0  0  0  0
  -19.2234  -29.5129   23.9813 C   0  0  0  0  0  0  0  0  0  0  0  0
  -25.4560  -27.9589   21.0409 C   0  0  0  0  0  0  0  0  0  0  0  0
  -24.5306  -20.4053   17.7841 C   0  0  0  0  0  0  0  0  0  0  0  0
  -26.2197  -22.0612   19.2632 C   0  0  0  0  0  0  0  0  0  0  0  0
  -22.2925   -8.2665   21.4046 C   0  0  0  0  0  0  0  0  0  0  0  0
  -27.1530  -26.3656   21.7418 C   0  0  0  0  0  0  0  0  0  0  0  0
  -21.0367   -6.6987   22.6241 C   0  0  0  0  0  0  0  0  0  0  0  0
  -19.2789   -6.1492   24.7195 C   0  0  0  0  0  0  0  0  0  0  0  0
  -21.4161   -5.8227   23.6411 C   0  0  0  0  0  0  0  0  0  0  0  0
  -24.9196  -22.4734   18.9709 C   0  0  0  0  0  0  0  0  0  0  0  0
  -25.8307  -19.9930   18.0765 C   0  0  0  0  0  0  0  0  0  0  0  0
  -26.6752  -20.8210   18.8160 C   0  0  0  0  0  0  0  0  0  0  0  0
  -23.4860  -12.2867   20.8460 C   0  0  0  0  0  0  0  0  0  0  0  0
  -24.6443  -14.1226   20.4960 C   0  0  0  0  0  0  0  0  0  0  0  0
  -26.0193  -12.0351   20.4801 C   0  0  0  0  0  0  0  0  0  0  0  0
  -22.3651  -28.8919   22.1382 C   0  0  0  0  0  0  0  0  0  0  0  0
  -23.0505  -30.4070   19.3530 C   0  0  0  0  0  0  0  0  0  0  0  0
  -25.2266  -30.8676   16.7648 C   0  0  0  0  0  0  0  0  0  0  0  0
  -21.9193  -18.5924   18.5618 C   0  0  0  0  0  0  0  0  0  0  0  0
  -17.3686  -29.9271   22.2845 C   0  0  0  0  0  0  0  0  0  0  0  0
  -24.6782  -29.7798   22.6042 C   0  0  0  0  0  0  0  0  0  0  0  0
  -24.5229  -28.4523   19.9664 C   0  0  0  0  0  0  0  0  0  0  0  0
  -18.3528  -29.4441   21.2223 C   0  0  0  0  0  0  0  0  0  0  0  0
  -20.7014  -17.1074   21.5599 C   0  0  0  0  0  0  0  0  0  0  0  0
  -19.1914  -28.2878   21.7578 C   0  0  0  0  0  0  0  0  0  0  0  0
  -21.4198  -15.7581   21.6177 C   0  0  0  0  0  0  0  0  0  0  0  0
  -20.3435  -17.4952   20.1269 C   0  0  0  0  0  0  0  0  0  0  0  0
  -22.1926  -16.1298   19.2379 C   0  0  0  0  0  0  0  0  0  0  0  0
  -20.0253  -28.7253   22.9680 C   0  0  1  0  0  0  0  0  0  0  0  0
  -23.4301  -29.8707   21.7316 C   0  0  1  0  0  0  0  0  0  0  0  0
  -22.6237  -15.7221   20.6571 C   0  0  2  0  0  0  0  0  0  0  0  0
  -25.4945  -32.1412   14.6192 C   0  0  0  0  0  0  0  0  0  0  0  0
  -28.9551  -22.1052   23.2322 C   0  0  0  0  0  0  0  0  0  0  0  0
  -21.0976  -28.5047   17.9828 C   0  0  0  0  0  0  0  0  0  0  0  0
  -22.1017  -29.1668   15.7870 C   0  0  0  0  0  0  0  0  0  0  0  0
  -20.9641  -30.8771   17.2025 C   0  0  0  0  0  0  0  0  0  0  0  0
  -27.6482  -32.2521   17.7537 C   0  0  0  0  0  0  0  0  0  0  0  0
  -26.0876  -22.8022   22.3200 C   0  0  0  0  0  0  0  0  0  0  0  0
  -23.5868  -19.5545   16.9956 C   0  0  0  0  0  0  0  0  0  0  0  0
  -27.1202  -22.9589   20.0595 C   0  0  0  0  0  0  0  0  0  0  0  0
  -28.3014  -24.4538   22.5678 C   0  0  0  0  0  0  0  0  0  1  0  0
  -23.2170  -29.9777   17.9153 C   0  0  1  0  0  0  0  0  0  0  0  0
  -25.7670  -32.1288   16.1153 C   0  0  2  0  0  0  0  0  0  0  0  0
  -28.5572  -23.0283   22.0920 C   0  0  2  0  0  0  0  0  0  0  0  0
  -21.8614  -29.6209   17.2426 C   0  0  0  0  0  0  0  0  0  0  0  0
  -22.5806  -13.2676   20.8934 N   0  0  0  0  0  0  0  0  0  0  0  0
  -23.3156  -14.3717   20.6772 N   0  0  0  0  0  0  0  0  0  0  0  0
  -23.7123  -29.6307   20.3149 N   0  0  0  0  0  0  0  0  0  0  0  0
  -21.5289  -17.4426   19.2679 N   0  0  0  0  0  0  0  0  0  0  0  0
  -25.5255  -15.1193   20.2669 N   0  0  0  0  0  0  0  0  0  0  0  0
  -25.9887  -10.6405   20.6154 N   0  0  0  0  0  0  0  0  0  0  0  0
  -21.1814  -29.4823   22.5381 N   0  0  0  0  0  0  0  0  0  0  0  0
  -23.9495  -31.0505   17.2512 N   0  0  0  0  0  0  0  0  0  0  0  0
  -23.0574  -18.4583   17.7760 N   0  0  0  0  0  0  0  0  0  0  0  0
  -27.2388  -32.2301   16.3258 N   0  3  0  0  0  0  0  0  0  0  0  0
  -27.3023  -22.5003   21.4824 N   0  3  1  0  0  0  0  0  0  0  0  0
  -27.1161  -12.6081   20.2747 O   0  0  0  0  0  0  0  0  0  0  0  0
  -22.5993  -27.6900   22.0910 O   0  0  0  0  0  0  0  0  0  0  0  0
  -22.3645  -31.3989   19.6124 O   0  0  0  0  0  0  0  0  0  0  0  0
  -25.8715  -29.8234   16.8304 O   0  0  0  0  0  0  0  0  0  0  0  0
  -21.3026  -19.6610   18.6312 O   0  0  0  0  0  0  0  0  0  0  0  0
  -21.9085   -6.9731   21.5837 O   0  0  0  0  0  0  0  0  0  0  0  0
  -27.9401  -25.2894   21.4690 O   0  0  0  0  0  0  0  0  0  1  0  0
  -18.4354   -5.8867   25.7263 F   0  0  0  0  0  0  0  0  0  0  0  0
  -22.6240   -5.2429   23.6177 F   0  0  0  0  0  0  0  0  0  0  0  0
  -24.3143  -24.0008   19.5030 Cl  0  0  0  0  0  0  0  0  0  0  0  0
  -26.3652  -18.4429   17.5056 Cl  0  0  0  0  0  0  0  0  0  0  0  0
  -28.2985  -20.3308   19.1938 Cl  0  0  0  0  0  0  0  0  0  0  0  0
  1  2  1  0  0  0  0
  1  5  2  0  0  0  0
  2  6  2  0  0  0  0
  3  8  2  0  0  0  0
  3 16  1  0  0  0  0
  4  9  1  0  0  0  0
  4 16  2  0  0  0  0
  5 18  1  0  0  0  0
  6 20  1  0  0  0  0
  7 10  2  0  0  0  0
  7 19  1  0  0  0  0
  8 24  1  0  0  0  0
  9 24  2  0  0  0  0
 10 25  1  0  0  0  0
 11 12  2  0  0  0  0
 11 26  1  0  0  0  0
 12 27  1  0  0  0  0
 13 21  1  0  0  0  0
 13 25  2  0  0  0  0
 14 22  1  0  0  0  0
 14 29  2  0  0  0  0
 15 27  2  0  0  0  0
 15 28  1  0  0  0  0
 16 32  1  0  0  0  0
 17 32  1  0  0  0  0
 17 33  2  0  0  0  0
 17 34  1  0  0  0  0
 18 20  2  0  0  0  0
 18 39  1  0  0  0  0
 19 21  2  0  0  0  0
 19 40  1  0  0  0  0
 20 48  1  0  0  0  0
 21 41  1  0  0  0  0
 22 30  2  0  0  0  0
 22 58  1  0  0  0  0
 23 29  1  0  0  0  0
 23 31  2  0  0  0  0
 23 59  1  0  0  0  0
 24 81  1  0  0  0  0
 25 82  1  0  0  0  0
 26 28  2  0  0  0  0
 26 81  1  0  0  0  0
 27 83  1  0  0  0  0
 28 84  1  0  0  0  0
 29 85  1  0  0  0  0
 30 31  1  0  0  0  0
 30 86  1  0  0  0  0
 31 87  1  0  0  0  0
 32 65  2  0  0  0  0
 33 66  1  0  0  0  0
 33 69  1  0  0  0  0
 34 70  1  0  0  0  0
 34 76  2  0  0  0  0
 35 49  1  0  0  0  0
 35 71  1  0  0  0  0
 35 77  2  0  0  0  0
 36 61  1  0  0  0  0
 36 67  1  0  0  0  0
 36 78  2  0  0  0  0
 37 62  1  0  0  0  0
 37 72  1  0  0  0  0
 37 79  2  0  0  0  0
 38 68  1  0  0  0  0
 38 73  1  0  0  0  0
 38 80  2  0  0  0  0
 39 42  1  0  0  0  0
 40 49  1  0  0  0  0
 41 67  1  0  0  0  0
 42 44  1  0  0  0  0
 43 45  1  0  0  0  0
 43 46  1  0  0  0  0
 44 48  1  0  0  0  0
 45 50  1  0  0  0  0
 46 68  1  0  0  0  0
 47 50  1  0  0  0  0
 47 68  1  0  0  0  0
 48 71  1  0  0  0  0
 49 67  1  0  0  0  0
 50 66  1  0  0  0  0
 51 62  1  0  0  0  0
 52 63  1  0  0  0  0
 53 64  1  0  0  0  0
 54 64  1  0  0  0  0
 55 64  1  0  0  0  0
 56 74  1  0  0  0  0
 57 75  1  0  0  0  0
 58 73  1  0  0  0  0
 59 75  1  0  0  0  0
 60 63  1  0  0  0  0
 60 82  1  0  0  0  0
 61 64  1  0  0  0  0
 61 72  1  0  0  0  0
 62 74  1  0  0  0  0
 63 75  1  0  0  0  0
 65 66  1  0  0  0  0
M  CHG  2  74   1  75   1
M  ISO  4  38 100  60 101  73 100  82 101
M  END
> <Batch ID>
0024

> <Smiles>
CNC(C)C(=O)NC(C(=O)N1Cc2cc([101O:1][101CH2:1]C(C)N(C)Cc3c(Cl)cc(C[100NH:0][100C:0](=O)N4CCCC(n5nc(-c6ccc(Oc7ccc(F)cc7F)cc6)c(C(N)=O)c5N)C4)c(Cl)c3Cl)ccc2CC1C(=O)NC1CCCc2ccccc21)C(C)(C)C

> <Shape>
0.212

> <Color>
0.108

> <Negative vol penalty>
0.000

$$$$

  -OEChem-04052316223D

 86 94  0     1  0  0  0  0  0999 V2000
  -26.4308  -34.6631   21.3858 C   0  0  0  0  0  0  0  0  0  0  0  0
  -26.9734  -33.6164   22.1244 C   0  0  0  0  0  0  0  0  0  0  0  0
  -23.1534   -9.7668   19.9865 C   0  0  0  0  0  0  0  0  0  0  0  0
  -23.8483   -9.9469   22.2934 C   0  0  0  0  0  0  0  0  0  0  0  0
  -25.0929  -34.6195   20.9960 C   0  0  0  0  0  0  0  0  0  0  0  0
  -26.1781  -32.5259   22.4745 C   0  0  0  0  0  0  0  0  0  0  0  0
  -28.5173  -28.0966   21.7299 C   0  0  0  0  0  0  0  0  0  0  0  0
  -22.4664   -8.5903   20.2853 C   0  0  0  0  0  0  0  0  0  0  0  0
  -23.1612   -8.7704   22.5922 C   0  0  0  0  0  0  0  0  0  0  0  0
  -29.4589  -27.7060   22.6810 C   0  0  0  0  0  0  0  0  0  0  0  0
  -23.6465   -5.4433   22.2375 C   0  0  0  0  0  0  0  0  0  0  0  0
  -24.2964   -4.4964   23.0290 C   0  0  0  0  0  0  0  0  0  0  0  0
  -27.8232  -26.2507   23.6938 C   0  0  0  0  0  0  0  0  0  0  0  0
  -22.5417   -4.6724   24.6804 C   0  0  0  0  0  0  0  0  0  0  0  0
  -23.8444  -10.4451   20.9905 C   0  0  0  0  0  0  0  0  0  0  0  0
  -24.0525  -12.9744   20.7313 C   0  0  0  0  0  0  0  0  0  0  0  0
  -24.2833  -33.5234   21.3333 C   0  0  0  0  0  0  0  0  0  0  0  0
  -27.2162  -27.5745   21.7602 C   0  0  0  0  0  0  0  0  0  0  0  0
  -24.8277  -32.4682   22.0899 C   0  0  0  0  0  0  0  0  0  0  0  0
  -26.8678  -26.6343   22.7404 C   0  0  0  0  0  0  0  0  0  0  0  0
  -29.5329  -19.8713   21.2413 C   0  0  0  0  0  0  0  0  0  0  0  0
  -30.8914  -20.1505   21.3410 C   0  0  0  0  0  0  0  0  0  0  0  0
  -22.4702   -8.0921   21.5881 C   0  0  0  0  0  0  0  0  0  0  0  0
  -29.1111  -26.7851   23.6649 C   0  0  0  0  0  0  0  0  0  0  0  0
  -22.4441   -6.0048   22.6674 C   0  0  0  0  0  0  0  0  0  0  0  0
  -23.7441   -4.1109   24.2505 C   0  0  0  0  0  0  0  0  0  0  0  0
  -21.8918   -5.6193   23.8889 C   0  0  0  0  0  0  0  0  0  0  0  0
  -29.1112  -18.5626   21.0343 C   0  0  0  0  0  0  0  0  0  0  0  0
  -24.5549  -11.6602   20.6824 C   0  0  0  0  0  0  0  0  0  0  0  0
  -31.7806  -19.0940   21.2278 C   0  0  0  0  0  0  0  0  0  0  0  0
  -30.0802  -17.5773   20.9346 C   0  0  0  0  0  0  0  0  0  0  0  0
  -25.1121  -13.7614   20.3516 C   0  0  0  0  0  0  0  0  0  0  0  0
  -22.7449  -13.4419   21.0882 C   0  0  0  0  0  0  0  0  0  0  0  0
  -24.3118  -28.8097   22.1377 C   0  0  0  0  0  0  0  0  0  0  0  0
  -23.3619  -25.7803   21.4723 C   0  0  0  0  0  0  0  0  0  0  0  0
  -24.1134  -22.4516   21.4303 C   0  0  0  0  0  0  0  0  0  0  0  0
  -30.5069  -15.1174   20.5981 C   0  0  0  0  0  0  0  0  0  0  0  0
  -22.8301  -33.5429   20.9300 C   0  0  0  0  0  0  0  0  0  0  0  0
  -26.2201  -27.9858   20.7109 C   0  0  0  0  0  0  0  0  0  0  0  0
  -25.4902  -26.0288   22.8042 C   0  0  0  0  0  0  0  0  0  0  0  0
  -22.1544  -32.1771   21.0204 C   0  0  0  0  0  0  0  0  0  0  0  0
  -29.5903  -12.5141   18.3487 C   0  0  0  0  0  0  0  0  0  0  0  0
  -22.4946  -31.4999   22.3443 C   0  0  0  0  0  0  0  0  0  0  0  0
  -28.1572  -12.1680   18.7593 C   0  0  0  0  0  0  0  0  0  0  0  0
  -30.4582  -12.8616   19.5569 C   0  0  0  0  0  0  0  0  0  0  0  0
  -28.4776  -13.5567   20.8464 C   0  0  0  0  0  0  0  0  0  0  0  0
  -24.0035  -31.2565   22.4678 C   0  0  1  0  0  0  0  0  0  0  0  0
  -24.7729  -27.7785   21.1469 C   0  0  1  0  0  0  0  0  0  0  0  0
  -27.5484  -13.2627   19.6574 C   0  0  2  0  0  0  0  0  0  0  0  0
  -28.5444  -20.9895   21.3590 C   0  0  0  0  0  0  0  0  0  0  0  0
  -33.2521  -19.3320   21.3269 C   0  0  0  0  0  0  0  0  0  0  0  0
  -23.8179  -20.0035   20.9647 C   0  0  0  0  0  0  0  0  0  0  0  0
  -21.7382  -25.8557   24.0545 C   0  0  0  0  0  0  0  0  0  0  0  0
  -21.5594  -23.3614   23.9328 C   0  0  0  0  0  0  0  0  0  0  0  0
  -20.5773  -24.7702   22.1236 C   0  0  0  0  0  0  0  0  0  0  0  0
  -25.3210  -22.6991   18.7397 C   0  0  0  0  0  0  0  0  0  0  0  0
  -31.3826  -21.5584   21.5655 C   0  0  0  0  0  0  0  0  0  0  0  0
  -31.2651  -22.0312   23.0190 C   0  0  0  0  0  0  0  0  0  0  0  0
  -31.7566  -23.4685   23.2236 C   0  0  0  0  0  0  0  0  0  0  0  0
  -31.5922  -23.9060   24.6815 C   0  0  0  0  0  0  0  0  0  0  0  0
  -32.1315  -25.3101   24.9560 C   0  0  0  0  0  0  0  0  0  0  0  0
  -31.3982  -26.4075   24.1963 C   0  0  0  0  0  0  0  0  0  1  0  0
  -23.0896  -24.5412   22.2905 C   0  0  1  0  0  0  0  0  0  0  0  0
  -23.9370  -21.3925   20.3571 C   0  0  2  0  0  0  0  0  0  0  0  0
  -21.7666  -24.6448   23.1006 C   0  0  0  0  0  0  0  0  0  0  0  0
  -25.8341  -11.6111   20.3014 N   0  0  0  0  0  0  0  0  0  0  0  0
  -31.4087  -17.8100   21.0264 N   0  0  0  0  0  0  0  0  0  0  0  0
  -26.1445  -12.9042   20.1074 N   0  0  0  0  0  0  0  0  0  0  0  0
  -24.5497  -26.4675   21.7600 N   0  0  0  0  0  0  0  0  0  0  0  0
  -29.8204  -13.9082   20.3585 N   0  0  0  0  0  0  0  0  0  0  0  0
  -25.2522  -15.0962   20.2059 N   0  0  0  0  0  0  0  0  0  0  0  0
  -21.7747  -12.4986   21.4533 N   0  0  0  0  0  0  0  0  0  0  0  0
  -29.6812  -16.2342   20.7231 N   0  0  0  0  0  0  0  0  0  0  0  0
  -24.3969  -30.1098   21.6773 N   0  0  0  0  0  0  0  0  0  0  0  0
  -23.1337  -23.4192   21.3591 N   0  0  0  0  0  0  0  0  0  0  0  0
  -25.1003  -21.4000   19.4258 N   0  3  0  0  0  0  0  0  0  0  0  0
  -22.4410  -14.6588   21.0677 O   0  0  0  0  0  0  0  0  0  0  0  0
  -23.9073  -28.4522   23.2378 O   0  0  0  0  0  0  0  0  0  0  0  0
  -22.5541  -26.1217   20.6048 O   0  0  0  0  0  0  0  0  0  0  0  0
  -25.0268  -22.4214   22.2522 O   0  0  0  0  0  0  0  0  0  0  0  0
  -31.7382  -15.1635   20.6589 O   0  0  0  0  0  0  0  0  0  0  0  0
  -21.7997   -6.9442   21.8801 O   0  0  0  0  0  0  0  0  0  0  0  0
  -30.0280  -26.4027   24.5949 O   0  0  0  0  0  0  0  0  0  1  0  0
  -24.3676   -3.2005   25.0097 F   0  0  0  0  0  0  0  0  0  0  0  0
  -20.7364   -6.1544   24.3066 F   0  0  0  0  0  0  0  0  0  0  0  0
  -27.4269  -18.1919   20.9069 Cl  0  0  0  0  0  0  0  0  0  0  0  0
  1  2  1  0  0  0  0
  1  5  2  0  0  0  0
  2  6  2  0  0  0  0
  3  8  2  0  0  0  0
  3 15  1  0  0  0  0
  4  9  1  0  0  0  0
  4 15  2  0  0  0  0
  5 17  1  0  0  0  0
  6 19  1  0  0  0  0
  7 10  2  0  0  0  0
  7 18  1  0  0  0  0
  8 23  1  0  0  0  0
  9 23  2  0  0  0  0
 10 24  1  0  0  0  0
 11 12  2  0  0  0  0
 11 25  1  0  0  0  0
 12 26  1  0  0  0  0
 13 20  1  0  0  0  0
 13 24  2  0  0  0  0
 14 26  2  0  0  0  0
 14 27  1  0  0  0  0
 15 29  1  0  0  0  0
 16 29  1  0  0  0  0
 16 32  2  0  0  0  0
 16 33  1  0  0  0  0
 17 19  2  0  0  0  0
 17 38  1  0  0  0  0
 18 20  2  0  0  0  0
 18 39  1  0  0  0  0
 19 47  1  0  0  0  0
 20 40  1  0  0  0  0
 21 22  2  0  0  0  0
 21 28  1  0  0  0  0
 21 50  1  0  0  0  0
 22 30  1  0  0  0  0
 22 57  1  0  0  0  0
 23 82  1  0  0  0  0
 24 83  1  0  0  0  0
 25 27  2  0  0  0  0
 25 82  1  0  0  0  0
 26 84  1  0  0  0  0
 27 85  1  0  0  0  0
 28 31  2  0  0  0  0
 28 86  1  0  0  0  0
 29 66  2  0  0  0  0
 30 51  1  0  0  0  0
 30 67  2  0  0  0  0
 31 67  1  0  0  0  0
 31 73  1  0  0  0  0
 32 68  1  0  0  0  0
 32 71  1  0  0  0  0
 33 72  1  0  0  0  0
 33 77  2  0  0  0  0
 34 48  1  0  0  0  0
 34 74  1  0  0  0  0
 34 78  2  0  0  0  0
 35 63  1  0  0  0  0
 35 69  1  0  0  0  0
 35 79  2  0  0  0  0
 36 64  1  0  0  0  0
 36 75  1  0  0  0  0
 36 80  2  0  0  0  0
 37 70  1  0  0  0  0
 37 73  1  0  0  0  0
 37 81  2  0  0  0  0
 38 41  1  0  0  0  0
 39 48  1  0  0  0  0
 40 69  1  0  0  0  0
 41 43  1  0  0  0  0
 42 44  1  0  0  0  0
 42 45  1  0  0  0  0
 43 47  1  0  0  0  0
 44 49  1  0  0  0  0
 45 70  1  0  0  0  0
 46 49  1  0  0  0  0
 46 70  1  0  0  0  0
 47 74  1  0  0  0  0
 48 69  1  0  0  0  0
 49 68  1  0  0  0  0
 52 64  1  0  0  0  0
 53 65  1  0  0  0  0
 54 65  1  0  0  0  0
 55 65  1  0  0  0  0
 56 76  1  0  0  0  0
 57 58  1  0  0  0  0
 58 59  1  0  0  0  0
 59 60  1  0  0  0  0
 60 61  1  0  0  0  0
 61 62  1  0  0  0  0
 62 83  1  0  0  0  0
 63 65  1  0  0  0  0
 63 75  1  0  0  0  0
 64 76  1  0  0  0  0
 66 68  1  0  0  0  0
M  CHG  1  76   1
M  ISO  4  37 100  62 101  73 100  83 101
M  END
> <Batch ID>
0024

> <Smiles>
CNC(C)C(=O)NC(C(=O)N1Cc2cc([101O:1][101CH2:1]CCCCCc3c(C)nc([100NH:0][100C:0](=O)N4CCCC(n5nc(-c6ccc(Oc7ccc(F)cc7F)cc6)c(C(N)=O)c5N)C4)c(Cl)c3C)ccc2CC1C(=O)NC1CCCc2ccccc21)C(C)(C)C

> <Shape>
0.257

> <Color>
0.200

> <Negative vol penalty>
0.000

$$$$

  -OEChem-04052316223D

 95103  0     1  0  0  0  0  0999 V2000
  -29.8802  -25.6719   11.9835 C   0  0  0  0  0  0  0  0  0  0  0  0
  -28.7506  -25.9666   12.7402 C   0  0  0  0  0  0  0  0  0  0  0  0
  -22.9574  -10.1139   19.8847 C   0  0  0  0  0  0  0  0  0  0  0  0
  -23.8982   -9.7652   22.0826 C   0  0  0  0  0  0  0  0  0  0  0  0
  -30.9498  -24.9927   12.5653 C   0  0  0  0  0  0  0  0  0  0  0  0
  -28.6896  -25.5812   14.0790 C   0  0  0  0  0  0  0  0  0  0  0  0
  -25.9824  -28.6097   18.6621 C   0  0  0  0  0  0  0  0  0  0  0  0
  -22.1866   -8.9607   20.0317 C   0  0  0  0  0  0  0  0  0  0  0  0
  -23.1274   -8.6120   22.2296 C   0  0  0  0  0  0  0  0  0  0  0  0
  -24.7406  -28.4631   19.2789 C   0  0  0  0  0  0  0  0  0  0  0  0
  -19.9263   -7.8375   22.9870 C   0  0  0  0  0  0  0  0  0  0  0  0
  -19.2646   -7.6525   24.2008 C   0  0  0  0  0  0  0  0  0  0  0  0
  -25.7638  -27.1277   21.0077 C   0  0  0  0  0  0  0  0  0  0  0  0
  -20.4757   -5.5908   24.5469 C   0  0  0  0  0  0  0  0  0  0  0  0
  -23.8133  -10.5161   20.9102 C   0  0  0  0  0  0  0  0  0  0  0  0
  -24.2537  -13.0201   21.1198 C   0  0  0  0  0  0  0  0  0  0  0  0
  -30.9059  -24.6073   13.9144 C   0  0  0  0  0  0  0  0  0  0  0  0
  -27.1242  -28.0063   19.2085 C   0  0  0  0  0  0  0  0  0  0  0  0
  -29.7591  -24.8950   14.6789 C   0  0  0  0  0  0  0  0  0  0  0  0
  -27.0193  -27.2703   20.3974 C   0  0  0  0  0  0  0  0  0  0  0  0
  -23.7804  -22.2808   21.3792 C   0  0  0  0  0  0  0  0  0  0  0  0
  -21.6054  -21.7910   22.3101 C   0  0  0  0  0  0  0  0  0  0  0  0
  -21.8496  -23.5484   20.6703 C   0  0  0  0  0  0  0  0  0  0  0  0
  -22.2716   -8.2098   21.2041 C   0  0  0  0  0  0  0  0  0  0  0  0
  -24.6307  -27.7196   20.4503 C   0  0  0  0  0  0  0  0  0  0  0  0
  -20.8627   -6.8991   22.5530 C   0  0  0  0  0  0  0  0  0  0  0  0
  -19.5393   -6.5292   24.9808 C   0  0  0  0  0  0  0  0  0  0  0  0
  -21.1374   -5.7758   23.3329 C   0  0  0  0  0  0  0  0  0  0  0  0
  -22.9740  -21.5318   22.2361 C   0  0  0  0  0  0  0  0  0  0  0  0
  -23.2182  -23.2892   20.5963 C   0  0  0  0  0  0  0  0  0  0  0  0
  -21.0432  -22.7994   21.5272 C   0  0  0  0  0  0  0  0  0  0  0  0
  -24.6102  -11.7070   20.7587 C   0  0  0  0  0  0  0  0  0  0  0  0
  -25.3447  -13.7795   20.7742 C   0  0  0  0  0  0  0  0  0  0  0  0
  -23.0444  -13.5096   21.7146 C   0  0  0  0  0  0  0  0  0  0  0  0
  -29.1919  -25.8062   18.2146 C   0  0  0  0  0  0  0  0  0  0  0  0
  -21.2538  -25.7848   20.3272 C   0  0  0  0  0  0  0  0  0  0  0  0
  -30.7398  -26.5828   20.9575 C   0  0  0  0  0  0  0  0  0  0  0  0
  -30.5719  -27.8667   24.1151 C   0  0  0  0  0  0  0  0  0  0  0  0
  -30.8649  -14.5875   20.6353 C   0  0  0  0  0  0  0  0  0  0  0  0
  -32.0671  -23.8333   14.4865 C   0  0  0  0  0  0  0  0  0  0  0  0
  -28.4609  -28.1962   18.5456 C   0  0  0  0  0  0  0  0  0  0  0  0
  -28.2183  -26.6194   21.0355 C   0  0  0  0  0  0  0  0  0  0  0  0
  -32.0779  -23.7905   16.0124 C   0  0  0  0  0  0  0  0  0  0  0  0
  -29.4374  -12.6102   18.0412 C   0  0  0  0  0  0  0  0  0  0  0  0
  -30.6905  -23.4494   16.5467 C   0  0  0  0  0  0  0  0  0  0  0  0
  -28.0278  -12.3023   18.5495 C   0  0  0  0  0  0  0  0  0  0  0  0
  -30.4565  -12.6261   19.1784 C   0  0  0  0  0  0  0  0  0  0  0  0
  -28.7055  -13.2084   20.8120 C   0  0  0  0  0  0  0  0  0  0  0  0
  -29.6656  -24.5154   16.1409 C   0  0  1  0  0  0  0  0  0  0  0  0
  -29.4680  -27.1096   18.9094 C   0  0  1  0  0  0  0  0  0  0  0  0
  -27.6334  -13.2367   19.7091 C   0  0  2  0  0  0  0  0  0  0  0  0
  -20.7766  -20.9653   23.2412 C   0  0  0  0  0  0  0  0  0  0  0  0
  -20.7012  -26.9690   19.5652 C   0  0  0  0  0  0  0  0  0  0  0  0
  -31.9938  -28.3368   26.1286 C   0  0  0  0  0  0  0  0  0  0  0  0
  -27.4202  -20.8304   18.4623 C   0  0  0  0  0  0  0  0  0  0  0  0
  -30.7176  -23.6144   21.6631 C   0  0  0  0  0  0  0  0  0  0  0  0
  -31.2608  -24.2431   24.0248 C   0  0  0  0  0  0  0  0  0  0  0  0
  -32.8579  -24.7960   22.1901 C   0  0  0  0  0  0  0  0  0  0  0  0
  -30.0279  -30.7720   23.9651 C   0  0  0  0  0  0  0  0  0  0  0  0
  -25.2438  -22.0037   21.3000 C   0  0  0  0  0  0  0  0  0  0  0  0
  -21.7199  -26.0229   21.7537 C   0  0  0  0  0  0  0  0  0  0  0  0
  -29.3246  -18.2069   21.4563 C   0  0  0  0  0  0  0  0  0  0  0  0
  -28.9952  -19.4686   20.6534 C   0  0  0  0  0  0  0  0  0  0  0  0
  -30.7999  -17.8065   21.3798 C   0  0  0  0  0  0  0  0  0  0  0  0
  -27.5113  -19.8327   20.7829 C   0  0  0  0  0  0  0  0  0  0  0  0
  -31.1230  -16.5334   22.1538 C   0  0  0  0  0  0  0  0  0  0  0  0
  -23.1998  -26.3700   21.7870 C   0  0  0  0  0  0  0  0  0  1  0  0
  -30.6965  -26.0932   22.3849 C   0  0  1  0  0  0  0  0  0  0  0  0
  -31.4291  -28.8945   24.8314 C   0  0  2  0  0  0  0  0  0  0  0  0
  -27.1038  -21.0439   19.9369 C   0  0  2  0  0  0  0  0  0  0  0  0
  -31.3601  -24.6972   22.5529 C   0  0  0  0  0  0  0  0  0  0  0  0
  -25.8321  -11.6329   20.2245 N   0  0  0  0  0  0  0  0  0  0  0  0
  -21.3145  -24.5695   19.8699 N   0  0  0  0  0  0  0  0  0  0  0  0
  -26.2529  -12.9090   20.2473 N   0  0  0  0  0  0  0  0  0  0  0  0
  -29.5022  -26.8287   20.3461 N   0  0  0  0  0  0  0  0  0  0  0  0
  -30.0238  -13.5325   20.2448 N   0  0  0  0  0  0  0  0  0  0  0  0
  -25.6062  -15.1002   20.8726 N   0  0  0  0  0  0  0  0  0  0  0  0
  -22.0243  -12.5935   22.0051 N   0  0  0  0  0  0  0  0  0  0  0  0
  -29.7978  -25.6883   16.9783 N   0  0  0  0  0  0  0  0  0  0  0  0
  -31.3022  -27.1442   23.1954 N   0  0  0  0  0  0  0  0  0  0  0  0
  -30.3761  -15.4032   21.6484 N   0  0  0  0  0  0  0  0  0  0  0  0
  -30.6244  -30.1072   25.1522 N   0  3  0  0  0  0  0  0  0  0  0  0
  -25.6417  -21.2793   20.0614 N   0  3  0  0  0  0  0  0  0  0  0  0
  -22.8671  -14.7258   21.9655 O   0  0  0  0  0  0  0  0  0  0  0  0
  -28.4830  -24.9689   18.7605 O   0  0  0  0  0  0  0  0  0  0  0  0
  -31.8316  -26.7481   20.4077 O   0  0  0  0  0  0  0  0  0  0  0  0
  -29.3749  -27.7171   24.3506 O   0  0  0  0  0  0  0  0  0  0  0  0
  -31.9674  -14.7909   20.1156 O   0  0  0  0  0  0  0  0  0  0  0  0
  -21.5194   -7.0846   21.3480 O   0  0  0  0  0  0  0  0  0  0  0  0
  -23.4198  -27.5744   21.0540 O   0  0  0  0  0  0  0  0  0  1  0  0
  -18.9049   -6.3524   26.1472 F   0  0  0  0  0  0  0  0  0  0  0  0
  -22.0368   -4.8715   22.9218 F   0  0  0  0  0  0  0  0  0  0  0  0
  -23.5164  -20.5625   22.9883 F   0  0  0  0  0  0  0  0  0  0  0  0
  -23.9947  -24.0090   19.7725 F   0  0  0  0  0  0  0  0  0  0  0  0
  -19.3433  -23.1211   21.6193 Cl  0  0  0  0  0  0  0  0  0  0  0  0
  1  2  1  0  0  0  0
  1  5  2  0  0  0  0
  2  6  2  0  0  0  0
  3  8  2  0  0  0  0
  3 15  1  0  0  0  0
  4  9  1  0  0  0  0
  4 15  2  0  0  0  0
  5 17  1  0  0  0  0
  6 19  1  0  0  0  0
  7 10  2  0  0  0  0
  7 18  1  0  0  0  0
  8 24  1  0  0  0  0
  9 24  2  0  0  0  0
 10 25  1  0  0  0  0
 11 12  2  0  0  0  0
 11 26  1  0  0  0  0
 12 27  1  0  0  0  0
 13 20  1  0  0  0  0
 13 25  2  0  0  0  0
 14 27  2  0  0  0  0
 14 28  1  0  0  0  0
 15 32  1  0  0  0  0
 16 32  1  0  0  0  0
 16 33  2  0  0  0  0
 16 34  1  0  0  0  0
 17 19  2  0  0  0  0
 17 40  1  0  0  0  0
 18 20  2  0  0  0  0
 18 41  1  0  0  0  0
 19 49  1  0  0  0  0
 20 42  1  0  0  0  0
 21 29  1  0  0  0  0
 21 30  2  0  0  0  0
 21 60  1  0  0  0  0
 22 29  2  0  0  0  0
 22 31  1  0  0  0  0
 22 52  1  0  0  0  0
 23 30  1  0  0  0  0
 23 31  2  0  0  0  0
 23 73  1  0  0  0  0
 24 89  1  0  0  0  0
 25 90  1  0  0  0  0
 26 28  2  0  0  0  0
 26 89  1  0  0  0  0
 27 91  1  0  0  0  0
 28 92  1  0  0  0  0
 29 93  1  0  0  0  0
 30 94  1  0  0  0  0
 31 95  1  0  0  0  0
 32 72  2  0  0  0  0
 33 74  1  0  0  0  0
 33 77  1  0  0  0  0
 34 78  1  0  0  0  0
 34 84  2  0  0  0  0
 35 50  1  0  0  0  0
 35 79  1  0  0  0  0
 35 85  2  0  0  0  0
 36 53  1  0  0  0  0
 36 61  1  0  0  0  0
 36 73  2  0  0  0  0
 37 68  1  0  0  0  0
 37 75  1  0  0  0  0
 37 86  2  0  0  0  0
 38 69  1  0  0  0  0
 38 80  1  0  0  0  0
 38 87  2  0  0  0  0
 39 76  1  0  0  0  0
 39 81  1  0  0  0  0
 39 88  2  0  0  0  0
 40 43  1  0  0  0  0
 41 50  1  0  0  0  0
 42 75  1  0  0  0  0
 43 45  1  0  0  0  0
 44 46  1  0  0  0  0
 44 47  1  0  0  0  0
 45 49  1  0  0  0  0
 46 51  1  0  0  0  0
 47 76  1  0  0  0  0
 48 51  1  0  0  0  0
 48 76  1  0  0  0  0
 49 79  1  0  0  0  0
 50 75  1  0  0  0  0
 51 74  1  0  0  0  0
 54 69  1  0  0  0  0
 55 70  1  0  0  0  0
 56 71  1  0  0  0  0
 57 71  1  0  0  0  0
 58 71  1  0  0  0  0
 59 82  1  0  0  0  0
 60 83  1  0  0  0  0
 61 67  1  0  0  0  0
 62 63  1  0  0  0  0
 62 64  1  0  0  0  0
 63 65  1  0  0  0  0
 64 66  1  0  0  0  0
 65 70  1  0  0  0  0
 66 81  1  0  0  0  0
 67 90  1  0  0  0  0
 68 71  1  0  0  0  0
 68 80  1  0  0  0  0
 69 82  1  0  0  0  0
 70 83  1  0  0  0  0
 72 74  1  0  0  0  0
M  CHG  2  82   1  83   1
M  ISO  4  39 100  67 101  81 100  90 101
M  END
> <Batch ID>
0024

> <Smiles>
C=C(C[101CH2:1][101O:1]c1ccc2c(c1)CN(C(=O)C(NC(=O)C(C)NC)C(C)(C)C)C(C(=O)NC1CCCc3ccccc31)C2)Nc1c(F)c(CNC(C)CCCCC[100NH:0][100C:0](=O)N2CCCC(n3nc(-c4ccc(Oc5ccc(F)cc5F)cc4)c(C(N)=O)c3N)C2)c(F)c(C)c1Cl

> <Shape>
0.276

> <Color>
0.187

> <Negative vol penalty>
0.000

$$$$

  -OEChem-04052316223D

 95103  0     1  0  0  0  0  0999 V2000
  -26.6684  -30.0934   12.7495 C   0  0  0  0  0  0  0  0  0  0  0  0
  -25.9798  -29.0697   13.3923 C   0  0  0  0  0  0  0  0  0  0  0  0
  -23.0045   -9.9585   19.9424 C   0  0  0  0  0  0  0  0  0  0  0  0
  -23.7973   -9.8945   22.2238 C   0  0  0  0  0  0  0  0  0  0  0  0
  -27.9848  -30.3793   13.1089 C   0  0  0  0  0  0  0  0  0  0  0  0
  -26.6077  -28.3305   14.3942 C   0  0  0  0  0  0  0  0  0  0  0  0
  -23.6442  -27.6334   18.4410 C   0  0  0  0  0  0  0  0  0  0  0  0
  -22.2488   -8.8090   20.1728 C   0  0  0  0  0  0  0  0  0  0  0  0
  -23.0415   -8.7450   22.4541 C   0  0  0  0  0  0  0  0  0  0  0  0
  -22.6573  -26.6532   18.3462 C   0  0  0  0  0  0  0  0  0  0  0  0
  -23.2795   -5.4354   21.8050 C   0  0  0  0  0  0  0  0  0  0  0  0
  -23.8914   -4.3834   22.4865 C   0  0  0  0  0  0  0  0  0  0  0  0
  -24.0643  -25.1265   19.5747 C   0  0  0  0  0  0  0  0  0  0  0  0
  -21.4352  -23.7116   15.2556 C   0  0  0  0  0  0  0  0  0  0  0  0
  -22.2171   -4.5339   24.2219 C   0  0  0  0  0  0  0  0  0  0  0  0
  -23.7788  -10.5013   20.9679 C   0  0  0  0  0  0  0  0  0  0  0  0
  -24.1529  -13.0240   20.9096 C   0  0  0  0  0  0  0  0  0  0  0  0
  -28.6260  -29.6497   14.1224 C   0  0  0  0  0  0  0  0  0  0  0  0
  -24.8550  -27.3636   19.0950 C   0  0  0  0  0  0  0  0  0  0  0  0
  -27.9344  -28.6060   14.7666 C   0  0  0  0  0  0  0  0  0  0  0  0
  -25.0639  -26.1059   19.6786 C   0  0  0  0  0  0  0  0  0  0  0  0
  -20.0571  -23.8863   15.1294 C   0  0  0  0  0  0  0  0  0  0  0  0
  -22.0506  -23.8923   16.4943 C   0  0  0  0  0  0  0  0  0  0  0  0
  -19.2944  -24.2418   16.2419 C   0  0  0  0  0  0  0  0  0  0  0  0
  -19.9098  -24.4225   17.4805 C   0  0  0  0  0  0  0  0  0  0  0  0
  -22.2673   -8.2022   21.4286 C   0  0  0  0  0  0  0  0  0  0  0  0
  -22.8685  -25.3986   18.9106 C   0  0  0  0  0  0  0  0  0  0  0  0
  -22.1365   -6.0368   22.3320 C   0  0  0  0  0  0  0  0  0  0  0  0
  -21.2879  -24.2478   17.6067 C   0  0  0  0  0  0  0  0  0  1  0  0
  -23.3602   -3.9326   23.6949 C   0  0  0  0  0  0  0  0  0  0  0  0
  -21.6053   -5.5860   23.5404 C   0  0  0  0  0  0  0  0  0  0  0  0
  -24.5601  -11.6884   20.7304 C   0  0  0  0  0  0  0  0  0  0  0  0
  -25.2498  -13.7685   20.5502 C   0  0  0  0  0  0  0  0  0  0  0  0
  -22.8957  -13.5451   21.3606 C   0  0  0  0  0  0  0  0  0  0  0  0
  -27.9095  -27.2888   18.2187 C   0  0  0  0  0  0  0  0  0  0  0  0
  -28.4047  -26.8345   21.3921 C   0  0  0  0  0  0  0  0  0  0  0  0
  -27.1742  -25.7757   24.3940 C   0  0  0  0  0  0  0  0  0  0  0  0
  -30.7489  -14.7101   20.6847 C   0  0  0  0  0  0  0  0  0  0  0  0
  -30.0656  -29.9642   14.4436 C   0  0  0  0  0  0  0  0  0  0  0  0
  -25.8986  -28.4404   19.2118 C   0  0  0  0  0  0  0  0  0  0  0  0
  -26.3381  -25.7724   20.4090 C   0  0  0  0  0  0  0  0  0  0  0  0
  -30.5343  -29.3807   15.7740 C   0  0  0  0  0  0  0  0  0  0  0  0
  -29.5451  -12.4051   18.2528 C   0  0  0  0  0  0  0  0  0  0  0  0
  -30.1012  -27.9235   15.9001 C   0  0  0  0  0  0  0  0  0  0  0  0
  -28.1102  -12.1188   18.6989 C   0  0  0  0  0  0  0  0  0  0  0  0
  -30.4823  -12.5818   19.4455 C   0  0  0  0  0  0  0  0  0  0  0  0
  -28.6107  -13.3007   20.8787 C   0  0  0  0  0  0  0  0  0  0  0  0
  -28.5731  -27.7981   15.8754 C   0  0  1  0  0  0  0  0  0  0  0  0
  -27.3007  -27.8899   19.4539 C   0  0  1  0  0  0  0  0  0  0  0  0
  -27.6174  -13.1702   19.7114 C   0  0  2  0  0  0  0  0  0  0  0  0
  -17.8167  -24.4288   16.1046 C   0  0  0  0  0  0  0  0  0  0  0  0
  -18.7163  -26.2798   18.6690 C   0  0  0  0  0  0  0  0  0  0  0  0
  -19.7329  -26.1641   13.0306 C   0  0  0  0  0  0  0  0  0  0  0  0
  -27.8264  -25.4911   26.8005 C   0  0  0  0  0  0  0  0  0  0  0  0
  -18.3307  -22.5648   13.7283 C   0  0  0  0  0  0  0  0  0  0  0  0
  -20.5029  -23.2473   12.7491 C   0  0  0  0  0  0  0  0  0  0  0  0
  -30.0266  -24.3569   20.6569 C   0  0  0  0  0  0  0  0  0  0  0  0
  -29.8384  -23.6121   23.0398 C   0  0  0  0  0  0  0  0  0  0  0  0
  -31.0127  -25.7431   22.4901 C   0  0  0  0  0  0  0  0  0  0  0  0
  -25.0697  -27.6460   25.3062 C   0  0  0  0  0  0  0  0  0  0  0  0
  -19.0976  -24.8034   18.6771 C   0  0  0  0  0  0  0  0  0  0  0  0
  -23.5340  -23.6998   16.6098 C   0  0  0  0  0  0  0  0  0  0  0  0
  -18.7629  -25.0020   13.2243 C   0  0  0  0  0  0  0  0  0  0  0  0
  -28.8405  -19.4934   19.9848 C   0  0  0  0  0  0  0  0  0  0  0  0
  -27.3474  -19.8080   19.8666 C   0  0  0  0  0  0  0  0  0  0  0  0
  -29.0917  -18.3459   20.9655 C   0  0  0  0  0  0  0  0  0  0  0  0
  -27.0961  -20.9297   18.8564 C   0  0  0  0  0  0  0  0  0  0  0  0
  -30.5825  -18.0064   21.0524 C   0  0  0  0  0  0  0  0  0  0  0  0
  -25.6107  -21.2368   18.6483 C   0  0  0  0  0  0  0  0  0  0  0  0
  -30.8616  -16.8260   21.9769 C   0  0  0  0  0  0  0  0  0  0  0  0
  -25.3686  -22.3728   17.6643 C   0  0  0  0  0  0  0  0  0  0  0  0
  -28.4942  -25.6307   22.2986 C   0  0  1  0  0  0  0  0  0  0  0  0
  -27.1918  -26.4136   25.7714 C   0  0  2  0  0  0  0  0  0  0  0  0
  -19.4227  -23.6866   13.7918 C   0  0  0  0  0  0  0  0  0  0  0  0
  -29.8197  -24.8410   22.1060 C   0  0  0  0  0  0  0  0  0  0  0  0
  -25.8174  -11.5871   20.2912 N   0  0  0  0  0  0  0  0  0  0  0  0
  -26.2097  -12.8686   20.1913 N   0  0  0  0  0  0  0  0  0  0  0  0
  -27.3308  -26.8566   20.4910 N   0  0  0  0  0  0  0  0  0  0  0  0
  -29.9584  -13.5936   20.3663 N   0  0  0  0  0  0  0  0  0  0  0  0
  -25.4771  -15.0985   20.5093 N   0  0  0  0  0  0  0  0  0  0  0  0
  -21.8765  -12.6406   21.6886 N   0  0  0  0  0  0  0  0  0  0  0  0
  -28.0147  -28.1684   17.1582 N   0  0  0  0  0  0  0  0  0  0  0  0
  -28.2848  -26.1248   23.6552 N   0  0  0  0  0  0  0  0  0  0  0  0
  -30.1745  -15.6240   21.5597 N   0  0  0  0  0  0  0  0  0  0  0  0
  -25.8041  -26.7281   26.2145 N   0  3  0  0  0  0  0  0  0  0  0  0
  -23.9099  -22.6290   17.5725 N   0  3  0  0  0  0  0  0  0  0  0  0
  -22.6769  -14.7768   21.4539 O   0  0  0  0  0  0  0  0  0  0  0  0
  -28.2594  -26.1144   18.2276 O   0  0  0  0  0  0  0  0  0  0  0  0
  -29.2522  -27.7260   21.4852 O   0  0  0  0  0  0  0  0  0  0  0  0
  -26.2677  -25.0383   24.0131 O   0  0  0  0  0  0  0  0  0  0  0  0
  -31.8805  -14.8827   20.2192 O   0  0  0  0  0  0  0  0  0  0  0  0
  -21.5298   -7.0806   21.6538 O   0  0  0  0  0  0  0  0  0  0  0  0
  -21.8912  -24.4239   18.8175 O   0  0  0  0  0  0  0  0  0  1  0  0
  -23.9469   -2.9213   24.3485 F   0  0  0  0  0  0  0  0  0  0  0  0
  -20.5068   -6.1589   24.0510 F   0  0  0  0  0  0  0  0  0  0  0  0
  1  2  1  0  0  0  0
  1  5  2  0  0  0  0
  2  6  2  0  0  0  0
  3  8  2  0  0  0  0
  3 16  1  0  0  0  0
  4  9  1  0  0  0  0
  4 16  2  0  0  0  0
  5 18  1  0  0  0  0
  6 20  1  0  0  0  0
  7 10  2  0  0  0  0
  7 19  1  0  0  0  0
  8 26  1  0  0  0  0
  9 26  2  0  0  0  0
 10 27  1  0  0  0  0
 11 12  2  0  0  0  0
 11 28  1  0  0  0  0
 12 30  1  0  0  0  0
 13 21  1  0  0  0  0
 13 27  2  0  0  0  0
 14 22  1  0  0  0  0
 14 23  2  0  0  0  0
 15 30  2  0  0  0  0
 15 31  1  0  0  0  0
 16 32  1  0  0  0  0
 17 32  1  0  0  0  0
 17 33  2  0  0  0  0
 17 34  1  0  0  0  0
 18 20  2  0  0  0  0
 18 39  1  0  0  0  0
 19 21  2  0  0  0  0
 19 40  1  0  0  0  0
 20 48  1  0  0  0  0
 21 41  1  0  0  0  0
 22 24  2  0  0  0  0
 22 74  1  0  0  0  0
 23 29  1  0  0  0  0
 23 62  1  0  0  0  0
 24 25  1  0  0  0  0
 24 51  1  0  0  0  0
 25 29  2  0  0  0  0
 25 61  1  0  0  0  0
 26 92  1  0  0  0  0
 27 93  1  0  0  0  0
 28 31  2  0  0  0  0
 28 92  1  0  0  0  0
 29 93  1  0  0  0  0
 30 94  1  0  0  0  0
 31 95  1  0  0  0  0
 32 76  2  0  0  0  0
 33 77  1  0  0  0  0
 33 80  1  0  0  0  0
 34 81  1  0  0  0  0
 34 87  2  0  0  0  0
 35 49  1  0  0  0  0
 35 82  1  0  0  0  0
 35 88  2  0  0  0  0
 36 72  1  0  0  0  0
 36 78  1  0  0  0  0
 36 89  2  0  0  0  0
 37 73  1  0  0  0  0
 37 83  1  0  0  0  0
 37 90  2  0  0  0  0
 38 79  1  0  0  0  0
 38 84  1  0  0  0  0
 38 91  2  0  0  0  0
 39 42  1  0  0  0  0
 40 49  1  0  0  0  0
 41 78  1  0  0  0  0
 42 44  1  0  0  0  0
 43 45  1  0  0  0  0
 43 46  1  0  0  0  0
 44 48  1  0  0  0  0
 45 50  1  0  0  0  0
 46 79  1  0  0  0  0
 47 50  1  0  0  0  0
 47 79  1  0  0  0  0
 48 82  1  0  0  0  0
 49 78  1  0  0  0  0
 50 77  1  0  0  0  0
 52 61  1  0  0  0  0
 53 63  1  0  0  0  0
 54 73  1  0  0  0  0
 55 74  1  0  0  0  0
 56 74  1  0  0  0  0
 57 75  1  0  0  0  0
 58 75  1  0  0  0  0
 59 75  1  0  0  0  0
 60 85  1  0  0  0  0
 62 86  1  0  0  0  0
 63 74  1  0  0  0  0
 64 65  1  0  0  0  0
 64 66  1  0  0  0  0
 65 67  1  0  0  0  0
 66 68  1  0  0  0  0
 67 69  1  0  0  0  0
 68 70  1  0  0  0  0
 69 71  1  0  0  0  0
 70 84  1  0  0  0  0
 71 86  1  0  0  0  0
 72 75  1  0  0  0  0
 72 83  1  0  0  0  0
 73 85  1  0  0  0  0
 76 77  1  0  0  0  0
M  CHG  2  85   1  86   1
M  ISO  4  29 101  38 100  84 100  93 101
M  END
> <Batch ID>
0024

> <Smiles>
CCc1c(C)c(C(C)(C)CC)cc(CNCCCCCCCC[100NH:0][100C:0](=O)N2CCCC(n3nc(-c4ccc(Oc5ccc(F)cc5F)cc4)c(C(N)=O)c3N)C2)[101c:1]1[101O:1]c1ccc2c(c1)CN(C(=O)C(NC(=O)C(C)NC)C(C)(C)C)C(C(=O)NC1CCCc3ccccc31)C2

> <Shape>
0.242

> <Color>
0.182

> <Negative vol penalty>
0.000

$$$$

  -OEChem-04052316223D

 89 97  0     1  0  0  0  0  0999 V2000
  -28.0478  -19.4193   17.7799 C   0  0  0  0  0  0  0  0  0  0  0  0
  -27.1788  -20.4993   17.8978 C   0  0  0  0  0  0  0  0  0  0  0  0
  -23.4201  -14.9038   20.1106 C   0  0  0  0  0  0  0  0  0  0  0  0
  -25.2382  -15.9858   21.2771 C   0  0  0  0  0  0  0  0  0  0  0  0
  -29.0552  -19.2303   18.7250 C   0  0  0  0  0  0  0  0  0  0  0  0
  -27.3161  -21.3904   18.9615 C   0  0  0  0  0  0  0  0  0  0  0  0
  -26.2638  -27.4228   18.8700 C   0  0  0  0  0  0  0  0  0  0  0  0
  -24.1811  -13.7397   20.0043 C   0  0  0  0  0  0  0  0  0  0  0  0
  -25.9992  -14.8217   21.1708 C   0  0  0  0  0  0  0  0  0  0  0  0
  -25.1704  -28.1904   19.2688 C   0  0  0  0  0  0  0  0  0  0  0  0
  -27.8487  -13.2613   18.8096 C   0  0  0  0  0  0  0  0  0  0  0  0
  -29.1812  -13.3916   18.4183 C   0  0  0  0  0  0  0  0  0  0  0  0
  -26.2357  -28.5923   21.3954 C   0  0  0  0  0  0  0  0  0  0  0  0
  -29.8900  -12.3835   20.4964 C   0  0  0  0  0  0  0  0  0  0  0  0
  -23.9487  -16.0269   20.7470 C   0  0  0  0  0  0  0  0  0  0  0  0
  -22.2856  -17.5800   21.9002 C   0  0  0  0  0  0  0  0  0  0  0  0
  -29.2110  -20.1250   19.7955 C   0  0  0  0  0  0  0  0  0  0  0  0
  -27.3484  -27.2249   19.7366 C   0  0  0  0  0  0  0  0  0  0  0  0
  -28.3257  -21.2124   19.9226 C   0  0  0  0  0  0  0  0  0  0  0  0
  -27.3428  -27.8240   21.0044 C   0  0  0  0  0  0  0  0  0  0  0  0
  -20.3089  -27.1967   23.2862 C   0  0  0  0  0  0  0  0  0  0  0  0
  -19.0955  -26.7124   23.7747 C   0  0  0  0  0  0  0  0  0  0  0  0
  -17.9093  -28.3465   22.4481 C   0  0  0  0  0  0  0  0  0  0  0  0
  -20.3226  -28.2559   22.3787 C   0  0  0  0  0  0  0  0  0  0  0  0
  -25.4707  -13.6986   20.5344 C   0  0  0  0  0  0  0  0  0  0  0  0
  -25.1549  -28.7729   20.5327 C   0  0  0  0  0  0  0  0  0  0  0  0
  -27.5368  -12.6922   20.0443 C   0  0  0  0  0  0  0  0  0  0  0  0
  -30.2018  -12.9526   19.2617 C   0  0  0  0  0  0  0  0  0  0  0  0
  -28.5575  -12.2532   20.8877 C   0  0  0  0  0  0  0  0  0  0  0  0
  -17.8957  -27.2873   23.3556 C   0  0  0  0  0  0  0  0  0  0  0  0
  -19.1228  -28.8308   21.9596 C   0  0  0  0  0  0  0  0  0  0  0  0
  -23.1633  -17.2299   20.8566 C   0  0  0  0  0  0  0  0  0  0  0  0
  -21.7903  -18.8079   21.5349 C   0  0  0  0  0  0  0  0  0  0  0  0
  -21.9483  -16.8597   23.0931 C   0  0  0  0  0  0  0  0  0  0  0  0
  -28.6860  -24.6915   21.1138 C   0  0  0  0  0  0  0  0  0  0  0  0
  -30.8843  -26.8689   22.0878 C   0  0  0  0  0  0  0  0  0  0  0  0
  -31.6248  -30.1274   22.7809 C   0  0  0  0  0  0  0  0  0  0  0  0
  -22.5471  -23.9593   19.5259 C   0  0  0  0  0  0  0  0  0  0  0  0
  -30.2852  -19.8528   20.8186 C   0  0  0  0  0  0  0  0  0  0  0  0
  -28.5322  -26.4163   19.2814 C   0  0  0  0  0  0  0  0  0  0  0  0
  -28.4914  -27.6588   21.9646 C   0  0  0  0  0  0  0  0  0  0  0  0
  -30.5982  -21.0538   21.7074 C   0  0  0  0  0  0  0  0  0  0  0  0
  -22.1337  -21.3284   17.1628 C   0  0  0  0  0  0  0  0  0  0  0  0
  -29.3093  -21.6940   22.2131 C   0  0  0  0  0  0  0  0  0  0  0  0
  -22.2985  -20.0574   17.9978 C   0  0  0  0  0  0  0  0  0  0  0  0
  -23.0653  -22.4409   17.6384 C   0  0  0  0  0  0  0  0  0  0  0  0
  -23.1318  -21.4881   19.9103 C   0  0  0  0  0  0  0  0  0  0  0  0
  -28.4581  -22.2147   21.0487 C   0  0  1  0  0  0  0  0  0  0  0  0
  -29.3536  -25.8560   20.4385 C   0  0  1  0  0  0  0  0  0  0  0  0
  -22.1730  -20.3558   19.5040 C   0  0  2  0  0  0  0  0  0  0  0  0
  -19.0565  -25.5791   24.7472 C   0  0  0  0  0  0  0  0  0  0  0  0
  -16.6007  -28.9336   22.0252 C   0  0  0  0  0  0  0  0  0  0  0  0
  -33.4923  -31.5932   23.5943 C   0  0  0  0  0  0  0  0  0  0  0  0
  -30.4119  -25.8854   24.9373 C   0  0  0  0  0  0  0  0  0  0  0  0
  -31.5401  -27.9610   25.7664 C   0  0  0  0  0  0  0  0  0  0  0  0
  -32.8071  -26.3277   24.3700 C   0  0  0  0  0  0  0  0  0  0  0  0
  -21.8346  -31.1254   21.9559 C   0  0  0  0  0  0  0  0  0  0  0  0
  -21.9852  -29.7488   24.0517 C   0  0  0  0  0  0  0  0  0  0  0  0
  -31.6554  -31.6833   20.2635 C   0  0  0  0  0  0  0  0  0  0  0  0
  -21.5923  -26.5743   23.7407 C   0  0  0  0  0  0  0  0  0  0  0  0
  -21.9369  -25.2496   23.0369 C   0  0  0  0  0  0  0  0  0  0  0  0
  -22.0375  -25.3512   21.5164 C   0  0  0  0  0  0  0  0  0  0  0  0
  -23.7858  -29.5413   22.3190 C   0  0  0  0  0  0  0  0  0  1  0  0
  -31.0359  -27.7716   23.2883 C   0  0  1  0  0  0  0  0  0  0  0  0
  -32.7984  -31.0016   22.3772 C   0  0  2  0  0  0  0  0  0  0  0  0
  -31.4261  -26.9881   24.5734 C   0  0  0  0  0  0  0  0  0  0  0  0
  -22.2858  -29.7864   22.5490 C   0  0  0  0  0  0  0  0  0  0  0  0
  -23.2240  -18.1602   19.9001 N   0  0  0  0  0  0  0  0  0  0  0  0
  -22.3782  -19.1068   20.3411 N   0  0  0  0  0  0  0  0  0  0  0  0
  -29.6231  -26.8539   21.4756 N   0  0  0  0  0  0  0  0  0  0  0  0
  -22.8957  -22.6756   19.0744 N   0  0  0  0  0  0  0  0  0  0  0  0
  -20.9136  -19.6502   22.1216 N   0  0  0  0  0  0  0  0  0  0  0  0
  -22.5487  -15.6124   23.3128 N   0  0  0  0  0  0  0  0  0  0  0  0
  -21.5306  -28.7248   21.9037 N   0  0  0  0  0  0  0  0  0  0  0  0
  -28.9908  -23.4658   20.5532 N   0  0  0  0  0  0  0  0  0  0  0  0
  -31.9923  -28.8042   22.9045 N   0  0  0  0  0  0  0  0  0  0  0  0
  -22.3999  -24.0939   20.9010 N   0  0  0  0  0  0  0  0  0  0  0  0
  -32.3359  -32.1214   21.5094 N   0  3  0  0  0  0  0  0  0  0  0  0
  -21.1261  -17.3014   23.9312 O   0  0  0  0  0  0  0  0  0  0  0  0
  -27.9502  -24.8902   22.0733 O   0  0  0  0  0  0  0  0  0  0  0  0
  -31.8515  -26.2070   21.7030 O   0  0  0  0  0  0  0  0  0  0  0  0
  -30.4959  -30.5744   22.9716 O   0  0  0  0  0  0  0  0  0  0  0  0
  -22.3741  -24.9132   18.7597 O   0  0  0  0  0  0  0  0  0  0  0  0
  -26.2134  -12.5628   20.4310 O   0  0  0  0  0  0  0  0  0  0  0  0
  -24.0886  -29.5220   20.9246 O   0  0  0  0  0  0  0  0  0  1  0  0
  -31.4813  -13.0764   18.8851 F   0  0  0  0  0  0  0  0  0  0  0  0
  -28.2640  -11.7046   22.0746 F   0  0  0  0  0  0  0  0  0  0  0  0
  -16.7290  -26.8209   23.8260 F   0  0  0  0  0  0  0  0  0  0  0  0
  -19.1305  -30.1480   20.8316 Cl  0  0  0  0  0  0  0  0  0  0  0  0
  1  2  1  0  0  0  0
  1  5  2  0  0  0  0
  2  6  2  0  0  0  0
  3  8  2  0  0  0  0
  3 15  1  0  0  0  0
  4  9  1  0  0  0  0
  4 15  2  0  0  0  0
  5 17  1  0  0  0  0
  6 19  1  0  0  0  0
  7 10  2  0  0  0  0
  7 18  1  0  0  0  0
  8 25  1  0  0  0  0
  9 25  2  0  0  0  0
 10 26  1  0  0  0  0
 11 12  2  0  0  0  0
 11 27  1  0  0  0  0
 12 28  1  0  0  0  0
 13 20  1  0  0  0  0
 13 26  2  0  0  0  0
 14 28  2  0  0  0  0
 14 29  1  0  0  0  0
 15 32  1  0  0  0  0
 16 32  1  0  0  0  0
 16 33  2  0  0  0  0
 16 34  1  0  0  0  0
 17 19  2  0  0  0  0
 17 39  1  0  0  0  0
 18 20  2  0  0  0  0
 18 40  1  0  0  0  0
 19 48  1  0  0  0  0
 20 41  1  0  0  0  0
 21 22  1  0  0  0  0
 21 24  2  0  0  0  0
 21 60  1  0  0  0  0
 22 30  2  0  0  0  0
 22 51  1  0  0  0  0
 23 30  1  0  0  0  0
 23 31  2  0  0  0  0
 23 52  1  0  0  0  0
 24 31  1  0  0  0  0
 24 74  1  0  0  0  0
 25 84  1  0  0  0  0
 26 85  1  0  0  0  0
 27 29  2  0  0  0  0
 27 84  1  0  0  0  0
 28 86  1  0  0  0  0
 29 87  1  0  0  0  0
 30 88  1  0  0  0  0
 31 89  1  0  0  0  0
 32 68  2  0  0  0  0
 33 69  1  0  0  0  0
 33 72  1  0  0  0  0
 34 73  1  0  0  0  0
 34 79  2  0  0  0  0
 35 49  1  0  0  0  0
 35 75  1  0  0  0  0
 35 80  2  0  0  0  0
 36 64  1  0  0  0  0
 36 70  1  0  0  0  0
 36 81  2  0  0  0  0
 37 65  1  0  0  0  0
 37 76  1  0  0  0  0
 37 82  2  0  0  0  0
 38 71  1  0  0  0  0
 38 77  1  0  0  0  0
 38 83  2  0  0  0  0
 39 42  1  0  0  0  0
 40 49  1  0  0  0  0
 41 70  1  0  0  0  0
 42 44  1  0  0  0  0
 43 45  1  0  0  0  0
 43 46  1  0  0  0  0
 44 48  1  0  0  0  0
 45 50  1  0  0  0  0
 46 71  1  0  0  0  0
 47 50  1  0  0  0  0
 47 71  1  0  0  0  0
 48 75  1  0  0  0  0
 49 70  1  0  0  0  0
 50 69  1  0  0  0  0
 53 65  1  0  0  0  0
 54 66  1  0  0  0  0
 55 66  1  0  0  0  0
 56 66  1  0  0  0  0
 57 67  1  0  0  0  0
 58 67  1  0  0  0  0
 59 78  1  0  0  0  0
 60 61  1  0  0  0  0
 61 62  1  0  0  0  0
 62 77  1  0  0  0  0
 63 67  1  0  0  0  0
 63 85  1  0  0  0  0
 64 66  1  0  0  0  0
 64 76  1  0  0  0  0
 65 78  1  0  0  0  0
 67 74  1  0  0  0  0
 68 69  1  0  0  0  0
M  CHG  1  78   1
M  ISO  4  38 100  63 101  77 100  85 101
M  END
> <Batch ID>
0024

> <Smiles>
CNC(C)C(=O)NC(C(=O)N1Cc2cc([101O:1][101CH2:1]C(C)(C)Nc3c(Cl)c(C)c(F)c(C)c3CCC[100NH:0][100C:0](=O)N3CCCC(n4nc(-c5ccc(Oc6ccc(F)cc6F)cc5)c(C(N)=O)c4N)C3)ccc2CC1C(=O)NC1CCCc2ccccc21)C(C)(C)C

> <Shape>
0.246

> <Color>
0.070

> <Negative vol penalty>
0.000

$$$$

  -OEChem-04052316223D

 88 96  0     1  0  0  0  0  0999 V2000
  -30.7146  -10.2510   16.9206 C   0  0  0  0  0  0  0  0  0  0  0  0
  -29.9850  -11.0949   16.0895 C   0  0  0  0  0  0  0  0  0  0  0  0
  -25.0272  -29.0967   21.7304 C   0  0  0  0  0  0  0  0  0  0  0  0
  -23.8779  -30.2546   19.9483 C   0  0  0  0  0  0  0  0  0  0  0  0
  -30.7079  -10.4561   18.2997 C   0  0  0  0  0  0  0  0  0  0  0  0
  -29.2472  -12.1438   16.6370 C   0  0  0  0  0  0  0  0  0  0  0  0
  -28.2875  -17.6591   14.1538 C   0  0  0  0  0  0  0  0  0  0  0  0
  -25.6505  -30.2878   22.1023 C   0  0  0  0  0  0  0  0  0  0  0  0
  -24.5012  -31.4457   20.3203 C   0  0  0  0  0  0  0  0  0  0  0  0
  -27.2160  -18.1921   13.4385 C   0  0  0  0  0  0  0  0  0  0  0  0
  -27.2681  -33.0974   23.7471 C   0  0  0  0  0  0  0  0  0  0  0  0
  -27.3130  -33.4090   25.1059 C   0  0  0  0  0  0  0  0  0  0  0  0
  -26.3469  -19.1573   15.4714 C   0  0  0  0  0  0  0  0  0  0  0  0
  -24.8984  -33.3956   25.1888 C   0  0  0  0  0  0  0  0  0  0  0  0
  -24.1410  -29.0801   20.6533 C   0  0  0  0  0  0  0  0  0  0  0  0
  -22.2672  -27.3511   20.7373 C   0  0  0  0  0  0  0  0  0  0  0  0
  -29.9774  -11.5140   18.8636 C   0  0  0  0  0  0  0  0  0  0  0  0
  -28.3911  -17.8623   15.5374 C   0  0  0  0  0  0  0  0  0  0  0  0
  -29.2296  -12.3625   18.0251 C   0  0  0  0  0  0  0  0  0  0  0  0
  -27.4220  -18.6279   16.2015 C   0  0  0  0  0  0  0  0  0  0  0  0
  -21.8774  -22.5010   10.2871 C   0  0  0  0  0  0  0  0  0  0  0  0
  -22.6734  -21.8405    9.3513 C   0  0  0  0  0  0  0  0  0  0  0  0
  -21.9179  -23.8923   10.3791 C   0  0  0  0  0  0  0  0  0  0  0  0
  -23.5504  -23.9625    8.5995 C   0  0  0  0  0  0  0  0  0  0  0  0
  -25.3875  -31.4623   21.3973 C   0  0  0  0  0  0  0  0  0  0  0  0
  -26.2440  -18.9389   14.0978 C   0  0  0  0  0  0  0  0  0  0  0  0
  -26.0383  -32.9350   23.1090 C   0  0  0  0  0  0  0  0  0  0  0  0
  -26.1282  -33.5581   25.8268 C   0  0  0  0  0  0  0  0  0  0  0  0
  -24.8535  -33.0841   23.8299 C   0  0  0  0  0  0  0  0  0  0  0  0
  -23.5099  -22.5712    8.5075 C   0  0  0  0  0  0  0  0  0  0  0  0
  -22.7544  -24.6230    9.5353 C   0  0  0  0  0  0  0  0  0  0  0  0
  -23.4972  -27.8499   20.2683 C   0  0  0  0  0  0  0  0  0  0  0  0
  -22.1020  -26.1619   20.0700 C   0  0  0  0  0  0  0  0  0  0  0  0
  -21.3553  -27.9125   21.6907 C   0  0  0  0  0  0  0  0  0  0  0  0
  -28.4121  -15.9654   18.0879 C   0  0  0  0  0  0  0  0  0  0  0  0
  -29.0626  -18.7301   19.6550 C   0  0  0  0  0  0  0  0  0  0  0  0
  -28.8799  -22.1373   19.7166 C   0  0  0  0  0  0  0  0  0  0  0  0
  -24.1979  -24.0845   14.8602 C   0  0  0  0  0  0  0  0  0  0  0  0
  -29.9626  -11.6673   20.3639 C   0  0  0  0  0  0  0  0  0  0  0  0
  -29.5672  -17.3031   16.2901 C   0  0  0  0  0  0  0  0  0  0  0  0
  -27.4981  -18.8922   17.6823 C   0  0  0  0  0  0  0  0  0  0  0  0
  -29.4559  -13.0290   20.8321 C   0  0  0  0  0  0  0  0  0  0  0  0
  -24.6084  -22.6087   18.0742 C   0  0  0  0  0  0  0  0  0  0  0  0
  -28.1805  -13.4092   20.0865 C   0  0  0  0  0  0  0  0  0  0  0  0
  -24.2592  -23.7396   19.0433 C   0  0  0  0  0  0  0  0  0  0  0  0
  -25.3409  -23.1295   16.8396 C   0  0  0  0  0  0  0  0  0  0  0  0
  -24.3016  -25.3498   17.0929 C   0  0  0  0  0  0  0  0  0  0  0  0
  -28.4368  -13.5263   18.5792 C   0  0  1  0  0  0  0  0  0  0  0  0
  -29.2984  -17.1397   17.7829 C   0  0  1  0  0  0  0  0  0  0  0  0
  -23.5125  -24.8810   18.3273 C   0  0  2  0  0  0  0  0  0  0  0  0
  -20.9793  -21.7170   11.1921 C   0  0  0  0  0  0  0  0  0  0  0  0
  -24.4499  -24.7480    7.6929 C   0  0  0  0  0  0  0  0  0  0  0  0
  -29.4630  -24.1158   21.1460 C   0  0  0  0  0  0  0  0  0  0  0  0
  -26.6971  -18.1067   21.4786 C   0  0  0  0  0  0  0  0  0  0  0  0
  -26.7380  -20.4940   22.2316 C   0  0  0  0  0  0  0  0  0  0  0  0
  -28.7068  -19.0213   22.6528 C   0  0  0  0  0  0  0  0  0  0  0  0
  -30.6728  -23.2535   17.6433 C   0  0  0  0  0  0  0  0  0  0  0  0
  -22.6143  -20.3361    9.2665 C   0  0  0  0  0  0  0  0  0  0  0  0
  -21.0551  -24.5830   11.3901 C   0  0  0  0  0  0  0  0  0  0  0  0
  -23.8174  -19.6323    9.9042 C   0  0  0  0  0  0  0  0  0  0  0  0
  -21.6139  -24.5523   12.8236 C   0  0  0  0  0  0  0  0  0  0  0  0
  -23.9294  -19.8832   11.4087 C   0  0  0  0  0  0  0  0  0  0  0  0
  -23.0047  -25.1656   12.9717 C   0  0  0  0  0  0  0  0  0  0  0  0
  -25.1566  -19.2021   11.9991 C   0  0  0  0  0  0  0  0  0  1  0  0
  -28.2330  -19.8143   20.2993 C   0  0  1  0  0  0  0  0  0  0  0  0
  -29.9227  -23.1966   20.0251 C   0  0  2  0  0  0  0  0  0  0  0  0
  -27.5910  -19.3527   21.6380 C   0  0  0  0  0  0  0  0  0  0  0  0
  -24.0728  -27.0435   19.3725 N   0  0  0  0  0  0  0  0  0  0  0  0
  -23.2006  -26.0259   19.2733 N   0  0  0  0  0  0  0  0  0  0  0  0
  -28.6637  -18.3189   18.3752 N   0  0  0  0  0  0  0  0  0  0  0  0
  -24.5793  -24.2088   16.2063 N   0  0  0  0  0  0  0  0  0  0  0  0
  -21.1258  -25.2298   20.0931 N   0  0  0  0  0  0  0  0  0  0  0  0
  -21.6791  -29.1415   22.2814 N   0  0  0  0  0  0  0  0  0  0  0  0
  -29.0950  -14.7786   18.2742 N   0  0  0  0  0  0  0  0  0  0  0  0
  -29.1064  -20.9762   20.4249 N   0  0  0  0  0  0  0  0  0  0  0  0
  -23.4733  -25.1496   14.3395 N   0  0  0  0  0  0  0  0  0  0  0  0
  -30.1910  -24.0266   18.8168 N   0  3  0  0  0  0  0  0  0  0  0  0
  -20.2930  -27.3332   22.0216 O   0  0  0  0  0  0  0  0  0  0  0  0
  -27.1987  -16.1245   18.1511 O   0  0  0  0  0  0  0  0  0  0  0  0
  -30.0331  -18.2700   20.2616 O   0  0  0  0  0  0  0  0  0  0  0  0
  -27.9547  -22.3229   18.9292 O   0  0  0  0  0  0  0  0  0  0  0  0
  -24.4776  -23.0951   14.1748 O   0  0  0  0  0  0  0  0  0  0  0  0
  -25.9953  -32.6249   21.7601 O   0  0  0  0  0  0  0  0  0  0  0  0
  -25.1968  -19.4598   13.4021 O   0  0  0  0  0  0  0  0  0  1  0  0
  -26.1716  -33.8558   27.1320 F   0  0  0  0  0  0  0  0  0  0  0  0
  -23.6691  -32.9281   23.2227 F   0  0  0  0  0  0  0  0  0  0  0  0
  -24.4985  -21.7472    7.3458 Cl  0  0  0  0  0  0  0  0  0  0  0  0
  -22.8015  -26.3521    9.6515 Cl  0  0  0  0  0  0  0  0  0  0  0  0
  1  2  1  0  0  0  0
  1  5  2  0  0  0  0
  2  6  2  0  0  0  0
  3  8  2  0  0  0  0
  3 15  1  0  0  0  0
  4  9  1  0  0  0  0
  4 15  2  0  0  0  0
  5 17  1  0  0  0  0
  6 19  1  0  0  0  0
  7 10  2  0  0  0  0
  7 18  1  0  0  0  0
  8 25  1  0  0  0  0
  9 25  2  0  0  0  0
 10 26  1  0  0  0  0
 11 12  2  0  0  0  0
 11 27  1  0  0  0  0
 12 28  1  0  0  0  0
 13 20  1  0  0  0  0
 13 26  2  0  0  0  0
 14 28  2  0  0  0  0
 14 29  1  0  0  0  0
 15 32  1  0  0  0  0
 16 32  1  0  0  0  0
 16 33  2  0  0  0  0
 16 34  1  0  0  0  0
 17 19  2  0  0  0  0
 17 39  1  0  0  0  0
 18 20  2  0  0  0  0
 18 40  1  0  0  0  0
 19 48  1  0  0  0  0
 20 41  1  0  0  0  0
 21 22  1  0  0  0  0
 21 23  2  0  0  0  0
 21 51  1  0  0  0  0
 22 30  2  0  0  0  0
 22 58  1  0  0  0  0
 23 31  1  0  0  0  0
 23 59  1  0  0  0  0
 24 30  1  0  0  0  0
 24 31  2  0  0  0  0
 24 52  1  0  0  0  0
 25 83  1  0  0  0  0
 26 84  1  0  0  0  0
 27 29  2  0  0  0  0
 27 83  1  0  0  0  0
 28 85  1  0  0  0  0
 29 86  1  0  0  0  0
 30 87  1  0  0  0  0
 31 88  1  0  0  0  0
 32 68  2  0  0  0  0
 33 69  1  0  0  0  0
 33 72  1  0  0  0  0
 34 73  1  0  0  0  0
 34 78  2  0  0  0  0
 35 49  1  0  0  0  0
 35 74  1  0  0  0  0
 35 79  2  0  0  0  0
 36 65  1  0  0  0  0
 36 70  1  0  0  0  0
 36 80  2  0  0  0  0
 37 66  1  0  0  0  0
 37 75  1  0  0  0  0
 37 81  2  0  0  0  0
 38 71  1  0  0  0  0
 38 76  1  0  0  0  0
 38 82  2  0  0  0  0
 39 42  1  0  0  0  0
 40 49  1  0  0  0  0
 41 70  1  0  0  0  0
 42 44  1  0  0  0  0
 43 45  1  0  0  0  0
 43 46  1  0  0  0  0
 44 48  1  0  0  0  0
 45 50  1  0  0  0  0
 46 71  1  0  0  0  0
 47 50  1  0  0  0  0
 47 71  1  0  0  0  0
 48 74  1  0  0  0  0
 49 70  1  0  0  0  0
 50 69  1  0  0  0  0
 53 66  1  0  0  0  0
 54 67  1  0  0  0  0
 55 67  1  0  0  0  0
 56 67  1  0  0  0  0
 57 77  1  0  0  0  0
 58 60  1  0  0  0  0
 59 61  1  0  0  0  0
 60 62  1  0  0  0  0
 61 63  1  0  0  0  0
 62 64  1  0  0  0  0
 63 76  1  0  0  0  0
 64 84  1  0  0  0  0
 65 67  1  0  0  0  0
 65 75  1  0  0  0  0
 66 77  1  0  0  0  0
 68 69  1  0  0  0  0
M  CHG  1  77   1
M  ISO  4  38 100  64 101  76 100  84 101
M  END
> <Batch ID>
0024

> <Smiles>
CNC(C)C(=O)NC(C(=O)N1Cc2cc([101O:1][101CH2:1]CCCc3c(C)c(CCC[100NH:0][100C:0](=O)N4CCCC(n5nc(-c6ccc(Oc7ccc(F)cc7F)cc6)c(C(N)=O)c5N)C4)c(Cl)c(C)c3Cl)ccc2CC1C(=O)NC1CCCc2ccccc21)C(C)(C)C

> <Shape>
0.216

> <Color>
0.072

> <Negative vol penalty>
0.000

$$$$

  -OEChem-04052316223D

 90 99  0     1  0  0  0  0  0999 V2000
  -28.5047  -33.0499   22.0217 C   0  0  0  0  0  0  0  0  0  0  0  0
  -28.4774  -31.7111   22.3992 C   0  0  0  0  0  0  0  0  0  0  0  0
  -22.6245  -10.3475   20.2203 C   0  0  0  0  0  0  0  0  0  0  0  0
  -24.2965   -9.4750   21.7303 C   0  0  0  0  0  0  0  0  0  0  0  0
  -27.3193  -33.7820   21.9677 C   0  0  0  0  0  0  0  0  0  0  0  0
  -27.2648  -31.1040   22.7238 C   0  0  0  0  0  0  0  0  0  0  0  0
  -26.7633  -26.5222   20.6259 C   0  0  0  0  0  0  0  0  0  0  0  0
  -21.8585   -9.1962   20.4032 C   0  0  0  0  0  0  0  0  0  0  0  0
  -23.5305   -8.3237   21.9132 C   0  0  0  0  0  0  0  0  0  0  0  0
  -27.4452  -25.4671   21.2304 C   0  0  0  0  0  0  0  0  0  0  0  0
  -20.8049   -7.4030   23.6863 C   0  0  0  0  0  0  0  0  0  0  0  0
  -20.6444   -6.9336   24.9899 C   0  0  0  0  0  0  0  0  0  0  0  0
  -29.7049  -18.6271   22.5758 C   0  0  0  0  0  0  0  0  0  0  0  0
  -25.4060  -24.7829   22.3226 C   0  0  0  0  0  0  0  0  0  0  0  0
  -21.6843   -4.8441   24.3654 C   0  0  0  0  0  0  0  0  0  0  0  0
  -23.8435  -10.4868   20.8838 C   0  0  0  0  0  0  0  0  0  0  0  0
  -24.2594  -13.0019   20.9802 C   0  0  0  0  0  0  0  0  0  0  0  0
  -26.0904  -33.1809   22.2825 C   0  0  0  0  0  0  0  0  0  0  0  0
  -25.3978  -26.7225   20.8742 C   0  0  0  0  0  0  0  0  0  0  0  0
  -26.0621  -31.8291   22.6752 C   0  0  0  0  0  0  0  0  0  0  0  0
  -28.9453  -19.4450   23.4438 C   0  0  0  0  0  0  0  0  0  0  0  0
  -24.7085  -25.8399   21.7181 C   0  0  0  0  0  0  0  0  0  0  0  0
  -28.7588  -18.9899   24.7635 C   0  0  0  0  0  0  0  0  0  0  0  0
  -30.2787  -17.4274   23.0011 C   0  0  0  0  0  0  0  0  0  0  0  0
  -30.1090  -17.0076   24.3106 C   0  0  0  0  0  0  0  0  0  0  0  0
  -22.3115   -8.1843   21.2496 C   0  0  0  0  0  0  0  0  0  0  0  0
  -26.7672  -24.5989   22.0811 C   0  0  0  0  0  0  0  0  0  0  0  0
  -21.4049   -6.5930   22.7221 C   0  0  0  0  0  0  0  0  0  0  0  0
  -21.0842   -5.6541   25.3295 C   0  0  0  0  0  0  0  0  0  0  0  0
  -21.8447   -5.3136   23.0617 C   0  0  0  0  0  0  0  0  0  0  0  0
  -29.3564  -17.7844   25.1849 C   0  0  0  0  0  0  0  0  0  0  0  0
  -24.6355  -11.6756   20.6948 C   0  0  0  0  0  0  0  0  0  0  0  0
  -25.3539  -13.7527   20.6269 C   0  0  0  0  0  0  0  0  0  0  0  0
  -23.0307  -13.5097   21.5168 C   0  0  0  0  0  0  0  0  0  0  0  0
  -23.6720  -29.0572   22.1683 C   0  0  0  0  0  0  0  0  0  0  0  0
  -21.1786  -27.2197   21.2044 C   0  0  0  0  0  0  0  0  0  0  0  0
  -20.0161  -24.1228   20.3653 C   0  0  0  0  0  0  0  0  0  0  0  0
  -30.8698  -14.6011   20.5977 C   0  0  0  0  0  0  0  0  0  0  0  0
  -24.8411  -34.0254   22.2552 C   0  0  0  0  0  0  0  0  0  0  0  0
  -24.6706  -27.8495   20.1934 C   0  0  0  0  0  0  0  0  0  0  0  0
  -27.9638  -19.7516   25.7907 C   0  0  0  0  0  0  0  0  0  0  0  0
  -23.2379  -25.9994   22.0015 C   0  0  0  0  0  0  0  0  0  0  0  0
  -23.5526  -33.2069   22.2526 C   0  0  0  0  0  0  0  0  0  0  0  0
  -29.5289  -12.4850   18.0677 C   0  0  0  0  0  0  0  0  0  0  0  0
  -23.6181  -32.1047   23.3050 C   0  0  0  0  0  0  0  0  0  0  0  0
  -28.1082  -12.1905   18.5523 C   0  0  0  0  0  0  0  0  0  0  0  0
  -30.5161  -12.5663   19.2299 C   0  0  0  0  0  0  0  0  0  0  0  0
  -28.7165  -13.2136   20.7843 C   0  0  0  0  0  0  0  0  0  0  0  0
  -24.7634  -31.1284   23.0108 C   0  0  1  0  0  0  0  0  0  0  0  0
  -23.3961  -28.2647   20.9219 C   0  0  1  0  0  0  0  0  0  0  0  0
  -27.6751  -13.1778   19.6527 C   0  0  2  0  0  0  0  0  0  0  0  0
  -28.3470  -20.7736   22.9247 C   0  0  0  0  0  0  0  0  0  0  0  0
  -26.9386  -20.7383   25.1906 C   0  0  0  0  0  0  0  0  0  0  0  0
  -27.6787  -21.6566   24.1085 C   0  0  1  0  0  0  0  0  0  0  0  0
  -30.7455  -15.7247   24.7484 C   0  0  0  0  0  0  0  0  0  0  0  0
  -29.4837  -21.5799   22.2176 C   0  0  0  0  0  0  0  0  0  0  0  0
  -27.3354  -20.4474   21.7860 C   0  0  0  0  0  0  0  0  0  0  0  0
  -25.7504  -19.9131   24.6329 C   0  0  0  0  0  0  0  0  0  0  0  0
  -26.3433  -21.5514   26.3735 C   0  0  0  0  0  0  0  0  0  0  0  0
  -28.7918  -22.5005   24.8184 C   0  0  0  0  0  0  0  0  0  0  0  0
  -17.9253  -22.9283   19.6584 C   0  0  0  0  0  0  0  0  0  0  0  0
  -20.1424  -27.3418   24.0717 C   0  0  0  0  0  0  0  0  0  0  0  0
  -18.6406  -25.4111   23.5373 C   0  0  0  0  0  0  0  0  0  0  0  0
  -18.3778  -27.5693   22.3142 C   0  0  0  0  0  0  0  0  0  0  0  0
  -21.2247  -23.2839   17.7973 C   0  0  0  0  0  0  0  0  0  0  0  0
  -31.0715  -16.6222   22.0238 C   0  0  0  0  0  0  0  0  0  0  0  0
  -26.6977  -22.7137   23.5293 C   0  0  0  0  0  0  0  0  0  1  0  0
  -20.3750  -26.0999   21.8201 C   0  0  1  0  0  0  0  0  0  0  0  0
  -19.1829  -23.6440   19.1901 C   0  0  2  0  0  0  0  0  0  0  0  0
  -19.4121  -26.6034   22.9322 C   0  0  0  0  0  0  0  0  0  0  0  0
  -25.8722  -11.5858   20.1983 N   0  0  0  0  0  0  0  0  0  0  0  0
  -26.2827  -12.8651   20.1689 N   0  0  0  0  0  0  0  0  0  0  0  0
  -22.5726  -27.1203   21.3170 N   0  0  0  0  0  0  0  0  0  0  0  0
  -30.0476  -13.5206   20.2377 N   0  0  0  0  0  0  0  0  0  0  0  0
  -25.6028  -15.0789   20.6664 N   0  0  0  0  0  0  0  0  0  0  0  0
  -22.9076  -13.6283   22.9079 N   0  0  0  0  0  0  0  0  0  0  0  0
  -24.3908  -30.2170   21.9501 N   0  0  0  0  0  0  0  0  0  0  0  0
  -19.7079  -25.4205   20.7147 N   0  0  0  0  0  0  0  0  0  0  0  0
  -30.3472  -15.4617   21.5553 N   0  0  0  0  0  0  0  0  0  0  0  0
  -19.9716  -22.7035   18.3449 N   0  3  0  0  0  0  0  0  0  0  0  0
  -22.0643  -13.8329   20.7852 O   0  0  0  0  0  0  0  0  0  0  0  0
  -23.2617  -28.6475   23.2479 O   0  0  0  0  0  0  0  0  0  0  0  0
  -20.5914  -28.1449   20.6380 O   0  0  0  0  0  0  0  0  0  0  0  0
  -20.8537  -23.4150   20.9202 O   0  0  0  0  0  0  0  0  0  0  0  0
  -31.9847  -14.7881   20.0986 O   0  0  0  0  0  0  0  0  0  0  0  0
  -21.5642   -7.0609   21.4285 O   0  0  0  0  0  0  0  0  0  0  0  0
  -27.4385  -23.5562   22.6801 O   0  0  0  0  0  0  0  0  0  1  0  0
  -20.9315   -5.2040   26.5817 F   0  0  0  0  0  0  0  0  0  0  0  0
  -22.4230   -4.5313   22.1401 F   0  0  0  0  0  0  0  0  0  0  0  0
  -29.2213  -17.2262   26.8331 Cl  0  0  0  0  0  0  0  0  0  0  0  0
  1  2  1  0  0  0  0
  1  5  2  0  0  0  0
  2  6  2  0  0  0  0
  3  8  2  0  0  0  0
  3 16  1  0  0  0  0
  4  9  1  0  0  0  0
  4 16  2  0  0  0  0
  5 18  1  0  0  0  0
  6 20  1  0  0  0  0
  7 10  2  0  0  0  0
  7 19  1  0  0  0  0
  8 26  1  0  0  0  0
  9 26  2  0  0  0  0
 10 27  1  0  0  0  0
 11 12  2  0  0  0  0
 11 28  1  0  0  0  0
 12 29  1  0  0  0  0
 13 21  2  0  0  0  0
 13 24  1  0  0  0  0
 14 22  1  0  0  0  0
 14 27  2  0  0  0  0
 15 29  2  0  0  0  0
 15 30  1  0  0  0  0
 16 32  1  0  0  0  0
 17 32  1  0  0  0  0
 17 33  2  0  0  0  0
 17 34  1  0  0  0  0
 18 20  2  0  0  0  0
 18 39  1  0  0  0  0
 19 22  2  0  0  0  0
 19 40  1  0  0  0  0
 20 49  1  0  0  0  0
 21 23  1  0  0  0  0
 21 52  1  0  0  0  0
 22 42  1  0  0  0  0
 23 31  2  0  0  0  0
 23 41  1  0  0  0  0
 24 25  2  0  0  0  0
 24 66  1  0  0  0  0
 25 31  1  0  0  0  0
 25 55  1  0  0  0  0
 26 86  1  0  0  0  0
 27 87  1  0  0  0  0
 28 30  2  0  0  0  0
 28 86  1  0  0  0  0
 29 88  1  0  0  0  0
 30 89  1  0  0  0  0
 31 90  1  0  0  0  0
 32 71  2  0  0  0  0
 33 72  1  0  0  0  0
 33 75  1  0  0  0  0
 34 76  1  0  0  0  0
 34 81  2  0  0  0  0
 35 50  1  0  0  0  0
 35 77  1  0  0  0  0
 35 82  2  0  0  0  0
 36 68  1  0  0  0  0
 36 73  1  0  0  0  0
 36 83  2  0  0  0  0
 37 69  1  0  0  0  0
 37 78  1  0  0  0  0
 37 84  2  0  0  0  0
 38 74  1  0  0  0  0
 38 79  1  0  0  0  0
 38 85  2  0  0  0  0
 39 43  1  0  0  0  0
 40 50  1  0  0  0  0
 41 53  1  0  0  0  0
 42 73  1  0  0  0  0
 43 45  1  0  0  0  0
 44 46  1  0  0  0  0
 44 47  1  0  0  0  0
 45 49  1  0  0  0  0
 46 51  1  0  0  0  0
 47 74  1  0  0  0  0
 48 51  1  0  0  0  0
 48 74  1  0  0  0  0
 49 77  1  0  0  0  0
 50 73  1  0  0  0  0
 51 72  1  0  0  0  0
 52 54  1  0  0  0  0
 52 56  1  0  0  0  0
 52 57  1  0  0  0  0
 53 54  1  0  0  0  0
 53 58  1  0  0  0  0
 53 59  1  0  0  0  0
 54 60  1  0  0  0  0
 54 67  1  0  0  0  0
 61 69  1  0  0  0  0
 62 70  1  0  0  0  0
 63 70  1  0  0  0  0
 64 70  1  0  0  0  0
 65 80  1  0  0  0  0
 66 79  1  0  0  0  0
 67 87  1  0  0  0  0
 68 70  1  0  0  0  0
 68 78  1  0  0  0  0
 69 80  1  0  0  0  0
 71 72  1  0  0  0  0
M  CHG  1  80   1
M  ISO  4  38 100  67 101  79 100  87 101
M  END
> <Batch ID>
0024

> <Smiles>
CNC(C)C(=O)NC(C(=O)N1Cc2cc([101O:1][101CH2:1]C3(C)C(C)(C)Cc4c(cc(C[100NH:0][100C:0](=O)N5CCCC(n6nc(-c7ccc(Oc8ccc(F)cc8F)cc7)c(C(N)=O)c6N)C5)c(C)c4Cl)C3(C)C)ccc2CC1C(=O)NC1CCCc2ccccc21)C(C)(C)C

> <Shape>
0.314

> <Color>
0.196

> <Negative vol penalty>
0.000

$$$$

  -OEChem-04052316223D

 90 98  0     1  0  0  0  0  0999 V2000
  -17.0109  -18.2113   18.2937 C   0  0  0  0  0  0  0  0  0  0  0  0
  -18.0709  -18.5182   19.1408 C   0  0  0  0  0  0  0  0  0  0  0  0
  -28.8706  -25.3318   18.9724 C   0  0  0  0  0  0  0  0  0  0  0  0
  -27.1415  -24.0840   20.1084 C   0  0  0  0  0  0  0  0  0  0  0  0
  -16.8169  -16.8973   17.8696 C   0  0  0  0  0  0  0  0  0  0  0  0
  -18.9369  -17.5111   19.5653 C   0  0  0  0  0  0  0  0  0  0  0  0
  -23.8017  -18.8923   19.2996 C   0  0  0  0  0  0  0  0  0  0  0  0
  -29.7885  -24.3217   19.2599 C   0  0  0  0  0  0  0  0  0  0  0  0
  -28.0594  -23.0738   20.3958 C   0  0  0  0  0  0  0  0  0  0  0  0
  -24.2839  -19.7229   20.3103 C   0  0  0  0  0  0  0  0  0  0  0  0
  -29.8617  -19.9996   21.1163 C   0  0  0  0  0  0  0  0  0  0  0  0
  -29.4595  -18.6797   20.9125 C   0  0  0  0  0  0  0  0  0  0  0  0
  -25.2698  -17.8114   21.4026 C   0  0  0  0  0  0  0  0  0  0  0  0
  -18.0195  -26.8031   21.9916 C   0  0  0  0  0  0  0  0  0  0  0  0
  -29.0896  -19.1537   18.5725 C   0  0  0  0  0  0  0  0  0  0  0  0
  -27.5471  -25.2131   19.3967 C   0  0  0  0  0  0  0  0  0  0  0  0
  -25.7762  -26.3599   17.9627 C   0  0  0  0  0  0  0  0  0  0  0  0
  -17.6866  -15.8752   18.2813 C   0  0  0  0  0  0  0  0  0  0  0  0
  -24.0411  -17.5112   19.3386 C   0  0  0  0  0  0  0  0  0  0  0  0
  -18.7535  -16.1820   19.1474 C   0  0  0  0  0  0  0  0  0  0  0  0
  -24.7918  -16.9658   20.3899 C   0  0  0  0  0  0  0  0  0  0  0  0
  -18.6833  -28.0094   21.7682 C   0  0  0  0  0  0  0  0  0  0  0  0
  -19.5445  -28.5217   22.7386 C   0  0  0  0  0  0  0  0  0  0  0  0
  -19.0779  -26.6214   24.1558 C   0  0  0  0  0  0  0  0  0  0  0  0
  -29.3829  -23.1926   19.9715 C   0  0  0  0  0  0  0  0  0  0  0  0
  -25.0156  -19.1821   21.3635 C   0  0  0  0  0  0  0  0  0  0  0  0
  -29.8778  -20.8967   20.0482 C   0  0  0  0  0  0  0  0  0  0  0  0
  -29.0734  -18.2567   19.6406 C   0  0  0  0  0  0  0  0  0  0  0  0
  -29.4918  -20.4737   18.7763 C   0  0  0  0  0  0  0  0  0  0  0  0
  -18.2168  -26.1091   23.1854 C   0  0  0  0  0  0  0  0  0  0  0  0
  -19.7418  -27.8277   23.9324 C   0  0  0  0  0  0  0  0  0  0  0  0
  -26.5986  -26.2565   19.1006 C   0  0  0  0  0  0  0  0  0  0  0  0
  -25.0658  -27.5193   18.1567 C   0  0  0  0  0  0  0  0  0  0  0  0
  -25.6644  -25.4860   16.8315 C   0  0  0  0  0  0  0  0  0  0  0  0
  -22.2072  -14.9209   19.5144 C   0  0  0  0  0  0  0  0  0  0  0  0
  -25.0275  -13.3726   19.1009 C   0  0  0  0  0  0  0  0  0  0  0  0
  -28.4279  -13.4205   19.3863 C   0  0  0  0  0  0  0  0  0  0  0  0
  -22.6023  -30.5949   22.3976 C   0  0  0  0  0  0  0  0  0  0  0  0
  -17.4087  -14.4618   17.8346 C   0  0  0  0  0  0  0  0  0  0  0  0
  -23.5370  -16.6325   18.2268 C   0  0  0  0  0  0  0  0  0  0  0  0
  -25.0936  -15.4923   20.4676 C   0  0  0  0  0  0  0  0  0  0  0  0
  -18.5923  -13.5176   18.0295 C   0  0  0  0  0  0  0  0  0  0  0  0
  -25.6932  -31.5685   20.9230 C   0  0  0  0  0  0  0  0  0  0  0  0
  -19.1948  -13.6966   19.4193 C   0  0  0  0  0  0  0  0  0  0  0  0
  -26.1654  -30.3076   20.1969 C   0  0  0  0  0  0  0  0  0  0  0  0
  -24.9903  -31.2335   22.2366 C   0  0  0  0  0  0  0  0  0  0  0  0
  -24.3530  -29.0081   21.3910 C   0  0  0  0  0  0  0  0  0  0  0  0
  -19.7290  -15.1214   19.6097 C   0  0  1  0  0  0  0  0  0  0  0  0
  -23.4010  -15.1693   18.6364 C   0  0  1  0  0  0  0  0  0  0  0  0
  -25.0185  -29.2921   20.0334 C   0  0  2  0  0  0  0  0  0  0  0  0
  -18.4532  -28.7313   20.4807 C   0  0  0  0  0  0  0  0  0  0  0  0
  -30.7968  -12.6305   19.1380 C   0  0  0  0  0  0  0  0  0  0  0  0
  -24.3745  -11.7726   21.6156 C   0  0  0  0  0  0  0  0  0  0  0  0
  -26.7793  -11.0836   21.7175 C   0  0  0  0  0  0  0  0  0  0  0  0
  -25.3791  -10.4327   19.7582 C   0  0  0  0  0  0  0  0  0  0  0  0
  -28.6916  -14.6812   16.7217 C   0  0  0  0  0  0  0  0  0  0  0  0
  -20.2465  -29.8184   22.4772 C   0  0  0  0  0  0  0  0  0  0  0  0
  -19.2864  -25.8707   25.4380 C   0  0  0  0  0  0  0  0  0  0  0  0
  -23.8363  -22.1700   25.7395 C   0  0  0  0  0  0  0  0  0  0  0  0
  -22.4550  -22.8233   25.6510 C   0  0  0  0  0  0  0  0  0  0  0  0
  -24.0257  -21.1181   24.6447 C   0  0  0  0  0  0  0  0  0  0  0  0
  -22.2535  -23.8465   26.7724 C   0  0  0  0  0  0  0  0  0  0  0  0
  -25.4192  -20.4867   24.7163 C   0  0  0  0  0  0  0  0  0  0  0  0
  -20.8652  -24.4744   26.7782 C   0  0  0  0  0  0  0  0  0  0  0  0
  -25.6226  -19.4164   23.6510 C   0  0  0  0  0  0  0  0  0  1  0  0
  -26.1005  -12.8416   20.0206 C   0  0  1  0  0  0  0  0  0  0  0  0
  -29.5262  -13.0403   18.4098 C   0  0  2  0  0  0  0  0  0  0  0  0
  -25.6512  -11.5602   20.7778 C   0  0  0  0  0  0  0  0  0  0  0  0
  -26.4276  -27.2695   19.9541 N   0  0  0  0  0  0  0  0  0  0  0  0
  -25.4896  -28.0205   19.3522 N   0  0  0  0  0  0  0  0  0  0  0  0
  -24.5736  -14.6736   19.3599 N   0  0  0  0  0  0  0  0  0  0  0  0
  -23.9126  -30.2671   22.0119 N   0  0  0  0  0  0  0  0  0  0  0  0
  -24.1263  -28.1487   17.4195 N   0  0  0  0  0  0  0  0  0  0  0  0
  -26.4677  -24.3382   16.7920 N   0  0  0  0  0  0  0  0  0  0  0  0
  -21.0022  -15.2775   18.9397 N   0  0  0  0  0  0  0  0  0  0  0  0
  -27.2917  -12.6626   19.1975 N   0  0  0  0  0  0  0  0  0  0  0  0
  -21.6400  -29.6254   22.1431 N   0  0  0  0  0  0  0  0  0  0  0  0
  -29.8462  -14.1897   17.5169 N   0  3  0  0  0  0  0  0  0  0  0  0
  -20.6008  -25.1735   25.4988 N   0  3  0  0  0  0  0  0  0  0  0  0
  -24.8873  -25.7247   15.8762 O   0  0  0  0  0  0  0  0  0  0  0  0
  -22.3673  -14.4398   20.6300 O   0  0  0  0  0  0  0  0  0  0  0  0
  -24.6126  -12.6618   18.1820 O   0  0  0  0  0  0  0  0  0  0  0  0
  -28.5657  -14.2993   20.2345 O   0  0  0  0  0  0  0  0  0  0  0  0
  -22.3106  -31.6739   22.9246 O   0  0  0  0  0  0  0  0  0  0  0  0
  -30.2782  -22.2066   20.2520 O   0  0  0  0  0  0  0  0  0  0  0  0
  -25.4868  -19.9905   22.3516 O   0  0  0  0  0  0  0  0  0  1  0  0
  -28.6887  -16.9888   19.4448 F   0  0  0  0  0  0  0  0  0  0  0  0
  -29.5063  -21.3306   17.7461 F   0  0  0  0  0  0  0  0  0  0  0  0
  -17.3746  -24.6196   23.4198 Cl  0  0  0  0  0  0  0  0  0  0  0  0
  -20.8125  -28.4666   25.1367 Cl  0  0  0  0  0  0  0  0  0  0  0  0
  1  2  1  0  0  0  0
  1  5  2  0  0  0  0
  2  6  2  0  0  0  0
  3  8  2  0  0  0  0
  3 16  1  0  0  0  0
  4  9  1  0  0  0  0
  4 16  2  0  0  0  0
  5 18  1  0  0  0  0
  6 20  1  0  0  0  0
  7 10  2  0  0  0  0
  7 19  1  0  0  0  0
  8 25  1  0  0  0  0
  9 25  2  0  0  0  0
 10 26  1  0  0  0  0
 11 12  2  0  0  0  0
 11 27  1  0  0  0  0
 12 28  1  0  0  0  0
 13 21  1  0  0  0  0
 13 26  2  0  0  0  0
 14 22  1  0  0  0  0
 14 30  2  0  0  0  0
 15 28  2  0  0  0  0
 15 29  1  0  0  0  0
 16 32  1  0  0  0  0
 17 32  1  0  0  0  0
 17 33  2  0  0  0  0
 17 34  1  0  0  0  0
 18 20  2  0  0  0  0
 18 39  1  0  0  0  0
 19 21  2  0  0  0  0
 19 40  1  0  0  0  0
 20 48  1  0  0  0  0
 21 41  1  0  0  0  0
 22 23  2  0  0  0  0
 22 51  1  0  0  0  0
 23 31  1  0  0  0  0
 23 57  1  0  0  0  0
 24 30  1  0  0  0  0
 24 31  2  0  0  0  0
 24 58  1  0  0  0  0
 25 85  1  0  0  0  0
 26 86  1  0  0  0  0
 27 29  2  0  0  0  0
 27 85  1  0  0  0  0
 28 87  1  0  0  0  0
 29 88  1  0  0  0  0
 30 89  1  0  0  0  0
 31 90  1  0  0  0  0
 32 69  2  0  0  0  0
 33 70  1  0  0  0  0
 33 73  1  0  0  0  0
 34 74  1  0  0  0  0
 34 80  2  0  0  0  0
 35 49  1  0  0  0  0
 35 75  1  0  0  0  0
 35 81  2  0  0  0  0
 36 66  1  0  0  0  0
 36 71  1  0  0  0  0
 36 82  2  0  0  0  0
 37 67  1  0  0  0  0
 37 76  1  0  0  0  0
 37 83  2  0  0  0  0
 38 72  1  0  0  0  0
 38 77  1  0  0  0  0
 38 84  2  0  0  0  0
 39 42  1  0  0  0  0
 40 49  1  0  0  0  0
 41 71  1  0  0  0  0
 42 44  1  0  0  0  0
 43 45  1  0  0  0  0
 43 46  1  0  0  0  0
 44 48  1  0  0  0  0
 45 50  1  0  0  0  0
 46 72  1  0  0  0  0
 47 50  1  0  0  0  0
 47 72  1  0  0  0  0
 48 75  1  0  0  0  0
 49 71  1  0  0  0  0
 50 70  1  0  0  0  0
 52 67  1  0  0  0  0
 53 68  1  0  0  0  0
 54 68  1  0  0  0  0
 55 68  1  0  0  0  0
 56 78  1  0  0  0  0
 57 77  1  0  0  0  0
 58 79  1  0  0  0  0
 59 60  1  0  0  0  0
 59 61  1  0  0  0  0
 60 62  1  0  0  0  0
 61 63  1  0  0  0  0
 62 64  1  0  0  0  0
 63 65  1  0  0  0  0
 64 79  1  0  0  0  0
 65 86  1  0  0  0  0
 66 68  1  0  0  0  0
 66 76  1  0  0  0  0
 67 78  1  0  0  0  0
 69 70  1  0  0  0  0
M  CHG  2  78   1  79   1
M  ISO  4  38 100  65 101  77 100  86 101
M  END
> <Batch ID>
0024

> <Smiles>
CNC(C)C(=O)NC(C(=O)N1Cc2cc([101O:1][101CH2:1]CCCCCCNCc3c(Cl)cc(C)c(C[100NH:0][100C:0](=O)N4CCCC(n5nc(-c6ccc(Oc7ccc(F)cc7F)cc6)c(C(N)=O)c5N)C4)c3Cl)ccc2CC1C(=O)NC1CCCc2ccccc21)C(C)(C)C

> <Shape>
0.246

> <Color>
0.066

> <Negative vol penalty>
0.000

$$$$

  -OEChem-04052316223D

 91100  0     1  0  0  0  0  0999 V2000
  -32.8239  -31.7943   26.0861 C   0  0  0  0  0  0  0  0  0  0  0  0
  -31.6506  -31.0540   25.9817 C   0  0  0  0  0  0  0  0  0  0  0  0
  -23.0876   -9.8853   19.9359 C   0  0  0  0  0  0  0  0  0  0  0  0
  -23.8323   -9.9070   22.2342 C   0  0  0  0  0  0  0  0  0  0  0  0
  -33.5739  -32.0745   24.9447 C   0  0  0  0  0  0  0  0  0  0  0  0
  -31.2261  -30.5945   24.7355 C   0  0  0  0  0  0  0  0  0  0  0  0
  -29.6945  -25.7693   24.8627 C   0  0  0  0  0  0  0  0  0  0  0  0
  -22.3389   -8.7361   20.1893 C   0  0  0  0  0  0  0  0  0  0  0  0
  -23.0835   -8.7577   22.4876 C   0  0  0  0  0  0  0  0  0  0  0  0
  -28.4245  -25.5178   25.3800 C   0  0  0  0  0  0  0  0  0  0  0  0
  -19.8492   -7.9732   23.0744 C   0  0  0  0  0  0  0  0  0  0  0  0
  -19.0844   -7.9439   24.2405 C   0  0  0  0  0  0  0  0  0  0  0  0
  -27.5510  -25.3493   23.1377 C   0  0  0  0  0  0  0  0  0  0  0  0
  -32.4686  -17.1472   23.9325 C   0  0  0  0  0  0  0  0  0  0  0  0
  -20.3155   -6.0085   24.9993 C   0  0  0  0  0  0  0  0  0  0  0  0
  -23.8344  -10.4708   20.9584 C   0  0  0  0  0  0  0  0  0  0  0  0
  -24.1840  -12.9940   20.8222 C   0  0  0  0  0  0  0  0  0  0  0  0
  -33.1634  -31.6100   23.6852 C   0  0  0  0  0  0  0  0  0  0  0  0
  -29.9005  -25.8235   23.4767 C   0  0  0  0  0  0  0  0  0  0  0  0
  -31.9705  -30.8700   23.5759 C   0  0  0  0  0  0  0  0  0  0  0  0
  -28.8251  -25.5990   22.6053 C   0  0  0  0  0  0  0  0  0  0  0  0
  -31.8659  -18.3774   24.1949 C   0  0  0  0  0  0  0  0  0  0  0  0
  -30.6758  -18.7218   23.5540 C   0  0  0  0  0  0  0  0  0  0  0  0
  -30.6913  -16.6058   22.3881 C   0  0  0  0  0  0  0  0  0  0  0  0
  -22.3368   -8.1723   21.4652 C   0  0  0  0  0  0  0  0  0  0  0  0
  -27.3519  -25.3106   24.5176 C   0  0  0  0  0  0  0  0  0  0  0  0
  -20.8471   -7.0201   22.8707 C   0  0  0  0  0  0  0  0  0  0  0  0
  -19.3175   -6.9616   25.2030 C   0  0  0  0  0  0  0  0  0  0  0  0
  -21.0803   -6.0378   23.8332 C   0  0  0  0  0  0  0  0  0  0  0  0
  -31.8813  -16.2614   23.0290 C   0  0  0  0  0  0  0  0  0  0  0  0
  -30.0885  -17.8360   22.6506 C   0  0  0  0  0  0  0  0  0  0  0  0
  -24.6085  -11.6576   20.6971 C   0  0  0  0  0  0  0  0  0  0  0  0
  -25.2807  -13.7378   20.4608 C   0  0  0  0  0  0  0  0  0  0  0  0
  -22.9123  -13.5164   21.2289 C   0  0  0  0  0  0  0  0  0  0  0  0
  -30.8786  -28.0595   21.4401 C   0  0  0  0  0  0  0  0  0  0  0  0
  -30.7653  -25.6163   19.3093 C   0  0  0  0  0  0  0  0  0  0  0  0
  -29.4671  -22.5794   18.4499 C   0  0  0  0  0  0  0  0  0  0  0  0
  -30.7485  -14.7697   20.6642 C   0  0  0  0  0  0  0  0  0  0  0  0
  -33.9822  -31.9784   22.4734 C   0  0  0  0  0  0  0  0  0  0  0  0
  -31.2818  -26.0694   22.9344 C   0  0  0  0  0  0  0  0  0  0  0  0
  -28.9975  -25.6267   21.1093 C   0  0  0  0  0  0  0  0  0  0  0  0
  -33.6605  -31.1358   21.2418 C   0  0  0  0  0  0  0  0  0  0  0  0
  -29.6431  -12.3417   18.3062 C   0  0  0  0  0  0  0  0  0  0  0  0
  -32.1513  -31.0275   21.0484 C   0  0  0  0  0  0  0  0  0  0  0  0
  -28.8554  -21.3456   25.6567 C   0  0  0  0  0  0  0  0  0  0  0  0
  -27.7364  -19.3517   24.5711 C   0  0  0  0  0  0  0  0  0  0  0  0
  -28.1998  -12.0572   18.7283 C   0  0  0  0  0  0  0  0  0  0  0  0
  -27.8435  -21.2934   26.8022 C   0  0  0  0  0  0  0  0  0  0  0  0
  -26.7215  -19.2954   25.7138 C   0  0  0  0  0  0  0  0  0  0  0  0
  -30.5508  -12.5767   19.5123 C   0  0  0  0  0  0  0  0  0  0  0  0
  -28.6368  -13.3165   20.8755 C   0  0  0  0  0  0  0  0  0  0  0  0
  -31.4902  -30.3330   22.2451 C   0  0  1  0  0  0  0  0  0  0  0  0
  -31.2761  -26.6121   21.5086 C   0  0  1  0  0  0  0  0  0  0  0  0
  -29.0685  -19.9643   25.0235 C   0  0  0  0  0  0  0  0  0  0  0  0
  -27.6713  -13.1373   19.6925 C   0  0  2  0  0  0  0  0  0  0  0  0
  -26.5187  -20.6435   26.4047 C   0  0  0  0  0  0  0  0  0  0  0  0
  -32.5173  -19.3070   25.1663 C   0  0  0  0  0  0  0  0  0  0  0  0
  -29.1642  -20.4650   17.1327 C   0  0  0  0  0  0  0  0  0  0  0  0
  -28.9966  -27.3865   17.5634 C   0  0  0  0  0  0  0  0  0  0  0  0
  -28.3356  -25.3408   16.2802 C   0  0  0  0  0  0  0  0  0  0  0  0
  -30.7194  -26.0751   16.3117 C   0  0  0  0  0  0  0  0  0  0  0  0
  -31.5689  -21.1795   19.9932 C   0  0  0  0  0  0  0  0  0  0  0  0
  -30.0452  -20.0540   23.8522 C   0  0  0  0  0  0  0  0  0  0  0  0
  -24.2941  -23.5069   25.1677 C   0  0  0  0  0  0  0  0  0  0  0  0
  -25.0027  -22.6181   26.1788 C   0  0  0  0  0  0  0  0  0  0  0  0
  -25.2419  -24.2506   24.2347 C   0  0  0  0  0  0  0  0  0  1  0  0
  -29.7115  -25.0474   18.3902 C   0  0  1  0  0  0  0  0  0  0  0  0
  -30.1277  -21.3045   17.9571 C   0  0  2  0  0  0  0  0  0  0  0  0
  -29.4368  -25.9638   17.1645 C   0  0  0  0  0  0  0  0  0  0  0  0
  -25.8758  -11.5553   20.2879 N   0  0  0  0  0  0  0  0  0  0  0  0
  -26.2571  -12.8368   20.1528 N   0  0  0  0  0  0  0  0  0  0  0  0
  -30.3660  -25.8772   20.6278 N   0  0  0  0  0  0  0  0  0  0  0  0
  -29.9889  -13.6155   20.3784 N   0  0  0  0  0  0  0  0  0  0  0  0
  -25.4953  -15.0681   20.3794 N   0  0  0  0  0  0  0  0  0  0  0  0
  -21.8956  -12.6125   21.5660 N   0  0  0  0  0  0  0  0  0  0  0  0
  -30.0983  -15.7024   21.4715 N   0  0  0  0  0  0  0  0  0  0  0  0
  -31.6922  -28.9017   22.1737 N   0  0  0  0  0  0  0  0  0  0  0  0
  -30.1562  -23.7021   18.0426 N   0  0  0  0  0  0  0  0  0  0  0  0
  -25.7763  -21.5584   25.4903 N   0  3  0  0  0  0  0  0  0  0  0  0
  -30.5969  -20.4851   19.1101 N   0  3  0  0  0  0  0  0  0  0  0  0
  -22.6791  -14.7480   21.2757 O   0  0  0  0  0  0  0  0  0  0  0  0
  -29.9066  -28.3880   20.7701 O   0  0  0  0  0  0  0  0  0  0  0  0
  -31.9028  -25.8150   18.8755 O   0  0  0  0  0  0  0  0  0  0  0  0
  -28.4403  -22.5794   19.1254 O   0  0  0  0  0  0  0  0  0  0  0  0
  -31.8811  -14.9319   20.2029 O   0  0  0  0  0  0  0  0  0  0  0  0
  -21.6061   -7.0510   21.7129 O   0  0  0  0  0  0  0  0  0  0  0  0
  -26.1112  -25.0656   25.0199 O   0  0  0  0  0  0  0  0  0  1  0  0
  -18.5840   -6.9346   26.3234 F   0  0  0  0  0  0  0  0  0  0  0  0
  -22.0383   -5.1202   23.6436 F   0  0  0  0  0  0  0  0  0  0  0  0
  -32.6668  -14.7495   22.7376 Cl  0  0  0  0  0  0  0  0  0  0  0  0
  -28.6079  -18.2725   21.8572 Cl  0  0  0  0  0  0  0  0  0  0  0  0
  1  2  1  0  0  0  0
  1  5  2  0  0  0  0
  2  6  2  0  0  0  0
  3  8  2  0  0  0  0
  3 16  1  0  0  0  0
  4  9  1  0  0  0  0
  4 16  2  0  0  0  0
  5 18  1  0  0  0  0
  6 20  1  0  0  0  0
  7 10  2  0  0  0  0
  7 19  1  0  0  0  0
  8 25  1  0  0  0  0
  9 25  2  0  0  0  0
 10 26  1  0  0  0  0
 11 12  2  0  0  0  0
 11 27  1  0  0  0  0
 12 28  1  0  0  0  0
 13 21  1  0  0  0  0
 13 26  2  0  0  0  0
 14 22  2  0  0  0  0
 14 30  1  0  0  0  0
 15 28  2  0  0  0  0
 15 29  1  0  0  0  0
 16 32  1  0  0  0  0
 17 32  1  0  0  0  0
 17 33  2  0  0  0  0
 17 34  1  0  0  0  0
 18 20  2  0  0  0  0
 18 39  1  0  0  0  0
 19 21  2  0  0  0  0
 19 40  1  0  0  0  0
 20 52  1  0  0  0  0
 21 41  1  0  0  0  0
 22 23  1  0  0  0  0
 22 57  1  0  0  0  0
 23 31  2  0  0  0  0
 23 63  1  0  0  0  0
 24 30  2  0  0  0  0
 24 31  1  0  0  0  0
 24 76  1  0  0  0  0
 25 86  1  0  0  0  0
 26 87  1  0  0  0  0
 27 29  2  0  0  0  0
 27 86  1  0  0  0  0
 28 88  1  0  0  0  0
 29 89  1  0  0  0  0
 30 90  1  0  0  0  0
 31 91  1  0  0  0  0
 32 70  2  0  0  0  0
 33 71  1  0  0  0  0
 33 74  1  0  0  0  0
 34 75  1  0  0  0  0
 34 81  2  0  0  0  0
 35 53  1  0  0  0  0
 35 77  1  0  0  0  0
 35 82  2  0  0  0  0
 36 67  1  0  0  0  0
 36 72  1  0  0  0  0
 36 83  2  0  0  0  0
 37 68  1  0  0  0  0
 37 78  1  0  0  0  0
 37 84  2  0  0  0  0
 38 73  1  0  0  0  0
 38 76  1  0  0  0  0
 38 85  2  0  0  0  0
 39 42  1  0  0  0  0
 40 53  1  0  0  0  0
 41 72  1  0  0  0  0
 42 44  1  0  0  0  0
 43 47  1  0  0  0  0
 43 50  1  0  0  0  0
 44 52  1  0  0  0  0
 45 48  1  0  0  0  0
 45 54  1  0  0  0  0
 46 49  1  0  0  0  0
 46 54  1  0  0  0  0
 47 55  1  0  0  0  0
 48 56  1  0  0  0  0
 49 56  1  0  0  0  0
 50 73  1  0  0  0  0
 51 55  1  0  0  0  0
 51 73  1  0  0  0  0
 52 77  1  0  0  0  0
 53 72  1  0  0  0  0
 54 63  1  0  0  0  0
 55 71  1  0  0  0  0
 56 79  1  0  0  0  0
 58 68  1  0  0  0  0
 59 69  1  0  0  0  0
 60 69  1  0  0  0  0
 61 69  1  0  0  0  0
 62 80  1  0  0  0  0
 64 65  1  0  0  0  0
 64 66  1  0  0  0  0
 65 79  1  0  0  0  0
 66 87  1  0  0  0  0
 67 69  1  0  0  0  0
 67 78  1  0  0  0  0
 68 80  1  0  0  0  0
 70 71  1  0  0  0  0
M  CHG  2  79   1  80   1
M  ISO  4  38 100  66 101  76 100  87 101
M  END
> <Batch ID>
0024

> <Smiles>
CNC(C)C(=O)NC(C(=O)N1Cc2cc([101O:1][101CH2:1]CCNC3CCC(Cc4c(C)cc(Cl)c([100NH:0][100C:0](=O)N5CCCC(n6nc(-c7ccc(Oc8ccc(F)cc8F)cc7)c(C(N)=O)c6N)C5)c4Cl)CC3)ccc2CC1C(=O)NC1CCCc2ccccc21)C(C)(C)C

> <Shape>
0.242

> <Color>
0.206

> <Negative vol penalty>
0.000

$$$$

  -OEChem-04052316223D

 85 93  0     1  0  0  0  0  0999 V2000
  -26.5706  -35.7528   15.8269 C   0  0  0  0  0  0  0  0  0  0  0  0
  -26.7307  -34.3719   15.8813 C   0  0  0  0  0  0  0  0  0  0  0  0
  -24.3542   -9.0668   20.1313 C   0  0  0  0  0  0  0  0  0  0  0  0
  -22.8027  -10.4207   21.3949 C   0  0  0  0  0  0  0  0  0  0  0  0
  -26.6569  -36.5100   16.9945 C   0  0  0  0  0  0  0  0  0  0  0  0
  -26.9781  -33.7475   17.1033 C   0  0  0  0  0  0  0  0  0  0  0  0
  -25.0275  -28.2189   18.8741 C   0  0  0  0  0  0  0  0  0  0  0  0
  -23.6706   -7.9164   20.5246 C   0  0  0  0  0  0  0  0  0  0  0  0
  -22.1190   -9.2703   21.7882 C   0  0  0  0  0  0  0  0  0  0  0  0
  -25.6442  -26.9687   18.8943 C   0  0  0  0  0  0  0  0  0  0  0  0
  -20.8405   -6.2816   19.6579 C   0  0  0  0  0  0  0  0  0  0  0  0
  -20.5670   -5.3243   18.6810 C   0  0  0  0  0  0  0  0  0  0  0  0
  -26.2316  -27.3026   21.2100 C   0  0  0  0  0  0  0  0  0  0  0  0
  -21.8436   -3.6920   19.9234 C   0  0  0  0  0  0  0  0  0  0  0  0
  -23.9203  -10.3190   20.5665 C   0  0  0  0  0  0  0  0  0  0  0  0
  -24.3819  -12.2939   19.0190 C   0  0  0  0  0  0  0  0  0  0  0  0
  -26.8959  -35.8934   18.2328 C   0  0  0  0  0  0  0  0  0  0  0  0
  -25.0176  -29.0263   20.0206 C   0  0  0  0  0  0  0  0  0  0  0  0
  -27.0690  -34.4972   18.2884 C   0  0  0  0  0  0  0  0  0  0  0  0
  -25.6118  -28.5615   21.2025 C   0  0  0  0  0  0  0  0  0  0  0  0
  -28.0710  -21.0659   19.4602 C   0  0  0  0  0  0  0  0  0  0  0  0
  -22.5530   -8.0181   21.3530 C   0  0  0  0  0  0  0  0  0  0  0  0
  -26.2489  -26.5116   20.0615 C   0  0  0  0  0  0  0  0  0  0  0  0
  -21.6156   -5.9443   20.7674 C   0  0  0  0  0  0  0  0  0  0  0  0
  -21.0685   -4.0295   18.8138 C   0  0  0  0  0  0  0  0  0  0  0  0
  -22.1171   -4.6495   20.9002 C   0  0  0  0  0  0  0  0  0  0  0  0
  -26.9858  -21.9561   19.2680 C   0  0  0  0  0  0  0  0  0  0  0  0
  -24.6263  -11.5078   20.1610 C   0  0  0  0  0  0  0  0  0  0  0  0
  -29.2281  -21.8117   19.4130 C   0  0  0  0  0  0  0  0  0  0  0  0
  -27.5128  -23.2188   19.1090 C   0  0  0  0  0  0  0  0  0  0  0  0
  -25.3147  -13.2996   19.0884 C   0  0  0  0  0  0  0  0  0  0  0  0
  -23.3994  -12.1296   17.9878 C   0  0  0  0  0  0  0  0  0  0  0  0
  -26.1741  -31.8948   20.7540 C   0  0  0  0  0  0  0  0  0  0  0  0
  -24.5487  -31.4128   23.5195 C   0  0  0  0  0  0  0  0  0  0  0  0
  -23.1810  -29.1997   25.7282 C   0  0  0  0  0  0  0  0  0  0  0  0
  -28.0916  -17.1699   21.9962 C   0  0  0  0  0  0  0  0  0  0  0  0
  -27.0278  -36.7586   19.4611 C   0  0  0  0  0  0  0  0  0  0  0  0
  -24.3248  -30.3610   19.9901 C   0  0  0  0  0  0  0  0  0  0  0  0
  -25.6110  -29.3812   22.4661 C   0  0  0  0  0  0  0  0  0  0  0  0
  -26.9200  -35.9795   20.7694 C   0  0  0  0  0  0  0  0  0  0  0  0
  -29.3547  -13.8422   22.0835 C   0  0  0  0  0  0  0  0  0  0  0  0
  -27.7821  -34.7223   20.7146 C   0  0  0  0  0  0  0  0  0  0  0  0
  -28.2150  -13.0030   21.5030 C   0  0  0  0  0  0  0  0  0  0  0  0
  -28.8290  -14.9980   22.9319 C   0  0  0  0  0  0  0  0  0  0  0  0
  -26.7099  -15.0289   21.6739 C   0  0  0  0  0  0  0  0  0  0  0  0
  -27.3140  -33.7806   19.5985 C   0  0  1  0  0  0  0  0  0  0  0  0
  -24.8231  -31.3176   21.0690 C   0  0  1  0  0  0  0  0  0  0  0  0
  -27.1894  -13.8843   20.7649 C   0  0  2  0  0  0  0  0  0  0  0  0
  -30.6387  -21.3920   19.5537 C   0  0  0  0  0  0  0  0  0  0  0  0
  -27.5470  -18.1554   16.0554 C   0  0  0  0  0  0  0  0  0  0  0  0
  -21.9525  -29.1029   27.9143 C   0  0  0  0  0  0  0  0  0  0  0  0
  -27.1487  -32.0012   25.0040 C   0  0  0  0  0  0  0  0  0  0  0  0
  -26.1301  -30.9798   27.0503 C   0  0  0  0  0  0  0  0  0  0  0  0
  -25.1073  -33.0150   26.0333 C   0  0  0  0  0  0  0  0  0  0  0  0
  -29.8043  -24.2245   19.0857 C   0  0  0  0  0  0  0  0  0  0  0  0
  -20.8335  -27.8959   24.4839 C   0  0  0  0  0  0  0  0  0  0  0  0
  -26.8282  -24.5333   18.8753 C   0  0  0  0  0  0  0  0  0  1  0  0
  -28.1595  -18.9672   17.1866 C   0  0  0  0  0  0  0  0  0  0  0  0
  -27.3480  -18.8243   18.4794 C   0  0  0  0  0  0  0  0  0  0  0  0
  -27.2291  -19.2667   20.9869 C   0  0  0  0  0  0  0  0  0  0  0  0
  -27.9895  -19.6055   19.6732 C   0  0  2  0  0  0  0  0  0  0  0  0
  -24.8734  -30.7900   24.8558 C   0  0  1  0  0  0  0  0  0  0  0  0
  -21.8205  -29.1578   26.4002 C   0  0  2  0  0  0  0  0  0  0  0  0
  -25.8168  -31.6816   25.7117 C   0  0  0  0  0  0  0  0  0  0  0  0
  -25.6355  -11.9740   20.9015 N   0  0  0  0  0  0  0  0  0  0  0  0
  -28.8766  -23.1189   19.1988 N   0  0  0  0  0  0  0  0  0  0  0  0
  -26.0334  -13.0638   20.2233 N   0  0  0  0  0  0  0  0  0  0  0  0
  -24.9263  -30.6820   22.3841 N   0  0  0  0  0  0  0  0  0  0  0  0
  -27.8623  -15.7954   22.1732 N   0  0  0  0  0  0  0  0  0  0  0  0
  -25.5821  -14.3538   18.2886 N   0  0  0  0  0  0  0  0  0  0  0  0
  -22.5191  -11.0422   18.0707 N   0  0  0  0  0  0  0  0  0  0  0  0
  -26.1293  -33.0585   20.0103 N   0  0  0  0  0  0  0  0  0  0  0  0
  -23.5934  -30.4937   25.4899 N   0  0  0  0  0  0  0  0  0  0  0  0
  -27.1297  -17.8501   21.2594 N   0  0  0  0  0  0  0  0  0  0  0  0
  -21.0576  -27.9589   25.9512 N   0  3  0  0  0  0  0  0  0  0  0  0
  -23.3155  -12.9144   17.0128 O   0  0  0  0  0  0  0  0  0  0  0  0
  -27.1826  -31.3272   21.1573 O   0  0  0  0  0  0  0  0  0  0  0  0
  -23.9746  -32.5040   23.4844 O   0  0  0  0  0  0  0  0  0  0  0  0
  -23.8163  -28.1859   25.4466 O   0  0  0  0  0  0  0  0  0  0  0  0
  -29.0829  -17.7469   22.4559 O   0  0  0  0  0  0  0  0  0  0  0  0
  -21.8856   -6.8957   21.7368 O   0  0  0  0  0  0  0  0  0  0  0  0
  -26.8522  -25.2920   20.0838 O   0  0  0  0  0  0  0  0  0  1  0  0
  -20.8045   -3.1098   17.8764 F   0  0  0  0  0  0  0  0  0  0  0  0
  -22.8613   -4.3191   21.9645 F   0  0  0  0  0  0  0  0  0  0  0  0
  -25.3424  -21.5189   19.2419 Cl  0  0  0  0  0  0  0  0  0  0  0  0
  1  2  1  0  0  0  0
  1  5  2  0  0  0  0
  2  6  2  0  0  0  0
  3  8  2  0  0  0  0
  3 15  1  0  0  0  0
  4  9  1  0  0  0  0
  4 15  2  0  0  0  0
  5 17  1  0  0  0  0
  6 19  1  0  0  0  0
  7 10  2  0  0  0  0
  7 18  1  0  0  0  0
  8 22  1  0  0  0  0
  9 22  2  0  0  0  0
 10 23  1  0  0  0  0
 11 12  2  0  0  0  0
 11 24  1  0  0  0  0
 12 25  1  0  0  0  0
 13 20  1  0  0  0  0
 13 23  2  0  0  0  0
 14 25  2  0  0  0  0
 14 26  1  0  0  0  0
 15 28  1  0  0  0  0
 16 28  1  0  0  0  0
 16 31  2  0  0  0  0
 16 32  1  0  0  0  0
 17 19  2  0  0  0  0
 17 37  1  0  0  0  0
 18 20  2  0  0  0  0
 18 38  1  0  0  0  0
 19 46  1  0  0  0  0
 20 39  1  0  0  0  0
 21 27  1  0  0  0  0
 21 29  2  0  0  0  0
 21 61  1  0  0  0  0
 22 81  1  0  0  0  0
 23 82  1  0  0  0  0
 24 26  2  0  0  0  0
 24 81  1  0  0  0  0
 25 83  1  0  0  0  0
 26 84  1  0  0  0  0
 27 30  2  0  0  0  0
 27 85  1  0  0  0  0
 28 65  2  0  0  0  0
 29 49  1  0  0  0  0
 29 66  1  0  0  0  0
 30 57  1  0  0  0  0
 30 66  1  0  0  0  0
 31 67  1  0  0  0  0
 31 70  1  0  0  0  0
 32 71  1  0  0  0  0
 32 76  2  0  0  0  0
 33 47  1  0  0  0  0
 33 72  1  0  0  0  0
 33 77  2  0  0  0  0
 34 62  1  0  0  0  0
 34 68  1  0  0  0  0
 34 78  2  0  0  0  0
 35 63  1  0  0  0  0
 35 73  1  0  0  0  0
 35 79  2  0  0  0  0
 36 69  1  0  0  0  0
 36 74  1  0  0  0  0
 36 80  2  0  0  0  0
 37 40  1  0  0  0  0
 38 47  1  0  0  0  0
 39 68  1  0  0  0  0
 40 42  1  0  0  0  0
 41 43  1  0  0  0  0
 41 44  1  0  0  0  0
 42 46  1  0  0  0  0
 43 48  1  0  0  0  0
 44 69  1  0  0  0  0
 45 48  1  0  0  0  0
 45 69  1  0  0  0  0
 46 72  1  0  0  0  0
 47 68  1  0  0  0  0
 48 67  1  0  0  0  0
 50 58  1  0  0  0  0
 51 63  1  0  0  0  0
 52 64  1  0  0  0  0
 53 64  1  0  0  0  0
 54 64  1  0  0  0  0
 55 66  1  0  0  0  0
 56 75  1  0  0  0  0
 57 82  1  0  0  0  0
 58 59  1  0  0  0  0
 59 61  1  0  0  0  0
 60 61  1  0  0  0  0
 60 74  1  0  0  0  0
 62 64  1  0  0  0  0
 62 73  1  0  0  0  0
 63 75  1  0  0  0  0
 65 67  1  0  0  0  0
M  CHG  1  75   1
M  ISO  4  36 100  57 101  74 100  82 101
M  END
> <Batch ID>
0024

> <Smiles>
CCCC(C[100NH:0][100C:0](=O)N1CCCC(n2nc(-c3ccc(Oc4ccc(F)cc4F)cc3)c(C(N)=O)c2N)C1)c1c(Cl)c([101CH2:1][101O:1]c2ccc3c(c2)CN(C(=O)C(NC(=O)C(C)NC)C(C)(C)C)C(C(=O)NC2CCCc4ccccc42)C3)n(C)c1C

> <Shape>
0.244

> <Color>
0.115

> <Negative vol penalty>
0.000

$$$$

  -OEChem-04052316223D

 82 90  0     1  0  0  0  0  0999 V2000
  -44.5880  -26.1198   26.6973 C   0  0  0  0  0  0  0  0  0  0  0  0
  -44.0510  -24.8679   26.4149 C   0  0  0  0  0  0  0  0  0  0  0  0
  -23.0755   -9.8682   19.9406 C   0  0  0  0  0  0  0  0  0  0  0  0
  -23.8350   -9.8748   22.2341 C   0  0  0  0  0  0  0  0  0  0  0  0
  -43.7429  -27.2107   26.8966 C   0  0  0  0  0  0  0  0  0  0  0  0
  -42.6684  -24.7060   26.3326 C   0  0  0  0  0  0  0  0  0  0  0  0
  -37.6897  -20.9023   22.8598 C   0  0  0  0  0  0  0  0  0  0  0  0
  -22.3313   -8.7152   20.1904 C   0  0  0  0  0  0  0  0  0  0  0  0
  -23.0908   -8.7218   22.4839 C   0  0  0  0  0  0  0  0  0  0  0  0
  -36.5799  -20.0967   23.1114 C   0  0  0  0  0  0  0  0  0  0  0  0
  -19.8623   -7.9248   23.0858 C   0  0  0  0  0  0  0  0  0  0  0  0
  -19.1052   -7.8850   24.2566 C   0  0  0  0  0  0  0  0  0  0  0  0
  -35.2204  -22.0690   23.3958 C   0  0  0  0  0  0  0  0  0  0  0  0
  -32.4642  -17.1241   23.9298 C   0  0  0  0  0  0  0  0  0  0  0  0
  -20.3460   -5.9471   24.9931 C   0  0  0  0  0  0  0  0  0  0  0  0
  -23.8274  -10.4480   20.9625 C   0  0  0  0  0  0  0  0  0  0  0  0
  -24.1699  -12.9731   20.8427 C   0  0  0  0  0  0  0  0  0  0  0  0
  -42.3497  -27.0641   26.8073 C   0  0  0  0  0  0  0  0  0  0  0  0
  -37.5753  -22.2996   22.8851 C   0  0  0  0  0  0  0  0  0  0  0  0
  -41.8039  -25.7957   26.5323 C   0  0  0  0  0  0  0  0  0  0  0  0
  -36.3296  -22.8900   23.1417 C   0  0  0  0  0  0  0  0  0  0  0  0
  -31.8601  -18.3508   24.2053 C   0  0  0  0  0  0  0  0  0  0  0  0
  -30.6651  -18.6969   23.5747 C   0  0  0  0  0  0  0  0  0  0  0  0
  -30.6782  -16.5896   22.3931 C   0  0  0  0  0  0  0  0  0  0  0  0
  -22.3389   -8.1420   21.4620 C   0  0  0  0  0  0  0  0  0  0  0  0
  -35.3457  -20.6801   23.3823 C   0  0  0  0  0  0  0  0  0  0  0  0
  -20.8613   -6.9758   22.8686 C   0  0  0  0  0  0  0  0  0  0  0  0
  -19.3470   -6.8962   25.2103 C   0  0  0  0  0  0  0  0  0  0  0  0
  -21.1031   -5.9870   23.8223 C   0  0  0  0  0  0  0  0  0  0  0  0
  -31.8733  -16.2435   23.0237 C   0  0  0  0  0  0  0  0  0  0  0  0
  -30.0741  -17.8163   22.6685 C   0  0  0  0  0  0  0  0  0  0  0  0
  -24.5969  -11.6387   20.7050 C   0  0  0  0  0  0  0  0  0  0  0  0
  -25.2623  -13.7223   20.4797 C   0  0  0  0  0  0  0  0  0  0  0  0
  -22.8995  -13.4892   21.2615 C   0  0  0  0  0  0  0  0  0  0  0  0
  -38.8595  -24.6241   24.6320 C   0  0  0  0  0  0  0  0  0  0  0  0
  -37.3034  -26.5368   22.5244 C   0  0  0  0  0  0  0  0  0  0  0  0
  -34.7516  -26.9115   20.2895 C   0  0  0  0  0  0  0  0  0  0  0  0
  -30.7288  -14.7664   20.6553 C   0  0  0  0  0  0  0  0  0  0  0  0
  -41.4748  -28.2626   27.0772 C   0  0  0  0  0  0  0  0  0  0  0  0
  -38.7761  -23.1544   22.5853 C   0  0  0  0  0  0  0  0  0  0  0  0
  -36.1495  -24.3852   23.1605 C   0  0  0  0  0  0  0  0  0  0  0  0
  -40.0349  -28.0849   26.6025 C   0  0  0  0  0  0  0  0  0  0  0  0
  -29.6141  -12.3531   18.2867 C   0  0  0  0  0  0  0  0  0  0  0  0
  -39.4949  -26.7248   27.0331 C   0  0  0  0  0  0  0  0  0  0  0  0
  -28.1743  -12.0619   18.7160 C   0  0  0  0  0  0  0  0  0  0  0  0
  -30.5291  -12.5816   19.4885 C   0  0  0  0  0  0  0  0  0  0  0  0
  -28.6221  -13.3064   20.8695 C   0  0  0  0  0  0  0  0  0  0  0  0
  -40.3102  -25.5852   26.4104 C   0  0  1  0  0  0  0  0  0  0  0  0
  -38.6572  -24.5689   23.1442 C   0  0  1  0  0  0  0  0  0  0  0  0
  -27.6494  -13.1335   19.6915 C   0  0  2  0  0  0  0  0  0  0  0  0
  -30.0357  -20.0200   23.8855 C   0  0  0  0  0  0  0  0  0  0  0  0
  -33.7113  -28.6005   18.7524 C   0  0  0  0  0  0  0  0  0  0  0  0
  -36.0275  -27.9286   24.9212 C   0  0  0  0  0  0  0  0  0  0  0  0
  -34.3364  -28.9143   23.3603 C   0  0  0  0  0  0  0  0  0  0  0  0
  -36.7538  -29.4659   23.0872 C   0  0  0  0  0  0  0  0  0  0  0  0
  -35.2825  -25.2405   17.9052 C   0  0  0  0  0  0  0  0  0  0  0  0
  -32.5223  -19.2844   25.1893 C   0  0  0  0  0  0  0  0  0  0  0  0
  -33.2613  -20.4255   24.4988 C   0  0  0  0  0  0  0  0  0  1  0  0
  -35.9299  -27.1598   22.4584 C   0  0  1  0  0  0  0  0  0  0  0  0
  -34.7222  -27.4714   18.8788 C   0  0  2  0  0  0  0  0  0  0  0  0
  -35.7654  -28.3390   23.4584 C   0  0  0  0  0  0  0  0  0  0  0  0
  -25.8618  -11.5426   20.2869 N   0  0  0  0  0  0  0  0  0  0  0  0
  -26.2390  -12.8260   20.1587 N   0  0  0  0  0  0  0  0  0  0  0  0
  -37.3548  -25.1784   22.8675 N   0  0  0  0  0  0  0  0  0  0  0  0
  -29.9702  -13.6125   20.3659 N   0  0  0  0  0  0  0  0  0  0  0  0
  -25.4731  -15.0537   20.4068 N   0  0  0  0  0  0  0  0  0  0  0  0
  -21.8873  -12.5802   21.5985 N   0  0  0  0  0  0  0  0  0  0  0  0
  -30.0815  -15.6916   21.4737 N   0  0  0  0  0  0  0  0  0  0  0  0
  -39.9369  -25.3949   25.0251 N   0  0  0  0  0  0  0  0  0  0  0  0
  -35.7141  -27.5255   21.0627 N   0  0  0  0  0  0  0  0  0  0  0  0
  -34.3582  -26.4035   17.9051 N   0  3  0  0  0  0  0  0  0  0  0  0
  -22.6636  -14.7198   21.3189 O   0  0  0  0  0  0  0  0  0  0  0  0
  -38.0939  -24.0137   25.3689 O   0  0  0  0  0  0  0  0  0  0  0  0
  -38.2937  -27.2282   22.2735 O   0  0  0  0  0  0  0  0  0  0  0  0
  -33.9938  -26.0213   20.6687 O   0  0  0  0  0  0  0  0  0  0  0  0
  -31.8580  -14.9349   20.1879 O   0  0  0  0  0  0  0  0  0  0  0  0
  -21.6126   -7.0171   21.7061 O   0  0  0  0  0  0  0  0  0  0  0  0
  -34.2610  -19.8962   23.6288 O   0  0  0  0  0  0  0  0  0  1  0  0
  -18.6209   -6.8590   26.3352 F   0  0  0  0  0  0  0  0  0  0  0  0
  -22.0622   -5.0732   23.6197 F   0  0  0  0  0  0  0  0  0  0  0  0
  -32.6606  -14.7358   22.7160 Cl  0  0  0  0  0  0  0  0  0  0  0  0
  -28.5873  -18.2549   21.8880 Cl  0  0  0  0  0  0  0  0  0  0  0  0
  1  2  1  0  0  0  0
  1  5  2  0  0  0  0
  2  6  2  0  0  0  0
  3  8  2  0  0  0  0
  3 16  1  0  0  0  0
  4  9  1  0  0  0  0
  4 16  2  0  0  0  0
  5 18  1  0  0  0  0
  6 20  1  0  0  0  0
  7 10  2  0  0  0  0
  7 19  1  0  0  0  0
  8 25  1  0  0  0  0
  9 25  2  0  0  0  0
 10 26  1  0  0  0  0
 11 12  2  0  0  0  0
 11 27  1  0  0  0  0
 12 28  1  0  0  0  0
 13 21  1  0  0  0  0
 13 26  2  0  0  0  0
 14 22  1  0  0  0  0
 14 30  2  0  0  0  0
 15 28  2  0  0  0  0
 15 29  1  0  0  0  0
 16 32  1  0  0  0  0
 17 32  1  0  0  0  0
 17 33  2  0  0  0  0
 17 34  1  0  0  0  0
 18 20  2  0  0  0  0
 18 39  1  0  0  0  0
 19 21  2  0  0  0  0
 19 40  1  0  0  0  0
 20 48  1  0  0  0  0
 21 41  1  0  0  0  0
 22 23  2  0  0  0  0
 22 57  1  0  0  0  0
 23 31  1  0  0  0  0
 23 51  1  0  0  0  0
 24 30  1  0  0  0  0
 24 31  2  0  0  0  0
 24 68  1  0  0  0  0
 25 77  1  0  0  0  0
 26 78  1  0  0  0  0
 27 29  2  0  0  0  0
 27 77  1  0  0  0  0
 28 79  1  0  0  0  0
 29 80  1  0  0  0  0
 30 81  1  0  0  0  0
 31 82  1  0  0  0  0
 32 62  2  0  0  0  0
 33 63  1  0  0  0  0
 33 66  1  0  0  0  0
 34 67  1  0  0  0  0
 34 72  2  0  0  0  0
 35 49  1  0  0  0  0
 35 69  1  0  0  0  0
 35 73  2  0  0  0  0
 36 59  1  0  0  0  0
 36 64  1  0  0  0  0
 36 74  2  0  0  0  0
 37 60  1  0  0  0  0
 37 70  1  0  0  0  0
 37 75  2  0  0  0  0
 38 65  1  0  0  0  0
 38 68  1  0  0  0  0
 38 76  2  0  0  0  0
 39 42  1  0  0  0  0
 40 49  1  0  0  0  0
 41 64  1  0  0  0  0
 42 44  1  0  0  0  0
 43 45  1  0  0  0  0
 43 46  1  0  0  0  0
 44 48  1  0  0  0  0
 45 50  1  0  0  0  0
 46 65  1  0  0  0  0
 47 50  1  0  0  0  0
 47 65  1  0  0  0  0
 48 69  1  0  0  0  0
 49 64  1  0  0  0  0
 50 63  1  0  0  0  0
 52 60  1  0  0  0  0
 53 61  1  0  0  0  0
 54 61  1  0  0  0  0
 55 61  1  0  0  0  0
 56 71  1  0  0  0  0
 57 58  1  0  0  0  0
 58 78  1  0  0  0  0
 59 61  1  0  0  0  0
 59 70  1  0  0  0  0
 60 71  1  0  0  0  0
 62 63  1  0  0  0  0
M  CHG  1  71   1
M  ISO  4  38 100  58 101  68 100  78 101
M  END
> <Batch ID>
0024

> <Smiles>
CNC(C)C(=O)NC(C(=O)N1Cc2cc([101O:1][101CH2:1]Cc3cc(Cl)c([100NH:0][100C:0](=O)N4CCCC(n5nc(-c6ccc(Oc7ccc(F)cc7F)cc6)c(C(N)=O)c5N)C4)c(Cl)c3C)ccc2CC1C(=O)NC1CCCc2ccccc21)C(C)(C)C

> <Shape>
0.173

> <Color>
0.200

> <Negative vol penalty>
0.000

$$$$

  -OEChem-04052316223D

 93101  0     1  0  0  0  0  0999 V2000
  -24.1981  -25.3898   25.0905 C   0  0  0  0  0  0  0  0  0  0  0  0
  -24.9620  -24.5431   24.2937 C   0  0  0  0  0  0  0  0  0  0  0  0
  -23.2263   -9.6954   20.0272 C   0  0  0  0  0  0  0  0  0  0  0  0
  -23.8893   -9.9173   22.3398 C   0  0  0  0  0  0  0  0  0  0  0  0
  -24.2221  -26.7657   24.8666 C   0  0  0  0  0  0  0  0  0  0  0  0
  -25.7497  -25.0719   23.2717 C   0  0  0  0  0  0  0  0  0  0  0  0
  -31.1947  -23.0066   21.3764 C   0  0  0  0  0  0  0  0  0  0  0  0
  -22.5484   -8.5159   20.3347 C   0  0  0  0  0  0  0  0  0  0  0  0
  -23.2113   -8.7377   22.6473 C   0  0  0  0  0  0  0  0  0  0  0  0
  -31.5693  -22.1939   20.3073 C   0  0  0  0  0  0  0  0  0  0  0  0
  -20.0190   -7.7704   23.1896 C   0  0  0  0  0  0  0  0  0  0  0  0
  -19.2187   -7.7636   24.3320 C   0  0  0  0  0  0  0  0  0  0  0  0
  -32.0610  -24.1573   18.9949 C   0  0  0  0  0  0  0  0  0  0  0  0
  -25.9799  -22.8682   16.2671 C   0  0  0  0  0  0  0  0  0  0  0  0
  -20.5506   -5.9714   25.2545 C   0  0  0  0  0  0  0  0  0  0  0  0
  -23.8968  -10.3962   21.0298 C   0  0  0  0  0  0  0  0  0  0  0  0
  -24.0804  -12.9235   20.7356 C   0  0  0  0  0  0  0  0  0  0  0  0
  -25.0179  -27.3125   23.8476 C   0  0  0  0  0  0  0  0  0  0  0  0
  -31.2401  -24.4032   21.2589 C   0  0  0  0  0  0  0  0  0  0  0  0
  -25.7833  -26.4563   23.0331 C   0  0  0  0  0  0  0  0  0  0  0  0
  -31.6888  -24.9855   20.0649 C   0  0  0  0  0  0  0  0  0  0  0  0
  -25.9438  -23.2481   17.6087 C   0  0  0  0  0  0  0  0  0  0  0  0
  -26.2841  -21.5510   15.9232 C   0  0  0  0  0  0  0  0  0  0  0  0
  -26.5164  -20.9938   18.2625 C   0  0  0  0  0  0  0  0  0  0  0  0
  -22.5408   -8.0370   21.6447 C   0  0  0  0  0  0  0  0  0  0  0  0
  -31.9998  -22.7692   19.1154 C   0  0  0  0  0  0  0  0  0  0  0  0
  -21.0851   -6.8776   23.0796 C   0  0  0  0  0  0  0  0  0  0  0  0
  -19.4845   -6.8642   25.3645 C   0  0  0  0  0  0  0  0  0  0  0  0
  -21.3509   -5.9781   24.1121 C   0  0  0  0  0  0  0  0  0  0  0  0
  -26.2121  -22.3110   18.6064 C   0  0  0  0  0  0  0  0  0  0  0  0
  -26.5524  -20.6139   16.9209 C   0  0  0  0  0  0  0  0  0  0  0  0
  -24.5978  -11.6144   20.7127 C   0  0  0  0  0  0  0  0  0  0  0  0
  -25.1362  -13.7166   20.3577 C   0  0  0  0  0  0  0  0  0  0  0  0
  -22.7633  -13.3816   21.0688 C   0  0  0  0  0  0  0  0  0  0  0  0
  -29.0876  -26.7376   21.4035 C   0  0  0  0  0  0  0  0  0  0  0  0
  -31.7084  -28.6381   21.1989 C   0  0  0  0  0  0  0  0  0  0  0  0
  -34.9605  -28.9940   20.2273 C   0  0  0  0  0  0  0  0  0  0  0  0
  -30.5308  -15.1119   20.6692 C   0  0  0  0  0  0  0  0  0  0  0  0
  -24.9748  -28.8017   23.6130 C   0  0  0  0  0  0  0  0  0  0  0  0
  -30.8581  -25.2657   22.4305 C   0  0  0  0  0  0  0  0  0  0  0  0
  -31.7752  -26.4795   19.8947 C   0  0  0  0  0  0  0  0  0  0  0  0
  -26.1252  -29.3161   22.7514 C   0  0  0  0  0  0  0  0  0  0  0  0
  -29.6477  -12.4919   18.4258 C   0  0  0  0  0  0  0  0  0  0  0  0
  -26.3115  -28.4290   21.5246 C   0  0  0  0  0  0  0  0  0  0  0  0
  -28.2155  -12.1342   18.8267 C   0  0  0  0  0  0  0  0  0  0  0  0
  -30.4987  -12.8590   19.6395 C   0  0  0  0  0  0  0  0  0  0  0  0
  -28.4985  -13.5582   20.8982 C   0  0  0  0  0  0  0  0  0  0  0  0
  -26.6695  -26.9942   21.9306 C   0  0  1  0  0  0  0  0  0  0  0  0
  -30.4544  -26.6798   22.0249 C   0  0  1  0  0  0  0  0  0  0  0  0
  -27.5868  -13.2350   19.7021 C   0  0  2  0  0  0  0  0  0  0  0  0
  -25.6111  -24.6700   17.9298 C   0  0  0  0  0  0  0  0  0  0  0  0
  -36.8226  -30.6746   20.1565 C   0  0  0  0  0  0  0  0  0  0  0  0
  -30.3650  -30.0234   18.8354 C   0  0  0  0  0  0  0  0  0  0  0  0
  -32.5910  -30.9965   18.2301 C   0  0  0  0  0  0  0  0  0  0  0  0
  -31.5372  -31.5640   20.4188 C   0  0  0  0  0  0  0  0  0  0  0  0
  -36.6887  -27.3245   21.9550 C   0  0  0  0  0  0  0  0  0  0  0  0
  -26.8064  -19.9869   19.3345 C   0  0  0  0  0  0  0  0  0  0  0  0
  -26.3086  -21.1883   14.4676 C   0  0  0  0  0  0  0  0  0  0  0  0
  -28.3080  -19.7066   19.4675 C   0  0  0  0  0  0  0  0  0  0  0  0
  -28.5894  -18.6502   20.5381 C   0  0  0  0  0  0  0  0  0  0  0  0
  -30.6938  -20.9461   14.2214 C   0  0  0  0  0  0  0  0  0  0  0  0
  -30.8164  -21.3545   15.6912 C   0  0  0  0  0  0  0  0  0  0  0  0
  -30.0929  -18.4037   20.6933 C   0  0  0  0  0  0  0  0  0  0  0  0
  -29.9072  -21.9879   13.4206 C   0  0  0  0  0  0  0  0  0  0  0  0
  -31.6286  -20.3338   16.4857 C   0  0  0  0  0  0  0  0  0  0  0  0
  -30.4075  -17.3449   21.7450 C   0  0  0  0  0  0  0  0  0  0  0  0
  -28.5137  -22.2539   13.9766 C   0  0  0  0  0  0  0  0  0  0  0  0
  -31.7193  -20.7109   17.9575 C   0  0  0  0  0  0  0  0  0  1  0  0
  -32.4982  -29.2519   20.0683 C   0  0  1  0  0  0  0  0  0  0  0  0
  -36.1726  -29.5524   20.9507 C   0  0  2  0  0  0  0  0  0  0  0  0
  -31.7445  -30.4308   19.3904 C   0  0  0  0  0  0  0  0  0  0  0  0
  -25.8823  -11.5740   20.3488 N   0  0  0  0  0  0  0  0  0  0  0  0
  -26.1809  -12.8674   20.1396 N   0  0  0  0  0  0  0  0  0  0  0  0
  -31.3848  -27.2803   21.0667 N   0  0  0  0  0  0  0  0  0  0  0  0
  -29.8472  -13.9090   20.4263 N   0  0  0  0  0  0  0  0  0  0  0  0
  -25.2635  -15.0506   20.1940 N   0  0  0  0  0  0  0  0  0  0  0  0
  -21.7988  -12.4331   21.4354 N   0  0  0  0  0  0  0  0  0  0  0  0
  -28.0625  -26.9101   22.3139 N   0  0  0  0  0  0  0  0  0  0  0  0
  -33.7961  -29.6150   20.6270 N   0  0  0  0  0  0  0  0  0  0  0  0
  -29.8391  -16.0562   21.4178 N   0  0  0  0  0  0  0  0  0  0  0  0
  -37.1860  -28.4813   21.1667 N   0  3  0  0  0  0  0  0  0  0  0  0
  -27.6878  -21.0246   13.9302 N   0  3  0  0  0  0  0  0  0  0  0  0
  -22.4463  -14.5946   21.0262 O   0  0  0  0  0  0  0  0  0  0  0  0
  -28.9717  -26.6348   20.1879 O   0  0  0  0  0  0  0  0  0  0  0  0
  -31.3963  -29.3359   22.1671 O   0  0  0  0  0  0  0  0  0  0  0  0
  -35.0392  -28.0990   19.3885 O   0  0  0  0  0  0  0  0  0  0  0  0
  -31.6708  -15.3302   20.2453 O   0  0  0  0  0  0  0  0  0  0  0  0
  -21.8792   -6.8861   21.9452 O   0  0  0  0  0  0  0  0  0  0  0  0
  -32.3653  -21.9783   18.0701 O   0  0  0  0  0  0  0  0  0  1  0  0
  -18.7168   -6.8588   26.4621 F   0  0  0  0  0  0  0  0  0  0  0  0
  -22.3744   -5.1189   24.0126 F   0  0  0  0  0  0  0  0  0  0  0  0
  -26.1650  -22.7906   20.2709 Cl  0  0  0  0  0  0  0  0  0  0  0  0
  -26.9300  -18.9790   16.4862 Cl  0  0  0  0  0  0  0  0  0  0  0  0
  1  2  1  0  0  0  0
  1  5  2  0  0  0  0
  2  6  2  0  0  0  0
  3  8  2  0  0  0  0
  3 16  1  0  0  0  0
  4  9  1  0  0  0  0
  4 16  2  0  0  0  0
  5 18  1  0  0  0  0
  6 20  1  0  0  0  0
  7 10  2  0  0  0  0
  7 19  1  0  0  0  0
  8 25  1  0  0  0  0
  9 25  2  0  0  0  0
 10 26  1  0  0  0  0
 11 12  2  0  0  0  0
 11 27  1  0  0  0  0
 12 28  1  0  0  0  0
 13 21  1  0  0  0  0
 13 26  2  0  0  0  0
 14 22  2  0  0  0  0
 14 23  1  0  0  0  0
 15 28  2  0  0  0  0
 15 29  1  0  0  0  0
 16 32  1  0  0  0  0
 17 32  1  0  0  0  0
 17 33  2  0  0  0  0
 17 34  1  0  0  0  0
 18 20  2  0  0  0  0
 18 39  1  0  0  0  0
 19 21  2  0  0  0  0
 19 40  1  0  0  0  0
 20 48  1  0  0  0  0
 21 41  1  0  0  0  0
 22 30  1  0  0  0  0
 22 51  1  0  0  0  0
 23 31  2  0  0  0  0
 23 58  1  0  0  0  0
 24 30  2  0  0  0  0
 24 31  1  0  0  0  0
 24 57  1  0  0  0  0
 25 88  1  0  0  0  0
 26 89  1  0  0  0  0
 27 29  2  0  0  0  0
 27 88  1  0  0  0  0
 28 90  1  0  0  0  0
 29 91  1  0  0  0  0
 30 92  1  0  0  0  0
 31 93  1  0  0  0  0
 32 72  2  0  0  0  0
 33 73  1  0  0  0  0
 33 76  1  0  0  0  0
 34 77  1  0  0  0  0
 34 83  2  0  0  0  0
 35 49  1  0  0  0  0
 35 78  1  0  0  0  0
 35 84  2  0  0  0  0
 36 69  1  0  0  0  0
 36 74  1  0  0  0  0
 36 85  2  0  0  0  0
 37 70  1  0  0  0  0
 37 79  1  0  0  0  0
 37 86  2  0  0  0  0
 38 75  1  0  0  0  0
 38 80  1  0  0  0  0
 38 87  2  0  0  0  0
 39 42  1  0  0  0  0
 40 49  1  0  0  0  0
 41 74  1  0  0  0  0
 42 44  1  0  0  0  0
 43 45  1  0  0  0  0
 43 46  1  0  0  0  0
 44 48  1  0  0  0  0
 45 50  1  0  0  0  0
 46 75  1  0  0  0  0
 47 50  1  0  0  0  0
 47 75  1  0  0  0  0
 48 78  1  0  0  0  0
 49 74  1  0  0  0  0
 50 73  1  0  0  0  0
 52 70  1  0  0  0  0
 53 71  1  0  0  0  0
 54 71  1  0  0  0  0
 55 71  1  0  0  0  0
 56 81  1  0  0  0  0
 57 59  1  0  0  0  0
 58 82  1  0  0  0  0
 59 60  1  0  0  0  0
 60 63  1  0  0  0  0
 61 62  1  0  0  0  0
 61 64  1  0  0  0  0
 62 65  1  0  0  0  0
 63 66  1  0  0  0  0
 64 67  1  0  0  0  0
 65 68  1  0  0  0  0
 66 80  1  0  0  0  0
 67 82  1  0  0  0  0
 68 89  1  0  0  0  0
 69 71  1  0  0  0  0
 69 79  1  0  0  0  0
 70 81  1  0  0  0  0
 72 73  1  0  0  0  0
M  CHG  2  81   1  82   1
M  ISO  4  38 100  68 101  80 100  89 101
M  END
> <Batch ID>
0024

> <Smiles>
CNC(C)C(=O)NC(C(=O)N1Cc2cc([101O:1][101CH2:1]CCCCCNCc3cc(C)c(Cl)c(CCCCC[100NH:0][100C:0](=O)N4CCCC(n5nc(-c6ccc(Oc7ccc(F)cc7F)cc6)c(C(N)=O)c5N)C4)c3Cl)ccc2CC1C(=O)NC1CCCc2ccccc21)C(C)(C)C

> <Shape>
0.234

> <Color>
0.187

> <Negative vol penalty>
0.000

$$$$
