
  -OEChem-04052316243D

 91 99  0     1  0  0  0  0  0999 V2000
  -25.5011  -19.0750   14.7647 C   0  0  0  0  0  0  0  0  0  0  0  0
  -25.9794  -17.8115   15.0931 C   0  0  0  0  0  0  0  0  0  0  0  0
  -22.9970  -29.5590   21.5698 C   0  0  0  0  0  0  0  0  0  0  0  0
  -23.9494  -27.7412   22.8448 C   0  0  0  0  0  0  0  0  0  0  0  0
  -24.8368  -19.8357   15.7244 C   0  0  0  0  0  0  0  0  0  0  0  0
  -25.7830  -17.3035   16.3778 C   0  0  0  0  0  0  0  0  0  0  0  0
  -27.7227  -12.1203   18.9271 C   0  0  0  0  0  0  0  0  0  0  0  0
  -21.9082  -29.5994   22.4406 C   0  0  0  0  0  0  0  0  0  0  0  0
  -22.8606  -27.7816   23.7157 C   0  0  0  0  0  0  0  0  0  0  0  0
  -28.8190  -11.6870   19.6716 C   0  0  0  0  0  0  0  0  0  0  0  0
  -19.0531  -27.8607   22.9405 C   0  0  0  0  0  0  0  0  0  0  0  0
  -17.7796  -27.9608   22.3804 C   0  0  0  0  0  0  0  0  0  0  0  0
  -27.5565  -12.0021   21.7029 C   0  0  0  0  0  0  0  0  0  0  0  0
  -32.4782  -17.4255   22.2746 C   0  0  0  0  0  0  0  0  0  0  0  0
  -17.4255  -30.0408   23.5575 C   0  0  0  0  0  0  0  0  0  0  0  0
  -24.0176  -28.6299   21.7718 C   0  0  0  0  0  0  0  0  0  0  0  0
  -26.3505  -29.3006   20.9873 C   0  0  0  0  0  0  0  0  0  0  0  0
  -24.6436  -19.3411   17.0248 C   0  0  0  0  0  0  0  0  0  0  0  0
  -26.5368  -12.5088   19.5667 C   0  0  0  0  0  0  0  0  0  0  0  0
  -25.0939  -18.0463   17.3535 C   0  0  0  0  0  0  0  0  0  0  0  0
  -26.4458  -12.4376   20.9641 C   0  0  0  0  0  0  0  0  0  0  0  0
  -31.8435  -16.3952   21.5809 C   0  0  0  0  0  0  0  0  0  0  0  0
  -30.6679  -16.6506   20.8749 C   0  0  0  0  0  0  0  0  0  0  0  0
  -30.7616  -18.9666   21.5564 C   0  0  0  0  0  0  0  0  0  0  0  0
  -21.8400  -28.7108   23.5136 C   0  0  0  0  0  0  0  0  0  0  0  0
  -28.7370  -11.6306   21.0598 C   0  0  0  0  0  0  0  0  0  0  0  0
  -19.5129  -28.8506   23.8091 C   0  0  0  0  0  0  0  0  0  0  0  0
  -16.9658  -29.0509   22.6888 C   0  0  0  0  0  0  0  0  0  0  0  0
  -18.6991  -29.9406   24.1176 C   0  0  0  0  0  0  0  0  0  0  0  0
  -31.9372  -18.7112   22.2624 C   0  0  0  0  0  0  0  0  0  0  0  0
  -30.1270  -17.9362   20.8626 C   0  0  0  0  0  0  0  0  0  0  0  0
  -25.1423  -28.5872   20.8722 C   0  0  0  0  0  0  0  0  0  0  0  0
  -27.0829  -28.9146   19.8914 C   0  0  0  0  0  0  0  0  0  0  0  0
  -26.7729  -30.2292   21.9948 C   0  0  0  0  0  0  0  0  0  0  0  0
  -24.8699  -15.2089   19.7538 C   0  0  0  0  0  0  0  0  0  0  0  0
  -22.7447  -13.3307   21.3280 C   0  0  0  0  0  0  0  0  0  0  0  0
  -22.1757  -10.5147   23.1701 C   0  0  0  0  0  0  0  0  0  0  0  0
  -27.0081  -24.0090   16.4592 C   0  0  0  0  0  0  0  0  0  0  0  0
  -23.9110  -20.2037   18.0221 C   0  0  0  0  0  0  0  0  0  0  0  0
  -25.3542  -12.9485   18.7478 C   0  0  0  0  0  0  0  0  0  0  0  0
  -25.1885  -12.8243   21.6977 C   0  0  0  0  0  0  0  0  0  0  0  0
  -24.1412  -19.7695   19.4660 C   0  0  0  0  0  0  0  0  0  0  0  0
  -26.5606  -27.3759   15.3914 C   0  0  0  0  0  0  0  0  0  0  0  0
  -23.9111  -18.2717   19.6013 C   0  0  0  0  0  0  0  0  0  0  0  0
  -26.2554  -28.1325   16.6854 C   0  0  0  0  0  0  0  0  0  0  0  0
  -25.9455  -25.9782   15.3964 C   0  0  0  0  0  0  0  0  0  0  0  0
  -25.9924  -25.9074   17.8594 C   0  0  0  0  0  0  0  0  0  0  0  0
  -24.9189  -17.4856   18.7532 C   0  0  1  0  0  0  0  0  0  0  0  0
  -24.3699  -13.8091   19.5338 C   0  0  1  0  0  0  0  0  0  0  0  0
  -26.6391  -27.3016   17.9246 C   0  0  2  0  0  0  0  0  0  0  0  0
  -30.0038  -15.5291   20.1373 C   0  0  0  0  0  0  0  0  0  0  0  0
  -20.3433   -9.2668   24.3459 C   0  0  0  0  0  0  0  0  0  0  0  0
  -22.8228  -15.3634   23.6021 C   0  0  0  0  0  0  0  0  0  0  0  0
  -21.7667  -13.6431   25.0830 C   0  0  0  0  0  0  0  0  0  0  0  0
  -20.5451  -14.4761   23.0739 C   0  0  0  0  0  0  0  0  0  0  0  0
  -22.5408   -8.1304   21.4553 C   0  0  0  0  0  0  0  0  0  0  0  0
  -32.4477  -15.0223   21.6115 C   0  0  0  0  0  0  0  0  0  0  0  0
  -30.1848  -20.3499   21.5466 C   0  0  0  0  0  0  0  0  0  0  0  0
  -29.5679  -22.2691   17.6629 C   0  0  0  0  0  0  0  0  0  0  0  0
  -30.0758  -23.0809   18.8603 C   0  0  0  0  0  0  0  0  0  0  0  0
  -31.4361  -11.8142   23.4407 C   0  0  0  0  0  0  0  0  0  0  0  0
  -28.0504  -22.1089   17.6686 C   0  0  0  0  0  0  0  0  0  0  0  0
  -29.7917  -22.4187   20.2034 C   0  0  0  0  0  0  0  0  0  0  0  0
  -32.2427  -12.6971   22.5004 C   0  0  0  0  0  0  0  0  0  0  0  0
  -29.9522  -11.7512   23.1006 C   0  0  0  0  0  0  0  0  0  1  0  0
  -22.5280  -12.9374   22.7693 C   0  0  1  0  0  0  0  0  0  0  0  0
  -21.1224   -9.4281   23.0499 C   0  0  2  0  0  0  0  0  0  0  0  0
  -21.9401  -14.0995   23.6187 C   0  0  0  0  0  0  0  0  0  0  0  0
  -25.1054  -27.8072   19.7886 N   0  0  0  0  0  0  0  0  0  0  0  0
  -26.2994  -28.0282   19.2128 N   0  0  0  0  0  0  0  0  0  0  0  0
  -24.0616  -13.2536   20.8530 N   0  0  0  0  0  0  0  0  0  0  0  0
  -26.3497  -25.2421   16.5967 N   0  0  0  0  0  0  0  0  0  0  0  0
  -28.3143  -29.2503   19.4517 N   0  0  0  0  0  0  0  0  0  0  0  0
  -25.8970  -30.5126   23.0516 N   0  0  0  0  0  0  0  0  0  0  0  0
  -24.5393  -16.0900   18.7420 N   0  0  0  0  0  0  0  0  0  0  0  0
  -21.6995  -11.7368   22.7447 N   0  0  0  0  0  0  0  0  0  0  0  0
  -27.3621  -23.3804   17.6468 N   0  0  0  0  0  0  0  0  0  0  0  0
  -21.7605   -8.1225   22.7194 N   0  3  0  0  0  0  0  0  0  0  0  0
  -31.7092  -14.0794   22.4965 N   0  3  0  0  0  0  0  0  0  0  0  0
  -30.4032  -21.0642   20.2618 N   0  3  0  0  0  0  0  0  0  0  0  0
  -27.8872  -30.8034   21.9502 O   0  0  0  0  0  0  0  0  0  0  0  0
  -25.5072  -15.4705   20.7673 O   0  0  0  0  0  0  0  0  0  0  0  0
  -21.7798  -13.6861   20.6465 O   0  0  0  0  0  0  0  0  0  0  0  0
  -23.3064  -10.3015   23.6019 O   0  0  0  0  0  0  0  0  0  0  0  0
  -27.2663  -23.5080   15.3595 O   0  0  0  0  0  0  0  0  0  0  0  0
  -20.7778  -28.7501   24.3637 O   0  0  0  0  0  0  0  0  0  0  0  0
  -29.8058  -11.2086   21.7889 O   0  0  0  0  0  0  0  0  0  1  0  0
  -15.7435  -29.1477   22.1497 F   0  0  0  0  0  0  0  0  0  0  0  0
  -19.1357  -30.8953   24.9505 F   0  0  0  0  0  0  0  0  0  0  0  0
  -32.7561  -19.9566   23.1351 Cl  0  0  0  0  0  0  0  0  0  0  0  0
  -28.6659  -18.2507   19.9843 Cl  0  0  0  0  0  0  0  0  0  0  0  0
  1  2  1  0  0  0  0
  1  5  2  0  0  0  0
  2  6  2  0  0  0  0
  3  8  2  0  0  0  0
  3 16  1  0  0  0  0
  4  9  1  0  0  0  0
  4 16  2  0  0  0  0
  5 18  1  0  0  0  0
  6 20  1  0  0  0  0
  7 10  2  0  0  0  0
  7 19  1  0  0  0  0
  8 25  1  0  0  0  0
  9 25  2  0  0  0  0
 10 26  1  0  0  0  0
 11 12  2  0  0  0  0
 11 27  1  0  0  0  0
 12 28  1  0  0  0  0
 13 21  1  0  0  0  0
 13 26  2  0  0  0  0
 14 22  1  0  0  0  0
 14 30  2  0  0  0  0
 15 28  2  0  0  0  0
 15 29  1  0  0  0  0
 16 32  1  0  0  0  0
 17 32  1  0  0  0  0
 17 33  2  0  0  0  0
 17 34  1  0  0  0  0
 18 20  2  0  0  0  0
 18 39  1  0  0  0  0
 19 21  2  0  0  0  0
 19 40  1  0  0  0  0
 20 48  1  0  0  0  0
 21 41  1  0  0  0  0
 22 23  2  0  0  0  0
 22 57  1  0  0  0  0
 23 31  1  0  0  0  0
 23 51  1  0  0  0  0
 24 30  1  0  0  0  0
 24 31  2  0  0  0  0
 24 58  1  0  0  0  0
 25 86  1  0  0  0  0
 26 87  1  0  0  0  0
 27 29  2  0  0  0  0
 27 86  1  0  0  0  0
 28 88  1  0  0  0  0
 29 89  1  0  0  0  0
 30 90  1  0  0  0  0
 31 91  1  0  0  0  0
 32 69  2  0  0  0  0
 33 70  1  0  0  0  0
 33 73  1  0  0  0  0
 34 74  1  0  0  0  0
 34 81  2  0  0  0  0
 35 49  1  0  0  0  0
 35 75  1  0  0  0  0
 35 82  2  0  0  0  0
 36 66  1  0  0  0  0
 36 71  1  0  0  0  0
 36 83  2  0  0  0  0
 37 67  1  0  0  0  0
 37 76  1  0  0  0  0
 37 84  2  0  0  0  0
 38 72  1  0  0  0  0
 38 77  1  0  0  0  0
 38 85  2  0  0  0  0
 39 42  1  0  0  0  0
 40 49  1  0  0  0  0
 41 71  1  0  0  0  0
 42 44  1  0  0  0  0
 43 45  1  0  0  0  0
 43 46  1  0  0  0  0
 44 48  1  0  0  0  0
 45 50  1  0  0  0  0
 46 72  1  0  0  0  0
 47 50  1  0  0  0  0
 47 72  1  0  0  0  0
 48 75  1  0  0  0  0
 49 71  1  0  0  0  0
 50 70  1  0  0  0  0
 52 67  1  0  0  0  0
 53 68  1  0  0  0  0
 54 68  1  0  0  0  0
 55 68  1  0  0  0  0
 56 78  1  0  0  0  0
 57 79  1  0  0  0  0
 58 80  1  0  0  0  0
 59 60  1  0  0  0  0
 59 62  1  0  0  0  0
 60 63  1  0  0  0  0
 61 64  1  0  0  0  0
 61 65  1  0  0  0  0
 62 77  1  0  0  0  0
 63 80  1  0  0  0  0
 64 79  1  0  0  0  0
 65 87  1  0  0  0  0
 66 68  1  0  0  0  0
 66 76  1  0  0  0  0
 67 78  1  0  0  0  0
 69 70  1  0  0  0  0
M  CHG  3  78   1  79   1  80   1
M  ISO  4  38 100  65 101  77 100  87 101
M  END
> <Batch ID>
0025

> <Smiles>
CNC(C)C(=O)NC(C(=O)N1Cc2cc([101O:1][101CH2:1]CCNCc3cc(Cl)c(CNCCCC[100NH:0][100C:0](=O)N4CCCC(n5nc(-c6ccc(Oc7ccc(F)cc7F)cc6)c(C(N)=O)c5N)C4)c(Cl)c3C)ccc2CC1C(=O)NC1CCCc2ccccc21)C(C)(C)C

> <Shape>
0.270

> <Color>
0.068

> <Negative vol penalty>
0.000

$$$$

  -OEChem-04052316243D

 86 94  0     1  0  0  0  0  0999 V2000
  -27.2587  -18.6096   18.1351 C   0  0  0  0  0  0  0  0  0  0  0  0
  -26.3337  -19.6441   18.0370 C   0  0  0  0  0  0  0  0  0  0  0  0
  -23.9733  -14.2684   22.2013 C   0  0  0  0  0  0  0  0  0  0  0  0
  -24.7392  -14.9108   20.0018 C   0  0  0  0  0  0  0  0  0  0  0  0
  -28.2896  -18.6841   19.0709 C   0  0  0  0  0  0  0  0  0  0  0  0
  -26.4384  -20.7533   18.8756 C   0  0  0  0  0  0  0  0  0  0  0  0
  -25.2239  -27.8125   18.9734 C   0  0  0  0  0  0  0  0  0  0  0  0
  -19.6224  -26.1975   22.0783 C   0  0  0  0  0  0  0  0  0  0  0  0
  -19.7677  -25.4739   20.8948 C   0  0  0  0  0  0  0  0  0  0  0  0
  -24.3807  -12.9564   21.9600 C   0  0  0  0  0  0  0  0  0  0  0  0
  -25.1466  -13.5988   19.7605 C   0  0  0  0  0  0  0  0  0  0  0  0
  -24.5707  -28.7826   19.7324 C   0  0  0  0  0  0  0  0  0  0  0  0
  -24.8919   -9.3603   21.7854 C   0  0  0  0  0  0  0  0  0  0  0  0
  -24.0181   -8.3327   22.1405 C   0  0  0  0  0  0  0  0  0  0  0  0
  -26.4392  -28.8391   21.2571 C   0  0  0  0  0  0  0  0  0  0  0  0
  -22.3532   -9.2287   20.6364 C   0  0  0  0  0  0  0  0  0  0  0  0
  -24.1525  -15.2456   21.2222 C   0  0  0  0  0  0  0  0  0  0  0  0
  -24.4953  -17.6378   22.0392 C   0  0  0  0  0  0  0  0  0  0  0  0
  -28.4126  -19.7992   19.9147 C   0  0  0  0  0  0  0  0  0  0  0  0
  -26.4871  -27.3397   19.3573 C   0  0  0  0  0  0  0  0  0  0  0  0
  -27.4711  -20.8422   19.8245 C   0  0  0  0  0  0  0  0  0  0  0  0
  -27.1074  -27.8648   20.4998 C   0  0  0  0  0  0  0  0  0  0  0  0
  -20.6904  -26.2984   22.9698 C   0  0  0  0  0  0  0  0  0  0  0  0
  -20.9811  -24.8509   20.6028 C   0  0  0  0  0  0  0  0  0  0  0  0
  -24.9673  -12.6216   20.7396 C   0  0  0  0  0  0  0  0  0  0  0  0
  -25.1771  -29.2939   20.8760 C   0  0  0  0  0  0  0  0  0  0  0  0
  -24.4963  -10.3223   20.8559 C   0  0  0  0  0  0  0  0  0  0  0  0
  -22.7488   -8.2668   21.5660 C   0  0  0  0  0  0  0  0  0  0  0  0
  -23.2269  -10.2564   20.2814 C   0  0  0  0  0  0  0  0  0  0  0  0
  -21.9038  -25.6755   22.6778 C   0  0  0  0  0  0  0  0  0  0  0  0
  -22.0492  -24.9517   21.4943 C   0  0  0  0  0  0  0  0  0  0  0  0
  -23.7314  -16.6010   21.4706 C   0  0  0  0  0  0  0  0  0  0  0  0
  -23.6473  -18.7182   22.0585 C   0  0  0  0  0  0  0  0  0  0  0  0
  -25.8502  -17.6256   22.5079 C   0  0  0  0  0  0  0  0  0  0  0  0
  -27.6584  -24.5118   20.2142 C   0  0  0  0  0  0  0  0  0  0  0  0
  -30.4849  -26.1025   20.1601 C   0  0  0  0  0  0  0  0  0  0  0  0
  -32.1374  -29.0813   20.3678 C   0  0  0  0  0  0  0  0  0  0  0  0
  -19.8369  -21.9590   19.5840 C   0  0  0  0  0  0  0  0  0  0  0  0
  -29.5158  -19.8132   20.9430 C   0  0  0  0  0  0  0  0  0  0  0  0
  -27.1900  -26.3124   18.5130 C   0  0  0  0  0  0  0  0  0  0  0  0
  -28.4714  -27.4055   20.9436 C   0  0  0  0  0  0  0  0  0  0  0  0
  -29.7762  -21.1946   21.5382 C   0  0  0  0  0  0  0  0  0  0  0  0
  -18.6700  -19.0123   21.2063 C   0  0  0  0  0  0  0  0  0  0  0  0
  -28.4622  -21.8650   21.9262 C   0  0  0  0  0  0  0  0  0  0  0  0
  -19.9446  -18.2057   21.4607 C   0  0  0  0  0  0  0  0  0  0  0  0
  -18.7320  -19.7614   19.8770 C   0  0  0  0  0  0  0  0  0  0  0  0
  -21.1947  -19.8112   19.9580 C   0  0  0  0  0  0  0  0  0  0  0  0
  -27.5658  -22.0732   20.6996 C   0  0  1  0  0  0  0  0  0  0  0  0
  -28.2505  -25.5309   19.2824 C   0  0  1  0  0  0  0  0  0  0  0  0
  -21.2023  -19.0830   21.3129 C   0  0  2  0  0  0  0  0  0  0  0  0
  -34.4481  -30.0592   20.3255 C   0  0  0  0  0  0  0  0  0  0  0  0
  -30.9526  -25.1143   23.0088 C   0  0  0  0  0  0  0  0  0  0  0  0
  -32.7430  -26.8486   23.2421 C   0  0  0  0  0  0  0  0  0  0  0  0
  -32.9721  -25.0439   21.5354 C   0  0  0  0  0  0  0  0  0  0  0  0
  -31.5303  -30.7089   17.9717 C   0  0  0  0  0  0  0  0  0  0  0  0
  -20.4824  -27.0922   24.2350 C   0  0  0  0  0  0  0  0  0  0  0  0
  -21.0865  -24.0871   19.3213 C   0  0  0  0  0  0  0  0  0  0  0  0
  -21.0848  -28.5010   24.1885 C   0  0  0  0  0  0  0  0  0  0  0  0
  -20.4883  -29.3718   23.0770 C   0  0  0  0  0  0  0  0  0  0  0  0
  -21.0977  -30.7762   23.0887 C   0  0  0  0  0  0  0  0  0  0  0  0
  -22.6204  -30.7758   22.9500 C   0  0  0  0  0  0  0  0  0  0  0  0
  -23.1147  -30.2115   21.6249 C   0  0  0  0  0  0  0  0  0  1  0  0
  -31.2868  -26.8920   21.1665 C   0  0  1  0  0  0  0  0  0  0  0  0
  -33.2235  -29.6932   19.5015 C   0  0  2  0  0  0  0  0  0  0  0  0
  -31.9621  -25.9821   22.2312 C   0  0  0  0  0  0  0  0  0  0  0  0
  -22.4933  -16.9878   21.1519 N   0  0  0  0  0  0  0  0  0  0  0  0
  -22.4727  -18.2797   21.5216 N   0  0  0  0  0  0  0  0  0  0  0  0
  -29.1155  -26.3949   20.0884 N   0  0  0  0  0  0  0  0  0  0  0  0
  -19.9474  -20.5757   19.8011 N   0  0  0  0  0  0  0  0  0  0  0  0
  -23.7993  -19.9908   22.4823 N   0  0  0  0  0  0  0  0  0  0  0  0
  -26.5789  -16.4320   22.4139 N   0  0  0  0  0  0  0  0  0  0  0  0
  -28.0212  -23.2095   19.9278 N   0  0  0  0  0  0  0  0  0  0  0  0
  -32.2214  -27.7052   20.3961 N   0  0  0  0  0  0  0  0  0  0  0  0
  -21.0370  -22.6575   19.5319 N   0  0  0  0  0  0  0  0  0  0  0  0
  -32.7201  -30.9270   18.8342 N   0  3  0  0  0  0  0  0  0  0  0  0
  -26.3932  -18.6384   23.0107 O   0  0  0  0  0  0  0  0  0  0  0  0
  -26.9277  -24.8798   21.1266 O   0  0  0  0  0  0  0  0  0  0  0  0
  -31.0539  -25.2626   19.4584 O   0  0  0  0  0  0  0  0  0  0  0  0
  -31.3007  -29.7566   20.9630 O   0  0  0  0  0  0  0  0  0  0  0  0
  -18.7492  -22.5303   19.4520 O   0  0  0  0  0  0  0  0  0  0  0  0
  -25.3652  -11.3414   20.5039 O   0  0  0  0  0  0  0  0  0  0  0  0
  -24.5414  -30.2404   21.6190 O   0  0  0  0  0  0  0  0  0  1  0  0
  -21.9104   -7.2790   21.9058 F   0  0  0  0  0  0  0  0  0  0  0  0
  -22.8417  -11.1769   19.3870 F   0  0  0  0  0  0  0  0  0  0  0  0
  -23.2129  -25.8205   23.8085 Cl  0  0  0  0  0  0  0  0  0  0  0  0
  -23.5455  -24.1648   21.1008 Cl  0  0  0  0  0  0  0  0  0  0  0  0
  1  2  1  0  0  0  0
  1  5  2  0  0  0  0
  2  6  2  0  0  0  0
  3 10  2  0  0  0  0
  3 17  1  0  0  0  0
  4 11  1  0  0  0  0
  4 17  2  0  0  0  0
  5 19  1  0  0  0  0
  6 21  1  0  0  0  0
  7 12  2  0  0  0  0
  7 20  1  0  0  0  0
  8  9  2  0  0  0  0
  8 23  1  0  0  0  0
  9 24  1  0  0  0  0
 10 25  1  0  0  0  0
 11 25  2  0  0  0  0
 12 26  1  0  0  0  0
 13 14  2  0  0  0  0
 13 27  1  0  0  0  0
 14 28  1  0  0  0  0
 15 22  1  0  0  0  0
 15 26  2  0  0  0  0
 16 28  2  0  0  0  0
 16 29  1  0  0  0  0
 17 32  1  0  0  0  0
 18 32  1  0  0  0  0
 18 33  2  0  0  0  0
 18 34  1  0  0  0  0
 19 21  2  0  0  0  0
 19 39  1  0  0  0  0
 20 22  2  0  0  0  0
 20 40  1  0  0  0  0
 21 48  1  0  0  0  0
 22 41  1  0  0  0  0
 23 30  2  0  0  0  0
 23 56  1  0  0  0  0
 24 31  2  0  0  0  0
 24 57  1  0  0  0  0
 25 81  1  0  0  0  0
 26 82  1  0  0  0  0
 27 29  2  0  0  0  0
 27 81  1  0  0  0  0
 28 83  1  0  0  0  0
 29 84  1  0  0  0  0
 30 31  1  0  0  0  0
 30 85  1  0  0  0  0
 31 86  1  0  0  0  0
 32 66  2  0  0  0  0
 33 67  1  0  0  0  0
 33 70  1  0  0  0  0
 34 71  1  0  0  0  0
 34 76  2  0  0  0  0
 35 49  1  0  0  0  0
 35 72  1  0  0  0  0
 35 77  2  0  0  0  0
 36 63  1  0  0  0  0
 36 68  1  0  0  0  0
 36 78  2  0  0  0  0
 37 64  1  0  0  0  0
 37 73  1  0  0  0  0
 37 79  2  0  0  0  0
 38 69  1  0  0  0  0
 38 74  1  0  0  0  0
 38 80  2  0  0  0  0
 39 42  1  0  0  0  0
 40 49  1  0  0  0  0
 41 68  1  0  0  0  0
 42 44  1  0  0  0  0
 43 45  1  0  0  0  0
 43 46  1  0  0  0  0
 44 48  1  0  0  0  0
 45 50  1  0  0  0  0
 46 69  1  0  0  0  0
 47 50  1  0  0  0  0
 47 69  1  0  0  0  0
 48 72  1  0  0  0  0
 49 68  1  0  0  0  0
 50 67  1  0  0  0  0
 51 64  1  0  0  0  0
 52 65  1  0  0  0  0
 53 65  1  0  0  0  0
 54 65  1  0  0  0  0
 55 75  1  0  0  0  0
 56 58  1  0  0  0  0
 57 74  1  0  0  0  0
 58 59  1  0  0  0  0
 59 60  1  0  0  0  0
 60 61  1  0  0  0  0
 61 62  1  0  0  0  0
 62 82  1  0  0  0  0
 63 65  1  0  0  0  0
 63 73  1  0  0  0  0
 64 75  1  0  0  0  0
 66 67  1  0  0  0  0
M  CHG  1  75   1
M  ISO  4  38 100  62 101  74 100  82 101
M  END
> <Batch ID>
0025

> <Smiles>
CNC(C)C(=O)NC(C(=O)N1Cc2cc([101O:1][101CH2:1]CCCCCc3ccc(C[100NH:0][100C:0](=O)N4CCCC(n5nc(-c6ccc(Oc7ccc(F)cc7F)cc6)c(C(N)=O)c5N)C4)c(Cl)c3Cl)ccc2CC1C(=O)NC1CCCc2ccccc21)C(C)(C)C

> <Shape>
0.243

> <Color>
0.067

> <Negative vol penalty>
0.000

$$$$

  -OEChem-04052316243D

 89 97  0     1  0  0  0  0  0999 V2000
  -19.9304  -24.9942   25.0354 C   0  0  0  0  0  0  0  0  0  0  0  0
  -21.1284  -24.7324   24.3785 C   0  0  0  0  0  0  0  0  0  0  0  0
  -23.0693   -9.8783   19.9376 C   0  0  0  0  0  0  0  0  0  0  0  0
  -23.8392   -9.8712   22.2277 C   0  0  0  0  0  0  0  0  0  0  0  0
  -18.7654  -25.2075   24.2997 C   0  0  0  0  0  0  0  0  0  0  0  0
  -21.1619  -24.6825   22.9854 C   0  0  0  0  0  0  0  0  0  0  0  0
  -25.7507  -26.4742   19.3468 C   0  0  0  0  0  0  0  0  0  0  0  0
  -31.6313  -18.3417   20.0768 C   0  0  0  0  0  0  0  0  0  0  0  0
  -31.4637  -19.3739   19.1537 C   0  0  0  0  0  0  0  0  0  0  0  0
  -22.3258   -8.7241   20.1840 C   0  0  0  0  0  0  0  0  0  0  0  0
  -23.0957   -8.7170   22.4741 C   0  0  0  0  0  0  0  0  0  0  0  0
  -26.7714  -25.7706   18.7089 C   0  0  0  0  0  0  0  0  0  0  0  0
  -19.8697   -7.9176   23.0860 C   0  0  0  0  0  0  0  0  0  0  0  0
  -19.1179   -7.8712   24.2599 C   0  0  0  0  0  0  0  0  0  0  0  0
  -25.4475  -25.6886   16.6940 C   0  0  0  0  0  0  0  0  0  0  0  0
  -20.3613   -5.9287   24.9794 C   0  0  0  0  0  0  0  0  0  0  0  0
  -23.8261  -10.4518   20.9594 C   0  0  0  0  0  0  0  0  0  0  0  0
  -24.1690  -12.9774   20.8529 C   0  0  0  0  0  0  0  0  0  0  0  0
  -18.7866  -25.1698   22.8965 C   0  0  0  0  0  0  0  0  0  0  0  0
  -24.5642  -26.7812   18.6653 C   0  0  0  0  0  0  0  0  0  0  0  0
  -19.9959  -24.8941   22.2302 C   0  0  0  0  0  0  0  0  0  0  0  0
  -24.4143  -26.3983   17.3247 C   0  0  0  0  0  0  0  0  0  0  0  0
  -30.5884  -17.9999   20.9378 C   0  0  0  0  0  0  0  0  0  0  0  0
  -30.2533  -20.0644   19.0917 C   0  0  0  0  0  0  0  0  0  0  0  0
  -22.3390   -8.1435   21.4522 C   0  0  0  0  0  0  0  0  0  0  0  0
  -26.6188  -25.3752   17.3832 C   0  0  0  0  0  0  0  0  0  0  0  0
  -20.8673   -6.9695   22.8587 C   0  0  0  0  0  0  0  0  0  0  0  0
  -19.3636   -6.8768   25.2067 C   0  0  0  0  0  0  0  0  0  0  0  0
  -21.1131   -5.9751   23.8054 C   0  0  0  0  0  0  0  0  0  0  0  0
  -29.3780  -18.6903   20.8758 C   0  0  0  0  0  0  0  0  0  0  0  0
  -29.2104  -19.7226   19.9527 C   0  0  0  0  0  0  0  0  0  0  0  0
  -24.5948  -11.6437   20.7054 C   0  0  0  0  0  0  0  0  0  0  0  0
  -25.2600  -13.7284   20.4893 C   0  0  0  0  0  0  0  0  0  0  0  0
  -22.9007  -13.4915   21.2804 C   0  0  0  0  0  0  0  0  0  0  0  0
  -21.4976  -26.0410   19.0550 C   0  0  0  0  0  0  0  0  0  0  0  0
  -21.0836  -28.1401   16.6167 C   0  0  0  0  0  0  0  0  0  0  0  0
  -22.4130  -29.7301   13.9054 C   0  0  0  0  0  0  0  0  0  0  0  0
  -30.7452  -14.7429   20.6597 C   0  0  0  0  0  0  0  0  0  0  0  0
  -17.4925  -25.3597   22.1456 C   0  0  0  0  0  0  0  0  0  0  0  0
  -23.4835  -27.5640   19.3593 C   0  0  0  0  0  0  0  0  0  0  0  0
  -23.1684  -26.7210   16.5424 C   0  0  0  0  0  0  0  0  0  0  0  0
  -17.6878  -25.6607   20.6619 C   0  0  0  0  0  0  0  0  0  0  0  0
  -29.5956  -12.3733   18.2638 C   0  0  0  0  0  0  0  0  0  0  0  0
  -18.7056  -24.7021   20.0521 C   0  0  0  0  0  0  0  0  0  0  0  0
  -28.1599  -12.0779   18.7013 C   0  0  0  0  0  0  0  0  0  0  0  0
  -30.5182  -12.5864   19.4620 C   0  0  0  0  0  0  0  0  0  0  0  0
  -28.6230  -13.3104   20.8612 C   0  0  0  0  0  0  0  0  0  0  0  0
  -20.0776  -24.8564   20.7196 C   0  0  1  0  0  0  0  0  0  0  0  0
  -22.1082  -27.3742   18.7269 C   0  0  1  0  0  0  0  0  0  0  0  0
  -27.6435  -13.1434   19.6868 C   0  0  2  0  0  0  0  0  0  0  0  0
  -21.8203  -31.3584   12.0902 C   0  0  0  0  0  0  0  0  0  0  0  0
  -19.5411  -25.9487   15.1579 C   0  0  0  0  0  0  0  0  0  0  0  0
  -19.8049  -27.2660   13.0452 C   0  0  0  0  0  0  0  0  0  0  0  0
  -18.5409  -28.2328   14.9662 C   0  0  0  0  0  0  0  0  0  0  0  0
  -31.8462  -24.4689   17.8442 C   0  0  0  0  0  0  0  0  0  0  0  0
  -32.0197  -22.4634   16.3612 C   0  0  0  0  0  0  0  0  0  0  0  0
  -24.4639  -31.6627   14.8096 C   0  0  0  0  0  0  0  0  0  0  0  0
  -30.8178  -16.8861   21.9090 C   0  0  0  0  0  0  0  0  0  0  0  0
  -30.1230  -21.1669   18.0809 C   0  0  0  0  0  0  0  0  0  0  0  0
  -28.7860  -24.4056   17.5210 C   0  0  0  0  0  0  0  0  0  1  0  0
  -21.0574  -28.0378   15.1108 C   0  0  1  0  0  0  0  0  0  0  0  0
  -22.3991  -31.1891   13.4863 C   0  0  2  0  0  0  0  0  0  0  0  0
  -19.7589  -27.3634   14.5851 C   0  0  0  0  0  0  0  0  0  0  0  0
  -31.1030  -23.2250   17.3290 C   0  0  0  0  0  0  0  0  0  0  0  0
  -29.7840  -23.6558   16.6489 C   0  0  0  0  0  0  0  0  0  0  0  0
  -25.8577  -11.5496   20.2810 N   0  0  0  0  0  0  0  0  0  0  0  0
  -26.2349  -12.8337   20.1587 N   0  0  0  0  0  0  0  0  0  0  0  0
  -22.1376  -27.4827   17.2670 N   0  0  0  0  0  0  0  0  0  0  0  0
  -29.9721  -13.6100   20.3564 N   0  0  0  0  0  0  0  0  0  0  0  0
  -25.4710  -15.0601   20.4232 N   0  0  0  0  0  0  0  0  0  0  0  0
  -21.8897  -12.5810   21.6167 N   0  0  0  0  0  0  0  0  0  0  0  0
  -20.7534  -26.0343   20.2193 N   0  0  0  0  0  0  0  0  0  0  0  0
  -21.2754  -29.3891   14.6060 N   0  0  0  0  0  0  0  0  0  0  0  0
  -30.1503  -15.6671   21.5098 N   0  0  0  0  0  0  0  0  0  0  0  0
  -30.8365  -22.3649   18.4882 N   0  0  0  0  0  0  0  0  0  0  0  0
  -23.7827  -31.7428   13.4918 N   0  3  0  0  0  0  0  0  0  0  0  0
  -22.6655  -14.7219   21.3461 O   0  0  0  0  0  0  0  0  0  0  0  0
  -21.6864  -25.0894   18.3063 O   0  0  0  0  0  0  0  0  0  0  0  0
  -20.2054  -28.7856   17.1944 O   0  0  0  0  0  0  0  0  0  0  0  0
  -23.3385  -28.9681   13.6348 O   0  0  0  0  0  0  0  0  0  0  0  0
  -31.8793  -14.9204   20.2021 O   0  0  0  0  0  0  0  0  0  0  0  0
  -21.6134   -7.0174   21.6931 O   0  0  0  0  0  0  0  0  0  0  0  0
  -27.6133  -24.6878   16.7584 O   0  0  0  0  0  0  0  0  0  1  0  0
  -18.6426   -6.8333   26.3347 F   0  0  0  0  0  0  0  0  0  0  0  0
  -22.0709   -5.0622   23.5932 F   0  0  0  0  0  0  0  0  0  0  0  0
  -29.1641  -22.5476   16.1530 F   0  0  0  0  0  0  0  0  0  0  0  0
  -30.0762  -24.4364   15.5702 F   0  0  0  0  0  0  0  0  0  0  0  0
  -28.1006  -18.2400   21.9614 Cl  0  0  0  0  0  0  0  0  0  0  0  0
  -27.7171  -20.6016   19.8495 Cl  0  0  0  0  0  0  0  0  0  0  0  0
  1  2  1  0  0  0  0
  1  5  2  0  0  0  0
  2  6  2  0  0  0  0
  3 10  2  0  0  0  0
  3 17  1  0  0  0  0
  4 11  1  0  0  0  0
  4 17  2  0  0  0  0
  5 19  1  0  0  0  0
  6 21  1  0  0  0  0
  7 12  2  0  0  0  0
  7 20  1  0  0  0  0
  8  9  2  0  0  0  0
  8 23  1  0  0  0  0
  9 24  1  0  0  0  0
 10 25  1  0  0  0  0
 11 25  2  0  0  0  0
 12 26  1  0  0  0  0
 13 14  2  0  0  0  0
 13 27  1  0  0  0  0
 14 28  1  0  0  0  0
 15 22  1  0  0  0  0
 15 26  2  0  0  0  0
 16 28  2  0  0  0  0
 16 29  1  0  0  0  0
 17 32  1  0  0  0  0
 18 32  1  0  0  0  0
 18 33  2  0  0  0  0
 18 34  1  0  0  0  0
 19 21  2  0  0  0  0
 19 39  1  0  0  0  0
 20 22  2  0  0  0  0
 20 40  1  0  0  0  0
 21 48  1  0  0  0  0
 22 41  1  0  0  0  0
 23 30  2  0  0  0  0
 23 58  1  0  0  0  0
 24 31  2  0  0  0  0
 24 59  1  0  0  0  0
 25 82  1  0  0  0  0
 26 83  1  0  0  0  0
 27 29  2  0  0  0  0
 27 82  1  0  0  0  0
 28 84  1  0  0  0  0
 29 85  1  0  0  0  0
 30 31  1  0  0  0  0
 30 88  1  0  0  0  0
 31 89  1  0  0  0  0
 32 66  2  0  0  0  0
 33 67  1  0  0  0  0
 33 70  1  0  0  0  0
 34 71  1  0  0  0  0
 34 77  2  0  0  0  0
 35 49  1  0  0  0  0
 35 72  1  0  0  0  0
 35 78  2  0  0  0  0
 36 61  1  0  0  0  0
 36 68  1  0  0  0  0
 36 79  2  0  0  0  0
 37 62  1  0  0  0  0
 37 73  1  0  0  0  0
 37 80  2  0  0  0  0
 38 69  1  0  0  0  0
 38 74  1  0  0  0  0
 38 81  2  0  0  0  0
 39 42  1  0  0  0  0
 40 49  1  0  0  0  0
 41 68  1  0  0  0  0
 42 44  1  0  0  0  0
 43 45  1  0  0  0  0
 43 46  1  0  0  0  0
 44 48  1  0  0  0  0
 45 50  1  0  0  0  0
 46 69  1  0  0  0  0
 47 50  1  0  0  0  0
 47 69  1  0  0  0  0
 48 72  1  0  0  0  0
 49 68  1  0  0  0  0
 50 67  1  0  0  0  0
 51 62  1  0  0  0  0
 52 63  1  0  0  0  0
 53 63  1  0  0  0  0
 54 63  1  0  0  0  0
 55 64  1  0  0  0  0
 56 64  1  0  0  0  0
 57 76  1  0  0  0  0
 58 74  1  0  0  0  0
 59 75  1  0  0  0  0
 60 65  1  0  0  0  0
 60 83  1  0  0  0  0
 61 63  1  0  0  0  0
 61 73  1  0  0  0  0
 62 76  1  0  0  0  0
 64 65  1  0  0  0  0
 64 75  1  0  0  0  0
 65 86  1  0  0  0  0
 65 87  1  0  0  0  0
 66 67  1  0  0  0  0
M  CHG  1  76   1
M  ISO  4  38 100  60 101  74 100  83 101
M  END
> <Batch ID>
0025

> <Smiles>
CNC(C)C(=O)NC(C(=O)N1Cc2cc([101O:1][101CH2:1]C(F)(F)C(C)(C)NCc3ccc(C[100NH:0][100C:0](=O)N4CCCC(n5nc(-c6ccc(Oc7ccc(F)cc7F)cc6)c(C(N)=O)c5N)C4)c(Cl)c3Cl)ccc2CC1C(=O)NC1CCCc2ccccc21)C(C)(C)C

> <Shape>
0.260

> <Color>
0.187

> <Negative vol penalty>
0.000

$$$$

  -OEChem-04052316243D

 90 99  0     1  0  0  0  0  0999 V2000
  -17.3893  -32.2762   22.4099 C   0  0  0  0  0  0  0  0  0  0  0  0
  -18.6407  -32.5474   21.8658 C   0  0  0  0  0  0  0  0  0  0  0  0
  -23.6766   -8.6831   20.1409 C   0  0  0  0  0  0  0  0  0  0  0  0
  -22.8861  -10.6341   21.3265 C   0  0  0  0  0  0  0  0  0  0  0  0
  -17.2393  -31.2354   23.3254 C   0  0  0  0  0  0  0  0  0  0  0  0
  -19.7430  -31.7787   22.2379 C   0  0  0  0  0  0  0  0  0  0  0  0
  -25.8890  -29.1962   19.6163 C   0  0  0  0  0  0  0  0  0  0  0  0
  -22.8136   -7.8802   20.8868 C   0  0  0  0  0  0  0  0  0  0  0  0
  -22.0231   -9.8312   22.0724 C   0  0  0  0  0  0  0  0  0  0  0  0
  -27.2513  -29.1529   19.9096 C   0  0  0  0  0  0  0  0  0  0  0  0
  -21.0772   -5.2703   22.7297 C   0  0  0  0  0  0  0  0  0  0  0  0
  -21.5835   -4.0786   23.2485 C   0  0  0  0  0  0  0  0  0  0  0  0
  -26.8578  -27.3298   21.4395 C   0  0  0  0  0  0  0  0  0  0  0  0
  -29.9192  -18.3250   19.2506 C   0  0  0  0  0  0  0  0  0  0  0  0
  -23.2334   -5.3241   24.4991 C   0  0  0  0  0  0  0  0  0  0  0  0
  -23.7129  -10.0601   20.3608 C   0  0  0  0  0  0  0  0  0  0  0  0
  -24.3293  -11.5240   18.3647 C   0  0  0  0  0  0  0  0  0  0  0  0
  -18.3385  -30.4474   23.7016 C   0  0  0  0  0  0  0  0  0  0  0  0
  -24.9979  -28.3123   20.2416 C   0  0  0  0  0  0  0  0  0  0  0  0
  -19.6077  -30.7273   23.1603 C   0  0  0  0  0  0  0  0  0  0  0  0
  -25.4851  -27.3622   21.1505 C   0  0  0  0  0  0  0  0  0  0  0  0
  -28.9731  -20.3652   18.3675 C   0  0  0  0  0  0  0  0  0  0  0  0
  -27.9343  -18.2400   17.8758 C   0  0  0  0  0  0  0  0  0  0  0  0
  -28.9113  -17.5883   18.6285 C   0  0  0  0  0  0  0  0  0  0  0  0
  -21.9869   -8.4543   21.8525 C   0  0  0  0  0  0  0  0  0  0  0  0
  -27.7355  -28.2215   20.8235 C   0  0  0  0  0  0  0  0  0  0  0  0
  -21.6489   -6.4889   23.0956 C   0  0  0  0  0  0  0  0  0  0  0  0
  -22.6616   -4.1055   24.1331 C   0  0  0  0  0  0  0  0  0  0  0  0
  -22.7270   -6.5158   23.9802 C   0  0  0  0  0  0  0  0  0  0  0  0
  -29.9500  -19.7135   19.1201 C   0  0  0  0  0  0  0  0  0  0  0  0
  -27.9652  -19.6284   17.7453 C   0  0  0  0  0  0  0  0  0  0  0  0
  -24.6045  -10.8899   19.5911 C   0  0  0  0  0  0  0  0  0  0  0  0
  -25.4915  -12.1858   18.0520 C   0  0  0  0  0  0  0  0  0  0  0  0
  -23.1304  -11.5155   17.5784 C   0  0  0  0  0  0  0  0  0  0  0  0
  -22.4947  -28.6434   22.1725 C   0  0  0  0  0  0  0  0  0  0  0  0
  -22.2327  -25.4388   21.7432 C   0  0  0  0  0  0  0  0  0  0  0  0
  -23.7536  -22.4877   20.9529 C   0  0  0  0  0  0  0  0  0  0  0  0
  -29.8063  -15.3973   19.4914 C   0  0  0  0  0  0  0  0  0  0  0  0
  -18.1363  -29.3634   24.7306 C   0  0  0  0  0  0  0  0  0  0  0  0
  -23.5350  -28.3541   19.8943 C   0  0  0  0  0  0  0  0  0  0  0  0
  -24.5727  -26.3777   21.8338 C   0  0  0  0  0  0  0  0  0  0  0  0
  -19.2824  -28.3567   24.7880 C   0  0  0  0  0  0  0  0  0  0  0  0
  -30.1013  -11.9059   20.1240 C   0  0  0  0  0  0  0  0  0  0  0  0
  -20.6264  -29.0780   24.7998 C   0  0  0  0  0  0  0  0  0  0  0  0
  -28.6749  -11.3825   19.9409 C   0  0  0  0  0  0  0  0  0  0  0  0
  -28.8760  -22.5176   19.6104 C   0  0  0  0  0  0  0  0  0  0  0  0
  -30.3159  -22.2910   17.5459 C   0  0  0  0  0  0  0  0  0  0  0  0
  -30.1189  -13.2899   20.7705 C   0  0  0  0  0  0  0  0  0  0  0  0
  -27.8579  -13.7740   19.9204 C   0  0  0  0  0  0  0  0  0  0  0  0
  -28.9943  -24.0333   19.5147 C   0  0  0  0  0  0  0  0  0  0  0  0
  -30.4228  -23.8085   17.4658 C   0  0  0  0  0  0  0  0  0  0  0  0
  -29.0112  -21.8531   18.2308 C   0  0  0  0  0  0  0  0  0  0  0  0
  -20.8227  -29.8999   23.5202 C   0  0  1  0  0  0  0  0  0  0  0  0
  -22.6465  -27.7474   20.9759 C   0  0  1  0  0  0  0  0  0  0  0  0
  -27.7864  -12.4106   19.2134 C   0  0  2  0  0  0  0  0  0  0  0  0
  -26.8594  -17.4323   17.2140 C   0  0  0  0  0  0  0  0  0  0  0  0
  -23.9612  -20.0423   20.4288 C   0  0  0  0  0  0  0  0  0  0  0  0
  -22.2286  -25.1583   24.7815 C   0  0  0  0  0  0  0  0  0  0  0  0
  -22.7211  -22.7212   24.4874 C   0  0  0  0  0  0  0  0  0  0  0  0
  -20.5978  -23.6794   23.5951 C   0  0  0  0  0  0  0  0  0  0  0  0
  -23.2743  -22.9464   18.0687 C   0  0  0  0  0  0  0  0  0  0  0  0
  -31.0758  -26.3072   20.2007 C   0  0  0  0  0  0  0  0  0  0  0  0
  -31.2788  -27.8194   20.2593 C   0  0  0  0  0  0  0  0  0  0  0  0
  -30.5282  -25.8814   18.8466 C   0  0  0  0  0  0  0  0  0  0  0  0
  -29.9670  -28.5701   20.0787 C   0  0  0  0  0  0  0  0  0  1  0  0
  -22.7819  -24.2182   22.4414 C   0  0  1  0  0  0  0  0  0  0  0  0
  -23.3545  -21.3709   20.0052 C   0  0  2  0  0  0  0  0  0  0  0  0
  -22.0995  -23.9640   23.8151 C   0  0  0  0  0  0  0  0  0  0  0  0
  -25.8442  -11.1275   20.0276 N   0  0  0  0  0  0  0  0  0  0  0  0
  -26.3584  -11.9181   19.0703 N   0  0  0  0  0  0  0  0  0  0  0  0
  -23.1497  -26.4625   21.4657 N   0  0  0  0  0  0  0  0  0  0  0  0
  -29.2587  -14.2116   20.0253 N   0  0  0  0  0  0  0  0  0  0  0  0
  -25.8462  -12.9648   17.0081 N   0  0  0  0  0  0  0  0  0  0  0  0
  -22.0299  -10.7844   18.0461 N   0  0  0  0  0  0  0  0  0  0  0  0
  -28.9007  -16.1790   18.7749 N   0  0  0  0  0  0  0  0  0  0  0  0
  -21.1935  -29.0385   22.4180 N   0  0  0  0  0  0  0  0  0  0  0  0
  -22.6521  -23.1144   21.4963 N   0  0  0  0  0  0  0  0  0  0  0  0
  -30.3052  -24.4155   18.8521 N   0  3  0  0  0  0  0  0  0  0  0  0
  -23.8140  -21.6773   18.6210 N   0  3  0  0  0  0  0  0  0  0  0  0
  -23.0432  -12.1243   16.4851 O   0  0  0  0  0  0  0  0  0  0  0  0
  -23.4846  -28.9522   22.8255 O   0  0  0  0  0  0  0  0  0  0  0  0
  -21.0356  -25.4794   21.4482 O   0  0  0  0  0  0  0  0  0  0  0  0
  -24.9252  -22.7729   21.1904 O   0  0  0  0  0  0  0  0  0  0  0  0
  -30.9977  -15.6837   19.6345 O   0  0  0  0  0  0  0  0  0  0  0  0
  -21.1446   -7.6712   22.5803 O   0  0  0  0  0  0  0  0  0  0  0  0
  -29.0647  -28.1775   21.1121 O   0  0  0  0  0  0  0  0  0  1  0  0
  -23.1468   -2.9612   24.6324 F   0  0  0  0  0  0  0  0  0  0  0  0
  -23.2797   -7.6835   24.3363 F   0  0  0  0  0  0  0  0  0  0  0  0
  -31.2156  -20.5859   19.9069 Cl  0  0  0  0  0  0  0  0  0  0  0  0
  -26.7493  -20.4362   16.8101 Cl  0  0  0  0  0  0  0  0  0  0  0  0
  1  2  1  0  0  0  0
  1  5  2  0  0  0  0
  2  6  2  0  0  0  0
  3  8  2  0  0  0  0
  3 16  1  0  0  0  0
  4  9  1  0  0  0  0
  4 16  2  0  0  0  0
  5 18  1  0  0  0  0
  6 20  1  0  0  0  0
  7 10  2  0  0  0  0
  7 19  1  0  0  0  0
  8 25  1  0  0  0  0
  9 25  2  0  0  0  0
 10 26  1  0  0  0  0
 11 12  2  0  0  0  0
 11 27  1  0  0  0  0
 12 28  1  0  0  0  0
 13 21  1  0  0  0  0
 13 26  2  0  0  0  0
 14 24  1  0  0  0  0
 14 30  2  0  0  0  0
 15 28  2  0  0  0  0
 15 29  1  0  0  0  0
 16 32  1  0  0  0  0
 17 32  1  0  0  0  0
 17 33  2  0  0  0  0
 17 34  1  0  0  0  0
 18 20  2  0  0  0  0
 18 39  1  0  0  0  0
 19 21  2  0  0  0  0
 19 40  1  0  0  0  0
 20 53  1  0  0  0  0
 21 41  1  0  0  0  0
 22 30  1  0  0  0  0
 22 31  2  0  0  0  0
 22 52  1  0  0  0  0
 23 24  2  0  0  0  0
 23 31  1  0  0  0  0
 23 56  1  0  0  0  0
 24 75  1  0  0  0  0
 25 85  1  0  0  0  0
 26 86  1  0  0  0  0
 27 29  2  0  0  0  0
 27 85  1  0  0  0  0
 28 87  1  0  0  0  0
 29 88  1  0  0  0  0
 30 89  1  0  0  0  0
 31 90  1  0  0  0  0
 32 69  2  0  0  0  0
 33 70  1  0  0  0  0
 33 73  1  0  0  0  0
 34 74  1  0  0  0  0
 34 80  2  0  0  0  0
 35 54  1  0  0  0  0
 35 76  1  0  0  0  0
 35 81  2  0  0  0  0
 36 66  1  0  0  0  0
 36 71  1  0  0  0  0
 36 82  2  0  0  0  0
 37 67  1  0  0  0  0
 37 77  1  0  0  0  0
 37 83  2  0  0  0  0
 38 72  1  0  0  0  0
 38 75  1  0  0  0  0
 38 84  2  0  0  0  0
 39 42  1  0  0  0  0
 40 54  1  0  0  0  0
 41 71  1  0  0  0  0
 42 44  1  0  0  0  0
 43 45  1  0  0  0  0
 43 48  1  0  0  0  0
 44 53  1  0  0  0  0
 45 55  1  0  0  0  0
 46 50  1  0  0  0  0
 46 52  1  0  0  0  0
 47 51  1  0  0  0  0
 47 52  1  0  0  0  0
 48 72  1  0  0  0  0
 49 55  1  0  0  0  0
 49 72  1  0  0  0  0
 50 78  1  0  0  0  0
 51 78  1  0  0  0  0
 53 76  1  0  0  0  0
 54 71  1  0  0  0  0
 55 70  1  0  0  0  0
 57 67  1  0  0  0  0
 58 68  1  0  0  0  0
 59 68  1  0  0  0  0
 60 68  1  0  0  0  0
 61 79  1  0  0  0  0
 62 63  1  0  0  0  0
 62 64  1  0  0  0  0
 63 65  1  0  0  0  0
 64 78  1  0  0  0  0
 65 86  1  0  0  0  0
 66 68  1  0  0  0  0
 66 77  1  0  0  0  0
 67 79  1  0  0  0  0
 69 70  1  0  0  0  0
M  CHG  2  78   1  79   1
M  ISO  4  38 100  65 101  75 100  86 101
M  END
> <Batch ID>
0025

> <Smiles>
CNC(C)C(=O)NC(C(=O)N1Cc2cc([101O:1][101CH2:1]CCCN3CCC(c4c(Cl)cc([100NH:0][100C:0](=O)N5CCCC(n6nc(-c7ccc(Oc8ccc(F)cc8F)cc7)c(C(N)=O)c6N)C5)c(C)c4Cl)CC3)ccc2CC1C(=O)NC1CCCc2ccccc21)C(C)(C)C

> <Shape>
0.282

> <Color>
0.114

> <Negative vol penalty>
0.000

$$$$

  -OEChem-04052316243D

 91100  0     1  0  0  0  0  0999 V2000
  -29.7159  -33.7894   27.1056 C   0  0  0  0  0  0  0  0  0  0  0  0
  -30.0387  -32.7873   26.1961 C   0  0  0  0  0  0  0  0  0  0  0  0
  -23.5206  -10.5073   22.8234 C   0  0  0  0  0  0  0  0  0  0  0  0
  -24.9207  -11.7787   24.3269 C   0  0  0  0  0  0  0  0  0  0  0  0
  -28.4032  -33.9241   27.5558 C   0  0  0  0  0  0  0  0  0  0  0  0
  -29.0491  -31.9187   25.7371 C   0  0  0  0  0  0  0  0  0  0  0  0
  -27.1554  -28.1857   19.9238 C   0  0  0  0  0  0  0  0  0  0  0  0
  -23.0736   -9.7332   23.8941 C   0  0  0  0  0  0  0  0  0  0  0  0
  -24.4736  -11.0046   25.3977 C   0  0  0  0  0  0  0  0  0  0  0  0
  -26.8080  -26.8908   19.5412 C   0  0  0  0  0  0  0  0  0  0  0  0
  -20.8548  -10.0313   26.4281 C   0  0  0  0  0  0  0  0  0  0  0  0
  -19.4863   -9.7764   26.5170 C   0  0  0  0  0  0  0  0  0  0  0  0
  -24.5589  -27.2683   20.3275 C   0  0  0  0  0  0  0  0  0  0  0  0
  -31.9109  -18.4164   20.2466 C   0  0  0  0  0  0  0  0  0  0  0  0
  -19.9192   -7.4036   26.3774 C   0  0  0  0  0  0  0  0  0  0  0  0
  -24.4442  -11.5300   23.0397 C   0  0  0  0  0  0  0  0  0  0  0  0
  -24.1266  -13.1325   21.0804 C   0  0  0  0  0  0  0  0  0  0  0  0
  -27.3952  -33.0629   27.0947 C   0  0  0  0  0  0  0  0  0  0  0  0
  -26.2084  -29.0294   20.5221 C   0  0  0  0  0  0  0  0  0  0  0  0
  -27.7220  -32.0413   26.1826 C   0  0  0  0  0  0  0  0  0  0  0  0
  -24.8961  -28.5744   20.7144 C   0  0  0  0  0  0  0  0  0  0  0  0
  -29.5693  -19.9061   20.6717 C   0  0  0  0  0  0  0  0  0  0  0  0
  -30.4897  -20.3135   19.6898 C   0  0  0  0  0  0  0  0  0  0  0  0
  -31.0010  -18.0136   21.2171 C   0  0  0  0  0  0  0  0  0  0  0  0
  -29.8389  -18.7540   21.4295 C   0  0  0  0  0  0  0  0  0  0  0  0
  -23.5500   -9.9819   25.1813 C   0  0  0  0  0  0  0  0  0  0  0  0
  -25.5104  -26.4310   19.7457 C   0  0  0  0  0  0  0  0  0  0  0  0
  -21.7555   -8.9723   26.3138 C   0  0  0  0  0  0  0  0  0  0  0  0
  -19.0185   -8.4626   26.4917 C   0  0  0  0  0  0  0  0  0  0  0  0
  -21.2877   -7.6584   26.2885 C   0  0  0  0  0  0  0  0  0  0  0  0
  -31.6581  -19.5592   19.4890 C   0  0  0  0  0  0  0  0  0  0  0  0
  -24.9068  -12.3296   21.9340 C   0  0  0  0  0  0  0  0  0  0  0  0
  -25.0303  -13.6797   20.2028 C   0  0  0  0  0  0  0  0  0  0  0  0
  -22.7115  -13.3630   21.0809 C   0  0  0  0  0  0  0  0  0  0  0  0
  -25.9537  -30.4713   23.3433 C   0  0  0  0  0  0  0  0  0  0  0  0
  -23.3524  -31.8401   21.9715 C   0  0  0  0  0  0  0  0  0  0  0  0
  -20.9066  -31.6780   19.5970 C   0  0  0  0  0  0  0  0  0  0  0  0
  -30.8992  -14.8082   20.5688 C   0  0  0  0  0  0  0  0  0  0  0  0
  -25.9999  -33.2176   27.6461 C   0  0  0  0  0  0  0  0  0  0  0  0
  -26.5919  -30.4326   20.9046 C   0  0  0  0  0  0  0  0  0  0  0  0
  -28.3054  -20.6849   20.9362 C   0  0  0  0  0  0  0  0  0  0  0  0
  -30.2552  -21.5480   18.8559 C   0  0  0  0  0  0  0  0  0  0  0  0
  -23.8369  -29.4475   21.3341 C   0  0  0  0  0  0  0  0  0  0  0  0
  -24.9366  -32.4931   26.8247 C   0  0  0  0  0  0  0  0  0  0  0  0
  -29.2543  -12.7917   18.1388 C   0  0  0  0  0  0  0  0  0  0  0  0
  -25.3937  -31.0768   26.4901 C   0  0  0  0  0  0  0  0  0  0  0  0
  -27.8832  -12.5171   18.7589 C   0  0  0  0  0  0  0  0  0  0  0  0
  -30.3564  -12.8192   19.1955 C   0  0  0  0  0  0  0  0  0  0  0  0
  -28.7412  -13.4661   20.9410 C   0  0  0  0  0  0  0  0  0  0  0  0
  -27.3541  -20.7062   19.7449 C   0  0  0  0  0  0  0  0  0  0  0  0
  -29.0219  -21.4442   17.9654 C   0  0  0  0  0  0  0  0  0  0  0  0
  -26.6715  -31.0952   25.6425 C   0  0  1  0  0  0  0  0  0  0  0  0
  -25.6832  -31.0296   21.9748 C   0  0  1  0  0  0  0  0  0  0  0  0
  -27.5896  -13.4844   19.9213 C   0  0  2  0  0  0  0  0  0  0  0  0
  -18.9024  -32.9250   18.7450 C   0  0  0  0  0  0  0  0  0  0  0  0
  -25.9748  -20.7203   17.4092 C   0  0  0  0  0  0  0  0  0  0  0  0
  -21.7337  -30.8724   24.3701 C   0  0  0  0  0  0  0  0  0  0  0  0
  -19.6511  -31.2897   23.0447 C   0  0  0  0  0  0  0  0  0  0  0  0
  -21.1752  -33.1850   23.5992 C   0  0  0  0  0  0  0  0  0  0  0  0
  -22.1158  -32.0239   16.9180 C   0  0  0  0  0  0  0  0  0  0  0  0
  -31.2964  -16.7854   22.0151 C   0  0  0  0  0  0  0  0  0  0  0  0
  -25.6145  -22.9926   18.4518 C   0  0  0  0  0  0  0  0  0  0  0  0
  -26.1891  -24.3663   18.7800 C   0  0  0  0  0  0  0  0  0  1  0  0
  -28.8894  -18.2746   22.4863 C   0  0  0  0  0  0  0  0  0  0  0  0
  -21.8884  -31.4869   21.8672 C   0  0  1  0  0  0  0  0  0  0  0  0
  -20.4003  -32.7054   18.6006 C   0  0  2  0  0  0  0  0  0  0  0  0
  -26.6178  -22.0481   17.7870 C   0  0  1  0  0  0  0  0  0  0  0  0
  -21.1323  -31.6911   23.2103 C   0  0  0  0  0  0  0  0  0  0  0  0
  -26.2061  -12.3610   21.6262 N   0  0  0  0  0  0  0  0  0  0  0  0
  -26.2494  -13.1902   20.5695 N   0  0  0  0  0  0  0  0  0  0  0  0
  -24.2624  -30.8094   21.6971 N   0  0  0  0  0  0  0  0  0  0  0  0
  -30.0173  -13.7570   20.2687 N   0  0  0  0  0  0  0  0  0  0  0  0
  -24.8932  -14.5270   19.1608 N   0  0  0  0  0  0  0  0  0  0  0  0
  -21.9304  -12.7219   22.0521 N   0  0  0  0  0  0  0  0  0  0  0  0
  -26.3605  -31.4161   24.2661 N   0  0  0  0  0  0  0  0  0  0  0  0
  -21.3574  -32.2709   20.7574 N   0  0  0  0  0  0  0  0  0  0  0  0
  -30.4988  -15.6548   21.5952 N   0  0  0  0  0  0  0  0  0  0  0  0
  -27.7577  -21.7601   18.7359 N   0  3  1  0  0  0  0  0  0  0  0  0
  -20.6772  -32.2557   17.2070 N   0  3  0  0  0  0  0  0  0  0  0  0
  -22.1540  -14.1024   20.2347 O   0  0  0  0  0  0  0  0  0  0  0  0
  -25.8031  -29.2724   23.5474 O   0  0  0  0  0  0  0  0  0  0  0  0
  -23.6767  -32.9901   22.2780 O   0  0  0  0  0  0  0  0  0  0  0  0
  -20.8992  -30.4701   19.3702 O   0  0  0  0  0  0  0  0  0  0  0  0
  -31.9620  -14.9828   19.9629 O   0  0  0  0  0  0  0  0  0  0  0  0
  -23.1139   -9.2269   26.2264 O   0  0  0  0  0  0  0  0  0  0  0  0
  -25.1666  -25.1585   19.3713 O   0  0  0  0  0  0  0  0  0  1  0  0
  -17.7044   -8.2179   26.5786 F   0  0  0  0  0  0  0  0  0  0  0  0
  -22.1482   -6.6369   26.1800 F   0  0  0  0  0  0  0  0  0  0  0  0
  -27.6713  -18.0157   21.9493 F   0  0  0  0  0  0  0  0  0  0  0  0
  -28.7060  -19.2316   23.4296 F   0  0  0  0  0  0  0  0  0  0  0  0
  -32.8604  -19.9513   18.3016 Cl  0  0  0  0  0  0  0  0  0  0  0  0
  1  2  1  0  0  0  0
  1  5  2  0  0  0  0
  2  6  2  0  0  0  0
  3  8  2  0  0  0  0
  3 16  1  0  0  0  0
  4  9  1  0  0  0  0
  4 16  2  0  0  0  0
  5 18  1  0  0  0  0
  6 20  1  0  0  0  0
  7 10  2  0  0  0  0
  7 19  1  0  0  0  0
  8 26  1  0  0  0  0
  9 26  2  0  0  0  0
 10 27  1  0  0  0  0
 11 12  2  0  0  0  0
 11 28  1  0  0  0  0
 12 29  1  0  0  0  0
 13 21  1  0  0  0  0
 13 27  2  0  0  0  0
 14 24  1  0  0  0  0
 14 31  2  0  0  0  0
 15 29  2  0  0  0  0
 15 30  1  0  0  0  0
 16 32  1  0  0  0  0
 17 32  1  0  0  0  0
 17 33  2  0  0  0  0
 17 34  1  0  0  0  0
 18 20  2  0  0  0  0
 18 39  1  0  0  0  0
 19 21  2  0  0  0  0
 19 40  1  0  0  0  0
 20 52  1  0  0  0  0
 21 43  1  0  0  0  0
 22 23  2  0  0  0  0
 22 25  1  0  0  0  0
 22 41  1  0  0  0  0
 23 31  1  0  0  0  0
 23 42  1  0  0  0  0
 24 25  2  0  0  0  0
 24 61  1  0  0  0  0
 25 64  1  0  0  0  0
 26 85  1  0  0  0  0
 27 86  1  0  0  0  0
 28 30  2  0  0  0  0
 28 85  1  0  0  0  0
 29 87  1  0  0  0  0
 30 88  1  0  0  0  0
 31 91  1  0  0  0  0
 32 69  2  0  0  0  0
 33 70  1  0  0  0  0
 33 73  1  0  0  0  0
 34 74  1  0  0  0  0
 34 80  2  0  0  0  0
 35 53  1  0  0  0  0
 35 75  1  0  0  0  0
 35 81  2  0  0  0  0
 36 65  1  0  0  0  0
 36 71  1  0  0  0  0
 36 82  2  0  0  0  0
 37 66  1  0  0  0  0
 37 76  1  0  0  0  0
 37 83  2  0  0  0  0
 38 72  1  0  0  0  0
 38 77  1  0  0  0  0
 38 84  2  0  0  0  0
 39 44  1  0  0  0  0
 40 53  1  0  0  0  0
 41 50  1  0  0  0  0
 42 51  1  0  0  0  0
 43 71  1  0  0  0  0
 44 46  1  0  0  0  0
 45 47  1  0  0  0  0
 45 48  1  0  0  0  0
 46 52  1  0  0  0  0
 47 54  1  0  0  0  0
 48 72  1  0  0  0  0
 49 54  1  0  0  0  0
 49 72  1  0  0  0  0
 50 78  1  0  0  0  0
 51 78  1  0  0  0  0
 52 75  1  0  0  0  0
 53 71  1  0  0  0  0
 54 70  1  0  0  0  0
 55 66  1  0  0  0  0
 56 67  1  0  0  0  0
 57 68  1  0  0  0  0
 58 68  1  0  0  0  0
 59 68  1  0  0  0  0
 60 79  1  0  0  0  0
 61 77  1  0  0  0  0
 62 63  1  0  0  0  0
 62 67  1  0  0  0  0
 63 86  1  0  0  0  0
 64 89  1  0  0  0  0
 64 90  1  0  0  0  0
 65 68  1  0  0  0  0
 65 76  1  0  0  0  0
 66 79  1  0  0  0  0
 67 78  1  0  0  0  0
 69 70  1  0  0  0  0
M  CHG  2  78   1  79   1
M  ISO  4  38 100  63 101  77 100  86 101
M  END
> <Batch ID>
0025

> <Smiles>
CNC(C)C(=O)NC(C(=O)N1Cc2cc([101O:1][101CH2:1]CC(C)N3CCc4c(Cl)cc(C[100NH:0][100C:0](=O)N5CCCC(n6nc(-c7ccc(Oc8ccc(F)cc8F)cc7)c(C(N)=O)c6N)C5)c(C(F)F)c4CC3)ccc2CC1C(=O)NC1CCCc2ccccc21)C(C)(C)C

> <Shape>
0.280

> <Color>
0.118

> <Negative vol penalty>
0.000

$$$$

  -OEChem-04052316243D

 89 97  0     1  0  0  0  0  0999 V2000
  -37.2836  -13.3290   23.9208 C   0  0  0  0  0  0  0  0  0  0  0  0
  -36.6923  -14.5276   23.5346 C   0  0  0  0  0  0  0  0  0  0  0  0
  -17.8993  -25.4083   24.9094 C   0  0  0  0  0  0  0  0  0  0  0  0
  -18.6479  -27.4261   26.0072 C   0  0  0  0  0  0  0  0  0  0  0  0
  -36.8164  -12.1230   23.4001 C   0  0  0  0  0  0  0  0  0  0  0  0
  -35.6340  -14.5210   22.6266 C   0  0  0  0  0  0  0  0  0  0  0  0
  -30.8258  -18.3132   22.5489 C   0  0  0  0  0  0  0  0  0  0  0  0
  -17.4553  -24.9073   26.1331 C   0  0  0  0  0  0  0  0  0  0  0  0
  -18.2038  -26.9251   27.2309 C   0  0  0  0  0  0  0  0  0  0  0  0
  -30.5487  -19.4615   21.8084 C   0  0  0  0  0  0  0  0  0  0  0  0
  -16.9410  -26.3294   30.5878 C   0  0  0  0  0  0  0  0  0  0  0  0
  -16.2238  -27.1892   31.4196 C   0  0  0  0  0  0  0  0  0  0  0  0
  -29.2968  -18.1343   20.2302 C   0  0  0  0  0  0  0  0  0  0  0  0
  -26.7410  -26.7913   18.3900 C   0  0  0  0  0  0  0  0  0  0  0  0
  -14.5467  -27.4531   29.7006 C   0  0  0  0  0  0  0  0  0  0  0  0
  -18.4957  -26.6677   24.8465 C   0  0  0  0  0  0  0  0  0  0  0  0
  -18.2210  -27.9585   22.6633 C   0  0  0  0  0  0  0  0  0  0  0  0
  -35.7456  -12.1008   22.4926 C   0  0  0  0  0  0  0  0  0  0  0  0
  -30.3488  -17.0631   22.1290 C   0  0  0  0  0  0  0  0  0  0  0  0
  -35.1529  -13.3136   22.0922 C   0  0  0  0  0  0  0  0  0  0  0  0
  -29.5671  -16.9720   20.9686 C   0  0  0  0  0  0  0  0  0  0  0  0
  -27.3793  -25.9326   17.4614 C   0  0  0  0  0  0  0  0  0  0  0  0
  -17.6075  -25.6657   27.2938 C   0  0  0  0  0  0  0  0  0  0  0  0
  -29.7865  -19.3717   20.6473 C   0  0  0  0  0  0  0  0  0  0  0  0
  -16.4612  -26.0315   29.3123 C   0  0  0  0  0  0  0  0  0  0  0  0
  -15.0266  -27.7510   30.9760 C   0  0  0  0  0  0  0  0  0  0  0  0
  -15.2640  -26.5934   28.8688 C   0  0  0  0  0  0  0  0  0  0  0  0
  -18.9552  -27.1856   23.5828 C   0  0  0  0  0  0  0  0  0  0  0  0
  -27.2341  -26.4855   19.6392 C   0  0  0  0  0  0  0  0  0  0  0  0
  -28.2429  -25.1280   18.1715 C   0  0  0  0  0  0  0  0  0  0  0  0
  -19.0994  -28.1937   21.6340 C   0  0  0  0  0  0  0  0  0  0  0  0
  -16.8662  -28.4225   22.7335 C   0  0  0  0  0  0  0  0  0  0  0  0
  -31.7035  -14.3282   21.2408 C   0  0  0  0  0  0  0  0  0  0  0  0
  -28.6373  -13.2701   21.2119 C   0  0  0  0  0  0  0  0  0  0  0  0
  -25.3171  -14.0164   20.9542 C   0  0  0  0  0  0  0  0  0  0  0  0
  -24.8774  -28.5385   21.3136 C   0  0  0  0  0  0  0  0  0  0  0  0
  -35.3062  -10.7763   21.9206 C   0  0  0  0  0  0  0  0  0  0  0  0
  -30.6340  -15.8378   22.9535 C   0  0  0  0  0  0  0  0  0  0  0  0
  -29.0143  -15.6567   20.4860 C   0  0  0  0  0  0  0  0  0  0  0  0
  -33.9355  -10.8268   21.2506 C   0  0  0  0  0  0  0  0  0  0  0  0
  -22.8928  -26.3051   19.4307 C   0  0  0  0  0  0  0  0  0  0  0  0
  -33.8334  -12.0424   20.3348 C   0  0  0  0  0  0  0  0  0  0  0  0
  -21.5754  -26.3455   20.2038 C   0  0  0  0  0  0  0  0  0  0  0  0
  -24.1062  -26.3154   20.3623 C   0  0  0  0  0  0  0  0  0  0  0  0
  -22.7874  -27.4731   22.1067 C   0  0  0  0  0  0  0  0  0  0  0  0
  -33.9866  -13.3455   21.1285 C   0  0  1  0  0  0  0  0  0  0  0  0
  -30.5300  -14.5424   22.1544 C   0  0  1  0  0  0  0  0  0  0  0  0
  -21.5536  -27.5241   21.1925 C   0  0  2  0  0  0  0  0  0  0  0  0
  -23.0517  -12.9373   20.9288 C   0  0  0  0  0  0  0  0  0  0  0  0
  -26.3501  -30.2650   19.3427 C   0  0  0  0  0  0  0  0  0  0  0  0
  -27.2053  -30.3911   21.7040 C   0  0  0  0  0  0  0  0  0  0  0  0
  -26.0961  -26.9768   15.5617 C   0  0  0  0  0  0  0  0  0  0  0  0
  -26.6320  -24.5178   15.5155 C   0  0  0  0  0  0  0  0  0  0  0  0
  -28.4150  -26.2022   15.1097 C   0  0  0  0  0  0  0  0  0  0  0  0
  -29.1224  -12.3245   18.3517 C   0  0  0  0  0  0  0  0  0  0  0  0
  -26.6419  -12.1422   18.0653 C   0  0  0  0  0  0  0  0  0  0  0  0
  -27.8059  -10.7369   19.7662 C   0  0  0  0  0  0  0  0  0  0  0  0
  -28.8924  -24.8614   20.5739 C   0  0  0  0  0  0  0  0  0  0  0  0
  -24.4552  -15.5002   23.3655 C   0  0  0  0  0  0  0  0  0  0  0  0
  -26.9108  -27.0751   20.9547 C   0  0  0  0  0  0  0  0  0  0  0  0
  -29.1655  -24.0443   17.6967 C   0  0  0  0  0  0  0  0  0  0  0  0
  -29.7249  -21.6125   17.8055 C   0  0  0  0  0  0  0  0  0  0  0  0
  -29.3452  -20.3277   18.5148 C   0  0  0  0  0  0  0  0  0  1  0  0
  -27.5347  -13.2159   20.1822 C   0  0  1  0  0  0  0  0  0  0  0  0
  -24.1217  -13.5924   21.7882 C   0  0  2  0  0  0  0  0  0  0  0  0
  -26.9944  -29.4963   20.4895 C   0  0  0  0  0  0  0  0  0  0  0  0
  -27.1550  -25.9110   16.0022 C   0  0  0  0  0  0  0  0  0  0  0  0
  -27.7881  -12.1295   19.0991 C   0  0  0  0  0  0  0  0  0  0  0  0
  -20.2037  -26.9456   23.1736 N   0  0  0  0  0  0  0  0  0  0  0  0
  -28.1460  -25.4727   19.4943 N   0  0  0  0  0  0  0  0  0  0  0  0
  -20.2609  -27.5713   21.9856 N   0  0  0  0  0  0  0  0  0  0  0  0
  -29.3258  -14.4863   21.3230 N   0  0  0  0  0  0  0  0  0  0  0  0
  -24.0220  -27.4269   21.3196 N   0  0  0  0  0  0  0  0  0  0  0  0
  -18.9838  -28.8700   20.4714 N   0  0  0  0  0  0  0  0  0  0  0  0
  -16.1039  -28.0906   23.8618 N   0  0  0  0  0  0  0  0  0  0  0  0
  -32.7592  -13.6580   21.8288 N   0  0  0  0  0  0  0  0  0  0  0  0
  -26.2910  -13.0408   20.9246 N   0  0  0  0  0  0  0  0  0  0  0  0
  -26.1857  -28.3396   20.8475 N   0  0  0  0  0  0  0  0  0  0  0  0
  -23.5197  -14.7737   22.4688 N   0  3  0  0  0  0  0  0  0  0  0  0
  -28.8666  -22.7179   18.3010 N   0  3  0  0  0  0  0  0  0  0  0  0
  -16.3419  -29.0971   21.8151 O   0  0  0  0  0  0  0  0  0  0  0  0
  -31.6542  -14.7392   20.0874 O   0  0  0  0  0  0  0  0  0  0  0  0
  -28.8740  -12.2723   21.8975 O   0  0  0  0  0  0  0  0  0  0  0  0
  -25.3790  -15.1028   20.3828 O   0  0  0  0  0  0  0  0  0  0  0  0
  -24.4968  -29.6474   21.7104 O   0  0  0  0  0  0  0  0  0  0  0  0
  -17.1741  -25.1772   28.4880 O   0  0  0  0  0  0  0  0  0  0  0  0
  -29.5152  -20.4909   19.9222 O   0  0  0  0  0  0  0  0  0  1  0  0
  -14.3371  -28.5754   31.7755 F   0  0  0  0  0  0  0  0  0  0  0  0
  -14.7974  -26.3101   27.6449 F   0  0  0  0  0  0  0  0  0  0  0  0
  1  2  1  0  0  0  0
  1  5  2  0  0  0  0
  2  6  2  0  0  0  0
  3  8  2  0  0  0  0
  3 16  1  0  0  0  0
  4  9  1  0  0  0  0
  4 16  2  0  0  0  0
  5 18  1  0  0  0  0
  6 20  1  0  0  0  0
  7 10  2  0  0  0  0
  7 19  1  0  0  0  0
  8 23  1  0  0  0  0
  9 23  2  0  0  0  0
 10 24  1  0  0  0  0
 11 12  2  0  0  0  0
 11 25  1  0  0  0  0
 12 26  1  0  0  0  0
 13 21  1  0  0  0  0
 13 24  2  0  0  0  0
 14 22  1  0  0  0  0
 14 29  2  0  0  0  0
 15 26  2  0  0  0  0
 15 27  1  0  0  0  0
 16 28  1  0  0  0  0
 17 28  1  0  0  0  0
 17 31  2  0  0  0  0
 17 32  1  0  0  0  0
 18 20  2  0  0  0  0
 18 37  1  0  0  0  0
 19 21  2  0  0  0  0
 19 38  1  0  0  0  0
 20 46  1  0  0  0  0
 21 39  1  0  0  0  0
 22 30  2  0  0  0  0
 22 67  1  0  0  0  0
 23 86  1  0  0  0  0
 24 87  1  0  0  0  0
 25 27  2  0  0  0  0
 25 86  1  0  0  0  0
 26 88  1  0  0  0  0
 27 89  1  0  0  0  0
 28 69  2  0  0  0  0
 29 60  1  0  0  0  0
 29 70  1  0  0  0  0
 30 61  1  0  0  0  0
 30 70  1  0  0  0  0
 31 71  1  0  0  0  0
 31 74  1  0  0  0  0
 32 75  1  0  0  0  0
 32 81  2  0  0  0  0
 33 47  1  0  0  0  0
 33 76  1  0  0  0  0
 33 82  2  0  0  0  0
 34 64  1  0  0  0  0
 34 72  1  0  0  0  0
 34 83  2  0  0  0  0
 35 65  1  0  0  0  0
 35 77  1  0  0  0  0
 35 84  2  0  0  0  0
 36 73  1  0  0  0  0
 36 78  1  0  0  0  0
 36 85  2  0  0  0  0
 37 40  1  0  0  0  0
 38 47  1  0  0  0  0
 39 72  1  0  0  0  0
 40 42  1  0  0  0  0
 41 43  1  0  0  0  0
 41 44  1  0  0  0  0
 42 46  1  0  0  0  0
 43 48  1  0  0  0  0
 44 73  1  0  0  0  0
 45 48  1  0  0  0  0
 45 73  1  0  0  0  0
 46 76  1  0  0  0  0
 47 72  1  0  0  0  0
 48 71  1  0  0  0  0
 49 65  1  0  0  0  0
 50 66  1  0  0  0  0
 51 66  1  0  0  0  0
 52 67  1  0  0  0  0
 53 67  1  0  0  0  0
 54 67  1  0  0  0  0
 55 68  1  0  0  0  0
 56 68  1  0  0  0  0
 57 68  1  0  0  0  0
 58 70  1  0  0  0  0
 59 79  1  0  0  0  0
 60 78  1  0  0  0  0
 61 80  1  0  0  0  0
 62 63  1  0  0  0  0
 62 80  1  0  0  0  0
 63 87  1  0  0  0  0
 64 68  1  0  0  0  0
 64 77  1  0  0  0  0
 65 79  1  0  0  0  0
 66 78  1  0  0  0  0
 69 71  1  0  0  0  0
M  CHG  2  79   1  80   1
M  ISO  4  36 100  63 101  78 100  87 101
M  END
> <Batch ID>
0025

> <Smiles>
CNC(C)C(=O)NC(C(=O)N1Cc2cc([101O:1][101CH2:1]CNCc3c(C(C)(C)C)cc(C[100N:0](C(C)C)[100C:0](=O)N4CCCC(n5nc(-c6ccc(Oc7ccc(F)cc7F)cc6)c(C(N)=O)c5N)C4)n3C)ccc2CC1C(=O)NC1CCCc2ccccc21)C(C)(C)C

> <Shape>
0.239

> <Color>
0.075

> <Negative vol penalty>
0.000

$$$$

  -OEChem-04052316243D

 84 92  0     1  0  0  0  0  0999 V2000
  -18.0309  -30.2427   24.3018 C   0  0  0  0  0  0  0  0  0  0  0  0
  -19.4179  -30.1557   24.2396 C   0  0  0  0  0  0  0  0  0  0  0  0
  -24.4921  -13.9734   20.7625 C   0  0  0  0  0  0  0  0  0  0  0  0
  -26.8350  -13.4256   20.5435 C   0  0  0  0  0  0  0  0  0  0  0  0
  -17.2442  -29.2852   23.6628 C   0  0  0  0  0  0  0  0  0  0  0  0
  -20.0192  -29.1104   23.5393 C   0  0  0  0  0  0  0  0  0  0  0  0
  -25.2389  -29.3419   20.3445 C   0  0  0  0  0  0  0  0  0  0  0  0
  -24.1544  -12.6601   20.4357 C   0  0  0  0  0  0  0  0  0  0  0  0
  -26.4973  -12.1122   20.2167 C   0  0  0  0  0  0  0  0  0  0  0  0
  -26.5460  -28.9692   20.6550 C   0  0  0  0  0  0  0  0  0  0  0  0
  -24.0582   -9.6546   21.9818 C   0  0  0  0  0  0  0  0  0  0  0  0
  -23.0841   -9.0240   22.7557 C   0  0  0  0  0  0  0  0  0  0  0  0
  -26.1904  -26.8428   19.5727 C   0  0  0  0  0  0  0  0  0  0  0  0
  -31.0937  -24.3964   23.3294 C   0  0  0  0  0  0  0  0  0  0  0  0
  -21.7126   -8.7286   20.7888 C   0  0  0  0  0  0  0  0  0  0  0  0
  -25.8324  -14.3562   20.8163 C   0  0  0  0  0  0  0  0  0  0  0  0
  -26.4240  -16.2341   22.4383 C   0  0  0  0  0  0  0  0  0  0  0  0
  -17.8360  -28.2331   22.9462 C   0  0  0  0  0  0  0  0  0  0  0  0
  -24.3928  -28.4621   19.6542 C   0  0  0  0  0  0  0  0  0  0  0  0
  -19.2397  -28.1372   22.8913 C   0  0  0  0  0  0  0  0  0  0  0  0
  -24.8738  -27.2077   19.2525 C   0  0  0  0  0  0  0  0  0  0  0  0
  -30.3866  -22.3893   21.5255 C   0  0  0  0  0  0  0  0  0  0  0  0
  -25.1570  -11.7295   20.1629 C   0  0  0  0  0  0  0  0  0  0  0  0
  -27.0210  -27.7184   20.2717 C   0  0  0  0  0  0  0  0  0  0  0  0
  -23.8595   -9.8222   20.6113 C   0  0  0  0  0  0  0  0  0  0  0  0
  -29.9696  -24.5520   22.5184 C   0  0  0  0  0  0  0  0  0  0  0  0
  -31.8643  -23.2373   23.2385 C   0  0  0  0  0  0  0  0  0  0  0  0
  -21.9113   -8.5609   22.1592 C   0  0  0  0  0  0  0  0  0  0  0  0
  -22.6867   -9.3592   20.0148 C   0  0  0  0  0  0  0  0  0  0  0  0
  -29.6160  -23.5484   21.6165 C   0  0  0  0  0  0  0  0  0  0  0  0
  -31.5108  -22.2337   22.3366 C   0  0  0  0  0  0  0  0  0  0  0  0
  -26.1818  -15.7128   21.1533 C   0  0  0  0  0  0  0  0  0  0  0  0
  -26.7145  -17.5591   22.2222 C   0  0  0  0  0  0  0  0  0  0  0  0
  -26.3896  -15.5793   23.7134 C   0  0  0  0  0  0  0  0  0  0  0  0
  -21.6383  -27.0189   20.3128 C   0  0  0  0  0  0  0  0  0  0  0  0
  -21.8412  -26.0738   17.2164 C   0  0  0  0  0  0  0  0  0  0  0  0
  -23.8122  -25.4454   14.5022 C   0  0  0  0  0  0  0  0  0  0  0  0
  -29.3348  -21.5717   19.3875 C   0  0  0  0  0  0  0  0  0  0  0  0
  -16.9445  -27.1953   22.3116 C   0  0  0  0  0  0  0  0  0  0  0  0
  -22.9940  -28.8895   19.3034 C   0  0  0  0  0  0  0  0  0  0  0  0
  -24.0121  -26.2344   18.4917 C   0  0  0  0  0  0  0  0  0  0  0  0
  -17.6584  -26.3302   21.2760 C   0  0  0  0  0  0  0  0  0  0  0  0
  -26.2487  -20.3964   18.0564 C   0  0  0  0  0  0  0  0  0  0  0  0
  -19.0014  -25.8494   21.8165 C   0  0  0  0  0  0  0  0  0  0  0  0
  -25.9761  -19.1160   18.8491 C   0  0  0  0  0  0  0  0  0  0  0  0
  -27.7373  -20.5768   17.7647 C   0  0  0  0  0  0  0  0  0  0  0  0
  -28.3410  -19.2247   19.7337 C   0  0  0  0  0  0  0  0  0  0  0  0
  -19.9289  -27.0321   22.1207 C   0  0  1  0  0  0  0  0  0  0  0  0
  -22.0563  -27.7137   19.0478 C   0  0  1  0  0  0  0  0  0  0  0  0
  -26.8621  -19.0330   20.1076 C   0  0  2  0  0  0  0  0  0  0  0  0
  -23.6961  -24.6483   12.1255 C   0  0  0  0  0  0  0  0  0  0  0  0
  -21.4777  -23.2077   18.1979 C   0  0  0  0  0  0  0  0  0  0  0  0
  -22.3080  -22.4144   15.9732 C   0  0  0  0  0  0  0  0  0  0  0  0
  -20.2148  -23.7642   16.1123 C   0  0  0  0  0  0  0  0  0  0  0  0
  -24.9043  -27.9956   13.4714 C   0  0  0  0  0  0  0  0  0  0  0  0
  -34.1947  -23.6072   23.5362 C   0  0  0  0  0  0  0  0  0  0  0  0
  -28.8663  -27.9029   21.7605 C   0  0  0  0  0  0  0  0  0  1  0  0
  -29.8722  -26.9206   22.3289 C   0  0  0  0  0  0  0  0  0  0  0  0
  -22.4447  -24.8919   16.4967 C   0  0  1  0  0  0  0  0  0  0  0  0
  -23.6840  -25.8581   13.0470 C   0  0  2  0  0  0  0  0  0  0  0  0
  -21.6272  -23.5869   16.7110 C   0  0  0  0  0  0  0  0  0  0  0  0
  -26.3073  -16.6316   20.1920 N   0  0  0  0  0  0  0  0  0  0  0  0
  -26.6314  -17.7437   20.8734 N   0  0  0  0  0  0  0  0  0  0  0  0
  -22.6498  -26.6962   18.1779 N   0  0  0  0  0  0  0  0  0  0  0  0
  -28.5136  -20.4904   19.0036 N   0  0  0  0  0  0  0  0  0  0  0  0
  -27.0301  -18.5725   23.0563 N   0  0  0  0  0  0  0  0  0  0  0  0
  -26.0736  -14.2145   23.7552 N   0  0  0  0  0  0  0  0  0  0  0  0
  -29.9993  -21.3890   20.5997 N   0  0  0  0  0  0  0  0  0  0  0  0
  -20.5050  -27.5501   20.8983 N   0  0  0  0  0  0  0  0  0  0  0  0
  -22.5793  -25.2900   15.0996 N   0  0  0  0  0  0  0  0  0  0  0  0
  -24.8108  -26.7539   12.6613 N   0  3  0  0  0  0  0  0  0  0  0  0
  -26.6158  -16.1902   24.7853 O   0  0  0  0  0  0  0  0  0  0  0  0
  -22.2946  -26.0702   20.7262 O   0  0  0  0  0  0  0  0  0  0  0  0
  -20.6971  -26.4360   16.9307 O   0  0  0  0  0  0  0  0  0  0  0  0
  -24.8976  -25.2741   15.0528 O   0  0  0  0  0  0  0  0  0  0  0  0
  -29.4196  -22.5962   18.7055 O   0  0  0  0  0  0  0  0  0  0  0  0
  -24.8279  -10.4478   19.8442 O   0  0  0  0  0  0  0  0  0  0  0  0
  -32.9567  -23.1164   24.0453 O   0  0  0  0  0  0  0  0  0  0  0  0
  -28.2962  -27.3519   20.5740 O   0  0  0  0  0  0  0  0  0  1  0  0
  -29.2138  -25.6912   22.6088 O   0  0  0  0  0  0  0  0  0  0  0  0
  -20.9766   -7.9540   22.9023 F   0  0  0  0  0  0  0  0  0  0  0  0
  -22.4907   -9.5164   18.6985 F   0  0  0  0  0  0  0  0  0  0  0  0
  -28.5328  -23.7038   20.8405 F   0  0  0  0  0  0  0  0  0  0  0  0
  -32.4772  -20.7991   22.2365 Cl  0  0  0  0  0  0  0  0  0  0  0  0
  1  2  1  0  0  0  0
  1  5  2  0  0  0  0
  2  6  2  0  0  0  0
  3  8  2  0  0  0  0
  3 16  1  0  0  0  0
  4  9  1  0  0  0  0
  4 16  2  0  0  0  0
  5 18  1  0  0  0  0
  6 20  1  0  0  0  0
  7 10  2  0  0  0  0
  7 19  1  0  0  0  0
  8 23  1  0  0  0  0
  9 23  2  0  0  0  0
 10 24  1  0  0  0  0
 11 12  2  0  0  0  0
 11 25  1  0  0  0  0
 12 28  1  0  0  0  0
 13 21  1  0  0  0  0
 13 24  2  0  0  0  0
 14 26  1  0  0  0  0
 14 27  2  0  0  0  0
 15 28  2  0  0  0  0
 15 29  1  0  0  0  0
 16 32  1  0  0  0  0
 17 32  1  0  0  0  0
 17 33  2  0  0  0  0
 17 34  1  0  0  0  0
 18 20  2  0  0  0  0
 18 39  1  0  0  0  0
 19 21  2  0  0  0  0
 19 40  1  0  0  0  0
 20 48  1  0  0  0  0
 21 41  1  0  0  0  0
 22 30  1  0  0  0  0
 22 31  2  0  0  0  0
 22 68  1  0  0  0  0
 23 77  1  0  0  0  0
 24 79  1  0  0  0  0
 25 29  2  0  0  0  0
 25 77  1  0  0  0  0
 26 30  2  0  0  0  0
 26 80  1  0  0  0  0
 27 31  1  0  0  0  0
 27 78  1  0  0  0  0
 28 81  1  0  0  0  0
 29 82  1  0  0  0  0
 30 83  1  0  0  0  0
 31 84  1  0  0  0  0
 32 62  2  0  0  0  0
 33 63  1  0  0  0  0
 33 66  1  0  0  0  0
 34 67  1  0  0  0  0
 34 72  2  0  0  0  0
 35 49  1  0  0  0  0
 35 69  1  0  0  0  0
 35 73  2  0  0  0  0
 36 59  1  0  0  0  0
 36 64  1  0  0  0  0
 36 74  2  0  0  0  0
 37 60  1  0  0  0  0
 37 70  1  0  0  0  0
 37 75  2  0  0  0  0
 38 65  1  0  0  0  0
 38 68  1  0  0  0  0
 38 76  2  0  0  0  0
 39 42  1  0  0  0  0
 40 49  1  0  0  0  0
 41 64  1  0  0  0  0
 42 44  1  0  0  0  0
 43 45  1  0  0  0  0
 43 46  1  0  0  0  0
 44 48  1  0  0  0  0
 45 50  1  0  0  0  0
 46 65  1  0  0  0  0
 47 50  1  0  0  0  0
 47 65  1  0  0  0  0
 48 69  1  0  0  0  0
 49 64  1  0  0  0  0
 50 63  1  0  0  0  0
 51 60  1  0  0  0  0
 52 61  1  0  0  0  0
 53 61  1  0  0  0  0
 54 61  1  0  0  0  0
 55 71  1  0  0  0  0
 56 78  1  0  0  0  0
 57 58  1  0  0  0  0
 57 79  1  0  0  0  0
 58 80  1  0  0  0  0
 59 61  1  0  0  0  0
 59 70  1  0  0  0  0
 60 71  1  0  0  0  0
 62 63  1  0  0  0  0
M  CHG  1  71   1
M  ISO  4  38 100  57 101  68 100  79 101
M  END
> <Batch ID>
0025

> <Smiles>
CNC(C)C(=O)NC(C(=O)N1Cc2cc([101O:1][101CH2:1]COc3cc(OC)c(Cl)c([100NH:0][100C:0](=O)N4CCCC(n5nc(-c6ccc(Oc7ccc(F)cc7F)cc6)c(C(N)=O)c5N)C4)c3F)ccc2CC1C(=O)NC1CCCc2ccccc21)C(C)(C)C

> <Shape>
0.242

> <Color>
0.090

> <Negative vol penalty>
0.000

$$$$

  -OEChem-04052316243D

 89 99  0     1  0  0  0  0  0999 V2000
  -30.2336  -25.1653   13.4562 C   0  0  0  0  0  0  0  0  0  0  0  0
  -29.2775  -24.6393   14.3191 C   0  0  0  0  0  0  0  0  0  0  0  0
  -23.1576   -9.9607   19.8218 C   0  0  0  0  0  0  0  0  0  0  0  0
  -24.1157   -9.6322   22.0152 C   0  0  0  0  0  0  0  0  0  0  0  0
  -31.1553  -26.1003   13.9255 C   0  0  0  0  0  0  0  0  0  0  0  0
  -29.2433  -25.0471   15.6521 C   0  0  0  0  0  0  0  0  0  0  0  0
  -24.5452  -26.0418   17.2594 C   0  0  0  0  0  0  0  0  0  0  0  0
  -22.5683   -8.6983   19.8901 C   0  0  0  0  0  0  0  0  0  0  0  0
  -23.5264   -8.3698   22.0836 C   0  0  0  0  0  0  0  0  0  0  0  0
  -23.7376  -24.9514   17.5798 C   0  0  0  0  0  0  0  0  0  0  0  0
  -19.8663   -7.2863   21.3525 C   0  0  0  0  0  0  0  0  0  0  0  0
  -18.5337   -7.1707   20.9570 C   0  0  0  0  0  0  0  0  0  0  0  0
  -24.2136  -25.2941   19.9197 C   0  0  0  0  0  0  0  0  0  0  0  0
  -19.1789   -5.5936   19.2442 C   0  0  0  0  0  0  0  0  0  0  0  0
  -23.9313  -10.4277   20.8843 C   0  0  0  0  0  0  0  0  0  0  0  0
  -23.9858  -12.9532   21.2397 C   0  0  0  0  0  0  0  0  0  0  0  0
  -31.1263  -26.5270   15.2625 C   0  0  0  0  0  0  0  0  0  0  0  0
  -25.2028  -26.7610   18.2677 C   0  0  0  0  0  0  0  0  0  0  0  0
  -30.1663  -25.9876   16.1400 C   0  0  0  0  0  0  0  0  0  0  0  0
  -25.0269  -26.3948   19.6097 C   0  0  0  0  0  0  0  0  0  0  0  0
  -29.6160  -18.6284   21.4218 C   0  0  0  0  0  0  0  0  0  0  0  0
  -22.7527   -7.9028   21.0210 C   0  0  0  0  0  0  0  0  0  0  0  0
  -23.5740  -24.5756   18.9099 C   0  0  0  0  0  0  0  0  0  0  0  0
  -20.8553   -6.5557   20.6938 C   0  0  0  0  0  0  0  0  0  0  0  0
  -18.1900   -6.3243   19.9029 C   0  0  0  0  0  0  0  0  0  0  0  0
  -20.5115   -5.7093   19.6397 C   0  0  0  0  0  0  0  0  0  0  0  0
  -24.5407  -11.7314   20.8141 C   0  0  0  0  0  0  0  0  0  0  0  0
  -28.3164  -18.9391   21.0919 C   0  0  0  0  0  0  0  0  0  0  0  0
  -30.3995  -19.5177   20.6592 C   0  0  0  0  0  0  0  0  0  0  0  0
  -24.9533  -13.8864   20.9577 C   0  0  0  0  0  0  0  0  0  0  0  0
  -22.7099  -13.2206   21.8366 C   0  0  0  0  0  0  0  0  0  0  0  0
  -28.2433  -27.3424   18.9895 C   0  0  0  0  0  0  0  0  0  0  0  0
  -26.9334  -29.2868   21.2313 C   0  0  0  0  0  0  0  0  0  0  0  0
  -24.2468  -30.0483   23.1931 C   0  0  0  0  0  0  0  0  0  0  0  0
  -30.2174  -15.5545   20.9177 C   0  0  0  0  0  0  0  0  0  0  0  0
  -32.1731  -27.5043   15.7355 C   0  0  0  0  0  0  0  0  0  0  0  0
  -26.0491  -27.9512   17.9076 C   0  0  0  0  0  0  0  0  0  0  0  0
  -25.6948  -27.1466   20.7310 C   0  0  0  0  0  0  0  0  0  0  0  0
  -27.0051  -18.4005   21.5472 C   0  0  0  0  0  0  0  0  0  0  0  0
  -31.8321  -28.1640   17.0692 C   0  0  0  0  0  0  0  0  0  0  0  0
  -25.8701  -18.7779   20.5872 C   0  0  0  0  0  0  0  0  0  0  0  0
  -29.4558  -16.3706   24.3678 C   0  0  0  0  0  0  0  0  0  0  0  0
  -29.1941  -13.5442   18.2454 C   0  0  0  0  0  0  0  0  0  0  0  0
  -29.5460  -17.7849   23.8087 C   0  0  0  0  0  0  0  0  0  0  0  0
  -31.3573  -27.1202   18.0751 C   0  0  0  0  0  0  0  0  0  0  0  0
  -27.8548  -12.9711   18.7047 C   0  0  0  0  0  0  0  0  0  0  0  0
  -27.2798  -20.5765   19.5064 C   0  0  0  0  0  0  0  0  0  0  0  0
  -30.1851  -13.6008   19.4012 C   0  0  0  0  0  0  0  0  0  0  0  0
  -29.0121  -15.5584   23.1610 C   0  0  0  0  0  0  0  0  0  0  0  0
  -28.3492  -13.8414   21.0458 C   0  0  0  0  0  0  0  0  0  0  0  0
  -30.0923  -17.5703   22.3910 C   0  0  1  0  0  0  0  0  0  0  0  0
  -30.0815  -26.4236   17.5867 C   0  0  1  0  0  0  0  0  0  0  0  0
  -27.0818  -28.2955   18.9764 C   0  0  1  0  0  0  0  0  0  0  0  0
  -27.3096  -13.7557   19.9095 C   0  0  2  0  0  0  0  0  0  0  0  0
  -25.9605  -20.2595   20.2115 C   0  0  1  0  0  0  0  0  0  0  0  0
  -31.8686  -19.6223   20.6242 C   0  0  0  0  0  0  0  0  0  0  0  0
  -23.4880  -31.6704   24.9511 C   0  0  0  0  0  0  0  0  0  0  0  0
  -28.6227  -27.8226   23.3080 C   0  0  0  0  0  0  0  0  0  0  0  0
  -27.1562  -28.7985   25.0870 C   0  0  0  0  0  0  0  0  0  0  0  0
  -28.5029  -30.3010   23.6202 C   0  0  0  0  0  0  0  0  0  0  0  0
  -22.0384  -31.0396   21.4904 C   0  0  0  0  0  0  0  0  0  0  0  0
  -22.4435  -21.1455   18.9861 C   0  0  0  0  0  0  0  0  0  0  0  0
  -23.5282  -20.7816   19.9887 C   0  0  0  0  0  0  0  0  0  0  0  0
  -22.6944  -22.4629   18.2627 C   0  0  0  0  0  0  0  0  0  1  0  0
  -26.4843  -29.1175   22.6626 C   0  0  1  0  0  0  0  0  0  0  0  0
  -23.5366  -31.3627   23.4626 C   0  0  2  0  0  0  0  0  0  0  0  0
  -27.6803  -28.9943   23.6484 C   0  0  0  0  0  0  0  0  0  0  0  0
  -25.7657  -11.8725   20.3007 N   0  0  0  0  0  0  0  0  0  0  0  0
  -29.6646  -20.3345   19.8986 N   0  0  0  0  0  0  0  0  0  0  0  0
  -28.4053  -19.9654   20.1894 N   0  0  0  0  0  0  0  0  0  0  0  0
  -25.9884  -13.1939   20.4017 N   0  0  0  0  0  0  0  0  0  0  0  0
  -26.5172  -28.2991   20.3275 N   0  0  0  0  0  0  0  0  0  0  0  0
  -29.6370  -14.3366   20.5412 N   0  0  0  0  0  0  0  0  0  0  0  0
  -29.6739  -16.2076   22.0277 N   0  0  0  0  0  0  0  0  0  0  0  0
  -25.0110  -15.2237   21.1335 N   0  0  0  0  0  0  0  0  0  0  0  0
  -21.8368  -12.1465   22.0563 N   0  0  0  0  0  0  0  0  0  0  0  0
  -28.9300  -27.2759   17.7922 N   0  0  0  0  0  0  0  0  0  0  0  0
  -25.5901  -30.2352   22.9447 N   0  0  0  0  0  0  0  0  0  0  0  0
  -24.8367  -20.6040   19.3037 N   0  3  0  0  0  0  0  0  0  0  0  0
  -22.1391  -31.3115   22.9474 N   0  3  0  0  0  0  0  0  0  0  0  0
  -22.3481  -14.3800   22.1503 O   0  0  0  0  0  0  0  0  0  0  0  0
  -28.4986  -26.7150   20.0107 O   0  0  0  0  0  0  0  0  0  0  0  0
  -27.6221  -30.2634   20.9251 O   0  0  0  0  0  0  0  0  0  0  0  0
  -23.6685  -28.9639   23.2056 O   0  0  0  0  0  0  0  0  0  0  0  0
  -31.1859  -16.0250   20.3075 O   0  0  0  0  0  0  0  0  0  0  0  0
  -22.1777   -6.6710   21.0881 O   0  0  0  0  0  0  0  0  0  0  0  0
  -22.7814  -23.5038   19.2276 O   0  0  0  0  0  0  0  0  0  1  0  0
  -16.9101   -6.2122   19.5243 F   0  0  0  0  0  0  0  0  0  0  0  0
  -21.4570   -5.0039   19.0039 F   0  0  0  0  0  0  0  0  0  0  0  0
  1  2  1  0  0  0  0
  1  5  2  0  0  0  0
  2  6  2  0  0  0  0
  3  8  2  0  0  0  0
  3 15  1  0  0  0  0
  4  9  1  0  0  0  0
  4 15  2  0  0  0  0
  5 17  1  0  0  0  0
  6 19  1  0  0  0  0
  7 10  2  0  0  0  0
  7 18  1  0  0  0  0
  8 22  1  0  0  0  0
  9 22  2  0  0  0  0
 10 23  1  0  0  0  0
 11 12  2  0  0  0  0
 11 24  1  0  0  0  0
 12 25  1  0  0  0  0
 13 20  1  0  0  0  0
 13 23  2  0  0  0  0
 14 25  2  0  0  0  0
 14 26  1  0  0  0  0
 15 27  1  0  0  0  0
 16 27  1  0  0  0  0
 16 30  2  0  0  0  0
 16 31  1  0  0  0  0
 17 19  2  0  0  0  0
 17 36  1  0  0  0  0
 18 20  2  0  0  0  0
 18 37  1  0  0  0  0
 19 52  1  0  0  0  0
 20 38  1  0  0  0  0
 21 28  2  0  0  0  0
 21 29  1  0  0  0  0
 21 51  1  0  0  0  0
 22 86  1  0  0  0  0
 23 87  1  0  0  0  0
 24 26  2  0  0  0  0
 24 86  1  0  0  0  0
 25 88  1  0  0  0  0
 26 89  1  0  0  0  0
 27 68  2  0  0  0  0
 28 39  1  0  0  0  0
 28 70  1  0  0  0  0
 29 56  1  0  0  0  0
 29 69  2  0  0  0  0
 30 71  1  0  0  0  0
 30 75  1  0  0  0  0
 31 76  1  0  0  0  0
 31 81  2  0  0  0  0
 32 53  1  0  0  0  0
 32 77  1  0  0  0  0
 32 82  2  0  0  0  0
 33 65  1  0  0  0  0
 33 72  1  0  0  0  0
 33 83  2  0  0  0  0
 34 66  1  0  0  0  0
 34 78  1  0  0  0  0
 34 84  2  0  0  0  0
 35 73  1  0  0  0  0
 35 74  1  0  0  0  0
 35 85  2  0  0  0  0
 36 40  1  0  0  0  0
 37 53  1  0  0  0  0
 38 72  1  0  0  0  0
 39 41  1  0  0  0  0
 40 45  1  0  0  0  0
 41 55  1  0  0  0  0
 42 44  1  0  0  0  0
 42 49  1  0  0  0  0
 43 46  1  0  0  0  0
 43 48  1  0  0  0  0
 44 51  1  0  0  0  0
 45 52  1  0  0  0  0
 46 54  1  0  0  0  0
 47 55  1  0  0  0  0
 47 70  1  0  0  0  0
 48 73  1  0  0  0  0
 49 74  1  0  0  0  0
 50 54  1  0  0  0  0
 50 73  1  0  0  0  0
 51 74  1  0  0  0  0
 52 77  1  0  0  0  0
 53 72  1  0  0  0  0
 54 71  1  0  0  0  0
 55 79  1  0  0  0  0
 57 66  1  0  0  0  0
 58 67  1  0  0  0  0
 59 67  1  0  0  0  0
 60 67  1  0  0  0  0
 61 80  1  0  0  0  0
 62 63  1  0  0  0  0
 62 64  1  0  0  0  0
 63 79  1  0  0  0  0
 64 87  1  0  0  0  0
 65 67  1  0  0  0  0
 65 78  1  0  0  0  0
 66 80  1  0  0  0  0
 68 71  1  0  0  0  0
 69 70  1  0  0  0  0
M  CHG  2  79   1  80   1
M  ISO  4  35 100  64 101  74 100  87 101
M  END
> <Batch ID>
0025

> <Smiles>
CNC(C)C(=O)NC(C(=O)N1Cc2cc([101O:1][101CH2:1]CCNC3CCc4c(C5CCC[100N:0]5[100C:0](=O)N5CCCC(n6nc(-c7ccc(Oc8ccc(F)cc8F)cc7)c(C(N)=O)c6N)C5)c(C)nn4C3)ccc2CC1C(=O)NC1CCCc2ccccc21)C(C)(C)C

> <Shape>
0.267

> <Color>
0.177

> <Negative vol penalty>
0.000

$$$$

  -OEChem-04052316243D

 87 96  0     1  0  0  0  0  0999 V2000
  -19.9045  -24.2638   23.5505 C   0  0  0  0  0  0  0  0  0  0  0  0
  -21.0573  -24.5402   22.8225 C   0  0  0  0  0  0  0  0  0  0  0  0
  -22.2614  -16.4835   18.0596 C   0  0  0  0  0  0  0  0  0  0  0  0
  -23.7657  -18.3510   17.7654 C   0  0  0  0  0  0  0  0  0  0  0  0
  -18.9225  -25.2426   23.6972 C   0  0  0  0  0  0  0  0  0  0  0  0
  -21.2283  -25.7954   22.2397 C   0  0  0  0  0  0  0  0  0  0  0  0
  -25.8835  -27.6540   22.9604 C   0  0  0  0  0  0  0  0  0  0  0  0
  -21.2118  -17.2490   17.5517 C   0  0  0  0  0  0  0  0  0  0  0  0
  -22.7161  -19.1165   17.2575 C   0  0  0  0  0  0  0  0  0  0  0  0
  -26.9026  -27.1488   22.1542 C   0  0  0  0  0  0  0  0  0  0  0  0
  -20.0819  -20.8516   18.4746 C   0  0  0  0  0  0  0  0  0  0  0  0
  -19.9496  -22.1598   18.9400 C   0  0  0  0  0  0  0  0  0  0  0  0
  -26.7437  -29.0982   20.7422 C   0  0  0  0  0  0  0  0  0  0  0  0
  -30.7461  -21.4072   20.5472 C   0  0  0  0  0  0  0  0  0  0  0  0
  -20.2229  -22.9890   16.6872 C   0  0  0  0  0  0  0  0  0  0  0  0
  -23.5384  -17.0345   18.1665 C   0  0  0  0  0  0  0  0  0  0  0  0
  -25.1223  -15.0348   18.1727 C   0  0  0  0  0  0  0  0  0  0  0  0
  -19.0860  -26.5136   23.1241 C   0  0  0  0  0  0  0  0  0  0  0  0
  -25.2784  -28.8820   22.6568 C   0  0  0  0  0  0  0  0  0  0  0  0
  -20.2470  -26.7917   22.3777 C   0  0  0  0  0  0  0  0  0  0  0  0
  -25.7189  -29.6180   21.5476 C   0  0  0  0  0  0  0  0  0  0  0  0
  -31.3557  -20.1804   20.2850 C   0  0  0  0  0  0  0  0  0  0  0  0
  -31.9421  -20.9453   18.0695 C   0  0  0  0  0  0  0  0  0  0  0  0
  -30.7345  -22.4032   19.5706 C   0  0  0  0  0  0  0  0  0  0  0  0
  -21.4391  -18.5655   17.1507 C   0  0  0  0  0  0  0  0  0  0  0  0
  -27.3309  -27.8696   21.0432 C   0  0  0  0  0  0  0  0  0  0  0  0
  -20.2848  -20.6120   17.1154 C   0  0  0  0  0  0  0  0  0  0  0  0
  -20.0201  -23.2285   18.0463 C   0  0  0  0  0  0  0  0  0  0  0  0
  -20.3553  -21.6807   16.2218 C   0  0  0  0  0  0  0  0  0  0  0  0
  -31.9537  -19.9494   19.0461 C   0  0  0  0  0  0  0  0  0  0  0  0
  -31.3325  -22.1722   18.3318 C   0  0  0  0  0  0  0  0  0  0  0  0
  -24.6229  -16.2444   18.6916 C   0  0  0  0  0  0  0  0  0  0  0  0
  -26.1426  -14.6907   19.0254 C   0  0  0  0  0  0  0  0  0  0  0  0
  -24.7017  -14.2890   17.0227 C   0  0  0  0  0  0  0  0  0  0  0  0
  -22.3322  -29.8044   21.8997 C   0  0  0  0  0  0  0  0  0  0  0  0
  -23.6274  -32.7714   22.1046 C   0  0  0  0  0  0  0  0  0  0  0  0
  -25.6188  -35.5418   22.1819 C   0  0  0  0  0  0  0  0  0  0  0  0
  -29.6712  -17.8834   22.6595 C   0  0  0  0  0  0  0  0  0  0  0  0
  -17.9757  -27.5239   23.2699 C   0  0  0  0  0  0  0  0  0  0  0  0
  -24.1986  -29.4258   23.5517 C   0  0  0  0  0  0  0  0  0  0  0  0
  -25.1158  -30.9510   21.1901 C   0  0  0  0  0  0  0  0  0  0  0  0
  -18.4031  -28.9510   22.9367 C   0  0  0  0  0  0  0  0  0  0  0  0
  -27.5462  -15.1768   23.5734 C   0  0  0  0  0  0  0  0  0  0  0  0
  -19.1966  -28.9803   21.6342 C   0  0  0  0  0  0  0  0  0  0  0  0
  -26.6011  -15.0343   22.3791 C   0  0  0  0  0  0  0  0  0  0  0  0
  -28.0819  -25.0141   19.9514 C   0  0  0  0  0  0  0  0  0  0  0  0
  -30.3414  -26.0570   20.1837 C   0  0  0  0  0  0  0  0  0  0  0  0
  -27.8904  -16.6387   23.8495 C   0  0  0  0  0  0  0  0  0  0  0  0
  -28.6875  -23.6377   20.2125 C   0  0  0  0  0  0  0  0  0  0  0  0
  -30.9485  -24.6831   20.4499 C   0  0  0  0  0  0  0  0  0  0  0  0
  -27.4748  -17.2375   21.4953 C   0  0  0  0  0  0  0  0  0  0  0  0
  -20.4802  -28.1495   21.7514 C   0  0  1  0  0  0  0  0  0  0  0  0
  -23.3007  -30.4432   22.8545 C   0  0  1  0  0  0  0  0  0  0  0  0
  -27.1433  -15.7772   21.1432 C   0  0  2  0  0  0  0  0  0  0  0  0
  -28.8829  -26.1227   20.6221 C   0  0  0  0  0  0  0  0  0  1  0  0
  -32.5933  -20.6561   16.7547 C   0  0  0  0  0  0  0  0  0  0  0  0
  -25.5451  -38.0302   21.8658 C   0  0  0  0  0  0  0  0  0  0  0  0
  -23.4949  -32.3809   19.0814 C   0  0  0  0  0  0  0  0  0  0  0  0
  -24.3656  -34.7127   18.8121 C   0  0  0  0  0  0  0  0  0  0  0  0
  -22.1755  -34.3237   19.9412 C   0  0  0  0  0  0  0  0  0  0  0  0
  -26.5018  -36.0379   24.9628 C   0  0  0  0  0  0  0  0  0  0  0  0
  -31.3658  -19.1175   21.3312 C   0  0  0  0  0  0  0  0  0  0  0  0
  -24.3146  -33.7069   21.1395 C   0  0  1  0  0  0  0  0  0  0  0  0
  -25.4470  -36.8871   22.8640 C   0  0  2  0  0  0  0  0  0  0  0  0
  -23.6023  -33.7618   19.7585 C   0  0  0  0  0  0  0  0  0  0  0  0
  -25.2723  -16.6419   19.7890 N   0  0  0  0  0  0  0  0  0  0  0  0
  -26.1902  -15.6765   19.9667 N   0  0  0  0  0  0  0  0  0  0  0  0
  -30.1135  -23.6232   19.8672 N   0  0  0  0  0  0  0  0  0  0  0  0
  -24.0589  -31.4374   22.0922 N   0  0  0  0  0  0  0  0  0  0  0  0
  -28.4005  -17.2852   22.6380 N   0  0  0  0  0  0  0  0  0  0  0  0
  -26.9946  -13.6440   19.0544 N   0  0  0  0  0  0  0  0  0  0  0  0
  -25.3020  -14.5701   15.7878 N   0  0  0  0  0  0  0  0  0  0  0  0
  -21.4896  -28.8802   22.4873 N   0  0  0  0  0  0  0  0  0  0  0  0
  -24.4065  -34.9961   21.8161 N   0  0  0  0  0  0  0  0  0  0  0  0
  -30.0810  -18.4681   21.4675 N   0  0  0  0  0  0  0  0  0  0  0  0
  -26.4979  -37.0790   23.9030 N   0  3  0  0  0  0  0  0  0  0  0  0
  -23.8079  -13.4110   17.0852 O   0  0  0  0  0  0  0  0  0  0  0  0
  -22.3472  -30.1273   20.7176 O   0  0  0  0  0  0  0  0  0  0  0  0
  -22.7454  -33.2096   22.8473 O   0  0  0  0  0  0  0  0  0  0  0  0
  -26.7186  -35.0282   21.9894 O   0  0  0  0  0  0  0  0  0  0  0  0
  -30.3895  -17.8909   23.6649 O   0  0  0  0  0  0  0  0  0  0  0  0
  -20.4152  -19.3126   16.6548 O   0  0  0  0  0  0  0  0  0  0  0  0
  -28.3250  -27.3785   20.2543 O   0  0  0  0  0  0  0  0  0  1  0  0
  -19.8914  -24.4847   18.4932 F   0  0  0  0  0  0  0  0  0  0  0  0
  -20.5488  -21.4568   14.9148 F   0  0  0  0  0  0  0  0  0  0  0  0
  -32.5391  -18.7686   18.7958 F   0  0  0  0  0  0  0  0  0  0  0  0
  -31.3208  -23.4061   17.1141 Cl  0  0  0  0  0  0  0  0  0  0  0  0
  1  2  1  0  0  0  0
  1  5  2  0  0  0  0
  2  6  2  0  0  0  0
  3  8  2  0  0  0  0
  3 16  1  0  0  0  0
  4  9  1  0  0  0  0
  4 16  2  0  0  0  0
  5 18  1  0  0  0  0
  6 20  1  0  0  0  0
  7 10  2  0  0  0  0
  7 19  1  0  0  0  0
  8 25  1  0  0  0  0
  9 25  2  0  0  0  0
 10 26  1  0  0  0  0
 11 12  2  0  0  0  0
 11 27  1  0  0  0  0
 12 28  1  0  0  0  0
 13 21  1  0  0  0  0
 13 26  2  0  0  0  0
 14 22  2  0  0  0  0
 14 24  1  0  0  0  0
 15 28  2  0  0  0  0
 15 29  1  0  0  0  0
 16 32  1  0  0  0  0
 17 32  1  0  0  0  0
 17 33  2  0  0  0  0
 17 34  1  0  0  0  0
 18 20  2  0  0  0  0
 18 39  1  0  0  0  0
 19 21  2  0  0  0  0
 19 40  1  0  0  0  0
 20 52  1  0  0  0  0
 21 41  1  0  0  0  0
 22 30  1  0  0  0  0
 22 62  1  0  0  0  0
 23 30  2  0  0  0  0
 23 31  1  0  0  0  0
 23 56  1  0  0  0  0
 24 31  2  0  0  0  0
 24 68  1  0  0  0  0
 25 82  1  0  0  0  0
 26 83  1  0  0  0  0
 27 29  2  0  0  0  0
 27 82  1  0  0  0  0
 28 84  1  0  0  0  0
 29 85  1  0  0  0  0
 30 86  1  0  0  0  0
 31 87  1  0  0  0  0
 32 66  2  0  0  0  0
 33 67  1  0  0  0  0
 33 71  1  0  0  0  0
 34 72  1  0  0  0  0
 34 77  2  0  0  0  0
 35 53  1  0  0  0  0
 35 73  1  0  0  0  0
 35 78  2  0  0  0  0
 36 63  1  0  0  0  0
 36 69  1  0  0  0  0
 36 79  2  0  0  0  0
 37 64  1  0  0  0  0
 37 74  1  0  0  0  0
 37 80  2  0  0  0  0
 38 70  1  0  0  0  0
 38 75  1  0  0  0  0
 38 81  2  0  0  0  0
 39 42  1  0  0  0  0
 40 53  1  0  0  0  0
 41 69  1  0  0  0  0
 42 44  1  0  0  0  0
 43 45  1  0  0  0  0
 43 48  1  0  0  0  0
 44 52  1  0  0  0  0
 45 54  1  0  0  0  0
 46 49  1  0  0  0  0
 46 55  1  0  0  0  0
 47 50  1  0  0  0  0
 47 55  1  0  0  0  0
 48 70  1  0  0  0  0
 49 68  1  0  0  0  0
 50 68  1  0  0  0  0
 51 54  1  0  0  0  0
 51 70  1  0  0  0  0
 52 73  1  0  0  0  0
 53 69  1  0  0  0  0
 54 67  1  0  0  0  0
 55 83  1  0  0  0  0
 57 64  1  0  0  0  0
 58 65  1  0  0  0  0
 59 65  1  0  0  0  0
 60 65  1  0  0  0  0
 61 76  1  0  0  0  0
 62 75  1  0  0  0  0
 63 65  1  0  0  0  0
 63 74  1  0  0  0  0
 64 76  1  0  0  0  0
 66 67  1  0  0  0  0
M  CHG  1  76   1
M  ISO  4  38 100  55 101  75 100  83 101
M  END
> <Batch ID>
0025

> <Smiles>
CNC(C)C(=O)NC(C(=O)N1Cc2cc([101O:1][101CH:1]3CCN(c4cc(C[100NH:0][100C:0](=O)N5CCCC(n6nc(-c7ccc(Oc8ccc(F)cc8F)cc7)c(C(N)=O)c6N)C5)c(F)c(C)c4Cl)CC3)ccc2CC1C(=O)NC1CCCc2ccccc21)C(C)(C)C

> <Shape>
0.208

> <Color>
0.109

> <Negative vol penalty>
0.000

$$$$

  -OEChem-04052316243D

 87 95  0     1  0  0  0  0  0999 V2000
  -22.9486  -28.9507   13.2768 C   0  0  0  0  0  0  0  0  0  0  0  0
  -23.9891  -28.6209   14.1393 C   0  0  0  0  0  0  0  0  0  0  0  0
  -23.5078   -9.9050   20.7564 C   0  0  0  0  0  0  0  0  0  0  0  0
  -24.1916  -10.5118   22.9928 C   0  0  0  0  0  0  0  0  0  0  0  0
  -22.2125  -30.1159   13.4879 C   0  0  0  0  0  0  0  0  0  0  0  0
  -24.2949  -29.4566   15.2128 C   0  0  0  0  0  0  0  0  0  0  0  0
  -25.0661  -26.8937   19.5119 C   0  0  0  0  0  0  0  0  0  0  0  0
  -22.9055   -8.7495   21.2540 C   0  0  0  0  0  0  0  0  0  0  0  0
  -23.5892   -9.3563   23.4904 C   0  0  0  0  0  0  0  0  0  0  0  0
  -26.2988  -26.2603   19.6632 C   0  0  0  0  0  0  0  0  0  0  0  0
  -23.8760   -5.6765   22.2735 C   0  0  0  0  0  0  0  0  0  0  0  0
  -24.0982   -4.4833   21.5863 C   0  0  0  0  0  0  0  0  0  0  0  0
  -27.0589  -28.0836   21.0478 C   0  0  0  0  0  0  0  0  0  0  0  0
  -32.9021  -16.6088   22.3195 C   0  0  0  0  0  0  0  0  0  0  0  0
  -21.7232   -4.2622   21.2020 C   0  0  0  0  0  0  0  0  0  0  0  0
  -24.1509  -10.7861   21.6258 C   0  0  0  0  0  0  0  0  0  0  0  0
  -24.1804  -13.2459   20.9503 C   0  0  0  0  0  0  0  0  0  0  0  0
  -22.5032  -30.9613   14.5702 C   0  0  0  0  0  0  0  0  0  0  0  0
  -24.8238  -28.1341   20.1195 C   0  0  0  0  0  0  0  0  0  0  0  0
  -23.5629  -30.6349   15.4378 C   0  0  0  0  0  0  0  0  0  0  0  0
  -25.8213  -28.7295   20.9048 C   0  0  0  0  0  0  0  0  0  0  0  0
  -31.9140  -15.9017   23.0042 C   0  0  0  0  0  0  0  0  0  0  0  0
  -31.9324  -18.6906   23.0697 C   0  0  0  0  0  0  0  0  0  0  0  0
  -22.9462   -8.4752   22.6210 C   0  0  0  0  0  0  0  0  0  0  0  0
  -27.2965  -26.8566   20.4288 C   0  0  0  0  0  0  0  0  0  0  0  0
  -22.5773   -6.1626   22.4251 C   0  0  0  0  0  0  0  0  0  0  0  0
  -23.0219   -3.7761   21.0505 C   0  0  0  0  0  0  0  0  0  0  0  0
  -21.5010   -5.4555   21.8893 C   0  0  0  0  0  0  0  0  0  0  0  0
  -32.9114  -18.0033   22.3522 C   0  0  0  0  0  0  0  0  0  0  0  0
  -30.9349  -16.5889   23.7218 C   0  0  0  0  0  0  0  0  0  0  0  0
  -30.9441  -17.9834   23.7545 C   0  0  0  0  0  0  0  0  0  0  0  0
  -24.7738  -11.9796   21.1122 C   0  0  0  0  0  0  0  0  0  0  0  0
  -25.1816  -14.0306   20.4322 C   0  0  0  0  0  0  0  0  0  0  0  0
  -22.8437  -13.6746   21.2422 C   0  0  0  0  0  0  0  0  0  0  0  0
  -24.1342  -31.0522   19.0644 C   0  0  0  0  0  0  0  0  0  0  0  0
  -23.7961  -31.6926   22.2264 C   0  0  0  0  0  0  0  0  0  0  0  0
  -24.5795  -30.8797   25.4470 C   0  0  0  0  0  0  0  0  0  0  0  0
  -31.1553  -13.7156   20.6901 C   0  0  0  0  0  0  0  0  0  0  0  0
  -21.7103  -32.2343   14.7303 C   0  0  0  0  0  0  0  0  0  0  0  0
  -23.4795  -28.7917   19.9685 C   0  0  0  0  0  0  0  0  0  0  0  0
  -25.6045  -30.0507   21.5946 C   0  0  0  0  0  0  0  0  0  0  0  0
  -21.8559  -32.8733   16.1090 C   0  0  0  0  0  0  0  0  0  0  0  0
  -29.1389  -13.7684   17.7561 C   0  0  0  0  0  0  0  0  0  0  0  0
  -23.3228  -32.9165   16.5251 C   0  0  0  0  0  0  0  0  0  0  0  0
  -27.7380  -13.4302   18.2689 C   0  0  0  0  0  0  0  0  0  0  0  0
  -30.2183  -12.9971   18.5124 C   0  0  0  0  0  0  0  0  0  0  0  0
  -28.7647  -12.7979   20.4926 C   0  0  0  0  0  0  0  0  0  0  0  0
  -23.9090  -31.5032   16.6279 C   0  0  1  0  0  0  0  0  0  0  0  0
  -23.5204  -30.2975   20.2096 C   0  0  1  0  0  0  0  0  0  0  0  0
  -27.6461  -13.5933   19.7981 C   0  0  2  0  0  0  0  0  0  0  0  0
  -24.1831  -31.6096   27.8150 C   0  0  0  0  0  0  0  0  0  0  0  0
  -25.7566  -33.9987   21.8411 C   0  0  0  0  0  0  0  0  0  0  0  0
  -26.0495  -34.0730   24.3264 C   0  0  0  0  0  0  0  0  0  0  0  0
  -23.8103  -34.5205   23.3223 C   0  0  0  0  0  0  0  0  0  0  0  0
  -23.2982  -28.3058   26.1485 C   0  0  0  0  0  0  0  0  0  0  0  0
  -31.9472  -14.4081   22.9379 C   0  0  0  0  0  0  0  0  0  0  0  0
  -31.9509  -20.1905   23.0986 C   0  0  0  0  0  0  0  0  0  0  0  0
  -29.7235  -22.7791   21.4019 C   0  0  0  0  0  0  0  0  0  0  0  0
  -29.6628  -24.3047   21.3894 C   0  0  0  0  0  0  0  0  0  0  0  0
  -30.8526  -22.2844   22.2936 C   0  0  0  0  0  0  0  0  0  0  0  0
  -28.5107  -24.8145   20.5352 C   0  0  0  0  0  0  0  0  0  1  0  0
  -24.7174  -32.1606   23.3269 C   0  0  1  0  0  0  0  0  0  0  0  0
  -23.7135  -30.7102   26.6822 C   0  0  2  0  0  0  0  0  0  0  0  0
  -25.0885  -33.6642   23.1897 C   0  0  0  0  0  0  0  0  0  0  0  0
  -26.0528  -11.9566   20.7280 N   0  0  0  0  0  0  0  0  0  0  0  0
  -26.2713  -13.2181   20.3194 N   0  0  0  0  0  0  0  0  0  0  0  0
  -24.2755  -30.6572   21.4116 N   0  0  0  0  0  0  0  0  0  0  0  0
  -30.0761  -13.1953   19.9569 N   0  0  0  0  0  0  0  0  0  0  0  0
  -25.2274  -15.3293   20.0666 N   0  0  0  0  0  0  0  0  0  0  0  0
  -21.9427  -12.7401   21.7704 N   0  0  0  0  0  0  0  0  0  0  0  0
  -23.4859  -30.8688   17.8580 N   0  0  0  0  0  0  0  0  0  0  0  0
  -24.0586  -31.8199   24.5832 N   0  0  0  0  0  0  0  0  0  0  0  0
  -30.9345  -13.8779   22.0523 N   0  0  0  0  0  0  0  0  0  0  0  0
  -23.7564  -29.2976   27.1551 N   0  3  0  0  0  0  0  0  0  0  0  0
  -30.9013  -20.8035   22.2390 N   0  3  0  0  0  0  0  0  0  0  0  0
  -22.4550  -14.8474   21.0252 O   0  0  0  0  0  0  0  0  0  0  0  0
  -25.1219  -31.7504   19.2612 O   0  0  0  0  0  0  0  0  0  0  0  0
  -22.6888  -32.2212   22.0990 O   0  0  0  0  0  0  0  0  0  0  0  0
  -25.6163  -30.2446   25.2681 O   0  0  0  0  0  0  0  0  0  0  0  0
  -32.2338  -14.0185   20.1684 O   0  0  0  0  0  0  0  0  0  0  0  0
  -22.3584   -7.3479   23.1070 O   0  0  0  0  0  0  0  0  0  0  0  0
  -28.5008  -26.2408   20.5776 O   0  0  0  0  0  0  0  0  0  1  0  0
  -23.2356   -2.6311   20.3892 F   0  0  0  0  0  0  0  0  0  0  0  0
  -20.2512   -5.9181   22.0307 F   0  0  0  0  0  0  0  0  0  0  0  0
  -34.1543  -18.8378   21.4912 Cl  0  0  0  0  0  0  0  0  0  0  0  0
  -29.7188  -15.6779   24.5617 Cl  0  0  0  0  0  0  0  0  0  0  0  0
  -29.7360  -18.8630   24.6403 Cl  0  0  0  0  0  0  0  0  0  0  0  0
  1  2  1  0  0  0  0
  1  5  2  0  0  0  0
  2  6  2  0  0  0  0
  3  8  2  0  0  0  0
  3 16  1  0  0  0  0
  4  9  1  0  0  0  0
  4 16  2  0  0  0  0
  5 18  1  0  0  0  0
  6 20  1  0  0  0  0
  7 10  2  0  0  0  0
  7 19  1  0  0  0  0
  8 24  1  0  0  0  0
  9 24  2  0  0  0  0
 10 25  1  0  0  0  0
 11 12  2  0  0  0  0
 11 26  1  0  0  0  0
 12 27  1  0  0  0  0
 13 21  1  0  0  0  0
 13 25  2  0  0  0  0
 14 22  1  0  0  0  0
 14 29  2  0  0  0  0
 15 27  2  0  0  0  0
 15 28  1  0  0  0  0
 16 32  1  0  0  0  0
 17 32  1  0  0  0  0
 17 33  2  0  0  0  0
 17 34  1  0  0  0  0
 18 20  2  0  0  0  0
 18 39  1  0  0  0  0
 19 21  2  0  0  0  0
 19 40  1  0  0  0  0
 20 48  1  0  0  0  0
 21 41  1  0  0  0  0
 22 30  2  0  0  0  0
 22 56  1  0  0  0  0
 23 29  1  0  0  0  0
 23 31  2  0  0  0  0
 23 57  1  0  0  0  0
 24 81  1  0  0  0  0
 25 82  1  0  0  0  0
 26 28  2  0  0  0  0
 26 81  1  0  0  0  0
 27 83  1  0  0  0  0
 28 84  1  0  0  0  0
 29 85  1  0  0  0  0
 30 31  1  0  0  0  0
 30 86  1  0  0  0  0
 31 87  1  0  0  0  0
 32 65  2  0  0  0  0
 33 66  1  0  0  0  0
 33 69  1  0  0  0  0
 34 70  1  0  0  0  0
 34 76  2  0  0  0  0
 35 49  1  0  0  0  0
 35 71  1  0  0  0  0
 35 77  2  0  0  0  0
 36 62  1  0  0  0  0
 36 67  1  0  0  0  0
 36 78  2  0  0  0  0
 37 63  1  0  0  0  0
 37 72  1  0  0  0  0
 37 79  2  0  0  0  0
 38 68  1  0  0  0  0
 38 73  1  0  0  0  0
 38 80  2  0  0  0  0
 39 42  1  0  0  0  0
 40 49  1  0  0  0  0
 41 67  1  0  0  0  0
 42 44  1  0  0  0  0
 43 45  1  0  0  0  0
 43 46  1  0  0  0  0
 44 48  1  0  0  0  0
 45 50  1  0  0  0  0
 46 68  1  0  0  0  0
 47 50  1  0  0  0  0
 47 68  1  0  0  0  0
 48 71  1  0  0  0  0
 49 67  1  0  0  0  0
 50 66  1  0  0  0  0
 51 63  1  0  0  0  0
 52 64  1  0  0  0  0
 53 64  1  0  0  0  0
 54 64  1  0  0  0  0
 55 74  1  0  0  0  0
 56 73  1  0  0  0  0
 57 75  1  0  0  0  0
 58 59  1  0  0  0  0
 58 60  1  0  0  0  0
 59 61  1  0  0  0  0
 60 75  1  0  0  0  0
 61 82  1  0  0  0  0
 62 64  1  0  0  0  0
 62 72  1  0  0  0  0
 63 74  1  0  0  0  0
 65 66  1  0  0  0  0
M  CHG  2  74   1  75   1
M  ISO  4  38 100  61 101  73 100  82 101
M  END
> <Batch ID>
0025

> <Smiles>
CNC(C)C(=O)NC(C(=O)N1Cc2cc([101O:1][101CH2:1]CCCNCc3c(Cl)cc(C[100NH:0][100C:0](=O)N4CCCC(n5nc(-c6ccc(Oc7ccc(F)cc7F)cc6)c(C(N)=O)c5N)C4)c(Cl)c3Cl)ccc2CC1C(=O)NC1CCCc2ccccc21)C(C)(C)C

> <Shape>
0.290

> <Color>
0.178

> <Negative vol penalty>
0.000

$$$$

  -OEChem-04052316243D

 84 92  0     1  0  0  0  0  0999 V2000
  -26.9558  -37.7073   24.0451 C   0  0  0  0  0  0  0  0  0  0  0  0
  -27.5682  -36.8740   23.1145 C   0  0  0  0  0  0  0  0  0  0  0  0
  -23.3556   -9.9480   21.9099 C   0  0  0  0  0  0  0  0  0  0  0  0
  -23.9357  -11.3244   23.8089 C   0  0  0  0  0  0  0  0  0  0  0  0
  -26.2315  -37.1569   25.1016 C   0  0  0  0  0  0  0  0  0  0  0  0
  -27.4575  -35.4897   23.2405 C   0  0  0  0  0  0  0  0  0  0  0  0
  -27.0747  -29.5356   19.2760 C   0  0  0  0  0  0  0  0  0  0  0  0
  -22.6938   -9.0587   22.7566 C   0  0  0  0  0  0  0  0  0  0  0  0
  -23.2738  -10.4352   24.6556 C   0  0  0  0  0  0  0  0  0  0  0  0
  -27.6822  -28.2875   19.1456 C   0  0  0  0  0  0  0  0  0  0  0  0
  -23.5174   -6.5631   24.8821 C   0  0  0  0  0  0  0  0  0  0  0  0
  -23.7411   -5.1996   24.6914 C   0  0  0  0  0  0  0  0  0  0  0  0
  -26.3394  -27.4505   20.9665 C   0  0  0  0  0  0  0  0  0  0  0  0
  -30.0242  -22.2152   21.1169 C   0  0  0  0  0  0  0  0  0  0  0  0
  -21.3847   -4.8718   24.2705 C   0  0  0  0  0  0  0  0  0  0  0  0
  -23.9766  -11.0807   22.4361 C   0  0  0  0  0  0  0  0  0  0  0  0
  -24.1146  -13.1236   20.9144 C   0  0  0  0  0  0  0  0  0  0  0  0
  -26.1038  -35.7653   25.2353 C   0  0  0  0  0  0  0  0  0  0  0  0
  -26.1012  -29.7539   20.2613 C   0  0  0  0  0  0  0  0  0  0  0  0
  -26.7319  -34.9202   24.3007 C   0  0  0  0  0  0  0  0  0  0  0  0
  -25.7192  -28.7015   21.1056 C   0  0  0  0  0  0  0  0  0  0  0  0
  -29.7363  -21.4339   19.9979 C   0  0  0  0  0  0  0  0  0  0  0  0
  -28.2690  -23.7542   20.4940 C   0  0  0  0  0  0  0  0  0  0  0  0
  -22.6529   -9.3023   24.1294 C   0  0  0  0  0  0  0  0  0  0  0  0
  -27.3166  -27.2455   19.9928 C   0  0  0  0  0  0  0  0  0  0  0  0
  -22.2273   -7.0809   24.7671 C   0  0  0  0  0  0  0  0  0  0  0  0
  -22.6748   -4.3539   24.3856 C   0  0  0  0  0  0  0  0  0  0  0  0
  -21.1610   -6.2353   24.4613 C   0  0  0  0  0  0  0  0  0  0  0  0
  -29.2905  -23.3754   21.3650 C   0  0  0  0  0  0  0  0  0  0  0  0
  -28.7148  -21.8128   19.1268 C   0  0  0  0  0  0  0  0  0  0  0  0
  -27.9812  -22.9730   19.3749 C   0  0  0  0  0  0  0  0  0  0  0  0
  -24.6610  -11.9994   21.5621 C   0  0  0  0  0  0  0  0  0  0  0  0
  -25.1648  -13.6570   20.2080 C   0  0  0  0  0  0  0  0  0  0  0  0
  -22.7773  -13.6396   20.9484 C   0  0  0  0  0  0  0  0  0  0  0  0
  -25.8596  -31.6619   22.7921 C   0  0  0  0  0  0  0  0  0  0  0  0
  -30.5330  -15.2141   19.9902 C   0  0  0  0  0  0  0  0  0  0  0  0
  -22.8500  -30.4590   22.9241 C   0  0  0  0  0  0  0  0  0  0  0  0
  -20.7072  -27.9213   22.1395 C   0  0  0  0  0  0  0  0  0  0  0  0
  -25.3503  -35.2160   26.4207 C   0  0  0  0  0  0  0  0  0  0  0  0
  -25.4362  -31.0985   20.3715 C   0  0  0  0  0  0  0  0  0  0  0  0
  -24.6648  -28.8786   22.1663 C   0  0  0  0  0  0  0  0  0  0  0  0
  -24.9674  -33.7459   26.2710 C   0  0  0  0  0  0  0  0  0  0  0  0
  -29.7567  -11.8026   19.2162 C   0  0  0  0  0  0  0  0  0  0  0  0
  -26.1574  -32.9325   25.7719 C   0  0  0  0  0  0  0  0  0  0  0  0
  -28.3281  -11.6337   19.7316 C   0  0  0  0  0  0  0  0  0  0  0  0
  -30.5632  -12.7443   20.1049 C   0  0  0  0  0  0  0  0  0  0  0  0
  -28.5044  -13.9190   20.8140 C   0  0  0  0  0  0  0  0  0  0  0  0
  -26.6140  -33.4141   24.3895 C   0  0  1  0  0  0  0  0  0  0  0  0
  -24.8259  -31.3525   21.7465 C   0  0  1  0  0  0  0  0  0  0  0  0
  -27.6460  -12.9993   19.9275 C   0  0  2  0  0  0  0  0  0  0  0  0
  -18.3180  -27.2046   22.4142 C   0  0  0  0  0  0  0  0  0  0  0  0
  -23.4113  -29.7095   25.8281 C   0  0  0  0  0  0  0  0  0  0  0  0
  -21.4191  -28.1952   25.7495 C   0  0  0  0  0  0  0  0  0  0  0  0
  -21.1312  -30.6504   25.4156 C   0  0  0  0  0  0  0  0  0  0  0  0
  -20.2607  -27.8837   19.2141 C   0  0  0  0  0  0  0  0  0  0  0  0
  -30.5515  -20.2001   19.7758 C   0  0  0  0  0  0  0  0  0  0  0  0
  -27.4858  -25.0040   20.7695 C   0  0  0  0  0  0  0  0  0  1  0  0
  -29.7542  -16.4888   20.1967 C   0  0  0  0  0  0  0  0  0  0  0  0
  -30.5916  -17.7034   19.8393 C   0  0  0  0  0  0  0  0  0  0  0  0
  -22.2027  -29.2685   23.5896 C   0  0  1  0  0  0  0  0  0  0  0  0
  -19.3183  -27.9289   21.5268 C   0  0  2  0  0  0  0  0  0  0  0  0
  -22.0623  -29.4528   25.1271 C   0  0  0  0  0  0  0  0  0  0  0  0
  -25.9575  -11.8277   21.2910 N   0  0  0  0  0  0  0  0  0  0  0  0
  -26.2346  -12.8511   20.4652 N   0  0  0  0  0  0  0  0  0  0  0  0
  -24.0482  -30.2135   22.2388 N   0  0  0  0  0  0  0  0  0  0  0  0
  -29.8714  -14.0218   20.2847 N   0  0  0  0  0  0  0  0  0  0  0  0
  -25.2682  -14.7320   19.3981 N   0  0  0  0  0  0  0  0  0  0  0  0
  -21.8221  -12.9695   21.7249 N   0  0  0  0  0  0  0  0  0  0  0  0
  -25.7266  -32.9140   23.3615 N   0  0  0  0  0  0  0  0  0  0  0  0
  -20.9379  -29.0508   22.8960 N   0  0  0  0  0  0  0  0  0  0  0  0
  -19.3359  -27.2599   20.1952 N   0  3  0  0  0  0  0  0  0  0  0  0
  -29.8214  -18.9469   20.1059 N   0  3  0  0  0  0  0  0  0  0  0  0
  -22.4355  -14.6550   20.2960 O   0  0  0  0  0  0  0  0  0  0  0  0
  -26.7137  -30.8261   23.0633 O   0  0  0  0  0  0  0  0  0  0  0  0
  -31.6936  -15.2781   19.5765 O   0  0  0  0  0  0  0  0  0  0  0  0
  -22.3085  -31.5645   23.0033 O   0  0  0  0  0  0  0  0  0  0  0  0
  -21.5061  -27.0033   21.9675 O   0  0  0  0  0  0  0  0  0  0  0  0
  -22.0069   -8.4350   24.9559 O   0  0  0  0  0  0  0  0  0  0  0  0
  -27.9085  -26.0265   19.8681 O   0  0  0  0  0  0  0  0  0  1  0  0
  -22.8900   -3.0448   24.2010 F   0  0  0  0  0  0  0  0  0  0  0  0
  -19.9196   -6.7272   24.3483 F   0  0  0  0  0  0  0  0  0  0  0  0
  -29.6801  -24.3115   22.7630 Cl  0  0  0  0  0  0  0  0  0  0  0  0
  -28.3836  -20.8182   17.7427 Cl  0  0  0  0  0  0  0  0  0  0  0  0
  -26.7044  -23.4669   18.3054 Cl  0  0  0  0  0  0  0  0  0  0  0  0
  1  2  1  0  0  0  0
  1  5  2  0  0  0  0
  2  6  2  0  0  0  0
  3  8  2  0  0  0  0
  3 16  1  0  0  0  0
  4  9  1  0  0  0  0
  4 16  2  0  0  0  0
  5 18  1  0  0  0  0
  6 20  1  0  0  0  0
  7 10  2  0  0  0  0
  7 19  1  0  0  0  0
  8 24  1  0  0  0  0
  9 24  2  0  0  0  0
 10 25  1  0  0  0  0
 11 12  2  0  0  0  0
 11 26  1  0  0  0  0
 12 27  1  0  0  0  0
 13 21  1  0  0  0  0
 13 25  2  0  0  0  0
 14 22  1  0  0  0  0
 14 29  2  0  0  0  0
 15 27  2  0  0  0  0
 15 28  1  0  0  0  0
 16 32  1  0  0  0  0
 17 32  1  0  0  0  0
 17 33  2  0  0  0  0
 17 34  1  0  0  0  0
 18 20  2  0  0  0  0
 18 39  1  0  0  0  0
 19 21  2  0  0  0  0
 19 40  1  0  0  0  0
 20 48  1  0  0  0  0
 21 41  1  0  0  0  0
 22 30  2  0  0  0  0
 22 56  1  0  0  0  0
 23 29  1  0  0  0  0
 23 31  2  0  0  0  0
 23 57  1  0  0  0  0
 24 78  1  0  0  0  0
 25 79  1  0  0  0  0
 26 28  2  0  0  0  0
 26 78  1  0  0  0  0
 27 80  1  0  0  0  0
 28 81  1  0  0  0  0
 29 82  1  0  0  0  0
 30 31  1  0  0  0  0
 30 83  1  0  0  0  0
 31 84  1  0  0  0  0
 32 63  2  0  0  0  0
 33 64  1  0  0  0  0
 33 67  1  0  0  0  0
 34 68  1  0  0  0  0
 34 73  2  0  0  0  0
 35 49  1  0  0  0  0
 35 69  1  0  0  0  0
 35 74  2  0  0  0  0
 36 58  1  0  0  0  0
 36 66  1  0  0  0  0
 36 75  2  0  0  0  0
 37 60  1  0  0  0  0
 37 65  1  0  0  0  0
 37 76  2  0  0  0  0
 38 61  1  0  0  0  0
 38 70  1  0  0  0  0
 38 77  2  0  0  0  0
 39 42  1  0  0  0  0
 40 49  1  0  0  0  0
 41 65  1  0  0  0  0
 42 44  1  0  0  0  0
 43 45  1  0  0  0  0
 43 46  1  0  0  0  0
 44 48  1  0  0  0  0
 45 50  1  0  0  0  0
 46 66  1  0  0  0  0
 47 50  1  0  0  0  0
 47 66  1  0  0  0  0
 48 69  1  0  0  0  0
 49 65  1  0  0  0  0
 50 64  1  0  0  0  0
 51 61  1  0  0  0  0
 52 62  1  0  0  0  0
 53 62  1  0  0  0  0
 54 62  1  0  0  0  0
 55 71  1  0  0  0  0
 56 72  1  0  0  0  0
 57 79  1  0  0  0  0
 58 59  1  0  0  0  0
 59 72  1  0  0  0  0
 60 62  1  0  0  0  0
 60 70  1  0  0  0  0
 61 71  1  0  0  0  0
 63 64  1  0  0  0  0
M  CHG  2  71   1  72   1
M  ISO  4  36 100  57 101  58 100  79 101
M  END
> <Batch ID>
0025

> <Smiles>
CNC(C)C(=O)NC(C(=O)N1Cc2cc([101O:1][101CH2:1]c3c(Cl)cc(CNC[100CH2:0][100C:0](=O)N4CCCC(n5nc(-c6ccc(Oc7ccc(F)cc7F)cc6)c(C(N)=O)c5N)C4)c(Cl)c3Cl)ccc2CC1C(=O)NC1CCCc2ccccc21)C(C)(C)C

> <Shape>
0.371

> <Color>
0.171

> <Negative vol penalty>
0.000

$$$$

  -OEChem-04052316243D

 85 93  0     1  0  0  0  0  0999 V2000
  -16.7629  -30.7770   23.6581 C   0  0  0  0  0  0  0  0  0  0  0  0
  -17.9591  -31.2449   24.1925 C   0  0  0  0  0  0  0  0  0  0  0  0
  -25.2068  -15.0034   21.1095 C   0  0  0  0  0  0  0  0  0  0  0  0
  -25.3850  -14.1904   23.3775 C   0  0  0  0  0  0  0  0  0  0  0  0
  -16.7350  -29.5647   22.9700 C   0  0  0  0  0  0  0  0  0  0  0  0
  -19.1281  -30.5001   24.0399 C   0  0  0  0  0  0  0  0  0  0  0  0
  -26.2011  -31.3115   23.2460 C   0  0  0  0  0  0  0  0  0  0  0  0
  -25.9652  -13.9217   20.6621 C   0  0  0  0  0  0  0  0  0  0  0  0
  -26.1435  -13.1086   22.9301 C   0  0  0  0  0  0  0  0  0  0  0  0
  -27.4040  -30.8783   23.8018 C   0  0  0  0  0  0  0  0  0  0  0  0
  -29.2260  -13.0371   20.5644 C   0  0  0  0  0  0  0  0  0  0  0  0
  -30.2445  -13.2959   19.6473 C   0  0  0  0  0  0  0  0  0  0  0  0
  -27.2516  -28.8369   22.5255 C   0  0  0  0  0  0  0  0  0  0  0  0
  -29.1799  -11.8280   18.0507 C   0  0  0  0  0  0  0  0  0  0  0  0
  -24.9167  -15.1378   22.4672 C   0  0  0  0  0  0  0  0  0  0  0  0
  -22.7335  -16.3158   23.0620 C   0  0  0  0  0  0  0  0  0  0  0  0
  -17.9061  -28.8094   22.8006 C   0  0  0  0  0  0  0  0  0  0  0  0
  -25.5077  -30.5046   22.3324 C   0  0  0  0  0  0  0  0  0  0  0  0
  -19.1156  -29.2759   23.3501 C   0  0  0  0  0  0  0  0  0  0  0  0
  -26.0414  -29.2634   21.9576 C   0  0  0  0  0  0  0  0  0  0  0  0
  -26.4336  -12.9743   21.5724 C   0  0  0  0  0  0  0  0  0  0  0  0
  -27.9280  -29.6396   23.4439 C   0  0  0  0  0  0  0  0  0  0  0  0
  -28.1844  -12.1737   20.2247 C   0  0  0  0  0  0  0  0  0  0  0  0
  -30.2215  -12.6914   18.3904 C   0  0  0  0  0  0  0  0  0  0  0  0
  -28.1613  -11.5692   18.9679 C   0  0  0  0  0  0  0  0  0  0  0  0
  -24.1338  -16.2554   22.9301 C   0  0  0  0  0  0  0  0  0  0  0  0
  -22.4876  -17.5812   23.5359 C   0  0  0  0  0  0  0  0  0  0  0  0
  -21.7437  -15.3172   22.7813 C   0  0  0  0  0  0  0  0  0  0  0  0
  -22.6508  -29.1118   22.2879 C   0  0  0  0  0  0  0  0  0  0  0  0
  -23.4977  -28.3580   19.2487 C   0  0  0  0  0  0  0  0  0  0  0  0
  -25.9946  -27.8393   16.9809 C   0  0  0  0  0  0  0  0  0  0  0  0
  -25.5759  -21.3332   26.6970 C   0  0  0  0  0  0  0  0  0  0  0  0
  -17.8174  -27.4820   22.0901 C   0  0  0  0  0  0  0  0  0  0  0  0
  -24.2248  -30.9980   21.7215 C   0  0  0  0  0  0  0  0  0  0  0  0
  -25.3462  -28.3682   20.9657 C   0  0  0  0  0  0  0  0  0  0  0  0
  -19.1727  -26.9356   21.6487 C   0  0  0  0  0  0  0  0  0  0  0  0
  -24.2593  -22.0164   23.4920 C   0  0  0  0  0  0  0  0  0  0  0  0
  -20.1875  -27.0455   22.7823 C   0  0  0  0  0  0  0  0  0  0  0  0
  -23.9456  -20.6086   22.9874 C   0  0  0  0  0  0  0  0  0  0  0  0
  -26.8288  -24.5638   25.9196 C   0  0  0  0  0  0  0  0  0  0  0  0
  -28.4763  -23.2825   27.3551 C   0  0  0  0  0  0  0  0  0  0  0  0
  -27.9893  -25.2882   25.2360 C   0  0  0  0  0  0  0  0  0  0  0  0
  -29.6356  -24.0069   26.6698 C   0  0  0  0  0  0  0  0  0  0  0  0
  -25.5768  -22.0684   24.2678 C   0  0  0  0  0  0  0  0  0  0  0  0
  -25.3454  -19.6792   24.8684 C   0  0  0  0  0  0  0  0  0  0  0  0
  -20.4094  -28.5087   23.1841 C   0  0  1  0  0  0  0  0  0  0  0  0
  -23.3432  -29.8713   21.1918 C   0  0  1  0  0  0  0  0  0  0  0  0
  -23.9972  -19.5877   24.1372 C   0  0  2  0  0  0  0  0  0  0  0  0
  -27.2548  -23.1864   26.4356 C   0  0  0  0  0  0  0  0  0  0  0  0
  -29.1973  -25.3793   26.1649 C   0  0  0  0  0  0  0  0  0  0  0  0
  -26.3780  -27.1979   14.5852 C   0  0  0  0  0  0  0  0  0  0  0  0
  -24.3647  -23.3391   28.5794 C   0  0  0  0  0  0  0  0  0  0  0  0
  -26.3267  -22.0692   29.5074 C   0  0  0  0  0  0  0  0  0  0  0  0
  -22.8808  -25.4488   19.9314 C   0  0  0  0  0  0  0  0  0  0  0  0
  -24.1557  -24.7713   17.8859 C   0  0  0  0  0  0  0  0  0  0  0  0
  -22.1059  -26.1760   17.6675 C   0  0  0  0  0  0  0  0  0  0  0  0
  -29.6980  -28.0243   26.6418 C   0  0  0  0  0  0  0  0  0  0  0  0
  -31.6247  -28.0291   25.0168 C   0  0  0  0  0  0  0  0  0  0  0  0
  -27.3279  -30.4132   16.3840 C   0  0  0  0  0  0  0  0  0  0  0  0
  -29.2725  -27.8058   24.1406 C   0  0  0  0  0  0  0  0  0  1  0  0
  -24.2207  -27.2052   18.5950 C   0  0  1  0  0  0  0  0  0  0  0  0
  -26.1896  -28.3469   15.5635 C   0  0  2  0  0  0  0  0  0  0  0  0
  -25.8546  -23.0513   28.4430 C   0  0  0  0  0  0  0  0  0  0  0  0
  -23.3531  -25.9161   18.5401 C   0  0  0  0  0  0  0  0  0  0  0  0
  -30.2211  -27.4942   25.3050 C   0  0  0  0  0  0  0  0  0  0  0  0
  -24.7352  -17.3921   23.2909 N   0  0  0  0  0  0  0  0  0  0  0  0
  -23.7079  -18.1787   23.6541 N   0  0  0  0  0  0  0  0  0  0  0  0
  -24.0917  -28.8922   20.4009 N   0  0  0  0  0  0  0  0  0  0  0  0
  -25.6032  -21.0474   25.3240 N   0  0  0  0  0  0  0  0  0  0  0  0
  -21.3486  -18.2301   23.8587 N   0  0  0  0  0  0  0  0  0  0  0  0
  -22.1690  -14.0713   22.3005 N   0  0  0  0  0  0  0  0  0  0  0  0
  -21.2715  -29.1701   22.2282 N   0  0  0  0  0  0  0  0  0  0  0  0
  -24.6595  -27.6862   17.2894 N   0  0  0  0  0  0  0  0  0  0  0  0
  -26.1568  -22.5404   27.1134 N   0  0  0  0  0  0  0  0  0  0  0  0
  -30.3266  -26.0033   25.4257 N   0  3  0  0  0  0  0  0  0  0  0  0
  -27.3887  -29.2287   15.4894 N   0  3  0  0  0  0  0  0  0  0  0  0
  -20.5171  -15.5292   22.9363 O   0  0  0  0  0  0  0  0  0  0  0  0
  -23.3185  -28.5158   23.1249 O   0  0  0  0  0  0  0  0  0  0  0  0
  -22.4484  -28.7740   18.7510 O   0  0  0  0  0  0  0  0  0  0  0  0
  -26.9330  -27.5989   17.7372 O   0  0  0  0  0  0  0  0  0  0  0  0
  -25.0675  -20.5493   27.5089 O   0  0  0  0  0  0  0  0  0  0  0  0
  -27.1735  -11.9184   21.1361 O   0  0  0  0  0  0  0  0  0  0  0  0
  -29.1017  -29.2140   23.9854 O   0  0  0  0  0  0  0  0  0  1  0  0
  -31.1988  -12.9412   17.5092 F   0  0  0  0  0  0  0  0  0  0  0  0
  -27.1626  -10.7398   18.6354 F   0  0  0  0  0  0  0  0  0  0  0  0
  1  2  1  0  0  0  0
  1  5  2  0  0  0  0
  2  6  2  0  0  0  0
  3  8  2  0  0  0  0
  3 15  1  0  0  0  0
  4  9  1  0  0  0  0
  4 15  2  0  0  0  0
  5 17  1  0  0  0  0
  6 19  1  0  0  0  0
  7 10  2  0  0  0  0
  7 18  1  0  0  0  0
  8 21  1  0  0  0  0
  9 21  2  0  0  0  0
 10 22  1  0  0  0  0
 11 12  2  0  0  0  0
 11 23  1  0  0  0  0
 12 24  1  0  0  0  0
 13 20  1  0  0  0  0
 13 22  2  0  0  0  0
 14 24  2  0  0  0  0
 14 25  1  0  0  0  0
 15 26  1  0  0  0  0
 16 26  1  0  0  0  0
 16 27  2  0  0  0  0
 16 28  1  0  0  0  0
 17 19  2  0  0  0  0
 17 33  1  0  0  0  0
 18 20  2  0  0  0  0
 18 34  1  0  0  0  0
 19 46  1  0  0  0  0
 20 35  1  0  0  0  0
 21 82  1  0  0  0  0
 22 83  1  0  0  0  0
 23 25  2  0  0  0  0
 23 82  1  0  0  0  0
 24 84  1  0  0  0  0
 25 85  1  0  0  0  0
 26 66  2  0  0  0  0
 27 67  1  0  0  0  0
 27 70  1  0  0  0  0
 28 71  1  0  0  0  0
 28 77  2  0  0  0  0
 29 47  1  0  0  0  0
 29 72  1  0  0  0  0
 29 78  2  0  0  0  0
 30 61  1  0  0  0  0
 30 68  1  0  0  0  0
 30 79  2  0  0  0  0
 31 62  1  0  0  0  0
 31 73  1  0  0  0  0
 31 80  2  0  0  0  0
 32 69  1  0  0  0  0
 32 74  1  0  0  0  0
 32 81  2  0  0  0  0
 33 36  1  0  0  0  0
 34 47  1  0  0  0  0
 35 68  1  0  0  0  0
 36 38  1  0  0  0  0
 37 39  1  0  0  0  0
 37 44  1  0  0  0  0
 38 46  1  0  0  0  0
 39 48  1  0  0  0  0
 40 42  1  0  0  0  0
 40 49  1  0  0  0  0
 41 43  1  0  0  0  0
 41 49  1  0  0  0  0
 42 50  1  0  0  0  0
 43 50  1  0  0  0  0
 44 69  1  0  0  0  0
 45 48  1  0  0  0  0
 45 69  1  0  0  0  0
 46 72  1  0  0  0  0
 47 68  1  0  0  0  0
 48 67  1  0  0  0  0
 49 74  1  0  0  0  0
 50 75  1  0  0  0  0
 51 62  1  0  0  0  0
 52 63  1  0  0  0  0
 53 63  1  0  0  0  0
 54 64  1  0  0  0  0
 55 64  1  0  0  0  0
 56 64  1  0  0  0  0
 57 65  1  0  0  0  0
 58 65  1  0  0  0  0
 59 76  1  0  0  0  0
 60 65  1  0  0  0  0
 60 83  1  0  0  0  0
 61 64  1  0  0  0  0
 61 73  1  0  0  0  0
 62 76  1  0  0  0  0
 63 74  1  0  0  0  0
 65 75  1  0  0  0  0
 66 67  1  0  0  0  0
M  CHG  2  75   1  76   1
M  ISO  4  32 100  60 101  74 100  83 101
M  END
> <Batch ID>
0025

> <Smiles>
CNC(C)C(=O)NC(C(=O)N1Cc2cc([101O:1][101CH2:1]C(C)(C)NC3CCC([100N:0](C(C)C)[100C:0](=O)N4CCCC(n5nc(-c6ccc(Oc7ccc(F)cc7F)cc6)c(C(N)=O)c5N)C4)CC3)ccc2CC1C(=O)NC1CCCc2ccccc21)C(C)(C)C

> <Shape>
0.204

> <Color>
0.099

> <Negative vol penalty>
0.000

$$$$

  -OEChem-04052316243D

 88 96  0     1  0  0  0  0  0999 V2000
  -28.7428  -25.3570   16.2523 C   0  0  0  0  0  0  0  0  0  0  0  0
  -27.7662  -25.2269   17.2345 C   0  0  0  0  0  0  0  0  0  0  0  0
  -27.0098  -12.2496   21.8301 C   0  0  0  0  0  0  0  0  0  0  0  0
  -26.3780  -14.2270   20.5942 C   0  0  0  0  0  0  0  0  0  0  0  0
  -29.7802  -26.2734   16.4195 C   0  0  0  0  0  0  0  0  0  0  0  0
  -27.8272  -26.0123   18.3851 C   0  0  0  0  0  0  0  0  0  0  0  0
  -23.3327  -27.9855   19.6305 C   0  0  0  0  0  0  0  0  0  0  0  0
  -25.6685  -11.8779   21.9211 C   0  0  0  0  0  0  0  0  0  0  0  0
  -25.0367  -13.8553   20.6851 C   0  0  0  0  0  0  0  0  0  0  0  0
  -22.4203  -27.1422   20.2632 C   0  0  0  0  0  0  0  0  0  0  0  0
  -23.3419  -10.4396   19.9334 C   0  0  0  0  0  0  0  0  0  0  0  0
  -23.0191   -9.1080   19.6721 C   0  0  0  0  0  0  0  0  0  0  0  0
  -23.0177  -28.1040   22.3933 C   0  0  0  0  0  0  0  0  0  0  0  0
  -22.1175   -8.8889   21.9029 C   0  0  0  0  0  0  0  0  0  0  0  0
  -27.3646  -13.4242   21.1667 C   0  0  0  0  0  0  0  0  0  0  0  0
  -29.6609  -13.4648   20.0561 C   0  0  0  0  0  0  0  0  0  0  0  0
  -29.8485  -27.0773   17.5683 C   0  0  0  0  0  0  0  0  0  0  0  0
  -24.1035  -28.8883   20.3770 C   0  0  0  0  0  0  0  0  0  0  0  0
  -28.8672  -26.9393   18.5684 C   0  0  0  0  0  0  0  0  0  0  0  0
  -23.9373  -28.9594   21.7674 C   0  0  0  0  0  0  0  0  0  0  0  0
  -24.6820  -12.6807   21.3486 C   0  0  0  0  0  0  0  0  0  0  0  0
  -22.2648  -27.1993   21.6451 C   0  0  0  0  0  0  0  0  0  0  0  0
  -23.0526  -10.9958   21.1794 C   0  0  0  0  0  0  0  0  0  0  0  0
  -22.4068   -8.3327   20.6568 C   0  0  0  0  0  0  0  0  0  0  0  0
  -22.4403  -10.2205   22.1641 C   0  0  0  0  0  0  0  0  0  0  0  0
  -28.7500  -13.8090   21.0728 C   0  0  0  0  0  0  0  0  0  0  0  0
  -30.8352  -14.0729   20.4270 C   0  0  0  0  0  0  0  0  0  0  0  0
  -29.4631  -12.6669   18.8815 C   0  0  0  0  0  0  0  0  0  0  0  0
  -27.2146  -29.2943   20.8870 C   0  0  0  0  0  0  0  0  0  0  0  0
  -26.2145  -31.9558   22.4486 C   0  0  0  0  0  0  0  0  0  0  0  0
  -23.7043  -33.5757   24.0983 C   0  0  0  0  0  0  0  0  0  0  0  0
  -31.4436  -18.8218   24.4271 C   0  0  0  0  0  0  0  0  0  0  0  0
  -31.0150  -28.0202   17.7262 C   0  0  0  0  0  0  0  0  0  0  0  0
  -25.0640  -29.8098   19.6765 C   0  0  0  0  0  0  0  0  0  0  0  0
  -24.7261  -29.9252   22.6120 C   0  0  0  0  0  0  0  0  0  0  0  0
  -30.7996  -29.0808   18.8028 C   0  0  0  0  0  0  0  0  0  0  0  0
  -32.9850  -15.4825   24.5353 C   0  0  0  0  0  0  0  0  0  0  0  0
  -30.2481  -28.4454   20.0752 C   0  0  0  0  0  0  0  0  0  0  0  0
  -32.3231  -14.6752   23.4170 C   0  0  0  0  0  0  0  0  0  0  0  0
  -27.4032  -22.2403   20.0739 C   0  0  0  0  0  0  0  0  0  0  0  0
  -27.7969  -21.2692   22.3593 C   0  0  0  0  0  0  0  0  0  0  0  0
  -33.0755  -16.9694   24.2204 C   0  0  0  0  0  0  0  0  0  0  0  0
  -30.8290  -16.7154   23.1436 C   0  0  0  0  0  0  0  0  0  0  0  0
  -28.9051  -22.3713   19.8748 C   0  0  0  0  0  0  0  0  0  0  0  0
  -28.8852  -27.7911   19.8192 C   0  0  1  0  0  0  0  0  0  0  0  0
  -26.1675  -30.3308   20.5921 C   0  0  1  0  0  0  0  0  0  0  0  0
  -31.5283  -15.5475   22.4309 C   0  0  2  0  0  0  0  0  0  0  0  0
  -27.0845  -21.0957   21.0241 C   0  0  1  0  0  0  0  0  0  0  0  0
  -29.3154  -21.4078   22.1762 C   0  0  2  0  0  0  0  0  0  0  0  0
  -23.1975  -35.7234   25.2934 C   0  0  0  0  0  0  0  0  0  0  0  0
  -27.8044  -30.9838   24.8646 C   0  0  0  0  0  0  0  0  0  0  0  0
  -26.5232  -32.6088   26.2739 C   0  0  0  0  0  0  0  0  0  0  0  0
  -27.9748  -33.4395   24.4230 C   0  0  0  0  0  0  0  0  0  0  0  0
  -31.0625  -22.8318   20.9992 C   0  0  0  0  0  0  0  0  0  0  0  0
  -21.5597  -34.2714   22.1812 C   0  0  0  0  0  0  0  0  0  0  0  0
  -25.1652  -19.6693   21.6465 C   0  0  0  0  0  0  0  0  0  0  0  0
  -29.9788  -21.6617   23.5284 C   0  0  0  0  0  0  0  0  0  0  0  0
  -23.1266  -23.3894   23.0488 C   0  0  0  0  0  0  0  0  0  0  0  0
  -21.6140  -23.5622   22.8924 C   0  0  0  0  0  0  0  0  0  0  0  0
  -23.6727  -22.3613   22.0538 C   0  0  0  0  0  0  0  0  0  0  0  0
  -21.0714  -24.6109   23.8610 C   0  0  0  0  0  0  0  0  0  0  0  0
  -29.6797  -20.5652   24.5407 C   0  0  0  0  0  0  0  0  0  0  0  0
  -25.1639  -22.0934   22.2163 C   0  0  0  0  0  0  0  0  0  0  0  0
  -21.6791  -25.9823   23.6026 C   0  0  0  0  0  0  0  0  0  1  0  0
  -25.8023  -32.2724   23.8659 C   0  0  1  0  0  0  0  0  0  0  0  0
  -23.1564  -34.9851   23.9645 C   0  0  2  0  0  0  0  0  0  0  0  0
  -27.0126  -32.3065   24.8414 C   0  0  0  0  0  0  0  0  0  0  0  0
  -29.2986  -14.5760   22.0187 N   0  0  0  0  0  0  0  0  0  0  0  0
  -30.5669  -14.7188   21.5979 N   0  0  0  0  0  0  0  0  0  0  0  0
  -25.6571  -30.8011   21.8815 N   0  0  0  0  0  0  0  0  0  0  0  0
  -31.7550  -17.5381   23.9387 N   0  0  0  0  0  0  0  0  0  0  0  0
  -32.0609  -14.1126   19.8626 N   0  0  0  0  0  0  0  0  0  0  0  0
  -28.1941  -12.1176   18.6527 N   0  0  0  0  0  0  0  0  0  0  0  0
  -27.8448  -28.7956   19.7629 N   0  0  0  0  0  0  0  0  0  0  0  0
  -25.0501  -33.5208   23.8031 N   0  0  0  0  0  0  0  0  0  0  0  0
  -30.1645  -19.2729   24.1133 N   0  0  0  0  0  0  0  0  0  0  0  0
  -29.5925  -22.5622   21.2142 N   0  3  1  0  0  0  0  0  0  0  0  0
  -21.7439  -34.9488   23.4905 N   0  3  0  0  0  0  0  0  0  0  0  0
  -25.6172  -21.0570   21.2593 N   0  3  1  0  0  0  0  0  0  0  0  0
  -30.3887  -12.4339   18.0675 O   0  0  0  0  0  0  0  0  0  0  0  0
  -27.4354  -28.9721   22.0485 O   0  0  0  0  0  0  0  0  0  0  0  0
  -26.9965  -32.7094   21.8636 O   0  0  0  0  0  0  0  0  0  0  0  0
  -23.0090  -32.6199   24.4350 O   0  0  0  0  0  0  0  0  0  0  0  0
  -32.2351  -19.5010   25.0882 O   0  0  0  0  0  0  0  0  0  0  0  0
  -23.3730  -12.3182   21.4370 O   0  0  0  0  0  0  0  0  0  0  0  0
  -21.3755  -26.3768   22.2652 O   0  0  0  0  0  0  0  0  0  1  0  0
  -22.0955   -7.0544   20.4053 F   0  0  0  0  0  0  0  0  0  0  0  0
  -22.1589  -10.7497   23.3627 F   0  0  0  0  0  0  0  0  0  0  0  0
  1  2  1  0  0  0  0
  1  5  2  0  0  0  0
  2  6  2  0  0  0  0
  3  8  2  0  0  0  0
  3 15  1  0  0  0  0
  4  9  1  0  0  0  0
  4 15  2  0  0  0  0
  5 17  1  0  0  0  0
  6 19  1  0  0  0  0
  7 10  2  0  0  0  0
  7 18  1  0  0  0  0
  8 21  1  0  0  0  0
  9 21  2  0  0  0  0
 10 22  1  0  0  0  0
 11 12  2  0  0  0  0
 11 23  1  0  0  0  0
 12 24  1  0  0  0  0
 13 20  1  0  0  0  0
 13 22  2  0  0  0  0
 14 24  2  0  0  0  0
 14 25  1  0  0  0  0
 15 26  1  0  0  0  0
 16 26  1  0  0  0  0
 16 27  2  0  0  0  0
 16 28  1  0  0  0  0
 17 19  2  0  0  0  0
 17 33  1  0  0  0  0
 18 20  2  0  0  0  0
 18 34  1  0  0  0  0
 19 45  1  0  0  0  0
 20 35  1  0  0  0  0
 21 85  1  0  0  0  0
 22 86  1  0  0  0  0
 23 25  2  0  0  0  0
 23 85  1  0  0  0  0
 24 87  1  0  0  0  0
 25 88  1  0  0  0  0
 26 68  2  0  0  0  0
 27 69  1  0  0  0  0
 27 72  1  0  0  0  0
 28 73  1  0  0  0  0
 28 80  2  0  0  0  0
 29 46  1  0  0  0  0
 29 74  1  0  0  0  0
 29 81  2  0  0  0  0
 30 65  1  0  0  0  0
 30 70  1  0  0  0  0
 30 82  2  0  0  0  0
 31 66  1  0  0  0  0
 31 75  1  0  0  0  0
 31 83  2  0  0  0  0
 32 71  1  0  0  0  0
 32 76  1  0  0  0  0
 32 84  2  0  0  0  0
 33 36  1  0  0  0  0
 34 46  1  0  0  0  0
 35 70  1  0  0  0  0
 36 38  1  0  0  0  0
 37 39  1  0  0  0  0
 37 42  1  0  0  0  0
 38 45  1  0  0  0  0
 39 47  1  0  0  0  0
 40 44  1  0  0  0  0
 40 48  1  0  0  0  0
 41 48  1  0  0  0  0
 41 49  1  0  0  0  0
 42 71  1  0  0  0  0
 43 47  1  0  0  0  0
 43 71  1  0  0  0  0
 44 77  1  0  0  0  0
 45 74  1  0  0  0  0
 46 70  1  0  0  0  0
 47 69  1  0  0  0  0
 48 79  1  0  0  0  0
 49 57  1  0  0  0  0
 49 77  1  0  0  0  0
 50 66  1  0  0  0  0
 51 67  1  0  0  0  0
 52 67  1  0  0  0  0
 53 67  1  0  0  0  0
 54 77  1  0  0  0  0
 55 78  1  0  0  0  0
 56 79  1  0  0  0  0
 57 62  1  0  0  0  0
 58 59  1  0  0  0  0
 58 60  1  0  0  0  0
 59 61  1  0  0  0  0
 60 63  1  0  0  0  0
 61 64  1  0  0  0  0
 62 76  1  0  0  0  0
 63 79  1  0  0  0  0
 64 86  1  0  0  0  0
 65 67  1  0  0  0  0
 65 75  1  0  0  0  0
 66 78  1  0  0  0  0
 68 69  1  0  0  0  0
M  CHG  3  77   1  78   1  79   1
M  ISO  4  32 100  64 101  76 100  86 101
M  END
> <Batch ID>
0025

> <Smiles>
CNC(C)C(=O)NC(C(=O)N1Cc2cc([101O:1][101CH2:1]CCCCCN(C)C3CCN(C)C(CC[100NH:0][100C:0](=O)N4CCCC(n5nc(-c6ccc(Oc7ccc(F)cc7F)cc6)c(C(N)=O)c5N)C4)C3)ccc2CC1C(=O)NC1CCCc2ccccc21)C(C)(C)C

> <Shape>
0.305

> <Color>
0.066

> <Negative vol penalty>
0.000

$$$$

  -OEChem-04052316243D

 85 93  0     1  0  0  0  0  0999 V2000
  -26.3780  -33.1776   19.3348 C   0  0  0  0  0  0  0  0  0  0  0  0
  -27.4451  -32.4996   19.9152 C   0  0  0  0  0  0  0  0  0  0  0  0
  -23.0452   -9.8787   19.9625 C   0  0  0  0  0  0  0  0  0  0  0  0
  -23.8039   -9.8949   22.2563 C   0  0  0  0  0  0  0  0  0  0  0  0
  -25.0771  -32.7072   19.5089 C   0  0  0  0  0  0  0  0  0  0  0  0
  -27.2119  -31.3512   20.6710 C   0  0  0  0  0  0  0  0  0  0  0  0
  -30.8092  -26.4107   21.0669 C   0  0  0  0  0  0  0  0  0  0  0  0
  -22.2799   -8.7422   20.2237 C   0  0  0  0  0  0  0  0  0  0  0  0
  -23.0384   -8.7584   22.5175 C   0  0  0  0  0  0  0  0  0  0  0  0
  -31.7499  -26.0089   22.0142 C   0  0  0  0  0  0  0  0  0  0  0  0
  -19.7956   -8.0271   23.1256 C   0  0  0  0  0  0  0  0  0  0  0  0
  -19.0374   -8.0132   24.2963 C   0  0  0  0  0  0  0  0  0  0  0  0
  -30.0739  -24.6505   23.0935 C   0  0  0  0  0  0  0  0  0  0  0  0
  -32.1575  -16.4462   22.4798 C   0  0  0  0  0  0  0  0  0  0  0  0
  -20.2421   -6.0606   25.0534 C   0  0  0  0  0  0  0  0  0  0  0  0
  -23.8073  -10.4550   20.9788 C   0  0  0  0  0  0  0  0  0  0  0  0
  -24.1962  -12.9720   20.8333 C   0  0  0  0  0  0  0  0  0  0  0  0
  -24.8287  -31.5470   20.2592 C   0  0  0  0  0  0  0  0  0  0  0  0
  -29.4888  -25.9432   21.1324 C   0  0  0  0  0  0  0  0  0  0  0  0
  -25.9063  -30.8656   20.8564 C   0  0  0  0  0  0  0  0  0  0  0  0
  -29.1190  -25.0459   22.1444 C   0  0  0  0  0  0  0  0  0  0  0  0
  -32.0530  -18.2159   24.1212 C   0  0  0  0  0  0  0  0  0  0  0  0
  -30.7692  -16.4841   22.3503 C   0  0  0  0  0  0  0  0  0  0  0  0
  -22.2764   -8.1821   21.5011 C   0  0  0  0  0  0  0  0  0  0  0  0
  -31.3817  -25.1309   23.0294 C   0  0  0  0  0  0  0  0  0  0  0  0
  -20.7770   -7.0577   22.9188 C   0  0  0  0  0  0  0  0  0  0  0  0
  -19.2606   -7.0300   25.2602 C   0  0  0  0  0  0  0  0  0  0  0  0
  -21.0003   -6.0745   23.8827 C   0  0  0  0  0  0  0  0  0  0  0  0
  -32.7994  -17.3120   23.3653 C   0  0  0  0  0  0  0  0  0  0  0  0
  -30.6646  -18.2539   23.9917 C   0  0  0  0  0  0  0  0  0  0  0  0
  -30.0228  -17.3880   23.1063 C   0  0  0  0  0  0  0  0  0  0  0  0
  -24.5986  -11.6287   20.7096 C   0  0  0  0  0  0  0  0  0  0  0  0
  -25.3023  -13.6973   20.4633 C   0  0  0  0  0  0  0  0  0  0  0  0
  -22.9353  -13.5157   21.2460 C   0  0  0  0  0  0  0  0  0  0  0  0
  -26.6433  -27.3060   21.5192 C   0  0  0  0  0  0  0  0  0  0  0  0
  -25.5609  -24.3004   20.9559 C   0  0  0  0  0  0  0  0  0  0  0  0
  -26.1767  -20.9439   20.9979 C   0  0  0  0  0  0  0  0  0  0  0  0
  -30.7870  -14.6426   20.6314 C   0  0  0  0  0  0  0  0  0  0  0  0
  -23.4011  -31.1036   20.4590 C   0  0  0  0  0  0  0  0  0  0  0  0
  -28.4927  -26.3652   20.0873 C   0  0  0  0  0  0  0  0  0  0  0  0
  -27.7194  -24.4991   22.2470 C   0  0  0  0  0  0  0  0  0  0  0  0
  -23.2739  -29.6680   20.9623 C   0  0  0  0  0  0  0  0  0  0  0  0
  -29.6291  -12.2259   18.2871 C   0  0  0  0  0  0  0  0  0  0  0  0
  -24.2421  -29.4185   22.1143 C   0  0  0  0  0  0  0  0  0  0  0  0
  -28.1840  -11.9656   18.7185 C   0  0  0  0  0  0  0  0  0  0  0  0
  -30.5476  -12.4499   19.4870 C   0  0  0  0  0  0  0  0  0  0  0  0
  -28.6537  -13.2238   20.8594 C   0  0  0  0  0  0  0  0  0  0  0  0
  -25.6960  -29.6023   21.6627 C   0  0  1  0  0  0  0  0  0  0  0  0
  -27.0458  -26.2294   20.5514 C   0  0  1  0  0  0  0  0  0  0  0  0
  -27.6785  -13.0567   19.6826 C   0  0  2  0  0  0  0  0  0  0  0  0
  -25.0870  -18.7351   20.5175 C   0  0  0  0  0  0  0  0  0  0  0  0
  -23.9848  -24.5145   23.5597 C   0  0  0  0  0  0  0  0  0  0  0  0
  -23.7034  -22.0271   23.5126 C   0  0  0  0  0  0  0  0  0  0  0  0
  -22.7491  -23.4235   21.6790 C   0  0  0  0  0  0  0  0  0  0  0  0
  -28.1664  -20.2854   18.9083 C   0  0  0  0  0  0  0  0  0  0  0  0
  -32.7527  -19.1430   25.0708 C   0  0  0  0  0  0  0  0  0  0  0  0
  -33.5002  -22.8949   24.9104 C   0  0  0  0  0  0  0  0  0  0  0  0
  -33.4562  -21.4986   25.5126 C   0  0  0  0  0  0  0  0  0  0  0  0
  -32.1306  -23.4394   24.5240 C   0  0  0  0  0  0  0  0  0  1  0  0
  -25.2525  -23.0969   21.8135 C   0  0  1  0  0  0  0  0  0  0  0  0
  -25.9398  -19.8633   19.9584 C   0  0  2  0  0  0  0  0  0  0  0  0
  -23.9484  -23.2771   22.6407 C   0  0  0  0  0  0  0  0  0  0  0  0
  -25.8617  -11.5050   20.2932 N   0  0  0  0  0  0  0  0  0  0  0  0
  -26.2625  -12.7800   20.1521 N   0  0  0  0  0  0  0  0  0  0  0  0
  -26.7801  -24.9464   21.2053 N   0  0  0  0  0  0  0  0  0  0  0  0
  -30.0075  -13.4998   20.3534 N   0  0  0  0  0  0  0  0  0  0  0  0
  -25.5376  -15.0238   20.3769 N   0  0  0  0  0  0  0  0  0  0  0  0
  -21.9064  -12.6290   21.5918 N   0  0  0  0  0  0  0  0  0  0  0  0
  -30.1565  -15.5878   21.4399 N   0  0  0  0  0  0  0  0  0  0  0  0
  -26.1439  -28.4453   20.9175 N   0  0  0  0  0  0  0  0  0  0  0  0
  -25.2357  -21.9483   20.9141 N   0  0  0  0  0  0  0  0  0  0  0  0
  -27.2375  -19.2898   19.5024 N   0  3  0  0  0  0  0  0  0  0  0  0
  -32.8270  -20.5436   24.5704 N   0  3  0  0  0  0  0  0  0  0  0  0
  -22.7220  -14.7510   21.2907 O   0  0  0  0  0  0  0  0  0  0  0  0
  -26.7745  -27.1164   22.7227 O   0  0  0  0  0  0  0  0  0  0  0  0
  -24.7532  -24.6501   20.0916 O   0  0  0  0  0  0  0  0  0  0  0  0
  -27.1016  -20.8996   21.8060 O   0  0  0  0  0  0  0  0  0  0  0  0
  -31.9193  -14.7854   20.1630 O   0  0  0  0  0  0  0  0  0  0  0  0
  -21.5295   -7.0733   21.7564 O   0  0  0  0  0  0  0  0  0  0  0  0
  -32.2978  -24.7376   23.9556 O   0  0  0  0  0  0  0  0  0  1  0  0
  -18.5335   -7.0178   26.3851 F   0  0  0  0  0  0  0  0  0  0  0  0
  -21.9425   -5.1413   23.6901 F   0  0  0  0  0  0  0  0  0  0  0  0
  -34.5200  -17.2301   23.4933 Cl  0  0  0  0  0  0  0  0  0  0  0  0
  -29.7590  -19.3894   24.9452 Cl  0  0  0  0  0  0  0  0  0  0  0  0
  -28.2941  -17.4142   22.9253 Cl  0  0  0  0  0  0  0  0  0  0  0  0
  1  2  1  0  0  0  0
  1  5  2  0  0  0  0
  2  6  2  0  0  0  0
  3  8  2  0  0  0  0
  3 16  1  0  0  0  0
  4  9  1  0  0  0  0
  4 16  2  0  0  0  0
  5 18  1  0  0  0  0
  6 20  1  0  0  0  0
  7 10  2  0  0  0  0
  7 19  1  0  0  0  0
  8 24  1  0  0  0  0
  9 24  2  0  0  0  0
 10 25  1  0  0  0  0
 11 12  2  0  0  0  0
 11 26  1  0  0  0  0
 12 27  1  0  0  0  0
 13 21  1  0  0  0  0
 13 25  2  0  0  0  0
 14 23  1  0  0  0  0
 14 29  2  0  0  0  0
 15 27  2  0  0  0  0
 15 28  1  0  0  0  0
 16 32  1  0  0  0  0
 17 32  1  0  0  0  0
 17 33  2  0  0  0  0
 17 34  1  0  0  0  0
 18 20  2  0  0  0  0
 18 39  1  0  0  0  0
 19 21  2  0  0  0  0
 19 40  1  0  0  0  0
 20 48  1  0  0  0  0
 21 41  1  0  0  0  0
 22 29  1  0  0  0  0
 22 30  2  0  0  0  0
 22 56  1  0  0  0  0
 23 31  2  0  0  0  0
 23 69  1  0  0  0  0
 24 79  1  0  0  0  0
 25 80  1  0  0  0  0
 26 28  2  0  0  0  0
 26 79  1  0  0  0  0
 27 81  1  0  0  0  0
 28 82  1  0  0  0  0
 29 83  1  0  0  0  0
 30 31  1  0  0  0  0
 30 84  1  0  0  0  0
 31 85  1  0  0  0  0
 32 63  2  0  0  0  0
 33 64  1  0  0  0  0
 33 67  1  0  0  0  0
 34 68  1  0  0  0  0
 34 74  2  0  0  0  0
 35 49  1  0  0  0  0
 35 70  1  0  0  0  0
 35 75  2  0  0  0  0
 36 60  1  0  0  0  0
 36 65  1  0  0  0  0
 36 76  2  0  0  0  0
 37 61  1  0  0  0  0
 37 71  1  0  0  0  0
 37 77  2  0  0  0  0
 38 66  1  0  0  0  0
 38 69  1  0  0  0  0
 38 78  2  0  0  0  0
 39 42  1  0  0  0  0
 40 49  1  0  0  0  0
 41 65  1  0  0  0  0
 42 44  1  0  0  0  0
 43 45  1  0  0  0  0
 43 46  1  0  0  0  0
 44 48  1  0  0  0  0
 45 50  1  0  0  0  0
 46 66  1  0  0  0  0
 47 50  1  0  0  0  0
 47 66  1  0  0  0  0
 48 70  1  0  0  0  0
 49 65  1  0  0  0  0
 50 64  1  0  0  0  0
 51 61  1  0  0  0  0
 52 62  1  0  0  0  0
 53 62  1  0  0  0  0
 54 62  1  0  0  0  0
 55 72  1  0  0  0  0
 56 73  1  0  0  0  0
 57 58  1  0  0  0  0
 57 59  1  0  0  0  0
 58 73  1  0  0  0  0
 59 80  1  0  0  0  0
 60 62  1  0  0  0  0
 60 71  1  0  0  0  0
 61 72  1  0  0  0  0
 63 64  1  0  0  0  0
M  CHG  2  72   1  73   1
M  ISO  4  38 100  59 101  69 100  80 101
M  END
> <Batch ID>
0025

> <Smiles>
CNC(C)C(=O)NC(C(=O)N1Cc2cc([101O:1][101CH2:1]CCNCc3c(Cl)cc([100NH:0][100C:0](=O)N4CCCC(n5nc(-c6ccc(Oc7ccc(F)cc7F)cc6)c(C(N)=O)c5N)C4)c(Cl)c3Cl)ccc2CC1C(=O)NC1CCCc2ccccc21)C(C)(C)C

> <Shape>
0.261

> <Color>
0.213

> <Negative vol penalty>
0.000

$$$$

  -OEChem-04052316243D

 91100  0     1  0  0  0  0  0999 V2000
  -23.9525  -38.2281   21.1015 C   0  0  0  0  0  0  0  0  0  0  0  0
  -24.7408  -37.3670   20.3446 C   0  0  0  0  0  0  0  0  0  0  0  0
  -23.1205  -11.9657   23.1267 C   0  0  0  0  0  0  0  0  0  0  0  0
  -24.7077  -10.1444   23.0987 C   0  0  0  0  0  0  0  0  0  0  0  0
  -23.5227  -37.8434   22.3708 C   0  0  0  0  0  0  0  0  0  0  0  0
  -25.1005  -36.1212   20.8572 C   0  0  0  0  0  0  0  0  0  0  0  0
  -26.4317  -29.3987   18.7707 C   0  0  0  0  0  0  0  0  0  0  0  0
  -22.6010  -11.4945   24.3324 C   0  0  0  0  0  0  0  0  0  0  0  0
  -24.1883   -9.6732   24.3045 C   0  0  0  0  0  0  0  0  0  0  0  0
  -27.4058  -28.4080   18.8863 C   0  0  0  0  0  0  0  0  0  0  0  0
  -21.4973   -7.9055   25.3365 C   0  0  0  0  0  0  0  0  0  0  0  0
  -21.2556   -6.5363   25.4470 C   0  0  0  0  0  0  0  0  0  0  0  0
  -26.5393  -27.8181   21.0590 C   0  0  0  0  0  0  0  0  0  0  0  0
  -31.3389  -18.1333   20.8907 C   0  0  0  0  0  0  0  0  0  0  0  0
  -22.7993   -6.4134   27.3015 C   0  0  0  0  0  0  0  0  0  0  0  0
  -24.1738  -11.2906   22.5098 C   0  0  0  0  0  0  0  0  0  0  0  0
  -24.0214  -11.9382   20.0471 C   0  0  0  0  0  0  0  0  0  0  0  0
  -23.8694  -36.5882   22.8953 C   0  0  0  0  0  0  0  0  0  0  0  0
  -25.5094  -29.6142   19.8048 C   0  0  0  0  0  0  0  0  0  0  0  0
  -24.6761  -35.7198   22.1353 C   0  0  0  0  0  0  0  0  0  0  0  0
  -25.5529  -28.8105   20.9530 C   0  0  0  0  0  0  0  0  0  0  0  0
  -32.0224  -19.3321   21.0941 C   0  0  0  0  0  0  0  0  0  0  0  0
  -33.2508  -19.5491   20.4698 C   0  0  0  0  0  0  0  0  0  0  0  0
  -33.7957  -18.5674   19.6422 C   0  0  0  0  0  0  0  0  0  0  0  0
  -31.8838  -17.1515   20.0630 C   0  0  0  0  0  0  0  0  0  0  0  0
  -23.1349  -10.3483   24.9213 C   0  0  0  0  0  0  0  0  0  0  0  0
  -27.4615  -27.6194   20.0318 C   0  0  0  0  0  0  0  0  0  0  0  0
  -22.3901   -8.5288   26.2085 C   0  0  0  0  0  0  0  0  0  0  0  0
  -21.9065   -5.7902   26.4295 C   0  0  0  0  0  0  0  0  0  0  0  0
  -23.0410   -7.7827   27.1910 C   0  0  0  0  0  0  0  0  0  0  0  0
  -33.1121  -17.3686   19.4388 C   0  0  0  0  0  0  0  0  0  0  0  0
  -24.7104  -11.7765   21.2640 C   0  0  0  0  0  0  0  0  0  0  0  0
  -24.9679  -12.4246   19.1786 C   0  0  0  0  0  0  0  0  0  0  0  0
  -22.6486  -11.6725   19.7300 C   0  0  0  0  0  0  0  0  0  0  0  0
  -24.8248  -32.0503   21.7284 C   0  0  0  0  0  0  0  0  0  0  0  0
  -22.3948  -30.1182   22.6689 C   0  0  0  0  0  0  0  0  0  0  0  0
  -21.1586  -26.9506   22.9603 C   0  0  0  0  0  0  0  0  0  0  0  0
  -29.9560  -15.5530   20.3986 C   0  0  0  0  0  0  0  0  0  0  0  0
  -23.4205  -36.2357   24.2913 C   0  0  0  0  0  0  0  0  0  0  0  0
  -24.4480  -30.6691   19.6533 C   0  0  0  0  0  0  0  0  0  0  0  0
  -24.5730  -28.9881   22.0829 C   0  0  0  0  0  0  0  0  0  0  0  0
  -23.5334  -34.7470   24.6098 C   0  0  0  0  0  0  0  0  0  0  0  0
  -29.7825  -11.9476   19.0965 C   0  0  0  0  0  0  0  0  0  0  0  0
  -24.8882  -34.2069   24.1630 C   0  0  0  0  0  0  0  0  0  0  0  0
  -31.2981  -25.1788   18.2314 C   0  0  0  0  0  0  0  0  0  0  0  0
  -31.0519  -25.6848   20.6931 C   0  0  0  0  0  0  0  0  0  0  0  0
  -32.3296  -24.0999   18.5563 C   0  0  0  0  0  0  0  0  0  0  0  0
  -32.0835  -24.6060   21.0180 C   0  0  0  0  0  0  0  0  0  0  0  0
  -28.2927  -11.8668   18.7718 C   0  0  0  0  0  0  0  0  0  0  0  0
  -30.2947  -13.3824   19.1047 C   0  0  0  0  0  0  0  0  0  0  0  0
  -28.2563  -13.7404   20.5093 C   0  0  0  0  0  0  0  0  0  0  0  0
  -25.0666  -34.3501   22.6467 C   0  0  1  0  0  0  0  0  0  0  0  0
  -23.8824  -31.1438   20.9882 C   0  0  1  0  0  0  0  0  0  0  0  0
  -30.3087  -25.3830   19.3856 C   0  0  0  0  0  0  0  0  0  0  0  0
  -33.0729  -24.4019   19.8637 C   0  0  0  0  0  0  0  0  0  0  0  0
  -27.4733  -13.0061   19.4097 C   0  0  2  0  0  0  0  0  0  0  0  0
  -31.4175  -20.3674   21.9847 C   0  0  0  0  0  0  0  0  0  0  0  0
  -35.1099  -18.7785   18.9642 C   0  0  0  0  0  0  0  0  0  0  0  0
  -19.1627  -25.6848   23.8036 C   0  0  0  0  0  0  0  0  0  0  0  0
  -35.3096  -23.3588   19.3313 C   0  0  0  0  0  0  0  0  0  0  0  0
  -23.3661  -30.5015   25.5359 C   0  0  0  0  0  0  0  0  0  0  0  0
  -21.9826  -28.5218   26.1954 C   0  0  0  0  0  0  0  0  0  0  0  0
  -20.8810  -30.5552   25.2604 C   0  0  0  0  0  0  0  0  0  0  0  0
  -20.5530  -25.8825   20.2675 C   0  0  0  0  0  0  0  0  0  0  0  0
  -33.9858  -20.8385   20.6891 C   0  0  0  0  0  0  0  0  0  0  0  0
  -29.3195  -26.4997   19.0571 C   0  0  0  0  0  0  0  0  0  1  0  0
  -22.2218  -29.0565   23.7280 C   0  0  1  0  0  0  0  0  0  0  0  0
  -19.8066  -26.3601   22.6027 C   0  0  2  0  0  0  0  0  0  0  0  0
  -34.0621  -23.2852   20.1922 C   0  0  2  0  0  0  0  0  0  0  0  0
  -22.1327  -29.6564   25.1597 C   0  0  0  0  0  0  0  0  0  0  0  0
  -25.9954  -12.1312   21.1801 N   0  0  0  0  0  0  0  0  0  0  0  0
  -26.1214  -12.5206   19.9000 N   0  0  0  0  0  0  0  0  0  0  0  0
  -23.5579  -30.0369   21.8903 N   0  0  0  0  0  0  0  0  0  0  0  0
  -29.5274  -14.2643   19.9962 N   0  0  0  0  0  0  0  0  0  0  0  0
  -24.9176  -12.7753   17.8760 N   0  0  0  0  0  0  0  0  0  0  0  0
  -22.3060  -10.3970   19.2610 N   0  0  0  0  0  0  0  0  0  0  0  0
  -31.1867  -15.9347   19.8579 N   0  0  0  0  0  0  0  0  0  0  0  0
  -24.3259  -33.3196   21.9512 N   0  0  0  0  0  0  0  0  0  0  0  0
  -21.0553  -28.2737   23.3345 N   0  0  0  0  0  0  0  0  0  0  0  0
  -19.9535  -25.3491   21.5177 N   0  3  0  0  0  0  0  0  0  0  0  0
  -33.3896  -21.9824   19.9487 N   0  3  0  0  0  0  0  0  0  0  0  0
  -21.7550  -12.5455   19.8432 O   0  0  0  0  0  0  0  0  0  0  0  0
  -25.9226  -31.6290   22.0733 O   0  0  0  0  0  0  0  0  0  0  0  0
  -21.5263  -30.9836   22.5326 O   0  0  0  0  0  0  0  0  0  0  0  0
  -22.2016  -26.3020   22.9158 O   0  0  0  0  0  0  0  0  0  0  0  0
  -29.2765  -16.2567   21.1490 O   0  0  0  0  0  0  0  0  0  0  0  0
  -22.6284   -9.8884   26.0980 O   0  0  0  0  0  0  0  0  0  0  0  0
  -28.4117  -26.6521   20.1475 O   0  0  0  0  0  0  0  0  0  1  0  0
  -21.6731   -4.4756   26.5365 F   0  0  0  0  0  0  0  0  0  0  0  0
  -23.8989   -8.3761   28.0323 F   0  0  0  0  0  0  0  0  0  0  0  0
  -33.6369  -16.4246   18.6427 F   0  0  0  0  0  0  0  0  0  0  0  0
  1  2  1  0  0  0  0
  1  5  2  0  0  0  0
  2  6  2  0  0  0  0
  3  8  2  0  0  0  0
  3 16  1  0  0  0  0
  4  9  1  0  0  0  0
  4 16  2  0  0  0  0
  5 18  1  0  0  0  0
  6 20  1  0  0  0  0
  7 10  2  0  0  0  0
  7 19  1  0  0  0  0
  8 26  1  0  0  0  0
  9 26  2  0  0  0  0
 10 27  1  0  0  0  0
 11 12  2  0  0  0  0
 11 28  1  0  0  0  0
 12 29  1  0  0  0  0
 13 21  1  0  0  0  0
 13 27  2  0  0  0  0
 14 22  2  0  0  0  0
 14 25  1  0  0  0  0
 15 29  2  0  0  0  0
 15 30  1  0  0  0  0
 16 32  1  0  0  0  0
 17 32  1  0  0  0  0
 17 33  2  0  0  0  0
 17 34  1  0  0  0  0
 18 20  2  0  0  0  0
 18 39  1  0  0  0  0
 19 21  2  0  0  0  0
 19 40  1  0  0  0  0
 20 52  1  0  0  0  0
 21 41  1  0  0  0  0
 22 23  1  0  0  0  0
 22 57  1  0  0  0  0
 23 24  2  0  0  0  0
 23 65  1  0  0  0  0
 24 31  1  0  0  0  0
 24 58  1  0  0  0  0
 25 31  2  0  0  0  0
 25 77  1  0  0  0  0
 26 87  1  0  0  0  0
 27 88  1  0  0  0  0
 28 30  2  0  0  0  0
 28 87  1  0  0  0  0
 29 89  1  0  0  0  0
 30 90  1  0  0  0  0
 31 91  1  0  0  0  0
 32 71  2  0  0  0  0
 33 72  1  0  0  0  0
 33 75  1  0  0  0  0
 34 76  1  0  0  0  0
 34 82  2  0  0  0  0
 35 53  1  0  0  0  0
 35 78  1  0  0  0  0
 35 83  2  0  0  0  0
 36 67  1  0  0  0  0
 36 73  1  0  0  0  0
 36 84  2  0  0  0  0
 37 68  1  0  0  0  0
 37 79  1  0  0  0  0
 37 85  2  0  0  0  0
 38 74  1  0  0  0  0
 38 77  1  0  0  0  0
 38 86  2  0  0  0  0
 39 42  1  0  0  0  0
 40 53  1  0  0  0  0
 41 73  1  0  0  0  0
 42 44  1  0  0  0  0
 43 49  1  0  0  0  0
 43 50  1  0  0  0  0
 44 52  1  0  0  0  0
 45 47  1  0  0  0  0
 45 54  1  0  0  0  0
 46 48  1  0  0  0  0
 46 54  1  0  0  0  0
 47 55  1  0  0  0  0
 48 55  1  0  0  0  0
 49 56  1  0  0  0  0
 50 74  1  0  0  0  0
 51 56  1  0  0  0  0
 51 74  1  0  0  0  0
 52 78  1  0  0  0  0
 53 73  1  0  0  0  0
 54 66  1  0  0  0  0
 55 69  1  0  0  0  0
 56 72  1  0  0  0  0
 59 68  1  0  0  0  0
 60 69  1  0  0  0  0
 61 70  1  0  0  0  0
 62 70  1  0  0  0  0
 63 70  1  0  0  0  0
 64 80  1  0  0  0  0
 65 81  1  0  0  0  0
 66 88  1  0  0  0  0
 67 70  1  0  0  0  0
 67 79  1  0  0  0  0
 68 80  1  0  0  0  0
 69 81  1  0  0  0  0
 71 72  1  0  0  0  0
M  CHG  2  80   1  81   1
M  ISO  4  38 100  66 101  77 100  88 101
M  END
> <Batch ID>
0025

> <Smiles>
CNC(C)C(=O)NC(C(=O)N1Cc2cc([101O:1][101CH2:1]C3CCC(C(C)NCc4c(C)cc([100NH:0][100C:0](=O)N5CCCC(n6nc(-c7ccc(Oc8ccc(F)cc8F)cc7)c(C(N)=O)c6N)C5)c(F)c4C)CC3)ccc2CC1C(=O)NC1CCCc2ccccc21)C(C)(C)C

> <Shape>
0.272

> <Color>
0.094

> <Negative vol penalty>
0.000

$$$$

  -OEChem-04052316242D

  0  0  0     0  0  0  0  0  0999 V2000
M  END
$$$$

  -OEChem-04052316243D

 90 98  0     1  0  0  0  0  0999 V2000
  -19.8739   -7.3491    6.2744 C   0  0  0  0  0  0  0  0  0  0  0  0
  -19.1253   -8.0235    7.2337 C   0  0  0  0  0  0  0  0  0  0  0  0
  -23.0717   -9.8712   19.9434 C   0  0  0  0  0  0  0  0  0  0  0  0
  -23.8343   -9.8784   22.2358 C   0  0  0  0  0  0  0  0  0  0  0  0
  -20.9370   -6.5365    6.6661 C   0  0  0  0  0  0  0  0  0  0  0  0
  -19.4387   -7.8848    8.5853 C   0  0  0  0  0  0  0  0  0  0  0  0
  -21.1381  -13.3414   13.9111 C   0  0  0  0  0  0  0  0  0  0  0  0
  -22.3279   -8.7183   20.1944 C   0  0  0  0  0  0  0  0  0  0  0  0
  -23.0905   -8.7255   22.4869 C   0  0  0  0  0  0  0  0  0  0  0  0
  -21.6071  -14.2020   14.9039 C   0  0  0  0  0  0  0  0  0  0  0  0
  -20.5130   -5.5676   20.1387 C   0  0  0  0  0  0  0  0  0  0  0  0
  -20.5750   -4.5370   19.2008 C   0  0  0  0  0  0  0  0  0  0  0  0
  -22.8157  -12.3762   15.9305 C   0  0  0  0  0  0  0  0  0  0  0  0
  -22.9602   -4.3665   19.5457 C   0  0  0  0  0  0  0  0  0  0  0  0
  -23.8250  -10.4513   20.9641 C   0  0  0  0  0  0  0  0  0  0  0  0
  -24.1671  -12.9764   20.8432 C   0  0  0  0  0  0  0  0  0  0  0  0
  -21.2697   -6.3954    8.0226 C   0  0  0  0  0  0  0  0  0  0  0  0
  -21.5190  -11.9967   13.9155 C   0  0  0  0  0  0  0  0  0  0  0  0
  -20.5064   -7.0685    8.9956 C   0  0  0  0  0  0  0  0  0  0  0  0
  -22.3591  -11.5122   14.9316 C   0  0  0  0  0  0  0  0  0  0  0  0
  -26.8853  -18.2449   18.0538 C   0  0  0  0  0  0  0  0  0  0  0  0
  -27.4583  -19.1449   18.9858 C   0  0  0  0  0  0  0  0  0  0  0  0
  -22.3373   -8.1454   21.4662 C   0  0  0  0  0  0  0  0  0  0  0  0
  -22.4436  -13.7205   15.9112 C   0  0  0  0  0  0  0  0  0  0  0  0
  -21.6747   -5.9977   20.7801 C   0  0  0  0  0  0  0  0  0  0  0  0
  -21.7985   -3.9364   18.9044 C   0  0  0  0  0  0  0  0  0  0  0  0
  -22.8982   -5.3971   20.4836 C   0  0  0  0  0  0  0  0  0  0  0  0
  -24.5939  -11.6420   20.7052 C   0  0  0  0  0  0  0  0  0  0  0  0
  -25.5650  -18.6035   17.8939 C   0  0  0  0  0  0  0  0  0  0  0  0
  -25.2590  -13.7256   20.4785 C   0  0  0  0  0  0  0  0  0  0  0  0
  -26.4707  -20.0260   19.3674 C   0  0  0  0  0  0  0  0  0  0  0  0
  -22.8972  -13.4925   21.2636 C   0  0  0  0  0  0  0  0  0  0  0  0
  -21.2986   -8.6463   12.2414 C   0  0  0  0  0  0  0  0  0  0  0  0
  -24.2079   -9.0000   13.1476 C   0  0  0  0  0  0  0  0  0  0  0  0
  -27.3878   -9.9561   13.9296 C   0  0  0  0  0  0  0  0  0  0  0  0
  -30.7431  -14.7436   20.6600 C   0  0  0  0  0  0  0  0  0  0  0  0
  -22.3978   -5.4686    8.4007 C   0  0  0  0  0  0  0  0  0  0  0  0
  -20.9885  -11.0202   12.9012 C   0  0  0  0  0  0  0  0  0  0  0  0
  -22.7148  -10.0507   14.9159 C   0  0  0  0  0  0  0  0  0  0  0  0
  -22.8998   -5.6708    9.8281 C   0  0  0  0  0  0  0  0  0  0  0  0
  -29.6022  -12.3590   18.2750 C   0  0  0  0  0  0  0  0  0  0  0  0
  -21.7266   -5.7624   10.7987 C   0  0  0  0  0  0  0  0  0  0  0  0
  -28.1652  -12.0656   18.7097 C   0  0  0  0  0  0  0  0  0  0  0  0
  -30.5208  -12.5798   19.4748 C   0  0  0  0  0  0  0  0  0  0  0  0
  -28.6209  -13.3114   20.8636 C   0  0  0  0  0  0  0  0  0  0  0  0
  -20.8310   -6.9630   10.4699 C   0  0  1  0  0  0  0  0  0  0  0  0
  -22.0119   -9.9383   12.5122 C   0  0  1  0  0  0  0  0  0  0  0  0
  -27.6453  -13.1369   19.6871 C   0  0  2  0  0  0  0  0  0  0  0  0
  -27.5742  -17.1271   17.3763 C   0  0  0  0  0  0  0  0  0  0  0  0
  -29.7601   -9.1399   13.8736 C   0  0  0  0  0  0  0  0  0  0  0  0
  -30.4158  -17.2867   23.3170 C   0  0  0  0  0  0  0  0  0  0  0  0
  -23.6494   -7.2223   15.5625 C   0  0  0  0  0  0  0  0  0  0  0  0
  -26.1091   -7.2047   16.0292 C   0  0  0  0  0  0  0  0  0  0  0  0
  -25.2394   -6.2489   13.8955 C   0  0  0  0  0  0  0  0  0  0  0  0
  -22.9754  -19.3633   19.3106 C   0  0  0  0  0  0  0  0  0  0  0  0
  -23.6275  -20.9169   17.4289 C   0  0  0  0  0  0  0  0  0  0  0  0
  -24.0444  -21.5534   19.7933 C   0  0  0  0  0  0  0  0  0  0  0  0
  -28.2233  -12.1524   12.1304 C   0  0  0  0  0  0  0  0  0  0  0  0
  -28.8577  -19.1388   19.4607 C   0  0  0  0  0  0  0  0  0  0  0  0
  -24.4918  -17.9943   17.0275 C   0  0  0  0  0  0  0  0  0  0  0  0
  -24.2230  -16.5179   17.3267 C   0  0  0  0  0  0  0  0  0  0  0  0
  -30.5779  -18.0049   20.8729 C   0  0  0  0  0  0  0  0  0  0  0  0
  -23.0788  -15.9341   16.5060 C   0  0  0  0  0  0  0  0  0  1  0  0
  -25.2365   -8.7559   14.2226 C   0  0  1  0  0  0  0  0  0  0  0  0
  -28.6786   -9.9101   13.1321 C   0  0  2  0  0  0  0  0  0  0  0  0
  -30.8109  -16.8944   21.8965 C   0  0  2  0  0  0  0  0  0  0  0  0
  -25.0444   -7.3825   14.9258 C   0  0  0  0  0  0  0  0  0  0  0  0
  -24.0446  -20.3586   18.8078 C   0  0  0  0  0  0  0  0  0  0  0  0
  -25.8583  -11.5459   20.2854 N   0  0  0  0  0  0  0  0  0  0  0  0
  -25.3241  -19.6872   18.6975 N   0  0  0  0  0  0  0  0  0  0  0  0
  -26.2353  -12.8293   20.1564 N   0  0  0  0  0  0  0  0  0  0  0  0
  -23.0168   -9.6218   13.5413 N   0  0  0  0  0  0  0  0  0  0  0  0
  -29.9715  -13.6086   20.3612 N   0  0  0  0  0  0  0  0  0  0  0  0
  -25.4695  -15.0570   20.4050 N   0  0  0  0  0  0  0  0  0  0  0  0
  -21.8856  -12.5836   21.6023 N   0  0  0  0  0  0  0  0  0  0  0  0
  -21.4354   -8.1893   10.9446 N   0  0  0  0  0  0  0  0  0  0  0  0
  -26.5390   -8.9248   13.5873 N   0  0  0  0  0  0  0  0  0  0  0  0
  -30.1452  -15.6727   21.5027 N   0  0  0  0  0  0  0  0  0  0  0  0
  -29.1777  -11.2905   12.8742 N   0  3  0  0  0  0  0  0  0  0  0  0
  -29.1599  -18.0488   20.4375 N   0  3  0  0  0  0  0  0  0  0  0  0
  -22.6613  -14.7232   21.3211 O   0  0  0  0  0  0  0  0  0  0  0  0
  -20.6711   -8.1022   13.1425 O   0  0  0  0  0  0  0  0  0  0  0  0
  -24.4490   -8.6449   11.9904 O   0  0  0  0  0  0  0  0  0  0  0  0
  -27.1572  -10.8184   14.7745 O   0  0  0  0  0  0  0  0  0  0  0  0
  -31.8786  -14.9188   20.2050 O   0  0  0  0  0  0  0  0  0  0  0  0
  -21.6114   -7.0205   21.7116 O   0  0  0  0  0  0  0  0  0  0  0  0
  -22.9015  -14.5670   16.8747 O   0  0  0  0  0  0  0  0  0  1  0  0
  -21.8576   -2.9457   18.0048 F   0  0  0  0  0  0  0  0  0  0  0  0
  -24.0174   -5.8053   21.0974 F   0  0  0  0  0  0  0  0  0  0  0  0
  -26.4909  -21.3398   20.4481 Cl  0  0  0  0  0  0  0  0  0  0  0  0
  1  2  1  0  0  0  0
  1  5  2  0  0  0  0
  2  6  2  0  0  0  0
  3  8  2  0  0  0  0
  3 15  1  0  0  0  0
  4  9  1  0  0  0  0
  4 15  2  0  0  0  0
  5 17  1  0  0  0  0
  6 19  1  0  0  0  0
  7 10  2  0  0  0  0
  7 18  1  0  0  0  0
  8 23  1  0  0  0  0
  9 23  2  0  0  0  0
 10 24  1  0  0  0  0
 11 12  2  0  0  0  0
 11 25  1  0  0  0  0
 12 26  1  0  0  0  0
 13 20  1  0  0  0  0
 13 24  2  0  0  0  0
 14 26  2  0  0  0  0
 14 27  1  0  0  0  0
 15 28  1  0  0  0  0
 16 28  1  0  0  0  0
 16 30  2  0  0  0  0
 16 32  1  0  0  0  0
 17 19  2  0  0  0  0
 17 37  1  0  0  0  0
 18 20  2  0  0  0  0
 18 38  1  0  0  0  0
 19 46  1  0  0  0  0
 20 39  1  0  0  0  0
 21 22  1  0  0  0  0
 21 29  2  0  0  0  0
 21 49  1  0  0  0  0
 22 31  2  0  0  0  0
 22 59  1  0  0  0  0
 23 86  1  0  0  0  0
 24 87  1  0  0  0  0
 25 27  2  0  0  0  0
 25 86  1  0  0  0  0
 26 88  1  0  0  0  0
 27 89  1  0  0  0  0
 28 69  2  0  0  0  0
 29 60  1  0  0  0  0
 29 70  1  0  0  0  0
 30 71  1  0  0  0  0
 30 74  1  0  0  0  0
 31 70  1  0  0  0  0
 31 90  1  0  0  0  0
 32 75  1  0  0  0  0
 32 81  2  0  0  0  0
 33 47  1  0  0  0  0
 33 76  1  0  0  0  0
 33 82  2  0  0  0  0
 34 64  1  0  0  0  0
 34 72  1  0  0  0  0
 34 83  2  0  0  0  0
 35 65  1  0  0  0  0
 35 77  1  0  0  0  0
 35 84  2  0  0  0  0
 36 73  1  0  0  0  0
 36 78  1  0  0  0  0
 36 85  2  0  0  0  0
 37 40  1  0  0  0  0
 38 47  1  0  0  0  0
 39 72  1  0  0  0  0
 40 42  1  0  0  0  0
 41 43  1  0  0  0  0
 41 44  1  0  0  0  0
 42 46  1  0  0  0  0
 43 48  1  0  0  0  0
 44 73  1  0  0  0  0
 45 48  1  0  0  0  0
 45 73  1  0  0  0  0
 46 76  1  0  0  0  0
 47 72  1  0  0  0  0
 48 71  1  0  0  0  0
 50 65  1  0  0  0  0
 51 66  1  0  0  0  0
 52 67  1  0  0  0  0
 53 67  1  0  0  0  0
 54 67  1  0  0  0  0
 55 68  1  0  0  0  0
 56 68  1  0  0  0  0
 57 68  1  0  0  0  0
 58 79  1  0  0  0  0
 59 80  1  0  0  0  0
 60 61  1  0  0  0  0
 61 63  1  0  0  0  0
 62 66  1  0  0  0  0
 62 80  1  0  0  0  0
 63 87  1  0  0  0  0
 64 67  1  0  0  0  0
 64 77  1  0  0  0  0
 65 79  1  0  0  0  0
 66 78  1  0  0  0  0
 68 70  1  0  0  0  0
 69 71  1  0  0  0  0
M  CHG  2  79   1  80   1
M  ISO  4  36 100  63 101  78 100  87 101
M  END
> <Batch ID>
0025

> <Smiles>
CNC(C)C(=O)NC(C(=O)N1Cc2cc([101O:1][101CH2:1]CCc3c(C)c(CNCC(C)[100NH:0][100C:0](=O)N4CCCC(n5nc(-c6ccc(Oc7ccc(F)cc7F)cc6)c(C(N)=O)c5N)C4)c(Cl)n3C(C)(C)C)ccc2CC1C(=O)NC1CCCc2ccccc21)C(C)(C)C

> <Shape>
0.173

> <Color>
0.187

> <Negative vol penalty>
0.000

$$$$

  -OEChem-04052316243D

 94102  0     1  0  0  0  0  0999 V2000
  -24.4713  -23.1196   16.6904 C   0  0  0  0  0  0  0  0  0  0  0  0
  -25.2138  -21.9445   16.6611 C   0  0  0  0  0  0  0  0  0  0  0  0
  -22.3854  -28.8309   20.7029 C   0  0  0  0  0  0  0  0  0  0  0  0
  -23.3234  -26.9598   21.9096 C   0  0  0  0  0  0  0  0  0  0  0  0
  -23.5172  -23.3120   17.6873 C   0  0  0  0  0  0  0  0  0  0  0  0
  -24.9940  -20.9564   17.6214 C   0  0  0  0  0  0  0  0  0  0  0  0
  -27.3547  -16.6833   17.0122 C   0  0  0  0  0  0  0  0  0  0  0  0
  -21.1168  -28.5035   21.1813 C   0  0  0  0  0  0  0  0  0  0  0  0
  -22.0547  -26.6324   22.3880 C   0  0  0  0  0  0  0  0  0  0  0  0
  -28.7273  -16.5452   17.2136 C   0  0  0  0  0  0  0  0  0  0  0  0
  -19.3579  -28.8890   24.0433 C   0  0  0  0  0  0  0  0  0  0  0  0
  -18.5597  -29.9259   24.5262 C   0  0  0  0  0  0  0  0  0  0  0  0
  -28.3023  -15.4720   19.3318 C   0  0  0  0  0  0  0  0  0  0  0  0
  -31.7258  -23.5146   19.0618 C   0  0  0  0  0  0  0  0  0  0  0  0
  -16.8864  -29.4135   22.8605 C   0  0  0  0  0  0  0  0  0  0  0  0
  -23.4888  -28.0590   21.0670 C   0  0  0  0  0  0  0  0  0  0  0  0
  -31.5620  -22.7525   21.3486 C   0  0  0  0  0  0  0  0  0  0  0  0
  -25.7396  -29.2548   21.1734 C   0  0  0  0  0  0  0  0  0  0  0  0
  -23.2951  -22.3306   18.6674 C   0  0  0  0  0  0  0  0  0  0  0  0
  -26.4443  -16.2259   17.9757 C   0  0  0  0  0  0  0  0  0  0  0  0
  -24.0188  -21.1217   18.6215 C   0  0  0  0  0  0  0  0  0  0  0  0
  -26.9186  -15.6032   19.1391 C   0  0  0  0  0  0  0  0  0  0  0  0
  -30.4095  -23.1133   18.8338 C   0  0  0  0  0  0  0  0  0  0  0  0
  -20.9514  -27.4043   22.0239 C   0  0  0  0  0  0  0  0  0  0  0  0
  -29.2014  -15.9420   18.3749 C   0  0  0  0  0  0  0  0  0  0  0  0
  -18.9204  -28.1143   22.9689 C   0  0  0  0  0  0  0  0  0  0  0  0
  -17.3240  -30.1882   23.9348 C   0  0  0  0  0  0  0  0  0  0  0  0
  -17.6846  -28.3766   22.3776 C   0  0  0  0  0  0  0  0  0  0  0  0
  -32.3020  -23.3342   20.3192 C   0  0  0  0  0  0  0  0  0  0  0  0
  -30.2457  -22.3512   21.1206 C   0  0  0  0  0  0  0  0  0  0  0  0
  -29.6695  -22.5316   19.8631 C   0  0  0  0  0  0  0  0  0  0  0  0
  -24.7995  -28.3963   20.5726 C   0  0  0  0  0  0  0  0  0  0  0  0
  -26.8138  -29.2403   20.3176 C   0  0  0  0  0  0  0  0  0  0  0  0
  -32.1866  -22.5621   22.6830 C   0  0  0  0  0  0  0  0  0  0  0  0
  -25.6500  -29.9987   22.3958 C   0  0  0  0  0  0  0  0  0  0  0  0
  -24.2322  -17.5966   19.8009 C   0  0  0  0  0  0  0  0  0  0  0  0
  -23.5544  -14.5286   20.6073 C   0  0  0  0  0  0  0  0  0  0  0  0
  -24.6240  -11.2987   20.8721 C   0  0  0  0  0  0  0  0  0  0  0  0
  -28.7794  -25.2512   16.3083 C   0  0  0  0  0  0  0  0  0  0  0  0
  -22.2445  -22.5875   19.7188 C   0  0  0  0  0  0  0  0  0  0  0  0
  -24.9661  -16.3584   17.7311 C   0  0  0  0  0  0  0  0  0  0  0  0
  -25.9823  -15.0770   20.1949 C   0  0  0  0  0  0  0  0  0  0  0  0
  -22.3941  -21.6874   20.9410 C   0  0  0  0  0  0  0  0  0  0  0  0
  -27.9139  -28.6506   15.6989 C   0  0  0  0  0  0  0  0  0  0  0  0
  -22.5430  -20.2378   20.5039 C   0  0  0  0  0  0  0  0  0  0  0  0
  -27.1024  -29.0484   16.9330 C   0  0  0  0  0  0  0  0  0  0  0  0
  -27.6460  -27.2041   15.2894 C   0  0  0  0  0  0  0  0  0  0  0  0
  -27.0219  -26.6092   17.5982 C   0  0  0  0  0  0  0  0  0  0  0  0
  -23.8185  -20.0460   19.6737 C   0  0  1  0  0  0  0  0  0  0  0  0
  -24.1423  -16.3195   19.0145 C   0  0  1  0  0  0  0  0  0  0  0  0
  -27.3007  -28.0423   18.0827 C   0  0  2  0  0  0  0  0  0  0  0  0
  -23.8565   -9.0227   21.5990 C   0  0  0  0  0  0  0  0  0  0  0  0
  -23.8636  -15.3594   23.5269 C   0  0  0  0  0  0  0  0  0  0  0  0
  -24.0343  -12.9346   24.1263 C   0  0  0  0  0  0  0  0  0  0  0  0
  -21.9484  -13.8148   23.0790 C   0  0  0  0  0  0  0  0  0  0  0  0
  -25.0224  -10.1721   18.1645 C   0  0  0  0  0  0  0  0  0  0  0  0
  -35.4370  -15.6836   23.2005 C   0  0  0  0  0  0  0  0  0  0  0  0
  -29.8378  -23.3297   17.4689 C   0  0  0  0  0  0  0  0  0  0  0  0
  -34.0839  -19.6126   24.1089 C   0  0  0  0  0  0  0  0  0  0  0  0
  -35.1831  -19.4886   23.0470 C   0  0  0  0  0  0  0  0  0  0  0  0
  -32.9692  -16.4338   21.3792 C   0  0  0  0  0  0  0  0  0  0  0  0
  -32.4178  -16.3757   19.9566 C   0  0  0  0  0  0  0  0  0  0  0  0
  -33.4552  -21.0028   24.1375 C   0  0  0  0  0  0  0  0  0  0  0  0
  -35.8745  -18.1303   23.0491 C   0  0  0  0  0  0  0  0  0  0  0  0
  -34.3685  -17.0306   21.3988 C   0  0  0  0  0  0  0  0  0  0  0  0
  -31.0009  -15.8203   19.9250 C   0  0  0  0  0  0  0  0  0  1  0  0
  -24.0346  -13.5719   21.6717 C   0  0  1  0  0  0  0  0  0  0  0  0
  -23.9933   -9.9895   20.4331 C   0  0  2  0  0  0  0  0  0  0  0  0
  -23.4882  -13.9317   23.0822 C   0  0  0  0  0  0  0  0  0  0  0  0
  -25.2378  -27.8746   19.4238 N   0  0  0  0  0  0  0  0  0  0  0  0
  -26.4652  -28.4068   19.2959 N   0  0  0  0  0  0  0  0  0  0  0  0
  -24.5461  -15.2357   19.9127 N   0  0  0  0  0  0  0  0  0  0  0  0
  -27.8534  -26.3010   16.4240 N   0  0  0  0  0  0  0  0  0  0  0  0
  -28.0131  -29.8594   20.3469 N   0  0  0  0  0  0  0  0  0  0  0  0
  -24.4752  -29.8995   23.1537 N   0  0  0  0  0  0  0  0  0  0  0  0
  -32.8257  -21.3451   22.8921 N   0  0  0  0  0  0  0  0  0  0  0  0
  -23.8164  -18.7160   19.1055 N   0  0  0  0  0  0  0  0  0  0  0  0
  -23.6714  -12.2354   21.2133 N   0  0  0  0  0  0  0  0  0  0  0  0
  -28.9196  -24.4461   17.4321 N   0  0  0  0  0  0  0  0  0  0  0  0
  -24.8251   -9.3412   19.3801 N   0  3  0  0  0  0  0  0  0  0  0  0
  -34.8794  -17.0250   22.7908 N   0  3  1  0  0  0  0  0  0  0  0  0
  -32.0940  -23.4545   23.5218 O   0  0  0  0  0  0  0  0  0  0  0  0
  -26.5776  -30.7426   22.7956 O   0  0  0  0  0  0  0  0  0  0  0  0
  -24.6467  -17.5684   20.9538 O   0  0  0  0  0  0  0  0  0  0  0  0
  -22.3443  -14.6390   20.3948 O   0  0  0  0  0  0  0  0  0  0  0  0
  -25.8401  -11.4717   20.9122 O   0  0  0  0  0  0  0  0  0  0  0  0
  -29.4366  -25.0497   15.2814 O   0  0  0  0  0  0  0  0  0  0  0  0
  -19.7136  -27.0847   22.4911 O   0  0  0  0  0  0  0  0  0  0  0  0
  -30.5407  -15.8065   18.5743 O   0  0  0  0  0  0  0  0  0  1  0  0
  -16.5569  -31.1830   24.3997 F   0  0  0  0  0  0  0  0  0  0  0  0
  -17.2584  -27.6350   21.3460 F   0  0  0  0  0  0  0  0  0  0  0  0
  -33.9358  -23.8488   20.5512 Cl  0  0  0  0  0  0  0  0  0  0  0  0
  -29.3400  -21.6277   22.4165 Cl  0  0  0  0  0  0  0  0  0  0  0  0
  -28.0325  -22.0473   19.5453 Cl  0  0  0  0  0  0  0  0  0  0  0  0
  1  2  1  0  0  0  0
  1  5  2  0  0  0  0
  2  6  2  0  0  0  0
  3  8  2  0  0  0  0
  3 16  1  0  0  0  0
  4  9  1  0  0  0  0
  4 16  2  0  0  0  0
  5 19  1  0  0  0  0
  6 21  1  0  0  0  0
  7 10  2  0  0  0  0
  7 20  1  0  0  0  0
  8 24  1  0  0  0  0
  9 24  2  0  0  0  0
 10 25  1  0  0  0  0
 11 12  2  0  0  0  0
 11 26  1  0  0  0  0
 12 27  1  0  0  0  0
 13 22  1  0  0  0  0
 13 25  2  0  0  0  0
 14 23  1  0  0  0  0
 14 29  2  0  0  0  0
 15 27  2  0  0  0  0
 15 28  1  0  0  0  0
 16 32  1  0  0  0  0
 17 29  1  0  0  0  0
 17 30  2  0  0  0  0
 17 34  1  0  0  0  0
 18 32  1  0  0  0  0
 18 33  2  0  0  0  0
 18 35  1  0  0  0  0
 19 21  2  0  0  0  0
 19 40  1  0  0  0  0
 20 22  2  0  0  0  0
 20 41  1  0  0  0  0
 21 49  1  0  0  0  0
 22 42  1  0  0  0  0
 23 31  2  0  0  0  0
 23 58  1  0  0  0  0
 24 88  1  0  0  0  0
 25 89  1  0  0  0  0
 26 28  2  0  0  0  0
 26 88  1  0  0  0  0
 27 90  1  0  0  0  0
 28 91  1  0  0  0  0
 29 92  1  0  0  0  0
 30 31  1  0  0  0  0
 30 93  1  0  0  0  0
 31 94  1  0  0  0  0
 32 70  2  0  0  0  0
 33 71  1  0  0  0  0
 33 74  1  0  0  0  0
 34 76  1  0  0  0  0
 34 82  2  0  0  0  0
 35 75  1  0  0  0  0
 35 83  2  0  0  0  0
 36 50  1  0  0  0  0
 36 77  1  0  0  0  0
 36 84  2  0  0  0  0
 37 67  1  0  0  0  0
 37 72  1  0  0  0  0
 37 85  2  0  0  0  0
 38 68  1  0  0  0  0
 38 78  1  0  0  0  0
 38 86  2  0  0  0  0
 39 73  1  0  0  0  0
 39 79  1  0  0  0  0
 39 87  2  0  0  0  0
 40 43  1  0  0  0  0
 41 50  1  0  0  0  0
 42 72  1  0  0  0  0
 43 45  1  0  0  0  0
 44 46  1  0  0  0  0
 44 47  1  0  0  0  0
 45 49  1  0  0  0  0
 46 51  1  0  0  0  0
 47 73  1  0  0  0  0
 48 51  1  0  0  0  0
 48 73  1  0  0  0  0
 49 77  1  0  0  0  0
 50 72  1  0  0  0  0
 51 71  1  0  0  0  0
 52 68  1  0  0  0  0
 53 69  1  0  0  0  0
 54 69  1  0  0  0  0
 55 69  1  0  0  0  0
 56 80  1  0  0  0  0
 57 81  1  0  0  0  0
 58 79  1  0  0  0  0
 59 60  1  0  0  0  0
 59 63  1  0  0  0  0
 60 64  1  0  0  0  0
 61 62  1  0  0  0  0
 61 65  1  0  0  0  0
 62 66  1  0  0  0  0
 63 76  1  0  0  0  0
 64 81  1  0  0  0  0
 65 81  1  0  0  0  0
 66 89  1  0  0  0  0
 67 69  1  0  0  0  0
 67 78  1  0  0  0  0
 68 80  1  0  0  0  0
 70 71  1  0  0  0  0
M  CHG  2  80   1  81   1
M  ISO  4  39 100  66 101  79 100  89 101
M  END
> <Batch ID>
0025

> <Smiles>
CNC(C)C(=O)NC(C(=O)N1Cc2cc([101O:1][101CH2:1]CCCN(C)CCCCNC(=O)c3c(Cl)cc(C[100NH:0][100C:0](=O)N4CCCC(n5nc(-c6ccc(Oc7ccc(F)cc7F)cc6)c(C(N)=O)c5N)C4)c(Cl)c3Cl)ccc2CC1C(=O)NC1CCCc2ccccc21)C(C)(C)C

> <Shape>
0.216

> <Color>
0.065

> <Negative vol penalty>
0.000

$$$$

  -OEChem-04052316243D

 84 92  0     1  0  0  0  0  0999 V2000
  -27.3416  -19.2225   38.7917 C   0  0  0  0  0  0  0  0  0  0  0  0
  -27.8609  -18.8555   37.5543 C   0  0  0  0  0  0  0  0  0  0  0  0
  -23.0755   -9.8679   19.9405 C   0  0  0  0  0  0  0  0  0  0  0  0
  -23.8345   -9.8748   22.2341 C   0  0  0  0  0  0  0  0  0  0  0  0
  -26.5098  -20.3367   38.8946 C   0  0  0  0  0  0  0  0  0  0  0  0
  -27.5477  -19.6019   36.4189 C   0  0  0  0  0  0  0  0  0  0  0  0
  -31.1907  -20.7125   31.6229 C   0  0  0  0  0  0  0  0  0  0  0  0
  -22.3313   -8.7150   20.1902 C   0  0  0  0  0  0  0  0  0  0  0  0
  -23.0903   -8.7218   22.4839 C   0  0  0  0  0  0  0  0  0  0  0  0
  -31.2899  -20.1221   30.3638 C   0  0  0  0  0  0  0  0  0  0  0  0
  -19.8618   -7.9247   23.0853 C   0  0  0  0  0  0  0  0  0  0  0  0
  -19.1044   -7.8849   24.2559 C   0  0  0  0  0  0  0  0  0  0  0  0
  -29.8680  -21.8439   29.4512 C   0  0  0  0  0  0  0  0  0  0  0  0
  -32.2459  -18.1895   23.1585 C   0  0  0  0  0  0  0  0  0  0  0  0
  -20.3451   -5.9472   24.9928 C   0  0  0  0  0  0  0  0  0  0  0  0
  -23.8272  -10.4478   20.9624 C   0  0  0  0  0  0  0  0  0  0  0  0
  -24.1696  -12.9729   20.8425 C   0  0  0  0  0  0  0  0  0  0  0  0
  -26.1940  -21.1028   37.7615 C   0  0  0  0  0  0  0  0  0  0  0  0
  -30.4193  -21.8688   31.8081 C   0  0  0  0  0  0  0  0  0  0  0  0
  -26.7098  -20.7266   36.5065 C   0  0  0  0  0  0  0  0  0  0  0  0
  -29.7628  -22.4485   30.7131 C   0  0  0  0  0  0  0  0  0  0  0  0
  -31.5864  -19.3758   22.8374 C   0  0  0  0  0  0  0  0  0  0  0  0
  -30.4264  -19.3415   22.0634 C   0  0  0  0  0  0  0  0  0  0  0  0
  -30.5856  -16.9343   21.9317 C   0  0  0  0  0  0  0  0  0  0  0  0
  -22.3386   -8.1419   21.4619 C   0  0  0  0  0  0  0  0  0  0  0  0
  -30.6261  -20.6862   29.2783 C   0  0  0  0  0  0  0  0  0  0  0  0
  -20.8608   -6.9757   22.8683 C   0  0  0  0  0  0  0  0  0  0  0  0
  -19.3461   -6.8963   25.2097 C   0  0  0  0  0  0  0  0  0  0  0  0
  -21.1025   -5.9870   23.8221 C   0  0  0  0  0  0  0  0  0  0  0  0
  -31.7456  -16.9687   22.7056 C   0  0  0  0  0  0  0  0  0  0  0  0
  -29.9260  -18.1207   21.6106 C   0  0  0  0  0  0  0  0  0  0  0  0
  -24.5966  -11.6385   20.7050 C   0  0  0  0  0  0  0  0  0  0  0  0
  -25.2620  -13.7222   20.4796 C   0  0  0  0  0  0  0  0  0  0  0  0
  -22.8991  -13.4890   21.2610 C   0  0  0  0  0  0  0  0  0  0  0  0
  -27.8514  -22.5997   33.5331 C   0  0  0  0  0  0  0  0  0  0  0  0
  -28.4567  -25.5964   32.4489 C   0  0  0  0  0  0  0  0  0  0  0  0
  -29.8792  -27.5833   30.0666 C   0  0  0  0  0  0  0  0  0  0  0  0
  -30.7284  -14.7666   20.6562 C   0  0  0  0  0  0  0  0  0  0  0  0
  -25.2525  -22.2711   37.9143 C   0  0  0  0  0  0  0  0  0  0  0  0
  -30.3442  -22.5086   33.1673 C   0  0  0  0  0  0  0  0  0  0  0  0
  -28.9384  -23.7010   30.8550 C   0  0  0  0  0  0  0  0  0  0  0  0
  -25.2714  -23.2282   36.7253 C   0  0  0  0  0  0  0  0  0  0  0  0
  -29.6143  -12.3530   18.2876 C   0  0  0  0  0  0  0  0  0  0  0  0
  -25.2014  -22.4520   35.4140 C   0  0  0  0  0  0  0  0  0  0  0  0
  -28.1744  -12.0617   18.7167 C   0  0  0  0  0  0  0  0  0  0  0  0
  -30.5290  -12.5816   19.4895 C   0  0  0  0  0  0  0  0  0  0  0  0
  -28.6217  -13.3065   20.8701 C   0  0  0  0  0  0  0  0  0  0  0  0
  -26.4131  -21.5256   35.2560 C   0  0  1  0  0  0  0  0  0  0  0  0
  -29.1136  -23.3927   33.3443 C   0  0  1  0  0  0  0  0  0  0  0  0
  -27.6493  -13.1334   19.6920 C   0  0  2  0  0  0  0  0  0  0  0  0
  -29.7362  -20.6283   21.7305 C   0  0  0  0  0  0  0  0  0  0  0  0
  -30.1750  -29.9928   29.4308 C   0  0  0  0  0  0  0  0  0  0  0  0
  -25.5699  -25.6888   31.4653 C   0  0  0  0  0  0  0  0  0  0  0  0
  -26.1903  -27.6546   30.0444 C   0  0  0  0  0  0  0  0  0  0  0  0
  -26.3782  -27.8037   32.5273 C   0  0  0  0  0  0  0  0  0  0  0  0
  -32.8261  -27.3937   30.2628 C   0  0  0  0  0  0  0  0  0  0  0  0
  -32.1503  -20.6810   23.3396 C   0  0  0  0  0  0  0  0  0  0  0  0
  -31.3836  -21.2701   24.5289 C   0  0  0  0  0  0  0  0  0  0  0  0
  -31.4303  -20.3798   25.7715 C   0  0  0  0  0  0  0  0  0  0  0  0
  -30.6259  -20.9774   26.9179 C   0  0  0  0  0  0  0  0  0  1  0  0
  -28.0415  -26.4003   31.2405 C   0  0  1  0  0  0  0  0  0  0  0  0
  -30.7692  -28.8081   30.1765 C   0  0  2  0  0  0  0  0  0  0  0  0
  -26.5588  -26.8621   31.3167 C   0  0  0  0  0  0  0  0  0  0  0  0
  -25.8616  -11.5424   20.2871 N   0  0  0  0  0  0  0  0  0  0  0  0
  -26.2388  -12.8259   20.1589 N   0  0  0  0  0  0  0  0  0  0  0  0
  -28.8905  -24.2856   32.2054 N   0  0  0  0  0  0  0  0  0  0  0  0
  -29.9700  -13.6126   20.3667 N   0  0  0  0  0  0  0  0  0  0  0  0
  -25.4727  -15.0536   20.4066 N   0  0  0  0  0  0  0  0  0  0  0  0
  -21.8868  -12.5801   21.5979 N   0  0  0  0  0  0  0  0  0  0  0  0
  -30.0809  -15.6918   21.4744 N   0  0  0  0  0  0  0  0  0  0  0  0
  -27.5781  -22.2820   34.8498 N   0  0  0  0  0  0  0  0  0  0  0  0
  -29.0024  -27.4922   31.1268 N   0  0  0  0  0  0  0  0  0  0  0  0
  -32.1165  -28.5222   29.6072 N   0  3  0  0  0  0  0  0  0  0  0  0
  -22.6631  -14.7197   21.3182 O   0  0  0  0  0  0  0  0  0  0  0  0
  -27.1747  -22.2995   32.5565 O   0  0  0  0  0  0  0  0  0  0  0  0
  -28.4050  -26.1149   33.5671 O   0  0  0  0  0  0  0  0  0  0  0  0
  -29.9517  -26.7889   29.1315 O   0  0  0  0  0  0  0  0  0  0  0  0
  -31.8577  -14.9351   20.1890 O   0  0  0  0  0  0  0  0  0  0  0  0
  -21.6124   -7.0170   21.7060 O   0  0  0  0  0  0  0  0  0  0  0  0
  -30.7207  -20.1116   28.0483 O   0  0  0  0  0  0  0  0  0  1  0  0
  -18.6197   -6.8591   26.3345 F   0  0  0  0  0  0  0  0  0  0  0  0
  -22.0617   -5.0733   23.6198 F   0  0  0  0  0  0  0  0  0  0  0  0
  -32.5988  -15.5266   23.1301 Cl  0  0  0  0  0  0  0  0  0  0  0  0
  -28.4823  -18.0869   20.6479 Cl  0  0  0  0  0  0  0  0  0  0  0  0
  1  2  1  0  0  0  0
  1  5  2  0  0  0  0
  2  6  2  0  0  0  0
  3  8  2  0  0  0  0
  3 16  1  0  0  0  0
  4  9  1  0  0  0  0
  4 16  2  0  0  0  0
  5 18  1  0  0  0  0
  6 20  1  0  0  0  0
  7 10  2  0  0  0  0
  7 19  1  0  0  0  0
  8 25  1  0  0  0  0
  9 25  2  0  0  0  0
 10 26  1  0  0  0  0
 11 12  2  0  0  0  0
 11 27  1  0  0  0  0
 12 28  1  0  0  0  0
 13 21  1  0  0  0  0
 13 26  2  0  0  0  0
 14 22  1  0  0  0  0
 14 30  2  0  0  0  0
 15 28  2  0  0  0  0
 15 29  1  0  0  0  0
 16 32  1  0  0  0  0
 17 32  1  0  0  0  0
 17 33  2  0  0  0  0
 17 34  1  0  0  0  0
 18 20  2  0  0  0  0
 18 39  1  0  0  0  0
 19 21  2  0  0  0  0
 19 40  1  0  0  0  0
 20 48  1  0  0  0  0
 21 41  1  0  0  0  0
 22 23  2  0  0  0  0
 22 57  1  0  0  0  0
 23 31  1  0  0  0  0
 23 51  1  0  0  0  0
 24 30  1  0  0  0  0
 24 31  2  0  0  0  0
 24 70  1  0  0  0  0
 25 79  1  0  0  0  0
 26 80  1  0  0  0  0
 27 29  2  0  0  0  0
 27 79  1  0  0  0  0
 28 81  1  0  0  0  0
 29 82  1  0  0  0  0
 30 83  1  0  0  0  0
 31 84  1  0  0  0  0
 32 64  2  0  0  0  0
 33 65  1  0  0  0  0
 33 68  1  0  0  0  0
 34 69  1  0  0  0  0
 34 74  2  0  0  0  0
 35 49  1  0  0  0  0
 35 71  1  0  0  0  0
 35 75  2  0  0  0  0
 36 61  1  0  0  0  0
 36 66  1  0  0  0  0
 36 76  2  0  0  0  0
 37 62  1  0  0  0  0
 37 72  1  0  0  0  0
 37 77  2  0  0  0  0
 38 67  1  0  0  0  0
 38 70  1  0  0  0  0
 38 78  2  0  0  0  0
 39 42  1  0  0  0  0
 40 49  1  0  0  0  0
 41 66  1  0  0  0  0
 42 44  1  0  0  0  0
 43 45  1  0  0  0  0
 43 46  1  0  0  0  0
 44 48  1  0  0  0  0
 45 50  1  0  0  0  0
 46 67  1  0  0  0  0
 47 50  1  0  0  0  0
 47 67  1  0  0  0  0
 48 71  1  0  0  0  0
 49 66  1  0  0  0  0
 50 65  1  0  0  0  0
 52 62  1  0  0  0  0
 53 63  1  0  0  0  0
 54 63  1  0  0  0  0
 55 63  1  0  0  0  0
 56 73  1  0  0  0  0
 57 58  1  0  0  0  0
 58 59  1  0  0  0  0
 59 60  1  0  0  0  0
 60 80  1  0  0  0  0
 61 63  1  0  0  0  0
 61 72  1  0  0  0  0
 62 73  1  0  0  0  0
 64 65  1  0  0  0  0
M  CHG  1  73   1
M  ISO  4  38 100  60 101  70 100  80 101
M  END
> <Batch ID>
0025

> <Smiles>
CNC(C)C(=O)NC(C(=O)N1Cc2cc([101O:1][101CH2:1]CCCc3cc(Cl)c([100NH:0][100C:0](=O)N4CCCC(n5nc(-c6ccc(Oc7ccc(F)cc7F)cc6)c(C(N)=O)c5N)C4)c(Cl)c3C)ccc2CC1C(=O)NC1CCCc2ccccc21)C(C)(C)C

> <Shape>
0.183

> <Color>
0.200

> <Negative vol penalty>
0.000

$$$$

  -OEChem-04052316243D

 89 97  0     1  0  0  0  0  0999 V2000
  -29.3311  -23.1607   16.9209 C   0  0  0  0  0  0  0  0  0  0  0  0
  -28.5117  -23.1894   18.0448 C   0  0  0  0  0  0  0  0  0  0  0  0
  -23.0017   -9.8932   19.9815 C   0  0  0  0  0  0  0  0  0  0  0  0
  -23.7319   -9.9435   22.2840 C   0  0  0  0  0  0  0  0  0  0  0  0
  -30.7150  -23.0798   17.0704 C   0  0  0  0  0  0  0  0  0  0  0  0
  -29.0757  -23.1360   19.3189 C   0  0  0  0  0  0  0  0  0  0  0  0
  -27.0426  -25.9473   24.3656 C   0  0  0  0  0  0  0  0  0  0  0  0
  -22.2375   -8.7573   20.2487 C   0  0  0  0  0  0  0  0  0  0  0  0
  -22.9676   -8.8077   22.5512 C   0  0  0  0  0  0  0  0  0  0  0  0
  -26.2721  -25.5048   25.4400 C   0  0  0  0  0  0  0  0  0  0  0  0
  -23.2160   -5.4695   22.0763 C   0  0  0  0  0  0  0  0  0  0  0  0
  -23.8067   -4.4526   22.8263 C   0  0  0  0  0  0  0  0  0  0  0  0
  -28.2842  -25.0869   26.7032 C   0  0  0  0  0  0  0  0  0  0  0  0
  -28.5630  -19.7178   22.8929 C   0  0  0  0  0  0  0  0  0  0  0  0
  -22.0861   -4.6917   24.5055 C   0  0  0  0  0  0  0  0  0  0  0  0
  -23.7490  -10.4862   20.9992 C   0  0  0  0  0  0  0  0  0  0  0  0
  -24.1301  -13.0025   20.8242 C   0  0  0  0  0  0  0  0  0  0  0  0
  -31.2967  -23.0351   18.3472 C   0  0  0  0  0  0  0  0  0  0  0  0
  -28.4424  -25.9527   24.4482 C   0  0  0  0  0  0  0  0  0  0  0  0
  -30.4686  -23.0530   19.4857 C   0  0  0  0  0  0  0  0  0  0  0  0
  -29.0702  -25.5324   25.6294 C   0  0  0  0  0  0  0  0  0  0  0  0
  -28.3218  -19.4243   24.2350 C   0  0  0  0  0  0  0  0  0  0  0  0
  -29.9447  -17.7443   22.7097 C   0  0  0  0  0  0  0  0  0  0  0  0
  -22.2204   -8.2146   21.5335 C   0  0  0  0  0  0  0  0  0  0  0  0
  -26.8929  -25.0718   26.6079 C   0  0  0  0  0  0  0  0  0  0  0  0
  -22.0603   -6.0975   22.5409 C   0  0  0  0  0  0  0  0  0  0  0  0
  -23.2418   -4.0637   24.0409 C   0  0  0  0  0  0  0  0  0  0  0  0
  -21.4954   -5.7086   23.7555 C   0  0  0  0  0  0  0  0  0  0  0  0
  -29.3745  -18.8778   22.1302 C   0  0  0  0  0  0  0  0  0  0  0  0
  -28.8920  -18.2908   24.8145 C   0  0  0  0  0  0  0  0  0  0  0  0
  -29.7034  -17.4508   24.0518 C   0  0  0  0  0  0  0  0  0  0  0  0
  -24.5391  -11.6593   20.7237 C   0  0  0  0  0  0  0  0  0  0  0  0
  -25.2380  -13.7271   20.4579 C   0  0  0  0  0  0  0  0  0  0  0  0
  -22.8622  -13.5467   21.2139 C   0  0  0  0  0  0  0  0  0  0  0  0
  -30.7881  -24.4984   22.8712 C   0  0  0  0  0  0  0  0  0  0  0  0
  -32.6718  -26.4126   24.6904 C   0  0  0  0  0  0  0  0  0  0  0  0
  -33.0387  -28.2507   27.5423 C   0  0  0  0  0  0  0  0  0  0  0  0
  -30.7334  -14.6698   20.6950 C   0  0  0  0  0  0  0  0  0  0  0  0
  -32.7948  -22.9002   18.4580 C   0  0  0  0  0  0  0  0  0  0  0  0
  -29.2585  -26.4582   23.2902 C   0  0  0  0  0  0  0  0  0  0  0  0
  -30.5692  -25.5376   25.7761 C   0  0  0  0  0  0  0  0  0  0  0  0
  -33.3345  -23.2255   19.8484 C   0  0  0  0  0  0  0  0  0  0  0  0
  -29.5912  -12.2462   18.3502 C   0  0  0  0  0  0  0  0  0  0  0  0
  -32.4978  -22.5350   20.9208 C   0  0  0  0  0  0  0  0  0  0  0  0
  -28.1441  -11.9839   18.7708 C   0  0  0  0  0  0  0  0  0  0  0  0
  -30.4960  -12.4820   19.5577 C   0  0  0  0  0  0  0  0  0  0  0  0
  -28.5876  -13.2736   20.9012 C   0  0  0  0  0  0  0  0  0  0  0  0
  -31.0442  -23.0219   20.8849 C   0  0  1  0  0  0  0  0  0  0  0  0
  -30.6920  -25.9363   23.2965 C   0  0  1  0  0  0  0  0  0  0  0  0
  -27.6262  -13.0854   19.7152 C   0  0  2  0  0  0  0  0  0  0  0  0
  -34.7040  -29.6708   28.7700 C   0  0  0  0  0  0  0  0  0  0  0  0
  -23.5984  -21.3181   28.6810 C   0  0  0  0  0  0  0  0  0  0  0  0
  -34.1669  -23.9002   25.5635 C   0  0  0  0  0  0  0  0  0  0  0  0
  -35.1445  -25.2223   27.4516 C   0  0  0  0  0  0  0  0  0  0  0  0
  -35.6292  -25.8737   25.0929 C   0  0  0  0  0  0  0  0  0  0  0  0
  -31.2828  -30.6294   27.4089 C   0  0  0  0  0  0  0  0  0  0  0  0
  -27.4382  -20.3637   25.0163 C   0  0  0  0  0  0  0  0  0  0  0  0
  -30.8155  -16.8480   21.8816 C   0  0  0  0  0  0  0  0  0  0  0  0
  -25.9959  -19.8668   25.1813 C   0  0  0  0  0  0  0  0  0  0  0  0
  -25.6050  -22.7953   29.0957 C   0  0  0  0  0  0  0  0  0  0  0  0
  -25.0564  -20.8165   25.9183 C   0  0  0  0  0  0  0  0  0  0  0  0
  -26.7229  -23.6472   28.5047 C   0  0  0  0  0  0  0  0  0  1  0  0
  -33.3253  -26.2929   26.0460 C   0  0  1  0  0  0  0  0  0  0  0  0
  -33.5555  -29.6593   27.7734 C   0  0  2  0  0  0  0  0  0  0  0  0
  -24.7458  -22.0908   28.0439 C   0  0  1  0  0  0  0  0  0  0  0  0
  -34.5383  -25.3202   26.0353 C   0  0  0  0  0  0  0  0  0  0  0  0
  -25.8077  -11.5350   20.3246 N   0  0  0  0  0  0  0  0  0  0  0  0
  -26.2054  -12.8095   20.1711 N   0  0  0  0  0  0  0  0  0  0  0  0
  -31.3237  -26.0350   24.6138 N   0  0  0  0  0  0  0  0  0  0  0  0
  -29.9494  -13.5393   20.4117 N   0  0  0  0  0  0  0  0  0  0  0  0
  -25.4692  -15.0532   20.3563 N   0  0  0  0  0  0  0  0  0  0  0  0
  -21.8325  -12.6608   21.5591 N   0  0  0  0  0  0  0  0  0  0  0  0
  -30.9315  -24.3233   21.5080 N   0  0  0  0  0  0  0  0  0  0  0  0
  -33.6529  -27.6521   26.4627 N   0  0  0  0  0  0  0  0  0  0  0  0
  -30.1374  -15.6271   21.5069 N   0  0  0  0  0  0  0  0  0  0  0  0
  -32.4671  -30.5304   28.3003 N   0  3  0  0  0  0  0  0  0  0  0  0
  -25.5787  -21.1247   27.2748 N   0  3  0  0  0  0  0  0  0  0  0  0
  -22.6436  -14.7817   21.2391 O   0  0  0  0  0  0  0  0  0  0  0  0
  -30.7373  -23.6134   23.7173 O   0  0  0  0  0  0  0  0  0  0  0  0
  -33.3312  -26.8326   23.7362 O   0  0  0  0  0  0  0  0  0  0  0  0
  -32.1790  -27.7320   28.2511 O   0  0  0  0  0  0  0  0  0  0  0  0
  -31.8777  -14.8178   20.2525 O   0  0  0  0  0  0  0  0  0  0  0  0
  -21.4746   -7.1064   21.7947 O   0  0  0  0  0  0  0  0  0  0  0  0
  -26.1432  -24.6387   27.6578 O   0  0  0  0  0  0  0  0  0  1  0  0
  -23.8083   -3.0861   24.7603 F   0  0  0  0  0  0  0  0  0  0  0  0
  -20.3846   -6.3074   24.2064 F   0  0  0  0  0  0  0  0  0  0  0  0
  -29.6449  -19.2788   20.4723 Cl  0  0  0  0  0  0  0  0  0  0  0  0
  -28.5721  -17.9557   26.4878 Cl  0  0  0  0  0  0  0  0  0  0  0  0
  -30.4257  -16.0334   24.7497 Cl  0  0  0  0  0  0  0  0  0  0  0  0
  1  2  1  0  0  0  0
  1  5  2  0  0  0  0
  2  6  2  0  0  0  0
  3  8  2  0  0  0  0
  3 16  1  0  0  0  0
  4  9  1  0  0  0  0
  4 16  2  0  0  0  0
  5 18  1  0  0  0  0
  6 20  1  0  0  0  0
  7 10  2  0  0  0  0
  7 19  1  0  0  0  0
  8 24  1  0  0  0  0
  9 24  2  0  0  0  0
 10 25  1  0  0  0  0
 11 12  2  0  0  0  0
 11 26  1  0  0  0  0
 12 27  1  0  0  0  0
 13 21  1  0  0  0  0
 13 25  2  0  0  0  0
 14 22  1  0  0  0  0
 14 29  2  0  0  0  0
 15 27  2  0  0  0  0
 15 28  1  0  0  0  0
 16 32  1  0  0  0  0
 17 32  1  0  0  0  0
 17 33  2  0  0  0  0
 17 34  1  0  0  0  0
 18 20  2  0  0  0  0
 18 39  1  0  0  0  0
 19 21  2  0  0  0  0
 19 40  1  0  0  0  0
 20 48  1  0  0  0  0
 21 41  1  0  0  0  0
 22 30  2  0  0  0  0
 22 57  1  0  0  0  0
 23 29  1  0  0  0  0
 23 31  2  0  0  0  0
 23 58  1  0  0  0  0
 24 83  1  0  0  0  0
 25 84  1  0  0  0  0
 26 28  2  0  0  0  0
 26 83  1  0  0  0  0
 27 85  1  0  0  0  0
 28 86  1  0  0  0  0
 29 87  1  0  0  0  0
 30 31  1  0  0  0  0
 30 88  1  0  0  0  0
 31 89  1  0  0  0  0
 32 67  2  0  0  0  0
 33 68  1  0  0  0  0
 33 71  1  0  0  0  0
 34 72  1  0  0  0  0
 34 78  2  0  0  0  0
 35 49  1  0  0  0  0
 35 73  1  0  0  0  0
 35 79  2  0  0  0  0
 36 63  1  0  0  0  0
 36 69  1  0  0  0  0
 36 80  2  0  0  0  0
 37 64  1  0  0  0  0
 37 74  1  0  0  0  0
 37 81  2  0  0  0  0
 38 70  1  0  0  0  0
 38 75  1  0  0  0  0
 38 82  2  0  0  0  0
 39 42  1  0  0  0  0
 40 49  1  0  0  0  0
 41 69  1  0  0  0  0
 42 44  1  0  0  0  0
 43 45  1  0  0  0  0
 43 46  1  0  0  0  0
 44 48  1  0  0  0  0
 45 50  1  0  0  0  0
 46 70  1  0  0  0  0
 47 50  1  0  0  0  0
 47 70  1  0  0  0  0
 48 73  1  0  0  0  0
 49 69  1  0  0  0  0
 50 68  1  0  0  0  0
 51 64  1  0  0  0  0
 52 65  1  0  0  0  0
 53 66  1  0  0  0  0
 54 66  1  0  0  0  0
 55 66  1  0  0  0  0
 56 76  1  0  0  0  0
 57 59  1  0  0  0  0
 58 75  1  0  0  0  0
 59 61  1  0  0  0  0
 60 62  1  0  0  0  0
 60 65  1  0  0  0  0
 61 77  1  0  0  0  0
 62 84  1  0  0  0  0
 63 66  1  0  0  0  0
 63 74  1  0  0  0  0
 64 76  1  0  0  0  0
 65 77  1  0  0  0  0
 67 68  1  0  0  0  0
M  CHG  2  76   1  77   1
M  ISO  4  38 100  62 101  75 100  84 101
M  END
> <Batch ID>
0025

> <Smiles>
CNC(C)C(=O)NC(C(=O)N1Cc2cc([101O:1][101CH2:1]CC(C)NCCCc3cc(Cl)c(C[100NH:0][100C:0](=O)N4CCCC(n5nc(-c6ccc(Oc7ccc(F)cc7F)cc6)c(C(N)=O)c5N)C4)c(Cl)c3Cl)ccc2CC1C(=O)NC1CCCc2ccccc21)C(C)(C)C

> <Shape>
0.215

> <Color>
0.197

> <Negative vol penalty>
0.000

$$$$

  -OEChem-04052316243D

 97106  0     1  0  0  0  0  0999 V2000
  -17.5264  -31.3965   23.9745 C   0  0  0  0  0  0  0  0  0  0  0  0
  -18.8981  -31.6174   23.9044 C   0  0  0  0  0  0  0  0  0  0  0  0
  -23.3222  -13.3506   22.2785 C   0  0  0  0  0  0  0  0  0  0  0  0
  -22.7898  -15.5079   21.3299 C   0  0  0  0  0  0  0  0  0  0  0  0
  -17.0086  -30.1356   23.6815 C   0  0  0  0  0  0  0  0  0  0  0  0
  -19.7531  -30.5770   23.5422 C   0  0  0  0  0  0  0  0  0  0  0  0
  -25.9087  -29.3552   20.0880 C   0  0  0  0  0  0  0  0  0  0  0  0
  -22.2849  -13.4994   23.1991 C   0  0  0  0  0  0  0  0  0  0  0  0
  -21.7525  -15.6567   22.2504 C   0  0  0  0  0  0  0  0  0  0  0  0
  -27.1377  -28.7221   20.2684 C   0  0  0  0  0  0  0  0  0  0  0  0
  -18.5845  -14.5436   22.6322 C   0  0  0  0  0  0  0  0  0  0  0  0
  -17.3592  -15.0098   22.1558 C   0  0  0  0  0  0  0  0  0  0  0  0
  -26.1233  -26.6066   19.7073 C   0  0  0  0  0  0  0  0  0  0  0  0
  -31.6641  -22.6329   17.2162 C   0  0  0  0  0  0  0  0  0  0  0  0
  -29.1045  -21.7243   17.8532 C   0  0  0  0  0  0  0  0  0  0  0  0
  -17.5066  -16.9119   23.6381 C   0  0  0  0  0  0  0  0  0  0  0  0
  -23.5747  -14.3549   21.3439 C   0  0  0  0  0  0  0  0  0  0  0  0
  -24.7896  -13.1856   19.4297 C   0  0  0  0  0  0  0  0  0  0  0  0
  -17.8567  -29.0818   23.3062 C   0  0  0  0  0  0  0  0  0  0  0  0
  -24.7735  -28.6159   19.7259 C   0  0  0  0  0  0  0  0  0  0  0  0
  -19.2463  -29.3005   23.2453 C   0  0  0  0  0  0  0  0  0  0  0  0
  -24.8817  -27.2331   19.5204 C   0  0  0  0  0  0  0  0  0  0  0  0
  -30.6260  -23.5459   17.4014 C   0  0  0  0  0  0  0  0  0  0  0  0
  -30.1426  -20.8113   17.6678 C   0  0  0  0  0  0  0  0  0  0  0  0
  -21.5000  -14.6524   23.1850 C   0  0  0  0  0  0  0  0  0  0  0  0
  -27.2445  -27.3471   20.0809 C   0  0  0  0  0  0  0  0  0  0  0  0
  -19.2708  -15.2616   23.6116 C   0  0  0  0  0  0  0  0  0  0  0  0
  -16.8203  -16.1939   22.6587 C   0  0  0  0  0  0  0  0  0  0  0  0
  -18.7318  -16.4457   24.1146 C   0  0  0  0  0  0  0  0  0  0  0  0
  -31.4224  -21.2656   17.3493 C   0  0  0  0  0  0  0  0  0  0  0  0
  -29.3462  -23.0917   17.7200 C   0  0  0  0  0  0  0  0  0  0  0  0
  -24.6465  -14.2020   20.3931 C   0  0  0  0  0  0  0  0  0  0  0  0
  -25.9630  -13.4882   18.7831 C   0  0  0  0  0  0  0  0  0  0  0  0
  -23.9380  -12.0679   19.1446 C   0  0  0  0  0  0  0  0  0  0  0  0
  -21.9518  -28.0358   21.0696 C   0  0  0  0  0  0  0  0  0  0  0  0
  -21.3386  -26.5816   18.2356 C   0  0  0  0  0  0  0  0  0  0  0  0
  -22.5599  -25.0482   15.4420 C   0  0  0  0  0  0  0  0  0  0  0  0
  -28.6404  -18.8320   18.1265 C   0  0  0  0  0  0  0  0  0  0  0  0
  -17.2551  -27.7237   23.0448 C   0  0  0  0  0  0  0  0  0  0  0  0
  -23.4610  -29.3178   19.5092 C   0  0  0  0  0  0  0  0  0  0  0  0
  -23.6975  -26.3971   19.1116 C   0  0  0  0  0  0  0  0  0  0  0  0
  -18.1939  -26.7738   22.3053 C   0  0  0  0  0  0  0  0  0  0  0  0
  -29.8973  -15.8934   20.2499 C   0  0  0  0  0  0  0  0  0  0  0  0
  -19.5850  -26.8041   22.9305 C   0  0  0  0  0  0  0  0  0  0  0  0
  -28.9256  -14.8111   19.7853 C   0  0  0  0  0  0  0  0  0  0  0  0
  -31.0965  -25.4770   20.9261 C   0  0  0  0  0  0  0  0  0  0  0  0
  -30.2008  -28.1427   19.3849 C   0  0  0  0  0  0  0  0  0  0  0  0
  -30.0471  -17.0126   19.2272 C   0  0  0  0  0  0  0  0  0  0  0  0
  -27.5488  -16.8932   19.2381 C   0  0  0  0  0  0  0  0  0  0  0  0
  -31.7266  -25.5964   19.5428 C   0  0  0  0  0  0  0  0  0  0  0  0
  -30.3640  -27.2389   18.1671 C   0  0  0  0  0  0  0  0  0  0  0  0
  -20.2037  -28.2037   22.8322 C   0  0  1  0  0  0  0  0  0  0  0  0
  -22.2578  -28.3893   19.6416 C   0  0  1  0  0  0  0  0  0  0  0  0
  -30.5541  -26.7853   21.5218 C   0  0  1  0  0  0  0  0  0  0  0  0
  -27.7048  -15.3782   19.0341 C   0  0  2  0  0  0  0  0  0  0  0  0
  -29.5452  -27.5424   20.6325 C   0  0  2  0  0  0  0  0  0  1  0  0
  -21.8136  -23.9317   13.3221 C   0  0  0  0  0  0  0  0  0  0  0  0
  -20.5557  -24.0962   19.8230 C   0  0  0  0  0  0  0  0  0  0  0  0
  -20.7449  -22.7707   17.7075 C   0  0  0  0  0  0  0  0  0  0  0  0
  -19.0647  -24.6063   17.8811 C   0  0  0  0  0  0  0  0  0  0  0  0
  -23.9612  -27.0415   13.7621 C   0  0  0  0  0  0  0  0  0  0  0  0
  -30.9273  -25.0078   17.2499 C   0  0  0  0  0  0  0  0  0  0  0  0
  -29.9421  -26.4839   22.8979 C   0  0  0  0  0  0  0  0  0  0  0  0
  -21.5182  -25.1858   17.6893 C   0  0  1  0  0  0  0  0  0  0  0  0
  -22.2449  -25.2386   13.9693 C   0  0  2  0  0  0  0  0  0  0  0  0
  -30.6208  -25.9750   25.3131 C   0  0  1  0  0  0  0  0  0  0  0  0
  -20.4929  -24.1799   18.2848 C   0  0  0  0  0  0  0  0  0  0  0  0
  -30.9678  -25.8686   23.8344 C   0  0  0  0  0  0  0  0  0  0  0  0
  -29.3952  -25.2051   25.7484 C   0  0  0  0  0  0  0  0  0  0  0  0
  -25.6489  -15.0843   20.3648 N   0  0  0  0  0  0  0  0  0  0  0  0
  -26.4332  -14.6231   19.3758 N   0  0  0  0  0  0  0  0  0  0  0  0
  -22.4345  -27.1285   18.9181 N   0  0  0  0  0  0  0  0  0  0  0  0
  -28.7632  -17.6112   18.8341 N   0  0  0  0  0  0  0  0  0  0  0  0
  -26.6282  -12.8915   17.7713 N   0  0  0  0  0  0  0  0  0  0  0  0
  -22.9170  -12.2302   18.1984 N   0  0  0  0  0  0  0  0  0  0  0  0
  -29.8640  -19.4291   17.8115 N   0  0  0  0  0  0  0  0  0  0  0  0
  -20.7017  -28.4433   21.4946 N   0  0  0  0  0  0  0  0  0  0  0  0
  -21.4627  -25.3058   16.2364 N   0  0  0  0  0  0  0  0  0  0  0  0
  -30.6511  -25.8015   18.5033 N   0  3  1  0  0  0  0  0  0  0  0  0
  -23.4434  -25.7486   13.2450 N   0  3  0  0  0  0  0  0  0  0  0  0
  -24.0681  -10.9631   19.7242 O   0  0  0  0  0  0  0  0  0  0  0  0
  -22.7875  -27.4363   21.7360 O   0  0  0  0  0  0  0  0  0  0  0  0
  -20.2681  -27.1679   18.0569 O   0  0  0  0  0  0  0  0  0  0  0  0
  -23.6674  -24.7017   15.8470 O   0  0  0  0  0  0  0  0  0  0  0  0
  -27.5399  -19.2946   17.8186 O   0  0  0  0  0  0  0  0  0  0  0  0
  -20.4875  -14.7978   24.0830 O   0  0  0  0  0  0  0  0  0  0  0  0
  -28.4427  -26.7265   20.2569 O   0  0  0  0  0  0  0  0  0  1  0  0
  -15.6444  -16.6423   22.2000 F   0  0  0  0  0  0  0  0  0  0  0  0
  -19.3871  -17.1404   25.0547 F   0  0  0  0  0  0  0  0  0  0  0  0
  -31.6835  -25.4709   26.0107 F   0  0  0  0  0  0  0  0  0  0  0  0
  -31.1499  -24.5618   23.5116 F   0  0  0  0  0  0  0  0  0  0  0  0
  -32.1673  -26.4845   23.6438 F   0  0  0  0  0  0  0  0  0  0  0  0
  -28.2738  -25.6965   25.1817 F   0  0  0  0  0  0  0  0  0  0  0  0
  -29.2340  -25.2315   27.0875 F   0  0  0  0  0  0  0  0  0  0  0  0
  -29.5050  -23.9067   25.3855 F   0  0  0  0  0  0  0  0  0  0  0  0
  -32.7360  -20.1692   17.1109 Cl  0  0  0  0  0  0  0  0  0  0  0  0
  -28.0376  -24.1925   17.9552 Cl  0  0  0  0  0  0  0  0  0  0  0  0
  1  2  1  0  0  0  0
  1  5  2  0  0  0  0
  2  6  2  0  0  0  0
  3  8  2  0  0  0  0
  3 17  1  0  0  0  0
  4  9  1  0  0  0  0
  4 17  2  0  0  0  0
  5 19  1  0  0  0  0
  6 21  1  0  0  0  0
  7 10  2  0  0  0  0
  7 20  1  0  0  0  0
  8 25  1  0  0  0  0
  9 25  2  0  0  0  0
 10 26  1  0  0  0  0
 11 12  2  0  0  0  0
 11 27  1  0  0  0  0
 12 28  1  0  0  0  0
 13 22  1  0  0  0  0
 13 26  2  0  0  0  0
 14 23  1  0  0  0  0
 14 30  2  0  0  0  0
 15 24  2  0  0  0  0
 15 31  1  0  0  0  0
 16 28  2  0  0  0  0
 16 29  1  0  0  0  0
 17 32  1  0  0  0  0
 18 32  1  0  0  0  0
 18 33  2  0  0  0  0
 18 34  1  0  0  0  0
 19 21  2  0  0  0  0
 19 39  1  0  0  0  0
 20 22  2  0  0  0  0
 20 40  1  0  0  0  0
 21 52  1  0  0  0  0
 22 41  1  0  0  0  0
 23 31  2  0  0  0  0
 23 62  1  0  0  0  0
 24 30  1  0  0  0  0
 24 76  1  0  0  0  0
 25 86  1  0  0  0  0
 26 87  1  0  0  0  0
 27 29  2  0  0  0  0
 27 86  1  0  0  0  0
 28 88  1  0  0  0  0
 29 89  1  0  0  0  0
 30 96  1  0  0  0  0
 31 97  1  0  0  0  0
 32 70  2  0  0  0  0
 33 71  1  0  0  0  0
 33 74  1  0  0  0  0
 34 75  1  0  0  0  0
 34 81  2  0  0  0  0
 35 53  1  0  0  0  0
 35 77  1  0  0  0  0
 35 82  2  0  0  0  0
 36 64  1  0  0  0  0
 36 72  1  0  0  0  0
 36 83  2  0  0  0  0
 37 65  1  0  0  0  0
 37 78  1  0  0  0  0
 37 84  2  0  0  0  0
 38 73  1  0  0  0  0
 38 76  1  0  0  0  0
 38 85  2  0  0  0  0
 39 42  1  0  0  0  0
 40 53  1  0  0  0  0
 41 72  1  0  0  0  0
 42 44  1  0  0  0  0
 43 45  1  0  0  0  0
 43 48  1  0  0  0  0
 44 52  1  0  0  0  0
 45 55  1  0  0  0  0
 46 50  1  0  0  0  0
 46 54  1  0  0  0  0
 47 51  1  0  0  0  0
 47 56  1  0  0  0  0
 48 73  1  0  0  0  0
 49 55  1  0  0  0  0
 49 73  1  0  0  0  0
 50 79  1  0  0  0  0
 51 79  1  0  0  0  0
 52 77  1  0  0  0  0
 53 72  1  0  0  0  0
 54 56  1  0  0  0  0
 54 63  1  0  0  0  0
 55 71  1  0  0  0  0
 56 87  1  0  0  0  0
 57 65  1  0  0  0  0
 58 67  1  0  0  0  0
 59 67  1  0  0  0  0
 60 67  1  0  0  0  0
 61 80  1  0  0  0  0
 62 79  1  0  0  0  0
 63 68  1  0  0  0  0
 64 67  1  0  0  0  0
 64 78  1  0  0  0  0
 65 80  1  0  0  0  0
 66 68  1  0  0  0  0
 66 69  1  0  0  0  0
 66 90  1  0  0  0  0
 68 91  1  0  0  0  0
 68 92  1  0  0  0  0
 69 93  1  0  0  0  0
 69 94  1  0  0  0  0
 69 95  1  0  0  0  0
 70 71  1  0  0  0  0
M  CHG  2  79   1  80   1
M  ISO  4  38 100  56 101  76 100  87 101
M  END
> <Batch ID>
0025

> <Smiles>
CNC(C)C(=O)NC(C(=O)N1Cc2cc([101O:1][101CH:1]3CCN(Cc4cc(Cl)c([100NH:0][100C:0](=O)N5CCCC(n6nc(-c7ccc(Oc8ccc(F)cc8F)cc7)c(C(N)=O)c6N)C5)cc4Cl)CCC3CC(F)(F)C(F)C(F)(F)F)ccc2CC1C(=O)NC1CCCc2ccccc21)C(C)(C)C

> <Shape>
0.234

> <Color>
0.071

> <Negative vol penalty>
0.000

$$$$

  -OEChem-04052316243D

 86 94  0     1  0  0  0  0  0999 V2000
  -18.0888  -30.6599   19.4669 C   0  0  0  0  0  0  0  0  0  0  0  0
  -19.3776  -30.2981   19.0878 C   0  0  0  0  0  0  0  0  0  0  0  0
  -23.7354   -9.7118   19.9584 C   0  0  0  0  0  0  0  0  0  0  0  0
  -23.2288  -10.2274   22.2637 C   0  0  0  0  0  0  0  0  0  0  0  0
  -17.7782  -30.8147   20.8172 C   0  0  0  0  0  0  0  0  0  0  0  0
  -20.3568  -30.0921   20.0590 C   0  0  0  0  0  0  0  0  0  0  0  0
  -24.9140  -26.0047   19.8827 C   0  0  0  0  0  0  0  0  0  0  0  0
  -23.0738   -8.4904   20.0861 C   0  0  0  0  0  0  0  0  0  0  0  0
  -22.5672   -9.0060   22.3915 C   0  0  0  0  0  0  0  0  0  0  0  0
  -26.2598  -26.1148   19.5355 C   0  0  0  0  0  0  0  0  0  0  0  0
  -23.3959   -5.7579   22.8314 C   0  0  0  0  0  0  0  0  0  0  0  0
  -23.6535   -4.9975   23.9721 C   0  0  0  0  0  0  0  0  0  0  0  0
  -26.8324  -26.3814   21.8636 C   0  0  0  0  0  0  0  0  0  0  0  0
  -27.6366  -19.6635   21.5134 C   0  0  0  0  0  0  0  0  0  0  0  0
  -29.9177  -19.6077   19.9083 C   0  0  0  0  0  0  0  0  0  0  0  0
  -21.3156   -5.1050   24.5717 C   0  0  0  0  0  0  0  0  0  0  0  0
  -23.8129  -10.5802   21.0472 C   0  0  0  0  0  0  0  0  0  0  0  0
  -23.9409  -13.0726   20.5188 C   0  0  0  0  0  0  0  0  0  0  0  0
  -18.7516  -30.6010   21.8059 C   0  0  0  0  0  0  0  0  0  0  0  0
  -24.5155  -26.0932   21.2242 C   0  0  0  0  0  0  0  0  0  0  0  0
  -20.0592  -30.2455   21.4237 C   0  0  0  0  0  0  0  0  0  0  0  0
  -25.4812  -26.2696   22.2254 C   0  0  0  0  0  0  0  0  0  0  0  0
  -28.3819  -18.4899   21.4013 C   0  0  0  0  0  0  0  0  0  0  0  0
  -29.1723  -20.7814   20.0204 C   0  0  0  0  0  0  0  0  0  0  0  0
  -22.4897   -8.1376   21.3027 C   0  0  0  0  0  0  0  0  0  0  0  0
  -27.2189  -26.3060   20.5257 C   0  0  0  0  0  0  0  0  0  0  0  0
  -22.0982   -6.1919   22.5609 C   0  0  0  0  0  0  0  0  0  0  0  0
  -22.6134   -4.6711   24.8422 C   0  0  0  0  0  0  0  0  0  0  0  0
  -21.0580   -5.8654   23.4311 C   0  0  0  0  0  0  0  0  0  0  0  0
  -29.5224  -18.4619   20.5988 C   0  0  0  0  0  0  0  0  0  0  0  0
  -28.0317  -20.8093   20.8228 C   0  0  0  0  0  0  0  0  0  0  0  0
  -24.4967  -11.8417   20.9160 C   0  0  0  0  0  0  0  0  0  0  0  0
  -24.9948  -13.9527   20.5544 C   0  0  0  0  0  0  0  0  0  0  0  0
  -22.5925  -13.3919   20.1506 C   0  0  0  0  0  0  0  0  0  0  0  0
  -22.6595  -28.0662   22.8874 C   0  0  0  0  0  0  0  0  0  0  0  0
  -23.1935  -25.9329   25.2720 C   0  0  0  0  0  0  0  0  0  0  0  0
  -25.1949  -23.5045   26.5924 C   0  0  0  0  0  0  0  0  0  0  0  0
  -29.4312  -15.8266   23.5748 C   0  0  0  0  0  0  0  0  0  0  0  0
  -18.3809  -30.8265   23.2503 C   0  0  0  0  0  0  0  0  0  0  0  0
  -23.0627  -25.9458   21.5847 C   0  0  0  0  0  0  0  0  0  0  0  0
  -25.1074  -26.3509   23.6822 C   0  0  0  0  0  0  0  0  0  0  0  0
  -19.3785  -30.2243   24.2364 C   0  0  0  0  0  0  0  0  0  0  0  0
  -29.9550  -13.1580   21.0636 C   0  0  0  0  0  0  0  0  0  0  0  0
  -20.8072  -30.5694   23.8282 C   0  0  0  0  0  0  0  0  0  0  0  0
  -28.5377  -12.6381   20.8295 C   0  0  0  0  0  0  0  0  0  0  0  0
  -30.1238  -13.7327   22.4668 C   0  0  0  0  0  0  0  0  0  0  0  0
  -27.7115  -14.2649   22.5764 C   0  0  0  0  0  0  0  0  0  0  0  0
  -21.1424  -29.9890   22.4490 C   0  0  1  0  0  0  0  0  0  0  0  0
  -22.7162  -26.5655   22.9350 C   0  0  1  0  0  0  0  0  0  0  0  0
  -27.4950  -13.7214   21.1561 C   0  0  2  0  0  0  0  0  0  0  0  0
  -25.3901  -21.9725   28.5704 C   0  0  0  0  0  0  0  0  0  0  0  0
  -24.1131  -28.2777   26.9942 C   0  0  0  0  0  0  0  0  0  0  0  0
  -25.1639  -26.6276   28.5567 C   0  0  0  0  0  0  0  0  0  0  0  0
  -22.6968  -26.5982   28.1890 C   0  0  0  0  0  0  0  0  0  0  0  0
  -29.0693  -18.1985   24.1428 C   0  0  0  0  0  0  0  0  0  0  0  0
  -25.0679  -21.0918   24.8830 C   0  0  0  0  0  0  0  0  0  0  0  0
  -27.9249  -17.2845   22.1577 C   0  0  0  0  0  0  0  0  0  0  0  0
  -29.6297  -21.9920   19.2614 C   0  0  0  0  0  0  0  0  0  0  0  0
  -30.7294  -25.4756   20.4091 C   0  0  0  0  0  0  0  0  0  0  0  0
  -30.4557  -24.3432   19.4308 C   0  0  0  0  0  0  0  0  0  0  0  0
  -29.4882  -25.9609   21.1479 C   0  0  0  0  0  0  0  0  0  1  0  0
  -24.2331  -25.7789   26.3557 C   0  0  1  0  0  0  0  0  0  0  0  0
  -24.8761  -22.1280   27.1476 C   0  0  2  0  0  0  0  0  0  0  0  0
  -24.0589  -26.8211   27.4964 C   0  0  0  0  0  0  0  0  0  0  0  0
  -25.8023  -11.9281   21.1840 N   0  0  0  0  0  0  0  0  0  0  0  0
  -26.0757  -13.2237   20.9548 N   0  0  0  0  0  0  0  0  0  0  0  0
  -23.6735  -26.2074   23.9835 N   0  0  0  0  0  0  0  0  0  0  0  0
  -29.0942  -14.7283   22.7668 N   0  0  0  0  0  0  0  0  0  0  0  0
  -25.0930  -15.2712   20.2818 N   0  0  0  0  0  0  0  0  0  0  0  0
  -21.6349  -12.3687   20.1683 N   0  0  0  0  0  0  0  0  0  0  0  0
  -21.4185  -28.5720   22.5505 N   0  0  0  0  0  0  0  0  0  0  0  0
  -24.1589  -24.3907   26.7982 N   0  0  0  0  0  0  0  0  0  0  0  0
  -28.7468  -17.0284   23.3385 N   0  0  0  0  0  0  0  0  0  0  0  0
  -25.5022  -21.0713   26.3035 N   0  3  0  0  0  0  0  0  0  0  0  0
  -29.9404  -23.1508   20.1436 N   0  3  0  0  0  0  0  0  0  0  0  0
  -22.2505  -14.5468   19.8001 O   0  0  0  0  0  0  0  0  0  0  0  0
  -23.6667  -28.7172   23.1392 O   0  0  0  0  0  0  0  0  0  0  0  0
  -21.9998  -25.8070   25.5567 O   0  0  0  0  0  0  0  0  0  0  0  0
  -26.2583  -23.7681   26.0354 O   0  0  0  0  0  0  0  0  0  0  0  0
  -30.3014  -15.7406   24.4508 O   0  0  0  0  0  0  0  0  0  0  0  0
  -21.8439   -6.9460   21.4277 O   0  0  0  0  0  0  0  0  0  0  0  0
  -28.5331  -26.4144   20.1895 O   0  0  0  0  0  0  0  0  0  1  0  0
  -22.8606   -3.9396   25.9368 F   0  0  0  0  0  0  0  0  0  0  0  0
  -19.8090   -6.2785   23.1759 F   0  0  0  0  0  0  0  0  0  0  0  0
  -30.4697  -17.0281   20.4375 Cl  0  0  0  0  0  0  0  0  0  0  0  0
  -27.0849  -22.2434   20.9854 Cl  0  0  0  0  0  0  0  0  0  0  0  0
  1  2  1  0  0  0  0
  1  5  2  0  0  0  0
  2  6  2  0  0  0  0
  3  8  2  0  0  0  0
  3 17  1  0  0  0  0
  4  9  1  0  0  0  0
  4 17  2  0  0  0  0
  5 19  1  0  0  0  0
  6 21  1  0  0  0  0
  7 10  2  0  0  0  0
  7 20  1  0  0  0  0
  8 25  1  0  0  0  0
  9 25  2  0  0  0  0
 10 26  1  0  0  0  0
 11 12  2  0  0  0  0
 11 27  1  0  0  0  0
 12 28  1  0  0  0  0
 13 22  1  0  0  0  0
 13 26  2  0  0  0  0
 14 23  2  0  0  0  0
 14 31  1  0  0  0  0
 15 24  1  0  0  0  0
 15 30  2  0  0  0  0
 16 28  2  0  0  0  0
 16 29  1  0  0  0  0
 17 32  1  0  0  0  0
 18 32  1  0  0  0  0
 18 33  2  0  0  0  0
 18 34  1  0  0  0  0
 19 21  2  0  0  0  0
 19 39  1  0  0  0  0
 20 22  2  0  0  0  0
 20 40  1  0  0  0  0
 21 48  1  0  0  0  0
 22 41  1  0  0  0  0
 23 30  1  0  0  0  0
 23 57  1  0  0  0  0
 24 31  2  0  0  0  0
 24 58  1  0  0  0  0
 25 81  1  0  0  0  0
 26 82  1  0  0  0  0
 27 29  2  0  0  0  0
 27 81  1  0  0  0  0
 28 83  1  0  0  0  0
 29 84  1  0  0  0  0
 30 85  1  0  0  0  0
 31 86  1  0  0  0  0
 32 65  2  0  0  0  0
 33 66  1  0  0  0  0
 33 69  1  0  0  0  0
 34 70  1  0  0  0  0
 34 76  2  0  0  0  0
 35 49  1  0  0  0  0
 35 71  1  0  0  0  0
 35 77  2  0  0  0  0
 36 62  1  0  0  0  0
 36 67  1  0  0  0  0
 36 78  2  0  0  0  0
 37 63  1  0  0  0  0
 37 72  1  0  0  0  0
 37 79  2  0  0  0  0
 38 68  1  0  0  0  0
 38 73  1  0  0  0  0
 38 80  2  0  0  0  0
 39 42  1  0  0  0  0
 40 49  1  0  0  0  0
 41 67  1  0  0  0  0
 42 44  1  0  0  0  0
 43 45  1  0  0  0  0
 43 46  1  0  0  0  0
 44 48  1  0  0  0  0
 45 50  1  0  0  0  0
 46 68  1  0  0  0  0
 47 50  1  0  0  0  0
 47 68  1  0  0  0  0
 48 71  1  0  0  0  0
 49 67  1  0  0  0  0
 50 66  1  0  0  0  0
 51 63  1  0  0  0  0
 52 64  1  0  0  0  0
 53 64  1  0  0  0  0
 54 64  1  0  0  0  0
 55 73  1  0  0  0  0
 56 74  1  0  0  0  0
 57 73  1  0  0  0  0
 58 75  1  0  0  0  0
 59 60  1  0  0  0  0
 59 61  1  0  0  0  0
 60 75  1  0  0  0  0
 61 82  1  0  0  0  0
 62 64  1  0  0  0  0
 62 72  1  0  0  0  0
 63 74  1  0  0  0  0
 65 66  1  0  0  0  0
M  CHG  2  74   1  75   1
M  ISO  4  38 100  61 101  73 100  82 101
M  END
> <Batch ID>
0025

> <Smiles>
CNC(C)C(=O)NC(C(=O)N1Cc2cc([101O:1][101CH2:1]CCNCc3cc(Cl)c(C[100N:0](C)[100C:0](=O)N4CCCC(n5nc(-c6ccc(Oc7ccc(F)cc7F)cc6)c(C(N)=O)c5N)C4)cc3Cl)ccc2CC1C(=O)NC1CCCc2ccccc21)C(C)(C)C

> <Shape>
0.250

> <Color>
0.186

> <Negative vol penalty>
0.000

$$$$

  -OEChem-04052316243D

 91 99  0     1  0  0  0  0  0999 V2000
  -19.5566  -29.6583   25.8766 C   0  0  0  0  0  0  0  0  0  0  0  0
  -20.8695  -29.2928   25.5970 C   0  0  0  0  0  0  0  0  0  0  0  0
  -23.5295  -14.3352   19.3171 C   0  0  0  0  0  0  0  0  0  0  0  0
  -24.7637  -14.9059   21.3142 C   0  0  0  0  0  0  0  0  0  0  0  0
  -18.5225  -29.2279   25.0463 C   0  0  0  0  0  0  0  0  0  0  0  0
  -21.1490  -28.4958   24.4874 C   0  0  0  0  0  0  0  0  0  0  0  0
  -26.1150  -28.7706   20.9140 C   0  0  0  0  0  0  0  0  0  0  0  0
  -24.5340  -13.4389   18.9524 C   0  0  0  0  0  0  0  0  0  0  0  0
  -25.7682  -14.0095   20.9495 C   0  0  0  0  0  0  0  0  0  0  0  0
  -27.2914  -28.0231   20.8839 C   0  0  0  0  0  0  0  0  0  0  0  0
  -28.3862  -13.9366   18.8113 C   0  0  0  0  0  0  0  0  0  0  0  0
  -29.7091  -14.3636   18.9269 C   0  0  0  0  0  0  0  0  0  0  0  0
  -26.3509  -26.6236   19.1588 C   0  0  0  0  0  0  0  0  0  0  0  0
  -28.3359  -22.0002   19.8915 C   0  0  0  0  0  0  0  0  0  0  0  0
  -26.9570  -21.4479   22.2528 C   0  0  0  0  0  0  0  0  0  0  0  0
  -30.1537  -12.5660   20.4787 C   0  0  0  0  0  0  0  0  0  0  0  0
  -23.6443  -15.0688   20.4980 C   0  0  0  0  0  0  0  0  0  0  0  0
  -21.4682  -15.7244   21.6566 C   0  0  0  0  0  0  0  0  0  0  0  0
  -18.7905  -28.4332   23.9206 C   0  0  0  0  0  0  0  0  0  0  0  0
  -25.0417  -28.4430   20.0730 C   0  0  0  0  0  0  0  0  0  0  0  0
  -20.1173  -28.0533   23.6421 C   0  0  0  0  0  0  0  0  0  0  0  0
  -25.1629  -27.3701   19.1784 C   0  0  0  0  0  0  0  0  0  0  0  0
  -29.0389  -21.8053   21.0803 C   0  0  0  0  0  0  0  0  0  0  0  0
  -26.9434  -21.9191   19.8833 C   0  0  0  0  0  0  0  0  0  0  0  0
  -28.3495  -21.5291   22.2610 C   0  0  0  0  0  0  0  0  0  0  0  0
  -26.2540  -21.6429   21.0640 C   0  0  0  0  0  0  0  0  0  0  0  0
  -25.6534  -13.2760   19.7686 C   0  0  0  0  0  0  0  0  0  0  0  0
  -27.4084  -26.9476   20.0083 C   0  0  0  0  0  0  0  0  0  0  0  0
  -27.9471  -12.8243   19.5296 C   0  0  0  0  0  0  0  0  0  0  0  0
  -30.5928  -13.6783   19.7606 C   0  0  0  0  0  0  0  0  0  0  0  0
  -28.8308  -12.1391   20.3632 C   0  0  0  0  0  0  0  0  0  0  0  0
  -22.6073  -15.9954   20.8750 C   0  0  0  0  0  0  0  0  0  0  0  0
  -20.8048  -16.9251   21.7245 C   0  0  0  0  0  0  0  0  0  0  0  0
  -21.0475  -14.4971   22.2668 C   0  0  0  0  0  0  0  0  0  0  0  0
  -22.0355  -27.5168   20.5299 C   0  0  0  0  0  0  0  0  0  0  0  0
  -21.8596  -27.8300   17.3061 C   0  0  0  0  0  0  0  0  0  0  0  0
  -22.7064  -22.5976   21.1598 C   0  0  0  0  0  0  0  0  0  0  0  0
  -23.4874  -27.8802   14.3070 C   0  0  0  0  0  0  0  0  0  0  0  0
  -17.6346  -27.9529   23.0792 C   0  0  0  0  0  0  0  0  0  0  0  0
  -23.7894  -29.2757   20.0987 C   0  0  0  0  0  0  0  0  0  0  0  0
  -24.0474  -26.9898   18.2405 C   0  0  0  0  0  0  0  0  0  0  0  0
  -18.0560  -27.4219   21.7115 C   0  0  0  0  0  0  0  0  0  0  0  0
  -20.1177  -20.9754   19.2871 C   0  0  0  0  0  0  0  0  0  0  0  0
  -19.2483  -26.4803   21.8486 C   0  0  0  0  0  0  0  0  0  0  0  0
  -20.3765  -19.4891   19.5300 C   0  0  0  0  0  0  0  0  0  0  0  0
  -21.4211  -21.7652   19.2184 C   0  0  0  0  0  0  0  0  0  0  0  0
  -22.5595  -20.1076   20.6600 C   0  0  0  0  0  0  0  0  0  0  0  0
  -20.4633  -27.2103   22.4338 C   0  0  1  0  0  0  0  0  0  0  0  0
  -22.5683  -28.5352   19.5621 C   0  0  1  0  0  0  0  0  0  0  0  0
  -21.2677  -19.2781   20.7668 C   0  0  2  0  0  0  0  0  0  0  0  0
  -26.2156  -22.1348   18.5963 C   0  0  0  0  0  0  0  0  0  0  0  0
  -29.0810  -21.3177   23.5457 C   0  0  0  0  0  0  0  0  0  0  0  0
  -22.9165  -22.6403   24.1922 C   0  0  0  0  0  0  0  0  0  0  0  0
  -23.0715  -28.1176   11.8436 C   0  0  0  0  0  0  0  0  0  0  0  0
  -24.7114  -23.7734   21.9919 C   0  0  0  0  0  0  0  0  0  0  0  0
  -20.8026  -24.9693   17.2112 C   0  0  0  0  0  0  0  0  0  0  0  0
  -21.3068  -24.9384   14.7590 C   0  0  0  0  0  0  0  0  0  0  0  0
  -19.6446  -26.5610   15.6685 C   0  0  0  0  0  0  0  0  0  0  0  0
  -31.1356  -26.7942   19.0978 C   0  0  0  0  0  0  0  0  0  0  0  0
  -30.8106  -25.2723   17.1151 C   0  0  0  0  0  0  0  0  0  0  0  0
  -25.1631  -30.3140   14.1409 C   0  0  0  0  0  0  0  0  0  0  0  0
  -30.5439  -21.8984   21.0645 C   0  0  0  0  0  0  0  0  0  0  0  0
  -23.7930  -21.8024   23.2649 C   0  0  0  0  0  0  0  0  0  0  0  0
  -31.0885  -23.2395   21.5736 C   0  0  0  0  0  0  0  0  0  0  0  0
  -30.5942  -24.4735   20.8251 C   0  0  0  0  0  0  0  0  0  0  0  0
  -28.9087  -25.6144   18.7325 C   0  0  0  0  0  0  0  0  0  1  0  0
  -22.1049  -26.9180   16.1283 C   0  0  1  0  0  0  0  0  0  0  0  0
  -23.4121  -28.8433   13.1360 C   0  0  2  0  0  0  0  0  0  0  0  0
  -24.0226  -22.4128   21.8722 C   0  0  1  0  0  0  0  0  0  0  0  0
  -20.9852  -25.8524   15.9607 C   0  0  0  0  0  0  0  0  0  0  0  0
  -30.4324  -25.5407   18.5726 C   0  0  0  0  0  0  0  0  0  0  0  0
  -22.6671  -17.2683   20.4748 N   0  0  0  0  0  0  0  0  0  0  0  0
  -21.5573  -17.8078   21.0070 N   0  0  0  0  0  0  0  0  0  0  0  0
  -22.8407  -27.8307   18.3077 N   0  0  0  0  0  0  0  0  0  0  0  0
  -22.2492  -21.5204   20.4006 N   0  0  0  0  0  0  0  0  0  0  0  0
  -19.6570  -17.3014   22.3272 N   0  0  0  0  0  0  0  0  0  0  0  0
  -21.8468  -13.3583   22.0974 N   0  0  0  0  0  0  0  0  0  0  0  0
  -24.8443  -21.5580   21.0744 N   0  0  0  0  0  0  0  0  0  0  0  0
  -21.1043  -28.0187   21.4189 N   0  0  0  0  0  0  0  0  0  0  0  0
  -22.2818  -27.7864   14.9695 N   0  0  0  0  0  0  0  0  0  0  0  0
  -24.7167  -29.5402   12.9538 N   0  3  0  0  0  0  0  0  0  0  0  0
  -30.9241  -24.3793   19.3835 N   0  3  0  0  0  0  0  0  0  0  0  0
  -19.9855  -14.4088   22.9286 O   0  0  0  0  0  0  0  0  0  0  0  0
  -22.4384  -26.3608   20.4733 O   0  0  0  0  0  0  0  0  0  0  0  0
  -20.8387  -28.5219   17.3328 O   0  0  0  0  0  0  0  0  0  0  0  0
  -22.1027  -23.6671   21.2783 O   0  0  0  0  0  0  0  0  0  0  0  0
  -24.5121  -27.2691   14.6020 O   0  0  0  0  0  0  0  0  0  0  0  0
  -26.6337  -12.4012   19.4132 O   0  0  0  0  0  0  0  0  0  0  0  0
  -28.5554  -26.2159   19.9773 O   0  0  0  0  0  0  0  0  0  1  0  0
  -31.8635  -14.0875   19.8702 F   0  0  0  0  0  0  0  0  0  0  0  0
  -28.4151  -11.0691   21.0548 F   0  0  0  0  0  0  0  0  0  0  0  0
  1  2  1  0  0  0  0
  1  5  2  0  0  0  0
  2  6  2  0  0  0  0
  3  8  2  0  0  0  0
  3 17  1  0  0  0  0
  4  9  1  0  0  0  0
  4 17  2  0  0  0  0
  5 19  1  0  0  0  0
  6 21  1  0  0  0  0
  7 10  2  0  0  0  0
  7 20  1  0  0  0  0
  8 27  1  0  0  0  0
  9 27  2  0  0  0  0
 10 28  1  0  0  0  0
 11 12  2  0  0  0  0
 11 29  1  0  0  0  0
 12 30  1  0  0  0  0
 13 22  1  0  0  0  0
 13 28  2  0  0  0  0
 14 23  2  0  0  0  0
 14 24  1  0  0  0  0
 15 25  2  0  0  0  0
 15 26  1  0  0  0  0
 16 30  2  0  0  0  0
 16 31  1  0  0  0  0
 17 32  1  0  0  0  0
 18 32  1  0  0  0  0
 18 33  2  0  0  0  0
 18 34  1  0  0  0  0
 19 21  2  0  0  0  0
 19 39  1  0  0  0  0
 20 22  2  0  0  0  0
 20 40  1  0  0  0  0
 21 48  1  0  0  0  0
 22 41  1  0  0  0  0
 23 25  1  0  0  0  0
 23 62  1  0  0  0  0
 24 26  2  0  0  0  0
 24 51  1  0  0  0  0
 25 52  1  0  0  0  0
 26 78  1  0  0  0  0
 27 88  1  0  0  0  0
 28 89  1  0  0  0  0
 29 31  2  0  0  0  0
 29 88  1  0  0  0  0
 30 90  1  0  0  0  0
 31 91  1  0  0  0  0
 32 72  2  0  0  0  0
 33 73  1  0  0  0  0
 33 76  1  0  0  0  0
 34 77  1  0  0  0  0
 34 83  2  0  0  0  0
 35 49  1  0  0  0  0
 35 79  1  0  0  0  0
 35 84  2  0  0  0  0
 36 67  1  0  0  0  0
 36 74  1  0  0  0  0
 36 85  2  0  0  0  0
 37 69  1  0  0  0  0
 37 75  1  0  0  0  0
 37 86  2  0  0  0  0
 38 68  1  0  0  0  0
 38 80  1  0  0  0  0
 38 87  2  0  0  0  0
 39 42  1  0  0  0  0
 40 49  1  0  0  0  0
 41 74  1  0  0  0  0
 42 44  1  0  0  0  0
 43 45  1  0  0  0  0
 43 46  1  0  0  0  0
 44 48  1  0  0  0  0
 45 50  1  0  0  0  0
 46 75  1  0  0  0  0
 47 50  1  0  0  0  0
 47 75  1  0  0  0  0
 48 79  1  0  0  0  0
 49 74  1  0  0  0  0
 50 73  1  0  0  0  0
 53 63  1  0  0  0  0
 54 68  1  0  0  0  0
 55 69  1  0  0  0  0
 56 70  1  0  0  0  0
 57 70  1  0  0  0  0
 58 70  1  0  0  0  0
 59 71  1  0  0  0  0
 60 71  1  0  0  0  0
 61 81  1  0  0  0  0
 62 64  1  0  0  0  0
 63 69  1  0  0  0  0
 64 65  1  0  0  0  0
 65 82  1  0  0  0  0
 66 71  1  0  0  0  0
 66 89  1  0  0  0  0
 67 70  1  0  0  0  0
 67 80  1  0  0  0  0
 68 81  1  0  0  0  0
 69 78  1  0  0  0  0
 71 82  1  0  0  0  0
 72 73  1  0  0  0  0
M  CHG  2  81   1  82   1
M  ISO  4  37 100  66 101  69 100  89 101
M  END
> <Batch ID>
0025

> <Smiles>
CC[100C:0](C)(Nc1cc(C)c(CCCNC(C)(C)[101CH2:1][101O:1]c2ccc3c(c2)CN(C(=O)C(NC(=O)C(C)NC)C(C)(C)C)C(C(=O)NC2CCCc4ccccc42)C3)cc1C)[100C:0](=O)N1CCCC(n2nc(-c3ccc(Oc4ccc(F)cc4F)cc3)c(C(N)=O)c2N)C1

> <Shape>
0.227

> <Color>
0.074

> <Negative vol penalty>
0.000

$$$$

  -OEChem-04052316243D

 85 93  0     1  0  0  0  0  0999 V2000
  -24.5913  -17.3945   26.7185 C   0  0  0  0  0  0  0  0  0  0  0  0
  -24.9954  -18.7008   26.9746 C   0  0  0  0  0  0  0  0  0  0  0  0
  -25.6460  -15.4560   21.5879 C   0  0  0  0  0  0  0  0  0  0  0  0
  -25.1423  -16.2800   19.3733 C   0  0  0  0  0  0  0  0  0  0  0  0
  -23.8957  -17.0982   25.5471 C   0  0  0  0  0  0  0  0  0  0  0  0
  -24.7050  -19.7115   26.0588 C   0  0  0  0  0  0  0  0  0  0  0  0
  -23.1417  -26.6961   25.7621 C   0  0  0  0  0  0  0  0  0  0  0  0
  -24.4173  -14.7967   21.6221 C   0  0  0  0  0  0  0  0  0  0  0  0
  -23.9136  -15.6206   19.4075 C   0  0  0  0  0  0  0  0  0  0  0  0
  -23.5553  -27.8664   25.1272 C   0  0  0  0  0  0  0  0  0  0  0  0
  -23.0825  -11.9501   20.3779 C   0  0  0  0  0  0  0  0  0  0  0  0
  -23.0650  -10.6355   20.8439 C   0  0  0  0  0  0  0  0  0  0  0  0
  -22.2788  -27.2513   23.1749 C   0  0  0  0  0  0  0  0  0  0  0  0
  -26.3805  -28.0991   20.3872 C   0  0  0  0  0  0  0  0  0  0  0  0
  -21.5513  -11.2825   22.6123 C   0  0  0  0  0  0  0  0  0  0  0  0
  -26.0085  -16.1977   20.4635 C   0  0  0  0  0  0  0  0  0  0  0  0
  -28.5032  -16.3701   19.9593 C   0  0  0  0  0  0  0  0  0  0  0  0
  -23.5882  -18.1074   24.6210 C   0  0  0  0  0  0  0  0  0  0  0  0
  -22.3008  -25.7878   25.1030 C   0  0  0  0  0  0  0  0  0  0  0  0
  -24.0058  -19.4282   24.8733 C   0  0  0  0  0  0  0  0  0  0  0  0
  -21.8539  -26.0715   23.8045 C   0  0  0  0  0  0  0  0  0  0  0  0
  -28.3838  -26.7560   20.5286 C   0  0  0  0  0  0  0  0  0  0  0  0
  -26.8016  -28.8432   21.4893 C   0  0  0  0  0  0  0  0  0  0  0  0
  -23.5511  -14.8789   20.5319 C   0  0  0  0  0  0  0  0  0  0  0  0
  -23.1263  -28.1427   23.8323 C   0  0  0  0  0  0  0  0  0  0  0  0
  -22.3344  -12.9309   21.0292 C   0  0  0  0  0  0  0  0  0  0  0  0
  -22.2994  -10.3017   21.9611 C   0  0  0  0  0  0  0  0  0  0  0  0
  -21.5688  -12.5971   22.1463 C   0  0  0  0  0  0  0  0  0  0  0  0
  -27.1716  -27.0554   19.9069 C   0  0  0  0  0  0  0  0  0  0  0  0
  -28.8050  -27.5002   21.6306 C   0  0  0  0  0  0  0  0  0  0  0  0
  -28.0138  -28.5438   22.1110 C   0  0  0  0  0  0  0  0  0  0  0  0
  -27.2773  -16.8795   20.4278 C   0  0  0  0  0  0  0  0  0  0  0  0
  -29.3941  -17.4000   20.1389 C   0  0  0  0  0  0  0  0  0  0  0  0
  -28.8093  -15.0813   19.4106 C   0  0  0  0  0  0  0  0  0  0  0  0
  -22.5562  -22.7560   24.1827 C   0  0  0  0  0  0  0  0  0  0  0  0
  -19.4328  -23.1390   23.3953 C   0  0  0  0  0  0  0  0  0  0  0  0
  -16.8959  -25.2616   22.5553 C   0  0  0  0  0  0  0  0  0  0  0  0
  -28.6471  -23.2518   20.3696 C   0  0  0  0  0  0  0  0  0  0  0  0
  -22.8756  -17.7305   23.3463 C   0  0  0  0  0  0  0  0  0  0  0  0
  -21.8420  -24.5429   25.8115 C   0  0  0  0  0  0  0  0  0  0  0  0
  -20.9343  -25.1388   23.0609 C   0  0  0  0  0  0  0  0  0  0  0  0
  -22.2800  -18.9249   22.6054 C   0  0  0  0  0  0  0  0  0  0  0  0
  -30.2026  -21.2098   22.9207 C   0  0  0  0  0  0  0  0  0  0  0  0
  -23.2953  -20.0600   22.5192 C   0  0  0  0  0  0  0  0  0  0  0  0
  -29.7370  -19.8101   22.5157 C   0  0  0  0  0  0  0  0  0  0  0  0
  -29.1072  -22.2460   22.6868 C   0  0  0  0  0  0  0  0  0  0  0  0
  -28.1171  -20.8863   20.8855 C   0  0  0  0  0  0  0  0  0  0  0  0
  -23.6880  -20.5563   23.9159 C   0  0  1  0  0  0  0  0  0  0  0  0
  -21.3995  -23.4397   24.8552 C   0  0  1  0  0  0  0  0  0  0  0  0
  -29.1877  -19.7968   21.0768 C   0  0  2  0  0  0  0  0  0  0  0  0
  -14.4648  -25.2770   21.9332 C   0  0  0  0  0  0  0  0  0  0  0  0
  -24.3730  -31.6506   21.6958 C   0  0  0  0  0  0  0  0  0  0  0  0
  -20.1439  -22.1392   20.6016 C   0  0  0  0  0  0  0  0  0  0  0  0
  -17.9615  -23.0611   19.7920 C   0  0  0  0  0  0  0  0  0  0  0  0
  -17.9890  -21.2525   21.5098 C   0  0  0  0  0  0  0  0  0  0  0  0
  -16.1865  -26.9196   24.9020 C   0  0  0  0  0  0  0  0  0  0  0  0
  -29.2293  -25.6356   20.0016 C   0  0  0  0  0  0  0  0  0  0  0  0
  -23.6470  -29.2417   21.7886 C   0  0  0  0  0  0  0  0  0  1  0  0
  -18.6889  -23.5926   22.1625 C   0  0  1  0  0  0  0  0  0  0  0  0
  -15.4720  -25.3821   23.0677 C   0  0  2  0  0  0  0  0  0  0  0  0
  -24.7255  -30.2170   21.3216 C   0  0  2  0  0  0  0  0  0  0  0  0
  -18.7147  -22.5282   21.0295 C   0  0  0  0  0  0  0  0  0  0  0  0
  -27.3767  -18.1353   20.8719 N   0  0  0  0  0  0  0  0  0  0  0  0
  -28.6757  -18.4236   20.6832 N   0  0  0  0  0  0  0  0  0  0  0  0
  -20.5185  -23.9315   23.7939 N   0  0  0  0  0  0  0  0  0  0  0  0
  -28.6412  -22.1939   21.2939 N   0  0  0  0  0  0  0  0  0  0  0  0
  -30.7140  -17.5207   19.8828 N   0  0  0  0  0  0  0  0  0  0  0  0
  -27.7761  -14.1412   19.2967 N   0  0  0  0  0  0  0  0  0  0  0  0
  -25.9915  -29.8709   21.9361 N   0  0  0  0  0  0  0  0  0  0  0  0
  -22.6505  -21.4057   24.4606 N   0  0  0  0  0  0  0  0  0  0  0  0
  -17.3487  -23.9602   22.6066 N   0  0  0  0  0  0  0  0  0  0  0  0
  -29.1532  -24.4583   20.8376 N   0  0  0  0  0  0  0  0  0  0  0  0
  -15.2763  -26.6925   23.7501 N   0  3  0  0  0  0  0  0  0  0  0  0
  -29.9682  -14.7669   19.0479 O   0  0  0  0  0  0  0  0  0  0  0  0
  -23.3067  -23.4052   23.4636 O   0  0  0  0  0  0  0  0  0  0  0  0
  -19.0597  -22.1230   23.9871 O   0  0  0  0  0  0  0  0  0  0  0  0
  -17.5405  -26.2249   22.1467 O   0  0  0  0  0  0  0  0  0  0  0  0
  -28.2364  -23.1289   19.2106 O   0  0  0  0  0  0  0  0  0  0  0  0
  -22.3522  -14.2355   20.5648 O   0  0  0  0  0  0  0  0  0  0  0  0
  -23.5291  -29.2840   23.2101 O   0  0  0  0  0  0  0  0  0  1  0  0
  -22.2815   -9.0390   22.4075 F   0  0  0  0  0  0  0  0  0  0  0  0
  -20.8471  -13.5348   22.7754 F   0  0  0  0  0  0  0  0  0  0  0  0
  -26.6117  -26.1617   18.5388 Cl  0  0  0  0  0  0  0  0  0  0  0  0
  -30.3189  -27.1059   22.3866 Cl  0  0  0  0  0  0  0  0  0  0  0  0
  -28.5126  -29.4860   23.4838 Cl  0  0  0  0  0  0  0  0  0  0  0  0
  1  2  1  0  0  0  0
  1  5  2  0  0  0  0
  2  6  2  0  0  0  0
  3  8  2  0  0  0  0
  3 16  1  0  0  0  0
  4  9  1  0  0  0  0
  4 16  2  0  0  0  0
  5 18  1  0  0  0  0
  6 20  1  0  0  0  0
  7 10  2  0  0  0  0
  7 19  1  0  0  0  0
  8 24  1  0  0  0  0
  9 24  2  0  0  0  0
 10 25  1  0  0  0  0
 11 12  2  0  0  0  0
 11 26  1  0  0  0  0
 12 27  1  0  0  0  0
 13 21  1  0  0  0  0
 13 25  2  0  0  0  0
 14 23  1  0  0  0  0
 14 29  2  0  0  0  0
 15 27  2  0  0  0  0
 15 28  1  0  0  0  0
 16 32  1  0  0  0  0
 17 32  1  0  0  0  0
 17 33  2  0  0  0  0
 17 34  1  0  0  0  0
 18 20  2  0  0  0  0
 18 39  1  0  0  0  0
 19 21  2  0  0  0  0
 19 40  1  0  0  0  0
 20 48  1  0  0  0  0
 21 41  1  0  0  0  0
 22 29  1  0  0  0  0
 22 30  2  0  0  0  0
 22 57  1  0  0  0  0
 23 31  2  0  0  0  0
 23 69  1  0  0  0  0
 24 79  1  0  0  0  0
 25 80  1  0  0  0  0
 26 28  2  0  0  0  0
 26 79  1  0  0  0  0
 27 81  1  0  0  0  0
 28 82  1  0  0  0  0
 29 83  1  0  0  0  0
 30 31  1  0  0  0  0
 30 84  1  0  0  0  0
 31 85  1  0  0  0  0
 32 63  2  0  0  0  0
 33 64  1  0  0  0  0
 33 67  1  0  0  0  0
 34 68  1  0  0  0  0
 34 74  2  0  0  0  0
 35 49  1  0  0  0  0
 35 70  1  0  0  0  0
 35 75  2  0  0  0  0
 36 59  1  0  0  0  0
 36 65  1  0  0  0  0
 36 76  2  0  0  0  0
 37 60  1  0  0  0  0
 37 71  1  0  0  0  0
 37 77  2  0  0  0  0
 38 66  1  0  0  0  0
 38 72  1  0  0  0  0
 38 78  2  0  0  0  0
 39 42  1  0  0  0  0
 40 49  1  0  0  0  0
 41 65  1  0  0  0  0
 42 44  1  0  0  0  0
 43 45  1  0  0  0  0
 43 46  1  0  0  0  0
 44 48  1  0  0  0  0
 45 50  1  0  0  0  0
 46 66  1  0  0  0  0
 47 50  1  0  0  0  0
 47 66  1  0  0  0  0
 48 70  1  0  0  0  0
 49 65  1  0  0  0  0
 50 64  1  0  0  0  0
 51 60  1  0  0  0  0
 52 61  1  0  0  0  0
 53 62  1  0  0  0  0
 54 62  1  0  0  0  0
 55 62  1  0  0  0  0
 56 73  1  0  0  0  0
 57 72  1  0  0  0  0
 58 61  1  0  0  0  0
 58 80  1  0  0  0  0
 59 62  1  0  0  0  0
 59 71  1  0  0  0  0
 60 73  1  0  0  0  0
 61 69  1  0  0  0  0
 63 64  1  0  0  0  0
M  CHG  1  73   1
M  ISO  4  38 100  58 101  72 100  80 101
M  END
> <Batch ID>
0025

> <Smiles>
CNC(C)C(=O)NC(C(=O)N1Cc2cc([101O:1][101CH2:1]C(C)Nc3cc(Cl)c(C[100NH:0][100C:0](=O)N4CCCC(n5nc(-c6ccc(Oc7ccc(F)cc7F)cc6)c(C(N)=O)c5N)C4)c(Cl)c3Cl)ccc2CC1C(=O)NC1CCCc2ccccc21)C(C)(C)C

> <Shape>
0.203

> <Color>
0.059

> <Negative vol penalty>
0.000

$$$$

  -OEChem-04052316243D

 89 98  0     1  0  0  0  0  0999 V2000
  -24.9765  -37.0098   22.5437 C   0  0  0  0  0  0  0  0  0  0  0  0
  -25.7733  -35.9790   22.0558 C   0  0  0  0  0  0  0  0  0  0  0  0
  -26.0544  -13.8227   21.1766 C   0  0  0  0  0  0  0  0  0  0  0  0
  -27.6875  -13.0093   19.5928 C   0  0  0  0  0  0  0  0  0  0  0  0
  -23.9988  -36.7405   23.5005 C   0  0  0  0  0  0  0  0  0  0  0  0
  -25.5935  -34.6784   22.5254 C   0  0  0  0  0  0  0  0  0  0  0  0
  -26.2396  -29.4906   19.3356 C   0  0  0  0  0  0  0  0  0  0  0  0
  -25.6545  -12.5122   21.4374 C   0  0  0  0  0  0  0  0  0  0  0  0
  -27.2876  -11.6987   19.8536 C   0  0  0  0  0  0  0  0  0  0  0  0
  -27.2856  -28.5740   19.2373 C   0  0  0  0  0  0  0  0  0  0  0  0
  -23.7209  -10.1597   19.9706 C   0  0  0  0  0  0  0  0  0  0  0  0
  -22.3516   -9.8992   20.0242 C   0  0  0  0  0  0  0  0  0  0  0  0
  -26.2293  -27.1980   20.9136 C   0  0  0  0  0  0  0  0  0  0  0  0
  -22.5851   -9.1418   22.3065 C   0  0  0  0  0  0  0  0  0  0  0  0
  -27.0708  -14.0713   20.2542 C   0  0  0  0  0  0  0  0  0  0  0  0
  -28.4895  -16.1551   20.6454 C   0  0  0  0  0  0  0  0  0  0  0  0
  -23.8005  -35.4343   23.9750 C   0  0  0  0  0  0  0  0  0  0  0  0
  -25.1843  -29.2727   20.2331 C   0  0  0  0  0  0  0  0  0  0  0  0
  -24.6132  -34.3916   23.4905 C   0  0  0  0  0  0  0  0  0  0  0  0
  -25.1699  -28.1120   21.0196 C   0  0  0  0  0  0  0  0  0  0  0  0
  -31.1300  -22.1955   19.8393 C   0  0  0  0  0  0  0  0  0  0  0  0
  -26.2711  -11.4501   20.7760 C   0  0  0  0  0  0  0  0  0  0  0  0
  -27.2820  -27.4289   20.0284 C   0  0  0  0  0  0  0  0  0  0  0  0
  -24.5223   -9.9112   21.0849 C   0  0  0  0  0  0  0  0  0  0  0  0
  -21.7837   -9.3903   21.1921 C   0  0  0  0  0  0  0  0  0  0  0  0
  -23.9544   -9.4023   22.2529 C   0  0  0  0  0  0  0  0  0  0  0  0
  -27.4840  -15.4250   19.9839 C   0  0  0  0  0  0  0  0  0  0  0  0
  -30.5449  -22.9187   18.8250 C   0  0  0  0  0  0  0  0  0  0  0  0
  -31.9037  -21.2202   19.1826 C   0  0  0  0  0  0  0  0  0  0  0  0
  -28.4936  -17.3780   20.0203 C   0  0  0  0  0  0  0  0  0  0  0  0
  -29.3436  -15.7628   21.7282 C   0  0  0  0  0  0  0  0  0  0  0  0
  -24.0404  -30.8137   22.7669 C   0  0  0  0  0  0  0  0  0  0  0  0
  -21.7173  -28.5555   22.6044 C   0  0  0  0  0  0  0  0  0  0  0  0
  -20.7722  -25.4396   21.5823 C   0  0  0  0  0  0  0  0  0  0  0  0
  -28.3511  -20.4706   15.3768 C   0  0  0  0  0  0  0  0  0  0  0  0
  -22.7631  -35.2000   25.0443 C   0  0  0  0  0  0  0  0  0  0  0  0
  -24.0501  -30.2578   20.3079 C   0  0  0  0  0  0  0  0  0  0  0  0
  -30.9289  -22.4650   21.2811 C   0  0  0  0  0  0  0  0  0  0  0  0
  -24.0501  -27.8215   21.9840 C   0  0  0  0  0  0  0  0  0  0  0  0
  -22.3846  -33.7309   25.2144 C   0  0  0  0  0  0  0  0  0  0  0  0
  -25.2336  -19.4013   16.7239 C   0  0  0  0  0  0  0  0  0  0  0  0
  -23.6357  -32.8596   25.2634 C   0  0  0  0  0  0  0  0  0  0  0  0
  -25.6238  -18.3279   17.7416 C   0  0  0  0  0  0  0  0  0  0  0  0
  -26.1365  -19.3666   15.4929 C   0  0  0  0  0  0  0  0  0  0  0  0
  -27.9711  -18.3663   16.7996 C   0  0  0  0  0  0  0  0  0  0  0  0
  -24.4319  -32.9634   23.9570 C   0  0  1  0  0  0  0  0  0  0  0  0
  -23.2862  -30.1903   21.6267 C   0  0  1  0  0  0  0  0  0  0  0  0
  -27.1243  -18.3983   18.0834 C   0  0  2  0  0  0  0  0  0  0  0  0
  -29.5990  -24.0913   18.9346 C   0  0  0  0  0  0  0  0  0  0  0  0
  -29.6233  -23.2888   21.5331 C   0  0  0  0  0  0  0  0  0  0  0  0
  -29.5341  -24.5494   20.5015 C   0  0  1  0  0  0  0  0  0  0  0  0
  -32.7480  -20.1768   19.7889 C   0  0  0  0  0  0  0  0  0  0  0  0
  -30.1094  -25.2290   18.0081 C   0  0  0  0  0  0  0  0  0  0  0  0
  -28.2178  -23.6841   18.3600 C   0  0  0  0  0  0  0  0  0  0  0  0
  -28.4228  -22.3132   21.4242 C   0  0  0  0  0  0  0  0  0  0  0  0
  -29.6539  -23.7334   23.0201 C   0  0  0  0  0  0  0  0  0  0  0  0
  -30.7181  -25.5256   20.8031 C   0  0  0  0  0  0  0  0  0  0  0  0
  -18.8241  -23.8584   21.6270 C   0  0  0  0  0  0  0  0  0  0  0  0
  -22.2989  -27.9255   25.5327 C   0  0  0  0  0  0  0  0  0  0  0  0
  -21.0480  -25.7758   25.2463 C   0  0  0  0  0  0  0  0  0  0  0  0
  -19.8710  -27.9529   24.9338 C   0  0  0  0  0  0  0  0  0  0  0  0
  -20.5984  -25.3869   18.6284 C   0  0  0  0  0  0  0  0  0  0  0  0
  -28.2523  -25.3847   20.7603 C   0  0  0  0  0  0  0  0  0  1  0  0
  -30.6487  -22.6833   16.2998 C   0  0  0  0  0  0  0  0  0  0  0  0
  -30.6225  -21.4705   15.3732 C   0  0  0  0  0  0  0  0  0  0  0  0
  -21.5248  -27.1760   23.1864 C   0  0  1  0  0  0  0  0  0  0  0  0
  -19.5367  -24.9523   20.8471 C   0  0  2  0  0  0  0  0  0  0  0  0
  -21.2079  -27.2137   24.7081 C   0  0  0  0  0  0  0  0  0  0  0  0
  -26.8921  -16.1257   19.0130 N   0  0  0  0  0  0  0  0  0  0  0  0
  -31.8169  -21.3073   17.8525 N   0  0  0  0  0  0  0  0  0  0  0  0
  -30.9823  -22.3445   17.6639 N   0  0  0  0  0  0  0  0  0  0  0  0
  -27.5276  -17.3089   19.0599 N   0  0  0  0  0  0  0  0  0  0  0  0
  -22.9671  -28.8179   22.0255 N   0  0  0  0  0  0  0  0  0  0  0  0
  -27.5459  -19.4383   15.8859 N   0  0  0  0  0  0  0  0  0  0  0  0
  -29.2291  -18.4950   20.2039 N   0  0  0  0  0  0  0  0  0  0  0  0
  -29.2070  -14.4702   22.2524 N   0  0  0  0  0  0  0  0  0  0  0  0
  -23.8093  -32.1673   22.9211 N   0  0  0  0  0  0  0  0  0  0  0  0
  -20.4958  -26.5317   22.3775 N   0  0  0  0  0  0  0  0  0  0  0  0
  -29.6731  -20.4690   15.8048 N   0  0  0  0  0  0  0  0  0  0  0  0
  -19.9099  -24.4096   19.5103 N   0  3  0  0  0  0  0  0  0  0  0  0
  -30.1912  -16.5413   22.2273 O   0  0  0  0  0  0  0  0  0  0  0  0
  -24.7763  -30.1178   23.4568 O   0  0  0  0  0  0  0  0  0  0  0  0
  -20.7905  -29.3680   22.6550 O   0  0  0  0  0  0  0  0  0  0  0  0
  -21.8716  -24.9028   21.4660 O   0  0  0  0  0  0  0  0  0  0  0  0
  -27.9222  -21.3330   14.6027 O   0  0  0  0  0  0  0  0  0  0  0  0
  -25.8814  -10.1711   21.0304 O   0  0  0  0  0  0  0  0  0  0  0  0
  -28.3140  -26.5224   19.9338 O   0  0  0  0  0  0  0  0  0  1  0  0
  -20.4686   -9.1416   21.2439 F   0  0  0  0  0  0  0  0  0  0  0  0
  -24.7189   -9.1626   23.3270 F   0  0  0  0  0  0  0  0  0  0  0  0
  1  2  1  0  0  0  0
  1  5  2  0  0  0  0
  2  6  2  0  0  0  0
  3  8  2  0  0  0  0
  3 15  1  0  0  0  0
  4  9  1  0  0  0  0
  4 15  2  0  0  0  0
  5 17  1  0  0  0  0
  6 19  1  0  0  0  0
  7 10  2  0  0  0  0
  7 18  1  0  0  0  0
  8 22  1  0  0  0  0
  9 22  2  0  0  0  0
 10 23  1  0  0  0  0
 11 12  2  0  0  0  0
 11 24  1  0  0  0  0
 12 25  1  0  0  0  0
 13 20  1  0  0  0  0
 13 23  2  0  0  0  0
 14 25  2  0  0  0  0
 14 26  1  0  0  0  0
 15 27  1  0  0  0  0
 16 27  1  0  0  0  0
 16 30  2  0  0  0  0
 16 31  1  0  0  0  0
 17 19  2  0  0  0  0
 17 36  1  0  0  0  0
 18 20  2  0  0  0  0
 18 37  1  0  0  0  0
 19 46  1  0  0  0  0
 20 39  1  0  0  0  0
 21 28  2  0  0  0  0
 21 29  1  0  0  0  0
 21 38  1  0  0  0  0
 22 86  1  0  0  0  0
 23 87  1  0  0  0  0
 24 26  2  0  0  0  0
 24 86  1  0  0  0  0
 25 88  1  0  0  0  0
 26 89  1  0  0  0  0
 27 69  2  0  0  0  0
 28 49  1  0  0  0  0
 28 71  1  0  0  0  0
 29 52  1  0  0  0  0
 29 70  2  0  0  0  0
 30 72  1  0  0  0  0
 30 75  1  0  0  0  0
 31 76  1  0  0  0  0
 31 81  2  0  0  0  0
 32 47  1  0  0  0  0
 32 77  1  0  0  0  0
 32 82  2  0  0  0  0
 33 66  1  0  0  0  0
 33 73  1  0  0  0  0
 33 83  2  0  0  0  0
 34 67  1  0  0  0  0
 34 78  1  0  0  0  0
 34 84  2  0  0  0  0
 35 74  1  0  0  0  0
 35 79  1  0  0  0  0
 35 85  2  0  0  0  0
 36 40  1  0  0  0  0
 37 47  1  0  0  0  0
 38 50  1  0  0  0  0
 39 73  1  0  0  0  0
 40 42  1  0  0  0  0
 41 43  1  0  0  0  0
 41 44  1  0  0  0  0
 42 46  1  0  0  0  0
 43 48  1  0  0  0  0
 44 74  1  0  0  0  0
 45 48  1  0  0  0  0
 45 74  1  0  0  0  0
 46 77  1  0  0  0  0
 47 73  1  0  0  0  0
 48 72  1  0  0  0  0
 49 51  1  0  0  0  0
 49 53  1  0  0  0  0
 49 54  1  0  0  0  0
 50 51  1  0  0  0  0
 50 55  1  0  0  0  0
 50 56  1  0  0  0  0
 51 57  1  0  0  0  0
 51 63  1  0  0  0  0
 58 67  1  0  0  0  0
 59 68  1  0  0  0  0
 60 68  1  0  0  0  0
 61 68  1  0  0  0  0
 62 80  1  0  0  0  0
 63 87  1  0  0  0  0
 64 65  1  0  0  0  0
 64 71  1  0  0  0  0
 65 79  1  0  0  0  0
 66 68  1  0  0  0  0
 66 78  1  0  0  0  0
 67 80  1  0  0  0  0
 69 72  1  0  0  0  0
 70 71  1  0  0  0  0
M  CHG  1  80   1
M  ISO  4  35 100  63 101  79 100  87 101
M  END
> <Batch ID>
0025

> <Smiles>
CNC(C)C(=O)NC(C(=O)N1Cc2cc([101O:1][101CH2:1]C3(C)C(C)(C)Cc4c(C)nn(CC[100NH:0][100C:0](=O)N5CCCC(n6nc(-c7ccc(Oc8ccc(F)cc8F)cc7)c(C(N)=O)c6N)C5)c4C3(C)C)ccc2CC1C(=O)NC1CCCc2ccccc21)C(C)(C)C

> <Shape>
0.305

> <Color>
0.062

> <Negative vol penalty>
0.000

$$$$

  -OEChem-04052316243D

 88 96  0     1  0  0  0  0  0999 V2000
  -29.2302  -31.5992   26.6095 C   0  0  0  0  0  0  0  0  0  0  0  0
  -28.9395  -30.5091   25.7955 C   0  0  0  0  0  0  0  0  0  0  0  0
  -23.8749  -11.7261   23.0949 C   0  0  0  0  0  0  0  0  0  0  0  0
  -23.1350  -13.2795   21.3988 C   0  0  0  0  0  0  0  0  0  0  0  0
  -28.2060  -32.4466   27.0298 C   0  0  0  0  0  0  0  0  0  0  0  0
  -27.6241  -30.2652   25.4022 C   0  0  0  0  0  0  0  0  0  0  0  0
  -27.2469  -29.1268   20.4821 C   0  0  0  0  0  0  0  0  0  0  0  0
  -23.0994  -12.3926   24.0436 C   0  0  0  0  0  0  0  0  0  0  0  0
  -22.3595  -13.9459   22.3475 C   0  0  0  0  0  0  0  0  0  0  0  0
  -27.5937  -27.8317   20.0999 C   0  0  0  0  0  0  0  0  0  0  0  0
  -19.9032  -15.8386   24.2456 C   0  0  0  0  0  0  0  0  0  0  0  0
  -18.6008  -16.1886   23.8896 C   0  0  0  0  0  0  0  0  0  0  0  0
  -25.2582  -27.2308   20.0387 C   0  0  0  0  0  0  0  0  0  0  0  0
  -30.5027  -15.8868   16.0555 C   0  0  0  0  0  0  0  0  0  0  0  0
  -18.0746  -13.8590   23.5244 C   0  0  0  0  0  0  0  0  0  0  0  0
  -23.8927  -12.1696   21.7725 C   0  0  0  0  0  0  0  0  0  0  0  0
  -24.3001  -10.4042   19.9767 C   0  0  0  0  0  0  0  0  0  0  0  0
  -26.8787  -32.2186   26.6335 C   0  0  0  0  0  0  0  0  0  0  0  0
  -25.9014  -29.4813   20.6565 C   0  0  0  0  0  0  0  0  0  0  0  0
  -26.5810  -31.1097   25.8186 C   0  0  0  0  0  0  0  0  0  0  0  0
  -24.8969  -28.5318   20.4208 C   0  0  0  0  0  0  0  0  0  0  0  0
  -30.6694  -17.0891   15.3682 C   0  0  0  0  0  0  0  0  0  0  0  0
  -29.5758  -17.6976   14.7521 C   0  0  0  0  0  0  0  0  0  0  0  0
  -28.3156  -17.1039   14.8234 C   0  0  0  0  0  0  0  0  0  0  0  0
  -29.2426  -15.2930   16.1267 C   0  0  0  0  0  0  0  0  0  0  0  0
  -22.3417  -13.5025   23.6699 C   0  0  0  0  0  0  0  0  0  0  0  0
  -26.5995  -26.8826   19.8809 C   0  0  0  0  0  0  0  0  0  0  0  0
  -20.2914  -14.4988   24.2409 C   0  0  0  0  0  0  0  0  0  0  0  0
  -17.6865  -15.1988   23.5291 C   0  0  0  0  0  0  0  0  0  0  0  0
  -19.3771  -13.5090   23.8803 C   0  0  0  0  0  0  0  0  0  0  0  0
  -28.1490  -15.9016   15.5106 C   0  0  0  0  0  0  0  0  0  0  0  0
  -24.6941  -11.4819   20.7921 C   0  0  0  0  0  0  0  0  0  0  0  0
  -25.4138  -10.1164   19.2261 C   0  0  0  0  0  0  0  0  0  0  0  0
  -23.0400   -9.7240   19.9040 C   0  0  0  0  0  0  0  0  0  0  0  0
  -24.1482  -30.4955   23.1062 C   0  0  0  0  0  0  0  0  0  0  0  0
  -21.8598  -30.8202   20.8303 C   0  0  0  0  0  0  0  0  0  0  0  0
  -20.6523  -29.8776   17.7806 C   0  0  0  0  0  0  0  0  0  0  0  0
  -30.1190  -13.3659   17.4920 C   0  0  0  0  0  0  0  0  0  0  0  0
  -25.7988  -33.1349   27.1518 C   0  0  0  0  0  0  0  0  0  0  0  0
  -25.5426  -30.8898   21.0432 C   0  0  0  0  0  0  0  0  0  0  0  0
  -23.4367  -28.8674   20.5745 C   0  0  0  0  0  0  0  0  0  0  0  0
  -24.4842  -33.0225   26.3839 C   0  0  0  0  0  0  0  0  0  0  0  0
  -30.1947  -10.3475   19.3790 C   0  0  0  0  0  0  0  0  0  0  0  0
  -24.1084  -31.5581   26.1805 C   0  0  0  0  0  0  0  0  0  0  0  0
  -28.7555  -10.1946   19.8763 C   0  0  0  0  0  0  0  0  0  0  0  0
  -30.6357  -11.8100   19.3595 C   0  0  0  0  0  0  0  0  0  0  0  0
  -28.3023  -12.5654   19.1274 C   0  0  0  0  0  0  0  0  0  0  0  0
  -25.1701  -30.8263   25.3506 C   0  0  1  0  0  0  0  0  0  0  0  0
  -24.1656  -30.9993   21.6908 C   0  0  1  0  0  0  0  0  0  0  0  0
  -27.7913  -11.1156   19.1031 C   0  0  2  0  0  0  0  0  0  0  0  0
  -32.0297  -17.7037   15.3062 C   0  0  0  0  0  0  0  0  0  0  0  0
  -27.1548  -17.7724   14.1536 C   0  0  0  0  0  0  0  0  0  0  0  0
  -18.7430  -30.2890   16.2050 C   0  0  0  0  0  0  0  0  0  0  0  0
  -20.0412  -29.1194   22.5939 C   0  0  0  0  0  0  0  0  0  0  0  0
  -18.5550  -28.7746   20.6087 C   0  0  0  0  0  0  0  0  0  0  0  0
  -18.9150  -31.0722   21.5109 C   0  0  0  0  0  0  0  0  0  0  0  0
  -22.4637  -30.8674   15.6598 C   0  0  0  0  0  0  0  0  0  0  0  0
  -29.7603  -18.9894   14.0118 C   0  0  0  0  0  0  0  0  0  0  0  0
  -29.0562  -22.8207   16.0549 C   0  0  0  0  0  0  0  0  0  0  0  0
  -29.2279  -24.0229   16.9864 C   0  0  0  0  0  0  0  0  0  0  0  0
  -30.3165  -22.5841   15.2176 C   0  0  0  0  0  0  0  0  0  0  0  0
  -27.9848  -24.2415   17.8464 C   0  0  0  0  0  0  0  0  0  0  0  0
  -30.1738  -21.4442   14.2166 C   0  0  0  0  0  0  0  0  0  0  0  0
  -28.1310  -25.4610   18.7454 C   0  0  0  0  0  0  0  0  0  1  0  0
  -20.7873  -29.9255   20.2573 C   0  0  1  0  0  0  0  0  0  0  0  0
  -20.1559  -30.6906   16.5986 C   0  0  2  0  0  0  0  0  0  0  0  0
  -19.6021  -29.7158   21.2416 C   0  0  0  0  0  0  0  0  0  0  0  0
  -25.9593  -11.8535   20.5798 N   0  0  0  0  0  0  0  0  0  0  0  0
  -26.3700  -11.0045   19.6225 N   0  0  0  0  0  0  0  0  0  0  0  0
  -23.1368  -30.2562   20.9603 N   0  0  0  0  0  0  0  0  0  0  0  0
  -29.6770  -12.6213   18.6061 N   0  0  0  0  0  0  0  0  0  0  0  0
  -25.6586   -9.1929   18.2724 N   0  0  0  0  0  0  0  0  0  0  0  0
  -22.0025  -10.1477   20.7457 N   0  0  0  0  0  0  0  0  0  0  0  0
  -29.1125  -14.0726   16.8348 N   0  0  0  0  0  0  0  0  0  0  0  0
  -25.0270  -31.1508   23.9475 N   0  0  0  0  0  0  0  0  0  0  0  0
  -20.4048  -30.5142   18.9784 N   0  0  0  0  0  0  0  0  0  0  0  0
  -21.0469  -30.4898   15.4210 N   0  3  0  0  0  0  0  0  0  0  0  0
  -29.9261  -20.1613   14.9155 N   0  3  0  0  0  0  0  0  0  0  0  0
  -22.8451   -8.7581   19.1277 O   0  0  0  0  0  0  0  0  0  0  0  0
  -23.3923  -29.5809   23.4128 O   0  0  0  0  0  0  0  0  0  0  0  0
  -21.5766  -31.9790   21.1440 O   0  0  0  0  0  0  0  0  0  0  0  0
  -21.2011  -28.7852   17.6542 O   0  0  0  0  0  0  0  0  0  0  0  0
  -31.2984  -13.3541   17.1302 O   0  0  0  0  0  0  0  0  0  0  0  0
  -21.5846  -14.1529   24.5953 O   0  0  0  0  0  0  0  0  0  0  0  0
  -26.9352  -25.6176   19.5083 O   0  0  0  0  0  0  0  0  0  1  0  0
  -16.4353  -15.5349   23.1887 F   0  0  0  0  0  0  0  0  0  0  0  0
  -19.7439  -12.2201   23.8751 F   0  0  0  0  0  0  0  0  0  0  0  0
  -26.5811  -15.1653   15.5993 Cl  0  0  0  0  0  0  0  0  0  0  0  0
  1  2  1  0  0  0  0
  1  5  2  0  0  0  0
  2  6  2  0  0  0  0
  3  8  2  0  0  0  0
  3 16  1  0  0  0  0
  4  9  1  0  0  0  0
  4 16  2  0  0  0  0
  5 18  1  0  0  0  0
  6 20  1  0  0  0  0
  7 10  2  0  0  0  0
  7 19  1  0  0  0  0
  8 26  1  0  0  0  0
  9 26  2  0  0  0  0
 10 27  1  0  0  0  0
 11 12  2  0  0  0  0
 11 28  1  0  0  0  0
 12 29  1  0  0  0  0
 13 21  1  0  0  0  0
 13 27  2  0  0  0  0
 14 22  2  0  0  0  0
 14 25  1  0  0  0  0
 15 29  2  0  0  0  0
 15 30  1  0  0  0  0
 16 32  1  0  0  0  0
 17 32  1  0  0  0  0
 17 33  2  0  0  0  0
 17 34  1  0  0  0  0
 18 20  2  0  0  0  0
 18 39  1  0  0  0  0
 19 21  2  0  0  0  0
 19 40  1  0  0  0  0
 20 48  1  0  0  0  0
 21 41  1  0  0  0  0
 22 23  1  0  0  0  0
 22 51  1  0  0  0  0
 23 24  2  0  0  0  0
 23 58  1  0  0  0  0
 24 31  1  0  0  0  0
 24 52  1  0  0  0  0
 25 31  2  0  0  0  0
 25 74  1  0  0  0  0
 26 84  1  0  0  0  0
 27 85  1  0  0  0  0
 28 30  2  0  0  0  0
 28 84  1  0  0  0  0
 29 86  1  0  0  0  0
 30 87  1  0  0  0  0
 31 88  1  0  0  0  0
 32 68  2  0  0  0  0
 33 69  1  0  0  0  0
 33 72  1  0  0  0  0
 34 73  1  0  0  0  0
 34 79  2  0  0  0  0
 35 49  1  0  0  0  0
 35 75  1  0  0  0  0
 35 80  2  0  0  0  0
 36 65  1  0  0  0  0
 36 70  1  0  0  0  0
 36 81  2  0  0  0  0
 37 66  1  0  0  0  0
 37 76  1  0  0  0  0
 37 82  2  0  0  0  0
 38 71  1  0  0  0  0
 38 74  1  0  0  0  0
 38 83  2  0  0  0  0
 39 42  1  0  0  0  0
 40 49  1  0  0  0  0
 41 70  1  0  0  0  0
 42 44  1  0  0  0  0
 43 45  1  0  0  0  0
 43 46  1  0  0  0  0
 44 48  1  0  0  0  0
 45 50  1  0  0  0  0
 46 71  1  0  0  0  0
 47 50  1  0  0  0  0
 47 71  1  0  0  0  0
 48 75  1  0  0  0  0
 49 70  1  0  0  0  0
 50 69  1  0  0  0  0
 53 66  1  0  0  0  0
 54 67  1  0  0  0  0
 55 67  1  0  0  0  0
 56 67  1  0  0  0  0
 57 77  1  0  0  0  0
 58 78  1  0  0  0  0
 59 60  1  0  0  0  0
 59 61  1  0  0  0  0
 60 62  1  0  0  0  0
 61 63  1  0  0  0  0
 62 64  1  0  0  0  0
 63 78  1  0  0  0  0
 64 85  1  0  0  0  0
 65 67  1  0  0  0  0
 65 76  1  0  0  0  0
 66 77  1  0  0  0  0
 68 69  1  0  0  0  0
M  CHG  2  77   1  78   1
M  ISO  4  38 100  64 101  74 100  85 101
M  END
> <Batch ID>
0025

> <Smiles>
CNC(C)C(=O)NC(C(=O)N1Cc2cc([101O:1][101CH2:1]CCCCCNCc3c(C)cc([100NH:0][100C:0](=O)N4CCCC(n5nc(-c6ccc(Oc7ccc(F)cc7F)cc6)c(C(N)=O)c5N)C4)c(Cl)c3C)ccc2CC1C(=O)NC1CCCc2ccccc21)C(C)(C)C

> <Shape>
0.226

> <Color>
0.066

> <Negative vol penalty>
0.000

$$$$

  -OEChem-04052316243D

 89 97  0     1  0  0  0  0  0999 V2000
  -27.8920  -25.1399   16.4333 C   0  0  0  0  0  0  0  0  0  0  0  0
  -26.7810  -25.2469   17.2638 C   0  0  0  0  0  0  0  0  0  0  0  0
  -24.4137   -9.0341   21.4899 C   0  0  0  0  0  0  0  0  0  0  0  0
  -22.4832  -10.3006   20.7782 C   0  0  0  0  0  0  0  0  0  0  0  0
  -29.0980  -25.7330   16.8044 C   0  0  0  0  0  0  0  0  0  0  0  0
  -26.8757  -25.9461   18.4665 C   0  0  0  0  0  0  0  0  0  0  0  0
  -22.9296  -29.0242   19.2400 C   0  0  0  0  0  0  0  0  0  0  0  0
  -23.6344   -7.8787   21.5475 C   0  0  0  0  0  0  0  0  0  0  0  0
  -21.7039   -9.1451   20.8358 C   0  0  0  0  0  0  0  0  0  0  0  0
  -21.7433  -28.4399   19.6815 C   0  0  0  0  0  0  0  0  0  0  0  0
  -21.3879   -6.4927   23.6587 C   0  0  0  0  0  0  0  0  0  0  0  0
  -21.5293   -5.6717   24.7774 C   0  0  0  0  0  0  0  0  0  0  0  0
  -22.2502  -29.1291   21.9370 C   0  0  0  0  0  0  0  0  0  0  0  0
  -22.2131   -3.8457   23.3508 C   0  0  0  0  0  0  0  0  0  0  0  0
  -23.8381  -10.2451   21.1052 C   0  0  0  0  0  0  0  0  0  0  0  0
  -25.3669  -11.9221   19.9398 C   0  0  0  0  0  0  0  0  0  0  0  0
  -29.2049  -26.4481   18.0077 C   0  0  0  0  0  0  0  0  0  0  0  0
  -23.7919  -29.6569   20.1470 C   0  0  0  0  0  0  0  0  0  0  0  0
  -28.0846  -26.5482   18.8547 C   0  0  0  0  0  0  0  0  0  0  0  0
  -23.4456  -29.7229   21.5041 C   0  0  0  0  0  0  0  0  0  0  0  0
  -20.4097  -19.2196   23.5072 C   0  0  0  0  0  0  0  0  0  0  0  0
  -22.2792  -17.8758   24.2025 C   0  0  0  0  0  0  0  0  0  0  0  0
  -22.2795   -7.9342   21.2205 C   0  0  0  0  0  0  0  0  0  0  0  0
  -21.4048  -28.4897   21.0306 C   0  0  0  0  0  0  0  0  0  0  0  0
  -21.6590   -5.9903   22.3860 C   0  0  0  0  0  0  0  0  0  0  0  0
  -21.9420   -4.3482   24.6234 C   0  0  0  0  0  0  0  0  0  0  0  0
  -22.0717   -4.6668   22.2320 C   0  0  0  0  0  0  0  0  0  0  0  0
  -21.5429  -18.4793   23.1892 C   0  0  0  0  0  0  0  0  0  0  0  0
  -24.6424  -11.4391   21.0460 C   0  0  0  0  0  0  0  0  0  0  0  0
  -20.0578  -19.3252   24.8432 C   0  0  0  0  0  0  0  0  0  0  0  0
  -21.8438  -18.0417   25.5074 C   0  0  0  0  0  0  0  0  0  0  0  0
  -25.9563  -13.0768   20.3931 C   0  0  0  0  0  0  0  0  0  0  0  0
  -25.4954  -11.3757   18.6205 C   0  0  0  0  0  0  0  0  0  0  0  0
  -26.7880  -29.1831   21.0972 C   0  0  0  0  0  0  0  0  0  0  0  0
  -26.3067  -31.9612   22.7012 C   0  0  0  0  0  0  0  0  0  0  0  0
  -24.0978  -34.1455   24.1142 C   0  0  0  0  0  0  0  0  0  0  0  0
  -24.5593  -16.9431   24.7296 C   0  0  0  0  0  0  0  0  0  0  0  0
  -30.5423  -27.0319   18.3888 C   0  0  0  0  0  0  0  0  0  0  0  0
  -25.0549  -30.3057   19.6507 C   0  0  0  0  0  0  0  0  0  0  0  0
  -24.3272  -30.4080   22.5151 C   0  0  0  0  0  0  0  0  0  0  0  0
  -30.4574  -28.0735   19.5015 C   0  0  0  0  0  0  0  0  0  0  0  0
  -27.5992  -15.1189   24.4013 C   0  0  0  0  0  0  0  0  0  0  0  0
  -29.5748  -27.5689   20.6388 C   0  0  0  0  0  0  0  0  0  0  0  0
  -27.2536  -14.0158   23.3983 C   0  0  0  0  0  0  0  0  0  0  0  0
  -26.4293  -15.4229   25.3354 C   0  0  0  0  0  0  0  0  0  0  0  0
  -24.8131  -14.6181   23.6593 C   0  0  0  0  0  0  0  0  0  0  0  0
  -28.1411  -27.3195   20.1555 C   0  0  1  0  0  0  0  0  0  0  0  0
  -26.1081  -30.4750   20.7413 C   0  0  1  0  0  0  0  0  0  0  0  0
  -25.9387  -14.3220   22.6548 C   0  0  2  0  0  0  0  0  0  0  0  0
  -19.5848  -19.8876   22.4565 C   0  0  0  0  0  0  0  0  0  0  0  0
  -24.0051  -36.3077   25.3845 C   0  0  0  0  0  0  0  0  0  0  0  0
  -27.2055  -30.5108   25.2307 C   0  0  0  0  0  0  0  0  0  0  0  0
  -26.2049  -32.3738   26.5709 C   0  0  0  0  0  0  0  0  0  0  0  0
  -28.0828  -32.8410   24.9968 C   0  0  0  0  0  0  0  0  0  0  0  0
  -22.5231  -35.4641   21.9834 C   0  0  0  0  0  0  0  0  0  0  0  0
  -17.2637  -24.7259   26.5913 C   0  0  0  0  0  0  0  0  0  0  0  0
  -18.8398  -20.1145   25.2520 C   0  0  0  0  0  0  0  0  0  0  0  0
  -19.0678  -21.6312   25.2939 C   0  0  0  0  0  0  0  0  0  0  0  0
  -19.2001  -25.6452   24.2728 C   0  0  0  0  0  0  0  0  0  0  0  0
  -19.2539  -26.2494   22.8716 C   0  0  0  0  0  0  0  0  0  0  0  0
  -17.8740  -22.4603   25.7577 C   0  0  0  0  0  0  0  0  0  0  0  0
  -18.2493  -24.4584   24.3200 C   0  0  0  0  0  0  0  0  0  0  0  0
  -20.2339  -27.4117   22.7978 C   0  0  0  0  0  0  0  0  0  1  0  0
  -25.7869  -32.3291   24.0700 C   0  0  1  0  0  0  0  0  0  0  0  0
  -23.9683  -35.6545   24.0117 C   0  0  2  0  0  0  0  0  0  0  0  0
  -26.8042  -31.9990   25.1986 C   0  0  0  0  0  0  0  0  0  0  0  0
  -24.7596  -12.2228   22.1212 N   0  0  0  0  0  0  0  0  0  0  0  0
  -20.7481  -18.7533   25.8551 N   0  0  0  0  0  0  0  0  0  0  0  0
  -25.5647  -13.2100   21.6927 N   0  0  0  0  0  0  0  0  0  0  0  0
  -25.5545  -31.0218   21.9817 N   0  0  0  0  0  0  0  0  0  0  0  0
  -25.2194  -15.7076   24.5609 N   0  0  0  0  0  0  0  0  0  0  0  0
  -26.7664  -13.9812   19.8028 N   0  0  0  0  0  0  0  0  0  0  0  0
  -24.8231  -10.1825   18.3230 N   0  0  0  0  0  0  0  0  0  0  0  0
  -23.4394  -17.1142   23.9165 N   0  0  0  0  0  0  0  0  0  0  0  0
  -27.4237  -28.5705   20.0341 N   0  0  0  0  0  0  0  0  0  0  0  0
  -25.4096  -33.7365   23.9986 N   0  0  0  0  0  0  0  0  0  0  0  0
  -22.6832  -36.0204   23.3515 N   0  3  0  0  0  0  0  0  0  0  0  0
  -18.1952  -23.9342   25.7059 N   0  3  1  0  0  0  0  0  0  0  0  0
  -26.1992  -11.9206   17.7366 O   0  0  0  0  0  0  0  0  0  0  0  0
  -26.7406  -28.7733   22.2510 O   0  0  0  0  0  0  0  0  0  0  0  0
  -27.3380  -32.4931   22.2829 O   0  0  0  0  0  0  0  0  0  0  0  0
  -23.1325  -33.4041   24.2839 O   0  0  0  0  0  0  0  0  0  0  0  0
  -24.9738  -17.7982   25.5163 O   0  0  0  0  0  0  0  0  0  0  0  0
  -21.5189   -6.8069   21.2764 O   0  0  0  0  0  0  0  0  0  0  0  0
  -20.2477  -27.9196   21.4643 O   0  0  0  0  0  0  0  0  0  1  0  0
  -22.0792   -3.5603   25.6980 F   0  0  0  0  0  0  0  0  0  0  0  0
  -22.3347   -4.1787   21.0120 F   0  0  0  0  0  0  0  0  0  0  0  0
  -22.0304  -18.3154   21.5337 Cl  0  0  0  0  0  0  0  0  0  0  0  0
  -22.6619  -17.3495   26.8554 Cl  0  0  0  0  0  0  0  0  0  0  0  0
  1  2  1  0  0  0  0
  1  5  2  0  0  0  0
  2  6  2  0  0  0  0
  3  8  2  0  0  0  0
  3 15  1  0  0  0  0
  4  9  1  0  0  0  0
  4 15  2  0  0  0  0
  5 17  1  0  0  0  0
  6 19  1  0  0  0  0
  7 10  2  0  0  0  0
  7 18  1  0  0  0  0
  8 23  1  0  0  0  0
  9 23  2  0  0  0  0
 10 24  1  0  0  0  0
 11 12  2  0  0  0  0
 11 25  1  0  0  0  0
 12 26  1  0  0  0  0
 13 20  1  0  0  0  0
 13 24  2  0  0  0  0
 14 26  2  0  0  0  0
 14 27  1  0  0  0  0
 15 29  1  0  0  0  0
 16 29  1  0  0  0  0
 16 32  2  0  0  0  0
 16 33  1  0  0  0  0
 17 19  2  0  0  0  0
 17 38  1  0  0  0  0
 18 20  2  0  0  0  0
 18 39  1  0  0  0  0
 19 47  1  0  0  0  0
 20 40  1  0  0  0  0
 21 28  1  0  0  0  0
 21 30  2  0  0  0  0
 21 50  1  0  0  0  0
 22 28  2  0  0  0  0
 22 31  1  0  0  0  0
 22 74  1  0  0  0  0
 23 84  1  0  0  0  0
 24 85  1  0  0  0  0
 25 27  2  0  0  0  0
 25 84  1  0  0  0  0
 26 86  1  0  0  0  0
 27 87  1  0  0  0  0
 28 88  1  0  0  0  0
 29 67  2  0  0  0  0
 30 57  1  0  0  0  0
 30 68  1  0  0  0  0
 31 68  2  0  0  0  0
 31 89  1  0  0  0  0
 32 69  1  0  0  0  0
 32 72  1  0  0  0  0
 33 73  1  0  0  0  0
 33 79  2  0  0  0  0
 34 48  1  0  0  0  0
 34 75  1  0  0  0  0
 34 80  2  0  0  0  0
 35 64  1  0  0  0  0
 35 70  1  0  0  0  0
 35 81  2  0  0  0  0
 36 65  1  0  0  0  0
 36 76  1  0  0  0  0
 36 82  2  0  0  0  0
 37 71  1  0  0  0  0
 37 74  1  0  0  0  0
 37 83  2  0  0  0  0
 38 41  1  0  0  0  0
 39 48  1  0  0  0  0
 40 70  1  0  0  0  0
 41 43  1  0  0  0  0
 42 44  1  0  0  0  0
 42 45  1  0  0  0  0
 43 47  1  0  0  0  0
 44 49  1  0  0  0  0
 45 71  1  0  0  0  0
 46 49  1  0  0  0  0
 46 71  1  0  0  0  0
 47 75  1  0  0  0  0
 48 70  1  0  0  0  0
 49 69  1  0  0  0  0
 51 65  1  0  0  0  0
 52 66  1  0  0  0  0
 53 66  1  0  0  0  0
 54 66  1  0  0  0  0
 55 77  1  0  0  0  0
 56 78  1  0  0  0  0
 57 58  1  0  0  0  0
 58 61  1  0  0  0  0
 59 60  1  0  0  0  0
 59 62  1  0  0  0  0
 60 63  1  0  0  0  0
 61 78  1  0  0  0  0
 62 78  1  0  0  0  0
 63 85  1  0  0  0  0
 64 66  1  0  0  0  0
 64 76  1  0  0  0  0
 65 77  1  0  0  0  0
 67 69  1  0  0  0  0
M  CHG  2  77   1  78   1
M  ISO  4  37 100  63 101  74 100  85 101
M  END
> <Batch ID>
0025

> <Smiles>
CNC(C)C(=O)NC(C(=O)N1Cc2cc([101O:1][101CH2:1]CCCN(C)CCCc3nc(Cl)c([100NH:0][100C:0](=O)N4CCCC(n5nc(-c6ccc(Oc7ccc(F)cc7F)cc6)c(C(N)=O)c5N)C4)c(Cl)c3C)ccc2CC1C(=O)NC1CCCc2ccccc21)C(C)(C)C

> <Shape>
0.302

> <Color>
0.126

> <Negative vol penalty>
0.000

$$$$

  -OEChem-04052316243D

 96105  0     1  0  0  0  0  0999 V2000
  -28.4048  -34.2255   23.6660 C   0  0  0  0  0  0  0  0  0  0  0  0
  -28.4493  -32.8829   23.3039 C   0  0  0  0  0  0  0  0  0  0  0  0
  -28.8229  -12.2898   21.1639 C   0  0  0  0  0  0  0  0  0  0  0  0
  -28.4395  -12.5397   18.7917 C   0  0  0  0  0  0  0  0  0  0  0  0
  -27.2519  -34.7517   24.2473 C   0  0  0  0  0  0  0  0  0  0  0  0
  -27.3411  -32.0656   23.5239 C   0  0  0  0  0  0  0  0  0  0  0  0
  -26.2841  -29.1140   19.5470 C   0  0  0  0  0  0  0  0  0  0  0  0
  -30.1902  -12.1471   20.9280 C   0  0  0  0  0  0  0  0  0  0  0  0
  -29.8069  -12.3969   18.5557 C   0  0  0  0  0  0  0  0  0  0  0  0
  -27.0755  -27.9804   19.3672 C   0  0  0  0  0  0  0  0  0  0  0  0
  -32.2961   -9.7210   19.8774 C   0  0  0  0  0  0  0  0  0  0  0  0
  -32.9659   -8.6994   20.5506 C   0  0  0  0  0  0  0  0  0  0  0  0
  -25.3480  -26.6236   20.3642 C   0  0  0  0  0  0  0  0  0  0  0  0
  -24.6853  -15.9236   16.8104 C   0  0  0  0  0  0  0  0  0  0  0  0
  -24.6992  -14.2869   14.5513 C   0  0  0  0  0  0  0  0  0  0  0  0
  -34.4095  -10.3326   21.5926 C   0  0  0  0  0  0  0  0  0  0  0  0
  -27.9475  -12.4861   20.0958 C   0  0  0  0  0  0  0  0  0  0  0  0
  -25.8335  -13.8300   20.5780 C   0  0  0  0  0  0  0  0  0  0  0  0
  -26.1257  -33.9426   24.4657 C   0  0  0  0  0  0  0  0  0  0  0  0
  -25.0211  -29.0123   20.1477 C   0  0  0  0  0  0  0  0  0  0  0  0
  -26.1726  -32.5812   24.1099 C   0  0  0  0  0  0  0  0  0  0  0  0
  -24.5414  -27.7570   20.5482 C   0  0  0  0  0  0  0  0  0  0  0  0
  -25.4358  -16.2854   15.6917 C   0  0  0  0  0  0  0  0  0  0  0  0
  -25.4427  -15.4671   14.5621 C   0  0  0  0  0  0  0  0  0  0  0  0
  -23.9487  -13.9251   15.6700 C   0  0  0  0  0  0  0  0  0  0  0  0
  -30.6822  -12.2006   19.6239 C   0  0  0  0  0  0  0  0  0  0  0  0
  -26.6087  -26.7353   19.7785 C   0  0  0  0  0  0  0  0  0  0  0  0
  -32.6829  -11.0484   20.0617 C   0  0  0  0  0  0  0  0  0  0  0  0
  -34.0226   -9.0052   21.4082 C   0  0  0  0  0  0  0  0  0  0  0  0
  -23.9417  -14.7435   16.7995 C   0  0  0  0  0  0  0  0  0  0  0  0
  -33.7396  -11.3542   20.9194 C   0  0  0  0  0  0  0  0  0  0  0  0
  -26.5349  -12.6331   20.3388 C   0  0  0  0  0  0  0  0  0  0  0  0
  -24.5287  -13.4355   20.7464 C   0  0  0  0  0  0  0  0  0  0  0  0
  -26.3181  -15.1779   20.6421 C   0  0  0  0  0  0  0  0  0  0  0  0
  -23.6903  -30.1862   22.7849 C   0  0  0  0  0  0  0  0  0  0  0  0
  -21.0119  -28.8113   21.5774 C   0  0  0  0  0  0  0  0  0  0  0  0
  -19.6369  -26.4373   19.5476 C   0  0  0  0  0  0  0  0  0  0  0  0
  -21.4341   -8.6693   18.8603 C   0  0  0  0  0  0  0  0  0  0  0  0
  -24.9188  -34.5452   25.1403 C   0  0  0  0  0  0  0  0  0  0  0  0
  -24.1685  -30.2408   20.3101 C   0  0  0  0  0  0  0  0  0  0  0  0
  -23.1842  -27.5913   21.1797 C   0  0  0  0  0  0  0  0  0  0  0  0
  -23.6554  -33.7007   24.9960 C   0  0  0  0  0  0  0  0  0  0  0  0
  -21.9012   -9.7223   22.2293 C   0  0  0  0  0  0  0  0  0  0  0  0
  -23.9552  -32.2357   25.2972 C   0  0  0  0  0  0  0  0  0  0  0  0
  -23.0784  -10.6957   22.1484 C   0  0  0  0  0  0  0  0  0  0  0  0
  -25.2896  -18.7575   15.9254 C   0  0  0  0  0  0  0  0  0  0  0  0
  -27.2747  -17.4957   16.8496 C   0  0  0  0  0  0  0  0  0  0  0  0
  -22.0630   -8.5586   21.2538 C   0  0  0  0  0  0  0  0  0  0  0  0
  -23.4795   -9.9268   19.7721 C   0  0  0  0  0  0  0  0  0  0  0  0
  -26.0715  -20.0590   16.0493 C   0  0  0  0  0  0  0  0  0  0  0  0
  -28.0415  -18.8068   16.9661 C   0  0  0  0  0  0  0  0  0  0  0  0
  -26.2254  -17.5540   15.7277 C   0  0  0  0  0  0  0  0  0  0  0  0
  -24.9822  -31.6684   24.3097 C   0  0  1  0  0  0  0  0  0  0  0  0
  -23.1121  -30.0949   21.4011 C   0  0  1  0  0  0  0  0  0  0  0  0
  -23.3344  -11.1468   20.6978 C   0  0  2  0  0  0  0  0  0  0  0  0
  -26.2378  -15.8348   13.3525 C   0  0  0  0  0  0  0  0  0  0  0  0
  -17.4204  -25.5319   18.7961 C   0  0  0  0  0  0  0  0  0  0  0  0
  -20.2642  -11.5484   13.5182 C   0  0  0  0  0  0  0  0  0  0  0  0
  -20.6954  -27.3744   24.2504 C   0  0  0  0  0  0  0  0  0  0  0  0
  -19.0812  -25.8146   23.1416 C   0  0  0  0  0  0  0  0  0  0  0  0
  -18.5644  -28.2511   23.2786 C   0  0  0  0  0  0  0  0  0  0  0  0
  -20.1820  -27.1276   16.7217 C   0  0  0  0  0  0  0  0  0  0  0  0
  -23.1534  -12.6635   15.6563 C   0  0  0  0  0  0  0  0  0  0  0  0
  -19.7862   -9.8878   16.2448 C   0  0  0  0  0  0  0  0  0  0  0  0
  -26.8934  -22.1399   18.2782 C   0  0  0  0  0  0  0  0  0  0  0  0
  -27.5555  -23.4943   18.5198 C   0  0  0  0  0  0  0  0  0  0  0  0
  -20.2922  -11.3214   16.0358 C   0  0  0  0  0  0  0  0  0  0  0  0
  -20.9237   -8.8895   16.4416 C   0  0  0  0  0  0  0  0  0  0  0  0
  -27.7792  -21.2428   17.4267 C   0  0  0  0  0  0  0  0  0  0  0  0
  -26.7001  -24.3882   19.4065 C   0  0  0  0  0  0  0  0  0  1  0  0
  -20.3631  -27.4530   21.6913 C   0  0  1  0  0  0  0  0  0  0  0  0
  -18.5392  -26.5190   18.5021 C   0  0  2  0  0  0  0  0  0  0  0  0
  -21.1353  -11.4912   14.7664 C   0  0  2  0  0  0  0  0  0  0  0  0
  -19.7024  -27.2263   23.0804 C   0  0  0  0  0  0  0  0  0  0  0  0
  -25.7415  -11.5587   20.3534 N   0  0  0  0  0  0  0  0  0  0  0  0
  -24.5280  -12.0791   20.6038 N   0  0  0  0  0  0  0  0  0  0  0  0
  -22.3906  -28.8231   21.3228 N   0  0  0  0  0  0  0  0  0  0  0  0
  -22.3013   -9.0543   19.8960 N   0  0  0  0  0  0  0  0  0  0  0  0
  -23.3934  -14.1201   21.0013 N   0  0  0  0  0  0  0  0  0  0  0  0
  -27.6869  -15.4058   20.4457 N   0  0  0  0  0  0  0  0  0  0  0  0
  -24.3527  -31.3716   23.0408 N   0  0  0  0  0  0  0  0  0  0  0  0
  -19.4405  -27.3457   20.5662 N   0  0  0  0  0  0  0  0  0  0  0  0
  -21.7277   -9.1890   17.6055 N   0  0  0  0  0  0  0  0  0  0  0  0
  -27.0778  -19.9596   17.1812 N   0  3  0  0  0  0  0  0  0  0  0  0
  -19.0885  -26.2177   17.1498 N   0  3  0  0  0  0  0  0  0  0  0  0
  -21.9124  -12.7560   14.8388 N   0  3  0  0  0  0  0  0  0  0  0  0
  -25.5623  -16.1496   20.8832 O   0  0  0  0  0  0  0  0  0  0  0  0
  -23.5450  -29.2510   23.5634 O   0  0  0  0  0  0  0  0  0  0  0  0
  -20.3196  -29.8246   21.7024 O   0  0  0  0  0  0  0  0  0  0  0  0
  -20.5726  -25.6443   19.4704 O   0  0  0  0  0  0  0  0  0  0  0  0
  -20.4665   -7.9224   19.0415 O   0  0  0  0  0  0  0  0  0  0  0  0
  -32.0164  -12.0616   19.3933 O   0  0  0  0  0  0  0  0  0  0  0  0
  -27.3795  -25.6273   19.6048 O   0  0  0  0  0  0  0  0  0  1  0  0
  -34.6648   -8.0242   22.0558 F   0  0  0  0  0  0  0  0  0  0  0  0
  -23.2238  -14.4041   17.8794 F   0  0  0  0  0  0  0  0  0  0  0  0
  -34.1150  -12.6277   21.1015 F   0  0  0  0  0  0  0  0  0  0  0  0
  1  2  1  0  0  0  0
  1  5  2  0  0  0  0
  2  6  2  0  0  0  0
  3  8  2  0  0  0  0
  3 17  1  0  0  0  0
  4  9  1  0  0  0  0
  4 17  2  0  0  0  0
  5 19  1  0  0  0  0
  6 21  1  0  0  0  0
  7 10  2  0  0  0  0
  7 20  1  0  0  0  0
  8 26  1  0  0  0  0
  9 26  2  0  0  0  0
 10 27  1  0  0  0  0
 11 12  2  0  0  0  0
 11 28  1  0  0  0  0
 12 29  1  0  0  0  0
 13 22  1  0  0  0  0
 13 27  2  0  0  0  0
 14 23  1  0  0  0  0
 14 30  2  0  0  0  0
 15 24  1  0  0  0  0
 15 25  2  0  0  0  0
 16 29  2  0  0  0  0
 16 31  1  0  0  0  0
 17 32  1  0  0  0  0
 18 32  1  0  0  0  0
 18 33  2  0  0  0  0
 18 34  1  0  0  0  0
 19 21  2  0  0  0  0
 19 39  1  0  0  0  0
 20 22  2  0  0  0  0
 20 40  1  0  0  0  0
 21 53  1  0  0  0  0
 22 41  1  0  0  0  0
 23 24  2  0  0  0  0
 23 52  1  0  0  0  0
 24 56  1  0  0  0  0
 25 30  1  0  0  0  0
 25 63  1  0  0  0  0
 26 92  1  0  0  0  0
 27 93  1  0  0  0  0
 28 31  2  0  0  0  0
 28 92  1  0  0  0  0
 29 94  1  0  0  0  0
 30 95  1  0  0  0  0
 31 96  1  0  0  0  0
 32 75  2  0  0  0  0
 33 76  1  0  0  0  0
 33 79  1  0  0  0  0
 34 80  1  0  0  0  0
 34 87  2  0  0  0  0
 35 54  1  0  0  0  0
 35 81  1  0  0  0  0
 35 88  2  0  0  0  0
 36 71  1  0  0  0  0
 36 77  1  0  0  0  0
 36 89  2  0  0  0  0
 37 72  1  0  0  0  0
 37 82  1  0  0  0  0
 37 90  2  0  0  0  0
 38 78  1  0  0  0  0
 38 83  1  0  0  0  0
 38 91  2  0  0  0  0
 39 42  1  0  0  0  0
 40 54  1  0  0  0  0
 41 77  1  0  0  0  0
 42 44  1  0  0  0  0
 43 45  1  0  0  0  0
 43 48  1  0  0  0  0
 44 53  1  0  0  0  0
 45 55  1  0  0  0  0
 46 50  1  0  0  0  0
 46 52  1  0  0  0  0
 47 51  1  0  0  0  0
 47 52  1  0  0  0  0
 48 78  1  0  0  0  0
 49 55  1  0  0  0  0
 49 78  1  0  0  0  0
 50 84  1  0  0  0  0
 51 84  1  0  0  0  0
 53 81  1  0  0  0  0
 54 77  1  0  0  0  0
 55 76  1  0  0  0  0
 57 72  1  0  0  0  0
 58 73  1  0  0  0  0
 59 74  1  0  0  0  0
 60 74  1  0  0  0  0
 61 74  1  0  0  0  0
 62 85  1  0  0  0  0
 63 86  1  0  0  0  0
 64 67  1  0  0  0  0
 64 68  1  0  0  0  0
 65 66  1  0  0  0  0
 65 69  1  0  0  0  0
 66 70  1  0  0  0  0
 67 73  1  0  0  0  0
 68 83  1  0  0  0  0
 69 84  1  0  0  0  0
 70 93  1  0  0  0  0
 71 74  1  0  0  0  0
 71 82  1  0  0  0  0
 72 85  1  0  0  0  0
 73 86  1  0  0  0  0
 75 76  1  0  0  0  0
M  CHG  3  84   1  85   1  86   1
M  ISO  4  38 100  70 101  83 100  93 101
M  END
> <Batch ID>
0025

> <Smiles>
CNC(C)C(=O)NC(C(=O)N1Cc2cc([101O:1][101CH2:1]CCCN3CCC(c4cc(F)c(CNC(C)CCC[100NH:0][100C:0](=O)N5CCCC(n6nc(-c7ccc(Oc8ccc(F)cc8F)cc7)c(C(N)=O)c6N)C5)cc4C)CC3)ccc2CC1C(=O)NC1CCCc2ccccc21)C(C)(C)C

> <Shape>
0.267

> <Color>
0.101

> <Negative vol penalty>
0.000

$$$$

  -OEChem-04052316243D

 88 97  0     1  0  0  0  0  0999 V2000
  -16.9590  -29.9117   24.4826 C   0  0  0  0  0  0  0  0  0  0  0  0
  -17.8274  -28.9107   24.9061 C   0  0  0  0  0  0  0  0  0  0  0  0
  -23.2212   -9.6486   19.7541 C   0  0  0  0  0  0  0  0  0  0  0  0
  -23.7424  -10.0558   22.0778 C   0  0  0  0  0  0  0  0  0  0  0  0
  -17.0731  -30.4329   23.1945 C   0  0  0  0  0  0  0  0  0  0  0  0
  -18.8097  -28.4295   24.0412 C   0  0  0  0  0  0  0  0  0  0  0  0
  -24.4355  -26.5364   25.5484 C   0  0  0  0  0  0  0  0  0  0  0  0
  -22.4956   -8.5136   20.1157 C   0  0  0  0  0  0  0  0  0  0  0  0
  -23.0167   -8.9208   22.4394 C   0  0  0  0  0  0  0  0  0  0  0  0
  -24.9735  -25.2673   25.7578 C   0  0  0  0  0  0  0  0  0  0  0  0
  -19.7731   -8.0674   22.8531 C   0  0  0  0  0  0  0  0  0  0  0  0
  -18.9024   -8.1750   23.9375 C   0  0  0  0  0  0  0  0  0  0  0  0
  -28.1229  -16.7582   25.8234 C   0  0  0  0  0  0  0  0  0  0  0  0
  -25.7700  -25.2359   23.4810 C   0  0  0  0  0  0  0  0  0  0  0  0
  -20.1277   -6.4428   25.0932 C   0  0  0  0  0  0  0  0  0  0  0  0
  -23.8447  -10.4197   20.7351 C   0  0  0  0  0  0  0  0  0  0  0  0
  -24.1139  -12.7300   19.6875 C   0  0  0  0  0  0  0  0  0  0  0  0
  -18.0634  -29.9646   22.3167 C   0  0  0  0  0  0  0  0  0  0  0  0
  -24.5515  -27.1612   24.2984 C   0  0  0  0  0  0  0  0  0  0  0  0
  -18.9362  -28.9439   22.7397 C   0  0  0  0  0  0  0  0  0  0  0  0
  -27.0635  -17.0728   26.6744 C   0  0  0  0  0  0  0  0  0  0  0  0
  -25.2349  -26.5139   23.2591 C   0  0  0  0  0  0  0  0  0  0  0  0
  -28.6697  -15.4750   25.8353 C   0  0  0  0  0  0  0  0  0  0  0  0
  -26.5510  -16.1043   27.5375 C   0  0  0  0  0  0  0  0  0  0  0  0
  -22.3933   -8.1497   21.4584 C   0  0  0  0  0  0  0  0  0  0  0  0
  -25.6383  -24.6156   24.7232 C   0  0  0  0  0  0  0  0  0  0  0  0
  -20.8210   -7.1474   22.8887 C   0  0  0  0  0  0  0  0  0  0  0  0
  -19.0797   -7.3628   25.0576 C   0  0  0  0  0  0  0  0  0  0  0  0
  -20.9983   -6.3352   24.0087 C   0  0  0  0  0  0  0  0  0  0  0  0
  -28.1572  -14.5065   26.6984 C   0  0  0  0  0  0  0  0  0  0  0  0
  -27.0978  -14.8211   27.5495 C   0  0  0  0  0  0  0  0  0  0  0  0
  -24.5949  -11.5919   20.3622 C   0  0  0  0  0  0  0  0  0  0  0  0
  -25.2095  -13.5505   19.5741 C   0  0  0  0  0  0  0  0  0  0  0  0
  -22.7946  -13.0196   19.2065 C   0  0  0  0  0  0  0  0  0  0  0  0
  -22.4938  -28.1782   22.0995 C   0  0  0  0  0  0  0  0  0  0  0  0
  -25.1726  -29.3535   20.6976 C   0  0  0  0  0  0  0  0  0  0  0  0
  -28.5592  -29.1754   20.3157 C   0  0  0  0  0  0  0  0  0  0  0  0
  -30.2654  -14.0628   22.7405 C   0  0  0  0  0  0  0  0  0  0  0  0
  -18.1176  -30.5254   20.9177 C   0  0  0  0  0  0  0  0  0  0  0  0
  -23.9890  -28.5415   24.0966 C   0  0  0  0  0  0  0  0  0  0  0  0
  -25.4044  -27.1501   21.9044 C   0  0  0  0  0  0  0  0  0  0  0  0
  -19.4257  -30.2240   20.1908 C   0  0  0  0  0  0  0  0  0  0  0  0
  -29.9809  -13.4030   19.2533 C   0  0  0  0  0  0  0  0  0  0  0  0
  -26.5643  -19.0917   25.2315 C   0  0  0  0  0  0  0  0  0  0  0  0
  -27.1570  -19.3954   27.6761 C   0  0  0  0  0  0  0  0  0  0  0  0
  -19.8054  -28.7565   20.3616 C   0  0  0  0  0  0  0  0  0  0  0  0
  -25.9713  -20.5001   25.2036 C   0  0  0  0  0  0  0  0  0  0  0  0
  -26.5626  -20.8031   27.6420 C   0  0  0  0  0  0  0  0  0  0  0  0
  -28.5249  -12.9667   19.0812 C   0  0  0  0  0  0  0  0  0  0  0  0
  -30.5674  -12.9040   20.5720 C   0  0  0  0  0  0  0  0  0  0  0  0
  -28.3286  -12.8209   21.5990 C   0  0  0  0  0  0  0  0  0  0  0  0
  -26.4884  -18.4771   26.6393 C   0  0  0  0  0  0  0  0  0  0  0  0
  -20.0305  -28.4133   21.8391 C   0  0  1  0  0  0  0  0  0  0  0  0
  -23.7182  -28.8680   22.6311 C   0  0  1  0  0  0  0  0  0  0  0  0
  -26.6378  -21.4168   26.2378 C   0  0  0  0  0  0  0  0  0  0  0  0
  -27.6764  -13.3478   20.3093 C   0  0  2  0  0  0  0  0  0  0  0  0
  -25.4132  -16.4685   28.4410 C   0  0  0  0  0  0  0  0  0  0  0  0
  -30.4604  -30.2433   19.0738 C   0  0  0  0  0  0  0  0  0  0  0  0
  -24.3424  -27.8755   18.1606 C   0  0  0  0  0  0  0  0  0  0  0  0
  -26.6752  -28.1792   17.3038 C   0  0  0  0  0  0  0  0  0  0  0  0
  -25.2534  -30.1731   17.7787 C   0  0  0  0  0  0  0  0  0  0  0  0
  -29.8755  -30.0240   22.8269 C   0  0  0  0  0  0  0  0  0  0  0  0
  -29.8036  -15.1878   24.9040 C   0  0  0  0  0  0  0  0  0  0  0  0
  -25.9971  -22.8034   26.2209 C   0  0  0  0  0  0  0  0  0  1  0  0
  -26.1803  -28.8244   19.7058 C   0  0  1  0  0  0  0  0  0  0  0  0
  -29.6346  -30.2463   20.3508 C   0  0  2  0  0  0  0  0  0  0  0  0
  -25.6081  -28.7500   18.2620 C   0  0  0  0  0  0  0  0  0  0  0  0
  -25.8949  -11.6780   20.6564 N   0  0  0  0  0  0  0  0  0  0  0  0
  -26.2401  -12.8800   20.1643 N   0  0  0  0  0  0  0  0  0  0  0  0
  -24.8313  -28.4979   21.7546 N   0  0  0  0  0  0  0  0  0  0  0  0
  -29.7163  -13.3000   21.6966 N   0  0  0  0  0  0  0  0  0  0  0  0
  -25.3822  -14.7729   19.0279 N   0  0  0  0  0  0  0  0  0  0  0  0
  -21.9006  -13.6770   20.0627 N   0  0  0  0  0  0  0  0  0  0  0  0
  -21.3240  -28.8918   22.2777 N   0  0  0  0  0  0  0  0  0  0  0  0
  -27.3636  -29.6677   19.8369 N   0  0  0  0  0  0  0  0  0  0  0  0
  -29.3886  -14.4008   23.7641 N   0  0  0  0  0  0  0  0  0  0  0  0
  -30.5515  -30.0221   21.5040 N   0  3  0  0  0  0  0  0  0  0  0  0
  -22.4144  -12.6902   18.0574 O   0  0  0  0  0  0  0  0  0  0  0  0
  -22.6026  -27.0806   21.5656 O   0  0  0  0  0  0  0  0  0  0  0  0
  -24.7108  -30.4870   20.5441 O   0  0  0  0  0  0  0  0  0  0  0  0
  -28.7608  -28.0170   20.6735 O   0  0  0  0  0  0  0  0  0  0  0  0
  -31.4479  -14.4209   22.7564 O   0  0  0  0  0  0  0  0  0  0  0  0
  -21.6851   -7.0423   21.8116 O   0  0  0  0  0  0  0  0  0  0  0  0
  -26.1637  -23.3766   24.9247 O   0  0  0  0  0  0  0  0  0  1  0  0
  -18.2445   -7.4673   26.0995 F   0  0  0  0  0  0  0  0  0  0  0  0
  -22.0040   -5.4504   24.0492 F   0  0  0  0  0  0  0  0  0  0  0  0
  -28.8609  -12.9196   26.6888 Cl  0  0  0  0  0  0  0  0  0  0  0  0
  -26.4394  -13.6354   28.6344 Cl  0  0  0  0  0  0  0  0  0  0  0  0
  1  2  1  0  0  0  0
  1  5  2  0  0  0  0
  2  6  2  0  0  0  0
  3  8  2  0  0  0  0
  3 16  1  0  0  0  0
  4  9  1  0  0  0  0
  4 16  2  0  0  0  0
  5 18  1  0  0  0  0
  6 20  1  0  0  0  0
  7 10  2  0  0  0  0
  7 19  1  0  0  0  0
  8 25  1  0  0  0  0
  9 25  2  0  0  0  0
 10 26  1  0  0  0  0
 11 12  2  0  0  0  0
 11 27  1  0  0  0  0
 12 28  1  0  0  0  0
 13 21  1  0  0  0  0
 13 23  2  0  0  0  0
 14 22  1  0  0  0  0
 14 26  2  0  0  0  0
 15 28  2  0  0  0  0
 15 29  1  0  0  0  0
 16 32  1  0  0  0  0
 17 32  1  0  0  0  0
 17 33  2  0  0  0  0
 17 34  1  0  0  0  0
 18 20  2  0  0  0  0
 18 39  1  0  0  0  0
 19 22  2  0  0  0  0
 19 40  1  0  0  0  0
 20 53  1  0  0  0  0
 21 24  2  0  0  0  0
 21 52  1  0  0  0  0
 22 41  1  0  0  0  0
 23 30  1  0  0  0  0
 23 63  1  0  0  0  0
 24 31  1  0  0  0  0
 24 57  1  0  0  0  0
 25 83  1  0  0  0  0
 26 84  1  0  0  0  0
 27 29  2  0  0  0  0
 27 83  1  0  0  0  0
 28 85  1  0  0  0  0
 29 86  1  0  0  0  0
 30 31  2  0  0  0  0
 30 87  1  0  0  0  0
 31 88  1  0  0  0  0
 32 68  2  0  0  0  0
 33 69  1  0  0  0  0
 33 72  1  0  0  0  0
 34 73  1  0  0  0  0
 34 78  2  0  0  0  0
 35 54  1  0  0  0  0
 35 74  1  0  0  0  0
 35 79  2  0  0  0  0
 36 65  1  0  0  0  0
 36 70  1  0  0  0  0
 36 80  2  0  0  0  0
 37 66  1  0  0  0  0
 37 75  1  0  0  0  0
 37 81  2  0  0  0  0
 38 71  1  0  0  0  0
 38 76  1  0  0  0  0
 38 82  2  0  0  0  0
 39 42  1  0  0  0  0
 40 54  1  0  0  0  0
 41 70  1  0  0  0  0
 42 46  1  0  0  0  0
 43 49  1  0  0  0  0
 43 50  1  0  0  0  0
 44 47  1  0  0  0  0
 44 52  1  0  0  0  0
 45 48  1  0  0  0  0
 45 52  1  0  0  0  0
 46 53  1  0  0  0  0
 47 55  1  0  0  0  0
 48 55  1  0  0  0  0
 49 56  1  0  0  0  0
 50 71  1  0  0  0  0
 51 56  1  0  0  0  0
 51 71  1  0  0  0  0
 53 74  1  0  0  0  0
 54 70  1  0  0  0  0
 55 64  1  0  0  0  0
 56 69  1  0  0  0  0
 58 66  1  0  0  0  0
 59 67  1  0  0  0  0
 60 67  1  0  0  0  0
 61 67  1  0  0  0  0
 62 77  1  0  0  0  0
 63 76  1  0  0  0  0
 64 84  1  0  0  0  0
 65 67  1  0  0  0  0
 65 75  1  0  0  0  0
 66 77  1  0  0  0  0
 68 69  1  0  0  0  0
M  CHG  1  77   1
M  ISO  4  38 100  64 101  76 100  84 101
M  END
> <Batch ID>
0025

> <Smiles>
CNC(C)C(=O)NC(C(=O)N1Cc2cc([101O:1][101CH2:1]C3CCC(c4cc(C[100NH:0][100C:0](=O)N5CCCC(n6nc(-c7ccc(Oc8ccc(F)cc8F)cc7)c(C(N)=O)c6N)C5)c(Cl)c(Cl)c4C)CC3)ccc2CC1C(=O)NC1CCCc2ccccc21)C(C)(C)C

> <Shape>
0.209

> <Color>
0.125

> <Negative vol penalty>
0.000

$$$$

  -OEChem-04052316243D

 90 99  0     1  0  0  0  0  0999 V2000
  -27.5289  -36.2846   19.8780 C   0  0  0  0  0  0  0  0  0  0  0  0
  -27.9344  -34.9711   20.0916 C   0  0  0  0  0  0  0  0  0  0  0  0
  -23.7170   -9.6130   21.1703 C   0  0  0  0  0  0  0  0  0  0  0  0
  -24.3750  -10.5088   23.3154 C   0  0  0  0  0  0  0  0  0  0  0  0
  -26.3997  -36.7790   20.5293 C   0  0  0  0  0  0  0  0  0  0  0  0
  -27.2114  -34.1515   20.9576 C   0  0  0  0  0  0  0  0  0  0  0  0
  -26.4312  -29.5239   19.0546 C   0  0  0  0  0  0  0  0  0  0  0  0
  -23.1982   -8.4825   21.8015 C   0  0  0  0  0  0  0  0  0  0  0  0
  -23.8561   -9.3783   23.9466 C   0  0  0  0  0  0  0  0  0  0  0  0
  -27.4968  -28.6262   19.1062 C   0  0  0  0  0  0  0  0  0  0  0  0
  -20.4040   -7.6466   23.5123 C   0  0  0  0  0  0  0  0  0  0  0  0
  -19.1492   -7.1947   23.1041 C   0  0  0  0  0  0  0  0  0  0  0  0
  -26.5197  -27.5876   21.0519 C   0  0  0  0  0  0  0  0  0  0  0  0
  -20.1188   -5.0745   22.4704 C   0  0  0  0  0  0  0  0  0  0  0  0
  -24.3054  -10.6261   21.9272 C   0  0  0  0  0  0  0  0  0  0  0  0
  -24.1630  -12.9920   20.9838 C   0  0  0  0  0  0  0  0  0  0  0  0
  -25.6568  -35.9621   21.3962 C   0  0  0  0  0  0  0  0  0  0  0  0
  -25.4058  -29.4670   20.0093 C   0  0  0  0  0  0  0  0  0  0  0  0
  -26.0719  -34.6358   21.6221 C   0  0  0  0  0  0  0  0  0  0  0  0
  -25.4409  -28.4841   21.0087 C   0  0  0  0  0  0  0  0  0  0  0  0
  -30.5787  -20.5416   22.1947 C   0  0  0  0  0  0  0  0  0  0  0  0
  -28.8335  -19.0017   21.5468 C   0  0  0  0  0  0  0  0  0  0  0  0
  -29.7969  -18.0995   21.0957 C   0  0  0  0  0  0  0  0  0  0  0  0
  -23.2677   -8.3652   23.1897 C   0  0  0  0  0  0  0  0  0  0  0  0
  -27.5426  -27.6598   20.1067 C   0  0  0  0  0  0  0  0  0  0  0  0
  -21.5164   -6.8125   23.3995 C   0  0  0  0  0  0  0  0  0  0  0  0
  -19.0065   -5.9086   22.5831 C   0  0  0  0  0  0  0  0  0  0  0  0
  -21.3737   -5.5264   22.8786 C   0  0  0  0  0  0  0  0  0  0  0  0
  -29.2243  -20.2227   22.0963 C   0  0  0  0  0  0  0  0  0  0  0  0
  -31.5422  -19.6394   21.7436 C   0  0  0  0  0  0  0  0  0  0  0  0
  -31.1513  -18.4184   21.1941 C   0  0  0  0  0  0  0  0  0  0  0  0
  -24.8420  -11.7939   21.2757 C   0  0  0  0  0  0  0  0  0  0  0  0
  -25.1047  -13.7790   20.3672 C   0  0  0  0  0  0  0  0  0  0  0  0
  -22.8025  -13.3606   21.2467 C   0  0  0  0  0  0  0  0  0  0  0  0
  -24.2909  -31.4550   22.2249 C   0  0  0  0  0  0  0  0  0  0  0  0
  -22.0214  -29.1648   22.5808 C   0  0  0  0  0  0  0  0  0  0  0  0
  -21.9104  -25.5598   22.6761 C   0  0  0  0  0  0  0  0  0  0  0  0
  -30.2601  -15.8576   20.0442 C   0  0  0  0  0  0  0  0  0  0  0  0
  -24.4705  -36.5553   22.1142 C   0  0  0  0  0  0  0  0  0  0  0  0
  -24.2497  -30.4254   19.9239 C   0  0  0  0  0  0  0  0  0  0  0  0
  -24.3545  -28.3679   22.0453 C   0  0  0  0  0  0  0  0  0  0  0  0
  -23.5434  -35.5085   22.7266 C   0  0  0  0  0  0  0  0  0  0  0  0
  -29.7169  -12.6398   18.6202 C   0  0  0  0  0  0  0  0  0  0  0  0
  -24.3505  -34.4557   23.4796 C   0  0  0  0  0  0  0  0  0  0  0  0
  -28.3443  -12.2314   19.1601 C   0  0  0  0  0  0  0  0  0  0  0  0
  -30.5496  -22.0804   24.2314 C   0  0  0  0  0  0  0  0  0  0  0  0
  -30.5257  -13.4174   19.6569 C   0  0  0  0  0  0  0  0  0  0  0  0
  -28.4650  -14.1684   20.7790 C   0  0  0  0  0  0  0  0  0  0  0  0
  -30.7801  -23.5645   24.4250 C   0  0  0  0  0  0  0  0  0  0  0  0
  -30.4693  -23.0875   22.0451 C   0  0  0  0  0  0  0  0  0  0  0  0
  -31.0036  -21.8617   22.7897 C   0  0  2  0  0  0  0  0  0  0  0  0
  -25.2995  -33.7083   22.5349 C   0  0  1  0  0  0  0  0  0  0  0  0
  -23.5226  -30.6046   21.2531 C   0  0  1  0  0  0  0  0  0  0  0  0
  -27.5881  -13.4388   19.7482 C   0  0  2  0  0  0  0  0  0  0  0  0
  -27.3763  -18.6838   21.4505 C   0  0  0  0  0  0  0  0  0  0  0  0
  -20.0591  -23.9686   22.0944 C   0  0  0  0  0  0  0  0  0  0  0  0
  -32.4793  -25.2332   22.7378 C   0  0  0  0  0  0  0  0  0  0  0  0
  -21.3693  -29.2899   25.5589 C   0  0  0  0  0  0  0  0  0  0  0  0
  -20.8410  -26.8441   25.4749 C   0  0  0  0  0  0  0  0  0  0  0  0
  -19.5047  -28.4544   24.1169 C   0  0  0  0  0  0  0  0  0  0  0  0
  -23.6162  -24.0968   20.7503 C   0  0  0  0  0  0  0  0  0  0  0  0
  -30.4450  -25.9763   21.4377 C   0  0  0  0  0  0  0  0  0  0  0  0
  -28.9537  -26.2936   21.4477 C   0  0  0  0  0  0  0  0  0  1  0  0
  -21.8787  -27.9236   23.4282 C   0  0  1  0  0  0  0  0  0  0  0  0
  -21.3363  -24.6399   21.6137 C   0  0  2  0  0  0  0  0  0  0  0  0
  -30.9739  -25.4601   22.7774 C   0  0  1  0  0  0  0  0  0  0  0  0
  -20.9239  -28.1376   24.6366 C   0  0  0  0  0  0  0  0  0  0  0  0
  -26.1167  -11.8134   20.8771 N   0  0  0  0  0  0  0  0  0  0  0  0
  -26.2461  -13.0334   20.3284 N   0  0  0  0  0  0  0  0  0  0  0  0
  -23.2485  -29.3319   21.9234 N   0  0  0  0  0  0  0  0  0  0  0  0
  -29.7476  -14.5487   20.1665 N   0  0  0  0  0  0  0  0  0  0  0  0
  -25.0595  -15.0292   19.8598 N   0  0  0  0  0  0  0  0  0  0  0  0
  -21.9710  -12.4328   21.8884 N   0  0  0  0  0  0  0  0  0  0  0  0
  -29.4178  -16.8547   20.5348 N   0  0  0  0  0  0  0  0  0  0  0  0
  -24.5717  -32.7259   21.7606 N   0  0  0  0  0  0  0  0  0  0  0  0
  -21.4668  -26.8564   22.5229 N   0  0  0  0  0  0  0  0  0  0  0  0
  -30.3206  -24.1586   23.1134 N   0  3  2  0  0  0  0  0  0  0  0  0
  -22.3209  -23.5784   21.2606 N   0  3  0  0  0  0  0  0  0  0  0  0
  -22.3336  -14.4735   20.9073 O   0  0  0  0  0  0  0  0  0  0  0  0
  -24.6043  -30.9929   23.3157 O   0  0  0  0  0  0  0  0  0  0  0  0
  -21.0762  -29.9533   22.4992 O   0  0  0  0  0  0  0  0  0  0  0  0
  -22.6729  -25.1667   23.5562 O   0  0  0  0  0  0  0  0  0  0  0  0
  -31.3529  -16.0800   19.5167 O   0  0  0  0  0  0  0  0  0  0  0  0
  -22.7614   -7.2623   23.8060 O   0  0  0  0  0  0  0  0  0  0  0  0
  -28.5818  -26.7828   20.1597 O   0  0  0  0  0  0  0  0  0  1  0  0
  -17.8012   -5.4743   22.1926 F   0  0  0  0  0  0  0  0  0  0  0  0
  -22.4385   -4.7201   22.7689 F   0  0  0  0  0  0  0  0  0  0  0  0
  -28.2989  -21.0903   22.5328 F   0  0  0  0  0  0  0  0  0  0  0  0
  -32.8461  -19.9363   21.8355 F   0  0  0  0  0  0  0  0  0  0  0  0
  -32.0867  -17.5602   20.7627 F   0  0  0  0  0  0  0  0  0  0  0  0
  1  2  1  0  0  0  0
  1  5  2  0  0  0  0
  2  6  2  0  0  0  0
  3  8  2  0  0  0  0
  3 15  1  0  0  0  0
  4  9  1  0  0  0  0
  4 15  2  0  0  0  0
  5 17  1  0  0  0  0
  6 19  1  0  0  0  0
  7 10  2  0  0  0  0
  7 18  1  0  0  0  0
  8 24  1  0  0  0  0
  9 24  2  0  0  0  0
 10 25  1  0  0  0  0
 11 12  2  0  0  0  0
 11 26  1  0  0  0  0
 12 27  1  0  0  0  0
 13 20  1  0  0  0  0
 13 25  2  0  0  0  0
 14 27  2  0  0  0  0
 14 28  1  0  0  0  0
 15 32  1  0  0  0  0
 16 32  1  0  0  0  0
 16 33  2  0  0  0  0
 16 34  1  0  0  0  0
 17 19  2  0  0  0  0
 17 39  1  0  0  0  0
 18 20  2  0  0  0  0
 18 40  1  0  0  0  0
 19 52  1  0  0  0  0
 20 41  1  0  0  0  0
 21 29  1  0  0  0  0
 21 30  2  0  0  0  0
 21 51  1  0  0  0  0
 22 23  1  0  0  0  0
 22 29  2  0  0  0  0
 22 55  1  0  0  0  0
 23 31  2  0  0  0  0
 23 74  1  0  0  0  0
 24 84  1  0  0  0  0
 25 85  1  0  0  0  0
 26 28  2  0  0  0  0
 26 84  1  0  0  0  0
 27 86  1  0  0  0  0
 28 87  1  0  0  0  0
 29 88  1  0  0  0  0
 30 31  1  0  0  0  0
 30 89  1  0  0  0  0
 31 90  1  0  0  0  0
 32 68  2  0  0  0  0
 33 69  1  0  0  0  0
 33 72  1  0  0  0  0
 34 73  1  0  0  0  0
 34 79  2  0  0  0  0
 35 53  1  0  0  0  0
 35 75  1  0  0  0  0
 35 80  2  0  0  0  0
 36 64  1  0  0  0  0
 36 70  1  0  0  0  0
 36 81  2  0  0  0  0
 37 65  1  0  0  0  0
 37 76  1  0  0  0  0
 37 82  2  0  0  0  0
 38 71  1  0  0  0  0
 38 74  1  0  0  0  0
 38 83  2  0  0  0  0
 39 42  1  0  0  0  0
 40 53  1  0  0  0  0
 41 70  1  0  0  0  0
 42 44  1  0  0  0  0
 43 45  1  0  0  0  0
 43 47  1  0  0  0  0
 44 52  1  0  0  0  0
 45 54  1  0  0  0  0
 46 49  1  0  0  0  0
 46 51  1  0  0  0  0
 47 71  1  0  0  0  0
 48 54  1  0  0  0  0
 48 71  1  0  0  0  0
 49 77  1  0  0  0  0
 50 51  1  0  0  0  0
 50 77  1  0  0  0  0
 52 75  1  0  0  0  0
 53 70  1  0  0  0  0
 54 69  1  0  0  0  0
 56 65  1  0  0  0  0
 57 66  1  0  0  0  0
 58 67  1  0  0  0  0
 59 67  1  0  0  0  0
 60 67  1  0  0  0  0
 61 78  1  0  0  0  0
 62 63  1  0  0  0  0
 62 66  1  0  0  0  0
 63 85  1  0  0  0  0
 64 67  1  0  0  0  0
 64 76  1  0  0  0  0
 65 78  1  0  0  0  0
 66 77  1  0  0  0  0
 68 69  1  0  0  0  0
M  CHG  2  77   1  78   1
M  ISO  4  38 100  63 101  74 100  85 101
M  END
> <Batch ID>
0025

> <Smiles>
CNC(C)C(=O)NC(C(=O)N1Cc2cc([101O:1][101CH2:1]CC(C)N3CCC(c4c(F)c(C)c([100NH:0][100C:0](=O)N5CCCC(n6nc(-c7ccc(Oc8ccc(F)cc8F)cc7)c(C(N)=O)c6N)C5)c(F)c4F)C3)ccc2CC1C(=O)NC1CCCc2ccccc21)C(C)(C)C

> <Shape>
0.309

> <Color>
0.167

> <Negative vol penalty>
0.000

$$$$

  -OEChem-04052316243D

 81 89  0     1  0  0  0  0  0999 V2000
  -21.3635  -29.4673   20.2787 C   0  0  0  0  0  0  0  0  0  0  0  0
  -21.9071  -28.2129   20.5366 C   0  0  0  0  0  0  0  0  0  0  0  0
  -23.0518   -9.8616   19.9111 C   0  0  0  0  0  0  0  0  0  0  0  0
  -23.8605   -9.7792   22.1863 C   0  0  0  0  0  0  0  0  0  0  0  0
  -22.1810  -30.5966   20.2938 C   0  0  0  0  0  0  0  0  0  0  0  0
  -23.2689  -28.0871   20.8086 C   0  0  0  0  0  0  0  0  0  0  0  0
  -25.9047  -24.1029   24.6408 C   0  0  0  0  0  0  0  0  0  0  0  0
  -22.3248   -8.6910   20.1271 C   0  0  0  0  0  0  0  0  0  0  0  0
  -23.1334   -8.6086   22.4023 C   0  0  0  0  0  0  0  0  0  0  0  0
  -26.5367  -22.8780   24.4315 C   0  0  0  0  0  0  0  0  0  0  0  0
  -23.4448   -5.3166   21.6976 C   0  0  0  0  0  0  0  0  0  0  0  0
  -24.0855   -4.2684   22.3580 C   0  0  0  0  0  0  0  0  0  0  0  0
  -28.6760  -23.9925   24.4084 C   0  0  0  0  0  0  0  0  0  0  0  0
  -22.4194   -4.3511   24.1057 C   0  0  0  0  0  0  0  0  0  0  0  0
  -23.8197  -10.4057   20.9407 C   0  0  0  0  0  0  0  0  0  0  0  0
  -24.1342  -12.9372   20.9215 C   0  0  0  0  0  0  0  0  0  0  0  0
  -23.5517  -30.4857   20.5757 C   0  0  0  0  0  0  0  0  0  0  0  0
  -26.6540  -25.2853   24.7246 C   0  0  0  0  0  0  0  0  0  0  0  0
  -24.1058  -29.2158   20.8262 C   0  0  0  0  0  0  0  0  0  0  0  0
  -28.0513  -25.2309   24.6213 C   0  0  0  0  0  0  0  0  0  0  0  0
  -28.5747  -19.2612   23.8276 C   0  0  0  0  0  0  0  0  0  0  0  0
  -22.3655   -8.0645   21.3727 C   0  0  0  0  0  0  0  0  0  0  0  0
  -27.9223  -22.8230   24.3124 C   0  0  0  0  0  0  0  0  0  0  0  0
  -22.2914   -5.8822   22.2412 C   0  0  0  0  0  0  0  0  0  0  0  0
  -23.5728   -3.7856   23.5621 C   0  0  0  0  0  0  0  0  0  0  0  0
  -21.7787   -5.3994   23.4453 C   0  0  0  0  0  0  0  0  0  0  0  0
  -29.2300  -18.8764   22.6319 C   0  0  0  0  0  0  0  0  0  0  0  0
  -24.5715  -11.6146   20.7180 C   0  0  0  0  0  0  0  0  0  0  0  0
  -29.9125  -17.7091   22.8942 C   0  0  0  0  0  0  0  0  0  0  0  0
  -25.2110  -13.7131   20.5678 C   0  0  0  0  0  0  0  0  0  0  0  0
  -28.8769  -18.3173   24.7843 C   0  0  0  0  0  0  0  0  0  0  0  0
  -22.8680  -13.4212   21.3886 C   0  0  0  0  0  0  0  0  0  0  0  0
  -26.7922  -27.9775   23.0404 C   0  0  0  0  0  0  0  0  0  0  0  0
  -28.8116  -28.8960   25.4071 C   0  0  0  0  0  0  0  0  0  0  0  0
  -30.9819  -27.9871   27.8789 C   0  0  0  0  0  0  0  0  0  0  0  0
  -30.6873  -14.7817   20.6845 C   0  0  0  0  0  0  0  0  0  0  0  0
  -24.4043  -31.7290   20.5341 C   0  0  0  0  0  0  0  0  0  0  0  0
  -25.9593  -26.5953   24.9773 C   0  0  0  0  0  0  0  0  0  0  0  0
  -28.9029  -26.4688   24.7243 C   0  0  0  0  0  0  0  0  0  0  0  0
  -25.7669  -31.5558   21.2003 C   0  0  0  0  0  0  0  0  0  0  0  0
  -29.5222  -12.4887   18.2224 C   0  0  0  0  0  0  0  0  0  0  0  0
  -26.4211  -30.2545   20.7470 C   0  0  0  0  0  0  0  0  0  0  0  0
  -28.0973  -12.1616   18.6724 C   0  0  0  0  0  0  0  0  0  0  0  0
  -30.4626  -12.6681   19.4122 C   0  0  0  0  0  0  0  0  0  0  0  0
  -28.5840  -13.3192   20.8683 C   0  0  0  0  0  0  0  0  0  0  0  0
  -25.5738  -29.0415   21.1499 C   0  0  1  0  0  0  0  0  0  0  0  0
  -26.7797  -27.8022   24.5326 C   0  0  1  0  0  0  0  0  0  0  0  0
  -27.5866  -13.1845   19.7049 C   0  0  2  0  0  0  0  0  0  0  0  0
  -32.5074  -28.9609   29.6174 C   0  0  0  0  0  0  0  0  0  0  0  0
  -30.8433  -29.5820   23.2365 C   0  0  0  0  0  0  0  0  0  0  0  0
  -32.6136  -29.6298   25.0062 C   0  0  0  0  0  0  0  0  0  0  0  0
  -30.7113  -31.2405   25.1036 C   0  0  0  0  0  0  0  0  0  0  0  0
  -30.2407  -16.2099   24.8623 C   0  0  0  0  0  0  0  0  0  0  0  0
  -29.4780  -26.7065   30.0829 C   0  0  0  0  0  0  0  0  0  0  0  0
  -27.7104  -20.4717   24.0247 C   0  0  0  0  0  0  0  0  0  1  0  0
  -30.7586  -16.8783   22.0105 C   0  0  0  0  0  0  0  0  0  0  0  0
  -30.3006  -28.8037   25.6377 C   0  0  1  0  0  0  0  0  0  0  0  0
  -31.1101  -28.4378   29.3229 C   0  0  2  0  0  0  0  0  0  0  0  0
  -31.1013  -29.7908   24.7421 C   0  0  0  0  0  0  0  0  0  0  0  0
  -25.8280  -11.5502   20.2696 N   0  0  0  0  0  0  0  0  0  0  0  0
  -29.6910  -17.3788   24.2057 N   0  0  0  0  0  0  0  0  0  0  0  0
  -26.1895  -12.8420   20.1883 N   0  0  0  0  0  0  0  0  0  0  0  0
  -28.1766  -27.7265   24.9654 N   0  0  0  0  0  0  0  0  0  0  0  0
  -29.9211  -13.6521   20.3526 N   0  0  0  0  0  0  0  0  0  0  0  0
  -25.4068  -15.0486   20.5473 N   0  0  0  0  0  0  0  0  0  0  0  0
  -21.8725  -12.4877   21.7079 N   0  0  0  0  0  0  0  0  0  0  0  0
  -25.7510  -28.7456   22.5554 N   0  0  0  0  0  0  0  0  0  0  0  0
  -30.5046  -28.9960   27.0694 N   0  0  0  0  0  0  0  0  0  0  0  0
  -30.0972  -15.6674   21.5778 N   0  0  0  0  0  0  0  0  0  0  0  0
  -30.8288  -27.3028   30.2467 N   0  3  0  0  0  0  0  0  0  0  0  0
  -22.6210  -14.6456   21.5034 O   0  0  0  0  0  0  0  0  0  0  0  0
  -27.6817  -27.4558   22.3782 O   0  0  0  0  0  0  0  0  0  0  0  0
  -28.2320  -29.9642   25.6181 O   0  0  0  0  0  0  0  0  0  0  0  0
  -31.2793  -26.8544   27.5058 O   0  0  0  0  0  0  0  0  0  0  0  0
  -31.8115  -14.9884   20.2151 O   0  0  0  0  0  0  0  0  0  0  0  0
  -21.6560   -6.9224   21.5839 O   0  0  0  0  0  0  0  0  0  0  0  0
  -28.5417  -21.6287   24.1075 O   0  0  0  0  0  0  0  0  0  1  0  0
  -24.1873   -2.7779   24.1954 F   0  0  0  0  0  0  0  0  0  0  0  0
  -20.6703   -5.9380   23.9718 F   0  0  0  0  0  0  0  0  0  0  0  0
  -29.1690  -19.7202   21.1565 Cl  0  0  0  0  0  0  0  0  0  0  0  0
  -28.4187  -18.1828   26.4174 Cl  0  0  0  0  0  0  0  0  0  0  0  0
  1  2  1  0  0  0  0
  1  5  2  0  0  0  0
  2  6  2  0  0  0  0
  3  8  2  0  0  0  0
  3 15  1  0  0  0  0
  4  9  1  0  0  0  0
  4 15  2  0  0  0  0
  5 17  1  0  0  0  0
  6 19  1  0  0  0  0
  7 10  2  0  0  0  0
  7 18  1  0  0  0  0
  8 22  1  0  0  0  0
  9 22  2  0  0  0  0
 10 23  1  0  0  0  0
 11 12  2  0  0  0  0
 11 24  1  0  0  0  0
 12 25  1  0  0  0  0
 13 20  1  0  0  0  0
 13 23  2  0  0  0  0
 14 25  2  0  0  0  0
 14 26  1  0  0  0  0
 15 28  1  0  0  0  0
 16 28  1  0  0  0  0
 16 30  2  0  0  0  0
 16 32  1  0  0  0  0
 17 19  2  0  0  0  0
 17 37  1  0  0  0  0
 18 20  2  0  0  0  0
 18 38  1  0  0  0  0
 19 46  1  0  0  0  0
 20 39  1  0  0  0  0
 21 27  1  0  0  0  0
 21 31  2  0  0  0  0
 21 55  1  0  0  0  0
 22 76  1  0  0  0  0
 23 77  1  0  0  0  0
 24 26  2  0  0  0  0
 24 76  1  0  0  0  0
 25 78  1  0  0  0  0
 26 79  1  0  0  0  0
 27 29  2  0  0  0  0
 27 80  1  0  0  0  0
 28 60  2  0  0  0  0
 29 56  1  0  0  0  0
 29 61  1  0  0  0  0
 30 62  1  0  0  0  0
 30 65  1  0  0  0  0
 31 61  1  0  0  0  0
 31 81  1  0  0  0  0
 32 66  1  0  0  0  0
 32 71  2  0  0  0  0
 33 47  1  0  0  0  0
 33 67  1  0  0  0  0
 33 72  2  0  0  0  0
 34 57  1  0  0  0  0
 34 63  1  0  0  0  0
 34 73  2  0  0  0  0
 35 58  1  0  0  0  0
 35 68  1  0  0  0  0
 35 74  2  0  0  0  0
 36 64  1  0  0  0  0
 36 69  1  0  0  0  0
 36 75  2  0  0  0  0
 37 40  1  0  0  0  0
 38 47  1  0  0  0  0
 39 63  1  0  0  0  0
 40 42  1  0  0  0  0
 41 43  1  0  0  0  0
 41 44  1  0  0  0  0
 42 46  1  0  0  0  0
 43 48  1  0  0  0  0
 44 64  1  0  0  0  0
 45 48  1  0  0  0  0
 45 64  1  0  0  0  0
 46 67  1  0  0  0  0
 47 63  1  0  0  0  0
 48 62  1  0  0  0  0
 49 58  1  0  0  0  0
 50 59  1  0  0  0  0
 51 59  1  0  0  0  0
 52 59  1  0  0  0  0
 53 61  1  0  0  0  0
 54 70  1  0  0  0  0
 55 77  1  0  0  0  0
 56 69  1  0  0  0  0
 57 59  1  0  0  0  0
 57 68  1  0  0  0  0
 58 70  1  0  0  0  0
 60 62  1  0  0  0  0
M  CHG  1  70   1
M  ISO  4  36 100  55 101  69 100  77 101
M  END
> <Batch ID>
0025

> <Smiles>
CNC(C)C(=O)NC(C(=O)N1Cc2cc([101O:1][101CH2:1]c3c(Cl)c(C[100NH:0][100C:0](=O)N4CCCC(n5nc(-c6ccc(Oc7ccc(F)cc7F)cc6)c(C(N)=O)c5N)C4)n(C)c3Cl)ccc2CC1C(=O)NC1CCCc2ccccc21)C(C)(C)C

> <Shape>
0.245

> <Color>
0.223

> <Negative vol penalty>
0.000

$$$$

  -OEChem-04052316243D

 87 95  0     1  0  0  0  0  0999 V2000
  -31.0803  -24.4719   17.0228 C   0  0  0  0  0  0  0  0  0  0  0  0
  -29.7582  -24.4536   17.4552 C   0  0  0  0  0  0  0  0  0  0  0  0
  -23.3855   -9.5461   21.4807 C   0  0  0  0  0  0  0  0  0  0  0  0
  -24.1133  -10.6476   23.5041 C   0  0  0  0  0  0  0  0  0  0  0  0
  -32.0574  -25.0954   17.7977 C   0  0  0  0  0  0  0  0  0  0  0  0
  -29.4125  -25.0578   18.6635 C   0  0  0  0  0  0  0  0  0  0  0  0
  -25.2055  -27.8537   18.3040 C   0  0  0  0  0  0  0  0  0  0  0  0
  -23.4876   -8.3092   22.1173 C   0  0  0  0  0  0  0  0  0  0  0  0
  -24.2154   -9.4107   24.1407 C   0  0  0  0  0  0  0  0  0  0  0  0
  -23.9879  -27.1746   18.3035 C   0  0  0  0  0  0  0  0  0  0  0  0
  -21.6732   -6.4754   24.3032 C   0  0  0  0  0  0  0  0  0  0  0  0
  -20.6263   -5.5698   24.1318 C   0  0  0  0  0  0  0  0  0  0  0  0
  -23.6977  -27.7057   20.6387 C   0  0  0  0  0  0  0  0  0  0  0  0
  -26.8412  -21.5663   21.7619 C   0  0  0  0  0  0  0  0  0  0  0  0
  -22.1601   -3.9828   23.1488 C   0  0  0  0  0  0  0  0  0  0  0  0
  -23.6984  -10.7153   22.1741 C   0  0  0  0  0  0  0  0  0  0  0  0
  -22.4650  -12.8331   21.4660 C   0  0  0  0  0  0  0  0  0  0  0  0
  -31.7219  -25.7159   19.0114 C   0  0  0  0  0  0  0  0  0  0  0  0
  -25.6844  -28.4555   19.4765 C   0  0  0  0  0  0  0  0  0  0  0  0
  -30.3863  -25.6890   19.4560 C   0  0  0  0  0  0  0  0  0  0  0  0
  -24.9205  -28.3939   20.6507 C   0  0  0  0  0  0  0  0  0  0  0  0
  -25.6509  -22.2781   21.9105 C   0  0  0  0  0  0  0  0  0  0  0  0
  -24.4438  -21.7116   21.5010 C   0  0  0  0  0  0  0  0  0  0  0  0
  -25.6174  -19.7216   20.7943 C   0  0  0  0  0  0  0  0  0  0  0  0
  -23.9025   -8.2415   23.4473 C   0  0  0  0  0  0  0  0  0  0  0  0
  -23.2351  -27.0981   19.4716 C   0  0  0  0  0  0  0  0  0  0  0  0
  -22.9636   -6.1348   23.8973 C   0  0  0  0  0  0  0  0  0  0  0  0
  -26.8245  -20.2881   21.2037 C   0  0  0  0  0  0  0  0  0  0  0  0
  -20.8697   -4.3235   23.5546 C   0  0  0  0  0  0  0  0  0  0  0  0
  -23.2070   -4.8885   23.3201 C   0  0  0  0  0  0  0  0  0  0  0  0
  -24.4270  -20.4334   20.9429 C   0  0  0  0  0  0  0  0  0  0  0  0
  -23.5937  -11.9933   21.5169 C   0  0  0  0  0  0  0  0  0  0  0  0
  -22.8762  -13.9167   20.7291 C   0  0  0  0  0  0  0  0  0  0  0  0
  -21.1613  -12.6500   22.0340 C   0  0  0  0  0  0  0  0  0  0  0  0
  -28.2494  -28.0637   21.3126 C   0  0  0  0  0  0  0  0  0  0  0  0
  -27.0753  -30.6748   22.8378 C   0  0  0  0  0  0  0  0  0  0  0  0
  -24.3740  -32.6202   23.5897 C   0  0  0  0  0  0  0  0  0  0  0  0
  -26.6494  -17.8226   19.5001 C   0  0  0  0  0  0  0  0  0  0  0  0
  -32.8207  -26.3361   19.8377 C   0  0  0  0  0  0  0  0  0  0  0  0
  -26.9871  -29.2071   19.4538 C   0  0  0  0  0  0  0  0  0  0  0  0
  -25.3806  -29.0405   21.9309 C   0  0  0  0  0  0  0  0  0  0  0  0
  -32.3082  -27.2789   20.9233 C   0  0  0  0  0  0  0  0  0  0  0  0
  -27.0641  -14.6310   17.9772 C   0  0  0  0  0  0  0  0  0  0  0  0
  -31.1504  -26.6392   21.6829 C   0  0  0  0  0  0  0  0  0  0  0  0
  -26.1054  -13.7294   18.7581 C   0  0  0  0  0  0  0  0  0  0  0  0
  -27.7264  -15.6708   18.8794 C   0  0  0  0  0  0  0  0  0  0  0  0
  -25.8394  -15.5782   20.4605 C   0  0  0  0  0  0  0  0  0  0  0  0
  -29.9679  -26.3550   20.7489 C   0  0  1  0  0  0  0  0  0  0  0  0
  -27.6228  -29.3428   20.8339 C   0  0  1  0  0  0  0  0  0  0  0  0
  -25.0991  -14.5565   19.5820 C   0  0  2  0  0  0  0  0  0  0  0  0
  -25.6989  -23.6453   22.5113 C   0  0  0  0  0  0  0  0  0  0  0  0
  -29.5041  -18.0547   22.0916 C   0  0  0  0  0  0  0  0  0  0  0  0
  -23.7197  -34.6654   24.8883 C   0  0  0  0  0  0  0  0  0  0  0  0
  -27.2293  -29.0745   25.4311 C   0  0  0  0  0  0  0  0  0  0  0  0
  -25.7173  -30.7690   26.4849 C   0  0  0  0  0  0  0  0  0  0  0  0
  -27.9576  -31.4586   25.6316 C   0  0  0  0  0  0  0  0  0  0  0  0
  -23.4643  -34.0220   21.1471 C   0  0  0  0  0  0  0  0  0  0  0  0
  -23.1760  -22.4958   21.6709 C   0  0  0  0  0  0  0  0  0  0  0  0
  -20.9387  -24.3308   19.1632 C   0  0  0  0  0  0  0  0  0  0  0  0
  -21.3757  -23.7837   20.5137 C   0  0  0  0  0  0  0  0  0  0  0  0
  -28.7346  -19.3471   22.2628 C   0  0  0  0  0  0  0  0  0  0  0  0
  -21.9109  -25.3417   18.5675 C   0  0  0  0  0  0  0  0  0  1  0  0
  -26.1211  -30.9038   23.9849 C   0  0  1  0  0  0  0  0  0  0  0  0
  -24.1707  -34.1238   23.5407 C   0  0  2  0  0  0  0  0  0  0  0  0
  -26.7483  -30.5375   25.3597 C   0  0  0  0  0  0  0  0  0  0  0  0
  -24.6431  -12.4999   20.8642 N   0  0  0  0  0  0  0  0  0  0  0  0
  -24.1756  -13.6696   20.3961 N   0  0  0  0  0  0  0  0  0  0  0  0
  -26.6639  -29.7585   21.8595 N   0  0  0  0  0  0  0  0  0  0  0  0
  -26.7119  -16.4186   19.6253 N   0  0  0  0  0  0  0  0  0  0  0  0
  -22.2496  -15.0473   20.3399 N   0  0  0  0  0  0  0  0  0  0  0  0
  -20.9080  -11.4792   22.7616 N   0  0  0  0  0  0  0  0  0  0  0  0
  -25.6237  -18.4216   20.2307 N   0  0  0  0  0  0  0  0  0  0  0  0
  -29.2344  -27.5726   20.4772 N   0  0  0  0  0  0  0  0  0  0  0  0
  -25.6813  -32.2908   23.8794 N   0  0  0  0  0  0  0  0  0  0  0  0
  -23.1386  -34.4741   22.5242 N   0  3  0  0  0  0  0  0  0  0  0  0
  -22.6610  -23.0567   20.3912 N   0  3  0  0  0  0  0  0  0  0  0  0
  -20.2432  -13.4919   21.8865 O   0  0  0  0  0  0  0  0  0  0  0  0
  -27.8684  -27.5604   22.3630 O   0  0  0  0  0  0  0  0  0  0  0  0
  -28.1430  -31.2917   22.8069 O   0  0  0  0  0  0  0  0  0  0  0  0
  -23.4635  -31.8182   23.3945 O   0  0  0  0  0  0  0  0  0  0  0  0
  -27.4301  -18.4448   18.7752 O   0  0  0  0  0  0  0  0  0  0  0  0
  -24.0020   -7.0347   24.0688 O   0  0  0  0  0  0  0  0  0  0  0  0
  -22.0466  -26.4354   19.4741 O   0  0  0  0  0  0  0  0  0  1  0  0
  -28.0008  -19.6123   21.0695 O   0  0  0  0  0  0  0  0  0  0  0  0
  -19.8646   -3.4533   23.3915 F   0  0  0  0  0  0  0  0  0  0  0  0
  -24.4447   -4.5551   22.9293 F   0  0  0  0  0  0  0  0  0  0  0  0
  -22.9231  -19.7332   20.4353 Cl  0  0  0  0  0  0  0  0  0  0  0  0
  1  2  1  0  0  0  0
  1  5  2  0  0  0  0
  2  6  2  0  0  0  0
  3  8  2  0  0  0  0
  3 16  1  0  0  0  0
  4  9  1  0  0  0  0
  4 16  2  0  0  0  0
  5 18  1  0  0  0  0
  6 20  1  0  0  0  0
  7 10  2  0  0  0  0
  7 19  1  0  0  0  0
  8 25  1  0  0  0  0
  9 25  2  0  0  0  0
 10 26  1  0  0  0  0
 11 12  2  0  0  0  0
 11 27  1  0  0  0  0
 12 29  1  0  0  0  0
 13 21  1  0  0  0  0
 13 26  2  0  0  0  0
 14 22  2  0  0  0  0
 14 28  1  0  0  0  0
 15 29  2  0  0  0  0
 15 30  1  0  0  0  0
 16 32  1  0  0  0  0
 17 32  1  0  0  0  0
 17 33  2  0  0  0  0
 17 34  1  0  0  0  0
 18 20  2  0  0  0  0
 18 39  1  0  0  0  0
 19 21  2  0  0  0  0
 19 40  1  0  0  0  0
 20 48  1  0  0  0  0
 21 41  1  0  0  0  0
 22 23  1  0  0  0  0
 22 51  1  0  0  0  0
 23 31  2  0  0  0  0
 23 58  1  0  0  0  0
 24 28  2  0  0  0  0
 24 31  1  0  0  0  0
 24 72  1  0  0  0  0
 25 82  1  0  0  0  0
 26 83  1  0  0  0  0
 27 30  2  0  0  0  0
 27 82  1  0  0  0  0
 28 84  1  0  0  0  0
 29 85  1  0  0  0  0
 30 86  1  0  0  0  0
 31 87  1  0  0  0  0
 32 66  2  0  0  0  0
 33 67  1  0  0  0  0
 33 70  1  0  0  0  0
 34 71  1  0  0  0  0
 34 77  2  0  0  0  0
 35 49  1  0  0  0  0
 35 73  1  0  0  0  0
 35 78  2  0  0  0  0
 36 63  1  0  0  0  0
 36 68  1  0  0  0  0
 36 79  2  0  0  0  0
 37 64  1  0  0  0  0
 37 74  1  0  0  0  0
 37 80  2  0  0  0  0
 38 69  1  0  0  0  0
 38 72  1  0  0  0  0
 38 81  2  0  0  0  0
 39 42  1  0  0  0  0
 40 49  1  0  0  0  0
 41 68  1  0  0  0  0
 42 44  1  0  0  0  0
 43 45  1  0  0  0  0
 43 46  1  0  0  0  0
 44 48  1  0  0  0  0
 45 50  1  0  0  0  0
 46 69  1  0  0  0  0
 47 50  1  0  0  0  0
 47 69  1  0  0  0  0
 48 73  1  0  0  0  0
 49 68  1  0  0  0  0
 50 67  1  0  0  0  0
 52 61  1  0  0  0  0
 53 64  1  0  0  0  0
 54 65  1  0  0  0  0
 55 65  1  0  0  0  0
 56 65  1  0  0  0  0
 57 75  1  0  0  0  0
 58 76  1  0  0  0  0
 59 60  1  0  0  0  0
 59 62  1  0  0  0  0
 60 76  1  0  0  0  0
 61 84  1  0  0  0  0
 62 83  1  0  0  0  0
 63 65  1  0  0  0  0
 63 74  1  0  0  0  0
 64 75  1  0  0  0  0
 66 67  1  0  0  0  0
M  CHG  2  75   1  76   1
M  ISO  4  38 100  62 101  72 100  83 101
M  END
> <Batch ID>
0025

> <Smiles>
CCOc1cc(C)c(CNCC[101CH2:1][101O:1]c2ccc3c(c2)CN(C(=O)C(NC(=O)C(C)NC)C(C)(C)C)C(C(=O)NC2CCCc4ccccc42)C3)c(Cl)c1[100NH:0][100C:0](=O)N1CCCC(n2nc(-c3ccc(Oc4ccc(F)cc4F)cc3)c(C(N)=O)c2N)C1

> <Shape>
0.284

> <Color>
0.065

> <Negative vol penalty>
0.000

$$$$

  -OEChem-04052316243D

 93102  0     1  0  0  0  0  0999 V2000
  -23.8986  -30.3677   21.7229 C   0  0  0  0  0  0  0  0  0  0  0  0
  -24.9588  -29.5731   22.1472 C   0  0  0  0  0  0  0  0  0  0  0  0
  -22.9381   -9.9698   20.0211 C   0  0  0  0  0  0  0  0  0  0  0  0
  -23.6633  -10.0397   22.3247 C   0  0  0  0  0  0  0  0  0  0  0  0
  -22.9651  -29.8591   20.8208 C   0  0  0  0  0  0  0  0  0  0  0  0
  -25.0854  -28.2689   21.6704 C   0  0  0  0  0  0  0  0  0  0  0  0
  -29.8357  -27.1465   20.3212 C   0  0  0  0  0  0  0  0  0  0  0  0
  -22.1450   -8.8579   20.3045 C   0  0  0  0  0  0  0  0  0  0  0  0
  -22.8701   -8.9278   22.6081 C   0  0  0  0  0  0  0  0  0  0  0  0
  -30.7356  -26.8521   21.3446 C   0  0  0  0  0  0  0  0  0  0  0  0
  -23.0362   -5.5771   22.1884 C   0  0  0  0  0  0  0  0  0  0  0  0
  -23.5993   -4.5582   22.9568 C   0  0  0  0  0  0  0  0  0  0  0  0
  -30.4486  -24.4965   20.9111 C   0  0  0  0  0  0  0  0  0  0  0  0
  -29.8629  -22.4099   22.8025 C   0  0  0  0  0  0  0  0  0  0  0  0
  -21.8809   -4.8677   24.6266 C   0  0  0  0  0  0  0  0  0  0  0  0
  -29.0321  -18.2772   24.7426 C   0  0  0  0  0  0  0  0  0  0  0  0
  -27.9390  -24.1042   23.9028 C   0  0  0  0  0  0  0  0  0  0  0  0
  -23.6973  -10.5607   21.0312 C   0  0  0  0  0  0  0  0  0  0  0  0
  -24.1417  -13.0635   20.8163 C   0  0  0  0  0  0  0  0  0  0  0  0
  -23.0858  -28.5512   20.3253 C   0  0  0  0  0  0  0  0  0  0  0  0
  -29.2262  -26.1160   19.5911 C   0  0  0  0  0  0  0  0  0  0  0  0
  -24.1519  -27.7418   20.7619 C   0  0  0  0  0  0  0  0  0  0  0  0
  -29.5433  -24.7805   19.8772 C   0  0  0  0  0  0  0  0  0  0  0  0
  -30.2444  -23.6325   23.3549 C   0  0  0  0  0  0  0  0  0  0  0  0
  -30.0685  -17.6891   22.6409 C   0  0  0  0  0  0  0  0  0  0  0  0
  -22.1110   -8.3369   21.5980 C   0  0  0  0  0  0  0  0  0  0  0  0
  -31.0400  -25.5268   21.6416 C   0  0  0  0  0  0  0  0  0  0  0  0
  -21.8954   -6.2413   22.6392 C   0  0  0  0  0  0  0  0  0  0  0  0
  -28.5195  -22.0344   22.8001 C   0  0  0  0  0  0  0  0  0  0  0  0
  -28.7309  -19.6940   22.8090 C   0  0  0  0  0  0  0  0  0  0  0  0
  -23.0217   -4.2035   24.1758 C   0  0  0  0  0  0  0  0  0  0  0  0
  -21.3178   -5.8866   23.8583 C   0  0  0  0  0  0  0  0  0  0  0  0
  -28.4859  -19.4178   24.1541 C   0  0  0  0  0  0  0  0  0  0  0  0
  -29.8235  -17.4129   23.9860 C   0  0  0  0  0  0  0  0  0  0  0  0
  -29.2825  -24.4797   23.9051 C   0  0  0  0  0  0  0  0  0  0  0  0
  -27.5576  -22.8816   23.3503 C   0  0  0  0  0  0  0  0  0  0  0  0
  -29.5223  -18.8297   22.0524 C   0  0  0  0  0  0  0  0  0  0  0  0
  -24.5172  -11.7089   20.7390 C   0  0  0  0  0  0  0  0  0  0  0  0
  -25.2683  -13.7540   20.4416 C   0  0  0  0  0  0  0  0  0  0  0  0
  -22.8867  -13.6455   21.1933 C   0  0  0  0  0  0  0  0  0  0  0  0
  -26.2312  -25.1456   19.1527 C   0  0  0  0  0  0  0  0  0  0  0  0
  -27.6099  -23.1245   17.0227 C   0  0  0  0  0  0  0  0  0  0  0  0
  -30.4068  -21.4543   16.0057 C   0  0  0  0  0  0  0  0  0  0  0  0
  -30.7850  -14.5630   20.6798 C   0  0  0  0  0  0  0  0  0  0  0  0
  -22.0257  -28.0293   19.3881 C   0  0  0  0  0  0  0  0  0  0  0  0
  -28.2780  -26.4510   18.4725 C   0  0  0  0  0  0  0  0  0  0  0  0
  -28.9316  -23.6382   19.1095 C   0  0  0  0  0  0  0  0  0  0  0  0
  -22.4415  -26.7640   18.6422 C   0  0  0  0  0  0  0  0  0  0  0  0
  -29.5886  -12.1305   18.3715 C   0  0  0  0  0  0  0  0  0  0  0  0
  -23.0686  -25.7593   19.6035 C   0  0  0  0  0  0  0  0  0  0  0  0
  -28.1343  -11.9114   18.7920 C   0  0  0  0  0  0  0  0  0  0  0  0
  -30.4958  -12.3634   19.5776 C   0  0  0  0  0  0  0  0  0  0  0  0
  -28.6043  -13.2244   20.9023 C   0  0  0  0  0  0  0  0  0  0  0  0
  -24.3373  -26.3304   20.2482 C   0  0  1  0  0  0  0  0  0  0  0  0
  -27.3247  -25.3087   18.1351 C   0  0  1  0  0  0  0  0  0  0  0  0
  -27.6417  -13.0408   19.7167 C   0  0  2  0  0  0  0  0  0  0  0  0
  -31.2151  -19.8492   14.2541 C   0  0  0  0  0  0  0  0  0  0  0  0
  -32.2512  -24.2133   24.7638 C   0  0  0  0  0  0  0  0  0  0  0  0
  -32.5543  -22.9452   22.6031 C   0  0  0  0  0  0  0  0  0  0  0  0
  -26.2073  -20.8370   18.4753 C   0  0  0  0  0  0  0  0  0  0  0  0
  -27.7616  -19.2464   17.3253 C   0  0  0  0  0  0  0  0  0  0  0  0
  -26.1980  -20.6506   15.9814 C   0  0  0  0  0  0  0  0  0  0  0  0
  -32.3885  -23.3960   14.9752 C   0  0  0  0  0  0  0  0  0  0  0  0
  -30.9184  -16.7576   21.8309 C   0  0  0  0  0  0  0  0  0  0  0  0
  -28.1941  -21.7342   17.0919 C   0  0  1  0  0  0  0  0  0  0  0  0
  -31.0540  -21.3114   14.6399 C   0  0  2  0  0  0  0  0  0  0  0  0
  -31.7244  -24.0067   23.3376 C   0  0  0  0  0  0  0  0  0  1  0  0
  -27.1005  -20.6383   17.2344 C   0  0  0  0  0  0  0  0  0  0  0  0
  -25.7833  -11.5465   20.3458 N   0  0  0  0  0  0  0  0  0  0  0  0
  -26.2132  -12.8079   20.1727 N   0  0  0  0  0  0  0  0  0  0  0  0
  -28.0056  -24.0167   18.0293 N   0  0  0  0  0  0  0  0  0  0  0  0
  -29.9737  -13.4479   20.4127 N   0  0  0  0  0  0  0  0  0  0  0  0
  -25.5329  -15.0721   20.3190 N   0  0  0  0  0  0  0  0  0  0  0  0
  -21.8343  -12.7913   21.5497 N   0  0  0  0  0  0  0  0  0  0  0  0
  -25.4465  -26.2706   19.3205 N   0  0  0  0  0  0  0  0  0  0  0  0
  -29.0376  -21.5867   15.9108 N   0  0  0  0  0  0  0  0  0  0  0  0
  -30.2110  -15.5480   21.4742 N   0  0  0  0  0  0  0  0  0  0  0  0
  -32.4006  -21.9498   14.6354 N   0  3  0  0  0  0  0  0  0  0  0  0
  -22.6991  -14.8857   21.1976 O   0  0  0  0  0  0  0  0  0  0  0  0
  -26.1076  -24.0777   19.7409 O   0  0  0  0  0  0  0  0  0  0  0  0
  -26.8367  -23.4106   16.1052 O   0  0  0  0  0  0  0  0  0  0  0  0
  -31.0511  -21.4454   17.0523 O   0  0  0  0  0  0  0  0  0  0  0  0
  -31.9337  -14.6751   20.2384 O   0  0  0  0  0  0  0  0  0  0  0  0
  -21.3370   -7.2521   21.8749 O   0  0  0  0  0  0  0  0  0  0  0  0
  -28.1749  -20.8336   22.2547 O   0  0  0  0  0  0  0  0  0  0  0  0
  -31.9175  -25.2367   22.6404 O   0  0  0  0  0  0  0  0  0  1  0  0
  -23.5617   -3.2240   24.9128 F   0  0  0  0  0  0  0  0  0  0  0  0
  -20.2211   -6.5203   24.2960 F   0  0  0  0  0  0  0  0  0  0  0  0
  -27.7262  -20.2435   24.8872 F   0  0  0  0  0  0  0  0  0  0  0  0
  -30.4795  -16.0132   24.7553 Cl  0  0  0  0  0  0  0  0  0  0  0  0
  -29.7176  -26.0010   24.5949 Cl  0  0  0  0  0  0  0  0  0  0  0  0
  -25.8896  -22.4419   23.3604 Cl  0  0  0  0  0  0  0  0  0  0  0  0
  -29.8184  -19.1874   20.3837 Cl  0  0  0  0  0  0  0  0  0  0  0  0
  1  2  1  0  0  0  0
  1  5  2  0  0  0  0
  2  6  2  0  0  0  0
  3  8  2  0  0  0  0
  3 18  1  0  0  0  0
  4  9  1  0  0  0  0
  4 18  2  0  0  0  0
  5 20  1  0  0  0  0
  6 22  1  0  0  0  0
  7 10  2  0  0  0  0
  7 21  1  0  0  0  0
  8 26  1  0  0  0  0
  9 26  2  0  0  0  0
 10 27  1  0  0  0  0
 11 12  2  0  0  0  0
 11 28  1  0  0  0  0
 12 31  1  0  0  0  0
 13 23  1  0  0  0  0
 13 27  2  0  0  0  0
 14 24  1  0  0  0  0
 14 29  2  0  0  0  0
 15 31  2  0  0  0  0
 15 32  1  0  0  0  0
 16 33  2  0  0  0  0
 16 34  1  0  0  0  0
 17 35  1  0  0  0  0
 17 36  2  0  0  0  0
 18 38  1  0  0  0  0
 19 38  1  0  0  0  0
 19 39  2  0  0  0  0
 19 40  1  0  0  0  0
 20 22  2  0  0  0  0
 20 45  1  0  0  0  0
 21 23  2  0  0  0  0
 21 46  1  0  0  0  0
 22 54  1  0  0  0  0
 23 47  1  0  0  0  0
 24 35  2  0  0  0  0
 24 67  1  0  0  0  0
 25 34  2  0  0  0  0
 25 37  1  0  0  0  0
 25 64  1  0  0  0  0
 26 84  1  0  0  0  0
 27 86  1  0  0  0  0
 28 32  2  0  0  0  0
 28 84  1  0  0  0  0
 29 36  1  0  0  0  0
 29 85  1  0  0  0  0
 30 33  1  0  0  0  0
 30 37  2  0  0  0  0
 30 85  1  0  0  0  0
 31 87  1  0  0  0  0
 32 88  1  0  0  0  0
 33 89  1  0  0  0  0
 34 90  1  0  0  0  0
 35 91  1  0  0  0  0
 36 92  1  0  0  0  0
 37 93  1  0  0  0  0
 38 69  2  0  0  0  0
 39 70  1  0  0  0  0
 39 73  1  0  0  0  0
 40 74  1  0  0  0  0
 40 79  2  0  0  0  0
 41 55  1  0  0  0  0
 41 75  1  0  0  0  0
 41 80  2  0  0  0  0
 42 65  1  0  0  0  0
 42 71  1  0  0  0  0
 42 81  2  0  0  0  0
 43 66  1  0  0  0  0
 43 76  1  0  0  0  0
 43 82  2  0  0  0  0
 44 72  1  0  0  0  0
 44 77  1  0  0  0  0
 44 83  2  0  0  0  0
 45 48  1  0  0  0  0
 46 55  1  0  0  0  0
 47 71  1  0  0  0  0
 48 50  1  0  0  0  0
 49 51  1  0  0  0  0
 49 52  1  0  0  0  0
 50 54  1  0  0  0  0
 51 56  1  0  0  0  0
 52 72  1  0  0  0  0
 53 56  1  0  0  0  0
 53 72  1  0  0  0  0
 54 75  1  0  0  0  0
 55 71  1  0  0  0  0
 56 70  1  0  0  0  0
 57 66  1  0  0  0  0
 58 67  1  0  0  0  0
 59 67  1  0  0  0  0
 60 68  1  0  0  0  0
 61 68  1  0  0  0  0
 62 68  1  0  0  0  0
 63 78  1  0  0  0  0
 64 77  1  0  0  0  0
 65 68  1  0  0  0  0
 65 76  1  0  0  0  0
 66 78  1  0  0  0  0
 67 86  1  0  0  0  0
 69 70  1  0  0  0  0
M  CHG  1  78   1
M  ISO  4  44 100  67 101  77 100  86 101
M  END
> <Batch ID>
0025

> <Smiles>
CNC(C)C(=O)NC(C(=O)N1Cc2cc([101O:1][101C:1](C)(C)c3cc(Oc4c(F)cc(Cl)c(C[100NH:0][100C:0](=O)N5CCCC(n6nc(-c7ccc(Oc8ccc(F)cc8F)cc7)c(C(N)=O)c6N)C5)c4Cl)c(Cl)cc3Cl)ccc2CC1C(=O)NC1CCCc2ccccc21)C(C)(C)C

> <Shape>
0.280

> <Color>
0.196

> <Negative vol penalty>
0.000

$$$$

  -OEChem-04052316243D

 86 94  0     1  0  0  0  0  0999 V2000
  -19.5543  -33.8381   21.7064 C   0  0  0  0  0  0  0  0  0  0  0  0
  -20.8229  -33.4473   21.2898 C   0  0  0  0  0  0  0  0  0  0  0  0
  -22.2621  -10.2971   21.4635 C   0  0  0  0  0  0  0  0  0  0  0  0
  -24.5893   -9.8044   21.0411 C   0  0  0  0  0  0  0  0  0  0  0  0
  -18.8957  -33.1170   22.7015 C   0  0  0  0  0  0  0  0  0  0  0  0
  -21.4340  -32.3358   21.8690 C   0  0  0  0  0  0  0  0  0  0  0  0
  -25.1366  -28.3144   19.1076 C   0  0  0  0  0  0  0  0  0  0  0  0
  -21.9812   -8.9317   21.5090 C   0  0  0  0  0  0  0  0  0  0  0  0
  -24.3084   -8.4389   21.0867 C   0  0  0  0  0  0  0  0  0  0  0  0
  -26.5249  -28.1936   19.0648 C   0  0  0  0  0  0  0  0  0  0  0  0
  -22.3099   -6.3933   23.7185 C   0  0  0  0  0  0  0  0  0  0  0  0
  -21.4952   -5.9333   24.7530 C   0  0  0  0  0  0  0  0  0  0  0  0
  -26.4355  -26.5959   20.8700 C   0  0  0  0  0  0  0  0  0  0  0  0
  -19.9014   -5.1131   23.1331 C   0  0  0  0  0  0  0  0  0  0  0  0
  -23.5661  -10.7335   21.2294 C   0  0  0  0  0  0  0  0  0  0  0  0
  -24.2277  -12.9724   22.2577 C   0  0  0  0  0  0  0  0  0  0  0  0
  -19.4951  -31.9904   23.2863 C   0  0  0  0  0  0  0  0  0  0  0  0
  -24.3871  -27.5839   20.0408 C   0  0  0  0  0  0  0  0  0  0  0  0
  -20.7834  -31.5998   22.8738 C   0  0  0  0  0  0  0  0  0  0  0  0
  -25.0377  -26.7073   20.9209 C   0  0  0  0  0  0  0  0  0  0  0  0
  -29.9553  -20.0505   18.3957 C   0  0  0  0  0  0  0  0  0  0  0  0
  -29.7970  -20.8231   19.5462 C   0  0  0  0  0  0  0  0  0  0  0  0
  -28.0362  -18.7235   19.0227 C   0  0  0  0  0  0  0  0  0  0  0  0
  -23.0044   -8.0025   21.3207 C   0  0  0  0  0  0  0  0  0  0  0  0
  -27.1748  -27.3364   19.9479 C   0  0  0  0  0  0  0  0  0  0  0  0
  -21.9204   -6.2134   22.3913 C   0  0  0  0  0  0  0  0  0  0  0  0
  -20.2909   -5.2932   24.4603 C   0  0  0  0  0  0  0  0  0  0  0  0
  -20.7161   -5.5732   22.0986 C   0  0  0  0  0  0  0  0  0  0  0  0
  -29.0748  -19.0008   18.1339 C   0  0  0  0  0  0  0  0  0  0  0  0
  -28.7584  -20.5458   20.4350 C   0  0  0  0  0  0  0  0  0  0  0  0
  -27.8779  -19.4960   20.1733 C   0  0  0  0  0  0  0  0  0  0  0  0
  -23.8568  -12.1440   21.1816 C   0  0  0  0  0  0  0  0  0  0  0  0
  -24.3895  -14.2147   21.6947 C   0  0  0  0  0  0  0  0  0  0  0  0
  -24.4099  -12.6480   23.6424 C   0  0  0  0  0  0  0  0  0  0  0  0
  -22.4686  -28.3375   22.4606 C   0  0  0  0  0  0  0  0  0  0  0  0
  -21.9445  -25.1372   22.5319 C   0  0  0  0  0  0  0  0  0  0  0  0
  -23.0661  -22.0004   21.7904 C   0  0  0  0  0  0  0  0  0  0  0  0
  -26.3122  -17.5127   17.6414 C   0  0  0  0  0  0  0  0  0  0  0  0
  -18.7639  -31.2707   24.3918 C   0  0  0  0  0  0  0  0  0  0  0  0
  -22.8879  -27.7053   20.0564 C   0  0  0  0  0  0  0  0  0  0  0  0
  -24.2771  -25.8855   21.9282 C   0  0  0  0  0  0  0  0  0  0  0  0
  -19.3251  -29.8828   24.6904 C   0  0  0  0  0  0  0  0  0  0  0  0
  -23.1717  -15.9283   17.0901 C   0  0  0  0  0  0  0  0  0  0  0  0
  -20.8467  -29.9316   24.7866 C   0  0  0  0  0  0  0  0  0  0  0  0
  -23.1005  -14.8706   18.1939 C   0  0  0  0  0  0  0  0  0  0  0  0
  -24.5916  -16.0900   16.5503 C   0  0  0  0  0  0  0  0  0  0  0  0
  -25.5471  -15.2844   18.6734 C   0  0  0  0  0  0  0  0  0  0  0  0
  -21.4691  -30.3850   23.4605 C   0  0  1  0  0  0  0  0  0  0  0  0
  -22.2695  -27.3011   21.3911 C   0  0  1  0  0  0  0  0  0  0  0  0
  -24.1485  -15.1321   19.2934 C   0  0  2  0  0  0  0  0  0  0  0  0
  -31.0753  -20.3634   17.4511 C   0  0  0  0  0  0  0  0  0  0  0  0
  -22.4353  -19.5810   22.0045 C   0  0  0  0  0  0  0  0  0  0  0  0
  -22.6886  -25.2075   25.4901 C   0  0  0  0  0  0  0  0  0  0  0  0
  -22.9667  -22.7207   25.4077 C   0  0  0  0  0  0  0  0  0  0  0  0
  -20.7391  -23.7410   24.9394 C   0  0  0  0  0  0  0  0  0  0  0  0
  -23.0558  -21.6234   18.8550 C   0  0  0  0  0  0  0  0  0  0  0  0
  -30.7566  -21.9463   19.8082 C   0  0  0  0  0  0  0  0  0  0  0  0
  -30.3904  -25.7484   19.5420 C   0  0  0  0  0  0  0  0  0  0  0  0
  -31.0700  -24.4238   19.8550 C   0  0  0  0  0  0  0  0  0  0  0  0
  -29.0826  -25.9595   20.2949 C   0  0  0  0  0  0  0  0  0  1  0  0
  -22.5884  -23.9636   23.2299 C   0  0  1  0  0  0  0  0  0  0  0  0
  -22.3857  -20.8190   21.1227 C   0  0  2  0  0  0  0  0  0  0  0  0
  -22.2605  -23.9250   24.7492 C   0  0  0  0  0  0  0  0  0  0  0  0
  -23.7868  -12.8044   20.0228 N   0  0  0  0  0  0  0  0  0  0  0  0
  -24.1159  -14.0610   20.3674 N   0  0  0  0  0  0  0  0  0  0  0  0
  -22.8135  -26.0438   21.9085 N   0  0  0  0  0  0  0  0  0  0  0  0
  -25.5288  -16.3392   17.6478 N   0  0  0  0  0  0  0  0  0  0  0  0
  -24.7375  -15.4128   22.2105 N   0  0  0  0  0  0  0  0  0  0  0  0
  -24.2028  -11.3234   24.0511 N   0  0  0  0  0  0  0  0  0  0  0  0
  -27.1425  -17.6577   18.7523 N   0  0  0  0  0  0  0  0  0  0  0  0
  -21.4748  -29.2965   22.5067 N   0  0  0  0  0  0  0  0  0  0  0  0
  -22.1696  -22.7733   22.4977 N   0  0  0  0  0  0  0  0  0  0  0  0
  -23.0522  -20.5011   19.8283 N   0  3  0  0  0  0  0  0  0  0  0  0
  -30.1689  -23.2890   19.5455 N   0  3  0  0  0  0  0  0  0  0  0  0
  -24.7303  -13.5106   24.4949 O   0  0  0  0  0  0  0  0  0  0  0  0
  -23.4504  -28.2712   23.1909 O   0  0  0  0  0  0  0  0  0  0  0  0
  -20.7154  -25.2416   22.5334 O   0  0  0  0  0  0  0  0  0  0  0  0
  -24.2728  -22.2141   21.6971 O   0  0  0  0  0  0  0  0  0  0  0  0
  -26.2311  -18.3422   16.7318 O   0  0  0  0  0  0  0  0  0  0  0  0
  -22.7307   -6.6700   21.3654 O   0  0  0  0  0  0  0  0  0  0  0  0
  -28.5299  -27.2171   19.9087 O   0  0  0  0  0  0  0  0  0  1  0  0
  -19.5094   -4.8501   25.4538 F   0  0  0  0  0  0  0  0  0  0  0  0
  -20.3371   -5.3963   20.8254 F   0  0  0  0  0  0  0  0  0  0  0  0
  -29.2767  -18.0465   16.6978 Cl  0  0  0  0  0  0  0  0  0  0  0  0
  -28.5874  -21.5253   21.8595 Cl  0  0  0  0  0  0  0  0  0  0  0  0
  -26.5766  -19.1338   21.2696 Cl  0  0  0  0  0  0  0  0  0  0  0  0
  1  2  1  0  0  0  0
  1  5  2  0  0  0  0
  2  6  2  0  0  0  0
  3  8  2  0  0  0  0
  3 15  1  0  0  0  0
  4  9  1  0  0  0  0
  4 15  2  0  0  0  0
  5 17  1  0  0  0  0
  6 19  1  0  0  0  0
  7 10  2  0  0  0  0
  7 18  1  0  0  0  0
  8 24  1  0  0  0  0
  9 24  2  0  0  0  0
 10 25  1  0  0  0  0
 11 12  2  0  0  0  0
 11 26  1  0  0  0  0
 12 27  1  0  0  0  0
 13 20  1  0  0  0  0
 13 25  2  0  0  0  0
 14 27  2  0  0  0  0
 14 28  1  0  0  0  0
 15 32  1  0  0  0  0
 16 32  1  0  0  0  0
 16 33  2  0  0  0  0
 16 34  1  0  0  0  0
 17 19  2  0  0  0  0
 17 39  1  0  0  0  0
 18 20  2  0  0  0  0
 18 40  1  0  0  0  0
 19 48  1  0  0  0  0
 20 41  1  0  0  0  0
 21 22  1  0  0  0  0
 21 29  2  0  0  0  0
 21 51  1  0  0  0  0
 22 30  2  0  0  0  0
 22 57  1  0  0  0  0
 23 29  1  0  0  0  0
 23 31  2  0  0  0  0
 23 70  1  0  0  0  0
 24 80  1  0  0  0  0
 25 81  1  0  0  0  0
 26 28  2  0  0  0  0
 26 80  1  0  0  0  0
 27 82  1  0  0  0  0
 28 83  1  0  0  0  0
 29 84  1  0  0  0  0
 30 31  1  0  0  0  0
 30 85  1  0  0  0  0
 31 86  1  0  0  0  0
 32 64  2  0  0  0  0
 33 65  1  0  0  0  0
 33 68  1  0  0  0  0
 34 69  1  0  0  0  0
 34 75  2  0  0  0  0
 35 49  1  0  0  0  0
 35 71  1  0  0  0  0
 35 76  2  0  0  0  0
 36 61  1  0  0  0  0
 36 66  1  0  0  0  0
 36 77  2  0  0  0  0
 37 62  1  0  0  0  0
 37 72  1  0  0  0  0
 37 78  2  0  0  0  0
 38 67  1  0  0  0  0
 38 70  1  0  0  0  0
 38 79  2  0  0  0  0
 39 42  1  0  0  0  0
 40 49  1  0  0  0  0
 41 66  1  0  0  0  0
 42 44  1  0  0  0  0
 43 45  1  0  0  0  0
 43 46  1  0  0  0  0
 44 48  1  0  0  0  0
 45 50  1  0  0  0  0
 46 67  1  0  0  0  0
 47 50  1  0  0  0  0
 47 67  1  0  0  0  0
 48 71  1  0  0  0  0
 49 66  1  0  0  0  0
 50 65  1  0  0  0  0
 52 62  1  0  0  0  0
 53 63  1  0  0  0  0
 54 63  1  0  0  0  0
 55 63  1  0  0  0  0
 56 73  1  0  0  0  0
 57 74  1  0  0  0  0
 58 59  1  0  0  0  0
 58 60  1  0  0  0  0
 59 74  1  0  0  0  0
 60 81  1  0  0  0  0
 61 63  1  0  0  0  0
 61 72  1  0  0  0  0
 62 73  1  0  0  0  0
 64 65  1  0  0  0  0
M  CHG  2  73   1  74   1
M  ISO  4  38 100  60 101  70 100  81 101
M  END
> <Batch ID>
0025

> <Smiles>
CNC(C)C(=O)NC(C(=O)N1Cc2cc([101O:1][101CH2:1]CCNCc3c(C)c(Cl)c([100NH:0][100C:0](=O)N4CCCC(n5nc(-c6ccc(Oc7ccc(F)cc7F)cc6)c(C(N)=O)c5N)C4)c(Cl)c3Cl)ccc2CC1C(=O)NC1CCCc2ccccc21)C(C)(C)C

> <Shape>
0.218

> <Color>
0.097

> <Negative vol penalty>
0.000

$$$$

  -OEChem-04052316243D

 82 90  0     1  0  0  0  0  0999 V2000
  -16.7073  -29.9916   23.3018 C   0  0  0  0  0  0  0  0  0  0  0  0
  -17.8009  -30.5851   22.6796 C   0  0  0  0  0  0  0  0  0  0  0  0
  -26.1272  -14.1271   21.8779 C   0  0  0  0  0  0  0  0  0  0  0  0
  -24.7825  -15.4457   20.3646 C   0  0  0  0  0  0  0  0  0  0  0  0
  -16.8869  -28.8559   24.0904 C   0  0  0  0  0  0  0  0  0  0  0  0
  -19.0751  -30.0438   22.8465 C   0  0  0  0  0  0  0  0  0  0  0  0
  -25.2649  -29.1552   19.3518 C   0  0  0  0  0  0  0  0  0  0  0  0
  -25.0925  -13.1982   21.9880 C   0  0  0  0  0  0  0  0  0  0  0  0
  -23.7477  -14.5168   20.4747 C   0  0  0  0  0  0  0  0  0  0  0  0
  -26.6316  -29.3828   19.5068 C   0  0  0  0  0  0  0  0  0  0  0  0
  -22.9416  -10.2945   22.3849 C   0  0  0  0  0  0  0  0  0  0  0  0
  -23.2734   -8.9419   22.3074 C   0  0  0  0  0  0  0  0  0  0  0  0
  -26.8106  -27.3722   20.8276 C   0  0  0  0  0  0  0  0  0  0  0  0
  -31.7458  -25.2505   18.0718 C   0  0  0  0  0  0  0  0  0  0  0  0
  -24.1666   -9.2881   20.0894 C   0  0  0  0  0  0  0  0  0  0  0  0
  -25.9722  -15.2509   21.0662 C   0  0  0  0  0  0  0  0  0  0  0  0
  -28.0909  -16.2070   20.0153 C   0  0  0  0  0  0  0  0  0  0  0  0
  -18.1626  -28.2947   24.2592 C   0  0  0  0  0  0  0  0  0  0  0  0
  -24.6578  -28.0382   19.9436 C   0  0  0  0  0  0  0  0  0  0  0  0
  -19.2722  -28.9003   23.6391 C   0  0  0  0  0  0  0  0  0  0  0  0
  -25.4365  -27.1312   20.6764 C   0  0  0  0  0  0  0  0  0  0  0  0
  -31.2802  -24.0836   17.4760 C   0  0  0  0  0  0  0  0  0  0  0  0
  -23.9028  -13.3930   21.2864 C   0  0  0  0  0  0  0  0  0  0  0  0
  -27.4042  -28.4929   20.2472 C   0  0  0  0  0  0  0  0  0  0  0  0
  -23.2223  -11.1439   21.3146 C   0  0  0  0  0  0  0  0  0  0  0  0
  -23.8859   -8.4387   21.1597 C   0  0  0  0  0  0  0  0  0  0  0  0
  -23.8348  -10.6407   20.1669 C   0  0  0  0  0  0  0  0  0  0  0  0
  -30.5382  -23.1761   18.2237 C   0  0  0  0  0  0  0  0  0  0  0  0
  -27.0405  -16.2110   20.9525 C   0  0  0  0  0  0  0  0  0  0  0  0
  -31.4447  -25.4613   19.4077 C   0  0  0  0  0  0  0  0  0  0  0  0
  -30.2913  -23.4797   19.5529 C   0  0  0  0  0  0  0  0  0  0  0  0
  -28.8322  -17.3208   20.3257 C   0  0  0  0  0  0  0  0  0  0  0  0
  -28.3714  -15.2795   18.9586 C   0  0  0  0  0  0  0  0  0  0  0  0
  -22.3894  -27.6132   22.1294 C   0  0  0  0  0  0  0  0  0  0  0  0
  -22.7486  -24.4900   21.3303 C   0  0  0  0  0  0  0  0  0  0  0  0
  -24.7431  -22.0412   20.0371 C   0  0  0  0  0  0  0  0  0  0  0  0
  -29.1932  -22.7083   21.6850 C   0  0  0  0  0  0  0  0  0  0  0  0
  -18.3141  -27.0941   25.1593 C   0  0  0  0  0  0  0  0  0  0  0  0
  -23.1873  -27.7925   19.7446 C   0  0  0  0  0  0  0  0  0  0  0  0
  -24.8366  -25.9061   21.3149 C   0  0  0  0  0  0  0  0  0  0  0  0
  -19.6426  -26.3634   24.9816 C   0  0  0  0  0  0  0  0  0  0  0  0
  -28.6275  -20.4012   24.3371 C   0  0  0  0  0  0  0  0  0  0  0  0
  -20.7993  -27.3575   24.9558 C   0  0  0  0  0  0  0  0  0  0  0  0
  -28.2506  -19.1050   23.6159 C   0  0  0  0  0  0  0  0  0  0  0  0
  -28.0702  -21.6308   23.6221 C   0  0  0  0  0  0  0  0  0  0  0  0
  -28.0254  -20.4264   21.4734 C   0  0  0  0  0  0  0  0  0  0  0  0
  -20.6664  -28.3281   23.7760 C   0  0  1  0  0  0  0  0  0  0  0  0
  -22.5797  -26.8987   20.8214 C   0  0  1  0  0  0  0  0  0  0  0  0
  -28.6192  -19.1645   22.1205 C   0  0  2  0  0  0  0  0  0  0  0  0
  -31.6001  -23.8471   16.0357 C   0  0  0  0  0  0  0  0  0  0  0  0
  -24.7749  -19.5801   19.5480 C   0  0  0  0  0  0  0  0  0  0  0  0
  -23.1659  -23.9085   24.2964 C   0  0  0  0  0  0  0  0  0  0  0  0
  -24.1145  -21.6820   23.6550 C   0  0  0  0  0  0  0  0  0  0  0  0
  -21.7475  -22.2355   23.0948 C   0  0  0  0  0  0  0  0  0  0  0  0
  -25.1098  -22.5043   17.1371 C   0  0  0  0  0  0  0  0  0  0  0  0
  -31.9337  -26.7157   20.0867 C   0  0  0  0  0  0  0  0  0  0  0  0
  -30.9542  -27.8877   19.9945 C   0  0  0  0  0  0  0  0  0  0  0  0
  -29.5728  -27.5655   20.5523 C   0  0  0  0  0  0  0  0  0  1  0  0
  -23.6185  -23.3555   21.8153 C   0  0  1  0  0  0  0  0  0  0  0  0
  -24.4740  -20.9662   18.9995 C   0  0  2  0  0  0  0  0  0  0  0  0
  -23.1729  -22.8194   23.2051 C   0  0  0  0  0  0  0  0  0  0  0  0
  -27.1053  -17.2453   21.7953 N   0  0  0  0  0  0  0  0  0  0  0  0
  -30.7269  -24.6029   20.1663 N   0  0  0  0  0  0  0  0  0  0  0  0
  -28.2054  -17.9015   21.3888 N   0  0  0  0  0  0  0  0  0  0  0  0
  -23.3935  -25.7129   21.0970 N   0  0  0  0  0  0  0  0  0  0  0  0
  -28.4632  -21.6217   22.2113 N   0  0  0  0  0  0  0  0  0  0  0  0
  -29.9527  -17.8504   19.7903 N   0  0  0  0  0  0  0  0  0  0  0  0
  -27.5075  -14.1906   18.7786 N   0  0  0  0  0  0  0  0  0  0  0  0
  -29.5390  -22.5735   20.3408 N   0  0  0  0  0  0  0  0  0  0  0  0
  -21.0735  -27.6856   22.5447 N   0  0  0  0  0  0  0  0  0  0  0  0
  -23.6086  -22.3520   20.7565 N   0  0  0  0  0  0  0  0  0  0  0  0
  -25.3198  -21.1879   17.7927 N   0  3  0  0  0  0  0  0  0  0  0  0
  -29.3680  -15.4034   18.2070 O   0  0  0  0  0  0  0  0  0  0  0  0
  -23.3645  -28.0641   22.7190 O   0  0  0  0  0  0  0  0  0  0  0  0
  -21.5427  -24.2962   21.1576 O   0  0  0  0  0  0  0  0  0  0  0  0
  -25.8499  -22.5514   20.1961 O   0  0  0  0  0  0  0  0  0  0  0  0
  -29.5134  -23.6740   22.3828 O   0  0  0  0  0  0  0  0  0  0  0  0
  -22.8930  -12.4867   21.3934 O   0  0  0  0  0  0  0  0  0  0  0  0
  -28.7383  -28.7131   20.4007 O   0  0  0  0  0  0  0  0  0  1  0  0
  -24.2059   -7.1401   21.0860 F   0  0  0  0  0  0  0  0  0  0  0  0
  -24.1080  -11.4521   19.1360 F   0  0  0  0  0  0  0  0  0  0  0  0
  -29.9487  -21.7209   17.5003 Cl  0  0  0  0  0  0  0  0  0  0  0  0
  1  2  1  0  0  0  0
  1  5  2  0  0  0  0
  2  6  2  0  0  0  0
  3  8  2  0  0  0  0
  3 16  1  0  0  0  0
  4  9  1  0  0  0  0
  4 16  2  0  0  0  0
  5 18  1  0  0  0  0
  6 20  1  0  0  0  0
  7 10  2  0  0  0  0
  7 19  1  0  0  0  0
  8 23  1  0  0  0  0
  9 23  2  0  0  0  0
 10 24  1  0  0  0  0
 11 12  2  0  0  0  0
 11 25  1  0  0  0  0
 12 26  1  0  0  0  0
 13 21  1  0  0  0  0
 13 24  2  0  0  0  0
 14 22  2  0  0  0  0
 14 30  1  0  0  0  0
 15 26  2  0  0  0  0
 15 27  1  0  0  0  0
 16 29  1  0  0  0  0
 17 29  1  0  0  0  0
 17 32  2  0  0  0  0
 17 33  1  0  0  0  0
 18 20  2  0  0  0  0
 18 38  1  0  0  0  0
 19 21  2  0  0  0  0
 19 39  1  0  0  0  0
 20 47  1  0  0  0  0
 21 40  1  0  0  0  0
 22 28  1  0  0  0  0
 22 50  1  0  0  0  0
 23 78  1  0  0  0  0
 24 79  1  0  0  0  0
 25 27  2  0  0  0  0
 25 78  1  0  0  0  0
 26 80  1  0  0  0  0
 27 81  1  0  0  0  0
 28 31  2  0  0  0  0
 28 82  1  0  0  0  0
 29 62  2  0  0  0  0
 30 56  1  0  0  0  0
 30 63  2  0  0  0  0
 31 63  1  0  0  0  0
 31 69  1  0  0  0  0
 32 64  1  0  0  0  0
 32 67  1  0  0  0  0
 33 68  1  0  0  0  0
 33 73  2  0  0  0  0
 34 48  1  0  0  0  0
 34 70  1  0  0  0  0
 34 74  2  0  0  0  0
 35 59  1  0  0  0  0
 35 65  1  0  0  0  0
 35 75  2  0  0  0  0
 36 60  1  0  0  0  0
 36 71  1  0  0  0  0
 36 76  2  0  0  0  0
 37 66  1  0  0  0  0
 37 69  1  0  0  0  0
 37 77  2  0  0  0  0
 38 41  1  0  0  0  0
 39 48  1  0  0  0  0
 40 65  1  0  0  0  0
 41 43  1  0  0  0  0
 42 44  1  0  0  0  0
 42 45  1  0  0  0  0
 43 47  1  0  0  0  0
 44 49  1  0  0  0  0
 45 66  1  0  0  0  0
 46 49  1  0  0  0  0
 46 66  1  0  0  0  0
 47 70  1  0  0  0  0
 48 65  1  0  0  0  0
 49 64  1  0  0  0  0
 51 60  1  0  0  0  0
 52 61  1  0  0  0  0
 53 61  1  0  0  0  0
 54 61  1  0  0  0  0
 55 72  1  0  0  0  0
 56 57  1  0  0  0  0
 57 58  1  0  0  0  0
 58 79  1  0  0  0  0
 59 61  1  0  0  0  0
 59 71  1  0  0  0  0
 60 72  1  0  0  0  0
 62 64  1  0  0  0  0
M  CHG  1  72   1
M  ISO  4  37 100  58 101  69 100  79 101
M  END
> <Batch ID>
0025

> <Smiles>
CNC(C)C(=O)NC(C(=O)N1Cc2cc([101O:1][101CH2:1]CCc3cc(C)c(Cl)c([100NH:0][100C:0](=O)N4CCCC(n5nc(-c6ccc(Oc7ccc(F)cc7F)cc6)c(C(N)=O)c5N)C4)n3)ccc2CC1C(=O)NC1CCCc2ccccc21)C(C)(C)C

> <Shape>
0.250

> <Color>
0.085

> <Negative vol penalty>
0.000

$$$$

  -OEChem-04052316243D

 95103  0     1  0  0  0  0  0999 V2000
  -25.6548  -37.8207   26.8621 C   0  0  0  0  0  0  0  0  0  0  0  0
  -25.1161  -36.6322   27.3445 C   0  0  0  0  0  0  0  0  0  0  0  0
  -24.4451  -12.8990   24.2626 C   0  0  0  0  0  0  0  0  0  0  0  0
  -23.9846  -15.0938   23.3639 C   0  0  0  0  0  0  0  0  0  0  0  0
  -25.7895  -38.0167   25.4883 C   0  0  0  0  0  0  0  0  0  0  0  0
  -24.7107  -35.6394   26.4532 C   0  0  0  0  0  0  0  0  0  0  0  0
  -25.0504  -29.5817   27.2868 C   0  0  0  0  0  0  0  0  0  0  0  0
  -23.9941  -13.3170   25.5146 C   0  0  0  0  0  0  0  0  0  0  0  0
  -23.5336  -15.5118   24.6158 C   0  0  0  0  0  0  0  0  0  0  0  0
  -24.1094  -28.6365   27.6929 C   0  0  0  0  0  0  0  0  0  0  0  0
  -21.9231  -17.0512   27.4890 C   0  0  0  0  0  0  0  0  0  0  0  0
  -20.7383  -17.7854   27.5403 C   0  0  0  0  0  0  0  0  0  0  0  0
  -23.6508  -28.1099   25.3839 C   0  0  0  0  0  0  0  0  0  0  0  0
  -28.2277  -20.5535   21.0156 C   0  0  0  0  0  0  0  0  0  0  0  0
  -19.5490  -15.9365   26.5383 C   0  0  0  0  0  0  0  0  0  0  0  0
  -24.4404  -13.7874   23.1872 C   0  0  0  0  0  0  0  0  0  0  0  0
  -24.1420  -12.7748   20.8649 C   0  0  0  0  0  0  0  0  0  0  0  0
  -25.3945  -37.0218   24.5800 C   0  0  0  0  0  0  0  0  0  0  0  0
  -25.2912  -29.8062   25.9237 C   0  0  0  0  0  0  0  0  0  0  0  0
  -24.8390  -35.8228   25.0659 C   0  0  0  0  0  0  0  0  0  0  0  0
  -24.5972  -29.0567   24.9631 C   0  0  0  0  0  0  0  0  0  0  0  0
  -27.4138  -21.2879   21.8781 C   0  0  0  0  0  0  0  0  0  0  0  0
  -26.3005  -21.9643   21.3795 C   0  0  0  0  0  0  0  0  0  0  0  0
  -27.9282  -20.4955   19.6544 C   0  0  0  0  0  0  0  0  0  0  0  0
  -23.5383  -14.6234   25.6912 C   0  0  0  0  0  0  0  0  0  0  0  0
  -23.4073  -27.9025   26.7414 C   0  0  0  0  0  0  0  0  0  0  0  0
  -21.9209  -15.7596   26.9622 C   0  0  0  0  0  0  0  0  0  0  0  0
  -19.5512  -17.2281   27.0650 C   0  0  0  0  0  0  0  0  0  0  0  0
  -20.7339  -15.2022   26.4869 C   0  0  0  0  0  0  0  0  0  0  0  0
  -26.0010  -21.9063   20.0184 C   0  0  0  0  0  0  0  0  0  0  0  0
  -26.8149  -21.1719   19.1559 C   0  0  0  0  0  0  0  0  0  0  0  0
  -24.9068  -13.3564   21.8939 C   0  0  0  0  0  0  0  0  0  0  0  0
  -25.0427  -12.5502   19.8526 C   0  0  0  0  0  0  0  0  0  0  0  0
  -22.7425  -12.4654   20.8275 C   0  0  0  0  0  0  0  0  0  0  0  0
  -24.9850  -32.2964   23.9721 C   0  0  0  0  0  0  0  0  0  0  0  0
  -26.4259  -30.3132   21.8478 C   0  0  0  0  0  0  0  0  0  0  0  0
  -27.1333  -27.1151   20.8893 C   0  0  0  0  0  0  0  0  0  0  0  0
  -30.2681  -15.0907   18.4061 C   0  0  0  0  0  0  0  0  0  0  0  0
  -25.5157  -37.2984   23.1024 C   0  0  0  0  0  0  0  0  0  0  0  0
  -26.3288  -30.8104   25.5025 C   0  0  0  0  0  0  0  0  0  0  0  0
  -24.8334  -29.2454   23.4877 C   0  0  0  0  0  0  0  0  0  0  0  0
  -25.4087  -36.0451   22.2374 C   0  0  0  0  0  0  0  0  0  0  0  0
  -29.6805  -11.6481   19.0990 C   0  0  0  0  0  0  0  0  0  0  0  0
  -24.2297  -35.1868   22.6847 C   0  0  0  0  0  0  0  0  0  0  0  0
  -28.3215  -11.6431   19.8010 C   0  0  0  0  0  0  0  0  0  0  0  0
  -30.5091  -12.8724   19.4820 C   0  0  0  0  0  0  0  0  0  0  0  0
  -28.4702  -14.1614   19.9874 C   0  0  0  0  0  0  0  0  0  0  0  0
  -24.4106  -34.7121   24.1316 C   0  0  1  0  0  0  0  0  0  0  0  0
  -26.1230  -31.3212   24.0797 C   0  0  1  0  0  0  0  0  0  0  0  0
  -27.5761  -12.9746   19.5894 C   0  0  2  0  0  0  0  0  0  0  0  0
  -27.7592  -21.3325   23.3310 C   0  0  0  0  0  0  0  0  0  0  0  0
  -28.2976  -25.8098   19.0899 C   0  0  0  0  0  0  0  0  0  0  0  0
  -24.1013  -30.8619   19.9491 C   0  0  0  0  0  0  0  0  0  0  0  0
  -24.8052  -28.8601   18.6203 C   0  0  0  0  0  0  0  0  0  0  0  0
  -26.3499  -30.8046   18.8560 C   0  0  0  0  0  0  0  0  0  0  0  0
  -19.2210  -25.2913   24.8093 C   0  0  0  0  0  0  0  0  0  0  0  0
  -19.0478  -23.4650   26.5263 C   0  0  0  0  0  0  0  0  0  0  0  0
  -29.0172  -25.9050   22.8248 C   0  0  0  0  0  0  0  0  0  0  0  0
  -25.4379  -22.7512   22.3337 C   0  0  0  0  0  0  0  0  0  0  0  0
  -24.4724  -21.8868   23.1527 C   0  0  0  0  0  0  0  0  0  0  0  0
  -23.5523  -22.7101   24.0596 C   0  0  0  0  0  0  0  0  0  0  0  0
  -22.6290  -21.8066   24.8792 C   0  0  0  0  0  0  0  0  0  0  0  0
  -30.6838  -18.3768   18.1486 C   0  0  0  0  0  0  0  0  0  0  0  0
  -20.8131  -25.3051   26.7606 C   0  0  0  0  0  0  0  0  0  0  0  0
  -29.9224  -19.0393   19.2962 C   0  0  0  0  0  0  0  0  0  0  0  0
  -29.8772  -17.3225   17.3936 C   0  0  0  0  0  0  0  0  0  0  0  0
  -21.7422  -22.6275   25.8037 C   0  0  0  0  0  0  0  0  0  0  0  0
  -21.8051  -26.2636   26.1067 C   0  0  0  0  0  0  0  0  0  1  0  0
  -25.9474  -29.2935   20.8426 C   0  0  1  0  0  0  0  0  0  0  0  0
  -28.4317  -26.4561   20.4599 C   0  0  2  0  0  0  0  0  0  0  0  0
  -25.2949  -29.9526   19.5947 C   0  0  0  0  0  0  0  0  0  0  0  0
  -19.9996  -24.4170   25.7990 C   0  0  0  0  0  0  0  0  0  0  0  0
  -26.1943  -13.4925   21.5654 N   0  0  0  0  0  0  0  0  0  0  0  0
  -26.2455  -12.9933   20.3188 N   0  0  0  0  0  0  0  0  0  0  0  0
  -25.8534  -30.2435   23.1257 N   0  0  0  0  0  0  0  0  0  0  0  0
  -29.7455  -14.1020   19.2560 N   0  0  0  0  0  0  0  0  0  0  0  0
  -24.9154  -12.0188   18.6182 N   0  0  0  0  0  0  0  0  0  0  0  0
  -21.9623  -12.7619   21.9534 N   0  0  0  0  0  0  0  0  0  0  0  0
  -28.7765  -19.7411   18.8118 N   0  0  0  0  0  0  0  0  0  0  0  0
  -25.3489  -33.6117   24.1890 N   0  0  0  0  0  0  0  0  0  0  0  0
  -27.0972  -28.4483   20.5395 N   0  0  0  0  0  0  0  0  0  0  0  0
  -29.4778  -16.2217   18.2417 N   0  0  0  0  0  0  0  0  0  0  0  0
  -28.8273  -25.4044   21.4390 N   0  3  0  0  0  0  0  0  0  0  0  0
  -20.9460  -23.5798   24.9935 N   0  3  0  0  0  0  0  0  0  0  0  0
  -22.2031  -11.9264   19.8314 O   0  0  0  0  0  0  0  0  0  0  0  0
  -23.8604  -31.8861   23.7102 O   0  0  0  0  0  0  0  0  0  0  0  0
  -27.2816  -31.1364   21.5135 O   0  0  0  0  0  0  0  0  0  0  0  0
  -26.2390  -26.5070   21.4731 O   0  0  0  0  0  0  0  0  0  0  0  0
  -31.3558  -14.9719   17.8320 O   0  0  0  0  0  0  0  0  0  0  0  0
  -23.0979  -15.0316   26.9127 O   0  0  0  0  0  0  0  0  0  0  0  0
  -22.4878  -26.9798   27.1350 O   0  0  0  0  0  0  0  0  0  1  0  0
  -18.4132  -17.9328   27.1158 F   0  0  0  0  0  0  0  0  0  0  0  0
  -20.7253  -13.9614   25.9808 F   0  0  0  0  0  0  0  0  0  0  0  0
  -24.6084  -22.7591   19.4266 Cl  0  0  0  0  0  0  0  0  0  0  0  0
  -26.4645  -21.0825   17.4559 Cl  0  0  0  0  0  0  0  0  0  0  0  0
  1  2  1  0  0  0  0
  1  5  2  0  0  0  0
  2  6  2  0  0  0  0
  3  8  2  0  0  0  0
  3 16  1  0  0  0  0
  4  9  1  0  0  0  0
  4 16  2  0  0  0  0
  5 18  1  0  0  0  0
  6 20  1  0  0  0  0
  7 10  2  0  0  0  0
  7 19  1  0  0  0  0
  8 25  1  0  0  0  0
  9 25  2  0  0  0  0
 10 26  1  0  0  0  0
 11 12  2  0  0  0  0
 11 27  1  0  0  0  0
 12 28  1  0  0  0  0
 13 21  1  0  0  0  0
 13 26  2  0  0  0  0
 14 22  2  0  0  0  0
 14 24  1  0  0  0  0
 15 28  2  0  0  0  0
 15 29  1  0  0  0  0
 16 32  1  0  0  0  0
 17 32  1  0  0  0  0
 17 33  2  0  0  0  0
 17 34  1  0  0  0  0
 18 20  2  0  0  0  0
 18 39  1  0  0  0  0
 19 21  2  0  0  0  0
 19 40  1  0  0  0  0
 20 48  1  0  0  0  0
 21 41  1  0  0  0  0
 22 23  1  0  0  0  0
 22 51  1  0  0  0  0
 23 30  2  0  0  0  0
 23 59  1  0  0  0  0
 24 31  2  0  0  0  0
 24 79  1  0  0  0  0
 25 90  1  0  0  0  0
 26 91  1  0  0  0  0
 27 29  2  0  0  0  0
 27 90  1  0  0  0  0
 28 92  1  0  0  0  0
 29 93  1  0  0  0  0
 30 31  1  0  0  0  0
 30 94  1  0  0  0  0
 31 95  1  0  0  0  0
 32 73  2  0  0  0  0
 33 74  1  0  0  0  0
 33 77  1  0  0  0  0
 34 78  1  0  0  0  0
 34 85  2  0  0  0  0
 35 49  1  0  0  0  0
 35 80  1  0  0  0  0
 35 86  2  0  0  0  0
 36 69  1  0  0  0  0
 36 75  1  0  0  0  0
 36 87  2  0  0  0  0
 37 70  1  0  0  0  0
 37 81  1  0  0  0  0
 37 88  2  0  0  0  0
 38 76  1  0  0  0  0
 38 82  1  0  0  0  0
 38 89  2  0  0  0  0
 39 42  1  0  0  0  0
 40 49  1  0  0  0  0
 41 75  1  0  0  0  0
 42 44  1  0  0  0  0
 43 45  1  0  0  0  0
 43 46  1  0  0  0  0
 44 48  1  0  0  0  0
 45 50  1  0  0  0  0
 46 76  1  0  0  0  0
 47 50  1  0  0  0  0
 47 76  1  0  0  0  0
 48 80  1  0  0  0  0
 49 75  1  0  0  0  0
 50 74  1  0  0  0  0
 52 70  1  0  0  0  0
 53 71  1  0  0  0  0
 54 71  1  0  0  0  0
 55 71  1  0  0  0  0
 56 72  1  0  0  0  0
 57 72  1  0  0  0  0
 58 83  1  0  0  0  0
 59 60  1  0  0  0  0
 60 61  1  0  0  0  0
 61 62  1  0  0  0  0
 62 67  1  0  0  0  0
 63 65  1  0  0  0  0
 63 66  1  0  0  0  0
 64 68  1  0  0  0  0
 64 72  1  0  0  0  0
 65 79  1  0  0  0  0
 66 82  1  0  0  0  0
 67 84  1  0  0  0  0
 68 91  1  0  0  0  0
 69 71  1  0  0  0  0
 69 81  1  0  0  0  0
 70 83  1  0  0  0  0
 72 84  1  0  0  0  0
 73 74  1  0  0  0  0
M  CHG  2  83   1  84   1
M  ISO  4  38 100  68 101  82 100  91 101
M  END
> <Batch ID>
0025

> <Smiles>
CNC(C)C(=O)NC(C(=O)N1Cc2cc([101O:1][101CH2:1]CC(C)(C)NCCCCCc3c(C)cc(NCCC[100NH:0][100C:0](=O)N4CCCC(n5nc(-c6ccc(Oc7ccc(F)cc7F)cc6)c(C(N)=O)c5N)C4)c(Cl)c3Cl)ccc2CC1C(=O)NC1CCCc2ccccc21)C(C)(C)C

> <Shape>
0.236

> <Color>
0.083

> <Negative vol penalty>
0.000

$$$$

  -OEChem-04052316243D

 86 94  0     1  0  0  0  0  0999 V2000
  -22.9828  -19.2042   13.3956 C   0  0  0  0  0  0  0  0  0  0  0  0
  -22.6817  -18.9990   14.7382 C   0  0  0  0  0  0  0  0  0  0  0  0
  -30.4782  -19.7209   18.9646 C   0  0  0  0  0  0  0  0  0  0  0  0
  -28.9982  -19.9472   20.8609 C   0  0  0  0  0  0  0  0  0  0  0  0
  -23.9212  -20.1693   13.0324 C   0  0  0  0  0  0  0  0  0  0  0  0
  -23.3198  -19.7581   15.7186 C   0  0  0  0  0  0  0  0  0  0  0  0
  -20.9212  -21.7104   21.0045 C   0  0  0  0  0  0  0  0  0  0  0  0
  -30.1460  -21.0110   18.5514 C   0  0  0  0  0  0  0  0  0  0  0  0
  -28.6661  -21.2374   20.4476 C   0  0  0  0  0  0  0  0  0  0  0  0
  -21.0011  -21.2219   22.3079 C   0  0  0  0  0  0  0  0  0  0  0  0
  -30.9683  -24.1830   19.3854 C   0  0  0  0  0  0  0  0  0  0  0  0
  -32.0073  -25.0231   18.9852 C   0  0  0  0  0  0  0  0  0  0  0  0
  -22.8023  -22.7594   22.7673 C   0  0  0  0  0  0  0  0  0  0  0  0
  -23.6112  -14.0067   23.9021 C   0  0  0  0  0  0  0  0  0  0  0  0
  -31.0039  -25.2215   16.7964 C   0  0  0  0  0  0  0  0  0  0  0  0
  -29.9042  -19.1889   20.1194 C   0  0  0  0  0  0  0  0  0  0  0  0
  -31.2944  -17.4826   21.4092 C   0  0  0  0  0  0  0  0  0  0  0  0
  -24.5640  -20.9473   14.0082 C   0  0  0  0  0  0  0  0  0  0  0  0
  -21.7900  -22.7211   20.5687 C   0  0  0  0  0  0  0  0  0  0  0  0
  -24.2687  -20.7336   15.3682 C   0  0  0  0  0  0  0  0  0  0  0  0
  -22.7297  -23.2607   21.4586 C   0  0  0  0  0  0  0  0  0  0  0  0
  -23.8702  -13.2266   22.7752 C   0  0  0  0  0  0  0  0  0  0  0  0
  -22.4475  -14.7730   23.9675 C   0  0  0  0  0  0  0  0  0  0  0  0
  -21.8019  -13.9792   21.7789 C   0  0  0  0  0  0  0  0  0  0  0  0
  -29.2400  -21.7693   19.2929 C   0  0  0  0  0  0  0  0  0  0  0  0
  -21.9436  -21.7444   23.1886 C   0  0  0  0  0  0  0  0  0  0  0  0
  -29.9471  -23.8620   18.4910 C   0  0  0  0  0  0  0  0  0  0  0  0
  -32.0251  -25.5424   17.6908 C   0  0  0  0  0  0  0  0  0  0  0  0
  -29.9649  -24.3813   17.1966 C   0  0  0  0  0  0  0  0  0  0  0  0
  -22.9656  -13.2129   21.7135 C   0  0  0  0  0  0  0  0  0  0  0  0
  -21.5428  -14.7593   22.9059 C   0  0  0  0  0  0  0  0  0  0  0  0
  -30.2465  -17.8561   20.5465 C   0  0  0  0  0  0  0  0  0  0  0  0
  -31.1963  -16.1155   21.4968 C   0  0  0  0  0  0  0  0  0  0  0  0
  -32.2693  -18.2986   22.0721 C   0  0  0  0  0  0  0  0  0  0  0  0
  -24.0271  -22.9412   18.3213 C   0  0  0  0  0  0  0  0  0  0  0  0
  -24.0739  -26.0571   19.2221 C   0  0  0  0  0  0  0  0  0  0  0  0
  -23.4550  -28.3831   21.6415 C   0  0  0  0  0  0  0  0  0  0  0  0
  -26.6429  -12.2985   20.7560 C   0  0  0  0  0  0  0  0  0  0  0  0
  -25.6060  -21.9458   13.5701 C   0  0  0  0  0  0  0  0  0  0  0  0
  -21.6732  -23.2558   19.1677 C   0  0  0  0  0  0  0  0  0  0  0  0
  -23.6720  -24.3609   21.0461 C   0  0  0  0  0  0  0  0  0  0  0  0
  -25.9621  -22.9669   14.6475 C   0  0  0  0  0  0  0  0  0  0  0  0
  -29.7431  -12.2983   19.0052 C   0  0  0  0  0  0  0  0  0  0  0  0
  -26.1910  -22.2725   15.9863 C   0  0  0  0  0  0  0  0  0  0  0  0
  -30.3183  -13.6889   19.2795 C   0  0  0  0  0  0  0  0  0  0  0  0
  -28.2245  -12.3362   18.8497 C   0  0  0  0  0  0  0  0  0  0  0  0
  -28.0784  -14.3651   20.2411 C   0  0  0  0  0  0  0  0  0  0  0  0
  -24.9215  -21.5541   16.4593 C   0  0  1  0  0  0  0  0  0  0  0  0
  -22.9514  -23.9283   18.6763 C   0  0  1  0  0  0  0  0  0  0  0  0
  -29.6009  -14.3693   20.4609 C   0  0  2  0  0  0  0  0  0  0  0  0
  -20.8583  -13.9359   20.6195 C   0  0  0  0  0  0  0  0  0  0  0  0
  -23.6295  -30.8444   22.0986 C   0  0  0  0  0  0  0  0  0  0  0  0
  -27.0855  -25.7676   19.6180 C   0  0  0  0  0  0  0  0  0  0  0  0
  -27.0447  -27.8900   20.9453 C   0  0  0  0  0  0  0  0  0  0  0  0
  -26.3759  -27.9109   18.5422 C   0  0  0  0  0  0  0  0  0  0  0  0
  -20.5327  -28.6349   22.0355 C   0  0  0  0  0  0  0  0  0  0  0  0
  -25.1152  -12.4079   22.7087 C   0  0  0  0  0  0  0  0  0  0  0  0
  -22.2105  -15.5970   25.1987 C   0  0  0  0  0  0  0  0  0  0  0  0
  -22.4520  -19.3621   25.8519 C   0  0  0  0  0  0  0  0  0  0  0  0
  -22.1644  -17.9009   26.1623 C   0  0  0  0  0  0  0  0  0  0  0  0
  -21.6592  -19.9052   24.6693 C   0  0  0  0  0  0  0  0  0  1  0  0
  -24.8337  -26.8618   20.2489 C   0  0  1  0  0  0  0  0  0  0  0  0
  -22.7383  -29.7204   21.5934 C   0  0  2  0  0  0  0  0  0  0  0  0
  -26.3186  -27.0855   19.8461 C   0  0  0  0  0  0  0  0  0  0  0  0
  -29.5351  -16.8106   20.1166 N   0  0  0  0  0  0  0  0  0  0  0  0
  -30.1370  -15.7667   20.7116 N   0  0  0  0  0  0  0  0  0  0  0  0
  -23.5229  -24.8459   19.6641 N   0  0  0  0  0  0  0  0  0  0  0  0
  -27.6051  -12.9924   20.0037 N   0  0  0  0  0  0  0  0  0  0  0  0
  -31.9137  -15.1896   22.1681 N   0  0  0  0  0  0  0  0  0  0  0  0
  -32.2270  -19.6853   21.8725 N   0  0  0  0  0  0  0  0  0  0  0  0
  -23.9793  -22.5039   17.0114 N   0  0  0  0  0  0  0  0  0  0  0  0
  -24.0758  -28.0928   20.4450 N   0  0  0  0  0  0  0  0  0  0  0  0
  -26.1105  -12.9908   21.8367 N   0  0  0  0  0  0  0  0  0  0  0  0
  -21.5095  -29.6802   22.4356 N   0  3  0  0  0  0  0  0  0  0  0  0
  -22.4506  -17.0507   24.9830 N   0  3  0  0  0  0  0  0  0  0  0  0
  -33.1620  -17.8110   22.8061 O   0  0  0  0  0  0  0  0  0  0  0  0
  -24.8411  -22.6026   19.1724 O   0  0  0  0  0  0  0  0  0  0  0  0
  -23.9670  -26.4907   18.0723 O   0  0  0  0  0  0  0  0  0  0  0  0
  -23.4664  -27.6691   22.6419 O   0  0  0  0  0  0  0  0  0  0  0  0
  -26.2888  -11.1455   20.4877 O   0  0  0  0  0  0  0  0  0  0  0  0
  -28.9158  -23.0284   18.8900 O   0  0  0  0  0  0  0  0  0  0  0  0
  -22.0242  -21.2690   24.4612 O   0  0  0  0  0  0  0  0  0  1  0  0
  -33.0221  -26.3505   17.3071 F   0  0  0  0  0  0  0  0  0  0  0  0
  -28.9860  -24.0775   16.3333 F   0  0  0  0  0  0  0  0  0  0  0  0
  -23.2154  -12.4615   20.6307 F   0  0  0  0  0  0  0  0  0  0  0  0
  -20.0981  -15.7109   22.9871 Cl  0  0  0  0  0  0  0  0  0  0  0  0
  1  2  1  0  0  0  0
  1  5  2  0  0  0  0
  2  6  2  0  0  0  0
  3  8  2  0  0  0  0
  3 16  1  0  0  0  0
  4  9  1  0  0  0  0
  4 16  2  0  0  0  0
  5 18  1  0  0  0  0
  6 20  1  0  0  0  0
  7 10  2  0  0  0  0
  7 19  1  0  0  0  0
  8 25  1  0  0  0  0
  9 25  2  0  0  0  0
 10 26  1  0  0  0  0
 11 12  2  0  0  0  0
 11 27  1  0  0  0  0
 12 28  1  0  0  0  0
 13 21  1  0  0  0  0
 13 26  2  0  0  0  0
 14 22  2  0  0  0  0
 14 23  1  0  0  0  0
 15 28  2  0  0  0  0
 15 29  1  0  0  0  0
 16 32  1  0  0  0  0
 17 32  1  0  0  0  0
 17 33  2  0  0  0  0
 17 34  1  0  0  0  0
 18 20  2  0  0  0  0
 18 39  1  0  0  0  0
 19 21  2  0  0  0  0
 19 40  1  0  0  0  0
 20 48  1  0  0  0  0
 21 41  1  0  0  0  0
 22 30  1  0  0  0  0
 22 57  1  0  0  0  0
 23 31  2  0  0  0  0
 23 58  1  0  0  0  0
 24 30  2  0  0  0  0
 24 31  1  0  0  0  0
 24 51  1  0  0  0  0
 25 81  1  0  0  0  0
 26 82  1  0  0  0  0
 27 29  2  0  0  0  0
 27 81  1  0  0  0  0
 28 83  1  0  0  0  0
 29 84  1  0  0  0  0
 30 85  1  0  0  0  0
 31 86  1  0  0  0  0
 32 65  2  0  0  0  0
 33 66  1  0  0  0  0
 33 69  1  0  0  0  0
 34 70  1  0  0  0  0
 34 76  2  0  0  0  0
 35 49  1  0  0  0  0
 35 71  1  0  0  0  0
 35 77  2  0  0  0  0
 36 62  1  0  0  0  0
 36 67  1  0  0  0  0
 36 78  2  0  0  0  0
 37 63  1  0  0  0  0
 37 72  1  0  0  0  0
 37 79  2  0  0  0  0
 38 68  1  0  0  0  0
 38 73  1  0  0  0  0
 38 80  2  0  0  0  0
 39 42  1  0  0  0  0
 40 49  1  0  0  0  0
 41 67  1  0  0  0  0
 42 44  1  0  0  0  0
 43 45  1  0  0  0  0
 43 46  1  0  0  0  0
 44 48  1  0  0  0  0
 45 50  1  0  0  0  0
 46 68  1  0  0  0  0
 47 50  1  0  0  0  0
 47 68  1  0  0  0  0
 48 71  1  0  0  0  0
 49 67  1  0  0  0  0
 50 66  1  0  0  0  0
 52 63  1  0  0  0  0
 53 64  1  0  0  0  0
 54 64  1  0  0  0  0
 55 64  1  0  0  0  0
 56 74  1  0  0  0  0
 57 73  1  0  0  0  0
 58 75  1  0  0  0  0
 59 60  1  0  0  0  0
 59 61  1  0  0  0  0
 60 75  1  0  0  0  0
 61 82  1  0  0  0  0
 62 64  1  0  0  0  0
 62 72  1  0  0  0  0
 63 74  1  0  0  0  0
 65 66  1  0  0  0  0
M  CHG  2  74   1  75   1
M  ISO  4  38 100  61 101  73 100  82 101
M  END
> <Batch ID>
0025

> <Smiles>
CNC(C)C(=O)NC(C(=O)N1Cc2cc([101O:1][101CH2:1]CCNCc3cc(C[100NH:0][100C:0](=O)N4CCCC(n5nc(-c6ccc(Oc7ccc(F)cc7F)cc6)c(C(N)=O)c5N)C4)c(F)c(C)c3Cl)ccc2CC1C(=O)NC1CCCc2ccccc21)C(C)(C)C

> <Shape>
0.215

> <Color>
0.070

> <Negative vol penalty>
0.000

$$$$

  -OEChem-04052316243D

 95103  0     1  0  0  0  0  0999 V2000
  -27.6627  -37.9862   24.0142 C   0  0  0  0  0  0  0  0  0  0  0  0
  -28.8243  -37.7141   23.2987 C   0  0  0  0  0  0  0  0  0  0  0  0
  -22.6794  -10.0825   20.1314 C   0  0  0  0  0  0  0  0  0  0  0  0
  -24.4098   -9.2939   21.6215 C   0  0  0  0  0  0  0  0  0  0  0  0
  -27.0430  -36.9742   24.7463 C   0  0  0  0  0  0  0  0  0  0  0  0
  -29.3676  -36.4300   23.3158 C   0  0  0  0  0  0  0  0  0  0  0  0
  -32.9843  -31.8428   19.1692 C   0  0  0  0  0  0  0  0  0  0  0  0
  -22.0059   -8.8691   20.2712 C   0  0  0  0  0  0  0  0  0  0  0  0
  -23.7363   -8.0804   21.7614 C   0  0  0  0  0  0  0  0  0  0  0  0
  -34.1290  -31.0470   19.1872 C   0  0  0  0  0  0  0  0  0  0  0  0
  -21.0857   -6.8891   23.4864 C   0  0  0  0  0  0  0  0  0  0  0  0
  -20.9583   -6.3649   24.7726 C   0  0  0  0  0  0  0  0  0  0  0  0
  -32.9284  -29.3586   20.4229 C   0  0  0  0  0  0  0  0  0  0  0  0
  -22.1617   -4.3859   24.0852 C   0  0  0  0  0  0  0  0  0  0  0  0
  -23.8814  -10.2949   20.8065 C   0  0  0  0  0  0  0  0  0  0  0  0
  -24.0976  -12.8302   20.9891 C   0  0  0  0  0  0  0  0  0  0  0  0
  -27.5737  -35.6747   24.7645 C   0  0  0  0  0  0  0  0  0  0  0  0
  -31.8043  -31.4064   19.7884 C   0  0  0  0  0  0  0  0  0  0  0  0
  -28.7553  -35.4000   24.0498 C   0  0  0  0  0  0  0  0  0  0  0  0
  -31.7694  -30.1496   20.4091 C   0  0  0  0  0  0  0  0  0  0  0  0
  -22.5343   -7.8681   21.0862 C   0  0  0  0  0  0  0  0  0  0  0  0
  -34.1020  -29.8060   19.8166 C   0  0  0  0  0  0  0  0  0  0  0  0
  -21.7510   -6.1618   22.4994 C   0  0  0  0  0  0  0  0  0  0  0  0
  -21.4963   -5.1133   25.0721 C   0  0  0  0  0  0  0  0  0  0  0  0
  -22.2890   -4.9102   22.7989 C   0  0  0  0  0  0  0  0  0  0  0  0
  -24.5779  -11.5480   20.6620 C   0  0  0  0  0  0  0  0  0  0  0  0
  -25.1307  -13.6762   20.6676 C   0  0  0  0  0  0  0  0  0  0  0  0
  -22.8308  -13.2215   21.5349 C   0  0  0  0  0  0  0  0  0  0  0  0
  -30.5961  -14.8715   20.8168 C   0  0  0  0  0  0  0  0  0  0  0  0
  -30.0054  -32.4647   22.1859 C   0  0  0  0  0  0  0  0  0  0  0  0
  -28.0425  -30.0528   21.2630 C   0  0  0  0  0  0  0  0  0  0  0  0
  -37.1909  -24.7185   18.4409 C   0  0  0  0  0  0  0  0  0  0  0  0
  -30.1572  -20.0135   22.3030 C   0  0  0  0  0  0  0  0  0  0  0  0
  -27.6920  -27.0405   19.6978 C   0  0  0  0  0  0  0  0  0  0  0  0
  -26.8948  -34.6252   25.6085 C   0  0  0  0  0  0  0  0  0  0  0  0
  -30.5704  -32.2651   19.7371 C   0  0  0  0  0  0  0  0  0  0  0  0
  -30.5217  -29.6263   21.0709 C   0  0  0  0  0  0  0  0  0  0  0  0
  -27.3262  -33.2001   25.2718 C   0  0  0  0  0  0  0  0  0  0  0  0
  -29.3930  -12.8524   18.0877 C   0  0  0  0  0  0  0  0  0  0  0  0
  -28.8447  -33.1157   25.1543 C   0  0  0  0  0  0  0  0  0  0  0  0
  -28.0076  -12.4108   18.5577 C   0  0  0  0  0  0  0  0  0  0  0  0
  -30.6930  -17.0229   22.3402 C   0  0  0  0  0  0  0  0  0  0  0  0
  -28.7537  -16.6028   21.5700 C   0  0  0  0  0  0  0  0  0  0  0  0
  -30.3723  -12.9534   19.2530 C   0  0  0  0  0  0  0  0  0  0  0  0
  -28.5193  -13.4047   20.8326 C   0  0  0  0  0  0  0  0  0  0  0  0
  -29.3613  -34.0136   24.0236 C   0  0  1  0  0  0  0  0  0  0  0  0
  -29.9707  -15.7120   21.9328 C   0  0  0  0  0  0  0  0  0  0  0  0
  -29.5721  -31.9435   20.8449 C   0  0  1  0  0  0  0  0  0  0  0  0
  -27.4934  -13.3187   19.6889 C   0  0  2  0  0  0  0  0  0  0  0  0
  -29.2999  -17.6481   22.5658 C   0  0  0  0  0  0  0  0  0  0  0  0
  -25.9733  -25.3003   19.1367 C   0  0  0  0  0  0  0  0  0  0  0  0
  -29.8974  -22.7244   24.0425 C   0  0  0  0  0  0  0  0  0  0  0  0
  -28.1765  -23.3123   22.3200 C   0  0  0  0  0  0  0  0  0  0  0  0
  -28.0982  -29.0700   24.1511 C   0  0  0  0  0  0  0  0  0  0  0  0
  -27.1903  -26.8787   23.3496 C   0  0  0  0  0  0  0  0  0  0  0  0
  -25.8523  -28.9635   23.0561 C   0  0  0  0  0  0  0  0  0  0  0  0
  -27.9041  -19.3854   21.5042 C   0  0  0  0  0  0  0  0  0  0  0  0
  -38.1795  -22.5229   17.7012 C   0  0  0  0  0  0  0  0  0  0  0  0
  -28.1182  -27.3904   16.7901 C   0  0  0  0  0  0  0  0  0  0  0  0
  -36.0465  -25.4174   19.1633 C   0  0  0  0  0  0  0  0  0  0  0  0
  -36.2037  -26.9363   19.1814 C   0  0  0  0  0  0  0  0  0  0  0  0
  -33.0449  -22.2958   19.6833 C   0  0  0  0  0  0  0  0  0  0  0  0
  -33.7384  -21.5801   18.5208 C   0  0  0  0  0  0  0  0  0  0  0  0
  -31.8268  -21.5053   20.1691 C   0  0  0  0  0  0  0  0  0  0  0  0
  -34.9239  -22.3613   17.9494 C   0  0  0  0  0  0  0  0  0  0  0  0
  -31.0819  -22.1734   21.3357 C   0  0  0  0  0  0  0  0  0  0  0  0
  -36.0560  -22.5608   18.9501 C   0  0  0  0  0  0  0  0  0  0  0  0
  -35.0264  -27.6153   19.8664 C   0  0  0  0  0  0  0  0  0  1  0  0
  -27.9008  -28.5931   21.6213 C   0  0  1  0  0  0  0  0  0  0  0  0
  -29.8118  -21.4269   21.8013 C   0  0  2  0  0  0  0  0  0  0  0  0
  -26.6938  -26.5530   18.6632 C   0  0  2  0  0  0  0  0  0  0  0  0
  -29.0197  -22.1779   22.9121 C   0  0  0  0  0  0  0  0  0  0  0  0
  -27.2846  -28.3868   23.0338 C   0  0  0  0  0  0  0  0  0  0  0  0
  -25.8195  -11.5724   20.1703 N   0  0  0  0  0  0  0  0  0  0  0  0
  -26.1281  -12.8803   20.1859 N   0  0  0  0  0  0  0  0  0  0  0  0
  -29.8374  -13.7997   20.3210 N   0  0  0  0  0  0  0  0  0  0  0  0
  -29.3430  -30.5055   20.9994 N   0  0  0  0  0  0  0  0  0  0  0  0
  -25.2742  -15.0158   20.7527 N   0  0  0  0  0  0  0  0  0  0  0  0
  -22.6940  -13.2831   22.9284 N   0  0  0  0  0  0  0  0  0  0  0  0
  -29.1374  -33.3871   22.7383 N   0  0  0  0  0  0  0  0  0  0  0  0
  -27.1365  -27.9798   20.5405 N   0  0  0  0  0  0  0  0  0  0  0  0
  -29.1755  -19.0287   22.1269 N   0  0  0  0  0  0  0  0  0  0  0  0
  -37.1360  -23.3122   18.3709 N   0  0  0  0  0  0  0  0  0  0  0  0
  -27.3871  -26.2404   17.3815 N   0  3  0  0  0  0  0  0  0  0  0  0
  -21.8445  -13.4922   20.8086 O   0  0  0  0  0  0  0  0  0  0  0  0
  -31.7260  -15.1444   20.3840 O   0  0  0  0  0  0  0  0  0  0  0  0
  -31.0493  -32.0589   22.6833 O   0  0  0  0  0  0  0  0  0  0  0  0
  -27.0355  -30.7634   21.2117 O   0  0  0  0  0  0  0  0  0  0  0  0
  -38.1125  -25.3742   17.9478 O   0  0  0  0  0  0  0  0  0  0  0  0
  -31.2394  -19.7991   22.8569 O   0  0  0  0  0  0  0  0  0  0  0  0
  -28.8478  -26.6264   19.7551 O   0  0  0  0  0  0  0  0  0  0  0  0
  -21.8773   -6.6840   21.2231 O   0  0  0  0  0  0  0  0  0  0  0  0
  -35.2262  -29.0218   19.8363 O   0  0  0  0  0  0  0  0  0  1  0  0
  -21.3752   -4.6106   26.3077 F   0  0  0  0  0  0  0  0  0  0  0  0
  -22.9303   -4.2072   21.8552 F   0  0  0  0  0  0  0  0  0  0  0  0
  1  2  1  0  0  0  0
  1  5  2  0  0  0  0
  2  6  2  0  0  0  0
  3  8  2  0  0  0  0
  3 15  1  0  0  0  0
  4  9  1  0  0  0  0
  4 15  2  0  0  0  0
  5 17  1  0  0  0  0
  6 19  1  0  0  0  0
  7 10  2  0  0  0  0
  7 18  1  0  0  0  0
  8 21  1  0  0  0  0
  9 21  2  0  0  0  0
 10 22  1  0  0  0  0
 11 12  2  0  0  0  0
 11 23  1  0  0  0  0
 12 24  1  0  0  0  0
 13 20  1  0  0  0  0
 13 22  2  0  0  0  0
 14 24  2  0  0  0  0
 14 25  1  0  0  0  0
 15 26  1  0  0  0  0
 16 26  1  0  0  0  0
 16 27  2  0  0  0  0
 16 28  1  0  0  0  0
 17 19  2  0  0  0  0
 17 35  1  0  0  0  0
 18 20  2  0  0  0  0
 18 36  1  0  0  0  0
 19 46  1  0  0  0  0
 20 37  1  0  0  0  0
 21 92  1  0  0  0  0
 22 93  1  0  0  0  0
 23 25  2  0  0  0  0
 23 92  1  0  0  0  0
 24 94  1  0  0  0  0
 25 95  1  0  0  0  0
 26 74  2  0  0  0  0
 27 75  1  0  0  0  0
 27 78  1  0  0  0  0
 28 79  1  0  0  0  0
 28 85  2  0  0  0  0
 29 47  1  0  0  0  0
 29 76  1  0  0  0  0
 29 86  2  0  0  0  0
 30 48  1  0  0  0  0
 30 80  1  0  0  0  0
 30 87  2  0  0  0  0
 31 69  1  0  0  0  0
 31 77  1  0  0  0  0
 31 88  2  0  0  0  0
 32 60  1  0  0  0  0
 32 83  1  0  0  0  0
 32 89  2  0  0  0  0
 33 70  1  0  0  0  0
 33 82  1  0  0  0  0
 33 90  2  0  0  0  0
 34 71  1  0  0  0  0
 34 81  1  0  0  0  0
 34 91  2  0  0  0  0
 35 38  1  0  0  0  0
 36 48  1  0  0  0  0
 37 77  1  0  0  0  0
 38 40  1  0  0  0  0
 39 41  1  0  0  0  0
 39 44  1  0  0  0  0
 40 46  1  0  0  0  0
 41 49  1  0  0  0  0
 42 47  1  0  0  0  0
 42 50  1  0  0  0  0
 43 47  1  0  0  0  0
 43 50  1  0  0  0  0
 44 76  1  0  0  0  0
 45 49  1  0  0  0  0
 45 76  1  0  0  0  0
 46 80  1  0  0  0  0
 48 77  1  0  0  0  0
 49 75  1  0  0  0  0
 50 82  1  0  0  0  0
 51 71  1  0  0  0  0
 52 72  1  0  0  0  0
 53 72  1  0  0  0  0
 54 73  1  0  0  0  0
 55 73  1  0  0  0  0
 56 73  1  0  0  0  0
 57 82  1  0  0  0  0
 58 83  1  0  0  0  0
 59 84  1  0  0  0  0
 60 61  1  0  0  0  0
 61 68  1  0  0  0  0
 62 63  1  0  0  0  0
 62 64  1  0  0  0  0
 63 65  1  0  0  0  0
 64 66  1  0  0  0  0
 65 67  1  0  0  0  0
 66 70  1  0  0  0  0
 67 83  1  0  0  0  0
 68 93  1  0  0  0  0
 69 73  1  0  0  0  0
 69 81  1  0  0  0  0
 70 72  1  0  0  0  0
 71 84  1  0  0  0  0
 74 75  1  0  0  0  0
M  CHG  1  84   1
M  ISO  4  29 100  47 100  68 101  93 101
M  END
> <Batch ID>
0025

> <Smiles>
CNC(C)C(=O)NC(C(=O)N1Cc2cc([101O:1][101CH2:1]CCC(=O)N(C)CCCCCCC(C(=O)N(C)C3C[100CH:0]([100C:0](=O)N4CCCC(n5nc(-c6ccc(Oc7ccc(F)cc7F)cc6)c(C(N)=O)c5N)C4)C3)C(C)C)ccc2CC1C(=O)NC1CCCc2ccccc21)C(C)(C)C

> <Shape>
0.288

> <Color>
0.188

> <Negative vol penalty>
0.000

$$$$

  -OEChem-04052316243D

 85 93  0     1  0  0  0  0  0999 V2000
  -17.7219  -31.1558   21.2695 C   0  0  0  0  0  0  0  0  0  0  0  0
  -19.0898  -31.4094   21.2644 C   0  0  0  0  0  0  0  0  0  0  0  0
  -25.7991  -14.8594   21.6310 C   0  0  0  0  0  0  0  0  0  0  0  0
  -24.8598  -16.3458   19.9742 C   0  0  0  0  0  0  0  0  0  0  0  0
  -17.2456  -29.9159   21.6935 C   0  0  0  0  0  0  0  0  0  0  0  0
  -19.9821  -30.4236   21.6845 C   0  0  0  0  0  0  0  0  0  0  0  0
  -25.5951  -29.3570   19.4795 C   0  0  0  0  0  0  0  0  0  0  0  0
  -24.6007  -14.1468   21.6711 C   0  0  0  0  0  0  0  0  0  0  0  0
  -23.6614  -15.6332   20.0142 C   0  0  0  0  0  0  0  0  0  0  0  0
  -26.8638  -29.7240   19.9263 C   0  0  0  0  0  0  0  0  0  0  0  0
  -21.9102  -11.7175   21.9447 C   0  0  0  0  0  0  0  0  0  0  0  0
  -21.9830  -10.3247   21.9288 C   0  0  0  0  0  0  0  0  0  0  0  0
  -27.0876  -27.5885   21.0258 C   0  0  0  0  0  0  0  0  0  0  0  0
  -31.4622  -25.8174   19.1519 C   0  0  0  0  0  0  0  0  0  0  0  0
  -23.1053  -10.4080   19.7908 C   0  0  0  0  0  0  0  0  0  0  0  0
  -25.9287  -15.9590   20.7826 C   0  0  0  0  0  0  0  0  0  0  0  0
  -28.2700  -16.4569   19.9007 C   0  0  0  0  0  0  0  0  0  0  0  0
  -18.1330  -28.9111   22.1098 C   0  0  0  0  0  0  0  0  0  0  0  0
  -25.0578  -28.1052   19.8122 C   0  0  0  0  0  0  0  0  0  0  0  0
  -19.5171  -29.1696   22.1158 C   0  0  0  0  0  0  0  0  0  0  0  0
  -25.8129  -27.2071   20.5798 C   0  0  0  0  0  0  0  0  0  0  0  0
  -31.1755  -24.4950   18.8131 C   0  0  0  0  0  0  0  0  0  0  0  0
  -29.6965  -25.2637   17.0641 C   0  0  0  0  0  0  0  0  0  0  0  0
  -23.5319  -14.5337   20.8627 C   0  0  0  0  0  0  0  0  0  0  0  0
  -27.6090  -28.8408   20.7020 C   0  0  0  0  0  0  0  0  0  0  0  0
  -22.4348  -12.4556   20.8837 C   0  0  0  0  0  0  0  0  0  0  0  0
  -30.8659  -26.8629   18.4468 C   0  0  0  0  0  0  0  0  0  0  0  0
  -22.5806   -9.6699   20.8518 C   0  0  0  0  0  0  0  0  0  0  0  0
  -23.0324  -11.8008   19.8068 C   0  0  0  0  0  0  0  0  0  0  0  0
  -30.2928  -24.2181   17.7692 C   0  0  0  0  0  0  0  0  0  0  0  0
  -29.9831  -26.5861   17.4030 C   0  0  0  0  0  0  0  0  0  0  0  0
  -27.1662  -16.6958   20.7411 C   0  0  0  0  0  0  0  0  0  0  0  0
  -29.1822  -17.4230   20.2491 C   0  0  0  0  0  0  0  0  0  0  0  0
  -28.4544  -15.4518   18.8951 C   0  0  0  0  0  0  0  0  0  0  0  0
  -22.5157  -27.1175   21.4448 C   0  0  0  0  0  0  0  0  0  0  0  0
  -23.4595  -24.1980   20.3924 C   0  0  0  0  0  0  0  0  0  0  0  0
  -25.9868  -22.2053   19.2571 C   0  0  0  0  0  0  0  0  0  0  0  0
  -30.4228  -22.7151   21.5136 C   0  0  0  0  0  0  0  0  0  0  0  0
  -17.5682  -27.6030   22.6044 C   0  0  0  0  0  0  0  0  0  0  0  0
  -23.6988  -27.7140   19.3000 C   0  0  0  0  0  0  0  0  0  0  0  0
  -25.2898  -25.8434   20.9475 C   0  0  0  0  0  0  0  0  0  0  0  0
  -18.6022  -26.4825   22.6790 C   0  0  0  0  0  0  0  0  0  0  0  0
  -29.2436  -20.6378   24.1539 C   0  0  0  0  0  0  0  0  0  0  0  0
  -19.8804  -26.9792   23.3470 C   0  0  0  0  0  0  0  0  0  0  0  0
  -28.6838  -19.4109   23.4318 C   0  0  0  0  0  0  0  0  0  0  0  0
  -28.9852  -21.9216   23.3684 C   0  0  0  0  0  0  0  0  0  0  0  0
  -28.8925  -20.6697   21.2476 C   0  0  0  0  0  0  0  0  0  0  0  0
  -20.5180  -28.1171   22.5407 C   0  0  1  0  0  0  0  0  0  0  0  0
  -23.0410  -26.6157   20.1296 C   0  0  1  0  0  0  0  0  0  0  0  0
  -29.1779  -19.3442   21.9742 C   0  0  2  0  0  0  0  0  0  0  0  0
  -28.7523  -24.9678   15.9480 C   0  0  0  0  0  0  0  0  0  0  0  0
  -27.0957  -20.1615   18.3132 C   0  0  0  0  0  0  0  0  0  0  0  0
  -23.4109  -23.2728   23.2995 C   0  0  0  0  0  0  0  0  0  0  0  0
  -24.7705  -21.2844   22.6166 C   0  0  0  0  0  0  0  0  0  0  0  0
  -22.4899  -21.6207   21.6634 C   0  0  0  0  0  0  0  0  0  0  0  0
  -25.5135  -23.0922   16.4735 C   0  0  0  0  0  0  0  0  0  0  0  0
  -31.8148  -23.3797   19.5695 C   0  0  0  0  0  0  0  0  0  0  0  0
  -31.0824  -29.8444   20.5024 C   0  0  0  0  0  0  0  0  0  0  0  0
  -29.5937  -30.0939   20.3189 C   0  0  0  0  0  0  0  0  0  1  0  0
  -31.4690  -28.4187   20.1414 C   0  0  0  0  0  0  0  0  0  0  0  0
  -24.3810  -23.1209   20.9117 C   0  0  1  0  0  0  0  0  0  0  0  0
  -26.0681  -21.2570   18.0745 C   0  0  2  0  0  0  0  0  0  0  0  0
  -23.7724  -22.3511   22.1177 C   0  0  0  0  0  0  0  0  0  0  0  0
  -27.3576  -17.7322   21.5617 N   0  0  0  0  0  0  0  0  0  0  0  0
  -28.5923  -18.1530   21.2386 N   0  0  0  0  0  0  0  0  0  0  0  0
  -23.9532  -25.5098   20.4281 N   0  0  0  0  0  0  0  0  0  0  0  0
  -29.4788  -21.7932   21.9952 N   0  0  0  0  0  0  0  0  0  0  0  0
  -30.4232  -17.7105   19.8025 N   0  0  0  0  0  0  0  0  0  0  0  0
  -27.4165  -14.5384   18.6651 N   0  0  0  0  0  0  0  0  0  0  0  0
  -21.2182  -27.5898   21.3891 N   0  0  0  0  0  0  0  0  0  0  0  0
  -24.7079  -22.2768   19.7675 N   0  0  0  0  0  0  0  0  0  0  0  0
  -30.8426  -22.5177   20.2039 N   0  0  0  0  0  0  0  0  0  0  0  0
  -26.4508  -21.9996   16.8404 N   0  3  0  0  0  0  0  0  0  0  0  0
  -29.5148  -15.3559   18.2317 O   0  0  0  0  0  0  0  0  0  0  0  0
  -23.2337  -27.0777   22.4370 O   0  0  0  0  0  0  0  0  0  0  0  0
  -22.3456  -23.8860   19.9640 O   0  0  0  0  0  0  0  0  0  0  0  0
  -26.9613  -22.8183   19.6876 O   0  0  0  0  0  0  0  0  0  0  0  0
  -30.8632  -23.6422   22.2019 O   0  0  0  0  0  0  0  0  0  0  0  0
  -22.3624  -13.8384   20.9014 O   0  0  0  0  0  0  0  0  0  0  0  0
  -28.8473  -29.1967   21.1400 O   0  0  0  0  0  0  0  0  0  1  0  0
  -31.1487  -28.1618   18.7808 O   0  0  0  0  0  0  0  0  0  0  0  0
  -22.6519   -8.3324   20.8374 F   0  0  0  0  0  0  0  0  0  0  0  0
  -23.5392  -12.5046   18.7852 F   0  0  0  0  0  0  0  0  0  0  0  0
  -30.0172  -22.9464   17.4436 F   0  0  0  0  0  0  0  0  0  0  0  0
  -29.4115  -27.5937   16.7273 F   0  0  0  0  0  0  0  0  0  0  0  0
  1  2  1  0  0  0  0
  1  5  2  0  0  0  0
  2  6  2  0  0  0  0
  3  8  2  0  0  0  0
  3 16  1  0  0  0  0
  4  9  1  0  0  0  0
  4 16  2  0  0  0  0
  5 18  1  0  0  0  0
  6 20  1  0  0  0  0
  7 10  2  0  0  0  0
  7 19  1  0  0  0  0
  8 24  1  0  0  0  0
  9 24  2  0  0  0  0
 10 25  1  0  0  0  0
 11 12  2  0  0  0  0
 11 26  1  0  0  0  0
 12 28  1  0  0  0  0
 13 21  1  0  0  0  0
 13 25  2  0  0  0  0
 14 22  2  0  0  0  0
 14 27  1  0  0  0  0
 15 28  2  0  0  0  0
 15 29  1  0  0  0  0
 16 32  1  0  0  0  0
 17 32  1  0  0  0  0
 17 33  2  0  0  0  0
 17 34  1  0  0  0  0
 18 20  2  0  0  0  0
 18 39  1  0  0  0  0
 19 21  2  0  0  0  0
 19 40  1  0  0  0  0
 20 48  1  0  0  0  0
 21 41  1  0  0  0  0
 22 30  1  0  0  0  0
 22 57  1  0  0  0  0
 23 30  2  0  0  0  0
 23 31  1  0  0  0  0
 23 51  1  0  0  0  0
 24 79  1  0  0  0  0
 25 80  1  0  0  0  0
 26 29  2  0  0  0  0
 26 79  1  0  0  0  0
 27 31  2  0  0  0  0
 27 81  1  0  0  0  0
 28 82  1  0  0  0  0
 29 83  1  0  0  0  0
 30 84  1  0  0  0  0
 31 85  1  0  0  0  0
 32 64  2  0  0  0  0
 33 65  1  0  0  0  0
 33 68  1  0  0  0  0
 34 69  1  0  0  0  0
 34 74  2  0  0  0  0
 35 49  1  0  0  0  0
 35 70  1  0  0  0  0
 35 75  2  0  0  0  0
 36 61  1  0  0  0  0
 36 66  1  0  0  0  0
 36 76  2  0  0  0  0
 37 62  1  0  0  0  0
 37 71  1  0  0  0  0
 37 77  2  0  0  0  0
 38 67  1  0  0  0  0
 38 72  1  0  0  0  0
 38 78  2  0  0  0  0
 39 42  1  0  0  0  0
 40 49  1  0  0  0  0
 41 66  1  0  0  0  0
 42 44  1  0  0  0  0
 43 45  1  0  0  0  0
 43 46  1  0  0  0  0
 44 48  1  0  0  0  0
 45 50  1  0  0  0  0
 46 67  1  0  0  0  0
 47 50  1  0  0  0  0
 47 67  1  0  0  0  0
 48 70  1  0  0  0  0
 49 66  1  0  0  0  0
 50 65  1  0  0  0  0
 52 62  1  0  0  0  0
 53 63  1  0  0  0  0
 54 63  1  0  0  0  0
 55 63  1  0  0  0  0
 56 73  1  0  0  0  0
 57 72  1  0  0  0  0
 58 59  1  0  0  0  0
 58 60  1  0  0  0  0
 59 80  1  0  0  0  0
 60 81  1  0  0  0  0
 61 63  1  0  0  0  0
 61 71  1  0  0  0  0
 62 73  1  0  0  0  0
 64 65  1  0  0  0  0
M  CHG  1  73   1
M  ISO  4  38 100  59 101  72 100  80 101
M  END
> <Batch ID>
0025

> <Smiles>
CNC(C)C(=O)NC(C(=O)N1Cc2cc([101O:1][101CH2:1]CCOc3cc(C[100NH:0][100C:0](=O)N4CCCC(n5nc(-c6ccc(Oc7ccc(F)cc7F)cc6)c(C(N)=O)c5N)C4)c(F)c(C)c3F)ccc2CC1C(=O)NC1CCCc2ccccc21)C(C)(C)C

> <Shape>
0.240

> <Color>
0.065

> <Negative vol penalty>
0.000

$$$$

  -OEChem-04052316243D

 89 97  0     1  0  0  0  0  0999 V2000
  -22.0361   -8.3675   20.9926 C   0  0  0  0  0  0  0  0  0  0  0  0
  -21.8820   -9.6643   21.4722 C   0  0  0  0  0  0  0  0  0  0  0  0
  -29.7129  -26.3612   19.4281 C   0  0  0  0  0  0  0  0  0  0  0  0
  -29.2187  -25.7855   21.7219 C   0  0  0  0  0  0  0  0  0  0  0  0
  -23.3099   -7.8781   20.7066 C   0  0  0  0  0  0  0  0  0  0  0  0
  -23.0018  -10.4721   21.6671 C   0  0  0  0  0  0  0  0  0  0  0  0
  -22.3358  -15.1736   19.9073 C   0  0  0  0  0  0  0  0  0  0  0  0
  -31.0389  -25.9714   19.6159 C   0  0  0  0  0  0  0  0  0  0  0  0
  -30.5448  -25.3957   21.9097 C   0  0  0  0  0  0  0  0  0  0  0  0
  -21.5798  -16.0453   20.6899 C   0  0  0  0  0  0  0  0  0  0  0  0
  -32.4793  -22.7210   21.1858 C   0  0  0  0  0  0  0  0  0  0  0  0
  -32.7114  -21.5187   21.8538 C   0  0  0  0  0  0  0  0  0  0  0  0
  -23.6096  -17.0434   21.5283 C   0  0  0  0  0  0  0  0  0  0  0  0
  -18.5571  -25.9327   22.0766 C   0  0  0  0  0  0  0  0  0  0  0  0
  -33.9457  -22.7045   23.5590 C   0  0  0  0  0  0  0  0  0  0  0  0
  -20.4767  -26.3720   24.0526 C   0  0  0  0  0  0  0  0  0  0  0  0
  -28.8028  -26.2683   20.4811 C   0  0  0  0  0  0  0  0  0  0  0  0
  -26.3627  -25.8657   19.8553 C   0  0  0  0  0  0  0  0  0  0  0  0
  -24.4450   -8.6835   20.8889 C   0  0  0  0  0  0  0  0  0  0  0  0
  -23.7369  -15.2232   19.9377 C   0  0  0  0  0  0  0  0  0  0  0  0
  -24.2921   -9.9925   21.3845 C   0  0  0  0  0  0  0  0  0  0  0  0
  -24.3810  -16.1731   20.7432 C   0  0  0  0  0  0  0  0  0  0  0  0
  -19.0573  -27.2172   22.2897 C   0  0  0  0  0  0  0  0  0  0  0  0
  -19.0166  -24.8678   22.8516 C   0  0  0  0  0  0  0  0  0  0  0  0
  -31.4549  -25.4886   20.8567 C   0  0  0  0  0  0  0  0  0  0  0  0
  -22.2167  -16.9784   21.5028 C   0  0  0  0  0  0  0  0  0  0  0  0
  -32.9805  -23.9150   21.7043 C   0  0  0  0  0  0  0  0  0  0  0  0
  -33.4445  -21.5105   23.0405 C   0  0  0  0  0  0  0  0  0  0  0  0
  -33.7137  -23.9067   22.8909 C   0  0  0  0  0  0  0  0  0  0  0  0
  -20.0172  -27.4368   23.2776 C   0  0  0  0  0  0  0  0  0  0  0  0
  -19.9764  -25.0875   23.8396 C   0  0  0  0  0  0  0  0  0  0  0  0
  -27.4330  -26.6714   20.2879 C   0  0  0  0  0  0  0  0  0  0  0  0
  -25.2815  -26.7124   19.8357 C   0  0  0  0  0  0  0  0  0  0  0  0
  -26.3473  -24.4760   19.5027 C   0  0  0  0  0  0  0  0  0  0  0  0
  -26.0357  -13.1915   20.7692 C   0  0  0  0  0  0  0  0  0  0  0  0
  -27.9752  -15.5192   19.6105 C   0  0  0  0  0  0  0  0  0  0  0  0
  -28.4161  -18.8219   18.8724 C   0  0  0  0  0  0  0  0  0  0  0  0
  -22.1631  -30.6159   22.1087 C   0  0  0  0  0  0  0  0  0  0  0  0
  -25.8053   -8.0945   20.6108 C   0  0  0  0  0  0  0  0  0  0  0  0
  -24.5377  -14.2938   19.0673 C   0  0  0  0  0  0  0  0  0  0  0  0
  -25.8824  -16.2806   20.7963 C   0  0  0  0  0  0  0  0  0  0  0  0
  -26.9093   -9.1418   20.4896 C   0  0  0  0  0  0  0  0  0  0  0  0
  -24.9958  -31.7459   20.2923 C   0  0  0  0  0  0  0  0  0  0  0  0
  -26.8141  -10.1521   21.6284 C   0  0  0  0  0  0  0  0  0  0  0  0
  -25.8096  -30.4637   20.0968 C   0  0  0  0  0  0  0  0  0  0  0  0
  -24.3261  -31.7857   21.6647 C   0  0  0  0  0  0  0  0  0  0  0  0
  -24.3196  -29.3174   21.7875 C   0  0  0  0  0  0  0  0  0  0  0  0
  -25.4804  -10.9077   21.5856 C   0  0  1  0  0  0  0  0  0  0  0  0
  -25.9647  -14.0890   19.5663 C   0  0  1  0  0  0  0  0  0  0  0  0
  -24.9614  -29.2120   20.3948 C   0  0  2  0  0  0  0  0  0  0  0  0
  -18.5441  -28.3356   21.4428 C   0  0  0  0  0  0  0  0  0  0  0  0
  -30.1204  -20.4287   17.9720 C   0  0  0  0  0  0  0  0  0  0  0  0
  -17.9865  -21.2577   20.4119 C   0  0  0  0  0  0  0  0  0  0  0  0
  -29.4559  -15.4393   22.2772 C   0  0  0  0  0  0  0  0  0  0  0  0
  -30.4835  -17.6464   21.6934 C   0  0  0  0  0  0  0  0  0  0  0  0
  -30.9327  -15.6479   20.2698 C   0  0  0  0  0  0  0  0  0  0  0  0
  -26.6866  -19.5553   16.5855 C   0  0  0  0  0  0  0  0  0  0  0  0
  -21.8429  -28.8703   24.8958 C   0  0  0  0  0  0  0  0  0  0  0  0
  -18.4527  -23.5019   22.5924 C   0  0  0  0  0  0  0  0  0  0  0  0
  -20.9385  -20.1427   22.7189 C   0  0  0  0  0  0  0  0  0  0  0  0
  -20.0526  -20.2579   21.4713 C   0  0  0  0  0  0  0  0  0  0  0  0
  -22.0473  -19.1110   22.5417 C   0  0  0  0  0  0  0  0  0  1  0  0
  -28.6518  -16.7359   20.1943 C   0  0  1  0  0  0  0  0  0  0  0  0
  -28.9538  -19.5140   17.6329 C   0  0  2  0  0  0  0  0  0  0  0  0
  -18.8807  -21.2309   21.6446 C   0  0  1  0  0  0  0  0  0  0  0  0
  -29.8527  -16.3643   21.1094 C   0  0  0  0  0  0  0  0  0  0  0  0
  -27.0652  -27.9332   20.5258 N   0  0  0  0  0  0  0  0  0  0  0  0
  -21.4683  -29.3955   22.2932 N   0  0  0  0  0  0  0  0  0  0  0  0
  -25.7516  -27.9267   20.2417 N   0  0  0  0  0  0  0  0  0  0  0  0
  -26.6215  -15.3457   19.9318 N   0  0  0  0  0  0  0  0  0  0  0  0
  -23.5528  -30.5647   21.8901 N   0  0  0  0  0  0  0  0  0  0  0  0
  -23.9840  -26.5294   19.5110 N   0  0  0  0  0  0  0  0  0  0  0  0
  -27.5461  -23.7540   19.5790 N   0  0  0  0  0  0  0  0  0  0  0  0
  -25.5114  -11.9300   20.5617 N   0  0  0  0  0  0  0  0  0  0  0  0
  -29.0033  -17.5892   19.0644 N   0  0  0  0  0  0  0  0  0  0  0  0
  -27.8858  -20.3323   16.9922 N   0  3  0  0  0  0  0  0  0  0  0  0
  -19.3954  -22.6108   21.8678 N   0  3  0  0  0  0  0  0  0  0  0  0
  -25.3048  -23.8958   19.1153 O   0  0  0  0  0  0  0  0  0  0  0  0
  -26.5310  -13.6119   21.8083 O   0  0  0  0  0  0  0  0  0  0  0  0
  -28.6220  -14.7549   18.8900 O   0  0  0  0  0  0  0  0  0  0  0  0
  -27.5634  -19.3262   19.5999 O   0  0  0  0  0  0  0  0  0  0  0  0
  -21.5573  -31.6901   22.1166 O   0  0  0  0  0  0  0  0  0  0  0  0
  -19.5791  -29.8317   24.1326 O   0  0  0  0  0  0  0  0  0  0  0  0
  -32.7487  -25.1079   21.0403 O   0  0  0  0  0  0  0  0  0  0  0  0
  -21.4812  -17.8300   22.2681 O   0  0  0  0  0  0  0  0  0  1  0  0
  -33.6659  -20.3560   23.6827 F   0  0  0  0  0  0  0  0  0  0  0  0
  -34.1967  -25.0508   23.3946 F   0  0  0  0  0  0  0  0  0  0  0  0
  -20.6736  -29.0549   23.5751 S   0  0  1  0  0  0  0  0  0  0  0  0
  -20.5672  -23.7944   24.8187 Cl  0  0  0  0  0  0  0  0  0  0  0  0
  1  2  1  0  0  0  0
  1  5  2  0  0  0  0
  2  6  2  0  0  0  0
  3  8  2  0  0  0  0
  3 17  1  0  0  0  0
  4  9  1  0  0  0  0
  4 17  2  0  0  0  0
  5 19  1  0  0  0  0
  6 21  1  0  0  0  0
  7 10  2  0  0  0  0
  7 20  1  0  0  0  0
  8 25  1  0  0  0  0
  9 25  2  0  0  0  0
 10 26  1  0  0  0  0
 11 12  2  0  0  0  0
 11 27  1  0  0  0  0
 12 28  1  0  0  0  0
 13 22  1  0  0  0  0
 13 26  2  0  0  0  0
 14 23  2  0  0  0  0
 14 24  1  0  0  0  0
 15 28  2  0  0  0  0
 15 29  1  0  0  0  0
 16 30  2  0  0  0  0
 16 31  1  0  0  0  0
 17 32  1  0  0  0  0
 18 32  1  0  0  0  0
 18 33  2  0  0  0  0
 18 34  1  0  0  0  0
 19 21  2  0  0  0  0
 19 39  1  0  0  0  0
 20 22  2  0  0  0  0
 20 40  1  0  0  0  0
 21 48  1  0  0  0  0
 22 41  1  0  0  0  0
 23 30  1  0  0  0  0
 23 51  1  0  0  0  0
 24 31  2  0  0  0  0
 24 59  1  0  0  0  0
 25 84  1  0  0  0  0
 26 85  1  0  0  0  0
 27 29  2  0  0  0  0
 27 84  1  0  0  0  0
 28 86  1  0  0  0  0
 29 87  1  0  0  0  0
 30 88  1  0  0  0  0
 31 89  1  0  0  0  0
 32 67  2  0  0  0  0
 33 69  1  0  0  0  0
 33 72  1  0  0  0  0
 34 73  1  0  0  0  0
 34 78  2  0  0  0  0
 35 49  1  0  0  0  0
 35 74  1  0  0  0  0
 35 79  2  0  0  0  0
 36 63  1  0  0  0  0
 36 70  1  0  0  0  0
 36 80  2  0  0  0  0
 37 64  1  0  0  0  0
 37 75  1  0  0  0  0
 37 81  2  0  0  0  0
 38 68  1  0  0  0  0
 38 71  1  0  0  0  0
 38 82  2  0  0  0  0
 39 42  1  0  0  0  0
 40 49  1  0  0  0  0
 41 70  1  0  0  0  0
 42 44  1  0  0  0  0
 43 45  1  0  0  0  0
 43 46  1  0  0  0  0
 44 48  1  0  0  0  0
 45 50  1  0  0  0  0
 46 71  1  0  0  0  0
 47 50  1  0  0  0  0
 47 71  1  0  0  0  0
 48 74  1  0  0  0  0
 49 70  1  0  0  0  0
 50 69  1  0  0  0  0
 52 64  1  0  0  0  0
 53 65  1  0  0  0  0
 54 66  1  0  0  0  0
 55 66  1  0  0  0  0
 56 66  1  0  0  0  0
 57 76  1  0  0  0  0
 58 88  1  0  0  0  0
 59 77  1  0  0  0  0
 60 61  1  0  0  0  0
 60 62  1  0  0  0  0
 61 65  1  0  0  0  0
 62 85  1  0  0  0  0
 63 66  1  0  0  0  0
 63 75  1  0  0  0  0
 64 76  1  0  0  0  0
 65 77  1  0  0  0  0
 67 69  1  0  0  0  0
 68 88  2  0  0  0  0
 83 88  2  0  0  0  0
M  CHG  2  76   1  77   1
M  ISO  4  38 100  62 101  68 100  85 101
M  END
> <Batch ID>
0025

> <Smiles>
CNC(C)C(=O)NC(C(=O)N1Cc2cc([101O:1][101CH2:1]CCC(C)NCc3cc(C)c(S(C)(=O)=[100N:0][100C:0](=O)N4CCCC(n5nc(-c6ccc(Oc7ccc(F)cc7F)cc6)c(C(N)=O)c5N)C4)cc3Cl)ccc2CC1C(=O)NC1CCCc2ccccc21)C(C)(C)C

> <Shape>
0.267

> <Color>
0.059

> <Negative vol penalty>
0.000

$$$$

  -OEChem-04052316243D

 91101  0     1  0  0  0  0  0999 V2000
  -17.1729  -11.8993   21.7912 C   0  0  0  0  0  0  0  0  0  0  0  0
  -17.7371  -13.1614   21.6358 C   0  0  0  0  0  0  0  0  0  0  0  0
  -29.1732  -22.5845   21.4932 C   0  0  0  0  0  0  0  0  0  0  0  0
  -27.6217  -22.7806   19.6516 C   0  0  0  0  0  0  0  0  0  0  0  0
  -17.9182  -10.8695   22.3640 C   0  0  0  0  0  0  0  0  0  0  0  0
  -19.0466  -13.3948   22.0542 C   0  0  0  0  0  0  0  0  0  0  0  0
  -23.1403  -17.1200   19.4331 C   0  0  0  0  0  0  0  0  0  0  0  0
  -29.1294  -21.1947   21.3821 C   0  0  0  0  0  0  0  0  0  0  0  0
  -27.5780  -21.3909   19.5404 C   0  0  0  0  0  0  0  0  0  0  0  0
  -23.5465  -18.4213   19.7253 C   0  0  0  0  0  0  0  0  0  0  0  0
  -30.4809  -18.8104   19.4018 C   0  0  0  0  0  0  0  0  0  0  0  0
  -31.6904  -18.1176   19.4527 C   0  0  0  0  0  0  0  0  0  0  0  0
  -25.4136  -17.5502   20.9801 C   0  0  0  0  0  0  0  0  0  0  0  0
  -30.9177  -16.9115   21.3983 C   0  0  0  0  0  0  0  0  0  0  0  0
  -28.4193  -23.3774   20.6280 C   0  0  0  0  0  0  0  0  0  0  0  0
  -29.3494  -25.6910   20.0897 C   0  0  0  0  0  0  0  0  0  0  0  0
  -19.2408  -11.0879   22.7808 C   0  0  0  0  0  0  0  0  0  0  0  0
  -23.8627  -16.0221   19.9220 C   0  0  0  0  0  0  0  0  0  0  0  0
  -19.8099  -12.3674   22.6344 C   0  0  0  0  0  0  0  0  0  0  0  0
  -25.0159  -16.2360   20.6904 C   0  0  0  0  0  0  0  0  0  0  0  0
  -28.3319  -20.5979   20.4057 C   0  0  0  0  0  0  0  0  0  0  0  0
  -24.6817  -18.6366   20.5013 C   0  0  0  0  0  0  0  0  0  0  0  0
  -29.4897  -18.5538   20.3492 C   0  0  0  0  0  0  0  0  0  0  0  0
  -31.9088  -17.1681   20.4509 C   0  0  0  0  0  0  0  0  0  0  0  0
  -29.7081  -17.6043   21.3474 C   0  0  0  0  0  0  0  0  0  0  0  0
  -28.4637  -24.8130   20.7426 C   0  0  0  0  0  0  0  0  0  0  0  0
  -20.9545  -26.4929   22.3164 C   0  0  0  0  0  0  0  0  0  0  0  0
  -20.8028  -27.7856   21.8731 C   0  0  0  0  0  0  0  0  0  0  0  0
  -28.9828  -26.9392   20.5304 C   0  0  0  0  0  0  0  0  0  0  0  0
  -18.9585  -27.0359   22.8182 C   0  0  0  0  0  0  0  0  0  0  0  0
  -30.4088  -25.4040   19.1672 C   0  0  0  0  0  0  0  0  0  0  0  0
  -23.2098  -13.5931   21.8656 C   0  0  0  0  0  0  0  0  0  0  0  0
  -26.1707  -12.6018   20.9864 C   0  0  0  0  0  0  0  0  0  0  0  0
  -29.2638  -13.4158   19.7962 C   0  0  0  0  0  0  0  0  0  0  0  0
  -23.6542  -28.8225   22.7936 C   0  0  0  0  0  0  0  0  0  0  0  0
  -19.9910   -9.9564   23.4378 C   0  0  0  0  0  0  0  0  0  0  0  0
  -23.4266  -14.6249   19.5755 C   0  0  0  0  0  0  0  0  0  0  0  0
  -25.8379  -15.0916   21.2225 C   0  0  0  0  0  0  0  0  0  0  0  0
  -21.4982  -10.1870   23.5120 C   0  0  0  0  0  0  0  0  0  0  0  0
  -27.0016  -29.1665   24.2737 C   0  0  0  0  0  0  0  0  0  0  0  0
  -21.7987  -11.5966   24.0115 C   0  0  0  0  0  0  0  0  0  0  0  0
  -27.8173  -28.1239   23.5081 C   0  0  0  0  0  0  0  0  0  0  0  0
  -22.2231  -24.6577   23.4210 C   0  0  0  0  0  0  0  0  0  0  0  0
  -22.1638  -24.8398   20.9010 C   0  0  0  0  0  0  0  0  0  0  0  0
  -21.6964  -28.5903   19.6440 C   0  0  0  0  0  0  0  0  0  0  0  0
  -25.5334  -28.7659   24.3957 C   0  0  0  0  0  0  0  0  0  0  0  0
  -25.6979  -27.3976   22.3497 C   0  0  0  0  0  0  0  0  0  0  0  0
  -23.9781  -28.3772   20.3064 C   0  0  0  0  0  0  0  0  0  0  0  0
  -23.4222  -23.7241   23.3156 C   0  0  0  0  0  0  0  0  0  0  0  0
  -23.3636  -23.9051   20.8150 C   0  0  0  0  0  0  0  0  0  0  0  0
  -21.2357  -12.6532   23.0532 C   0  0  1  0  0  0  0  0  0  0  0  0
  -22.1415  -25.6279   22.2258 C   0  0  0  0  0  0  0  0  0  0  0  0
  -21.7532  -28.7296   21.1723 C   0  0  2  0  0  0  0  0  0  0  0  0
  -23.9451  -13.5768   20.5553 C   0  0  1  0  0  0  0  0  0  0  0  0
  -27.1663  -27.7981   22.1514 C   0  0  2  0  0  0  0  0  0  0  0  0
  -23.1050  -28.9649   19.2124 C   0  0  2  0  0  0  0  0  0  0  0  0
  -17.5670  -27.0449   23.3151 C   0  0  0  0  0  0  0  0  0  0  0  0
  -31.4835  -12.3970   19.2196 C   0  0  0  0  0  0  0  0  0  0  0  0
  -26.8520  -12.4124   23.9546 C   0  0  0  0  0  0  0  0  0  0  0  0
  -29.2730  -12.3290   23.3222 C   0  0  0  0  0  0  0  0  0  0  0  0
  -27.7243  -10.5274   22.5616 C   0  0  0  0  0  0  0  0  0  0  0  0
  -18.8747  -29.3878   21.9453 C   0  0  0  0  0  0  0  0  0  0  0  0
  -29.0384  -14.2430   16.9635 C   0  0  0  0  0  0  0  0  0  0  0  0
  -24.4545  -21.9459   21.9046 C   0  0  0  0  0  0  0  0  0  0  0  0
  -24.0641  -20.9023   20.8767 C   0  0  0  0  0  0  0  0  0  1  0  0
  -27.5702  -12.8207   21.5084 C   0  0  1  0  0  0  0  0  0  0  0  0
  -30.1139  -12.8028   18.6979 C   0  0  2  0  0  0  0  0  0  0  0  0
  -27.8385  -12.0441   22.8284 C   0  0  0  0  0  0  0  0  0  0  0  0
  -27.5995  -25.4494   21.5378 N   0  0  0  0  0  0  0  0  0  0  0  0
  -19.8027  -26.0319   22.9035 N   0  0  0  0  0  0  0  0  0  0  0  0
  -19.5190  -28.1196   22.2012 N   0  0  0  0  0  0  0  0  0  0  0  0
  -27.9406  -26.7406   21.3874 N   0  0  0  0  0  0  0  0  0  0  0  0
  -25.3672  -13.7441   20.8617 N   0  0  0  0  0  0  0  0  0  0  0  0
  -24.9677  -28.4347   23.0880 N   0  0  0  0  0  0  0  0  0  0  0  0
  -23.1666  -28.5120   21.5200 N   0  0  0  0  0  0  0  0  0  0  0  0
  -29.4536  -28.1762   20.2646 N   0  0  0  0  0  0  0  0  0  0  0  0
  -30.6505  -24.0673   18.8222 N   0  0  0  0  0  0  0  0  0  0  0  0
  -22.0879  -12.7867   21.8911 N   0  0  0  0  0  0  0  0  0  0  0  0
  -28.4724  -12.4722   20.4162 N   0  0  0  0  0  0  0  0  0  0  0  0
  -23.3632  -22.9762   22.0054 N   0  3  0  0  0  0  0  0  0  0  0  0
  -30.3042  -13.7765   17.5858 N   0  3  0  0  0  0  0  0  0  0  0  0
  -31.1307  -26.3049   18.6764 O   0  0  0  0  0  0  0  0  0  0  0  0
  -23.6300  -14.2848   22.7857 O   0  0  0  0  0  0  0  0  0  0  0  0
  -25.8062  -11.4604   20.6931 O   0  0  0  0  0  0  0  0  0  0  0  0
  -29.3011  -14.6114   20.0785 O   0  0  0  0  0  0  0  0  0  0  0  0
  -22.9627  -29.4384   23.6146 O   0  0  0  0  0  0  0  0  0  0  0  0
  -28.2891  -19.2419   20.2968 O   0  0  0  0  0  0  0  0  0  0  0  0
  -25.0829  -19.9148   20.7907 O   0  0  0  0  0  0  0  0  0  1  0  0
  -33.0698  -16.5018   20.4988 F   0  0  0  0  0  0  0  0  0  0  0  0
  -28.7592  -17.3527   22.2596 F   0  0  0  0  0  0  0  0  0  0  0  0
  -23.2294  -30.3191   19.2320 F   0  0  0  0  0  0  0  0  0  0  0  0
  1  2  1  0  0  0  0
  1  5  2  0  0  0  0
  2  6  2  0  0  0  0
  3  8  2  0  0  0  0
  3 15  1  0  0  0  0
  4  9  1  0  0  0  0
  4 15  2  0  0  0  0
  5 17  1  0  0  0  0
  6 19  1  0  0  0  0
  7 10  2  0  0  0  0
  7 18  1  0  0  0  0
  8 21  1  0  0  0  0
  9 21  2  0  0  0  0
 10 22  1  0  0  0  0
 11 12  2  0  0  0  0
 11 23  1  0  0  0  0
 12 24  1  0  0  0  0
 13 20  1  0  0  0  0
 13 22  2  0  0  0  0
 14 24  2  0  0  0  0
 14 25  1  0  0  0  0
 15 26  1  0  0  0  0
 16 26  1  0  0  0  0
 16 29  2  0  0  0  0
 16 31  1  0  0  0  0
 17 19  2  0  0  0  0
 17 36  1  0  0  0  0
 18 20  2  0  0  0  0
 18 37  1  0  0  0  0
 19 51  1  0  0  0  0
 20 38  1  0  0  0  0
 21 87  1  0  0  0  0
 22 88  1  0  0  0  0
 23 25  2  0  0  0  0
 23 87  1  0  0  0  0
 24 89  1  0  0  0  0
 25 90  1  0  0  0  0
 26 69  2  0  0  0  0
 27 28  2  0  0  0  0
 27 52  1  0  0  0  0
 27 70  1  0  0  0  0
 28 53  1  0  0  0  0
 28 71  1  0  0  0  0
 29 72  1  0  0  0  0
 29 76  1  0  0  0  0
 30 57  1  0  0  0  0
 30 70  2  0  0  0  0
 30 71  1  0  0  0  0
 31 77  1  0  0  0  0
 31 82  2  0  0  0  0
 32 54  1  0  0  0  0
 32 78  1  0  0  0  0
 32 83  2  0  0  0  0
 33 66  1  0  0  0  0
 33 73  1  0  0  0  0
 33 84  2  0  0  0  0
 34 67  1  0  0  0  0
 34 79  1  0  0  0  0
 34 85  2  0  0  0  0
 35 74  1  0  0  0  0
 35 75  1  0  0  0  0
 35 86  2  0  0  0  0
 36 39  1  0  0  0  0
 37 54  1  0  0  0  0
 38 73  1  0  0  0  0
 39 41  1  0  0  0  0
 40 42  1  0  0  0  0
 40 46  1  0  0  0  0
 41 51  1  0  0  0  0
 42 55  1  0  0  0  0
 43 49  1  0  0  0  0
 43 52  1  0  0  0  0
 44 50  1  0  0  0  0
 44 52  1  0  0  0  0
 45 53  1  0  0  0  0
 45 56  1  0  0  0  0
 46 74  1  0  0  0  0
 47 55  1  0  0  0  0
 47 74  1  0  0  0  0
 48 56  1  0  0  0  0
 48 75  1  0  0  0  0
 49 80  1  0  0  0  0
 50 80  1  0  0  0  0
 51 78  1  0  0  0  0
 53 75  1  0  0  0  0
 54 73  1  0  0  0  0
 55 72  1  0  0  0  0
 56 91  1  0  0  0  0
 58 67  1  0  0  0  0
 59 68  1  0  0  0  0
 60 68  1  0  0  0  0
 61 68  1  0  0  0  0
 62 71  1  0  0  0  0
 63 81  1  0  0  0  0
 64 65  1  0  0  0  0
 64 80  1  0  0  0  0
 65 88  1  0  0  0  0
 66 68  1  0  0  0  0
 66 79  1  0  0  0  0
 67 81  1  0  0  0  0
 69 72  1  0  0  0  0
M  CHG  2  80   1  81   1
M  ISO  4  35 100  65 101  75 100  88 101
M  END
> <Batch ID>
0025

> <Smiles>
CNC(C)C(=O)NC(C(=O)N1Cc2cc([101O:1][101CH2:1]CN3CCC(c4nc(C)n(C)c4C4CC(F)C[100N:0]4[100C:0](=O)N4CCCC(n5nc(-c6ccc(Oc7ccc(F)cc7F)cc6)c(C(N)=O)c5N)C4)CC3)ccc2CC1C(=O)NC1CCCc2ccccc21)C(C)(C)C

> <Shape>
0.289

> <Color>
0.057

> <Negative vol penalty>
0.000

$$$$

  -OEChem-04052316243D

 86 94  0     1  0  0  0  0  0999 V2000
  -21.7057  -11.6989   20.1423 C   0  0  0  0  0  0  0  0  0  0  0  0
  -21.6745  -12.6422   21.1643 C   0  0  0  0  0  0  0  0  0  0  0  0
  -21.4800  -25.3039   18.2690 C   0  0  0  0  0  0  0  0  0  0  0  0
  -22.5046  -24.1023   20.0975 C   0  0  0  0  0  0  0  0  0  0  0  0
  -22.9105  -11.4007   19.5069 C   0  0  0  0  0  0  0  0  0  0  0  0
  -22.8484  -13.2871   21.5524 C   0  0  0  0  0  0  0  0  0  0  0  0
  -23.4038  -19.0699   23.4906 C   0  0  0  0  0  0  0  0  0  0  0  0
  -21.4082  -24.1217   17.5323 C   0  0  0  0  0  0  0  0  0  0  0  0
  -22.4327  -22.9200   19.3609 C   0  0  0  0  0  0  0  0  0  0  0  0
  -23.4921  -19.6275   24.7654 C   0  0  0  0  0  0  0  0  0  0  0  0
  -20.0884  -20.6172   18.5722 C   0  0  0  0  0  0  0  0  0  0  0  0
  -19.6346  -19.4731   19.2284 C   0  0  0  0  0  0  0  0  0  0  0  0
  -25.8973  -19.6496   24.5826 C   0  0  0  0  0  0  0  0  0  0  0  0
  -29.4894  -24.9802   25.1360 C   0  0  0  0  0  0  0  0  0  0  0  0
  -21.7339  -18.3724   18.7610 C   0  0  0  0  0  0  0  0  0  0  0  0
  -22.0283  -25.2942   19.5516 C   0  0  0  0  0  0  0  0  0  0  0  0
  -21.1330  -27.0286   21.1942 C   0  0  0  0  0  0  0  0  0  0  0  0
  -24.0979  -12.0493   19.8809 C   0  0  0  0  0  0  0  0  0  0  0  0
  -24.5640  -18.7873   22.7554 C   0  0  0  0  0  0  0  0  0  0  0  0
  -24.0704  -12.9963   20.9224 C   0  0  0  0  0  0  0  0  0  0  0  0
  -25.8210  -19.0907   23.2977 C   0  0  0  0  0  0  0  0  0  0  0  0
  -28.6650  -25.7101   25.9923 C   0  0  0  0  0  0  0  0  0  0  0  0
  -29.6097  -26.8724   23.6387 C   0  0  0  0  0  0  0  0  0  0  0  0
  -28.7853  -27.6024   24.4949 C   0  0  0  0  0  0  0  0  0  0  0  0
  -21.8845  -22.9297   18.0782 C   0  0  0  0  0  0  0  0  0  0  0  0
  -24.7390  -19.9148   25.3127 C   0  0  0  0  0  0  0  0  0  0  0  0
  -21.3649  -20.6389   18.0102 C   0  0  0  0  0  0  0  0  0  0  0  0
  -20.4573  -18.3507   19.3228 C   0  0  0  0  0  0  0  0  0  0  0  0
  -22.1877  -19.5165   18.1047 C   0  0  0  0  0  0  0  0  0  0  0  0
  -29.9618  -25.5614   23.9592 C   0  0  0  0  0  0  0  0  0  0  0  0
  -28.3129  -27.0212   25.6717 C   0  0  0  0  0  0  0  0  0  0  0  0
  -22.1033  -26.5153   20.3129 C   0  0  0  0  0  0  0  0  0  0  0  0
  -21.6777  -28.2002   21.6600 C   0  0  0  0  0  0  0  0  0  0  0  0
  -19.8536  -26.4941   21.5592 C   0  0  0  0  0  0  0  0  0  0  0  0
  -25.8854  -16.1476   21.5766 C   0  0  0  0  0  0  0  0  0  0  0  0
  -27.9635  -18.2510   20.2427 C   0  0  0  0  0  0  0  0  0  0  0  0
  -29.4278  -21.3322   20.3372 C   0  0  0  0  0  0  0  0  0  0  0  0
  -27.3159  -30.1368   22.2181 C   0  0  0  0  0  0  0  0  0  0  0  0
  -25.3844  -11.6593   19.1971 C   0  0  0  0  0  0  0  0  0  0  0  0
  -24.4508  -18.2106   21.3709 C   0  0  0  0  0  0  0  0  0  0  0  0
  -27.0960  -18.8253   22.5412 C   0  0  0  0  0  0  0  0  0  0  0  0
  -26.5169  -12.6598   19.4137 C   0  0  0  0  0  0  0  0  0  0  0  0
  -24.6881  -31.6952   20.3898 C   0  0  0  0  0  0  0  0  0  0  0  0
  -26.6083  -13.0523   20.8849 C   0  0  0  0  0  0  0  0  0  0  0  0
  -23.6402  -30.5906   20.2423 C   0  0  0  0  0  0  0  0  0  0  0  0
  -26.1084  -31.1409   20.3024 C   0  0  0  0  0  0  0  0  0  0  0  0
  -25.3518  -28.9300   21.0857 C   0  0  0  0  0  0  0  0  0  0  0  0
  -25.3182  -13.7351   21.3549 C   0  0  1  0  0  0  0  0  0  0  0  0
  -25.7163  -17.4881   20.9193 C   0  0  1  0  0  0  0  0  0  0  0  0
  -23.9044  -29.4324   21.2230 C   0  0  2  0  0  0  0  0  0  0  0  0
  -30.1119  -27.5076   22.3789 C   0  0  0  0  0  0  0  0  0  0  0  0
  -31.1147  -22.7492   19.1356 C   0  0  0  0  0  0  0  0  0  0  0  0
  -30.2198  -16.6275   21.5010 C   0  0  0  0  0  0  0  0  0  0  0  0
  -31.7503  -18.5655   21.0886 C   0  0  0  0  0  0  0  0  0  0  0  0
  -30.6685  -17.4017   19.1656 C   0  0  0  0  0  0  0  0  0  0  0  0
  -27.4079  -23.3983   19.6964 C   0  0  0  0  0  0  0  0  0  0  0  0
  -28.4166  -29.0092   24.1355 C   0  0  0  0  0  0  0  0  0  0  0  0
  -28.1814  -25.0443   27.2468 C   0  0  0  0  0  0  0  0  0  0  0  0
  -25.5412  -22.3402   27.8623 C   0  0  0  0  0  0  0  0  0  0  0  0
  -26.6482  -23.3240   28.2104 C   0  0  0  0  0  0  0  0  0  0  0  0
  -25.9447  -21.3085   26.8161 C   0  0  0  0  0  0  0  0  0  1  0  0
  -29.2694  -18.8785   20.6668 C   0  0  1  0  0  0  0  0  0  0  0  0
  -29.6451  -22.3777   19.2582 C   0  0  2  0  0  0  0  0  0  0  0  0
  -30.4532  -17.8717   20.6208 C   0  0  0  0  0  0  0  0  0  0  0  0
  -23.1827  -27.2969   20.2224 N   0  0  0  0  0  0  0  0  0  0  0  0
  -22.8937  -28.3132   21.0528 N   0  0  0  0  0  0  0  0  0  0  0  0
  -26.9333  -18.2548   21.1938 N   0  0  0  0  0  0  0  0  0  0  0  0
  -26.2938  -30.0469   21.2588 N   0  0  0  0  0  0  0  0  0  0  0  0
  -21.2303  -29.1346   22.5257 N   0  0  0  0  0  0  0  0  0  0  0  0
  -19.4488  -25.2802   20.9873 N   0  0  0  0  0  0  0  0  0  0  0  0
  -25.2779  -15.1080   20.8987 N   0  0  0  0  0  0  0  0  0  0  0  0
  -29.4512  -20.0536   19.8215 N   0  0  0  0  0  0  0  0  0  0  0  0
  -27.4188  -29.0599   23.0902 N   0  0  0  0  0  0  0  0  0  0  0  0
  -28.8725  -23.6131   19.5708 N   0  3  0  0  0  0  0  0  0  0  0  0
  -27.1045  -24.0460   26.9996 N   0  3  0  0  0  0  0  0  0  0  0  0
  -19.0849  -27.0839   22.3559 O   0  0  0  0  0  0  0  0  0  0  0  0
  -26.5212  -16.0626   22.6208 O   0  0  0  0  0  0  0  0  0  0  0  0
  -27.8590  -17.7814   19.1068 O   0  0  0  0  0  0  0  0  0  0  0  0
  -29.2582  -21.6208   21.5198 O   0  0  0  0  0  0  0  0  0  0  0  0
  -28.0768  -31.1074   22.2954 O   0  0  0  0  0  0  0  0  0  0  0  0
  -21.8143  -21.7759   17.3597 O   0  0  0  0  0  0  0  0  0  0  0  0
  -24.8281  -20.4585   26.5570 O   0  0  0  0  0  0  0  0  0  1  0  0
  -20.0220  -17.2526   19.9544 F   0  0  0  0  0  0  0  0  0  0  0  0
  -23.4154  -19.5318   17.5679 F   0  0  0  0  0  0  0  0  0  0  0  0
  -30.9816  -24.6245   22.9278 Cl  0  0  0  0  0  0  0  0  0  0  0  0
  -27.2878  -27.9239   26.7377 Cl  0  0  0  0  0  0  0  0  0  0  0  0
  1  2  1  0  0  0  0
  1  5  2  0  0  0  0
  2  6  2  0  0  0  0
  3  8  2  0  0  0  0
  3 16  1  0  0  0  0
  4  9  1  0  0  0  0
  4 16  2  0  0  0  0
  5 18  1  0  0  0  0
  6 20  1  0  0  0  0
  7 10  2  0  0  0  0
  7 19  1  0  0  0  0
  8 25  1  0  0  0  0
  9 25  2  0  0  0  0
 10 26  1  0  0  0  0
 11 12  2  0  0  0  0
 11 27  1  0  0  0  0
 12 28  1  0  0  0  0
 13 21  1  0  0  0  0
 13 26  2  0  0  0  0
 14 22  1  0  0  0  0
 14 30  2  0  0  0  0
 15 28  2  0  0  0  0
 15 29  1  0  0  0  0
 16 32  1  0  0  0  0
 17 32  1  0  0  0  0
 17 33  2  0  0  0  0
 17 34  1  0  0  0  0
 18 20  2  0  0  0  0
 18 39  1  0  0  0  0
 19 21  2  0  0  0  0
 19 40  1  0  0  0  0
 20 48  1  0  0  0  0
 21 41  1  0  0  0  0
 22 31  2  0  0  0  0
 22 58  1  0  0  0  0
 23 24  2  0  0  0  0
 23 30  1  0  0  0  0
 23 51  1  0  0  0  0
 24 31  1  0  0  0  0
 24 57  1  0  0  0  0
 25 81  1  0  0  0  0
 26 82  1  0  0  0  0
 27 29  2  0  0  0  0
 27 81  1  0  0  0  0
 28 83  1  0  0  0  0
 29 84  1  0  0  0  0
 30 85  1  0  0  0  0
 31 86  1  0  0  0  0
 32 65  2  0  0  0  0
 33 66  1  0  0  0  0
 33 69  1  0  0  0  0
 34 70  1  0  0  0  0
 34 76  2  0  0  0  0
 35 49  1  0  0  0  0
 35 71  1  0  0  0  0
 35 77  2  0  0  0  0
 36 62  1  0  0  0  0
 36 67  1  0  0  0  0
 36 78  2  0  0  0  0
 37 63  1  0  0  0  0
 37 72  1  0  0  0  0
 37 79  2  0  0  0  0
 38 68  1  0  0  0  0
 38 73  1  0  0  0  0
 38 80  2  0  0  0  0
 39 42  1  0  0  0  0
 40 49  1  0  0  0  0
 41 67  1  0  0  0  0
 42 44  1  0  0  0  0
 43 45  1  0  0  0  0
 43 46  1  0  0  0  0
 44 48  1  0  0  0  0
 45 50  1  0  0  0  0
 46 68  1  0  0  0  0
 47 50  1  0  0  0  0
 47 68  1  0  0  0  0
 48 71  1  0  0  0  0
 49 67  1  0  0  0  0
 50 66  1  0  0  0  0
 52 63  1  0  0  0  0
 53 64  1  0  0  0  0
 54 64  1  0  0  0  0
 55 64  1  0  0  0  0
 56 74  1  0  0  0  0
 57 73  1  0  0  0  0
 58 75  1  0  0  0  0
 59 60  1  0  0  0  0
 59 61  1  0  0  0  0
 60 75  1  0  0  0  0
 61 82  1  0  0  0  0
 62 64  1  0  0  0  0
 62 72  1  0  0  0  0
 63 74  1  0  0  0  0
 65 66  1  0  0  0  0
M  CHG  2  74   1  75   1
M  ISO  4  38 100  61 101  73 100  82 101
M  END
> <Batch ID>
0025

> <Smiles>
CNC(C)C(=O)NC(C(=O)N1Cc2cc([101O:1][101CH2:1]CCNCc3cc(Cl)c(C)c(C[100NH:0][100C:0](=O)N4CCCC(n5nc(-c6ccc(Oc7ccc(F)cc7F)cc6)c(C(N)=O)c5N)C4)c3Cl)ccc2CC1C(=O)NC1CCCc2ccccc21)C(C)(C)C

> <Shape>
0.203

> <Color>
0.065

> <Negative vol penalty>
0.000

$$$$

  -OEChem-04052316243D

 93101  0     1  0  0  0  0  0999 V2000
  -31.3696  -31.9274   17.2807 C   0  0  0  0  0  0  0  0  0  0  0  0
  -30.8449  -30.8531   17.9920 C   0  0  0  0  0  0  0  0  0  0  0  0
  -22.9557  -10.2360   20.4487 C   0  0  0  0  0  0  0  0  0  0  0  0
  -24.3649   -9.2176   22.1263 C   0  0  0  0  0  0  0  0  0  0  0  0
  -31.0565  -33.2322   17.6592 C   0  0  0  0  0  0  0  0  0  0  0  0
  -30.0077  -31.0830   19.0832 C   0  0  0  0  0  0  0  0  0  0  0  0
  -25.9298  -28.0804   19.0699 C   0  0  0  0  0  0  0  0  0  0  0  0
  -22.1681   -9.0853   20.4117 C   0  0  0  0  0  0  0  0  0  0  0  0
  -23.5773   -8.0670   22.0893 C   0  0  0  0  0  0  0  0  0  0  0  0
  -26.1072  -26.7638   19.4927 C   0  0  0  0  0  0  0  0  0  0  0  0
  -20.6027   -7.0457   23.3261 C   0  0  0  0  0  0  0  0  0  0  0  0
  -20.2363   -6.4736   24.5443 C   0  0  0  0  0  0  0  0  0  0  0  0
  -25.2147  -27.3450   21.6571 C   0  0  0  0  0  0  0  0  0  0  0  0
  -31.8125  -17.8325   23.8408 C   0  0  0  0  0  0  0  0  0  0  0  0
  -21.3581   -4.4268   23.9205 C   0  0  0  0  0  0  0  0  0  0  0  0
  -24.0541  -10.3021   21.3059 C   0  0  0  0  0  0  0  0  0  0  0  0
  -24.6936  -12.6143   22.1735 C   0  0  0  0  0  0  0  0  0  0  0  0
  -30.2073  -33.4781   18.7496 C   0  0  0  0  0  0  0  0  0  0  0  0
  -25.4028  -29.0433   19.9425 C   0  0  0  0  0  0  0  0  0  0  0  0
  -29.6841  -32.3924   19.4775 C   0  0  0  0  0  0  0  0  0  0  0  0
  -25.0292  -28.6725   21.2421 C   0  0  0  0  0  0  0  0  0  0  0  0
  -33.1464  -17.5485   24.1333 C   0  0  0  0  0  0  0  0  0  0  0  0
  -31.0525  -16.9264   23.1011 C   0  0  0  0  0  0  0  0  0  0  0  0
  -33.7204  -16.3585   23.6859 C   0  0  0  0  0  0  0  0  0  0  0  0
  -31.6265  -15.7365   22.6537 C   0  0  0  0  0  0  0  0  0  0  0  0
  -22.4789   -8.0008   21.2320 C   0  0  0  0  0  0  0  0  0  0  0  0
  -25.7523  -26.3965   20.7874 C   0  0  0  0  0  0  0  0  0  0  0  0
  -21.3468   -6.3083   22.4051 C   0  0  0  0  0  0  0  0  0  0  0  0
  -20.6140   -5.1642   24.8415 C   0  0  0  0  0  0  0  0  0  0  0  0
  -21.7245   -4.9989   22.7023 C   0  0  0  0  0  0  0  0  0  0  0  0
  -32.9605  -15.4525   22.9461 C   0  0  0  0  0  0  0  0  0  0  0  0
  -24.8683  -11.4903   21.3442 C   0  0  0  0  0  0  0  0  0  0  0  0
  -25.7189  -13.4597   21.8266 C   0  0  0  0  0  0  0  0  0  0  0  0
  -23.6938  -12.8711   23.1686 C   0  0  0  0  0  0  0  0  0  0  0  0
  -26.4744  -31.7608   21.1957 C   0  0  0  0  0  0  0  0  0  0  0  0
  -23.4435  -31.9784   22.3309 C   0  0  0  0  0  0  0  0  0  0  0  0
  -20.5619  -30.3817   23.2220 C   0  0  0  0  0  0  0  0  0  0  0  0
  -31.0733  -14.3780   20.6056 C   0  0  0  0  0  0  0  0  0  0  0  0
  -29.9354  -34.9065   19.1503 C   0  0  0  0  0  0  0  0  0  0  0  0
  -25.1928  -30.4533   19.4625 C   0  0  0  0  0  0  0  0  0  0  0  0
  -24.4403  -29.6638   22.2112 C   0  0  0  0  0  0  0  0  0  0  0  0
  -28.7405  -35.0592   20.0879 C   0  0  0  0  0  0  0  0  0  0  0  0
  -28.9704  -13.2775   17.9515 C   0  0  0  0  0  0  0  0  0  0  0  0
  -28.8071  -34.0281   21.2100 C   0  0  0  0  0  0  0  0  0  0  0  0
  -27.7014  -12.8069   18.6658 C   0  0  0  0  0  0  0  0  0  0  0  0
  -30.2278  -12.9509   18.7553 C   0  0  0  0  0  0  0  0  0  0  0  0
  -28.9472  -12.9530   20.8598 C   0  0  0  0  0  0  0  0  0  0  0  0
  -28.7524  -32.6009   20.6517 C   0  0  1  0  0  0  0  0  0  0  0  0
  -25.1265  -31.4679   20.5998 C   0  0  1  0  0  0  0  0  0  0  0  0
  -27.6503  -13.3177   20.1191 C   0  0  2  0  0  0  0  0  0  0  0  0
  -29.6257  -17.2606   22.8059 C   0  0  0  0  0  0  0  0  0  0  0  0
  -35.1542  -16.0741   24.0124 C   0  0  0  0  0  0  0  0  0  0  0  0
  -18.2723  -30.8214   24.1503 C   0  0  0  0  0  0  0  0  0  0  0  0
  -30.8664  -18.8730   29.2518 C   0  0  0  0  0  0  0  0  0  0  0  0
  -24.6448  -32.3510   25.1108 C   0  0  0  0  0  0  0  0  0  0  0  0
  -22.3937  -31.8338   26.0768 C   0  0  0  0  0  0  0  0  0  0  0  0
  -22.6914  -33.8306   24.6116 C   0  0  0  0  0  0  0  0  0  0  0  0
  -19.2462  -29.3070   20.7985 C   0  0  0  0  0  0  0  0  0  0  0  0
  -33.9432  -18.5455   24.9362 C   0  0  0  0  0  0  0  0  0  0  0  0
  -34.0831  -18.1786   26.4195 C   0  0  0  0  0  0  0  0  0  0  0  0
  -28.2431  -22.1429   24.3792 C   0  0  0  0  0  0  0  0  0  0  0  0
  -28.6021  -21.9001   25.8470 C   0  0  0  0  0  0  0  0  0  0  0  0
  -27.3614  -23.3840   24.2231 C   0  0  0  0  0  0  0  0  0  0  0  0
  -29.4782  -20.6618   26.0658 C   0  0  0  0  0  0  0  0  0  0  0  0
  -27.0290  -23.6485   22.7562 C   0  0  0  0  0  0  0  0  0  0  0  0
  -29.8098  -20.4052   27.5407 C   0  0  0  0  0  0  0  0  0  0  0  0
  -32.7706  -17.9991   27.1762 C   0  0  0  0  0  0  0  0  0  0  0  0
  -26.1876  -24.9058   22.5885 C   0  0  0  0  0  0  0  0  0  1  0  0
  -22.7356  -31.5213   23.5835 C   0  0  1  0  0  0  0  0  0  0  0  0
  -19.1084  -30.6664   22.8894 C   0  0  2  0  0  0  0  0  0  0  0  0
  -30.6207  -19.1236   27.7694 C   0  0  1  0  0  0  0  0  0  0  0  0
  -23.1292  -32.3657   24.8283 C   0  0  0  0  0  0  0  0  0  0  0  0
  -25.9217  -11.6079   20.5314 N   0  0  0  0  0  0  0  0  0  0  0  0
  -26.4181  -12.8159   20.8484 N   0  0  0  0  0  0  0  0  0  0  0  0
  -24.2604  -31.0315   21.6969 N   0  0  0  0  0  0  0  0  0  0  0  0
  -30.1094  -13.4692   20.1199 N   0  0  0  0  0  0  0  0  0  0  0  0
  -26.0816  -14.6836   22.2659 N   0  0  0  0  0  0  0  0  0  0  0  0
  -22.7139  -11.8958   23.3986 N   0  0  0  0  0  0  0  0  0  0  0  0
  -30.8389  -14.8274   21.9047 N   0  0  0  0  0  0  0  0  0  0  0  0
  -27.3954  -32.2514   20.2899 N   0  0  0  0  0  0  0  0  0  0  0  0
  -21.3096  -31.5390   23.2760 N   0  0  0  0  0  0  0  0  0  0  0  0
  -18.5350  -29.5548   22.0791 N   0  3  0  0  0  0  0  0  0  0  0  0
  -31.9466  -19.2331   27.0991 N   0  3  0  0  0  0  0  0  0  0  0  0
  -23.6605  -13.9411   23.8226 O   0  0  0  0  0  0  0  0  0  0  0  0
  -26.6643  -31.5582   22.3893 O   0  0  0  0  0  0  0  0  0  0  0  0
  -23.2721  -33.1308   21.9257 O   0  0  0  0  0  0  0  0  0  0  0  0
  -20.9904  -29.2466   23.4181 O   0  0  0  0  0  0  0  0  0  0  0  0
  -32.0208  -14.7524   19.9099 O   0  0  0  0  0  0  0  0  0  0  0  0
  -21.7105   -6.8780   21.1964 O   0  0  0  0  0  0  0  0  0  0  0  0
  -25.9263  -25.1027   21.2059 O   0  0  0  0  0  0  0  0  0  1  0  0
  -20.2634   -4.6155   26.0121 F   0  0  0  0  0  0  0  0  0  0  0  0
  -22.4404   -4.2859   21.8219 F   0  0  0  0  0  0  0  0  0  0  0  0
  -33.6811  -13.9749   22.3916 Cl  0  0  0  0  0  0  0  0  0  0  0  0
  1  2  1  0  0  0  0
  1  5  2  0  0  0  0
  2  6  2  0  0  0  0
  3  8  2  0  0  0  0
  3 16  1  0  0  0  0
  4  9  1  0  0  0  0
  4 16  2  0  0  0  0
  5 18  1  0  0  0  0
  6 20  1  0  0  0  0
  7 10  2  0  0  0  0
  7 19  1  0  0  0  0
  8 26  1  0  0  0  0
  9 26  2  0  0  0  0
 10 27  1  0  0  0  0
 11 12  2  0  0  0  0
 11 28  1  0  0  0  0
 12 29  1  0  0  0  0
 13 21  1  0  0  0  0
 13 27  2  0  0  0  0
 14 22  1  0  0  0  0
 14 23  2  0  0  0  0
 15 29  2  0  0  0  0
 15 30  1  0  0  0  0
 16 32  1  0  0  0  0
 17 32  1  0  0  0  0
 17 33  2  0  0  0  0
 17 34  1  0  0  0  0
 18 20  2  0  0  0  0
 18 39  1  0  0  0  0
 19 21  2  0  0  0  0
 19 40  1  0  0  0  0
 20 48  1  0  0  0  0
 21 41  1  0  0  0  0
 22 24  2  0  0  0  0
 22 59  1  0  0  0  0
 23 25  1  0  0  0  0
 23 51  1  0  0  0  0
 24 31  1  0  0  0  0
 24 52  1  0  0  0  0
 25 31  2  0  0  0  0
 25 79  1  0  0  0  0
 26 89  1  0  0  0  0
 27 90  1  0  0  0  0
 28 30  2  0  0  0  0
 28 89  1  0  0  0  0
 29 91  1  0  0  0  0
 30 92  1  0  0  0  0
 31 93  1  0  0  0  0
 32 73  2  0  0  0  0
 33 74  1  0  0  0  0
 33 77  1  0  0  0  0
 34 78  1  0  0  0  0
 34 84  2  0  0  0  0
 35 49  1  0  0  0  0
 35 80  1  0  0  0  0
 35 85  2  0  0  0  0
 36 69  1  0  0  0  0
 36 75  1  0  0  0  0
 36 86  2  0  0  0  0
 37 70  1  0  0  0  0
 37 81  1  0  0  0  0
 37 87  2  0  0  0  0
 38 76  1  0  0  0  0
 38 79  1  0  0  0  0
 38 88  2  0  0  0  0
 39 42  1  0  0  0  0
 40 49  1  0  0  0  0
 41 75  1  0  0  0  0
 42 44  1  0  0  0  0
 43 45  1  0  0  0  0
 43 46  1  0  0  0  0
 44 48  1  0  0  0  0
 45 50  1  0  0  0  0
 46 76  1  0  0  0  0
 47 50  1  0  0  0  0
 47 76  1  0  0  0  0
 48 80  1  0  0  0  0
 49 75  1  0  0  0  0
 50 74  1  0  0  0  0
 53 70  1  0  0  0  0
 54 71  1  0  0  0  0
 55 72  1  0  0  0  0
 56 72  1  0  0  0  0
 57 72  1  0  0  0  0
 58 82  1  0  0  0  0
 59 60  1  0  0  0  0
 60 67  1  0  0  0  0
 61 62  1  0  0  0  0
 61 63  1  0  0  0  0
 62 64  1  0  0  0  0
 63 65  1  0  0  0  0
 64 66  1  0  0  0  0
 65 68  1  0  0  0  0
 66 71  1  0  0  0  0
 67 83  1  0  0  0  0
 68 90  1  0  0  0  0
 69 72  1  0  0  0  0
 69 81  1  0  0  0  0
 70 82  1  0  0  0  0
 71 83  1  0  0  0  0
 73 74  1  0  0  0  0
M  CHG  2  82   1  83   1
M  ISO  4  38 100  68 101  79 100  90 101
M  END
> <Batch ID>
0025

> <Smiles>
CNC(C)C(=O)NC(C(=O)N1Cc2cc([101O:1][101CH2:1]CCCCCCC(C)NCCCc3cc(C)c([100NH:0][100C:0](=O)N4CCCC(n5nc(-c6ccc(Oc7ccc(F)cc7F)cc6)c(C(N)=O)c5N)C4)c(Cl)c3C)ccc2CC1C(=O)NC1CCCc2ccccc21)C(C)(C)C

> <Shape>
0.262

> <Color>
0.144

> <Negative vol penalty>
0.000

$$$$

  -OEChem-04052316243D

 87 95  0     1  0  0  0  0  0999 V2000
  -25.8105  -31.3693   22.0378 C   0  0  0  0  0  0  0  0  0  0  0  0
  -26.5307  -30.4418   21.2917 C   0  0  0  0  0  0  0  0  0  0  0  0
  -23.2487   -9.8157   19.9037 C   0  0  0  0  0  0  0  0  0  0  0  0
  -23.8060   -9.9115   22.2526 C   0  0  0  0  0  0  0  0  0  0  0  0
  -26.4088  -32.0017   23.1268 C   0  0  0  0  0  0  0  0  0  0  0  0
  -27.8501  -30.1471   21.6336 C   0  0  0  0  0  0  0  0  0  0  0  0
  -28.8111  -25.1756   21.5631 C   0  0  0  0  0  0  0  0  0  0  0  0
  -22.5375   -8.6356   20.1205 C   0  0  0  0  0  0  0  0  0  0  0  0
  -23.0947   -8.7314   22.4694 C   0  0  0  0  0  0  0  0  0  0  0  0
  -29.0093  -24.5830   20.3168 C   0  0  0  0  0  0  0  0  0  0  0  0
  -19.8648   -7.7995   22.8152 C   0  0  0  0  0  0  0  0  0  0  0  0
  -19.0117   -7.7521   23.9178 C   0  0  0  0  0  0  0  0  0  0  0  0
  -31.3951  -24.6640   20.6644 C   0  0  0  0  0  0  0  0  0  0  0  0
  -29.6902  -17.6623   23.4511 C   0  0  0  0  0  0  0  0  0  0  0  0
  -20.2687   -5.8919   24.8103 C   0  0  0  0  0  0  0  0  0  0  0  0
  -23.8830  -10.4537   20.9697 C   0  0  0  0  0  0  0  0  0  0  0  0
  -24.1224  -12.9884   20.8104 C   0  0  0  0  0  0  0  0  0  0  0  0
  -27.7330  -31.7075   23.4881 C   0  0  0  0  0  0  0  0  0  0  0  0
  -29.9056  -25.5274   22.3661 C   0  0  0  0  0  0  0  0  0  0  0  0
  -28.4671  -30.7773   22.7277 C   0  0  0  0  0  0  0  0  0  0  0  0
  -31.2080  -25.2586   21.9216 C   0  0  0  0  0  0  0  0  0  0  0  0
  -30.0424  -19.0119   23.4547 C   0  0  0  0  0  0  0  0  0  0  0  0
  -29.9257  -16.8829   22.3185 C   0  0  0  0  0  0  0  0  0  0  0  0
  -30.8655  -18.8030   21.1929 C   0  0  0  0  0  0  0  0  0  0  0  0
  -22.4605   -8.0934   21.4034 C   0  0  0  0  0  0  0  0  0  0  0  0
  -30.3015  -24.3298   19.8660 C   0  0  0  0  0  0  0  0  0  0  0  0
  -20.9198   -6.8931   22.7102 C   0  0  0  0  0  0  0  0  0  0  0  0
  -19.2137   -6.7983   24.9153 C   0  0  0  0  0  0  0  0  0  0  0  0
  -21.1218   -5.9393   23.7077 C   0  0  0  0  0  0  0  0  0  0  0  0
  -30.6300  -19.5823   22.3256 C   0  0  0  0  0  0  0  0  0  0  0  0
  -30.5134  -17.4533   21.1893 C   0  0  0  0  0  0  0  0  0  0  0  0
  -24.6184  -11.6725   20.7462 C   0  0  0  0  0  0  0  0  0  0  0  0
  -25.2079  -13.7789   20.5215 C   0  0  0  0  0  0  0  0  0  0  0  0
  -22.7989  -13.4546   21.1049 C   0  0  0  0  0  0  0  0  0  0  0  0
  -31.0395  -28.2535   23.5435 C   0  0  0  0  0  0  0  0  0  0  0  0
  -33.0986  -26.2779   25.0863 C   0  0  0  0  0  0  0  0  0  0  0  0
  -34.6827  -23.2571   25.1956 C   0  0  0  0  0  0  0  0  0  0  0  0
  -31.0217  -13.5305   21.6269 C   0  0  0  0  0  0  0  0  0  0  0  0
  -28.3524  -32.4516   24.6445 C   0  0  0  0  0  0  0  0  0  0  0  0
  -29.6741  -26.1414   23.7195 C   0  0  0  0  0  0  0  0  0  0  0  0
  -32.4161  -25.5985   22.7543 C   0  0  0  0  0  0  0  0  0  0  0  0
  -29.6328  -31.8063   25.1683 C   0  0  0  0  0  0  0  0  0  0  0  0
  -29.5415  -13.0850   18.2635 C   0  0  0  0  0  0  0  0  0  0  0  0
  -30.5558  -31.4360   24.0117 C   0  0  0  0  0  0  0  0  0  0  0  0
  -28.0910  -12.7269   18.5827 C   0  0  0  0  0  0  0  0  0  0  0  0
  -30.4899  -12.6586   19.3800 C   0  0  0  0  0  0  0  0  0  0  0  0
  -28.6653  -12.8256   21.0405 C   0  0  0  0  0  0  0  0  0  0  0  0
  -29.8923  -30.4126   23.0823 C   0  0  1  0  0  0  0  0  0  0  0  0
  -30.8765  -26.9281   24.2323 C   0  0  1  0  0  0  0  0  0  0  0  0
  -27.6781  -13.2834   19.9564 C   0  0  2  0  0  0  0  0  0  0  0  0
  -29.7729  -19.8073   24.6918 C   0  0  0  0  0  0  0  0  0  0  0  0
  -36.1101  -21.4083   26.1131 C   0  0  0  0  0  0  0  0  0  0  0  0
  -35.3734  -27.9520   23.9318 C   0  0  0  0  0  0  0  0  0  0  0  0
  -36.9444  -26.0912   24.5127 C   0  0  0  0  0  0  0  0  0  0  0  0
  -35.6873  -27.2688   26.3170 C   0  0  0  0  0  0  0  0  0  0  0  0
  -31.6667  -14.9815   23.5131 C   0  0  0  0  0  0  0  0  0  0  0  0
  -32.3942  -22.0438   26.6272 C   0  0  0  0  0  0  0  0  0  0  0  0
  -29.5338  -15.4406   22.3618 C   0  0  0  0  0  0  0  0  0  0  0  0
  -31.4961  -19.4167   19.9777 C   0  0  0  0  0  0  0  0  0  0  0  0
  -30.1347  -21.7983   17.3064 C   0  0  0  0  0  0  0  0  0  0  0  0
  -31.1680  -20.9531   18.0358 C   0  0  0  0  0  0  0  0  0  0  0  0
  -29.4847  -22.8627   18.1819 C   0  0  0  0  0  0  0  0  0  1  0  0
  -34.4539  -25.6911   24.7738 C   0  0  1  0  0  0  0  0  0  0  0  0
  -34.8641  -22.2550   26.3213 C   0  0  2  0  0  0  0  0  0  0  0  0
  -35.5923  -26.7460   24.8671 C   0  0  0  0  0  0  0  0  0  0  0  0
  -25.9177  -11.6254   20.4404 N   0  0  0  0  0  0  0  0  0  0  0  0
  -26.2474  -12.9217   20.3098 N   0  0  0  0  0  0  0  0  0  0  0  0
  -32.1381  -26.2032   24.0676 N   0  0  0  0  0  0  0  0  0  0  0  0
  -30.0502  -13.1650   20.6806 N   0  0  0  0  0  0  0  0  0  0  0  0
  -25.3650  -15.1166   20.4304 N   0  0  0  0  0  0  0  0  0  0  0  0
  -21.8026  -12.5078   21.3791 N   0  0  0  0  0  0  0  0  0  0  0  0
  -29.9464  -29.0897   23.6665 N   0  0  0  0  0  0  0  0  0  0  0  0
  -34.6211  -24.5509   25.6685 N   0  0  0  0  0  0  0  0  0  0  0  0
  -30.6883  -14.5592   22.5210 N   0  0  0  0  0  0  0  0  0  0  0  0
  -33.6859  -21.3459   26.4004 N   0  3  0  0  0  0  0  0  0  0  0  0
  -30.5592  -20.2807   19.2075 N   0  3  0  0  0  0  0  0  0  0  0  0
  -22.5046  -14.6740   21.1082 O   0  0  0  0  0  0  0  0  0  0  0  0
  -32.0807  -28.4998   22.9460 O   0  0  0  0  0  0  0  0  0  0  0  0
  -32.8972  -26.7777   26.1960 O   0  0  0  0  0  0  0  0  0  0  0  0
  -34.6072  -22.9257   24.0145 O   0  0  0  0  0  0  0  0  0  0  0  0
  -32.1276  -12.9760   21.6639 O   0  0  0  0  0  0  0  0  0  0  0  0
  -21.7663   -6.9420   21.6154 O   0  0  0  0  0  0  0  0  0  0  0  0
  -30.4978  -23.7521   18.6496 O   0  0  0  0  0  0  0  0  0  1  0  0
  -18.3953   -6.7538   25.9748 F   0  0  0  0  0  0  0  0  0  0  0  0
  -22.1343   -5.0666   23.6129 F   0  0  0  0  0  0  0  0  0  0  0  0
  -31.0651  -21.2596   22.3378 Cl  0  0  0  0  0  0  0  0  0  0  0  0
  -30.8029  -16.4791   19.7853 Cl  0  0  0  0  0  0  0  0  0  0  0  0
  1  2  1  0  0  0  0
  1  5  2  0  0  0  0
  2  6  2  0  0  0  0
  3  8  2  0  0  0  0
  3 16  1  0  0  0  0
  4  9  1  0  0  0  0
  4 16  2  0  0  0  0
  5 18  1  0  0  0  0
  6 20  1  0  0  0  0
  7 10  2  0  0  0  0
  7 19  1  0  0  0  0
  8 25  1  0  0  0  0
  9 25  2  0  0  0  0
 10 26  1  0  0  0  0
 11 12  2  0  0  0  0
 11 27  1  0  0  0  0
 12 28  1  0  0  0  0
 13 21  1  0  0  0  0
 13 26  2  0  0  0  0
 14 22  1  0  0  0  0
 14 23  2  0  0  0  0
 15 28  2  0  0  0  0
 15 29  1  0  0  0  0
 16 32  1  0  0  0  0
 17 32  1  0  0  0  0
 17 33  2  0  0  0  0
 17 34  1  0  0  0  0
 18 20  2  0  0  0  0
 18 39  1  0  0  0  0
 19 21  2  0  0  0  0
 19 40  1  0  0  0  0
 20 48  1  0  0  0  0
 21 41  1  0  0  0  0
 22 30  2  0  0  0  0
 22 51  1  0  0  0  0
 23 31  1  0  0  0  0
 23 58  1  0  0  0  0
 24 30  1  0  0  0  0
 24 31  2  0  0  0  0
 24 59  1  0  0  0  0
 25 82  1  0  0  0  0
 26 83  1  0  0  0  0
 27 29  2  0  0  0  0
 27 82  1  0  0  0  0
 28 84  1  0  0  0  0
 29 85  1  0  0  0  0
 30 86  1  0  0  0  0
 31 87  1  0  0  0  0
 32 66  2  0  0  0  0
 33 67  1  0  0  0  0
 33 70  1  0  0  0  0
 34 71  1  0  0  0  0
 34 77  2  0  0  0  0
 35 49  1  0  0  0  0
 35 72  1  0  0  0  0
 35 78  2  0  0  0  0
 36 63  1  0  0  0  0
 36 68  1  0  0  0  0
 36 79  2  0  0  0  0
 37 64  1  0  0  0  0
 37 73  1  0  0  0  0
 37 80  2  0  0  0  0
 38 69  1  0  0  0  0
 38 74  1  0  0  0  0
 38 81  2  0  0  0  0
 39 42  1  0  0  0  0
 40 49  1  0  0  0  0
 41 68  1  0  0  0  0
 42 44  1  0  0  0  0
 43 45  1  0  0  0  0
 43 46  1  0  0  0  0
 44 48  1  0  0  0  0
 45 50  1  0  0  0  0
 46 69  1  0  0  0  0
 47 50  1  0  0  0  0
 47 69  1  0  0  0  0
 48 72  1  0  0  0  0
 49 68  1  0  0  0  0
 50 67  1  0  0  0  0
 52 64  1  0  0  0  0
 53 65  1  0  0  0  0
 54 65  1  0  0  0  0
 55 65  1  0  0  0  0
 56 74  1  0  0  0  0
 57 75  1  0  0  0  0
 58 74  1  0  0  0  0
 59 76  1  0  0  0  0
 60 61  1  0  0  0  0
 60 62  1  0  0  0  0
 61 76  1  0  0  0  0
 62 83  1  0  0  0  0
 63 65  1  0  0  0  0
 63 73  1  0  0  0  0
 64 75  1  0  0  0  0
 66 67  1  0  0  0  0
M  CHG  2  75   1  76   1
M  ISO  4  38 100  62 101  74 100  83 101
M  END
> <Batch ID>
0025

> <Smiles>
CNC(C)C(=O)NC(C(=O)N1Cc2cc([101O:1][101CH2:1]CCNCc3c(Cl)c(C)cc(C[100N:0](C)[100C:0](=O)N4CCCC(n5nc(-c6ccc(Oc7ccc(F)cc7F)cc6)c(C(N)=O)c5N)C4)c3Cl)ccc2CC1C(=O)NC1CCCc2ccccc21)C(C)(C)C

> <Shape>
0.251

> <Color>
0.179

> <Negative vol penalty>
0.000

$$$$

  -OEChem-04052316243D

 84 92  0     1  0  0  0  0  0999 V2000
  -18.9495  -33.8778   23.4177 C   0  0  0  0  0  0  0  0  0  0  0  0
  -20.2932  -33.7882   23.0686 C   0  0  0  0  0  0  0  0  0  0  0  0
  -24.9738  -13.3348   21.6286 C   0  0  0  0  0  0  0  0  0  0  0  0
  -26.3635  -13.0686   19.6703 C   0  0  0  0  0  0  0  0  0  0  0  0
  -18.2858  -32.7607   23.9232 C   0  0  0  0  0  0  0  0  0  0  0  0
  -20.9743  -32.5816   23.2258 C   0  0  0  0  0  0  0  0  0  0  0  0
  -25.4153  -30.3663   19.6375 C   0  0  0  0  0  0  0  0  0  0  0  0
  -24.1646  -12.2837   21.1972 C   0  0  0  0  0  0  0  0  0  0  0  0
  -25.5543  -12.0175   19.2389 C   0  0  0  0  0  0  0  0  0  0  0  0
  -26.8047  -30.3717   19.7529 C   0  0  0  0  0  0  0  0  0  0  0  0
  -24.2703   -8.9042   21.1787 C   0  0  0  0  0  0  0  0  0  0  0  0
  -23.8973   -7.9448   22.1200 C   0  0  0  0  0  0  0  0  0  0  0  0
  -26.7275  -28.1603   20.7135 C   0  0  0  0  0  0  0  0  0  0  0  0
  -30.3591  -25.4989   19.3612 C   0  0  0  0  0  0  0  0  0  0  0  0
  -21.5711   -8.4722   21.7357 C   0  0  0  0  0  0  0  0  0  0  0  0
  -26.0732  -13.7273   20.8651 C   0  0  0  0  0  0  0  0  0  0  0  0
  -28.0497  -14.7271   22.1307 C   0  0  0  0  0  0  0  0  0  0  0  0
  -18.9566  -31.5372   24.0777 C   0  0  0  0  0  0  0  0  0  0  0  0
  -24.6694  -29.2604   20.0701 C   0  0  0  0  0  0  0  0  0  0  0  0
  -20.3193  -31.4475   23.7351 C   0  0  0  0  0  0  0  0  0  0  0  0
  -25.3289  -28.1423   20.6002 C   0  0  0  0  0  0  0  0  0  0  0  0
  -30.4271  -24.4969   20.3292 C   0  0  0  0  0  0  0  0  0  0  0  0
  -29.8049  -27.1133   21.0711 C   0  0  0  0  0  0  0  0  0  0  0  0
  -24.4549  -11.6251   20.0024 C   0  0  0  0  0  0  0  0  0  0  0  0
  -27.4608  -29.2698   20.2936 C   0  0  0  0  0  0  0  0  0  0  0  0
  -23.2937   -9.6477   20.5160 C   0  0  0  0  0  0  0  0  0  0  0  0
  -22.5477   -7.7287   22.3985 C   0  0  0  0  0  0  0  0  0  0  0  0
  -21.9441   -9.4317   20.7945 C   0  0  0  0  0  0  0  0  0  0  0  0
  -30.0480  -26.8071   19.7322 C   0  0  0  0  0  0  0  0  0  0  0  0
  -30.1839  -24.8031   21.6682 C   0  0  0  0  0  0  0  0  0  0  0  0
  -29.8728  -26.1113   22.0391 C   0  0  0  0  0  0  0  0  0  0  0  0
  -26.9092  -14.8133   21.3099 C   0  0  0  0  0  0  0  0  0  0  0  0
  -28.4797  -16.0253   22.2583 C   0  0  0  0  0  0  0  0  0  0  0  0
  -28.6653  -13.5765   22.7245 C   0  0  0  0  0  0  0  0  0  0  0  0
  -22.4310  -28.7889   22.2771 C   0  0  0  0  0  0  0  0  0  0  0  0
  -22.3045  -25.8285   20.9571 C   0  0  0  0  0  0  0  0  0  0  0  0
  -23.8785  -23.3826   19.1720 C   0  0  0  0  0  0  0  0  0  0  0  0
  -29.7072  -20.8705   20.0303 C   0  0  0  0  0  0  0  0  0  0  0  0
  -18.2096  -30.3698   24.6726 C   0  0  0  0  0  0  0  0  0  0  0  0
  -23.1734  -29.2593   19.9141 C   0  0  0  0  0  0  0  0  0  0  0  0
  -24.5759  -26.9219   21.0605 C   0  0  0  0  0  0  0  0  0  0  0  0
  -18.9050  -29.0281   24.4569 C   0  0  0  0  0  0  0  0  0  0  0  0
  -26.2468  -20.3775   20.9684 C   0  0  0  0  0  0  0  0  0  0  0  0
  -20.3903  -29.1375   24.7863 C   0  0  0  0  0  0  0  0  0  0  0  0
  -26.2092  -18.8673   21.2095 C   0  0  0  0  0  0  0  0  0  0  0  0
  -27.1546  -20.7272   19.7929 C   0  0  0  0  0  0  0  0  0  0  0  0
  -28.5123  -18.7028   20.1565 C   0  0  0  0  0  0  0  0  0  0  0  0
  -21.0860  -30.1495   23.8679 C   0  0  1  0  0  0  0  0  0  0  0  0
  -22.4747  -28.2885   20.8610 C   0  0  1  0  0  0  0  0  0  0  0  0
  -27.6290  -18.2863   21.3466 C   0  0  2  0  0  0  0  0  0  0  0  0
  -23.5347  -21.0607   18.2842 C   0  0  0  0  0  0  0  0  0  0  0  0
  -30.7591  -29.2931   21.7859 C   0  0  0  0  0  0  0  0  0  0  0  0
  -22.7223  -24.6975   23.7600 C   0  0  0  0  0  0  0  0  0  0  0  0
  -23.3147  -22.5030   22.7107 C   0  0  0  0  0  0  0  0  0  0  0  0
  -21.0383  -23.4679   22.3793 C   0  0  0  0  0  0  0  0  0  0  0  0
  -24.2205  -24.2777   16.3719 C   0  0  0  0  0  0  0  0  0  0  0  0
  -30.7639  -23.1106   19.8808 C   0  0  0  0  0  0  0  0  0  0  0  0
  -23.0133  -24.5181   21.2009 C   0  0  1  0  0  0  0  0  0  0  0  0
  -23.4235  -22.5483   17.9883 C   0  0  2  0  0  0  0  0  0  0  0  0
  -29.4668  -28.5402   21.4645 C   0  0  1  0  0  0  0  0  0  1  0  0
  -22.5365  -23.8203   22.5059 C   0  0  0  0  0  0  0  0  0  0  0  0
  -26.6321  -16.0671   20.9422 N   0  0  0  0  0  0  0  0  0  0  0  0
  -27.6045  -16.7807   21.5348 N   0  0  0  0  0  0  0  0  0  0  0  0
  -23.1140  -26.9715   20.8931 N   0  0  0  0  0  0  0  0  0  0  0  0
  -28.4956  -20.1605   19.9944 N   0  0  0  0  0  0  0  0  0  0  0  0
  -29.5172  -16.5829   22.9180 N   0  0  0  0  0  0  0  0  0  0  0  0
  -28.0943  -12.3180   22.4912 N   0  0  0  0  0  0  0  0  0  0  0  0
  -21.3263  -29.5675   22.5648 N   0  0  0  0  0  0  0  0  0  0  0  0
  -22.8242  -23.7210   19.9937 N   0  0  0  0  0  0  0  0  0  0  0  0
  -29.6050  -22.2459   19.8619 N   0  0  0  0  0  0  0  0  0  0  0  0
  -24.2554  -22.8525   16.7898 N   0  3  0  0  0  0  0  0  0  0  0  0
  -29.6819  -13.6636   23.4542 O   0  0  0  0  0  0  0  0  0  0  0  0
  -23.3321  -28.4896   23.0517 O   0  0  0  0  0  0  0  0  0  0  0  0
  -21.0785  -25.8368   20.8212 O   0  0  0  0  0  0  0  0  0  0  0  0
  -25.0524  -23.6991   19.3519 O   0  0  0  0  0  0  0  0  0  0  0  0
  -30.7996  -20.3198   20.2050 O   0  0  0  0  0  0  0  0  0  0  0  0
  -23.6656  -10.5993   19.5812 O   0  0  0  0  0  0  0  0  0  0  0  0
  -28.8168  -29.2727   20.4079 O   0  0  0  0  0  0  0  0  0  1  0  0
  -22.1896   -6.8063   23.3013 F   0  0  0  0  0  0  0  0  0  0  0  0
  -21.0013  -10.1420   20.1602 F   0  0  0  0  0  0  0  0  0  0  0  0
  -28.6900  -28.6387   22.5860 F   0  0  0  0  0  0  0  0  0  0  0  0
  -29.9761  -28.0159   18.5009 Cl  0  0  0  0  0  0  0  0  0  0  0  0
  -30.2756  -23.5318   22.8472 Cl  0  0  0  0  0  0  0  0  0  0  0  0
  -29.5653  -26.5186   23.6997 Cl  0  0  0  0  0  0  0  0  0  0  0  0
  1  2  1  0  0  0  0
  1  5  2  0  0  0  0
  2  6  2  0  0  0  0
  3  8  2  0  0  0  0
  3 16  1  0  0  0  0
  4  9  1  0  0  0  0
  4 16  2  0  0  0  0
  5 18  1  0  0  0  0
  6 20  1  0  0  0  0
  7 10  2  0  0  0  0
  7 19  1  0  0  0  0
  8 24  1  0  0  0  0
  9 24  2  0  0  0  0
 10 25  1  0  0  0  0
 11 12  2  0  0  0  0
 11 26  1  0  0  0  0
 12 27  1  0  0  0  0
 13 21  1  0  0  0  0
 13 25  2  0  0  0  0
 14 22  1  0  0  0  0
 14 29  2  0  0  0  0
 15 27  2  0  0  0  0
 15 28  1  0  0  0  0
 16 32  1  0  0  0  0
 17 32  1  0  0  0  0
 17 33  2  0  0  0  0
 17 34  1  0  0  0  0
 18 20  2  0  0  0  0
 18 39  1  0  0  0  0
 19 21  2  0  0  0  0
 19 40  1  0  0  0  0
 20 48  1  0  0  0  0
 21 41  1  0  0  0  0
 22 30  2  0  0  0  0
 22 57  1  0  0  0  0
 23 29  1  0  0  0  0
 23 31  2  0  0  0  0
 23 60  1  0  0  0  0
 24 77  1  0  0  0  0
 25 78  1  0  0  0  0
 26 28  2  0  0  0  0
 26 77  1  0  0  0  0
 27 79  1  0  0  0  0
 28 80  1  0  0  0  0
 29 82  1  0  0  0  0
 30 31  1  0  0  0  0
 30 83  1  0  0  0  0
 31 84  1  0  0  0  0
 32 62  2  0  0  0  0
 33 63  1  0  0  0  0
 33 66  1  0  0  0  0
 34 67  1  0  0  0  0
 34 72  2  0  0  0  0
 35 49  1  0  0  0  0
 35 68  1  0  0  0  0
 35 73  2  0  0  0  0
 36 58  1  0  0  0  0
 36 64  1  0  0  0  0
 36 74  2  0  0  0  0
 37 59  1  0  0  0  0
 37 69  1  0  0  0  0
 37 75  2  0  0  0  0
 38 65  1  0  0  0  0
 38 70  1  0  0  0  0
 38 76  2  0  0  0  0
 39 42  1  0  0  0  0
 40 49  1  0  0  0  0
 41 64  1  0  0  0  0
 42 44  1  0  0  0  0
 43 45  1  0  0  0  0
 43 46  1  0  0  0  0
 44 48  1  0  0  0  0
 45 50  1  0  0  0  0
 46 65  1  0  0  0  0
 47 50  1  0  0  0  0
 47 65  1  0  0  0  0
 48 68  1  0  0  0  0
 49 64  1  0  0  0  0
 50 63  1  0  0  0  0
 51 59  1  0  0  0  0
 52 60  1  0  0  0  0
 53 61  1  0  0  0  0
 54 61  1  0  0  0  0
 55 61  1  0  0  0  0
 56 71  1  0  0  0  0
 57 70  1  0  0  0  0
 58 61  1  0  0  0  0
 58 69  1  0  0  0  0
 59 71  1  0  0  0  0
 60 78  1  0  0  0  0
 60 81  1  0  0  0  0
 62 63  1  0  0  0  0
M  CHG  1  71   1
M  ISO  4  38 100  60 101  70 100  78 101
M  END
> <Batch ID>
0025

> <Smiles>
CNC(C)C(=O)NC(C(=O)N1Cc2cc([101O:1][101C:1](C)(F)c3c(Cl)cc(C[100NH:0][100C:0](=O)N4CCCC(n5nc(-c6ccc(Oc7ccc(F)cc7F)cc6)c(C(N)=O)c5N)C4)c(Cl)c3Cl)ccc2CC1C(=O)NC1CCCc2ccccc21)C(C)(C)C

> <Shape>
0.257

> <Color>
0.079

> <Negative vol penalty>
0.000

$$$$

  -OEChem-04052316243D

 91100  0     1  0  0  0  0  0999 V2000
  -26.5066  -33.9666   17.5681 C   0  0  0  0  0  0  0  0  0  0  0  0
  -26.1675  -32.6814   17.9789 C   0  0  0  0  0  0  0  0  0  0  0  0
  -22.9862  -10.0557   19.8954 C   0  0  0  0  0  0  0  0  0  0  0  0
  -23.9141   -9.7736   22.1082 C   0  0  0  0  0  0  0  0  0  0  0  0
  -26.4050  -35.0323   18.4613 C   0  0  0  0  0  0  0  0  0  0  0  0
  -25.7276  -32.4611   19.2836 C   0  0  0  0  0  0  0  0  0  0  0  0
  -21.6789  -29.4257   19.4820 C   0  0  0  0  0  0  0  0  0  0  0  0
  -22.2371   -8.8908   20.0609 C   0  0  0  0  0  0  0  0  0  0  0  0
  -23.1649   -8.6087   22.2738 C   0  0  0  0  0  0  0  0  0  0  0  0
  -21.9011  -28.0573   19.3335 C   0  0  0  0  0  0  0  0  0  0  0  0
  -19.9732   -7.7869   23.0207 C   0  0  0  0  0  0  0  0  0  0  0  0
  -19.3044   -7.6150   24.2327 C   0  0  0  0  0  0  0  0  0  0  0  0
  -21.7642  -27.7816   21.7261 C   0  0  0  0  0  0  0  0  0  0  0  0
  -20.5530   -5.5859   24.6339 C   0  0  0  0  0  0  0  0  0  0  0  0
  -23.8248  -10.4971   20.9190 C   0  0  0  0  0  0  0  0  0  0  0  0
  -24.2136  -13.0133   21.0777 C   0  0  0  0  0  0  0  0  0  0  0  0
  -25.9544  -34.8264   19.7748 C   0  0  0  0  0  0  0  0  0  0  0  0
  -21.5083  -29.9848   20.7567 C   0  0  0  0  0  0  0  0  0  0  0  0
  -25.6211  -33.5248   20.1957 C   0  0  0  0  0  0  0  0  0  0  0  0
  -21.5375  -29.1569   21.8879 C   0  0  0  0  0  0  0  0  0  0  0  0
  -28.9021  -20.3419   21.3129 C   0  0  0  0  0  0  0  0  0  0  0  0
  -30.2644  -17.9619   21.8249 C   0  0  0  0  0  0  0  0  0  0  0  0
  -22.3264   -8.1673   21.2501 C   0  0  0  0  0  0  0  0  0  0  0  0
  -21.9467  -27.2355   20.4559 C   0  0  0  0  0  0  0  0  0  0  0  0
  -20.9318   -6.8582   22.6153 C   0  0  0  0  0  0  0  0  0  0  0  0
  -19.5944   -6.5146   25.0393 C   0  0  0  0  0  0  0  0  0  0  0  0
  -21.2217   -5.7578   23.4219 C   0  0  0  0  0  0  0  0  0  0  0  0
  -30.0110  -19.9934   20.5420 C   0  0  0  0  0  0  0  0  0  0  0  0
  -28.4743  -19.5004   22.3399 C   0  0  0  0  0  0  0  0  0  0  0  0
  -30.6922  -18.8034   20.7979 C   0  0  0  0  0  0  0  0  0  0  0  0
  -29.1555  -18.3104   22.5958 C   0  0  0  0  0  0  0  0  0  0  0  0
  -24.5993  -11.7000   20.7484 C   0  0  0  0  0  0  0  0  0  0  0  0
  -25.2924  -13.7866   20.7249 C   0  0  0  0  0  0  0  0  0  0  0  0
  -22.9897  -13.4913   21.6514 C   0  0  0  0  0  0  0  0  0  0  0  0
  -23.0761  -32.1402   22.4888 C   0  0  0  0  0  0  0  0  0  0  0  0
  -20.5689  -31.7648   24.5126 C   0  0  0  0  0  0  0  0  0  0  0  0
  -18.0200  -29.7913   25.6326 C   0  0  0  0  0  0  0  0  0  0  0  0
  -30.7967  -14.7016   20.6151 C   0  0  0  0  0  0  0  0  0  0  0  0
  -25.9061  -36.0020   20.7183 C   0  0  0  0  0  0  0  0  0  0  0  0
  -21.2428  -31.4586   20.8980 C   0  0  0  0  0  0  0  0  0  0  0  0
  -21.3400  -29.7047   23.2769 C   0  0  0  0  0  0  0  0  0  0  0  0
  -25.0745  -35.7431   21.9720 C   0  0  0  0  0  0  0  0  0  0  0  0
  -29.4317  -12.6405   18.0529 C   0  0  0  0  0  0  0  0  0  0  0  0
  -25.4267  -34.3872   22.5756 C   0  0  0  0  0  0  0  0  0  0  0  0
  -24.6366  -24.4608   20.7701 C   0  0  0  0  0  0  0  0  0  0  0  0
  -24.4969  -23.6761   18.3678 C   0  0  0  0  0  0  0  0  0  0  0  0
  -28.0240  -12.3156   18.5558 C   0  0  0  0  0  0  0  0  0  0  0  0
  -25.4430  -23.2132   21.1303 C   0  0  0  0  0  0  0  0  0  0  0  0
  -25.3035  -22.4288   18.7288 C   0  0  0  0  0  0  0  0  0  0  0  0
  -30.4401  -12.7013   19.1980 C   0  0  0  0  0  0  0  0  0  0  0  0
  -28.6634  -13.2838   20.8036 C   0  0  0  0  0  0  0  0  0  0  0  0
  -25.1162  -33.2495   21.5954 C   0  0  1  0  0  0  0  0  0  0  0  0
  -21.5947  -31.9992   22.2805 C   0  0  1  0  0  0  0  0  0  0  0  0
  -23.7087  -24.2102   19.5725 C   0  0  0  0  0  0  0  0  0  0  0  0
  -27.6009  -13.2668   19.6914 C   0  0  2  0  0  0  0  0  0  0  0  0
  -26.2180  -22.6983   19.9205 C   0  0  0  0  0  0  0  0  0  0  0  0
  -16.1644  -29.7398   27.3213 C   0  0  0  0  0  0  0  0  0  0  0  0
  -22.5973  -31.1985   26.7205 C   0  0  0  0  0  0  0  0  0  0  0  0
  -20.7333  -30.2427   28.0918 C   0  0  0  0  0  0  0  0  0  0  0  0
  -20.6767  -32.6426   27.4137 C   0  0  0  0  0  0  0  0  0  0  0  0
  -15.9529  -29.5694   23.5262 C   0  0  0  0  0  0  0  0  0  0  0  0
  -31.0026  -16.6847   22.0930 C   0  0  0  0  0  0  0  0  0  0  0  0
  -28.2009  -21.6312   21.0014 C   0  0  0  0  0  0  0  0  0  0  0  0
  -22.9540  -25.4850   19.2001 C   0  0  0  0  0  0  0  0  0  1  0  0
  -20.2614  -30.8535   25.6762 C   0  0  1  0  0  0  0  0  0  0  0  0
  -16.5547  -30.0901   25.8938 C   0  0  2  0  0  0  0  0  0  0  0  0
  -21.0729  -31.2240   26.9496 C   0  0  0  0  0  0  0  0  0  0  0  0
  -25.8271  -11.6388   20.2262 N   0  0  0  0  0  0  0  0  0  0  0  0
  -26.2224  -12.9233   20.2248 N   0  0  0  0  0  0  0  0  0  0  0  0
  -21.0898  -31.1530   23.3636 N   0  0  0  0  0  0  0  0  0  0  0  0
  -29.9801  -13.6218   20.2407 N   0  0  0  0  0  0  0  0  0  0  0  0
  -25.5268  -15.1142   20.7966 N   0  0  0  0  0  0  0  0  0  0  0  0
  -21.9853  -12.5615   21.9532 N   0  0  0  0  0  0  0  0  0  0  0  0
  -23.6959  -32.9724   21.5763 N   0  0  0  0  0  0  0  0  0  0  0  0
  -18.8143  -30.8959   25.8564 N   0  0  0  0  0  0  0  0  0  0  0  0
  -30.2827  -15.5291   21.6060 N   0  0  0  0  0  0  0  0  0  0  0  0
  -26.9083  -21.4350   20.2930 N   0  3  0  0  0  0  0  0  0  0  0  0
  -15.6926  -29.3060   24.9649 N   0  3  0  0  0  0  0  0  0  0  0  0
  -22.7861  -14.7089   21.8741 O   0  0  0  0  0  0  0  0  0  0  0  0
  -23.6165  -31.5395   23.4101 O   0  0  0  0  0  0  0  0  0  0  0  0
  -20.3483  -32.9740   24.6167 O   0  0  0  0  0  0  0  0  0  0  0  0
  -18.4203  -28.6872   25.2701 O   0  0  0  0  0  0  0  0  0  0  0  0
  -31.8995  -14.9157   20.1005 O   0  0  0  0  0  0  0  0  0  0  0  0
  -21.5954   -7.0307   21.4121 O   0  0  0  0  0  0  0  0  0  0  0  0
  -22.1640  -25.8997   20.3138 O   0  0  0  0  0  0  0  0  0  1  0  0
  -18.9532   -6.3505   26.2038 F   0  0  0  0  0  0  0  0  0  0  0  0
  -22.1425   -4.8629   23.0383 F   0  0  0  0  0  0  0  0  0  0  0  0
  -30.4176  -20.8073   19.5554 F   0  0  0  0  0  0  0  0  0  0  0  0
  -27.0905  -19.9638   23.2808 Cl  0  0  0  0  0  0  0  0  0  0  0  0
  -32.0614  -18.4052   19.8220 Cl  0  0  0  0  0  0  0  0  0  0  0  0
  -28.6429  -17.2451   23.8689 Cl  0  0  0  0  0  0  0  0  0  0  0  0
  1  2  1  0  0  0  0
  1  5  2  0  0  0  0
  2  6  2  0  0  0  0
  3  8  2  0  0  0  0
  3 15  1  0  0  0  0
  4  9  1  0  0  0  0
  4 15  2  0  0  0  0
  5 17  1  0  0  0  0
  6 19  1  0  0  0  0
  7 10  2  0  0  0  0
  7 18  1  0  0  0  0
  8 23  1  0  0  0  0
  9 23  2  0  0  0  0
 10 24  1  0  0  0  0
 11 12  2  0  0  0  0
 11 25  1  0  0  0  0
 12 26  1  0  0  0  0
 13 20  1  0  0  0  0
 13 24  2  0  0  0  0
 14 26  2  0  0  0  0
 14 27  1  0  0  0  0
 15 32  1  0  0  0  0
 16 32  1  0  0  0  0
 16 33  2  0  0  0  0
 16 34  1  0  0  0  0
 17 19  2  0  0  0  0
 17 39  1  0  0  0  0
 18 20  2  0  0  0  0
 18 40  1  0  0  0  0
 19 52  1  0  0  0  0
 20 41  1  0  0  0  0
 21 28  1  0  0  0  0
 21 29  2  0  0  0  0
 21 63  1  0  0  0  0
 22 30  1  0  0  0  0
 22 31  2  0  0  0  0
 22 62  1  0  0  0  0
 23 84  1  0  0  0  0
 24 85  1  0  0  0  0
 25 27  2  0  0  0  0
 25 84  1  0  0  0  0
 26 86  1  0  0  0  0
 27 87  1  0  0  0  0
 28 30  2  0  0  0  0
 28 88  1  0  0  0  0
 29 31  1  0  0  0  0
 29 89  1  0  0  0  0
 30 90  1  0  0  0  0
 31 91  1  0  0  0  0
 32 68  2  0  0  0  0
 33 69  1  0  0  0  0
 33 72  1  0  0  0  0
 34 73  1  0  0  0  0
 34 79  2  0  0  0  0
 35 53  1  0  0  0  0
 35 74  1  0  0  0  0
 35 80  2  0  0  0  0
 36 65  1  0  0  0  0
 36 70  1  0  0  0  0
 36 81  2  0  0  0  0
 37 66  1  0  0  0  0
 37 75  1  0  0  0  0
 37 82  2  0  0  0  0
 38 71  1  0  0  0  0
 38 76  1  0  0  0  0
 38 83  2  0  0  0  0
 39 42  1  0  0  0  0
 40 53  1  0  0  0  0
 41 70  1  0  0  0  0
 42 44  1  0  0  0  0
 43 47  1  0  0  0  0
 43 50  1  0  0  0  0
 44 52  1  0  0  0  0
 45 48  1  0  0  0  0
 45 54  1  0  0  0  0
 46 49  1  0  0  0  0
 46 54  1  0  0  0  0
 47 55  1  0  0  0  0
 48 56  1  0  0  0  0
 49 56  1  0  0  0  0
 50 71  1  0  0  0  0
 51 55  1  0  0  0  0
 51 71  1  0  0  0  0
 52 74  1  0  0  0  0
 53 70  1  0  0  0  0
 54 64  1  0  0  0  0
 55 69  1  0  0  0  0
 56 77  1  0  0  0  0
 57 66  1  0  0  0  0
 58 67  1  0  0  0  0
 59 67  1  0  0  0  0
 60 67  1  0  0  0  0
 61 78  1  0  0  0  0
 62 76  1  0  0  0  0
 63 77  1  0  0  0  0
 64 85  1  0  0  0  0
 65 67  1  0  0  0  0
 65 75  1  0  0  0  0
 66 78  1  0  0  0  0
 68 69  1  0  0  0  0
M  CHG  2  77   1  78   1
M  ISO  4  38 100  64 101  76 100  85 101
M  END
> <Batch ID>
0025

> <Smiles>
CNC(C)C(=O)NC(C(=O)N1Cc2cc([101O:1][101CH2:1]C3CCC(NCc4c(F)c(Cl)c(C[100NH:0][100C:0](=O)N5CCCC(n6nc(-c7ccc(Oc8ccc(F)cc8F)cc7)c(C(N)=O)c6N)C5)c(Cl)c4Cl)CC3)ccc2CC1C(=O)NC1CCCc2ccccc21)C(C)(C)C

> <Shape>
0.276

> <Color>
0.190

> <Negative vol penalty>
0.000

$$$$

  -OEChem-04052316243D

 83 91  0     1  0  0  0  0  0999 V2000
  -16.8281  -31.1982   21.5222 C   0  0  0  0  0  0  0  0  0  0  0  0
  -18.0455  -31.5282   20.9353 C   0  0  0  0  0  0  0  0  0  0  0  0
  -26.2782  -12.9120   21.3303 C   0  0  0  0  0  0  0  0  0  0  0  0
  -26.1417  -13.2132   18.9371 C   0  0  0  0  0  0  0  0  0  0  0  0
  -16.8011  -30.4144   22.6750 C   0  0  0  0  0  0  0  0  0  0  0  0
  -19.2367  -31.0755   21.5014 C   0  0  0  0  0  0  0  0  0  0  0  0
  -25.8408  -28.9804   19.6814 C   0  0  0  0  0  0  0  0  0  0  0  0
  -25.0649  -12.2242   21.3130 C   0  0  0  0  0  0  0  0  0  0  0  0
  -24.9284  -12.5253   18.9197 C   0  0  0  0  0  0  0  0  0  0  0  0
  -27.1759  -29.2423   19.9855 C   0  0  0  0  0  0  0  0  0  0  0  0
  -23.9715   -9.1212   20.5326 C   0  0  0  0  0  0  0  0  0  0  0  0
  -23.8855   -7.9397   21.2689 C   0  0  0  0  0  0  0  0  0  0  0  0
  -27.0035  -27.8286   21.9325 C   0  0  0  0  0  0  0  0  0  0  0  0
  -29.8192  -26.2767   19.1927 C   0  0  0  0  0  0  0  0  0  0  0  0
  -32.0472  -25.4577   19.6424 C   0  0  0  0  0  0  0  0  0  0  0  0
  -22.0967   -8.8903   22.5855 C   0  0  0  0  0  0  0  0  0  0  0  0
  -26.8166  -13.4066   20.1424 C   0  0  0  0  0  0  0  0  0  0  0  0
  -29.3592  -13.5713   20.0173 C   0  0  0  0  0  0  0  0  0  0  0  0
  -17.9921  -29.9438   23.2501 C   0  0  0  0  0  0  0  0  0  0  0  0
  -25.0725  -28.1480   20.5080 C   0  0  0  0  0  0  0  0  0  0  0  0
  -19.2256  -30.2858   22.6637 C   0  0  0  0  0  0  0  0  0  0  0  0
  -25.6595  -27.5557   21.6353 C   0  0  0  0  0  0  0  0  0  0  0  0
  -31.1124  -26.4926   19.6689 C   0  0  0  0  0  0  0  0  0  0  0  0
  -30.3956  -23.9909   18.6636 C   0  0  0  0  0  0  0  0  0  0  0  0
  -24.3900  -12.0308   20.1077 C   0  0  0  0  0  0  0  0  0  0  0  0
  -27.7567  -28.6687   21.1128 C   0  0  0  0  0  0  0  0  0  0  0  0
  -23.1201  -10.1874   20.8228 C   0  0  0  0  0  0  0  0  0  0  0  0
  -22.9481   -7.8242   22.2953 C   0  0  0  0  0  0  0  0  0  0  0  0
  -22.1827  -10.0719   21.8492 C   0  0  0  0  0  0  0  0  0  0  0  0
  -29.4608  -25.0259   18.6901 C   0  0  0  0  0  0  0  0  0  0  0  0
  -31.6888  -24.2068   19.1398 C   0  0  0  0  0  0  0  0  0  0  0  0
  -28.0697  -14.1177   20.1597 C   0  0  0  0  0  0  0  0  0  0  0  0
  -30.2018  -14.6525   20.1045 C   0  0  0  0  0  0  0  0  0  0  0  0
  -29.7597  -12.2083   19.8234 C   0  0  0  0  0  0  0  0  0  0  0  0
  -22.4550  -28.5341   22.2696 C   0  0  0  0  0  0  0  0  0  0  0  0
  -22.7319  -25.3287   22.6831 C   0  0  0  0  0  0  0  0  0  0  0  0
  -24.7437  -22.5721   22.6947 C   0  0  0  0  0  0  0  0  0  0  0  0
  -29.3903  -20.3776   18.9128 C   0  0  0  0  0  0  0  0  0  0  0  0
  -17.9149  -29.1390   24.5233 C   0  0  0  0  0  0  0  0  0  0  0  0
  -23.6411  -27.8541   20.1514 C   0  0  0  0  0  0  0  0  0  0  0  0
  -24.8836  -26.6386   22.5438 C   0  0  0  0  0  0  0  0  0  0  0  0
  -19.2032  -28.3870   24.8475 C   0  0  0  0  0  0  0  0  0  0  0  0
  -30.5162  -19.0064   22.0671 C   0  0  0  0  0  0  0  0  0  0  0  0
  -20.4119  -29.3025   24.6815 C   0  0  0  0  0  0  0  0  0  0  0  0
  -30.1326  -17.5336   21.9128 C   0  0  0  0  0  0  0  0  0  0  0  0
  -29.4680  -19.9195   21.4381 C   0  0  0  0  0  0  0  0  0  0  0  0
  -28.7973  -18.1603   19.8478 C   0  0  0  0  0  0  0  0  0  0  0  0
  -20.5379  -29.7931   23.2341 C   0  0  1  0  0  0  0  0  0  0  0  0
  -22.8083  -27.4020   21.3470 C   0  0  1  0  0  0  0  0  0  0  0  0
  -29.8285  -17.1848   20.4437 C   0  0  2  0  0  0  0  0  0  0  0  0
  -24.6916  -20.0971   23.1060 C   0  0  0  0  0  0  0  0  0  0  0  0
  -22.6205  -25.8331   25.6902 C   0  0  0  0  0  0  0  0  0  0  0  0
  -23.5112  -23.5197   26.0409 C   0  0  0  0  0  0  0  0  0  0  0  0
  -21.3092  -23.8493   24.9159 C   0  0  0  0  0  0  0  0  0  0  0  0
  -25.6082  -21.9769   19.9276 C   0  0  0  0  0  0  0  0  0  0  0  0
  -31.4996  -27.8445   20.2128 C   0  0  0  0  0  0  0  0  0  0  0  0
  -30.0105  -22.6471   18.1243 C   0  0  0  0  0  0  0  0  0  0  0  0
  -31.2524  -27.9979   21.7151 C   0  0  0  0  0  0  0  0  0  0  0  0
  -29.7802  -27.9000   22.0979 C   0  0  0  0  0  0  0  0  0  1  0  0
  -23.4339  -24.4357   23.6774 C   0  0  1  0  0  0  0  0  0  0  0  0
  -24.5768  -21.2006   22.0658 C   0  0  2  0  0  0  0  0  0  0  0  0
  -22.7330  -24.4283   25.0653 C   0  0  0  0  0  0  0  0  0  0  0  0
  -28.0866  -15.4430   20.3250 N   0  0  0  0  0  0  0  0  0  0  0  0
  -29.3970  -15.7384   20.2871 N   0  0  0  0  0  0  0  0  0  0  0  0
  -23.4857  -26.3871   22.1564 N   0  0  0  0  0  0  0  0  0  0  0  0
  -29.2387  -19.5464   20.0351 N   0  0  0  0  0  0  0  0  0  0  0  0
  -31.5451  -14.7707   20.0420 N   0  0  0  0  0  0  0  0  0  0  0  0
  -28.7654  -11.2228   19.7568 N   0  0  0  0  0  0  0  0  0  0  0  0
  -21.0967  -28.7546   22.3953 N   0  0  0  0  0  0  0  0  0  0  0  0
  -23.5302  -23.1223   23.0496 N   0  0  0  0  0  0  0  0  0  0  0  0
  -29.8047  -21.6773   19.1770 N   0  0  0  0  0  0  0  0  0  0  0  0
  -25.6208  -20.9769   21.0261 N   0  3  0  0  0  0  0  0  0  0  0  0
  -30.9645  -11.8721   19.7289 O   0  0  0  0  0  0  0  0  0  0  0  0
  -23.3486  -29.1603   22.8273 O   0  0  0  0  0  0  0  0  0  0  0  0
  -21.5601  -25.0916   22.3793 O   0  0  0  0  0  0  0  0  0  0  0  0
  -25.8411  -23.1007   22.8585 O   0  0  0  0  0  0  0  0  0  0  0  0
  -29.1774  -19.9886   17.7594 O   0  0  0  0  0  0  0  0  0  0  0  0
  -23.2061  -11.3595   20.0903 O   0  0  0  0  0  0  0  0  0  0  0  0
  -29.0596  -28.9231   21.4122 O   0  0  0  0  0  0  0  0  0  1  0  0
  -22.8647   -6.6889   23.0013 F   0  0  0  0  0  0  0  0  0  0  0  0
  -21.3612  -11.0922   22.1318 F   0  0  0  0  0  0  0  0  0  0  0  0
  -27.8492  -24.8020   18.1113 Cl  0  0  0  0  0  0  0  0  0  0  0  0
  -32.8769  -22.9535   19.1264 Cl  0  0  0  0  0  0  0  0  0  0  0  0
  1  2  1  0  0  0  0
  1  5  2  0  0  0  0
  2  6  2  0  0  0  0
  3  8  2  0  0  0  0
  3 17  1  0  0  0  0
  4  9  1  0  0  0  0
  4 17  2  0  0  0  0
  5 19  1  0  0  0  0
  6 21  1  0  0  0  0
  7 10  2  0  0  0  0
  7 20  1  0  0  0  0
  8 25  1  0  0  0  0
  9 25  2  0  0  0  0
 10 26  1  0  0  0  0
 11 12  2  0  0  0  0
 11 27  1  0  0  0  0
 12 28  1  0  0  0  0
 13 22  1  0  0  0  0
 13 26  2  0  0  0  0
 14 23  1  0  0  0  0
 14 30  2  0  0  0  0
 15 23  2  0  0  0  0
 15 31  1  0  0  0  0
 16 28  2  0  0  0  0
 16 29  1  0  0  0  0
 17 32  1  0  0  0  0
 18 32  1  0  0  0  0
 18 33  2  0  0  0  0
 18 34  1  0  0  0  0
 19 21  2  0  0  0  0
 19 39  1  0  0  0  0
 20 22  2  0  0  0  0
 20 40  1  0  0  0  0
 21 48  1  0  0  0  0
 22 41  1  0  0  0  0
 23 56  1  0  0  0  0
 24 30  1  0  0  0  0
 24 31  2  0  0  0  0
 24 57  1  0  0  0  0
 25 78  1  0  0  0  0
 26 79  1  0  0  0  0
 27 29  2  0  0  0  0
 27 78  1  0  0  0  0
 28 80  1  0  0  0  0
 29 81  1  0  0  0  0
 30 82  1  0  0  0  0
 31 83  1  0  0  0  0
 32 63  2  0  0  0  0
 33 64  1  0  0  0  0
 33 67  1  0  0  0  0
 34 68  1  0  0  0  0
 34 73  2  0  0  0  0
 35 49  1  0  0  0  0
 35 69  1  0  0  0  0
 35 74  2  0  0  0  0
 36 60  1  0  0  0  0
 36 65  1  0  0  0  0
 36 75  2  0  0  0  0
 37 61  1  0  0  0  0
 37 70  1  0  0  0  0
 37 76  2  0  0  0  0
 38 66  1  0  0  0  0
 38 71  1  0  0  0  0
 38 77  2  0  0  0  0
 39 42  1  0  0  0  0
 40 49  1  0  0  0  0
 41 65  1  0  0  0  0
 42 44  1  0  0  0  0
 43 45  1  0  0  0  0
 43 46  1  0  0  0  0
 44 48  1  0  0  0  0
 45 50  1  0  0  0  0
 46 66  1  0  0  0  0
 47 50  1  0  0  0  0
 47 66  1  0  0  0  0
 48 69  1  0  0  0  0
 49 65  1  0  0  0  0
 50 64  1  0  0  0  0
 51 61  1  0  0  0  0
 52 62  1  0  0  0  0
 53 62  1  0  0  0  0
 54 62  1  0  0  0  0
 55 72  1  0  0  0  0
 56 58  1  0  0  0  0
 57 71  1  0  0  0  0
 58 59  1  0  0  0  0
 59 79  1  0  0  0  0
 60 62  1  0  0  0  0
 60 70  1  0  0  0  0
 61 72  1  0  0  0  0
 63 64  1  0  0  0  0
M  CHG  1  72   1
M  ISO  4  38 100  59 101  71 100  79 101
M  END
> <Batch ID>
0025

> <Smiles>
CNC(C)C(=O)NC(C(=O)N1Cc2cc([101O:1][101CH2:1]CCc3cc(Cl)c(C[100NH:0][100C:0](=O)N4CCCC(n5nc(-c6ccc(Oc7ccc(F)cc7F)cc6)c(C(N)=O)c5N)C4)c(Cl)c3)ccc2CC1C(=O)NC1CCCc2ccccc21)C(C)(C)C

> <Shape>
0.291

> <Color>
0.090

> <Negative vol penalty>
0.000

$$$$

  -OEChem-04052316243D

 90 99  0     1  0  0  0  0  0999 V2000
  -25.7222  -39.3062   22.2461 C   0  0  0  0  0  0  0  0  0  0  0  0
  -26.2452  -38.0477   21.9668 C   0  0  0  0  0  0  0  0  0  0  0  0
  -22.3348  -10.0658   20.6898 C   0  0  0  0  0  0  0  0  0  0  0  0
  -24.2916   -9.0719   21.6998 C   0  0  0  0  0  0  0  0  0  0  0  0
  -24.6282  -39.4310   23.1014 C   0  0  0  0  0  0  0  0  0  0  0  0
  -25.6752  -36.9133   22.5435 C   0  0  0  0  0  0  0  0  0  0  0  0
  -25.1503  -31.3631   20.0087 C   0  0  0  0  0  0  0  0  0  0  0  0
  -21.6928   -8.8277   20.7152 C   0  0  0  0  0  0  0  0  0  0  0  0
  -23.6496   -7.8338   21.7253 C   0  0  0  0  0  0  0  0  0  0  0  0
  -25.9092  -30.2000   20.1320 C   0  0  0  0  0  0  0  0  0  0  0  0
  -21.3280   -6.2722   23.6204 C   0  0  0  0  0  0  0  0  0  0  0  0
  -21.4197   -5.5202   24.7916 C   0  0  0  0  0  0  0  0  0  0  0  0
  -24.3733  -29.3823   21.8029 C   0  0  0  0  0  0  0  0  0  0  0  0
  -22.4860   -3.7348   23.5618 C   0  0  0  0  0  0  0  0  0  0  0  0
  -23.6342  -10.1879   21.1821 C   0  0  0  0  0  0  0  0  0  0  0  0
  -24.2818  -12.4537   22.1591 C   0  0  0  0  0  0  0  0  0  0  0  0
  -24.0385  -38.2968   23.6813 C   0  0  0  0  0  0  0  0  0  0  0  0
  -24.0014  -31.5496   20.7907 C   0  0  0  0  0  0  0  0  0  0  0  0
  -24.5731  -37.0232   23.4084 C   0  0  0  0  0  0  0  0  0  0  0  0
  -23.6002  -30.5475   21.6857 C   0  0  0  0  0  0  0  0  0  0  0  0
  -29.4129  -18.2224   21.9236 C   0  0  0  0  0  0  0  0  0  0  0  0
  -22.3502   -7.7117   21.2329 C   0  0  0  0  0  0  0  0  0  0  0  0
  -25.5223  -29.2107   21.0313 C   0  0  0  0  0  0  0  0  0  0  0  0
  -21.8152   -5.7554   22.4199 C   0  0  0  0  0  0  0  0  0  0  0  0
  -21.9987   -4.2516   24.7624 C   0  0  0  0  0  0  0  0  0  0  0  0
  -22.3942   -4.4868   22.3906 C   0  0  0  0  0  0  0  0  0  0  0  0
  -28.9386  -19.5224   21.9164 C   0  0  0  0  0  0  0  0  0  0  0  0
  -24.2981  -11.4665   21.1556 C   0  0  0  0  0  0  0  0  0  0  0  0
  -29.3566  -20.3570   20.8995 C   0  0  0  0  0  0  0  0  0  0  0  0
  -30.2736  -17.8431   20.9132 C   0  0  0  0  0  0  0  0  0  0  0  0
  -25.0583  -13.4683   21.6551 C   0  0  0  0  0  0  0  0  0  0  0  0
  -23.6237  -12.4536   23.4329 C   0  0  0  0  0  0  0  0  0  0  0  0
  -23.1066  -33.6569   22.9958 C   0  0  0  0  0  0  0  0  0  0  0  0
  -20.2767  -32.0846   22.7903 C   0  0  0  0  0  0  0  0  0  0  0  0
  -18.6064  -29.2181   21.9904 C   0  0  0  0  0  0  0  0  0  0  0  0
  -29.6601  -15.2345   19.0379 C   0  0  0  0  0  0  0  0  0  0  0  0
  -22.8870  -38.4856   24.6369 C   0  0  0  0  0  0  0  0  0  0  0  0
  -23.1788  -32.7981   20.6265 C   0  0  0  0  0  0  0  0  0  0  0  0
  -22.3637  -30.6903   22.5337 C   0  0  0  0  0  0  0  0  0  0  0  0
  -22.1067  -37.2026   24.9115 C   0  0  0  0  0  0  0  0  0  0  0  0
  -26.9274  -14.1873   17.0101 C   0  0  0  0  0  0  0  0  0  0  0  0
  -23.0615  -36.0486   25.2003 C   0  0  0  0  0  0  0  0  0  0  0  0
  -26.0021  -13.4625   17.9891 C   0  0  0  0  0  0  0  0  0  0  0  0
  -29.9906  -22.6488   20.1695 C   0  0  0  0  0  0  0  0  0  0  0  0
  -27.5945  -21.8637   19.9984 C   0  0  0  0  0  0  0  0  0  0  0  0
  -28.3987  -13.9455   17.3398 C   0  0  0  0  0  0  0  0  0  0  0  0
  -27.8562  -13.5337   19.7083 C   0  0  0  0  0  0  0  0  0  0  0  0
  -29.5223  -24.0868   19.9868 C   0  0  0  0  0  0  0  0  0  0  0  0
  -27.1445  -23.3078   19.8174 C   0  0  0  0  0  0  0  0  0  0  0  0
  -23.9669  -35.7668   23.9952 C   0  0  1  0  0  0  0  0  0  0  0  0
  -28.8979  -21.7767   20.8087 C   0  0  0  0  0  0  0  0  0  0  0  0
  -22.3132  -33.1077   21.8440 C   0  0  1  0  0  0  0  0  0  0  0  0
  -26.3621  -13.7929   19.4501 C   0  0  2  0  0  0  0  0  0  0  0  0
  -29.0162  -17.2481   22.9832 C   0  0  0  0  0  0  0  0  0  0  0  0
  -16.3032  -28.2221   21.9644 C   0  0  0  0  0  0  0  0  0  0  0  0
  -26.9136  -25.4492   17.6251 C   0  0  0  0  0  0  0  0  0  0  0  0
  -20.4043  -31.7168   25.8166 C   0  0  0  0  0  0  0  0  0  0  0  0
  -18.6417  -29.9512   25.6063 C   0  0  0  0  0  0  0  0  0  0  0  0
  -18.1391  -32.2994   24.9311 C   0  0  0  0  0  0  0  0  0  0  0  0
  -18.6844  -28.8231   19.0584 C   0  0  0  0  0  0  0  0  0  0  0  0
  -30.8279  -16.4591   20.8534 C   0  0  0  0  0  0  0  0  0  0  0  0
  -27.0942  -26.1109   20.0562 C   0  0  0  0  0  0  0  0  0  0  0  0
  -26.9647  -27.6289   19.9951 C   0  0  0  0  0  0  0  0  0  1  0  0
  -19.6629  -30.8930   23.4847 C   0  0  1  0  0  0  0  0  0  0  0  0
  -17.3540  -28.9785   21.1666 C   0  0  2  0  0  0  0  0  0  0  0  0
  -27.8160  -25.5054   18.8507 C   0  0  1  0  0  0  0  0  0  0  0  0
  -19.2364  -31.2129   24.9453 C   0  0  0  0  0  0  0  0  0  0  0  0
  -25.0270  -11.8219   20.0943 N   0  0  0  0  0  0  0  0  0  0  0  0
  -30.1998  -19.9589   19.9235 N   0  0  0  0  0  0  0  0  0  0  0  0
  -30.6657  -18.6811   19.9304 N   0  0  0  0  0  0  0  0  0  0  0  0
  -25.4759  -13.0439   20.4280 N   0  0  0  0  0  0  0  0  0  0  0  0
  -21.5962  -31.9319   22.3415 N   0  0  0  0  0  0  0  0  0  0  0  0
  -28.6743  -14.2796   18.7392 N   0  0  0  0  0  0  0  0  0  0  0  0
  -25.4177  -14.6734   22.1462 N   0  0  0  0  0  0  0  0  0  0  0  0
  -22.8663  -11.3307   23.7935 N   0  0  0  0  0  0  0  0  0  0  0  0
  -23.2431  -35.0319   22.9801 N   0  0  0  0  0  0  0  0  0  0  0  0
  -18.5716  -30.4395   22.6293 N   0  0  0  0  0  0  0  0  0  0  0  0
  -29.8537  -15.4970   20.3886 N   0  0  0  0  0  0  0  0  0  0  0  0
  -28.2489  -24.1156   19.1660 N   0  3  0  0  0  0  0  0  0  0  0  0
  -17.6797  -28.1853   19.9477 N   0  3  0  0  0  0  0  0  0  0  0  0
  -23.6914  -13.4273   24.2208 O   0  0  0  0  0  0  0  0  0  0  0  0
  -23.5600  -32.8901   23.8372 O   0  0  0  0  0  0  0  0  0  0  0  0
  -19.6076  -33.1107   22.6450 O   0  0  0  0  0  0  0  0  0  0  0  0
  -19.5222  -28.4017   22.0630 O   0  0  0  0  0  0  0  0  0  0  0  0
  -30.3152  -15.8145   18.1653 O   0  0  0  0  0  0  0  0  0  0  0  0
  -21.7240   -6.5035   21.2581 O   0  0  0  0  0  0  0  0  0  0  0  0
  -26.2616  -28.0747   21.1541 O   0  0  0  0  0  0  0  0  0  1  0  0
  -22.0882   -3.5302   25.8874 F   0  0  0  0  0  0  0  0  0  0  0  0
  -22.8651   -3.9855   21.2404 F   0  0  0  0  0  0  0  0  0  0  0  0
  -27.8567  -20.0812   23.1394 Cl  0  0  0  0  0  0  0  0  0  0  0  0
  1  2  1  0  0  0  0
  1  5  2  0  0  0  0
  2  6  2  0  0  0  0
  3  8  2  0  0  0  0
  3 15  1  0  0  0  0
  4  9  1  0  0  0  0
  4 15  2  0  0  0  0
  5 17  1  0  0  0  0
  6 19  1  0  0  0  0
  7 10  2  0  0  0  0
  7 18  1  0  0  0  0
  8 22  1  0  0  0  0
  9 22  2  0  0  0  0
 10 23  1  0  0  0  0
 11 12  2  0  0  0  0
 11 24  1  0  0  0  0
 12 25  1  0  0  0  0
 13 20  1  0  0  0  0
 13 23  2  0  0  0  0
 14 25  2  0  0  0  0
 14 26  1  0  0  0  0
 15 28  1  0  0  0  0
 16 28  1  0  0  0  0
 16 31  2  0  0  0  0
 16 32  1  0  0  0  0
 17 19  2  0  0  0  0
 17 37  1  0  0  0  0
 18 20  2  0  0  0  0
 18 38  1  0  0  0  0
 19 50  1  0  0  0  0
 20 39  1  0  0  0  0
 21 27  1  0  0  0  0
 21 30  2  0  0  0  0
 21 54  1  0  0  0  0
 22 86  1  0  0  0  0
 23 87  1  0  0  0  0
 24 26  2  0  0  0  0
 24 86  1  0  0  0  0
 25 88  1  0  0  0  0
 26 89  1  0  0  0  0
 27 29  2  0  0  0  0
 27 90  1  0  0  0  0
 28 68  2  0  0  0  0
 29 51  1  0  0  0  0
 29 69  1  0  0  0  0
 30 61  1  0  0  0  0
 30 70  1  0  0  0  0
 31 71  1  0  0  0  0
 31 74  1  0  0  0  0
 32 75  1  0  0  0  0
 32 81  2  0  0  0  0
 33 52  1  0  0  0  0
 33 76  1  0  0  0  0
 33 82  2  0  0  0  0
 34 64  1  0  0  0  0
 34 72  1  0  0  0  0
 34 83  2  0  0  0  0
 35 65  1  0  0  0  0
 35 77  1  0  0  0  0
 35 84  2  0  0  0  0
 36 73  1  0  0  0  0
 36 78  1  0  0  0  0
 36 85  2  0  0  0  0
 37 40  1  0  0  0  0
 38 52  1  0  0  0  0
 39 72  1  0  0  0  0
 40 42  1  0  0  0  0
 41 43  1  0  0  0  0
 41 46  1  0  0  0  0
 42 50  1  0  0  0  0
 43 53  1  0  0  0  0
 44 48  1  0  0  0  0
 44 51  1  0  0  0  0
 45 49  1  0  0  0  0
 45 51  1  0  0  0  0
 46 73  1  0  0  0  0
 47 53  1  0  0  0  0
 47 73  1  0  0  0  0
 48 79  1  0  0  0  0
 49 79  1  0  0  0  0
 50 76  1  0  0  0  0
 52 72  1  0  0  0  0
 53 71  1  0  0  0  0
 55 65  1  0  0  0  0
 56 66  1  0  0  0  0
 57 67  1  0  0  0  0
 58 67  1  0  0  0  0
 59 67  1  0  0  0  0
 60 80  1  0  0  0  0
 61 78  1  0  0  0  0
 62 63  1  0  0  0  0
 62 66  1  0  0  0  0
 63 87  1  0  0  0  0
 64 67  1  0  0  0  0
 64 77  1  0  0  0  0
 65 80  1  0  0  0  0
 66 79  1  0  0  0  0
 68 71  1  0  0  0  0
 69 70  2  0  0  0  0
M  CHG  2  79   1  80   1
M  ISO  4  36 100  63 101  78 100  87 101
M  END
> <Batch ID>
0025

> <Smiles>
CNC(C)C(=O)NC(C(=O)N1Cc2cc([101O:1][101CH2:1]CC(C)N3CCC(c4nnc(C[100NH:0][100C:0](=O)N5CCCC(n6nc(-c7ccc(Oc8ccc(F)cc8F)cc7)c(C(N)=O)c6N)C5)c(C)c4Cl)CC3)ccc2CC1C(=O)NC1CCCc2ccccc21)C(C)(C)C

> <Shape>
0.325

> <Color>
0.111

> <Negative vol penalty>
0.000

$$$$

  -OEChem-04052316243D

 83 91  0     1  0  0  0  0  0999 V2000
  -26.9925  -16.4434   34.1469 C   0  0  0  0  0  0  0  0  0  0  0  0
  -27.1599  -16.4916   32.7667 C   0  0  0  0  0  0  0  0  0  0  0  0
  -22.6317  -10.2771   20.2329 C   0  0  0  0  0  0  0  0  0  0  0  0
  -24.2548   -9.5324   21.8603 C   0  0  0  0  0  0  0  0  0  0  0  0
  -25.9386  -15.7136   34.6951 C   0  0  0  0  0  0  0  0  0  0  0  0
  -26.2739  -15.8091   31.9338 C   0  0  0  0  0  0  0  0  0  0  0  0
  -24.7951  -18.5946   27.9716 C   0  0  0  0  0  0  0  0  0  0  0  0
  -21.8778   -9.1253   20.4577 C   0  0  0  0  0  0  0  0  0  0  0  0
  -23.5009   -8.3806   22.0851 C   0  0  0  0  0  0  0  0  0  0  0  0
  -25.6895  -18.7156   26.9090 C   0  0  0  0  0  0  0  0  0  0  0  0
  -19.6968   -7.9892   22.7783 C   0  0  0  0  0  0  0  0  0  0  0  0
  -18.3176   -8.1358   22.9266 C   0  0  0  0  0  0  0  0  0  0  0  0
  -24.4729  -17.0194   25.6998 C   0  0  0  0  0  0  0  0  0  0  0  0
  -17.9596   -6.7005   21.0164 C   0  0  0  0  0  0  0  0  0  0  0  0
  -23.8202  -10.4807   20.9342 C   0  0  0  0  0  0  0  0  0  0  0  0
  -24.1907  -13.0042   20.8878 C   0  0  0  0  0  0  0  0  0  0  0  0
  -25.0336  -15.0297   33.8681 C   0  0  0  0  0  0  0  0  0  0  0  0
  -23.7375  -17.6758   27.9107 C   0  0  0  0  0  0  0  0  0  0  0  0
  -25.2077  -15.0683   32.4715 C   0  0  0  0  0  0  0  0  0  0  0  0
  -23.5649  -16.8906   26.7619 C   0  0  0  0  0  0  0  0  0  0  0  0
  -28.1702  -20.0375   22.7111 C   0  0  0  0  0  0  0  0  0  0  0  0
  -29.1747  -17.9442   23.3789 C   0  0  0  0  0  0  0  0  0  0  0  0
  -28.2867  -18.9911   23.6260 C   0  0  0  0  0  0  0  0  0  0  0  0
  -28.9418  -20.0370   21.5490 C   0  0  0  0  0  0  0  0  0  0  0  0
  -29.9463  -17.9437   22.2168 C   0  0  0  0  0  0  0  0  0  0  0  0
  -22.3124   -8.1770   21.3838 C   0  0  0  0  0  0  0  0  0  0  0  0
  -25.5302  -17.9259   25.7741 C   0  0  0  0  0  0  0  0  0  0  0  0
  -20.2074   -7.1983   21.7490 C   0  0  0  0  0  0  0  0  0  0  0  0
  -17.4490   -7.4914   22.0457 C   0  0  0  0  0  0  0  0  0  0  0  0
  -19.3388   -6.5539   20.8681 C   0  0  0  0  0  0  0  0  0  0  0  0
  -29.8298  -18.9901   21.3019 C   0  0  0  0  0  0  0  0  0  0  0  0
  -24.5997  -11.6700   20.7020 C   0  0  0  0  0  0  0  0  0  0  0  0
  -25.2863  -13.7520   20.5314 C   0  0  0  0  0  0  0  0  0  0  0  0
  -22.9330  -13.5214   21.3420 C   0  0  0  0  0  0  0  0  0  0  0  0
  -22.8890  -15.1171   29.5950 C   0  0  0  0  0  0  0  0  0  0  0  0
  -20.2508  -15.2344   27.7114 C   0  0  0  0  0  0  0  0  0  0  0  0
  -18.8285  -16.2404   24.7768 C   0  0  0  0  0  0  0  0  0  0  0  0
  -30.7842  -14.7009   20.6677 C   0  0  0  0  0  0  0  0  0  0  0  0
  -23.9376  -14.2153   34.5087 C   0  0  0  0  0  0  0  0  0  0  0  0
  -22.7655  -17.5765   29.0543 C   0  0  0  0  0  0  0  0  0  0  0  0
  -22.4340  -15.9036   26.6385 C   0  0  0  0  0  0  0  0  0  0  0  0
  -22.8222  -13.8275   33.5414 C   0  0  0  0  0  0  0  0  0  0  0  0
  -29.5824  -12.4058   18.2253 C   0  0  0  0  0  0  0  0  0  0  0  0
  -23.4077  -13.2931   32.2381 C   0  0  0  0  0  0  0  0  0  0  0  0
  -28.1481  -12.1154   18.6708 C   0  0  0  0  0  0  0  0  0  0  0  0
  -30.5199  -12.5782   19.4184 C   0  0  0  0  0  0  0  0  0  0  0  0
  -28.6480  -13.2874   20.8560 C   0  0  0  0  0  0  0  0  0  0  0  0
  -24.2529  -14.3615   31.5340 C   0  0  1  0  0  0  0  0  0  0  0  0
  -22.0269  -16.2423   29.0965 C   0  0  1  0  0  0  0  0  0  0  0  0
  -27.6544  -13.1612   19.6885 C   0  0  2  0  0  0  0  0  0  0  0  0
  -27.2166  -21.1595   22.9780 C   0  0  0  0  0  0  0  0  0  0  0  0
  -29.2977  -16.8218   24.3610 C   0  0  0  0  0  0  0  0  0  0  0  0
  -28.8025  -21.1692   20.5786 C   0  0  0  0  0  0  0  0  0  0  0  0
  -16.6666  -16.1574   23.5053 C   0  0  0  0  0  0  0  0  0  0  0  0
  -20.7903  -12.3194   26.9888 C   0  0  0  0  0  0  0  0  0  0  0  0
  -19.2255  -12.5825   25.0522 C   0  0  0  0  0  0  0  0  0  0  0  0
  -18.3823  -12.8681   27.3824 C   0  0  0  0  0  0  0  0  0  0  0  0
  -18.5890  -19.1902   24.7633 C   0  0  0  0  0  0  0  0  0  0  0  0
  -30.8945  -16.8106   21.9699 C   0  0  0  0  0  0  0  0  0  0  0  0
  -27.4573  -18.9919   24.8764 C   0  0  0  0  0  0  0  0  0  1  0  0
  -19.8653  -14.6501   26.3738 C   0  0  1  0  0  0  0  0  0  0  0  0
  -17.5193  -16.9505   24.4833 C   0  0  2  0  0  0  0  0  0  0  0  0
  -19.5884  -13.1222   26.4521 C   0  0  0  0  0  0  0  0  0  0  0  0
  -25.8570  -11.5727   20.2616 N   0  0  0  0  0  0  0  0  0  0  0  0
  -26.2474  -12.8552   20.1677 N   0  0  0  0  0  0  0  0  0  0  0  0
  -21.5137  -15.8386   27.7858 N   0  0  0  0  0  0  0  0  0  0  0  0
  -29.9951  -13.5847   20.3443 N   0  0  0  0  0  0  0  0  0  0  0  0
  -25.5117  -15.0826   20.4968 N   0  0  0  0  0  0  0  0  0  0  0  0
  -22.7512  -13.7243   22.7168 N   0  0  0  0  0  0  0  0  0  0  0  0
  -23.4002  -15.3191   30.8628 N   0  0  0  0  0  0  0  0  0  0  0  0
  -18.7351  -15.4384   25.8945 N   0  0  0  0  0  0  0  0  0  0  0  0
  -30.2089  -15.6097   21.5473 N   0  0  0  0  0  0  0  0  0  0  0  0
  -17.7797  -18.2954   23.8964 N   0  3  0  0  0  0  0  0  0  0  0  0
  -21.9921  -13.7799   20.5536 O   0  0  0  0  0  0  0  0  0  0  0  0
  -23.0754  -14.1375   28.8826 O   0  0  0  0  0  0  0  0  0  0  0  0
  -19.4575  -15.1637   28.6534 O   0  0  0  0  0  0  0  0  0  0  0  0
  -19.8324  -16.3800   24.0816 O   0  0  0  0  0  0  0  0  0  0  0  0
  -31.9153  -14.8773   20.2025 O   0  0  0  0  0  0  0  0  0  0  0  0
  -21.5769   -7.0531   21.6036 O   0  0  0  0  0  0  0  0  0  0  0  0
  -26.4022  -18.0415   24.7357 O   0  0  0  0  0  0  0  0  0  1  0  0
  -16.1246   -7.6311   22.1891 F   0  0  0  0  0  0  0  0  0  0  0  0
  -19.8235   -5.7918   19.8781 F   0  0  0  0  0  0  0  0  0  0  0  0
  -30.7882  -18.9884   19.8578 Cl  0  0  0  0  0  0  0  0  0  0  0  0
  1  2  1  0  0  0  0
  1  5  2  0  0  0  0
  2  6  2  0  0  0  0
  3  8  2  0  0  0  0
  3 15  1  0  0  0  0
  4  9  1  0  0  0  0
  4 15  2  0  0  0  0
  5 17  1  0  0  0  0
  6 19  1  0  0  0  0
  7 10  2  0  0  0  0
  7 18  1  0  0  0  0
  8 26  1  0  0  0  0
  9 26  2  0  0  0  0
 10 27  1  0  0  0  0
 11 12  2  0  0  0  0
 11 28  1  0  0  0  0
 12 29  1  0  0  0  0
 13 20  1  0  0  0  0
 13 27  2  0  0  0  0
 14 29  2  0  0  0  0
 14 30  1  0  0  0  0
 15 32  1  0  0  0  0
 16 32  1  0  0  0  0
 16 33  2  0  0  0  0
 16 34  1  0  0  0  0
 17 19  2  0  0  0  0
 17 39  1  0  0  0  0
 18 20  2  0  0  0  0
 18 40  1  0  0  0  0
 19 48  1  0  0  0  0
 20 41  1  0  0  0  0
 21 23  1  0  0  0  0
 21 24  2  0  0  0  0
 21 51  1  0  0  0  0
 22 23  2  0  0  0  0
 22 25  1  0  0  0  0
 22 52  1  0  0  0  0
 23 60  1  0  0  0  0
 24 31  1  0  0  0  0
 24 53  1  0  0  0  0
 25 31  2  0  0  0  0
 25 59  1  0  0  0  0
 26 79  1  0  0  0  0
 27 80  1  0  0  0  0
 28 30  2  0  0  0  0
 28 79  1  0  0  0  0
 29 81  1  0  0  0  0
 30 82  1  0  0  0  0
 31 83  1  0  0  0  0
 32 64  2  0  0  0  0
 33 65  1  0  0  0  0
 33 68  1  0  0  0  0
 34 69  1  0  0  0  0
 34 74  2  0  0  0  0
 35 49  1  0  0  0  0
 35 70  1  0  0  0  0
 35 75  2  0  0  0  0
 36 61  1  0  0  0  0
 36 66  1  0  0  0  0
 36 76  2  0  0  0  0
 37 62  1  0  0  0  0
 37 71  1  0  0  0  0
 37 77  2  0  0  0  0
 38 67  1  0  0  0  0
 38 72  1  0  0  0  0
 38 78  2  0  0  0  0
 39 42  1  0  0  0  0
 40 49  1  0  0  0  0
 41 66  1  0  0  0  0
 42 44  1  0  0  0  0
 43 45  1  0  0  0  0
 43 46  1  0  0  0  0
 44 48  1  0  0  0  0
 45 50  1  0  0  0  0
 46 67  1  0  0  0  0
 47 50  1  0  0  0  0
 47 67  1  0  0  0  0
 48 70  1  0  0  0  0
 49 66  1  0  0  0  0
 50 65  1  0  0  0  0
 54 62  1  0  0  0  0
 55 63  1  0  0  0  0
 56 63  1  0  0  0  0
 57 63  1  0  0  0  0
 58 73  1  0  0  0  0
 59 72  1  0  0  0  0
 60 80  1  0  0  0  0
 61 63  1  0  0  0  0
 61 71  1  0  0  0  0
 62 73  1  0  0  0  0
 64 65  1  0  0  0  0
M  CHG  1  73   1
M  ISO  4  38 100  60 101  72 100  80 101
M  END
> <Batch ID>
0025

> <Smiles>
CNC(C)C(=O)NC(C(=O)N1Cc2cc([101O:1][101CH2:1]c3c(C)c(C)c(Cl)c(C[100NH:0][100C:0](=O)N4CCCC(n5nc(-c6ccc(Oc7ccc(F)cc7F)cc6)c(C(N)=O)c5N)C4)c3C)ccc2CC1C(=O)NC1CCCc2ccccc21)C(C)(C)C

> <Shape>
0.169

> <Color>
0.180

> <Negative vol penalty>
0.000

$$$$

  -OEChem-04052316243D

 86 94  0     1  0  0  0  0  0999 V2000
  -16.7814  -28.4679   23.7638 C   0  0  0  0  0  0  0  0  0  0  0  0
  -17.4539  -27.8138   22.7365 C   0  0  0  0  0  0  0  0  0  0  0  0
  -28.3592  -14.3180   18.6041 C   0  0  0  0  0  0  0  0  0  0  0  0
  -28.8573  -13.5207   20.8297 C   0  0  0  0  0  0  0  0  0  0  0  0
  -17.2662  -29.6807   24.2515 C   0  0  0  0  0  0  0  0  0  0  0  0
  -18.6111  -28.3730   22.1955 C   0  0  0  0  0  0  0  0  0  0  0  0
  -22.3054  -24.9663   21.5694 C   0  0  0  0  0  0  0  0  0  0  0  0
  -28.5978  -13.0421   18.0936 C   0  0  0  0  0  0  0  0  0  0  0  0
  -29.0960  -12.2447   20.3191 C   0  0  0  0  0  0  0  0  0  0  0  0
  -22.2089  -24.1176   20.4675 C   0  0  0  0  0  0  0  0  0  0  0  0
  -28.7246   -9.9102   16.2524 C   0  0  0  0  0  0  0  0  0  0  0  0
  -27.8151   -9.4022   15.3249 C   0  0  0  0  0  0  0  0  0  0  0  0
  -23.7853  -25.4989   19.2733 C   0  0  0  0  0  0  0  0  0  0  0  0
  -29.0584  -20.5803   17.6345 C   0  0  0  0  0  0  0  0  0  0  0  0
  -26.0458   -9.5849   16.9600 C   0  0  0  0  0  0  0  0  0  0  0  0
  -28.4890  -14.5573   19.9722 C   0  0  0  0  0  0  0  0  0  0  0  0
  -27.0169  -16.3918   20.9599 C   0  0  0  0  0  0  0  0  0  0  0  0
  -18.4353  -30.2502   23.7228 C   0  0  0  0  0  0  0  0  0  0  0  0
  -23.1357  -26.0956   21.5276 C   0  0  0  0  0  0  0  0  0  0  0  0
  -19.1113  -29.5953   22.6756 C   0  0  0  0  0  0  0  0  0  0  0  0
  -23.8925  -26.3589   20.3769 C   0  0  0  0  0  0  0  0  0  0  0  0
  -27.6766  -20.3912   17.6543 C   0  0  0  0  0  0  0  0  0  0  0  0
  -26.8973  -21.0410   18.6115 C   0  0  0  0  0  0  0  0  0  0  0  0
  -29.6611  -21.4190   18.5721 C   0  0  0  0  0  0  0  0  0  0  0  0
  -28.9662  -12.0055   18.9511 C   0  0  0  0  0  0  0  0  0  0  0  0
  -22.9467  -24.3855   19.3181 C   0  0  0  0  0  0  0  0  0  0  0  0
  -28.2948  -10.2554   17.5338 C   0  0  0  0  0  0  0  0  0  0  0  0
  -26.4756   -9.2396   15.6787 C   0  0  0  0  0  0  0  0  0  0  0  0
  -26.9554  -10.0927   17.8875 C   0  0  0  0  0  0  0  0  0  0  0  0
  -27.5000  -21.8798   19.5490 C   0  0  0  0  0  0  0  0  0  0  0  0
  -28.8818  -22.0688   19.5293 C   0  0  0  0  0  0  0  0  0  0  0  0
  -28.2432  -15.8753   20.5001 C   0  0  0  0  0  0  0  0  0  0  0  0
  -27.3108  -17.6741   21.3545 C   0  0  0  0  0  0  0  0  0  0  0  0
  -25.7275  -15.7681   21.0246 C   0  0  0  0  0  0  0  0  0  0  0  0
  -22.6690  -29.2321   21.7465 C   0  0  0  0  0  0  0  0  0  0  0  0
  -25.9113  -29.3240   21.7041 C   0  0  0  0  0  0  0  0  0  0  0  0
  -28.8414  -27.8092   20.8283 C   0  0  0  0  0  0  0  0  0  0  0  0
  -31.9517  -21.2502   19.5800 C   0  0  0  0  0  0  0  0  0  0  0  0
  -18.8946  -31.5865   24.2501 C   0  0  0  0  0  0  0  0  0  0  0  0
  -23.2491  -26.9863   22.7343 C   0  0  0  0  0  0  0  0  0  0  0  0
  -24.8140  -27.5469   20.2886 C   0  0  0  0  0  0  0  0  0  0  0  0
  -20.3357  -31.9255   23.8779 C   0  0  0  0  0  0  0  0  0  0  0  0
  -30.8840  -20.3804   23.0146 C   0  0  0  0  0  0  0  0  0  0  0  0
  -20.5857  -31.6436   22.3998 C   0  0  0  0  0  0  0  0  0  0  0  0
  -30.0497  -19.1188   22.8013 C   0  0  0  0  0  0  0  0  0  0  0  0
  -31.9637  -20.5325   21.9475 C   0  0  0  0  0  0  0  0  0  0  0  0
  -30.5940  -19.2392   20.3374 C   0  0  0  0  0  0  0  0  0  0  0  0
  -20.3836  -30.1576   22.0797 C   0  0  1  0  0  0  0  0  0  0  0  0
  -23.7331  -28.3928   22.3954 C   0  0  1  0  0  0  0  0  0  0  0  0
  -29.4732  -19.0842   21.3763 C   0  0  1  0  0  0  0  0  0  0  0  0
  -27.0586  -19.4872   16.6380 C   0  0  0  0  0  0  0  0  0  0  0  0
  -31.3194  -27.4417   20.6810 C   0  0  0  0  0  0  0  0  0  0  0  0
  -22.7688  -21.5980   16.0493 C   0  0  0  0  0  0  0  0  0  0  0  0
  -25.7004  -31.2983   19.3873 C   0  0  0  0  0  0  0  0  0  0  0  0
  -28.1141  -30.8611   18.8864 C   0  0  0  0  0  0  0  0  0  0  0  0
  -27.4572  -31.8568   21.0772 C   0  0  0  0  0  0  0  0  0  0  0  0
  -31.6474  -22.3742   17.4177 C   0  0  0  0  0  0  0  0  0  0  0  0
  -28.8847  -26.2937   23.3700 C   0  0  0  0  0  0  0  0  0  0  0  0
  -25.4134  -20.8202   18.6103 C   0  0  0  0  0  0  0  0  0  0  0  0
  -22.5721  -22.1843   18.4994 C   0  0  0  0  0  0  0  0  0  1  0  0
  -26.9641  -29.4185   20.6263 C   0  0  1  0  0  0  0  0  0  0  0  0
  -30.1200  -27.5622   21.6083 C   0  0  2  0  0  0  0  0  0  0  0  0
  -23.2481  -21.2971   17.4601 C   0  0  2  0  0  0  0  0  0  0  0  0
  -27.0402  -30.8373   19.9950 C   0  0  0  0  0  0  0  0  0  0  0  0
  -29.2417  -16.7575   20.5933 N   0  0  0  0  0  0  0  0  0  0  0  0
  -28.6432  -17.8414   21.1160 N   0  0  0  0  0  0  0  0  0  0  0  0
  -24.8858  -28.3916   21.4923 N   0  0  0  0  0  0  0  0  0  0  0  0
  -31.4088  -20.4375   20.5963 N   0  0  0  0  0  0  0  0  0  0  0  0
  -26.5569  -18.6637   21.8785 N   0  0  0  0  0  0  0  0  0  0  0  0
  -25.6019  -14.4456   20.5781 N   0  0  0  0  0  0  0  0  0  0  0  0
  -21.5295  -29.3869   22.5126 N   0  0  0  0  0  0  0  0  0  0  0  0
  -28.2115  -28.9670   21.2335 N   0  0  0  0  0  0  0  0  0  0  0  0
  -31.0927  -21.5866   18.5164 N   0  0  0  0  0  0  0  0  0  0  0  0
  -30.0093  -26.3041   22.3994 N   0  3  0  0  0  0  0  0  0  0  0  0
  -24.7186  -21.5414   17.5137 N   0  3  0  0  0  0  0  0  0  0  0  0
  -24.7134  -16.3715   21.4501 O   0  0  0  0  0  0  0  0  0  0  0  0
  -22.8678  -29.7056   20.6338 O   0  0  0  0  0  0  0  0  0  0  0  0
  -25.9995  -30.0456   22.7006 O   0  0  0  0  0  0  0  0  0  0  0  0
  -28.4432  -27.0529   19.9451 O   0  0  0  0  0  0  0  0  0  0  0  0
  -33.1364  -21.6063   19.5898 O   0  0  0  0  0  0  0  0  0  0  0  0
  -29.1989  -10.7602   18.4532 O   0  0  0  0  0  0  0  0  0  0  0  0
  -22.8539  -23.5591   18.2409 O   0  0  0  0  0  0  0  0  0  1  0  0
  -25.6020   -8.7533   14.7874 F   0  0  0  0  0  0  0  0  0  0  0  0
  -26.5363  -10.4237   19.1166 F   0  0  0  0  0  0  0  0  0  0  0  0
  -26.5038  -22.6753   20.7287 Cl  0  0  0  0  0  0  0  0  0  0  0  0
  -29.6581  -23.1085   20.6860 Cl  0  0  0  0  0  0  0  0  0  0  0  0
  1  2  1  0  0  0  0
  1  5  2  0  0  0  0
  2  6  2  0  0  0  0
  3  8  2  0  0  0  0
  3 16  1  0  0  0  0
  4  9  1  0  0  0  0
  4 16  2  0  0  0  0
  5 18  1  0  0  0  0
  6 20  1  0  0  0  0
  7 10  2  0  0  0  0
  7 19  1  0  0  0  0
  8 25  1  0  0  0  0
  9 25  2  0  0  0  0
 10 26  1  0  0  0  0
 11 12  2  0  0  0  0
 11 27  1  0  0  0  0
 12 28  1  0  0  0  0
 13 21  1  0  0  0  0
 13 26  2  0  0  0  0
 14 22  2  0  0  0  0
 14 24  1  0  0  0  0
 15 28  2  0  0  0  0
 15 29  1  0  0  0  0
 16 32  1  0  0  0  0
 17 32  1  0  0  0  0
 17 33  2  0  0  0  0
 17 34  1  0  0  0  0
 18 20  2  0  0  0  0
 18 39  1  0  0  0  0
 19 21  2  0  0  0  0
 19 40  1  0  0  0  0
 20 48  1  0  0  0  0
 21 41  1  0  0  0  0
 22 23  1  0  0  0  0
 22 51  1  0  0  0  0
 23 30  2  0  0  0  0
 23 59  1  0  0  0  0
 24 31  2  0  0  0  0
 24 73  1  0  0  0  0
 25 81  1  0  0  0  0
 26 82  1  0  0  0  0
 27 29  2  0  0  0  0
 27 81  1  0  0  0  0
 28 83  1  0  0  0  0
 29 84  1  0  0  0  0
 30 31  1  0  0  0  0
 30 85  1  0  0  0  0
 31 86  1  0  0  0  0
 32 65  2  0  0  0  0
 33 66  1  0  0  0  0
 33 69  1  0  0  0  0
 34 70  1  0  0  0  0
 34 76  2  0  0  0  0
 35 49  1  0  0  0  0
 35 71  1  0  0  0  0
 35 77  2  0  0  0  0
 36 61  1  0  0  0  0
 36 67  1  0  0  0  0
 36 78  2  0  0  0  0
 37 62  1  0  0  0  0
 37 72  1  0  0  0  0
 37 79  2  0  0  0  0
 38 68  1  0  0  0  0
 38 73  1  0  0  0  0
 38 80  2  0  0  0  0
 39 42  1  0  0  0  0
 40 49  1  0  0  0  0
 41 67  1  0  0  0  0
 42 44  1  0  0  0  0
 43 45  1  0  0  0  0
 43 46  1  0  0  0  0
 44 48  1  0  0  0  0
 45 50  1  0  0  0  0
 46 68  1  0  0  0  0
 47 50  1  0  0  0  0
 47 68  1  0  0  0  0
 48 71  1  0  0  0  0
 49 67  1  0  0  0  0
 50 66  1  0  0  0  0
 52 62  1  0  0  0  0
 53 63  1  0  0  0  0
 54 64  1  0  0  0  0
 55 64  1  0  0  0  0
 56 64  1  0  0  0  0
 57 73  1  0  0  0  0
 58 74  1  0  0  0  0
 59 75  1  0  0  0  0
 60 63  1  0  0  0  0
 60 82  1  0  0  0  0
 61 64  1  0  0  0  0
 61 72  1  0  0  0  0
 62 74  1  0  0  0  0
 63 75  1  0  0  0  0
 65 66  1  0  0  0  0
M  CHG  2  74   1  75   1
M  ISO  4  38 100  60 101  73 100  82 101
M  END
> <Batch ID>
0025

> <Smiles>
CNC(C)C(=O)NC(C(=O)N1Cc2cc([101O:1][101CH2:1]C(C)NCc3c(C)cc([100N:0](C)[100C:0](=O)N4CCCC(n5nc(-c6ccc(Oc7ccc(F)cc7F)cc6)c(C(N)=O)c5N)C4)c(Cl)c3Cl)ccc2CC1C(=O)NC1CCCc2ccccc21)C(C)(C)C

> <Shape>
0.234

> <Color>
0.080

> <Negative vol penalty>
0.000

$$$$

  -OEChem-04052316243D

 89 98  0     1  0  0  0  0  0999 V2000
  -24.8873  -35.6100   22.2830 C   0  0  0  0  0  0  0  0  0  0  0  0
  -24.5189  -34.9002   23.4214 C   0  0  0  0  0  0  0  0  0  0  0  0
  -23.4354  -10.3747   22.6230 C   0  0  0  0  0  0  0  0  0  0  0  0
  -24.9055  -11.4628   24.2016 C   0  0  0  0  0  0  0  0  0  0  0  0
  -24.9095  -34.9734   21.0428 C   0  0  0  0  0  0  0  0  0  0  0  0
  -24.1715  -33.5535   23.3200 C   0  0  0  0  0  0  0  0  0  0  0  0
  -27.1332  -27.3331   27.0026 C   0  0  0  0  0  0  0  0  0  0  0  0
  -22.9616   -9.5430   23.6375 C   0  0  0  0  0  0  0  0  0  0  0  0
  -24.4316  -10.6312   25.2162 C   0  0  0  0  0  0  0  0  0  0  0  0
  -27.6806  -26.1395   27.4734 C   0  0  0  0  0  0  0  0  0  0  0  0
  -20.7799   -9.7496   26.2125 C   0  0  0  0  0  0  0  0  0  0  0  0
  -19.4018   -9.5519   26.2979 C   0  0  0  0  0  0  0  0  0  0  0  0
  -30.2407  -17.1862   25.6699 C   0  0  0  0  0  0  0  0  0  0  0  0
  -29.7474  -19.0364   24.1967 C   0  0  0  0  0  0  0  0  0  0  0  0
  -26.9030  -24.9894   25.4934 C   0  0  0  0  0  0  0  0  0  0  0  0
  -19.7223   -7.1791   25.9749 C   0  0  0  0  0  0  0  0  0  0  0  0
  -24.4075  -11.3346   22.9050 C   0  0  0  0  0  0  0  0  0  0  0  0
  -24.1489  -13.0939   21.0758 C   0  0  0  0  0  0  0  0  0  0  0  0
  -24.5715  -33.6158   20.9276 C   0  0  0  0  0  0  0  0  0  0  0  0
  -26.4812  -27.3628   25.7667 C   0  0  0  0  0  0  0  0  0  0  0  0
  -24.1880  -32.8985   22.0768 C   0  0  0  0  0  0  0  0  0  0  0  0
  -29.7035  -18.4570   25.4648 C   0  0  0  0  0  0  0  0  0  0  0  0
  -26.3636  -26.1848   25.0108 C   0  0  0  0  0  0  0  0  0  0  0  0
  -30.8220  -16.4948   24.6069 C   0  0  0  0  0  0  0  0  0  0  0  0
  -30.3287  -18.3450   23.1337 C   0  0  0  0  0  0  0  0  0  0  0  0
  -30.8659  -17.0742   23.3389 C   0  0  0  0  0  0  0  0  0  0  0  0
  -23.4596   -9.6713   24.9341 C   0  0  0  0  0  0  0  0  0  0  0  0
  -27.5656  -24.9705   26.7208 C   0  0  0  0  0  0  0  0  0  0  0  0
  -21.6292   -8.6621   26.0082 C   0  0  0  0  0  0  0  0  0  0  0  0
  -18.8730   -8.2666   26.1791 C   0  0  0  0  0  0  0  0  0  0  0  0
  -21.1004   -7.3769   25.8894 C   0  0  0  0  0  0  0  0  0  0  0  0
  -24.8978  -12.1937   21.8573 C   0  0  0  0  0  0  0  0  0  0  0  0
  -25.0700  -13.6640   20.2314 C   0  0  0  0  0  0  0  0  0  0  0  0
  -22.7462  -13.3884   21.1102 C   0  0  0  0  0  0  0  0  0  0  0  0
  -24.6609  -29.4118   23.2047 C   0  0  0  0  0  0  0  0  0  0  0  0
  -26.5062  -27.5011   21.6703 C   0  0  0  0  0  0  0  0  0  0  0  0
  -28.5631  -26.0014   19.3993 C   0  0  0  0  0  0  0  0  0  0  0  0
  -30.9879  -14.4910   20.6128 C   0  0  0  0  0  0  0  0  0  0  0  0
  -24.5647  -32.9830   19.5585 C   0  0  0  0  0  0  0  0  0  0  0  0
  -25.8229  -28.6126   25.2487 C   0  0  0  0  0  0  0  0  0  0  0  0
  -25.6235  -26.2566   23.7032 C   0  0  0  0  0  0  0  0  0  0  0  0
  -24.5443  -31.4570   19.5929 C   0  0  0  0  0  0  0  0  0  0  0  0
  -29.2310  -12.7421   18.0571 C   0  0  0  0  0  0  0  0  0  0  0  0
  -29.8247  -20.5127   26.9349 C   0  0  0  0  0  0  0  0  0  0  0  0
  -27.5759  -19.4721   26.3826 C   0  0  0  0  0  0  0  0  0  0  0  0
  -23.5015  -30.9593   20.5888 C   0  0  0  0  0  0  0  0  0  0  0  0
  -27.8536  -12.4845   18.6708 C   0  0  0  0  0  0  0  0  0  0  0  0
  -29.1845  -21.2646   28.1035 C   0  0  0  0  0  0  0  0  0  0  0  0
  -26.9438  -20.2285   27.5528 C   0  0  0  0  0  0  0  0  0  0  0  0
  -30.3417  -12.6388   19.1000 C   0  0  0  0  0  0  0  0  0  0  0  0
  -28.7728  -13.2250   20.9080 C   0  0  0  0  0  0  0  0  0  0  0  0
  -29.0715  -19.2098   26.6217 C   0  0  0  0  0  0  0  0  0  0  0  0
  -23.8283  -31.4300   22.0112 C   0  0  1  0  0  0  0  0  0  0  0  0
  -25.9047  -28.7476   23.7176 C   0  0  1  0  0  0  0  0  0  0  0  0
  -27.6150  -13.3733   19.9062 C   0  0  2  0  0  0  0  0  0  0  0  0
  -27.6775  -21.5421   27.9043 C   0  0  0  0  0  0  0  0  0  0  0  0
  -31.3892  -15.1349   24.8529 C   0  0  0  0  0  0  0  0  0  0  0  0
  -30.3630  -18.9875   21.7855 C   0  0  0  0  0  0  0  0  0  0  0  0
  -25.6409  -22.3907   29.0791 C   0  0  0  0  0  0  0  0  0  0  0  0
  -28.6781  -25.3403   16.9813 C   0  0  0  0  0  0  0  0  0  0  0  0
  -24.6381  -25.1549   22.2267 C   0  0  0  0  0  0  0  0  0  0  0  0
  -25.5258  -24.0505   20.1626 C   0  0  0  0  0  0  0  0  0  0  0  0
  -24.3253  -26.2304   19.9907 C   0  0  0  0  0  0  0  0  0  0  0  0
  -30.9198  -27.7262   18.9200 C   0  0  0  0  0  0  0  0  0  0  0  0
  -31.4888  -16.3325   22.1993 C   0  0  0  0  0  0  0  0  0  0  0  0
  -27.0954  -22.1043   29.2150 C   0  0  0  0  0  0  0  0  0  0  0  0
  -27.4621  -22.5955   26.8003 C   0  0  0  0  0  0  0  0  0  1  0  0
  -26.6537  -26.1719   20.9741 C   0  0  1  0  0  0  0  0  0  0  0  0
  -28.9988  -26.4173   18.0059 C   0  0  2  0  0  0  0  0  0  0  0  0
  -25.3034  -25.4098   20.8594 C   0  0  0  0  0  0  0  0  0  0  0  0
  -26.1946  -12.1887   21.5376 N   0  0  0  0  0  0  0  0  0  0  0  0
  -26.2679  -13.0927   20.5459 N   0  0  0  0  0  0  0  0  0  0  0  0
  -26.0038  -27.4784   22.9771 N   0  0  0  0  0  0  0  0  0  0  0  0
  -30.0555  -13.5071   20.2447 N   0  0  0  0  0  0  0  0  0  0  0  0
  -24.9640  -14.5933   19.2579 N   0  0  0  0  0  0  0  0  0  0  0  0
  -21.9440  -12.7120   22.0394 N   0  0  0  0  0  0  0  0  0  0  0  0
  -24.8868  -30.6233   22.5798 N   0  0  0  0  0  0  0  0  0  0  0  0
  -27.2930  -26.4510   19.6927 N   0  0  0  0  0  0  0  0  0  0  0  0
  -30.6359  -15.2748   21.7048 N   0  0  0  0  0  0  0  0  0  0  0  0
  -30.4670  -26.6716   17.9767 N   0  3  0  0  0  0  0  0  0  0  0  0
  -22.2169  -14.2146   20.3287 O   0  0  0  0  0  0  0  0  0  0  0  0
  -23.5753  -28.8656   23.3624 O   0  0  0  0  0  0  0  0  0  0  0  0
  -26.8217  -28.5336   21.0722 O   0  0  0  0  0  0  0  0  0  0  0  0
  -29.2764  -25.3405   20.1508 O   0  0  0  0  0  0  0  0  0  0  0  0
  -32.0527  -14.6620   20.0095 O   0  0  0  0  0  0  0  0  0  0  0  0
  -22.9973   -8.8600   25.9244 O   0  0  0  0  0  0  0  0  0  0  0  0
  -28.1062  -23.8096   27.1842 O   0  0  0  0  0  0  0  0  0  1  0  0
  -17.5497   -8.0767   26.2627 F   0  0  0  0  0  0  0  0  0  0  0  0
  -21.9114   -6.3281   25.6942 F   0  0  0  0  0  0  0  0  0  0  0  0
  1  2  1  0  0  0  0
  1  5  2  0  0  0  0
  2  6  2  0  0  0  0
  3  8  2  0  0  0  0
  3 17  1  0  0  0  0
  4  9  1  0  0  0  0
  4 17  2  0  0  0  0
  5 19  1  0  0  0  0
  6 21  1  0  0  0  0
  7 10  2  0  0  0  0
  7 20  1  0  0  0  0
  8 27  1  0  0  0  0
  9 27  2  0  0  0  0
 10 28  1  0  0  0  0
 11 12  2  0  0  0  0
 11 29  1  0  0  0  0
 12 30  1  0  0  0  0
 13 22  1  0  0  0  0
 13 24  2  0  0  0  0
 14 22  2  0  0  0  0
 14 25  1  0  0  0  0
 15 23  1  0  0  0  0
 15 28  2  0  0  0  0
 16 30  2  0  0  0  0
 16 31  1  0  0  0  0
 17 32  1  0  0  0  0
 18 32  1  0  0  0  0
 18 33  2  0  0  0  0
 18 34  1  0  0  0  0
 19 21  2  0  0  0  0
 19 39  1  0  0  0  0
 20 23  2  0  0  0  0
 20 40  1  0  0  0  0
 21 53  1  0  0  0  0
 22 52  1  0  0  0  0
 23 41  1  0  0  0  0
 24 26  1  0  0  0  0
 24 57  1  0  0  0  0
 25 26  2  0  0  0  0
 25 58  1  0  0  0  0
 26 65  1  0  0  0  0
 27 86  1  0  0  0  0
 28 87  1  0  0  0  0
 29 31  2  0  0  0  0
 29 86  1  0  0  0  0
 30 88  1  0  0  0  0
 31 89  1  0  0  0  0
 32 71  2  0  0  0  0
 33 72  1  0  0  0  0
 33 75  1  0  0  0  0
 34 76  1  0  0  0  0
 34 81  2  0  0  0  0
 35 54  1  0  0  0  0
 35 77  1  0  0  0  0
 35 82  2  0  0  0  0
 36 68  1  0  0  0  0
 36 73  1  0  0  0  0
 36 83  2  0  0  0  0
 37 69  1  0  0  0  0
 37 78  1  0  0  0  0
 37 84  2  0  0  0  0
 38 74  1  0  0  0  0
 38 79  1  0  0  0  0
 38 85  2  0  0  0  0
 39 42  1  0  0  0  0
 40 54  1  0  0  0  0
 41 73  1  0  0  0  0
 42 46  1  0  0  0  0
 43 47  1  0  0  0  0
 43 50  1  0  0  0  0
 44 48  1  0  0  0  0
 44 52  1  0  0  0  0
 45 49  1  0  0  0  0
 45 52  1  0  0  0  0
 46 53  1  0  0  0  0
 47 55  1  0  0  0  0
 48 56  1  0  0  0  0
 49 56  1  0  0  0  0
 50 74  1  0  0  0  0
 51 55  1  0  0  0  0
 51 74  1  0  0  0  0
 53 77  1  0  0  0  0
 54 73  1  0  0  0  0
 55 72  1  0  0  0  0
 56 66  1  0  0  0  0
 56 67  1  0  0  0  0
 59 66  1  0  0  0  0
 60 69  1  0  0  0  0
 61 70  1  0  0  0  0
 62 70  1  0  0  0  0
 63 70  1  0  0  0  0
 64 80  1  0  0  0  0
 65 79  1  0  0  0  0
 67 87  1  0  0  0  0
 68 70  1  0  0  0  0
 68 78  1  0  0  0  0
 69 80  1  0  0  0  0
 71 72  1  0  0  0  0
M  CHG  1  80   1
M  ISO  4  38 100  67 101  79 100  87 101
M  END
> <Batch ID>
0025

> <Smiles>
CCC1([101CH2:1][101O:1]c2ccc3c(c2)CN(C(=O)C(NC(=O)C(C)NC)C(C)(C)C)C(C(=O)NC2CCCc4ccccc42)C3)CCC(c2cc(C)c(C[100NH:0][100C:0](=O)N3CCCC(n4nc(-c5ccc(Oc6ccc(F)cc6F)cc5)c(C(N)=O)c4N)C3)c(C)c2)CC1

> <Shape>
0.205

> <Color>
0.123

> <Negative vol penalty>
0.000

$$$$

  -OEChem-04052316243D

 99108  0     1  0  0  0  0  0999 V2000
  -19.5056  -23.5830   20.9647 C   0  0  0  0  0  0  0  0  0  0  0  0
  -20.6638  -24.0686   20.3661 C   0  0  0  0  0  0  0  0  0  0  0  0
  -23.8429   -9.7358   19.9184 C   0  0  0  0  0  0  0  0  0  0  0  0
  -23.6641  -10.0659   22.3051 C   0  0  0  0  0  0  0  0  0  0  0  0
  -19.0164  -24.1845   22.1235 C   0  0  0  0  0  0  0  0  0  0  0  0
  -21.3328  -25.1567   20.9254 C   0  0  0  0  0  0  0  0  0  0  0  0
  -26.3458  -24.4656   21.1171 C   0  0  0  0  0  0  0  0  0  0  0  0
  -23.2701   -8.4709   20.0504 C   0  0  0  0  0  0  0  0  0  0  0  0
  -23.0912   -8.8010   22.4371 C   0  0  0  0  0  0  0  0  0  0  0  0
  -27.0591  -24.6451   19.9327 C   0  0  0  0  0  0  0  0  0  0  0  0
  -20.0645   -7.3767   21.9561 C   0  0  0  0  0  0  0  0  0  0  0  0
  -18.9395   -7.2585   22.7722 C   0  0  0  0  0  0  0  0  0  0  0  0
  -27.7073  -26.8505   20.6644 C   0  0  0  0  0  0  0  0  0  0  0  0
  -30.1191  -19.8247   21.8632 C   0  0  0  0  0  0  0  0  0  0  0  0
  -28.9521  -21.1326   20.2006 C   0  0  0  0  0  0  0  0  0  0  0  0
  -20.1226   -5.6874   24.1754 C   0  0  0  0  0  0  0  0  0  0  0  0
  -24.0400  -10.5333   21.0457 C   0  0  0  0  0  0  0  0  0  0  0  0
  -23.9621  -13.0584   20.6915 C   0  0  0  0  0  0  0  0  0  0  0  0
  -19.6851  -25.2744   22.7027 C   0  0  0  0  0  0  0  0  0  0  0  0
  -26.2989  -25.4831   22.0809 C   0  0  0  0  0  0  0  0  0  0  0  0
  -20.8513  -25.7742   22.0923 C   0  0  0  0  0  0  0  0  0  0  0  0
  -26.9949  -26.6804   21.8613 C   0  0  0  0  0  0  0  0  0  0  0  0
  -30.1448  -20.7247   20.7979 C   0  0  0  0  0  0  0  0  0  0  0  0
  -28.9008  -19.3324   22.3312 C   0  0  0  0  0  0  0  0  0  0  0  0
  -22.8942   -8.0035   21.3098 C   0  0  0  0  0  0  0  0  0  0  0  0
  -27.7376  -25.8388   19.7049 C   0  0  0  0  0  0  0  0  0  0  0  0
  -21.2186   -6.6503   22.2496 C   0  0  0  0  0  0  0  0  0  0  0  0
  -18.9686   -6.4138   23.8819 C   0  0  0  0  0  0  0  0  0  0  0  0
  -21.2476   -5.8056   23.3593 C   0  0  0  0  0  0  0  0  0  0  0  0
  -27.7337  -20.6403   20.6685 C   0  0  0  0  0  0  0  0  0  0  0  0
  -27.7081  -19.7402   21.7338 C   0  0  0  0  0  0  0  0  0  0  0  0
  -24.6323  -11.8398   20.9101 C   0  0  0  0  0  0  0  0  0  0  0  0
  -24.9640  -13.9963   20.6377 C   0  0  0  0  0  0  0  0  0  0  0  0
  -22.5594  -13.3192   20.5498 C   0  0  0  0  0  0  0  0  0  0  0  0
  -23.9900  -27.2462   23.3708 C   0  0  0  0  0  0  0  0  0  0  0  0
  -31.2801  -25.8637   18.0361 C   0  0  0  0  0  0  0  0  0  0  0  0
  -26.3958  -28.3068   25.2708 C   0  0  0  0  0  0  0  0  0  0  0  0
  -29.7452  -28.7995   25.7010 C   0  0  0  0  0  0  0  0  0  0  0  0
  -29.7042  -16.1733   22.6217 C   0  0  0  0  0  0  0  0  0  0  0  0
  -19.0919  -25.9215   23.9291 C   0  0  0  0  0  0  0  0  0  0  0  0
  -25.5472  -25.2635   23.3650 C   0  0  0  0  0  0  0  0  0  0  0  0
  -26.9928  -27.7959   22.8733 C   0  0  0  0  0  0  0  0  0  0  0  0
  -20.0674  -26.8334   24.6689 C   0  0  0  0  0  0  0  0  0  0  0  0
  -29.9838  -13.4393   20.3582 C   0  0  0  0  0  0  0  0  0  0  0  0
  -20.7916  -27.7489   23.6869 C   0  0  0  0  0  0  0  0  0  0  0  0
  -34.5845  -23.5497   18.4252 C   0  0  0  0  0  0  0  0  0  0  0  0
  -28.5632  -12.8766   20.2871 C   0  0  0  0  0  0  0  0  0  0  0  0
  -35.8034  -22.9145   19.0749 C   0  0  0  0  0  0  0  0  0  0  0  0
  -30.3250  -13.9346   21.7619 C   0  0  0  0  0  0  0  0  0  0  0  0
  -27.9447  -14.3384   22.2567 C   0  0  0  0  0  0  0  0  0  0  0  0
  -21.6189  -26.9369   22.6830 C   0  0  1  0  0  0  0  0  0  0  0  0
  -25.1435  -26.5649   24.0511 C   0  0  1  0  0  0  0  0  0  0  0  0
  -33.2713  -22.9631   18.9595 C   0  0  1  0  0  0  0  0  0  0  0  0
  -33.1949  -23.0746   20.5128 C   0  0  2  0  0  0  0  0  0  0  0  0
  -27.5349  -13.8775   20.8474 C   0  0  2  0  0  0  0  0  0  0  0  0
  -35.7394  -23.0448   20.5944 C   0  0  1  0  0  0  0  0  0  0  0  0
  -34.4503  -22.4267   21.2252 C   0  0  0  0  0  0  0  0  0  0  0  0
  -31.2270  -27.3598   18.2387 C   0  0  0  0  0  0  0  0  0  0  0  0
  -34.4284  -20.8856   21.1003 C   0  0  0  0  0  0  0  0  0  0  0  0
  -34.4227  -22.7683   22.7372 C   0  0  0  0  0  0  0  0  0  0  0  0
  -31.4062  -29.7207   27.3411 C   0  0  0  0  0  0  0  0  0  0  0  0
  -25.6098  -31.1440   24.4695 C   0  0  0  0  0  0  0  0  0  0  0  0
  -27.8230  -31.9279   25.3385 C   0  0  0  0  0  0  0  0  0  0  0  0
  -26.1828  -30.8638   26.8877 C   0  0  0  0  0  0  0  0  0  0  0  0
  -31.0937  -26.1802   25.9834 C   0  0  0  0  0  0  0  0  0  0  0  0
  -37.3330  -21.1356   20.4668 C   0  0  0  0  0  0  0  0  0  0  0  0
  -38.1474  -23.3949   21.1247 C   0  0  0  0  0  0  0  0  0  0  0  0
  -31.4620  -21.2572   20.2927 C   0  0  0  0  0  0  0  0  0  0  0  0
  -28.9258  -18.3698   23.4753 C   0  0  0  0  0  0  0  0  0  0  0  0
  -30.2257  -25.2371   17.1397 C   0  0  0  0  0  0  0  0  0  0  0  0
  -31.8480  -22.5345   21.0274 C   0  0  0  0  0  0  0  0  0  0  0  0
  -32.1022  -23.6612   18.2520 C   0  0  0  0  0  0  0  0  0  0  0  0
  -28.9912  -24.8539   17.9402 C   0  0  0  0  0  0  0  0  0  1  0  0
  -27.3999  -29.4316   25.1967 C   0  0  1  0  0  0  0  0  0  0  0  0
  -30.6695  -28.4795   26.8619 C   0  0  2  0  0  0  0  0  0  0  0  0
  -26.7525  -30.8218   25.4530 C   0  0  0  0  0  0  0  0  0  0  0  0
  -25.9574  -11.9871   20.9895 N   0  0  0  0  0  0  0  0  0  0  0  0
  -32.1813  -25.0873   18.5348 N   0  0  0  0  0  0  0  0  0  0  0  0
  -26.1281  -13.3093   20.8198 N   0  0  0  0  0  0  0  0  0  0  0  0
  -26.2382  -27.5358   24.1103 N   0  0  0  0  0  0  0  0  0  0  0  0
  -29.3119  -14.8815   22.2340 N   0  0  0  0  0  0  0  0  0  0  0  0
  -24.9541  -15.3335   20.4527 N   0  0  0  0  0  0  0  0  0  0  0  0
  -21.6678  -12.2409   20.6314 N   0  0  0  0  0  0  0  0  0  0  0  0
  -22.8459  -26.4749   23.2957 N   0  0  0  0  0  0  0  0  0  0  0  0
  -28.4671  -29.0882   26.1303 N   0  0  0  0  0  0  0  0  0  0  0  0
  -28.6807  -17.0096   23.0504 N   0  0  0  0  0  0  0  0  0  0  0  0
  -31.6790  -27.4616   26.4550 N   0  3  0  0  0  0  0  0  0  0  0  0
  -36.9873  -22.4355   21.1430 N   0  3  0  0  0  0  0  0  0  0  0  0
  -22.1113  -14.4719   20.3402 O   0  0  0  0  0  0  0  0  0  0  0  0
  -24.1273  -28.3877   22.9467 O   0  0  0  0  0  0  0  0  0  0  0  0
  -25.7793  -28.1147   26.3218 O   0  0  0  0  0  0  0  0  0  0  0  0
  -30.1205  -28.7974   24.5306 O   0  0  0  0  0  0  0  0  0  0  0  0
  -30.8789  -16.5550   22.5833 O   0  0  0  0  0  0  0  0  0  0  0  0
  -22.3349   -6.7693   21.4389 O   0  0  0  0  0  0  0  0  0  0  0  0
  -28.4388  -26.0182   18.5413 O   0  0  0  0  0  0  0  0  0  1  0  0
  -17.8887   -6.3016   24.6663 F   0  0  0  0  0  0  0  0  0  0  0  0
  -22.3538   -5.1061   23.6471 F   0  0  0  0  0  0  0  0  0  0  0  0
  -26.2937  -21.1878   19.8822 Cl  0  0  0  0  0  0  0  0  0  0  0  0
  -26.2057  -19.1119   22.3330 Cl  0  0  0  0  0  0  0  0  0  0  0  0
  1  2  1  0  0  0  0
  1  5  2  0  0  0  0
  2  6  2  0  0  0  0
  3  8  2  0  0  0  0
  3 17  1  0  0  0  0
  4  9  1  0  0  0  0
  4 17  2  0  0  0  0
  5 19  1  0  0  0  0
  6 21  1  0  0  0  0
  7 10  2  0  0  0  0
  7 20  1  0  0  0  0
  8 25  1  0  0  0  0
  9 25  2  0  0  0  0
 10 26  1  0  0  0  0
 11 12  2  0  0  0  0
 11 27  1  0  0  0  0
 12 28  1  0  0  0  0
 13 22  1  0  0  0  0
 13 26  2  0  0  0  0
 14 23  2  0  0  0  0
 14 24  1  0  0  0  0
 15 23  1  0  0  0  0
 15 30  2  0  0  0  0
 16 28  2  0  0  0  0
 16 29  1  0  0  0  0
 17 32  1  0  0  0  0
 18 32  1  0  0  0  0
 18 33  2  0  0  0  0
 18 34  1  0  0  0  0
 19 21  2  0  0  0  0
 19 40  1  0  0  0  0
 20 22  2  0  0  0  0
 20 41  1  0  0  0  0
 21 51  1  0  0  0  0
 22 42  1  0  0  0  0
 23 68  1  0  0  0  0
 24 31  2  0  0  0  0
 24 69  1  0  0  0  0
 25 94  1  0  0  0  0
 26 95  1  0  0  0  0
 27 29  2  0  0  0  0
 27 94  1  0  0  0  0
 28 96  1  0  0  0  0
 29 97  1  0  0  0  0
 30 31  1  0  0  0  0
 30 98  1  0  0  0  0
 31 99  1  0  0  0  0
 32 77  2  0  0  0  0
 33 79  1  0  0  0  0
 33 82  1  0  0  0  0
 34 83  1  0  0  0  0
 34 89  2  0  0  0  0
 35 52  1  0  0  0  0
 35 84  1  0  0  0  0
 35 90  2  0  0  0  0
 36 58  1  0  0  0  0
 36 70  1  0  0  0  0
 36 78  2  0  0  0  0
 37 74  1  0  0  0  0
 37 80  1  0  0  0  0
 37 91  2  0  0  0  0
 38 75  1  0  0  0  0
 38 85  1  0  0  0  0
 38 92  2  0  0  0  0
 39 81  1  0  0  0  0
 39 86  1  0  0  0  0
 39 93  2  0  0  0  0
 40 43  1  0  0  0  0
 41 52  1  0  0  0  0
 42 80  1  0  0  0  0
 43 45  1  0  0  0  0
 44 47  1  0  0  0  0
 44 49  1  0  0  0  0
 45 51  1  0  0  0  0
 46 48  1  0  0  0  0
 46 53  1  0  0  0  0
 47 55  1  0  0  0  0
 48 56  1  0  0  0  0
 49 81  1  0  0  0  0
 50 55  1  0  0  0  0
 50 81  1  0  0  0  0
 51 84  1  0  0  0  0
 52 80  1  0  0  0  0
 53 54  1  0  0  0  0
 53 72  1  0  0  0  0
 54 57  1  0  0  0  0
 54 71  1  0  0  0  0
 55 79  1  0  0  0  0
 56 57  1  0  0  0  0
 56 88  1  0  0  0  0
 57 59  1  0  0  0  0
 57 60  1  0  0  0  0
 61 75  1  0  0  0  0
 62 76  1  0  0  0  0
 63 76  1  0  0  0  0
 64 76  1  0  0  0  0
 65 87  1  0  0  0  0
 66 88  1  0  0  0  0
 67 88  1  0  0  0  0
 68 71  1  0  0  0  0
 69 86  1  0  0  0  0
 70 73  1  0  0  0  0
 72 78  1  0  0  0  0
 73 95  1  0  0  0  0
 74 76  1  0  0  0  0
 74 85  1  0  0  0  0
 75 87  1  0  0  0  0
 77 79  1  0  0  0  0
M  CHG  2  87   1  88   1
M  ISO  4  39 100  73 101  86 100  95 101
M  END
> <Batch ID>
0025

> <Smiles>
C=C(C[101CH2:1][101O:1]c1ccc2c(c1)CN(C(=O)C(NC(=O)C(C)NC)C(C)(C)C)C(C(=O)NC1CCCc3ccccc31)C2)NCC1CCC(N(C)C)C(C)(C)C1CCc1cc(Cl)c(Cl)c(C[100NH:0][100C:0](=O)N2CCCC(n3nc(-c4ccc(Oc5ccc(F)cc5F)cc4)c(C(N)=O)c3N)C2)c1

> <Shape>
0.258

> <Color>
0.142

> <Negative vol penalty>
0.000

$$$$

  -OEChem-04052316243D

 85 93  0     1  0  0  0  0  0999 V2000
  -30.0157  -35.4759   24.4710 C   0  0  0  0  0  0  0  0  0  0  0  0
  -30.0716  -34.1907   23.9414 C   0  0  0  0  0  0  0  0  0  0  0  0
  -23.2787   -9.6764   19.9069 C   0  0  0  0  0  0  0  0  0  0  0  0
  -24.4310   -9.3206   22.0004 C   0  0  0  0  0  0  0  0  0  0  0  0
  -28.8280  -35.9481   25.0280 C   0  0  0  0  0  0  0  0  0  0  0  0
  -28.9399  -33.3764   23.9694 C   0  0  0  0  0  0  0  0  0  0  0  0
  -27.2541  -29.2694   19.7508 C   0  0  0  0  0  0  0  0  0  0  0  0
  -22.7720   -8.3782   19.9651 C   0  0  0  0  0  0  0  0  0  0  0  0
  -23.9242   -8.0223   22.0586 C   0  0  0  0  0  0  0  0  0  0  0  0
  -27.4018  -27.8850   19.6779 C   0  0  0  0  0  0  0  0  0  0  0  0
  -21.0131   -6.5215   22.8915 C   0  0  0  0  0  0  0  0  0  0  0  0
  -20.4948   -6.0839   24.1102 C   0  0  0  0  0  0  0  0  0  0  0  0
  -25.1795  -27.6067   20.5740 C   0  0  0  0  0  0  0  0  0  0  0  0
  -30.6069  -18.5000   24.5447 C   0  0  0  0  0  0  0  0  0  0  0  0
  -22.1227   -4.2994   24.1618 C   0  0  0  0  0  0  0  0  0  0  0  0
  -24.1082  -10.1476   20.9245 C   0  0  0  0  0  0  0  0  0  0  0  0
  -24.0437  -12.6555   21.3873 C   0  0  0  0  0  0  0  0  0  0  0  0
  -27.6785  -35.1427   25.0541 C   0  0  0  0  0  0  0  0  0  0  0  0
  -26.0701  -29.8337   20.2469 C   0  0  0  0  0  0  0  0  0  0  0  0
  -27.7360  -33.8378   24.5285 C   0  0  0  0  0  0  0  0  0  0  0  0
  -25.0183  -28.9986   20.6498 C   0  0  0  0  0  0  0  0  0  0  0  0
  -30.6609  -19.7207   23.8721 C   0  0  0  0  0  0  0  0  0  0  0  0
  -30.2209  -17.3451   23.8642 C   0  0  0  0  0  0  0  0  0  0  0  0
  -30.3288  -19.7867   22.5190 C   0  0  0  0  0  0  0  0  0  0  0  0
  -29.8888  -17.4111   22.5111 C   0  0  0  0  0  0  0  0  0  0  0  0
  -23.0947   -7.5511   21.0410 C   0  0  0  0  0  0  0  0  0  0  0  0
  -26.3656  -27.0534   20.0922 C   0  0  0  0  0  0  0  0  0  0  0  0
  -22.0863   -5.8481   22.3078 C   0  0  0  0  0  0  0  0  0  0  0  0
  -21.0495   -4.9728   24.7454 C   0  0  0  0  0  0  0  0  0  0  0  0
  -22.6410   -4.7371   22.9430 C   0  0  0  0  0  0  0  0  0  0  0  0
  -29.9427  -18.6319   21.8384 C   0  0  0  0  0  0  0  0  0  0  0  0
  -24.6324  -11.4884   20.8647 C   0  0  0  0  0  0  0  0  0  0  0  0
  -24.9285  -13.6574   21.0715 C   0  0  0  0  0  0  0  0  0  0  0  0
  -22.8075  -12.8192   22.0950 C   0  0  0  0  0  0  0  0  0  0  0  0
  -25.3343  -31.6893   22.7206 C   0  0  0  0  0  0  0  0  0  0  0  0
  -22.3978  -31.6971   21.3424 C   0  0  0  0  0  0  0  0  0  0  0  0
  -20.1568  -30.1446   19.2894 C   0  0  0  0  0  0  0  0  0  0  0  0
  -30.1191  -15.6434   20.7311 C   0  0  0  0  0  0  0  0  0  0  0  0
  -26.4307  -35.6797   25.7093 C   0  0  0  0  0  0  0  0  0  0  0  0
  -25.9162  -31.3292   20.2941 C   0  0  0  0  0  0  0  0  0  0  0  0
  -23.7192  -29.5547   21.1710 C   0  0  0  0  0  0  0  0  0  0  0  0
  -25.1719  -34.8890   25.3621 C   0  0  0  0  0  0  0  0  0  0  0  0
  -28.9663  -13.6451   18.0191 C   0  0  0  0  0  0  0  0  0  0  0  0
  -25.4297  -33.3911   25.4913 C   0  0  0  0  0  0  0  0  0  0  0  0
  -27.6876  -13.0019   18.5606 C   0  0  0  0  0  0  0  0  0  0  0  0
  -30.0392  -13.7710   19.0992 C   0  0  0  0  0  0  0  0  0  0  0  0
  -28.3272  -13.8036   20.8704 C   0  0  0  0  0  0  0  0  0  0  0  0
  -26.5227  -32.9335   24.5180 C   0  0  1  0  0  0  0  0  0  0  0  0
  -24.8633  -31.7902   21.2973 C   0  0  1  0  0  0  0  0  0  0  0  0
  -27.1942  -13.7148   19.8350 C   0  0  2  0  0  0  0  0  0  0  0  0
  -31.0794  -20.9409   24.6257 C   0  0  0  0  0  0  0  0  0  0  0  0
  -30.1745  -16.0528   24.6141 C   0  0  0  0  0  0  0  0  0  0  0  0
  -17.8260  -30.3715   18.3875 C   0  0  0  0  0  0  0  0  0  0  0  0
  -21.2724  -30.7869   24.0285 C   0  0  0  0  0  0  0  0  0  0  0  0
  -19.1679  -30.1263   22.8441 C   0  0  0  0  0  0  0  0  0  0  0  0
  -19.8965  -32.5120   22.8515 C   0  0  0  0  0  0  0  0  0  0  0  0
  -21.1264  -30.2819   16.4966 C   0  0  0  0  0  0  0  0  0  0  0  0
  -30.3952  -21.1171   21.8120 C   0  0  0  0  0  0  0  0  0  0  0  0
  -29.0293  -21.7865   21.6220 C   0  0  0  0  0  0  0  0  0  0  0  0
  -29.1252  -23.1703   20.9717 C   0  0  0  0  0  0  0  0  0  0  0  0
  -27.7410  -23.7858   20.7741 C   0  0  0  0  0  0  0  0  0  0  0  0
  -27.8274  -25.1789   20.1670 C   0  0  0  0  0  0  0  0  0  1  0  0
  -21.1644  -30.8333   21.4493 C   0  0  1  0  0  0  0  0  0  0  0  0
  -19.2985  -30.6714   18.1536 C   0  0  2  0  0  0  0  0  0  0  0  0
  -20.4004  -31.0538   22.7854 C   0  0  0  0  0  0  0  0  0  0  0  0
  -25.8008  -11.7256   20.2624 N   0  0  0  0  0  0  0  0  0  0  0  0
  -25.9533  -13.0532   20.4047 N   0  0  0  0  0  0  0  0  0  0  0  0
  -23.6195  -31.0232   21.2038 N   0  0  0  0  0  0  0  0  0  0  0  0
  -29.5011  -14.4601   20.2742 N   0  0  0  0  0  0  0  0  0  0  0  0
  -24.9220  -14.9875   21.3020 N   0  0  0  0  0  0  0  0  0  0  0  0
  -22.0197  -11.6851   22.3350 N   0  0  0  0  0  0  0  0  0  0  0  0
  -29.5002  -16.2276   21.8357 N   0  0  0  0  0  0  0  0  0  0  0  0
  -25.9894  -32.8169   23.1777 N   0  0  0  0  0  0  0  0  0  0  0  0
  -20.3710  -31.1049   20.2555 N   0  0  0  0  0  0  0  0  0  0  0  0
  -19.7062  -30.0467   16.8634 N   0  3  0  0  0  0  0  0  0  0  0  0
  -22.4053  -13.9405   22.4881 O   0  0  0  0  0  0  0  0  0  0  0  0
  -25.1179  -30.6650   23.3574 O   0  0  0  0  0  0  0  0  0  0  0  0
  -22.2809  -32.9247   21.3733 O   0  0  0  0  0  0  0  0  0  0  0  0
  -20.5905  -28.9951   19.3188 O   0  0  0  0  0  0  0  0  0  0  0  0
  -31.1073  -16.1192   20.1662 O   0  0  0  0  0  0  0  0  0  0  0  0
  -22.6003   -6.2843   21.0982 O   0  0  0  0  0  0  0  0  0  0  0  0
  -26.5074  -25.7018   20.0227 O   0  0  0  0  0  0  0  0  0  1  0  0
  -20.5526   -4.5536   25.9165 F   0  0  0  0  0  0  0  0  0  0  0  0
  -23.6729   -4.0868   22.3878 F   0  0  0  0  0  0  0  0  0  0  0  0
  -29.5296  -18.7214   20.1557 Cl  0  0  0  0  0  0  0  0  0  0  0  0
  1  2  1  0  0  0  0
  1  5  2  0  0  0  0
  2  6  2  0  0  0  0
  3  8  2  0  0  0  0
  3 16  1  0  0  0  0
  4  9  1  0  0  0  0
  4 16  2  0  0  0  0
  5 18  1  0  0  0  0
  6 20  1  0  0  0  0
  7 10  2  0  0  0  0
  7 19  1  0  0  0  0
  8 26  1  0  0  0  0
  9 26  2  0  0  0  0
 10 27  1  0  0  0  0
 11 12  2  0  0  0  0
 11 28  1  0  0  0  0
 12 29  1  0  0  0  0
 13 21  1  0  0  0  0
 13 27  2  0  0  0  0
 14 22  2  0  0  0  0
 14 23  1  0  0  0  0
 15 29  2  0  0  0  0
 15 30  1  0  0  0  0
 16 32  1  0  0  0  0
 17 32  1  0  0  0  0
 17 33  2  0  0  0  0
 17 34  1  0  0  0  0
 18 20  2  0  0  0  0
 18 39  1  0  0  0  0
 19 21  2  0  0  0  0
 19 40  1  0  0  0  0
 20 48  1  0  0  0  0
 21 41  1  0  0  0  0
 22 24  1  0  0  0  0
 22 51  1  0  0  0  0
 23 25  2  0  0  0  0
 23 52  1  0  0  0  0
 24 31  2  0  0  0  0
 24 58  1  0  0  0  0
 25 31  1  0  0  0  0
 25 72  1  0  0  0  0
 26 81  1  0  0  0  0
 27 82  1  0  0  0  0
 28 30  2  0  0  0  0
 28 81  1  0  0  0  0
 29 83  1  0  0  0  0
 30 84  1  0  0  0  0
 31 85  1  0  0  0  0
 32 66  2  0  0  0  0
 33 67  1  0  0  0  0
 33 70  1  0  0  0  0
 34 71  1  0  0  0  0
 34 76  2  0  0  0  0
 35 49  1  0  0  0  0
 35 73  1  0  0  0  0
 35 77  2  0  0  0  0
 36 63  1  0  0  0  0
 36 68  1  0  0  0  0
 36 78  2  0  0  0  0
 37 64  1  0  0  0  0
 37 74  1  0  0  0  0
 37 79  2  0  0  0  0
 38 69  1  0  0  0  0
 38 72  1  0  0  0  0
 38 80  2  0  0  0  0
 39 42  1  0  0  0  0
 40 49  1  0  0  0  0
 41 68  1  0  0  0  0
 42 44  1  0  0  0  0
 43 45  1  0  0  0  0
 43 46  1  0  0  0  0
 44 48  1  0  0  0  0
 45 50  1  0  0  0  0
 46 69  1  0  0  0  0
 47 50  1  0  0  0  0
 47 69  1  0  0  0  0
 48 73  1  0  0  0  0
 49 68  1  0  0  0  0
 50 67  1  0  0  0  0
 53 64  1  0  0  0  0
 54 65  1  0  0  0  0
 55 65  1  0  0  0  0
 56 65  1  0  0  0  0
 57 75  1  0  0  0  0
 58 59  1  0  0  0  0
 59 60  1  0  0  0  0
 60 61  1  0  0  0  0
 61 62  1  0  0  0  0
 62 82  1  0  0  0  0
 63 65  1  0  0  0  0
 63 74  1  0  0  0  0
 64 75  1  0  0  0  0
 66 67  1  0  0  0  0
M  CHG  1  75   1
M  ISO  4  38 100  62 101  72 100  82 101
M  END
> <Batch ID>
0025

> <Smiles>
CNC(C)C(=O)NC(C(=O)N1Cc2cc([101O:1][101CH2:1]CCCCc3c(C)cc(C)c([100NH:0][100C:0](=O)N4CCCC(n5nc(-c6ccc(Oc7ccc(F)cc7F)cc6)c(C(N)=O)c5N)C4)c3Cl)ccc2CC1C(=O)NC1CCCc2ccccc21)C(C)(C)C

> <Shape>
0.338

> <Color>
0.146

> <Negative vol penalty>
0.000

$$$$

  -OEChem-04052316243D

 82 90  0     1  0  0  0  0  0999 V2000
  -26.6790  -26.4538   11.7185 C   0  0  0  0  0  0  0  0  0  0  0  0
  -27.3148  -26.0185   12.8769 C   0  0  0  0  0  0  0  0  0  0  0  0
  -25.0882  -11.1683   20.2437 C   0  0  0  0  0  0  0  0  0  0  0  0
  -25.5766  -11.8001   22.5239 C   0  0  0  0  0  0  0  0  0  0  0  0
  -25.9761  -27.6579   11.7210 C   0  0  0  0  0  0  0  0  0  0  0  0
  -27.2490  -26.7877   14.0381 C   0  0  0  0  0  0  0  0  0  0  0  0
  -27.0089  -24.7370   19.8037 C   0  0  0  0  0  0  0  0  0  0  0  0
  -25.1494   -9.8221   20.6035 C   0  0  0  0  0  0  0  0  0  0  0  0
  -25.6378  -10.4538   22.8838 C   0  0  0  0  0  0  0  0  0  0  0  0
  -27.9863  -24.5831   20.7860 C   0  0  0  0  0  0  0  0  0  0  0  0
  -24.8204   -6.2232   20.9970 C   0  0  0  0  0  0  0  0  0  0  0  0
  -23.8189   -5.3781   20.5192 C   0  0  0  0  0  0  0  0  0  0  0  0
  -27.3811  -26.7254   21.7152 C   0  0  0  0  0  0  0  0  0  0  0  0
  -25.9061  -22.6783   23.5099 C   0  0  0  0  0  0  0  0  0  0  0  0
  -28.2748  -22.0740   22.1656 C   0  0  0  0  0  0  0  0  0  0  0  0
  -22.1531   -6.7119   21.6520 C   0  0  0  0  0  0  0  0  0  0  0  0
  -25.3019  -12.1574   21.2039 C   0  0  0  0  0  0  0  0  0  0  0  0
  -24.1045  -14.3812   20.8452 C   0  0  0  0  0  0  0  0  0  0  0  0
  -25.8936  -28.4375   12.8855 C   0  0  0  0  0  0  0  0  0  0  0  0
  -26.2163  -25.8931   19.7632 C   0  0  0  0  0  0  0  0  0  0  0  0
  -26.5455  -28.0041   14.0557 C   0  0  0  0  0  0  0  0  0  0  0  0
  -26.3926  -26.8904   20.7329 C   0  0  0  0  0  0  0  0  0  0  0  0
  -27.0183  -23.5086   23.6489 C   0  0  0  0  0  0  0  0  0  0  0  0
  -25.9783  -21.5457   22.6988 C   0  0  0  0  0  0  0  0  0  0  0  0
  -28.2026  -23.2065   22.9767 C   0  0  0  0  0  0  0  0  0  0  0  0
  -27.1626  -21.2436   22.0266 C   0  0  0  0  0  0  0  0  0  0  0  0
  -25.4242   -9.4648   21.9236 C   0  0  0  0  0  0  0  0  0  0  0  0
  -28.1744  -25.5787   21.7402 C   0  0  0  0  0  0  0  0  0  0  0  0
  -24.4883   -7.3127   21.8023 C   0  0  0  0  0  0  0  0  0  0  0  0
  -22.4852   -5.6224   20.8467 C   0  0  0  0  0  0  0  0  0  0  0  0
  -23.1547   -7.5570   22.1297 C   0  0  0  0  0  0  0  0  0  0  0  0
  -25.2393  -13.5482   20.8327 C   0  0  0  0  0  0  0  0  0  0  0  0
  -24.5675  -15.5987   20.4096 C   0  0  0  0  0  0  0  0  0  0  0  0
  -22.7528  -14.0812   21.2173 C   0  0  0  0  0  0  0  0  0  0  0  0
  -25.7731  -28.2363   17.6616 C   0  0  0  0  0  0  0  0  0  0  0  0
  -23.4647  -29.1467   19.7508 C   0  0  0  0  0  0  0  0  0  0  0  0
  -22.2603  -29.0894   22.9434 C   0  0  0  0  0  0  0  0  0  0  0  0
  -28.3647  -19.6707   20.4686 C   0  0  0  0  0  0  0  0  0  0  0  0
  -25.1620  -29.7551   12.8266 C   0  0  0  0  0  0  0  0  0  0  0  0
  -25.1483  -26.0318   18.7132 C   0  0  0  0  0  0  0  0  0  0  0  0
  -25.5541  -28.1415   20.7453 C   0  0  0  0  0  0  0  0  0  0  0  0
  -24.8259  -30.3271   14.2014 C   0  0  0  0  0  0  0  0  0  0  0  0
  -29.0043  -16.8877   18.3419 C   0  0  0  0  0  0  0  0  0  0  0  0
  -26.0397  -30.2518   15.1222 C   0  0  0  0  0  0  0  0  0  0  0  0
  -27.9885  -15.8393   18.8014 C   0  0  0  0  0  0  0  0  0  0  0  0
  -29.5462  -17.7041   19.5139 C   0  0  0  0  0  0  0  0  0  0  0  0
  -27.5065  -17.2726   20.8263 C   0  0  0  0  0  0  0  0  0  0  0  0
  -26.4761  -28.7983   15.3420 C   0  0  1  0  0  0  0  0  0  0  0  0
  -24.7465  -27.4812   18.4575 C   0  0  1  0  0  0  0  0  0  0  0  0
  -26.8841  -16.4687   19.6730 C   0  0  2  0  0  0  0  0  0  0  0  0
  -26.9175  -24.7154   24.5230 C   0  0  0  0  0  0  0  0  0  0  0  0
  -24.7715  -20.6742   22.5682 C   0  0  0  0  0  0  0  0  0  0  0  0
  -20.3737  -29.9562   24.3530 C   0  0  0  0  0  0  0  0  0  0  0  0
  -29.8889  -24.1796   24.5764 C   0  0  0  0  0  0  0  0  0  0  0  0
  -30.5764  -23.6073   22.2166 C   0  0  0  0  0  0  0  0  0  0  0  0
  -24.7700  -31.9042   19.7979 C   0  0  0  0  0  0  0  0  0  0  0  0
  -23.4673  -32.4085   21.8756 C   0  0  0  0  0  0  0  0  0  0  0  0
  -22.2700  -31.9343   19.7392 C   0  0  0  0  0  0  0  0  0  0  0  0
  -21.3362  -26.3542   23.5943 C   0  0  0  0  0  0  0  0  0  0  0  0
  -23.4145  -30.0423   20.9650 C   0  0  1  0  0  0  0  0  0  0  0  0
  -20.8734  -28.8066   23.4919 C   0  0  2  0  0  0  0  0  0  0  0  0
  -29.4328  -24.1001   23.1135 C   0  0  0  0  0  0  0  0  0  1  0  0
  -23.4977  -31.5498   20.5933 C   0  0  0  0  0  0  0  0  0  0  0  0
  -26.3403  -14.1828   20.4215 N   0  0  0  0  0  0  0  0  0  0  0  0
  -25.8995  -15.4275   20.1716 N   0  0  0  0  0  0  0  0  0  0  0  0
  -24.5271  -28.2335   19.6945 N   0  0  0  0  0  0  0  0  0  0  0  0
  -28.4435  -18.2731   20.2918 N   0  0  0  0  0  0  0  0  0  0  0  0
  -23.9611  -16.7883   20.2106 N   0  0  0  0  0  0  0  0  0  0  0  0
  -22.4497  -12.7804   21.6419 N   0  0  0  0  0  0  0  0  0  0  0  0
  -27.2556  -20.0980   21.1980 N   0  0  0  0  0  0  0  0  0  0  0  0
  -25.6019  -28.1465   16.2934 N   0  0  0  0  0  0  0  0  0  0  0  0
  -22.2068  -29.6728   21.6952 N   0  0  0  0  0  0  0  0  0  0  0  0
  -20.8871  -27.5690   24.3221 N   0  3  0  0  0  0  0  0  0  0  0  0
  -21.8374  -14.9370   21.1590 O   0  0  0  0  0  0  0  0  0  0  0  0
  -26.6544  -28.8559   18.2456 O   0  0  0  0  0  0  0  0  0  0  0  0
  -22.5893  -29.2485   18.8876 O   0  0  0  0  0  0  0  0  0  0  0  0
  -23.2884  -28.8232   23.5622 O   0  0  0  0  0  0  0  0  0  0  0  0
  -29.2035  -20.4345   19.9838 O   0  0  0  0  0  0  0  0  0  0  0  0
  -25.4837   -8.1513   22.2751 O   0  0  0  0  0  0  0  0  0  0  0  0
  -29.1281  -25.4313   22.6997 O   0  0  0  0  0  0  0  0  0  1  0  0
  -21.5234   -4.8116   20.3866 F   0  0  0  0  0  0  0  0  0  0  0  0
  -22.8294   -8.6028   22.9020 F   0  0  0  0  0  0  0  0  0  0  0  0
  1  2  1  0  0  0  0
  1  5  2  0  0  0  0
  2  6  2  0  0  0  0
  3  8  2  0  0  0  0
  3 17  1  0  0  0  0
  4  9  1  0  0  0  0
  4 17  2  0  0  0  0
  5 19  1  0  0  0  0
  6 21  1  0  0  0  0
  7 10  2  0  0  0  0
  7 20  1  0  0  0  0
  8 27  1  0  0  0  0
  9 27  2  0  0  0  0
 10 28  1  0  0  0  0
 11 12  2  0  0  0  0
 11 29  1  0  0  0  0
 12 30  1  0  0  0  0
 13 22  1  0  0  0  0
 13 28  2  0  0  0  0
 14 23  1  0  0  0  0
 14 24  2  0  0  0  0
 15 25  1  0  0  0  0
 15 26  2  0  0  0  0
 16 30  2  0  0  0  0
 16 31  1  0  0  0  0
 17 32  1  0  0  0  0
 18 32  1  0  0  0  0
 18 33  2  0  0  0  0
 18 34  1  0  0  0  0
 19 21  2  0  0  0  0
 19 39  1  0  0  0  0
 20 22  2  0  0  0  0
 20 40  1  0  0  0  0
 21 48  1  0  0  0  0
 22 41  1  0  0  0  0
 23 25  2  0  0  0  0
 23 51  1  0  0  0  0
 24 26  1  0  0  0  0
 24 52  1  0  0  0  0
 25 62  1  0  0  0  0
 26 70  1  0  0  0  0
 27 79  1  0  0  0  0
 28 80  1  0  0  0  0
 29 31  2  0  0  0  0
 29 79  1  0  0  0  0
 30 81  1  0  0  0  0
 31 82  1  0  0  0  0
 32 64  2  0  0  0  0
 33 65  1  0  0  0  0
 33 68  1  0  0  0  0
 34 69  1  0  0  0  0
 34 74  2  0  0  0  0
 35 49  1  0  0  0  0
 35 71  1  0  0  0  0
 35 75  2  0  0  0  0
 36 60  1  0  0  0  0
 36 66  1  0  0  0  0
 36 76  2  0  0  0  0
 37 61  1  0  0  0  0
 37 72  1  0  0  0  0
 37 77  2  0  0  0  0
 38 67  1  0  0  0  0
 38 70  1  0  0  0  0
 38 78  2  0  0  0  0
 39 42  1  0  0  0  0
 40 49  1  0  0  0  0
 41 66  1  0  0  0  0
 42 44  1  0  0  0  0
 43 45  1  0  0  0  0
 43 46  1  0  0  0  0
 44 48  1  0  0  0  0
 45 50  1  0  0  0  0
 46 67  1  0  0  0  0
 47 50  1  0  0  0  0
 47 67  1  0  0  0  0
 48 71  1  0  0  0  0
 49 66  1  0  0  0  0
 50 65  1  0  0  0  0
 53 61  1  0  0  0  0
 54 62  1  0  0  0  0
 55 62  1  0  0  0  0
 56 63  1  0  0  0  0
 57 63  1  0  0  0  0
 58 63  1  0  0  0  0
 59 73  1  0  0  0  0
 60 63  1  0  0  0  0
 60 72  1  0  0  0  0
 61 73  1  0  0  0  0
 62 80  1  0  0  0  0
 64 65  1  0  0  0  0
M  CHG  1  73   1
M  ISO  4  38 100  62 101  70 100  80 101
M  END
> <Batch ID>
0025

> <Smiles>
CNC(C)C(=O)NC(C(=O)N1Cc2cc([101O:1][101C:1](C)(C)c3cc([100NH:0][100C:0](=O)N4CCCC(n5nc(-c6ccc(Oc7ccc(F)cc7F)cc6)c(C(N)=O)c5N)C4)c(C)cc3C)ccc2CC1C(=O)NC1CCCc2ccccc21)C(C)(C)C

> <Shape>
0.220

> <Color>
0.075

> <Negative vol penalty>
0.000

$$$$

  -OEChem-04052316243D

 85 93  0     1  0  0  0  0  0999 V2000
  -17.7649  -28.0949   26.2271 C   0  0  0  0  0  0  0  0  0  0  0  0
  -18.4485  -26.8902   26.3565 C   0  0  0  0  0  0  0  0  0  0  0  0
  -30.3037  -14.4536   22.1030 C   0  0  0  0  0  0  0  0  0  0  0  0
  -28.4996  -15.9032   22.7966 C   0  0  0  0  0  0  0  0  0  0  0  0
  -17.8541  -28.8218   25.0407 C   0  0  0  0  0  0  0  0  0  0  0  0
  -19.2209  -26.4111   25.2991 C   0  0  0  0  0  0  0  0  0  0  0  0
  -25.1890  -22.6709   23.9914 C   0  0  0  0  0  0  0  0  0  0  0  0
  -30.6255  -15.3442   21.0788 C   0  0  0  0  0  0  0  0  0  0  0  0
  -28.8215  -16.7938   21.7724 C   0  0  0  0  0  0  0  0  0  0  0  0
  -25.6316  -21.5706   23.2585 C   0  0  0  0  0  0  0  0  0  0  0  0
  -31.1272  -19.1963   21.1961 C   0  0  0  0  0  0  0  0  0  0  0  0
  -31.1699  -20.5547   21.5102 C   0  0  0  0  0  0  0  0  0  0  0  0
  -25.7756  -22.9505   21.2851 C   0  0  0  0  0  0  0  0  0  0  0  0
  -29.4384  -20.9857   19.8813 C   0  0  0  0  0  0  0  0  0  0  0  0
  -29.2407  -14.7331   22.9618 C   0  0  0  0  0  0  0  0  0  0  0  0
  -29.4107  -13.8111   25.3343 C   0  0  0  0  0  0  0  0  0  0  0  0
  -18.6358  -28.3561   23.9716 C   0  0  0  0  0  0  0  0  0  0  0  0
  -25.0256  -23.9189   23.3731 C   0  0  0  0  0  0  0  0  0  0  0  0
  -19.3197  -27.1318   24.0967 C   0  0  0  0  0  0  0  0  0  0  0  0
  -25.3332  -24.0657   22.0129 C   0  0  0  0  0  0  0  0  0  0  0  0
  -29.8845  -16.5143   20.9136 C   0  0  0  0  0  0  0  0  0  0  0  0
  -25.9223  -21.7096   21.9045 C   0  0  0  0  0  0  0  0  0  0  0  0
  -30.2402  -18.7326   20.2246 C   0  0  0  0  0  0  0  0  0  0  0  0
  -30.3255  -21.4494   20.8528 C   0  0  0  0  0  0  0  0  0  0  0  0
  -29.3958  -19.6273   19.5672 C   0  0  0  0  0  0  0  0  0  0  0  0
  -28.9073  -13.8133   24.0196 C   0  0  0  0  0  0  0  0  0  0  0  0
  -28.7871  -12.7471   25.9389 C   0  0  0  0  0  0  0  0  0  0  0  0
  -30.3573  -14.6920   25.9536 C   0  0  0  0  0  0  0  0  0  0  0  0
  -22.5646  -25.8652   22.8642 C   0  0  0  0  0  0  0  0  0  0  0  0
  -24.8697  -27.8525   21.7422 C   0  0  0  0  0  0  0  0  0  0  0  0
  -27.9908  -28.2082   20.4082 C   0  0  0  0  0  0  0  0  0  0  0  0
  -25.4810  -11.2414   21.7842 C   0  0  0  0  0  0  0  0  0  0  0  0
  -18.6638  -29.1533   22.6916 C   0  0  0  0  0  0  0  0  0  0  0  0
  -24.5728  -25.1022   24.1836 C   0  0  0  0  0  0  0  0  0  0  0  0
  -25.1939  -25.3887   21.3067 C   0  0  0  0  0  0  0  0  0  0  0  0
  -19.8039  -28.7618   21.7551 C   0  0  0  0  0  0  0  0  0  0  0  0
  -27.9814   -9.3118   23.4551 C   0  0  0  0  0  0  0  0  0  0  0  0
  -21.9693  -12.1276   21.9644 C   0  0  0  0  0  0  0  0  0  0  0  0
  -19.8914  -27.2445   21.6257 C   0  0  0  0  0  0  0  0  0  0  0  0
  -27.8341   -9.6737   24.9289 C   0  0  0  0  0  0  0  0  0  0  0  0
  -22.4690  -13.3024   21.1354 C   0  0  0  0  0  0  0  0  0  0  0  0
  -26.6233   -9.2880   22.7709 C   0  0  0  0  0  0  0  0  0  0  0  0
  -23.1956  -11.7522   22.7818 C   0  0  0  0  0  0  0  0  0  0  0  0
  -25.7620  -11.0425   24.3090 C   0  0  0  0  0  0  0  0  0  0  0  0
  -20.1876  -26.5913   22.9811 C   0  0  1  0  0  0  0  0  0  0  0  0
  -23.9506  -26.2058   23.3337 C   0  0  1  0  0  0  0  0  0  0  0  0
  -27.0653  -10.9880   25.1390 C   0  0  2  0  0  0  0  0  0  0  0  0
  -23.9074  -12.9044   20.7930 C   0  0  1  0  0  0  0  0  0  0  0  0
  -29.5838  -29.9521   19.5607 C   0  0  0  0  0  0  0  0  0  0  0  0
  -26.0420  -16.0781   16.5215 C   0  0  0  0  0  0  0  0  0  0  0  0
  -27.9456  -14.5746   17.1731 C   0  0  0  0  0  0  0  0  0  0  0  0
  -23.2390  -28.0908   19.1743 C   0  0  0  0  0  0  0  0  0  0  0  0
  -25.2716  -29.0283   18.0529 C   0  0  0  0  0  0  0  0  0  0  0  0
  -24.2414  -30.2370   19.9765 C   0  0  0  0  0  0  0  0  0  0  0  0
  -30.0160  -27.5182   22.4530 C   0  0  0  0  0  0  0  0  0  0  0  0
  -24.8156  -14.1191   20.6514 C   0  0  0  0  0  0  0  0  0  0  0  0
  -25.8302  -18.4336   20.3851 C   0  0  0  0  0  0  0  0  0  0  0  0
  -24.3037  -15.0623   19.5761 C   0  0  0  0  0  0  0  0  0  0  0  0
  -25.3276  -17.0332   20.7021 C   0  0  0  0  0  0  0  0  0  0  0  0
  -26.6157  -15.7731   18.9835 C   0  0  0  0  0  0  0  0  0  0  0  0
  -25.8957  -19.3511   21.5999 C   0  0  0  0  0  0  0  0  0  1  0  0
  -25.5127  -28.0926   20.3975 C   0  0  1  0  0  0  0  0  0  0  0  0
  -29.1386  -29.1357   20.7640 C   0  0  2  0  0  0  0  0  0  0  0  0
  -26.5834  -15.1298   17.5925 C   0  0  0  0  0  0  0  0  0  0  0  0
  -24.5670  -28.8367   19.4129 C   0  0  0  0  0  0  0  0  0  0  0  0
  -28.0316  -12.8287   23.8012 N   0  0  0  0  0  0  0  0  0  0  0  0
  -27.9799  -12.1979   24.9867 N   0  0  0  0  0  0  0  0  0  0  0  0
  -24.7418  -26.5144   22.1408 N   0  0  0  0  0  0  0  0  0  0  0  0
  -25.9080  -10.5543   22.9302 N   0  0  0  0  0  0  0  0  0  0  0  0
  -24.3217  -12.0140   21.8840 N   0  0  0  0  0  0  0  0  0  0  0  0
  -28.8562  -12.2370   27.1869 N   0  0  0  0  0  0  0  0  0  0  0  0
  -30.9008  -15.7332   25.1887 N   0  0  0  0  0  0  0  0  0  0  0  0
  -21.5886  -26.7333   23.3151 N   0  0  0  0  0  0  0  0  0  0  0  0
  -26.7666  -28.7893   20.6632 N   0  0  0  0  0  0  0  0  0  0  0  0
  -30.3054  -28.3504   21.2569 N   0  3  0  0  0  0  0  0  0  0  0  0
  -25.2438  -16.2012   19.4454 N   0  3  1  0  0  0  0  0  0  0  0  0
  -30.7231  -14.5500   27.1451 O   0  0  0  0  0  0  0  0  0  0  0  0
  -22.3935  -24.8880   22.1448 O   0  0  0  0  0  0  0  0  0  0  0  0
  -24.5013  -28.8170   22.4171 O   0  0  0  0  0  0  0  0  0  0  0  0
  -28.1628  -27.0822   19.9464 O   0  0  0  0  0  0  0  0  0  0  0  0
  -26.1019  -11.1605   20.7160 O   0  0  0  0  0  0  0  0  0  0  0  0
  -30.1984  -17.3836   19.9145 O   0  0  0  0  0  0  0  0  0  0  0  0
  -26.3569  -20.6295   21.1817 O   0  0  0  0  0  0  0  0  0  1  0  0
  -30.3655  -22.7535   21.1556 F   0  0  0  0  0  0  0  0  0  0  0  0
  -28.5407  -19.1876   18.6338 F   0  0  0  0  0  0  0  0  0  0  0  0
  1  2  1  0  0  0  0
  1  5  2  0  0  0  0
  2  6  2  0  0  0  0
  3  8  2  0  0  0  0
  3 15  1  0  0  0  0
  4  9  1  0  0  0  0
  4 15  2  0  0  0  0
  5 17  1  0  0  0  0
  6 19  1  0  0  0  0
  7 10  2  0  0  0  0
  7 18  1  0  0  0  0
  8 21  1  0  0  0  0
  9 21  2  0  0  0  0
 10 22  1  0  0  0  0
 11 12  2  0  0  0  0
 11 23  1  0  0  0  0
 12 24  1  0  0  0  0
 13 20  1  0  0  0  0
 13 22  2  0  0  0  0
 14 24  2  0  0  0  0
 14 25  1  0  0  0  0
 15 26  1  0  0  0  0
 16 26  1  0  0  0  0
 16 27  2  0  0  0  0
 16 28  1  0  0  0  0
 17 19  2  0  0  0  0
 17 33  1  0  0  0  0
 18 20  2  0  0  0  0
 18 34  1  0  0  0  0
 19 45  1  0  0  0  0
 20 35  1  0  0  0  0
 21 82  1  0  0  0  0
 22 83  1  0  0  0  0
 23 25  2  0  0  0  0
 23 82  1  0  0  0  0
 24 84  1  0  0  0  0
 25 85  1  0  0  0  0
 26 66  2  0  0  0  0
 27 67  1  0  0  0  0
 27 71  1  0  0  0  0
 28 72  1  0  0  0  0
 28 77  2  0  0  0  0
 29 46  1  0  0  0  0
 29 73  1  0  0  0  0
 29 78  2  0  0  0  0
 30 62  1  0  0  0  0
 30 68  1  0  0  0  0
 30 79  2  0  0  0  0
 31 63  1  0  0  0  0
 31 74  1  0  0  0  0
 31 80  2  0  0  0  0
 32 69  1  0  0  0  0
 32 70  1  0  0  0  0
 32 81  2  0  0  0  0
 33 36  1  0  0  0  0
 34 46  1  0  0  0  0
 35 68  1  0  0  0  0
 36 39  1  0  0  0  0
 37 40  1  0  0  0  0
 37 42  1  0  0  0  0
 38 41  1  0  0  0  0
 38 43  1  0  0  0  0
 39 45  1  0  0  0  0
 40 47  1  0  0  0  0
 41 48  1  0  0  0  0
 42 69  1  0  0  0  0
 43 70  1  0  0  0  0
 44 47  1  0  0  0  0
 44 69  1  0  0  0  0
 45 73  1  0  0  0  0
 46 68  1  0  0  0  0
 47 67  1  0  0  0  0
 48 56  1  0  0  0  0
 48 70  1  0  0  0  0
 49 63  1  0  0  0  0
 50 64  1  0  0  0  0
 51 64  1  0  0  0  0
 52 65  1  0  0  0  0
 53 65  1  0  0  0  0
 54 65  1  0  0  0  0
 55 75  1  0  0  0  0
 56 58  1  0  0  0  0
 57 59  1  0  0  0  0
 57 61  1  0  0  0  0
 58 76  1  0  0  0  0
 59 76  1  0  0  0  0
 60 64  1  0  0  0  0
 60 76  1  0  0  0  0
 61 83  1  0  0  0  0
 62 65  1  0  0  0  0
 62 74  1  0  0  0  0
 63 75  1  0  0  0  0
 66 67  1  0  0  0  0
M  CHG  2  75   1  76   1
M  ISO  4  32 100  61 101  70 100  83 101
M  END
> <Batch ID>
0025

> <Smiles>
CNC(C)C(=O)NC(C(=O)N1Cc2cc([101O:1][101CH2:1]CCN(CCC3CCC[100N:0]3[100C:0](=O)N3CCCC(n4nc(-c5ccc(Oc6ccc(F)cc6F)cc5)c(C(N)=O)c4N)C3)CC(C)C)ccc2CC1C(=O)NC1CCCc2ccccc21)C(C)(C)C

> <Shape>
0.201

> <Color>
0.069

> <Negative vol penalty>
0.000

$$$$

  -OEChem-04052316243D

 86 94  0     1  0  0  0  0  0999 V2000
  -28.4872  -21.7796   26.1428 C   0  0  0  0  0  0  0  0  0  0  0  0
  -29.2858  -21.5131   25.0353 C   0  0  0  0  0  0  0  0  0  0  0  0
  -23.0762   -9.8631   19.9464 C   0  0  0  0  0  0  0  0  0  0  0  0
  -23.8380   -9.8770   22.2391 C   0  0  0  0  0  0  0  0  0  0  0  0
  -28.0670  -23.0838   26.4003 C   0  0  0  0  0  0  0  0  0  0  0  0
  -29.6639  -22.5508   24.1840 C   0  0  0  0  0  0  0  0  0  0  0  0
  -34.5668  -22.3483   22.9326 C   0  0  0  0  0  0  0  0  0  0  0  0
  -22.3344   -8.7094   20.1999 C   0  0  0  0  0  0  0  0  0  0  0  0
  -23.0962   -8.7233   22.4927 C   0  0  0  0  0  0  0  0  0  0  0  0
  -34.9374  -21.4230   21.9578 C   0  0  0  0  0  0  0  0  0  0  0  0
  -19.8699   -7.9218   23.1000 C   0  0  0  0  0  0  0  0  0  0  0  0
  -19.1140   -7.8835   24.2716 C   0  0  0  0  0  0  0  0  0  0  0  0
  -34.9696  -23.1830   20.3083 C   0  0  0  0  0  0  0  0  0  0  0  0
  -31.6168  -18.3494   20.0431 C   0  0  0  0  0  0  0  0  0  0  0  0
  -20.3592   -5.9500   25.0118 C   0  0  0  0  0  0  0  0  0  0  0  0
  -23.8281  -10.4469   20.9660 C   0  0  0  0  0  0  0  0  0  0  0  0
  -24.1657  -12.9723   20.8394 C   0  0  0  0  0  0  0  0  0  0  0  0
  -28.4481  -24.1395   25.5571 C   0  0  0  0  0  0  0  0  0  0  0  0
  -34.3839  -23.6982   22.5998 C   0  0  0  0  0  0  0  0  0  0  0  0
  -29.2474  -23.8702   24.4296 C   0  0  0  0  0  0  0  0  0  0  0  0
  -34.5992  -24.1238   21.2812 C   0  0  0  0  0  0  0  0  0  0  0  0
  -30.5738  -18.0098   20.9046 C   0  0  0  0  0  0  0  0  0  0  0  0
  -29.1899  -19.7180   19.9026 C   0  0  0  0  0  0  0  0  0  0  0  0
  -31.4464  -19.3734   19.1113 C   0  0  0  0  0  0  0  0  0  0  0  0
  -22.3444   -8.1395   21.4730 C   0  0  0  0  0  0  0  0  0  0  0  0
  -35.1361  -21.8398   20.6448 C   0  0  0  0  0  0  0  0  0  0  0  0
  -20.8704   -6.9740   22.8842 C   0  0  0  0  0  0  0  0  0  0  0  0
  -19.3587   -6.8977   25.2275 C   0  0  0  0  0  0  0  0  0  0  0  0
  -21.1151   -5.9882   23.8401 C   0  0  0  0  0  0  0  0  0  0  0  0
  -29.3603  -18.6940   20.8344 C   0  0  0  0  0  0  0  0  0  0  0  0
  -30.2329  -20.0576   19.0411 C   0  0  0  0  0  0  0  0  0  0  0  0
  -24.5950  -11.6384   20.7047 C   0  0  0  0  0  0  0  0  0  0  0  0
  -25.2563  -13.7226   20.4733 C   0  0  0  0  0  0  0  0  0  0  0  0
  -22.8947  -13.4871   21.2581 C   0  0  0  0  0  0  0  0  0  0  0  0
  -31.9295  -25.7163   22.6830 C   0  0  0  0  0  0  0  0  0  0  0  0
  -34.1874  -27.8856   21.8355 C   0  0  0  0  0  0  0  0  0  0  0  0
  -37.2145  -28.5003   20.3844 C   0  0  0  0  0  0  0  0  0  0  0  0
  -30.7386  -14.7511   20.6544 C   0  0  0  0  0  0  0  0  0  0  0  0
  -27.9302  -25.5254   25.8496 C   0  0  0  0  0  0  0  0  0  0  0  0
  -34.0100  -24.6885   23.6684 C   0  0  0  0  0  0  0  0  0  0  0  0
  -34.4355  -25.5653   20.8765 C   0  0  0  0  0  0  0  0  0  0  0  0
  -28.6844  -26.6264   25.1084 C   0  0  0  0  0  0  0  0  0  0  0  0
  -29.6028  -12.3587   18.2746 C   0  0  0  0  0  0  0  0  0  0  0  0
  -28.8674  -26.2532   23.6407 C   0  0  0  0  0  0  0  0  0  0  0  0
  -28.1662  -12.0638   18.7095 C   0  0  0  0  0  0  0  0  0  0  0  0
  -30.5206  -12.5841   19.4741 C   0  0  0  0  0  0  0  0  0  0  0  0
  -28.6188  -13.3155   20.8605 C   0  0  0  0  0  0  0  0  0  0  0  0
  -29.6988  -24.9728   23.4966 C   0  0  1  0  0  0  0  0  0  0  0  0
  -33.3508  -25.9469   23.1126 C   0  0  1  0  0  0  0  0  0  0  0  0
  -27.6440  -13.1364   19.6842 C   0  0  2  0  0  0  0  0  0  0  0  0
  -27.8848  -20.4521   19.8264 C   0  0  0  0  0  0  0  0  0  0  0  0
  -38.7767  -30.3768   19.8052 C   0  0  0  0  0  0  0  0  0  0  0  0
  -33.6420  -17.6618   17.5950 C   0  0  0  0  0  0  0  0  0  0  0  0
  -32.3873  -28.6589   19.4963 C   0  0  0  0  0  0  0  0  0  0  0  0
  -34.3543  -29.8021   18.4511 C   0  0  0  0  0  0  0  0  0  0  0  0
  -33.4819  -30.5876   20.6522 C   0  0  0  0  0  0  0  0  0  0  0  0
  -39.3635  -27.3928   22.0915 C   0  0  0  0  0  0  0  0  0  0  0  0
  -30.8020  -16.9048   21.8859 C   0  0  0  0  0  0  0  0  0  0  0  0
  -34.8525  -19.8704   17.6403 C   0  0  0  0  0  0  0  0  0  0  0  0
  -35.0697  -21.2003   18.3551 C   0  0  0  0  0  0  0  0  0  1  0  0
  -34.7399  -28.3981   20.5274 C   0  0  1  0  0  0  0  0  0  0  0  0
  -38.4010  -29.3294   20.8418 C   0  0  2  0  0  0  0  0  0  0  0  0
  -33.7792  -19.0041   18.3068 C   0  0  1  0  0  0  0  0  0  0  0  0
  -33.7421  -29.3341   19.7886 C   0  0  0  0  0  0  0  0  0  0  0  0
  -25.8596  -11.5436   20.2855 N   0  0  0  0  0  0  0  0  0  0  0  0
  -26.2344  -12.8274   20.1537 N   0  0  0  0  0  0  0  0  0  0  0  0
  -34.0629  -26.4943   21.9561 N   0  0  0  0  0  0  0  0  0  0  0  0
  -29.9691  -13.6139   20.3580 N   0  0  0  0  0  0  0  0  0  0  0  0
  -25.4645  -15.0543   20.3968 N   0  0  0  0  0  0  0  0  0  0  0  0
  -21.8846  -12.5771   21.5986 N   0  0  0  0  0  0  0  0  0  0  0  0
  -32.5015  -19.6846   18.2725 N   0  0  0  0  0  0  0  0  0  0  0  0
  -31.1041  -25.2580   23.6921 N   0  0  0  0  0  0  0  0  0  0  0  0
  -36.0218  -29.0198   20.8414 N   0  0  0  0  0  0  0  0  0  0  0  0
  -30.1386  -15.6810   21.4946 N   0  0  0  0  0  0  0  0  0  0  0  0
  -39.5846  -28.4547   21.0764 N   0  3  0  0  0  0  0  0  0  0  0  0
  -22.6565  -14.7175   21.3126 O   0  0  0  0  0  0  0  0  0  0  0  0
  -31.6054  -25.9391   21.5224 O   0  0  0  0  0  0  0  0  0  0  0  0
  -33.8843  -28.6898   22.7204 O   0  0  0  0  0  0  0  0  0  0  0  0
  -37.3335  -27.4945   19.6881 O   0  0  0  0  0  0  0  0  0  0  0  0
  -31.8738  -14.9272   20.1994 O   0  0  0  0  0  0  0  0  0  0  0  0
  -21.6205   -7.0138   21.7208 O   0  0  0  0  0  0  0  0  0  0  0  0
  -35.4973  -20.9386   19.6912 O   0  0  0  0  0  0  0  0  0  1  0  0
  -18.6338   -6.8620   26.3533 F   0  0  0  0  0  0  0  0  0  0  0  0
  -22.0757   -5.0757   23.6389 F   0  0  0  0  0  0  0  0  0  0  0  0
  -28.0681  -18.2652   21.9065 Cl  0  0  0  0  0  0  0  0  0  0  0  0
  -30.0230  -21.3319   17.8825 Cl  0  0  0  0  0  0  0  0  0  0  0  0
  1  2  1  0  0  0  0
  1  5  2  0  0  0  0
  2  6  2  0  0  0  0
  3  8  2  0  0  0  0
  3 16  1  0  0  0  0
  4  9  1  0  0  0  0
  4 16  2  0  0  0  0
  5 18  1  0  0  0  0
  6 20  1  0  0  0  0
  7 10  2  0  0  0  0
  7 19  1  0  0  0  0
  8 25  1  0  0  0  0
  9 25  2  0  0  0  0
 10 26  1  0  0  0  0
 11 12  2  0  0  0  0
 11 27  1  0  0  0  0
 12 28  1  0  0  0  0
 13 21  1  0  0  0  0
 13 26  2  0  0  0  0
 14 22  2  0  0  0  0
 14 24  1  0  0  0  0
 15 28  2  0  0  0  0
 15 29  1  0  0  0  0
 16 32  1  0  0  0  0
 17 32  1  0  0  0  0
 17 33  2  0  0  0  0
 17 34  1  0  0  0  0
 18 20  2  0  0  0  0
 18 39  1  0  0  0  0
 19 21  2  0  0  0  0
 19 40  1  0  0  0  0
 20 48  1  0  0  0  0
 21 41  1  0  0  0  0
 22 30  1  0  0  0  0
 22 58  1  0  0  0  0
 23 30  2  0  0  0  0
 23 31  1  0  0  0  0
 23 51  1  0  0  0  0
 24 31  2  0  0  0  0
 24 71  1  0  0  0  0
 25 81  1  0  0  0  0
 26 82  1  0  0  0  0
 27 29  2  0  0  0  0
 27 81  1  0  0  0  0
 28 83  1  0  0  0  0
 29 84  1  0  0  0  0
 30 85  1  0  0  0  0
 31 86  1  0  0  0  0
 32 65  2  0  0  0  0
 33 66  1  0  0  0  0
 33 69  1  0  0  0  0
 34 70  1  0  0  0  0
 34 76  2  0  0  0  0
 35 49  1  0  0  0  0
 35 72  1  0  0  0  0
 35 77  2  0  0  0  0
 36 61  1  0  0  0  0
 36 67  1  0  0  0  0
 36 78  2  0  0  0  0
 37 62  1  0  0  0  0
 37 73  1  0  0  0  0
 37 79  2  0  0  0  0
 38 68  1  0  0  0  0
 38 74  1  0  0  0  0
 38 80  2  0  0  0  0
 39 42  1  0  0  0  0
 40 49  1  0  0  0  0
 41 67  1  0  0  0  0
 42 44  1  0  0  0  0
 43 45  1  0  0  0  0
 43 46  1  0  0  0  0
 44 48  1  0  0  0  0
 45 50  1  0  0  0  0
 46 68  1  0  0  0  0
 47 50  1  0  0  0  0
 47 68  1  0  0  0  0
 48 72  1  0  0  0  0
 49 67  1  0  0  0  0
 50 66  1  0  0  0  0
 52 62  1  0  0  0  0
 53 63  1  0  0  0  0
 54 64  1  0  0  0  0
 55 64  1  0  0  0  0
 56 64  1  0  0  0  0
 57 75  1  0  0  0  0
 58 74  1  0  0  0  0
 59 60  1  0  0  0  0
 59 63  1  0  0  0  0
 60 82  1  0  0  0  0
 61 64  1  0  0  0  0
 61 73  1  0  0  0  0
 62 75  1  0  0  0  0
 63 71  1  0  0  0  0
 65 66  1  0  0  0  0
M  CHG  1  75   1
M  ISO  4  38 100  60 101  74 100  82 101
M  END
> <Batch ID>
0025

> <Smiles>
CNC(C)C(=O)NC(C(=O)N1Cc2cc([101O:1][101CH2:1]CC(C)Nc3cc(C[100NH:0][100C:0](=O)N4CCCC(n5nc(-c6ccc(Oc7ccc(F)cc7F)cc6)c(C(N)=O)c5N)C4)c(Cl)c(C)c3Cl)ccc2CC1C(=O)NC1CCCc2ccccc21)C(C)(C)C

> <Shape>
0.198

> <Color>
0.196

> <Negative vol penalty>
0.000

$$$$

  -OEChem-04052316243D

 87 95  0     1  0  0  0  0  0999 V2000
  -22.1716   -8.7544   20.7070 C   0  0  0  0  0  0  0  0  0  0  0  0
  -21.7772  -10.0490   21.0294 C   0  0  0  0  0  0  0  0  0  0  0  0
  -30.0177  -27.7572   18.7390 C   0  0  0  0  0  0  0  0  0  0  0  0
  -29.6659  -26.4906   20.7660 C   0  0  0  0  0  0  0  0  0  0  0  0
  -23.4941   -8.3601   20.9053 C   0  0  0  0  0  0  0  0  0  0  0  0
  -22.7049  -10.9497   21.5513 C   0  0  0  0  0  0  0  0  0  0  0  0
  -22.3904  -15.5255   19.4046 C   0  0  0  0  0  0  0  0  0  0  0  0
  -31.3910  -27.5342   18.8379 C   0  0  0  0  0  0  0  0  0  0  0  0
  -31.0393  -26.2674   20.8649 C   0  0  0  0  0  0  0  0  0  0  0  0
  -21.3550  -16.3576   19.8280 C   0  0  0  0  0  0  0  0  0  0  0  0
  -34.4173  -25.0594   21.4549 C   0  0  0  0  0  0  0  0  0  0  0  0
  -34.8447  -23.7680   21.7635 C   0  0  0  0  0  0  0  0  0  0  0  0
  -22.8982  -17.5411   21.2554 C   0  0  0  0  0  0  0  0  0  0  0  0
  -19.0257  -24.7827   22.9992 C   0  0  0  0  0  0  0  0  0  0  0  0
  -19.7015  -25.0932   20.7005 C   0  0  0  0  0  0  0  0  0  0  0  0
  -33.7672  -22.9345   19.7681 C   0  0  0  0  0  0  0  0  0  0  0  0
  -29.1551  -27.2355   19.7031 C   0  0  0  0  0  0  0  0  0  0  0  0
  -26.7901  -26.6638   18.9365 C   0  0  0  0  0  0  0  0  0  0  0  0
  -24.4408   -9.2593   21.4209 C   0  0  0  0  0  0  0  0  0  0  0  0
  -23.6873  -15.6882   19.9124 C   0  0  0  0  0  0  0  0  0  0  0  0
  -24.0411  -10.5666   21.7580 C   0  0  0  0  0  0  0  0  0  0  0  0
  -23.9488  -16.7114   20.8348 C   0  0  0  0  0  0  0  0  0  0  0  0
  -19.2169  -24.2693   21.7164 C   0  0  0  0  0  0  0  0  0  0  0  0
  -19.3191  -26.1200   23.2661 C   0  0  0  0  0  0  0  0  0  0  0  0
  -19.8037  -26.9439   22.2502 C   0  0  0  0  0  0  0  0  0  0  0  0
  -31.9018  -26.7892   19.9008 C   0  0  0  0  0  0  0  0  0  0  0  0
  -21.6082  -17.3638   20.7557 C   0  0  0  0  0  0  0  0  0  0  0  0
  -33.6647  -25.2884   20.3029 C   0  0  0  0  0  0  0  0  0  0  0  0
  -34.5197  -22.7056   20.9202 C   0  0  0  0  0  0  0  0  0  0  0  0
  -33.3398  -24.2259   19.4595 C   0  0  0  0  0  0  0  0  0  0  0  0
  -19.9949  -26.4306   20.9674 C   0  0  0  0  0  0  0  0  0  0  0  0
  -27.7364  -27.4661   19.6018 C   0  0  0  0  0  0  0  0  0  0  0  0
  -25.5938  -27.3092   19.1332 C   0  0  0  0  0  0  0  0  0  0  0  0
  -26.9759  -25.4441   18.2060 C   0  0  0  0  0  0  0  0  0  0  0  0
  -25.6798  -13.8745   21.5989 C   0  0  0  0  0  0  0  0  0  0  0  0
  -27.7467  -16.3130   21.0476 C   0  0  0  0  0  0  0  0  0  0  0  0
  -28.2027  -19.6158   20.3192 C   0  0  0  0  0  0  0  0  0  0  0  0
  -21.9981  -29.9882   22.4558 C   0  0  0  0  0  0  0  0  0  0  0  0
  -25.8479   -8.7730   21.6620 C   0  0  0  0  0  0  0  0  0  0  0  0
  -24.7988  -14.7994   19.4253 C   0  0  0  0  0  0  0  0  0  0  0  0
  -25.3279  -16.9406   21.3951 C   0  0  0  0  0  0  0  0  0  0  0  0
  -26.8553   -9.9012   21.8686 C   0  0  0  0  0  0  0  0  0  0  0  0
  -24.6015  -31.9142   20.9760 C   0  0  0  0  0  0  0  0  0  0  0  0
  -26.3053  -10.9356   22.8455 C   0  0  0  0  0  0  0  0  0  0  0  0
  -25.5735  -30.8629   20.4377 C   0  0  0  0  0  0  0  0  0  0  0  0
  -23.9717  -31.4768   22.2967 C   0  0  0  0  0  0  0  0  0  0  0  0
  -24.2955  -29.1011   21.7266 C   0  0  0  0  0  0  0  0  0  0  0  0
  -25.0239  -11.5800   22.3031 C   0  0  1  0  0  0  0  0  0  0  0  0
  -25.9735  -14.7254   20.3958 C   0  0  1  0  0  0  0  0  0  0  0  0
  -24.9136  -29.4726   20.3679 C   0  0  2  0  0  0  0  0  0  0  0  0
  -30.0064  -21.3253   19.9702 C   0  0  0  0  0  0  0  0  0  0  0  0
  -28.2104  -16.4354   24.0609 C   0  0  0  0  0  0  0  0  0  0  0  0
  -29.2323  -18.6986   23.7415 C   0  0  0  0  0  0  0  0  0  0  0  0
  -30.2760  -16.6991   22.6760 C   0  0  0  0  0  0  0  0  0  0  0  0
  -27.3323  -20.1363   17.5388 C   0  0  0  0  0  0  0  0  0  0  0  0
  -18.9005  -22.8233   21.4289 C   0  0  0  0  0  0  0  0  0  0  0  0
  -20.1130  -28.3770   22.5533 C   0  0  0  0  0  0  0  0  0  0  0  0
  -20.0841  -21.8748   21.6498 C   0  0  0  0  0  0  0  0  0  0  0  0
  -19.7667  -20.4252   21.2797 C   0  0  0  0  0  0  0  0  0  0  0  0
  -20.9513  -19.5073   21.5494 C   0  0  0  0  0  0  0  0  0  1  0  0
  -28.0984  -17.5977   21.7582 C   0  0  1  0  0  0  0  0  0  0  0  0
  -29.0918  -20.3097   19.3031 C   0  0  2  0  0  0  0  0  0  0  0  0
  -19.1034  -26.6432   24.6488 C   0  0  0  0  0  0  0  0  0  0  0  0
  -28.9278  -17.3524   23.0503 C   0  0  0  0  0  0  0  0  0  0  0  0
  -27.1885  -28.5393   20.1780 N   0  0  0  0  0  0  0  0  0  0  0  0
  -25.8850  -28.4160   19.8753 N   0  0  0  0  0  0  0  0  0  0  0  0
  -26.3799  -16.0416   20.8927 N   0  0  0  0  0  0  0  0  0  0  0  0
  -23.3620  -30.1516   22.1623 N   0  0  0  0  0  0  0  0  0  0  0  0
  -24.3318  -27.0324   18.7421 N   0  0  0  0  0  0  0  0  0  0  0  0
  -28.2710  -24.9186   18.1015 N   0  0  0  0  0  0  0  0  0  0  0  0
  -25.3427  -12.5691   21.2959 N   0  0  0  0  0  0  0  0  0  0  0  0
  -28.7648  -18.4407   20.7715 N   0  0  0  0  0  0  0  0  0  0  0  0
  -21.4985  -28.7015   22.2963 N   0  0  0  0  0  0  0  0  0  0  0  0
  -28.2626  -21.0193   18.2883 N   0  3  0  0  0  0  0  0  0  0  0  0
  -26.0242  -24.8470   17.6483 O   0  0  0  0  0  0  0  0  0  0  0  0
  -25.7550  -14.3655   22.7191 O   0  0  0  0  0  0  0  0  0  0  0  0
  -28.6514  -15.5810   20.6386 O   0  0  0  0  0  0  0  0  0  0  0  0
  -27.1198  -20.0724   20.6786 O   0  0  0  0  0  0  0  0  0  0  0  0
  -21.2777  -30.9211   22.8269 O   0  0  0  0  0  0  0  0  0  0  0  0
  -33.2418  -26.5711   19.9975 O   0  0  0  0  0  0  0  0  0  0  0  0
  -20.5993  -18.1770   21.1713 O   0  0  0  0  0  0  0  0  0  1  0  0
  -34.9315  -21.4658   21.2158 F   0  0  0  0  0  0  0  0  0  0  0  0
  -32.6182  -24.4399   18.3508 F   0  0  0  0  0  0  0  0  0  0  0  0
  -18.6247  -25.7056   25.5176 F   0  0  0  0  0  0  0  0  0  0  0  0
  -20.2395  -27.1249   25.2318 F   0  0  0  0  0  0  0  0  0  0  0  0
  -18.2068  -27.6704   24.6848 F   0  0  0  0  0  0  0  0  0  0  0  0
  -20.5944  -27.4174   19.6837 Cl  0  0  0  0  0  0  0  0  0  0  0  0
  1  2  1  0  0  0  0
  1  5  2  0  0  0  0
  2  6  2  0  0  0  0
  3  8  2  0  0  0  0
  3 17  1  0  0  0  0
  4  9  1  0  0  0  0
  4 17  2  0  0  0  0
  5 19  1  0  0  0  0
  6 21  1  0  0  0  0
  7 10  2  0  0  0  0
  7 20  1  0  0  0  0
  8 26  1  0  0  0  0
  9 26  2  0  0  0  0
 10 27  1  0  0  0  0
 11 12  2  0  0  0  0
 11 28  1  0  0  0  0
 12 29  1  0  0  0  0
 13 22  1  0  0  0  0
 13 27  2  0  0  0  0
 14 23  2  0  0  0  0
 14 24  1  0  0  0  0
 15 23  1  0  0  0  0
 15 31  2  0  0  0  0
 16 29  2  0  0  0  0
 16 30  1  0  0  0  0
 17 32  1  0  0  0  0
 18 32  1  0  0  0  0
 18 33  2  0  0  0  0
 18 34  1  0  0  0  0
 19 21  2  0  0  0  0
 19 39  1  0  0  0  0
 20 22  2  0  0  0  0
 20 40  1  0  0  0  0
 21 48  1  0  0  0  0
 22 41  1  0  0  0  0
 23 56  1  0  0  0  0
 24 25  2  0  0  0  0
 24 63  1  0  0  0  0
 25 31  1  0  0  0  0
 25 57  1  0  0  0  0
 26 80  1  0  0  0  0
 27 81  1  0  0  0  0
 28 30  2  0  0  0  0
 28 80  1  0  0  0  0
 29 82  1  0  0  0  0
 30 83  1  0  0  0  0
 31 87  1  0  0  0  0
 32 65  2  0  0  0  0
 33 66  1  0  0  0  0
 33 69  1  0  0  0  0
 34 70  1  0  0  0  0
 34 75  2  0  0  0  0
 35 49  1  0  0  0  0
 35 71  1  0  0  0  0
 35 76  2  0  0  0  0
 36 61  1  0  0  0  0
 36 67  1  0  0  0  0
 36 77  2  0  0  0  0
 37 62  1  0  0  0  0
 37 72  1  0  0  0  0
 37 78  2  0  0  0  0
 38 68  1  0  0  0  0
 38 73  1  0  0  0  0
 38 79  2  0  0  0  0
 39 42  1  0  0  0  0
 40 49  1  0  0  0  0
 41 67  1  0  0  0  0
 42 44  1  0  0  0  0
 43 45  1  0  0  0  0
 43 46  1  0  0  0  0
 44 48  1  0  0  0  0
 45 50  1  0  0  0  0
 46 68  1  0  0  0  0
 47 50  1  0  0  0  0
 47 68  1  0  0  0  0
 48 71  1  0  0  0  0
 49 67  1  0  0  0  0
 50 66  1  0  0  0  0
 51 62  1  0  0  0  0
 52 64  1  0  0  0  0
 53 64  1  0  0  0  0
 54 64  1  0  0  0  0
 55 74  1  0  0  0  0
 56 58  1  0  0  0  0
 57 73  1  0  0  0  0
 58 59  1  0  0  0  0
 59 60  1  0  0  0  0
 60 81  1  0  0  0  0
 61 64  1  0  0  0  0
 61 72  1  0  0  0  0
 62 74  1  0  0  0  0
 63 84  1  0  0  0  0
 63 85  1  0  0  0  0
 63 86  1  0  0  0  0
 65 66  1  0  0  0  0
M  CHG  1  74   1
M  ISO  4  38 100  60 101  73 100  81 101
M  END
> <Batch ID>
0025

> <Smiles>
CNC(C)C(=O)NC(C(=O)N1Cc2cc([101O:1][101CH2:1]CCCc3cc(Cl)c(C[100NH:0][100C:0](=O)N4CCCC(n5nc(-c6ccc(Oc7ccc(F)cc7F)cc6)c(C(N)=O)c5N)C4)c(C(F)(F)F)c3)ccc2CC1C(=O)NC1CCCc2ccccc21)C(C)(C)C

> <Shape>
0.260

> <Color>
0.050

> <Negative vol penalty>
0.000

$$$$

  -OEChem-04052316243D

 87 95  0     1  0  0  0  0  0999 V2000
  -20.9984  -31.0223   13.6250 C   0  0  0  0  0  0  0  0  0  0  0  0
  -21.9704  -30.1392   14.0840 C   0  0  0  0  0  0  0  0  0  0  0  0
  -23.5000   -9.9093   20.7710 C   0  0  0  0  0  0  0  0  0  0  0  0
  -24.1838  -10.5213   23.0060 C   0  0  0  0  0  0  0  0  0  0  0  0
  -20.8619  -32.2767   14.2181 C   0  0  0  0  0  0  0  0  0  0  0  0
  -22.8074  -30.5105   15.1357 C   0  0  0  0  0  0  0  0  0  0  0  0
  -25.0618  -26.8648   19.5097 C   0  0  0  0  0  0  0  0  0  0  0  0
  -22.8937   -8.7573   21.2719 C   0  0  0  0  0  0  0  0  0  0  0  0
  -23.5774   -9.3693   23.5069 C   0  0  0  0  0  0  0  0  0  0  0  0
  -26.2959  -26.2340   19.6612 C   0  0  0  0  0  0  0  0  0  0  0  0
  -23.8538   -5.6847   22.3022 C   0  0  0  0  0  0  0  0  0  0  0  0
  -24.0729   -4.4885   21.6191 C   0  0  0  0  0  0  0  0  0  0  0  0
  -27.0518  -28.0588   21.0461 C   0  0  0  0  0  0  0  0  0  0  0  0
  -32.9127  -16.5922   22.3212 C   0  0  0  0  0  0  0  0  0  0  0  0
  -21.6976   -4.2736   21.2335 C   0  0  0  0  0  0  0  0  0  0  0  0
  -24.1451  -10.7913   21.6380 C   0  0  0  0  0  0  0  0  0  0  0  0
  -24.1827  -13.2488   20.9546 C   0  0  0  0  0  0  0  0  0  0  0  0
  -21.6912  -32.6598   15.2840 C   0  0  0  0  0  0  0  0  0  0  0  0
  -24.8168  -28.1046   20.1174 C   0  0  0  0  0  0  0  0  0  0  0  0
  -22.6828  -31.7717   15.7427 C   0  0  0  0  0  0  0  0  0  0  0  0
  -25.8129  -28.7020   20.9029 C   0  0  0  0  0  0  0  0  0  0  0  0
  -32.9235  -17.9867   22.3522 C   0  0  0  0  0  0  0  0  0  0  0  0
  -31.9232  -15.8870   23.0062 C   0  0  0  0  0  0  0  0  0  0  0  0
  -31.9449  -18.6760   23.0683 C   0  0  0  0  0  0  0  0  0  0  0  0
  -30.9553  -17.9708   23.7533 C   0  0  0  0  0  0  0  0  0  0  0  0
  -22.9324   -8.4873   22.6398 C   0  0  0  0  0  0  0  0  0  0  0  0
  -27.2921  -26.8323   20.4271 C   0  0  0  0  0  0  0  0  0  0  0  0
  -22.5565   -6.1753   22.4511 C   0  0  0  0  0  0  0  0  0  0  0  0
  -22.9949   -3.7830   21.0847 C   0  0  0  0  0  0  0  0  0  0  0  0
  -21.4784   -5.4697   21.9168 C   0  0  0  0  0  0  0  0  0  0  0  0
  -30.9445  -16.5763   23.7223 C   0  0  0  0  0  0  0  0  0  0  0  0
  -24.7720  -11.9812   21.1212 C   0  0  0  0  0  0  0  0  0  0  0  0
  -25.1868  -14.0286   20.4348 C   0  0  0  0  0  0  0  0  0  0  0  0
  -22.8471  -13.6825   21.2440 C   0  0  0  0  0  0  0  0  0  0  0  0
  -24.1212  -31.0213   19.0624 C   0  0  0  0  0  0  0  0  0  0  0  0
  -23.7811  -31.6607   22.2244 C   0  0  0  0  0  0  0  0  0  0  0  0
  -24.5655  -30.8492   25.4451 C   0  0  0  0  0  0  0  0  0  0  0  0
  -31.1593  -13.6960   20.6986 C   0  0  0  0  0  0  0  0  0  0  0  0
  -21.5374  -34.0443   15.8620 C   0  0  0  0  0  0  0  0  0  0  0  0
  -23.4711  -28.7593   19.9662 C   0  0  0  0  0  0  0  0  0  0  0  0
  -25.5931  -30.0227   21.5928 C   0  0  0  0  0  0  0  0  0  0  0  0
  -22.2159  -34.2168   17.2186 C   0  0  0  0  0  0  0  0  0  0  0  0
  -29.1455  -13.7455   17.7628 C   0  0  0  0  0  0  0  0  0  0  0  0
  -23.6251  -33.6337   17.1886 C   0  0  0  0  0  0  0  0  0  0  0  0
  -27.7431  -13.4133   18.2756 C   0  0  0  0  0  0  0  0  0  0  0  0
  -30.2218  -12.9733   18.5225 C   0  0  0  0  0  0  0  0  0  0  0  0
  -28.7660  -12.7850   20.5022 C   0  0  0  0  0  0  0  0  0  0  0  0
  -23.5932  -32.1284   16.8977 C   0  0  1  0  0  0  0  0  0  0  0  0
  -23.5088  -30.2652   20.2074 C   0  0  1  0  0  0  0  0  0  0  0  0
  -27.6505  -13.5817   19.8041 C   0  0  2  0  0  0  0  0  0  0  0  0
  -33.9940  -18.7177   21.6105 C   0  0  0  0  0  0  0  0  0  0  0  0
  -29.9127  -18.7289   24.5155 C   0  0  0  0  0  0  0  0  0  0  0  0
  -24.1672  -31.5781   27.8131 C   0  0  0  0  0  0  0  0  0  0  0  0
  -25.7367  -33.9710   21.8397 C   0  0  0  0  0  0  0  0  0  0  0  0
  -26.0290  -34.0457   24.3251 C   0  0  0  0  0  0  0  0  0  0  0  0
  -23.7890  -34.4885   23.3206 C   0  0  0  0  0  0  0  0  0  0  0  0
  -23.2896  -28.2725   26.1461 C   0  0  0  0  0  0  0  0  0  0  0  0
  -31.9515  -14.3933   22.9448 C   0  0  0  0  0  0  0  0  0  0  0  0
  -31.9602  -20.1759   23.0973 C   0  0  0  0  0  0  0  0  0  0  0  0
  -29.7276  -22.7599   21.4003 C   0  0  0  0  0  0  0  0  0  0  0  0
  -29.6637  -24.2853   21.3879 C   0  0  0  0  0  0  0  0  0  0  0  0
  -30.8576  -22.2676   22.2922 C   0  0  0  0  0  0  0  0  0  0  0  0
  -28.5106  -24.7928   20.5336 C   0  0  0  0  0  0  0  0  0  1  0  0
  -24.7012  -32.1305   23.3251 C   0  0  1  0  0  0  0  0  0  0  0  0
  -23.6997  -30.6778   26.6801 C   0  0  2  0  0  0  0  0  0  0  0  0
  -25.0691  -33.6350   23.1882 C   0  0  0  0  0  0  0  0  0  0  0  0
  -26.0513  -11.9529   20.7380 N   0  0  0  0  0  0  0  0  0  0  0  0
  -26.2740  -13.2124   20.3255 N   0  0  0  0  0  0  0  0  0  0  0  0
  -24.2629  -30.6264   21.4096 N   0  0  0  0  0  0  0  0  0  0  0  0
  -30.0790  -13.1766   19.9662 N   0  0  0  0  0  0  0  0  0  0  0  0
  -25.2368  -15.3260   20.0650 N   0  0  0  0  0  0  0  0  0  0  0  0
  -21.9428  -12.7525   21.7745 N   0  0  0  0  0  0  0  0  0  0  0  0
  -23.2171  -31.3920   18.0854 N   0  0  0  0  0  0  0  0  0  0  0  0
  -24.0429  -31.7883   24.5813 N   0  0  0  0  0  0  0  0  0  0  0  0
  -30.9379  -13.8635   22.0601 N   0  0  0  0  0  0  0  0  0  0  0  0
  -23.7456  -29.2652   27.1529 N   0  3  0  0  0  0  0  0  0  0  0  0
  -30.9095  -20.7867   22.2375 N   0  3  0  0  0  0  0  0  0  0  0  0
  -22.4623  -14.8558   21.0228 O   0  0  0  0  0  0  0  0  0  0  0  0
  -25.3246  -31.2525   19.0660 O   0  0  0  0  0  0  0  0  0  0  0  0
  -22.6727  -32.1869   22.0968 O   0  0  0  0  0  0  0  0  0  0  0  0
  -25.6038  -30.2163   25.2664 O   0  0  0  0  0  0  0  0  0  0  0  0
  -32.2391  -13.9939   20.1768 O   0  0  0  0  0  0  0  0  0  0  0  0
  -22.3407   -7.3634   23.1290 O   0  0  0  0  0  0  0  0  0  0  0  0
  -28.4978  -26.2191   20.5761 O   0  0  0  0  0  0  0  0  0  1  0  0
  -23.2056   -2.6351   20.4273 F   0  0  0  0  0  0  0  0  0  0  0  0
  -20.2300   -5.9366   22.0556 F   0  0  0  0  0  0  0  0  0  0  0  0
  -29.7177  -15.6971   24.5726 Cl  0  0  0  0  0  0  0  0  0  0  0  0
  1  2  1  0  0  0  0
  1  5  2  0  0  0  0
  2  6  2  0  0  0  0
  3  8  2  0  0  0  0
  3 16  1  0  0  0  0
  4  9  1  0  0  0  0
  4 16  2  0  0  0  0
  5 18  1  0  0  0  0
  6 20  1  0  0  0  0
  7 10  2  0  0  0  0
  7 19  1  0  0  0  0
  8 26  1  0  0  0  0
  9 26  2  0  0  0  0
 10 27  1  0  0  0  0
 11 12  2  0  0  0  0
 11 28  1  0  0  0  0
 12 29  1  0  0  0  0
 13 21  1  0  0  0  0
 13 27  2  0  0  0  0
 14 22  2  0  0  0  0
 14 23  1  0  0  0  0
 15 29  2  0  0  0  0
 15 30  1  0  0  0  0
 16 32  1  0  0  0  0
 17 32  1  0  0  0  0
 17 33  2  0  0  0  0
 17 34  1  0  0  0  0
 18 20  2  0  0  0  0
 18 39  1  0  0  0  0
 19 21  2  0  0  0  0
 19 40  1  0  0  0  0
 20 48  1  0  0  0  0
 21 41  1  0  0  0  0
 22 24  1  0  0  0  0
 22 51  1  0  0  0  0
 23 31  2  0  0  0  0
 23 58  1  0  0  0  0
 24 25  2  0  0  0  0
 24 59  1  0  0  0  0
 25 31  1  0  0  0  0
 25 52  1  0  0  0  0
 26 83  1  0  0  0  0
 27 84  1  0  0  0  0
 28 30  2  0  0  0  0
 28 83  1  0  0  0  0
 29 85  1  0  0  0  0
 30 86  1  0  0  0  0
 31 87  1  0  0  0  0
 32 67  2  0  0  0  0
 33 68  1  0  0  0  0
 33 71  1  0  0  0  0
 34 72  1  0  0  0  0
 34 78  2  0  0  0  0
 35 49  1  0  0  0  0
 35 73  1  0  0  0  0
 35 79  2  0  0  0  0
 36 64  1  0  0  0  0
 36 69  1  0  0  0  0
 36 80  2  0  0  0  0
 37 65  1  0  0  0  0
 37 74  1  0  0  0  0
 37 81  2  0  0  0  0
 38 70  1  0  0  0  0
 38 75  1  0  0  0  0
 38 82  2  0  0  0  0
 39 42  1  0  0  0  0
 40 49  1  0  0  0  0
 41 69  1  0  0  0  0
 42 44  1  0  0  0  0
 43 45  1  0  0  0  0
 43 46  1  0  0  0  0
 44 48  1  0  0  0  0
 45 50  1  0  0  0  0
 46 70  1  0  0  0  0
 47 50  1  0  0  0  0
 47 70  1  0  0  0  0
 48 73  1  0  0  0  0
 49 69  1  0  0  0  0
 50 68  1  0  0  0  0
 53 65  1  0  0  0  0
 54 66  1  0  0  0  0
 55 66  1  0  0  0  0
 56 66  1  0  0  0  0
 57 76  1  0  0  0  0
 58 75  1  0  0  0  0
 59 77  1  0  0  0  0
 60 61  1  0  0  0  0
 60 62  1  0  0  0  0
 61 63  1  0  0  0  0
 62 77  1  0  0  0  0
 63 84  1  0  0  0  0
 64 66  1  0  0  0  0
 64 74  1  0  0  0  0
 65 76  1  0  0  0  0
 67 68  1  0  0  0  0
M  CHG  2  76   1  77   1
M  ISO  4  38 100  63 101  75 100  84 101
M  END
> <Batch ID>
0025

> <Smiles>
CNC(C)C(=O)NC(C(=O)N1Cc2cc([101O:1][101CH2:1]CCCNCc3c(C)cc(C[100NH:0][100C:0](=O)N4CCCC(n5nc(-c6ccc(Oc7ccc(F)cc7F)cc6)c(C(N)=O)c5N)C4)c(Cl)c3C)ccc2CC1C(=O)NC1CCCc2ccccc21)C(C)(C)C

> <Shape>
0.290

> <Color>
0.176

> <Negative vol penalty>
0.000

$$$$

  -OEChem-04052316243D

 82 90  0     1  0  0  0  0  0999 V2000
  -32.4213  -32.1834   21.5302 C   0  0  0  0  0  0  0  0  0  0  0  0
  -31.6848  -31.0107   21.6639 C   0  0  0  0  0  0  0  0  0  0  0  0
  -22.8963   -9.9492   19.9622 C   0  0  0  0  0  0  0  0  0  0  0  0
  -24.5014   -9.3914   21.6796 C   0  0  0  0  0  0  0  0  0  0  0  0
  -31.8541  -33.4060   21.8874 C   0  0  0  0  0  0  0  0  0  0  0  0
  -30.3810  -31.0598   22.1558 C   0  0  0  0  0  0  0  0  0  0  0  0
  -27.1822  -28.1957   19.4708 C   0  0  0  0  0  0  0  0  0  0  0  0
  -22.3418   -8.6736   20.0661 C   0  0  0  0  0  0  0  0  0  0  0  0
  -23.9469   -8.1157   21.7835 C   0  0  0  0  0  0  0  0  0  0  0  0
  -27.2103  -26.8212   19.7026 C   0  0  0  0  0  0  0  0  0  0  0  0
  -21.2424   -6.6866   23.2201 C   0  0  0  0  0  0  0  0  0  0  0  0
  -21.0120   -6.1841   24.5007 C   0  0  0  0  0  0  0  0  0  0  0  0
  -25.2623  -27.0252   21.1109 C   0  0  0  0  0  0  0  0  0  0  0  0
  -22.4926   -4.3313   24.0400 C   0  0  0  0  0  0  0  0  0  0  0  0
  -23.9762  -10.3081   20.7689 C   0  0  0  0  0  0  0  0  0  0  0  0
  -23.9006  -12.8557   20.8790 C   0  0  0  0  0  0  0  0  0  0  0  0
  -30.5393  -33.4712   22.3749 C   0  0  0  0  0  0  0  0  0  0  0  0
  -26.1989  -28.9982   20.0669 C   0  0  0  0  0  0  0  0  0  0  0  0
  -29.7961  -32.2843   22.5211 C   0  0  0  0  0  0  0  0  0  0  0  0
  -25.2224  -28.4092   20.8829 C   0  0  0  0  0  0  0  0  0  0  0  0
  -22.8671   -7.7568   20.9767 C   0  0  0  0  0  0  0  0  0  0  0  0
  -26.2520  -26.2362   20.5251 C   0  0  0  0  0  0  0  0  0  0  0  0
  -22.0978   -6.0114   22.3493 C   0  0  0  0  0  0  0  0  0  0  0  0
  -21.6371   -5.0064   24.9106 C   0  0  0  0  0  0  0  0  0  0  0  0
  -22.7229   -4.8338   22.7593 C   0  0  0  0  0  0  0  0  0  0  0  0
  -24.5498  -11.6256   20.6617 C   0  0  0  0  0  0  0  0  0  0  0  0
  -24.8711  -13.8008   20.6525 C   0  0  0  0  0  0  0  0  0  0  0  0
  -22.5418  -13.1203   21.2524 C   0  0  0  0  0  0  0  0  0  0  0  0
  -26.2250  -31.4245   22.1203 C   0  0  0  0  0  0  0  0  0  0  0  0
  -30.1187  -15.5944   21.3840 C   0  0  0  0  0  0  0  0  0  0  0  0
  -23.0479  -31.5003   21.4701 C   0  0  0  0  0  0  0  0  0  0  0  0
  -20.3950  -29.0977   21.0157 C   0  0  0  0  0  0  0  0  0  0  0  0
  -29.9855  -34.8104   22.7925 C   0  0  0  0  0  0  0  0  0  0  0  0
  -26.1663  -30.4754   19.7854 C   0  0  0  0  0  0  0  0  0  0  0  0
  -24.1334  -29.2236   21.5304 C   0  0  0  0  0  0  0  0  0  0  0  0
  -28.4674  -34.8186   22.9529 C   0  0  0  0  0  0  0  0  0  0  0  0
  -29.4842  -13.3787   18.6402 C   0  0  0  0  0  0  0  0  0  0  0  0
  -28.0083  -33.6023   23.7509 C   0  0  0  0  0  0  0  0  0  0  0  0
  -28.1039  -12.8035   18.9551 C   0  0  0  0  0  0  0  0  0  0  0  0
  -27.8623  -18.8834   23.1564 C   0  0  0  0  0  0  0  0  0  0  0  0
  -30.2936  -13.6157   19.9113 C   0  0  0  0  0  0  0  0  0  0  0  0
  -28.2234  -13.9040   21.2353 C   0  0  0  0  0  0  0  0  0  0  0  0
  -28.0332  -19.9636   22.0972 C   0  0  0  0  0  0  0  0  0  0  0  0
  -30.0889  -20.7984   23.2785 C   0  0  0  0  0  0  0  0  0  0  0  0
  -28.3702  -32.2994   23.0277 C   0  0  1  0  0  0  0  0  0  0  0  0
  -25.4271  -31.2717   20.8563 C   0  0  1  0  0  0  0  0  0  0  0  0
  -29.1899  -18.4650   23.8080 C   0  0  2  0  0  0  0  0  0  0  0  0
  -29.9233  -19.7147   24.3482 C   0  0  1  0  0  0  0  0  0  0  0  0
  -27.3613  -13.6783   19.9807 C   0  0  2  0  0  0  0  0  0  0  0  0
  -31.2781  -19.3839   24.9766 C   0  0  0  0  0  0  0  0  0  0  0  0
  -18.2636  -29.2500   19.6998 C   0  0  0  0  0  0  0  0  0  0  0  0
  -21.8188  -32.3968   24.1150 C   0  0  0  0  0  0  0  0  0  0  0  0
  -19.7751  -31.0725   23.5341 C   0  0  0  0  0  0  0  0  0  0  0  0
  -20.4747  -32.9815   22.0888 C   0  0  0  0  0  0  0  0  0  0  0  0
  -21.0298  -26.6466   19.4833 C   0  0  0  0  0  0  0  0  0  0  0  0
  -29.2855  -16.3840   22.3619 C   0  0  0  0  0  0  0  0  0  0  0  0
  -30.0287  -17.6202   22.8411 C   0  0  0  0  0  0  0  0  0  0  0  0
  -27.5183  -23.0512   21.6560 C   0  0  0  0  0  0  0  0  0  0  0  0
  -28.8352  -22.2928   21.7256 C   0  0  0  0  0  0  0  0  0  0  0  0
  -27.5524  -24.2548   20.7222 C   0  0  0  0  0  0  0  0  0  1  0  0
  -21.8212  -30.8420   22.0538 C   0  0  1  0  0  0  0  0  0  0  0  0
  -19.6991  -28.7479   19.7127 C   0  0  2  0  0  0  0  0  0  0  0  0
  -20.9980  -31.8107   22.9490 C   0  0  0  0  0  0  0  0  0  0  0  0
  -25.8334  -11.7727   20.3229 N   0  0  0  0  0  0  0  0  0  0  0  0
  -25.9985  -13.1064   20.3256 N   0  0  0  0  0  0  0  0  0  0  0  0
  -24.1478  -30.6648   21.2297 N   0  0  0  0  0  0  0  0  0  0  0  0
  -29.5450  -14.4318   20.8690 N   0  0  0  0  0  0  0  0  0  0  0  0
  -24.8614  -15.1498   20.7029 N   0  0  0  0  0  0  0  0  0  0  0  0
  -22.2272  -13.2016   22.6157 N   0  0  0  0  0  0  0  0  0  0  0  0
  -27.4448  -32.0493   21.9435 N   0  0  0  0  0  0  0  0  0  0  0  0
  -21.0768  -30.2928   20.9257 N   0  0  0  0  0  0  0  0  0  0  0  0
  -28.7387  -21.1518   22.7013 N   0  3  1  0  0  0  0  0  0  0  0  0
  -19.6821  -27.2709   19.5148 N   0  3  0  0  0  0  0  0  0  0  0  0
  -21.6304  -13.2636   20.4024 O   0  0  0  0  0  0  0  0  0  0  0  0
  -25.7672  -31.0078   23.1779 O   0  0  0  0  0  0  0  0  0  0  0  0
  -31.2444  -16.0019   21.0857 O   0  0  0  0  0  0  0  0  0  0  0  0
  -23.0284  -32.7100   21.2295 O   0  0  0  0  0  0  0  0  0  0  0  0
  -20.3362  -28.3841   22.0147 O   0  0  0  0  0  0  0  0  0  0  0  0
  -22.3261   -6.5120   21.0785 O   0  0  0  0  0  0  0  0  0  0  0  0
  -26.2774  -24.8949   20.7536 O   0  0  0  0  0  0  0  0  0  1  0  0
  -21.4170   -4.5248   26.1410 F   0  0  0  0  0  0  0  0  0  0  0  0
  -23.5467   -4.1814   21.9277 F   0  0  0  0  0  0  0  0  0  0  0  0
  1  2  1  0  0  0  0
  1  5  2  0  0  0  0
  2  6  2  0  0  0  0
  3  8  2  0  0  0  0
  3 15  1  0  0  0  0
  4  9  1  0  0  0  0
  4 15  2  0  0  0  0
  5 17  1  0  0  0  0
  6 19  1  0  0  0  0
  7 10  2  0  0  0  0
  7 18  1  0  0  0  0
  8 21  1  0  0  0  0
  9 21  2  0  0  0  0
 10 22  1  0  0  0  0
 11 12  2  0  0  0  0
 11 23  1  0  0  0  0
 12 24  1  0  0  0  0
 13 20  1  0  0  0  0
 13 22  2  0  0  0  0
 14 24  2  0  0  0  0
 14 25  1  0  0  0  0
 15 26  1  0  0  0  0
 16 26  1  0  0  0  0
 16 27  2  0  0  0  0
 16 28  1  0  0  0  0
 17 19  2  0  0  0  0
 17 33  1  0  0  0  0
 18 20  2  0  0  0  0
 18 34  1  0  0  0  0
 19 45  1  0  0  0  0
 20 35  1  0  0  0  0
 21 79  1  0  0  0  0
 22 80  1  0  0  0  0
 23 25  2  0  0  0  0
 23 79  1  0  0  0  0
 24 81  1  0  0  0  0
 25 82  1  0  0  0  0
 26 64  2  0  0  0  0
 27 65  1  0  0  0  0
 27 68  1  0  0  0  0
 28 69  1  0  0  0  0
 28 74  2  0  0  0  0
 29 46  1  0  0  0  0
 29 70  1  0  0  0  0
 29 75  2  0  0  0  0
 30 56  1  0  0  0  0
 30 67  1  0  0  0  0
 30 76  2  0  0  0  0
 31 61  1  0  0  0  0
 31 66  1  0  0  0  0
 31 77  2  0  0  0  0
 32 62  1  0  0  0  0
 32 71  1  0  0  0  0
 32 78  2  0  0  0  0
 33 36  1  0  0  0  0
 34 46  1  0  0  0  0
 35 66  1  0  0  0  0
 36 38  1  0  0  0  0
 37 39  1  0  0  0  0
 37 41  1  0  0  0  0
 38 45  1  0  0  0  0
 39 49  1  0  0  0  0
 40 43  1  0  0  0  0
 40 47  1  0  0  0  0
 41 67  1  0  0  0  0
 42 49  1  0  0  0  0
 42 67  1  0  0  0  0
 43 72  1  0  0  0  0
 44 48  1  0  0  0  0
 44 72  1  0  0  0  0
 45 70  1  0  0  0  0
 46 66  1  0  0  0  0
 47 48  1  0  0  0  0
 47 57  1  0  0  0  0
 48 50  1  0  0  0  0
 49 65  1  0  0  0  0
 51 62  1  0  0  0  0
 52 63  1  0  0  0  0
 53 63  1  0  0  0  0
 54 63  1  0  0  0  0
 55 73  1  0  0  0  0
 56 57  1  0  0  0  0
 58 59  1  0  0  0  0
 58 60  1  0  0  0  0
 59 72  1  0  0  0  0
 60 80  1  0  0  0  0
 61 63  1  0  0  0  0
 61 71  1  0  0  0  0
 62 73  1  0  0  0  0
 64 65  1  0  0  0  0
M  CHG  2  72   1  73   1
M  ISO  4  30 100  56 100  60 101  80 101
M  END
> <Batch ID>
0025

> <Smiles>
CNC(C)C(=O)NC(C(=O)N1Cc2cc([101O:1][101CH2:1]CCN3CCC(C[100CH2:0][100C:0](=O)N4CCCC(n5nc(-c6ccc(Oc7ccc(F)cc7F)cc6)c(C(N)=O)c5N)C4)C(C)C3)ccc2CC1C(=O)NC1CCCc2ccccc21)C(C)(C)C

> <Shape>
0.302

> <Color>
0.167

> <Negative vol penalty>
0.000

$$$$

  -OEChem-04052316243D

 85 93  0     1  0  0  0  0  0999 V2000
  -37.7371  -28.8612   25.3909 C   0  0  0  0  0  0  0  0  0  0  0  0
  -36.6299  -28.1441   25.8330 C   0  0  0  0  0  0  0  0  0  0  0  0
  -23.0052   -9.8567   19.9614 C   0  0  0  0  0  0  0  0  0  0  0  0
  -23.7344   -9.8916   22.2645 C   0  0  0  0  0  0  0  0  0  0  0  0
  -37.6592  -29.6073   24.2157 C   0  0  0  0  0  0  0  0  0  0  0  0
  -35.4437  -28.1737   25.1005 C   0  0  0  0  0  0  0  0  0  0  0  0
  -33.3697  -23.5837   24.5756 C   0  0  0  0  0  0  0  0  0  0  0  0
  -22.2479   -8.7139   20.2185 C   0  0  0  0  0  0  0  0  0  0  0  0
  -22.9770   -8.7489   22.5217 C   0  0  0  0  0  0  0  0  0  0  0  0
  -32.6733  -23.0708   25.6691 C   0  0  0  0  0  0  0  0  0  0  0  0
  -23.2459   -5.4165   22.0181 C   0  0  0  0  0  0  0  0  0  0  0  0
  -23.8426   -4.3968   22.7595 C   0  0  0  0  0  0  0  0  0  0  0  0
  -30.5908  -23.7229   24.6409 C   0  0  0  0  0  0  0  0  0  0  0  0
  -30.3163  -18.0793   24.0315 C   0  0  0  0  0  0  0  0  0  0  0  0
  -22.1201   -4.6109   24.4401 C   0  0  0  0  0  0  0  0  0  0  0  0
  -23.7485  -10.4455   20.9844 C   0  0  0  0  0  0  0  0  0  0  0  0
  -24.1143  -12.9655   20.8312 C   0  0  0  0  0  0  0  0  0  0  0  0
  -36.4744  -29.6383   23.4634 C   0  0  0  0  0  0  0  0  0  0  0  0
  -32.6814  -24.1808   23.5097 C   0  0  0  0  0  0  0  0  0  0  0  0
  -35.3494  -28.9220   23.9148 C   0  0  0  0  0  0  0  0  0  0  0  0
  -31.2807  -24.2403   23.5338 C   0  0  0  0  0  0  0  0  0  0  0  0
  -29.9044  -17.7301   22.7502 C   0  0  0  0  0  0  0  0  0  0  0  0
  -28.6948  -18.2096   22.2599 C   0  0  0  0  0  0  0  0  0  0  0  0
  -22.2338   -8.1600   21.4986 C   0  0  0  0  0  0  0  0  0  0  0  0
  -31.2838  -23.1430   25.7032 C   0  0  0  0  0  0  0  0  0  0  0  0
  -22.0863   -6.0334   22.4876 C   0  0  0  0  0  0  0  0  0  0  0  0
  -23.2798   -3.9940   23.9705 C   0  0  0  0  0  0  0  0  0  0  0  0
  -21.5234   -5.6306   23.6986 C   0  0  0  0  0  0  0  0  0  0  0  0
  -24.5315  -11.6257   20.7193 C   0  0  0  0  0  0  0  0  0  0  0  0
  -29.4889  -18.9041   24.7765 C   0  0  0  0  0  0  0  0  0  0  0  0
  -27.9399  -19.0284   23.0843 C   0  0  0  0  0  0  0  0  0  0  0  0
  -25.2178  -13.6999   20.4716 C   0  0  0  0  0  0  0  0  0  0  0  0
  -22.8429  -13.4986   21.2252 C   0  0  0  0  0  0  0  0  0  0  0  0
  -32.6250  -27.0868   22.2230 C   0  0  0  0  0  0  0  0  0  0  0  0
  -30.7221  -25.6511   20.0230 C   0  0  0  0  0  0  0  0  0  0  0  0
  -28.5828  -23.1024   19.2648 C   0  0  0  0  0  0  0  0  0  0  0  0
  -30.7073  -14.6742   20.7188 C   0  0  0  0  0  0  0  0  0  0  0  0
  -36.4234  -30.4971   22.2246 C   0  0  0  0  0  0  0  0  0  0  0  0
  -33.4458  -24.7053   22.3252 C   0  0  0  0  0  0  0  0  0  0  0  0
  -30.4934  -24.8531   22.4055 C   0  0  0  0  0  0  0  0  0  0  0  0
  -35.2457  -30.1750   21.3083 C   0  0  0  0  0  0  0  0  0  0  0  0
  -29.5807  -12.2639   18.3528 C   0  0  0  0  0  0  0  0  0  0  0  0
  -33.9581  -30.0522   22.1169 C   0  0  0  0  0  0  0  0  0  0  0  0
  -28.1351  -11.9892   18.7706 C   0  0  0  0  0  0  0  0  0  0  0  0
  -30.4836  -12.4949   19.5626 C   0  0  0  0  0  0  0  0  0  0  0  0
  -28.5700  -13.2632   20.9122 C   0  0  0  0  0  0  0  0  0  0  0  0
  -34.0527  -28.9092   23.1347 C   0  0  1  0  0  0  0  0  0  0  0  0
  -32.6723  -25.7537   21.5315 C   0  0  1  0  0  0  0  0  0  0  0  0
  -27.6102  -13.0793   19.7243 C   0  0  2  0  0  0  0  0  0  0  0  0
  -28.2366  -17.8449   20.8871 C   0  0  0  0  0  0  0  0  0  0  0  0
  -27.1057  -21.6438   17.8548 C   0  0  0  0  0  0  0  0  0  0  0  0
  -28.0233  -19.2825   27.5617 C   0  0  0  0  0  0  0  0  0  0  0  0
  -28.6639  -27.8388   20.5593 C   0  0  0  0  0  0  0  0  0  0  0  0
  -26.9501  -26.4072   19.4273 C   0  0  0  0  0  0  0  0  0  0  0  0
  -28.9302  -27.2251   18.1495 C   0  0  0  0  0  0  0  0  0  0  0  0
  -30.8448  -21.3552   18.4970 C   0  0  0  0  0  0  0  0  0  0  0  0
  -30.7757  -16.8425   21.9242 C   0  0  0  0  0  0  0  0  0  0  0  0
  -30.0757  -20.6670   28.0261 C   0  0  0  0  0  0  0  0  0  0  0  0
  -31.1896  -21.5409   27.4583 C   0  0  0  0  0  0  0  0  0  1  0  0
  -29.2376  -25.4133   19.8859 C   0  0  1  0  0  0  0  0  0  0  0  0
  -28.5186  -22.1614   18.0754 C   0  0  2  0  0  0  0  0  0  0  0  0
  -29.1552  -20.0965   26.9427 C   0  0  1  0  0  0  0  0  0  0  0  0
  -28.4601  -26.7112   19.5278 C   0  0  0  0  0  0  0  0  0  0  0  0
  -25.8010  -11.5126   20.3196 N   0  0  0  0  0  0  0  0  0  0  0  0
  -28.3071  -19.3894   24.3343 N   0  0  0  0  0  0  0  0  0  0  0  0
  -26.1909  -12.7908   20.1772 N   0  0  0  0  0  0  0  0  0  0  0  0
  -31.2866  -25.3576   21.2724 N   0  0  0  0  0  0  0  0  0  0  0  0
  -29.9304  -13.5414   20.4255 N   0  0  0  0  0  0  0  0  0  0  0  0
  -25.4410  -15.0283   20.3815 N   0  0  0  0  0  0  0  0  0  0  0  0
  -21.8186  -12.6034   21.5623 N   0  0  0  0  0  0  0  0  0  0  0  0
  -29.9108  -19.2431   26.0495 N   0  0  0  0  0  0  0  0  0  0  0  0
  -33.8685  -27.6321   22.4792 N   0  0  0  0  0  0  0  0  0  0  0  0
  -29.0848  -24.3374   18.9124 N   0  0  0  0  0  0  0  0  0  0  0  0
  -30.1052  -15.6208   21.5387 N   0  0  0  0  0  0  0  0  0  0  0  0
  -29.4189  -20.9933   18.2899 N   0  3  0  0  0  0  0  0  0  0  0  0
  -22.6168  -14.7319   21.2609 O   0  0  0  0  0  0  0  0  0  0  0  0
  -31.5405  -27.5846   22.5020 O   0  0  0  0  0  0  0  0  0  0  0  0
  -31.3586  -26.0746   19.0550 O   0  0  0  0  0  0  0  0  0  0  0  0
  -28.2202  -22.7760   20.3928 O   0  0  0  0  0  0  0  0  0  0  0  0
  -31.8508  -14.8330   20.2780 O   0  0  0  0  0  0  0  0  0  0  0  0
  -21.4947   -7.0450   21.7499 O   0  0  0  0  0  0  0  0  0  0  0  0
  -30.6016  -22.6438   26.7696 O   0  0  0  0  0  0  0  0  0  1  0  0
  -23.8520   -3.0137   24.6817 F   0  0  0  0  0  0  0  0  0  0  0  0
  -20.4089   -6.2187   24.1543 F   0  0  0  0  0  0  0  0  0  0  0  0
  -26.4270  -19.6850   22.5950 Cl  0  0  0  0  0  0  0  0  0  0  0  0
  1  2  1  0  0  0  0
  1  5  2  0  0  0  0
  2  6  2  0  0  0  0
  3  8  2  0  0  0  0
  3 16  1  0  0  0  0
  4  9  1  0  0  0  0
  4 16  2  0  0  0  0
  5 18  1  0  0  0  0
  6 20  1  0  0  0  0
  7 10  2  0  0  0  0
  7 19  1  0  0  0  0
  8 24  1  0  0  0  0
  9 24  2  0  0  0  0
 10 25  1  0  0  0  0
 11 12  2  0  0  0  0
 11 26  1  0  0  0  0
 12 27  1  0  0  0  0
 13 21  1  0  0  0  0
 13 25  2  0  0  0  0
 14 22  2  0  0  0  0
 14 30  1  0  0  0  0
 15 27  2  0  0  0  0
 15 28  1  0  0  0  0
 16 29  1  0  0  0  0
 17 29  1  0  0  0  0
 17 32  2  0  0  0  0
 17 33  1  0  0  0  0
 18 20  2  0  0  0  0
 18 38  1  0  0  0  0
 19 21  2  0  0  0  0
 19 39  1  0  0  0  0
 20 47  1  0  0  0  0
 21 40  1  0  0  0  0
 22 23  1  0  0  0  0
 22 57  1  0  0  0  0
 23 31  2  0  0  0  0
 23 50  1  0  0  0  0
 24 81  1  0  0  0  0
 25 82  1  0  0  0  0
 26 28  2  0  0  0  0
 26 81  1  0  0  0  0
 27 83  1  0  0  0  0
 28 84  1  0  0  0  0
 29 64  2  0  0  0  0
 30 65  2  0  0  0  0
 30 71  1  0  0  0  0
 31 65  1  0  0  0  0
 31 85  1  0  0  0  0
 32 66  1  0  0  0  0
 32 69  1  0  0  0  0
 33 70  1  0  0  0  0
 33 76  2  0  0  0  0
 34 48  1  0  0  0  0
 34 72  1  0  0  0  0
 34 77  2  0  0  0  0
 35 60  1  0  0  0  0
 35 67  1  0  0  0  0
 35 78  2  0  0  0  0
 36 61  1  0  0  0  0
 36 73  1  0  0  0  0
 36 79  2  0  0  0  0
 37 68  1  0  0  0  0
 37 74  1  0  0  0  0
 37 80  2  0  0  0  0
 38 41  1  0  0  0  0
 39 48  1  0  0  0  0
 40 67  1  0  0  0  0
 41 43  1  0  0  0  0
 42 44  1  0  0  0  0
 42 45  1  0  0  0  0
 43 47  1  0  0  0  0
 44 49  1  0  0  0  0
 45 68  1  0  0  0  0
 46 49  1  0  0  0  0
 46 68  1  0  0  0  0
 47 72  1  0  0  0  0
 48 67  1  0  0  0  0
 49 66  1  0  0  0  0
 51 61  1  0  0  0  0
 52 62  1  0  0  0  0
 53 63  1  0  0  0  0
 54 63  1  0  0  0  0
 55 63  1  0  0  0  0
 56 75  1  0  0  0  0
 57 74  1  0  0  0  0
 58 59  1  0  0  0  0
 58 62  1  0  0  0  0
 59 82  1  0  0  0  0
 60 63  1  0  0  0  0
 60 73  1  0  0  0  0
 61 75  1  0  0  0  0
 62 71  1  0  0  0  0
 64 66  1  0  0  0  0
M  CHG  1  75   1
M  ISO  4  37 100  59 101  74 100  82 101
M  END
> <Batch ID>
0025

> <Smiles>
CNC(C)C(=O)NC(C(=O)N1Cc2cc([101O:1][101CH2:1]CC(C)Nc3cc(C[100NH:0][100C:0](=O)N4CCCC(n5nc(-c6ccc(Oc7ccc(F)cc7F)cc6)c(C(N)=O)c5N)C4)c(C)c(Cl)n3)ccc2CC1C(=O)NC1CCCc2ccccc21)C(C)(C)C

> <Shape>
0.246

> <Color>
0.207

> <Negative vol penalty>
0.000

$$$$

  -OEChem-04052316243D

 87 95  0     1  0  0  0  0  0999 V2000
  -26.9119  -37.0177   21.3541 C   0  0  0  0  0  0  0  0  0  0  0  0
  -27.4410  -35.7513   21.1269 C   0  0  0  0  0  0  0  0  0  0  0  0
  -24.5234  -15.6150   22.3802 C   0  0  0  0  0  0  0  0  0  0  0  0
  -23.5866  -15.7046   20.1550 C   0  0  0  0  0  0  0  0  0  0  0  0
  -25.9256  -37.1962   22.3234 C   0  0  0  0  0  0  0  0  0  0  0  0
  -26.9849  -34.6628   21.8695 C   0  0  0  0  0  0  0  0  0  0  0  0
  -26.1096  -30.5831   18.9999 C   0  0  0  0  0  0  0  0  0  0  0  0
  -23.9773  -16.8675   22.6605 C   0  0  0  0  0  0  0  0  0  0  0  0
  -23.0404  -16.9571   20.4354 C   0  0  0  0  0  0  0  0  0  0  0  0
  -27.2170  -29.8367   18.5995 C   0  0  0  0  0  0  0  0  0  0  0  0
  -21.7027  -20.3365   20.4422 C   0  0  0  0  0  0  0  0  0  0  0  0
  -21.8373  -21.3335   19.4760 C   0  0  0  0  0  0  0  0  0  0  0  0
  -26.7687  -28.2421   20.3532 C   0  0  0  0  0  0  0  0  0  0  0  0
  -31.5379  -19.1334   18.2269 C   0  0  0  0  0  0  0  0  0  0  0  0
  -24.2420  -21.1591   19.6310 C   0  0  0  0  0  0  0  0  0  0  0  0
  -24.3281  -15.0336   21.1274 C   0  0  0  0  0  0  0  0  0  0  0  0
  -24.2893  -12.4844   21.0401 C   0  0  0  0  0  0  0  0  0  0  0  0
  -25.4503  -36.1076   23.0716 C   0  0  0  0  0  0  0  0  0  0  0  0
  -25.3285  -30.1696   20.0886 C   0  0  0  0  0  0  0  0  0  0  0  0
  -25.9924  -34.8271   22.8506 C   0  0  0  0  0  0  0  0  0  0  0  0
  -25.6504  -28.9836   20.7638 C   0  0  0  0  0  0  0  0  0  0  0  0
  -30.5606  -20.0298   18.6591 C   0  0  0  0  0  0  0  0  0  0  0  0
  -31.3599  -17.7629   18.4159 C   0  0  0  0  0  0  0  0  0  0  0  0
  -29.4053  -19.5558   19.2805 C   0  0  0  0  0  0  0  0  0  0  0  0
  -30.2045  -17.2889   19.0373 C   0  0  0  0  0  0  0  0  0  0  0  0
  -23.2358  -17.5386   21.6881 C   0  0  0  0  0  0  0  0  0  0  0  0
  -27.5485  -28.6675   19.2780 C   0  0  0  0  0  0  0  0  0  0  0  0
  -22.8378  -19.7509   21.0029 C   0  0  0  0  0  0  0  0  0  0  0  0
  -23.1069  -21.7447   19.0704 C   0  0  0  0  0  0  0  0  0  0  0  0
  -24.1074  -20.1621   20.5972 C   0  0  0  0  0  0  0  0  0  0  0  0
  -29.2272  -18.1853   19.4696 C   0  0  0  0  0  0  0  0  0  0  0  0
  -24.8925  -13.7400   20.8370 C   0  0  0  0  0  0  0  0  0  0  0  0
  -25.2273  -11.5789   20.6079 C   0  0  0  0  0  0  0  0  0  0  0  0
  -22.9967  -12.1650   21.5720 C   0  0  0  0  0  0  0  0  0  0  0  0
  -24.6053  -31.4032   22.9275 C   0  0  0  0  0  0  0  0  0  0  0  0
  -22.6291  -28.8369   23.1045 C   0  0  0  0  0  0  0  0  0  0  0  0
  -21.8969  -25.6675   22.0725 C   0  0  0  0  0  0  0  0  0  0  0  0
  -29.0191  -15.0789   18.7210 C   0  0  0  0  0  0  0  0  0  0  0  0
  -24.4169  -36.3579   24.1412 C   0  0  0  0  0  0  0  0  0  0  0  0
  -24.1214  -30.9717   20.4912 C   0  0  0  0  0  0  0  0  0  0  0  0
  -24.8322  -28.4856   21.9261 C   0  0  0  0  0  0  0  0  0  0  0  0
  -23.7209  -35.0882   24.6247 C   0  0  0  0  0  0  0  0  0  0  0  0
  -30.0444  -11.7077   20.2863 C   0  0  0  0  0  0  0  0  0  0  0  0
  -24.7434  -33.9892   24.8961 C   0  0  0  0  0  0  0  0  0  0  0  0
  -28.6096  -11.4522   20.7302 C   0  0  0  0  0  0  0  0  0  0  0  0
  -30.2294  -13.1761   19.9134 C   0  0  0  0  0  0  0  0  0  0  0  0
  -28.1888  -12.7414   18.5426 C   0  0  0  0  0  0  0  0  0  0  0  0
  -25.5058  -33.6173   23.6186 C   0  0  1  0  0  0  0  0  0  0  0  0
  -23.6982  -30.7298   21.9368 C   0  0  1  0  0  0  0  0  0  0  0  0
  -27.6027  -11.8014   19.6160 C   0  0  2  0  0  0  0  0  0  0  0  0
  -32.4258  -16.8290   17.9401 C   0  0  0  0  0  0  0  0  0  0  0  0
  -28.3689  -20.5366   19.7357 C   0  0  0  0  0  0  0  0  0  0  0  0
  -20.2399  -23.8155   22.4217 C   0  0  0  0  0  0  0  0  0  0  0  0
  -29.5804  -23.8595   15.7465 C   0  0  0  0  0  0  0  0  0  0  0  0
  -23.9491  -28.1620   25.7714 C   0  0  0  0  0  0  0  0  0  0  0  0
  -22.9633  -25.8671   25.5991 C   0  0  0  0  0  0  0  0  0  0  0  0
  -21.4670  -27.8588   25.7295 C   0  0  0  0  0  0  0  0  0  0  0  0
  -21.0550  -25.7294   19.2359 C   0  0  0  0  0  0  0  0  0  0  0  0
  -30.7782  -21.4982   18.4411 C   0  0  0  0  0  0  0  0  0  0  0  0
  -29.3972  -25.8042   18.0498 C   0  0  0  0  0  0  0  0  0  0  0  0
  -29.3562  -24.2808   18.2290 C   0  0  0  0  0  0  0  0  0  0  0  0
  -28.5745  -26.5286   19.1098 C   0  0  0  0  0  0  0  0  0  1  0  0
  -22.7614  -27.4181   23.6029 C   0  0  1  0  0  0  0  0  0  0  0  0
  -20.6013  -25.0383   21.5929 C   0  0  2  0  0  0  0  0  0  0  0  0
  -30.1101  -23.5185   17.1331 C   0  0  1  0  0  0  0  0  0  0  0  0
  -22.8019  -27.3366   25.1551 C   0  0  0  0  0  0  0  0  0  0  0  0
  -26.1188  -13.6448   20.3163 N   0  0  0  0  0  0  0  0  0  0  0  0
  -26.2938  -12.3185   20.1887 N   0  0  0  0  0  0  0  0  0  0  0  0
  -23.6653  -29.3081   22.2858 N   0  0  0  0  0  0  0  0  0  0  0  0
  -29.1409  -13.7143   19.0843 N   0  0  0  0  0  0  0  0  0  0  0  0
  -25.2356  -10.2302   20.5493 N   0  0  0  0  0  0  0  0  0  0  0  0
  -22.1587  -13.2163   21.9679 N   0  0  0  0  0  0  0  0  0  0  0  0
  -30.0399  -15.8926   19.2198 N   0  0  0  0  0  0  0  0  0  0  0  0
  -24.6908  -32.7735   22.7712 N   0  0  0  0  0  0  0  0  0  0  0  0
  -21.6686  -26.6679   22.9935 N   0  0  0  0  0  0  0  0  0  0  0  0
  -20.7248  -24.6205   20.1678 N   0  3  0  0  0  0  0  0  0  0  0  0
  -29.9532  -22.0512   17.3359 N   0  3  0  0  0  0  0  0  0  0  0  0
  -22.6031  -10.9817   21.7078 O   0  0  0  0  0  0  0  0  0  0  0  0
  -25.1837  -30.7296   23.7721 O   0  0  0  0  0  0  0  0  0  0  0  0
  -21.6394  -29.5003   23.4238 O   0  0  0  0  0  0  0  0  0  0  0  0
  -23.0013  -25.3050   21.6730 O   0  0  0  0  0  0  0  0  0  0  0  0
  -28.0868  -15.4825   18.0227 O   0  0  0  0  0  0  0  0  0  0  0  0
  -22.7026  -18.7607   21.9615 O   0  0  0  0  0  0  0  0  0  0  0  0
  -28.6293  -27.9375   18.8897 O   0  0  0  0  0  0  0  0  0  1  0  0
  -23.2359  -22.7010   18.1414 F   0  0  0  0  0  0  0  0  0  0  0  0
  -25.2016  -19.6024   21.1314 F   0  0  0  0  0  0  0  0  0  0  0  0
  -27.7883  -17.6026   20.2444 Cl  0  0  0  0  0  0  0  0  0  0  0  0
  1  2  1  0  0  0  0
  1  5  2  0  0  0  0
  2  6  2  0  0  0  0
  3  8  2  0  0  0  0
  3 16  1  0  0  0  0
  4  9  1  0  0  0  0
  4 16  2  0  0  0  0
  5 18  1  0  0  0  0
  6 20  1  0  0  0  0
  7 10  2  0  0  0  0
  7 19  1  0  0  0  0
  8 26  1  0  0  0  0
  9 26  2  0  0  0  0
 10 27  1  0  0  0  0
 11 12  2  0  0  0  0
 11 28  1  0  0  0  0
 12 29  1  0  0  0  0
 13 21  1  0  0  0  0
 13 27  2  0  0  0  0
 14 22  1  0  0  0  0
 14 23  2  0  0  0  0
 15 29  2  0  0  0  0
 15 30  1  0  0  0  0
 16 32  1  0  0  0  0
 17 32  1  0  0  0  0
 17 33  2  0  0  0  0
 17 34  1  0  0  0  0
 18 20  2  0  0  0  0
 18 39  1  0  0  0  0
 19 21  2  0  0  0  0
 19 40  1  0  0  0  0
 20 48  1  0  0  0  0
 21 41  1  0  0  0  0
 22 24  2  0  0  0  0
 22 59  1  0  0  0  0
 23 25  1  0  0  0  0
 23 51  1  0  0  0  0
 24 31  1  0  0  0  0
 24 52  1  0  0  0  0
 25 31  2  0  0  0  0
 25 73  1  0  0  0  0
 26 83  1  0  0  0  0
 27 84  1  0  0  0  0
 28 30  2  0  0  0  0
 28 83  1  0  0  0  0
 29 85  1  0  0  0  0
 30 86  1  0  0  0  0
 31 87  1  0  0  0  0
 32 67  2  0  0  0  0
 33 68  1  0  0  0  0
 33 71  1  0  0  0  0
 34 72  1  0  0  0  0
 34 78  2  0  0  0  0
 35 49  1  0  0  0  0
 35 74  1  0  0  0  0
 35 79  2  0  0  0  0
 36 63  1  0  0  0  0
 36 69  1  0  0  0  0
 36 80  2  0  0  0  0
 37 64  1  0  0  0  0
 37 75  1  0  0  0  0
 37 81  2  0  0  0  0
 38 70  1  0  0  0  0
 38 73  1  0  0  0  0
 38 82  2  0  0  0  0
 39 42  1  0  0  0  0
 40 49  1  0  0  0  0
 41 69  1  0  0  0  0
 42 44  1  0  0  0  0
 43 45  1  0  0  0  0
 43 46  1  0  0  0  0
 44 48  1  0  0  0  0
 45 50  1  0  0  0  0
 46 70  1  0  0  0  0
 47 50  1  0  0  0  0
 47 70  1  0  0  0  0
 48 74  1  0  0  0  0
 49 69  1  0  0  0  0
 50 68  1  0  0  0  0
 53 64  1  0  0  0  0
 54 65  1  0  0  0  0
 55 66  1  0  0  0  0
 56 66  1  0  0  0  0
 57 66  1  0  0  0  0
 58 76  1  0  0  0  0
 59 77  1  0  0  0  0
 60 61  1  0  0  0  0
 60 62  1  0  0  0  0
 61 65  1  0  0  0  0
 62 84  1  0  0  0  0
 63 66  1  0  0  0  0
 63 75  1  0  0  0  0
 64 76  1  0  0  0  0
 65 77  1  0  0  0  0
 67 68  1  0  0  0  0
M  CHG  2  76   1  77   1
M  ISO  4  38 100  62 101  73 100  84 101
M  END
> <Batch ID>
0025

> <Smiles>
CNC(C)C(=O)NC(C(=O)N1Cc2cc([101O:1][101CH2:1]CCC(C)NCc3cc(C)c([100NH:0][100C:0](=O)N4CCCC(n5nc(-c6ccc(Oc7ccc(F)cc7F)cc6)c(C(N)=O)c5N)C4)c(Cl)c3C)ccc2CC1C(=O)NC1CCCc2ccccc21)C(C)(C)C

> <Shape>
0.284

> <Color>
0.076

> <Negative vol penalty>
0.000

$$$$

  -OEChem-04052316243D

 85 93  0     1  0  0  0  0  0999 V2000
  -28.4131  -29.3811   27.6561 C   0  0  0  0  0  0  0  0  0  0  0  0
  -28.0737  -28.6194   26.5426 C   0  0  0  0  0  0  0  0  0  0  0  0
  -24.5154   -8.7070   21.0515 C   0  0  0  0  0  0  0  0  0  0  0  0
  -22.6012  -10.0759   20.5045 C   0  0  0  0  0  0  0  0  0  0  0  0
  -27.5340  -30.3555   28.1270 C   0  0  0  0  0  0  0  0  0  0  0  0
  -26.8544  -28.8308   25.8999 C   0  0  0  0  0  0  0  0  0  0  0  0
  -27.3132  -28.9655   20.8585 C   0  0  0  0  0  0  0  0  0  0  0  0
  -23.6690   -7.6327   21.3252 C   0  0  0  0  0  0  0  0  0  0  0  0
  -21.7548   -9.0015   20.7781 C   0  0  0  0  0  0  0  0  0  0  0  0
  -27.4414  -27.7444   20.1979 C   0  0  0  0  0  0  0  0  0  0  0  0
  -21.6622   -6.6238   23.8509 C   0  0  0  0  0  0  0  0  0  0  0  0
  -21.9057   -5.8867   25.0098 C   0  0  0  0  0  0  0  0  0  0  0  0
  -25.1013  -27.8200   19.6169 C   0  0  0  0  0  0  0  0  0  0  0  0
  -25.2627  -21.1242   19.6618 C   0  0  0  0  0  0  0  0  0  0  0  0
  -22.2323   -3.8985   23.6765 C   0  0  0  0  0  0  0  0  0  0  0  0
  -23.9815   -9.9287   20.6412 C   0  0  0  0  0  0  0  0  0  0  0  0
  -25.4423  -11.3657   19.1218 C   0  0  0  0  0  0  0  0  0  0  0  0
  -26.3076  -30.5856   27.4840 C   0  0  0  0  0  0  0  0  0  0  0  0
  -26.0736  -29.6188   20.9126 C   0  0  0  0  0  0  0  0  0  0  0  0
  -25.9575  -29.8083   26.3635 C   0  0  0  0  0  0  0  0  0  0  0  0
  -24.9606  -29.0505   20.2766 C   0  0  0  0  0  0  0  0  0  0  0  0
  -25.6702  -21.3029   18.3399 C   0  0  0  0  0  0  0  0  0  0  0  0
  -26.2311  -18.9108   19.6612 C   0  0  0  0  0  0  0  0  0  0  0  0
  -22.2887   -7.7799   21.1885 C   0  0  0  0  0  0  0  0  0  0  0  0
  -26.3347  -27.1700   19.5795 C   0  0  0  0  0  0  0  0  0  0  0  0
  -21.7037   -5.9983   22.6048 C   0  0  0  0  0  0  0  0  0  0  0  0
  -22.1908   -4.5241   24.9226 C   0  0  0  0  0  0  0  0  0  0  0  0
  -21.9888   -4.6357   22.5176 C   0  0  0  0  0  0  0  0  0  0  0  0
  -25.5432  -19.9281   20.3225 C   0  0  0  0  0  0  0  0  0  0  0  0
  -26.3582  -20.2856   17.6786 C   0  0  0  0  0  0  0  0  0  0  0  0
  -26.6387  -19.0895   18.3392 C   0  0  0  0  0  0  0  0  0  0  0  0
  -24.8553  -11.0390   20.3589 C   0  0  0  0  0  0  0  0  0  0  0  0
  -26.1771  -12.4974   19.3785 C   0  0  0  0  0  0  0  0  0  0  0  0
  -25.3330  -10.7054   17.8538 C   0  0  0  0  0  0  0  0  0  0  0  0
  -24.0973  -30.4905   23.2446 C   0  0  0  0  0  0  0  0  0  0  0  0
  -22.4861  -31.9163   20.8170 C   0  0  0  0  0  0  0  0  0  0  0  0
  -21.7924  -32.0383   17.4778 C   0  0  0  0  0  0  0  0  0  0  0  0
  -26.7243  -17.5256   21.7067 C   0  0  0  0  0  0  0  0  0  0  0  0
  -25.3693  -31.6175   28.0581 C   0  0  0  0  0  0  0  0  0  0  0  0
  -25.9579  -30.9484   21.6062 C   0  0  0  0  0  0  0  0  0  0  0  0
  -23.6122  -29.7214   20.2883 C   0  0  0  0  0  0  0  0  0  0  0  0
  -24.2610  -32.0356   27.0953 C   0  0  0  0  0  0  0  0  0  0  0  0
  -27.4054  -14.7022   23.7662 C   0  0  0  0  0  0  0  0  0  0  0  0
  -23.6258  -30.8093   26.4475 C   0  0  0  0  0  0  0  0  0  0  0  0
  -26.8510  -13.5243   22.9616 C   0  0  0  0  0  0  0  0  0  0  0  0
  -26.5357  -15.9494   23.6185 C   0  0  0  0  0  0  0  0  0  0  0  0
  -25.7095  -15.1785   21.4294 C   0  0  0  0  0  0  0  0  0  0  0  0
  -24.6548  -30.0249   25.6244 C   0  0  1  0  0  0  0  0  0  0  0  0
  -24.5318  -31.2746   22.0388 C   0  0  1  0  0  0  0  0  0  0  0  0
  -26.5874  -13.9181   21.4950 C   0  0  2  0  0  0  0  0  0  0  0  0
  -20.4088  -33.2872   15.7976 C   0  0  0  0  0  0  0  0  0  0  0  0
  -27.5431  -25.3239   16.2797 C   0  0  0  0  0  0  0  0  0  0  0  0
  -19.9999  -30.4145   21.7516 C   0  0  0  0  0  0  0  0  0  0  0  0
  -18.9415  -30.9331   19.5428 C   0  0  0  0  0  0  0  0  0  0  0  0
  -19.5930  -32.7883   21.0779 C   0  0  0  0  0  0  0  0  0  0  0  0
  -24.1931  -32.9556   16.0100 C   0  0  0  0  0  0  0  0  0  0  0  0
  -25.3445  -22.6072   17.6737 C   0  0  0  0  0  0  0  0  0  0  0  0
  -25.5894  -25.7477   17.8252 C   0  0  0  0  0  0  0  0  0  1  0  0
  -21.3938  -31.4930   19.8648 C   0  0  1  0  0  0  0  0  0  0  0  0
  -21.7555  -33.1975   16.4983 C   0  0  2  0  0  0  0  0  0  0  0  0
  -26.2346  -24.7849   16.8348 C   0  0  2  0  0  0  0  0  0  0  0  0
  -20.0069  -31.3934   20.5605 C   0  0  0  0  0  0  0  0  0  0  0  0
  -25.1887  -11.8939   21.3296 N   0  0  0  0  0  0  0  0  0  0  0  0
  -25.9931  -12.7689   20.7024 N   0  0  0  0  0  0  0  0  0  0  0  0
  -23.5485  -31.0169   20.9848 N   0  0  0  0  0  0  0  0  0  0  0  0
  -26.3324  -16.2642   22.2028 N   0  0  0  0  0  0  0  0  0  0  0  0
  -26.9562  -13.2767   18.5988 N   0  0  0  0  0  0  0  0  0  0  0  0
  -24.5367   -9.5554   17.7659 N   0  0  0  0  0  0  0  0  0  0  0  0
  -26.5120  -17.6988   20.3394 N   0  0  0  0  0  0  0  0  0  0  0  0
  -24.8946  -30.6812   24.3570 N   0  0  0  0  0  0  0  0  0  0  0  0
  -21.4370  -32.4332   18.7501 N   0  0  0  0  0  0  0  0  0  0  0  0
  -22.8144  -33.0342   15.4624 N   0  3  0  0  0  0  0  0  0  0  0  0
  -26.5218  -23.5023   17.5401 N   0  3  0  0  0  0  0  0  0  0  0  0
  -25.9370  -11.1134   16.8330 O   0  0  0  0  0  0  0  0  0  0  0  0
  -23.1109  -29.7671   23.1716 O   0  0  0  0  0  0  0  0  0  0  0  0
  -22.4034  -33.0080   21.3853 O   0  0  0  0  0  0  0  0  0  0  0  0
  -22.1017  -30.8959   17.1464 O   0  0  0  0  0  0  0  0  0  0  0  0
  -27.2375  -18.3786   22.4355 O   0  0  0  0  0  0  0  0  0  0  0  0
  -21.4624   -6.7316   21.4552 O   0  0  0  0  0  0  0  0  0  0  0  0
  -26.4569  -25.9779   18.9347 O   0  0  0  0  0  0  0  0  0  1  0  0
  -22.4262   -3.8167   26.0354 F   0  0  0  0  0  0  0  0  0  0  0  0
  -22.0312   -4.0295   21.3232 F   0  0  0  0  0  0  0  0  0  0  0  0
  -25.0168  -19.7557   21.9602 Cl  0  0  0  0  0  0  0  0  0  0  0  0
  -26.8504  -20.5419   16.0333 Cl  0  0  0  0  0  0  0  0  0  0  0  0
  -27.4953  -17.8090   17.5320 Cl  0  0  0  0  0  0  0  0  0  0  0  0
  1  2  1  0  0  0  0
  1  5  2  0  0  0  0
  2  6  2  0  0  0  0
  3  8  2  0  0  0  0
  3 16  1  0  0  0  0
  4  9  1  0  0  0  0
  4 16  2  0  0  0  0
  5 18  1  0  0  0  0
  6 20  1  0  0  0  0
  7 10  2  0  0  0  0
  7 19  1  0  0  0  0
  8 24  1  0  0  0  0
  9 24  2  0  0  0  0
 10 25  1  0  0  0  0
 11 12  2  0  0  0  0
 11 26  1  0  0  0  0
 12 27  1  0  0  0  0
 13 21  1  0  0  0  0
 13 25  2  0  0  0  0
 14 22  1  0  0  0  0
 14 29  2  0  0  0  0
 15 27  2  0  0  0  0
 15 28  1  0  0  0  0
 16 32  1  0  0  0  0
 17 32  1  0  0  0  0
 17 33  2  0  0  0  0
 17 34  1  0  0  0  0
 18 20  2  0  0  0  0
 18 39  1  0  0  0  0
 19 21  2  0  0  0  0
 19 40  1  0  0  0  0
 20 48  1  0  0  0  0
 21 41  1  0  0  0  0
 22 30  2  0  0  0  0
 22 57  1  0  0  0  0
 23 29  1  0  0  0  0
 23 31  2  0  0  0  0
 23 69  1  0  0  0  0
 24 79  1  0  0  0  0
 25 80  1  0  0  0  0
 26 28  2  0  0  0  0
 26 79  1  0  0  0  0
 27 81  1  0  0  0  0
 28 82  1  0  0  0  0
 29 83  1  0  0  0  0
 30 31  1  0  0  0  0
 30 84  1  0  0  0  0
 31 85  1  0  0  0  0
 32 63  2  0  0  0  0
 33 64  1  0  0  0  0
 33 67  1  0  0  0  0
 34 68  1  0  0  0  0
 34 74  2  0  0  0  0
 35 49  1  0  0  0  0
 35 70  1  0  0  0  0
 35 75  2  0  0  0  0
 36 59  1  0  0  0  0
 36 65  1  0  0  0  0
 36 76  2  0  0  0  0
 37 60  1  0  0  0  0
 37 71  1  0  0  0  0
 37 77  2  0  0  0  0
 38 66  1  0  0  0  0
 38 69  1  0  0  0  0
 38 78  2  0  0  0  0
 39 42  1  0  0  0  0
 40 49  1  0  0  0  0
 41 65  1  0  0  0  0
 42 44  1  0  0  0  0
 43 45  1  0  0  0  0
 43 46  1  0  0  0  0
 44 48  1  0  0  0  0
 45 50  1  0  0  0  0
 46 66  1  0  0  0  0
 47 50  1  0  0  0  0
 47 66  1  0  0  0  0
 48 70  1  0  0  0  0
 49 65  1  0  0  0  0
 50 64  1  0  0  0  0
 51 60  1  0  0  0  0
 52 61  1  0  0  0  0
 53 62  1  0  0  0  0
 54 62  1  0  0  0  0
 55 62  1  0  0  0  0
 56 72  1  0  0  0  0
 57 73  1  0  0  0  0
 58 61  1  0  0  0  0
 58 80  1  0  0  0  0
 59 62  1  0  0  0  0
 59 71  1  0  0  0  0
 60 72  1  0  0  0  0
 61 73  1  0  0  0  0
 63 64  1  0  0  0  0
M  CHG  2  72   1  73   1
M  ISO  4  38 100  58 101  69 100  80 101
M  END
> <Batch ID>
0025

> <Smiles>
CNC(C)C(=O)NC(C(=O)N1Cc2cc([101O:1][101CH2:1]C(C)NCc3cc(Cl)c([100NH:0][100C:0](=O)N4CCCC(n5nc(-c6ccc(Oc7ccc(F)cc7F)cc6)c(C(N)=O)c5N)C4)c(Cl)c3Cl)ccc2CC1C(=O)NC1CCCc2ccccc21)C(C)(C)C

> <Shape>
0.224

> <Color>
0.113

> <Negative vol penalty>
0.000

$$$$

  -OEChem-04052316243D

 90 99  0     1  0  0  0  0  0999 V2000
  -28.3701  -21.2045    9.2083 C   0  0  0  0  0  0  0  0  0  0  0  0
  -27.2202  -21.2723    9.9884 C   0  0  0  0  0  0  0  0  0  0  0  0
  -23.2903   -9.7953   19.9043 C   0  0  0  0  0  0  0  0  0  0  0  0
  -23.7115   -9.9358   22.2791 C   0  0  0  0  0  0  0  0  0  0  0  0
  -29.5812  -21.6779    9.7113 C   0  0  0  0  0  0  0  0  0  0  0  0
  -27.2811  -21.8124   11.2725 C   0  0  0  0  0  0  0  0  0  0  0  0
  -22.9415  -25.0787   14.1019 C   0  0  0  0  0  0  0  0  0  0  0  0
  -22.5560   -8.6263   20.1037 C   0  0  0  0  0  0  0  0  0  0  0  0
  -22.9771   -8.7667   22.4785 C   0  0  0  0  0  0  0  0  0  0  0  0
  -21.9690  -24.7333   15.0393 C   0  0  0  0  0  0  0  0  0  0  0  0
  -19.7234   -7.8708   22.6552 C   0  0  0  0  0  0  0  0  0  0  0  0
  -18.8075   -7.8541   23.7071 C   0  0  0  0  0  0  0  0  0  0  0  0
  -24.7561  -18.0413   17.7968 C   0  0  0  0  0  0  0  0  0  0  0  0
  -23.4263  -25.4716   16.8143 C   0  0  0  0  0  0  0  0  0  0  0  0
  -19.9921   -6.0022   24.7092 C   0  0  0  0  0  0  0  0  0  0  0  0
  -23.8681  -10.4500   20.9920 C   0  0  0  0  0  0  0  0  0  0  0  0
  -24.1417  -12.9786   20.7948 C   0  0  0  0  0  0  0  0  0  0  0  0
  -29.6550  -22.2330   10.9986 C   0  0  0  0  0  0  0  0  0  0  0  0
  -24.1700  -25.6139   14.5151 C   0  0  0  0  0  0  0  0  0  0  0  0
  -28.4946  -22.2924   11.7937 C   0  0  0  0  0  0  0  0  0  0  0  0
  -25.5348  -18.2772   16.6693 C   0  0  0  0  0  0  0  0  0  0  0  0
  -24.4117  -25.8253   15.8800 C   0  0  0  0  0  0  0  0  0  0  0  0
  -23.5380  -18.6958   17.9429 C   0  0  0  0  0  0  0  0  0  0  0  0
  -22.3993   -8.1120   21.3908 C   0  0  0  0  0  0  0  0  0  0  0  0
  -22.2124  -24.9271   16.3959 C   0  0  0  0  0  0  0  0  0  0  0  0
  -20.7737   -6.9531   22.6303 C   0  0  0  0  0  0  0  0  0  0  0  0
  -18.9419   -6.9199   24.7341 C   0  0  0  0  0  0  0  0  0  0  0  0
  -20.9080   -6.0189   23.6573 C   0  0  0  0  0  0  0  0  0  0  0  0
  -24.6273  -11.6573   20.7866 C   0  0  0  0  0  0  0  0  0  0  0  0
  -23.1469  -19.5694   16.9412 C   0  0  0  0  0  0  0  0  0  0  0  0
  -25.0542  -19.1695   15.7245 C   0  0  0  0  0  0  0  0  0  0  0  0
  -25.2499  -13.7532   20.5533 C   0  0  0  0  0  0  0  0  0  0  0  0
  -22.8081  -13.4625   21.0023 C   0  0  0  0  0  0  0  0  0  0  0  0
  -27.2062  -24.7028   14.2804 C   0  0  0  0  0  0  0  0  0  0  0  0
  -27.7756  -27.6202   15.5790 C   0  0  0  0  0  0  0  0  0  0  0  0
  -26.6261  -30.2337   17.4486 C   0  0  0  0  0  0  0  0  0  0  0  0
  -29.9146  -14.8727   17.9263 C   0  0  0  0  0  0  0  0  0  0  0  0
  -30.9961  -22.6883   11.5170 C   0  0  0  0  0  0  0  0  0  0  0  0
  -25.1982  -26.0062   13.4897 C   0  0  0  0  0  0  0  0  0  0  0  0
  -25.7064  -26.4155   16.3740 C   0  0  0  0  0  0  0  0  0  0  0  0
  -30.9003  -23.5890   12.7458 C   0  0  0  0  0  0  0  0  0  0  0  0
  -30.1613  -12.5737   20.4964 C   0  0  0  0  0  0  0  0  0  0  0  0
  -29.9298  -23.0003   13.7648 C   0  0  0  0  0  0  0  0  0  0  0  0
  -28.7063  -12.2284   20.8136 C   0  0  0  0  0  0  0  0  0  0  0  0
  -27.8526  -17.9316   17.6321 C   0  0  0  0  0  0  0  0  0  0  0  0
  -26.6874  -16.0340   16.4314 C   0  0  0  0  0  0  0  0  0  0  0  0
  -30.3809  -12.6858   18.9919 C   0  0  0  0  0  0  0  0  0  0  0  0
  -29.1757  -17.1851   17.4797 C   0  0  0  0  0  0  0  0  0  0  0  0
  -28.0361  -15.3315   16.3045 C   0  0  0  0  0  0  0  0  0  0  0  0
  -28.0237  -13.3397   18.6311 C   0  0  0  0  0  0  0  0  0  0  0  0
  -26.8631  -17.5606   16.5142 C   0  0  0  0  0  0  0  0  0  0  0  0
  -28.5153  -22.8942   13.1821 C   0  0  1  0  0  0  0  0  0  0  0  0
  -26.6139  -26.0652   14.0553 C   0  0  1  0  0  0  0  0  0  0  0  0
  -27.7437  -13.2243   20.1429 C   0  0  1  0  0  0  0  0  0  0  0  0
  -22.6990  -18.4468   19.1483 C   0  0  0  0  0  0  0  0  0  0  0  0
  -27.3336  -32.4581   18.3699 C   0  0  0  0  0  0  0  0  0  0  0  0
  -19.4260  -21.0448   18.9378 C   0  0  0  0  0  0  0  0  0  0  0  0
  -29.4219  -26.2058   17.7235 C   0  0  0  0  0  0  0  0  0  0  0  0
  -29.2962  -28.2941   19.0987 C   0  0  0  0  0  0  0  0  0  0  0  0
  -30.4237  -28.3339   16.8739 C   0  0  0  0  0  0  0  0  0  0  0  0
  -24.5112  -31.6587   15.9469 C   0  0  0  0  0  0  0  0  0  0  0  0
  -21.8477  -20.2994   17.0446 C   0  0  0  0  0  0  0  0  0  0  0  0
  -20.7175  -23.2002   19.1952 C   0  0  0  0  0  0  0  0  0  0  0  0
  -21.7233  -24.1795   18.5999 C   0  0  0  0  0  0  0  0  0  1  0  0
  -27.9039  -28.1587   16.9835 C   0  0  1  0  0  0  0  0  0  0  0  0
  -26.6625  -31.7330   17.2138 C   0  0  2  0  0  0  0  0  0  0  0  0
  -20.4944  -21.9510   18.3406 C   0  0  1  0  0  0  0  0  0  0  0  0
  -29.2377  -27.7352   17.6610 C   0  0  0  0  0  0  0  0  0  0  0  0
  -25.9416  -11.5924   20.5578 N   0  0  0  0  0  0  0  0  0  0  0  0
  -23.8762  -19.8241   15.8318 N   0  0  0  0  0  0  0  0  0  0  0  0
  -26.2913  -12.8827   20.4199 N   0  0  0  0  0  0  0  0  0  0  0  0
  -26.6828  -26.7771   15.3331 N   0  0  0  0  0  0  0  0  0  0  0  0
  -29.4441  -13.6355   18.3919 N   0  0  0  0  0  0  0  0  0  0  0  0
  -28.9642  -15.7425   17.3667 N   0  0  0  0  0  0  0  0  0  0  0  0
  -25.4253  -15.0873   20.4440 N   0  0  0  0  0  0  0  0  0  0  0  0
  -21.7882  -12.5305   21.2376 N   0  0  0  0  0  0  0  0  0  0  0  0
  -27.8701  -24.1896   13.1824 N   0  0  0  0  0  0  0  0  0  0  0  0
  -27.7151  -29.6021   16.8861 N   0  0  0  0  0  0  0  0  0  0  0  0
  -25.2795  -32.2674   17.0632 N   0  3  0  0  0  0  0  0  0  0  0  0
  -21.7565  -21.1712   18.2471 N   0  3  0  0  0  0  0  0  0  0  0  0
  -22.5263  -14.6843   20.9634 O   0  0  0  0  0  0  0  0  0  0  0  0
  -27.0723  -24.1581   15.3699 O   0  0  0  0  0  0  0  0  0  0  0  0
  -28.6103  -27.9418   14.7295 O   0  0  0  0  0  0  0  0  0  0  0  0
  -25.7240  -29.6788   18.0721 O   0  0  0  0  0  0  0  0  0  0  0  0
  -31.1087  -15.1859   18.0094 O   0  0  0  0  0  0  0  0  0  0  0  0
  -21.6826   -6.9715   21.5857 O   0  0  0  0  0  0  0  0  0  0  0  0
  -21.2586  -24.5879   17.3193 O   0  0  0  0  0  0  0  0  0  1  0  0
  -18.0632   -6.9050   25.7449 F   0  0  0  0  0  0  0  0  0  0  0  0
  -21.9156   -5.1355   23.6394 F   0  0  0  0  0  0  0  0  0  0  0  0
  -25.9240  -19.5436   14.2885 Cl  0  0  0  0  0  0  0  0  0  0  0  0
  1  2  1  0  0  0  0
  1  5  2  0  0  0  0
  2  6  2  0  0  0  0
  3  8  2  0  0  0  0
  3 16  1  0  0  0  0
  4  9  1  0  0  0  0
  4 16  2  0  0  0  0
  5 18  1  0  0  0  0
  6 20  1  0  0  0  0
  7 10  2  0  0  0  0
  7 19  1  0  0  0  0
  8 24  1  0  0  0  0
  9 24  2  0  0  0  0
 10 25  1  0  0  0  0
 11 12  2  0  0  0  0
 11 26  1  0  0  0  0
 12 27  1  0  0  0  0
 13 21  2  0  0  0  0
 13 23  1  0  0  0  0
 14 22  1  0  0  0  0
 14 25  2  0  0  0  0
 15 27  2  0  0  0  0
 15 28  1  0  0  0  0
 16 29  1  0  0  0  0
 17 29  1  0  0  0  0
 17 32  2  0  0  0  0
 17 33  1  0  0  0  0
 18 20  2  0  0  0  0
 18 38  1  0  0  0  0
 19 22  2  0  0  0  0
 19 39  1  0  0  0  0
 20 52  1  0  0  0  0
 21 31  1  0  0  0  0
 21 51  1  0  0  0  0
 22 40  1  0  0  0  0
 23 30  2  0  0  0  0
 23 55  1  0  0  0  0
 24 86  1  0  0  0  0
 25 87  1  0  0  0  0
 26 28  2  0  0  0  0
 26 86  1  0  0  0  0
 27 88  1  0  0  0  0
 28 89  1  0  0  0  0
 29 69  2  0  0  0  0
 30 62  1  0  0  0  0
 30 70  1  0  0  0  0
 31 70  2  0  0  0  0
 31 90  1  0  0  0  0
 32 71  1  0  0  0  0
 32 75  1  0  0  0  0
 33 76  1  0  0  0  0
 33 81  2  0  0  0  0
 34 53  1  0  0  0  0
 34 77  1  0  0  0  0
 34 82  2  0  0  0  0
 35 65  1  0  0  0  0
 35 72  1  0  0  0  0
 35 83  2  0  0  0  0
 36 66  1  0  0  0  0
 36 78  1  0  0  0  0
 36 84  2  0  0  0  0
 37 73  1  0  0  0  0
 37 74  1  0  0  0  0
 37 85  2  0  0  0  0
 38 41  1  0  0  0  0
 39 53  1  0  0  0  0
 40 72  1  0  0  0  0
 41 43  1  0  0  0  0
 42 44  1  0  0  0  0
 42 47  1  0  0  0  0
 43 52  1  0  0  0  0
 44 54  1  0  0  0  0
 45 48  1  0  0  0  0
 45 51  1  0  0  0  0
 46 49  1  0  0  0  0
 46 51  1  0  0  0  0
 47 73  1  0  0  0  0
 48 74  1  0  0  0  0
 49 74  1  0  0  0  0
 50 54  1  0  0  0  0
 50 73  1  0  0  0  0
 52 77  1  0  0  0  0
 53 72  1  0  0  0  0
 54 71  1  0  0  0  0
 56 66  1  0  0  0  0
 57 67  1  0  0  0  0
 58 68  1  0  0  0  0
 59 68  1  0  0  0  0
 60 68  1  0  0  0  0
 61 79  1  0  0  0  0
 62 80  1  0  0  0  0
 63 64  1  0  0  0  0
 63 67  1  0  0  0  0
 64 87  1  0  0  0  0
 65 68  1  0  0  0  0
 65 78  1  0  0  0  0
 66 79  1  0  0  0  0
 67 80  1  0  0  0  0
 69 71  1  0  0  0  0
M  CHG  2  79   1  80   1
M  ISO  4  37 100  64 101  74 100  87 101
M  END
> <Batch ID>
0025

> <Smiles>
CNC(C)C(=O)NC(C(=O)N1Cc2cc([101O:1][101CH2:1]CC(C)NCc3nc(Cl)c(C4CC[100N:0]([100C:0](=O)N5CCCC(n6nc(-c7ccc(Oc8ccc(F)cc8F)cc7)c(C(N)=O)c6N)C5)CC4)cc3C)ccc2CC1C(=O)NC1CCCc2ccccc21)C(C)(C)C

> <Shape>
0.141

> <Color>
0.170

> <Negative vol penalty>
0.000

$$$$

  -OEChem-04052316243D

 85 93  0     1  0  0  0  0  0999 V2000
  -33.7754  -32.0947   15.1257 C   0  0  0  0  0  0  0  0  0  0  0  0
  -34.3016  -31.3429   16.1713 C   0  0  0  0  0  0  0  0  0  0  0  0
  -22.9584   -9.8972   19.9894 C   0  0  0  0  0  0  0  0  0  0  0  0
  -23.6881   -9.9289   22.2923 C   0  0  0  0  0  0  0  0  0  0  0  0
  -32.4035  -32.0778   14.8779 C   0  0  0  0  0  0  0  0  0  0  0  0
  -33.4559  -30.5745   16.9705 C   0  0  0  0  0  0  0  0  0  0  0  0
  -34.7270  -25.1588   19.5318 C   0  0  0  0  0  0  0  0  0  0  0  0
  -22.1747   -8.7739   20.2531 C   0  0  0  0  0  0  0  0  0  0  0  0
  -22.9044   -8.8055   22.5561 C   0  0  0  0  0  0  0  0  0  0  0  0
  -35.1334  -24.8011   20.8166 C   0  0  0  0  0  0  0  0  0  0  0  0
  -23.0957   -5.4649   22.0722 C   0  0  0  0  0  0  0  0  0  0  0  0
  -23.6685   -4.4360   22.8198 C   0  0  0  0  0  0  0  0  0  0  0  0
  -32.8407  -24.3370   21.4061 C   0  0  0  0  0  0  0  0  0  0  0  0
  -32.5211  -16.9368   23.9528 C   0  0  0  0  0  0  0  0  0  0  0  0
  -21.9514   -4.7000   24.4988 C   0  0  0  0  0  0  0  0  0  0  0  0
  -23.7152  -10.4747   21.0090 C   0  0  0  0  0  0  0  0  0  0  0  0
  -24.1394  -12.9845   20.8410 C   0  0  0  0  0  0  0  0  0  0  0  0
  -31.5417  -31.3012   15.6685 C   0  0  0  0  0  0  0  0  0  0  0  0
  -33.3709  -25.1186   19.1773 C   0  0  0  0  0  0  0  0  0  0  0  0
  -32.0709  -30.5482   16.7340 C   0  0  0  0  0  0  0  0  0  0  0  0
  -32.4200  -24.6922   20.1154 C   0  0  0  0  0  0  0  0  0  0  0  0
  -31.9529  -18.1875   24.1942 C   0  0  0  0  0  0  0  0  0  0  0  0
  -30.7778  -18.5576   23.5403 C   0  0  0  0  0  0  0  0  0  0  0  0
  -30.7390  -16.4262   22.4034 C   0  0  0  0  0  0  0  0  0  0  0  0
  -22.1476   -8.2281   21.5364 C   0  0  0  0  0  0  0  0  0  0  0  0
  -34.1899  -24.3929   21.7549 C   0  0  0  0  0  0  0  0  0  0  0  0
  -21.9508   -6.1114   22.5379 C   0  0  0  0  0  0  0  0  0  0  0  0
  -23.0964   -4.0535   24.0331 C   0  0  0  0  0  0  0  0  0  0  0  0
  -21.3786   -5.7289   23.7512 C   0  0  0  0  0  0  0  0  0  0  0  0
  -31.9142  -16.0561   23.0573 C   0  0  0  0  0  0  0  0  0  0  0  0
  -30.1708  -17.6770   22.6449 C   0  0  0  0  0  0  0  0  0  0  0  0
  -24.5254  -11.6347   20.7370 C   0  0  0  0  0  0  0  0  0  0  0  0
  -25.2598  -13.6910   20.4772 C   0  0  0  0  0  0  0  0  0  0  0  0
  -22.8808  -13.5493   21.2315 C   0  0  0  0  0  0  0  0  0  0  0  0
  -31.2357  -27.2736   18.2281 C   0  0  0  0  0  0  0  0  0  0  0  0
  -29.3549  -24.6612   17.8279 C   0  0  0  0  0  0  0  0  0  0  0  0
  -28.6694  -21.4274   18.6761 C   0  0  0  0  0  0  0  0  0  0  0  0
  -30.7539  -14.5656   20.7051 C   0  0  0  0  0  0  0  0  0  0  0  0
  -30.0599  -31.3518   15.3919 C   0  0  0  0  0  0  0  0  0  0  0  0
  -32.9517  -25.4820   17.7791 C   0  0  0  0  0  0  0  0  0  0  0  0
  -30.9542  -24.6122   19.7786 C   0  0  0  0  0  0  0  0  0  0  0  0
  -29.2784  -30.2178   16.0504 C   0  0  0  0  0  0  0  0  0  0  0  0
  -29.5937  -12.1385   18.3726 C   0  0  0  0  0  0  0  0  0  0  0  0
  -29.7039  -30.0510   17.5057 C   0  0  0  0  0  0  0  0  0  0  0  0
  -28.1399  -11.9021   18.7884 C   0  0  0  0  0  0  0  0  0  0  0  0
  -30.4999  -12.3637   19.5817 C   0  0  0  0  0  0  0  0  0  0  0  0
  -28.5993  -13.1777   20.9212 C   0  0  0  0  0  0  0  0  0  0  0  0
  -31.1890  -29.6827   17.6075 C   0  0  1  0  0  0  0  0  0  0  0  0
  -31.4865  -25.8960   17.6832 C   0  0  1  0  0  0  0  0  0  0  0  0
  -27.6368  -13.0104   19.7340 C   0  0  2  0  0  0  0  0  0  0  0  0
  -30.1869  -19.9062   23.8148 C   0  0  0  0  0  0  0  0  0  0  0  0
  -27.0465  -19.5706   18.2113 C   0  0  0  0  0  0  0  0  0  0  0  0
  -27.2712  -26.0489   19.5721 C   0  0  0  0  0  0  0  0  0  0  0  0
  -26.1342  -23.8360   19.8529 C   0  0  0  0  0  0  0  0  0  0  0  0
  -26.3379  -24.8527   17.5841 C   0  0  0  0  0  0  0  0  0  0  0  0
  -30.8057  -19.6654   17.6320 C   0  0  0  0  0  0  0  0  0  0  0  0
  -32.6277  -19.1149   25.1615 C   0  0  0  0  0  0  0  0  0  0  0  0
  -34.6967  -22.2956   24.6482 C   0  0  0  0  0  0  0  0  0  0  0  0
  -33.9737  -21.2029   25.4211 C   0  0  0  0  0  0  0  0  0  0  0  0
  -33.7975  -23.0656   23.6889 C   0  0  0  0  0  0  0  0  0  1  0  0
  -28.3928  -23.8926   18.7011 C   0  0  1  0  0  0  0  0  0  0  0  0
  -28.3746  -20.2041   17.8269 C   0  0  2  0  0  0  0  0  0  0  0  0
  -27.0614  -24.6608   18.9348 C   0  0  0  0  0  0  0  0  0  0  0  0
  -25.7919  -11.4898   20.3382 N   0  0  0  0  0  0  0  0  0  0  0  0
  -26.2115  -12.7577   20.1883 N   0  0  0  0  0  0  0  0  0  0  0  0
  -30.5934  -24.9839   18.4005 N   0  0  0  0  0  0  0  0  0  0  0  0
  -29.9629  -13.4302   20.4296 N   0  0  0  0  0  0  0  0  0  0  0  0
  -25.5137  -15.0132   20.3793 N   0  0  0  0  0  0  0  0  0  0  0  0
  -21.8359  -12.6802   21.5738 N   0  0  0  0  0  0  0  0  0  0  0  0
  -30.1260  -15.5280   21.4951 N   0  0  0  0  0  0  0  0  0  0  0  0
  -31.3850  -28.2830   17.2962 N   0  0  0  0  0  0  0  0  0  0  0  0
  -28.2266  -22.5860   18.0738 N   0  0  0  0  0  0  0  0  0  0  0  0
  -29.4483  -19.1846   17.9968 N   0  3  0  0  0  0  0  0  0  0  0  0
  -33.3490  -20.2325   24.4919 N   0  3  0  0  0  0  0  0  0  0  0  0
  -22.6835  -14.7878   21.2599 O   0  0  0  0  0  0  0  0  0  0  0  0
  -30.9280  -27.4105   19.4063 O   0  0  0  0  0  0  0  0  0  0  0  0
  -29.0227  -24.9578   16.6775 O   0  0  0  0  0  0  0  0  0  0  0  0
  -29.2325  -21.3613   19.7665 O   0  0  0  0  0  0  0  0  0  0  0  0
  -31.8939  -14.6883   20.2496 O   0  0  0  0  0  0  0  0  0  0  0  0
  -21.3828   -7.1321   21.7942 O   0  0  0  0  0  0  0  0  0  0  0  0
  -34.5838  -24.0439   23.0098 O   0  0  0  0  0  0  0  0  0  1  0  0
  -23.6457   -3.0645   24.7501 F   0  0  0  0  0  0  0  0  0  0  0  0
  -20.2780   -6.3455   24.2032 F   0  0  0  0  0  0  0  0  0  0  0  0
  -32.6570  -14.5180   22.7920 Cl  0  0  0  0  0  0  0  0  0  0  0  0
  -28.7089  -18.1455   21.8352 Cl  0  0  0  0  0  0  0  0  0  0  0  0
  1  2  1  0  0  0  0
  1  5  2  0  0  0  0
  2  6  2  0  0  0  0
  3  8  2  0  0  0  0
  3 16  1  0  0  0  0
  4  9  1  0  0  0  0
  4 16  2  0  0  0  0
  5 18  1  0  0  0  0
  6 20  1  0  0  0  0
  7 10  2  0  0  0  0
  7 19  1  0  0  0  0
  8 25  1  0  0  0  0
  9 25  2  0  0  0  0
 10 26  1  0  0  0  0
 11 12  2  0  0  0  0
 11 27  1  0  0  0  0
 12 28  1  0  0  0  0
 13 21  1  0  0  0  0
 13 26  2  0  0  0  0
 14 22  1  0  0  0  0
 14 30  2  0  0  0  0
 15 28  2  0  0  0  0
 15 29  1  0  0  0  0
 16 32  1  0  0  0  0
 17 32  1  0  0  0  0
 17 33  2  0  0  0  0
 17 34  1  0  0  0  0
 18 20  2  0  0  0  0
 18 39  1  0  0  0  0
 19 21  2  0  0  0  0
 19 40  1  0  0  0  0
 20 48  1  0  0  0  0
 21 41  1  0  0  0  0
 22 23  2  0  0  0  0
 22 57  1  0  0  0  0
 23 31  1  0  0  0  0
 23 51  1  0  0  0  0
 24 30  1  0  0  0  0
 24 31  2  0  0  0  0
 24 70  1  0  0  0  0
 25 80  1  0  0  0  0
 26 81  1  0  0  0  0
 27 29  2  0  0  0  0
 27 80  1  0  0  0  0
 28 82  1  0  0  0  0
 29 83  1  0  0  0  0
 30 84  1  0  0  0  0
 31 85  1  0  0  0  0
 32 64  2  0  0  0  0
 33 65  1  0  0  0  0
 33 68  1  0  0  0  0
 34 69  1  0  0  0  0
 34 75  2  0  0  0  0
 35 49  1  0  0  0  0
 35 71  1  0  0  0  0
 35 76  2  0  0  0  0
 36 61  1  0  0  0  0
 36 66  1  0  0  0  0
 36 77  2  0  0  0  0
 37 62  1  0  0  0  0
 37 72  1  0  0  0  0
 37 78  2  0  0  0  0
 38 67  1  0  0  0  0
 38 70  1  0  0  0  0
 38 79  2  0  0  0  0
 39 42  1  0  0  0  0
 40 49  1  0  0  0  0
 41 66  1  0  0  0  0
 42 44  1  0  0  0  0
 43 45  1  0  0  0  0
 43 46  1  0  0  0  0
 44 48  1  0  0  0  0
 45 50  1  0  0  0  0
 46 67  1  0  0  0  0
 47 50  1  0  0  0  0
 47 67  1  0  0  0  0
 48 71  1  0  0  0  0
 49 66  1  0  0  0  0
 50 65  1  0  0  0  0
 52 62  1  0  0  0  0
 53 63  1  0  0  0  0
 54 63  1  0  0  0  0
 55 63  1  0  0  0  0
 56 73  1  0  0  0  0
 57 74  1  0  0  0  0
 58 59  1  0  0  0  0
 58 60  1  0  0  0  0
 59 74  1  0  0  0  0
 60 81  1  0  0  0  0
 61 63  1  0  0  0  0
 61 72  1  0  0  0  0
 62 73  1  0  0  0  0
 64 65  1  0  0  0  0
M  CHG  2  73   1  74   1
M  ISO  4  38 100  60 101  70 100  81 101
M  END
> <Batch ID>
0025

> <Smiles>
CNC(C)C(=O)NC(C(=O)N1Cc2cc([101O:1][101CH2:1]CCNCc3cc(Cl)c([100NH:0][100C:0](=O)N4CCCC(n5nc(-c6ccc(Oc7ccc(F)cc7F)cc6)c(C(N)=O)c5N)C4)c(Cl)c3C)ccc2CC1C(=O)NC1CCCc2ccccc21)C(C)(C)C

> <Shape>
0.254

> <Color>
0.208

> <Negative vol penalty>
0.000

$$$$

  -OEChem-04052316243D

 89 97  0     1  0  0  0  0  0999 V2000
  -26.5511  -18.6076   21.9808 C   0  0  0  0  0  0  0  0  0  0  0  0
  -26.0898  -19.9128   22.1186 C   0  0  0  0  0  0  0  0  0  0  0  0
  -29.1498  -15.4322   21.1686 C   0  0  0  0  0  0  0  0  0  0  0  0
  -29.3206  -15.9903   18.8241 C   0  0  0  0  0  0  0  0  0  0  0  0
  -26.0945  -17.8156   20.9281 C   0  0  0  0  0  0  0  0  0  0  0  0
  -25.1723  -20.4271   21.2031 C   0  0  0  0  0  0  0  0  0  0  0  0
  -21.4043  -22.9619   23.4440 C   0  0  0  0  0  0  0  0  0  0  0  0
  -28.4410  -14.2762   20.8418 C   0  0  0  0  0  0  0  0  0  0  0  0
  -28.6117  -14.8343   18.4973 C   0  0  0  0  0  0  0  0  0  0  0  0
  -21.6803  -24.2559   23.8834 C   0  0  0  0  0  0  0  0  0  0  0  0
  -25.2832  -13.4578   19.9568 C   0  0  0  0  0  0  0  0  0  0  0  0
  -24.1421  -13.1653   20.7036 C   0  0  0  0  0  0  0  0  0  0  0  0
  -20.6120  -25.1465   21.9124 C   0  0  0  0  0  0  0  0  0  0  0  0
  -26.0203  -27.1655   19.0830 C   0  0  0  0  0  0  0  0  0  0  0  0
  -25.1303  -11.0714   21.3936 C   0  0  0  0  0  0  0  0  0  0  0  0
  -29.5896  -16.2893   20.1597 C   0  0  0  0  0  0  0  0  0  0  0  0
  -31.7165  -17.6171   20.6298 C   0  0  0  0  0  0  0  0  0  0  0  0
  -25.1637  -18.3172   20.0049 C   0  0  0  0  0  0  0  0  0  0  0  0
  -20.7385  -22.7498   22.2282 C   0  0  0  0  0  0  0  0  0  0  0  0
  -24.7038  -19.6415   20.1363 C   0  0  0  0  0  0  0  0  0  0  0  0
  -20.3264  -23.8488   21.4611 C   0  0  0  0  0  0  0  0  0  0  0  0
  -27.2365  -27.1537   19.7659 C   0  0  0  0  0  0  0  0  0  0  0  0
  -25.2574  -28.9883   20.4731 C   0  0  0  0  0  0  0  0  0  0  0  0
  -28.1720  -13.9772   19.5062 C   0  0  0  0  0  0  0  0  0  0  0  0
  -21.2868  -25.3484   23.1161 C   0  0  0  0  0  0  0  0  0  0  0  0
  -26.3479  -12.5570   19.9283 C   0  0  0  0  0  0  0  0  0  0  0  0
  -24.0656  -11.9722   21.4221 C   0  0  0  0  0  0  0  0  0  0  0  0
  -26.2714  -11.3638   20.6467 C   0  0  0  0  0  0  0  0  0  0  0  0
  -25.0308  -28.0828   19.4366 C   0  0  0  0  0  0  0  0  0  0  0  0
  -27.4632  -28.0591   20.8025 C   0  0  0  0  0  0  0  0  0  0  0  0
  -26.4736  -28.9765   21.1561 C   0  0  0  0  0  0  0  0  0  0  0  0
  -30.3214  -17.4839   20.4967 C   0  0  0  0  0  0  0  0  0  0  0  0
  -31.9057  -18.9376   20.9570 C   0  0  0  0  0  0  0  0  0  0  0  0
  -32.7491  -16.6350   20.4717 C   0  0  0  0  0  0  0  0  0  0  0  0
  -21.4734  -21.3144   19.4890 C   0  0  0  0  0  0  0  0  0  0  0  0
  -18.3745  -21.9524   18.7738 C   0  0  0  0  0  0  0  0  0  0  0  0
  -15.6096  -23.8746   19.3283 C   0  0  0  0  0  0  0  0  0  0  0  0
  -28.6783  -23.7604   19.8709 C   0  0  0  0  0  0  0  0  0  0  0  0
  -24.7351  -17.4390   18.8560 C   0  0  0  0  0  0  0  0  0  0  0  0
  -20.4246  -21.3483   21.7814 C   0  0  0  0  0  0  0  0  0  0  0  0
  -19.5909  -23.6754   20.1583 C   0  0  0  0  0  0  0  0  0  0  0  0
  -23.4784  -17.9354   18.1458 C   0  0  0  0  0  0  0  0  0  0  0  0
  -29.7329  -22.6045   23.1342 C   0  0  0  0  0  0  0  0  0  0  0  0
  -23.5766  -19.4326   17.8710 C   0  0  0  0  0  0  0  0  0  0  0  0
  -30.1378  -21.1611   22.8294 C   0  0  0  0  0  0  0  0  0  0  0  0
  -28.5086  -23.0182   22.3230 C   0  0  0  0  0  0  0  0  0  0  0  0
  -29.0636  -21.4063   20.5434 C   0  0  0  0  0  0  0  0  0  0  0  0
  -23.6897  -20.2270   19.1778 C   0  0  1  0  0  0  0  0  0  0  0  0
  -20.1964  -21.2378   20.2770 C   0  0  1  0  0  0  0  0  0  0  0  0
  -30.3093  -20.9351   21.3156 C   0  0  2  0  0  0  0  0  0  0  0  0
  -13.2384  -24.1813   18.5661 C   0  0  0  0  0  0  0  0  0  0  0  0
  -24.5105  -28.4494   25.0165 C   0  0  0  0  0  0  0  0  0  0  0  0
  -24.7008  -31.4402   20.6747 C   0  0  0  0  0  0  0  0  0  0  0  0
  -22.8922  -29.9054   19.9654 C   0  0  0  0  0  0  0  0  0  0  0  0
  -19.3708  -23.2994   16.2237 C   0  0  0  0  0  0  0  0  0  0  0  0
  -17.1261  -24.3862   16.0038 C   0  0  0  0  0  0  0  0  0  0  0  0
  -17.3188  -21.9002   15.9311 C   0  0  0  0  0  0  0  0  0  0  0  0
  -14.5452  -23.3057   22.0305 C   0  0  0  0  0  0  0  0  0  0  0  0
  -28.2647  -26.1508   19.3494 C   0  0  0  0  0  0  0  0  0  0  0  0
  -23.7319  -29.8421   22.3428 C   0  0  0  0  0  0  0  0  0  0  0  0
  -22.7252  -26.7944   24.3392 C   0  0  0  0  0  0  0  0  0  1  0  0
  -17.6411  -23.1045   18.1305 C   0  0  1  0  0  0  0  0  0  0  0  0
  -14.1576  -23.5044   19.5710 C   0  0  2  0  0  0  0  0  0  0  0  0
  -23.2672  -28.2099   24.1754 C   0  0  2  0  0  0  0  0  0  0  0  0
  -24.1566  -29.9985   20.8565 C   0  0  0  0  0  0  0  0  0  0  0  0
  -17.8797  -23.1761   16.5958 C   0  0  0  0  0  0  0  0  0  0  0  0
  -29.6704  -18.6284   20.7212 N   0  0  0  0  0  0  0  0  0  0  0  0
  -30.6608  -19.4933   20.9987 N   0  0  0  0  0  0  0  0  0  0  0  0
  -19.3128  -22.2853   19.7609 N   0  0  0  0  0  0  0  0  0  0  0  0
  -28.7440  -22.7953   20.8895 N   0  0  0  0  0  0  0  0  0  0  0  0
  -33.0137  -19.6659   21.2103 N   0  0  0  0  0  0  0  0  0  0  0  0
  -32.3799  -15.3258   20.1339 N   0  0  0  0  0  0  0  0  0  0  0  0
  -22.3952  -20.3380   19.8154 N   0  0  0  0  0  0  0  0  0  0  0  0
  -16.2401  -22.9602   18.5113 N   0  0  0  0  0  0  0  0  0  0  0  0
  -28.3631  -25.0498   20.2817 N   0  0  0  0  0  0  0  0  0  0  0  0
  -13.7402  -23.9160   20.9412 N   0  3  0  0  0  0  0  0  0  0  0  0
  -23.6281  -28.4157   22.7428 N   0  3  0  0  0  0  0  0  0  0  0  0
  -33.9619  -16.9065   20.6415 O   0  0  0  0  0  0  0  0  0  0  0  0
  -21.6117  -22.1932   18.6463 O   0  0  0  0  0  0  0  0  0  0  0  0
  -18.1189  -20.7990   18.4187 O   0  0  0  0  0  0  0  0  0  0  0  0
  -16.1313  -24.8770   19.8118 O   0  0  0  0  0  0  0  0  0  0  0  0
  -28.8904  -23.4939   18.6830 O   0  0  0  0  0  0  0  0  0  0  0  0
  -27.4805  -12.8491   19.1870 O   0  0  0  0  0  0  0  0  0  0  0  0
  -21.5555  -26.6125   23.5423 O   0  0  0  0  0  0  0  0  0  1  0  0
  -22.9703  -11.6922   22.1405 F   0  0  0  0  0  0  0  0  0  0  0  0
  -27.2915  -10.4951   20.6241 F   0  0  0  0  0  0  0  0  0  0  0  0
  -23.5410  -28.0627   18.5632 Cl  0  0  0  0  0  0  0  0  0  0  0  0
  -28.9876  -28.0164   21.6325 Cl  0  0  0  0  0  0  0  0  0  0  0  0
  -26.7308  -30.1143   22.4434 Cl  0  0  0  0  0  0  0  0  0  0  0  0
  1  2  1  0  0  0  0
  1  5  2  0  0  0  0
  2  6  2  0  0  0  0
  3  8  2  0  0  0  0
  3 16  1  0  0  0  0
  4  9  1  0  0  0  0
  4 16  2  0  0  0  0
  5 18  1  0  0  0  0
  6 20  1  0  0  0  0
  7 10  2  0  0  0  0
  7 19  1  0  0  0  0
  8 24  1  0  0  0  0
  9 24  2  0  0  0  0
 10 25  1  0  0  0  0
 11 12  2  0  0  0  0
 11 26  1  0  0  0  0
 12 27  1  0  0  0  0
 13 21  1  0  0  0  0
 13 25  2  0  0  0  0
 14 22  1  0  0  0  0
 14 29  2  0  0  0  0
 15 27  2  0  0  0  0
 15 28  1  0  0  0  0
 16 32  1  0  0  0  0
 17 32  1  0  0  0  0
 17 33  2  0  0  0  0
 17 34  1  0  0  0  0
 18 20  2  0  0  0  0
 18 39  1  0  0  0  0
 19 21  2  0  0  0  0
 19 40  1  0  0  0  0
 20 48  1  0  0  0  0
 21 41  1  0  0  0  0
 22 30  2  0  0  0  0
 22 59  1  0  0  0  0
 23 29  1  0  0  0  0
 23 31  2  0  0  0  0
 23 65  1  0  0  0  0
 24 83  1  0  0  0  0
 25 84  1  0  0  0  0
 26 28  2  0  0  0  0
 26 83  1  0  0  0  0
 27 85  1  0  0  0  0
 28 86  1  0  0  0  0
 29 87  1  0  0  0  0
 30 31  1  0  0  0  0
 30 88  1  0  0  0  0
 31 89  1  0  0  0  0
 32 67  2  0  0  0  0
 33 68  1  0  0  0  0
 33 71  1  0  0  0  0
 34 72  1  0  0  0  0
 34 78  2  0  0  0  0
 35 49  1  0  0  0  0
 35 73  1  0  0  0  0
 35 79  2  0  0  0  0
 36 62  1  0  0  0  0
 36 69  1  0  0  0  0
 36 80  2  0  0  0  0
 37 63  1  0  0  0  0
 37 74  1  0  0  0  0
 37 81  2  0  0  0  0
 38 70  1  0  0  0  0
 38 75  1  0  0  0  0
 38 82  2  0  0  0  0
 39 42  1  0  0  0  0
 40 49  1  0  0  0  0
 41 69  1  0  0  0  0
 42 44  1  0  0  0  0
 43 45  1  0  0  0  0
 43 46  1  0  0  0  0
 44 48  1  0  0  0  0
 45 50  1  0  0  0  0
 46 70  1  0  0  0  0
 47 50  1  0  0  0  0
 47 70  1  0  0  0  0
 48 73  1  0  0  0  0
 49 69  1  0  0  0  0
 50 68  1  0  0  0  0
 51 63  1  0  0  0  0
 52 64  1  0  0  0  0
 53 65  1  0  0  0  0
 54 65  1  0  0  0  0
 55 66  1  0  0  0  0
 56 66  1  0  0  0  0
 57 66  1  0  0  0  0
 58 76  1  0  0  0  0
 59 75  1  0  0  0  0
 60 65  1  0  0  0  0
 60 77  1  0  0  0  0
 61 64  1  0  0  0  0
 61 84  1  0  0  0  0
 62 66  1  0  0  0  0
 62 74  1  0  0  0  0
 63 76  1  0  0  0  0
 64 77  1  0  0  0  0
 67 68  1  0  0  0  0
M  CHG  2  76   1  77   1
M  ISO  4  38 100  61 101  75 100  84 101
M  END
> <Batch ID>
0025

> <Smiles>
CNC(C)C(=O)NC(C(=O)N1Cc2cc([101O:1][101CH2:1]C(C)NCC(C)(C)c3c(Cl)cc(C[100NH:0][100C:0](=O)N4CCCC(n5nc(-c6ccc(Oc7ccc(F)cc7F)cc6)c(C(N)=O)c5N)C4)c(Cl)c3Cl)ccc2CC1C(=O)NC1CCCc2ccccc21)C(C)(C)C

> <Shape>
0.202

> <Color>
0.050

> <Negative vol penalty>
0.000

$$$$

  -OEChem-04052316243D

 90 99  0     1  0  0  0  0  0999 V2000
  -31.2879  -35.4391   17.4969 C   0  0  0  0  0  0  0  0  0  0  0  0
  -31.5911  -34.3732   18.3379 C   0  0  0  0  0  0  0  0  0  0  0  0
  -23.0831   -9.8963   19.9216 C   0  0  0  0  0  0  0  0  0  0  0  0
  -23.8862   -9.8379   22.1994 C   0  0  0  0  0  0  0  0  0  0  0  0
  -30.0916  -36.1363   17.6607 C   0  0  0  0  0  0  0  0  0  0  0  0
  -30.6986  -34.0045   19.3438 C   0  0  0  0  0  0  0  0  0  0  0  0
  -29.5867  -28.3380   21.3836 C   0  0  0  0  0  0  0  0  0  0  0  0
  -22.3595   -8.7253   20.1467 C   0  0  0  0  0  0  0  0  0  0  0  0
  -23.1626   -8.6669   22.4246 C   0  0  0  0  0  0  0  0  0  0  0  0
  -30.0536  -27.6313   22.4911 C   0  0  0  0  0  0  0  0  0  0  0  0
  -19.9574   -7.8046   23.0598 C   0  0  0  0  0  0  0  0  0  0  0  0
  -19.2234   -7.7154   24.2425 C   0  0  0  0  0  0  0  0  0  0  0  0
  -28.0780  -28.2660   23.7213 C   0  0  0  0  0  0  0  0  0  0  0  0
  -32.0278  -16.6706   22.5850 C   0  0  0  0  0  0  0  0  0  0  0  0
  -30.4408  -18.3316   24.1678 C   0  0  0  0  0  0  0  0  0  0  0  0
  -20.5042   -5.7721   24.8908 C   0  0  0  0  0  0  0  0  0  0  0  0
  -23.8465  -10.4526   20.9480 C   0  0  0  0  0  0  0  0  0  0  0  0
  -24.1524  -12.9849   20.9059 C   0  0  0  0  0  0  0  0  0  0  0  0
  -29.1796  -35.7699   18.6629 C   0  0  0  0  0  0  0  0  0  0  0  0
  -28.3651  -29.0242   21.4404 C   0  0  0  0  0  0  0  0  0  0  0  0
  -29.4896  -34.6983   19.5220 C   0  0  0  0  0  0  0  0  0  0  0  0
  -27.5967  -28.9786   22.6124 C   0  0  0  0  0  0  0  0  0  0  0  0
  -32.6227  -17.5315   23.5073 C   0  0  0  0  0  0  0  0  0  0  0  0
  -31.8292  -18.3620   24.2987 C   0  0  0  0  0  0  0  0  0  0  0  0
  -30.6394  -16.6403   22.4540 C   0  0  0  0  0  0  0  0  0  0  0  0
  -22.3992   -8.1105   21.3981 C   0  0  0  0  0  0  0  0  0  0  0  0
  -29.3005  -27.5976   23.6611 C   0  0  0  0  0  0  0  0  0  0  0  0
  -20.9648   -6.8776   22.7925 C   0  0  0  0  0  0  0  0  0  0  0  0
  -19.4968   -6.6992   25.1581 C   0  0  0  0  0  0  0  0  0  0  0  0
  -29.8459  -17.4708   23.2454 C   0  0  0  0  0  0  0  0  0  0  0  0
  -21.2382   -5.8614   23.7080 C   0  0  0  0  0  0  0  0  0  0  0  0
  -24.5946  -11.6620   20.7159 C   0  0  0  0  0  0  0  0  0  0  0  0
  -25.2273  -13.7611   20.5477 C   0  0  0  0  0  0  0  0  0  0  0  0
  -22.8833  -13.4688   21.3653 C   0  0  0  0  0  0  0  0  0  0  0  0
  -27.4872  -32.0673   21.1716 C   0  0  0  0  0  0  0  0  0  0  0  0
  -24.4994  -30.8129   21.3199 C   0  0  0  0  0  0  0  0  0  0  0  0
  -22.4814  -28.2444   22.3084 C   0  0  0  0  0  0  0  0  0  0  0  0
  -30.6815  -14.8764   20.6559 C   0  0  0  0  0  0  0  0  0  0  0  0
  -27.9209  -36.5833   18.8317 C   0  0  0  0  0  0  0  0  0  0  0  0
  -27.8629  -29.7597   20.2283 C   0  0  0  0  0  0  0  0  0  0  0  0
  -26.2689  -29.6817   22.7179 C   0  0  0  0  0  0  0  0  0  0  0  0
  -26.8581  -35.8918   19.6817 C   0  0  0  0  0  0  0  0  0  0  0  0
  -29.5545  -12.5271   18.2295 C   0  0  0  0  0  0  0  0  0  0  0  0
  -27.4810  -35.3127   20.9480 C   0  0  0  0  0  0  0  0  0  0  0  0
  -31.4055  -22.7640   26.7362 C   0  0  0  0  0  0  0  0  0  0  0  0
  -30.5904  -22.5767   24.3534 C   0  0  0  0  0  0  0  0  0  0  0  0
  -32.2193  -21.4835   26.5584 C   0  0  0  0  0  0  0  0  0  0  0  0
  -31.4045  -21.2964   24.1756 C   0  0  0  0  0  0  0  0  0  0  0  0
  -28.1273  -12.2014   18.6757 C   0  0  0  0  0  0  0  0  0  0  0  0
  -30.4892  -12.7287   19.4209 C   0  0  0  0  0  0  0  0  0  0  0  0
  -28.5993  -13.3804   20.8607 C   0  0  0  0  0  0  0  0  0  0  0  0
  -28.5357  -34.2525   20.6089 C   0  0  1  0  0  0  0  0  0  0  0  0
  -26.8493  -30.8484   20.5675 C   0  0  1  0  0  0  0  0  0  0  0  0
  -31.2129  -23.5030   25.4057 C   0  0  0  0  0  0  0  0  0  0  0  0
  -31.5964  -20.5575   25.5060 C   0  0  0  0  0  0  0  0  0  0  0  0
  -27.6067  -13.2327   19.6960 C   0  0  2  0  0  0  0  0  0  0  0  0
  -34.1111  -17.5470   23.6298 C   0  0  0  0  0  0  0  0  0  0  0  0
  -20.0784  -27.5213   22.3248 C   0  0  0  0  0  0  0  0  0  0  0  0
  -32.6978  -18.6047   26.6480 C   0  0  0  0  0  0  0  0  0  0  0  0
  -23.9339  -32.7523   23.6065 C   0  0  0  0  0  0  0  0  0  0  0  0
  -21.9306  -31.3692   24.1915 C   0  0  0  0  0  0  0  0  0  0  0  0
  -22.0609  -32.4952   21.9694 C   0  0  0  0  0  0  0  0  0  0  0  0
  -23.0703  -25.8489   20.6733 C   0  0  0  0  0  0  0  0  0  0  0  0
  -30.3540  -24.7508   25.6012 C   0  0  0  0  0  0  0  0  0  0  0  0
  -30.5726  -25.7677   24.4913 C   0  0  0  0  0  0  0  0  0  1  0  0
  -23.5295  -30.4896   22.4306 C   0  0  1  0  0  0  0  0  0  0  0  0
  -21.3999  -27.4730   21.5737 C   0  0  2  0  0  0  0  0  0  0  0  0
  -32.4542  -19.3087   25.3107 C   0  0  1  0  0  0  0  0  0  0  0  0
  -22.8896  -31.7648   23.0485 C   0  0  0  0  0  0  0  0  0  0  0  0
  -25.8525  -11.5977   20.2713 N   0  0  0  0  0  0  0  0  0  0  0  0
  -26.2098  -12.8899   20.1789 N   0  0  0  0  0  0  0  0  0  0  0  0
  -25.8237  -30.3926   21.5080 N   0  0  0  0  0  0  0  0  0  0  0  0
  -29.9333  -13.7220   20.3424 N   0  0  0  0  0  0  0  0  0  0  0  0
  -25.4186  -15.0971   20.5153 N   0  0  0  0  0  0  0  0  0  0  0  0
  -21.8902  -12.5349   21.6907 N   0  0  0  0  0  0  0  0  0  0  0  0
  -30.0375  -15.7648   21.5166 N   0  0  0  0  0  0  0  0  0  0  0  0
  -27.8993  -33.0050   20.2440 N   0  0  0  0  0  0  0  0  0  0  0  0
  -22.5655  -29.5490   21.8699 N   0  0  0  0  0  0  0  0  0  0  0  0
  -21.7985  -26.0457   21.4153 N   0  3  0  0  0  0  0  0  0  0  0  0
  -22.6318  -14.6934   21.4680 O   0  0  0  0  0  0  0  0  0  0  0  0
  -27.5960  -32.1516   22.3893 O   0  0  0  0  0  0  0  0  0  0  0  0
  -24.0953  -31.4098   20.3189 O   0  0  0  0  0  0  0  0  0  0  0  0
  -23.1790  -27.7412   23.1863 O   0  0  0  0  0  0  0  0  0  0  0  0
  -31.7991  -15.0763   20.1733 O   0  0  0  0  0  0  0  0  0  0  0  0
  -21.6931   -6.9680   21.6182 O   0  0  0  0  0  0  0  0  0  0  0  0
  -29.7542  -26.9091   24.7437 O   0  0  0  0  0  0  0  0  0  1  0  0
  -18.7929   -6.6146   26.2945 F   0  0  0  0  0  0  0  0  0  0  0  0
  -28.5105  -17.4499   23.1283 F   0  0  0  0  0  0  0  0  0  0  0  0
  -22.2056   -4.9685   23.4573 F   0  0  0  0  0  0  0  0  0  0  0  0
  -33.6847  -19.7567   24.8944 F   0  0  0  0  0  0  0  0  0  0  0  0
  1  2  1  0  0  0  0
  1  5  2  0  0  0  0
  2  6  2  0  0  0  0
  3  8  2  0  0  0  0
  3 17  1  0  0  0  0
  4  9  1  0  0  0  0
  4 17  2  0  0  0  0
  5 19  1  0  0  0  0
  6 21  1  0  0  0  0
  7 10  2  0  0  0  0
  7 20  1  0  0  0  0
  8 26  1  0  0  0  0
  9 26  2  0  0  0  0
 10 27  1  0  0  0  0
 11 12  2  0  0  0  0
 11 28  1  0  0  0  0
 12 29  1  0  0  0  0
 13 22  1  0  0  0  0
 13 27  2  0  0  0  0
 14 23  1  0  0  0  0
 14 25  2  0  0  0  0
 15 24  1  0  0  0  0
 15 30  2  0  0  0  0
 16 29  2  0  0  0  0
 16 31  1  0  0  0  0
 17 32  1  0  0  0  0
 18 32  1  0  0  0  0
 18 33  2  0  0  0  0
 18 34  1  0  0  0  0
 19 21  2  0  0  0  0
 19 39  1  0  0  0  0
 20 22  2  0  0  0  0
 20 40  1  0  0  0  0
 21 52  1  0  0  0  0
 22 41  1  0  0  0  0
 23 24  2  0  0  0  0
 23 57  1  0  0  0  0
 24 68  1  0  0  0  0
 25 30  1  0  0  0  0
 25 76  1  0  0  0  0
 26 85  1  0  0  0  0
 27 86  1  0  0  0  0
 28 31  2  0  0  0  0
 28 85  1  0  0  0  0
 29 87  1  0  0  0  0
 30 88  1  0  0  0  0
 31 89  1  0  0  0  0
 32 70  2  0  0  0  0
 33 71  1  0  0  0  0
 33 74  1  0  0  0  0
 34 75  1  0  0  0  0
 34 80  2  0  0  0  0
 35 53  1  0  0  0  0
 35 77  1  0  0  0  0
 35 81  2  0  0  0  0
 36 66  1  0  0  0  0
 36 72  1  0  0  0  0
 36 82  2  0  0  0  0
 37 67  1  0  0  0  0
 37 78  1  0  0  0  0
 37 83  2  0  0  0  0
 38 73  1  0  0  0  0
 38 76  1  0  0  0  0
 38 84  2  0  0  0  0
 39 42  1  0  0  0  0
 40 53  1  0  0  0  0
 41 72  1  0  0  0  0
 42 44  1  0  0  0  0
 43 49  1  0  0  0  0
 43 50  1  0  0  0  0
 44 52  1  0  0  0  0
 45 47  1  0  0  0  0
 45 54  1  0  0  0  0
 46 48  1  0  0  0  0
 46 54  1  0  0  0  0
 47 55  1  0  0  0  0
 48 55  1  0  0  0  0
 49 56  1  0  0  0  0
 50 73  1  0  0  0  0
 51 56  1  0  0  0  0
 51 73  1  0  0  0  0
 52 77  1  0  0  0  0
 53 72  1  0  0  0  0
 54 64  1  0  0  0  0
 55 68  1  0  0  0  0
 56 71  1  0  0  0  0
 58 67  1  0  0  0  0
 59 68  1  0  0  0  0
 60 69  1  0  0  0  0
 61 69  1  0  0  0  0
 62 69  1  0  0  0  0
 63 79  1  0  0  0  0
 64 65  1  0  0  0  0
 65 86  1  0  0  0  0
 66 69  1  0  0  0  0
 66 78  1  0  0  0  0
 67 79  1  0  0  0  0
 68 90  1  0  0  0  0
 70 71  1  0  0  0  0
M  CHG  1  79   1
M  ISO  4  38 100  65 101  76 100  86 101
M  END
> <Batch ID>
0025

> <Smiles>
CNC(C)C(=O)NC(C(=O)N1Cc2cc([101O:1][101CH2:1]CC3CCC(C(C)(F)c4cc(F)c([100NH:0][100C:0](=O)N5CCCC(n6nc(-c7ccc(Oc8ccc(F)cc8F)cc7)c(C(N)=O)c6N)C5)cc4C)CC3)ccc2CC1C(=O)NC1CCCc2ccccc21)C(C)(C)C

> <Shape>
0.275

> <Color>
0.206

> <Negative vol penalty>
0.000

$$$$

  -OEChem-04052316243D

 90 99  0     1  0  0  0  0  0999 V2000
  -32.6144  -14.0251   21.0645 C   0  0  0  0  0  0  0  0  0  0  0  0
  -31.8054  -15.1479   20.9221 C   0  0  0  0  0  0  0  0  0  0  0  0
  -28.7033  -26.8149   20.2011 C   0  0  0  0  0  0  0  0  0  0  0  0
  -26.7599  -25.5573   20.8928 C   0  0  0  0  0  0  0  0  0  0  0  0
  -32.1193  -12.7642   20.7343 C   0  0  0  0  0  0  0  0  0  0  0  0
  -30.5011  -15.0106   20.4483 C   0  0  0  0  0  0  0  0  0  0  0  0
  -25.6147  -18.3076   22.1090 C   0  0  0  0  0  0  0  0  0  0  0  0
  -29.5161  -25.7197   20.4934 C   0  0  0  0  0  0  0  0  0  0  0  0
  -27.5727  -24.4620   21.1851 C   0  0  0  0  0  0  0  0  0  0  0  0
  -24.9778  -19.4009   21.5235 C   0  0  0  0  0  0  0  0  0  0  0  0
  -29.1221  -21.9876   19.4831 C   0  0  0  0  0  0  0  0  0  0  0  0
  -28.6952  -20.7320   19.0510 C   0  0  0  0  0  0  0  0  0  0  0  0
  -23.3917  -17.9114   20.4819 C   0  0  0  0  0  0  0  0  0  0  0  0
  -28.6647  -19.9550   21.3385 C   0  0  0  0  0  0  0  0  0  0  0  0
  -18.0053  -29.4678   22.7495 C   0  0  0  0  0  0  0  0  0  0  0  0
  -27.3252  -26.7337   20.4008 C   0  0  0  0  0  0  0  0  0  0  0  0
  -25.8595  -28.1564   18.8727 C   0  0  0  0  0  0  0  0  0  0  0  0
  -30.8052  -12.6102   20.2654 C   0  0  0  0  0  0  0  0  0  0  0  0
  -25.1507  -17.0050   21.8762 C   0  0  0  0  0  0  0  0  0  0  0  0
  -29.9885  -13.7466   20.1103 C   0  0  0  0  0  0  0  0  0  0  0  0
  -24.0230  -16.8035   21.0677 C   0  0  0  0  0  0  0  0  0  0  0  0
  -19.9664  -29.7744   24.1267 C   0  0  0  0  0  0  0  0  0  0  0  0
  -19.1816  -27.5460   23.6212 C   0  0  0  0  0  0  0  0  0  0  0  0
  -28.9508  -24.5433   20.9854 C   0  0  0  0  0  0  0  0  0  0  0  0
  -23.8679  -19.2027   20.7074 C   0  0  0  0  0  0  0  0  0  0  0  0
  -29.3205  -22.2269   20.8430 C   0  0  0  0  0  0  0  0  0  0  0  0
  -28.4665  -19.7157   19.9786 C   0  0  0  0  0  0  0  0  0  0  0  0
  -29.0917  -21.2107   21.7706 C   0  0  0  0  0  0  0  0  0  0  0  0
  -18.9206  -30.3128   23.3771 C   0  0  0  0  0  0  0  0  0  0  0  0
  -18.1358  -28.0844   22.8716 C   0  0  0  0  0  0  0  0  0  0  0  0
  -20.0970  -28.3910   24.2488 C   0  0  0  0  0  0  0  0  0  0  0  0
  -26.4851  -27.8649   20.0996 C   0  0  0  0  0  0  0  0  0  0  0  0
  -25.1817  -29.3287   19.1027 C   0  0  0  0  0  0  0  0  0  0  0  0
  -25.8883  -27.4322   17.6356 C   0  0  0  0  0  0  0  0  0  0  0  0
  -26.3763  -14.3917   20.5449 C   0  0  0  0  0  0  0  0  0  0  0  0
  -23.6233  -13.0368   21.5972 C   0  0  0  0  0  0  0  0  0  0  0  0
  -20.3686  -13.4451   22.5391 C   0  0  0  0  0  0  0  0  0  0  0  0
  -23.0027  -31.8720   24.0660 C   0  0  0  0  0  0  0  0  0  0  0  0
  -30.3300  -11.2327   19.8764 C   0  0  0  0  0  0  0  0  0  0  0  0
  -25.8327  -15.8384   22.5368 C   0  0  0  0  0  0  0  0  0  0  0  0
  -23.4730  -15.4266   20.8026 C   0  0  0  0  0  0  0  0  0  0  0  0
  -28.8135  -11.1285   19.7364 C   0  0  0  0  0  0  0  0  0  0  0  0
  -25.3474  -33.2843   21.7891 C   0  0  0  0  0  0  0  0  0  0  0  0
  -28.2704  -12.3008   18.9254 C   0  0  0  0  0  0  0  0  0  0  0  0
  -25.8484  -32.0818   20.9872 C   0  0  0  0  0  0  0  0  0  0  0  0
  -21.9096  -23.6893   21.2039 C   0  0  0  0  0  0  0  0  0  0  0  0
  -20.7428  -21.9018   21.2471 C   0  0  0  0  0  0  0  0  0  0  0  0
  -25.0930  -32.9217   23.2505 C   0  0  0  0  0  0  0  0  0  0  0  0
  -24.7019  -30.5628   22.6536 C   0  0  0  0  0  0  0  0  0  0  0  0
  -28.5601  -13.6354   19.6230 C   0  0  1  0  0  0  0  0  0  0  0  0
  -25.5861  -14.5162   21.8168 C   0  0  1  0  0  0  0  0  0  0  0  0
  -22.0474  -22.3076   20.5137 C   0  0  0  0  0  0  0  0  0  0  0  0
  -20.3871  -23.4102   21.2985 C   0  0  0  0  0  0  0  0  0  0  0  0
  -24.9192  -30.8654   21.1611 C   0  0  2  0  0  0  0  0  0  0  0  0
  -18.3636  -12.1482   23.3106 C   0  0  0  0  0  0  0  0  0  0  0  0
  -18.3177  -23.2550   22.7365 C   0  0  0  0  0  0  0  0  0  0  0  0
  -23.1603  -12.0600   18.7438 C   0  0  0  0  0  0  0  0  0  0  0  0
  -20.7712  -11.6263   19.3542 C   0  0  0  0  0  0  0  0  0  0  0  0
  -22.5985  -10.3928   20.5213 C   0  0  0  0  0  0  0  0  0  0  0  0
  -20.2676  -14.9071   25.1104 C   0  0  0  0  0  0  0  0  0  0  0  0
  -20.9482  -30.6871   24.7972 C   0  0  0  0  0  0  0  0  0  0  0  0
  -19.3162  -26.0573   23.7501 C   0  0  0  0  0  0  0  0  0  0  0  0
  -23.2887  -21.5053   20.8438 C   0  0  0  0  0  0  0  0  0  1  0  0
  -22.2396  -12.8442   21.0250 C   0  0  1  0  0  0  0  0  0  0  0  0
  -19.5953  -12.9303   23.7396 C   0  0  2  0  0  0  0  0  0  0  0  0
  -19.6842  -23.8991   22.5477 C   0  0  2  0  0  0  0  0  0  0  0  0
  -22.2037  -11.7568   19.9143 C   0  0  0  0  0  0  0  0  0  0  0  0
  -26.2278  -28.7785   21.0394 N   0  0  0  0  0  0  0  0  0  0  0  0
  -25.4331  -29.6556   20.4028 N   0  0  0  0  0  0  0  0  0  0  0  0
  -24.1783  -14.3176   21.4660 N   0  0  0  0  0  0  0  0  0  0  0  0
  -24.2036  -31.7616   23.3458 N   0  0  0  0  0  0  0  0  0  0  0  0
  -24.4013  -30.1015   18.3178 N   0  0  0  0  0  0  0  0  0  0  0  0
  -26.6337  -26.2470   17.5724 N   0  0  0  0  0  0  0  0  0  0  0  0
  -27.6344  -13.8461   20.7153 N   0  0  0  0  0  0  0  0  0  0  0  0
  -21.3636  -12.5696   22.1588 N   0  0  0  0  0  0  0  0  0  0  0  0
  -22.2151  -30.7278   24.1013 N   0  0  0  0  0  0  0  0  0  0  0  0
  -19.1552  -14.0661   24.5983 N   0  3  0  0  0  0  0  0  0  0  0  0
  -19.4953  -25.3738   22.4433 N   0  3  0  0  0  0  0  0  0  0  0  0
  -25.2847  -27.8331   16.6116 O   0  0  0  0  0  0  0  0  0  0  0  0
  -25.8807  -14.7618   19.4870 O   0  0  0  0  0  0  0  0  0  0  0  0
  -24.1878  -12.0876   22.1468 O   0  0  0  0  0  0  0  0  0  0  0  0
  -20.1131  -14.5151   21.9911 O   0  0  0  0  0  0  0  0  0  0  0  0
  -22.6554  -32.9147   24.6310 O   0  0  0  0  0  0  0  0  0  0  0  0
  -29.7436  -23.4743   21.2705 O   0  0  0  0  0  0  0  0  0  0  0  0
  -23.2448  -20.2680   20.1341 O   0  0  0  0  0  0  0  0  0  1  0  0
  -28.0550  -18.5105   19.5636 F   0  0  0  0  0  0  0  0  0  0  0  0
  -29.2794  -21.4350   23.0784 F   0  0  0  0  0  0  0  0  0  0  0  0
  -18.7216  -32.0193   23.1990 Cl  0  0  0  0  0  0  0  0  0  0  0  0
  -16.9796  -27.0756   22.0783 Cl  0  0  0  0  0  0  0  0  0  0  0  0
  -21.3959  -27.7209   25.1814 Cl  0  0  0  0  0  0  0  0  0  0  0  0
  1  2  1  0  0  0  0
  1  5  2  0  0  0  0
  2  6  2  0  0  0  0
  3  8  2  0  0  0  0
  3 16  1  0  0  0  0
  4  9  1  0  0  0  0
  4 16  2  0  0  0  0
  5 18  1  0  0  0  0
  6 20  1  0  0  0  0
  7 10  2  0  0  0  0
  7 19  1  0  0  0  0
  8 24  1  0  0  0  0
  9 24  2  0  0  0  0
 10 25  1  0  0  0  0
 11 12  2  0  0  0  0
 11 26  1  0  0  0  0
 12 27  1  0  0  0  0
 13 21  1  0  0  0  0
 13 25  2  0  0  0  0
 14 27  2  0  0  0  0
 14 28  1  0  0  0  0
 15 29  1  0  0  0  0
 15 30  2  0  0  0  0
 16 32  1  0  0  0  0
 17 32  1  0  0  0  0
 17 33  2  0  0  0  0
 17 34  1  0  0  0  0
 18 20  2  0  0  0  0
 18 39  1  0  0  0  0
 19 21  2  0  0  0  0
 19 40  1  0  0  0  0
 20 50  1  0  0  0  0
 21 41  1  0  0  0  0
 22 29  2  0  0  0  0
 22 31  1  0  0  0  0
 22 61  1  0  0  0  0
 23 30  1  0  0  0  0
 23 31  2  0  0  0  0
 23 62  1  0  0  0  0
 24 84  1  0  0  0  0
 25 85  1  0  0  0  0
 26 28  2  0  0  0  0
 26 84  1  0  0  0  0
 27 86  1  0  0  0  0
 28 87  1  0  0  0  0
 29 88  1  0  0  0  0
 30 89  1  0  0  0  0
 31 90  1  0  0  0  0
 32 68  2  0  0  0  0
 33 69  1  0  0  0  0
 33 72  1  0  0  0  0
 34 73  1  0  0  0  0
 34 79  2  0  0  0  0
 35 51  1  0  0  0  0
 35 74  1  0  0  0  0
 35 80  2  0  0  0  0
 36 64  1  0  0  0  0
 36 70  1  0  0  0  0
 36 81  2  0  0  0  0
 37 65  1  0  0  0  0
 37 75  1  0  0  0  0
 37 82  2  0  0  0  0
 38 71  1  0  0  0  0
 38 76  1  0  0  0  0
 38 83  2  0  0  0  0
 39 42  1  0  0  0  0
 40 51  1  0  0  0  0
 41 70  1  0  0  0  0
 42 44  1  0  0  0  0
 43 45  1  0  0  0  0
 43 48  1  0  0  0  0
 44 50  1  0  0  0  0
 45 54  1  0  0  0  0
 46 52  1  0  0  0  0
 46 53  1  0  0  0  0
 47 52  1  0  0  0  0
 47 53  1  0  0  0  0
 48 71  1  0  0  0  0
 49 54  1  0  0  0  0
 49 71  1  0  0  0  0
 50 74  1  0  0  0  0
 51 70  1  0  0  0  0
 52 63  1  0  0  0  0
 53 66  1  0  0  0  0
 54 69  1  0  0  0  0
 55 65  1  0  0  0  0
 56 66  1  0  0  0  0
 57 67  1  0  0  0  0
 58 67  1  0  0  0  0
 59 67  1  0  0  0  0
 60 77  1  0  0  0  0
 61 76  1  0  0  0  0
 62 78  1  0  0  0  0
 63 85  1  0  0  0  0
 64 67  1  0  0  0  0
 64 75  1  0  0  0  0
 65 77  1  0  0  0  0
 66 78  1  0  0  0  0
 68 69  1  0  0  0  0
M  CHG  2  77   1  78   1
M  ISO  4  38 100  63 101  76 100  85 101
M  END
> <Batch ID>
0025

> <Smiles>
CNC(C)C(=O)NC(C(=O)N1Cc2cc([101O:1][101CH2:1]C3CC(C(C)NCc4c(Cl)cc(Cl)c(C[100NH:0][100C:0](=O)N5CCCC(n6nc(-c7ccc(Oc8ccc(F)cc8F)cc7)c(C(N)=O)c6N)C5)c4Cl)C3)ccc2CC1C(=O)NC1CCCc2ccccc21)C(C)(C)C

> <Shape>
0.291

> <Color>
0.050

> <Negative vol penalty>
0.000

$$$$

  -OEChem-04052316243D

 86 94  0     1  0  0  0  0  0999 V2000
  -17.7975  -22.4432   23.2953 C   0  0  0  0  0  0  0  0  0  0  0  0
  -19.0084  -22.0292   22.7498 C   0  0  0  0  0  0  0  0  0  0  0  0
  -22.9388  -12.6498   20.2249 C   0  0  0  0  0  0  0  0  0  0  0  0
  -23.5894  -13.1299   22.5016 C   0  0  0  0  0  0  0  0  0  0  0  0
  -17.3979  -23.7734   23.1734 C   0  0  0  0  0  0  0  0  0  0  0  0
  -19.8200  -22.9449   22.0811 C   0  0  0  0  0  0  0  0  0  0  0  0
  -25.9425  -23.0565   21.9880 C   0  0  0  0  0  0  0  0  0  0  0  0
  -22.5098  -11.3812   20.6150 C   0  0  0  0  0  0  0  0  0  0  0  0
  -23.1603  -11.8612   22.8917 C   0  0  0  0  0  0  0  0  0  0  0  0
  -26.8750  -22.5976   21.0587 C   0  0  0  0  0  0  0  0  0  0  0  0
  -21.5747   -7.8827   20.9459 C   0  0  0  0  0  0  0  0  0  0  0  0
  -21.9352   -6.7996   20.1444 C   0  0  0  0  0  0  0  0  0  0  0  0
  -27.0013  -24.8087   20.1026 C   0  0  0  0  0  0  0  0  0  0  0  0
  -31.3822  -20.3925   22.3229 C   0  0  0  0  0  0  0  0  0  0  0  0
  -24.2691   -7.3003   20.5176 C   0  0  0  0  0  0  0  0  0  0  0  0
  -23.4786  -13.5242   21.1683 C   0  0  0  0  0  0  0  0  0  0  0  0
  -23.1604  -16.0178   20.7344 C   0  0  0  0  0  0  0  0  0  0  0  0
  -18.2095  -24.7081   22.5113 C   0  0  0  0  0  0  0  0  0  0  0  0
  -25.5235  -24.3947   21.9746 C   0  0  0  0  0  0  0  0  0  0  0  0
  -19.4303  -24.2886   21.9491 C   0  0  0  0  0  0  0  0  0  0  0  0
  -26.0653  -25.2827   21.0344 C   0  0  0  0  0  0  0  0  0  0  0  0
  -31.2051  -21.7659   22.4905 C   0  0  0  0  0  0  0  0  0  0  0  0
  -30.5149  -19.4960   22.9472 C   0  0  0  0  0  0  0  0  0  0  0  0
  -30.1607  -22.2428   23.2827 C   0  0  0  0  0  0  0  0  0  0  0  0
  -22.6205  -10.9869   21.9484 C   0  0  0  0  0  0  0  0  0  0  0  0
  -27.4024  -23.4730   20.1140 C   0  0  0  0  0  0  0  0  0  0  0  0
  -22.5613   -8.6747   21.5333 C   0  0  0  0  0  0  0  0  0  0  0  0
  -23.2825   -6.5084   19.9302 C   0  0  0  0  0  0  0  0  0  0  0  0
  -23.9086   -8.3835   21.3191 C   0  0  0  0  0  0  0  0  0  0  0  0
  -29.4705  -19.9730   23.7393 C   0  0  0  0  0  0  0  0  0  0  0  0
  -29.2934  -21.3463   23.9071 C   0  0  0  0  0  0  0  0  0  0  0  0
  -23.9225  -14.8346   20.7659 C   0  0  0  0  0  0  0  0  0  0  0  0
  -24.0339  -16.9769   20.2834 C   0  0  0  0  0  0  0  0  0  0  0  0
  -21.7857  -16.2308   21.0818 C   0  0  0  0  0  0  0  0  0  0  0  0
  -22.7433  -25.8705   21.5316 C   0  0  0  0  0  0  0  0  0  0  0  0
  -24.4603  -28.5064   22.3230 C   0  0  0  0  0  0  0  0  0  0  0  0
  -27.5084  -30.0296   22.5117 C   0  0  0  0  0  0  0  0  0  0  0  0
  -30.0002  -17.4559   20.4408 C   0  0  0  0  0  0  0  0  0  0  0  0
  -17.7134  -26.1246   22.3637 C   0  0  0  0  0  0  0  0  0  0  0  0
  -24.5369  -24.8804   23.0009 C   0  0  0  0  0  0  0  0  0  0  0  0
  -25.6637  -26.7337   20.9908 C   0  0  0  0  0  0  0  0  0  0  0  0
  -18.8055  -27.1142   21.9659 C   0  0  0  0  0  0  0  0  0  0  0  0
  -27.9236  -17.5108   17.5492 C   0  0  0  0  0  0  0  0  0  0  0  0
  -19.6431  -26.5531   20.8212 C   0  0  0  0  0  0  0  0  0  0  0  0
  -26.5940  -16.9379   18.0428 C   0  0  0  0  0  0  0  0  0  0  0  0
  -29.1152  -16.8256   18.2146 C   0  0  0  0  0  0  0  0  0  0  0  0
  -27.7506  -16.2438   20.1827 C   0  0  0  0  0  0  0  0  0  0  0  0
  -20.3498  -25.2576   21.2381 C   0  0  1  0  0  0  0  0  0  0  0  0
  -23.7968  -26.1422   22.5679 C   0  0  1  0  0  0  0  0  0  0  0  0
  -26.5185  -16.9416   19.5815 C   0  0  2  0  0  0  0  0  0  0  0  0
  -29.9930  -23.7221   23.4461 C   0  0  0  0  0  0  0  0  0  0  0  0
  -28.5898  -32.1983   23.1636 C   0  0  0  0  0  0  0  0  0  0  0  0
  -23.4673  -29.7774   19.7329 C   0  0  0  0  0  0  0  0  0  0  0  0
  -25.2783  -31.4910   19.9612 C   0  0  0  0  0  0  0  0  0  0  0  0
  -23.5019  -31.3164   21.7038 C   0  0  0  0  0  0  0  0  0  0  0  0
  -29.1295  -28.7228   24.6148 C   0  0  0  0  0  0  0  0  0  0  0  0
  -30.7467  -18.0341   22.7359 C   0  0  0  0  0  0  0  0  0  0  0  0
  -32.1530  -22.7065   21.8067 C   0  0  0  0  0  0  0  0  0  0  0  0
  -30.5511  -23.2241   18.3676 C   0  0  0  0  0  0  0  0  0  0  0  0
  -31.1633  -22.4531   19.5274 C   0  0  0  0  0  0  0  0  0  0  0  0
  -29.2740  -23.9703   18.7334 C   0  0  0  0  0  0  0  0  0  1  0  0
  -25.2756  -29.5207   21.5578 C   0  0  1  0  0  0  0  0  0  0  0  0
  -28.1767  -30.8106   23.6288 C   0  0  2  0  0  0  0  0  0  0  0  0
  -24.3871  -30.4986   20.7382 C   0  0  0  0  0  0  0  0  0  0  0  0
  -25.1831  -15.0224   20.3665 N   0  0  0  0  0  0  0  0  0  0  0  0
  -25.2199  -16.3349   20.0798 N   0  0  0  0  0  0  0  0  0  0  0  0
  -24.6913  -27.1591   22.0110 N   0  0  0  0  0  0  0  0  0  0  0  0
  -28.9831  -16.8651   19.6731 N   0  0  0  0  0  0  0  0  0  0  0  0
  -23.8956  -18.2985   20.0450 N   0  0  0  0  0  0  0  0  0  0  0  0
  -21.0318  -15.1365   21.5272 N   0  0  0  0  0  0  0  0  0  0  0  0
  -21.5054  -25.5534   22.0575 N   0  0  0  0  0  0  0  0  0  0  0  0
  -26.1374  -30.1742   22.5369 N   0  0  0  0  0  0  0  0  0  0  0  0
  -29.7931  -17.4571   21.8148 N   0  0  0  0  0  0  0  0  0  0  0  0
  -29.3928  -30.0936   24.1063 N   0  3  0  0  0  0  0  0  0  0  0  0
  -31.5550  -23.3759   20.6185 N   0  3  0  0  0  0  0  0  0  0  0  0
  -21.2376  -17.3549   20.9841 O   0  0  0  0  0  0  0  0  0  0  0  0
  -23.0318  -25.9445   20.3429 O   0  0  0  0  0  0  0  0  0  0  0  0
  -23.6535  -28.8949   23.1714 O   0  0  0  0  0  0  0  0  0  0  0  0
  -28.1397  -29.3615   21.6959 O   0  0  0  0  0  0  0  0  0  0  0  0
  -31.0150  -17.9509   19.9386 O   0  0  0  0  0  0  0  0  0  0  0  0
  -22.2018   -9.7492   22.3294 O   0  0  0  0  0  0  0  0  0  0  0  0
  -28.3122  -23.0276   19.2053 O   0  0  0  0  0  0  0  0  0  1  0  0
  -23.6286   -5.4673   19.1617 F   0  0  0  0  0  0  0  0  0  0  0  0
  -24.8609   -9.1400   21.8817 F   0  0  0  0  0  0  0  0  0  0  0  0
  -28.4095  -18.8306   24.5029 Cl  0  0  0  0  0  0  0  0  0  0  0  0
  -28.0018  -21.9686   24.8873 Cl  0  0  0  0  0  0  0  0  0  0  0  0
  1  2  1  0  0  0  0
  1  5  2  0  0  0  0
  2  6  2  0  0  0  0
  3  8  2  0  0  0  0
  3 16  1  0  0  0  0
  4  9  1  0  0  0  0
  4 16  2  0  0  0  0
  5 18  1  0  0  0  0
  6 20  1  0  0  0  0
  7 10  2  0  0  0  0
  7 19  1  0  0  0  0
  8 25  1  0  0  0  0
  9 25  2  0  0  0  0
 10 26  1  0  0  0  0
 11 12  2  0  0  0  0
 11 27  1  0  0  0  0
 12 28  1  0  0  0  0
 13 21  1  0  0  0  0
 13 26  2  0  0  0  0
 14 22  1  0  0  0  0
 14 23  2  0  0  0  0
 15 28  2  0  0  0  0
 15 29  1  0  0  0  0
 16 32  1  0  0  0  0
 17 32  1  0  0  0  0
 17 33  2  0  0  0  0
 17 34  1  0  0  0  0
 18 20  2  0  0  0  0
 18 39  1  0  0  0  0
 19 21  2  0  0  0  0
 19 40  1  0  0  0  0
 20 48  1  0  0  0  0
 21 41  1  0  0  0  0
 22 24  2  0  0  0  0
 22 58  1  0  0  0  0
 23 30  1  0  0  0  0
 23 57  1  0  0  0  0
 24 31  1  0  0  0  0
 24 51  1  0  0  0  0
 25 81  1  0  0  0  0
 26 82  1  0  0  0  0
 27 29  2  0  0  0  0
 27 81  1  0  0  0  0
 28 83  1  0  0  0  0
 29 84  1  0  0  0  0
 30 31  2  0  0  0  0
 30 85  1  0  0  0  0
 31 86  1  0  0  0  0
 32 65  2  0  0  0  0
 33 66  1  0  0  0  0
 33 69  1  0  0  0  0
 34 70  1  0  0  0  0
 34 76  2  0  0  0  0
 35 49  1  0  0  0  0
 35 71  1  0  0  0  0
 35 77  2  0  0  0  0
 36 62  1  0  0  0  0
 36 67  1  0  0  0  0
 36 78  2  0  0  0  0
 37 63  1  0  0  0  0
 37 72  1  0  0  0  0
 37 79  2  0  0  0  0
 38 68  1  0  0  0  0
 38 73  1  0  0  0  0
 38 80  2  0  0  0  0
 39 42  1  0  0  0  0
 40 49  1  0  0  0  0
 41 67  1  0  0  0  0
 42 44  1  0  0  0  0
 43 45  1  0  0  0  0
 43 46  1  0  0  0  0
 44 48  1  0  0  0  0
 45 50  1  0  0  0  0
 46 68  1  0  0  0  0
 47 50  1  0  0  0  0
 47 68  1  0  0  0  0
 48 71  1  0  0  0  0
 49 67  1  0  0  0  0
 50 66  1  0  0  0  0
 52 63  1  0  0  0  0
 53 64  1  0  0  0  0
 54 64  1  0  0  0  0
 55 64  1  0  0  0  0
 56 74  1  0  0  0  0
 57 73  1  0  0  0  0
 58 75  1  0  0  0  0
 59 60  1  0  0  0  0
 59 61  1  0  0  0  0
 60 75  1  0  0  0  0
 61 82  1  0  0  0  0
 62 64  1  0  0  0  0
 62 72  1  0  0  0  0
 63 74  1  0  0  0  0
 65 66  1  0  0  0  0
M  CHG  2  74   1  75   1
M  ISO  4  38 100  61 101  73 100  82 101
M  END
> <Batch ID>
0025

> <Smiles>
CNC(C)C(=O)NC(C(=O)N1Cc2cc([101O:1][101CH2:1]CCNCc3cc(C[100NH:0][100C:0](=O)N4CCCC(n5nc(-c6ccc(Oc7ccc(F)cc7F)cc6)c(C(N)=O)c5N)C4)c(Cl)c(Cl)c3C)ccc2CC1C(=O)NC1CCCc2ccccc21)C(C)(C)C

> <Shape>
0.214

> <Color>
0.058

> <Negative vol penalty>
0.000

$$$$

  -OEChem-04052316243D

 97106  0     1  0  0  0  0  0999 V2000
  -30.8695  -22.9128   19.2372 C   0  0  0  0  0  0  0  0  0  0  0  0
  -30.0398  -22.7024   20.3339 C   0  0  0  0  0  0  0  0  0  0  0  0
  -23.1863   -9.7328   20.0129 C   0  0  0  0  0  0  0  0  0  0  0  0
  -23.8019   -9.9679   22.3373 C   0  0  0  0  0  0  0  0  0  0  0  0
  -31.0448  -24.2012   18.7341 C   0  0  0  0  0  0  0  0  0  0  0  0
  -29.3857  -23.7806   20.9289 C   0  0  0  0  0  0  0  0  0  0  0  0
  -24.5254  -22.7843   21.9440 C   0  0  0  0  0  0  0  0  0  0  0  0
  -22.4678   -8.5774   20.3201 C   0  0  0  0  0  0  0  0  0  0  0  0
  -23.0833   -8.8125   22.6445 C   0  0  0  0  0  0  0  0  0  0  0  0
  -24.2564  -22.0086   23.0708 C   0  0  0  0  0  0  0  0  0  0  0  0
  -19.8528   -7.9443   23.1246 C   0  0  0  0  0  0  0  0  0  0  0  0
  -19.0266   -7.9763   24.2479 C   0  0  0  0  0  0  0  0  0  0  0  0
  -30.0768  -18.8166   23.7829 C   0  0  0  0  0  0  0  0  0  0  0  0
  -23.7220  -24.0072   24.3116 C   0  0  0  0  0  0  0  0  0  0  0  0
  -31.7665  -16.9941   22.5155 C   0  0  0  0  0  0  0  0  0  0  0  0
  -20.2847   -6.1598   25.2251 C   0  0  0  0  0  0  0  0  0  0  0  0
  -23.8535  -10.4280   21.0215 C   0  0  0  0  0  0  0  0  0  0  0  0
  -31.4535  -18.8754   23.9987 C   0  0  0  0  0  0  0  0  0  0  0  0
  -24.1166  -12.9447   20.6981 C   0  0  0  0  0  0  0  0  0  0  0  0
  -30.3849  -25.2945   19.3172 C   0  0  0  0  0  0  0  0  0  0  0  0
  -24.4051  -24.1805   21.9957 C   0  0  0  0  0  0  0  0  0  0  0  0
  -29.5533  -25.0851   20.4339 C   0  0  0  0  0  0  0  0  0  0  0  0
  -23.9876  -24.7981   23.1833 C   0  0  0  0  0  0  0  0  0  0  0  0
  -30.3897  -16.9352   22.2997 C   0  0  0  0  0  0  0  0  0  0  0  0
  -22.4162   -8.1173   21.6358 C   0  0  0  0  0  0  0  0  0  0  0  0
  -23.8574  -22.6202   24.2556 C   0  0  0  0  0  0  0  0  0  0  0  0
  -20.8950   -7.0200   23.0515 C   0  0  0  0  0  0  0  0  0  0  0  0
  -19.2425   -7.0841   25.2982 C   0  0  0  0  0  0  0  0  0  0  0  0
  -21.1109   -6.1278   24.1018 C   0  0  0  0  0  0  0  0  0  0  0  0
  -29.5448  -17.8464   22.9334 C   0  0  0  0  0  0  0  0  0  0  0  0
  -32.2984  -17.9643   23.3650 C   0  0  0  0  0  0  0  0  0  0  0  0
  -24.5964  -11.6213   20.7047 C   0  0  0  0  0  0  0  0  0  0  0  0
  -25.2032  -13.7021   20.3346 C   0  0  0  0  0  0  0  0  0  0  0  0
  -31.9738  -19.9257   24.9117 C   0  0  0  0  0  0  0  0  0  0  0  0
  -22.8059  -13.4448   20.9942 C   0  0  0  0  0  0  0  0  0  0  0  0
  -26.4073  -26.6201   21.6168 C   0  0  0  0  0  0  0  0  0  0  0  0
  -23.6950  -28.3804   21.8756 C   0  0  0  0  0  0  0  0  0  0  0  0
  -20.4841  -28.6052   23.0100 C   0  0  0  0  0  0  0  0  0  0  0  0
  -30.6096  -14.9717   20.7368 C   0  0  0  0  0  0  0  0  0  0  0  0
  -30.6426  -26.6752   18.7678 C   0  0  0  0  0  0  0  0  0  0  0  0
  -24.6732  -25.0010   20.7639 C   0  0  0  0  0  0  0  0  0  0  0  0
  -23.8236  -26.2918   23.2851 C   0  0  0  0  0  0  0  0  0  0  0  0
  -29.6193  -27.7126   19.2228 C   0  0  0  0  0  0  0  0  0  0  0  0
  -29.7263  -12.3203   18.5307 C   0  0  0  0  0  0  0  0  0  0  0  0
  -29.3778  -27.6011   20.7248 C   0  0  0  0  0  0  0  0  0  0  0  0
  -29.5743  -21.8356   27.6989 C   0  0  0  0  0  0  0  0  0  0  0  0
  -30.4921  -19.9911   29.1623 C   0  0  0  0  0  0  0  0  0  0  0  0
  -28.2735  -12.0109   18.8991 C   0  0  0  0  0  0  0  0  0  0  0  0
  -30.9757  -22.1013   27.1478 C   0  0  0  0  0  0  0  0  0  0  0  0
  -31.8937  -20.2441   28.6046 C   0  0  0  0  0  0  0  0  0  0  0  0
  -30.5569  -12.6878   19.7590 C   0  0  0  0  0  0  0  0  0  0  0  0
  -28.5446  -13.4540   20.9561 C   0  0  0  0  0  0  0  0  0  0  0  0
  -28.8071  -26.2258   21.0913 C   0  0  1  0  0  0  0  0  0  0  0  0
  -25.0149  -26.4545   21.0768 C   0  0  1  0  0  0  0  0  0  0  0  0
  -29.6245  -21.2552   29.1177 C   0  0  0  0  0  0  0  0  0  0  0  0
  -27.6531  -13.1416   19.7431 C   0  0  2  0  0  0  0  0  0  0  0  0
  -31.8749  -20.8639   27.2044 C   0  0  0  0  0  0  0  0  0  0  0  0
  -18.5337  -30.1814   23.1035 C   0  0  0  0  0  0  0  0  0  0  0  0
  -25.0796  -29.9587   24.0895 C   0  0  0  0  0  0  0  0  0  0  0  0
  -22.8363  -30.8369   24.7709 C   0  0  0  0  0  0  0  0  0  0  0  0
  -23.7369  -31.3477   22.5014 C   0  0  0  0  0  0  0  0  0  0  0  0
  -25.3516  -23.4198   30.0894 C   0  0  0  0  0  0  0  0  0  0  0  0
  -26.0762  -21.5355   31.5843 C   0  0  0  0  0  0  0  0  0  0  0  0
  -18.7663  -26.7551   21.4656 C   0  0  0  0  0  0  0  0  0  0  0  0
  -28.2156  -20.9602   29.6292 C   0  0  0  0  0  0  0  0  0  0  0  0
  -25.2326  -21.3685   27.7491 C   0  0  0  0  0  0  0  0  0  0  0  0
  -24.4681  -20.2911   26.9699 C   0  0  0  0  0  0  0  0  0  0  0  0
  -25.3379  -21.0009   29.2355 C   0  0  0  0  0  0  0  0  0  0  0  0
  -24.3186  -20.6434   25.4948 C   0  0  0  0  0  0  0  0  0  1  0  0
  -22.9322  -29.0072   23.0176 C   0  0  1  0  0  0  0  0  0  0  0  0
  -19.2047  -29.0573   22.3295 C   0  0  2  0  0  0  0  0  0  0  0  0
  -23.6511  -30.2596   23.5938 C   0  0  0  0  0  0  0  0  0  0  0  0
  -26.0254  -22.0470   30.1396 C   0  0  0  0  0  0  0  0  0  0  0  0
  -25.8872  -11.5391   20.3717 N   0  0  0  0  0  0  0  0  0  0  0  0
  -26.2278  -12.8205   20.1523 N   0  0  0  0  0  0  0  0  0  0  0  0
  -24.1036  -27.0513   22.0554 N   0  0  0  0  0  0  0  0  0  0  0  0
  -29.9101  -13.7681   20.5071 N   0  0  0  0  0  0  0  0  0  0  0  0
  -25.3726  -15.0294   20.1562 N   0  0  0  0  0  0  0  0  0  0  0  0
  -21.8063  -12.5294   21.3508 N   0  0  0  0  0  0  0  0  0  0  0  0
  -29.8819  -15.9381   21.4304 N   0  0  0  0  0  0  0  0  0  0  0  0
  -31.4836  -19.8947   26.2064 N   0  0  0  0  0  0  0  0  0  0  0  0
  -27.3976  -26.1613   20.7693 N   0  0  0  0  0  0  0  0  0  0  0  0
  -21.5874  -29.2683   22.5157 N   0  0  0  0  0  0  0  0  0  0  0  0
  -18.2453  -27.9219   22.2234 N   0  3  0  0  0  0  0  0  0  0  0  0
  -27.4434  -22.2240   29.6888 N   0  3  0  0  0  0  0  0  0  0  0  0
  -32.7710  -20.7544   24.4804 O   0  0  0  0  0  0  0  0  0  0  0  0
  -22.5251  -14.6656   20.9281 O   0  0  0  0  0  0  0  0  0  0  0  0
  -26.5710  -27.1278   22.7200 O   0  0  0  0  0  0  0  0  0  0  0  0
  -23.9137  -29.0432   20.8585 O   0  0  0  0  0  0  0  0  0  0  0  0
  -20.5025  -27.7520   23.8945 O   0  0  0  0  0  0  0  0  0  0  0  0
  -31.7592  -15.1434   20.3232 O   0  0  0  0  0  0  0  0  0  0  0  0
  -21.7150   -6.9900   21.9360 O   0  0  0  0  0  0  0  0  0  0  0  0
  -23.5947  -21.8655   25.3571 O   0  0  0  0  0  0  0  0  0  1  0  0
  -18.4499   -7.1160   26.3775 F   0  0  0  0  0  0  0  0  0  0  0  0
  -22.1113   -5.2384   24.0378 F   0  0  0  0  0  0  0  0  0  0  0  0
  -27.8341  -17.8086   22.6937 Cl  0  0  0  0  0  0  0  0  0  0  0  0
  -34.0082  -18.0030   23.6062 Cl  0  0  0  0  0  0  0  0  0  0  0  0
  1  2  1  0  0  0  0
  1  5  2  0  0  0  0
  2  6  2  0  0  0  0
  3  8  2  0  0  0  0
  3 17  1  0  0  0  0
  4  9  1  0  0  0  0
  4 17  2  0  0  0  0
  5 20  1  0  0  0  0
  6 22  1  0  0  0  0
  7 10  2  0  0  0  0
  7 21  1  0  0  0  0
  8 25  1  0  0  0  0
  9 25  2  0  0  0  0
 10 26  1  0  0  0  0
 11 12  2  0  0  0  0
 11 27  1  0  0  0  0
 12 28  1  0  0  0  0
 13 18  1  0  0  0  0
 13 30  2  0  0  0  0
 14 23  1  0  0  0  0
 14 26  2  0  0  0  0
 15 24  2  0  0  0  0
 15 31  1  0  0  0  0
 16 28  2  0  0  0  0
 16 29  1  0  0  0  0
 17 32  1  0  0  0  0
 18 31  2  0  0  0  0
 18 34  1  0  0  0  0
 19 32  1  0  0  0  0
 19 33  2  0  0  0  0
 19 35  1  0  0  0  0
 20 22  2  0  0  0  0
 20 40  1  0  0  0  0
 21 23  2  0  0  0  0
 21 41  1  0  0  0  0
 22 53  1  0  0  0  0
 23 42  1  0  0  0  0
 24 30  1  0  0  0  0
 24 80  1  0  0  0  0
 25 92  1  0  0  0  0
 26 93  1  0  0  0  0
 27 29  2  0  0  0  0
 27 92  1  0  0  0  0
 28 94  1  0  0  0  0
 29 95  1  0  0  0  0
 30 96  1  0  0  0  0
 31 97  1  0  0  0  0
 32 74  2  0  0  0  0
 33 75  1  0  0  0  0
 33 78  1  0  0  0  0
 34 81  1  0  0  0  0
 34 86  2  0  0  0  0
 35 79  1  0  0  0  0
 35 87  2  0  0  0  0
 36 54  1  0  0  0  0
 36 82  1  0  0  0  0
 36 88  2  0  0  0  0
 37 70  1  0  0  0  0
 37 76  1  0  0  0  0
 37 89  2  0  0  0  0
 38 71  1  0  0  0  0
 38 83  1  0  0  0  0
 38 90  2  0  0  0  0
 39 77  1  0  0  0  0
 39 80  1  0  0  0  0
 39 91  2  0  0  0  0
 40 43  1  0  0  0  0
 41 54  1  0  0  0  0
 42 76  1  0  0  0  0
 43 45  1  0  0  0  0
 44 48  1  0  0  0  0
 44 51  1  0  0  0  0
 45 53  1  0  0  0  0
 46 49  1  0  0  0  0
 46 55  1  0  0  0  0
 47 50  1  0  0  0  0
 47 55  1  0  0  0  0
 48 56  1  0  0  0  0
 49 57  1  0  0  0  0
 50 57  1  0  0  0  0
 51 77  1  0  0  0  0
 52 56  1  0  0  0  0
 52 77  1  0  0  0  0
 53 82  1  0  0  0  0
 54 76  1  0  0  0  0
 55 65  1  0  0  0  0
 56 75  1  0  0  0  0
 57 81  1  0  0  0  0
 58 71  1  0  0  0  0
 59 72  1  0  0  0  0
 60 72  1  0  0  0  0
 61 72  1  0  0  0  0
 62 73  1  0  0  0  0
 63 73  1  0  0  0  0
 64 84  1  0  0  0  0
 65 85  1  0  0  0  0
 66 67  1  0  0  0  0
 66 68  1  0  0  0  0
 67 69  1  0  0  0  0
 68 73  1  0  0  0  0
 69 93  1  0  0  0  0
 70 72  1  0  0  0  0
 70 83  1  0  0  0  0
 71 84  1  0  0  0  0
 73 85  1  0  0  0  0
 74 75  1  0  0  0  0
M  CHG  2  84   1  85   1
M  ISO  4  39 100  69 101  80 100  93 101
M  END
> <Batch ID>
0025

> <Smiles>
CNC(C)C(=O)NC(C(=O)N1Cc2cc([101O:1][101CH2:1]CCCC(C)(C)NCC3CCC(NC(=O)c4cc(Cl)c([100NH:0][100C:0](=O)N5CCCC(n6nc(-c7ccc(Oc8ccc(F)cc8F)cc7)c(C(N)=O)c6N)C5)cc4Cl)CC3)ccc2CC1C(=O)NC1CCCc2ccccc21)C(C)(C)C

> <Shape>
0.305

> <Color>
0.190

> <Negative vol penalty>
0.000

$$$$

  -OEChem-04052316243D

 93101  0     1  0  0  0  0  0999 V2000
  -11.9223  -25.6427   22.3664 C   0  0  0  0  0  0  0  0  0  0  0  0
  -13.1129  -26.0682   21.7859 C   0  0  0  0  0  0  0  0  0  0  0  0
  -23.1008   -9.7627   19.9415 C   0  0  0  0  0  0  0  0  0  0  0  0
  -23.8147   -9.8472   22.2481 C   0  0  0  0  0  0  0  0  0  0  0  0
  -11.1487  -26.5379   23.1039 C   0  0  0  0  0  0  0  0  0  0  0  0
  -13.5299  -27.3897   21.9417 C   0  0  0  0  0  0  0  0  0  0  0  0
  -18.4520  -27.7524   23.0762 C   0  0  0  0  0  0  0  0  0  0  0  0
  -22.3716   -8.6043   20.2096 C   0  0  0  0  0  0  0  0  0  0  0  0
  -23.0855   -8.6888   22.5162 C   0  0  0  0  0  0  0  0  0  0  0  0
  -19.3598  -27.5969   22.0295 C   0  0  0  0  0  0  0  0  0  0  0  0
  -23.4432   -5.3580   22.0592 C   0  0  0  0  0  0  0  0  0  0  0  0
  -24.0614   -4.3641   22.8178 C   0  0  0  0  0  0  0  0  0  0  0  0
  -19.5953  -29.9934   21.8858 C   0  0  0  0  0  0  0  0  0  0  0  0
  -28.3969  -23.8173   17.2591 C   0  0  0  0  0  0  0  0  0  0  0  0
  -22.3237   -4.5560   24.4853 C   0  0  0  0  0  0  0  0  0  0  0  0
  -23.8224  -10.3841   20.9607 C   0  0  0  0  0  0  0  0  0  0  0  0
  -24.1241  -12.9105   20.7757 C   0  0  0  0  0  0  0  0  0  0  0  0
  -11.5614  -27.8685   23.2770 C   0  0  0  0  0  0  0  0  0  0  0  0
  -18.1002  -29.0321   23.5290 C   0  0  0  0  0  0  0  0  0  0  0  0
  -12.7604  -28.3039   22.6812 C   0  0  0  0  0  0  0  0  0  0  0  0
  -18.6848  -30.1623   22.9401 C   0  0  0  0  0  0  0  0  0  0  0  0
  -28.2105  -24.5085   18.4562 C   0  0  0  0  0  0  0  0  0  0  0  0
  -29.7551  -22.1857   18.4126 C   0  0  0  0  0  0  0  0  0  0  0  0
  -22.3639   -8.0673   21.4969 C   0  0  0  0  0  0  0  0  0  0  0  0
  -19.9294  -28.7176   21.4323 C   0  0  0  0  0  0  0  0  0  0  0  0
  -22.2652   -5.9510   22.5137 C   0  0  0  0  0  0  0  0  0  0  0  0
  -23.5017   -3.9631   24.0309 C   0  0  0  0  0  0  0  0  0  0  0  0
  -21.7055   -5.5500   23.7267 C   0  0  0  0  0  0  0  0  0  0  0  0
  -29.1692  -22.6558   17.2373 C   0  0  0  0  0  0  0  0  0  0  0  0
  -28.7964  -24.0384   19.6315 C   0  0  0  0  0  0  0  0  0  0  0  0
  -29.5687  -22.8770   19.6097 C   0  0  0  0  0  0  0  0  0  0  0  0
  -24.5764  -11.5805   20.6842 C   0  0  0  0  0  0  0  0  0  0  0  0
  -25.2105  -13.6683   20.4125 C   0  0  0  0  0  0  0  0  0  0  0  0
  -22.8371  -13.4157   21.1550 C   0  0  0  0  0  0  0  0  0  0  0  0
  -15.3965  -30.6979   23.6673 C   0  0  0  0  0  0  0  0  0  0  0  0
  -17.2432  -32.8201   25.2824 C   0  0  0  0  0  0  0  0  0  0  0  0
  -30.6916  -14.7240   20.7775 C   0  0  0  0  0  0  0  0  0  0  0  0
  -20.3635  -34.0428   25.9270 C   0  0  0  0  0  0  0  0  0  0  0  0
  -10.6680  -28.8117   24.0431 C   0  0  0  0  0  0  0  0  0  0  0  0
  -17.1397  -29.1820   24.6769 C   0  0  0  0  0  0  0  0  0  0  0  0
  -18.3559  -31.5574   23.4029 C   0  0  0  0  0  0  0  0  0  0  0  0
  -11.3680  -30.0977   24.4751 C   0  0  0  0  0  0  0  0  0  0  0  0
  -29.6153  -12.3385   18.3299 C   0  0  0  0  0  0  0  0  0  0  0  0
  -12.1627  -30.6886   23.3149 C   0  0  0  0  0  0  0  0  0  0  0  0
  -28.1819  -12.0154   18.7495 C   0  0  0  0  0  0  0  0  0  0  0  0
  -30.5083  -12.5907   19.5407 C   0  0  0  0  0  0  0  0  0  0  0  0
  -28.5654  -13.3312   20.8818 C   0  0  0  0  0  0  0  0  0  0  0  0
  -13.2588  -29.7229   22.8485 C   0  0  1  0  0  0  0  0  0  0  0  0
  -16.4630  -30.5487   24.7152 C   0  0  1  0  0  0  0  0  0  0  0  0
  -27.6228  -13.0998   19.6875 C   0  0  2  0  0  0  0  0  0  0  0  0
  -30.3428  -15.4544   23.1382 C   0  0  0  0  0  0  0  0  0  0  0  0
  -21.5520  -35.8039   27.2625 C   0  0  0  0  0  0  0  0  0  0  0  0
  -16.3128  -34.9465   23.3019 C   0  0  0  0  0  0  0  0  0  0  0  0
  -18.2071  -36.3918   24.0708 C   0  0  0  0  0  0  0  0  0  0  0  0
  -16.4254  -35.7135   25.6796 C   0  0  0  0  0  0  0  0  0  0  0  0
  -31.9598  -21.0809   18.1319 C   0  0  0  0  0  0  0  0  0  0  0  0
  -21.9191  -32.0204   27.4267 C   0  0  0  0  0  0  0  0  0  0  0  0
  -27.3727  -25.7528   18.4265 C   0  0  0  0  0  0  0  0  0  0  0  0
  -23.8484  -26.4582   19.7002 C   0  0  0  0  0  0  0  0  0  0  0  0
  -22.9377  -27.6834   19.7248 C   0  0  0  0  0  0  0  0  0  0  0  0
  -30.5328  -19.0338   19.8373 C   0  0  0  0  0  0  0  0  0  0  0  0
  -29.9215  -19.7178   18.6173 C   0  0  0  0  0  0  0  0  0  0  0  0
  -25.1865  -26.7849   19.0541 C   0  0  0  0  0  0  0  0  0  0  0  0
  -29.9060  -17.6724   20.1113 C   0  0  0  0  0  0  0  0  0  0  0  0
  -21.6105  -27.3838   20.4071 C   0  0  0  0  0  0  0  0  0  1  0  0
  -18.1074  -33.9961   24.8963 C   0  0  1  0  0  0  0  0  0  0  0  0
  -30.0283  -15.7331   21.6807 C   0  0  1  0  0  0  0  0  0  0  0  0
  -21.0707  -34.3616   27.2319 C   0  0  2  0  0  0  0  0  0  0  0  0
  -17.2681  -35.2359   24.4769 C   0  0  0  0  0  0  0  0  0  0  0  0
  -25.8508  -11.4949   20.2935 N   0  0  0  0  0  0  0  0  0  0  0  0
  -26.2085  -12.7807   20.1361 N   0  0  0  0  0  0  0  0  0  0  0  0
  -17.4066  -31.6521   24.5242 N   0  0  0  0  0  0  0  0  0  0  0  0
  -29.9315  -13.6108   20.4182 N   0  0  0  0  0  0  0  0  0  0  0  0
  -25.4000  -15.0007   20.3058 N   0  0  0  0  0  0  0  0  0  0  0  0
  -21.8340  -12.4990   21.4982 N   0  0  0  0  0  0  0  0  0  0  0  0
  -14.3852  -29.7605   23.7564 N   0  0  0  0  0  0  0  0  0  0  0  0
  -19.0014  -34.2336   26.0245 N   0  0  0  0  0  0  0  0  0  0  0  0
  -30.5377  -21.0050   18.3829 N   0  0  3  0  0  0  0  0  0  0  0  0
  -22.2500  -33.4686   27.4135 N   0  3  0  0  0  0  0  0  0  0  0  0
  -26.0179  -25.5578   19.0117 N   0  3  0  0  0  0  0  0  0  0  0  0
  -30.5169  -17.0956   21.3339 N   0  3  0  0  0  0  0  0  0  0  0  0
  -22.5791  -14.6432   21.1728 O   0  0  0  0  0  0  0  0  0  0  0  0
  -15.4839  -31.5979   22.8402 O   0  0  0  0  0  0  0  0  0  0  0  0
  -16.4574  -32.9313   26.2268 O   0  0  0  0  0  0  0  0  0  0  0  0
  -31.8497  -14.9224   20.4013 O   0  0  0  0  0  0  0  0  0  0  0  0
  -20.9601  -33.6661   24.9207 O   0  0  0  0  0  0  0  0  0  0  0  0
  -21.6522   -6.9371   21.7590 O   0  0  0  0  0  0  0  0  0  0  0  0
  -20.8153  -28.5687   20.4100 O   0  0  0  0  0  0  0  0  0  1  0  0
  -24.0946   -3.0075   24.7585 F   0  0  0  0  0  0  0  0  0  0  0  0
  -20.5734   -6.1151   24.1679 F   0  0  0  0  0  0  0  0  0  0  0  0
  -29.3692  -21.8338   15.7300 Cl  0  0  0  0  0  0  0  0  0  0  0  0
  -28.5465  -24.9251   21.1032 Cl  0  0  0  0  0  0  0  0  0  0  0  0
  -30.3083  -22.2744   21.0638 Cl  0  0  0  0  0  0  0  0  0  0  0  0
  1  2  1  0  0  0  0
  1  5  2  0  0  0  0
  2  6  2  0  0  0  0
  3  8  2  0  0  0  0
  3 16  1  0  0  0  0
  4  9  1  0  0  0  0
  4 16  2  0  0  0  0
  5 18  1  0  0  0  0
  6 20  1  0  0  0  0
  7 10  2  0  0  0  0
  7 19  1  0  0  0  0
  8 24  1  0  0  0  0
  9 24  2  0  0  0  0
 10 25  1  0  0  0  0
 11 12  2  0  0  0  0
 11 26  1  0  0  0  0
 12 27  1  0  0  0  0
 13 21  1  0  0  0  0
 13 25  2  0  0  0  0
 14 22  1  0  0  0  0
 14 29  2  0  0  0  0
 15 27  2  0  0  0  0
 15 28  1  0  0  0  0
 16 32  1  0  0  0  0
 17 32  1  0  0  0  0
 17 33  2  0  0  0  0
 17 34  1  0  0  0  0
 18 20  2  0  0  0  0
 18 39  1  0  0  0  0
 19 21  2  0  0  0  0
 19 40  1  0  0  0  0
 20 48  1  0  0  0  0
 21 41  1  0  0  0  0
 22 30  2  0  0  0  0
 22 58  1  0  0  0  0
 23 29  1  0  0  0  0
 23 31  2  0  0  0  0
 23 78  1  0  0  0  0
 24 87  1  0  0  0  0
 25 88  1  0  0  0  0
 26 28  2  0  0  0  0
 26 87  1  0  0  0  0
 27 89  1  0  0  0  0
 28 90  1  0  0  0  0
 29 91  1  0  0  0  0
 30 31  1  0  0  0  0
 30 92  1  0  0  0  0
 31 93  1  0  0  0  0
 32 70  2  0  0  0  0
 33 71  1  0  0  0  0
 33 74  1  0  0  0  0
 34 75  1  0  0  0  0
 34 82  2  0  0  0  0
 35 49  1  0  0  0  0
 35 76  1  0  0  0  0
 35 83  2  0  0  0  0
 36 66  1  0  0  0  0
 36 72  1  0  0  0  0
 36 84  2  0  0  0  0
 37 67  1  0  0  0  0
 37 73  1  0  0  0  0
 37 85  2  0  0  0  0
 38 68  1  0  0  0  0
 38 77  1  0  0  0  0
 38 86  2  0  0  0  0
 39 42  1  0  0  0  0
 40 49  1  0  0  0  0
 41 72  1  0  0  0  0
 42 44  1  0  0  0  0
 43 45  1  0  0  0  0
 43 46  1  0  0  0  0
 44 48  1  0  0  0  0
 45 50  1  0  0  0  0
 46 73  1  0  0  0  0
 47 50  1  0  0  0  0
 47 73  1  0  0  0  0
 48 76  1  0  0  0  0
 49 72  1  0  0  0  0
 50 71  1  0  0  0  0
 51 67  1  0  0  0  0
 52 68  1  0  0  0  0
 53 69  1  0  0  0  0
 54 69  1  0  0  0  0
 55 69  1  0  0  0  0
 56 78  1  0  0  0  0
 57 79  1  0  0  0  0
 58 80  1  0  0  0  0
 59 60  1  0  0  0  0
 59 63  1  0  0  0  0
 60 65  1  0  0  0  0
 61 62  1  0  0  0  0
 61 64  1  0  0  0  0
 62 78  1  0  0  0  0
 63 80  1  0  0  0  0
 64 81  1  0  0  0  0
 65 88  1  0  0  0  0
 66 69  1  0  0  0  0
 66 77  1  0  0  0  0
 67 81  1  0  0  0  0
 68 79  1  0  0  0  0
 70 71  1  0  0  0  0
M  CHG  3  79   1  80   1  81   1
M  ISO  4  37 100  65 101  67 100  88 101
M  END
> <Batch ID>
0025

> <Smiles>
CNC(C)C(=O)NC(C(=O)N1Cc2cc([101O:1][101CH2:1]CCCNCc3cc(Cl)c(N(C)CCCN[100CH:0](C)[100C:0](=O)N4CCCC(n5nc(-c6ccc(Oc7ccc(F)cc7F)cc6)c(C(N)=O)c5N)C4)c(Cl)c3Cl)ccc2CC1C(=O)NC1CCCc2ccccc21)C(C)(C)C

> <Shape>
0.297

> <Color>
0.203

> <Negative vol penalty>
0.000

$$$$

  -OEChem-04052316243D

 90 98  0     1  0  0  0  0  0999 V2000
  -22.3136  -35.1298   17.2731 C   0  0  0  0  0  0  0  0  0  0  0  0
  -21.5126  -34.0012   17.4146 C   0  0  0  0  0  0  0  0  0  0  0  0
  -23.1933  -10.0815   21.8751 C   0  0  0  0  0  0  0  0  0  0  0  0
  -23.9232  -11.3693   23.7845 C   0  0  0  0  0  0  0  0  0  0  0  0
  -23.5611  -35.1800   17.8935 C   0  0  0  0  0  0  0  0  0  0  0  0
  -21.9592  -32.9216   18.1759 C   0  0  0  0  0  0  0  0  0  0  0  0
  -19.5234  -27.7317   22.4709 C   0  0  0  0  0  0  0  0  0  0  0  0
  -22.4697   -9.2395   22.7195 C   0  0  0  0  0  0  0  0  0  0  0  0
  -23.1996  -10.5273   24.6289 C   0  0  0  0  0  0  0  0  0  0  0  0
  -19.5868  -26.3482   22.6315 C   0  0  0  0  0  0  0  0  0  0  0  0
  -23.1050   -6.6455   24.7911 C   0  0  0  0  0  0  0  0  0  0  0  0
  -23.2048   -5.2711   24.5755 C   0  0  0  0  0  0  0  0  0  0  0  0
  -21.7258  -26.5789   23.7227 C   0  0  0  0  0  0  0  0  0  0  0  0
  -26.2536  -16.7115   22.6627 C   0  0  0  0  0  0  0  0  0  0  0  0
  -20.8221   -5.1584   24.1915 C   0  0  0  0  0  0  0  0  0  0  0  0
  -23.9201  -11.1463   22.4075 C   0  0  0  0  0  0  0  0  0  0  0  0
  -24.2124  -13.1947   20.9154 C   0  0  0  0  0  0  0  0  0  0  0  0
  -24.0192  -34.1045   18.6708 C   0  0  0  0  0  0  0  0  0  0  0  0
  -20.5676  -28.5496   22.9260 C   0  0  0  0  0  0  0  0  0  0  0  0
  -23.2146  -32.9570   18.8063 C   0  0  0  0  0  0  0  0  0  0  0  0
  -21.6721  -27.9727   23.5689 C   0  0  0  0  0  0  0  0  0  0  0  0
  -25.9384  -17.6934   21.7235 C   0  0  0  0  0  0  0  0  0  0  0  0
  -26.8943  -18.1011   20.7931 C   0  0  0  0  0  0  0  0  0  0  0  0
  -28.4807  -16.5449   21.7411 C   0  0  0  0  0  0  0  0  0  0  0  0
  -22.4728   -9.4624   24.0964 C   0  0  0  0  0  0  0  0  0  0  0  0
  -20.6894  -25.7714   23.2549 C   0  0  0  0  0  0  0  0  0  0  0  0
  -21.8638   -7.2764   24.7071 C   0  0  0  0  0  0  0  0  0  0  0  0
  -22.0633   -4.5275   24.2756 C   0  0  0  0  0  0  0  0  0  0  0  0
  -20.7224   -6.5329   24.4072 C   0  0  0  0  0  0  0  0  0  0  0  0
  -27.5248  -16.1373   22.6715 C   0  0  0  0  0  0  0  0  0  0  0  0
  -28.1654  -17.5268   20.8018 C   0  0  0  0  0  0  0  0  0  0  0  0
  -24.6683  -12.0161   21.5358 C   0  0  0  0  0  0  0  0  0  0  0  0
  -25.2938  -13.6458   20.1988 C   0  0  0  0  0  0  0  0  0  0  0  0
  -22.9265  -13.8254   20.9811 C   0  0  0  0  0  0  0  0  0  0  0  0
  -22.6162  -30.5489   21.5441 C   0  0  0  0  0  0  0  0  0  0  0  0
  -23.4549  -31.1920   24.6109 C   0  0  0  0  0  0  0  0  0  0  0  0
  -23.5803  -30.1524   27.8590 C   0  0  0  0  0  0  0  0  0  0  0  0
  -31.1995  -12.8685   20.8065 C   0  0  0  0  0  0  0  0  0  0  0  0
  -25.3949  -34.1856   19.2834 C   0  0  0  0  0  0  0  0  0  0  0  0
  -20.4717  -30.0424   22.7691 C   0  0  0  0  0  0  0  0  0  0  0  0
  -22.8100  -28.8084   24.0935 C   0  0  0  0  0  0  0  0  0  0  0  0
  -25.6350  -33.1517   20.3806 C   0  0  0  0  0  0  0  0  0  0  0  0
  -29.2181  -12.0769   17.9562 C   0  0  0  0  0  0  0  0  0  0  0  0
  -25.1603  -31.7742   19.9291 C   0  0  0  0  0  0  0  0  0  0  0  0
  -27.7862  -12.0779   18.4944 C   0  0  0  0  0  0  0  0  0  0  0  0
  -30.2056  -11.5218   18.9803 C   0  0  0  0  0  0  0  0  0  0  0  0
  -28.7269  -12.1748   20.8406 C   0  0  0  0  0  0  0  0  0  0  0  0
  -23.6536  -31.7758   19.6443 C   0  0  1  0  0  0  0  0  0  0  0  0
  -21.8298  -30.7361   22.8107 C   0  0  1  0  0  0  0  0  0  0  0  0
  -27.7026  -12.7779   19.8642 C   0  0  2  0  0  0  0  0  0  0  0  0
  -26.5330  -19.1568   19.7943 C   0  0  0  0  0  0  0  0  0  0  0  0
  -24.3567  -30.8802   30.1317 C   0  0  0  0  0  0  0  0  0  0  0  0
  -26.3378  -30.5831   23.8184 C   0  0  0  0  0  0  0  0  0  0  0  0
  -26.8931  -30.3923   26.2522 C   0  0  0  0  0  0  0  0  0  0  0  0
  -26.0660  -32.5573   25.3295 C   0  0  0  0  0  0  0  0  0  0  0  0
  -20.8355  -30.0410   28.9601 C   0  0  0  0  0  0  0  0  0  0  0  0
  -24.5634  -18.2936   21.7374 C   0  0  0  0  0  0  0  0  0  0  0  0
  -23.3112  -21.7182   22.8531 C   0  0  0  0  0  0  0  0  0  0  0  0
  -21.9496  -22.4082   22.8867 C   0  0  0  0  0  0  0  0  0  0  0  0
  -32.1337  -15.6952   22.2811 C   0  0  0  0  0  0  0  0  0  0  0  0
  -30.8502  -16.4894   22.5209 C   0  0  0  0  0  0  0  0  0  0  0  0
  -32.0460  -14.2296   22.7012 C   0  0  0  0  0  0  0  0  0  0  0  0
  -23.1984  -20.3145   22.2771 C   0  0  0  0  0  0  0  0  0  0  0  0
  -22.0527  -23.8298   23.4208 C   0  0  0  0  0  0  0  0  0  1  0  0
  -24.4570  -30.6242   25.5868 C   0  0  1  0  0  0  0  0  0  0  0  0
  -23.1927  -30.8439   29.1537 C   0  0  2  0  0  0  0  0  0  0  0  0
  -25.9181  -31.0230   25.2352 C   0  0  0  0  0  0  0  0  0  0  0  0
  -25.9401  -11.7359   21.2392 N   0  0  0  0  0  0  0  0  0  0  0  0
  -26.2926  -12.7449   20.4245 N   0  0  0  0  0  0  0  0  0  0  0  0
  -22.6728  -30.2627   23.9105 N   0  0  0  0  0  0  0  0  0  0  0  0
  -30.0761  -12.2294   20.2564 N   0  0  0  0  0  0  0  0  0  0  0  0
  -25.4782  -14.7213   19.4039 N   0  0  0  0  0  0  0  0  0  0  0  0
  -21.9289  -13.2286   21.7640 N   0  0  0  0  0  0  0  0  0  0  0  0
  -29.7704  -15.9591   21.7535 N   0  0  0  0  0  0  0  0  0  0  0  0
  -22.9052  -31.7269   20.8820 N   0  0  0  0  0  0  0  0  0  0  0  0
  -24.0234  -31.0518   26.9124 N   0  0  0  0  0  0  0  0  0  0  0  0
  -30.9886  -13.5213   22.0148 N   0  0  0  0  0  0  0  0  0  0  0  0
  -22.0562  -30.1304   29.8019 N   0  3  0  0  0  0  0  0  0  0  0  0
  -24.5330  -19.6690   22.3061 N   0  3  0  0  0  0  0  0  0  0  0  0
  -22.6647  -14.8778   20.3507 O   0  0  0  0  0  0  0  0  0  0  0  0
  -22.9383  -29.4195   21.1942 O   0  0  0  0  0  0  0  0  0  0  0  0
  -23.3642  -32.4153   24.4803 O   0  0  0  0  0  0  0  0  0  0  0  0
  -23.5018  -28.9357   27.7043 O   0  0  0  0  0  0  0  0  0  0  0  0
  -32.3071  -12.8625   20.2585 O   0  0  0  0  0  0  0  0  0  0  0  0
  -21.7666   -8.6412   24.9207 O   0  0  0  0  0  0  0  0  0  0  0  0
  -20.7541  -24.4212   23.4124 O   0  0  0  0  0  0  0  0  0  1  0  0
  -22.1595   -3.2079   24.0670 F   0  0  0  0  0  0  0  0  0  0  0  0
  -19.5274   -7.1337   24.3239 F   0  0  0  0  0  0  0  0  0  0  0  0
  -27.8677  -14.9247   23.8545 Cl  0  0  0  0  0  0  0  0  0  0  0  0
  -29.3492  -18.0390   19.6414 Cl  0  0  0  0  0  0  0  0  0  0  0  0
  1  2  1  0  0  0  0
  1  5  2  0  0  0  0
  2  6  2  0  0  0  0
  3  8  2  0  0  0  0
  3 16  1  0  0  0  0
  4  9  1  0  0  0  0
  4 16  2  0  0  0  0
  5 18  1  0  0  0  0
  6 20  1  0  0  0  0
  7 10  2  0  0  0  0
  7 19  1  0  0  0  0
  8 25  1  0  0  0  0
  9 25  2  0  0  0  0
 10 26  1  0  0  0  0
 11 12  2  0  0  0  0
 11 27  1  0  0  0  0
 12 28  1  0  0  0  0
 13 21  1  0  0  0  0
 13 26  2  0  0  0  0
 14 22  1  0  0  0  0
 14 30  2  0  0  0  0
 15 28  2  0  0  0  0
 15 29  1  0  0  0  0
 16 32  1  0  0  0  0
 17 32  1  0  0  0  0
 17 33  2  0  0  0  0
 17 34  1  0  0  0  0
 18 20  2  0  0  0  0
 18 39  1  0  0  0  0
 19 21  2  0  0  0  0
 19 40  1  0  0  0  0
 20 48  1  0  0  0  0
 21 41  1  0  0  0  0
 22 23  2  0  0  0  0
 22 57  1  0  0  0  0
 23 31  1  0  0  0  0
 23 51  1  0  0  0  0
 24 30  1  0  0  0  0
 24 31  2  0  0  0  0
 24 74  1  0  0  0  0
 25 85  1  0  0  0  0
 26 86  1  0  0  0  0
 27 29  2  0  0  0  0
 27 85  1  0  0  0  0
 28 87  1  0  0  0  0
 29 88  1  0  0  0  0
 30 89  1  0  0  0  0
 31 90  1  0  0  0  0
 32 68  2  0  0  0  0
 33 69  1  0  0  0  0
 33 72  1  0  0  0  0
 34 73  1  0  0  0  0
 34 80  2  0  0  0  0
 35 49  1  0  0  0  0
 35 75  1  0  0  0  0
 35 81  2  0  0  0  0
 36 65  1  0  0  0  0
 36 70  1  0  0  0  0
 36 82  2  0  0  0  0
 37 66  1  0  0  0  0
 37 76  1  0  0  0  0
 37 83  2  0  0  0  0
 38 71  1  0  0  0  0
 38 77  1  0  0  0  0
 38 84  2  0  0  0  0
 39 42  1  0  0  0  0
 40 49  1  0  0  0  0
 41 70  1  0  0  0  0
 42 44  1  0  0  0  0
 43 45  1  0  0  0  0
 43 46  1  0  0  0  0
 44 48  1  0  0  0  0
 45 50  1  0  0  0  0
 46 71  1  0  0  0  0
 47 50  1  0  0  0  0
 47 71  1  0  0  0  0
 48 75  1  0  0  0  0
 49 70  1  0  0  0  0
 50 69  1  0  0  0  0
 52 66  1  0  0  0  0
 53 67  1  0  0  0  0
 54 67  1  0  0  0  0
 55 67  1  0  0  0  0
 56 78  1  0  0  0  0
 57 79  1  0  0  0  0
 58 59  1  0  0  0  0
 58 63  1  0  0  0  0
 59 64  1  0  0  0  0
 60 61  1  0  0  0  0
 60 62  1  0  0  0  0
 61 74  1  0  0  0  0
 62 77  1  0  0  0  0
 63 79  1  0  0  0  0
 64 86  1  0  0  0  0
 65 67  1  0  0  0  0
 65 76  1  0  0  0  0
 66 78  1  0  0  0  0
 68 69  1  0  0  0  0
M  CHG  2  78   1  79   1
M  ISO  4  38 100  64 101  77 100  86 101
M  END
> <Batch ID>
0025

> <Smiles>
CNC(C)C(=O)NC(C(=O)N1Cc2cc([101O:1][101CH2:1]CCCNCc3cc(Cl)c(NCCC[100NH:0][100C:0](=O)N4CCCC(n5nc(-c6ccc(Oc7ccc(F)cc7F)cc6)c(C(N)=O)c5N)C4)c(Cl)c3C)ccc2CC1C(=O)NC1CCCc2ccccc21)C(C)(C)C

> <Shape>
0.278

> <Color>
0.121

> <Negative vol penalty>
0.000

$$$$

  -OEChem-04052316243D

 95103  0     1  0  0  0  0  0999 V2000
  -25.4337  -31.9840   20.7306 C   0  0  0  0  0  0  0  0  0  0  0  0
  -26.3330  -31.2280   21.4756 C   0  0  0  0  0  0  0  0  0  0  0  0
  -23.0839   -9.7183   20.0288 C   0  0  0  0  0  0  0  0  0  0  0  0
  -23.6822   -9.9861   22.3542 C   0  0  0  0  0  0  0  0  0  0  0  0
  -24.1007  -31.5863   20.6366 C   0  0  0  0  0  0  0  0  0  0  0  0
  -25.8995  -30.0743   22.1280 C   0  0  0  0  0  0  0  0  0  0  0  0
  -29.0872  -26.1862   21.5230 C   0  0  0  0  0  0  0  0  0  0  0  0
  -22.3345   -8.5871   20.3519 C   0  0  0  0  0  0  0  0  0  0  0  0
  -22.9326   -8.8550   22.6773 C   0  0  0  0  0  0  0  0  0  0  0  0
  -30.2435  -26.1837   22.3021 C   0  0  0  0  0  0  0  0  0  0  0  0
  -23.2904   -5.4973   22.5075 C   0  0  0  0  0  0  0  0  0  0  0  0
  -23.8633   -4.5660   23.3735 C   0  0  0  0  0  0  0  0  0  0  0  0
  -29.2097  -24.6200   23.8204 C   0  0  0  0  0  0  0  0  0  0  0  0
  -31.2525  -19.2346   21.0869 C   0  0  0  0  0  0  0  0  0  0  0  0
  -22.0457   -4.8960   24.9307 C   0  0  0  0  0  0  0  0  0  0  0  0
  -23.7578  -10.4178   21.0300 C   0  0  0  0  0  0  0  0  0  0  0  0
  -24.0853  -12.9202   20.6583 C   0  0  0  0  0  0  0  0  0  0  0  0
  -23.6528  -30.4220   21.2802 C   0  0  0  0  0  0  0  0  0  0  0  0
  -27.9777  -25.4128   21.8934 C   0  0  0  0  0  0  0  0  0  0  0  0
  -24.5590  -29.6614   22.0436 C   0  0  0  0  0  0  0  0  0  0  0  0
  -28.0415  -24.6125   23.0430 C   0  0  0  0  0  0  0  0  0  0  0  0
  -31.2845  -19.6281   22.4247 C   0  0  0  0  0  0  0  0  0  0  0  0
  -30.8619  -18.7480   23.4209 C   0  0  0  0  0  0  0  0  0  0  0  0
  -30.3750  -17.0809   21.7414 C   0  0  0  0  0  0  0  0  0  0  0  0
  -22.2588   -8.1555   21.6761 C   0  0  0  0  0  0  0  0  0  0  0  0
  -30.3038  -25.4027   23.4525 C   0  0  0  0  0  0  0  0  0  0  0  0
  -22.0952   -6.1281   22.8530 C   0  0  0  0  0  0  0  0  0  0  0  0
  -23.2409   -4.2653   24.5851 C   0  0  0  0  0  0  0  0  0  0  0  0
  -21.4729   -5.8274   24.0646 C   0  0  0  0  0  0  0  0  0  0  0  0
  -30.7977  -17.9610   20.7452 C   0  0  0  0  0  0  0  0  0  0  0  0
  -30.4071  -17.4743   23.0792 C   0  0  0  0  0  0  0  0  0  0  0  0
  -24.5327  -11.5860   20.6968 C   0  0  0  0  0  0  0  0  0  0  0  0
  -25.1936  -13.6435   20.2908 C   0  0  0  0  0  0  0  0  0  0  0  0
  -22.7843  -13.4578   20.9307 C   0  0  0  0  0  0  0  0  0  0  0  0
  -24.9677  -26.0472   22.6941 C   0  0  0  0  0  0  0  0  0  0  0  0
  -24.6871  -22.8157   22.6582 C   0  0  0  0  0  0  0  0  0  0  0  0
  -26.2100  -19.7724   22.9138 C   0  0  0  0  0  0  0  0  0  0  0  0
  -30.6251  -14.7903   20.7231 C   0  0  0  0  0  0  0  0  0  0  0  0
  -22.1920  -30.0580   21.1885 C   0  0  0  0  0  0  0  0  0  0  0  0
  -26.7477  -25.4059   21.0277 C   0  0  0  0  0  0  0  0  0  0  0  0
  -26.8851  -23.7486   23.4730 C   0  0  0  0  0  0  0  0  0  0  0  0
  -21.8958  -28.6187   21.6020 C   0  0  0  0  0  0  0  0  0  0  0  0
  -29.6993  -12.1162   18.5622 C   0  0  0  0  0  0  0  0  0  0  0  0
  -22.6113  -28.2798   22.9058 C   0  0  0  0  0  0  0  0  0  0  0  0
  -28.2358  -11.8496   18.9217 C   0  0  0  0  0  0  0  0  0  0  0  0
  -30.5264  -12.4887   19.7913 C   0  0  0  0  0  0  0  0  0  0  0  0
  -28.5217  -13.3277   20.9517 C   0  0  0  0  0  0  0  0  0  0  0  0
  -24.1323  -28.3903   22.7453 C   0  0  1  0  0  0  0  0  0  0  0  0
  -25.4910  -24.9767   21.7787 C   0  0  1  0  0  0  0  0  0  0  0  0
  -27.6348  -13.0120   19.7362 C   0  0  2  0  0  0  0  0  0  0  0  0
  -31.7755  -20.9984   22.7618 C   0  0  0  0  0  0  0  0  0  0  0  0
  -26.4462  -17.2747   22.8567 C   0  0  0  0  0  0  0  0  0  0  0  0
  -23.5584  -23.0075   25.4865 C   0  0  0  0  0  0  0  0  0  0  0  0
  -23.9758  -20.5524   25.7446 C   0  0  0  0  0  0  0  0  0  0  0  0
  -22.3862  -21.3693   24.0043 C   0  0  0  0  0  0  0  0  0  0  0  0
  -26.8442  -19.7823   20.0231 C   0  0  0  0  0  0  0  0  0  0  0  0
  -30.9046  -19.1964   24.8604 C   0  0  0  0  0  0  0  0  0  0  0  0
  -32.2987  -19.1165   25.4941 C   0  0  0  0  0  0  0  0  0  0  0  0
  -32.3865  -19.6150   26.9422 C   0  0  0  0  0  0  0  0  0  0  0  0
  -33.7946  -19.5063   27.5329 C   0  0  0  0  0  0  0  0  0  0  0  0
  -33.8971  -20.0862   28.9478 C   0  0  0  0  0  0  0  0  0  0  0  0
  -35.2934  -20.0502   29.5792 C   0  0  0  0  0  0  0  0  0  0  0  0
  -36.3666  -20.8770   28.8621 C   0  0  0  0  0  0  0  0  0  0  0  0
  -36.0697  -22.3782   28.8671 C   0  0  0  0  0  0  0  0  0  0  0  0
  -37.1282  -23.2163   28.1437 C   0  0  0  0  0  0  0  0  0  0  0  0
  -37.3015  -22.9284   26.6491 C   0  0  0  0  0  0  0  0  0  0  0  0
  -36.0449  -23.0874   25.7883 C   0  0  0  0  0  0  0  0  0  0  0  0
  -35.4973  -24.5148   25.7541 C   0  0  0  0  0  0  0  0  0  0  0  0
  -34.2829  -24.6705   24.8315 C   0  0  0  0  0  0  0  0  0  0  0  0
  -33.7132  -26.0898   24.7145 C   0  0  0  0  0  0  0  0  0  0  0  0
  -32.5142  -26.2162   23.7812 C   0  0  0  0  0  0  0  0  0  1  0  0
  -24.8690  -21.7155   23.6757 C   0  0  1  0  0  0  0  0  0  0  0  0
  -26.1173  -18.5243   22.0547 C   0  0  2  0  0  0  0  0  0  0  0  0
  -23.7186  -21.6788   24.7210 C   0  0  0  0  0  0  0  0  0  0  0  0
  -25.8244  -11.4659   20.3788 N   0  0  0  0  0  0  0  0  0  0  0  0
  -26.1982  -12.7339   20.1370 N   0  0  0  0  0  0  0  0  0  0  0  0
  -25.7023  -23.7809   22.5970 N   0  0  0  0  0  0  0  0  0  0  0  0
  -29.8988  -13.5994   20.5106 N   0  0  0  0  0  0  0  0  0  0  0  0
  -25.3970  -14.9624   20.0873 N   0  0  0  0  0  0  0  0  0  0  0  0
  -21.7593  -12.5742   21.2954 N   0  0  0  0  0  0  0  0  0  0  0  0
  -29.9143  -15.7880   21.3894 N   0  0  0  0  0  0  0  0  0  0  0  0
  -24.6532  -27.2306   22.0538 N   0  0  0  0  0  0  0  0  0  0  0  0
  -25.0263  -20.4795   22.9167 N   0  0  0  0  0  0  0  0  0  0  0  0
  -27.0675  -18.6116   20.9100 N   0  3  0  0  0  0  0  0  0  0  0  0
  -22.5340  -14.6834   20.8369 O   0  0  0  0  0  0  0  0  0  0  0  0
  -24.8562  -25.8161   23.8923 O   0  0  0  0  0  0  0  0  0  0  0  0
  -23.6848  -22.8148   21.9391 O   0  0  0  0  0  0  0  0  0  0  0  0
  -27.2293  -20.0864   23.5245 O   0  0  0  0  0  0  0  0  0  0  0  0
  -31.7825  -14.9256   20.3180 O   0  0  0  0  0  0  0  0  0  0  0  0
  -21.5274   -7.0519   21.9918 O   0  0  0  0  0  0  0  0  0  0  0  0
  -31.4395  -25.3988   24.2209 O   0  0  0  0  0  0  0  0  0  1  0  0
  -23.7903   -3.3698   25.4160 F   0  0  0  0  0  0  0  0  0  0  0  0
  -20.3239   -6.4292   24.4015 F   0  0  0  0  0  0  0  0  0  0  0  0
  -30.7772  -17.5207   19.0739 Cl  0  0  0  0  0  0  0  0  0  0  0  0
  -29.8826  -16.3855   24.3248 Cl  0  0  0  0  0  0  0  0  0  0  0  0
  1  2  1  0  0  0  0
  1  5  2  0  0  0  0
  2  6  2  0  0  0  0
  3  8  2  0  0  0  0
  3 16  1  0  0  0  0
  4  9  1  0  0  0  0
  4 16  2  0  0  0  0
  5 18  1  0  0  0  0
  6 20  1  0  0  0  0
  7 10  2  0  0  0  0
  7 19  1  0  0  0  0
  8 25  1  0  0  0  0
  9 25  2  0  0  0  0
 10 26  1  0  0  0  0
 11 12  2  0  0  0  0
 11 27  1  0  0  0  0
 12 28  1  0  0  0  0
 13 21  1  0  0  0  0
 13 26  2  0  0  0  0
 14 22  2  0  0  0  0
 14 30  1  0  0  0  0
 15 28  2  0  0  0  0
 15 29  1  0  0  0  0
 16 32  1  0  0  0  0
 17 32  1  0  0  0  0
 17 33  2  0  0  0  0
 17 34  1  0  0  0  0
 18 20  2  0  0  0  0
 18 39  1  0  0  0  0
 19 21  2  0  0  0  0
 19 40  1  0  0  0  0
 20 48  1  0  0  0  0
 21 41  1  0  0  0  0
 22 23  1  0  0  0  0
 22 51  1  0  0  0  0
 23 31  2  0  0  0  0
 23 57  1  0  0  0  0
 24 30  2  0  0  0  0
 24 31  1  0  0  0  0
 24 81  1  0  0  0  0
 25 90  1  0  0  0  0
 26 91  1  0  0  0  0
 27 29  2  0  0  0  0
 27 90  1  0  0  0  0
 28 92  1  0  0  0  0
 29 93  1  0  0  0  0
 30 94  1  0  0  0  0
 31 95  1  0  0  0  0
 32 75  2  0  0  0  0
 33 76  1  0  0  0  0
 33 79  1  0  0  0  0
 34 80  1  0  0  0  0
 34 85  2  0  0  0  0
 35 49  1  0  0  0  0
 35 82  1  0  0  0  0
 35 86  2  0  0  0  0
 36 72  1  0  0  0  0
 36 77  1  0  0  0  0
 36 87  2  0  0  0  0
 37 73  1  0  0  0  0
 37 83  1  0  0  0  0
 37 88  2  0  0  0  0
 38 78  1  0  0  0  0
 38 81  1  0  0  0  0
 38 89  2  0  0  0  0
 39 42  1  0  0  0  0
 40 49  1  0  0  0  0
 41 77  1  0  0  0  0
 42 44  1  0  0  0  0
 43 45  1  0  0  0  0
 43 46  1  0  0  0  0
 44 48  1  0  0  0  0
 45 50  1  0  0  0  0
 46 78  1  0  0  0  0
 47 50  1  0  0  0  0
 47 78  1  0  0  0  0
 48 82  1  0  0  0  0
 49 77  1  0  0  0  0
 50 76  1  0  0  0  0
 52 73  1  0  0  0  0
 53 74  1  0  0  0  0
 54 74  1  0  0  0  0
 55 74  1  0  0  0  0
 56 84  1  0  0  0  0
 57 58  1  0  0  0  0
 58 59  1  0  0  0  0
 59 60  1  0  0  0  0
 60 61  1  0  0  0  0
 61 62  1  0  0  0  0
 62 63  1  0  0  0  0
 63 64  1  0  0  0  0
 64 65  1  0  0  0  0
 65 66  1  0  0  0  0
 66 67  1  0  0  0  0
 67 68  1  0  0  0  0
 68 69  1  0  0  0  0
 69 70  1  0  0  0  0
 70 71  1  0  0  0  0
 71 91  1  0  0  0  0
 72 74  1  0  0  0  0
 72 83  1  0  0  0  0
 73 84  1  0  0  0  0
 75 76  1  0  0  0  0
M  CHG  1  84   1
M  ISO  4  38 100  71 101  81 100  91 101
M  END
> <Batch ID>
0025

> <Smiles>
CNC(C)C(=O)NC(C(=O)N1Cc2cc([101O:1][101CH2:1]CCCCCCCCCCCCCCc3c(C)cc(Cl)c([100NH:0][100C:0](=O)N4CCCC(n5nc(-c6ccc(Oc7ccc(F)cc7F)cc6)c(C(N)=O)c5N)C4)c3Cl)ccc2CC1C(=O)NC1CCCc2ccccc21)C(C)(C)C

> <Shape>
0.245

> <Color>
0.210

> <Negative vol penalty>
0.000

$$$$

  -OEChem-04052316243D

 91 99  0     1  0  0  0  0  0999 V2000
  -18.7964  -30.3257   24.8224 C   0  0  0  0  0  0  0  0  0  0  0  0
  -20.1511  -30.2058   25.1155 C   0  0  0  0  0  0  0  0  0  0  0  0
  -26.6999  -13.6624   21.6198 C   0  0  0  0  0  0  0  0  0  0  0  0
  -26.3820  -13.8380   19.2312 C   0  0  0  0  0  0  0  0  0  0  0  0
  -18.2221  -29.5170   23.8427 C   0  0  0  0  0  0  0  0  0  0  0  0
  -20.9320  -29.2762   24.4296 C   0  0  0  0  0  0  0  0  0  0  0  0
  -27.5910  -28.3091   21.9721 C   0  0  0  0  0  0  0  0  0  0  0  0
  -25.9485  -12.4873   21.6334 C   0  0  0  0  0  0  0  0  0  0  0  0
  -25.6306  -12.6628   19.2448 C   0  0  0  0  0  0  0  0  0  0  0  0
  -28.6312  -27.3819   22.0161 C   0  0  0  0  0  0  0  0  0  0  0  0
  -22.6832  -11.6182   21.5524 C   0  0  0  0  0  0  0  0  0  0  0  0
  -21.7217  -11.4762   22.5529 C   0  0  0  0  0  0  0  0  0  0  0  0
  -27.5480  -26.0934   20.2883 C   0  0  0  0  0  0  0  0  0  0  0  0
  -31.0011  -26.0479   16.7991 C   0  0  0  0  0  0  0  0  0  0  0  0
  -22.8473   -9.4938   23.3532 C   0  0  0  0  0  0  0  0  0  0  0  0
  -26.9166  -14.3378   20.4187 C   0  0  0  0  0  0  0  0  0  0  0  0
  -29.0838  -15.6697   20.2273 C   0  0  0  0  0  0  0  0  0  0  0  0
  -18.9984  -28.5837   23.1377 C   0  0  0  0  0  0  0  0  0  0  0  0
  -26.5141  -28.1294   21.0920 C   0  0  0  0  0  0  0  0  0  0  0  0
  -20.3672  -28.4533   23.4405 C   0  0  0  0  0  0  0  0  0  0  0  0
  -26.4965  -27.0211   20.2332 C   0  0  0  0  0  0  0  0  0  0  0  0
  -30.5701  -26.4929   15.5494 C   0  0  0  0  0  0  0  0  0  0  0  0
  -31.4488  -28.6917   16.0293 C   0  0  0  0  0  0  0  0  0  0  0  0
  -31.6559  -26.9248   17.6640 C   0  0  0  0  0  0  0  0  0  0  0  0
  -25.4139  -11.9875   20.4460 C   0  0  0  0  0  0  0  0  0  0  0  0
  -28.6084  -26.2724   21.1762 C   0  0  0  0  0  0  0  0  0  0  0  0
  -23.7267  -10.6979   21.4522 C   0  0  0  0  0  0  0  0  0  0  0  0
  -21.8038  -10.4140   23.4533 C   0  0  0  0  0  0  0  0  0  0  0  0
  -23.8087   -9.6358   22.3526 C   0  0  0  0  0  0  0  0  0  0  0  0
  -30.7939  -27.8148   15.1645 C   0  0  0  0  0  0  0  0  0  0  0  0
  -31.8798  -28.2467   17.2791 C   0  0  0  0  0  0  0  0  0  0  0  0
  -27.6922  -15.5520   20.4040 C   0  0  0  0  0  0  0  0  0  0  0  0
  -29.3254  -17.0202   20.2935 C   0  0  0  0  0  0  0  0  0  0  0  0
  -30.0700  -14.6495   20.0215 C   0  0  0  0  0  0  0  0  0  0  0  0
  -23.3816  -27.7135   21.4356 C   0  0  0  0  0  0  0  0  0  0  0  0
  -23.3904  -27.9408   18.1998 C   0  0  0  0  0  0  0  0  0  0  0  0
  -25.1260  -27.6268   15.2781 C   0  0  0  0  0  0  0  0  0  0  0  0
  -25.9198  -21.8284   19.2288 C   0  0  0  0  0  0  0  0  0  0  0  0
  -18.3231  -27.6985   22.1203 C   0  0  0  0  0  0  0  0  0  0  0  0
  -25.4130  -29.1526   21.0377 C   0  0  0  0  0  0  0  0  0  0  0  0
  -25.3735  -26.7929   19.2559 C   0  0  0  0  0  0  0  0  0  0  0  0
  -19.2992  -26.9998   21.1773 C   0  0  0  0  0  0  0  0  0  0  0  0
  -27.6203  -21.0371   22.2551 C   0  0  0  0  0  0  0  0  0  0  0  0
  -20.4567  -26.3909   21.9625 C   0  0  0  0  0  0  0  0  0  0  0  0
  -27.9571  -19.5522   22.1079 C   0  0  0  0  0  0  0  0  0  0  0  0
  -26.2636  -21.3718   21.6391 C   0  0  0  0  0  0  0  0  0  0  0  0
  -26.4362  -19.4640   20.0886 C   0  0  0  0  0  0  0  0  0  0  0  0
  -21.2526  -27.4739   22.7008 C   0  0  1  0  0  0  0  0  0  0  0  0
  -24.1112  -28.5997   20.4660 C   0  0  1  0  0  0  0  0  0  0  0  0
  -27.8202  -19.0885   20.6452 C   0  0  2  0  0  0  0  0  0  0  0  0
  -31.6673  -30.1007   15.5781 C   0  0  0  0  0  0  0  0  0  0  0  0
  -24.8549  -27.8437   12.7928 C   0  0  0  0  0  0  0  0  0  0  0  0
  -32.8967  -24.1885   18.6749 C   0  0  0  0  0  0  0  0  0  0  0  0
  -21.8894  -25.2851   18.1342 C   0  0  0  0  0  0  0  0  0  0  0  0
  -22.4816  -25.0900   15.7094 C   0  0  0  0  0  0  0  0  0  0  0  0
  -21.0681  -26.9884   16.4975 C   0  0  0  0  0  0  0  0  0  0  0  0
  -27.1786  -29.7532   15.1231 C   0  0  0  0  0  0  0  0  0  0  0  0
  -29.8697  -25.5529   14.6274 C   0  0  0  0  0  0  0  0  0  0  0  0
  -26.8872  -22.7141   16.1778 C   0  0  0  0  0  0  0  0  0  0  0  0
  -26.6060  -23.5656   14.9341 C   0  0  0  0  0  0  0  0  0  0  0  0
  -31.9710  -25.0138   20.8674 C   0  0  0  0  0  0  0  0  0  0  0  0
  -25.6146  -22.1300   16.7844 C   0  0  0  0  0  0  0  0  0  0  0  0
  -27.8693  -24.1005   14.2699 C   0  0  0  0  0  0  0  0  0  0  0  0
  -30.9140  -25.8516   21.5801 C   0  0  0  0  0  0  0  0  0  1  0  0
  -23.5329  -26.9616   17.0597 C   0  0  1  0  0  0  0  0  0  0  0  0
  -25.2553  -28.5490   14.0793 C   0  0  2  0  0  0  0  0  0  0  0  0
  -31.8613  -25.0890   19.3413 C   0  0  1  0  0  0  0  0  0  0  0  0
  -22.2633  -26.0843   16.8698 C   0  0  0  0  0  0  0  0  0  0  0  0
  -27.0918  -16.7335   20.5703 N   0  0  0  0  0  0  0  0  0  0  0  0
  -28.1110  -17.6064   20.4983 N   0  0  0  0  0  0  0  0  0  0  0  0
  -24.3170  -27.8182   19.2449 N   0  0  0  0  0  0  0  0  0  0  0  0
  -26.1996  -20.9070   20.2514 N   0  0  0  0  0  0  0  0  0  0  0  0
  -30.4559  -17.7515   20.1961 N   0  0  0  0  0  0  0  0  0  0  0  0
  -29.6502  -13.3130   19.9799 N   0  0  0  0  0  0  0  0  0  0  0  0
  -32.0700  -26.4510   18.8960 N   0  0  0  0  0  0  0  0  0  0  0  0
  -22.1257  -28.1736   21.7830 N   0  0  0  0  0  0  0  0  0  0  0  0
  -23.8950  -27.7503   15.8870 N   0  0  0  0  0  0  0  0  0  0  0  0
  -25.8838  -21.3060   17.9417 N   0  0  0  0  0  0  0  0  0  0  0  0
  -26.6618  -29.0210   13.9383 N   0  3  0  0  0  0  0  0  0  0  0  0
  -28.6114  -24.9954   15.1957 N   0  3  0  0  0  0  0  0  0  0  0  0
  -31.2897  -14.9141   19.8951 O   0  0  0  0  0  0  0  0  0  0  0  0
  -23.9177  -26.6876   21.8376 O   0  0  0  0  0  0  0  0  0  0  0  0
  -22.4947  -28.7879   18.1610 O   0  0  0  0  0  0  0  0  0  0  0  0
  -26.0255  -26.8697   15.6363 O   0  0  0  0  0  0  0  0  0  0  0  0
  -25.7223  -23.0287   19.4461 O   0  0  0  0  0  0  0  0  0  0  0  0
  -24.6809  -10.8407   20.4589 O   0  0  0  0  0  0  0  0  0  0  0  0
  -29.6222  -25.3655   21.2177 O   0  0  0  0  0  0  0  0  0  1  0  0
  -20.8813  -10.2787   24.4150 F   0  0  0  0  0  0  0  0  0  0  0  0
  -24.8096   -8.7492   22.2621 F   0  0  0  0  0  0  0  0  0  0  0  0
  -30.3783  -28.2409   13.9623 F   0  0  0  0  0  0  0  0  0  0  0  0
  -32.6928  -29.3412   18.3499 Cl  0  0  0  0  0  0  0  0  0  0  0  0
  1  2  1  0  0  0  0
  1  5  2  0  0  0  0
  2  6  2  0  0  0  0
  3  8  2  0  0  0  0
  3 16  1  0  0  0  0
  4  9  1  0  0  0  0
  4 16  2  0  0  0  0
  5 18  1  0  0  0  0
  6 20  1  0  0  0  0
  7 10  2  0  0  0  0
  7 19  1  0  0  0  0
  8 25  1  0  0  0  0
  9 25  2  0  0  0  0
 10 26  1  0  0  0  0
 11 12  2  0  0  0  0
 11 27  1  0  0  0  0
 12 28  1  0  0  0  0
 13 21  1  0  0  0  0
 13 26  2  0  0  0  0
 14 22  2  0  0  0  0
 14 24  1  0  0  0  0
 15 28  2  0  0  0  0
 15 29  1  0  0  0  0
 16 32  1  0  0  0  0
 17 32  1  0  0  0  0
 17 33  2  0  0  0  0
 17 34  1  0  0  0  0
 18 20  2  0  0  0  0
 18 39  1  0  0  0  0
 19 21  2  0  0  0  0
 19 40  1  0  0  0  0
 20 48  1  0  0  0  0
 21 41  1  0  0  0  0
 22 30  1  0  0  0  0
 22 58  1  0  0  0  0
 23 30  2  0  0  0  0
 23 31  1  0  0  0  0
 23 51  1  0  0  0  0
 24 31  2  0  0  0  0
 24 75  1  0  0  0  0
 25 86  1  0  0  0  0
 26 87  1  0  0  0  0
 27 29  2  0  0  0  0
 27 86  1  0  0  0  0
 28 88  1  0  0  0  0
 29 89  1  0  0  0  0
 30 90  1  0  0  0  0
 31 91  1  0  0  0  0
 32 69  2  0  0  0  0
 33 70  1  0  0  0  0
 33 73  1  0  0  0  0
 34 74  1  0  0  0  0
 34 81  2  0  0  0  0
 35 49  1  0  0  0  0
 35 76  1  0  0  0  0
 35 82  2  0  0  0  0
 36 65  1  0  0  0  0
 36 71  1  0  0  0  0
 36 83  2  0  0  0  0
 37 66  1  0  0  0  0
 37 77  1  0  0  0  0
 37 84  2  0  0  0  0
 38 72  1  0  0  0  0
 38 78  1  0  0  0  0
 38 85  2  0  0  0  0
 39 42  1  0  0  0  0
 40 49  1  0  0  0  0
 41 71  1  0  0  0  0
 42 44  1  0  0  0  0
 43 45  1  0  0  0  0
 43 46  1  0  0  0  0
 44 48  1  0  0  0  0
 45 50  1  0  0  0  0
 46 72  1  0  0  0  0
 47 50  1  0  0  0  0
 47 72  1  0  0  0  0
 48 76  1  0  0  0  0
 49 71  1  0  0  0  0
 50 70  1  0  0  0  0
 52 66  1  0  0  0  0
 53 67  1  0  0  0  0
 54 68  1  0  0  0  0
 55 68  1  0  0  0  0
 56 68  1  0  0  0  0
 57 79  1  0  0  0  0
 58 80  1  0  0  0  0
 59 60  1  0  0  0  0
 59 62  1  0  0  0  0
 60 63  1  0  0  0  0
 61 64  1  0  0  0  0
 61 67  1  0  0  0  0
 62 78  1  0  0  0  0
 63 80  1  0  0  0  0
 64 87  1  0  0  0  0
 65 68  1  0  0  0  0
 65 77  1  0  0  0  0
 66 79  1  0  0  0  0
 67 75  1  0  0  0  0
 69 70  1  0  0  0  0
M  CHG  2  79   1  80   1
M  ISO  4  38 100  64 101  78 100  87 101
M  END
> <Batch ID>
0025

> <Smiles>
CNC(C)C(=O)NC(C(=O)N1Cc2cc([101O:1][101CH2:1]CC(C)Nc3cc(CNCCCC[100NH:0][100C:0](=O)N4CCCC(n5nc(-c6ccc(Oc7ccc(F)cc7F)cc6)c(C(N)=O)c5N)C4)c(F)c(C)c3Cl)ccc2CC1C(=O)NC1CCCc2ccccc21)C(C)(C)C

> <Shape>
0.228

> <Color>
0.069

> <Negative vol penalty>
0.000

$$$$

  -OEChem-04052316243D

 79 87  0     1  0  0  0  0  0999 V2000
  -24.0969   -6.7278   23.5335 C   0  0  0  0  0  0  0  0  0  0  0  0
  -25.2742   -7.4651   23.6095 C   0  0  0  0  0  0  0  0  0  0  0  0
  -22.6852  -28.0756   21.9933 C   0  0  0  0  0  0  0  0  0  0  0  0
  -23.5203  -30.3426   21.9711 C   0  0  0  0  0  0  0  0  0  0  0  0
  -23.0829   -7.1236   22.6623 C   0  0  0  0  0  0  0  0  0  0  0  0
  -25.4386   -8.5981   22.8135 C   0  0  0  0  0  0  0  0  0  0  0  0
  -28.5403  -15.0551   22.8651 C   0  0  0  0  0  0  0  0  0  0  0  0
  -21.6472  -28.4662   22.8392 C   0  0  0  0  0  0  0  0  0  0  0  0
  -22.4822  -30.7332   22.8170 C   0  0  0  0  0  0  0  0  0  0  0  0
  -29.3980  -15.8442   22.0999 C   0  0  0  0  0  0  0  0  0  0  0  0
  -18.5693  -28.9403   24.7145 C   0  0  0  0  0  0  0  0  0  0  0  0
  -17.2860  -28.4784   24.4224 C   0  0  0  0  0  0  0  0  0  0  0  0
  -27.5466  -16.4783   20.6895 C   0  0  0  0  0  0  0  0  0  0  0  0
  -17.3810  -29.5744   22.2714 C   0  0  0  0  0  0  0  0  0  0  0  0
  -23.6218  -29.0138   21.5593 C   0  0  0  0  0  0  0  0  0  0  0  0
  -24.6864  -28.6001   19.2783 C   0  0  0  0  0  0  0  0  0  0  0  0
  -23.2310   -8.2676   21.8623 C   0  0  0  0  0  0  0  0  0  0  0  0
  -27.1791  -14.9630   22.5412 C   0  0  0  0  0  0  0  0  0  0  0  0
  -24.4261   -9.0089   21.9298 C   0  0  0  0  0  0  0  0  0  0  0  0
  -26.6732  -15.6894   21.4537 C   0  0  0  0  0  0  0  0  0  0  0  0
  -21.5457  -29.7950   23.2510 C   0  0  0  0  0  0  0  0  0  0  0  0
  -28.9018  -16.5536   21.0102 C   0  0  0  0  0  0  0  0  0  0  0  0
  -19.2585  -29.7194   23.7851 C   0  0  0  0  0  0  0  0  0  0  0  0
  -16.6919  -28.7954   23.2009 C   0  0  0  0  0  0  0  0  0  0  0  0
  -18.6644  -30.0364   22.5635 C   0  0  0  0  0  0  0  0  0  0  0  0
  -24.6946  -28.6107   20.6860 C   0  0  0  0  0  0  0  0  0  0  0  0
  -25.9326  -28.1386   18.9311 C   0  0  0  0  0  0  0  0  0  0  0  0
  -23.6455  -28.9742   18.3660 C   0  0  0  0  0  0  0  0  0  0  0  0
  -25.2361  -12.6043   21.6663 C   0  0  0  0  0  0  0  0  0  0  0  0
  -22.9616  -14.9014   21.9351 C   0  0  0  0  0  0  0  0  0  0  0  0
  -22.1835  -18.2242   21.9174 C   0  0  0  0  0  0  0  0  0  0  0  0
  -30.1862  -24.7225   19.5335 C   0  0  0  0  0  0  0  0  0  0  0  0
  -22.1264   -8.6292   20.9012 C   0  0  0  0  0  0  0  0  0  0  0  0
  -26.2619  -14.1287   23.3927 C   0  0  0  0  0  0  0  0  0  0  0  0
  -25.2159  -15.6404   21.0764 C   0  0  0  0  0  0  0  0  0  0  0  0
  -22.2276  -10.0551   20.3656 C   0  0  0  0  0  0  0  0  0  0  0  0
  -30.0847  -27.4189   21.7129 C   0  0  0  0  0  0  0  0  0  0  0  0
  -23.6553  -10.3588   19.9226 C   0  0  0  0  0  0  0  0  0  0  0  0
  -28.6730  -27.9771   21.5377 C   0  0  0  0  0  0  0  0  0  0  0  0
  -30.8578  -21.6730   18.3096 C   0  0  0  0  0  0  0  0  0  0  0  0
  -28.8508  -21.5975   19.8509 C   0  0  0  0  0  0  0  0  0  0  0  0
  -30.0717  -25.8948   21.7109 C   0  0  0  0  0  0  0  0  0  0  0  0
  -30.3437  -23.0060   17.7719 C   0  0  0  0  0  0  0  0  0  0  0  0
  -28.0466  -25.8493   20.2924 C   0  0  0  0  0  0  0  0  0  0  0  0
  -24.6318  -10.2579   21.1006 C   0  0  1  0  0  0  0  0  0  0  0  0
  -24.9920  -13.7023   22.6626 C   0  0  1  0  0  0  0  0  0  0  0  0
  -29.7112  -20.8060   18.8504 C   0  0  2  0  0  0  0  0  0  0  0  0
  -28.0010  -27.3906   20.2840 C   0  0  1  0  0  0  0  0  0  0  0  0
  -28.3786  -22.9573   19.2962 C   0  0  2  0  0  0  0  0  0  0  0  0
  -27.2848  -22.7867   18.2374 C   0  0  0  0  0  0  0  0  0  0  0  0
  -20.2353  -19.7923   22.1251 C   0  0  0  0  0  0  0  0  0  0  0  0
  -22.1052  -14.2104   19.0893 C   0  0  0  0  0  0  0  0  0  0  0  0
  -20.8513  -16.3761   19.0151 C   0  0  0  0  0  0  0  0  0  0  0  0
  -20.2166  -14.6257   20.6753 C   0  0  0  0  0  0  0  0  0  0  0  0
  -23.3280  -19.5126   24.3235 C   0  0  0  0  0  0  0  0  0  0  0  0
  -30.2552  -19.5321   19.4951 C   0  0  0  0  0  0  0  0  0  0  0  0
  -29.1753  -18.4753   19.6361 C   0  0  0  0  0  0  0  0  0  1  0  0
  -22.3606  -15.9251   21.0025 C   0  0  1  0  0  0  0  0  0  0  0  0
  -21.3500  -19.0686   22.8644 C   0  0  2  0  0  0  0  0  0  0  0  0
  -21.4113  -15.2839   19.9512 C   0  0  0  0  0  0  0  0  0  0  0  0
  -25.8540  -28.1892   21.1981 N   0  0  0  0  0  0  0  0  0  0  0  0
  -26.5859  -27.9094   20.1062 N   0  0  0  0  0  0  0  0  0  0  0  0
  -24.3604  -14.8056   21.9358 N   0  0  0  0  0  0  0  0  0  0  0  0
  -29.4184  -25.3719   20.5107 N   0  0  0  0  0  0  0  0  0  0  0  0
  -29.5529  -23.7054   18.7885 N   0  0  0  0  0  0  0  0  0  0  0  0
  -26.5223  -27.9104   17.7384 N   0  0  0  0  0  0  0  0  0  0  0  0
  -22.4276  -29.4271   18.8913 N   0  0  0  0  0  0  0  0  0  0  0  0
  -24.5435  -11.4387   21.9328 N   0  0  0  0  0  0  0  0  0  0  0  0
  -21.7233  -16.9261   21.8512 N   0  0  0  0  0  0  0  0  0  0  0  0
  -22.2043  -20.0863   23.5393 N   0  3  0  0  0  0  0  0  0  0  0  0
  -23.7853  -28.8931   17.1221 O   0  0  0  0  0  0  0  0  0  0  0  0
  -25.9955  -12.8007   20.7248 O   0  0  0  0  0  0  0  0  0  0  0  0
  -22.2178  -14.2172   22.6423 O   0  0  0  0  0  0  0  0  0  0  0  0
  -23.1442  -18.6724   21.2956 O   0  0  0  0  0  0  0  0  0  0  0  0
  -31.3717  -25.0231   19.3430 O   0  0  0  0  0  0  0  0  0  0  0  0
  -20.5328  -30.1766   24.0762 O   0  0  0  0  0  0  0  0  0  0  0  0
  -29.7431  -17.3296   20.2557 O   0  0  0  0  0  0  0  0  0  1  0  0
  -15.4601  -28.3504   22.9199 F   0  0  0  0  0  0  0  0  0  0  0  0
  -19.3220  -30.7834   21.6662 F   0  0  0  0  0  0  0  0  0  0  0  0
  1  2  1  0  0  0  0
  1  5  2  0  0  0  0
  2  6  2  0  0  0  0
  3  8  2  0  0  0  0
  3 15  1  0  0  0  0
  4  9  1  0  0  0  0
  4 15  2  0  0  0  0
  5 17  1  0  0  0  0
  6 19  1  0  0  0  0
  7 10  2  0  0  0  0
  7 18  1  0  0  0  0
  8 21  1  0  0  0  0
  9 21  2  0  0  0  0
 10 22  1  0  0  0  0
 11 12  2  0  0  0  0
 11 23  1  0  0  0  0
 12 24  1  0  0  0  0
 13 20  1  0  0  0  0
 13 22  2  0  0  0  0
 14 24  2  0  0  0  0
 14 25  1  0  0  0  0
 15 26  1  0  0  0  0
 16 26  1  0  0  0  0
 16 27  2  0  0  0  0
 16 28  1  0  0  0  0
 17 19  2  0  0  0  0
 17 33  1  0  0  0  0
 18 20  2  0  0  0  0
 18 34  1  0  0  0  0
 19 45  1  0  0  0  0
 20 35  1  0  0  0  0
 21 76  1  0  0  0  0
 22 77  1  0  0  0  0
 23 25  2  0  0  0  0
 23 76  1  0  0  0  0
 24 78  1  0  0  0  0
 25 79  1  0  0  0  0
 26 61  2  0  0  0  0
 27 62  1  0  0  0  0
 27 66  1  0  0  0  0
 28 67  1  0  0  0  0
 28 71  2  0  0  0  0
 29 46  1  0  0  0  0
 29 68  1  0  0  0  0
 29 72  2  0  0  0  0
 30 58  1  0  0  0  0
 30 63  1  0  0  0  0
 30 73  2  0  0  0  0
 31 59  1  0  0  0  0
 31 69  1  0  0  0  0
 31 74  2  0  0  0  0
 32 64  1  0  0  0  0
 32 65  1  0  0  0  0
 32 75  2  0  0  0  0
 33 36  1  0  0  0  0
 34 46  1  0  0  0  0
 35 63  1  0  0  0  0
 36 38  1  0  0  0  0
 37 39  1  0  0  0  0
 37 42  1  0  0  0  0
 38 45  1  0  0  0  0
 39 48  1  0  0  0  0
 40 43  1  0  0  0  0
 40 47  1  0  0  0  0
 41 47  1  0  0  0  0
 41 49  1  0  0  0  0
 42 64  1  0  0  0  0
 43 65  1  0  0  0  0
 44 48  1  0  0  0  0
 44 64  1  0  0  0  0
 45 68  1  0  0  0  0
 46 63  1  0  0  0  0
 47 56  1  0  0  0  0
 48 62  1  0  0  0  0
 49 50  1  0  0  0  0
 49 65  1  0  0  0  0
 51 59  1  0  0  0  0
 52 60  1  0  0  0  0
 53 60  1  0  0  0  0
 54 60  1  0  0  0  0
 55 70  1  0  0  0  0
 56 57  1  0  0  0  0
 57 77  1  0  0  0  0
 58 60  1  0  0  0  0
 58 69  1  0  0  0  0
 59 70  1  0  0  0  0
 61 62  1  0  0  0  0
M  CHG  1  70   1
M  ISO  4  32 100  57 101  65 100  77 101
M  END
> <Batch ID>
0025

> <Smiles>
CNC(C)C(=O)NC(C(=O)N1Cc2cc([101O:1][101CH2:1]CC3CC[100N:0]([100C:0](=O)N4CCCC(n5nc(-c6ccc(Oc7ccc(F)cc7F)cc6)c(C(N)=O)c5N)C4)C(C)C3)ccc2CC1C(=O)NC1CCCc2ccccc21)C(C)(C)C

> <Shape>
0.276

> <Color>
0.084

> <Negative vol penalty>
0.000

$$$$

  -OEChem-04052316243D

104113  0     1  0  0  0  0  0999 V2000
  -32.4195  -23.7431   21.2413 C   0  0  0  0  0  0  0  0  0  0  0  0
  -31.0604  -23.9071   20.9937 C   0  0  0  0  0  0  0  0  0  0  0  0
  -23.0206   -9.8578   20.0690 C   0  0  0  0  0  0  0  0  0  0  0  0
  -23.6484  -10.1197   22.3872 C   0  0  0  0  0  0  0  0  0  0  0  0
  -32.9735  -24.2220   22.4277 C   0  0  0  0  0  0  0  0  0  0  0  0
  -30.2542  -24.5491   21.9330 C   0  0  0  0  0  0  0  0  0  0  0  0
  -27.1034  -27.9035   19.8200 C   0  0  0  0  0  0  0  0  0  0  0  0
  -22.2465   -8.7469   20.4041 C   0  0  0  0  0  0  0  0  0  0  0  0
  -22.8743   -9.0088   22.7224 C   0  0  0  0  0  0  0  0  0  0  0  0
  -25.9628  -27.4002   19.1958 C   0  0  0  0  0  0  0  0  0  0  0  0
  -23.1468   -5.6426   22.5629 C   0  0  0  0  0  0  0  0  0  0  0  0
  -23.7049   -4.7007   23.4271 C   0  0  0  0  0  0  0  0  0  0  0  0
  -24.6568  -27.9580   21.1457 C   0  0  0  0  0  0  0  0  0  0  0  0
  -21.9117   -5.0819   25.0007 C   0  0  0  0  0  0  0  0  0  0  0  0
  -31.4227  -20.6530   22.7560 C   0  0  0  0  0  0  0  0  0  0  0  0
  -23.7216  -10.5442   21.0605 C   0  0  0  0  0  0  0  0  0  0  0  0
  -24.1075  -13.0362   20.6754 C   0  0  0  0  0  0  0  0  0  0  0  0
  -32.1756  -24.8788   23.3778 C   0  0  0  0  0  0  0  0  0  0  0  0
  -27.0311  -28.4288   21.1181 C   0  0  0  0  0  0  0  0  0  0  0  0
  -30.7978  -25.0360   23.1339 C   0  0  0  0  0  0  0  0  0  0  0  0
  -25.7974  -28.4697   21.7832 C   0  0  0  0  0  0  0  0  0  0  0  0
  -31.3026  -19.4440   23.4672 C   0  0  0  0  0  0  0  0  0  0  0  0
  -23.5642  -18.9252   18.3473 C   0  0  0  0  0  0  0  0  0  0  0  0
  -22.5781  -21.1086   18.6595 C   0  0  0  0  0  0  0  0  0  0  0  0
  -22.1733   -8.3224   21.7308 C   0  0  0  0  0  0  0  0  0  0  0  0
  -24.7399  -27.4248   19.8597 C   0  0  0  0  0  0  0  0  0  0  0  0
  -21.9711   -6.3043   22.9176 C   0  0  0  0  0  0  0  0  0  0  0  0
  -24.7511  -20.6195   19.5954 C   0  0  0  0  0  0  0  0  0  0  0  0
  -23.0873   -4.4203   24.6460 C   0  0  0  0  0  0  0  0  0  0  0  0
  -21.3536   -6.0239   24.1365 C   0  0  0  0  0  0  0  0  0  0  0  0
  -24.6841  -19.3269   19.0752 C   0  0  0  0  0  0  0  0  0  0  0  0
  -22.5112  -19.8161   18.1393 C   0  0  0  0  0  0  0  0  0  0  0  0
  -23.6980  -21.5103   19.3875 C   0  0  0  0  0  0  0  0  0  0  0  0
  -24.5219  -11.6914   20.7149 C   0  0  0  0  0  0  0  0  0  0  0  0
  -30.1628  -19.5989   24.2176 C   0  0  0  0  0  0  0  0  0  0  0  0
  -25.2297  -13.7302   20.2940 C   0  0  0  0  0  0  0  0  0  0  0  0
  -22.8230  -13.6070   20.9583 C   0  0  0  0  0  0  0  0  0  0  0  0
  -28.3363  -27.6779   23.9175 C   0  0  0  0  0  0  0  0  0  0  0  0
  -26.8993  -30.4213   24.8824 C   0  0  0  0  0  0  0  0  0  0  0  0
  -24.4239  -32.7204   24.3991 C   0  0  0  0  0  0  0  0  0  0  0  0
  -30.7084  -14.7181   20.6855 C   0  0  0  0  0  0  0  0  0  0  0  0
  -32.8105  -25.3374   24.6667 C   0  0  0  0  0  0  0  0  0  0  0  0
  -28.2655  -28.9922   21.7673 C   0  0  0  0  0  0  0  0  0  0  0  0
  -25.6627  -29.0416   23.1700 C   0  0  0  0  0  0  0  0  0  0  0  0
  -31.9585  -26.3384   25.4429 C   0  0  0  0  0  0  0  0  0  0  0  0
  -29.6733  -12.0867   18.5219 C   0  0  0  0  0  0  0  0  0  0  0  0
  -30.5110  -25.8630   25.5171 C   0  0  0  0  0  0  0  0  0  0  0  0
  -28.2092  -11.8563   18.9006 C   0  0  0  0  0  0  0  0  0  0  0  0
  -30.5236  -12.4353   19.7415 C   0  0  0  0  0  0  0  0  0  0  0  0
  -28.5570  -13.3355   20.9230 C   0  0  0  0  0  0  0  0  0  0  0  0
  -29.8953  -25.7491   24.1173 C   0  0  1  0  0  0  0  0  0  0  0  0
  -28.1743  -29.0333   23.2896 C   0  0  1  0  0  0  0  0  0  0  0  0
  -27.6491  -13.0360   19.7178 C   0  0  2  0  0  0  0  0  0  0  0  0
  -23.5338  -17.5311   17.8076 C   0  0  0  0  0  0  0  0  0  0  0  0
  -29.4949  -18.6938   25.1721 C   0  0  0  0  0  0  0  0  0  0  0  0
  -23.4793  -34.8320   25.3718 C   0  0  0  0  0  0  0  0  0  0  0  0
  -21.4683  -22.0349   16.0365 C   0  0  0  0  0  0  0  0  0  0  0  0
  -33.4395  -18.4019   22.4478 C   0  0  0  0  0  0  0  0  0  0  0  0
  -32.8456  -18.0107   24.8223 C   0  0  0  0  0  0  0  0  0  0  0  0
  -25.5998  -28.8059   27.1211 C   0  0  0  0  0  0  0  0  0  0  0  0
  -23.9841  -30.6902   27.4484 C   0  0  0  0  0  0  0  0  0  0  0  0
  -26.4240  -31.0650   27.8079 C   0  0  0  0  0  0  0  0  0  0  0  0
  -20.4168  -22.0751   19.4043 C   0  0  0  0  0  0  0  0  0  0  0  0
  -24.9702  -34.2437   21.9211 C   0  0  0  0  0  0  0  0  0  0  0  0
  -27.1892  -20.9971   23.8224 C   0  0  0  0  0  0  0  0  0  0  0  0
  -27.1574  -21.2027   22.3079 C   0  0  0  0  0  0  0  0  0  0  0  0
  -22.5755  -24.9775   18.2932 C   0  0  0  0  0  0  0  0  0  0  0  0
  -22.7293  -23.8050   17.3145 C   0  0  0  0  0  0  0  0  0  0  0  0
  -31.4660  -16.9306   23.0150 C   0  0  0  0  0  0  0  0  0  0  0  0
  -28.4929  -21.4767   24.4656 C   0  0  0  0  0  0  0  0  0  0  0  0
  -30.7358  -16.9950   21.6725 C   0  0  0  0  0  0  0  0  0  0  0  0
  -25.8315  -20.7520   21.7098 C   0  0  0  0  0  0  0  0  0  0  0  0
  -23.8095  -25.8726   18.3166 C   0  0  0  0  0  0  0  0  0  1  0  0
  -25.5479  -30.7766   25.4539 C   0  0  1  0  0  0  0  0  0  0  0  0
  -24.4513  -34.2378   24.3644 C   0  0  2  0  0  0  0  0  0  0  0  0
  -21.5003  -22.8854   17.3024 C   0  0  2  0  0  0  0  0  0  0  0  0
  -32.2006  -18.2784   23.4142 C   0  0  0  0  0  0  0  0  0  0  0  0
  -25.3915  -30.3218   26.9324 C   0  0  0  0  0  0  0  0  0  0  0  0
  -30.4377  -21.5124   23.0300 N   0  0  0  0  0  0  0  0  0  0  0  0
  -25.8070  -11.5379   20.3847 N   0  0  0  0  0  0  0  0  0  0  0  0
  -29.6877  -20.8426   23.9216 N   0  0  0  0  0  0  0  0  0  0  0  0
  -26.2098  -12.7953   20.1341 N   0  0  0  0  0  0  0  0  0  0  0  0
  -26.8994  -29.5745   23.7650 N   0  0  0  0  0  0  0  0  0  0  0  0
  -29.9388  -13.5626   20.4716 N   0  0  0  0  0  0  0  0  0  0  0  0
  -25.4638  -15.0429   20.0830 N   0  0  0  0  0  0  0  0  0  0  0  0
  -21.7800  -12.7507   21.3367 N   0  0  0  0  0  0  0  0  0  0  0  0
  -29.5338  -27.0578   23.6162 N   0  0  0  0  0  0  0  0  0  0  0  0
  -25.3827  -32.2116   25.2495 N   0  0  0  0  0  0  0  0  0  0  0  0
  -30.0762  -15.7418   21.3805 N   0  0  0  0  0  0  0  0  0  0  0  0
  -21.5222  -22.0033   18.4506 N   0  0  3  0  0  0  0  0  0  0  0  0
  -24.0822  -34.7317   23.0076 N   0  3  0  0  0  0  0  0  0  0  0  0
  -22.6024  -14.8381   20.8620 O   0  0  0  0  0  0  0  0  0  0  0  0
  -27.4417  -27.2287   24.6244 O   0  0  0  0  0  0  0  0  0  0  0  0
  -27.9169  -30.8841   25.4039 O   0  0  0  0  0  0  0  0  0  0  0  0
  -23.6289  -32.0533   23.7407 O   0  0  0  0  0  0  0  0  0  0  0  0
  -31.8709  -14.8312   20.2820 O   0  0  0  0  0  0  0  0  0  0  0  0
  -21.4178   -7.2386   22.0582 O   0  0  0  0  0  0  0  0  0  0  0  0
  -23.6252  -26.9335   19.2530 O   0  0  0  0  0  0  0  0  0  1  0  0
  -25.8586  -20.9822   20.3031 O   0  0  0  0  0  0  0  0  0  0  0  0
  -23.6226   -3.5146   25.4751 F   0  0  0  0  0  0  0  0  0  0  0  0
  -20.2234   -6.6555   24.4822 F   0  0  0  0  0  0  0  0  0  0  0  0
  -25.6978  -18.4728   19.2804 F   0  0  0  0  0  0  0  0  0  0  0  0
  -21.1241  -19.3063   17.2312 Cl  0  0  0  0  0  0  0  0  0  0  0  0
  -23.8005  -23.1117   20.0428 Cl  0  0  0  0  0  0  0  0  0  0  0  0
  1  2  1  0  0  0  0
  1  5  2  0  0  0  0
  2  6  2  0  0  0  0
  3  8  2  0  0  0  0
  3 16  1  0  0  0  0
  4  9  1  0  0  0  0
  4 16  2  0  0  0  0
  5 18  1  0  0  0  0
  6 20  1  0  0  0  0
  7 10  2  0  0  0  0
  7 19  1  0  0  0  0
  8 25  1  0  0  0  0
  9 25  2  0  0  0  0
 10 26  1  0  0  0  0
 11 12  2  0  0  0  0
 11 27  1  0  0  0  0
 12 29  1  0  0  0  0
 13 21  1  0  0  0  0
 13 26  2  0  0  0  0
 14 29  2  0  0  0  0
 14 30  1  0  0  0  0
 15 22  1  0  0  0  0
 15 79  2  0  0  0  0
 16 34  1  0  0  0  0
 17 34  1  0  0  0  0
 17 36  2  0  0  0  0
 17 37  1  0  0  0  0
 18 20  2  0  0  0  0
 18 42  1  0  0  0  0
 19 21  2  0  0  0  0
 19 43  1  0  0  0  0
 20 51  1  0  0  0  0
 21 44  1  0  0  0  0
 22 35  2  0  0  0  0
 22 77  1  0  0  0  0
 23 31  1  0  0  0  0
 23 32  2  0  0  0  0
 23 54  1  0  0  0  0
 24 32  1  0  0  0  0
 24 33  2  0  0  0  0
 24 90  1  0  0  0  0
 25 97  1  0  0  0  0
 26 98  1  0  0  0  0
 27 30  2  0  0  0  0
 27 97  1  0  0  0  0
 28 31  2  0  0  0  0
 28 33  1  0  0  0  0
 28 99  1  0  0  0  0
 29100  1  0  0  0  0
 30101  1  0  0  0  0
 31102  1  0  0  0  0
 32103  1  0  0  0  0
 33104  1  0  0  0  0
 34 80  2  0  0  0  0
 35 55  1  0  0  0  0
 35 81  1  0  0  0  0
 36 82  1  0  0  0  0
 36 85  1  0  0  0  0
 37 86  1  0  0  0  0
 37 92  2  0  0  0  0
 38 52  1  0  0  0  0
 38 87  1  0  0  0  0
 38 93  2  0  0  0  0
 39 74  1  0  0  0  0
 39 83  1  0  0  0  0
 39 94  2  0  0  0  0
 40 75  1  0  0  0  0
 40 88  1  0  0  0  0
 40 95  2  0  0  0  0
 41 84  1  0  0  0  0
 41 89  1  0  0  0  0
 41 96  2  0  0  0  0
 42 45  1  0  0  0  0
 43 52  1  0  0  0  0
 44 83  1  0  0  0  0
 45 47  1  0  0  0  0
 46 48  1  0  0  0  0
 46 49  1  0  0  0  0
 47 51  1  0  0  0  0
 48 53  1  0  0  0  0
 49 84  1  0  0  0  0
 50 53  1  0  0  0  0
 50 84  1  0  0  0  0
 51 87  1  0  0  0  0
 52 83  1  0  0  0  0
 53 82  1  0  0  0  0
 56 75  1  0  0  0  0
 57 76  1  0  0  0  0
 58 77  1  0  0  0  0
 59 77  1  0  0  0  0
 60 78  1  0  0  0  0
 61 78  1  0  0  0  0
 62 78  1  0  0  0  0
 63 90  1  0  0  0  0
 64 91  1  0  0  0  0
 65 66  1  0  0  0  0
 65 70  1  0  0  0  0
 66 72  1  0  0  0  0
 67 68  1  0  0  0  0
 67 73  1  0  0  0  0
 68 76  1  0  0  0  0
 69 71  1  0  0  0  0
 69 77  1  0  0  0  0
 70 81  1  0  0  0  0
 71 89  1  0  0  0  0
 72 99  1  0  0  0  0
 73 98  1  0  0  0  0
 74 78  1  0  0  0  0
 74 88  1  0  0  0  0
 75 91  1  0  0  0  0
 76 90  1  0  0  0  0
 79 81  1  0  0  0  0
 80 82  1  0  0  0  0
M  CHG  1  91   1
M  ISO  4  41 100  73 101  89 100  98 101
M  END
> <Batch ID>
0025

> <Smiles>
CNC(C)C(=O)NC(C(=O)N1Cc2cc([101O:1][101CH2:1]CCC(C)N(C)c3c(Cl)c(C)c(F)c(OCCCCn4ncc(C(C)(C)CC[100NH:0][100C:0](=O)N5CCCC(n6nc(-c7ccc(Oc8ccc(F)cc8F)cc7)c(C(N)=O)c6N)C5)c4C)c3Cl)ccc2CC1C(=O)NC1CCCc2ccccc21)C(C)(C)C

> <Shape>
0.274

> <Color>
0.225

> <Negative vol penalty>
0.000

$$$$

  -OEChem-04052316243D

 91 99  0     1  0  0  0  0  0999 V2000
  -28.4415  -23.4974   14.0737 C   0  0  0  0  0  0  0  0  0  0  0  0
  -27.2981  -24.2389   14.3536 C   0  0  0  0  0  0  0  0  0  0  0  0
  -23.2194  -12.2798   19.2256 C   0  0  0  0  0  0  0  0  0  0  0  0
  -24.8925  -11.7342   20.8808 C   0  0  0  0  0  0  0  0  0  0  0  0
  -29.2708  -23.0781   15.1131 C   0  0  0  0  0  0  0  0  0  0  0  0
  -26.9828  -24.5606   15.6733 C   0  0  0  0  0  0  0  0  0  0  0  0
  -23.9306  -29.7289   19.5833 C   0  0  0  0  0  0  0  0  0  0  0  0
  -23.0192  -10.9214   18.9801 C   0  0  0  0  0  0  0  0  0  0  0  0
  -24.6923  -10.3758   20.6354 C   0  0  0  0  0  0  0  0  0  0  0  0
  -22.9413  -29.9066   20.5495 C   0  0  0  0  0  0  0  0  0  0  0  0
  -24.3646   -6.7555   20.7024 C   0  0  0  0  0  0  0  0  0  0  0  0
  -24.2600   -5.9054   21.8033 C   0  0  0  0  0  0  0  0  0  0  0  0
  -24.4899  -29.1962   22.2572 C   0  0  0  0  0  0  0  0  0  0  0  0
  -23.9091  -24.1288   21.8299 C   0  0  0  0  0  0  0  0  0  0  0  0
  -22.3375   -7.1461   22.5788 C   0  0  0  0  0  0  0  0  0  0  0  0
  -24.1561  -12.6862   20.1759 C   0  0  0  0  0  0  0  0  0  0  0  0
  -23.6928  -14.8912   21.3722 C   0  0  0  0  0  0  0  0  0  0  0  0
  -28.9707  -23.4030   16.4454 C   0  0  0  0  0  0  0  0  0  0  0  0
  -25.2059  -29.2724   19.9461 C   0  0  0  0  0  0  0  0  0  0  0  0
  -27.8082  -24.1441   16.7316 C   0  0  0  0  0  0  0  0  0  0  0  0
  -25.4944  -29.0160   21.2941 C   0  0  0  0  0  0  0  0  0  0  0  0
  -23.5711  -24.7809   23.0157 C   0  0  0  0  0  0  0  0  0  0  0  0
  -24.1218  -24.3583   24.2255 C   0  0  0  0  0  0  0  0  0  0  0  0
  -25.3486  -22.6313   23.0638 C   0  0  0  0  0  0  0  0  0  0  0  0
  -23.7556   -9.9694   19.6850 C   0  0  0  0  0  0  0  0  0  0  0  0
  -23.2200  -29.6375   21.8863 C   0  0  0  0  0  0  0  0  0  0  0  0
  -23.4557   -7.8011   20.5398 C   0  0  0  0  0  0  0  0  0  0  0  0
  -23.2464   -6.1006   22.7414 C   0  0  0  0  0  0  0  0  0  0  0  0
  -22.4421   -7.9963   21.4779 C   0  0  0  0  0  0  0  0  0  0  0  0
  -24.7979  -23.0539   21.8540 C   0  0  0  0  0  0  0  0  0  0  0  0
  -25.0106  -23.2835   24.2496 C   0  0  0  0  0  0  0  0  0  0  0  0
  -24.3637  -14.0893   20.4295 C   0  0  0  0  0  0  0  0  0  0  0  0
  -24.2498  -16.1375   21.2212 C   0  0  0  0  0  0  0  0  0  0  0  0
  -22.6586  -14.5407   22.3014 C   0  0  0  0  0  0  0  0  0  0  0  0
  -26.9537  -26.7106   19.2487 C   0  0  0  0  0  0  0  0  0  0  0  0
  -29.2319  -28.2874   20.9355 C   0  0  0  0  0  0  0  0  0  0  0  0
  -29.9841  -30.6161   23.3142 C   0  0  0  0  0  0  0  0  0  0  0  0
  -28.7106  -19.4294   20.5802 C   0  0  0  0  0  0  0  0  0  0  0  0
  -29.8720  -22.8872   17.5391 C   0  0  0  0  0  0  0  0  0  0  0  0
  -26.2701  -29.1114   18.8954 C   0  0  0  0  0  0  0  0  0  0  0  0
  -26.8538  -28.5433   21.7381 C   0  0  0  0  0  0  0  0  0  0  0  0
  -29.6673  -23.5895   18.8789 C   0  0  0  0  0  0  0  0  0  0  0  0
  -27.3335  -17.9545   17.6468 C   0  0  0  0  0  0  0  0  0  0  0  0
  -28.1808  -23.6982   19.2031 C   0  0  0  0  0  0  0  0  0  0  0  0
  -26.3881  -16.8800   18.1869 C   0  0  0  0  0  0  0  0  0  0  0  0
  -28.5905  -18.0830   18.5044 C   0  0  0  0  0  0  0  0  0  0  0  0
  -27.3948  -17.2259   20.4816 C   0  0  0  0  0  0  0  0  0  0  0  0
  -27.4458  -24.5340   18.1482 C   0  0  1  0  0  0  0  0  0  0  0  0
  -27.3795  -28.1502   19.3109 C   0  0  1  0  0  0  0  0  0  0  0  0
  -26.0869  -17.0982   19.6819 C   0  0  2  0  0  0  0  0  0  0  0  0
  -23.7446  -25.0734   25.4860 C   0  0  0  0  0  0  0  0  0  0  0  0
  -31.9322  -31.6584   24.5040 C   0  0  0  0  0  0  0  0  0  0  0  0
  -18.5923  -28.9648   23.2100 C   0  0  0  0  0  0  0  0  0  0  0  0
  -29.5348  -25.7730   22.6372 C   0  0  0  0  0  0  0  0  0  0  0  0
  -30.7462  -27.1543   24.3380 C   0  0  0  0  0  0  0  0  0  0  0  0
  -31.6888  -26.8961   22.0429 C   0  0  0  0  0  0  0  0  0  0  0  0
  -29.3135  -33.3122   22.2942 C   0  0  0  0  0  0  0  0  0  0  0  0
  -20.2470  -27.6551   25.5659 C   0  0  0  0  0  0  0  0  0  0  0  0
  -22.6079  -25.9397   22.9597 C   0  0  0  0  0  0  0  0  0  0  0  0
  -26.3031  -21.4758   23.0838 C   0  0  0  0  0  0  0  0  0  0  0  0
  -21.1730  -25.5747   23.3626 C   0  0  0  0  0  0  0  0  0  0  0  0
  -27.7367  -21.8346   22.6564 C   0  0  0  0  0  0  0  0  0  0  0  0
  -28.7258  -20.6732   22.7277 C   0  0  0  0  0  0  0  0  0  0  0  0
  -20.1569  -26.7084   23.2646 C   0  0  0  0  0  0  0  0  0  0  0  0
  -20.9028  -29.6163   22.4213 C   0  0  0  0  0  0  0  0  0  1  0  0
  -29.6425  -28.3405   22.3872 C   0  0  1  0  0  0  0  0  0  0  0  0
  -30.9799  -31.7619   23.3228 C   0  0  2  0  0  0  0  0  0  0  0  0
  -20.0462  -29.1731   23.6019 C   0  0  2  0  0  0  0  0  0  0  0  0
  -30.3768  -27.0480   22.8431 C   0  0  0  0  0  0  0  0  0  0  0  0
  -25.2770  -14.7692   19.7312 N   0  0  0  0  0  0  0  0  0  0  0  0
  -25.1839  -16.0114   20.2354 N   0  0  0  0  0  0  0  0  0  0  0  0
  -27.8589  -28.3951   20.6727 N   0  0  0  0  0  0  0  0  0  0  0  0
  -28.2355  -18.2898   19.9105 N   0  0  0  0  0  0  0  0  0  0  0  0
  -24.0268  -17.3181   21.8368 N   0  0  0  0  0  0  0  0  0  0  0  0
  -22.2024  -13.2158   22.3248 N   0  0  0  0  0  0  0  0  0  0  0  0
  -27.6873  -25.9447   18.3629 N   0  0  0  0  0  0  0  0  0  0  0  0
  -30.4267  -29.5605   22.5453 N   0  0  0  0  0  0  0  0  0  0  0  0
  -28.3222  -19.5520   21.9087 N   0  0  0  0  0  0  0  0  0  0  0  0
  -30.2665  -33.0676   23.4072 N   0  3  0  0  0  0  0  0  0  0  0  0
  -20.5799  -27.8778   24.1141 N   0  3  1  0  0  0  0  0  0  0  0  0
  -22.1427  -15.3815   23.0763 O   0  0  0  0  0  0  0  0  0  0  0  0
  -26.0290  -26.3230   19.9533 O   0  0  0  0  0  0  0  0  0  0  0  0
  -30.0982  -28.1624   20.0662 O   0  0  0  0  0  0  0  0  0  0  0  0
  -28.9217  -30.6523   23.9310 O   0  0  0  0  0  0  0  0  0  0  0  0
  -29.4233  -20.2778   20.0331 O   0  0  0  0  0  0  0  0  0  0  0  0
  -23.5604   -8.6438   19.4459 O   0  0  0  0  0  0  0  0  0  0  0  0
  -22.2560  -29.8095   22.8312 O   0  0  0  0  0  0  0  0  0  1  0  0
  -23.1451   -5.2832   23.7977 F   0  0  0  0  0  0  0  0  0  0  0  0
  -21.5653   -8.9983   21.3264 F   0  0  0  0  0  0  0  0  0  0  0  0
  -25.1883  -22.2758   20.3623 Cl  0  0  0  0  0  0  0  0  0  0  0  0
  -25.6935  -22.7604   25.7546 Cl  0  0  0  0  0  0  0  0  0  0  0  0
  1  2  1  0  0  0  0
  1  5  2  0  0  0  0
  2  6  2  0  0  0  0
  3  8  2  0  0  0  0
  3 16  1  0  0  0  0
  4  9  1  0  0  0  0
  4 16  2  0  0  0  0
  5 18  1  0  0  0  0
  6 20  1  0  0  0  0
  7 10  2  0  0  0  0
  7 19  1  0  0  0  0
  8 25  1  0  0  0  0
  9 25  2  0  0  0  0
 10 26  1  0  0  0  0
 11 12  2  0  0  0  0
 11 27  1  0  0  0  0
 12 28  1  0  0  0  0
 13 21  1  0  0  0  0
 13 26  2  0  0  0  0
 14 22  1  0  0  0  0
 14 30  2  0  0  0  0
 15 28  2  0  0  0  0
 15 29  1  0  0  0  0
 16 32  1  0  0  0  0
 17 32  1  0  0  0  0
 17 33  2  0  0  0  0
 17 34  1  0  0  0  0
 18 20  2  0  0  0  0
 18 39  1  0  0  0  0
 19 21  2  0  0  0  0
 19 40  1  0  0  0  0
 20 48  1  0  0  0  0
 21 41  1  0  0  0  0
 22 23  2  0  0  0  0
 22 59  1  0  0  0  0
 23 31  1  0  0  0  0
 23 51  1  0  0  0  0
 24 30  1  0  0  0  0
 24 31  2  0  0  0  0
 24 60  1  0  0  0  0
 25 86  1  0  0  0  0
 26 87  1  0  0  0  0
 27 29  2  0  0  0  0
 27 86  1  0  0  0  0
 28 88  1  0  0  0  0
 29 89  1  0  0  0  0
 30 90  1  0  0  0  0
 31 91  1  0  0  0  0
 32 70  2  0  0  0  0
 33 71  1  0  0  0  0
 33 74  1  0  0  0  0
 34 75  1  0  0  0  0
 34 81  2  0  0  0  0
 35 49  1  0  0  0  0
 35 76  1  0  0  0  0
 35 82  2  0  0  0  0
 36 66  1  0  0  0  0
 36 72  1  0  0  0  0
 36 83  2  0  0  0  0
 37 67  1  0  0  0  0
 37 77  1  0  0  0  0
 37 84  2  0  0  0  0
 38 73  1  0  0  0  0
 38 78  1  0  0  0  0
 38 85  2  0  0  0  0
 39 42  1  0  0  0  0
 40 49  1  0  0  0  0
 41 72  1  0  0  0  0
 42 44  1  0  0  0  0
 43 45  1  0  0  0  0
 43 46  1  0  0  0  0
 44 48  1  0  0  0  0
 45 50  1  0  0  0  0
 46 73  1  0  0  0  0
 47 50  1  0  0  0  0
 47 73  1  0  0  0  0
 48 76  1  0  0  0  0
 49 72  1  0  0  0  0
 50 71  1  0  0  0  0
 52 67  1  0  0  0  0
 53 68  1  0  0  0  0
 54 69  1  0  0  0  0
 55 69  1  0  0  0  0
 56 69  1  0  0  0  0
 57 79  1  0  0  0  0
 58 80  1  0  0  0  0
 59 61  1  0  0  0  0
 60 62  1  0  0  0  0
 61 64  1  0  0  0  0
 62 63  1  0  0  0  0
 63 78  1  0  0  0  0
 64 80  1  0  0  0  0
 65 68  1  0  0  0  0
 65 87  1  0  0  0  0
 66 69  1  0  0  0  0
 66 77  1  0  0  0  0
 67 79  1  0  0  0  0
 68 80  1  0  0  0  0
 70 71  1  0  0  0  0
M  CHG  2  79   1  80   1
M  ISO  4  38 100  65 101  78 100  87 101
M  END
> <Batch ID>
0025

> <Smiles>
CNC(C)C(=O)NC(C(=O)N1Cc2cc([101O:1][101CH2:1]C(C)N(C)CCCc3cc(Cl)c(CCC[100NH:0][100C:0](=O)N4CCCC(n5nc(-c6ccc(Oc7ccc(F)cc7F)cc6)c(C(N)=O)c5N)C4)c(Cl)c3C)ccc2CC1C(=O)NC1CCCc2ccccc21)C(C)(C)C

> <Shape>
0.246

> <Color>
0.066

> <Negative vol penalty>
0.000

$$$$

  -OEChem-04052316243D

 92101  0     1  0  0  0  0  0999 V2000
  -20.0512  -26.0074   22.9352 C   0  0  0  0  0  0  0  0  0  0  0  0
  -19.5615  -24.8207   22.3992 C   0  0  0  0  0  0  0  0  0  0  0  0
  -26.3635  -28.4149   18.7491 C   0  0  0  0  0  0  0  0  0  0  0  0
  -26.3877  -28.1754   21.1531 C   0  0  0  0  0  0  0  0  0  0  0  0
  -21.3566  -26.0649   23.4215 C   0  0  0  0  0  0  0  0  0  0  0  0
  -20.3774  -23.6910   22.3481 C   0  0  0  0  0  0  0  0  0  0  0  0
  -20.0529  -16.5467   22.7596 C   0  0  0  0  0  0  0  0  0  0  0  0
  -25.4173  -29.4337   18.8602 C   0  0  0  0  0  0  0  0  0  0  0  0
  -25.4416  -29.1943   21.2642 C   0  0  0  0  0  0  0  0  0  0  0  0
  -20.4480  -15.4084   22.0582 C   0  0  0  0  0  0  0  0  0  0  0  0
  -22.1004  -29.5437   20.8833 C   0  0  0  0  0  0  0  0  0  0  0  0
  -21.0270  -29.3397   21.7504 C   0  0  0  0  0  0  0  0  0  0  0  0
  -27.1194  -15.6394   21.2040 C   0  0  0  0  0  0  0  0  0  0  0  0
  -22.6602  -15.6030   23.0002 C   0  0  0  0  0  0  0  0  0  0  0  0
  -29.8820  -15.3826   20.9133 C   0  0  0  0  0  0  0  0  0  0  0  0
  -21.6898  -31.2803   23.0277 C   0  0  0  0  0  0  0  0  0  0  0  0
  -26.8486  -27.7856   19.8956 C   0  0  0  0  0  0  0  0  0  0  0  0
  -29.2267  -26.8694   19.7812 C   0  0  0  0  0  0  0  0  0  0  0  0
  -22.1858  -24.9327   23.3851 C   0  0  0  0  0  0  0  0  0  0  0  0
  -20.9632  -17.2291   23.5794 C   0  0  0  0  0  0  0  0  0  0  0  0
  -21.6956  -23.7338   22.8330 C   0  0  0  0  0  0  0  0  0  0  0  0
  -27.6676  -14.4237   20.7953 C   0  0  0  0  0  0  0  0  0  0  0  0
  -22.2735  -16.7483   23.7129 C   0  0  0  0  0  0  0  0  0  0  0  0
  -27.9525  -16.7268   21.4672 C   0  0  0  0  0  0  0  0  0  0  0  0
  -29.3338  -16.5984   21.3219 C   0  0  0  0  0  0  0  0  0  0  0  0
  -24.9564  -29.8235   20.1177 C   0  0  0  0  0  0  0  0  0  0  0  0
  -21.7526  -14.9380   22.1761 C   0  0  0  0  0  0  0  0  0  0  0  0
  -22.9686  -30.6161   21.0885 C   0  0  0  0  0  0  0  0  0  0  0  0
  -20.8217  -30.2080   22.8225 C   0  0  0  0  0  0  0  0  0  0  0  0
  -22.7632  -31.4844   22.1607 C   0  0  0  0  0  0  0  0  0  0  0  0
  -29.0489  -14.2952   20.6500 C   0  0  0  0  0  0  0  0  0  0  0  0
  -27.8256  -26.7327   19.7815 C   0  0  0  0  0  0  0  0  0  0  0  0
  -29.6969  -25.5857   19.6494 C   0  0  0  0  0  0  0  0  0  0  0  0
  -30.0312  -28.0512   19.8904 C   0  0  0  0  0  0  0  0  0  0  0  0
  -22.2033  -20.1558   23.6031 C   0  0  0  0  0  0  0  0  0  0  0  0
  -23.4831  -19.1691   26.4157 C   0  0  0  0  0  0  0  0  0  0  0  0
  -24.4861  -16.5722   28.3896 C   0  0  0  0  0  0  0  0  0  0  0  0
  -27.3482  -20.3678   21.1029 C   0  0  0  0  0  0  0  0  0  0  0  0
  -23.6053  -25.0563   23.8793 C   0  0  0  0  0  0  0  0  0  0  0  0
  -20.5139  -18.4401   24.3503 C   0  0  0  0  0  0  0  0  0  0  0  0
  -23.2834  -17.4330   24.5960 C   0  0  0  0  0  0  0  0  0  0  0  0
  -24.2820  -23.7113   24.1311 C   0  0  0  0  0  0  0  0  0  0  0  0
  -28.5037  -21.3307   17.8112 C   0  0  0  0  0  0  0  0  0  0  0  0
  -24.0384  -22.7638   22.9608 C   0  0  0  0  0  0  0  0  0  0  0  0
  -28.5923  -22.8514   17.9528 C   0  0  0  0  0  0  0  0  0  0  0  0
  -25.8120  -13.6713   19.3559 C   0  0  0  0  0  0  0  0  0  0  0  0
  -27.3013  -20.7742   18.5681 C   0  0  0  0  0  0  0  0  0  0  0  0
  -27.3482  -22.6583   20.1561 C   0  0  0  0  0  0  0  0  0  0  0  0
  -24.7812  -12.5921   19.0630 C   0  0  0  0  0  0  0  0  0  0  0  0
  -24.8662  -11.8341   21.4447 C   0  0  0  0  0  0  0  0  0  0  0  0
  -26.7390  -13.2810   20.5220 C   0  0  2  0  0  0  0  0  0  0  0  0
  -22.5419  -22.4803   22.7827 C   0  0  1  0  0  0  0  0  0  0  0  0
  -21.6675  -19.3529   24.7546 C   0  0  1  0  0  0  0  0  0  0  0  0
  -25.9137  -12.9038   21.7801 C   0  0  2  0  0  0  0  0  0  0  0  0
  -28.5563  -23.2795   19.4318 C   0  0  2  0  0  0  0  0  0  0  0  0
  -30.2447  -17.7495   21.5974 C   0  0  0  0  0  0  0  0  0  0  0  0
  -26.0056  -12.0325   24.1212 C   0  0  0  0  0  0  0  0  0  0  0  0
  -25.5275  -16.0804   30.6192 C   0  0  0  0  0  0  0  0  0  0  0  0
  -23.4360   -9.9510   19.9714 C   0  0  0  0  0  0  0  0  0  0  0  0
  -26.2083  -19.9994   25.3232 C   0  0  0  0  0  0  0  0  0  0  0  0
  -27.2718  -18.6433   27.1392 C   0  0  0  0  0  0  0  0  0  0  0  0
  -25.8230  -20.5882   27.7230 C   0  0  0  0  0  0  0  0  0  0  0  0
  -22.1122  -15.0534   29.2936 C   0  0  0  0  0  0  0  0  0  0  0  0
  -27.3435  -18.0190   21.9030 C   0  0  0  0  0  0  0  0  0  0  0  0
  -26.8067  -12.3883   22.9146 C   0  0  0  0  0  0  0  0  0  0  0  0
  -21.8087  -11.4753   21.1584 C   0  0  0  0  0  0  0  0  0  0  0  0
  -21.1410  -12.8442   21.2286 C   0  0  0  0  0  0  0  0  0  1  0  0
  -24.7610  -18.4771   26.8244 C   0  0  1  0  0  0  0  0  0  0  0  0
  -24.2265  -16.2601   29.8524 C   0  0  2  0  0  0  0  0  0  0  0  0
  -22.8566  -11.3572   20.0498 C   0  0  1  0  0  0  0  0  0  0  0  0
  -25.9978  -19.4150   26.7342 C   0  0  0  0  0  0  0  0  0  0  0  0
  -27.4314  -25.4624   19.6595 N   0  0  0  0  0  0  0  0  0  0  0  0
  -28.5919  -24.7891   19.5811 N   0  0  0  0  0  0  0  0  0  0  0  0
  -22.7978  -18.6167   25.3243 N   0  0  0  0  0  0  0  0  0  0  0  0
  -27.3368  -21.2030   19.9734 N   0  0  0  0  0  0  0  0  0  0  0  0
  -30.9437  -25.0718   19.5863 N   0  0  0  0  0  0  0  0  0  0  0  0
  -29.3864  -29.2889   20.0194 N   0  0  0  0  0  0  0  0  0  0  0  0
  -22.0882  -21.5228   23.7686 N   0  0  0  0  0  0  0  0  0  0  0  0
  -24.5214  -17.9306   28.1557 N   0  0  0  0  0  0  0  0  0  0  0  0
  -27.3290  -19.0029   20.8434 N   0  0  0  0  0  0  0  0  0  0  0  0
  -23.9782  -12.3018   20.3113 N   0  3  2  0  0  0  0  0  0  0  0  0
  -23.4283  -15.0082   29.9813 N   0  3  0  0  0  0  0  0  0  0  0  0
  -31.2846  -28.0124   19.8574 O   0  0  0  0  0  0  0  0  0  0  0  0
  -22.6867  -19.5779   22.6366 O   0  0  0  0  0  0  0  0  0  0  0  0
  -23.1030  -20.1590   27.0461 O   0  0  0  0  0  0  0  0  0  0  0  0
  -24.6455  -15.6983   27.5402 O   0  0  0  0  0  0  0  0  0  0  0  0
  -27.3786  -20.8061   22.2579 O   0  0  0  0  0  0  0  0  0  0  0  0
  -24.0333  -30.8178   20.2264 O   0  0  0  0  0  0  0  0  0  0  0  0
  -22.1410  -13.8276   21.4921 O   0  0  0  0  0  0  0  0  0  1  0  0
  -19.7899  -30.0128   23.6541 F   0  0  0  0  0  0  0  0  0  0  0  0
  -23.5932  -32.5170   22.3622 F   0  0  0  0  0  0  0  0  0  0  0  0
  -29.7632  -12.8065   20.1472 Cl  0  0  0  0  0  0  0  0  0  0  0  0
  1  2  1  0  0  0  0
  1  5  2  0  0  0  0
  2  6  2  0  0  0  0
  3  8  2  0  0  0  0
  3 17  1  0  0  0  0
  4  9  1  0  0  0  0
  4 17  2  0  0  0  0
  5 19  1  0  0  0  0
  6 21  1  0  0  0  0
  7 10  2  0  0  0  0
  7 20  1  0  0  0  0
  8 26  1  0  0  0  0
  9 26  2  0  0  0  0
 10 27  1  0  0  0  0
 11 12  2  0  0  0  0
 11 28  1  0  0  0  0
 12 29  1  0  0  0  0
 13 22  1  0  0  0  0
 13 24  2  0  0  0  0
 14 23  1  0  0  0  0
 14 27  2  0  0  0  0
 15 25  2  0  0  0  0
 15 31  1  0  0  0  0
 16 29  2  0  0  0  0
 16 30  1  0  0  0  0
 17 32  1  0  0  0  0
 18 32  1  0  0  0  0
 18 33  2  0  0  0  0
 18 34  1  0  0  0  0
 19 21  2  0  0  0  0
 19 39  1  0  0  0  0
 20 23  2  0  0  0  0
 20 40  1  0  0  0  0
 21 52  1  0  0  0  0
 22 31  2  0  0  0  0
 22 51  1  0  0  0  0
 23 41  1  0  0  0  0
 24 25  1  0  0  0  0
 24 64  1  0  0  0  0
 25 56  1  0  0  0  0
 26 88  1  0  0  0  0
 27 89  1  0  0  0  0
 28 30  2  0  0  0  0
 28 88  1  0  0  0  0
 29 90  1  0  0  0  0
 30 91  1  0  0  0  0
 31 92  1  0  0  0  0
 32 72  2  0  0  0  0
 33 73  1  0  0  0  0
 33 76  1  0  0  0  0
 34 77  1  0  0  0  0
 34 83  2  0  0  0  0
 35 53  1  0  0  0  0
 35 78  1  0  0  0  0
 35 84  2  0  0  0  0
 36 68  1  0  0  0  0
 36 74  1  0  0  0  0
 36 85  2  0  0  0  0
 37 69  1  0  0  0  0
 37 79  1  0  0  0  0
 37 86  2  0  0  0  0
 38 75  1  0  0  0  0
 38 80  1  0  0  0  0
 38 87  2  0  0  0  0
 39 42  1  0  0  0  0
 40 53  1  0  0  0  0
 41 74  1  0  0  0  0
 42 44  1  0  0  0  0
 43 45  1  0  0  0  0
 43 47  1  0  0  0  0
 44 52  1  0  0  0  0
 45 55  1  0  0  0  0
 46 49  1  0  0  0  0
 46 51  1  0  0  0  0
 47 75  1  0  0  0  0
 48 55  1  0  0  0  0
 48 75  1  0  0  0  0
 49 81  1  0  0  0  0
 50 54  1  0  0  0  0
 50 81  1  0  0  0  0
 51 54  1  0  0  0  0
 52 78  1  0  0  0  0
 53 74  1  0  0  0  0
 54 65  1  0  0  0  0
 55 73  1  0  0  0  0
 57 65  1  0  0  0  0
 58 69  1  0  0  0  0
 59 70  1  0  0  0  0
 60 71  1  0  0  0  0
 61 71  1  0  0  0  0
 62 71  1  0  0  0  0
 63 82  1  0  0  0  0
 64 80  1  0  0  0  0
 66 67  1  0  0  0  0
 66 70  1  0  0  0  0
 67 89  1  0  0  0  0
 68 71  1  0  0  0  0
 68 79  1  0  0  0  0
 69 82  1  0  0  0  0
 70 81  1  0  0  0  0
 72 73  1  0  0  0  0
M  CHG  2  81   1  82   1
M  ISO  4  38 100  67 101  80 100  89 101
M  END
> <Batch ID>
0025

> <Smiles>
CCC1CN(C(C)C[101CH2:1][101O:1]c2ccc3c(c2)CN(C(=O)C(NC(=O)C(C)NC)C(C)(C)C)C(C(=O)NC2CCCc4ccccc42)C3)CCC1c1cc(C[100NH:0][100C:0](=O)N2CCCC(n3nc(-c4ccc(Oc5ccc(F)cc5F)cc4)c(C(N)=O)c3N)C2)c(C)cc1Cl

> <Shape>
0.226

> <Color>
0.052

> <Negative vol penalty>
0.000

$$$$

  -OEChem-04052316243D

 86 94  0     1  0  0  0  0  0999 V2000
  -27.5309  -32.8236   27.2671 C   0  0  0  0  0  0  0  0  0  0  0  0
  -27.7895  -31.7740   26.3914 C   0  0  0  0  0  0  0  0  0  0  0  0
  -26.1292  -11.9623   21.4297 C   0  0  0  0  0  0  0  0  0  0  0  0
  -25.6227  -13.2386   19.4419 C   0  0  0  0  0  0  0  0  0  0  0  0
  -26.2153  -33.1476   27.5960 C   0  0  0  0  0  0  0  0  0  0  0  0
  -26.7325  -31.0471   25.8448 C   0  0  0  0  0  0  0  0  0  0  0  0
  -27.3009  -30.2270   20.8800 C   0  0  0  0  0  0  0  0  0  0  0  0
  -24.7755  -11.9481   21.7656 C   0  0  0  0  0  0  0  0  0  0  0  0
  -24.2689  -13.2244   19.7777 C   0  0  0  0  0  0  0  0  0  0  0  0
  -28.1832  -29.2172   20.4983 C   0  0  0  0  0  0  0  0  0  0  0  0
  -21.9976  -10.2558   20.8424 C   0  0  0  0  0  0  0  0  0  0  0  0
  -21.4473   -9.0460   21.2653 C   0  0  0  0  0  0  0  0  0  0  0  0
  -26.3185  -27.7258   20.1554 C   0  0  0  0  0  0  0  0  0  0  0  0
  -31.9773  -20.1834   18.4215 C   0  0  0  0  0  0  0  0  0  0  0  0
  -30.4213  -20.3494   16.1119 C   0  0  0  0  0  0  0  0  0  0  0  0
  -20.8581  -10.0534   23.3807 C   0  0  0  0  0  0  0  0  0  0  0  0
  -26.5528  -12.6076   20.2678 C   0  0  0  0  0  0  0  0  0  0  0  0
  -28.6433  -11.6795   19.1381 C   0  0  0  0  0  0  0  0  0  0  0  0
  -25.1413  -32.4305   27.0456 C   0  0  0  0  0  0  0  0  0  0  0  0
  -25.9191  -29.9900   20.9127 C   0  0  0  0  0  0  0  0  0  0  0  0
  -25.4013  -31.3609   26.1676 C   0  0  0  0  0  0  0  0  0  0  0  0
  -25.4206  -28.7350   20.5354 C   0  0  0  0  0  0  0  0  0  0  0  0
  -31.7956  -21.4137   17.7899 C   0  0  0  0  0  0  0  0  0  0  0  0
  -31.0176  -21.4967   16.6352 C   0  0  0  0  0  0  0  0  0  0  0  0
  -31.3811  -19.0360   17.8982 C   0  0  0  0  0  0  0  0  0  0  0  0
  -23.8453  -12.5791   20.9396 C   0  0  0  0  0  0  0  0  0  0  0  0
  -27.6923  -27.9655   20.1388 C   0  0  0  0  0  0  0  0  0  0  0  0
  -21.9782  -11.3646   21.6886 C   0  0  0  0  0  0  0  0  0  0  0  0
  -20.8775   -8.9447   22.5345 C   0  0  0  0  0  0  0  0  0  0  0  0
  -21.4085  -11.2634   22.9578 C   0  0  0  0  0  0  0  0  0  0  0  0
  -30.6031  -19.1190   16.7435 C   0  0  0  0  0  0  0  0  0  0  0  0
  -27.9511  -12.6231   19.9206 C   0  0  0  0  0  0  0  0  0  0  0  0
  -29.9359  -12.1427   19.1051 C   0  0  0  0  0  0  0  0  0  0  0  0
  -28.1609  -10.4906   18.4982 C   0  0  0  0  0  0  0  0  0  0  0  0
  -23.6918  -30.0171   23.1803 C   0  0  0  0  0  0  0  0  0  0  0  0
  -21.6871  -29.5541   20.6724 C   0  0  0  0  0  0  0  0  0  0  0  0
  -21.2542  -28.4344   17.4778 C   0  0  0  0  0  0  0  0  0  0  0  0
  -32.3411  -17.5785   19.7149 C   0  0  0  0  0  0  0  0  0  0  0  0
  -23.7380  -32.7872   27.4677 C   0  0  0  0  0  0  0  0  0  0  0  0
  -24.9788  -31.0978   21.3010 C   0  0  0  0  0  0  0  0  0  0  0  0
  -23.9445  -28.4357   20.5342 C   0  0  0  0  0  0  0  0  0  0  0  0
  -22.6613  -32.2084   26.5534 C   0  0  0  0  0  0  0  0  0  0  0  0
  -33.0652  -14.6972   21.6773 C   0  0  0  0  0  0  0  0  0  0  0  0
  -22.9420  -30.7375   26.2626 C   0  0  0  0  0  0  0  0  0  0  0  0
  -31.9021  -13.7501   21.3736 C   0  0  0  0  0  0  0  0  0  0  0  0
  -32.6101  -16.1544   21.7335 C   0  0  0  0  0  0  0  0  0  0  0  0
  -30.7018  -15.6708   20.2524 C   0  0  0  0  0  0  0  0  0  0  0  0
  -24.2807  -30.5648   25.5348 C   0  0  1  0  0  0  0  0  0  0  0  0
  -23.6270  -30.5894   21.7925 C   0  0  1  0  0  0  0  0  0  0  0  0
  -31.1228  -14.1980   20.1215 C   0  0  2  0  0  0  0  0  0  0  0  0
  -32.4470  -22.6277   18.3667 C   0  0  0  0  0  0  0  0  0  0  0  0
  -19.4948  -28.1517   15.7109 C   0  0  0  0  0  0  0  0  0  0  0  0
  -28.6551  -24.8721   14.8827 C   0  0  0  0  0  0  0  0  0  0  0  0
  -20.5805  -27.1338   22.1650 C   0  0  0  0  0  0  0  0  0  0  0  0
  -19.5531  -26.3652   20.0151 C   0  0  0  0  0  0  0  0  0  0  0  0
  -18.8520  -28.5360   21.0246 C   0  0  0  0  0  0  0  0  0  0  0  0
  -22.6793  -30.2312   15.6070 C   0  0  0  0  0  0  0  0  0  0  0  0
  -30.8083  -22.8089   15.9385 C   0  0  0  0  0  0  0  0  0  0  0  0
  -30.2295  -26.3013   18.1626 C   0  0  0  0  0  0  0  0  0  0  0  0
  -29.2030  -26.0537   17.0494 C   0  0  0  0  0  0  0  0  0  0  0  0
  -29.7686  -27.3785   19.1385 C   0  0  0  0  0  0  0  0  0  1  0  0
  -21.1346  -28.3467   19.9541 C   0  0  1  0  0  0  0  0  0  0  0  0
  -20.5752  -29.0620   16.2738 C   0  0  2  0  0  0  0  0  0  0  0  0
  -29.6702  -25.0312   16.0070 C   0  0  1  0  0  0  0  0  0  0  0  0
  -20.0581  -27.6002   20.7915 C   0  0  0  0  0  0  0  0  0  0  0  0
  -28.7389  -13.6110   20.3536 N   0  0  0  0  0  0  0  0  0  0  0  0
  -29.9394  -13.2907   19.8415 N   0  0  0  0  0  0  0  0  0  0  0  0
  -23.0658  -29.5496   20.9276 N   0  0  0  0  0  0  0  0  0  0  0  0
  -31.8829  -16.5087   20.5126 N   0  0  0  0  0  0  0  0  0  0  0  0
  -31.0585  -11.6759   18.5184 N   0  0  0  0  0  0  0  0  0  0  0  0
  -26.8051  -10.1620   18.6336 N   0  0  0  0  0  0  0  0  0  0  0  0
  -31.5888  -17.8016   18.5622 N   0  0  0  0  0  0  0  0  0  0  0  0
  -24.1431  -30.9077   24.1356 N   0  0  0  0  0  0  0  0  0  0  0  0
  -20.6601  -28.8235   18.6596 N   0  0  0  0  0  0  0  0  0  0  0  0
  -21.5716  -29.3296   15.1983 N   0  3  0  0  0  0  0  0  0  0  0  0
  -29.8552  -23.7000   16.6493 N   0  3  0  0  0  0  0  0  0  0  0  0
  -28.9133   -9.7330   17.8398 O   0  0  0  0  0  0  0  0  0  0  0  0
  -23.3556  -28.8541   23.3705 O   0  0  0  0  0  0  0  0  0  0  0  0
  -20.9248  -30.4708   20.9888 O   0  0  0  0  0  0  0  0  0  0  0  0
  -22.2133  -27.6721   17.3794 O   0  0  0  0  0  0  0  0  0  0  0  0
  -33.3442  -18.2300   20.0170 O   0  0  0  0  0  0  0  0  0  0  0  0
  -22.5243  -12.5653   21.2669 O   0  0  0  0  0  0  0  0  0  0  0  0
  -28.5513  -26.9779   19.7665 O   0  0  0  0  0  0  0  0  0  1  0  0
  -20.3478   -7.7832   22.9399 F   0  0  0  0  0  0  0  0  0  0  0  0
  -21.3859  -12.3254   23.7747 F   0  0  0  0  0  0  0  0  0  0  0  0
  -29.8461  -17.7232   16.0621 Cl  0  0  0  0  0  0  0  0  0  0  0  0
  1  2  1  0  0  0  0
  1  5  2  0  0  0  0
  2  6  2  0  0  0  0
  3  8  2  0  0  0  0
  3 17  1  0  0  0  0
  4  9  1  0  0  0  0
  4 17  2  0  0  0  0
  5 19  1  0  0  0  0
  6 21  1  0  0  0  0
  7 10  2  0  0  0  0
  7 20  1  0  0  0  0
  8 26  1  0  0  0  0
  9 26  2  0  0  0  0
 10 27  1  0  0  0  0
 11 12  2  0  0  0  0
 11 28  1  0  0  0  0
 12 29  1  0  0  0  0
 13 22  1  0  0  0  0
 13 27  2  0  0  0  0
 14 23  1  0  0  0  0
 14 25  2  0  0  0  0
 15 24  1  0  0  0  0
 15 31  2  0  0  0  0
 16 29  2  0  0  0  0
 16 30  1  0  0  0  0
 17 32  1  0  0  0  0
 18 32  1  0  0  0  0
 18 33  2  0  0  0  0
 18 34  1  0  0  0  0
 19 21  2  0  0  0  0
 19 39  1  0  0  0  0
 20 22  2  0  0  0  0
 20 40  1  0  0  0  0
 21 48  1  0  0  0  0
 22 41  1  0  0  0  0
 23 24  2  0  0  0  0
 23 51  1  0  0  0  0
 24 58  1  0  0  0  0
 25 31  1  0  0  0  0
 25 72  1  0  0  0  0
 26 82  1  0  0  0  0
 27 83  1  0  0  0  0
 28 30  2  0  0  0  0
 28 82  1  0  0  0  0
 29 84  1  0  0  0  0
 30 85  1  0  0  0  0
 31 86  1  0  0  0  0
 32 66  2  0  0  0  0
 33 67  1  0  0  0  0
 33 70  1  0  0  0  0
 34 71  1  0  0  0  0
 34 77  2  0  0  0  0
 35 49  1  0  0  0  0
 35 73  1  0  0  0  0
 35 78  2  0  0  0  0
 36 62  1  0  0  0  0
 36 68  1  0  0  0  0
 36 79  2  0  0  0  0
 37 63  1  0  0  0  0
 37 74  1  0  0  0  0
 37 80  2  0  0  0  0
 38 69  1  0  0  0  0
 38 72  1  0  0  0  0
 38 81  2  0  0  0  0
 39 42  1  0  0  0  0
 40 49  1  0  0  0  0
 41 68  1  0  0  0  0
 42 44  1  0  0  0  0
 43 45  1  0  0  0  0
 43 46  1  0  0  0  0
 44 48  1  0  0  0  0
 45 50  1  0  0  0  0
 46 69  1  0  0  0  0
 47 50  1  0  0  0  0
 47 69  1  0  0  0  0
 48 73  1  0  0  0  0
 49 68  1  0  0  0  0
 50 67  1  0  0  0  0
 52 63  1  0  0  0  0
 53 64  1  0  0  0  0
 54 65  1  0  0  0  0
 55 65  1  0  0  0  0
 56 65  1  0  0  0  0
 57 75  1  0  0  0  0
 58 76  1  0  0  0  0
 59 60  1  0  0  0  0
 59 61  1  0  0  0  0
 60 64  1  0  0  0  0
 61 83  1  0  0  0  0
 62 65  1  0  0  0  0
 62 74  1  0  0  0  0
 63 75  1  0  0  0  0
 64 76  1  0  0  0  0
 66 67  1  0  0  0  0
M  CHG  2  75   1  76   1
M  ISO  4  38 100  61 101  72 100  83 101
M  END
> <Batch ID>
0025

> <Smiles>
CNC(C)C(=O)NC(C(=O)N1Cc2cc([101O:1][101CH2:1]CCC(C)NCc3cc(Cl)c([100NH:0][100C:0](=O)N4CCCC(n5nc(-c6ccc(Oc7ccc(F)cc7F)cc6)c(C(N)=O)c5N)C4)cc3C)ccc2CC1C(=O)NC1CCCc2ccccc21)C(C)(C)C

> <Shape>
0.282

> <Color>
0.097

> <Negative vol penalty>
0.000

$$$$

  -OEChem-04052316243D

 90 98  0     1  0  0  0  0  0999 V2000
  -18.7029  -18.2058   18.9136 C   0  0  0  0  0  0  0  0  0  0  0  0
  -19.2232  -17.0524   19.4918 C   0  0  0  0  0  0  0  0  0  0  0  0
  -23.2010   -9.8515   19.9525 C   0  0  0  0  0  0  0  0  0  0  0  0
  -23.9123   -9.9301   22.2601 C   0  0  0  0  0  0  0  0  0  0  0  0
  -19.2225  -19.4527   19.2590 C   0  0  0  0  0  0  0  0  0  0  0  0
  -20.2642  -17.1451   20.4149 C   0  0  0  0  0  0  0  0  0  0  0  0
  -22.8122  -13.9455   26.2960 C   0  0  0  0  0  0  0  0  0  0  0  0
  -22.5094   -8.6670   20.2060 C   0  0  0  0  0  0  0  0  0  0  0  0
  -23.2207   -8.7456   22.5136 C   0  0  0  0  0  0  0  0  0  0  0  0
  -23.9926  -13.4015   26.8005 C   0  0  0  0  0  0  0  0  0  0  0  0
  -20.0238   -7.7989   23.0648 C   0  0  0  0  0  0  0  0  0  0  0  0
  -19.2458   -7.7392   24.2209 C   0  0  0  0  0  0  0  0  0  0  0  0
  -24.7575  -15.6146   27.3805 C   0  0  0  0  0  0  0  0  0  0  0  0
  -30.5141  -14.9619   25.3132 C   0  0  0  0  0  0  0  0  0  0  0  0
  -20.5651   -5.8765   25.0126 C   0  0  0  0  0  0  0  0  0  0  0  0
  -23.9025  -10.4831   20.9795 C   0  0  0  0  0  0  0  0  0  0  0  0
  -24.1227  -13.0199   20.8260 C   0  0  0  0  0  0  0  0  0  0  0  0
  -20.2638  -19.5615   20.1941 C   0  0  0  0  0  0  0  0  0  0  0  0
  -22.6000  -15.3314   26.3200 C   0  0  0  0  0  0  0  0  0  0  0  0
  -20.7991  -18.3945   20.7722 C   0  0  0  0  0  0  0  0  0  0  0  0
  -23.5725  -16.1735   26.8780 C   0  0  0  0  0  0  0  0  0  0  0  0
  -30.6811  -15.8479   24.2490 C   0  0  0  0  0  0  0  0  0  0  0  0
  -29.3916  -16.6894   26.5753 C   0  0  0  0  0  0  0  0  0  0  0  0
  -29.5586  -17.5755   25.5111 C   0  0  0  0  0  0  0  0  0  0  0  0
  -29.8692  -15.3826   26.4764 C   0  0  0  0  0  0  0  0  0  0  0  0
  -22.5193   -8.1140   21.4866 C   0  0  0  0  0  0  0  0  0  0  0  0
  -24.9667  -14.2363   27.3403 C   0  0  0  0  0  0  0  0  0  0  0  0
  -21.0724   -6.8973   22.8824 C   0  0  0  0  0  0  0  0  0  0  0  0
  -19.5165   -6.7781   25.1949 C   0  0  0  0  0  0  0  0  0  0  0  0
  -21.3431   -5.9362   23.8564 C   0  0  0  0  0  0  0  0  0  0  0  0
  -30.2035  -17.1547   24.3479 C   0  0  0  0  0  0  0  0  0  0  0  0
  -24.6175  -11.7064   20.7181 C   0  0  0  0  0  0  0  0  0  0  0  0
  -25.1841  -13.8167   20.4725 C   0  0  0  0  0  0  0  0  0  0  0  0
  -22.8202  -13.4787   21.2114 C   0  0  0  0  0  0  0  0  0  0  0  0
  -22.1562  -17.5714   24.1089 C   0  0  0  0  0  0  0  0  0  0  0  0
  -21.6340  -19.4652   26.6902 C   0  0  0  0  0  0  0  0  0  0  0  0
  -22.1405  -20.0326   30.0171 C   0  0  0  0  0  0  0  0  0  0  0  0
  -30.9478  -14.0585   20.9581 C   0  0  0  0  0  0  0  0  0  0  0  0
  -20.8246  -20.9276   20.5004 C   0  0  0  0  0  0  0  0  0  0  0  0
  -21.3099  -15.9002   25.7961 C   0  0  0  0  0  0  0  0  0  0  0  0
  -23.3844  -17.6663   26.9459 C   0  0  0  0  0  0  0  0  0  0  0  0
  -21.6750  -20.9668   21.7676 C   0  0  0  0  0  0  0  0  0  0  0  0
  -29.3567  -13.1284   17.9118 C   0  0  0  0  0  0  0  0  0  0  0  0
  -22.6543  -19.7975   21.7897 C   0  0  0  0  0  0  0  0  0  0  0  0
  -27.9265  -12.7890   18.3349 C   0  0  0  0  0  0  0  0  0  0  0  0
  -30.3741  -12.7006   18.9672 C   0  0  0  0  0  0  0  0  0  0  0  0
  -28.6794  -12.8723   20.7484 C   0  0  0  0  0  0  0  0  0  0  0  0
  -21.9116  -18.4559   21.7961 C   0  0  1  0  0  0  0  0  0  0  0  0
  -21.4207  -17.3703   25.4036 C   0  0  1  0  0  0  0  0  0  0  0  0
  -27.6131  -13.3351   19.7409 C   0  0  2  0  0  0  0  0  0  0  0  0
  -28.7000  -17.1450   27.8217 C   0  0  0  0  0  0  0  0  0  0  0  0
  -29.0553  -18.9794   25.5952 C   0  0  0  0  0  0  0  0  0  0  0  0
  -30.3510  -14.0145   32.4332 C   0  0  0  0  0  0  0  0  0  0  0  0
  -21.6213  -21.6822   31.8355 C   0  0  0  0  0  0  0  0  0  0  0  0
  -31.7966  -13.3634   28.1427 C   0  0  0  0  0  0  0  0  0  0  0  0
  -28.4581  -12.7456   26.4074 C   0  0  0  0  0  0  0  0  0  0  0  0
  -23.7468  -21.3605   25.5706 C   0  0  0  0  0  0  0  0  0  0  0  0
  -23.8679  -22.4449   27.8239 C   0  0  0  0  0  0  0  0  0  0  0  0
  -21.7345  -22.4922   26.5320 C   0  0  0  0  0  0  0  0  0  0  0  0
  -20.6663  -18.0073   31.5932 C   0  0  0  0  0  0  0  0  0  0  0  0
  -31.3703  -15.3942   23.0066 C   0  0  0  0  0  0  0  0  0  0  0  0
  -30.9956  -14.3930   31.1086 C   0  0  0  0  0  0  0  0  0  0  0  0
  -30.1211  -13.9759   29.9222 C   0  0  0  0  0  0  0  0  0  0  0  0
  -27.2906  -14.5207   27.7581 C   0  0  0  0  0  0  0  0  0  1  0  0
  -22.5011  -20.3228   27.5799 C   0  0  1  0  0  0  0  0  0  0  0  0
  -21.1813  -20.4075   31.1325 C   0  0  2  0  0  0  0  0  0  0  0  0
  -30.7343  -14.3709   28.5712 C   0  0  2  0  0  0  0  0  0  0  0  0
  -28.5336  -13.6418   27.6365 C   0  0  2  0  0  0  0  0  0  0  0  0
  -22.9673  -21.6272   26.8737 C   0  0  0  0  0  0  0  0  0  0  0  0
  -25.8938  -11.6667   20.3265 N   0  0  0  0  0  0  0  0  0  0  0  0
  -26.2100  -12.9652   20.1852 N   0  0  0  0  0  0  0  0  0  0  0  0
  -22.1089  -18.1750   26.4151 N   0  0  0  0  0  0  0  0  0  0  0  0
  -30.0202  -13.2530   20.2770 N   0  0  0  0  0  0  0  0  0  0  0  0
  -25.3306  -15.1557   20.3825 N   0  0  0  0  0  0  0  0  0  0  0  0
  -21.8472  -12.5260   21.5431 N   0  0  0  0  0  0  0  0  0  0  0  0
  -21.3993  -18.1682   23.1187 N   0  0  0  0  0  0  0  0  0  0  0  0
  -21.7369  -20.5456   28.8026 N   0  0  0  0  0  0  0  0  0  0  0  0
  -30.5302  -14.5466   22.1902 N   0  0  0  0  0  0  0  0  0  0  0  0
  -29.7117  -14.4794   27.5332 N   0  0  3  0  0  0  0  0  0  0  0  0
  -21.1092  -19.3144   32.1429 N   0  3  0  0  0  0  0  0  0  0  0  0
  -22.5228  -14.6969   21.2445 O   0  0  0  0  0  0  0  0  0  0  0  0
  -23.3244  -17.2132   24.0156 O   0  0  0  0  0  0  0  0  0  0  0  0
  -20.5709  -19.9206   26.2612 O   0  0  0  0  0  0  0  0  0  0  0  0
  -23.1489  -19.3556   30.2053 O   0  0  0  0  0  0  0  0  0  0  0  0
  -32.0633  -14.3274   20.4995 O   0  0  0  0  0  0  0  0  0  0  0  0
  -21.8444   -6.9583   21.7344 O   0  0  0  0  0  0  0  0  0  0  0  0
  -26.1200  -13.7080   27.8329 O   0  0  0  0  0  0  0  0  0  1  0  0
  -18.7703   -6.7219   26.3058 F   0  0  0  0  0  0  0  0  0  0  0  0
  -22.3499   -5.0681   23.6874 F   0  0  0  0  0  0  0  0  0  0  0  0
  -30.3639  -18.0056   23.3233 F   0  0  0  0  0  0  0  0  0  0  0  0
  1  2  1  0  0  0  0
  1  5  2  0  0  0  0
  2  6  2  0  0  0  0
  3  8  2  0  0  0  0
  3 16  1  0  0  0  0
  4  9  1  0  0  0  0
  4 16  2  0  0  0  0
  5 18  1  0  0  0  0
  6 20  1  0  0  0  0
  7 10  2  0  0  0  0
  7 19  1  0  0  0  0
  8 26  1  0  0  0  0
  9 26  2  0  0  0  0
 10 27  1  0  0  0  0
 11 12  2  0  0  0  0
 11 28  1  0  0  0  0
 12 29  1  0  0  0  0
 13 21  1  0  0  0  0
 13 27  2  0  0  0  0
 14 22  2  0  0  0  0
 14 25  1  0  0  0  0
 15 29  2  0  0  0  0
 15 30  1  0  0  0  0
 16 32  1  0  0  0  0
 17 32  1  0  0  0  0
 17 33  2  0  0  0  0
 17 34  1  0  0  0  0
 18 20  2  0  0  0  0
 18 39  1  0  0  0  0
 19 21  2  0  0  0  0
 19 40  1  0  0  0  0
 20 48  1  0  0  0  0
 21 41  1  0  0  0  0
 22 31  1  0  0  0  0
 22 61  1  0  0  0  0
 23 24  1  0  0  0  0
 23 25  2  0  0  0  0
 23 51  1  0  0  0  0
 24 31  2  0  0  0  0
 24 52  1  0  0  0  0
 25 79  1  0  0  0  0
 26 86  1  0  0  0  0
 27 87  1  0  0  0  0
 28 30  2  0  0  0  0
 28 86  1  0  0  0  0
 29 88  1  0  0  0  0
 30 89  1  0  0  0  0
 31 90  1  0  0  0  0
 32 70  2  0  0  0  0
 33 71  1  0  0  0  0
 33 74  1  0  0  0  0
 34 75  1  0  0  0  0
 34 81  2  0  0  0  0
 35 49  1  0  0  0  0
 35 76  1  0  0  0  0
 35 82  2  0  0  0  0
 36 65  1  0  0  0  0
 36 72  1  0  0  0  0
 36 83  2  0  0  0  0
 37 66  1  0  0  0  0
 37 77  1  0  0  0  0
 37 84  2  0  0  0  0
 38 73  1  0  0  0  0
 38 78  1  0  0  0  0
 38 85  2  0  0  0  0
 39 42  1  0  0  0  0
 40 49  1  0  0  0  0
 41 72  1  0  0  0  0
 42 44  1  0  0  0  0
 43 45  1  0  0  0  0
 43 46  1  0  0  0  0
 44 48  1  0  0  0  0
 45 50  1  0  0  0  0
 46 73  1  0  0  0  0
 47 50  1  0  0  0  0
 47 73  1  0  0  0  0
 48 76  1  0  0  0  0
 49 72  1  0  0  0  0
 50 71  1  0  0  0  0
 53 62  1  0  0  0  0
 54 66  1  0  0  0  0
 55 67  1  0  0  0  0
 56 68  1  0  0  0  0
 57 69  1  0  0  0  0
 58 69  1  0  0  0  0
 59 69  1  0  0  0  0
 60 80  1  0  0  0  0
 61 78  1  0  0  0  0
 62 63  1  0  0  0  0
 63 67  1  0  0  0  0
 64 68  1  0  0  0  0
 64 87  1  0  0  0  0
 65 69  1  0  0  0  0
 65 77  1  0  0  0  0
 66 80  1  0  0  0  0
 67 79  1  0  0  0  0
 68 79  1  0  0  0  0
 70 71  1  0  0  0  0
M  CHG  1  80   1
M  ISO  4  38 100  64 101  78 100  87 101
M  END
> <Batch ID>
0025

> <Smiles>
CCCC(C)N(c1cc(C[100NH:0][100C:0](=O)N2CCCC(n3nc(-c4ccc(Oc5ccc(F)cc5F)cc4)c(C(N)=O)c3N)C2)c(F)c(C)c1C)C(C)[101CH2:1][101O:1]c1ccc2c(c1)CN(C(=O)C(NC(=O)C(C)NC)C(C)(C)C)C(C(=O)NC1CCCc3ccccc31)C2

> <Shape>
0.153

> <Color>
0.189

> <Negative vol penalty>
0.000

$$$$

  -OEChem-04052316243D

 90 98  0     1  0  0  0  0  0999 V2000
  -30.2223  -24.7829   13.9553 C   0  0  0  0  0  0  0  0  0  0  0  0
  -29.0341  -24.5393   14.6367 C   0  0  0  0  0  0  0  0  0  0  0  0
  -24.1446  -11.4720   23.8849 C   0  0  0  0  0  0  0  0  0  0  0  0
  -24.3234  -13.8187   24.4309 C   0  0  0  0  0  0  0  0  0  0  0  0
  -31.3344  -25.2634   14.6455 C   0  0  0  0  0  0  0  0  0  0  0  0
  -28.9576  -24.7752   16.0089 C   0  0  0  0  0  0  0  0  0  0  0  0
  -24.0913  -26.7933   19.1318 C   0  0  0  0  0  0  0  0  0  0  0  0
  -23.6907  -11.2060   25.1767 C   0  0  0  0  0  0  0  0  0  0  0  0
  -23.8694  -13.5527   25.7227 C   0  0  0  0  0  0  0  0  0  0  0  0
  -23.1238  -26.1345   19.8892 C   0  0  0  0  0  0  0  0  0  0  0  0
  -20.7995  -11.4847   26.9077 C   0  0  0  0  0  0  0  0  0  0  0  0
  -19.6994  -10.6386   27.0468 C   0  0  0  0  0  0  0  0  0  0  0  0
  -24.3790  -26.6087   21.8939 C   0  0  0  0  0  0  0  0  0  0  0  0
  -21.0376   -9.1145   28.3596 C   0  0  0  0  0  0  0  0  0  0  0  0
  -24.4611  -12.7784   23.5120 C   0  0  0  0  0  0  0  0  0  0  0  0
  -24.1500  -13.3754   21.0514 C   0  0  0  0  0  0  0  0  0  0  0  0
  -31.2686  -25.5145   16.0251 C   0  0  0  0  0  0  0  0  0  0  0  0
  -25.2173  -27.3561   19.7496 C   0  0  0  0  0  0  0  0  0  0  0  0
  -30.0702  -25.2583   16.7184 C   0  0  0  0  0  0  0  0  0  0  0  0
  -25.3581  -27.2762   21.1424 C   0  0  0  0  0  0  0  0  0  0  0  0
  -24.8877  -20.5768   20.8694 C   0  0  0  0  0  0  0  0  0  0  0  0
  -25.7730  -21.4069   20.1819 C   0  0  0  0  0  0  0  0  0  0  0  0
  -27.5277  -19.7705   20.4658 C   0  0  0  0  0  0  0  0  0  0  0  0
  -23.5530  -12.2463   26.0956 C   0  0  0  0  0  0  0  0  0  0  0  0
  -23.2689  -26.0396   21.2702 C   0  0  0  0  0  0  0  0  0  0  0  0
  -22.0187  -11.1457   27.4945 C   0  0  0  0  0  0  0  0  0  0  0  0
  -19.8184   -9.4535   27.7727 C   0  0  0  0  0  0  0  0  0  0  0  0
  -22.1377   -9.9606   28.2205 C   0  0  0  0  0  0  0  0  0  0  0  0
  -25.3223  -19.3436   21.3552 C   0  0  0  0  0  0  0  0  0  0  0  0
  -27.0930  -21.0037   19.9801 C   0  0  0  0  0  0  0  0  0  0  0  0
  -26.6423  -18.9404   21.1534 C   0  0  0  0  0  0  0  0  0  0  0  0
  -24.9306  -13.0537   22.1779 C   0  0  0  0  0  0  0  0  0  0  0  0
  -25.0620  -13.5426   20.0381 C   0  0  0  0  0  0  0  0  0  0  0  0
  -22.7277  -13.5112   20.9317 C   0  0  0  0  0  0  0  0  0  0  0  0
  -28.3537  -26.8742   19.5636 C   0  0  0  0  0  0  0  0  0  0  0  0
  -28.4737  -29.4632   21.5142 C   0  0  0  0  0  0  0  0  0  0  0  0
  -26.9008  -31.4322   23.8155 C   0  0  0  0  0  0  0  0  0  0  0  0
  -30.8642  -15.0197   19.9771 C   0  0  0  0  0  0  0  0  0  0  0  0
  -32.5109  -25.9889   16.7366 C   0  0  0  0  0  0  0  0  0  0  0  0
  -26.2386  -28.0866   18.9215 C   0  0  0  0  0  0  0  0  0  0  0  0
  -26.5382  -27.8813   21.8562 C   0  0  0  0  0  0  0  0  0  0  0  0
  -32.2357  -26.5682   18.1219 C   0  0  0  0  0  0  0  0  0  0  0  0
  -29.3893  -12.0789   18.6159 C   0  0  0  0  0  0  0  0  0  0  0  0
  -31.2972  -25.6558   18.9052 C   0  0  0  0  0  0  0  0  0  0  0  0
  -28.0089  -12.0242   19.2728 C   0  0  0  0  0  0  0  0  0  0  0  0
  -30.4508  -12.6103   19.5765 C   0  0  0  0  0  0  0  0  0  0  0  0
  -28.7497  -13.8548   20.8536 C   0  0  0  0  0  0  0  0  0  0  0  0
  -29.9406  -25.5253   18.2023 C   0  0  1  0  0  0  0  0  0  0  0  0
  -27.6033  -28.1755   19.5976 C   0  0  1  0  0  0  0  0  0  0  0  0
  -27.6355  -13.3779   19.9063 C   0  0  2  0  0  0  0  0  0  0  0  0
  -25.2840  -22.7265   19.6695 C   0  0  0  0  0  0  0  0  0  0  0  0
  -27.2665  -33.4531   25.2577 C   0  0  0  0  0  0  0  0  0  0  0  0
  -30.1741  -27.7930   23.4192 C   0  0  0  0  0  0  0  0  0  0  0  0
  -29.7086  -29.4838   25.2060 C   0  0  0  0  0  0  0  0  0  0  0  0
  -30.9363  -30.1587   23.1421 C   0  0  0  0  0  0  0  0  0  0  0  0
  -24.7012  -32.9124   22.5003 C   0  0  0  0  0  0  0  0  0  0  0  0
  -23.4633  -20.9889   21.0984 C   0  0  0  0  0  0  0  0  0  0  0  0
  -30.7605  -18.2491   19.2039 C   0  0  0  0  0  0  0  0  0  0  0  0
  -21.8817  -23.5451   23.4703 C   0  0  0  0  0  0  0  0  0  0  0  0
  -29.2790  -18.6139   19.1164 C   0  0  0  0  0  0  0  0  0  0  0  0
  -31.1301  -17.4421   20.4467 C   0  0  0  0  0  0  0  0  0  0  0  0
  -21.9311  -22.5018   22.3641 C   0  0  0  0  0  0  0  0  0  0  0  0
  -22.7667  -24.7577   23.2093 C   0  0  0  0  0  0  0  0  0  1  0  0
  -28.4579  -29.6776   23.0085 C   0  0  1  0  0  0  0  0  0  0  0  0
  -26.7558  -32.9397   23.9204 C   0  0  2  0  0  0  0  0  0  0  0  0
  -29.7979  -29.2651   23.6806 C   0  0  0  0  0  0  0  0  0  0  0  0
  -26.2379  -13.0179   21.9062 N   0  0  0  0  0  0  0  0  0  0  0  0
  -26.2857  -13.3192   20.5974 N   0  0  0  0  0  0  0  0  0  0  0  0
  -27.5130  -28.5798   21.0021 N   0  0  0  0  0  0  0  0  0  0  0  0
  -30.0363  -13.8969   20.1411 N   0  0  0  0  0  0  0  0  0  0  0  0
  -24.9285  -13.8574   18.7322 N   0  0  0  0  0  0  0  0  0  0  0  0
  -21.9386  -13.3053   22.0716 N   0  0  0  0  0  0  0  0  0  0  0  0
  -28.8675  -19.3578   20.2623 N   0  0  0  0  0  0  0  0  0  0  0  0
  -29.1347  -26.7044   18.4363 N   0  0  0  0  0  0  0  0  0  0  0  0
  -28.0900  -31.0740   23.2166 N   0  0  0  0  0  0  0  0  0  0  0  0
  -30.3938  -16.2009   20.5375 N   0  0  0  0  0  0  0  0  0  0  0  0
  -25.3253  -33.3334   23.7811 N   0  3  0  0  0  0  0  0  0  0  0  0
  -23.3191  -22.0264   22.1569 N   0  3  0  0  0  0  0  0  0  0  0  0
  -22.1718  -13.7901   19.8424 O   0  0  0  0  0  0  0  0  0  0  0  0
  -28.2343  -26.0835   20.4921 O   0  0  0  0  0  0  0  0  0  0  0  0
  -29.3032  -30.0632   20.8260 O   0  0  0  0  0  0  0  0  0  0  0  0
  -26.0464  -30.6506   24.2273 O   0  0  0  0  0  0  0  0  0  0  0  0
  -31.9402  -14.9741   19.3711 O   0  0  0  0  0  0  0  0  0  0  0  0
  -23.1098  -11.9872   27.3561 O   0  0  0  0  0  0  0  0  0  0  0  0
  -22.3263  -25.3967   22.0118 O   0  0  0  0  0  0  0  0  0  1  0  0
  -18.7614   -8.6418   27.9075 F   0  0  0  0  0  0  0  0  0  0  0  0
  -23.3061   -9.6302   28.7875 F   0  0  0  0  0  0  0  0  0  0  0  0
  -24.4646  -18.5504   22.0162 F   0  0  0  0  0  0  0  0  0  0  0  0
  -28.1884  -22.0419   19.1242 Cl  0  0  0  0  0  0  0  0  0  0  0  0
  -27.1407  -17.4042   21.7714 Cl  0  0  0  0  0  0  0  0  0  0  0  0
  1  2  1  0  0  0  0
  1  5  2  0  0  0  0
  2  6  2  0  0  0  0
  3  8  2  0  0  0  0
  3 15  1  0  0  0  0
  4  9  1  0  0  0  0
  4 15  2  0  0  0  0
  5 17  1  0  0  0  0
  6 19  1  0  0  0  0
  7 10  2  0  0  0  0
  7 18  1  0  0  0  0
  8 24  1  0  0  0  0
  9 24  2  0  0  0  0
 10 25  1  0  0  0  0
 11 12  2  0  0  0  0
 11 26  1  0  0  0  0
 12 27  1  0  0  0  0
 13 20  1  0  0  0  0
 13 25  2  0  0  0  0
 14 27  2  0  0  0  0
 14 28  1  0  0  0  0
 15 32  1  0  0  0  0
 16 32  1  0  0  0  0
 16 33  2  0  0  0  0
 16 34  1  0  0  0  0
 17 19  2  0  0  0  0
 17 39  1  0  0  0  0
 18 20  2  0  0  0  0
 18 40  1  0  0  0  0
 19 48  1  0  0  0  0
 20 41  1  0  0  0  0
 21 22  1  0  0  0  0
 21 29  2  0  0  0  0
 21 57  1  0  0  0  0
 22 30  2  0  0  0  0
 22 51  1  0  0  0  0
 23 30  1  0  0  0  0
 23 31  2  0  0  0  0
 23 73  1  0  0  0  0
 24 84  1  0  0  0  0
 25 85  1  0  0  0  0
 26 28  2  0  0  0  0
 26 84  1  0  0  0  0
 27 86  1  0  0  0  0
 28 87  1  0  0  0  0
 29 31  1  0  0  0  0
 29 88  1  0  0  0  0
 30 89  1  0  0  0  0
 31 90  1  0  0  0  0
 32 67  2  0  0  0  0
 33 68  1  0  0  0  0
 33 71  1  0  0  0  0
 34 72  1  0  0  0  0
 34 79  2  0  0  0  0
 35 49  1  0  0  0  0
 35 74  1  0  0  0  0
 35 80  2  0  0  0  0
 36 64  1  0  0  0  0
 36 69  1  0  0  0  0
 36 81  2  0  0  0  0
 37 65  1  0  0  0  0
 37 75  1  0  0  0  0
 37 82  2  0  0  0  0
 38 70  1  0  0  0  0
 38 76  1  0  0  0  0
 38 83  2  0  0  0  0
 39 42  1  0  0  0  0
 40 49  1  0  0  0  0
 41 69  1  0  0  0  0
 42 44  1  0  0  0  0
 43 45  1  0  0  0  0
 43 46  1  0  0  0  0
 44 48  1  0  0  0  0
 45 50  1  0  0  0  0
 46 70  1  0  0  0  0
 47 50  1  0  0  0  0
 47 70  1  0  0  0  0
 48 74  1  0  0  0  0
 49 69  1  0  0  0  0
 50 68  1  0  0  0  0
 52 65  1  0  0  0  0
 53 66  1  0  0  0  0
 54 66  1  0  0  0  0
 55 66  1  0  0  0  0
 56 77  1  0  0  0  0
 57 78  1  0  0  0  0
 58 60  1  0  0  0  0
 58 61  1  0  0  0  0
 59 62  1  0  0  0  0
 59 63  1  0  0  0  0
 60 73  1  0  0  0  0
 61 76  1  0  0  0  0
 62 78  1  0  0  0  0
 63 85  1  0  0  0  0
 64 66  1  0  0  0  0
 64 75  1  0  0  0  0
 65 77  1  0  0  0  0
 67 68  1  0  0  0  0
M  CHG  2  77   1  78   1
M  ISO  4  38 100  63 101  76 100  85 101
M  END
> <Batch ID>
0025

> <Smiles>
CNC(C)C(=O)NC(C(=O)N1Cc2cc([101O:1][101CH2:1]CCNCc3c(C)c(Cl)c(NCCC[100NH:0][100C:0](=O)N4CCCC(n5nc(-c6ccc(Oc7ccc(F)cc7F)cc6)c(C(N)=O)c5N)C4)c(Cl)c3F)ccc2CC1C(=O)NC1CCCc2ccccc21)C(C)(C)C

> <Shape>
0.230

> <Color>
0.094

> <Negative vol penalty>
0.000

$$$$

  -OEChem-04052316243D

 90 98  0     1  0  0  0  0  0999 V2000
  -17.8727  -24.7592   22.5332 C   0  0  0  0  0  0  0  0  0  0  0  0
  -19.2417  -24.5829   22.3595 C   0  0  0  0  0  0  0  0  0  0  0  0
  -24.9807  -15.0757   22.0921 C   0  0  0  0  0  0  0  0  0  0  0  0
  -23.2497  -14.0244   20.7747 C   0  0  0  0  0  0  0  0  0  0  0  0
  -17.3049  -26.0197   22.3521 C   0  0  0  0  0  0  0  0  0  0  0  0
  -20.0436  -25.6667   22.0035 C   0  0  0  0  0  0  0  0  0  0  0  0
  -24.3255  -25.8836   24.6985 C   0  0  0  0  0  0  0  0  0  0  0  0
  -25.8693  -14.0623   21.7332 C   0  0  0  0  0  0  0  0  0  0  0  0
  -24.1384  -13.0110   20.4157 C   0  0  0  0  0  0  0  0  0  0  0  0
  -25.3521  -25.0136   24.3339 C   0  0  0  0  0  0  0  0  0  0  0  0
  -27.7726  -13.2499   19.0591 C   0  0  0  0  0  0  0  0  0  0  0  0
  -29.0588  -13.6235   18.6698 C   0  0  0  0  0  0  0  0  0  0  0  0
  -26.4435  -26.8082   23.1477 C   0  0  0  0  0  0  0  0  0  0  0  0
  -28.6514  -19.0882   20.4605 C   0  0  0  0  0  0  0  0  0  0  0  0
  -29.9856  -12.3207   20.4811 C   0  0  0  0  0  0  0  0  0  0  0  0
  -23.6708  -15.0568   21.6129 C   0  0  0  0  0  0  0  0  0  0  0  0
  -22.3359  -16.4474   23.2837 C   0  0  0  0  0  0  0  0  0  0  0  0
  -18.1016  -27.1215   22.0031 C   0  0  0  0  0  0  0  0  0  0  0  0
  -24.3447  -27.2220   24.2806 C   0  0  0  0  0  0  0  0  0  0  0  0
  -19.4857  -26.9428   21.8162 C   0  0  0  0  0  0  0  0  0  0  0  0
  -25.4173  -27.6938   23.5105 C   0  0  0  0  0  0  0  0  0  0  0  0
  -29.4736  -20.2091   20.3466 C   0  0  0  0  0  0  0  0  0  0  0  0
  -29.0580  -21.3049   19.5901 C   0  0  0  0  0  0  0  0  0  0  0  0
  -26.9981  -20.1586   19.0613 C   0  0  0  0  0  0  0  0  0  0  0  0
  -25.4483  -13.0300   20.8950 C   0  0  0  0  0  0  0  0  0  0  0  0
  -26.4098  -25.4751   23.5559 C   0  0  0  0  0  0  0  0  0  0  0  0
  -27.5928  -12.4117   20.1595 C   0  0  0  0  0  0  0  0  0  0  0  0
  -30.1653  -13.1589   19.3807 C   0  0  0  0  0  0  0  0  0  0  0  0
  -28.6993  -11.9471   20.8705 C   0  0  0  0  0  0  0  0  0  0  0  0
  -27.4136  -19.0629   19.8178 C   0  0  0  0  0  0  0  0  0  0  0  0
  -27.8203  -21.2796   18.9474 C   0  0  0  0  0  0  0  0  0  0  0  0
  -22.7521  -16.1030   21.9837 C   0  0  0  0  0  0  0  0  0  0  0  0
  -21.4686  -17.4965   23.0999 C   0  0  0  0  0  0  0  0  0  0  0  0
  -22.7006  -15.8707   24.5447 C   0  0  0  0  0  0  0  0  0  0  0  0
  -22.4577  -29.0363   22.4775 C   0  0  0  0  0  0  0  0  0  0  0  0
  -24.4644  -31.3972   23.4374 C   0  0  0  0  0  0  0  0  0  0  0  0
  -20.9196  -21.5197   18.6699 C   0  0  0  0  0  0  0  0  0  0  0  0
  -27.5468  -32.2839   24.6032 C   0  0  0  0  0  0  0  0  0  0  0  0
  -17.4356  -28.4548   21.7720 C   0  0  0  0  0  0  0  0  0  0  0  0
  -23.2433  -28.1544   24.7048 C   0  0  0  0  0  0  0  0  0  0  0  0
  -25.4953  -29.1267   23.0532 C   0  0  0  0  0  0  0  0  0  0  0  0
  -18.4108  -29.6291   21.7614 C   0  0  0  0  0  0  0  0  0  0  0  0
  -18.3935  -19.3108   19.9266 C   0  0  0  0  0  0  0  0  0  0  0  0
  -19.6264  -29.3058   20.8985 C   0  0  0  0  0  0  0  0  0  0  0  0
  -19.1890  -18.2533   20.6907 C   0  0  0  0  0  0  0  0  0  0  0  0
  -19.1487  -19.7941   18.6925 C   0  0  0  0  0  0  0  0  0  0  0  0
  -21.3199  -19.2500   19.7467 C   0  0  0  0  0  0  0  0  0  0  0  0
  -20.3923  -28.0992   21.4544 C   0  0  1  0  0  0  0  0  0  0  0  0
  -23.1042  -29.3691   23.7924 C   0  0  1  0  0  0  0  0  0  0  0  0
  -20.6060  -18.7570   21.0178 C   0  0  2  0  0  0  0  0  0  0  0  0
  -30.7940  -20.2087   21.0456 C   0  0  0  0  0  0  0  0  0  0  0  0
  -30.4084  -22.7249   18.0258 C   0  0  0  0  0  0  0  0  0  0  0  0
  -28.9031  -34.2916   25.2567 C   0  0  0  0  0  0  0  0  0  0  0  0
  -22.4426  -21.8511   20.5952 C   0  0  0  0  0  0  0  0  0  0  0  0
  -22.5474  -23.3568   18.5994 C   0  0  0  0  0  0  0  0  0  0  0  0
  -24.8702  -32.0790   20.4911 C   0  0  0  0  0  0  0  0  0  0  0  0
  -26.8940  -33.3988   21.1472 C   0  0  0  0  0  0  0  0  0  0  0  0
  -24.6450  -34.0613   21.9992 C   0  0  0  0  0  0  0  0  0  0  0  0
  -27.8621  -31.3114   27.3806 C   0  0  0  0  0  0  0  0  0  0  0  0
  -25.6671  -20.1261   18.3729 C   0  0  0  0  0  0  0  0  0  0  0  0
  -28.6084  -23.5842   21.3748 C   0  0  0  0  0  0  0  0  0  0  0  0
  -29.3366  -23.8063   20.0412 C   0  0  0  0  0  0  0  0  0  0  0  0
  -23.3252  -20.9942   18.3540 C   0  0  0  0  0  0  0  0  0  0  0  0
  -28.0691  -24.8856   21.9574 C   0  0  0  0  0  0  0  0  0  1  0  0
  -29.9701  -22.5146   19.4804 C   0  0  1  0  0  0  0  0  0  0  0  0
  -25.7543  -31.9821   22.9150 C   0  0  1  0  0  0  0  0  0  0  0  0
  -27.9694  -33.1939   25.7425 C   0  0  2  0  0  0  0  0  0  0  0  0
  -22.3202  -21.9120   19.0683 C   0  0  0  0  0  0  0  0  0  0  0  0
  -25.5387  -32.8528   21.6449 C   0  0  0  0  0  0  0  0  0  0  0  0
  -22.1951  -16.8709   21.0435 N   0  0  0  0  0  0  0  0  0  0  0  0
  -21.4198  -17.7082   21.7534 N   0  0  0  0  0  0  0  0  0  0  0  0
  -24.3912  -29.9980   23.4884 N   0  0  0  0  0  0  0  0  0  0  0  0
  -20.4977  -20.2431   19.0417 N   0  0  0  0  0  0  0  0  0  0  0  0
  -20.7506  -18.2493   23.9602 N   0  0  0  0  0  0  0  0  0  0  0  0
  -21.9314  -14.8096   25.0415 N   0  0  0  0  0  0  0  0  0  0  0  0
  -21.1936  -28.4906   22.5942 N   0  0  0  0  0  0  0  0  0  0  0  0
  -26.3610  -32.6963   24.0331 N   0  0  0  0  0  0  0  0  0  0  0  0
  -28.6732  -32.4108   26.7971 N   0  3  0  0  0  0  0  0  0  0  0  0
  -24.6406  -20.9625   19.0475 N   0  3  0  0  0  0  0  0  0  0  0  0
  -23.6696  -16.2949   25.2189 O   0  0  0  0  0  0  0  0  0  0  0  0
  -23.0606  -29.2594   21.4342 O   0  0  0  0  0  0  0  0  0  0  0  0
  -23.5579  -32.1540   23.7940 O   0  0  0  0  0  0  0  0  0  0  0  0
  -20.2220  -22.3263   18.0495 O   0  0  0  0  0  0  0  0  0  0  0  0
  -28.2049  -31.3072   24.2517 O   0  0  0  0  0  0  0  0  0  0  0  0
  -26.3152  -12.0411   20.5444 O   0  0  0  0  0  0  0  0  0  0  0  0
  -27.4128  -24.6279   23.1981 O   0  0  0  0  0  0  0  0  0  1  0  0
  -31.4005  -13.5165   19.0058 F   0  0  0  0  0  0  0  0  0  0  0  0
  -28.5329  -11.1406   21.9277 F   0  0  0  0  0  0  0  0  0  0  0  0
  -26.4280  -17.6546   19.9858 Cl  0  0  0  0  0  0  0  0  0  0  0  0
  -27.3064  -22.6428   18.0080 Cl  0  0  0  0  0  0  0  0  0  0  0  0
  1  2  1  0  0  0  0
  1  5  2  0  0  0  0
  2  6  2  0  0  0  0
  3  8  2  0  0  0  0
  3 16  1  0  0  0  0
  4  9  1  0  0  0  0
  4 16  2  0  0  0  0
  5 18  1  0  0  0  0
  6 20  1  0  0  0  0
  7 10  2  0  0  0  0
  7 19  1  0  0  0  0
  8 25  1  0  0  0  0
  9 25  2  0  0  0  0
 10 26  1  0  0  0  0
 11 12  2  0  0  0  0
 11 27  1  0  0  0  0
 12 28  1  0  0  0  0
 13 21  1  0  0  0  0
 13 26  2  0  0  0  0
 14 22  2  0  0  0  0
 14 30  1  0  0  0  0
 15 28  2  0  0  0  0
 15 29  1  0  0  0  0
 16 32  1  0  0  0  0
 17 32  1  0  0  0  0
 17 33  2  0  0  0  0
 17 34  1  0  0  0  0
 18 20  2  0  0  0  0
 18 39  1  0  0  0  0
 19 21  2  0  0  0  0
 19 40  1  0  0  0  0
 20 48  1  0  0  0  0
 21 41  1  0  0  0  0
 22 23  1  0  0  0  0
 22 51  1  0  0  0  0
 23 31  2  0  0  0  0
 23 65  1  0  0  0  0
 24 30  2  0  0  0  0
 24 31  1  0  0  0  0
 24 60  1  0  0  0  0
 25 85  1  0  0  0  0
 26 86  1  0  0  0  0
 27 29  2  0  0  0  0
 27 85  1  0  0  0  0
 28 87  1  0  0  0  0
 29 88  1  0  0  0  0
 30 89  1  0  0  0  0
 31 90  1  0  0  0  0
 32 70  2  0  0  0  0
 33 71  1  0  0  0  0
 33 74  1  0  0  0  0
 34 75  1  0  0  0  0
 34 80  2  0  0  0  0
 35 49  1  0  0  0  0
 35 76  1  0  0  0  0
 35 81  2  0  0  0  0
 36 66  1  0  0  0  0
 36 72  1  0  0  0  0
 36 82  2  0  0  0  0
 37 68  1  0  0  0  0
 37 73  1  0  0  0  0
 37 83  2  0  0  0  0
 38 67  1  0  0  0  0
 38 77  1  0  0  0  0
 38 84  2  0  0  0  0
 39 42  1  0  0  0  0
 40 49  1  0  0  0  0
 41 72  1  0  0  0  0
 42 44  1  0  0  0  0
 43 45  1  0  0  0  0
 43 46  1  0  0  0  0
 44 48  1  0  0  0  0
 45 50  1  0  0  0  0
 46 73  1  0  0  0  0
 47 50  1  0  0  0  0
 47 73  1  0  0  0  0
 48 76  1  0  0  0  0
 49 72  1  0  0  0  0
 50 71  1  0  0  0  0
 52 65  1  0  0  0  0
 53 67  1  0  0  0  0
 54 68  1  0  0  0  0
 55 68  1  0  0  0  0
 56 69  1  0  0  0  0
 57 69  1  0  0  0  0
 58 69  1  0  0  0  0
 59 78  1  0  0  0  0
 60 79  1  0  0  0  0
 61 62  1  0  0  0  0
 61 64  1  0  0  0  0
 62 65  1  0  0  0  0
 63 68  1  0  0  0  0
 63 79  1  0  0  0  0
 64 86  1  0  0  0  0
 66 69  1  0  0  0  0
 66 77  1  0  0  0  0
 67 78  1  0  0  0  0
 70 71  1  0  0  0  0
M  CHG  2  78   1  79   1
M  ISO  4  37 100  64 101  68 100  86 101
M  END
> <Batch ID>
0025

> <Smiles>
CNC(C)C(=O)NC(C(=O)N1Cc2cc([101O:1][101CH2:1]CCC(C)c3c(C)cc(Cl)c(CNC[100C:0](C)(C)[100C:0](=O)N4CCCC(n5nc(-c6ccc(Oc7ccc(F)cc7F)cc6)c(C(N)=O)c5N)C4)c3Cl)ccc2CC1C(=O)NC1CCCc2ccccc21)C(C)(C)C

> <Shape>
0.248

> <Color>
0.067

> <Negative vol penalty>
0.000

$$$$

  -OEChem-04052316243D

 92100  0     1  0  0  0  0  0999 V2000
  -19.1831  -22.8334   25.3005 C   0  0  0  0  0  0  0  0  0  0  0  0
  -20.4887  -22.3694   25.1757 C   0  0  0  0  0  0  0  0  0  0  0  0
  -22.8167  -16.0181   21.2679 C   0  0  0  0  0  0  0  0  0  0  0  0
  -22.1886  -14.8095   19.2724 C   0  0  0  0  0  0  0  0  0  0  0  0
  -18.7093  -23.8192   24.4358 C   0  0  0  0  0  0  0  0  0  0  0  0
  -21.3210  -22.8903   24.1855 C   0  0  0  0  0  0  0  0  0  0  0  0
  -28.1988  -24.4439   22.9216 C   0  0  0  0  0  0  0  0  0  0  0  0
  -21.6667  -16.7996   21.1565 C   0  0  0  0  0  0  0  0  0  0  0  0
  -21.0385  -15.5909   19.1611 C   0  0  0  0  0  0  0  0  0  0  0  0
  -29.2004  -24.2105   21.9803 C   0  0  0  0  0  0  0  0  0  0  0  0
  -18.7134  -18.8720   21.6012 C   0  0  0  0  0  0  0  0  0  0  0  0
  -17.9676  -19.0970   22.7583 C   0  0  0  0  0  0  0  0  0  0  0  0
  -28.2987  -25.9669   20.5942 C   0  0  0  0  0  0  0  0  0  0  0  0
  -17.6232  -16.7178   22.9989 C   0  0  0  0  0  0  0  0  0  0  0  0
  -23.0777  -15.0231   20.3258 C   0  0  0  0  0  0  0  0  0  0  0  0
  -24.4031  -12.9987   21.1337 C   0  0  0  0  0  0  0  0  0  0  0  0
  -19.5392  -24.3593   23.4407 C   0  0  0  0  0  0  0  0  0  0  0  0
  -27.2316  -25.4350   22.7009 C   0  0  0  0  0  0  0  0  0  0  0  0
  -20.8574  -23.8833   23.3059 C   0  0  0  0  0  0  0  0  0  0  0  0
  -27.2874  -26.2127   21.5355 C   0  0  0  0  0  0  0  0  0  0  0  0
  -20.7776  -16.5860   20.1032 C   0  0  0  0  0  0  0  0  0  0  0  0
  -29.2487  -24.9700   20.8150 C   0  0  0  0  0  0  0  0  0  0  0  0
  -18.9140  -17.5699   21.1429 C   0  0  0  0  0  0  0  0  0  0  0  0
  -17.4226  -18.0199   23.4571 C   0  0  0  0  0  0  0  0  0  0  0  0
  -18.3689  -16.4928   21.8417 C   0  0  0  0  0  0  0  0  0  0  0  0
  -24.2657  -14.2159   20.4399 C   0  0  0  0  0  0  0  0  0  0  0  0
  -25.7139  -12.6381   20.9385 C   0  0  0  0  0  0  0  0  0  0  0  0
  -23.4324  -12.2599   21.8873 C   0  0  0  0  0  0  0  0  0  0  0  0
  -24.0703  -25.4498   22.3699 C   0  0  0  0  0  0  0  0  0  0  0  0
  -24.4759  -28.6682   22.3688 C   0  0  0  0  0  0  0  0  0  0  0  0
  -26.5422  -31.3277   21.8172 C   0  0  0  0  0  0  0  0  0  0  0  0
  -30.5841  -15.5033   19.9611 C   0  0  0  0  0  0  0  0  0  0  0  0
  -18.9676  -25.3896   22.4992 C   0  0  0  0  0  0  0  0  0  0  0  0
  -26.1736  -25.6925   23.7386 C   0  0  0  0  0  0  0  0  0  0  0  0
  -26.2847  -27.3024   21.2606 C   0  0  0  0  0  0  0  0  0  0  0  0
  -20.0309  -26.1567   21.7175 C   0  0  0  0  0  0  0  0  0  0  0  0
  -30.7145  -18.8063   23.2570 C   0  0  0  0  0  0  0  0  0  0  0  0
  -30.4224  -17.3113   23.2949 C   0  0  0  0  0  0  0  0  0  0  0  0
  -29.3080  -13.0987   17.8240 C   0  0  0  0  0  0  0  0  0  0  0  0
  -21.0680  -25.1966   21.1434 C   0  0  0  0  0  0  0  0  0  0  0  0
  -27.8696  -12.9767   18.3255 C   0  0  0  0  0  0  0  0  0  0  0  0
  -29.8548  -19.5786   22.2642 C   0  0  0  0  0  0  0  0  0  0  0  0
  -31.0476  -16.5232   22.1465 C   0  0  0  0  0  0  0  0  0  0  0  0
  -29.7727  -14.5552   17.7707 C   0  0  0  0  0  0  0  0  0  0  0  0
  -28.1716  -15.1632   19.5482 C   0  0  0  0  0  0  0  0  0  0  0  0
  -29.4655  -17.7131   20.5574 C   0  0  0  0  0  0  0  0  0  0  0  0
  -21.7984  -24.4412   22.2603 C   0  0  1  0  0  0  0  0  0  0  0  0
  -24.9356  -26.3805   23.1717 C   0  0  1  0  0  0  0  0  0  0  0  0
  -27.6900  -13.7084   19.6674 C   0  0  1  0  0  0  0  0  0  0  0  0
  -29.9705  -19.1462   20.7980 C   0  0  2  0  0  0  0  0  0  0  0  0
  -26.5791  -33.8364   21.8639 C   0  0  0  0  0  0  0  0  0  0  0  0
  -32.6229  -18.3722   16.8361 C   0  0  0  0  0  0  0  0  0  0  0  0
  -33.5136  -18.0466   19.1542 C   0  0  0  0  0  0  0  0  0  0  0  0
  -32.3735  -24.0816   17.9975 C   0  0  0  0  0  0  0  0  0  0  0  0
  -22.9215  -28.7375   19.7441 C   0  0  0  0  0  0  0  0  0  0  0  0
  -23.7965  -31.0529   19.3678 C   0  0  0  0  0  0  0  0  0  0  0  0
  -22.3508  -30.5736   21.3433 C   0  0  0  0  0  0  0  0  0  0  0  0
  -29.4550  -19.4096   16.3974 C   0  0  0  0  0  0  0  0  0  0  0  0
  -31.8414  -20.6439   20.7598 C   0  0  0  0  0  0  0  0  0  0  0  0
  -28.6560  -31.3736   23.8880 C   0  0  0  0  0  0  0  0  0  0  0  0
  -30.7301  -23.4130   19.7967 C   0  0  0  0  0  0  0  0  0  1  0  0
  -24.7280  -29.7136   21.3093 C   0  0  1  0  0  0  0  0  0  0  0  0
  -26.8405  -32.5612   22.6502 C   0  0  2  0  0  0  0  0  0  0  0  0
  -32.7038  -18.9782   18.2455 C   0  0  0  0  0  0  0  0  0  0  0  0
  -31.2932  -19.3517   18.8098 C   0  0  2  0  0  0  0  0  0  0  0  0
  -31.2516  -23.1346   18.3914 C   0  0  2  0  0  0  0  0  0  0  0  0
  -30.7054  -20.6998   18.2809 C   0  0  2  0  0  0  0  0  0  0  0  0
  -23.4671  -29.9976   20.4451 C   0  0  0  0  0  0  0  0  0  0  0  0
  -30.1314  -20.7117   16.8273 C   0  0  0  0  0  0  0  0  0  0  0  0
  -25.3990  -14.6028   19.8482 N   0  0  0  0  0  0  0  0  0  0  0  0
  -26.2609  -13.6231   20.1698 N   0  0  0  0  0  0  0  0  0  0  0  0
  -25.2658  -27.5117   22.3024 N   0  0  0  0  0  0  0  0  0  0  0  0
  -29.5500  -15.2226   19.0575 N   0  0  0  0  0  0  0  0  0  0  0  0
  -30.4231  -16.6221   20.8181 N   0  0  0  0  0  0  0  0  0  0  0  0
  -26.4406  -11.5779   21.3511 N   0  0  0  0  0  0  0  0  0  0  0  0
  -22.1320  -12.7731   21.9867 N   0  0  0  0  0  0  0  0  0  0  0  0
  -22.7948  -25.2905   22.8770 N   0  0  0  0  0  0  0  0  0  0  0  0
  -25.2506  -30.8837   22.0066 N   0  0  0  0  0  0  0  0  0  0  0  0
  -31.3142  -19.3733   20.2699 N   0  0  2  0  0  0  0  0  0  0  0  0
  -28.2662  -32.5606   23.0843 N   0  3  0  0  0  0  0  0  0  0  0  0
  -31.7789  -21.7529   18.3515 N   0  3  0  0  0  0  0  0  0  0  0  0
  -23.7144  -11.1851   22.4693 O   0  0  0  0  0  0  0  0  0  0  0  0
  -24.5256  -24.9169   21.3647 O   0  0  0  0  0  0  0  0  0  0  0  0
  -23.6149  -28.8733   23.2280 O   0  0  0  0  0  0  0  0  0  0  0  0
  -27.3707  -30.8120   21.0702 O   0  0  0  0  0  0  0  0  0  0  0  0
  -31.5826  -14.7728   20.0181 O   0  0  0  0  0  0  0  0  0  0  0  0
  -19.6552  -17.3482   19.9944 O   0  0  0  0  0  0  0  0  0  0  0  0
  -30.2315  -24.7423   19.8880 O   0  0  0  0  0  0  0  0  0  1  0  0
  -16.7078  -18.2360   24.5691 F   0  0  0  0  0  0  0  0  0  0  0  0
  -18.5593  -15.2396   21.4070 F   0  0  0  0  0  0  0  0  0  0  0  0
  -31.4113  -21.1009   15.6183 Cl  0  0  0  0  0  0  0  0  0  0  0  0
  -28.8674  -22.0104   16.6991 Cl  0  0  0  0  0  0  0  0  0  0  0  0
  1  2  1  0  0  0  0
  1  5  2  0  0  0  0
  2  6  2  0  0  0  0
  3  8  2  0  0  0  0
  3 15  1  0  0  0  0
  4  9  1  0  0  0  0
  4 15  2  0  0  0  0
  5 17  1  0  0  0  0
  6 19  1  0  0  0  0
  7 10  2  0  0  0  0
  7 18  1  0  0  0  0
  8 21  1  0  0  0  0
  9 21  2  0  0  0  0
 10 22  1  0  0  0  0
 11 12  2  0  0  0  0
 11 23  1  0  0  0  0
 12 24  1  0  0  0  0
 13 20  1  0  0  0  0
 13 22  2  0  0  0  0
 14 24  2  0  0  0  0
 14 25  1  0  0  0  0
 15 26  1  0  0  0  0
 16 26  1  0  0  0  0
 16 27  2  0  0  0  0
 16 28  1  0  0  0  0
 17 19  2  0  0  0  0
 17 33  1  0  0  0  0
 18 20  2  0  0  0  0
 18 34  1  0  0  0  0
 19 47  1  0  0  0  0
 20 35  1  0  0  0  0
 21 87  1  0  0  0  0
 22 88  1  0  0  0  0
 23 25  2  0  0  0  0
 23 87  1  0  0  0  0
 24 89  1  0  0  0  0
 25 90  1  0  0  0  0
 26 70  2  0  0  0  0
 27 71  1  0  0  0  0
 27 75  1  0  0  0  0
 28 76  1  0  0  0  0
 28 82  2  0  0  0  0
 29 48  1  0  0  0  0
 29 77  1  0  0  0  0
 29 83  2  0  0  0  0
 30 62  1  0  0  0  0
 30 72  1  0  0  0  0
 30 84  2  0  0  0  0
 31 63  1  0  0  0  0
 31 78  1  0  0  0  0
 31 85  2  0  0  0  0
 32 73  1  0  0  0  0
 32 74  1  0  0  0  0
 32 86  2  0  0  0  0
 33 36  1  0  0  0  0
 34 48  1  0  0  0  0
 35 72  1  0  0  0  0
 36 40  1  0  0  0  0
 37 38  1  0  0  0  0
 37 42  1  0  0  0  0
 38 43  1  0  0  0  0
 39 41  1  0  0  0  0
 39 44  1  0  0  0  0
 40 47  1  0  0  0  0
 41 49  1  0  0  0  0
 42 50  1  0  0  0  0
 43 74  1  0  0  0  0
 44 73  1  0  0  0  0
 45 49  1  0  0  0  0
 45 73  1  0  0  0  0
 46 50  1  0  0  0  0
 46 74  1  0  0  0  0
 47 77  1  0  0  0  0
 48 72  1  0  0  0  0
 49 71  1  0  0  0  0
 50 79  1  0  0  0  0
 51 63  1  0  0  0  0
 52 64  1  0  0  0  0
 53 64  1  0  0  0  0
 54 66  1  0  0  0  0
 55 68  1  0  0  0  0
 56 68  1  0  0  0  0
 57 68  1  0  0  0  0
 58 69  1  0  0  0  0
 59 79  1  0  0  0  0
 60 80  1  0  0  0  0
 61 66  1  0  0  0  0
 61 88  1  0  0  0  0
 62 68  1  0  0  0  0
 62 78  1  0  0  0  0
 63 80  1  0  0  0  0
 64 65  1  0  0  0  0
 65 67  1  0  0  0  0
 65 79  1  0  0  0  0
 66 81  1  0  0  0  0
 67 69  1  0  0  0  0
 67 81  1  0  0  0  0
 69 91  1  0  0  0  0
 69 92  1  0  0  0  0
 70 71  1  0  0  0  0
M  CHG  2  80   1  81   1
M  ISO  4  32 100  61 101  74 100  88 101
M  END
> <Batch ID>
0025

> <Smiles>
CNC(C)C(=O)NC(C(=O)N1Cc2cc([101O:1][101CH2:1]C(C)NC(C(C(C)C)N(C)C3CCCC[100N:0]([100C:0](=O)N4CCCC(n5nc(-c6ccc(Oc7ccc(F)cc7F)cc6)c(C(N)=O)c5N)C4)C3)C(C)(Cl)Cl)ccc2CC1C(=O)NC1CCCc2ccccc21)C(C)(C)C

> <Shape>
0.219

> <Color>
0.090

> <Negative vol penalty>
0.000

$$$$

  -OEChem-04052316243D

 97106  0     1  0  0  0  0  0999 V2000
  -20.4491  -27.0987   12.9792 C   0  0  0  0  0  0  0  0  0  0  0  0
  -20.1135  -26.9835   14.3244 C   0  0  0  0  0  0  0  0  0  0  0  0
  -23.6794   -9.5582   19.8902 C   0  0  0  0  0  0  0  0  0  0  0  0
  -23.3765  -10.1018   22.2247 C   0  0  0  0  0  0  0  0  0  0  0  0
  -21.7893  -27.1453   12.5977 C   0  0  0  0  0  0  0  0  0  0  0  0
  -21.1182  -26.9137   15.2889 C   0  0  0  0  0  0  0  0  0  0  0  0
  -20.1795  -29.8731   19.2896 C   0  0  0  0  0  0  0  0  0  0  0  0
  -22.8447   -8.4508   20.0398 C   0  0  0  0  0  0  0  0  0  0  0  0
  -22.5417   -8.9944   22.3743 C   0  0  0  0  0  0  0  0  0  0  0  0
  -19.2583  -29.4051   20.2256 C   0  0  0  0  0  0  0  0  0  0  0  0
  -20.6190   -6.1065   23.4573 C   0  0  0  0  0  0  0  0  0  0  0  0
  -20.8112   -5.2961   24.5762 C   0  0  0  0  0  0  0  0  0  0  0  0
  -21.0730  -28.6914   21.6457 C   0  0  0  0  0  0  0  0  0  0  0  0
  -18.2187  -21.6125   18.6078 C   0  0  0  0  0  0  0  0  0  0  0  0
  -23.0717   -4.8388   23.8566 C   0  0  0  0  0  0  0  0  0  0  0  0
  -23.9454  -10.3837   20.9827 C   0  0  0  0  0  0  0  0  0  0  0  0
  -26.1564  -11.5270   20.4240 C   0  0  0  0  0  0  0  0  0  0  0  0
  -22.8108  -27.0858   13.5589 C   0  0  0  0  0  0  0  0  0  0  0  0
  -21.5566  -29.7437   19.5200 C   0  0  0  0  0  0  0  0  0  0  0  0
  -22.4734  -26.9581   14.9198 C   0  0  0  0  0  0  0  0  0  0  0  0
  -22.0096  -29.1609   20.7122 C   0  0  0  0  0  0  0  0  0  0  0  0
  -19.3745  -21.7722   17.8436 C   0  0  0  0  0  0  0  0  0  0  0  0
  -20.2981  -23.2200   19.5430 C   0  0  0  0  0  0  0  0  0  0  0  0
  -19.1422  -23.0603   20.3073 C   0  0  0  0  0  0  0  0  0  0  0  0
  -22.2758   -8.1689   21.2818 C   0  0  0  0  0  0  0  0  0  0  0  0
  -19.7050  -28.8116   21.4026 C   0  0  0  0  0  0  0  0  0  0  0  0
  -21.6531   -6.2830   22.5380 C   0  0  0  0  0  0  0  0  0  0  0  0
  -22.0376   -4.6623   24.7759 C   0  0  0  0  0  0  0  0  0  0  0  0
  -22.8795   -5.6492   22.7377 C   0  0  0  0  0  0  0  0  0  0  0  0
  -20.4142  -22.5759   18.3112 C   0  0  0  0  0  0  0  0  0  0  0  0
  -18.1024  -22.2566   19.8397 C   0  0  0  0  0  0  0  0  0  0  0  0
  -24.8081  -11.5275   20.8290 C   0  0  0  0  0  0  0  0  0  0  0  0
  -26.5192  -12.8517   20.4369 C   0  0  0  0  0  0  0  0  0  0  0  0
  -27.0049  -10.4276   20.0678 C   0  0  0  0  0  0  0  0  0  0  0  0
  -23.9431  -28.2343   18.0606 C   0  0  0  0  0  0  0  0  0  0  0  0
  -25.7538  -29.7934   20.2544 C   0  0  0  0  0  0  0  0  0  0  0  0
  -25.9383  -31.3194   23.3014 C   0  0  0  0  0  0  0  0  0  0  0  0
  -23.4048  -17.9377   19.9038 C   0  0  0  0  0  0  0  0  0  0  0  0
  -24.2457  -27.0921   13.0945 C   0  0  0  0  0  0  0  0  0  0  0  0
  -22.5375  -30.2778   18.5125 C   0  0  0  0  0  0  0  0  0  0  0  0
  -23.4776  -29.0165   21.0165 C   0  0  0  0  0  0  0  0  0  0  0  0
  -25.2453  -27.3897   14.2092 C   0  0  0  0  0  0  0  0  0  0  0  0
  -25.5086  -16.9898   22.6154 C   0  0  0  0  0  0  0  0  0  0  0  0
  -24.9245  -26.5611   15.4491 C   0  0  0  0  0  0  0  0  0  0  0  0
  -25.6893  -15.4823   22.4285 C   0  0  0  0  0  0  0  0  0  0  0  0
  -23.9141  -18.7102   16.7046 C   0  0  0  0  0  0  0  0  0  0  0  0
  -23.2658  -19.2264   15.4219 C   0  0  0  0  0  0  0  0  0  0  0  0
  -21.8388  -17.5632   16.5337 C   0  0  0  0  0  0  0  0  0  0  0  0
  -24.1021  -17.4418   22.2286 C   0  0  0  0  0  0  0  0  0  0  0  0
  -23.8537  -15.5338   20.6887 C   0  0  0  0  0  0  0  0  0  0  0  0
  -23.5343  -26.9046   15.9977 C   0  0  1  0  0  0  0  0  0  0  0  0
  -23.9145  -29.6295   18.6174 C   0  0  1  0  0  0  0  0  0  0  0  0
  -25.2738  -15.0390   21.0128 C   0  0  2  0  0  0  0  0  0  0  0  0
  -22.7300  -18.2691   17.5497 C   0  0  1  0  0  0  0  0  0  0  0  0
  -21.9431  -18.4356   15.2617 C   0  0  2  0  0  0  0  0  0  0  0  0
  -21.4250  -24.0756   20.0227 C   0  0  0  0  0  0  0  0  0  0  0  0
  -27.5607  -32.4630   24.8367 C   0  0  0  0  0  0  0  0  0  0  0  0
  -23.1385  -16.5792   14.0663 C   0  0  0  0  0  0  0  0  0  0  0  0
  -20.6487  -16.8159   13.8460 C   0  0  0  0  0  0  0  0  0  0  0  0
  -20.9141  -20.4115   14.0457 C   0  0  0  0  0  0  0  0  0  0  0  0
  -26.9334  -27.0857   21.0207 C   0  0  0  0  0  0  0  0  0  0  0  0
  -27.7915  -28.1337   23.1264 C   0  0  0  0  0  0  0  0  0  0  0  0
  -28.5931  -28.9533   20.9109 C   0  0  0  0  0  0  0  0  0  0  0  0
  -24.4053  -33.8498   23.2256 C   0  0  0  0  0  0  0  0  0  0  0  0
  -19.4956  -21.0821   16.5269 C   0  0  0  0  0  0  0  0  0  0  0  0
  -19.0330  -23.7600   21.6299 C   0  0  0  0  0  0  0  0  0  0  0  0
  -17.0202  -26.8159   22.7575 C   0  0  0  0  0  0  0  0  0  0  0  0
  -17.9469  -25.6177   22.8981 C   0  0  0  0  0  0  0  0  0  0  0  0
  -17.5509  -27.8949   21.8216 C   0  0  0  0  0  0  0  0  0  1  0  0
  -26.2364  -29.4902   21.6523 C   0  0  1  0  0  0  0  0  0  0  0  0
  -26.5364  -32.6479   23.7280 C   0  0  2  0  0  0  0  0  0  0  0  0
  -21.9710  -17.5586   14.0047 C   0  0  0  0  0  0  0  0  0  0  0  0
  -20.7528  -19.4026   15.1714 C   0  0  2  0  0  0  0  0  0  0  0  0
  -27.3608  -28.4165   21.6713 C   0  0  0  0  0  0  0  0  0  0  0  0
  -24.3458  -12.7550   21.0810 N   0  0  0  0  0  0  0  0  0  0  0  0
  -25.4096  -13.5383   20.8338 N   0  0  0  0  0  0  0  0  0  0  0  0
  -24.3974  -29.5485   19.9975 N   0  0  0  0  0  0  0  0  0  0  0  0
  -23.7705  -16.9909   20.8748 N   0  0  0  0  0  0  0  0  0  0  0  0
  -27.6760  -13.4845   20.1475 N   0  0  0  0  0  0  0  0  0  0  0  0
  -27.7533   -9.8069   21.0772 N   0  0  0  0  0  0  0  0  0  0  0  0
  -23.5743  -28.1514   16.7314 N   0  0  0  0  0  0  0  0  0  0  0  0
  -26.6220  -30.7697   22.2376 N   0  0  0  0  0  0  0  0  0  0  0  0
  -23.1126  -17.4265   18.6453 N   0  0  0  0  0  0  0  0  0  0  0  0
  -25.4682  -33.5618   24.2227 N   0  3  0  0  0  0  0  0  0  0  0  0
  -18.1267  -24.9410   21.5922 N   0  3  0  0  0  0  0  0  0  0  0  0
  -20.6485  -20.1426   16.4560 N   0  3  0  0  0  0  0  0  0  0  0  0
  -27.1091  -10.0185   18.8866 O   0  0  0  0  0  0  0  0  0  0  0  0
  -24.2766  -27.3022   18.7828 O   0  0  0  0  0  0  0  0  0  0  0  0
  -26.5493  -30.2381   19.4232 O   0  0  0  0  0  0  0  0  0  0  0  0
  -24.9646  -30.8177   23.8586 O   0  0  0  0  0  0  0  0  0  0  0  0
  -23.3485  -19.1494   20.1396 O   0  0  0  0  0  0  0  0  0  0  0  0
  -21.4610   -7.0885   21.4281 O   0  0  0  0  0  0  0  0  0  0  0  0
  -18.8080  -28.3533   22.3176 O   0  0  0  0  0  0  0  0  0  1  0  0
  -22.2225   -3.8854   25.8512 F   0  0  0  0  0  0  0  0  0  0  0  0
  -23.8771   -5.8159   21.8586 F   0  0  0  0  0  0  0  0  0  0  0  0
  -21.5254  -22.7288   17.5754 F   0  0  0  0  0  0  0  0  0  0  0  0
  -16.6556  -22.0333   20.7551 Cl  0  0  0  0  0  0  0  0  0  0  0  0
  1  2  1  0  0  0  0
  1  5  2  0  0  0  0
  2  6  2  0  0  0  0
  3  8  2  0  0  0  0
  3 16  1  0  0  0  0
  4  9  1  0  0  0  0
  4 16  2  0  0  0  0
  5 18  1  0  0  0  0
  6 20  1  0  0  0  0
  7 10  2  0  0  0  0
  7 19  1  0  0  0  0
  8 25  1  0  0  0  0
  9 25  2  0  0  0  0
 10 26  1  0  0  0  0
 11 12  2  0  0  0  0
 11 27  1  0  0  0  0
 12 28  1  0  0  0  0
 13 21  1  0  0  0  0
 13 26  2  0  0  0  0
 14 22  1  0  0  0  0
 14 31  2  0  0  0  0
 15 28  2  0  0  0  0
 15 29  1  0  0  0  0
 16 32  1  0  0  0  0
 17 32  1  0  0  0  0
 17 33  2  0  0  0  0
 17 34  1  0  0  0  0
 18 20  2  0  0  0  0
 18 39  1  0  0  0  0
 19 21  2  0  0  0  0
 19 40  1  0  0  0  0
 20 51  1  0  0  0  0
 21 41  1  0  0  0  0
 22 30  2  0  0  0  0
 22 65  1  0  0  0  0
 23 24  2  0  0  0  0
 23 30  1  0  0  0  0
 23 56  1  0  0  0  0
 24 31  1  0  0  0  0
 24 66  1  0  0  0  0
 25 92  1  0  0  0  0
 26 93  1  0  0  0  0
 27 29  2  0  0  0  0
 27 92  1  0  0  0  0
 28 94  1  0  0  0  0
 29 95  1  0  0  0  0
 30 96  1  0  0  0  0
 31 97  1  0  0  0  0
 32 75  2  0  0  0  0
 33 76  1  0  0  0  0
 33 79  1  0  0  0  0
 34 80  1  0  0  0  0
 34 87  2  0  0  0  0
 35 52  1  0  0  0  0
 35 81  1  0  0  0  0
 35 88  2  0  0  0  0
 36 70  1  0  0  0  0
 36 77  1  0  0  0  0
 36 89  2  0  0  0  0
 37 71  1  0  0  0  0
 37 82  1  0  0  0  0
 37 90  2  0  0  0  0
 38 78  1  0  0  0  0
 38 83  1  0  0  0  0
 38 91  2  0  0  0  0
 39 42  1  0  0  0  0
 40 52  1  0  0  0  0
 41 77  1  0  0  0  0
 42 44  1  0  0  0  0
 43 45  1  0  0  0  0
 43 49  1  0  0  0  0
 44 51  1  0  0  0  0
 45 53  1  0  0  0  0
 46 47  1  0  0  0  0
 46 54  1  0  0  0  0
 47 55  1  0  0  0  0
 48 54  1  0  0  0  0
 48 55  1  0  0  0  0
 49 78  1  0  0  0  0
 50 53  1  0  0  0  0
 50 78  1  0  0  0  0
 51 81  1  0  0  0  0
 52 77  1  0  0  0  0
 53 76  1  0  0  0  0
 54 83  1  0  0  0  0
 55 72  1  0  0  0  0
 55 73  1  0  0  0  0
 57 71  1  0  0  0  0
 58 72  1  0  0  0  0
 59 72  1  0  0  0  0
 60 73  1  0  0  0  0
 61 74  1  0  0  0  0
 62 74  1  0  0  0  0
 63 74  1  0  0  0  0
 64 84  1  0  0  0  0
 65 86  1  0  0  0  0
 66 85  1  0  0  0  0
 67 68  1  0  0  0  0
 67 69  1  0  0  0  0
 68 85  1  0  0  0  0
 69 93  1  0  0  0  0
 70 74  1  0  0  0  0
 70 82  1  0  0  0  0
 71 84  1  0  0  0  0
 73 86  1  0  0  0  0
 75 76  1  0  0  0  0
M  CHG  3  84   1  85   1  86   1
M  ISO  4  38 100  69 101  83 100  93 101
M  END
> <Batch ID>
0025

> <Smiles>
CNC(C)C(=O)NC(C(=O)N1Cc2cc([101O:1][101CH2:1]CCNCc3c(Cl)cc(CNC(C)C4(C(C)C)CCC([100NH:0][100C:0](=O)N5CCCC(n6nc(-c7ccc(Oc8ccc(F)cc8F)cc7)c(C(N)=O)c6N)C5)C4)c(F)c3C)ccc2CC1C(=O)NC1CCCc2ccccc21)C(C)(C)C

> <Shape>
0.226

> <Color>
0.084

> <Negative vol penalty>
0.000

$$$$

  -OEChem-04052316243D

 87 95  0     1  0  0  0  0  0999 V2000
  -31.5959  -23.3707   26.1003 C   0  0  0  0  0  0  0  0  0  0  0  0
  -30.4637  -23.5535   25.3128 C   0  0  0  0  0  0  0  0  0  0  0  0
  -29.8253  -28.5026   19.5223 C   0  0  0  0  0  0  0  0  0  0  0  0
  -29.2814  -27.6459   21.7149 C   0  0  0  0  0  0  0  0  0  0  0  0
  -32.4507  -22.2976   25.8517 C   0  0  0  0  0  0  0  0  0  0  0  0
  -30.1863  -22.6639   24.2754 C   0  0  0  0  0  0  0  0  0  0  0  0
  -25.3168  -21.2789   24.1539 C   0  0  0  0  0  0  0  0  0  0  0  0
  -31.1786  -28.5082   19.8602 C   0  0  0  0  0  0  0  0  0  0  0  0
  -30.6347  -27.6514   22.0528 C   0  0  0  0  0  0  0  0  0  0  0  0
  -24.4101  -22.1866   23.6083 C   0  0  0  0  0  0  0  0  0  0  0  0
  -33.9788  -27.0993   23.3681 C   0  0  0  0  0  0  0  0  0  0  0  0
  -34.4901  -25.9767   24.0191 C   0  0  0  0  0  0  0  0  0  0  0  0
  -24.4299  -20.9516   21.5362 C   0  0  0  0  0  0  0  0  0  0  0  0
  -33.8644  -24.5994   22.1353 C   0  0  0  0  0  0  0  0  0  0  0  0
  -28.8767  -28.0715   20.4497 C   0  0  0  0  0  0  0  0  0  0  0  0
  -26.7538  -27.0137   19.5106 C   0  0  0  0  0  0  0  0  0  0  0  0
  -32.1785  -21.3889   24.8170 C   0  0  0  0  0  0  0  0  0  0  0  0
  -25.7961  -20.2051   23.3899 C   0  0  0  0  0  0  0  0  0  0  0  0
  -31.0390  -21.5784   24.0119 C   0  0  0  0  0  0  0  0  0  0  0  0
  -25.3407  -20.0302   22.0753 C   0  0  0  0  0  0  0  0  0  0  0  0
  -17.8206  -27.2828   21.7087 C   0  0  0  0  0  0  0  0  0  0  0  0
  -19.6592  -28.1652   23.0039 C   0  0  0  0  0  0  0  0  0  0  0  0
  -19.4573  -25.7822   22.6609 C   0  0  0  0  0  0  0  0  0  0  0  0
  -31.5833  -28.0826   21.1254 C   0  0  0  0  0  0  0  0  0  0  0  0
  -23.9687  -22.0247   22.2983 C   0  0  0  0  0  0  0  0  0  0  0  0
  -33.4102  -26.9721   22.1007 C   0  0  0  0  0  0  0  0  0  0  0  0
  -34.4329  -24.7267   23.4027 C   0  0  0  0  0  0  0  0  0  0  0  0
  -33.3531  -25.7221   21.4843 C   0  0  0  0  0  0  0  0  0  0  0  0
  -18.5008  -28.3712   22.2548 C   0  0  0  0  0  0  0  0  0  0  0  0
  -18.2989  -25.9883   21.9118 C   0  0  0  0  0  0  0  0  0  0  0  0
  -20.1375  -26.8707   23.2070 C   0  0  0  0  0  0  0  0  0  0  0  0
  -27.4785  -28.0660   20.1014 C   0  0  0  0  0  0  0  0  0  0  0  0
  -25.4767  -27.5037   19.3862 C   0  0  0  0  0  0  0  0  0  0  0  0
  -27.1954  -25.7097   19.1101 C   0  0  0  0  0  0  0  0  0  0  0  0
  -28.6582  -19.2916   22.3520 C   0  0  0  0  0  0  0  0  0  0  0  0
  -27.0264  -16.6760   21.3430 C   0  0  0  0  0  0  0  0  0  0  0  0
  -24.0448  -15.3037   20.4082 C   0  0  0  0  0  0  0  0  0  0  0  0
  -21.7024  -30.9004   22.1668 C   0  0  0  0  0  0  0  0  0  0  0  0
  -33.1571  -20.2713   24.5562 C   0  0  0  0  0  0  0  0  0  0  0  0
  -26.7534  -19.2195   24.0019 C   0  0  0  0  0  0  0  0  0  0  0  0
  -25.8092  -18.8825   21.2198 C   0  0  0  0  0  0  0  0  0  0  0  0
  -32.5914  -19.1592   23.6767 C   0  0  0  0  0  0  0  0  0  0  0  0
  -23.4729  -32.0223   19.2887 C   0  0  0  0  0  0  0  0  0  0  0  0
  -31.8771  -19.7484   22.4645 C   0  0  0  0  0  0  0  0  0  0  0  0
  -24.6189  -31.0186   19.1499 C   0  0  0  0  0  0  0  0  0  0  0  0
  -23.1583  -32.3209   20.7529 C   0  0  0  0  0  0  0  0  0  0  0  0
  -24.0436  -30.1279   21.4465 C   0  0  0  0  0  0  0  0  0  0  0  0
  -30.6909  -20.6206   22.8932 C   0  0  1  0  0  0  0  0  0  0  0  0
  -27.5697  -18.4559   22.9637 C   0  0  1  0  0  0  0  0  0  0  0  0
  -24.3602  -29.7526   19.9887 C   0  0  2  0  0  0  0  0  0  0  0  0
  -16.5821  -27.5485   20.9137 C   0  0  0  0  0  0  0  0  0  0  0  0
  -23.0327  -13.1542   19.6004 C   0  0  0  0  0  0  0  0  0  0  0  0
  -20.2263  -22.6268   21.3423 C   0  0  0  0  0  0  0  0  0  0  0  0
  -28.1988  -17.1691   18.5695 C   0  0  0  0  0  0  0  0  0  0  0  0
  -26.4583  -15.6300   17.6365 C   0  0  0  0  0  0  0  0  0  0  0  0
  -28.1396  -14.7677   19.2652 C   0  0  0  0  0  0  0  0  0  0  0  0
  -19.4981  -23.7042   24.0175 C   0  0  0  0  0  0  0  0  0  0  0  0
  -22.2673  -15.1192   22.7673 C   0  0  0  0  0  0  0  0  0  0  0  0
  -20.3567  -29.3597   23.5719 C   0  0  0  0  0  0  0  0  0  0  0  0
  -22.1688  -23.5363   22.6606 C   0  0  0  0  0  0  0  0  0  1  0  0
  -26.2954  -16.2940   20.0786 C   0  0  1  0  0  0  0  0  0  0  0  0
  -23.3598  -14.0111   20.8135 C   0  0  2  0  0  0  0  0  0  0  0  0
  -20.8688  -23.8745   21.9341 C   0  0  2  0  0  0  0  0  0  0  0  0
  -27.2655  -15.9880   18.9027 C   0  0  0  0  0  0  0  0  0  0  0  0
  -26.7247  -29.1433   20.3359 N   0  0  0  0  0  0  0  0  0  0  0  0
  -25.5129  -28.7706   19.8901 N   0  0  0  0  0  0  0  0  0  0  0  0
  -26.7499  -17.9491   21.8612 N   0  0  0  0  0  0  0  0  0  0  0  0
  -22.9216  -31.0786   21.4922 N   0  0  0  0  0  0  0  0  0  0  0  0
  -24.3376  -26.9703   18.8959 N   0  0  0  0  0  0  0  0  0  0  0  0
  -28.5402  -25.3692   19.3098 N   0  0  0  0  0  0  0  0  0  0  0  0
  -29.5641  -19.7930   23.2671 N   0  0  0  0  0  0  0  0  0  0  0  0
  -25.4182  -15.1837   20.4339 N   0  0  0  0  0  0  0  0  0  0  0  0
  -21.5570  -29.6921   22.8373 N   0  0  0  0  0  0  0  0  0  0  0  0
  -19.9383  -24.4841   22.8630 N   0  0  3  0  0  0  0  0  0  0  0  0
  -22.0910  -14.3027   21.5389 N   0  3  0  0  0  0  0  0  0  0  0  0
  -26.4241  -24.8773   18.5755 O   0  0  0  0  0  0  0  0  0  0  0  0
  -28.6759  -19.4673   21.1393 O   0  0  0  0  0  0  0  0  0  0  0  0
  -27.8084  -15.8717   21.8560 O   0  0  0  0  0  0  0  0  0  0  0  0
  -23.4237  -16.3174   20.0962 O   0  0  0  0  0  0  0  0  0  0  0  0
  -20.8076  -31.7526   22.1667 O   0  0  0  0  0  0  0  0  0  0  0  0
  -32.9038  -28.0877   21.4554 O   0  0  0  0  0  0  0  0  0  0  0  0
  -23.0842  -22.9096   21.7631 O   0  0  0  0  0  0  0  0  0  1  0  0
  -34.9254  -23.6490   24.0273 F   0  0  0  0  0  0  0  0  0  0  0  0
  -32.8091  -25.5938   20.2663 F   0  0  0  0  0  0  0  0  0  0  0  0
  -18.0408  -29.6164   22.0596 F   0  0  0  0  0  0  0  0  0  0  0  0
  -17.4451  -24.6426   21.2262 Cl  0  0  0  0  0  0  0  0  0  0  0  0
  -21.5799  -26.6271   24.1392 Cl  0  0  0  0  0  0  0  0  0  0  0  0
  1  2  1  0  0  0  0
  1  5  2  0  0  0  0
  2  6  2  0  0  0  0
  3  8  2  0  0  0  0
  3 15  1  0  0  0  0
  4  9  1  0  0  0  0
  4 15  2  0  0  0  0
  5 17  1  0  0  0  0
  6 19  1  0  0  0  0
  7 10  2  0  0  0  0
  7 18  1  0  0  0  0
  8 24  1  0  0  0  0
  9 24  2  0  0  0  0
 10 25  1  0  0  0  0
 11 12  2  0  0  0  0
 11 26  1  0  0  0  0
 12 27  1  0  0  0  0
 13 20  1  0  0  0  0
 13 25  2  0  0  0  0
 14 27  2  0  0  0  0
 14 28  1  0  0  0  0
 15 32  1  0  0  0  0
 16 32  1  0  0  0  0
 16 33  2  0  0  0  0
 16 34  1  0  0  0  0
 17 19  2  0  0  0  0
 17 39  1  0  0  0  0
 18 20  2  0  0  0  0
 18 40  1  0  0  0  0
 19 48  1  0  0  0  0
 20 41  1  0  0  0  0
 21 29  1  0  0  0  0
 21 30  2  0  0  0  0
 21 51  1  0  0  0  0
 22 29  2  0  0  0  0
 22 31  1  0  0  0  0
 22 59  1  0  0  0  0
 23 30  1  0  0  0  0
 23 31  2  0  0  0  0
 23 74  1  0  0  0  0
 24 81  1  0  0  0  0
 25 82  1  0  0  0  0
 26 28  2  0  0  0  0
 26 81  1  0  0  0  0
 27 83  1  0  0  0  0
 28 84  1  0  0  0  0
 29 85  1  0  0  0  0
 30 86  1  0  0  0  0
 31 87  1  0  0  0  0
 32 65  2  0  0  0  0
 33 66  1  0  0  0  0
 33 69  1  0  0  0  0
 34 70  1  0  0  0  0
 34 76  2  0  0  0  0
 35 49  1  0  0  0  0
 35 71  1  0  0  0  0
 35 77  2  0  0  0  0
 36 61  1  0  0  0  0
 36 67  1  0  0  0  0
 36 78  2  0  0  0  0
 37 62  1  0  0  0  0
 37 72  1  0  0  0  0
 37 79  2  0  0  0  0
 38 68  1  0  0  0  0
 38 73  1  0  0  0  0
 38 80  2  0  0  0  0
 39 42  1  0  0  0  0
 40 49  1  0  0  0  0
 41 67  1  0  0  0  0
 42 44  1  0  0  0  0
 43 45  1  0  0  0  0
 43 46  1  0  0  0  0
 44 48  1  0  0  0  0
 45 50  1  0  0  0  0
 46 68  1  0  0  0  0
 47 50  1  0  0  0  0
 47 68  1  0  0  0  0
 48 71  1  0  0  0  0
 49 67  1  0  0  0  0
 50 66  1  0  0  0  0
 52 62  1  0  0  0  0
 53 63  1  0  0  0  0
 54 64  1  0  0  0  0
 55 64  1  0  0  0  0
 56 64  1  0  0  0  0
 57 74  1  0  0  0  0
 58 75  1  0  0  0  0
 59 73  1  0  0  0  0
 60 63  1  0  0  0  0
 60 82  1  0  0  0  0
 61 64  1  0  0  0  0
 61 72  1  0  0  0  0
 62 75  1  0  0  0  0
 63 74  1  0  0  0  0
 65 66  1  0  0  0  0
M  CHG  1  75   1
M  ISO  4  38 100  60 101  73 100  82 101
M  END
> <Batch ID>
0025

> <Smiles>
CNC(C)C(=O)NC(C(=O)N1Cc2cc([101O:1][101CH2:1]C(C)N(C)c3c(Cl)c(C)c(F)c(C[100NH:0][100C:0](=O)N4CCCC(n5nc(-c6ccc(Oc7ccc(F)cc7F)cc6)c(C(N)=O)c5N)C4)c3Cl)ccc2CC1C(=O)NC1CCCc2ccccc21)C(C)(C)C

> <Shape>
0.185

> <Color>
0.067

> <Negative vol penalty>
0.000

$$$$

  -OEChem-04052316243D

 83 91  0     1  0  0  0  0  0999 V2000
  -33.4963  -27.1041   16.5251 C   0  0  0  0  0  0  0  0  0  0  0  0
  -32.2447  -26.5163   16.3716 C   0  0  0  0  0  0  0  0  0  0  0  0
  -29.9134  -18.6207   21.0907 C   0  0  0  0  0  0  0  0  0  0  0  0
  -28.2241  -17.9628   19.4937 C   0  0  0  0  0  0  0  0  0  0  0  0
  -33.9167  -27.5269   17.7854 C   0  0  0  0  0  0  0  0  0  0  0  0
  -31.4133  -26.3500   17.4786 C   0  0  0  0  0  0  0  0  0  0  0  0
  -25.3009  -26.7170   17.5803 C   0  0  0  0  0  0  0  0  0  0  0  0
  -30.5873  -17.4191   20.8729 C   0  0  0  0  0  0  0  0  0  0  0  0
  -28.8980  -16.7612   19.2758 C   0  0  0  0  0  0  0  0  0  0  0  0
  -24.3022  -25.7447   17.5495 C   0  0  0  0  0  0  0  0  0  0  0  0
  -29.2332  -13.7760   20.8273 C   0  0  0  0  0  0  0  0  0  0  0  0
  -28.4757  -12.6054   20.7915 C   0  0  0  0  0  0  0  0  0  0  0  0
  -24.1652  -25.8178   19.9568 C   0  0  0  0  0  0  0  0  0  0  0  0
  -29.2216  -12.1919   18.5310 C   0  0  0  0  0  0  0  0  0  0  0  0
  -19.8003  -19.1995   18.0379 C   0  0  0  0  0  0  0  0  0  0  0  0
  -28.7317  -18.8926   20.4011 C   0  0  0  0  0  0  0  0  0  0  0  0
  -28.2148  -21.3469   19.9356 C   0  0  0  0  0  0  0  0  0  0  0  0
  -33.0861  -27.3745   18.9068 C   0  0  0  0  0  0  0  0  0  0  0  0
  -25.7477  -27.2400   18.8023 C   0  0  0  0  0  0  0  0  0  0  0  0
  -31.8236  -26.7699   18.7553 C   0  0  0  0  0  0  0  0  0  0  0  0
  -25.1679  -26.7986   20.0002 C   0  0  0  0  0  0  0  0  0  0  0  0
  -20.5640  -20.3489   18.1621 C   0  0  0  0  0  0  0  0  0  0  0  0
  -20.1827  -20.2335   20.5339 C   0  0  0  0  0  0  0  0  0  0  0  0
  -30.0796  -16.4893   19.9654 C   0  0  0  0  0  0  0  0  0  0  0  0
  -23.7362  -25.2928   18.7380 C   0  0  0  0  0  0  0  0  0  0  0  0
  -29.9849  -14.1547   19.7150 C   0  0  0  0  0  0  0  0  0  0  0  0
  -20.7541  -20.8694   19.4374 C   0  0  0  0  0  0  0  0  0  0  0  0
  -28.4698  -11.8133   19.6433 C   0  0  0  0  0  0  0  0  0  0  0  0
  -29.9791  -13.3626   18.5668 C   0  0  0  0  0  0  0  0  0  0  0  0
  -28.0348  -20.1335   20.6261 C   0  0  0  0  0  0  0  0  0  0  0  0
  -19.4359  -19.0894   20.3035 C   0  0  0  0  0  0  0  0  0  0  0  0
  -27.3228  -22.2112   20.5218 C   0  0  0  0  0  0  0  0  0  0  0  0
  -29.1084  -21.6644   18.8602 C   0  0  0  0  0  0  0  0  0  0  0  0
  -28.5266  -27.2762   20.3449 C   0  0  0  0  0  0  0  0  0  0  0  0
  -26.9212  -29.2143   22.3915 C   0  0  0  0  0  0  0  0  0  0  0  0
  -23.9252  -30.2270   23.6743 C   0  0  0  0  0  0  0  0  0  0  0  0
  -22.1916  -21.3794   23.4933 C   0  0  0  0  0  0  0  0  0  0  0  0
  -33.6032  -27.8039   20.2569 C   0  0  0  0  0  0  0  0  0  0  0  0
  -26.8070  -28.3077   18.8169 C   0  0  0  0  0  0  0  0  0  0  0  0
  -25.5979  -27.3428   21.3371 C   0  0  0  0  0  0  0  0  0  0  0  0
  -32.5104  -27.9323   21.3150 C   0  0  0  0  0  0  0  0  0  0  0  0
  -25.1031  -23.0531   24.6758 C   0  0  0  0  0  0  0  0  0  0  0  0
  -31.5906  -26.7158   21.2829 C   0  0  0  0  0  0  0  0  0  0  0  0
  -26.2009  -22.6041   23.7097 C   0  0  0  0  0  0  0  0  0  0  0  0
  -24.1090  -21.9297   24.9619 C   0  0  0  0  0  0  0  0  0  0  0  0
  -24.6092  -20.8624   22.7975 C   0  0  0  0  0  0  0  0  0  0  0  0
  -30.8830  -26.5948   19.9279 C   0  0  1  0  0  0  0  0  0  0  0  0
  -27.5463  -28.3978   20.1483 C   0  0  1  0  0  0  0  0  0  0  0  0
  -25.6042  -21.9781   22.4348 C   0  0  2  0  0  0  0  0  0  0  0  0
  -21.1538  -20.9932   16.9561 C   0  0  0  0  0  0  0  0  0  0  0  0
  -22.9348  -31.8004   25.3598 C   0  0  0  0  0  0  0  0  0  0  0  0
  -27.7780  -27.3396   24.6413 C   0  0  0  0  0  0  0  0  0  0  0  0
  -26.0231  -28.3866   26.0879 C   0  0  0  0  0  0  0  0  0  0  0  0
  -27.9008  -29.7726   25.2070 C   0  0  0  0  0  0  0  0  0  0  0  0
  -22.4104  -31.6874   21.5931 C   0  0  0  0  0  0  0  0  0  0  0  0
  -20.3781  -20.7816   21.9080 C   0  0  0  0  0  0  0  0  0  0  0  0
  -21.7934  -24.3764   19.7585 C   0  0  0  0  0  0  0  0  0  1  0  0
  -20.8053  -23.2441   19.5554 C   0  0  0  0  0  0  0  0  0  0  0  0
  -26.0822  -29.0024   23.6286 C   0  0  1  0  0  0  0  0  0  0  0  0
  -23.3454  -31.6104   23.9079 C   0  0  2  0  0  0  0  0  0  0  0  0
  -26.9390  -28.6134   24.8663 C   0  0  0  0  0  0  0  0  0  0  0  0
  -19.2293  -18.5540   19.0795 N   0  0  0  0  0  0  0  0  0  0  0  0
  -27.1018  -20.2156   21.5784 N   0  0  0  0  0  0  0  0  0  0  0  0
  -26.6877  -21.4911   21.4904 N   0  0  0  0  0  0  0  0  0  0  0  0
  -26.6414  -28.3807   21.2995 N   0  0  0  0  0  0  0  0  0  0  0  0
  -23.5791  -21.3804   23.7116 N   0  0  0  0  0  0  0  0  0  0  0  0
  -27.0277  -23.5094   20.2982 N   0  0  0  0  0  0  0  0  0  0  0  0
  -29.9572  -20.6588   18.3778 N   0  0  0  0  0  0  0  0  0  0  0  0
  -29.7877  -27.5370   19.8438 N   0  0  0  0  0  0  0  0  0  0  0  0
  -25.2980  -30.2201   23.8035 N   0  0  0  0  0  0  0  0  0  0  0  0
  -21.7739  -20.8464   22.2799 N   0  0  0  0  0  0  0  0  0  0  0  0
  -22.1461  -31.8212   23.0489 N   0  3  0  0  0  0  0  0  0  0  0  0
  -29.1646  -22.8105   18.3535 O   0  0  0  0  0  0  0  0  0  0  0  0
  -28.1660  -26.2508   20.9108 O   0  0  0  0  0  0  0  0  0  0  0  0
  -27.7878  -30.0921   22.3917 O   0  0  0  0  0  0  0  0  0  0  0  0
  -23.2295  -29.2495   23.4079 O   0  0  0  0  0  0  0  0  0  0  0  0
  -21.3851  -21.8257   24.3163 O   0  0  0  0  0  0  0  0  0  0  0  0
  -30.7371  -15.3167   19.7524 O   0  0  0  0  0  0  0  0  0  0  0  0
  -22.7617  -24.3434   18.7108 O   0  0  0  0  0  0  0  0  0  1  0  0
  -21.5015  -22.0048   19.6086 O   0  0  0  0  0  0  0  0  0  0  0  0
  -27.7435  -10.6884   19.6096 F   0  0  0  0  0  0  0  0  0  0  0  0
  -30.7002  -13.7206   17.4955 F   0  0  0  0  0  0  0  0  0  0  0  0
  -18.6784  -18.2133   21.5760 Cl  0  0  0  0  0  0  0  0  0  0  0  0
  1  2  1  0  0  0  0
  1  5  2  0  0  0  0
  2  6  2  0  0  0  0
  3  8  2  0  0  0  0
  3 16  1  0  0  0  0
  4  9  1  0  0  0  0
  4 16  2  0  0  0  0
  5 18  1  0  0  0  0
  6 20  1  0  0  0  0
  7 10  2  0  0  0  0
  7 19  1  0  0  0  0
  8 24  1  0  0  0  0
  9 24  2  0  0  0  0
 10 25  1  0  0  0  0
 11 12  2  0  0  0  0
 11 26  1  0  0  0  0
 12 28  1  0  0  0  0
 13 21  1  0  0  0  0
 13 25  2  0  0  0  0
 14 28  2  0  0  0  0
 14 29  1  0  0  0  0
 15 22  2  0  0  0  0
 15 62  1  0  0  0  0
 16 30  1  0  0  0  0
 17 30  1  0  0  0  0
 17 32  2  0  0  0  0
 17 33  1  0  0  0  0
 18 20  2  0  0  0  0
 18 38  1  0  0  0  0
 19 21  2  0  0  0  0
 19 39  1  0  0  0  0
 20 47  1  0  0  0  0
 21 40  1  0  0  0  0
 22 27  1  0  0  0  0
 22 50  1  0  0  0  0
 23 27  2  0  0  0  0
 23 31  1  0  0  0  0
 23 56  1  0  0  0  0
 24 78  1  0  0  0  0
 25 79  1  0  0  0  0
 26 29  2  0  0  0  0
 26 78  1  0  0  0  0
 27 80  1  0  0  0  0
 28 81  1  0  0  0  0
 29 82  1  0  0  0  0
 30 63  2  0  0  0  0
 31 62  2  0  0  0  0
 31 83  1  0  0  0  0
 32 64  1  0  0  0  0
 32 67  1  0  0  0  0
 33 68  1  0  0  0  0
 33 73  2  0  0  0  0
 34 48  1  0  0  0  0
 34 69  1  0  0  0  0
 34 74  2  0  0  0  0
 35 59  1  0  0  0  0
 35 65  1  0  0  0  0
 35 75  2  0  0  0  0
 36 60  1  0  0  0  0
 36 70  1  0  0  0  0
 36 76  2  0  0  0  0
 37 66  1  0  0  0  0
 37 71  1  0  0  0  0
 37 77  2  0  0  0  0
 38 41  1  0  0  0  0
 39 48  1  0  0  0  0
 40 65  1  0  0  0  0
 41 43  1  0  0  0  0
 42 44  1  0  0  0  0
 42 45  1  0  0  0  0
 43 47  1  0  0  0  0
 44 49  1  0  0  0  0
 45 66  1  0  0  0  0
 46 49  1  0  0  0  0
 46 66  1  0  0  0  0
 47 69  1  0  0  0  0
 48 65  1  0  0  0  0
 49 64  1  0  0  0  0
 51 60  1  0  0  0  0
 52 61  1  0  0  0  0
 53 61  1  0  0  0  0
 54 61  1  0  0  0  0
 55 72  1  0  0  0  0
 56 71  1  0  0  0  0
 57 58  1  0  0  0  0
 57 79  1  0  0  0  0
 58 80  1  0  0  0  0
 59 61  1  0  0  0  0
 59 70  1  0  0  0  0
 60 72  1  0  0  0  0
 63 64  1  0  0  0  0
M  CHG  1  72   1
M  ISO  4  37 100  57 101  71 100  79 101
M  END
> <Batch ID>
0025

> <Smiles>
CNC(C)C(=O)NC(C(=O)N1Cc2cc([101O:1][101CH2:1]COc3c(C)cnc(Cl)c3C[100NH:0][100C:0](=O)N3CCCC(n4nc(-c5ccc(Oc6ccc(F)cc6F)cc5)c(C(N)=O)c4N)C3)ccc2CC1C(=O)NC1CCCc2ccccc21)C(C)(C)C

> <Shape>
0.205

> <Color>
0.071

> <Negative vol penalty>
0.000

$$$$

  -OEChem-04052316243D

 83 91  0     1  0  0  0  0  0999 V2000
  -19.5957  -24.7287   24.2884 C   0  0  0  0  0  0  0  0  0  0  0  0
  -20.9017  -24.8284   23.8195 C   0  0  0  0  0  0  0  0  0  0  0  0
  -26.9751  -15.4876   21.8592 C   0  0  0  0  0  0  0  0  0  0  0  0
  -26.2687  -15.6182   19.5524 C   0  0  0  0  0  0  0  0  0  0  0  0
  -18.6606  -25.7083   23.9571 C   0  0  0  0  0  0  0  0  0  0  0  0
  -21.2731  -25.9075   23.0181 C   0  0  0  0  0  0  0  0  0  0  0  0
  -26.7069  -28.7311   22.9320 C   0  0  0  0  0  0  0  0  0  0  0  0
  -26.8591  -27.6057   17.8931 C   0  0  0  0  0  0  0  0  0  0  0  0
  -25.8006  -26.6992   17.8347 C   0  0  0  0  0  0  0  0  0  0  0  0
  -26.5920  -14.1471   21.9006 C   0  0  0  0  0  0  0  0  0  0  0  0
  -25.8857  -14.2776   19.5938 C   0  0  0  0  0  0  0  0  0  0  0  0
  -27.8119  -28.6133   22.0902 C   0  0  0  0  0  0  0  0  0  0  0  0
  -23.7246  -12.3848   22.2111 C   0  0  0  0  0  0  0  0  0  0  0  0
  -23.0011  -11.9523   23.3225 C   0  0  0  0  0  0  0  0  0  0  0  0
  -27.0202  -30.4903   20.7983 C   0  0  0  0  0  0  0  0  0  0  0  0
  -24.7410  -10.3560   23.8340 C   0  0  0  0  0  0  0  0  0  0  0  0
  -26.8134  -16.2233   20.6851 C   0  0  0  0  0  0  0  0  0  0  0  0
  -28.4694  -18.1219   20.2846 C   0  0  0  0  0  0  0  0  0  0  0  0
  -19.0232  -26.8049   23.1592 C   0  0  0  0  0  0  0  0  0  0  0  0
  -25.7429  -29.7242   22.7065 C   0  0  0  0  0  0  0  0  0  0  0  0
  -20.3416  -26.9020   22.6747 C   0  0  0  0  0  0  0  0  0  0  0  0
  -25.9051  -30.6203   21.6403 C   0  0  0  0  0  0  0  0  0  0  0  0
  -28.1182  -27.2392   17.4177 C   0  0  0  0  0  0  0  0  0  0  0  0
  -26.0013  -25.4261   17.3011 C   0  0  0  0  0  0  0  0  0  0  0  0
  -26.0474  -13.5420   20.7679 C   0  0  0  0  0  0  0  0  0  0  0  0
  -27.9672  -29.4911   21.0214 C   0  0  0  0  0  0  0  0  0  0  0  0
  -24.9563  -11.8028   21.9111 C   0  0  0  0  0  0  0  0  0  0  0  0
  -23.5093  -10.9379   24.1339 C   0  0  0  0  0  0  0  0  0  0  0  0
  -25.4645  -10.7885   22.7226 C   0  0  0  0  0  0  0  0  0  0  0  0
  -28.3189  -25.9662   16.8840 C   0  0  0  0  0  0  0  0  0  0  0  0
  -27.2604  -25.0596   16.8257 C   0  0  0  0  0  0  0  0  0  0  0  0
  -27.2083  -17.6083   20.6418 C   0  0  0  0  0  0  0  0  0  0  0  0
  -28.3317  -19.4833   20.4029 C   0  0  0  0  0  0  0  0  0  0  0  0
  -29.6589  -17.4302   19.8816 C   0  0  0  0  0  0  0  0  0  0  0  0
  -22.6379  -29.7231   22.0260 C   0  0  0  0  0  0  0  0  0  0  0  0
  -22.9526  -32.9300   22.3990 C   0  0  0  0  0  0  0  0  0  0  0  0
  -24.9931  -35.6653   22.3572 C   0  0  0  0  0  0  0  0  0  0  0  0
  -24.4216  -23.6696   19.5659 C   0  0  0  0  0  0  0  0  0  0  0  0
  -17.9655  -27.8141   22.7884 C   0  0  0  0  0  0  0  0  0  0  0  0
  -24.5705  -29.8549   23.6397 C   0  0  0  0  0  0  0  0  0  0  0  0
  -24.9092  -31.7166   21.3672 C   0  0  0  0  0  0  0  0  0  0  0  0
  -18.5352  -29.1215   22.2440 C   0  0  0  0  0  0  0  0  0  0  0  0
  -25.2257  -22.4740   22.8218 C   0  0  0  0  0  0  0  0  0  0  0  0
  -19.6163  -28.8410   21.2051 C   0  0  0  0  0  0  0  0  0  0  0  0
  -25.9361  -21.1451   22.5583 C   0  0  0  0  0  0  0  0  0  0  0  0
  -24.0917  -22.7145   21.8276 C   0  0  0  0  0  0  0  0  0  0  0  0
  -25.1919  -21.2889   20.1450 C   0  0  0  0  0  0  0  0  0  0  0  0
  -20.7891  -28.0704   21.8235 C   0  0  1  0  0  0  0  0  0  0  0  0
  -23.3839  -30.5786   23.0106 C   0  0  1  0  0  0  0  0  0  0  0  0
  -26.3793  -21.0282   21.0875 C   0  0  2  0  0  0  0  0  0  0  0  0
  -24.9557  -38.1556   22.6636 C   0  0  0  0  0  0  0  0  0  0  0  0
  -21.6950  -33.2486   19.6373 C   0  0  0  0  0  0  0  0  0  0  0  0
  -22.5421  -35.6042   19.5999 C   0  0  0  0  0  0  0  0  0  0  0  0
  -20.9016  -34.8981   21.3414 C   0  0  0  0  0  0  0  0  0  0  0  0
  -26.8643  -35.5282   24.6460 C   0  0  0  0  0  0  0  0  0  0  0  0
  -29.2291  -28.2553   17.5030 C   0  0  0  0  0  0  0  0  0  0  0  0
  -24.8348  -24.4911   17.2608 C   0  0  0  0  0  0  0  0  0  0  0  0
  -30.2222  -27.9883   18.6362 C   0  0  0  0  0  0  0  0  0  0  0  0
  -29.5937  -28.0726   20.0222 C   0  0  0  0  0  0  0  0  0  1  0  0
  -23.2909  -34.0843   21.4868 C   0  0  1  0  0  0  0  0  0  0  0  0
  -25.1640  -36.8096   23.3399 C   0  0  2  0  0  0  0  0  0  0  0  0
  -22.1253  -34.4370   20.5201 C   0  0  0  0  0  0  0  0  0  0  0  0
  -26.3339  -18.5654   20.9632 N   0  0  0  0  0  0  0  0  0  0  0  0
  -27.0467  -19.6942   20.8084 N   0  0  0  0  0  0  0  0  0  0  0  0
  -23.7765  -31.7995   22.3040 N   0  0  0  0  0  0  0  0  0  0  0  0
  -24.5786  -22.5907   20.4515 N   0  0  0  0  0  0  0  0  0  0  0  0
  -29.1857  -20.5087   20.1987 N   0  0  0  0  0  0  0  0  0  0  0  0
  -29.6271  -16.0307   19.8129 N   0  0  0  0  0  0  0  0  0  0  0  0
  -21.6317  -28.9626   22.5905 N   0  0  0  0  0  0  0  0  0  0  0  0
  -23.7012  -35.1833   22.3541 N   0  0  0  0  0  0  0  0  0  0  0  0
  -24.9165  -23.4714   18.2827 N   0  0  0  0  0  0  0  0  0  0  0  0
  -26.5327  -36.7864   23.9290 N   0  3  0  0  0  0  0  0  0  0  0  0
  -30.7234  -18.0343   19.6070 O   0  0  0  0  0  0  0  0  0  0  0  0
  -22.9511  -29.7521   20.8416 O   0  0  0  0  0  0  0  0  0  0  0  0
  -21.9970  -33.0305   23.1726 O   0  0  0  0  0  0  0  0  0  0  0  0
  -25.9127  -35.2437   21.6592 O   0  0  0  0  0  0  0  0  0  0  0  0
  -23.8853  -24.7328   19.8959 O   0  0  0  0  0  0  0  0  0  0  0  0
  -25.6738  -12.2338   20.8079 O   0  0  0  0  0  0  0  0  0  0  0  0
  -29.0445  -29.3780   20.1977 O   0  0  0  0  0  0  0  0  0  1  0  0
  -22.8151  -10.5238   25.2020 F   0  0  0  0  0  0  0  0  0  0  0  0
  -26.6478  -10.2264   22.4402 F   0  0  0  0  0  0  0  0  0  0  0  0
  -29.8980  -25.5419   16.3012 Cl  0  0  0  0  0  0  0  0  0  0  0  0
  -27.4763  -23.4679   16.1677 Cl  0  0  0  0  0  0  0  0  0  0  0  0
  1  2  1  0  0  0  0
  1  5  2  0  0  0  0
  2  6  2  0  0  0  0
  3 10  2  0  0  0  0
  3 17  1  0  0  0  0
  4 11  1  0  0  0  0
  4 17  2  0  0  0  0
  5 19  1  0  0  0  0
  6 21  1  0  0  0  0
  7 12  2  0  0  0  0
  7 20  1  0  0  0  0
  8  9  2  0  0  0  0
  8 23  1  0  0  0  0
  9 24  1  0  0  0  0
 10 25  1  0  0  0  0
 11 25  2  0  0  0  0
 12 26  1  0  0  0  0
 13 14  2  0  0  0  0
 13 27  1  0  0  0  0
 14 28  1  0  0  0  0
 15 22  1  0  0  0  0
 15 26  2  0  0  0  0
 16 28  2  0  0  0  0
 16 29  1  0  0  0  0
 17 32  1  0  0  0  0
 18 32  1  0  0  0  0
 18 33  2  0  0  0  0
 18 34  1  0  0  0  0
 19 21  2  0  0  0  0
 19 39  1  0  0  0  0
 20 22  2  0  0  0  0
 20 40  1  0  0  0  0
 21 48  1  0  0  0  0
 22 41  1  0  0  0  0
 23 30  2  0  0  0  0
 23 56  1  0  0  0  0
 24 31  2  0  0  0  0
 24 57  1  0  0  0  0
 25 78  1  0  0  0  0
 26 79  1  0  0  0  0
 27 29  2  0  0  0  0
 27 78  1  0  0  0  0
 28 80  1  0  0  0  0
 29 81  1  0  0  0  0
 30 31  1  0  0  0  0
 30 82  1  0  0  0  0
 31 83  1  0  0  0  0
 32 63  2  0  0  0  0
 33 64  1  0  0  0  0
 33 67  1  0  0  0  0
 34 68  1  0  0  0  0
 34 73  2  0  0  0  0
 35 49  1  0  0  0  0
 35 69  1  0  0  0  0
 35 74  2  0  0  0  0
 36 60  1  0  0  0  0
 36 65  1  0  0  0  0
 36 75  2  0  0  0  0
 37 61  1  0  0  0  0
 37 70  1  0  0  0  0
 37 76  2  0  0  0  0
 38 66  1  0  0  0  0
 38 71  1  0  0  0  0
 38 77  2  0  0  0  0
 39 42  1  0  0  0  0
 40 49  1  0  0  0  0
 41 65  1  0  0  0  0
 42 44  1  0  0  0  0
 43 45  1  0  0  0  0
 43 46  1  0  0  0  0
 44 48  1  0  0  0  0
 45 50  1  0  0  0  0
 46 66  1  0  0  0  0
 47 50  1  0  0  0  0
 47 66  1  0  0  0  0
 48 69  1  0  0  0  0
 49 65  1  0  0  0  0
 50 64  1  0  0  0  0
 51 61  1  0  0  0  0
 52 62  1  0  0  0  0
 53 62  1  0  0  0  0
 54 62  1  0  0  0  0
 55 72  1  0  0  0  0
 56 58  1  0  0  0  0
 57 71  1  0  0  0  0
 58 59  1  0  0  0  0
 59 79  1  0  0  0  0
 60 62  1  0  0  0  0
 60 70  1  0  0  0  0
 61 72  1  0  0  0  0
 63 64  1  0  0  0  0
M  CHG  1  72   1
M  ISO  4  38 100  59 101  71 100  79 101
M  END
> <Batch ID>
0025

> <Smiles>
CNC(C)C(=O)NC(C(=O)N1Cc2cc([101O:1][101CH2:1]CCc3ccc(C[100NH:0][100C:0](=O)N4CCCC(n5nc(-c6ccc(Oc7ccc(F)cc7F)cc6)c(C(N)=O)c5N)C4)c(Cl)c3Cl)ccc2CC1C(=O)NC1CCCc2ccccc21)C(C)(C)C

> <Shape>
0.235

> <Color>
0.120

> <Negative vol penalty>
0.000

$$$$

  -OEChem-04052316243D

 86 94  0     1  0  0  0  0  0999 V2000
  -17.4961  -25.9031   21.9655 C   0  0  0  0  0  0  0  0  0  0  0  0
  -18.7900  -25.3934   21.9281 C   0  0  0  0  0  0  0  0  0  0  0  0
  -23.4911   -9.5821   20.3518 C   0  0  0  0  0  0  0  0  0  0  0  0
  -23.8837  -10.1874   22.6576 C   0  0  0  0  0  0  0  0  0  0  0  0
  -17.2876  -27.2525   22.2474 C   0  0  0  0  0  0  0  0  0  0  0  0
  -19.8763  -26.2331   22.1716 C   0  0  0  0  0  0  0  0  0  0  0  0
  -23.2840  -24.1485   25.2840 C   0  0  0  0  0  0  0  0  0  0  0  0
  -22.8555   -8.4120   20.7671 C   0  0  0  0  0  0  0  0  0  0  0  0
  -23.2481   -9.0173   23.0729 C   0  0  0  0  0  0  0  0  0  0  0  0
  -24.1484  -23.2004   24.7385 C   0  0  0  0  0  0  0  0  0  0  0  0
  -20.0793   -7.9010   23.4385 C   0  0  0  0  0  0  0  0  0  0  0  0
  -19.1612   -8.0001   24.4838 C   0  0  0  0  0  0  0  0  0  0  0  0
  -25.8739  -24.8779   24.5724 C   0  0  0  0  0  0  0  0  0  0  0  0
  -27.5129  -19.5421   23.9520 C   0  0  0  0  0  0  0  0  0  0  0  0
  -20.4896   -6.4668   25.7959 C   0  0  0  0  0  0  0  0  0  0  0  0
  -24.0052  -10.4698   21.2970 C   0  0  0  0  0  0  0  0  0  0  0  0
  -24.0682  -12.9340   20.6403 C   0  0  0  0  0  0  0  0  0  0  0  0
  -18.3713  -28.1072   22.5040 C   0  0  0  0  0  0  0  0  0  0  0  0
  -23.7052  -25.4733   25.4680 C   0  0  0  0  0  0  0  0  0  0  0  0
  -19.6821  -27.5955   22.4559 C   0  0  0  0  0  0  0  0  0  0  0  0
  -25.0137  -25.8404   25.1228 C   0  0  0  0  0  0  0  0  0  0  0  0
  -28.5225  -18.7225   23.4475 C   0  0  0  0  0  0  0  0  0  0  0  0
  -26.8658  -20.4488   23.1124 C   0  0  0  0  0  0  0  0  0  0  0  0
  -28.8850  -18.8096   22.1034 C   0  0  0  0  0  0  0  0  0  0  0  0
  -27.2283  -20.5359   21.7683 C   0  0  0  0  0  0  0  0  0  0  0  0
  -22.7340   -8.1296   22.1277 C   0  0  0  0  0  0  0  0  0  0  0  0
  -25.4426  -23.5657   24.3799 C   0  0  0  0  0  0  0  0  0  0  0  0
  -21.2026   -7.0847   23.5718 C   0  0  0  0  0  0  0  0  0  0  0  0
  -19.3663   -7.2830   25.6625 C   0  0  0  0  0  0  0  0  0  0  0  0
  -21.4077   -6.3677   24.7505 C   0  0  0  0  0  0  0  0  0  0  0  0
  -28.2380  -19.7163   21.2638 C   0  0  0  0  0  0  0  0  0  0  0  0
  -24.6624  -11.6783   20.8686 C   0  0  0  0  0  0  0  0  0  0  0  0
  -25.1095  -13.7411   20.2520 C   0  0  0  0  0  0  0  0  0  0  0  0
  -22.6976  -13.3350   20.7679 C   0  0  0  0  0  0  0  0  0  0  0  0
  -22.7835  -28.2976   24.3378 C   0  0  0  0  0  0  0  0  0  0  0  0
  -24.9602  -29.4218   26.4639 C   0  0  0  0  0  0  0  0  0  0  0  0
  -27.7700  -28.8445   28.3128 C   0  0  0  0  0  0  0  0  0  0  0  0
  -30.3448  -15.5699   20.8782 C   0  0  0  0  0  0  0  0  0  0  0  0
  -18.0990  -29.5687   22.7575 C   0  0  0  0  0  0  0  0  0  0  0  0
  -22.7693  -26.4777   26.0824 C   0  0  0  0  0  0  0  0  0  0  0  0
  -25.5212  -27.2448   25.3189 C   0  0  0  0  0  0  0  0  0  0  0  0
  -19.2823  -30.3109   23.3733 C   0  0  0  0  0  0  0  0  0  0  0  0
  -29.8698  -12.5924   18.9847 C   0  0  0  0  0  0  0  0  0  0  0  0
  -20.5715  -29.9668   22.6340 C   0  0  0  0  0  0  0  0  0  0  0  0
  -28.4265  -12.1898   19.2921 C   0  0  0  0  0  0  0  0  0  0  0  0
  -30.5600  -13.1954   20.2062 C   0  0  0  0  0  0  0  0  0  0  0  0
  -28.3963  -13.9172   21.1397 C   0  0  0  0  0  0  0  0  0  0  0  0
  -20.8848  -28.4694   22.7390 C   0  0  1  0  0  0  0  0  0  0  0  0
  -23.1375  -27.9200   25.7484 C   0  0  1  0  0  0  0  0  0  0  0  0
  -27.6414  -13.3556   19.9228 C   0  0  2  0  0  0  0  0  0  0  0  0
  -30.2114  -18.4476   25.2801 C   0  0  0  0  0  0  0  0  0  0  0  0
  -29.3320  -29.9658   29.9253 C   0  0  0  0  0  0  0  0  0  0  0  0
  -26.2322  -30.9617   24.1573 C   0  0  0  0  0  0  0  0  0  0  0  0
  -28.2689  -31.2725   25.5797 C   0  0  0  0  0  0  0  0  0  0  0  0
  -26.0845  -32.2341   26.3053 C   0  0  0  0  0  0  0  0  0  0  0  0
  -27.1549  -26.8895   30.4479 C   0  0  0  0  0  0  0  0  0  0  0  0
  -29.1982  -17.7608   24.3696 C   0  0  0  0  0  0  0  0  0  0  0  0
  -29.9716  -17.9200   21.5833 C   0  0  0  0  0  0  0  0  0  0  0  0
  -25.7835  -21.3178   23.6823 C   0  0  0  0  0  0  0  0  0  1  0  0
  -26.4367  -29.7331   26.4188 C   0  0  1  0  0  0  0  0  0  0  0  0
  -28.0859  -29.1072   29.7742 C   0  0  2  0  0  0  0  0  0  0  0  0
  -26.5203  -21.5163   20.8852 C   0  0  0  0  0  0  0  0  0  0  0  0
  -26.7457  -31.0243   25.6097 C   0  0  0  0  0  0  0  0  0  0  0  0
  -25.9790  -11.6824   20.6438 N   0  0  0  0  0  0  0  0  0  0  0  0
  -26.2207  -12.9505   20.2702 N   0  0  0  0  0  0  0  0  0  0  0  0
  -24.5664  -28.1922   25.9174 N   0  0  0  0  0  0  0  0  0  0  0  0
  -29.7650  -14.2965   20.7554 N   0  0  0  0  0  0  0  0  0  0  0  0
  -25.1738  -15.0428   19.9001 N   0  0  0  0  0  0  0  0  0  0  0  0
  -21.7574  -12.3798   21.1780 N   0  0  0  0  0  0  0  0  0  0  0  0
  -21.4416  -28.1594   24.0383 N   0  0  0  0  0  0  0  0  0  0  0  0
  -26.8876  -29.7747   27.8057 N   0  0  0  0  0  0  0  0  0  0  0  0
  -29.5204  -16.5583   21.4020 N   0  0  0  0  0  0  0  0  0  0  0  0
  -28.3103  -27.8222   30.4948 N   0  3  0  0  0  0  0  0  0  0  0  0
  -22.3151  -14.5014   20.5097 O   0  0  0  0  0  0  0  0  0  0  0  0
  -23.6624  -28.6870   23.5778 O   0  0  0  0  0  0  0  0  0  0  0  0
  -24.1857  -30.2365   26.9720 O   0  0  0  0  0  0  0  0  0  0  0  0
  -28.2602  -27.9098   27.6829 O   0  0  0  0  0  0  0  0  0  0  0  0
  -31.5091  -15.8097   20.5408 O   0  0  0  0  0  0  0  0  0  0  0  0
  -22.1136   -6.9880   22.5334 O   0  0  0  0  0  0  0  0  0  0  0  0
  -26.2882  -22.6424   23.8467 O   0  0  0  0  0  0  0  0  0  1  0  0
  -18.4853   -7.3795   26.6669 F   0  0  0  0  0  0  0  0  0  0  0  0
  -22.4855   -5.5828   24.8849 F   0  0  0  0  0  0  0  0  0  0  0  0
  -25.5627  -22.2373   21.5353 F   0  0  0  0  0  0  0  0  0  0  0  0
  -27.3527  -22.4411   20.3277 F   0  0  0  0  0  0  0  0  0  0  0  0
  -25.8855  -20.9113   19.8423 F   0  0  0  0  0  0  0  0  0  0  0  0
  -28.6885  -19.8244   19.5938 Cl  0  0  0  0  0  0  0  0  0  0  0  0
  1  2  1  0  0  0  0
  1  5  2  0  0  0  0
  2  6  2  0  0  0  0
  3  8  2  0  0  0  0
  3 16  1  0  0  0  0
  4  9  1  0  0  0  0
  4 16  2  0  0  0  0
  5 18  1  0  0  0  0
  6 20  1  0  0  0  0
  7 10  2  0  0  0  0
  7 19  1  0  0  0  0
  8 26  1  0  0  0  0
  9 26  2  0  0  0  0
 10 27  1  0  0  0  0
 11 12  2  0  0  0  0
 11 28  1  0  0  0  0
 12 29  1  0  0  0  0
 13 21  1  0  0  0  0
 13 27  2  0  0  0  0
 14 22  1  0  0  0  0
 14 23  2  0  0  0  0
 15 29  2  0  0  0  0
 15 30  1  0  0  0  0
 16 32  1  0  0  0  0
 17 32  1  0  0  0  0
 17 33  2  0  0  0  0
 17 34  1  0  0  0  0
 18 20  2  0  0  0  0
 18 39  1  0  0  0  0
 19 21  2  0  0  0  0
 19 40  1  0  0  0  0
 20 48  1  0  0  0  0
 21 41  1  0  0  0  0
 22 24  2  0  0  0  0
 22 57  1  0  0  0  0
 23 25  1  0  0  0  0
 23 59  1  0  0  0  0
 24 31  1  0  0  0  0
 24 58  1  0  0  0  0
 25 31  2  0  0  0  0
 25 62  1  0  0  0  0
 26 79  1  0  0  0  0
 27 80  1  0  0  0  0
 28 30  2  0  0  0  0
 28 79  1  0  0  0  0
 29 81  1  0  0  0  0
 30 82  1  0  0  0  0
 31 86  1  0  0  0  0
 32 64  2  0  0  0  0
 33 65  1  0  0  0  0
 33 68  1  0  0  0  0
 34 69  1  0  0  0  0
 34 74  2  0  0  0  0
 35 49  1  0  0  0  0
 35 70  1  0  0  0  0
 35 75  2  0  0  0  0
 36 60  1  0  0  0  0
 36 66  1  0  0  0  0
 36 76  2  0  0  0  0
 37 61  1  0  0  0  0
 37 71  1  0  0  0  0
 37 77  2  0  0  0  0
 38 67  1  0  0  0  0
 38 72  1  0  0  0  0
 38 78  2  0  0  0  0
 39 42  1  0  0  0  0
 40 49  1  0  0  0  0
 41 66  1  0  0  0  0
 42 44  1  0  0  0  0
 43 45  1  0  0  0  0
 43 46  1  0  0  0  0
 44 48  1  0  0  0  0
 45 50  1  0  0  0  0
 46 67  1  0  0  0  0
 47 50  1  0  0  0  0
 47 67  1  0  0  0  0
 48 70  1  0  0  0  0
 49 66  1  0  0  0  0
 50 65  1  0  0  0  0
 51 57  1  0  0  0  0
 52 61  1  0  0  0  0
 53 63  1  0  0  0  0
 54 63  1  0  0  0  0
 55 63  1  0  0  0  0
 56 73  1  0  0  0  0
 58 72  1  0  0  0  0
 59 80  1  0  0  0  0
 60 63  1  0  0  0  0
 60 71  1  0  0  0  0
 61 73  1  0  0  0  0
 62 83  1  0  0  0  0
 62 84  1  0  0  0  0
 62 85  1  0  0  0  0
 64 65  1  0  0  0  0
M  CHG  1  73   1
M  ISO  4  38 100  59 101  72 100  80 101
M  END
> <Batch ID>
0025

> <Smiles>
CCc1cc([101CH2:1][101O:1]c2ccc3c(c2)CN(C(=O)C(NC(=O)C(C)NC)C(C)(C)C)C(C(=O)NC2CCCc4ccccc42)C3)c(C(F)(F)F)c(Cl)c1C[100NH:0][100C:0](=O)N1CCCC(n2nc(-c3ccc(Oc4ccc(F)cc4F)cc3)c(C(N)=O)c2N)C1

> <Shape>
0.290

> <Color>
0.191

> <Negative vol penalty>
0.000

$$$$

  -OEChem-04052316243D

 87 95  0     1  0  0  0  0  0999 V2000
  -20.6754  -26.7583   15.2619 C   0  0  0  0  0  0  0  0  0  0  0  0
  -20.4246  -26.2669   16.5391 C   0  0  0  0  0  0  0  0  0  0  0  0
  -23.0697   -9.8738   19.9422 C   0  0  0  0  0  0  0  0  0  0  0  0
  -23.8356   -9.8759   22.2336 C   0  0  0  0  0  0  0  0  0  0  0  0
  -21.9614  -26.6856   14.7283 C   0  0  0  0  0  0  0  0  0  0  0  0
  -21.4597  -25.7015   17.2830 C   0  0  0  0  0  0  0  0  0  0  0  0
  -23.7283  -24.9746   24.0388 C   0  0  0  0  0  0  0  0  0  0  0  0
  -22.3243   -8.7216   20.1924 C   0  0  0  0  0  0  0  0  0  0  0  0
  -23.0902   -8.7237   22.4838 C   0  0  0  0  0  0  0  0  0  0  0  0
  -24.1312  -23.9898   24.9396 C   0  0  0  0  0  0  0  0  0  0  0  0
  -19.8622   -7.9310   23.0936 C   0  0  0  0  0  0  0  0  0  0  0  0
  -19.1082   -7.8907   24.2664 C   0  0  0  0  0  0  0  0  0  0  0  0
  -26.3297  -23.9896   23.9466 C   0  0  0  0  0  0  0  0  0  0  0  0
  -29.3787  -18.8847   22.1891 C   0  0  0  0  0  0  0  0  0  0  0  0
  -20.3480   -5.9499   24.9967 C   0  0  0  0  0  0  0  0  0  0  0  0
  -23.8254  -10.4509   20.9628 C   0  0  0  0  0  0  0  0  0  0  0  0
  -24.1716  -12.9756   20.8457 C   0  0  0  0  0  0  0  0  0  0  0  0
  -23.0148  -26.1277   15.4698 C   0  0  0  0  0  0  0  0  0  0  0  0
  -24.6213  -25.4674   23.0765 C   0  0  0  0  0  0  0  0  0  0  0  0
  -22.7607  -25.6200   16.7583 C   0  0  0  0  0  0  0  0  0  0  0  0
  -25.9364  -24.9825   23.0364 C   0  0  0  0  0  0  0  0  0  0  0  0
  -29.9588  -17.7478   22.7519 C   0  0  0  0  0  0  0  0  0  0  0  0
  -29.7274  -17.4375   24.0920 C   0  0  0  0  0  0  0  0  0  0  0  0
  -28.3360  -19.4009   24.3065 C   0  0  0  0  0  0  0  0  0  0  0  0
  -22.3346   -8.1466   21.4632 C   0  0  0  0  0  0  0  0  0  0  0  0
  -25.4313  -23.4950   24.8917 C   0  0  0  0  0  0  0  0  0  0  0  0
  -20.8590   -6.9807   22.8723 C   0  0  0  0  0  0  0  0  0  0  0  0
  -19.3511   -6.9002   25.2180 C   0  0  0  0  0  0  0  0  0  0  0  0
  -21.1019   -5.9902   23.8238 C   0  0  0  0  0  0  0  0  0  0  0  0
  -28.5674  -19.7112   22.9664 C   0  0  0  0  0  0  0  0  0  0  0  0
  -28.9160  -18.2640   24.8693 C   0  0  0  0  0  0  0  0  0  0  0  0
  -24.5960  -11.6407   20.7048 C   0  0  0  0  0  0  0  0  0  0  0  0
  -25.2642  -13.7236   20.4806 C   0  0  0  0  0  0  0  0  0  0  0  0
  -22.9032  -13.4931   21.2687 C   0  0  0  0  0  0  0  0  0  0  0  0
  -24.7033  -25.4968   19.8990 C   0  0  0  0  0  0  0  0  0  0  0  0
  -27.3227  -27.3506   20.3721 C   0  0  0  0  0  0  0  0  0  0  0  0
  -29.8786  -28.2829   22.4326 C   0  0  0  0  0  0  0  0  0  0  0  0
  -30.7503  -14.7322   20.6561 C   0  0  0  0  0  0  0  0  0  0  0  0
  -24.3781  -26.0281   14.8325 C   0  0  0  0  0  0  0  0  0  0  0  0
  -24.1790  -26.5489   22.1293 C   0  0  0  0  0  0  0  0  0  0  0  0
  -26.9396  -25.4929   22.0357 C   0  0  0  0  0  0  0  0  0  0  0  0
  -25.4991  -25.7541   15.8318 C   0  0  0  0  0  0  0  0  0  0  0  0
  -29.6020  -12.3534   18.2688 C   0  0  0  0  0  0  0  0  0  0  0  0
  -25.1002  -24.6343   16.7877 C   0  0  0  0  0  0  0  0  0  0  0  0
  -28.1651  -12.0617   18.7050 C   0  0  0  0  0  0  0  0  0  0  0  0
  -30.5227  -12.5707   19.4676 C   0  0  0  0  0  0  0  0  0  0  0  0
  -28.6259  -13.3032   20.8602 C   0  0  0  0  0  0  0  0  0  0  0  0
  -23.8626  -25.0219   17.6059 C   0  0  1  0  0  0  0  0  0  0  0  0
  -25.0195  -26.6098   20.8575 C   0  0  1  0  0  0  0  0  0  0  0  0
  -27.6484  -13.1322   19.6849 C   0  0  2  0  0  0  0  0  0  0  0  0
  -30.3605  -16.2119   24.6750 C   0  0  0  0  0  0  0  0  0  0  0  0
  -31.8816  -29.7915   22.5281 C   0  0  0  0  0  0  0  0  0  0  0  0
  -24.4235  -19.2954   27.1206 C   0  0  0  0  0  0  0  0  0  0  0  0
  -28.8580  -25.4223   18.5737 C   0  0  0  0  0  0  0  0  0  0  0  0
  -30.9858  -26.4012   19.4582 C   0  0  0  0  0  0  0  0  0  0  0  0
  -29.3820  -27.8389   18.1997 C   0  0  0  0  0  0  0  0  0  0  0  0
  -28.7836  -29.7829   24.7368 C   0  0  0  0  0  0  0  0  0  0  0  0
  -25.2166  -19.8054   24.1793 C   0  0  0  0  0  0  0  0  0  0  0  0
  -30.8234  -16.8807   21.8961 C   0  0  0  0  0  0  0  0  0  0  0  0
  -27.4624  -20.2934   25.1379 C   0  0  0  0  0  0  0  0  0  0  0  0
  -24.8275  -21.6268   26.2338 C   0  0  0  0  0  0  0  0  0  1  0  0
  -28.7999  -27.0904   20.5434 C   0  0  1  0  0  0  0  0  0  0  0  0
  -30.3991  -29.6505   22.8365 C   0  0  2  0  0  0  0  0  0  0  0  0
  -25.4544  -20.2892   26.6106 C   0  0  2  0  0  0  0  0  0  0  0  0
  -29.4872  -26.6770   19.2115 C   0  0  0  0  0  0  0  0  0  0  0  0
  -25.8596  -11.5432   20.2831 N   0  0  0  0  0  0  0  0  0  0  0  0
  -26.2385  -12.8262   20.1557 N   0  0  0  0  0  0  0  0  0  0  0  0
  -26.4574  -26.5459   21.1267 N   0  0  0  0  0  0  0  0  0  0  0  0
  -29.9763  -13.5989   20.3565 N   0  0  0  0  0  0  0  0  0  0  0  0
  -25.4769  -15.0548   20.4091 N   0  0  0  0  0  0  0  0  0  0  0  0
  -21.8904  -12.5853   21.6073 N   0  0  0  0  0  0  0  0  0  0  0  0
  -24.2267  -25.9265   18.6752 N   0  0  0  0  0  0  0  0  0  0  0  0
  -29.3576  -28.2913   21.1560 N   0  0  0  0  0  0  0  0  0  0  0  0
  -30.1551  -15.6608   21.5011 N   0  0  0  0  0  0  0  0  0  0  0  0
  -30.1999  -29.8698   24.2970 N   0  3  0  0  0  0  0  0  0  0  0  0
  -26.0984  -19.7095   25.3964 N   0  3  1  0  0  0  0  0  0  0  0  0
  -22.6694  -14.7241   21.3285 O   0  0  0  0  0  0  0  0  0  0  0  0
  -24.8800  -24.3341   20.2437 O   0  0  0  0  0  0  0  0  0  0  0  0
  -26.9506  -28.2401   19.6027 O   0  0  0  0  0  0  0  0  0  0  0  0
  -29.9324  -27.3040   23.1739 O   0  0  0  0  0  0  0  0  0  0  0  0
  -31.8854  -14.9062   20.1998 O   0  0  0  0  0  0  0  0  0  0  0  0
  -21.6072   -7.0225   21.7077 O   0  0  0  0  0  0  0  0  0  0  0  0
  -25.8270  -22.5332   25.7694 O   0  0  0  0  0  0  0  0  0  1  0  0
  -18.6281   -6.8626   26.3449 F   0  0  0  0  0  0  0  0  0  0  0  0
  -22.0590   -5.0752   23.6173 F   0  0  0  0  0  0  0  0  0  0  0  0
  -27.8697  -21.1084   22.2287 Cl  0  0  0  0  0  0  0  0  0  0  0  0
  -28.6302  -17.8759   26.5344 Cl  0  0  0  0  0  0  0  0  0  0  0  0
  1  2  1  0  0  0  0
  1  5  2  0  0  0  0
  2  6  2  0  0  0  0
  3  8  2  0  0  0  0
  3 16  1  0  0  0  0
  4  9  1  0  0  0  0
  4 16  2  0  0  0  0
  5 18  1  0  0  0  0
  6 20  1  0  0  0  0
  7 10  2  0  0  0  0
  7 19  1  0  0  0  0
  8 25  1  0  0  0  0
  9 25  2  0  0  0  0
 10 26  1  0  0  0  0
 11 12  2  0  0  0  0
 11 27  1  0  0  0  0
 12 28  1  0  0  0  0
 13 21  1  0  0  0  0
 13 26  2  0  0  0  0
 14 22  1  0  0  0  0
 14 30  2  0  0  0  0
 15 28  2  0  0  0  0
 15 29  1  0  0  0  0
 16 32  1  0  0  0  0
 17 32  1  0  0  0  0
 17 33  2  0  0  0  0
 17 34  1  0  0  0  0
 18 20  2  0  0  0  0
 18 39  1  0  0  0  0
 19 21  2  0  0  0  0
 19 40  1  0  0  0  0
 20 48  1  0  0  0  0
 21 41  1  0  0  0  0
 22 23  2  0  0  0  0
 22 59  1  0  0  0  0
 23 31  1  0  0  0  0
 23 51  1  0  0  0  0
 24 30  1  0  0  0  0
 24 31  2  0  0  0  0
 24 60  1  0  0  0  0
 25 82  1  0  0  0  0
 26 83  1  0  0  0  0
 27 29  2  0  0  0  0
 27 82  1  0  0  0  0
 28 84  1  0  0  0  0
 29 85  1  0  0  0  0
 30 86  1  0  0  0  0
 31 87  1  0  0  0  0
 32 66  2  0  0  0  0
 33 67  1  0  0  0  0
 33 70  1  0  0  0  0
 34 71  1  0  0  0  0
 34 77  2  0  0  0  0
 35 49  1  0  0  0  0
 35 72  1  0  0  0  0
 35 78  2  0  0  0  0
 36 62  1  0  0  0  0
 36 68  1  0  0  0  0
 36 79  2  0  0  0  0
 37 63  1  0  0  0  0
 37 73  1  0  0  0  0
 37 80  2  0  0  0  0
 38 69  1  0  0  0  0
 38 74  1  0  0  0  0
 38 81  2  0  0  0  0
 39 42  1  0  0  0  0
 40 49  1  0  0  0  0
 41 68  1  0  0  0  0
 42 44  1  0  0  0  0
 43 45  1  0  0  0  0
 43 46  1  0  0  0  0
 44 48  1  0  0  0  0
 45 50  1  0  0  0  0
 46 69  1  0  0  0  0
 47 50  1  0  0  0  0
 47 69  1  0  0  0  0
 48 72  1  0  0  0  0
 49 68  1  0  0  0  0
 50 67  1  0  0  0  0
 52 63  1  0  0  0  0
 53 64  1  0  0  0  0
 54 65  1  0  0  0  0
 55 65  1  0  0  0  0
 56 65  1  0  0  0  0
 57 75  1  0  0  0  0
 58 76  1  0  0  0  0
 59 74  1  0  0  0  0
 60 76  1  0  0  0  0
 61 64  1  0  0  0  0
 61 83  1  0  0  0  0
 62 65  1  0  0  0  0
 62 73  1  0  0  0  0
 63 75  1  0  0  0  0
 64 76  1  0  0  0  0
 66 67  1  0  0  0  0
M  CHG  2  75   1  76   1
M  ISO  4  38 100  61 101  74 100  83 101
M  END
> <Batch ID>
0025

> <Smiles>
CNC(C)C(=O)NC(C(=O)N1Cc2cc([101O:1][101CH2:1]C(C)N(C)Cc3c(Cl)cc(C[100NH:0][100C:0](=O)N4CCCC(n5nc(-c6ccc(Oc7ccc(F)cc7F)cc6)c(C(N)=O)c5N)C4)c(C)c3Cl)ccc2CC1C(=O)NC1CCCc2ccccc21)C(C)(C)C

> <Shape>
0.231

> <Color>
0.192

> <Negative vol penalty>
0.000

$$$$

  -OEChem-04052316242D

  0  0  0     0  0  0  0  0  0999 V2000
M  END
$$$$

  -OEChem-04052316243D

 83 91  0     1  0  0  0  0  0999 V2000
  -32.2880  -34.0414   22.0586 C   0  0  0  0  0  0  0  0  0  0  0  0
  -32.3759  -32.6902   21.7391 C   0  0  0  0  0  0  0  0  0  0  0  0
  -23.0448   -9.8491   19.9305 C   0  0  0  0  0  0  0  0  0  0  0  0
  -23.8258   -9.8107   22.2164 C   0  0  0  0  0  0  0  0  0  0  0  0
  -31.0542  -34.5990   22.3914 C   0  0  0  0  0  0  0  0  0  0  0  0
  -31.2300  -31.8957   21.7533 C   0  0  0  0  0  0  0  0  0  0  0  0
  -29.9578  -27.2030   18.0295 C   0  0  0  0  0  0  0  0  0  0  0  0
  -22.2961   -8.6962   20.1669 C   0  0  0  0  0  0  0  0  0  0  0  0
  -23.0771   -8.6578   22.4529 C   0  0  0  0  0  0  0  0  0  0  0  0
  -30.0807  -25.8229   18.1841 C   0  0  0  0  0  0  0  0  0  0  0  0
  -19.8497   -7.8689   23.0712 C   0  0  0  0  0  0  0  0  0  0  0  0
  -19.1033   -7.8128   24.2482 C   0  0  0  0  0  0  0  0  0  0  0  0
  -27.7624  -25.6958   18.8385 C   0  0  0  0  0  0  0  0  0  0  0  0
  -20.3394   -5.8551   24.9386 C   0  0  0  0  0  0  0  0  0  0  0  0
  -23.8097  -10.4063   20.9552 C   0  0  0  0  0  0  0  0  0  0  0  0
  -24.1660  -12.9311   20.8768 C   0  0  0  0  0  0  0  0  0  0  0  0
  -29.8912  -33.8130   22.4003 C   0  0  0  0  0  0  0  0  0  0  0  0
  -28.7371  -27.8424   18.2892 C   0  0  0  0  0  0  0  0  0  0  0  0
  -29.9798  -32.4430   22.0878 C   0  0  0  0  0  0  0  0  0  0  0  0
  -27.6259  -27.0838   18.6840 C   0  0  0  0  0  0  0  0  0  0  0  0
  -28.4777  -20.7953   20.4306 C   0  0  0  0  0  0  0  0  0  0  0  0
  -28.7684  -19.4757   20.0048 C   0  0  0  0  0  0  0  0  0  0  0  0
  -22.3122   -8.1006   21.4281 C   0  0  0  0  0  0  0  0  0  0  0  0
  -28.9837  -25.0694   18.5915 C   0  0  0  0  0  0  0  0  0  0  0  0
  -20.8409   -6.9181   22.8278 C   0  0  0  0  0  0  0  0  0  0  0  0
  -19.3482   -6.8059   25.1819 C   0  0  0  0  0  0  0  0  0  0  0  0
  -21.0858   -5.9112   23.7616 C   0  0  0  0  0  0  0  0  0  0  0  0
  -24.5837  -11.5969   20.7115 C   0  0  0  0  0  0  0  0  0  0  0  0
  -28.2741  -21.5566   19.3009 C   0  0  0  0  0  0  0  0  0  0  0  0
  -28.7337  -19.4708   18.6278 C   0  0  0  0  0  0  0  0  0  0  0  0
  -25.2594  -13.6803   20.5167 C   0  0  0  0  0  0  0  0  0  0  0  0
  -22.9027  -13.4471   21.3166 C   0  0  0  0  0  0  0  0  0  0  0  0
  -27.7583  -30.0568   20.3489 C   0  0  0  0  0  0  0  0  0  0  0  0
  -25.0058  -29.8698   18.6427 C   0  0  0  0  0  0  0  0  0  0  0  0
  -22.9868  -28.0345   16.5928 C   0  0  0  0  0  0  0  0  0  0  0  0
  -30.7509  -14.6628   20.6720 C   0  0  0  0  0  0  0  0  0  0  0  0
  -28.5877  -34.4500   22.8126 C   0  0  0  0  0  0  0  0  0  0  0  0
  -28.6137  -29.3284   18.0919 C   0  0  0  0  0  0  0  0  0  0  0  0
  -26.2878  -27.7195   18.9557 C   0  0  0  0  0  0  0  0  0  0  0  0
  -27.3605  -33.6222   22.4397 C   0  0  0  0  0  0  0  0  0  0  0  0
  -29.5766  -12.3279   18.2541 C   0  0  0  0  0  0  0  0  0  0  0  0
  -27.5662  -32.1601   22.8230 C   0  0  0  0  0  0  0  0  0  0  0  0
  -28.1414  -12.0352   18.6951 C   0  0  0  0  0  0  0  0  0  0  0  0
  -30.5061  -12.5218   19.4501 C   0  0  0  0  0  0  0  0  0  0  0  0
  -28.6218  -13.2396   20.8671 C   0  0  0  0  0  0  0  0  0  0  0  0
  -28.7553  -31.5539   22.0680 C   0  0  1  0  0  0  0  0  0  0  0  0
  -27.4610  -29.9422   18.8805 C   0  0  1  0  0  0  0  0  0  0  0  0
  -27.6357  -13.0919   19.6957 C   0  0  2  0  0  0  0  0  0  0  0  0
  -28.4045  -21.2698   21.8278 C   0  0  0  0  0  0  0  0  0  0  0  0
  -28.9641  -18.3660   17.6724 C   0  0  0  0  0  0  0  0  0  0  0  0
  -20.7846  -28.1335   15.3937 C   0  0  0  0  0  0  0  0  0  0  0  0
  -23.5506  -29.3852   21.2804 C   0  0  0  0  0  0  0  0  0  0  0  0
  -21.5856  -28.5628   19.9649 C   0  0  0  0  0  0  0  0  0  0  0  0
  -22.3637  -30.9180   19.7005 C   0  0  0  0  0  0  0  0  0  0  0  0
  -28.3037  -21.1578   16.8302 C   0  0  0  0  0  0  0  0  0  0  0  0
  -24.2819  -27.7399   13.9480 C   0  0  0  0  0  0  0  0  0  0  0  0
  -29.0590  -18.3173   20.8747 C   0  0  0  0  0  0  0  0  0  0  0  0
  -27.9368  -23.0122   19.1638 C   0  0  0  0  0  0  0  0  0  1  0  0
  -30.5593  -17.9632   21.0094 C   0  0  0  0  0  0  0  0  0  0  0  0
  -30.8414  -16.7906   21.9462 C   0  0  0  0  0  0  0  0  0  0  0  0
  -23.7485  -29.0388   18.7295 C   0  0  1  0  0  0  0  0  0  0  0  0
  -22.2809  -28.3867   15.2958 C   0  0  2  0  0  0  0  0  0  0  0  0
  -22.8377  -29.4641   19.9157 C   0  0  0  0  0  0  0  0  0  0  0  0
  -25.8441  -11.5009   20.2798 N   0  0  0  0  0  0  0  0  0  0  0  0
  -28.4325  -20.7411   18.2109 N   0  0  0  0  0  0  0  0  0  0  0  0
  -26.2277  -12.7843   20.1708 N   0  0  0  0  0  0  0  0  0  0  0  0
  -26.2192  -29.1763   18.7548 N   0  0  0  0  0  0  0  0  0  0  0  0
  -29.9701  -13.5378   20.3593 N   0  0  0  0  0  0  0  0  0  0  0  0
  -25.4774  -15.0116   20.4653 N   0  0  0  0  0  0  0  0  0  0  0  0
  -21.8883  -12.5382   21.6471 N   0  0  0  0  0  0  0  0  0  0  0  0
  -28.3812  -31.2374   20.7063 N   0  0  0  0  0  0  0  0  0  0  0  0
  -23.1081  -29.1296   17.4219 N   0  0  0  0  0  0  0  0  0  0  0  0
  -30.1653  -15.5801   21.5359 N   0  0  0  0  0  0  0  0  0  0  0  0
  -22.8232  -27.5706   14.1729 N   0  3  0  0  0  0  0  0  0  0  0  0
  -22.6746  -14.6779   21.3979 O   0  0  0  0  0  0  0  0  0  0  0  0
  -27.4445  -29.1425   21.1020 O   0  0  0  0  0  0  0  0  0  0  0  0
  -24.9148  -31.0884   18.4742 O   0  0  0  0  0  0  0  0  0  0  0  0
  -23.3871  -26.9006   16.8467 O   0  0  0  0  0  0  0  0  0  0  0  0
  -31.8837  -14.8394   20.2111 O   0  0  0  0  0  0  0  0  0  0  0  0
  -21.5816   -6.9757   21.6592 O   0  0  0  0  0  0  0  0  0  0  0  0
  -29.1011  -23.7222   18.7438 O   0  0  0  0  0  0  0  0  0  1  0  0
  -18.6324   -6.7530   26.3129 F   0  0  0  0  0  0  0  0  0  0  0  0
  -22.0375   -4.9957   23.5339 F   0  0  0  0  0  0  0  0  0  0  0  0
  1  2  1  0  0  0  0
  1  5  2  0  0  0  0
  2  6  2  0  0  0  0
  3  8  2  0  0  0  0
  3 15  1  0  0  0  0
  4  9  1  0  0  0  0
  4 15  2  0  0  0  0
  5 17  1  0  0  0  0
  6 19  1  0  0  0  0
  7 10  2  0  0  0  0
  7 18  1  0  0  0  0
  8 23  1  0  0  0  0
  9 23  2  0  0  0  0
 10 24  1  0  0  0  0
 11 12  2  0  0  0  0
 11 25  1  0  0  0  0
 12 26  1  0  0  0  0
 13 20  1  0  0  0  0
 13 24  2  0  0  0  0
 14 26  2  0  0  0  0
 14 27  1  0  0  0  0
 15 28  1  0  0  0  0
 16 28  1  0  0  0  0
 16 31  2  0  0  0  0
 16 32  1  0  0  0  0
 17 19  2  0  0  0  0
 17 37  1  0  0  0  0
 18 20  2  0  0  0  0
 18 38  1  0  0  0  0
 19 46  1  0  0  0  0
 20 39  1  0  0  0  0
 21 22  1  0  0  0  0
 21 29  2  0  0  0  0
 21 49  1  0  0  0  0
 22 30  2  0  0  0  0
 22 57  1  0  0  0  0
 23 80  1  0  0  0  0
 24 81  1  0  0  0  0
 25 27  2  0  0  0  0
 25 80  1  0  0  0  0
 26 82  1  0  0  0  0
 27 83  1  0  0  0  0
 28 64  2  0  0  0  0
 29 58  1  0  0  0  0
 29 65  1  0  0  0  0
 30 50  1  0  0  0  0
 30 65  1  0  0  0  0
 31 66  1  0  0  0  0
 31 69  1  0  0  0  0
 32 70  1  0  0  0  0
 32 75  2  0  0  0  0
 33 47  1  0  0  0  0
 33 71  1  0  0  0  0
 33 76  2  0  0  0  0
 34 61  1  0  0  0  0
 34 67  1  0  0  0  0
 34 77  2  0  0  0  0
 35 62  1  0  0  0  0
 35 72  1  0  0  0  0
 35 78  2  0  0  0  0
 36 68  1  0  0  0  0
 36 73  1  0  0  0  0
 36 79  2  0  0  0  0
 37 40  1  0  0  0  0
 38 47  1  0  0  0  0
 39 67  1  0  0  0  0
 40 42  1  0  0  0  0
 41 43  1  0  0  0  0
 41 44  1  0  0  0  0
 42 46  1  0  0  0  0
 43 48  1  0  0  0  0
 44 68  1  0  0  0  0
 45 48  1  0  0  0  0
 45 68  1  0  0  0  0
 46 71  1  0  0  0  0
 47 67  1  0  0  0  0
 48 66  1  0  0  0  0
 51 62  1  0  0  0  0
 52 63  1  0  0  0  0
 53 63  1  0  0  0  0
 54 63  1  0  0  0  0
 55 65  1  0  0  0  0
 56 74  1  0  0  0  0
 57 59  1  0  0  0  0
 58 81  1  0  0  0  0
 59 60  1  0  0  0  0
 60 73  1  0  0  0  0
 61 63  1  0  0  0  0
 61 72  1  0  0  0  0
 62 74  1  0  0  0  0
 64 66  1  0  0  0  0
M  CHG  1  74   1
M  ISO  4  36 100  58 101  73 100  81 101
M  END
> <Batch ID>
0025

> <Smiles>
CNC(C)C(=O)NC(C(=O)N1Cc2cc([101O:1][101CH2:1]c3c(C)c(CCC[100NH:0][100C:0](=O)N4CCCC(n5nc(-c6ccc(Oc7ccc(F)cc7F)cc6)c(C(N)=O)c5N)C4)c(C)n3C)ccc2CC1C(=O)NC1CCCc2ccccc21)C(C)(C)C

> <Shape>
0.311

> <Color>
0.215

> <Negative vol penalty>
0.000

$$$$

  -OEChem-04052316243D

 81 89  0     1  0  0  0  0  0999 V2000
  -17.8429  -32.8245   22.6685 C   0  0  0  0  0  0  0  0  0  0  0  0
  -18.9691  -32.8151   21.8517 C   0  0  0  0  0  0  0  0  0  0  0  0
  -26.7419  -16.1055   21.7956 C   0  0  0  0  0  0  0  0  0  0  0  0
  -27.8706  -15.5748   19.7264 C   0  0  0  0  0  0  0  0  0  0  0  0
  -17.8037  -32.0238   23.8091 C   0  0  0  0  0  0  0  0  0  0  0  0
  -20.0573  -32.0057   22.1758 C   0  0  0  0  0  0  0  0  0  0  0  0
  -25.2737  -28.1727   19.1078 C   0  0  0  0  0  0  0  0  0  0  0  0
  -25.9897  -14.9361   21.6852 C   0  0  0  0  0  0  0  0  0  0  0  0
  -27.1184  -14.4054   19.6160 C   0  0  0  0  0  0  0  0  0  0  0  0
  -26.6588  -28.0174   19.1421 C   0  0  0  0  0  0  0  0  0  0  0  0
  -25.7508  -11.0983   18.9748 C   0  0  0  0  0  0  0  0  0  0  0  0
  -26.4199   -9.9270   18.6200 C   0  0  0  0  0  0  0  0  0  0  0  0
  -26.4474  -26.6161   21.0942 C   0  0  0  0  0  0  0  0  0  0  0  0
  -27.8076  -10.1236   20.5880 C   0  0  0  0  0  0  0  0  0  0  0  0
  -27.6823  -16.4249   20.8162 C   0  0  0  0  0  0  0  0  0  0  0  0
  -29.7040  -17.7866   21.5688 C   0  0  0  0  0  0  0  0  0  0  0  0
  -18.8881  -31.1968   24.1422 C   0  0  0  0  0  0  0  0  0  0  0  0
  -24.4645  -27.5587   20.0746 C   0  0  0  0  0  0  0  0  0  0  0  0
  -20.0331  -31.1941   23.3228 C   0  0  0  0  0  0  0  0  0  0  0  0
  -25.0521  -26.7631   21.0685 C   0  0  0  0  0  0  0  0  0  0  0  0
  -31.6349  -26.5933   18.6469 C   0  0  0  0  0  0  0  0  0  0  0  0
  -26.1779  -14.0860   20.5954 C   0  0  0  0  0  0  0  0  0  0  0  0
  -27.2461  -27.2413   20.1370 C   0  0  0  0  0  0  0  0  0  0  0  0
  -26.1101  -11.7823   20.1362 C   0  0  0  0  0  0  0  0  0  0  0  0
  -27.4483   -9.4397   19.4266 C   0  0  0  0  0  0  0  0  0  0  0  0
  -27.1385  -11.2950   20.9428 C   0  0  0  0  0  0  0  0  0  0  0  0
  -32.9199  -26.6654   19.2390 C   0  0  0  0  0  0  0  0  0  0  0  0
  -28.4592  -17.6331   20.9294 C   0  0  0  0  0  0  0  0  0  0  0  0
  -30.8087  -27.4398   19.3526 C   0  0  0  0  0  0  0  0  0  0  0  0
  -30.0164  -19.1131   21.3981 C   0  0  0  0  0  0  0  0  0  0  0  0
  -32.8399  -27.5538   20.2887 C   0  0  0  0  0  0  0  0  0  0  0  0
  -30.5061  -16.8167   22.2556 C   0  0  0  0  0  0  0  0  0  0  0  0
  -22.4625  -28.5994   22.3134 C   0  0  0  0  0  0  0  0  0  0  0  0
  -21.8501  -25.4357   22.6852 C   0  0  0  0  0  0  0  0  0  0  0  0
  -22.9187  -22.2153   22.3194 C   0  0  0  0  0  0  0  0  0  0  0  0
  -30.4413  -23.5250   18.1884 C   0  0  0  0  0  0  0  0  0  0  0  0
  -18.8186  -30.3843   25.4109 C   0  0  0  0  0  0  0  0  0  0  0  0
  -22.9700  -27.7143   20.0080 C   0  0  0  0  0  0  0  0  0  0  0  0
  -24.2262  -26.0662   22.1176 C   0  0  0  0  0  0  0  0  0  0  0  0
  -19.8632  -29.2733   25.4806 C   0  0  0  0  0  0  0  0  0  0  0  0
  -27.2076  -22.9694   19.7155 C   0  0  0  0  0  0  0  0  0  0  0  0
  -21.2346  -29.8036   25.0746 C   0  0  0  0  0  0  0  0  0  0  0  0
  -27.3533  -21.5334   20.2224 C   0  0  0  0  0  0  0  0  0  0  0  0
  -27.9072  -23.1551   18.3722 C   0  0  0  0  0  0  0  0  0  0  0  0
  -29.4959  -21.3397   18.8763 C   0  0  0  0  0  0  0  0  0  0  0  0
  -21.2236  -30.3109   23.6275 C   0  0  1  0  0  0  0  0  0  0  0  0
  -22.2829  -27.4632   21.3468 C   0  0  1  0  0  0  0  0  0  0  0  0
  -28.8291  -21.0931   20.2418 C   0  0  2  0  0  0  0  0  0  0  0  0
  -22.2145  -19.8453   22.7489 C   0  0  0  0  0  0  0  0  0  0  0  0
  -22.4650  -25.7932   25.6524 C   0  0  0  0  0  0  0  0  0  0  0  0
  -22.6797  -23.3056   25.8362 C   0  0  0  0  0  0  0  0  0  0  0  0
  -20.5030  -24.3215   25.1636 C   0  0  0  0  0  0  0  0  0  0  0  0
  -31.0352  -28.9734   21.3080 C   0  0  0  0  0  0  0  0  0  0  0  0
  -23.0274  -21.5389   19.4403 C   0  0  0  0  0  0  0  0  0  0  0  0
  -31.2402  -25.7668   17.4862 C   0  0  0  0  0  0  0  0  0  0  0  0
  -29.3537  -27.7517   19.1605 C   0  0  0  0  0  0  0  0  0  1  0  0
  -22.4310  -24.3262   23.5281 C   0  0  1  0  0  0  0  0  0  0  0  0
  -22.2369  -20.9869   21.7444 C   0  0  2  0  0  0  0  0  0  0  0  0
  -22.0357  -24.4512   25.0266 C   0  0  0  0  0  0  0  0  0  0  0  0
  -28.0115  -18.7713   20.3926 N   0  0  0  0  0  0  0  0  0  0  0  0
  -31.5518  -28.0180   20.3485 N   0  0  0  0  0  0  0  0  0  0  0  0
  -28.9801  -19.6526   20.6945 N   0  0  0  0  0  0  0  0  0  0  0  0
  -22.7696  -26.2540   22.0139 N   0  0  0  0  0  0  0  0  0  0  0  0
  -29.3127  -22.7352   18.4637 N   0  0  0  0  0  0  0  0  0  0  0  0
  -31.0738  -19.8591   21.7827 N   0  0  0  0  0  0  0  0  0  0  0  0
  -30.0363  -15.4989   22.3382 N   0  0  0  0  0  0  0  0  0  0  0  0
  -21.2800  -29.1997   22.7020 N   0  0  0  0  0  0  0  0  0  0  0  0
  -22.0131  -23.0764   22.9021 N   0  0  0  0  0  0  0  0  0  0  0  0
  -30.1811  -24.8326   17.7973 N   0  0  0  0  0  0  0  0  0  0  0  0
  -22.9510  -20.5229   20.5214 N   0  3  0  0  0  0  0  0  0  0  0  0
  -31.5991  -17.1138   22.7947 O   0  0  0  0  0  0  0  0  0  0  0  0
  -23.5902  -28.9077   22.6807 O   0  0  0  0  0  0  0  0  0  0  0  0
  -20.6253  -25.5670   22.6190 O   0  0  0  0  0  0  0  0  0  0  0  0
  -24.1337  -22.3914   22.2611 O   0  0  0  0  0  0  0  0  0  0  0  0
  -31.5966  -23.0978   18.2890 O   0  0  0  0  0  0  0  0  0  0  0  0
  -25.4443  -12.9446   20.4875 O   0  0  0  0  0  0  0  0  0  0  0  0
  -28.5978  -27.0886   20.1732 O   0  0  0  0  0  0  0  0  0  1  0  0
  -28.0898   -8.3140   19.0865 F   0  0  0  0  0  0  0  0  0  0  0  0
  -27.4873  -11.9471   22.0603 F   0  0  0  0  0  0  0  0  0  0  0  0
  -34.2906  -25.7996   18.7233 Cl  0  0  0  0  0  0  0  0  0  0  0  0
  -34.0072  -28.0931   21.4035 Cl  0  0  0  0  0  0  0  0  0  0  0  0
  1  2  1  0  0  0  0
  1  5  2  0  0  0  0
  2  6  2  0  0  0  0
  3  8  2  0  0  0  0
  3 15  1  0  0  0  0
  4  9  1  0  0  0  0
  4 15  2  0  0  0  0
  5 17  1  0  0  0  0
  6 19  1  0  0  0  0
  7 10  2  0  0  0  0
  7 18  1  0  0  0  0
  8 22  1  0  0  0  0
  9 22  2  0  0  0  0
 10 23  1  0  0  0  0
 11 12  2  0  0  0  0
 11 24  1  0  0  0  0
 12 25  1  0  0  0  0
 13 20  1  0  0  0  0
 13 23  2  0  0  0  0
 14 25  2  0  0  0  0
 14 26  1  0  0  0  0
 15 28  1  0  0  0  0
 16 28  1  0  0  0  0
 16 30  2  0  0  0  0
 16 32  1  0  0  0  0
 17 19  2  0  0  0  0
 17 37  1  0  0  0  0
 18 20  2  0  0  0  0
 18 38  1  0  0  0  0
 19 46  1  0  0  0  0
 20 39  1  0  0  0  0
 21 27  1  0  0  0  0
 21 29  2  0  0  0  0
 21 55  1  0  0  0  0
 22 76  1  0  0  0  0
 23 77  1  0  0  0  0
 24 26  2  0  0  0  0
 24 76  1  0  0  0  0
 25 78  1  0  0  0  0
 26 79  1  0  0  0  0
 27 31  2  0  0  0  0
 27 80  1  0  0  0  0
 28 60  2  0  0  0  0
 29 56  1  0  0  0  0
 29 61  1  0  0  0  0
 30 62  1  0  0  0  0
 30 65  1  0  0  0  0
 31 61  1  0  0  0  0
 31 81  1  0  0  0  0
 32 66  1  0  0  0  0
 32 71  2  0  0  0  0
 33 47  1  0  0  0  0
 33 67  1  0  0  0  0
 33 72  2  0  0  0  0
 34 57  1  0  0  0  0
 34 63  1  0  0  0  0
 34 73  2  0  0  0  0
 35 58  1  0  0  0  0
 35 68  1  0  0  0  0
 35 74  2  0  0  0  0
 36 64  1  0  0  0  0
 36 69  1  0  0  0  0
 36 75  2  0  0  0  0
 37 40  1  0  0  0  0
 38 47  1  0  0  0  0
 39 63  1  0  0  0  0
 40 42  1  0  0  0  0
 41 43  1  0  0  0  0
 41 44  1  0  0  0  0
 42 46  1  0  0  0  0
 43 48  1  0  0  0  0
 44 64  1  0  0  0  0
 45 48  1  0  0  0  0
 45 64  1  0  0  0  0
 46 67  1  0  0  0  0
 47 63  1  0  0  0  0
 48 62  1  0  0  0  0
 49 58  1  0  0  0  0
 50 59  1  0  0  0  0
 51 59  1  0  0  0  0
 52 59  1  0  0  0  0
 53 61  1  0  0  0  0
 54 70  1  0  0  0  0
 55 69  1  0  0  0  0
 56 77  1  0  0  0  0
 57 59  1  0  0  0  0
 57 68  1  0  0  0  0
 58 70  1  0  0  0  0
 60 62  1  0  0  0  0
M  CHG  1  70   1
M  ISO  4  36 100  56 101  69 100  77 101
M  END
> <Batch ID>
0025

> <Smiles>
CNC(C)C(=O)NC(C(=O)N1Cc2cc([101O:1][101CH2:1]c3c(C[100NH:0][100C:0](=O)N4CCCC(n5nc(-c6ccc(Oc7ccc(F)cc7F)cc6)c(C(N)=O)c5N)C4)c(Cl)c(Cl)n3C)ccc2CC1C(=O)NC1CCCc2ccccc21)C(C)(C)C

> <Shape>
0.226

> <Color>
0.059

> <Negative vol penalty>
0.000

$$$$

  -OEChem-04052316243D

 91 99  0     1  0  0  0  0  0999 V2000
  -24.3189  -38.6920   24.8560 C   0  0  0  0  0  0  0  0  0  0  0  0
  -23.7864  -37.6374   25.5905 C   0  0  0  0  0  0  0  0  0  0  0  0
  -23.9086   -9.5464   20.9226 C   0  0  0  0  0  0  0  0  0  0  0  0
  -24.4072  -10.3712   23.1381 C   0  0  0  0  0  0  0  0  0  0  0  0
  -24.9490  -38.4431   23.6374 C   0  0  0  0  0  0  0  0  0  0  0  0
  -23.8828  -36.3332   25.1064 C   0  0  0  0  0  0  0  0  0  0  0  0
  -24.5901  -29.5747   27.3731 C   0  0  0  0  0  0  0  0  0  0  0  0
  -23.4376   -8.3542   21.4725 C   0  0  0  0  0  0  0  0  0  0  0  0
  -23.9361   -9.1790   23.6879 C   0  0  0  0  0  0  0  0  0  0  0  0
  -23.9932  -28.3228   27.2305 C   0  0  0  0  0  0  0  0  0  0  0  0
  -24.7469   -5.5017   22.7268 C   0  0  0  0  0  0  0  0  0  0  0  0
  -25.1511   -4.3085   22.1281 C   0  0  0  0  0  0  0  0  0  0  0  0
  -25.1737  -28.0035   25.1511 C   0  0  0  0  0  0  0  0  0  0  0  0
  -27.1460  -21.2649   26.6017 C   0  0  0  0  0  0  0  0  0  0  0  0
  -22.8438   -3.7559   21.6716 C   0  0  0  0  0  0  0  0  0  0  0  0
  -24.3935  -10.5549   21.7554 C   0  0  0  0  0  0  0  0  0  0  0  0
  -24.1379  -12.9521   20.9214 C   0  0  0  0  0  0  0  0  0  0  0  0
  -25.0618  -37.1343   23.1427 C   0  0  0  0  0  0  0  0  0  0  0  0
  -25.4763  -30.0558   26.3987 C   0  0  0  0  0  0  0  0  0  0  0  0
  -24.5139  -36.0668   23.8794 C   0  0  0  0  0  0  0  0  0  0  0  0
  -25.7824  -29.2608   25.2850 C   0  0  0  0  0  0  0  0  0  0  0  0
  -26.2778  -21.8974   25.7120 C   0  0  0  0  0  0  0  0  0  0  0  0
  -28.8438  -21.1801   24.8849 C   0  0  0  0  0  0  0  0  0  0  0  0
  -23.4513   -8.1705   22.8551 C   0  0  0  0  0  0  0  0  0  0  0  0
  -24.2827  -27.5382   26.1179 C   0  0  0  0  0  0  0  0  0  0  0  0
  -23.3911   -5.8220   22.7980 C   0  0  0  0  0  0  0  0  0  0  0  0
  -24.1996   -3.4356   21.6005 C   0  0  0  0  0  0  0  0  0  0  0  0
  -22.4396   -4.9491   22.2704 C   0  0  0  0  0  0  0  0  0  0  0  0
  -28.4291  -20.9063   26.1882 C   0  0  0  0  0  0  0  0  0  0  0  0
  -26.6925  -22.1713   24.4086 C   0  0  0  0  0  0  0  0  0  0  0  0
  -27.9755  -21.8126   23.9951 C   0  0  0  0  0  0  0  0  0  0  0  0
  -24.8808  -11.7864   21.1880 C   0  0  0  0  0  0  0  0  0  0  0  0
  -25.0527  -13.8283   20.3903 C   0  0  0  0  0  0  0  0  0  0  0  0
  -22.7455  -13.2191   21.1349 C   0  0  0  0  0  0  0  0  0  0  0  0
  -25.5049  -32.5497   24.4280 C   0  0  0  0  0  0  0  0  0  0  0  0
  -28.4896  -31.4795   23.7433 C   0  0  0  0  0  0  0  0  0  0  0  0
  -30.6860  -28.8685   23.6729 C   0  0  0  0  0  0  0  0  0  0  0  0
  -30.9997  -14.3135   20.8889 C   0  0  0  0  0  0  0  0  0  0  0  0
  -25.7099  -36.9198   21.7979 C   0  0  0  0  0  0  0  0  0  0  0  0
  -26.1324  -31.3970   26.5806 C   0  0  0  0  0  0  0  0  0  0  0  0
  -26.7427  -29.7228   24.2206 C   0  0  0  0  0  0  0  0  0  0  0  0
  -26.1011  -35.4679   21.5348 C   0  0  0  0  0  0  0  0  0  0  0  0
  -29.1278  -13.9250   17.8853 C   0  0  0  0  0  0  0  0  0  0  0  0
  -24.9563  -34.5309   21.9069 C   0  0  0  0  0  0  0  0  0  0  0  0
  -27.7601  -13.4381   18.3671 C   0  0  0  0  0  0  0  0  0  0  0  0
  -30.2618  -13.3485   18.7301 C   0  0  0  0  0  0  0  0  0  0  0  0
  -28.7578  -13.0807   20.6640 C   0  0  0  0  0  0  0  0  0  0  0  0
  -24.6206  -34.6356   23.3995 C   0  0  1  0  0  0  0  0  0  0  0  0
  -26.6235  -32.0046   25.2702 C   0  0  1  0  0  0  0  0  0  0  0  0
  -27.5790  -13.6797   19.8778 C   0  0  2  0  0  0  0  0  0  0  0  0
  -31.3253  -21.4356   25.2970 C   0  0  0  0  0  0  0  0  0  0  0  0
  -33.0414  -28.2925   23.0265 C   0  0  0  0  0  0  0  0  0  0  0  0
  -27.6805  -31.4832   20.8013 C   0  0  0  0  0  0  0  0  0  0  0  0
  -29.6688  -30.0383   20.3247 C   0  0  0  0  0  0  0  0  0  0  0  0
  -29.9896  -32.3329   21.2493 C   0  0  0  0  0  0  0  0  0  0  0  0
  -31.3808  -28.0961   26.4441 C   0  0  0  0  0  0  0  0  0  0  0  0
  -24.9086  -22.2624   26.2049 C   0  0  0  0  0  0  0  0  0  0  0  0
  -31.3218  -16.7393   23.1341 C   0  0  0  0  0  0  0  0  0  0  0  0
  -29.8908  -17.0695   23.5745 C   0  0  0  0  0  0  0  0  0  0  0  0
  -31.5939  -15.2379   23.1142 C   0  0  0  0  0  0  0  0  0  0  0  0
  -29.5746  -18.5600   23.5330 C   0  0  0  0  0  0  0  0  0  0  0  0
  -23.3913  -24.1194   26.9037 C   0  0  0  0  0  0  0  0  0  0  0  0
  -23.3706  -25.6113   27.1719 C   0  0  0  0  0  0  0  0  0  1  0  0
  -30.2245  -20.7905   24.4500 C   0  0  1  0  0  0  0  0  0  0  0  0
  -29.0750  -30.5108   22.7444 C   0  0  1  0  0  0  0  0  0  0  0  0
  -32.1222  -28.7472   24.1495 C   0  0  2  0  0  0  0  0  0  0  0  0
  -29.0838  -31.0831   21.2988 C   0  0  0  0  0  0  0  0  0  0  0  0
  -26.1683  -11.9077   20.8537 N   0  0  0  0  0  0  0  0  0  0  0  0
  -26.2415  -13.1600   20.3714 N   0  0  0  0  0  0  0  0  0  0  0  0
  -27.3537  -31.0441   24.4405 N   0  0  0  0  0  0  0  0  0  0  0  0
  -30.0303  -13.6132   20.1521 N   0  0  0  0  0  0  0  0  0  0  0  0
  -24.9480  -15.0974   19.9421 N   0  0  0  0  0  0  0  0  0  0  0  0
  -21.9488  -12.2083   21.6897 N   0  0  0  0  0  0  0  0  0  0  0  0
  -25.5915  -33.9078   24.1882 N   0  0  0  0  0  0  0  0  0  0  0  0
  -30.3940  -30.1486   23.2518 N   0  0  0  0  0  0  0  0  0  0  0  0
  -30.6986  -14.5274   22.2285 N   0  0  0  0  0  0  0  0  0  0  0  0
  -32.2169  -27.7610   25.2627 N   0  3  0  0  0  0  0  0  0  0  0  0
  -24.7538  -23.7180   26.4714 N   0  3  0  0  0  0  0  0  0  0  0  0
  -30.4506  -19.3076   24.4651 N   0  3  0  0  0  0  0  0  0  0  0  0
  -22.2199  -14.3157   20.8271 O   0  0  0  0  0  0  0  0  0  0  0  0
  -24.6289  -31.7938   24.0243 O   0  0  0  0  0  0  0  0  0  0  0  0
  -29.0247  -32.5792   23.9043 O   0  0  0  0  0  0  0  0  0  0  0  0
  -29.9027  -27.9214   23.6706 O   0  0  0  0  0  0  0  0  0  0  0  0
  -32.0529  -14.7228   20.3887 O   0  0  0  0  0  0  0  0  0  0  0  0
  -22.9915   -7.0074   23.3920 O   0  0  0  0  0  0  0  0  0  0  0  0
  -23.7011  -26.3162   25.9760 O   0  0  0  0  0  0  0  0  0  1  0  0
  -24.5880   -2.2905   21.0242 F   0  0  0  0  0  0  0  0  0  0  0  0
  -21.1358   -5.2520   22.3348 F   0  0  0  0  0  0  0  0  0  0  0  0
  -29.4710  -20.1264   27.3234 Cl  0  0  0  0  0  0  0  0  0  0  0  0
  -25.5862  -22.9585   23.3265 Cl  0  0  0  0  0  0  0  0  0  0  0  0
  -28.5161  -22.1421   22.3773 Cl  0  0  0  0  0  0  0  0  0  0  0  0
  1  2  1  0  0  0  0
  1  5  2  0  0  0  0
  2  6  2  0  0  0  0
  3  8  2  0  0  0  0
  3 16  1  0  0  0  0
  4  9  1  0  0  0  0
  4 16  2  0  0  0  0
  5 18  1  0  0  0  0
  6 20  1  0  0  0  0
  7 10  2  0  0  0  0
  7 19  1  0  0  0  0
  8 24  1  0  0  0  0
  9 24  2  0  0  0  0
 10 25  1  0  0  0  0
 11 12  2  0  0  0  0
 11 26  1  0  0  0  0
 12 27  1  0  0  0  0
 13 21  1  0  0  0  0
 13 25  2  0  0  0  0
 14 22  1  0  0  0  0
 14 29  2  0  0  0  0
 15 27  2  0  0  0  0
 15 28  1  0  0  0  0
 16 32  1  0  0  0  0
 17 32  1  0  0  0  0
 17 33  2  0  0  0  0
 17 34  1  0  0  0  0
 18 20  2  0  0  0  0
 18 39  1  0  0  0  0
 19 21  2  0  0  0  0
 19 40  1  0  0  0  0
 20 48  1  0  0  0  0
 21 41  1  0  0  0  0
 22 30  2  0  0  0  0
 22 57  1  0  0  0  0
 23 29  1  0  0  0  0
 23 31  2  0  0  0  0
 23 64  1  0  0  0  0
 24 85  1  0  0  0  0
 25 86  1  0  0  0  0
 26 28  2  0  0  0  0
 26 85  1  0  0  0  0
 27 87  1  0  0  0  0
 28 88  1  0  0  0  0
 29 89  1  0  0  0  0
 30 31  1  0  0  0  0
 30 90  1  0  0  0  0
 31 91  1  0  0  0  0
 32 68  2  0  0  0  0
 33 69  1  0  0  0  0
 33 72  1  0  0  0  0
 34 73  1  0  0  0  0
 34 80  2  0  0  0  0
 35 49  1  0  0  0  0
 35 74  1  0  0  0  0
 35 81  2  0  0  0  0
 36 65  1  0  0  0  0
 36 70  1  0  0  0  0
 36 82  2  0  0  0  0
 37 66  1  0  0  0  0
 37 75  1  0  0  0  0
 37 83  2  0  0  0  0
 38 71  1  0  0  0  0
 38 76  1  0  0  0  0
 38 84  2  0  0  0  0
 39 42  1  0  0  0  0
 40 49  1  0  0  0  0
 41 70  1  0  0  0  0
 42 44  1  0  0  0  0
 43 45  1  0  0  0  0
 43 46  1  0  0  0  0
 44 48  1  0  0  0  0
 45 50  1  0  0  0  0
 46 71  1  0  0  0  0
 47 50  1  0  0  0  0
 47 71  1  0  0  0  0
 48 74  1  0  0  0  0
 49 70  1  0  0  0  0
 50 69  1  0  0  0  0
 51 64  1  0  0  0  0
 52 66  1  0  0  0  0
 53 67  1  0  0  0  0
 54 67  1  0  0  0  0
 55 67  1  0  0  0  0
 56 77  1  0  0  0  0
 57 78  1  0  0  0  0
 58 59  1  0  0  0  0
 58 60  1  0  0  0  0
 59 61  1  0  0  0  0
 60 76  1  0  0  0  0
 61 79  1  0  0  0  0
 62 63  1  0  0  0  0
 62 78  1  0  0  0  0
 63 86  1  0  0  0  0
 64 79  1  0  0  0  0
 65 67  1  0  0  0  0
 65 75  1  0  0  0  0
 66 77  1  0  0  0  0
 68 69  1  0  0  0  0
M  CHG  3  77   1  78   1  79   1
M  ISO  4  38 100  63 101  76 100  86 101
M  END
> <Batch ID>
0025

> <Smiles>
CNC(C)C(=O)NC(C(=O)N1Cc2cc([101O:1][101CH2:1]CNCc3cc(Cl)c(C(C)NCCCC[100NH:0][100C:0](=O)N4CCCC(n5nc(-c6ccc(Oc7ccc(F)cc7F)cc6)c(C(N)=O)c5N)C4)c(Cl)c3Cl)ccc2CC1C(=O)NC1CCCc2ccccc21)C(C)(C)C

> <Shape>
0.245

> <Color>
0.146

> <Negative vol penalty>
0.000

$$$$

  -OEChem-04052316243D

 88 96  0     1  0  0  0  0  0999 V2000
  -33.5277  -24.7488   10.4969 C   0  0  0  0  0  0  0  0  0  0  0  0
  -32.7657  -24.6246   11.6542 C   0  0  0  0  0  0  0  0  0  0  0  0
  -23.0744   -9.9105   19.9379 C   0  0  0  0  0  0  0  0  0  0  0  0
  -23.8429   -9.9026   22.2284 C   0  0  0  0  0  0  0  0  0  0  0  0
  -34.4510  -23.7592   10.1621 C   0  0  0  0  0  0  0  0  0  0  0  0
  -32.9258  -23.5102   12.4769 C   0  0  0  0  0  0  0  0  0  0  0  0
  -33.1528  -24.7351   17.3853 C   0  0  0  0  0  0  0  0  0  0  0  0
  -22.3262   -8.7596   20.1849 C   0  0  0  0  0  0  0  0  0  0  0  0
  -23.0946   -8.7516   22.4754 C   0  0  0  0  0  0  0  0  0  0  0  0
  -31.9488  -25.0256   18.0254 C   0  0  0  0  0  0  0  0  0  0  0  0
  -19.9289   -6.0296   20.3087 C   0  0  0  0  0  0  0  0  0  0  0  0
  -18.6212   -5.9900   19.8251 C   0  0  0  0  0  0  0  0  0  0  0  0
  -31.9172  -22.8027   18.9617 C   0  0  0  0  0  0  0  0  0  0  0  0
  -27.6535  -22.4448   19.4338 C   0  0  0  0  0  0  0  0  0  0  0  0
  -26.8480  -21.0485   17.6489 C   0  0  0  0  0  0  0  0  0  0  0  0
  -18.0699   -7.9288   21.1571 C   0  0  0  0  0  0  0  0  0  0  0  0
  -23.8328  -10.4820   20.9596 C   0  0  0  0  0  0  0  0  0  0  0  0
  -24.1858  -13.0061   20.8509 C   0  0  0  0  0  0  0  0  0  0  0  0
  -34.6294  -22.6367   10.9861 C   0  0  0  0  0  0  0  0  0  0  0  0
  -33.7435  -23.4705   17.5201 C   0  0  0  0  0  0  0  0  0  0  0  0
  -33.8514  -22.5039   12.1520 C   0  0  0  0  0  0  0  0  0  0  0  0
  -33.1300  -22.4995   18.3244 C   0  0  0  0  0  0  0  0  0  0  0  0
  -27.3254  -21.1841   18.9478 C   0  0  0  0  0  0  0  0  0  0  0  0
  -22.3362   -8.1801   21.4537 C   0  0  0  0  0  0  0  0  0  0  0  0
  -31.3293  -24.0584   18.8114 C   0  0  0  0  0  0  0  0  0  0  0  0
  -20.3071   -7.0187   21.2165 C   0  0  0  0  0  0  0  0  0  0  0  0
  -17.6917   -6.9396   20.2492 C   0  0  0  0  0  0  0  0  0  0  0  0
  -19.3777   -7.9684   21.6407 C   0  0  0  0  0  0  0  0  0  0  0  0
  -24.6064  -11.6706   20.7049 C   0  0  0  0  0  0  0  0  0  0  0  0
  -27.4876  -23.5294   18.5878 C   0  0  0  0  0  0  0  0  0  0  0  0
  -26.7180  -22.1957   16.8828 C   0  0  0  0  0  0  0  0  0  0  0  0
  -25.2801  -13.7524   20.4872 C   0  0  0  0  0  0  0  0  0  0  0  0
  -22.9193  -13.5257   21.2772 C   0  0  0  0  0  0  0  0  0  0  0  0
  -34.4845  -21.1159   15.5174 C   0  0  0  0  0  0  0  0  0  0  0  0
  -35.8628  -19.8289   18.1567 C   0  0  0  0  0  0  0  0  0  0  0  0
  -35.9968  -19.6543   21.5624 C   0  0  0  0  0  0  0  0  0  0  0  0
  -30.7691  -14.7453   20.6599 C   0  0  0  0  0  0  0  0  0  0  0  0
  -35.6058  -21.5699   10.5581 C   0  0  0  0  0  0  0  0  0  0  0  0
  -35.0561  -23.1817   16.8447 C   0  0  0  0  0  0  0  0  0  0  0  0
  -33.7335  -21.1332   18.5177 C   0  0  0  0  0  0  0  0  0  0  0  0
  -35.9822  -20.6039   11.6786 C   0  0  0  0  0  0  0  0  0  0  0  0
  -29.6116  -12.3780   18.2656 C   0  0  0  0  0  0  0  0  0  0  0  0
  -34.7353  -20.1396   12.4245 C   0  0  0  0  0  0  0  0  0  0  0  0
  -28.1744  -12.0887   18.7025 C   0  0  0  0  0  0  0  0  0  0  0  0
  -30.5342  -12.5886   19.4641 C   0  0  0  0  0  0  0  0  0  0  0  0
  -28.6411  -13.3215   20.8615 C   0  0  0  0  0  0  0  0  0  0  0  0
  -34.0140  -21.3218   13.0828 C   0  0  1  0  0  0  0  0  0  0  0  0
  -35.3057  -21.6912   16.6365 C   0  0  1  0  0  0  0  0  0  0  0  0
  -27.6617  -13.1572   19.6867 C   0  0  2  0  0  0  0  0  0  0  0  0
  -37.1994  -18.4854   23.4291 C   0  0  0  0  0  0  0  0  0  0  0  0
  -34.2278  -17.3076   17.6280 C   0  0  0  0  0  0  0  0  0  0  0  0
  -34.7242  -16.5783   19.9711 C   0  0  0  0  0  0  0  0  0  0  0  0
  -36.5878  -16.8898   18.3423 C   0  0  0  0  0  0  0  0  0  0  0  0
  -37.0514  -22.2033   22.6345 C   0  0  0  0  0  0  0  0  0  0  0  0
  -27.4857  -19.9822   19.8157 C   0  0  0  0  0  0  0  0  0  0  0  0
  -27.8351  -24.9132   19.0805 C   0  0  0  0  0  0  0  0  0  0  0  0
  -30.5697  -18.0462   20.9541 C   0  0  0  0  0  0  0  0  0  0  0  0
  -30.8495  -16.8893   21.9073 C   0  0  0  0  0  0  0  0  0  0  0  0
  -29.0885  -18.3968   20.8910 C   0  0  0  0  0  0  0  0  0  0  0  0
  -29.2887  -25.2798   18.8018 C   0  0  0  0  0  0  0  0  0  1  0  0
  -35.3996  -18.9198   19.2693 C   0  0  1  0  0  0  0  0  0  0  0  0
  -37.1663  -19.7105   22.5286 C   0  0  2  0  0  0  0  0  0  0  0  0
  -26.2069  -22.0873   15.4850 C   0  0  0  0  0  0  0  0  0  0  0  0
  -35.2222  -17.4489   18.7977 C   0  0  0  0  0  0  0  0  0  0  0  0
  -25.8692  -11.5711   20.2814 N   0  0  0  0  0  0  0  0  0  0  0  0
  -27.0266  -23.4370   17.3203 N   0  0  0  0  0  0  0  0  0  0  0  0
  -26.2516  -12.8535   20.1580 N   0  0  0  0  0  0  0  0  0  0  0  0
  -35.0145  -20.8969   17.8317 N   0  0  0  0  0  0  0  0  0  0  0  0
  -29.9917  -13.6152   20.3573 N   0  0  0  0  0  0  0  0  0  0  0  0
  -25.4963  -15.0832   20.4200 N   0  0  0  0  0  0  0  0  0  0  0  0
  -21.9045  -12.6195   21.6137 N   0  0  0  0  0  0  0  0  0  0  0  0
  -34.6988  -21.7210   14.2937 N   0  0  0  0  0  0  0  0  0  0  0  0
  -36.3561  -19.0870   20.3581 N   0  0  0  0  0  0  0  0  0  0  0  0
  -30.1774  -15.6726   21.5089 N   0  0  0  0  0  0  0  0  0  0  0  0
  -37.0697  -20.9236   23.3888 N   0  3  0  0  0  0  0  0  0  0  0  0
  -28.9035  -19.5588   19.9833 N   0  3  0  0  0  0  0  0  0  0  0  0
  -22.6890  -14.7571   21.3415 O   0  0  0  0  0  0  0  0  0  0  0  0
  -33.7145  -20.1906   15.7468 O   0  0  0  0  0  0  0  0  0  0  0  0
  -36.9412  -19.6041   17.6015 O   0  0  0  0  0  0  0  0  0  0  0  0
  -34.8757  -20.0687   21.8487 O   0  0  0  0  0  0  0  0  0  0  0  0
  -31.9042  -14.9178   20.2029 O   0  0  0  0  0  0  0  0  0  0  0  0
  -21.6060   -7.0571   21.6951 O   0  0  0  0  0  0  0  0  0  0  0  0
  -30.1537  -24.3391   19.4368 O   0  0  0  0  0  0  0  0  0  1  0  0
  -16.4363   -6.9025   19.7835 F   0  0  0  0  0  0  0  0  0  0  0  0
  -19.7355   -8.9218   22.5118 F   0  0  0  0  0  0  0  0  0  0  0  0
  -25.9136  -20.8080   15.1078 F   0  0  0  0  0  0  0  0  0  0  0  0
  -25.0599  -22.7955   15.2667 F   0  0  0  0  0  0  0  0  0  0  0  0
  -27.1021  -22.5455   14.5626 F   0  0  0  0  0  0  0  0  0  0  0  0
  1  2  1  0  0  0  0
  1  5  2  0  0  0  0
  2  6  2  0  0  0  0
  3  8  2  0  0  0  0
  3 17  1  0  0  0  0
  4  9  1  0  0  0  0
  4 17  2  0  0  0  0
  5 19  1  0  0  0  0
  6 21  1  0  0  0  0
  7 10  2  0  0  0  0
  7 20  1  0  0  0  0
  8 24  1  0  0  0  0
  9 24  2  0  0  0  0
 10 25  1  0  0  0  0
 11 12  2  0  0  0  0
 11 26  1  0  0  0  0
 12 27  1  0  0  0  0
 13 22  1  0  0  0  0
 13 25  2  0  0  0  0
 14 23  2  0  0  0  0
 14 30  1  0  0  0  0
 15 23  1  0  0  0  0
 15 31  2  0  0  0  0
 16 27  2  0  0  0  0
 16 28  1  0  0  0  0
 17 29  1  0  0  0  0
 18 29  1  0  0  0  0
 18 32  2  0  0  0  0
 18 33  1  0  0  0  0
 19 21  2  0  0  0  0
 19 38  1  0  0  0  0
 20 22  2  0  0  0  0
 20 39  1  0  0  0  0
 21 47  1  0  0  0  0
 22 40  1  0  0  0  0
 23 55  1  0  0  0  0
 24 82  1  0  0  0  0
 25 83  1  0  0  0  0
 26 28  2  0  0  0  0
 26 82  1  0  0  0  0
 27 84  1  0  0  0  0
 28 85  1  0  0  0  0
 29 65  2  0  0  0  0
 30 56  1  0  0  0  0
 30 66  2  0  0  0  0
 31 63  1  0  0  0  0
 31 66  1  0  0  0  0
 32 67  1  0  0  0  0
 32 70  1  0  0  0  0
 33 71  1  0  0  0  0
 33 77  2  0  0  0  0
 34 48  1  0  0  0  0
 34 72  1  0  0  0  0
 34 78  2  0  0  0  0
 35 61  1  0  0  0  0
 35 68  1  0  0  0  0
 35 79  2  0  0  0  0
 36 62  1  0  0  0  0
 36 73  1  0  0  0  0
 36 80  2  0  0  0  0
 37 69  1  0  0  0  0
 37 74  1  0  0  0  0
 37 81  2  0  0  0  0
 38 41  1  0  0  0  0
 39 48  1  0  0  0  0
 40 68  1  0  0  0  0
 41 43  1  0  0  0  0
 42 44  1  0  0  0  0
 42 45  1  0  0  0  0
 43 47  1  0  0  0  0
 44 49  1  0  0  0  0
 45 69  1  0  0  0  0
 46 49  1  0  0  0  0
 46 69  1  0  0  0  0
 47 72  1  0  0  0  0
 48 68  1  0  0  0  0
 49 67  1  0  0  0  0
 50 62  1  0  0  0  0
 51 64  1  0  0  0  0
 52 64  1  0  0  0  0
 53 64  1  0  0  0  0
 54 75  1  0  0  0  0
 55 76  1  0  0  0  0
 56 60  1  0  0  0  0
 57 58  1  0  0  0  0
 57 59  1  0  0  0  0
 58 74  1  0  0  0  0
 59 76  1  0  0  0  0
 60 83  1  0  0  0  0
 61 64  1  0  0  0  0
 61 73  1  0  0  0  0
 62 75  1  0  0  0  0
 63 86  1  0  0  0  0
 63 87  1  0  0  0  0
 63 88  1  0  0  0  0
 65 67  1  0  0  0  0
M  CHG  2  75   1  76   1
M  ISO  4  37 100  60 101  74 100  83 101
M  END
> <Batch ID>
0025

> <Smiles>
CNC(C)C(=O)NC(C(=O)N1Cc2cc([101O:1][101CH2:1]Cc3cc(CNCCC[100NH:0][100C:0](=O)N4CCCC(n5nc(-c6ccc(Oc7ccc(F)cc7F)cc6)c(C(N)=O)c5N)C4)cc(C(F)(F)F)n3)ccc2CC1C(=O)NC1CCCc2ccccc21)C(C)(C)C

> <Shape>
0.193

> <Color>
0.194

> <Negative vol penalty>
0.000

$$$$

  -OEChem-04052316243D

 87 95  0     1  0  0  0  0  0999 V2000
  -30.2686  -11.6599   19.3320 C   0  0  0  0  0  0  0  0  0  0  0  0
  -30.4069  -12.9750   18.8997 C   0  0  0  0  0  0  0  0  0  0  0  0
  -23.6529  -27.5973   23.8138 C   0  0  0  0  0  0  0  0  0  0  0  0
  -24.4084  -28.3592   21.6491 C   0  0  0  0  0  0  0  0  0  0  0  0
  -29.0999  -11.2589   19.9779 C   0  0  0  0  0  0  0  0  0  0  0  0
  -29.3761  -13.8896   19.1122 C   0  0  0  0  0  0  0  0  0  0  0  0
  -29.9482  -19.8668   20.3174 C   0  0  0  0  0  0  0  0  0  0  0  0
  -24.7042  -28.2831   24.4221 C   0  0  0  0  0  0  0  0  0  0  0  0
  -25.4597  -29.0451   22.2574 C   0  0  0  0  0  0  0  0  0  0  0  0
  -29.8573  -20.9994   19.5095 C   0  0  0  0  0  0  0  0  0  0  0  0
  -25.9004  -31.9481   23.9304 C   0  0  0  0  0  0  0  0  0  0  0  0
  -26.1552  -33.2512   23.5033 C   0  0  0  0  0  0  0  0  0  0  0  0
  -27.5517  -21.2738   20.1637 C   0  0  0  0  0  0  0  0  0  0  0  0
  -28.3854  -32.5985   22.8422 C   0  0  0  0  0  0  0  0  0  0  0  0
  -23.5050  -27.6353   22.4272 C   0  0  0  0  0  0  0  0  0  0  0  0
  -21.1301  -27.4189   21.5213 C   0  0  0  0  0  0  0  0  0  0  0  0
  -28.0581  -12.1716   20.2071 C   0  0  0  0  0  0  0  0  0  0  0  0
  -28.8364  -19.4221   21.0472 C   0  0  0  0  0  0  0  0  0  0  0  0
  -28.1918  -13.5002   19.7606 C   0  0  0  0  0  0  0  0  0  0  0  0
  -27.6318  -20.1367   20.9821 C   0  0  0  0  0  0  0  0  0  0  0  0
  -30.3888  -24.2194   17.6913 C   0  0  0  0  0  0  0  0  0  0  0  0
  -25.6075  -29.0070   23.6439 C   0  0  0  0  0  0  0  0  0  0  0  0
  -28.6582  -21.7014   19.4303 C   0  0  0  0  0  0  0  0  0  0  0  0
  -26.8881  -30.9701   23.8134 C   0  0  0  0  0  0  0  0  0  0  0  0
  -27.3976  -33.5765   22.9592 C   0  0  0  0  0  0  0  0  0  0  0  0
  -28.1306  -31.2953   23.2693 C   0  0  0  0  0  0  0  0  0  0  0  0
  -22.4196  -26.9266   21.7982 C   0  0  0  0  0  0  0  0  0  0  0  0
  -31.1925  -25.1573   18.3668 C   0  0  0  0  0  0  0  0  0  0  0  0
  -20.4816  -26.3660   20.9234 C   0  0  0  0  0  0  0  0  0  0  0  0
  -29.5377  -23.7385   18.6562 C   0  0  0  0  0  0  0  0  0  1  0  0
  -20.5688  -28.7124   21.7811 C   0  0  0  0  0  0  0  0  0  0  0  0
  -27.0804  -16.7726   21.0678 C   0  0  0  0  0  0  0  0  0  0  0  0
  -25.6821  -18.1852   23.6314 C   0  0  0  0  0  0  0  0  0  0  0  0
  -24.9523  -21.0636   25.3133 C   0  0  0  0  0  0  0  0  0  0  0  0
  -22.4118  -21.6006   17.8549 C   0  0  0  0  0  0  0  0  0  0  0  0
  -26.7944  -11.6799   20.8674 C   0  0  0  0  0  0  0  0  0  0  0  0
  -28.9584  -18.2139   21.9349 C   0  0  0  0  0  0  0  0  0  0  0  0
  -26.4149  -19.7124   21.7616 C   0  0  0  0  0  0  0  0  0  0  0  0
  -25.9020  -12.8039   21.3875 C   0  0  0  0  0  0  0  0  0  0  0  0
  -20.4227  -21.5834   20.8078 C   0  0  0  0  0  0  0  0  0  0  0  0
  -25.7504  -13.8962   20.3336 C   0  0  0  0  0  0  0  0  0  0  0  0
  -20.5926  -22.9952   21.3715 C   0  0  0  0  0  0  0  0  0  0  0  0
  -21.7128  -21.0707   20.1716 C   0  0  0  0  0  0  0  0  0  0  0  0
  -22.4654  -23.3723   19.7135 C   0  0  0  0  0  0  0  0  0  0  0  0
  -27.1060  -14.5279   19.9948 C   0  0  1  0  0  0  0  0  0  0  0  0
  -27.6157  -17.5543   22.2341 C   0  0  1  0  0  0  0  0  0  0  0  0
  -21.1751  -23.9541   20.3159 C   0  0  2  0  0  0  0  0  0  0  0  0
  -32.2824  -25.9813   17.8136 C   0  0  0  0  0  0  0  0  0  0  0  0
  -23.7636  -21.9033   27.3577 C   0  0  0  0  0  0  0  0  0  0  0  0
  -22.9990  -17.7696   22.2391 C   0  0  0  0  0  0  0  0  0  0  0  0
  -21.9984  -19.4293   23.8243 C   0  0  0  0  0  0  0  0  0  0  0  0
  -22.9812  -17.3092   24.6972 C   0  0  0  0  0  0  0  0  0  0  0  0
  -29.7719  -21.5355   16.5024 C   0  0  0  0  0  0  0  0  0  0  0  0
  -29.9198  -22.6940   14.2912 C   0  0  0  0  0  0  0  0  0  0  0  0
  -29.2575  -24.2299   21.1040 C   0  0  0  0  0  0  0  0  0  0  0  0
  -27.4428  -22.2024   26.4355 C   0  0  0  0  0  0  0  0  0  0  0  0
  -25.6114  -22.8255   15.7637 C   0  0  0  0  0  0  0  0  0  0  0  0
  -27.0271  -22.3155   15.4755 C   0  0  0  0  0  0  0  0  0  0  0  0
  -24.5545  -21.8108   15.3168 C   0  0  0  0  0  0  0  0  0  0  0  0
  -28.0844  -23.3162   15.9623 C   0  0  0  0  0  0  0  0  0  0  0  0
  -23.1292  -22.2872   15.5805 C   0  0  0  0  0  0  0  0  0  0  0  0
  -24.5157  -19.1224   23.8315 C   0  0  1  0  0  0  0  0  0  0  0  0
  -25.0901  -21.4368   26.7782 C   0  0  2  0  0  0  0  0  0  0  0  0
  -23.1457  -18.4148   23.6317 C   0  0  0  0  0  0  0  0  0  0  0  0
  -29.5509  -22.8674   15.7689 C   0  0  0  0  0  0  0  0  0  0  0  0
  -22.5824  -25.6594   21.4085 N   0  0  0  0  0  0  0  0  0  0  0  0
  -30.8800  -25.2673   19.6606 N   0  0  0  0  0  0  0  0  0  0  0  0
  -21.3867  -25.3466   20.8806 N   0  0  0  0  0  0  0  0  0  0  0  0
  -29.8704  -24.3922   19.8061 N   0  0  0  0  0  0  0  0  0  0  0  0
  -26.5824  -18.5212   22.6104 N   0  0  0  0  0  0  0  0  0  0  0  0
  -22.2118  -22.0253   19.1788 N   0  0  0  0  0  0  0  0  0  0  0  0
  -19.2312  -26.2220   20.4355 N   0  0  0  0  0  0  0  0  0  0  0  0
  -21.3733  -29.6774   22.4023 N   0  0  0  0  0  0  0  0  0  0  0  0
  -30.4364  -23.8568   16.3604 N   0  0  0  0  0  0  0  0  0  0  0  0
  -27.5032  -15.4576   21.0303 N   0  0  0  0  0  0  0  0  0  0  0  0
  -24.6932  -19.7191   25.1509 N   0  0  0  0  0  0  0  0  0  0  0  0
  -22.8806  -22.5698   16.9766 N   0  0  0  0  0  0  0  0  0  0  0  0
  -26.0860  -22.5334   26.9419 N   0  3  0  0  0  0  0  0  0  0  0  0
  -19.3835  -28.9986   21.4864 O   0  0  0  0  0  0  0  0  0  0  0  0
  -26.3375  -17.3215   20.2625 O   0  0  0  0  0  0  0  0  0  0  0  0
  -25.7943  -17.1954   24.3590 O   0  0  0  0  0  0  0  0  0  0  0  0
  -25.0597  -21.8836   24.4040 O   0  0  0  0  0  0  0  0  0  0  0  0
  -22.1839  -20.4447   17.4820 O   0  0  0  0  0  0  0  0  0  0  0  0
  -26.6334  -29.6766   24.2372 O   0  0  0  0  0  0  0  0  0  0  0  0
  -28.5639  -22.8401   18.6184 O   0  0  0  0  0  0  0  0  0  1  0  0
  -27.6417  -34.8276   22.5476 F   0  0  0  0  0  0  0  0  0  0  0  0
  -29.0831  -30.3598   23.1533 F   0  0  0  0  0  0  0  0  0  0  0  0
  1  2  1  0  0  0  0
  1  5  2  0  0  0  0
  2  6  2  0  0  0  0
  3  8  2  0  0  0  0
  3 15  1  0  0  0  0
  4  9  1  0  0  0  0
  4 15  2  0  0  0  0
  5 17  1  0  0  0  0
  6 19  1  0  0  0  0
  7 10  2  0  0  0  0
  7 18  1  0  0  0  0
  8 22  1  0  0  0  0
  9 22  2  0  0  0  0
 10 23  1  0  0  0  0
 11 12  2  0  0  0  0
 11 24  1  0  0  0  0
 12 25  1  0  0  0  0
 13 20  1  0  0  0  0
 13 23  2  0  0  0  0
 14 25  2  0  0  0  0
 14 26  1  0  0  0  0
 15 27  1  0  0  0  0
 16 27  1  0  0  0  0
 16 29  2  0  0  0  0
 16 31  1  0  0  0  0
 17 19  2  0  0  0  0
 17 36  1  0  0  0  0
 18 20  2  0  0  0  0
 18 37  1  0  0  0  0
 19 45  1  0  0  0  0
 20 38  1  0  0  0  0
 21 28  1  0  0  0  0
 21 30  2  0  0  0  0
 21 74  1  0  0  0  0
 22 84  1  0  0  0  0
 23 85  1  0  0  0  0
 24 26  2  0  0  0  0
 24 84  1  0  0  0  0
 25 86  1  0  0  0  0
 26 87  1  0  0  0  0
 27 66  2  0  0  0  0
 28 48  1  0  0  0  0
 28 67  2  0  0  0  0
 29 68  1  0  0  0  0
 29 72  1  0  0  0  0
 30 69  1  0  0  0  0
 30 85  1  0  0  0  0
 31 73  1  0  0  0  0
 31 79  2  0  0  0  0
 32 46  1  0  0  0  0
 32 75  1  0  0  0  0
 32 80  2  0  0  0  0
 33 62  1  0  0  0  0
 33 70  1  0  0  0  0
 33 81  2  0  0  0  0
 34 63  1  0  0  0  0
 34 76  1  0  0  0  0
 34 82  2  0  0  0  0
 35 71  1  0  0  0  0
 35 77  1  0  0  0  0
 35 83  2  0  0  0  0
 36 39  1  0  0  0  0
 37 46  1  0  0  0  0
 38 70  1  0  0  0  0
 39 41  1  0  0  0  0
 40 42  1  0  0  0  0
 40 43  1  0  0  0  0
 41 45  1  0  0  0  0
 42 47  1  0  0  0  0
 43 71  1  0  0  0  0
 44 47  1  0  0  0  0
 44 71  1  0  0  0  0
 45 75  1  0  0  0  0
 46 70  1  0  0  0  0
 47 68  1  0  0  0  0
 49 63  1  0  0  0  0
 50 64  1  0  0  0  0
 51 64  1  0  0  0  0
 52 64  1  0  0  0  0
 53 65  1  0  0  0  0
 54 65  1  0  0  0  0
 55 69  1  0  0  0  0
 56 78  1  0  0  0  0
 57 58  1  0  0  0  0
 57 59  1  0  0  0  0
 58 60  1  0  0  0  0
 59 61  1  0  0  0  0
 60 65  1  0  0  0  0
 61 77  1  0  0  0  0
 62 64  1  0  0  0  0
 62 76  1  0  0  0  0
 63 78  1  0  0  0  0
 65 74  1  0  0  0  0
 66 68  1  0  0  0  0
 67 69  1  0  0  0  0
M  CHG  1  78   1
M  ISO  4  30 101  35 100  77 100  85 101
M  END
> <Batch ID>
0025

> <Smiles>
CNC(C)C(=O)NC(C(=O)N1Cc2cc([101O:1][101c:1]3c(NC(C)(C)CCCCC[100NH:0][100C:0](=O)N4CCCC(n5nc(-c6ccc(Oc7ccc(F)cc7F)cc6)c(C(N)=O)c5N)C4)c(C)nn3C)ccc2CC1C(=O)NC1CCCc2ccccc21)C(C)(C)C

> <Shape>
0.213

> <Color>
0.066

> <Negative vol penalty>
0.000

$$$$

  -OEChem-04052316243D

 87 95  0     1  0  0  0  0  0999 V2000
  -18.1516  -25.0730   23.7292 C   0  0  0  0  0  0  0  0  0  0  0  0
  -19.4118  -24.8164   23.1988 C   0  0  0  0  0  0  0  0  0  0  0  0
  -25.7391  -12.3965   21.9978 C   0  0  0  0  0  0  0  0  0  0  0  0
  -26.1809  -13.4055   19.8475 C   0  0  0  0  0  0  0  0  0  0  0  0
  -17.6158  -26.3583   23.6599 C   0  0  0  0  0  0  0  0  0  0  0  0
  -20.1367  -25.8449   22.5978 C   0  0  0  0  0  0  0  0  0  0  0  0
  -26.2132  -26.6032   22.6823 C   0  0  0  0  0  0  0  0  0  0  0  0
  -24.4449  -12.0814   21.5841 C   0  0  0  0  0  0  0  0  0  0  0  0
  -24.8866  -13.0904   19.4338 C   0  0  0  0  0  0  0  0  0  0  0  0
  -27.2102  -26.2922   21.7587 C   0  0  0  0  0  0  0  0  0  0  0  0
  -22.9441   -9.7324   19.6702 C   0  0  0  0  0  0  0  0  0  0  0  0
  -22.4675   -8.4520   19.9509 C   0  0  0  0  0  0  0  0  0  0  0  0
  -27.1228  -28.5499   20.9133 C   0  0  0  0  0  0  0  0  0  0  0  0
  -30.7407  -20.1030   19.1375 C   0  0  0  0  0  0  0  0  0  0  0  0
  -30.7856  -21.6016   21.0320 C   0  0  0  0  0  0  0  0  0  0  0  0
  -20.6664   -9.4067   21.2476 C   0  0  0  0  0  0  0  0  0  0  0  0
  -26.6072  -13.0586   21.1296 C   0  0  0  0  0  0  0  0  0  0  0  0
  -29.0978  -12.5899   21.4203 C   0  0  0  0  0  0  0  0  0  0  0  0
  -18.3385  -27.4053   23.0664 C   0  0  0  0  0  0  0  0  0  0  0  0
  -25.6548  -27.8890   22.7212 C   0  0  0  0  0  0  0  0  0  0  0  0
  -19.6095  -27.1452   22.5193 C   0  0  0  0  0  0  0  0  0  0  0  0
  -26.1206  -28.8753   21.8401 C   0  0  0  0  0  0  0  0  0  0  0  0
  -30.7189  -21.1970   18.2725 C   0  0  0  0  0  0  0  0  0  0  0  0
  -30.7740  -20.3053   20.5173 C   0  0  0  0  0  0  0  0  0  0  0  0
  -24.0186  -12.4283   20.3021 C   0  0  0  0  0  0  0  0  0  0  0  0
  -27.6631  -27.2648   20.8721 C   0  0  0  0  0  0  0  0  0  0  0  0
  -22.2819  -10.8501   20.1782 C   0  0  0  0  0  0  0  0  0  0  0  0
  -30.7305  -22.4934   18.7873 C   0  0  0  0  0  0  0  0  0  0  0  0
  -21.3287   -8.2891   20.7396 C   0  0  0  0  0  0  0  0  0  0  0  0
  -21.1430  -10.6872   20.9669 C   0  0  0  0  0  0  0  0  0  0  0  0
  -30.7638  -22.6957   20.1670 C   0  0  0  0  0  0  0  0  0  0  0  0
  -27.9440  -13.3849   21.5566 C   0  0  0  0  0  0  0  0  0  0  0  0
  -30.1016  -13.3429   21.9789 C   0  0  0  0  0  0  0  0  0  0  0  0
  -29.2488  -11.2873   20.8406 C   0  0  0  0  0  0  0  0  0  0  0  0
  -22.7445  -29.0852   22.2712 C   0  0  0  0  0  0  0  0  0  0  0  0
  -24.1531  -31.8434   23.2357 C   0  0  0  0  0  0  0  0  0  0  0  0
  -27.0170  -33.6667   23.5827 C   0  0  0  0  0  0  0  0  0  0  0  0
  -30.8291  -19.2182   22.7892 C   0  0  0  0  0  0  0  0  0  0  0  0
  -17.6982  -28.7676   22.9728 C   0  0  0  0  0  0  0  0  0  0  0  0
  -24.5990  -28.2159   23.7413 C   0  0  0  0  0  0  0  0  0  0  0  0
  -25.5682  -30.2764   21.8546 C   0  0  0  0  0  0  0  0  0  0  0  0
  -18.6879  -29.8851   22.6536 C   0  0  0  0  0  0  0  0  0  0  0  0
  -30.8529  -16.7022   25.3083 C   0  0  0  0  0  0  0  0  0  0  0  0
  -19.6064  -29.4736   21.5073 C   0  0  0  0  0  0  0  0  0  0  0  0
  -30.2202  -15.4918   24.6178 C   0  0  0  0  0  0  0  0  0  0  0  0
  -30.2002  -18.0114   24.8684 C   0  0  0  0  0  0  0  0  0  0  0  0
  -29.5122  -17.0098   22.7254 C   0  0  0  0  0  0  0  0  0  0  0  0
  -20.4369  -28.2401   21.8815 C   0  0  1  0  0  0  0  0  0  0  0  0
  -23.7391  -29.4133   23.3485 C   0  0  1  0  0  0  0  0  0  0  0  0
  -30.1799  -15.6732   23.0878 C   0  0  2  0  0  0  0  0  0  0  0  0
  -30.6815  -20.9593   16.7986 C   0  0  0  0  0  0  0  0  0  0  0  0
  -27.8467  -35.9012   24.3677 C   0  0  0  0  0  0  0  0  0  0  0  0
  -23.0903  -33.1324   20.6824 C   0  0  0  0  0  0  0  0  0  0  0  0
  -24.7033  -35.0129   21.0433 C   0  0  0  0  0  0  0  0  0  0  0  0
  -22.9160  -34.5650   22.7249 C   0  0  0  0  0  0  0  0  0  0  0  0
  -28.3945  -26.3743   17.1230 C   0  0  0  0  0  0  0  0  0  0  0  0
  -30.6799  -26.2297   18.0781 C   0  0  0  0  0  0  0  0  0  0  0  0
  -29.3015  -23.9147   16.0379 C   0  0  0  0  0  0  0  0  0  0  0  0
  -28.3811  -23.1015   18.2094 C   0  0  0  0  0  0  0  0  0  0  0  0
  -28.7192  -32.4327   25.6656 C   0  0  0  0  0  0  0  0  0  0  0  0
  -28.6973  -25.6153   19.5063 C   0  0  0  0  0  0  0  0  0  1  0  0
  -24.8733  -32.9751   22.5431 C   0  0  1  0  0  0  0  0  0  0  0  0
  -27.5728  -34.4561   24.7542 C   0  0  2  0  0  0  0  0  0  0  0  0
  -23.9050  -33.8945   21.7466 C   0  0  0  0  0  0  0  0  0  0  0  0
  -29.2906  -25.5413   18.0755 C   0  0  0  0  0  0  0  0  0  0  0  0
  -29.4088  -24.0486   17.5666 C   0  0  0  0  0  0  0  0  0  0  0  0
  -28.1907  -14.5533   22.1550 N   0  0  0  0  0  0  0  0  0  0  0  0
  -29.5109  -14.4980   22.3997 N   0  0  0  0  0  0  0  0  0  0  0  0
  -24.5330  -30.5453   22.8663 N   0  0  0  0  0  0  0  0  0  0  0  0
  -30.2017  -18.1161   23.4076 N   0  0  0  0  0  0  0  0  0  0  0  0
  -31.4229  -13.1230   22.1464 N   0  0  0  0  0  0  0  0  0  0  0  0
  -28.1147  -10.6557   20.3121 N   0  0  0  0  0  0  0  0  0  0  0  0
  -30.7954  -19.1934   21.3953 N   0  0  0  0  0  0  0  0  0  0  0  0
  -21.5355  -28.6138   22.7463 N   0  0  0  0  0  0  0  0  0  0  0  0
  -25.6381  -33.6651   23.5762 N   0  0  0  0  0  0  0  0  0  0  0  0
  -28.8470  -33.8475   25.2309 N   0  3  0  0  0  0  0  0  0  0  0  0
  -30.3535  -10.6939   20.8074 O   0  0  0  0  0  0  0  0  0  0  0  0
  -23.0506  -29.2490   21.0960 O   0  0  0  0  0  0  0  0  0  0  0  0
  -23.2904  -32.1017   24.0787 O   0  0  0  0  0  0  0  0  0  0  0  0
  -27.7342  -33.1106   22.7539 O   0  0  0  0  0  0  0  0  0  0  0  0
  -31.3811  -20.1039   23.4471 O   0  0  0  0  0  0  0  0  0  0  0  0
  -22.7558  -12.1207   19.8979 O   0  0  0  0  0  0  0  0  0  0  0  0
  -28.6357  -26.9638   19.9692 O   0  0  0  0  0  0  0  0  0  1  0  0
  -30.7086  -23.5553   17.9327 O   0  0  0  0  0  0  0  0  0  0  0  0
  -20.8702   -7.0594   21.0079 F   0  0  0  0  0  0  0  0  0  0  0  0
  -20.5019  -11.7571   21.4568 F   0  0  0  0  0  0  0  0  0  0  0  0
  -30.7809  -24.2873   20.8332 Cl  0  0  0  0  0  0  0  0  0  0  0  0
  1  2  1  0  0  0  0
  1  5  2  0  0  0  0
  2  6  2  0  0  0  0
  3  8  2  0  0  0  0
  3 17  1  0  0  0  0
  4  9  1  0  0  0  0
  4 17  2  0  0  0  0
  5 19  1  0  0  0  0
  6 21  1  0  0  0  0
  7 10  2  0  0  0  0
  7 20  1  0  0  0  0
  8 25  1  0  0  0  0
  9 25  2  0  0  0  0
 10 26  1  0  0  0  0
 11 12  2  0  0  0  0
 11 27  1  0  0  0  0
 12 29  1  0  0  0  0
 13 22  1  0  0  0  0
 13 26  2  0  0  0  0
 14 23  2  0  0  0  0
 14 24  1  0  0  0  0
 15 24  2  0  0  0  0
 15 31  1  0  0  0  0
 16 29  2  0  0  0  0
 16 30  1  0  0  0  0
 17 32  1  0  0  0  0
 18 32  1  0  0  0  0
 18 33  2  0  0  0  0
 18 34  1  0  0  0  0
 19 21  2  0  0  0  0
 19 39  1  0  0  0  0
 20 22  2  0  0  0  0
 20 40  1  0  0  0  0
 21 48  1  0  0  0  0
 22 41  1  0  0  0  0
 23 28  1  0  0  0  0
 23 51  1  0  0  0  0
 24 73  1  0  0  0  0
 25 82  1  0  0  0  0
 26 83  1  0  0  0  0
 27 30  2  0  0  0  0
 27 82  1  0  0  0  0
 28 31  2  0  0  0  0
 28 84  1  0  0  0  0
 29 85  1  0  0  0  0
 30 86  1  0  0  0  0
 31 87  1  0  0  0  0
 32 67  2  0  0  0  0
 33 68  1  0  0  0  0
 33 71  1  0  0  0  0
 34 72  1  0  0  0  0
 34 77  2  0  0  0  0
 35 49  1  0  0  0  0
 35 74  1  0  0  0  0
 35 78  2  0  0  0  0
 36 62  1  0  0  0  0
 36 69  1  0  0  0  0
 36 79  2  0  0  0  0
 37 63  1  0  0  0  0
 37 75  1  0  0  0  0
 37 80  2  0  0  0  0
 38 70  1  0  0  0  0
 38 73  1  0  0  0  0
 38 81  2  0  0  0  0
 39 42  1  0  0  0  0
 40 49  1  0  0  0  0
 41 69  1  0  0  0  0
 42 44  1  0  0  0  0
 43 45  1  0  0  0  0
 43 46  1  0  0  0  0
 44 48  1  0  0  0  0
 45 50  1  0  0  0  0
 46 70  1  0  0  0  0
 47 50  1  0  0  0  0
 47 70  1  0  0  0  0
 48 74  1  0  0  0  0
 49 69  1  0  0  0  0
 50 68  1  0  0  0  0
 52 63  1  0  0  0  0
 53 64  1  0  0  0  0
 54 64  1  0  0  0  0
 55 64  1  0  0  0  0
 56 65  1  0  0  0  0
 57 65  1  0  0  0  0
 58 66  1  0  0  0  0
 59 66  1  0  0  0  0
 60 76  1  0  0  0  0
 61 65  1  0  0  0  0
 61 83  1  0  0  0  0
 62 64  1  0  0  0  0
 62 75  1  0  0  0  0
 63 76  1  0  0  0  0
 65 66  1  0  0  0  0
 66 84  1  0  0  0  0
 67 68  1  0  0  0  0
M  CHG  1  76   1
M  ISO  4  38 100  61 101  73 100  83 101
M  END
> <Batch ID>
0025

> <Smiles>
CNC(C)C(=O)NC(C(=O)N1Cc2cc([101O:1][101CH2:1]C(C)(C)C(C)(C)Oc3c(C)cc([100NH:0][100C:0](=O)N4CCCC(n5nc(-c6ccc(Oc7ccc(F)cc7F)cc6)c(C(N)=O)c5N)C4)cc3Cl)ccc2CC1C(=O)NC1CCCc2ccccc21)C(C)(C)C

> <Shape>
0.304

> <Color>
0.087

> <Negative vol penalty>
0.000

$$$$

  -OEChem-04052316243D

 87 95  0     1  0  0  0  0  0999 V2000
  -31.0705  -35.3200   22.5814 C   0  0  0  0  0  0  0  0  0  0  0  0
  -30.9036  -34.1763   21.8071 C   0  0  0  0  0  0  0  0  0  0  0  0
  -24.8803   -8.6660   21.9212 C   0  0  0  0  0  0  0  0  0  0  0  0
  -23.3411  -10.2750   20.9835 C   0  0  0  0  0  0  0  0  0  0  0  0
  -30.3929  -35.4448   23.7935 C   0  0  0  0  0  0  0  0  0  0  0  0
  -30.0598  -33.1562   22.2450 C   0  0  0  0  0  0  0  0  0  0  0  0
  -26.5508  -29.5344   18.7700 C   0  0  0  0  0  0  0  0  0  0  0  0
  -23.8456   -8.1179   22.6791 C   0  0  0  0  0  0  0  0  0  0  0  0
  -22.3064   -9.7268   21.7415 C   0  0  0  0  0  0  0  0  0  0  0  0
  -26.7299  -28.2393   18.2859 C   0  0  0  0  0  0  0  0  0  0  0  0
  -21.2428   -6.0157   22.1897 C   0  0  0  0  0  0  0  0  0  0  0  0
  -21.1342   -4.6257   22.2291 C   0  0  0  0  0  0  0  0  0  0  0  0
  -25.4627  -27.3745   20.1475 C   0  0  0  0  0  0  0  0  0  0  0  0
  -21.4232   -4.6710   24.6273 C   0  0  0  0  0  0  0  0  0  0  0  0
  -24.6281   -9.7446   21.0734 C   0  0  0  0  0  0  0  0  0  0  0  0
  -26.4817   -9.6566   19.3230 C   0  0  0  0  0  0  0  0  0  0  0  0
  -29.5329  -34.4299   24.2419 C   0  0  0  0  0  0  0  0  0  0  0  0
  -25.8343  -29.7587   19.9544 C   0  0  0  0  0  0  0  0  0  0  0  0
  -29.3711  -33.2669   23.4650 C   0  0  0  0  0  0  0  0  0  0  0  0
  -25.2737  -28.6737   20.6432 C   0  0  0  0  0  0  0  0  0  0  0  0
  -22.5586   -8.6483   22.5893 C   0  0  0  0  0  0  0  0  0  0  0  0
  -26.1883  -27.1589   18.9762 C   0  0  0  0  0  0  0  0  0  0  0  0
  -21.4417   -6.7334   23.3692 C   0  0  0  0  0  0  0  0  0  0  0  0
  -21.2243   -3.9533   23.4479 C   0  0  0  0  0  0  0  0  0  0  0  0
  -21.5319   -6.0610   24.5880 C   0  0  0  0  0  0  0  0  0  0  0  0
  -25.6966  -10.3116   20.2906 C   0  0  0  0  0  0  0  0  0  0  0  0
  -27.3486  -10.6222   18.8730 C   0  0  0  0  0  0  0  0  0  0  0  0
  -26.4317   -8.2968   18.8712 C   0  0  0  0  0  0  0  0  0  0  0  0
  -26.5312  -30.9994   22.7967 C   0  0  0  0  0  0  0  0  0  0  0  0
  -23.3476  -30.6360   23.3017 C   0  0  0  0  0  0  0  0  0  0  0  0
  -20.4530  -29.0165   22.4983 C   0  0  0  0  0  0  0  0  0  0  0  0
  -27.1775  -16.5026   18.6104 C   0  0  0  0  0  0  0  0  0  0  0  0
  -28.8586  -34.5891   25.5816 C   0  0  0  0  0  0  0  0  0  0  0  0
  -25.6272  -31.1640   20.4490 C   0  0  0  0  0  0  0  0  0  0  0  0
  -24.4789  -28.8627   21.9085 C   0  0  0  0  0  0  0  0  0  0  0  0
  -27.6928  -33.6270   25.7948 C   0  0  0  0  0  0  0  0  0  0  0  0
  -29.5712  -14.6143   20.2629 C   0  0  0  0  0  0  0  0  0  0  0  0
  -28.0865  -32.2118   25.3839 C   0  0  0  0  0  0  0  0  0  0  0  0
  -28.9351  -13.2292   20.3728 C   0  0  0  0  0  0  0  0  0  0  0  0
  -25.0301  -16.6565   15.5789 C   0  0  0  0  0  0  0  0  0  0  0  0
  -28.5410  -15.7082   20.5173 C   0  0  0  0  0  0  0  0  0  0  0  0
  -26.7065  -14.2606   19.7046 C   0  0  0  0  0  0  0  0  0  0  0  0
  -24.5045  -17.8648   14.8197 C   0  0  0  0  0  0  0  0  0  0  0  0
  -24.8890  -18.4017   17.1750 C   0  0  0  0  0  0  0  0  0  0  0  0
  -28.4453  -32.1495   23.8943 C   0  0  1  0  0  0  0  0  0  0  0  0
  -25.3181  -31.2328   21.9414 C   0  0  1  0  0  0  0  0  0  0  0  0
  -27.7061  -13.1127   19.4543 C   0  0  2  0  0  0  0  0  0  0  0  0
  -25.7934  -17.2644   16.7431 C   0  0  1  0  0  0  0  0  0  0  0  0
  -18.0210  -28.9100   23.1076 C   0  0  0  0  0  0  0  0  0  0  0  0
  -22.7484  -20.1907   14.5496 C   0  0  0  0  0  0  0  0  0  0  0  0
  -24.0530  -29.0924   25.8374 C   0  0  0  0  0  0  0  0  0  0  0  0
  -21.7064  -28.2206   25.8760 C   0  0  0  0  0  0  0  0  0  0  0  0
  -22.1282  -30.6709   26.0784 C   0  0  0  0  0  0  0  0  0  0  0  0
  -19.6158  -29.7995   19.7697 C   0  0  0  0  0  0  0  0  0  0  0  0
  -24.1933  -22.8760   17.9113 C   0  0  0  0  0  0  0  0  0  0  0  0
  -24.1639  -21.8390   16.7871 C   0  0  0  0  0  0  0  0  0  0  0  0
  -25.2673  -23.9334   17.6601 C   0  0  0  0  0  0  0  0  0  0  0  0
  -23.1056  -20.7469   16.9883 C   0  0  0  0  0  0  0  0  0  0  0  0
  -25.1801  -14.0125   17.5326 C   0  0  0  0  0  0  0  0  0  0  0  0
  -24.9517  -15.4104   18.1026 C   0  0  0  0  0  0  0  0  0  0  0  0
  -25.3340  -24.9469   18.7939 C   0  0  0  0  0  0  0  0  0  1  0  0
  -24.0820  -13.0022   17.8574 C   0  0  0  0  0  0  0  0  0  0  0  0
  -22.4704  -29.5346   23.8460 C   0  0  1  0  0  0  0  0  0  0  0  0
  -19.0602  -29.5360   22.1906 C   0  0  2  0  0  0  0  0  0  0  0  0
  -23.0771  -19.6374   15.9308 C   0  0  2  0  0  0  0  0  0  0  0  0
  -22.6061  -29.3756   25.3867 C   0  0  0  0  0  0  0  0  0  0  0  0
  -26.0350  -11.5943   20.4470 N   0  0  0  0  0  0  0  0  0  0  0  0
  -27.0422  -11.7529   19.5715 N   0  0  0  0  0  0  0  0  0  0  0  0
  -24.3094  -30.2553   22.3552 N   0  0  0  0  0  0  0  0  0  0  0  0
  -27.3853  -15.5636   19.6316 N   0  0  0  0  0  0  0  0  0  0  0  0
  -28.3354  -10.6060   17.9519 N   0  0  0  0  0  0  0  0  0  0  0  0
  -25.5995   -7.9827   17.7880 N   0  0  0  0  0  0  0  0  0  0  0  0
  -27.2454  -32.1467   23.0852 N   0  0  0  0  0  0  0  0  0  0  0  0
  -21.1155  -29.8302   23.3928 N   0  0  0  0  0  0  0  0  0  0  0  0
  -26.0503  -16.3239   17.7942 N   0  0  0  0  0  0  0  0  0  0  0  0
  -24.4139  -18.9725   15.8546 N   0  3  2  0  0  0  0  0  0  0  0  0
  -18.6912  -29.2250   20.7806 N   0  3  0  0  0  0  0  0  0  0  0  0
  -27.0925   -7.3841   19.4224 O   0  0  0  0  0  0  0  0  0  0  0  0
  -26.7986  -29.8629   23.1688 O   0  0  0  0  0  0  0  0  0  0  0  0
  -23.1807  -31.7928   23.6963 O   0  0  0  0  0  0  0  0  0  0  0  0
  -20.9065  -27.9895   21.9981 O   0  0  0  0  0  0  0  0  0  0  0  0
  -27.9516  -17.4534   18.4409 O   0  0  0  0  0  0  0  0  0  0  0  0
  -21.5486   -8.1135   23.3285 O   0  0  0  0  0  0  0  0  0  0  0  0
  -26.3622  -25.8937   18.5062 O   0  0  0  0  0  0  0  0  0  1  0  0
  -21.1184   -2.6185   23.4857 F   0  0  0  0  0  0  0  0  0  0  0  0
  -21.7218   -6.7452   25.7245 F   0  0  0  0  0  0  0  0  0  0  0  0
  -22.4913  -13.5283   17.2605 Cl  0  0  0  0  0  0  0  0  0  0  0  0
  1  2  1  0  0  0  0
  1  5  2  0  0  0  0
  2  6  2  0  0  0  0
  3  8  2  0  0  0  0
  3 15  1  0  0  0  0
  4  9  1  0  0  0  0
  4 15  2  0  0  0  0
  5 17  1  0  0  0  0
  6 19  1  0  0  0  0
  7 10  2  0  0  0  0
  7 18  1  0  0  0  0
  8 21  1  0  0  0  0
  9 21  2  0  0  0  0
 10 22  1  0  0  0  0
 11 12  2  0  0  0  0
 11 23  1  0  0  0  0
 12 24  1  0  0  0  0
 13 20  1  0  0  0  0
 13 22  2  0  0  0  0
 14 24  2  0  0  0  0
 14 25  1  0  0  0  0
 15 26  1  0  0  0  0
 16 26  1  0  0  0  0
 16 27  2  0  0  0  0
 16 28  1  0  0  0  0
 17 19  2  0  0  0  0
 17 33  1  0  0  0  0
 18 20  2  0  0  0  0
 18 34  1  0  0  0  0
 19 45  1  0  0  0  0
 20 35  1  0  0  0  0
 21 83  1  0  0  0  0
 22 84  1  0  0  0  0
 23 25  2  0  0  0  0
 23 83  1  0  0  0  0
 24 85  1  0  0  0  0
 25 86  1  0  0  0  0
 26 67  2  0  0  0  0
 27 68  1  0  0  0  0
 27 71  1  0  0  0  0
 28 72  1  0  0  0  0
 28 78  2  0  0  0  0
 29 46  1  0  0  0  0
 29 73  1  0  0  0  0
 29 79  2  0  0  0  0
 30 63  1  0  0  0  0
 30 69  1  0  0  0  0
 30 80  2  0  0  0  0
 31 64  1  0  0  0  0
 31 74  1  0  0  0  0
 31 81  2  0  0  0  0
 32 70  1  0  0  0  0
 32 75  1  0  0  0  0
 32 82  2  0  0  0  0
 33 36  1  0  0  0  0
 34 46  1  0  0  0  0
 35 69  1  0  0  0  0
 36 38  1  0  0  0  0
 37 39  1  0  0  0  0
 37 41  1  0  0  0  0
 38 45  1  0  0  0  0
 39 47  1  0  0  0  0
 40 43  1  0  0  0  0
 40 48  1  0  0  0  0
 41 70  1  0  0  0  0
 42 47  1  0  0  0  0
 42 70  1  0  0  0  0
 43 76  1  0  0  0  0
 44 48  1  0  0  0  0
 44 76  1  0  0  0  0
 45 73  1  0  0  0  0
 46 69  1  0  0  0  0
 47 68  1  0  0  0  0
 48 75  1  0  0  0  0
 49 64  1  0  0  0  0
 50 65  1  0  0  0  0
 51 66  1  0  0  0  0
 52 66  1  0  0  0  0
 53 66  1  0  0  0  0
 54 77  1  0  0  0  0
 55 56  1  0  0  0  0
 55 57  1  0  0  0  0
 56 58  1  0  0  0  0
 57 61  1  0  0  0  0
 58 65  1  0  0  0  0
 59 60  1  0  0  0  0
 59 62  1  0  0  0  0
 60 75  1  0  0  0  0
 61 84  1  0  0  0  0
 62 87  1  0  0  0  0
 63 66  1  0  0  0  0
 63 74  1  0  0  0  0
 64 77  1  0  0  0  0
 65 76  1  0  0  0  0
 67 68  1  0  0  0  0
M  CHG  2  76   1  77   1
M  ISO  4  32 100  61 101  75 100  84 101
M  END
> <Batch ID>
0025

> <Smiles>
CNC(C)C(=O)NC(C(=O)N1Cc2cc([101O:1][101CH2:1]CCCCC(C)N3CCC([100N:0](CCCCl)[100C:0](=O)N4CCCC(n5nc(-c6ccc(Oc7ccc(F)cc7F)cc6)c(C(N)=O)c5N)C4)C3)ccc2CC1C(=O)NC1CCCc2ccccc21)C(C)(C)C

> <Shape>
0.240

> <Color>
0.095

> <Negative vol penalty>
0.000

$$$$

  -OEChem-04052316243D

 82 90  0     1  0  0  0  0  0999 V2000
  -15.2398  -22.3786   19.7746 C   0  0  0  0  0  0  0  0  0  0  0  0
  -16.4682  -21.7444   19.6190 C   0  0  0  0  0  0  0  0  0  0  0  0
  -23.0733   -9.8699   19.9427 C   0  0  0  0  0  0  0  0  0  0  0  0
  -23.8372   -9.8768   22.2348 C   0  0  0  0  0  0  0  0  0  0  0  0
  -15.1460  -23.5331   20.5507 C   0  0  0  0  0  0  0  0  0  0  0  0
  -17.6038  -22.2650   20.2384 C   0  0  0  0  0  0  0  0  0  0  0  0
  -22.3053  -19.1033   22.5635 C   0  0  0  0  0  0  0  0  0  0  0  0
  -22.3301   -8.7166   20.1938 C   0  0  0  0  0  0  0  0  0  0  0  0
  -23.0939   -8.7234   22.4859 C   0  0  0  0  0  0  0  0  0  0  0  0
  -23.5670  -18.7915   22.0589 C   0  0  0  0  0  0  0  0  0  0  0  0
  -19.8670   -7.9250   23.0940 C   0  0  0  0  0  0  0  0  0  0  0  0
  -19.1121   -7.8848   24.2662 C   0  0  0  0  0  0  0  0  0  0  0  0
  -24.4965  -20.6844   23.2304 C   0  0  0  0  0  0  0  0  0  0  0  0
  -20.3551   -5.9475   25.0002 C   0  0  0  0  0  0  0  0  0  0  0  0
  -29.8897  -19.9721   19.8871 C   0  0  0  0  0  0  0  0  0  0  0  0
  -23.8269  -10.4500   20.9632 C   0  0  0  0  0  0  0  0  0  0  0  0
  -24.1681  -12.9752   20.8428 C   0  0  0  0  0  0  0  0  0  0  0  0
  -16.2792  -24.0627   21.1878 C   0  0  0  0  0  0  0  0  0  0  0  0
  -22.1275  -20.2162   23.3980 C   0  0  0  0  0  0  0  0  0  0  0  0
  -17.5254  -23.4284   21.0226 C   0  0  0  0  0  0  0  0  0  0  0  0
  -23.2320  -21.0067   23.7463 C   0  0  0  0  0  0  0  0  0  0  0  0
  -28.2321  -19.6596   21.6167 C   0  0  0  0  0  0  0  0  0  0  0  0
  -30.0784  -18.1138   21.4194 C   0  0  0  0  0  0  0  0  0  0  0  0
  -22.3403   -8.1434   21.4654 C   0  0  0  0  0  0  0  0  0  0  0  0
  -24.6623  -19.5838   22.3900 C   0  0  0  0  0  0  0  0  0  0  0  0
  -20.8659   -6.9764   22.8748 C   0  0  0  0  0  0  0  0  0  0  0  0
  -19.3561   -6.8961   25.2193 C   0  0  0  0  0  0  0  0  0  0  0  0
  -21.1100   -5.9877   23.8280 C   0  0  0  0  0  0  0  0  0  0  0  0
  -28.7218  -20.3832   20.5294 C   0  0  0  0  0  0  0  0  0  0  0  0
  -30.5680  -18.8374   20.3321 C   0  0  0  0  0  0  0  0  0  0  0  0
  -28.9105  -18.5249   22.0618 C   0  0  0  0  0  0  0  0  0  0  0  0
  -24.5953  -11.6410   20.7042 C   0  0  0  0  0  0  0  0  0  0  0  0
  -25.2595  -13.7249   20.4777 C   0  0  0  0  0  0  0  0  0  0  0  0
  -22.8983  -13.4907   21.2640 C   0  0  0  0  0  0  0  0  0  0  0  0
  -20.4552  -22.9132   23.2143 C   0  0  0  0  0  0  0  0  0  0  0  0
  -21.4986  -23.3099   26.2600 C   0  0  0  0  0  0  0  0  0  0  0  0
  -23.8302  -22.5781   28.6422 C   0  0  0  0  0  0  0  0  0  0  0  0
  -30.7434  -14.7449   20.6566 C   0  0  0  0  0  0  0  0  0  0  0  0
  -16.1376  -25.3395   21.9780 C   0  0  0  0  0  0  0  0  0  0  0  0
  -20.7647  -20.5235   23.9556 C   0  0  0  0  0  0  0  0  0  0  0  0
  -23.0979  -22.2005   24.6547 C   0  0  0  0  0  0  0  0  0  0  0  0
  -17.3173  -25.6151   22.9067 C   0  0  0  0  0  0  0  0  0  0  0  0
  -29.6020  -12.3605   18.2716 C   0  0  0  0  0  0  0  0  0  0  0  0
  -18.6367  -25.4008   22.1718 C   0  0  0  0  0  0  0  0  0  0  0  0
  -28.1654  -12.0664   18.7070 C   0  0  0  0  0  0  0  0  0  0  0  0
  -30.5212  -12.5813   19.4709 C   0  0  0  0  0  0  0  0  0  0  0  0
  -28.6218  -13.3119   20.8609 C   0  0  0  0  0  0  0  0  0  0  0  0
  -18.7752  -23.9486   21.6990 C   0  0  1  0  0  0  0  0  0  0  0  0
  -20.6080  -21.9799   24.3819 C   0  0  1  0  0  0  0  0  0  0  0  0
  -27.6456  -13.1373   19.6849 C   0  0  2  0  0  0  0  0  0  0  0  0
  -24.4376  -23.0817   31.0244 C   0  0  0  0  0  0  0  0  0  0  0  0
  -22.5471  -26.0468   25.4115 C   0  0  0  0  0  0  0  0  0  0  0  0
  -23.9360  -26.0831   27.4943 C   0  0  0  0  0  0  0  0  0  0  0  0
  -21.4482  -26.0012   27.6575 C   0  0  0  0  0  0  0  0  0  0  0  0
  -23.5683  -19.7378   29.4313 C   0  0  0  0  0  0  0  0  0  0  0  0
  -30.8110  -16.8953   21.8937 C   0  0  0  0  0  0  0  0  0  0  0  0
  -26.9727  -20.1366   22.2783 C   0  0  0  0  0  0  0  0  0  1  0  0
  -22.7091  -23.9444   26.9013 C   0  0  1  0  0  0  0  0  0  0  0  0
  -23.6890  -22.1440   30.0900 C   0  0  2  0  0  0  0  0  0  0  0  0
  -22.6626  -25.4976   26.8474 C   0  0  0  0  0  0  0  0  0  0  0  0
  -25.8595  -11.5455   20.2837 N   0  0  0  0  0  0  0  0  0  0  0  0
  -26.2359  -12.8291   20.1549 N   0  0  0  0  0  0  0  0  0  0  0  0
  -21.7438  -22.4636   25.1694 N   0  0  0  0  0  0  0  0  0  0  0  0
  -29.9720  -13.6096   20.3579 N   0  0  0  0  0  0  0  0  0  0  0  0
  -25.4695  -15.0564   20.4045 N   0  0  0  0  0  0  0  0  0  0  0  0
  -21.8871  -12.5814   21.6030 N   0  0  0  0  0  0  0  0  0  0  0  0
  -19.1479  -23.0909   22.8034 N   0  0  0  0  0  0  0  0  0  0  0  0
  -22.7910  -23.3955   28.2505 N   0  0  0  0  0  0  0  0  0  0  0  0
  -30.1455  -15.6735   21.4998 N   0  0  0  0  0  0  0  0  0  0  0  0
  -24.2300  -20.7675   30.2731 N   0  3  0  0  0  0  0  0  0  0  0  0
  -22.6619  -14.7213   21.3219 O   0  0  0  0  0  0  0  0  0  0  0  0
  -21.4496  -23.4347   22.7235 O   0  0  0  0  0  0  0  0  0  0  0  0
  -20.3774  -23.5506   26.7146 O   0  0  0  0  0  0  0  0  0  0  0  0
  -24.7703  -22.2302   27.9311 O   0  0  0  0  0  0  0  0  0  0  0  0
  -31.8785  -14.9206   20.2010 O   0  0  0  0  0  0  0  0  0  0  0  0
  -21.6150   -7.0181   21.7109 O   0  0  0  0  0  0  0  0  0  0  0  0
  -25.8949  -19.2821   21.8983 O   0  0  0  0  0  0  0  0  0  1  0  0
  -18.6322   -6.8585   26.3457 F   0  0  0  0  0  0  0  0  0  0  0  0
  -22.0691   -5.0744   23.6236 F   0  0  0  0  0  0  0  0  0  0  0  0
  -28.0780  -21.4751   20.0930 F   0  0  0  0  0  0  0  0  0  0  0  0
  -32.0098  -18.3652   19.5069 Cl  0  0  0  0  0  0  0  0  0  0  0  0
  -28.2973  -17.6300   23.4131 Cl  0  0  0  0  0  0  0  0  0  0  0  0
  1  2  1  0  0  0  0
  1  5  2  0  0  0  0
  2  6  2  0  0  0  0
  3  8  2  0  0  0  0
  3 16  1  0  0  0  0
  4  9  1  0  0  0  0
  4 16  2  0  0  0  0
  5 18  1  0  0  0  0
  6 20  1  0  0  0  0
  7 10  2  0  0  0  0
  7 19  1  0  0  0  0
  8 24  1  0  0  0  0
  9 24  2  0  0  0  0
 10 25  1  0  0  0  0
 11 12  2  0  0  0  0
 11 26  1  0  0  0  0
 12 27  1  0  0  0  0
 13 21  1  0  0  0  0
 13 25  2  0  0  0  0
 14 27  2  0  0  0  0
 14 28  1  0  0  0  0
 15 29  2  0  0  0  0
 15 30  1  0  0  0  0
 16 32  1  0  0  0  0
 17 32  1  0  0  0  0
 17 33  2  0  0  0  0
 17 34  1  0  0  0  0
 18 20  2  0  0  0  0
 18 39  1  0  0  0  0
 19 21  2  0  0  0  0
 19 40  1  0  0  0  0
 20 48  1  0  0  0  0
 21 41  1  0  0  0  0
 22 29  1  0  0  0  0
 22 31  2  0  0  0  0
 22 57  1  0  0  0  0
 23 30  2  0  0  0  0
 23 31  1  0  0  0  0
 23 56  1  0  0  0  0
 24 76  1  0  0  0  0
 25 77  1  0  0  0  0
 26 28  2  0  0  0  0
 26 76  1  0  0  0  0
 27 78  1  0  0  0  0
 28 79  1  0  0  0  0
 29 80  1  0  0  0  0
 30 81  1  0  0  0  0
 31 82  1  0  0  0  0
 32 61  2  0  0  0  0
 33 62  1  0  0  0  0
 33 65  1  0  0  0  0
 34 66  1  0  0  0  0
 34 71  2  0  0  0  0
 35 49  1  0  0  0  0
 35 67  1  0  0  0  0
 35 72  2  0  0  0  0
 36 58  1  0  0  0  0
 36 63  1  0  0  0  0
 36 73  2  0  0  0  0
 37 59  1  0  0  0  0
 37 68  1  0  0  0  0
 37 74  2  0  0  0  0
 38 64  1  0  0  0  0
 38 69  1  0  0  0  0
 38 75  2  0  0  0  0
 39 42  1  0  0  0  0
 40 49  1  0  0  0  0
 41 63  1  0  0  0  0
 42 44  1  0  0  0  0
 43 45  1  0  0  0  0
 43 46  1  0  0  0  0
 44 48  1  0  0  0  0
 45 50  1  0  0  0  0
 46 64  1  0  0  0  0
 47 50  1  0  0  0  0
 47 64  1  0  0  0  0
 48 67  1  0  0  0  0
 49 63  1  0  0  0  0
 50 62  1  0  0  0  0
 51 59  1  0  0  0  0
 52 60  1  0  0  0  0
 53 60  1  0  0  0  0
 54 60  1  0  0  0  0
 55 70  1  0  0  0  0
 56 69  1  0  0  0  0
 57 77  1  0  0  0  0
 58 60  1  0  0  0  0
 58 68  1  0  0  0  0
 59 70  1  0  0  0  0
 61 62  1  0  0  0  0
M  CHG  1  70   1
M  ISO  4  38 100  57 101  69 100  77 101
M  END
> <Batch ID>
0025

> <Smiles>
CNC(C)C(=O)NC(C(=O)N1Cc2cc([101O:1][101CH2:1]c3c(F)cc(Cl)c(C[100NH:0][100C:0](=O)N4CCCC(n5nc(-c6ccc(Oc7ccc(F)cc7F)cc6)c(C(N)=O)c5N)C4)c3Cl)ccc2CC1C(=O)NC1CCCc2ccccc21)C(C)(C)C

> <Shape>
0.210

> <Color>
0.200

> <Negative vol penalty>
0.000

$$$$
