
  -OEChem-04052316273D

 87 95  0     1  0  0  0  0  0999 V2000
  -23.8704  -24.1550   19.2873 C   0  0  0  0  0  0  0  0  0  0  0  0
  -24.7145  -23.0846   19.0139 C   0  0  0  0  0  0  0  0  0  0  0  0
  -25.7437  -27.4546   19.0554 C   0  0  0  0  0  0  0  0  0  0  0  0
  -26.5798  -28.5002   21.0666 C   0  0  0  0  0  0  0  0  0  0  0  0
  -22.8695  -24.0208   20.2471 C   0  0  0  0  0  0  0  0  0  0  0  0
  -24.5504  -21.8760   19.6916 C   0  0  0  0  0  0  0  0  0  0  0  0
  -27.2995  -18.0817   18.1921 C   0  0  0  0  0  0  0  0  0  0  0  0
  -24.7158  -28.3954   18.9936 C   0  0  0  0  0  0  0  0  0  0  0  0
  -25.5519  -29.4411   21.0047 C   0  0  0  0  0  0  0  0  0  0  0  0
  -28.6713  -18.0047   18.4289 C   0  0  0  0  0  0  0  0  0  0  0  0
  -22.9383  -31.9008   21.5785 C   0  0  0  0  0  0  0  0  0  0  0  0
  -22.2570  -32.1952   22.7594 C   0  0  0  0  0  0  0  0  0  0  0  0
  -28.2707  -16.4121   20.1959 C   0  0  0  0  0  0  0  0  0  0  0  0
  -21.5781  -29.8839   22.9440 C   0  0  0  0  0  0  0  0  0  0  0  0
  -26.6757  -27.5069   20.0920 C   0  0  0  0  0  0  0  0  0  0  0  0
  -29.0156  -26.6322   19.5750 C   0  0  0  0  0  0  0  0  0  0  0  0
  -22.7016  -22.8136   20.9453 C   0  0  0  0  0  0  0  0  0  0  0  0
  -26.4007  -17.3314   18.9639 C   0  0  0  0  0  0  0  0  0  0  0  0
  -23.5307  -21.7132   20.6467 C   0  0  0  0  0  0  0  0  0  0  0  0
  -26.8882  -16.4793   19.9651 C   0  0  0  0  0  0  0  0  0  0  0  0
  -33.1390  -17.3616   21.8620 C   0  0  0  0  0  0  0  0  0  0  0  0
  -33.3023  -18.2383   22.9629 C   0  0  0  0  0  0  0  0  0  0  0  0
  -24.6199  -29.3887   19.9682 C   0  0  0  0  0  0  0  0  0  0  0  0
  -29.1569  -17.1720   19.4329 C   0  0  0  0  0  0  0  0  0  0  0  0
  -22.9396  -30.5979   21.0802 C   0  0  0  0  0  0  0  0  0  0  0  0
  -21.5769  -31.1868   23.4422 C   0  0  0  0  0  0  0  0  0  0  0  0
  -22.2595  -29.5895   21.7630 C   0  0  0  0  0  0  0  0  0  0  0  0
  -27.7374  -26.5350   20.1567 C   0  0  0  0  0  0  0  0  0  0  0  0
  -32.9961  -18.1395   20.7344 C   0  0  0  0  0  0  0  0  0  0  0  0
  -33.2540  -19.5253   22.4744 C   0  0  0  0  0  0  0  0  0  0  0  0
  -29.6420  -25.4610   19.9245 C   0  0  0  0  0  0  0  0  0  0  0  0
  -29.5858  -27.6871   18.7890 C   0  0  0  0  0  0  0  0  0  0  0  0
  -24.0148  -18.0335   20.9433 C   0  0  0  0  0  0  0  0  0  0  0  0
  -23.5840  -14.8184   20.9408 C   0  0  0  0  0  0  0  0  0  0  0  0
  -24.9256  -11.7159   20.4706 C   0  0  0  0  0  0  0  0  0  0  0  0
  -28.8638  -21.7935   24.4852 C   0  0  0  0  0  0  0  0  0  0  0  0
  -21.5971  -22.7207   21.9684 C   0  0  0  0  0  0  0  0  0  0  0  0
  -24.9259  -17.4054   18.6781 C   0  0  0  0  0  0  0  0  0  0  0  0
  -25.9665  -15.6378   20.8082 C   0  0  0  0  0  0  0  0  0  0  0  0
  -21.7839  -21.5611   22.9413 C   0  0  0  0  0  0  0  0  0  0  0  0
  -28.7100  -20.8877   20.9847 C   0  0  0  0  0  0  0  0  0  0  0  0
  -22.0753  -20.2803   22.1737 C   0  0  0  0  0  0  0  0  0  0  0  0
  -28.5638  -22.2586   20.3219 C   0  0  0  0  0  0  0  0  0  0  0  0
  -27.9346  -20.8227   22.2973 C   0  0  0  0  0  0  0  0  0  0  0  0
  -28.1477  -23.2570   22.6176 C   0  0  0  0  0  0  0  0  0  0  0  0
  -23.3905  -20.3988   21.3931 C   0  0  1  0  0  0  0  0  0  0  0  0
  -24.0653  -16.9870   19.8662 C   0  0  1  0  0  0  0  0  0  0  0  0
  -28.9271  -23.3941   21.2971 C   0  0  2  0  0  0  0  0  0  0  0  0
  -33.1240  -15.8842   21.9078 C   0  0  0  0  0  0  0  0  0  0  0  0
  -33.3694  -20.8202   23.1801 C   0  0  0  0  0  0  0  0  0  0  0  0
  -24.3381   -9.2785   20.5788 C   0  0  0  0  0  0  0  0  0  0  0  0
  -33.4583  -17.9577   26.6816 C   0  0  0  0  0  0  0  0  0  0  0  0
  -23.7183  -14.9238   23.9873 C   0  0  0  0  0  0  0  0  0  0  0  0
  -24.0824  -12.4468   23.9874 C   0  0  0  0  0  0  0  0  0  0  0  0
  -21.9638  -13.3942   23.0727 C   0  0  0  0  0  0  0  0  0  0  0  0
  -32.9617  -20.5902   20.2285 C   0  0  0  0  0  0  0  0  0  0  0  0
  -25.5146  -11.3272   17.5964 C   0  0  0  0  0  0  0  0  0  0  0  0
  -32.7935  -17.7368   19.2939 C   0  0  0  0  0  0  0  0  0  0  0  0
  -31.0559  -20.0398   26.2593 C   0  0  0  0  0  0  0  0  0  0  0  0
  -31.5171  -18.8813   25.3641 C   0  0  0  0  0  0  0  0  0  0  0  0
  -29.5390  -20.2040   26.2669 C   0  0  0  0  0  0  0  0  0  0  0  0
  -31.3448  -17.8958   18.8456 C   0  0  0  0  0  0  0  0  0  1  0  0
  -24.1103  -13.6686   21.7654 C   0  0  1  0  0  0  0  0  0  0  0  0
  -24.4287  -10.5109   19.6924 C   0  0  2  0  0  0  0  0  0  0  0  0
  -33.0383  -18.6785   25.4046 C   0  0  2  0  0  0  0  0  0  0  0  0
  -23.4862  -13.6255   23.1888 C   0  0  0  0  0  0  0  0  0  0  0  0
  -27.5606  -25.3921   20.8250 N   0  0  0  0  0  0  0  0  0  0  0  0
  -33.0673  -19.4531   21.1187 N   0  0  0  0  0  0  0  0  0  0  0  0
  -28.7360  -24.7604   20.6653 N   0  0  0  0  0  0  0  0  0  0  0  0
  -24.5324  -15.7496   20.4946 N   0  0  0  0  0  0  0  0  0  0  0  0
  -28.3408  -21.9194   23.1875 N   0  0  0  0  0  0  0  0  0  0  0  0
  -30.8738  -24.9722   19.6674 N   0  0  0  0  0  0  0  0  0  0  0  0
  -28.8044  -28.8201   18.5239 N   0  0  0  0  0  0  0  0  0  0  0  0
  -33.4741  -17.8846   24.2551 N   0  0  0  0  0  0  0  0  0  0  0  0
  -23.5256  -19.2542   20.5193 N   0  0  0  0  0  0  0  0  0  0  0  0
  -23.8828  -12.4627   20.9764 N   0  0  0  0  0  0  0  0  0  0  0  0
  -29.0087  -20.4932   24.9531 N   0  0  0  0  0  0  0  0  0  0  0  0
  -25.3502  -10.2092   18.5607 N   0  3  0  0  0  0  0  0  0  0  0  0
  -30.7478  -27.6196   18.3213 O   0  0  0  0  0  0  0  0  0  0  0  0
  -24.3905  -17.7536   22.0757 O   0  0  0  0  0  0  0  0  0  0  0  0
  -22.3769  -14.8838   20.6955 O   0  0  0  0  0  0  0  0  0  0  0  0
  -26.1196  -11.9672   20.6183 O   0  0  0  0  0  0  0  0  0  0  0  0
  -29.1832  -22.7682   25.1744 O   0  0  0  0  0  0  0  0  0  0  0  0
  -23.6171  -30.3071   19.9080 O   0  0  0  0  0  0  0  0  0  0  0  0
  -30.4953  -17.0955   19.6667 O   0  0  0  0  0  0  0  0  0  1  0  0
  -20.9239  -31.4693   24.5771 F   0  0  0  0  0  0  0  0  0  0  0  0
  -22.2580  -28.3357   21.2898 F   0  0  0  0  0  0  0  0  0  0  0  0
  1  2  1  0  0  0  0
  1  5  2  0  0  0  0
  2  6  2  0  0  0  0
  3  8  2  0  0  0  0
  3 15  1  0  0  0  0
  4  9  1  0  0  0  0
  4 15  2  0  0  0  0
  5 17  1  0  0  0  0
  6 19  1  0  0  0  0
  7 10  2  0  0  0  0
  7 18  1  0  0  0  0
  8 23  1  0  0  0  0
  9 23  2  0  0  0  0
 10 24  1  0  0  0  0
 11 12  2  0  0  0  0
 11 25  1  0  0  0  0
 12 26  1  0  0  0  0
 13 20  1  0  0  0  0
 13 24  2  0  0  0  0
 14 26  2  0  0  0  0
 14 27  1  0  0  0  0
 15 28  1  0  0  0  0
 16 28  1  0  0  0  0
 16 31  2  0  0  0  0
 16 32  1  0  0  0  0
 17 19  2  0  0  0  0
 17 37  1  0  0  0  0
 18 20  2  0  0  0  0
 18 38  1  0  0  0  0
 19 46  1  0  0  0  0
 20 39  1  0  0  0  0
 21 22  1  0  0  0  0
 21 29  2  0  0  0  0
 21 49  1  0  0  0  0
 22 30  2  0  0  0  0
 22 74  1  0  0  0  0
 23 84  1  0  0  0  0
 24 85  1  0  0  0  0
 25 27  2  0  0  0  0
 25 84  1  0  0  0  0
 26 86  1  0  0  0  0
 27 87  1  0  0  0  0
 28 67  2  0  0  0  0
 29 58  1  0  0  0  0
 29 68  1  0  0  0  0
 30 50  1  0  0  0  0
 30 68  1  0  0  0  0
 31 69  1  0  0  0  0
 31 72  1  0  0  0  0
 32 73  1  0  0  0  0
 32 79  2  0  0  0  0
 33 47  1  0  0  0  0
 33 75  1  0  0  0  0
 33 80  2  0  0  0  0
 34 63  1  0  0  0  0
 34 70  1  0  0  0  0
 34 81  2  0  0  0  0
 35 64  1  0  0  0  0
 35 76  1  0  0  0  0
 35 82  2  0  0  0  0
 36 71  1  0  0  0  0
 36 77  1  0  0  0  0
 36 83  2  0  0  0  0
 37 40  1  0  0  0  0
 38 47  1  0  0  0  0
 39 70  1  0  0  0  0
 40 42  1  0  0  0  0
 41 43  1  0  0  0  0
 41 44  1  0  0  0  0
 42 46  1  0  0  0  0
 43 48  1  0  0  0  0
 44 71  1  0  0  0  0
 45 48  1  0  0  0  0
 45 71  1  0  0  0  0
 46 75  1  0  0  0  0
 47 70  1  0  0  0  0
 48 69  1  0  0  0  0
 51 64  1  0  0  0  0
 52 65  1  0  0  0  0
 53 66  1  0  0  0  0
 54 66  1  0  0  0  0
 55 66  1  0  0  0  0
 56 68  1  0  0  0  0
 57 78  1  0  0  0  0
 58 62  1  0  0  0  0
 59 60  1  0  0  0  0
 59 61  1  0  0  0  0
 60 65  1  0  0  0  0
 61 77  1  0  0  0  0
 62 85  1  0  0  0  0
 63 66  1  0  0  0  0
 63 76  1  0  0  0  0
 64 78  1  0  0  0  0
 65 74  1  0  0  0  0
 67 69  1  0  0  0  0
M  CHG  1  78   1
M  ISO  4  36 100  62 101  77 100  85 101
M  END
> <Batch ID>
0026

> <Smiles>
CNC(C)C(=O)NC(C(=O)N1Cc2cc([101O:1][101CH2:1]Cc3c(C)c(NC(C)CCC[100NH:0][100C:0](=O)N4CCCC(n5nc(-c6ccc(Oc7ccc(F)cc7F)cc6)c(C(N)=O)c5N)C4)c(C)n3C)ccc2CC1C(=O)NC1CCCc2ccccc21)C(C)(C)C

> <Shape>
0.190

> <Color>
0.081

> <Negative vol penalty>
0.000

$$$$

  -OEChem-04052316273D

 93102  0     1  0  0  0  0  0999 V2000
  -30.3609  -29.4066   13.9004 C   0  0  0  0  0  0  0  0  0  0  0  0
  -29.2729  -29.6499   14.7325 C   0  0  0  0  0  0  0  0  0  0  0  0
  -23.1387   -9.7376   20.0229 C   0  0  0  0  0  0  0  0  0  0  0  0
  -23.8351   -9.9124   22.3297 C   0  0  0  0  0  0  0  0  0  0  0  0
  -31.2756  -28.4059   14.2256 C   0  0  0  0  0  0  0  0  0  0  0  0
  -29.0984  -28.8919   15.8898 C   0  0  0  0  0  0  0  0  0  0  0  0
  -26.5985  -29.4156   22.5826 C   0  0  0  0  0  0  0  0  0  0  0  0
  -22.4206   -8.5812   20.3272 C   0  0  0  0  0  0  0  0  0  0  0  0
  -23.1170   -8.7560   22.6341 C   0  0  0  0  0  0  0  0  0  0  0  0
  -25.7146  -28.7819   23.4548 C   0  0  0  0  0  0  0  0  0  0  0  0
  -19.8970   -7.9032   23.2041 C   0  0  0  0  0  0  0  0  0  0  0  0
  -19.1097   -7.9153   24.3554 C   0  0  0  0  0  0  0  0  0  0  0  0
  -27.4020  -27.1327   23.9570 C   0  0  0  0  0  0  0  0  0  0  0  0
  -29.1141  -19.0630   21.8424 C   0  0  0  0  0  0  0  0  0  0  0  0
  -20.3839   -6.0659   25.2461 C   0  0  0  0  0  0  0  0  0  0  0  0
  -23.8460  -10.4032   21.0241 C   0  0  0  0  0  0  0  0  0  0  0  0
  -24.1207  -12.9246   20.7510 C   0  0  0  0  0  0  0  0  0  0  0  0
  -31.1176  -27.6417   15.3925 C   0  0  0  0  0  0  0  0  0  0  0  0
  -27.8893  -28.9055   22.3824 C   0  0  0  0  0  0  0  0  0  0  0  0
  -30.0112  -27.8792   16.2302 C   0  0  0  0  0  0  0  0  0  0  0  0
  -28.3012  -27.7633   23.0836 C   0  0  0  0  0  0  0  0  0  0  0  0
  -29.7039  -17.9902   22.5015 C   0  0  0  0  0  0  0  0  0  0  0  0
  -22.4097   -8.0904   21.6329 C   0  0  0  0  0  0  0  0  0  0  0  0
  -26.1153  -27.6386   24.1400 C   0  0  0  0  0  0  0  0  0  0  0  0
  -20.9277   -6.9724   23.0736 C   0  0  0  0  0  0  0  0  0  0  0  0
  -19.3532   -6.9967   25.3764 C   0  0  0  0  0  0  0  0  0  0  0  0
  -21.1711   -6.0538   24.0947 C   0  0  0  0  0  0  0  0  0  0  0  0
  -29.4311  -17.7733   23.8476 C   0  0  0  0  0  0  0  0  0  0  0  0
  -24.5884  -11.5975   20.7102 C   0  0  0  0  0  0  0  0  0  0  0  0
  -28.5684  -18.6511   24.4841 C   0  0  0  0  0  0  0  0  0  0  0  0
  -28.2655  -19.8829   22.5686 C   0  0  0  0  0  0  0  0  0  0  0  0
  -25.2011  -13.6814   20.3684 C   0  0  0  0  0  0  0  0  0  0  0  0
  -22.8253  -13.4283   21.1034 C   0  0  0  0  0  0  0  0  0  0  0  0
  -29.4839  -27.7543   19.8853 C   0  0  0  0  0  0  0  0  0  0  0  0
  -31.9623  -27.7204   21.9778 C   0  0  0  0  0  0  0  0  0  0  0  0
  -33.0128  -27.6170   25.2232 C   0  0  0  0  0  0  0  0  0  0  0  0
  -30.6472  -14.8716   20.6308 C   0  0  0  0  0  0  0  0  0  0  0  0
  -32.1064  -26.5392   15.6777 C   0  0  0  0  0  0  0  0  0  0  0  0
  -28.8399  -29.6161   21.4584 C   0  0  0  0  0  0  0  0  0  0  0  0
  -29.6831  -27.1873   22.9193 C   0  0  0  0  0  0  0  0  0  0  0  0
  -32.0552  -26.0323   17.1167 C   0  0  0  0  0  0  0  0  0  0  0  0
  -29.6420  -12.3080   18.3737 C   0  0  0  0  0  0  0  0  0  0  0  0
  -30.6115  -25.7934   17.5474 C   0  0  0  0  0  0  0  0  0  0  0  0
  -28.2019  -12.0001   18.7878 C   0  0  0  0  0  0  0  0  0  0  0  0
  -26.7523  -23.1988   21.7419 C   0  0  0  0  0  0  0  0  0  0  0  0
  -25.3821  -21.2760   22.6550 C   0  0  0  0  0  0  0  0  0  0  0  0
  -25.7640  -24.1919   22.3506 C   0  0  0  0  0  0  0  0  0  0  0  0
  -24.3945  -22.2693   23.2648 C   0  0  0  0  0  0  0  0  0  0  0  0
  -30.5194  -12.6315   19.5809 C   0  0  0  0  0  0  0  0  0  0  0  0
  -28.5609  -13.3927   20.8688 C   0  0  0  0  0  0  0  0  0  0  0  0
  -29.8013  -27.0947   17.5072 C   0  0  1  0  0  0  0  0  0  0  0  0
  -29.9560  -28.7143   20.9404 C   0  0  1  0  0  0  0  0  0  0  0  0
  -27.6245  -13.1151   19.6803 C   0  0  2  0  0  0  0  0  0  0  0  0
  -26.7826  -21.8820   22.5229 C   0  0  0  0  0  0  0  0  0  0  0  0
  -24.3731  -23.5746   22.4733 C   0  0  0  0  0  0  0  0  0  0  0  0
  -27.2131  -17.3651   26.1561 C   0  0  0  0  0  0  0  0  0  0  0  0
  -35.0982  -27.5630   26.6180 C   0  0  0  0  0  0  0  0  0  0  0  0
  -32.3568  -24.7788   21.2697 C   0  0  0  0  0  0  0  0  0  0  0  0
  -33.7697  -24.5459   23.3234 C   0  0  0  0  0  0  0  0  0  0  0  0
  -34.4741  -26.0905   21.4956 C   0  0  0  0  0  0  0  0  0  0  0  0
  -32.3248  -30.1670   26.5586 C   0  0  0  0  0  0  0  0  0  0  0  0
  -22.0337  -24.3062   22.7894 C   0  0  0  0  0  0  0  0  0  0  0  0
  -30.6194  -17.0973   21.7284 C   0  0  0  0  0  0  0  0  0  0  0  0
  -28.2250  -18.4835   25.9291 C   0  0  0  0  0  0  0  0  0  0  0  0
  -23.1611  -25.8690   25.2209 C   0  0  0  0  0  0  0  0  0  0  0  0
  -23.6904  -24.5712   24.6294 C   0  0  0  0  0  0  0  0  0  0  0  0
  -23.8623  -27.1144   24.6925 C   0  0  0  0  0  0  0  0  0  1  0  0
  -32.5150  -26.7203   22.9644 C   0  0  1  0  0  0  0  0  0  0  0  0
  -34.0379  -28.4449   25.9770 C   0  0  2  0  0  0  0  0  0  0  0  0
  -33.2522  -25.5433   22.2651 C   0  0  0  0  0  0  0  0  0  0  0  0
  -25.8664  -11.5127   20.3313 N   0  0  0  0  0  0  0  0  0  0  0  0
  -27.9765  -19.7041   23.8771 N   0  0  0  0  0  0  0  0  0  0  0  0
  -26.2109  -12.7961   20.1305 N   0  0  0  0  0  0  0  0  0  0  0  0
  -30.5739  -27.9143   21.9998 N   0  0  0  0  0  0  0  0  0  0  0  0
  -29.9165  -13.6975   20.3848 N   0  0  0  0  0  0  0  0  0  0  0  0
  -25.3763  -15.0112   20.2155 N   0  0  0  0  0  0  0  0  0  0  0  0
  -21.8302  -12.5129   21.4724 N   0  0  0  0  0  0  0  0  0  0  0  0
  -27.6869  -20.9459   21.9000 N   0  0  0  0  0  0  0  0  0  0  0  0
  -30.1041  -27.9144   18.6609 N   0  0  0  0  0  0  0  0  0  0  0  0
  -33.3464  -27.4790   23.8925 N   0  0  0  0  0  0  0  0  0  0  0  0
  -29.9997  -15.8339   21.3959 N   0  0  0  0  0  0  0  0  0  0  0  0
  -33.3750  -29.2383   27.0503 N   0  3  0  0  0  0  0  0  0  0  0  0
  -23.4776  -24.5408   23.1634 N   0  3  1  0  0  0  0  0  0  0  0  0
  -22.5535  -14.6526   21.0756 O   0  0  0  0  0  0  0  0  0  0  0  0
  -28.6220  -26.9284   20.1620 O   0  0  0  0  0  0  0  0  0  0  0  0
  -32.7349  -28.3131   21.2206 O   0  0  0  0  0  0  0  0  0  0  0  0
  -32.0176  -27.1374   25.7619 O   0  0  0  0  0  0  0  0  0  0  0  0
  -31.7898  -15.0514   20.1960 O   0  0  0  0  0  0  0  0  0  0  0  0
  -21.7089   -6.9622   21.9303 O   0  0  0  0  0  0  0  0  0  0  0  0
  -25.2542  -27.0177   24.9915 O   0  0  0  0  0  0  0  0  0  1  0  0
  -18.5980   -7.0094   26.4827 F   0  0  0  0  0  0  0  0  0  0  0  0
  -22.1606   -5.1579   23.9756 F   0  0  0  0  0  0  0  0  0  0  0  0
  -30.1427  -16.4475   24.6925 Cl  0  0  0  0  0  0  0  0  0  0  0  0
  1  2  1  0  0  0  0
  1  5  2  0  0  0  0
  2  6  2  0  0  0  0
  3  8  2  0  0  0  0
  3 16  1  0  0  0  0
  4  9  1  0  0  0  0
  4 16  2  0  0  0  0
  5 18  1  0  0  0  0
  6 20  1  0  0  0  0
  7 10  2  0  0  0  0
  7 19  1  0  0  0  0
  8 23  1  0  0  0  0
  9 23  2  0  0  0  0
 10 24  1  0  0  0  0
 11 12  2  0  0  0  0
 11 25  1  0  0  0  0
 12 26  1  0  0  0  0
 13 21  1  0  0  0  0
 13 24  2  0  0  0  0
 14 22  2  0  0  0  0
 14 31  1  0  0  0  0
 15 26  2  0  0  0  0
 15 27  1  0  0  0  0
 16 29  1  0  0  0  0
 17 29  1  0  0  0  0
 17 32  2  0  0  0  0
 17 33  1  0  0  0  0
 18 20  2  0  0  0  0
 18 38  1  0  0  0  0
 19 21  2  0  0  0  0
 19 39  1  0  0  0  0
 20 51  1  0  0  0  0
 21 40  1  0  0  0  0
 22 28  1  0  0  0  0
 22 63  1  0  0  0  0
 23 89  1  0  0  0  0
 24 90  1  0  0  0  0
 25 27  2  0  0  0  0
 25 89  1  0  0  0  0
 26 91  1  0  0  0  0
 27 92  1  0  0  0  0
 28 30  2  0  0  0  0
 28 93  1  0  0  0  0
 29 71  2  0  0  0  0
 30 64  1  0  0  0  0
 30 72  1  0  0  0  0
 31 72  2  0  0  0  0
 31 78  1  0  0  0  0
 32 73  1  0  0  0  0
 32 76  1  0  0  0  0
 33 77  1  0  0  0  0
 33 84  2  0  0  0  0
 34 52  1  0  0  0  0
 34 79  1  0  0  0  0
 34 85  2  0  0  0  0
 35 68  1  0  0  0  0
 35 74  1  0  0  0  0
 35 86  2  0  0  0  0
 36 69  1  0  0  0  0
 36 80  1  0  0  0  0
 36 87  2  0  0  0  0
 37 75  1  0  0  0  0
 37 81  1  0  0  0  0
 37 88  2  0  0  0  0
 38 41  1  0  0  0  0
 39 52  1  0  0  0  0
 40 74  1  0  0  0  0
 41 43  1  0  0  0  0
 42 44  1  0  0  0  0
 42 49  1  0  0  0  0
 43 51  1  0  0  0  0
 44 53  1  0  0  0  0
 45 47  1  0  0  0  0
 45 54  1  0  0  0  0
 46 48  1  0  0  0  0
 46 54  1  0  0  0  0
 47 55  1  0  0  0  0
 48 55  1  0  0  0  0
 49 75  1  0  0  0  0
 50 53  1  0  0  0  0
 50 75  1  0  0  0  0
 51 79  1  0  0  0  0
 52 74  1  0  0  0  0
 53 73  1  0  0  0  0
 54 78  1  0  0  0  0
 55 83  1  0  0  0  0
 56 64  1  0  0  0  0
 57 69  1  0  0  0  0
 58 70  1  0  0  0  0
 59 70  1  0  0  0  0
 60 70  1  0  0  0  0
 61 82  1  0  0  0  0
 62 83  1  0  0  0  0
 63 81  1  0  0  0  0
 65 66  1  0  0  0  0
 65 67  1  0  0  0  0
 66 83  1  0  0  0  0
 67 90  1  0  0  0  0
 68 70  1  0  0  0  0
 68 80  1  0  0  0  0
 69 82  1  0  0  0  0
 71 73  1  0  0  0  0
M  CHG  2  82   1  83   1
M  ISO  4  37 100  67 101  81 100  90 101
M  END
> <Batch ID>
0026

> <Smiles>
CCc1nc(NC2CCC(N(C)CC[101CH2:1][101O:1]c3ccc4c(c3)CN(C(=O)C(NC(=O)C(C)NC)C(C)(C)C)C(C(=O)NC3CCCc5ccccc53)C4)CC2)cc(C[100NH:0][100C:0](=O)N2CCCC(n3nc(-c4ccc(Oc5ccc(F)cc5F)cc4)c(C(N)=O)c3N)C2)c1Cl

> <Shape>
0.219

> <Color>
0.193

> <Negative vol penalty>
0.000

$$$$

  -OEChem-04052316273D

 91 99  0     1  0  0  0  0  0999 V2000
  -20.4409  -17.6159   16.6935 C   0  0  0  0  0  0  0  0  0  0  0  0
  -21.2810  -17.7923   17.7883 C   0  0  0  0  0  0  0  0  0  0  0  0
  -23.2968   -9.7942   19.9169 C   0  0  0  0  0  0  0  0  0  0  0  0
  -23.7342   -9.9499   22.2879 C   0  0  0  0  0  0  0  0  0  0  0  0
  -20.1675  -18.6887   15.8461 C   0  0  0  0  0  0  0  0  0  0  0  0
  -21.8490  -19.0416   18.0357 C   0  0  0  0  0  0  0  0  0  0  0  0
  -21.5850  -20.3636   22.9170 C   0  0  0  0  0  0  0  0  0  0  0  0
  -22.5724   -8.6210   20.1276 C   0  0  0  0  0  0  0  0  0  0  0  0
  -23.0098   -8.7767   22.4986 C   0  0  0  0  0  0  0  0  0  0  0  0
  -22.5069  -19.7806   23.7854 C   0  0  0  0  0  0  0  0  0  0  0  0
  -19.7640   -7.8583   22.7036 C   0  0  0  0  0  0  0  0  0  0  0  0
  -18.8559   -7.8405   23.7621 C   0  0  0  0  0  0  0  0  0  0  0  0
  -23.8477  -21.7840   23.6975 C   0  0  0  0  0  0  0  0  0  0  0  0
  -31.2096  -19.2727   26.7452 C   0  0  0  0  0  0  0  0  0  0  0  0
  -20.0611   -6.0023   24.7651 C   0  0  0  0  0  0  0  0  0  0  0  0
  -23.8778  -10.4587   20.9970 C   0  0  0  0  0  0  0  0  0  0  0  0
  -24.1316  -12.9881   20.7849 C   0  0  0  0  0  0  0  0  0  0  0  0
  -20.7248  -19.9541   16.0887 C   0  0  0  0  0  0  0  0  0  0  0  0
  -21.7935  -21.6593   22.4230 C   0  0  0  0  0  0  0  0  0  0  0  0
  -21.5839  -20.1320   17.1899 C   0  0  0  0  0  0  0  0  0  0  0  0
  -22.9257  -22.3822   22.8251 C   0  0  0  0  0  0  0  0  0  0  0  0
  -30.2197  -19.4217   29.3491 C   0  0  0  0  0  0  0  0  0  0  0  0
  -29.8797  -18.9425   27.0056 C   0  0  0  0  0  0  0  0  0  0  0  0
  -22.4289   -8.1123   21.4184 C   0  0  0  0  0  0  0  0  0  0  0  0
  -23.6399  -20.4896   24.1734 C   0  0  0  0  0  0  0  0  0  0  0  0
  -20.8207   -6.9481   22.6757 C   0  0  0  0  0  0  0  0  0  0  0  0
  -19.0044   -6.9125   24.7929 C   0  0  0  0  0  0  0  0  0  0  0  0
  -20.9692   -6.0201   23.7064 C   0  0  0  0  0  0  0  0  0  0  0  0
  -32.0446  -19.6774   27.7867 C   0  0  0  0  0  0  0  0  0  0  0  0
  -29.3847  -19.0170   28.3075 C   0  0  0  0  0  0  0  0  0  0  0  0
  -31.5496  -19.7519   29.0886 C   0  0  0  0  0  0  0  0  0  0  0  0
  -24.6267  -11.6703   20.7800 C   0  0  0  0  0  0  0  0  0  0  0  0
  -25.2324  -13.7695   20.5314 C   0  0  0  0  0  0  0  0  0  0  0  0
  -22.7961  -13.4635   20.9996 C   0  0  0  0  0  0  0  0  0  0  0  0
  -22.2105  -22.9184   19.5343 C   0  0  0  0  0  0  0  0  0  0  0  0
  -22.0750  -25.7203   21.1632 C   0  0  0  0  0  0  0  0  0  0  0  0
  -22.4656  -27.3721   24.1240 C   0  0  0  0  0  0  0  0  0  0  0  0
  -31.1010  -12.9470   21.3880 C   0  0  0  0  0  0  0  0  0  0  0  0
  -20.4377  -21.0720   15.1178 C   0  0  0  0  0  0  0  0  0  0  0  0
  -20.7761  -22.2842   21.5082 C   0  0  0  0  0  0  0  0  0  0  0  0
  -23.1855  -23.7839   22.3391 C   0  0  0  0  0  0  0  0  0  0  0  0
  -20.7810  -22.4558   15.6633 C   0  0  0  0  0  0  0  0  0  0  0  0
  -29.4670  -13.6639   18.3070 C   0  0  0  0  0  0  0  0  0  0  0  0
  -22.1595  -22.4453   16.3163 C   0  0  0  0  0  0  0  0  0  0  0  0
  -27.9965  -13.3532   18.5919 C   0  0  0  0  0  0  0  0  0  0  0  0
  -30.3989  -12.6912   19.0262 C   0  0  0  0  0  0  0  0  0  0  0  0
  -28.7039  -12.2676   20.7644 C   0  0  0  0  0  0  0  0  0  0  0  0
  -22.1993  -21.4780   17.5055 C   0  0  1  0  0  0  0  0  0  0  0  0
  -21.3496  -23.4158   20.6609 C   0  0  1  0  0  0  0  0  0  0  0  0
  -27.7269  -13.2563   20.1055 C   0  0  2  0  0  0  0  0  0  0  0  0
  -29.6847  -19.5009   30.7478 C   0  0  0  0  0  0  0  0  0  0  0  0
  -22.3202  -29.6642   25.1350 C   0  0  0  0  0  0  0  0  0  0  0  0
  -28.7689  -19.4819   23.7293 C   0  0  0  0  0  0  0  0  0  0  0  0
  -24.7368  -26.4583   19.8669 C   0  0  0  0  0  0  0  0  0  0  0  0
  -24.9984  -28.2553   21.5905 C   0  0  0  0  0  0  0  0  0  0  0  0
  -23.0835  -28.3305   19.9936 C   0  0  0  0  0  0  0  0  0  0  0  0
  -20.3372  -26.5351   26.0024 C   0  0  0  0  0  0  0  0  0  0  0  0
  -30.2862  -15.1295   24.6877 C   0  0  0  0  0  0  0  0  0  0  0  0
  -31.6531  -14.6512   24.1876 C   0  0  0  0  0  0  0  0  0  0  0  0
  -30.3400  -16.5966   25.1267 C   0  0  0  0  0  0  0  0  0  0  0  0
  -26.8037  -19.1595   25.2719 C   0  0  0  0  0  0  0  0  0  0  0  0
  -31.6491  -13.1763   23.7976 C   0  0  0  0  0  0  0  0  0  0  0  0
  -28.9799  -17.1282   25.5707 C   0  0  0  0  0  0  0  0  0  0  0  0
  -25.9030  -20.3286   24.8862 C   0  0  0  0  0  0  0  0  0  1  0  0
  -23.0857  -26.6099   21.8460 C   0  0  1  0  0  0  0  0  0  0  0  0
  -21.5773  -28.3691   24.8460 C   0  0  2  0  0  0  0  0  0  0  0  0
  -28.2944  -19.5000   25.1790 C   0  0  1  0  0  0  0  0  0  0  0  0
  -23.9725  -27.3864   20.8321 C   0  0  0  0  0  0  0  0  0  0  0  0
  -25.9398  -11.6137   20.5420 N   0  0  0  0  0  0  0  0  0  0  0  0
  -26.2791  -12.9058   20.3949 N   0  0  0  0  0  0  0  0  0  0  0  0
  -22.1647  -24.3490   21.4412 N   0  0  0  0  0  0  0  0  0  0  0  0
  -30.0919  -12.6474   20.4579 N   0  0  0  0  0  0  0  0  0  0  0  0
  -25.3974  -15.1041   20.4140 N   0  0  0  0  0  0  0  0  0  0  0  0
  -21.7846  -12.5254   21.2471 N   0  0  0  0  0  0  0  0  0  0  0  0
  -21.5583  -22.0700   18.6601 N   0  0  0  0  0  0  0  0  0  0  0  0
  -22.3292  -27.4643   22.7550 N   0  0  0  0  0  0  0  0  0  0  0  0
  -30.7242  -12.8883   22.7242 N   0  0  0  0  0  0  0  0  0  0  0  0
  -29.0700  -18.5404   25.9371 N   0  0  3  0  0  0  0  0  0  0  0  0
  -21.1045  -27.7998   26.1395 N   0  3  0  0  0  0  0  0  0  0  0  0
  -22.5052  -14.6830   20.9566 O   0  0  0  0  0  0  0  0  0  0  0  0
  -23.3794  -23.2790   19.4626 O   0  0  0  0  0  0  0  0  0  0  0  0
  -21.2325  -26.2244   20.4165 O   0  0  0  0  0  0  0  0  0  0  0  0
  -23.2091  -26.5922   24.7152 O   0  0  0  0  0  0  0  0  0  0  0  0
  -32.2510  -13.2498   21.0524 O   0  0  0  0  0  0  0  0  0  0  0  0
  -21.7219   -6.9676   21.6244 O   0  0  0  0  0  0  0  0  0  0  0  0
  -24.5416  -19.9226   25.0204 O   0  0  0  0  0  0  0  0  0  1  0  0
  -18.1332   -6.8965   25.8102 F   0  0  0  0  0  0  0  0  0  0  0  0
  -21.9830   -5.1440   23.6857 F   0  0  0  0  0  0  0  0  0  0  0  0
  -33.6821  -20.0717   27.3913 Cl  0  0  0  0  0  0  0  0  0  0  0  0
  -27.7303  -18.6059   28.6292 Cl  0  0  0  0  0  0  0  0  0  0  0  0
  -32.5751  -20.2537   30.3968 Cl  0  0  0  0  0  0  0  0  0  0  0  0
  1  2  1  0  0  0  0
  1  5  2  0  0  0  0
  2  6  2  0  0  0  0
  3  8  2  0  0  0  0
  3 16  1  0  0  0  0
  4  9  1  0  0  0  0
  4 16  2  0  0  0  0
  5 18  1  0  0  0  0
  6 20  1  0  0  0  0
  7 10  2  0  0  0  0
  7 19  1  0  0  0  0
  8 24  1  0  0  0  0
  9 24  2  0  0  0  0
 10 25  1  0  0  0  0
 11 12  2  0  0  0  0
 11 26  1  0  0  0  0
 12 27  1  0  0  0  0
 13 21  1  0  0  0  0
 13 25  2  0  0  0  0
 14 23  1  0  0  0  0
 14 29  2  0  0  0  0
 15 27  2  0  0  0  0
 15 28  1  0  0  0  0
 16 32  1  0  0  0  0
 17 32  1  0  0  0  0
 17 33  2  0  0  0  0
 17 34  1  0  0  0  0
 18 20  2  0  0  0  0
 18 39  1  0  0  0  0
 19 21  2  0  0  0  0
 19 40  1  0  0  0  0
 20 48  1  0  0  0  0
 21 41  1  0  0  0  0
 22 30  1  0  0  0  0
 22 31  2  0  0  0  0
 22 51  1  0  0  0  0
 23 30  2  0  0  0  0
 23 78  1  0  0  0  0
 24 85  1  0  0  0  0
 25 86  1  0  0  0  0
 26 28  2  0  0  0  0
 26 85  1  0  0  0  0
 27 87  1  0  0  0  0
 28 88  1  0  0  0  0
 29 31  1  0  0  0  0
 29 89  1  0  0  0  0
 30 90  1  0  0  0  0
 31 91  1  0  0  0  0
 32 69  2  0  0  0  0
 33 70  1  0  0  0  0
 33 73  1  0  0  0  0
 34 74  1  0  0  0  0
 34 80  2  0  0  0  0
 35 49  1  0  0  0  0
 35 75  1  0  0  0  0
 35 81  2  0  0  0  0
 36 65  1  0  0  0  0
 36 71  1  0  0  0  0
 36 82  2  0  0  0  0
 37 66  1  0  0  0  0
 37 76  1  0  0  0  0
 37 83  2  0  0  0  0
 38 72  1  0  0  0  0
 38 77  1  0  0  0  0
 38 84  2  0  0  0  0
 39 42  1  0  0  0  0
 40 49  1  0  0  0  0
 41 71  1  0  0  0  0
 42 44  1  0  0  0  0
 43 45  1  0  0  0  0
 43 46  1  0  0  0  0
 44 48  1  0  0  0  0
 45 50  1  0  0  0  0
 46 72  1  0  0  0  0
 47 50  1  0  0  0  0
 47 72  1  0  0  0  0
 48 75  1  0  0  0  0
 49 71  1  0  0  0  0
 50 70  1  0  0  0  0
 52 66  1  0  0  0  0
 53 67  1  0  0  0  0
 54 68  1  0  0  0  0
 55 68  1  0  0  0  0
 56 68  1  0  0  0  0
 57 79  1  0  0  0  0
 58 59  1  0  0  0  0
 58 60  1  0  0  0  0
 59 62  1  0  0  0  0
 60 63  1  0  0  0  0
 61 64  1  0  0  0  0
 61 67  1  0  0  0  0
 62 77  1  0  0  0  0
 63 78  1  0  0  0  0
 64 86  1  0  0  0  0
 65 68  1  0  0  0  0
 65 76  1  0  0  0  0
 66 79  1  0  0  0  0
 67 78  1  0  0  0  0
 69 70  1  0  0  0  0
M  CHG  1  79   1
M  ISO  4  38 100  64 101  77 100  86 101
M  END
> <Batch ID>
0026

> <Smiles>
CNC(C)C(=O)NC(C(=O)N1Cc2cc([101O:1][101CH2:1]CC(C)N(CCCCC[100NH:0][100C:0](=O)N3CCCC(n4nc(-c5ccc(Oc6ccc(F)cc6F)cc5)c(C(N)=O)c4N)C3)c3cc(Cl)c(Cl)c(C)c3Cl)ccc2CC1C(=O)NC1CCCc2ccccc21)C(C)(C)C

> <Shape>
0.160

> <Color>
0.182

> <Negative vol penalty>
0.000

$$$$

  -OEChem-04052316273D

 93102  0     1  0  0  0  0  0999 V2000
  -32.3453  -14.2557   20.9833 C   0  0  0  0  0  0  0  0  0  0  0  0
  -31.4804  -15.2852   21.3403 C   0  0  0  0  0  0  0  0  0  0  0  0
  -28.5758  -27.5452   18.8673 C   0  0  0  0  0  0  0  0  0  0  0  0
  -27.8319  -26.2688   20.7789 C   0  0  0  0  0  0  0  0  0  0  0  0
  -31.8662  -13.1628   20.2622 C   0  0  0  0  0  0  0  0  0  0  0  0
  -30.1360  -15.2230   20.9754 C   0  0  0  0  0  0  0  0  0  0  0  0
  -27.0327  -16.5030   24.7669 C   0  0  0  0  0  0  0  0  0  0  0  0
  -29.6811  -26.7045   18.7360 C   0  0  0  0  0  0  0  0  0  0  0  0
  -28.9371  -25.4280   20.6476 C   0  0  0  0  0  0  0  0  0  0  0  0
  -26.8881  -17.8625   25.0400 C   0  0  0  0  0  0  0  0  0  0  0  0
  -31.3708  -22.7276   20.5961 C   0  0  0  0  0  0  0  0  0  0  0  0
  -31.1570  -21.3531   20.6994 C   0  0  0  0  0  0  0  0  0  0  0  0
  -24.8059  -17.8797   23.8221 C   0  0  0  0  0  0  0  0  0  0  0  0
  -24.5098  -29.5922   28.3590 C   0  0  0  0  0  0  0  0  0  0  0  0
  -22.8155  -27.8476   26.9921 C   0  0  0  0  0  0  0  0  0  0  0  0
  -29.6535  -21.4451   18.8104 C   0  0  0  0  0  0  0  0  0  0  0  0
  -27.6512  -27.3274   19.8887 C   0  0  0  0  0  0  0  0  0  0  0  0
  -25.2449  -28.0376   19.4276 C   0  0  0  0  0  0  0  0  0  0  0  0
  -30.5132  -13.0825   19.8966 C   0  0  0  0  0  0  0  0  0  0  0  0
  -26.0687  -15.8229   24.0088 C   0  0  0  0  0  0  0  0  0  0  0  0
  -29.6386  -14.1286   20.2476 C   0  0  0  0  0  0  0  0  0  0  0  0
  -24.9393  -16.5109   23.5429 C   0  0  0  0  0  0  0  0  0  0  0  0
  -24.3027  -28.3000   28.8417 C   0  0  0  0  0  0  0  0  0  0  0  0
  -23.8697  -30.0121   27.1930 C   0  0  0  0  0  0  0  0  0  0  0  0
  -23.4556  -27.4277   28.1582 C   0  0  0  0  0  0  0  0  0  0  0  0
  -25.8339  -22.5920   26.9274 C   0  0  0  0  0  0  0  0  0  0  0  0
  -25.6670  -23.9576   26.5895 C   0  0  0  0  0  0  0  0  0  0  0  0
  -29.8617  -25.6459   19.6261 C   0  0  0  0  0  0  0  0  0  0  0  0
  -25.7761  -18.5517   24.5652 C   0  0  0  0  0  0  0  0  0  0  0  0
  -30.7260  -23.4608   19.6000 C   0  0  0  0  0  0  0  0  0  0  0  0
  -30.2984  -20.7118   19.8065 C   0  0  0  0  0  0  0  0  0  0  0  0
  -29.8674  -22.8196   18.7071 C   0  0  0  0  0  0  0  0  0  0  0  0
  -23.0226  -29.1398   26.5095 C   0  0  0  0  0  0  0  0  0  0  0  0
  -26.5096  -28.1959   20.0252 C   0  0  0  0  0  0  0  0  0  0  0  0
  -26.3083  -21.9460   25.8071 C   0  0  0  0  0  0  0  0  0  0  0  0
  -26.0444  -24.1047   25.2729 C   0  0  0  0  0  0  0  0  0  0  0  0
  -24.5196  -29.1178   19.8676 C   0  0  0  0  0  0  0  0  0  0  0  0
  -24.7682  -27.0064   18.5529 C   0  0  0  0  0  0  0  0  0  0  0  0
  -26.0798  -14.2801   21.2297 C   0  0  0  0  0  0  0  0  0  0  0  0
  -23.0386  -13.5336   22.0761 C   0  0  0  0  0  0  0  0  0  0  0  0
  -20.2628  -14.3197   23.8993 C   0  0  0  0  0  0  0  0  0  0  0  0
  -24.9457  -32.6165   24.7079 C   0  0  0  0  0  0  0  0  0  0  0  0
  -30.0516  -11.9040   19.0764 C   0  0  0  0  0  0  0  0  0  0  0  0
  -26.2259  -14.3504   23.7456 C   0  0  0  0  0  0  0  0  0  0  0  0
  -23.8658  -15.8223   22.7418 C   0  0  0  0  0  0  0  0  0  0  0  0
  -28.5346  -11.7352   19.0527 C   0  0  0  0  0  0  0  0  0  0  0  0
  -25.0507  -33.6509   21.3027 C   0  0  0  0  0  0  0  0  0  0  0  0
  -27.8527  -13.0730   18.7840 C   0  0  0  0  0  0  0  0  0  0  0  0
  -25.3224  -32.3559   20.5352 C   0  0  0  0  0  0  0  0  0  0  0  0
  -25.7916  -33.6818   22.6377 C   0  0  0  0  0  0  0  0  0  0  0  0
  -25.8227  -31.2196   22.7392 C   0  0  0  0  0  0  0  0  0  0  0  0
  -28.1684  -14.0855   19.8916 C   0  0  1  0  0  0  0  0  0  0  0  0
  -25.4407  -13.8739   22.5275 C   0  0  1  0  0  0  0  0  0  0  0  0
  -25.0527  -31.1178   21.4114 C   0  0  2  0  0  0  0  0  0  0  0  0
  -24.9964  -27.8723   30.0932 C   0  0  0  0  0  0  0  0  0  0  0  0
  -25.5531  -21.9723   28.2389 C   0  0  0  0  0  0  0  0  0  0  0  0
  -26.0667  -25.3100   24.4166 C   0  0  0  0  0  0  0  0  0  0  0  0
  -21.7404  -25.7484   28.9526 C   0  0  0  0  0  0  0  0  0  0  0  0
  -17.9205  -13.5431   24.3554 C   0  0  0  0  0  0  0  0  0  0  0  0
  -22.1481  -14.6417   19.3763 C   0  0  0  0  0  0  0  0  0  0  0  0
  -19.8071  -14.7228   20.2601 C   0  0  0  0  0  0  0  0  0  0  0  0
  -20.9924  -12.5359   20.0722 C   0  0  0  0  0  0  0  0  0  0  0  0
  -26.8988  -22.6006   23.4647 C   0  0  0  0  0  0  0  0  0  0  0  0
  -20.8322  -13.9179   26.7756 C   0  0  0  0  0  0  0  0  0  0  0  0
  -24.1179  -31.4043   26.7091 C   0  0  0  0  0  0  0  0  0  0  0  0
  -25.1758  -25.0282   27.4814 C   0  0  0  0  0  0  0  0  0  0  0  0
  -26.6599  -20.5022   25.5997 C   0  0  0  0  0  0  0  0  0  1  0  0
  -23.2139  -26.0241   28.6637 C   0  0  1  0  0  0  0  0  0  0  0  0
  -21.6852  -14.1706   21.8722 C   0  0  1  0  0  0  0  0  0  0  0  0
  -19.3745  -13.4763   24.7960 C   0  0  2  0  0  0  0  0  0  0  0  0
  -21.1792  -14.0315   20.4086 C   0  0  0  0  0  0  0  0  0  0  0  0
  -26.5868  -29.2905   20.7867 N   0  0  0  0  0  0  0  0  0  0  0  0
  -26.4321  -22.8754   24.8074 N   0  0  0  0  0  0  0  0  0  0  0  0
  -25.3614  -29.8298   20.6705 N   0  0  0  0  0  0  0  0  0  0  0  0
  -24.0680  -14.3833   22.5053 N   0  0  0  0  0  0  0  0  0  0  0  0
  -25.4916  -32.4808   23.4209 N   0  0  0  0  0  0  0  0  0  0  0  0
  -23.2504  -29.5186   19.6422 N   0  0  0  0  0  0  0  0  0  0  0  0
  -25.6445  -25.9706   18.2014 N   0  0  0  0  0  0  0  0  0  0  0  0
  -27.3702  -13.8132   21.0677 N   0  0  0  0  0  0  0  0  0  0  0  0
  -20.8005  -13.5774   22.8692 N   0  0  0  0  0  0  0  0  0  0  0  0
  -24.6855  -31.4281   25.3794 N   0  0  0  0  0  0  0  0  0  0  0  0
  -19.4607  -13.9520   26.2057 N   0  3  0  0  0  0  0  0  0  0  0  0
  -23.7015  -24.9849   27.7234 N   0  3  0  0  0  0  0  0  0  0  0  0
  -23.6050  -27.0122   18.0835 O   0  0  0  0  0  0  0  0  0  0  0  0
  -25.4483  -14.9651   20.4336 O   0  0  0  0  0  0  0  0  0  0  0  0
  -23.1757  -12.3253   21.8693 O   0  0  0  0  0  0  0  0  0  0  0  0
  -20.4571  -15.5180   24.0911 O   0  0  0  0  0  0  0  0  0  0  0  0
  -24.7029  -33.7152   25.2186 O   0  0  0  0  0  0  0  0  0  0  0  0
  -30.9400  -24.8252   19.4982 O   0  0  0  0  0  0  0  0  0  0  0  0
  -25.6328  -19.8789   24.8297 O   0  0  0  0  0  0  0  0  0  1  0  0
  -30.0943  -19.3917   19.9049 F   0  0  0  0  0  0  0  0  0  0  0  0
  -29.2460  -23.5185   17.7473 F   0  0  0  0  0  0  0  0  0  0  0  0
  -22.2134  -29.6241   25.0639 Cl  0  0  0  0  0  0  0  0  0  0  0  0
  1  2  1  0  0  0  0
  1  5  2  0  0  0  0
  2  6  2  0  0  0  0
  3  8  2  0  0  0  0
  3 17  1  0  0  0  0
  4  9  1  0  0  0  0
  4 17  2  0  0  0  0
  5 19  1  0  0  0  0
  6 21  1  0  0  0  0
  7 10  2  0  0  0  0
  7 20  1  0  0  0  0
  8 28  1  0  0  0  0
  9 28  2  0  0  0  0
 10 29  1  0  0  0  0
 11 12  2  0  0  0  0
 11 30  1  0  0  0  0
 12 31  1  0  0  0  0
 13 22  1  0  0  0  0
 13 29  2  0  0  0  0
 14 23  1  0  0  0  0
 14 24  2  0  0  0  0
 15 25  1  0  0  0  0
 15 33  2  0  0  0  0
 16 31  2  0  0  0  0
 16 32  1  0  0  0  0
 17 34  1  0  0  0  0
 18 34  1  0  0  0  0
 18 37  2  0  0  0  0
 18 38  1  0  0  0  0
 19 21  2  0  0  0  0
 19 43  1  0  0  0  0
 20 22  2  0  0  0  0
 20 44  1  0  0  0  0
 21 52  1  0  0  0  0
 22 45  1  0  0  0  0
 23 25  2  0  0  0  0
 23 55  1  0  0  0  0
 24 33  1  0  0  0  0
 24 65  1  0  0  0  0
 25 68  1  0  0  0  0
 26 27  1  0  0  0  0
 26 35  2  0  0  0  0
 26 56  1  0  0  0  0
 27 36  2  0  0  0  0
 27 66  1  0  0  0  0
 28 89  1  0  0  0  0
 29 90  1  0  0  0  0
 30 32  2  0  0  0  0
 30 89  1  0  0  0  0
 31 91  1  0  0  0  0
 32 92  1  0  0  0  0
 33 93  1  0  0  0  0
 34 72  2  0  0  0  0
 35 67  1  0  0  0  0
 35 73  1  0  0  0  0
 36 57  1  0  0  0  0
 36 73  1  0  0  0  0
 37 74  1  0  0  0  0
 37 77  1  0  0  0  0
 38 78  1  0  0  0  0
 38 84  2  0  0  0  0
 39 53  1  0  0  0  0
 39 79  1  0  0  0  0
 39 85  2  0  0  0  0
 40 69  1  0  0  0  0
 40 75  1  0  0  0  0
 40 86  2  0  0  0  0
 41 70  1  0  0  0  0
 41 80  1  0  0  0  0
 41 87  2  0  0  0  0
 42 76  1  0  0  0  0
 42 81  1  0  0  0  0
 42 88  2  0  0  0  0
 43 46  1  0  0  0  0
 44 53  1  0  0  0  0
 45 75  1  0  0  0  0
 46 48  1  0  0  0  0
 47 49  1  0  0  0  0
 47 50  1  0  0  0  0
 48 52  1  0  0  0  0
 49 54  1  0  0  0  0
 50 76  1  0  0  0  0
 51 54  1  0  0  0  0
 51 76  1  0  0  0  0
 52 79  1  0  0  0  0
 53 75  1  0  0  0  0
 54 74  1  0  0  0  0
 58 68  1  0  0  0  0
 59 70  1  0  0  0  0
 60 71  1  0  0  0  0
 61 71  1  0  0  0  0
 62 71  1  0  0  0  0
 63 73  1  0  0  0  0
 64 82  1  0  0  0  0
 65 81  1  0  0  0  0
 66 83  1  0  0  0  0
 67 90  1  0  0  0  0
 68 83  1  0  0  0  0
 69 71  1  0  0  0  0
 69 80  1  0  0  0  0
 70 82  1  0  0  0  0
 72 74  1  0  0  0  0
M  CHG  2  82   1  83   1
M  ISO  4  42 100  67 101  81 100  90 101
M  END
> <Batch ID>
0026

> <Smiles>
CNC(C)C(=O)NC(C(=O)N1Cc2cc([101O:1][101CH2:1]c3c(C)c(CNC(C)c4cc(Cl)c(C[100NH:0][100C:0](=O)N5CCCC(n6nc(-c7ccc(Oc8ccc(F)cc8F)cc7)c(C(N)=O)c6N)C5)cc4C)c(C)n3C)ccc2CC1C(=O)NC1CCCc2ccccc21)C(C)(C)C

> <Shape>
0.239

> <Color>
0.062

> <Negative vol penalty>
0.000

$$$$

  -OEChem-04052316273D

 90 98  0     1  0  0  0  0  0999 V2000
  -17.5057  -26.7938   25.7607 C   0  0  0  0  0  0  0  0  0  0  0  0
  -18.8299  -26.7674   25.3349 C   0  0  0  0  0  0  0  0  0  0  0  0
  -24.2917   -8.1254   19.9558 C   0  0  0  0  0  0  0  0  0  0  0  0
  -23.1124  -10.1931   20.3692 C   0  0  0  0  0  0  0  0  0  0  0  0
  -16.6338  -27.7614   25.2632 C   0  0  0  0  0  0  0  0  0  0  0  0
  -19.2827  -27.7081   24.4105 C   0  0  0  0  0  0  0  0  0  0  0  0
  -23.7743  -29.6728   25.6793 C   0  0  0  0  0  0  0  0  0  0  0  0
  -23.3018   -7.4234   20.6434 C   0  0  0  0  0  0  0  0  0  0  0  0
  -22.1224   -9.4911   21.0567 C   0  0  0  0  0  0  0  0  0  0  0  0
  -24.9034  -28.8941   25.4292 C   0  0  0  0  0  0  0  0  0  0  0  0
  -22.4551   -6.8192   23.8593 C   0  0  0  0  0  0  0  0  0  0  0  0
  -22.8660   -5.8506   24.7750 C   0  0  0  0  0  0  0  0  0  0  0  0
  -25.3289  -30.1660   23.4241 C   0  0  0  0  0  0  0  0  0  0  0  0
  -30.0473  -17.9445   18.2223 C   0  0  0  0  0  0  0  0  0  0  0  0
  -21.6818   -4.1605   23.5184 C   0  0  0  0  0  0  0  0  0  0  0  0
  -24.1970   -9.5104   19.8187 C   0  0  0  0  0  0  0  0  0  0  0  0
  -25.2532  -10.5308   17.7328 C   0  0  0  0  0  0  0  0  0  0  0  0
  -17.0786  -28.7204   24.3396 C   0  0  0  0  0  0  0  0  0  0  0  0
  -23.4072  -30.6985   24.7964 C   0  0  0  0  0  0  0  0  0  0  0  0
  -18.4156  -28.6886   23.8992 C   0  0  0  0  0  0  0  0  0  0  0  0
  -24.1961  -30.9579   23.6666 C   0  0  0  0  0  0  0  0  0  0  0  0
  -28.5161  -18.6536   16.0008 C   0  0  0  0  0  0  0  0  0  0  0  0
  -29.2848  -19.6168   16.6542 C   0  0  0  0  0  0  0  0  0  0  0  0
  -29.2786  -16.9813   17.5690 C   0  0  0  0  0  0  0  0  0  0  0  0
  -22.2172   -8.1061   21.1938 C   0  0  0  0  0  0  0  0  0  0  0  0
  -25.6793  -29.1388   24.2999 C   0  0  0  0  0  0  0  0  0  0  0  0
  -21.6574   -6.4586   22.7733 C   0  0  0  0  0  0  0  0  0  0  0  0
  -22.4794   -4.5212   24.6045 C   0  0  0  0  0  0  0  0  0  0  0  0
  -21.2709   -5.1293   22.6028 C   0  0  0  0  0  0  0  0  0  0  0  0
  -30.0504  -19.2623   17.7650 C   0  0  0  0  0  0  0  0  0  0  0  0
  -28.5131  -17.3359   16.4582 C   0  0  0  0  0  0  0  0  0  0  0  0
  -25.2195  -10.2362   19.1090 C   0  0  0  0  0  0  0  0  0  0  0  0
  -26.4212  -11.2325   17.5603 C   0  0  0  0  0  0  0  0  0  0  0  0
  -24.3126  -10.1998   16.7025 C   0  0  0  0  0  0  0  0  0  0  0  0
  -20.8746  -31.2842   22.9670 C   0  0  0  0  0  0  0  0  0  0  0  0
  -22.3950  -34.1005   22.4385 C   0  0  0  0  0  0  0  0  0  0  0  0
  -25.3283  -35.8440   22.3850 C   0  0  0  0  0  0  0  0  0  0  0  0
  -30.0185  -15.1711   19.1570 C   0  0  0  0  0  0  0  0  0  0  0  0
  -16.0872  -29.7176   23.7942 C   0  0  0  0  0  0  0  0  0  0  0  0
  -22.2015  -31.5469   25.0946 C   0  0  0  0  0  0  0  0  0  0  0  0
  -23.8565  -32.0604   22.6984 C   0  0  0  0  0  0  0  0  0  0  0  0
  -16.7414  -30.9101   23.1012 C   0  0  0  0  0  0  0  0  0  0  0  0
  -30.3099  -11.9818   20.7128 C   0  0  0  0  0  0  0  0  0  0  0  0
  -17.8403  -30.4400   22.1535 C   0  0  0  0  0  0  0  0  0  0  0  0
  -29.0143  -11.2676   20.3210 C   0  0  0  0  0  0  0  0  0  0  0  0
  -30.0820  -13.4706   20.9679 C   0  0  0  0  0  0  0  0  0  0  0  0
  -28.1121  -13.4766   19.4884 C   0  0  0  0  0  0  0  0  0  0  0  0
  -18.9506  -29.7074   22.9163 C   0  0  1  0  0  0  0  0  0  0  0  0
  -21.6309  -32.2306   23.8559 C   0  0  1  0  0  0  0  0  0  0  0  0
  -28.3035  -11.9873   19.1582 C   0  0  2  0  0  0  0  0  0  0  0  0
  -27.7003  -19.0529   14.8095 C   0  0  0  0  0  0  0  0  0  0  0  0
  -26.2591  -38.1182   21.8764 C   0  0  0  0  0  0  0  0  0  0  0  0
  -22.1383  -33.5348   19.4511 C   0  0  0  0  0  0  0  0  0  0  0  0
  -23.8716  -35.2940   19.0400 C   0  0  0  0  0  0  0  0  0  0  0  0
  -21.7011  -35.9089   20.1047 C   0  0  0  0  0  0  0  0  0  0  0  0
  -26.3166  -36.1861   25.1536 C   0  0  0  0  0  0  0  0  0  0  0  0
  -29.2790  -21.0314   16.1543 C   0  0  0  0  0  0  0  0  0  0  0  0
  -27.3754  -25.1809   19.8451 C   0  0  0  0  0  0  0  0  0  0  0  0
  -27.9212  -25.2232   21.2735 C   0  0  0  0  0  0  0  0  0  0  0  0
  -28.1987  -24.2400   18.9622 C   0  0  0  0  0  0  0  0  0  0  0  0
  -27.0782  -26.1379   22.1645 C   0  0  0  0  0  0  0  0  0  0  0  0
  -27.6752  -24.2310   17.5231 C   0  0  0  0  0  0  0  0  0  0  0  0
  -27.6022  -26.1479   23.6034 C   0  0  0  0  0  0  0  0  0  0  0  0
  -28.5058  -23.3678   16.5817 C   0  0  0  0  0  0  0  0  0  0  0  0
  -26.7622  -27.0325   24.5166 C   0  0  0  0  0  0  0  0  0  1  0  0
  -23.4059  -34.5975   21.4335 C   0  0  1  0  0  0  0  0  0  0  0  0
  -25.7047  -37.1999   22.9544 C   0  0  2  0  0  0  0  0  0  0  0  0
  -22.7848  -34.8117   20.0243 C   0  0  0  0  0  0  0  0  0  0  0  0
  -26.2819  -10.7117   19.7642 N   0  0  0  0  0  0  0  0  0  0  0  0
  -26.9941  -11.3121   18.7955 N   0  0  0  0  0  0  0  0  0  0  0  0
  -22.6645  -32.8582   23.0301 N   0  0  0  0  0  0  0  0  0  0  0  0
  -29.4086  -14.0868   19.8226 N   0  0  0  0  0  0  0  0  0  0  0  0
  -27.0040  -11.7828   16.4741 N   0  0  0  0  0  0  0  0  0  0  0  0
  -23.1655   -9.4747   17.0529 N   0  0  0  0  0  0  0  0  0  0  0  0
  -29.3009  -15.6535   18.0630 N   0  0  0  0  0  0  0  0  0  0  0  0
  -19.8125  -30.6559   23.5887 N   0  0  0  0  0  0  0  0  0  0  0  0
  -24.0015  -35.7968   22.0126 N   0  0  0  0  0  0  0  0  0  0  0  0
  -26.7373  -37.0466   24.0180 N   0  3  0  0  0  0  0  0  0  0  0  0
  -28.4806  -21.9501   17.0123 N   0  3  0  0  0  0  0  0  0  0  0  0
  -24.4924  -10.5229   15.5039 O   0  0  0  0  0  0  0  0  0  0  0  0
  -21.2277  -31.1362   21.8029 O   0  0  0  0  0  0  0  0  0  0  0  0
  -21.4064  -34.7924   22.6946 O   0  0  0  0  0  0  0  0  0  0  0  0
  -26.1319  -34.9203   22.2776 O   0  0  0  0  0  0  0  0  0  0  0  0
  -31.1110  -15.6198   19.5135 O   0  0  0  0  0  0  0  0  0  0  0  0
  -21.2510   -7.4213   21.8647 O   0  0  0  0  0  0  0  0  0  0  0  0
  -26.7899  -28.3741   24.0512 O   0  0  0  0  0  0  0  0  0  1  0  0
  -22.8754   -3.5908   25.4830 F   0  0  0  0  0  0  0  0  0  0  0  0
  -20.5057   -4.7766   21.5608 F   0  0  0  0  0  0  0  0  0  0  0  0
  -31.0111  -20.4254   18.6051 Cl  0  0  0  0  0  0  0  0  0  0  0  0
  -27.5562  -16.1395   15.6447 Cl  0  0  0  0  0  0  0  0  0  0  0  0
  1  2  1  0  0  0  0
  1  5  2  0  0  0  0
  2  6  2  0  0  0  0
  3  8  2  0  0  0  0
  3 16  1  0  0  0  0
  4  9  1  0  0  0  0
  4 16  2  0  0  0  0
  5 18  1  0  0  0  0
  6 20  1  0  0  0  0
  7 10  2  0  0  0  0
  7 19  1  0  0  0  0
  8 25  1  0  0  0  0
  9 25  2  0  0  0  0
 10 26  1  0  0  0  0
 11 12  2  0  0  0  0
 11 27  1  0  0  0  0
 12 28  1  0  0  0  0
 13 21  1  0  0  0  0
 13 26  2  0  0  0  0
 14 24  1  0  0  0  0
 14 30  2  0  0  0  0
 15 28  2  0  0  0  0
 15 29  1  0  0  0  0
 16 32  1  0  0  0  0
 17 32  1  0  0  0  0
 17 33  2  0  0  0  0
 17 34  1  0  0  0  0
 18 20  2  0  0  0  0
 18 39  1  0  0  0  0
 19 21  2  0  0  0  0
 19 40  1  0  0  0  0
 20 48  1  0  0  0  0
 21 41  1  0  0  0  0
 22 23  2  0  0  0  0
 22 31  1  0  0  0  0
 22 51  1  0  0  0  0
 23 30  1  0  0  0  0
 23 57  1  0  0  0  0
 24 31  2  0  0  0  0
 24 75  1  0  0  0  0
 25 85  1  0  0  0  0
 26 86  1  0  0  0  0
 27 29  2  0  0  0  0
 27 85  1  0  0  0  0
 28 87  1  0  0  0  0
 29 88  1  0  0  0  0
 30 89  1  0  0  0  0
 31 90  1  0  0  0  0
 32 69  2  0  0  0  0
 33 70  1  0  0  0  0
 33 73  1  0  0  0  0
 34 74  1  0  0  0  0
 34 80  2  0  0  0  0
 35 49  1  0  0  0  0
 35 76  1  0  0  0  0
 35 81  2  0  0  0  0
 36 66  1  0  0  0  0
 36 71  1  0  0  0  0
 36 82  2  0  0  0  0
 37 67  1  0  0  0  0
 37 77  1  0  0  0  0
 37 83  2  0  0  0  0
 38 72  1  0  0  0  0
 38 75  1  0  0  0  0
 38 84  2  0  0  0  0
 39 42  1  0  0  0  0
 40 49  1  0  0  0  0
 41 71  1  0  0  0  0
 42 44  1  0  0  0  0
 43 45  1  0  0  0  0
 43 46  1  0  0  0  0
 44 48  1  0  0  0  0
 45 50  1  0  0  0  0
 46 72  1  0  0  0  0
 47 50  1  0  0  0  0
 47 72  1  0  0  0  0
 48 76  1  0  0  0  0
 49 71  1  0  0  0  0
 50 70  1  0  0  0  0
 52 67  1  0  0  0  0
 53 68  1  0  0  0  0
 54 68  1  0  0  0  0
 55 68  1  0  0  0  0
 56 78  1  0  0  0  0
 57 79  1  0  0  0  0
 58 59  1  0  0  0  0
 58 60  1  0  0  0  0
 59 61  1  0  0  0  0
 60 62  1  0  0  0  0
 61 63  1  0  0  0  0
 62 64  1  0  0  0  0
 63 65  1  0  0  0  0
 64 79  1  0  0  0  0
 65 86  1  0  0  0  0
 66 68  1  0  0  0  0
 66 77  1  0  0  0  0
 67 78  1  0  0  0  0
 69 70  1  0  0  0  0
M  CHG  2  78   1  79   1
M  ISO  4  38 100  65 101  75 100  86 101
M  END
> <Batch ID>
0026

> <Smiles>
CNC(C)C(=O)NC(C(=O)N1Cc2cc([101O:1][101CH2:1]CCCCCCCNCc3c(Cl)cc([100NH:0][100C:0](=O)N4CCCC(n5nc(-c6ccc(Oc7ccc(F)cc7F)cc6)c(C(N)=O)c5N)C4)c(Cl)c3C)ccc2CC1C(=O)NC1CCCc2ccccc21)C(C)(C)C

> <Shape>
0.218

> <Color>
0.121

> <Negative vol penalty>
0.000

$$$$

  -OEChem-04052316273D

 83 91  0     1  0  0  0  0  0999 V2000
  -18.9601  -33.8164   23.4066 C   0  0  0  0  0  0  0  0  0  0  0  0
  -20.2992  -33.7201   23.0422 C   0  0  0  0  0  0  0  0  0  0  0  0
  -24.9199  -13.2878   21.6376 C   0  0  0  0  0  0  0  0  0  0  0  0
  -26.2822  -13.0187   19.6605 C   0  0  0  0  0  0  0  0  0  0  0  0
  -18.2996  -32.7056   23.9299 C   0  0  0  0  0  0  0  0  0  0  0  0
  -20.9790  -32.5131   23.2019 C   0  0  0  0  0  0  0  0  0  0  0  0
  -25.3708  -30.2543   19.5804 C   0  0  0  0  0  0  0  0  0  0  0  0
  -24.1041  -12.2369   21.2185 C   0  0  0  0  0  0  0  0  0  0  0  0
  -25.4664  -11.9677   19.2415 C   0  0  0  0  0  0  0  0  0  0  0  0
  -26.7615  -30.2569   19.6790 C   0  0  0  0  0  0  0  0  0  0  0  0
  -24.2072   -8.8573   21.2022 C   0  0  0  0  0  0  0  0  0  0  0  0
  -23.8467   -7.8991   22.1496 C   0  0  0  0  0  0  0  0  0  0  0  0
  -26.6901  -28.0542   20.6600 C   0  0  0  0  0  0  0  0  0  0  0  0
  -21.5157   -8.4278   21.7970 C   0  0  0  0  0  0  0  0  0  0  0  0
  -29.8399  -26.0324   21.9771 C   0  0  0  0  0  0  0  0  0  0  0  0
  -26.0089  -13.6788   20.8585 C   0  0  0  0  0  0  0  0  0  0  0  0
  -28.0034  -14.6786   22.0955 C   0  0  0  0  0  0  0  0  0  0  0  0
  -18.9690  -31.4817   24.0871 C   0  0  0  0  0  0  0  0  0  0  0  0
  -24.6274  -29.1542   20.0316 C   0  0  0  0  0  0  0  0  0  0  0  0
  -20.3273  -31.3853   23.7291 C   0  0  0  0  0  0  0  0  0  0  0  0
  -25.2903  -28.0390   20.5636 C   0  0  0  0  0  0  0  0  0  0  0  0
  -30.3636  -24.4443   20.2485 C   0  0  0  0  0  0  0  0  0  0  0  0
  -24.3773  -11.5768   20.0205 C   0  0  0  0  0  0  0  0  0  0  0  0
  -27.4212  -29.1580   20.2216 C   0  0  0  0  0  0  0  0  0  0  0  0
  -23.2221   -9.6008   20.5523 C   0  0  0  0  0  0  0  0  0  0  0  0
  -22.5009   -7.6843   22.4470 C   0  0  0  0  0  0  0  0  0  0  0  0
  -21.8763   -9.3860   20.8497 C   0  0  0  0  0  0  0  0  0  0  0  0
  -30.1435  -24.7316   21.5910 C   0  0  0  0  0  0  0  0  0  0  0  0
  -26.8517  -14.7647   21.2905 C   0  0  0  0  0  0  0  0  0  0  0  0
  -29.7689  -27.0021   20.9900 C   0  0  0  0  0  0  0  0  0  0  0  0
  -30.2689  -25.4851   19.3387 C   0  0  0  0  0  0  0  0  0  0  0  0
  -28.4360  -15.9766   22.2159 C   0  0  0  0  0  0  0  0  0  0  0  0
  -28.6264  -13.5282   22.6820 C   0  0  0  0  0  0  0  0  0  0  0  0
  -22.4144  -28.7083   22.2694 C   0  0  0  0  0  0  0  0  0  0  0  0
  -22.2643  -25.7367   20.9773 C   0  0  0  0  0  0  0  0  0  0  0  0
  -23.8104  -23.2709   19.1951 C   0  0  0  0  0  0  0  0  0  0  0  0
  -29.6358  -20.8186   19.9659 C   0  0  0  0  0  0  0  0  0  0  0  0
  -18.2262  -30.3216   24.7012 C   0  0  0  0  0  0  0  0  0  0  0  0
  -23.1296  -29.1558   19.8936 C   0  0  0  0  0  0  0  0  0  0  0  0
  -24.5396  -26.8248   21.0438 C   0  0  0  0  0  0  0  0  0  0  0  0
  -18.9154  -28.9762   24.4891 C   0  0  0  0  0  0  0  0  0  0  0  0
  -26.1884  -20.3290   20.9524 C   0  0  0  0  0  0  0  0  0  0  0  0
  -20.4049  -29.0845   24.7997 C   0  0  0  0  0  0  0  0  0  0  0  0
  -26.1531  -18.8191   21.1955 C   0  0  0  0  0  0  0  0  0  0  0  0
  -27.0801  -20.6769   19.7640 C   0  0  0  0  0  0  0  0  0  0  0  0
  -28.4413  -18.6519   20.1109 C   0  0  0  0  0  0  0  0  0  0  0  0
  -21.0921  -30.0864   23.8641 C   0  0  1  0  0  0  0  0  0  0  0  0
  -22.4397  -28.1952   20.8573 C   0  0  1  0  0  0  0  0  0  0  0  0
  -27.5743  -18.2372   21.3136 C   0  0  2  0  0  0  0  0  0  0  0  0
  -23.4499  -20.9423   18.3321 C   0  0  0  0  0  0  0  0  0  0  0  0
  -30.7373  -29.1856   21.6740 C   0  0  0  0  0  0  0  0  0  0  0  0
  -22.7129  -24.6293   23.7849 C   0  0  0  0  0  0  0  0  0  0  0  0
  -23.2868  -22.4240   22.7479 C   0  0  0  0  0  0  0  0  0  0  0  0
  -21.0092  -23.3921   22.4353 C   0  0  0  0  0  0  0  0  0  0  0  0
  -24.1211  -24.1403   16.3833 C   0  0  0  0  0  0  0  0  0  0  0  0
  -30.6918  -23.0578   19.7994 C   0  0  0  0  0  0  0  0  0  0  0  0
  -22.9726  -24.4266   21.2241 C   0  0  1  0  0  0  0  0  0  0  0  0
  -23.3390  -22.4274   18.0243 C   0  0  2  0  0  0  0  0  0  0  0  0
  -29.4393  -28.4333   21.3748 C   0  0  1  0  0  0  0  0  0  1  0  0
  -22.5097  -23.7415   22.5409 C   0  0  0  0  0  0  0  0  0  0  0  0
  -26.5703  -16.0183   20.9254 N   0  0  0  0  0  0  0  0  0  0  0  0
  -29.9763  -26.7611   19.6760 N   0  0  0  0  0  0  0  0  0  0  0  0
  -27.5514  -16.7319   21.5037 N   0  0  0  0  0  0  0  0  0  0  0  0
  -23.0760  -26.8769   20.8934 N   0  0  0  0  0  0  0  0  0  0  0  0
  -28.4234  -20.1094   19.9475 N   0  0  0  0  0  0  0  0  0  0  0  0
  -29.4829  -16.5342   22.8605 N   0  0  0  0  0  0  0  0  0  0  0  0
  -28.0513  -12.2698   22.4580 N   0  0  0  0  0  0  0  0  0  0  0  0
  -21.3152  -29.4924   22.5634 N   0  0  0  0  0  0  0  0  0  0  0  0
  -22.7669  -23.6194   20.0263 N   0  0  0  0  0  0  0  0  0  0  0  0
  -29.5322  -22.1939   19.7974 N   0  0  0  0  0  0  0  0  0  0  0  0
  -24.1573  -22.7188   16.8133 N   0  3  0  0  0  0  0  0  0  0  0  0
  -29.6531  -13.6154   23.3975 O   0  0  0  0  0  0  0  0  0  0  0  0
  -23.3239  -28.4133   23.0358 O   0  0  0  0  0  0  0  0  0  0  0  0
  -21.0368  -25.7471   20.8560 O   0  0  0  0  0  0  0  0  0  0  0  0
  -24.9872  -23.5858   19.3581 O   0  0  0  0  0  0  0  0  0  0  0  0
  -30.7302  -20.2673   20.1261 O   0  0  0  0  0  0  0  0  0  0  0  0
  -23.5816  -10.5511   19.6114 O   0  0  0  0  0  0  0  0  0  0  0  0
  -28.7785  -29.1583   20.3196 O   0  0  0  0  0  0  0  0  0  1  0  0
  -22.1547   -6.7631   23.3556 F   0  0  0  0  0  0  0  0  0  0  0  0
  -20.9253  -10.0963   20.2277 F   0  0  0  0  0  0  0  0  0  0  0  0
  -28.6762  -28.5439   22.5046 F   0  0  0  0  0  0  0  0  0  0  0  0
  -30.2369  -23.5072   22.8033 Cl  0  0  0  0  0  0  0  0  0  0  0  0
  -30.5181  -25.2617   17.6507 Cl  0  0  0  0  0  0  0  0  0  0  0  0
  1  2  1  0  0  0  0
  1  5  2  0  0  0  0
  2  6  2  0  0  0  0
  3  8  2  0  0  0  0
  3 16  1  0  0  0  0
  4  9  1  0  0  0  0
  4 16  2  0  0  0  0
  5 18  1  0  0  0  0
  6 20  1  0  0  0  0
  7 10  2  0  0  0  0
  7 19  1  0  0  0  0
  8 23  1  0  0  0  0
  9 23  2  0  0  0  0
 10 24  1  0  0  0  0
 11 12  2  0  0  0  0
 11 25  1  0  0  0  0
 12 26  1  0  0  0  0
 13 21  1  0  0  0  0
 13 24  2  0  0  0  0
 14 26  2  0  0  0  0
 14 27  1  0  0  0  0
 15 28  2  0  0  0  0
 15 30  1  0  0  0  0
 16 29  1  0  0  0  0
 17 29  1  0  0  0  0
 17 32  2  0  0  0  0
 17 33  1  0  0  0  0
 18 20  2  0  0  0  0
 18 38  1  0  0  0  0
 19 21  2  0  0  0  0
 19 39  1  0  0  0  0
 20 47  1  0  0  0  0
 21 40  1  0  0  0  0
 22 28  1  0  0  0  0
 22 31  2  0  0  0  0
 22 56  1  0  0  0  0
 23 77  1  0  0  0  0
 24 78  1  0  0  0  0
 25 27  2  0  0  0  0
 25 77  1  0  0  0  0
 26 79  1  0  0  0  0
 27 80  1  0  0  0  0
 28 82  1  0  0  0  0
 29 61  2  0  0  0  0
 30 59  1  0  0  0  0
 30 62  2  0  0  0  0
 31 62  1  0  0  0  0
 31 83  1  0  0  0  0
 32 63  1  0  0  0  0
 32 66  1  0  0  0  0
 33 67  1  0  0  0  0
 33 72  2  0  0  0  0
 34 48  1  0  0  0  0
 34 68  1  0  0  0  0
 34 73  2  0  0  0  0
 35 57  1  0  0  0  0
 35 64  1  0  0  0  0
 35 74  2  0  0  0  0
 36 58  1  0  0  0  0
 36 69  1  0  0  0  0
 36 75  2  0  0  0  0
 37 65  1  0  0  0  0
 37 70  1  0  0  0  0
 37 76  2  0  0  0  0
 38 41  1  0  0  0  0
 39 48  1  0  0  0  0
 40 64  1  0  0  0  0
 41 43  1  0  0  0  0
 42 44  1  0  0  0  0
 42 45  1  0  0  0  0
 43 47  1  0  0  0  0
 44 49  1  0  0  0  0
 45 65  1  0  0  0  0
 46 49  1  0  0  0  0
 46 65  1  0  0  0  0
 47 68  1  0  0  0  0
 48 64  1  0  0  0  0
 49 63  1  0  0  0  0
 50 58  1  0  0  0  0
 51 59  1  0  0  0  0
 52 60  1  0  0  0  0
 53 60  1  0  0  0  0
 54 60  1  0  0  0  0
 55 71  1  0  0  0  0
 56 70  1  0  0  0  0
 57 60  1  0  0  0  0
 57 69  1  0  0  0  0
 58 71  1  0  0  0  0
 59 78  1  0  0  0  0
 59 81  1  0  0  0  0
 61 63  1  0  0  0  0
M  CHG  1  71   1
M  ISO  4  37 100  59 101  70 100  78 101
M  END
> <Batch ID>
0026

> <Smiles>
CNC(C)C(=O)NC(C(=O)N1Cc2cc([101O:1][101C:1](C)(F)c3cc(Cl)c(C[100NH:0][100C:0](=O)N4CCCC(n5nc(-c6ccc(Oc7ccc(F)cc7F)cc6)c(C(N)=O)c5N)C4)c(Cl)n3)ccc2CC1C(=O)NC1CCCc2ccccc21)C(C)(C)C

> <Shape>
0.264

> <Color>
0.081

> <Negative vol penalty>
0.000

$$$$

  -OEChem-04052316273D

 90 99  0     1  0  0  0  0  0999 V2000
  -28.0667  -26.6588   22.5825 C   0  0  0  0  0  0  0  0  0  0  0  0
  -27.2528  -25.5331   22.5237 C   0  0  0  0  0  0  0  0  0  0  0  0
  -24.3233  -30.4690   20.2346 C   0  0  0  0  0  0  0  0  0  0  0  0
  -25.5678  -29.2514   21.9097 C   0  0  0  0  0  0  0  0  0  0  0  0
  -29.2360  -26.7090   21.8267 C   0  0  0  0  0  0  0  0  0  0  0  0
  -27.6140  -24.4525   21.7183 C   0  0  0  0  0  0  0  0  0  0  0  0
  -24.8680  -20.3858   22.0711 C   0  0  0  0  0  0  0  0  0  0  0  0
  -23.8018  -31.3000   21.2260 C   0  0  0  0  0  0  0  0  0  0  0  0
  -25.0462  -30.0824   22.9012 C   0  0  0  0  0  0  0  0  0  0  0  0
  -23.5721  -20.3050   21.5631 C   0  0  0  0  0  0  0  0  0  0  0  0
  -24.3236  -32.1109   25.8306 C   0  0  0  0  0  0  0  0  0  0  0  0
  -25.2035  -32.6027   26.7946 C   0  0  0  0  0  0  0  0  0  0  0  0
  -24.3927  -19.0248   19.6903 C   0  0  0  0  0  0  0  0  0  0  0  0
  -26.4953  -33.6849   25.0634 C   0  0  0  0  0  0  0  0  0  0  0  0
  -25.2063  -29.4447   20.5764 C   0  0  0  0  0  0  0  0  0  0  0  0
  -26.9284  -28.7804   18.8154 C   0  0  0  0  0  0  0  0  0  0  0  0
  -29.6047  -25.6331   21.0024 C   0  0  0  0  0  0  0  0  0  0  0  0
  -25.9393  -19.7951   21.3857 C   0  0  0  0  0  0  0  0  0  0  0  0
  -28.8027  -24.4743   20.9664 C   0  0  0  0  0  0  0  0  0  0  0  0
  -25.7007  -19.0974   20.1931 C   0  0  0  0  0  0  0  0  0  0  0  0
  -24.1632  -31.1067   22.5593 C   0  0  0  0  0  0  0  0  0  0  0  0
  -23.3347  -19.6269   20.3710 C   0  0  0  0  0  0  0  0  0  0  0  0
  -24.5296  -32.4060   24.4829 C   0  0  0  0  0  0  0  0  0  0  0  0
  -26.2893  -33.3897   26.4111 C   0  0  0  0  0  0  0  0  0  0  0  0
  -25.6154  -33.1930   24.0993 C   0  0  0  0  0  0  0  0  0  0  0  0
  -15.9951  -21.8055   16.9340 C   0  0  0  0  0  0  0  0  0  0  0  0
  -25.7450  -28.5856   19.5527 C   0  0  0  0  0  0  0  0  0  0  0  0
  -14.8446  -22.0943   16.1760 C   0  0  0  0  0  0  0  0  0  0  0  0
  -16.6078  -20.7827   16.2521 C   0  0  0  0  0  0  0  0  0  0  0  0
  -26.9939  -27.6936   17.9780 C   0  0  0  0  0  0  0  0  0  0  0  0
  -27.8830  -29.8481   18.8817 C   0  0  0  0  0  0  0  0  0  0  0  0
  -28.6068  -20.8745   20.0356 C   0  0  0  0  0  0  0  0  0  0  0  0
  -29.2238  -17.7143   19.6421 C   0  0  0  0  0  0  0  0  0  0  0  0
  -28.0085  -14.5366   19.3742 C   0  0  0  0  0  0  0  0  0  0  0  0
  -23.0360  -24.2058   15.6148 C   0  0  0  0  0  0  0  0  0  0  0  0
  -30.8849  -25.7372   20.2116 C   0  0  0  0  0  0  0  0  0  0  0  0
  -27.3272  -19.8684   21.9608 C   0  0  0  0  0  0  0  0  0  0  0  0
  -26.8134  -18.4286   19.4295 C   0  0  0  0  0  0  0  0  0  0  0  0
  -30.9545  -24.7408   19.0590 C   0  0  0  0  0  0  0  0  0  0  0  0
  -22.5323  -21.1929   13.5186 C   0  0  0  0  0  0  0  0  0  0  0  0
  -25.6700  -23.1129   17.6639 C   0  0  0  0  0  0  0  0  0  0  0  0
  -30.6026  -23.3464   19.5554 C   0  0  0  0  0  0  0  0  0  0  0  0
  -21.4610  -20.4303   14.2941 C   0  0  0  0  0  0  0  0  0  0  0  0
  -26.1101  -24.4225   18.3174 C   0  0  0  0  0  0  0  0  0  0  0  0
  -22.4399  -22.6962   13.7564 C   0  0  0  0  0  0  0  0  0  0  0  0
  -24.1479  -23.0112   17.5529 C   0  0  0  0  0  0  0  0  0  0  0  0
  -21.4065  -22.3099   15.9706 C   0  0  0  0  0  0  0  0  0  0  0  0
  -23.9562  -25.4769   17.5318 C   0  0  0  0  0  0  0  0  0  0  0  0
  -29.1597  -23.2993   20.0740 C   0  0  1  0  0  0  0  0  0  0  0  0
  -28.4190  -19.6699   20.9139 C   0  0  1  0  0  0  0  0  0  0  0  0
  -21.4961  -20.7913   15.7851 C   0  0  1  0  0  0  0  0  0  0  0  0
  -25.4831  -25.6338   17.6041 C   0  0  1  0  0  0  0  0  0  0  0  0
  -13.8105  -23.1104   16.4437 C   0  0  0  0  0  0  0  0  0  0  0  0
  -17.1024  -19.9655   13.1479 C   0  0  0  0  0  0  0  0  0  0  0  0
  -28.7527  -12.1663   19.0198 C   0  0  0  0  0  0  0  0  0  0  0  0
  -29.6566  -18.2958   16.6783 C   0  0  0  0  0  0  0  0  0  0  0  0
  -29.4500  -15.8399   16.2377 C   0  0  0  0  0  0  0  0  0  0  0  0
  -31.2982  -16.6958   17.6780 C   0  0  0  0  0  0  0  0  0  0  0  0
  -26.9160  -13.6805   21.9881 C   0  0  0  0  0  0  0  0  0  0  0  0
  -17.8708  -20.0212   16.5277 C   0  0  0  0  0  0  0  0  0  0  0  0
  -20.6096  -20.0976   18.0462 C   0  0  0  0  0  0  0  0  0  0  0  0
  -16.0392  -19.5370   14.1446 C   0  0  0  0  0  0  0  0  0  0  0  0
  -21.9353  -19.4648   18.4550 C   0  0  0  0  0  0  0  0  0  1  0  0
  -28.9320  -16.6936   18.5688 C   0  0  1  0  0  0  0  0  0  0  0  0
  -28.4230  -13.2397   20.0455 C   0  0  2  0  0  0  0  0  0  0  0  0
  -20.3676  -20.0891   16.5371 C   0  0  1  0  0  0  0  0  0  0  0  0
  -29.8133  -16.8954   17.3039 C   0  0  0  0  0  0  0  0  0  0  0  0
  -25.1049  -27.4635   19.2134 N   0  0  0  0  0  0  0  0  0  0  0  0
  -14.7308  -21.3178   15.0952 N   0  0  0  0  0  0  0  0  0  0  0  0
  -15.8179  -20.5310   15.1691 N   0  0  0  0  0  0  0  0  0  0  0  0
  -25.8887  -26.9435   18.2537 N   0  0  0  0  0  0  0  0  0  0  0  0
  -28.1539  -18.5336   20.0292 N   0  0  0  0  0  0  0  0  0  0  0  0
  -22.4304  -23.0135   15.1842 N   0  0  0  0  0  0  0  0  0  0  0  0
  -23.5922  -24.2055   16.9028 N   0  0  0  0  0  0  0  0  0  0  0  0
  -27.8885  -27.3162   17.0401 N   0  0  0  0  0  0  0  0  0  0  0  0
  -27.6628  -30.8853   19.7982 N   0  0  0  0  0  0  0  0  0  0  0  0
  -28.9330  -22.0274   20.7241 N   0  0  0  0  0  0  0  0  0  0  0  0
  -29.0805  -15.3858   19.1980 N   0  0  0  0  0  0  0  0  0  0  0  0
  -27.3258  -12.7345   20.9183 N   0  3  0  0  0  0  0  0  0  0  0  0
  -19.0991  -20.8001   16.2208 N   0  3  0  0  0  0  0  0  0  0  0  0
  -28.8926  -29.8897   18.1383 O   0  0  0  0  0  0  0  0  0  0  0  0
  -28.4677  -20.7657   18.8230 O   0  0  0  0  0  0  0  0  0  0  0  0
  -30.3573  -17.7774   20.1246 O   0  0  0  0  0  0  0  0  0  0  0  0
  -26.8504  -14.7712   19.0362 O   0  0  0  0  0  0  0  0  0  0  0  0
  -23.0792  -25.2080   14.8903 O   0  0  0  0  0  0  0  0  0  0  0  0
  -23.6546  -31.9175   23.5270 O   0  0  0  0  0  0  0  0  0  0  0  0
  -22.0622  -19.5465   19.8692 O   0  0  0  0  0  0  0  0  0  1  0  0
  -27.1334  -33.8633   27.3371 F   0  0  0  0  0  0  0  0  0  0  0  0
  -25.8178  -33.4808   22.8063 F   0  0  0  0  0  0  0  0  0  0  0  0
  -16.4886  -22.5652   18.3638 Cl  0  0  0  0  0  0  0  0  0  0  0  0
  1  2  1  0  0  0  0
  1  5  2  0  0  0  0
  2  6  2  0  0  0  0
  3  8  2  0  0  0  0
  3 15  1  0  0  0  0
  4  9  1  0  0  0  0
  4 15  2  0  0  0  0
  5 17  1  0  0  0  0
  6 19  1  0  0  0  0
  7 10  2  0  0  0  0
  7 18  1  0  0  0  0
  8 21  1  0  0  0  0
  9 21  2  0  0  0  0
 10 22  1  0  0  0  0
 11 12  2  0  0  0  0
 11 23  1  0  0  0  0
 12 24  1  0  0  0  0
 13 20  1  0  0  0  0
 13 22  2  0  0  0  0
 14 24  2  0  0  0  0
 14 25  1  0  0  0  0
 15 27  1  0  0  0  0
 16 27  1  0  0  0  0
 16 30  2  0  0  0  0
 16 31  1  0  0  0  0
 17 19  2  0  0  0  0
 17 36  1  0  0  0  0
 18 20  2  0  0  0  0
 18 37  1  0  0  0  0
 19 49  1  0  0  0  0
 20 38  1  0  0  0  0
 21 86  1  0  0  0  0
 22 87  1  0  0  0  0
 23 25  2  0  0  0  0
 23 86  1  0  0  0  0
 24 88  1  0  0  0  0
 25 89  1  0  0  0  0
 26 28  1  0  0  0  0
 26 29  2  0  0  0  0
 26 90  1  0  0  0  0
 27 68  2  0  0  0  0
 28 53  1  0  0  0  0
 28 69  2  0  0  0  0
 29 60  1  0  0  0  0
 29 70  1  0  0  0  0
 30 71  1  0  0  0  0
 30 75  1  0  0  0  0
 31 76  1  0  0  0  0
 31 81  2  0  0  0  0
 32 50  1  0  0  0  0
 32 77  1  0  0  0  0
 32 82  2  0  0  0  0
 33 64  1  0  0  0  0
 33 72  1  0  0  0  0
 33 83  2  0  0  0  0
 34 65  1  0  0  0  0
 34 78  1  0  0  0  0
 34 84  2  0  0  0  0
 35 73  1  0  0  0  0
 35 74  1  0  0  0  0
 35 85  2  0  0  0  0
 36 39  1  0  0  0  0
 37 50  1  0  0  0  0
 38 72  1  0  0  0  0
 39 42  1  0  0  0  0
 40 43  1  0  0  0  0
 40 45  1  0  0  0  0
 41 44  1  0  0  0  0
 41 46  1  0  0  0  0
 42 49  1  0  0  0  0
 43 51  1  0  0  0  0
 44 52  1  0  0  0  0
 45 73  1  0  0  0  0
 46 74  1  0  0  0  0
 47 51  1  0  0  0  0
 47 73  1  0  0  0  0
 48 52  1  0  0  0  0
 48 74  1  0  0  0  0
 49 77  1  0  0  0  0
 50 72  1  0  0  0  0
 51 66  1  0  0  0  0
 52 71  1  0  0  0  0
 54 62  1  0  0  0  0
 55 65  1  0  0  0  0
 56 67  1  0  0  0  0
 57 67  1  0  0  0  0
 58 67  1  0  0  0  0
 59 79  1  0  0  0  0
 60 80  1  0  0  0  0
 61 63  1  0  0  0  0
 61 66  1  0  0  0  0
 62 70  1  0  0  0  0
 63 87  1  0  0  0  0
 64 67  1  0  0  0  0
 64 78  1  0  0  0  0
 65 79  1  0  0  0  0
 66 80  1  0  0  0  0
 68 71  1  0  0  0  0
 69 70  1  0  0  0  0
M  CHG  2  79   1  80   1
M  ISO  4  35 100  63 101  73 100  87 101
M  END
> <Batch ID>
0026

> <Smiles>
CCn1nc(C)c(Cl)c1CNC(C[101CH2:1][101O:1]c1ccc2c(c1)CN(C(=O)C(NC(=O)C(C)NC)C(C)(C)C)C(C(=O)NC1CCCc3ccccc31)C2)C1CCC[100N:0]([100C:0](=O)N2CCCC(n3nc(-c4ccc(Oc5ccc(F)cc5F)cc4)c(C(N)=O)c3N)C2)C1

> <Shape>
0.202

> <Color>
0.052

> <Negative vol penalty>
0.000

$$$$

  -OEChem-04052316273D

 87 95  0     1  0  0  0  0  0999 V2000
  -32.3095  -23.3701   19.1908 C   0  0  0  0  0  0  0  0  0  0  0  0
  -30.9606  -23.3733   18.8501 C   0  0  0  0  0  0  0  0  0  0  0  0
  -26.8973  -14.1221   22.1837 C   0  0  0  0  0  0  0  0  0  0  0  0
  -26.2875  -14.2908   19.8521 C   0  0  0  0  0  0  0  0  0  0  0  0
  -32.7326  -23.9948   20.3632 C   0  0  0  0  0  0  0  0  0  0  0  0
  -30.0340  -24.0002   19.6824 C   0  0  0  0  0  0  0  0  0  0  0  0
  -24.9752  -26.9934   17.9632 C   0  0  0  0  0  0  0  0  0  0  0  0
  -26.0303  -13.0396   22.3322 C   0  0  0  0  0  0  0  0  0  0  0  0
  -25.4205  -13.2083   20.0005 C   0  0  0  0  0  0  0  0  0  0  0  0
  -23.6346  -26.6146   17.9070 C   0  0  0  0  0  0  0  0  0  0  0  0
  -22.3225  -12.6486   21.2335 C   0  0  0  0  0  0  0  0  0  0  0  0
  -21.0510  -12.7547   20.6700 C   0  0  0  0  0  0  0  0  0  0  0  0
  -23.2686  -27.6107   20.0733 C   0  0  0  0  0  0  0  0  0  0  0  0
  -19.4548  -22.4077   20.1390 C   0  0  0  0  0  0  0  0  0  0  0  0
  -21.5024  -10.8253   19.2878 C   0  0  0  0  0  0  0  0  0  0  0  0
  -18.5603  -24.2873   21.3654 C   0  0  0  0  0  0  0  0  0  0  0  0
  -27.0259  -14.7477   20.9437 C   0  0  0  0  0  0  0  0  0  0  0  0
  -29.2815  -15.8233   20.4307 C   0  0  0  0  0  0  0  0  0  0  0  0
  -31.8120  -24.6380   21.2054 C   0  0  0  0  0  0  0  0  0  0  0  0
  -25.4759  -27.6753   19.0816 C   0  0  0  0  0  0  0  0  0  0  0  0
  -30.4450  -24.6329   20.8679 C   0  0  0  0  0  0  0  0  0  0  0  0
  -24.6153  -27.9993   20.1401 C   0  0  0  0  0  0  0  0  0  0  0  0
  -19.6721  -23.2316   19.0347 C   0  0  0  0  0  0  0  0  0  0  0  0
  -19.3336  -24.5834   19.0957 C   0  0  0  0  0  0  0  0  0  0  0  0
  -25.2919  -12.5827   21.2406 C   0  0  0  0  0  0  0  0  0  0  0  0
  -22.7817  -26.9207   18.9634 C   0  0  0  0  0  0  0  0  0  0  0  0
  -23.1841  -11.6308   20.8241 C   0  0  0  0  0  0  0  0  0  0  0  0
  -20.6409  -11.8431   19.6972 C   0  0  0  0  0  0  0  0  0  0  0  0
  -22.7740  -10.7192   19.8512 C   0  0  0  0  0  0  0  0  0  0  0  0
  -18.8988  -22.9355   21.3043 C   0  0  0  0  0  0  0  0  0  0  0  0
  -18.7777  -25.1113   20.2611 C   0  0  0  0  0  0  0  0  0  0  0  0
  -27.9210  -15.8663   20.7899 C   0  0  0  0  0  0  0  0  0  0  0  0
  -29.6760  -17.1389   20.4219 C   0  0  0  0  0  0  0  0  0  0  0  0
  -30.1142  -14.6951   20.1318 C   0  0  0  0  0  0  0  0  0  0  0  0
  -27.6895  -27.0602   21.2782 C   0  0  0  0  0  0  0  0  0  0  0  0
  -27.0482  -30.0993   22.2137 C   0  0  0  0  0  0  0  0  0  0  0  0
  -24.8416  -32.7015   22.2934 C   0  0  0  0  0  0  0  0  0  0  0  0
  -26.7066  -22.2812   19.6537 C   0  0  0  0  0  0  0  0  0  0  0  0
  -32.3105  -25.2589   22.4862 C   0  0  0  0  0  0  0  0  0  0  0  0
  -26.9183  -28.1004   19.1151 C   0  0  0  0  0  0  0  0  0  0  0  0
  -25.0987  -28.7478   21.3545 C   0  0  0  0  0  0  0  0  0  0  0  0
  -31.3143  -26.2244   23.1232 C   0  0  0  0  0  0  0  0  0  0  0  0
  -28.6955  -21.3559   22.4581 C   0  0  0  0  0  0  0  0  0  0  0  0
  -29.9186  -25.6096   23.1515 C   0  0  0  0  0  0  0  0  0  0  0  0
  -28.8453  -19.8402   22.3162 C   0  0  0  0  0  0  0  0  0  0  0  0
  -27.3141  -21.8307   22.0126 C   0  0  0  0  0  0  0  0  0  0  0  0
  -27.0702  -19.8889   20.5146 C   0  0  0  0  0  0  0  0  0  0  0  0
  -29.4128  -25.3238   21.7323 C   0  0  1  0  0  0  0  0  0  0  0  0
  -27.4384  -28.3384   20.5294 C   0  0  1  0  0  0  0  0  0  0  0  0
  -28.4662  -19.3695   20.8991 C   0  0  2  0  0  0  0  0  0  0  0  0
  -24.5860  -35.0415   23.1630 C   0  0  0  0  0  0  0  0  0  0  0  0
  -26.5710  -29.0016   25.0203 C   0  0  0  0  0  0  0  0  0  0  0  0
  -25.4244  -31.1528   25.5912 C   0  0  0  0  0  0  0  0  0  0  0  0
  -27.8337  -31.1590   24.9447 C   0  0  0  0  0  0  0  0  0  0  0  0
  -24.5271  -33.8049   19.5653 C   0  0  0  0  0  0  0  0  0  0  0  0
  -19.5749  -25.4610   17.8916 C   0  0  0  0  0  0  0  0  0  0  0  0
  -20.2701  -22.6406   17.7997 C   0  0  0  0  0  0  0  0  0  0  0  0
  -24.6145  -22.8131   17.1300 C   0  0  0  0  0  0  0  0  0  0  0  0
  -23.8283  -21.5121   16.9292 C   0  0  0  0  0  0  0  0  0  0  0  0
  -26.1157  -22.5728   17.2610 C   0  0  0  0  0  0  0  0  0  0  0  0
  -22.3344  -21.7345   16.7243 C   0  0  0  0  0  0  0  0  0  0  0  0
  -21.0410  -25.8532   17.7443 C   0  0  0  0  0  0  0  0  0  1  0  0
  -26.0767  -30.7392   23.1758 C   0  0  1  0  0  0  0  0  0  0  0  0
  -25.0141  -34.1781   21.9865 C   0  0  2  0  0  0  0  0  0  0  0  0
  -26.4675  -30.4973   24.6611 C   0  0  0  0  0  0  0  0  0  0  0  0
  -27.4808  -17.1107   20.9945 N   0  0  0  0  0  0  0  0  0  0  0  0
  -28.5710  -17.8618   20.7633 N   0  0  0  0  0  0  0  0  0  0  0  0
  -26.5187  -29.1362   21.3430 N   0  0  0  0  0  0  0  0  0  0  0  0
  -27.0166  -21.3520   20.6604 N   0  0  0  0  0  0  0  0  0  0  0  0
  -30.8569  -17.7363   20.1555 N   0  0  0  0  0  0  0  0  0  0  0  0
  -29.5487  -13.4139   20.1877 N   0  0  0  0  0  0  0  0  0  0  0  0
  -28.9596  -26.5451   21.1018 N   0  0  0  0  0  0  0  0  0  0  0  0
  -25.9978  -32.1468   22.8003 N   0  0  0  0  0  0  0  0  0  0  0  0
  -26.4437  -21.7439   18.3995 N   0  0  0  0  0  0  0  0  0  0  0  0
  -24.1956  -34.5598   20.8011 N   0  3  0  0  0  0  0  0  0  0  0  0
  -21.7292  -22.3754   17.9213 N   0  3  0  0  0  0  0  0  0  0  0  0
  -31.3280  -14.8182   19.8401 O   0  0  0  0  0  0  0  0  0  0  0  0
  -26.7976  -26.5778   21.9663 O   0  0  0  0  0  0  0  0  0  0  0  0
  -28.2318  -30.4464   22.2291 O   0  0  0  0  0  0  0  0  0  0  0  0
  -23.7858  -32.1011   22.1060 O   0  0  0  0  0  0  0  0  0  0  0  0
  -26.6722  -23.4997   19.8562 O   0  0  0  0  0  0  0  0  0  0  0  0
  -24.4459  -11.5263   21.3850 O   0  0  0  0  0  0  0  0  0  0  0  0
  -21.4730  -26.5515   18.9114 O   0  0  0  0  0  0  0  0  0  1  0  0
  -19.4192  -11.9442   19.1573 F   0  0  0  0  0  0  0  0  0  0  0  0
  -23.5968   -9.7386   19.4547 F   0  0  0  0  0  0  0  0  0  0  0  0
  -18.6297  -21.9172   22.6655 Cl  0  0  0  0  0  0  0  0  0  0  0  0
  -18.3451  -26.7789   20.3766 Cl  0  0  0  0  0  0  0  0  0  0  0  0
  1  2  1  0  0  0  0
  1  5  2  0  0  0  0
  2  6  2  0  0  0  0
  3  8  2  0  0  0  0
  3 17  1  0  0  0  0
  4  9  1  0  0  0  0
  4 17  2  0  0  0  0
  5 19  1  0  0  0  0
  6 21  1  0  0  0  0
  7 10  2  0  0  0  0
  7 20  1  0  0  0  0
  8 25  1  0  0  0  0
  9 25  2  0  0  0  0
 10 26  1  0  0  0  0
 11 12  2  0  0  0  0
 11 27  1  0  0  0  0
 12 28  1  0  0  0  0
 13 22  1  0  0  0  0
 13 26  2  0  0  0  0
 14 23  1  0  0  0  0
 14 30  2  0  0  0  0
 15 28  2  0  0  0  0
 15 29  1  0  0  0  0
 16 30  1  0  0  0  0
 16 31  2  0  0  0  0
 17 32  1  0  0  0  0
 18 32  1  0  0  0  0
 18 33  2  0  0  0  0
 18 34  1  0  0  0  0
 19 21  2  0  0  0  0
 19 39  1  0  0  0  0
 20 22  2  0  0  0  0
 20 40  1  0  0  0  0
 21 48  1  0  0  0  0
 22 41  1  0  0  0  0
 23 24  2  0  0  0  0
 23 57  1  0  0  0  0
 24 31  1  0  0  0  0
 24 56  1  0  0  0  0
 25 82  1  0  0  0  0
 26 83  1  0  0  0  0
 27 29  2  0  0  0  0
 27 82  1  0  0  0  0
 28 84  1  0  0  0  0
 29 85  1  0  0  0  0
 30 86  1  0  0  0  0
 31 87  1  0  0  0  0
 32 66  2  0  0  0  0
 33 67  1  0  0  0  0
 33 70  1  0  0  0  0
 34 71  1  0  0  0  0
 34 77  2  0  0  0  0
 35 49  1  0  0  0  0
 35 72  1  0  0  0  0
 35 78  2  0  0  0  0
 36 63  1  0  0  0  0
 36 68  1  0  0  0  0
 36 79  2  0  0  0  0
 37 64  1  0  0  0  0
 37 73  1  0  0  0  0
 37 80  2  0  0  0  0
 38 69  1  0  0  0  0
 38 74  1  0  0  0  0
 38 81  2  0  0  0  0
 39 42  1  0  0  0  0
 40 49  1  0  0  0  0
 41 68  1  0  0  0  0
 42 44  1  0  0  0  0
 43 45  1  0  0  0  0
 43 46  1  0  0  0  0
 44 48  1  0  0  0  0
 45 50  1  0  0  0  0
 46 69  1  0  0  0  0
 47 50  1  0  0  0  0
 47 69  1  0  0  0  0
 48 72  1  0  0  0  0
 49 68  1  0  0  0  0
 50 67  1  0  0  0  0
 51 64  1  0  0  0  0
 52 65  1  0  0  0  0
 53 65  1  0  0  0  0
 54 65  1  0  0  0  0
 55 75  1  0  0  0  0
 56 62  1  0  0  0  0
 57 76  1  0  0  0  0
 58 59  1  0  0  0  0
 58 60  1  0  0  0  0
 59 61  1  0  0  0  0
 60 74  1  0  0  0  0
 61 76  1  0  0  0  0
 62 83  1  0  0  0  0
 63 65  1  0  0  0  0
 63 73  1  0  0  0  0
 64 75  1  0  0  0  0
 66 67  1  0  0  0  0
M  CHG  2  75   1  76   1
M  ISO  4  38 100  62 101  74 100  83 101
M  END
> <Batch ID>
0026

> <Smiles>
CNC(C)C(=O)NC(C(=O)N1Cc2cc([101O:1][101CH2:1]Cc3c(Cl)cc(Cl)cc3CNCCCC[100NH:0][100C:0](=O)N3CCCC(n4nc(-c5ccc(Oc6ccc(F)cc6F)cc5)c(C(N)=O)c4N)C3)ccc2CC1C(=O)NC1CCCc2ccccc21)C(C)(C)C

> <Shape>
0.242

> <Color>
0.058

> <Negative vol penalty>
0.000

$$$$

  -OEChem-04052316273D

 83 91  0     1  0  0  0  0  0999 V2000
  -19.9253  -19.5947   14.3792 C   0  0  0  0  0  0  0  0  0  0  0  0
  -20.3164  -18.3682   14.9066 C   0  0  0  0  0  0  0  0  0  0  0  0
  -26.8987  -25.9868   17.4826 C   0  0  0  0  0  0  0  0  0  0  0  0
  -26.5039  -25.4541   19.8058 C   0  0  0  0  0  0  0  0  0  0  0  0
  -20.5330  -20.7686   14.8226 C   0  0  0  0  0  0  0  0  0  0  0  0
  -21.3164  -18.3148   15.8771 C   0  0  0  0  0  0  0  0  0  0  0  0
  -21.6822  -14.4031   20.5750 C   0  0  0  0  0  0  0  0  0  0  0  0
  -25.9748  -27.0285   17.5644 C   0  0  0  0  0  0  0  0  0  0  0  0
  -25.5800  -26.4959   19.8877 C   0  0  0  0  0  0  0  0  0  0  0  0
  -22.3994  -13.2217   20.7581 C   0  0  0  0  0  0  0  0  0  0  0  0
  -25.6433  -29.8597   20.2062 C   0  0  0  0  0  0  0  0  0  0  0  0
  -25.7118  -30.6987   21.3184 C   0  0  0  0  0  0  0  0  0  0  0  0
  -24.1353  -14.4578   21.8884 C   0  0  0  0  0  0  0  0  0  0  0  0
  -23.4543  -30.0841   21.9211 C   0  0  0  0  0  0  0  0  0  0  0  0
  -27.1632  -25.1995   18.6033 C   0  0  0  0  0  0  0  0  0  0  0  0
  -29.5006  -24.1912   18.7702 C   0  0  0  0  0  0  0  0  0  0  0  0
  -21.5341  -20.7304   15.8060 C   0  0  0  0  0  0  0  0  0  0  0  0
  -22.1921  -15.6244   21.0383 C   0  0  0  0  0  0  0  0  0  0  0  0
  -21.9390  -19.4892   16.3331 C   0  0  0  0  0  0  0  0  0  0  0  0
  -23.4214  -15.6530   21.7121 C   0  0  0  0  0  0  0  0  0  0  0  0
  -28.5080  -11.9651   20.2200 C   0  0  0  0  0  0  0  0  0  0  0  0
  -25.3155  -27.2831   18.7670 C   0  0  0  0  0  0  0  0  0  0  0  0
  -23.6275  -13.2493   21.4124 C   0  0  0  0  0  0  0  0  0  0  0  0
  -24.4803  -29.1329   19.9514 C   0  0  0  0  0  0  0  0  0  0  0  0
  -24.6174  -30.8109   22.1758 C   0  0  0  0  0  0  0  0  0  0  0  0
  -23.3858  -29.2451   20.8089 C   0  0  0  0  0  0  0  0  0  0  0  0
  -29.0940  -13.1835   20.6433 C   0  0  0  0  0  0  0  0  0  0  0  0
  -28.1171  -24.1228   18.5192 C   0  0  0  0  0  0  0  0  0  0  0  0
  -29.5354  -13.8410   19.5164 C   0  0  0  0  0  0  0  0  0  0  0  0
  -29.9524  -22.9122   18.5546 C   0  0  0  0  0  0  0  0  0  0  0  0
  -28.6093  -11.9151   18.8471 C   0  0  0  0  0  0  0  0  0  0  0  0
  -30.3054  -25.3108   19.1632 C   0  0  0  0  0  0  0  0  0  0  0  0
  -23.0598  -18.3577   19.6672 C   0  0  0  0  0  0  0  0  0  0  0  0
  -23.4084  -19.3370   22.7400 C   0  0  0  0  0  0  0  0  0  0  0  0
  -23.9372  -18.4987   26.0056 C   0  0  0  0  0  0  0  0  0  0  0  0
  -29.4740  -17.5109   19.2922 C   0  0  0  0  0  0  0  0  0  0  0  0
  -22.1950  -22.0215   16.2195 C   0  0  0  0  0  0  0  0  0  0  0  0
  -21.3937  -16.8861   20.8564 C   0  0  0  0  0  0  0  0  0  0  0  0
  -24.0033  -16.9353   22.2465 C   0  0  0  0  0  0  0  0  0  0  0  0
  -22.9842  -21.9120   17.5216 C   0  0  0  0  0  0  0  0  0  0  0  0
  -27.6468  -18.9067   16.4975 C   0  0  0  0  0  0  0  0  0  0  0  0
  -23.8573  -20.6612   17.5130 C   0  0  0  0  0  0  0  0  0  0  0  0
  -27.7237  -20.4041   16.8012 C   0  0  0  0  0  0  0  0  0  0  0  0
  -27.4842  -18.0909   17.7766 C   0  0  0  0  0  0  0  0  0  0  0  0
  -28.6181  -19.8293   19.1054 C   0  0  0  0  0  0  0  0  0  0  0  0
  -23.0026  -19.3925   17.4052 C   0  0  1  0  0  0  0  0  0  0  0  0
  -22.2489  -18.1481   20.9147 C   0  0  1  0  0  0  0  0  0  0  0  0
  -28.8054  -20.7073   17.8548 C   0  0  2  0  0  0  0  0  0  0  0  0
  -24.2103  -19.5190   28.2819 C   0  0  0  0  0  0  0  0  0  0  0  0
  -26.2474  -20.1881   22.0151 C   0  0  0  0  0  0  0  0  0  0  0  0
  -26.7648  -20.2976   24.4622 C   0  0  0  0  0  0  0  0  0  0  0  0
  -25.0214  -21.7934   23.4897 C   0  0  0  0  0  0  0  0  0  0  0  0
  -29.5410  -13.4111   17.0580 C   0  0  0  0  0  0  0  0  0  0  0  0
  -21.5580  -17.0838   27.0528 C   0  0  0  0  0  0  0  0  0  0  0  0
  -27.8869  -10.9116   21.1021 C   0  0  0  0  0  0  0  0  0  0  0  0
  -30.2184  -15.1454   19.3777 C   0  0  0  0  0  0  0  0  0  0  0  0
  -26.3568  -10.9181   21.0852 C   0  0  0  0  0  0  0  0  0  0  0  0
  -25.7523  -12.2045   21.6356 C   0  0  0  0  0  0  0  0  0  1  0  0
  -24.5353  -19.3255   23.7444 C   0  0  1  0  0  0  0  0  0  0  0  0
  -23.2323  -18.9231   27.2813 C   0  0  2  0  0  0  0  0  0  0  0  0
  -25.6325  -20.3771   23.4162 C   0  0  0  0  0  0  0  0  0  0  0  0
  -27.7163  -22.8973   18.1706 N   0  0  0  0  0  0  0  0  0  0  0  0
  -29.2358  -13.0605   18.4304 N   0  0  0  0  0  0  0  0  0  0  0  0
  -28.8548  -22.1839   18.2010 N   0  0  0  0  0  0  0  0  0  0  0  0
  -23.1878  -18.1433   22.0384 N   0  0  0  0  0  0  0  0  0  0  0  0
  -28.5556  -18.4129   18.7298 N   0  0  0  0  0  0  0  0  0  0  0  0
  -31.1774  -22.3508   18.6348 N   0  0  0  0  0  0  0  0  0  0  0  0
  -29.6810  -26.5529   19.3411 N   0  0  0  0  0  0  0  0  0  0  0  0
  -22.4050  -19.0754   18.6845 N   0  0  0  0  0  0  0  0  0  0  0  0
  -23.9163  -19.4966   25.0543 N   0  0  0  0  0  0  0  0  0  0  0  0
  -29.3427  -16.1875   18.8897 N   0  0  0  0  0  0  0  0  0  0  0  0
  -22.5636  -17.7530   27.9175 N   0  3  0  0  0  0  0  0  0  0  0  0
  -31.5444  -25.2164   19.3351 O   0  0  0  0  0  0  0  0  0  0  0  0
  -24.1960  -17.9033   19.6016 O   0  0  0  0  0  0  0  0  0  0  0  0
  -22.7436  -20.3650   22.5887 O   0  0  0  0  0  0  0  0  0  0  0  0
  -24.4577  -17.3938   25.8681 O   0  0  0  0  0  0  0  0  0  0  0  0
  -30.3504  -17.8601   20.0904 O   0  0  0  0  0  0  0  0  0  0  0  0
  -24.4141  -28.2998   18.8473 O   0  0  0  0  0  0  0  0  0  0  0  0
  -24.3299  -12.0977   21.5919 O   0  0  0  0  0  0  0  0  0  1  0  0
  -24.6839  -31.6155   23.2447 F   0  0  0  0  0  0  0  0  0  0  0  0
  -22.2662  -28.5486   20.5699 F   0  0  0  0  0  0  0  0  0  0  0  0
  -29.2175  -13.7128   22.2549 Cl  0  0  0  0  0  0  0  0  0  0  0  0
  -28.1105  -10.7388   17.7235 Cl  0  0  0  0  0  0  0  0  0  0  0  0
  1  2  1  0  0  0  0
  1  5  2  0  0  0  0
  2  6  2  0  0  0  0
  3  8  2  0  0  0  0
  3 15  1  0  0  0  0
  4  9  1  0  0  0  0
  4 15  2  0  0  0  0
  5 17  1  0  0  0  0
  6 19  1  0  0  0  0
  7 10  2  0  0  0  0
  7 18  1  0  0  0  0
  8 22  1  0  0  0  0
  9 22  2  0  0  0  0
 10 23  1  0  0  0  0
 11 12  2  0  0  0  0
 11 24  1  0  0  0  0
 12 25  1  0  0  0  0
 13 20  1  0  0  0  0
 13 23  2  0  0  0  0
 14 25  2  0  0  0  0
 14 26  1  0  0  0  0
 15 28  1  0  0  0  0
 16 28  1  0  0  0  0
 16 30  2  0  0  0  0
 16 32  1  0  0  0  0
 17 19  2  0  0  0  0
 17 37  1  0  0  0  0
 18 20  2  0  0  0  0
 18 38  1  0  0  0  0
 19 46  1  0  0  0  0
 20 39  1  0  0  0  0
 21 27  1  0  0  0  0
 21 31  2  0  0  0  0
 21 55  1  0  0  0  0
 22 78  1  0  0  0  0
 23 79  1  0  0  0  0
 24 26  2  0  0  0  0
 24 78  1  0  0  0  0
 25 80  1  0  0  0  0
 26 81  1  0  0  0  0
 27 29  2  0  0  0  0
 27 82  1  0  0  0  0
 28 62  2  0  0  0  0
 29 56  1  0  0  0  0
 29 63  1  0  0  0  0
 30 64  1  0  0  0  0
 30 67  1  0  0  0  0
 31 63  1  0  0  0  0
 31 83  1  0  0  0  0
 32 68  1  0  0  0  0
 32 73  2  0  0  0  0
 33 47  1  0  0  0  0
 33 69  1  0  0  0  0
 33 74  2  0  0  0  0
 34 59  1  0  0  0  0
 34 65  1  0  0  0  0
 34 75  2  0  0  0  0
 35 60  1  0  0  0  0
 35 70  1  0  0  0  0
 35 76  2  0  0  0  0
 36 66  1  0  0  0  0
 36 71  1  0  0  0  0
 36 77  2  0  0  0  0
 37 40  1  0  0  0  0
 38 47  1  0  0  0  0
 39 65  1  0  0  0  0
 40 42  1  0  0  0  0
 41 43  1  0  0  0  0
 41 44  1  0  0  0  0
 42 46  1  0  0  0  0
 43 48  1  0  0  0  0
 44 66  1  0  0  0  0
 45 48  1  0  0  0  0
 45 66  1  0  0  0  0
 46 69  1  0  0  0  0
 47 65  1  0  0  0  0
 48 64  1  0  0  0  0
 49 60  1  0  0  0  0
 50 61  1  0  0  0  0
 51 61  1  0  0  0  0
 52 61  1  0  0  0  0
 53 63  1  0  0  0  0
 54 72  1  0  0  0  0
 55 57  1  0  0  0  0
 56 71  1  0  0  0  0
 57 58  1  0  0  0  0
 58 79  1  0  0  0  0
 59 61  1  0  0  0  0
 59 70  1  0  0  0  0
 60 72  1  0  0  0  0
 62 64  1  0  0  0  0
M  CHG  1  72   1
M  ISO  4  36 100  58 101  71 100  79 101
M  END
> <Batch ID>
0026

> <Smiles>
CNC(C)C(=O)NC(C(=O)N1Cc2cc([101O:1][101CH2:1]CCc3c(Cl)c(C[100NH:0][100C:0](=O)N4CCCC(n5nc(-c6ccc(Oc7ccc(F)cc7F)cc6)c(C(N)=O)c5N)C4)n(C)c3Cl)ccc2CC1C(=O)NC1CCCc2ccccc21)C(C)(C)C

> <Shape>
0.210

> <Color>
0.071

> <Negative vol penalty>
0.000

$$$$

  -OEChem-04052316273D

 93102  0     1  0  0  0  0  0999 V2000
  -24.3391  -22.6855   32.1771 C   0  0  0  0  0  0  0  0  0  0  0  0
  -24.6448  -22.1795   30.9177 C   0  0  0  0  0  0  0  0  0  0  0  0
  -23.2650   -9.8339   19.8977 C   0  0  0  0  0  0  0  0  0  0  0  0
  -23.8323   -9.9430   22.2436 C   0  0  0  0  0  0  0  0  0  0  0  0
  -24.1019  -24.0497   32.3402 C   0  0  0  0  0  0  0  0  0  0  0  0
  -24.7124  -23.0374   29.8205 C   0  0  0  0  0  0  0  0  0  0  0  0
  -28.4986  -22.5927   25.0275 C   0  0  0  0  0  0  0  0  0  0  0  0
  -22.5680   -8.6466   20.1215 C   0  0  0  0  0  0  0  0  0  0  0  0
  -23.1353   -8.7557   22.4674 C   0  0  0  0  0  0  0  0  0  0  0  0
  -28.3288  -22.0793   23.7425 C   0  0  0  0  0  0  0  0  0  0  0  0
  -23.2970   -5.3751   20.5573 C   0  0  0  0  0  0  0  0  0  0  0  0
  -23.4975   -4.3274   19.6585 C   0  0  0  0  0  0  0  0  0  0  0  0
  -27.8488  -24.2979   22.9260 C   0  0  0  0  0  0  0  0  0  0  0  0
  -21.1444   -4.3468   19.1109 C   0  0  0  0  0  0  0  0  0  0  0  0
  -33.7840  -21.1766   19.4753 C   0  0  0  0  0  0  0  0  0  0  0  0
  -23.8972  -10.4821   20.9588 C   0  0  0  0  0  0  0  0  0  0  0  0
  -24.1077  -13.0188   20.7908 C   0  0  0  0  0  0  0  0  0  0  0  0
  -24.1762  -24.9262   31.2462 C   0  0  0  0  0  0  0  0  0  0  0  0
  -28.3338  -23.9633   25.2739 C   0  0  0  0  0  0  0  0  0  0  0  0
  -24.4747  -24.4145   29.9690 C   0  0  0  0  0  0  0  0  0  0  0  0
  -28.0196  -24.8266   24.2146 C   0  0  0  0  0  0  0  0  0  0  0  0
  -22.5031   -8.1075   21.4063 C   0  0  0  0  0  0  0  0  0  0  0  0
  -28.0009  -22.9315   22.6920 C   0  0  0  0  0  0  0  0  0  0  0  0
  -22.0201   -5.9085   20.7330 C   0  0  0  0  0  0  0  0  0  0  0  0
  -22.4213   -3.8133   18.9353 C   0  0  0  0  0  0  0  0  0  0  0  0
  -20.9439   -5.3944   20.0098 C   0  0  0  0  0  0  0  0  0  0  0  0
  -24.6179  -11.7083   20.7282 C   0  0  0  0  0  0  0  0  0  0  0  0
  -33.3232  -20.4631   20.5456 C   0  0  0  0  0  0  0  0  0  0  0  0
  -25.1829  -13.8204   20.4944 C   0  0  0  0  0  0  0  0  0  0  0  0
  -34.8932  -19.2623   19.5487 C   0  0  0  0  0  0  0  0  0  0  0  0
  -22.7805  -13.4712   21.0903 C   0  0  0  0  0  0  0  0  0  0  0  0
  -26.3635  -25.6995   27.0648 C   0  0  0  0  0  0  0  0  0  0  0  0
  -28.2696  -28.1423   26.1046 C   0  0  0  0  0  0  0  0  0  0  0  0
  -30.4558  -29.3746   23.7919 C   0  0  0  0  0  0  0  0  0  0  0  0
  -30.5944  -14.8727   21.5959 C   0  0  0  0  0  0  0  0  0  0  0  0
  -23.8655  -26.3860   31.4632 C   0  0  0  0  0  0  0  0  0  0  0  0
  -28.5468  -24.5054   26.6607 C   0  0  0  0  0  0  0  0  0  0  0  0
  -27.8515  -26.3088   24.4226 C   0  0  0  0  0  0  0  0  0  0  0  0
  -24.3250  -27.2835   30.3171 C   0  0  0  0  0  0  0  0  0  0  0  0
  -30.2019  -22.1755   18.7704 C   0  0  0  0  0  0  0  0  0  0  0  0
  -28.7145  -21.8702   18.6272 C   0  0  0  0  0  0  0  0  0  0  0  0
  -29.7551  -12.6809   18.6832 C   0  0  0  0  0  0  0  0  0  0  0  0
  -23.9206  -26.6836   28.9742 C   0  0  0  0  0  0  0  0  0  0  0  0
  -30.5572  -22.6087   20.1915 C   0  0  0  0  0  0  0  0  0  0  0  0
  -28.3143  -12.2950   19.0144 C   0  0  0  0  0  0  0  0  0  0  0  0
  -28.2404  -20.8509   19.6623 C   0  0  0  0  0  0  0  0  0  0  0  0
  -30.5572  -12.9576   19.9491 C   0  0  0  0  0  0  0  0  0  0  0  0
  -28.5101  -13.6195   21.1690 C   0  0  0  0  0  0  0  0  0  0  0  0
  -24.5818  -25.3169   28.7589 C   0  0  1  0  0  0  0  0  0  0  0  0
  -27.8494  -25.8421   26.8934 C   0  0  1  0  0  0  0  0  0  0  0  0
  -30.0862  -21.6082   21.2619 C   0  0  1  0  0  0  0  0  0  0  0  0
  -27.6559  -13.3507   19.9188 C   0  0  2  0  0  0  0  0  0  0  0  0
  -28.5943  -21.2727   21.0911 C   0  0  1  0  0  0  0  0  0  1  0  0
  -35.8437  -18.1746   19.2084 C   0  0  0  0  0  0  0  0  0  0  0  0
  -33.0896  -23.6210   23.8924 C   0  0  0  0  0  0  0  0  0  0  0  0
  -31.8165  -31.4145   23.2582 C   0  0  0  0  0  0  0  0  0  0  0  0
  -30.5087  -19.3726   22.3429 C   0  0  0  0  0  0  0  0  0  0  0  0
  -25.7456  -29.5773   25.1662 C   0  0  0  0  0  0  0  0  0  0  0  0
  -27.2003  -31.1107   23.8242 C   0  0  0  0  0  0  0  0  0  0  0  0
  -27.4170  -31.0457   26.3085 C   0  0  0  0  0  0  0  0  0  0  0  0
  -32.7503  -13.8915   20.7079 C   0  0  0  0  0  0  0  0  0  0  0  0
  -32.9951  -27.8614   23.9387 C   0  0  0  0  0  0  0  0  0  0  0  0
  -32.7488  -22.9118   22.5894 C   0  0  0  0  0  0  0  0  0  0  0  0
  -33.0268  -17.0342   21.0281 C   0  0  0  0  0  0  0  0  0  0  0  0
  -33.8666  -18.2138   21.5364 C   0  0  0  0  0  0  0  0  0  0  0  0
  -32.6628  -21.3985   22.7476 C   0  0  0  0  0  0  0  0  0  0  0  0
  -32.7616  -15.9489   22.0693 C   0  0  0  0  0  0  0  0  0  0  0  0
  -28.2729  -29.1009   24.9384 C   0  0  1  0  0  0  0  0  0  0  0  0
  -31.8036  -30.0567   23.9430 C   0  0  2  0  0  0  0  0  0  0  0  0
  -30.9502  -20.3442   21.2630 C   0  0  2  0  0  0  0  0  0  0  0  0
  -27.1602  -30.1805   25.0554 C   0  0  0  0  0  0  0  0  0  0  0  0
  -25.9162  -11.6748   20.4163 N   0  0  0  0  0  0  0  0  0  0  0  0
  -34.0266  -19.2829   20.5666 N   0  0  0  0  0  0  0  0  0  0  0  0
  -26.2309  -12.9742   20.2802 N   0  0  0  0  0  0  0  0  0  0  0  0
  -34.7547  -20.4099   18.8771 N   0  3  0  0  0  0  0  0  0  0  0  0
  -28.0638  -26.7897   25.7978 N   0  0  0  0  0  0  0  0  0  0  0  0
  -29.8916  -13.9463   20.8079 N   0  0  0  0  0  0  0  0  0  0  0  0
  -25.3247  -15.1595   20.3985 N   0  0  0  0  0  0  0  0  0  0  0  0
  -21.7961  -12.5142   21.3721 N   0  0  0  0  0  0  0  0  0  0  0  0
  -25.9661  -25.4808   28.3700 N   0  0  0  0  0  0  0  0  0  0  0  0
  -29.6252  -29.6427   24.8593 N   0  0  0  0  0  0  0  0  0  0  0  0
  -32.3591  -20.7306   21.5007 N   0  0  3  0  0  0  0  0  0  0  0  0
  -31.9953  -14.8347   21.5296 N   0  0  0  0  0  0  0  0  0  0  0  0
  -32.8790  -29.2174   23.3430 N   0  3  0  0  0  0  0  0  0  0  0  0
  -22.4727  -14.6873   21.0913 O   0  0  0  0  0  0  0  0  0  0  0  0
  -25.6315  -25.7832   26.0855 O   0  0  0  0  0  0  0  0  0  0  0  0
  -28.4501  -28.5766   27.2449 O   0  0  0  0  0  0  0  0  0  0  0  0
  -30.1674  -28.6769   22.8221 O   0  0  0  0  0  0  0  0  0  0  0  0
  -30.0033  -15.6934   22.3093 O   0  0  0  0  0  0  0  0  0  0  0  0
  -21.8228   -6.9491   21.6251 O   0  0  0  0  0  0  0  0  0  0  0  0
  -27.8339  -22.4329   21.4369 O   0  0  0  0  0  0  0  0  0  1  0  0
  -22.6143   -2.8083   18.0711 F   0  0  0  0  0  0  0  0  0  0  0  0
  -19.7152   -5.9036   20.1734 F   0  0  0  0  0  0  0  0  0  0  0  0
  1  2  1  0  0  0  0
  1  5  2  0  0  0  0
  2  6  2  0  0  0  0
  3  8  2  0  0  0  0
  3 16  1  0  0  0  0
  4  9  1  0  0  0  0
  4 16  2  0  0  0  0
  5 18  1  0  0  0  0
  6 20  1  0  0  0  0
  7 10  2  0  0  0  0
  7 19  1  0  0  0  0
  8 22  1  0  0  0  0
  9 22  2  0  0  0  0
 10 23  1  0  0  0  0
 11 12  2  0  0  0  0
 11 24  1  0  0  0  0
 12 25  1  0  0  0  0
 13 21  1  0  0  0  0
 13 23  2  0  0  0  0
 14 25  2  0  0  0  0
 14 26  1  0  0  0  0
 15 28  2  0  0  0  0
 15 75  1  0  0  0  0
 16 27  1  0  0  0  0
 17 27  1  0  0  0  0
 17 29  2  0  0  0  0
 17 31  1  0  0  0  0
 18 20  2  0  0  0  0
 18 36  1  0  0  0  0
 19 21  2  0  0  0  0
 19 37  1  0  0  0  0
 20 49  1  0  0  0  0
 21 38  1  0  0  0  0
 22 90  1  0  0  0  0
 23 91  1  0  0  0  0
 24 26  2  0  0  0  0
 24 90  1  0  0  0  0
 25 92  1  0  0  0  0
 26 93  1  0  0  0  0
 27 72  2  0  0  0  0
 28 73  1  0  0  0  0
 28 82  1  0  0  0  0
 29 74  1  0  0  0  0
 29 78  1  0  0  0  0
 30 54  1  0  0  0  0
 30 73  1  0  0  0  0
 30 75  2  0  0  0  0
 31 79  1  0  0  0  0
 31 85  2  0  0  0  0
 32 50  1  0  0  0  0
 32 80  1  0  0  0  0
 32 86  2  0  0  0  0
 33 68  1  0  0  0  0
 33 76  1  0  0  0  0
 33 87  2  0  0  0  0
 34 69  1  0  0  0  0
 34 81  1  0  0  0  0
 34 88  2  0  0  0  0
 35 77  1  0  0  0  0
 35 83  1  0  0  0  0
 35 89  2  0  0  0  0
 36 39  1  0  0  0  0
 37 50  1  0  0  0  0
 38 76  1  0  0  0  0
 39 43  1  0  0  0  0
 40 41  1  0  0  0  0
 40 44  1  0  0  0  0
 41 46  1  0  0  0  0
 42 45  1  0  0  0  0
 42 47  1  0  0  0  0
 43 49  1  0  0  0  0
 44 51  1  0  0  0  0
 45 52  1  0  0  0  0
 46 53  1  0  0  0  0
 47 77  1  0  0  0  0
 48 52  1  0  0  0  0
 48 77  1  0  0  0  0
 49 80  1  0  0  0  0
 50 76  1  0  0  0  0
 51 53  1  0  0  0  0
 51 70  1  0  0  0  0
 52 74  1  0  0  0  0
 53 91  1  0  0  0  0
 55 63  1  0  0  0  0
 56 69  1  0  0  0  0
 57 70  1  0  0  0  0
 58 71  1  0  0  0  0
 59 71  1  0  0  0  0
 60 71  1  0  0  0  0
 61 83  1  0  0  0  0
 62 84  1  0  0  0  0
 63 66  1  0  0  0  0
 64 65  1  0  0  0  0
 64 67  1  0  0  0  0
 65 73  1  0  0  0  0
 66 82  1  0  0  0  0
 67 83  1  0  0  0  0
 68 71  1  0  0  0  0
 68 81  1  0  0  0  0
 69 84  1  0  0  0  0
 70 82  1  0  0  0  0
 72 74  1  0  0  0  0
M  CHG  2  75   1  84   1
M  ISO  4  35 100  53 101  83 100  91 101
M  END
> <Batch ID>
0026

> <Smiles>
CCCN(c1cnc(C)n1CCC[100N:0](C)[100C:0](=O)N1CCCC(n2nc(-c3ccc(Oc4ccc(F)cc4F)cc3)c(C(N)=O)c2N)C1)C(C)C1CCCC[101CH:1]1[101O:1]c1ccc2c(c1)CN(C(=O)C(NC(=O)C(C)NC)C(C)(C)C)C(C(=O)NC1CCCc3ccccc31)C2

> <Shape>
0.198

> <Color>
0.172

> <Negative vol penalty>
0.000

$$$$

  -OEChem-04052316273D

 87 96  0     1  0  0  0  0  0999 V2000
  -30.1280  -28.8403   14.6123 C   0  0  0  0  0  0  0  0  0  0  0  0
  -29.7083  -27.6797   15.2544 C   0  0  0  0  0  0  0  0  0  0  0  0
  -23.6926   -9.8575   22.9240 C   0  0  0  0  0  0  0  0  0  0  0  0
  -23.7866  -10.0924   20.5212 C   0  0  0  0  0  0  0  0  0  0  0  0
  -30.0010  -30.0735   15.2504 C   0  0  0  0  0  0  0  0  0  0  0  0
  -29.1623  -27.7515   16.5355 C   0  0  0  0  0  0  0  0  0  0  0  0
  -24.6982  -24.2468   18.8364 C   0  0  0  0  0  0  0  0  0  0  0  0
  -22.8090   -8.7873   22.7848 C   0  0  0  0  0  0  0  0  0  0  0  0
  -22.9030   -9.0221   20.3821 C   0  0  0  0  0  0  0  0  0  0  0  0
  -24.7191  -23.1194   19.6563 C   0  0  0  0  0  0  0  0  0  0  0  0
  -20.8102   -5.7625   23.0507 C   0  0  0  0  0  0  0  0  0  0  0  0
  -21.0393   -4.6271   23.8279 C   0  0  0  0  0  0  0  0  0  0  0  0
  -24.3630  -24.5231   21.5855 C   0  0  0  0  0  0  0  0  0  0  0  0
  -23.2094   -4.3612   22.7997 C   0  0  0  0  0  0  0  0  0  0  0  0
  -24.1814  -10.5101   21.7922 C   0  0  0  0  0  0  0  0  0  0  0  0
  -26.3615  -11.5986   22.5471 C   0  0  0  0  0  0  0  0  0  0  0  0
  -29.4443  -30.1615   16.5361 C   0  0  0  0  0  0  0  0  0  0  0  0
  -24.5201  -25.5241   19.3871 C   0  0  0  0  0  0  0  0  0  0  0  0
  -29.0290  -28.9868   17.1919 C   0  0  0  0  0  0  0  0  0  0  0  0
  -24.3376  -25.6649   20.7702 C   0  0  0  0  0  0  0  0  0  0  0  0
  -22.4142   -8.3696   21.5139 C   0  0  0  0  0  0  0  0  0  0  0  0
  -24.5544  -23.2577   21.0314 C   0  0  0  0  0  0  0  0  0  0  0  0
  -21.7807   -6.1973   22.1480 C   0  0  0  0  0  0  0  0  0  0  0  0
  -22.2389   -3.9265   23.7024 C   0  0  0  0  0  0  0  0  0  0  0  0
  -22.9803   -5.4966   22.0225 C   0  0  0  0  0  0  0  0  0  0  0  0
  -25.0938  -11.6161   21.9353 C   0  0  0  0  0  0  0  0  0  0  0  0
  -28.8724  -20.2184   18.5694 C   0  0  0  0  0  0  0  0  0  0  0  0
  -29.4455  -21.4158   18.1954 C   0  0  0  0  0  0  0  0  0  0  0  0
  -26.8200  -12.8874   22.4241 C   0  0  0  0  0  0  0  0  0  0  0  0
  -29.1539  -21.0864   20.5637 C   0  0  0  0  0  0  0  0  0  0  0  0
  -27.0621  -10.5142   23.1708 C   0  0  0  0  0  0  0  0  0  0  0  0
  -26.2648  -28.1784   19.5067 C   0  0  0  0  0  0  0  0  0  0  0  0
  -23.5854  -29.4140   20.8545 C   0  0  0  0  0  0  0  0  0  0  0  0
  -21.1203  -28.3518   23.2654 C   0  0  0  0  0  0  0  0  0  0  0  0
  -27.5436  -17.2093   18.9024 C   0  0  0  0  0  0  0  0  0  0  0  0
  -29.3710  -31.5115   17.2045 C   0  0  0  0  0  0  0  0  0  0  0  0
  -24.4732  -26.7277   18.4862 C   0  0  0  0  0  0  0  0  0  0  0  0
  -24.1228  -27.0120   21.4087 C   0  0  0  0  0  0  0  0  0  0  0  0
  -28.4371  -31.5435   18.4116 C   0  0  0  0  0  0  0  0  0  0  0  0
  -24.4539  -17.1161   21.0087 C   0  0  0  0  0  0  0  0  0  0  0  0
  -28.6888  -30.3393   19.3134 C   0  0  0  0  0  0  0  0  0  0  0  0
  -24.4296  -15.6464   21.4257 C   0  0  0  0  0  0  0  0  0  0  0  0
  -29.1626  -19.9806   22.9282 C   0  0  0  0  0  0  0  0  0  0  0  0
  -25.1344  -17.2950   19.6570 C   0  0  0  0  0  0  0  0  0  0  0  0
  -26.5025  -15.2659   20.0141 C   0  0  0  0  0  0  0  0  0  0  0  0
  -27.7078  -19.5611   23.0999 C   0  0  0  0  0  0  0  0  0  0  0  0
  -27.8674  -21.9321   22.5663 C   0  0  0  0  0  0  0  0  0  0  0  0
  -28.4089  -29.0266   18.5717 C   0  0  1  0  0  0  0  0  0  0  0  0
  -29.1425  -21.2505   22.0741 C   0  0  2  0  0  0  0  0  0  0  0  0
  -24.7991  -28.0298   19.2112 C   0  0  1  0  0  0  0  0  0  0  0  0
  -25.8422  -15.0393   21.3843 C   0  0  2  0  0  0  0  0  0  0  0  0
  -29.7677  -21.9378   16.8521 C   0  0  0  0  0  0  0  0  0  0  0  0
  -18.7172  -29.0190   23.5439 C   0  0  0  0  0  0  0  0  0  0  0  0
  -24.8358  -19.8688   23.6625 C   0  0  0  0  0  0  0  0  0  0  0  0
  -24.6837  -31.4561   22.8378 C   0  0  0  0  0  0  0  0  0  0  0  0
  -22.6845  -31.0250   24.2820 C   0  0  0  0  0  0  0  0  0  0  0  0
  -22.3859  -31.9585   21.9880 C   0  0  0  0  0  0  0  0  0  0  0  0
  -26.0150  -19.0722   18.1324 C   0  0  0  0  0  0  0  0  0  0  0  0
  -20.2027  -25.5417   23.1220 C   0  0  0  0  0  0  0  0  0  0  0  0
  -28.4349  -19.1419   17.6572 C   0  0  0  0  0  0  0  0  0  0  0  0
  -25.0533  -22.3369   23.1666 C   0  0  0  0  0  0  0  0  0  1  0  0
  -23.0559  -29.5362   22.2629 C   0  0  1  0  0  0  0  0  0  0  0  0
  -19.6757  -27.9793   22.9843 C   0  0  2  0  0  0  0  0  0  0  0  0
  -25.7593  -21.0761   23.6525 C   0  0  2  0  0  0  0  0  0  0  0  0
  -23.2197  -30.9726   22.8351 C   0  0  0  0  0  0  0  0  0  0  0  0
  -24.7677  -12.8206   21.4591 N   0  0  0  0  0  0  0  0  0  0  0  0
  -28.7048  -20.0276   19.9271 N   0  0  0  0  0  0  0  0  0  0  0  0
  -25.8371  -13.5720   21.7717 N   0  0  0  0  0  0  0  0  0  0  0  0
  -24.0911  -28.1592   20.4864 N   0  0  0  0  0  0  0  0  0  0  0  0
  -26.4686  -16.6806   19.6358 N   0  0  0  0  0  0  0  0  0  0  0  0
  -27.9639  -13.4907   22.8114 N   0  0  0  0  0  0  0  0  0  0  0  0
  -26.4465   -9.2558   23.2104 N   0  0  0  0  0  0  0  0  0  0  0  0
  -26.9843  -28.7837   18.4941 N   0  0  0  0  0  0  0  0  0  0  0  0
  -21.6766  -29.0626   22.2230 N   0  0  0  0  0  0  0  0  0  0  0  0
  -27.3041  -18.3856   18.1760 N   0  0  0  0  0  0  0  0  0  0  0  0
  -26.8975  -20.7845   22.7296 N   0  3  2  0  0  0  0  0  0  0  0  0
  -19.3514  -26.6615   23.5999 N   0  3  0  0  0  0  0  0  0  0  0  0
  -28.1934  -10.6609   23.6926 O   0  0  0  0  0  0  0  0  0  0  0  0
  -26.7097  -27.7753   20.5750 O   0  0  0  0  0  0  0  0  0  0  0  0
  -23.5449  -30.3937   20.1061 O   0  0  0  0  0  0  0  0  0  0  0  0
  -21.6964  -28.0461   24.3072 O   0  0  0  0  0  0  0  0  0  0  0  0
  -28.6562  -16.6671   18.9054 O   0  0  0  0  0  0  0  0  0  0  0  0
  -21.5521   -7.3251   21.3777 O   0  0  0  0  0  0  0  0  0  0  0  0
  -24.5750  -22.1589   21.8340 O   0  0  0  0  0  0  0  0  0  1  0  0
  -22.4594   -2.8371   24.4499 F   0  0  0  0  0  0  0  0  0  0  0  0
  -23.9169   -5.9102   21.1579 F   0  0  0  0  0  0  0  0  0  0  0  0
  -29.7909  -22.3493   19.5920 S   0  0  0  0  0  0  0  0  0  0  0  0
  1  2  1  0  0  0  0
  1  5  2  0  0  0  0
  2  6  2  0  0  0  0
  3  8  2  0  0  0  0
  3 15  1  0  0  0  0
  4  9  1  0  0  0  0
  4 15  2  0  0  0  0
  5 17  1  0  0  0  0
  6 19  1  0  0  0  0
  7 10  2  0  0  0  0
  7 18  1  0  0  0  0
  8 21  1  0  0  0  0
  9 21  2  0  0  0  0
 10 22  1  0  0  0  0
 11 12  2  0  0  0  0
 11 23  1  0  0  0  0
 12 24  1  0  0  0  0
 13 20  1  0  0  0  0
 13 22  2  0  0  0  0
 14 24  2  0  0  0  0
 14 25  1  0  0  0  0
 15 26  1  0  0  0  0
 16 26  1  0  0  0  0
 16 29  2  0  0  0  0
 16 31  1  0  0  0  0
 17 19  2  0  0  0  0
 17 36  1  0  0  0  0
 18 20  2  0  0  0  0
 18 37  1  0  0  0  0
 19 48  1  0  0  0  0
 20 38  1  0  0  0  0
 21 83  1  0  0  0  0
 22 84  1  0  0  0  0
 23 25  2  0  0  0  0
 23 83  1  0  0  0  0
 24 85  1  0  0  0  0
 25 86  1  0  0  0  0
 26 66  2  0  0  0  0
 27 28  2  0  0  0  0
 27 60  1  0  0  0  0
 27 67  1  0  0  0  0
 28 52  1  0  0  0  0
 28 87  1  0  0  0  0
 29 68  1  0  0  0  0
 29 71  1  0  0  0  0
 30 49  1  0  0  0  0
 30 67  2  0  0  0  0
 30 87  1  0  0  0  0
 31 72  1  0  0  0  0
 31 78  2  0  0  0  0
 32 50  1  0  0  0  0
 32 73  1  0  0  0  0
 32 79  2  0  0  0  0
 33 62  1  0  0  0  0
 33 69  1  0  0  0  0
 33 80  2  0  0  0  0
 34 63  1  0  0  0  0
 34 74  1  0  0  0  0
 34 81  2  0  0  0  0
 35 70  1  0  0  0  0
 35 75  1  0  0  0  0
 35 82  2  0  0  0  0
 36 39  1  0  0  0  0
 37 50  1  0  0  0  0
 38 69  1  0  0  0  0
 39 41  1  0  0  0  0
 40 42  1  0  0  0  0
 40 44  1  0  0  0  0
 41 48  1  0  0  0  0
 42 51  1  0  0  0  0
 43 46  1  0  0  0  0
 43 49  1  0  0  0  0
 44 70  1  0  0  0  0
 45 51  1  0  0  0  0
 45 70  1  0  0  0  0
 46 76  1  0  0  0  0
 47 49  1  0  0  0  0
 47 76  1  0  0  0  0
 48 73  1  0  0  0  0
 50 69  1  0  0  0  0
 51 68  1  0  0  0  0
 53 63  1  0  0  0  0
 54 64  1  0  0  0  0
 55 65  1  0  0  0  0
 56 65  1  0  0  0  0
 57 65  1  0  0  0  0
 58 75  1  0  0  0  0
 59 77  1  0  0  0  0
 60 75  1  0  0  0  0
 61 64  1  0  0  0  0
 61 84  1  0  0  0  0
 62 65  1  0  0  0  0
 62 74  1  0  0  0  0
 63 77  1  0  0  0  0
 64 76  1  0  0  0  0
 66 68  1  0  0  0  0
M  CHG  2  76   1  77   1
M  ISO  4  35 100  61 101  75 100  84 101
M  END
> <Batch ID>
0026

> <Smiles>
CNC(C)C(=O)NC(C(=O)N1Cc2cc([101O:1][101CH2:1]C(C)N3CCC(c4nc(C[100N:0](C)[100C:0](=O)N5CCCC(n6nc(-c7ccc(Oc8ccc(F)cc8F)cc7)c(C(N)=O)c6N)C5)c(C)s4)C3)ccc2CC1C(=O)NC1CCCc2ccccc21)C(C)(C)C

> <Shape>
0.240

> <Color>
0.069

> <Negative vol penalty>
0.000

$$$$

  -OEChem-04052316273D

 84 92  0     1  0  0  0  0  0999 V2000
  -17.7542  -31.3373   26.9773 C   0  0  0  0  0  0  0  0  0  0  0  0
  -18.0704  -30.0669   27.4478 C   0  0  0  0  0  0  0  0  0  0  0  0
  -30.4999  -19.4199   19.7137 C   0  0  0  0  0  0  0  0  0  0  0  0
  -28.2209  -19.7005   20.4650 C   0  0  0  0  0  0  0  0  0  0  0  0
  -17.5991  -31.5540   25.6087 C   0  0  0  0  0  0  0  0  0  0  0  0
  -18.2308  -29.0121   26.5499 C   0  0  0  0  0  0  0  0  0  0  0  0
  -21.9903  -22.9837   25.6331 C   0  0  0  0  0  0  0  0  0  0  0  0
  -30.4884  -20.7147   19.1950 C   0  0  0  0  0  0  0  0  0  0  0  0
  -28.2094  -20.9953   19.9463 C   0  0  0  0  0  0  0  0  0  0  0  0
  -21.8042  -21.6293   25.3599 C   0  0  0  0  0  0  0  0  0  0  0  0
  -31.1800  -24.0746   17.9919 C   0  0  0  0  0  0  0  0  0  0  0  0
  -32.2887  -24.8832   18.2417 C   0  0  0  0  0  0  0  0  0  0  0  0
  -21.5902  -22.1385   23.0117 C   0  0  0  0  0  0  0  0  0  0  0  0
  -21.6906  -13.8440   22.5322 C   0  0  0  0  0  0  0  0  0  0  0  0
  -21.4897  -15.2057   20.5467 C   0  0  0  0  0  0  0  0  0  0  0  0
  -31.9011  -24.6808   20.6178 C   0  0  0  0  0  0  0  0  0  0  0  0
  -29.3662  -18.9128   20.3486 C   0  0  0  0  0  0  0  0  0  0  0  0
  -29.7564  -17.1820   22.1816 C   0  0  0  0  0  0  0  0  0  0  0  0
  -17.7671  -30.5035   24.6929 C   0  0  0  0  0  0  0  0  0  0  0  0
  -21.9669  -23.9285   24.5971 C   0  0  0  0  0  0  0  0  0  0  0  0
  -18.0765  -29.2146   25.1679 C   0  0  0  0  0  0  0  0  0  0  0  0
  -21.7789  -23.5040   23.2741 C   0  0  0  0  0  0  0  0  0  0  0  0
  -21.1667  -14.9609   21.8814 C   0  0  0  0  0  0  0  0  0  0  0  0
  -22.8606  -13.2166   20.5137 C   0  0  0  0  0  0  0  0  0  0  0  0
  -29.3431  -21.5024   19.3113 C   0  0  0  0  0  0  0  0  0  0  0  0
  -21.6012  -21.2068   24.0495 C   0  0  0  0  0  0  0  0  0  0  0  0
  -30.4317  -23.5692   19.0551 C   0  0  0  0  0  0  0  0  0  0  0  0
  -32.6494  -25.1863   19.5546 C   0  0  0  0  0  0  0  0  0  0  0  0
  -30.7923  -23.8723   20.3680 C   0  0  0  0  0  0  0  0  0  0  0  0
  -22.5376  -12.9719   21.8484 C   0  0  0  0  0  0  0  0  0  0  0  0
  -22.3367  -14.3335   19.8629 C   0  0  0  0  0  0  0  0  0  0  0  0
  -29.3773  -17.5752   20.8841 C   0  0  0  0  0  0  0  0  0  0  0  0
  -29.5903  -15.8186   22.1896 C   0  0  0  0  0  0  0  0  0  0  0  0
  -30.2175  -17.9781   23.2813 C   0  0  0  0  0  0  0  0  0  0  0  0
  -20.1431  -26.4328   23.8859 C   0  0  0  0  0  0  0  0  0  0  0  0
  -22.3287  -26.8620   21.5277 C   0  0  0  0  0  0  0  0  0  0  0  0
  -24.7022  -25.4932   19.4932 C   0  0  0  0  0  0  0  0  0  0  0  0
  -26.1242  -12.1147   19.0086 C   0  0  0  0  0  0  0  0  0  0  0  0
  -17.5429  -30.7758   23.2266 C   0  0  0  0  0  0  0  0  0  0  0  0
  -22.1960  -25.3828   24.9052 C   0  0  0  0  0  0  0  0  0  0  0  0
  -21.7654  -24.4760   22.1237 C   0  0  0  0  0  0  0  0  0  0  0  0
  -18.0984  -29.6864   22.3128 C   0  0  0  0  0  0  0  0  0  0  0  0
  -29.6728  -12.0194   19.2827 C   0  0  0  0  0  0  0  0  0  0  0  0
  -17.7032  -28.3057   22.8269 C   0  0  0  0  0  0  0  0  0  0  0  0
  -30.0337  -13.3970   19.8413 C   0  0  0  0  0  0  0  0  0  0  0  0
  -28.5000  -12.0953   18.3076 C   0  0  0  0  0  0  0  0  0  0  0  0
  -27.6566  -14.1390   19.3965 C   0  0  0  0  0  0  0  0  0  0  0  0
  -18.2829  -28.0504   24.2235 C   0  0  1  0  0  0  0  0  0  0  0  0
  -21.6401  -26.3154   23.8335 C   0  0  1  0  0  0  0  0  0  0  0  0
  -28.7978  -14.1057   20.4275 C   0  0  2  0  0  0  0  0  0  0  0  0
  -26.5395  -25.4115   17.7858 C   0  0  0  0  0  0  0  0  0  0  0  0
  -20.0028  -26.9170   19.5536 C   0  0  0  0  0  0  0  0  0  0  0  0
  -21.6531  -26.5532   17.7063 C   0  0  0  0  0  0  0  0  0  0  0  0
  -21.7881  -28.6111   19.1097 C   0  0  0  0  0  0  0  0  0  0  0  0
  -26.7893  -25.9131   21.5491 C   0  0  0  0  0  0  0  0  0  0  0  0
  -20.2515  -15.9041   22.6209 C   0  0  0  0  0  0  0  0  0  0  0  0
  -23.7710  -12.2801   19.7794 C   0  0  0  0  0  0  0  0  0  0  0  0
  -20.9841  -17.0477   23.3314 C   0  0  0  0  0  0  0  0  0  0  0  0
  -20.0479  -17.9483   24.1385 C   0  0  0  0  0  0  0  0  0  0  0  0
  -20.8045  -19.0942   24.7966 C   0  0  0  0  0  0  0  0  0  1  0  0
  -22.4697  -26.3876   20.1015 C   0  0  1  0  0  0  0  0  0  0  0  0
  -26.1106  -25.9407   19.1455 C   0  0  2  0  0  0  0  0  0  0  0  0
  -21.4767  -27.0989   19.1395 C   0  0  0  0  0  0  0  0  0  0  0  0
  -28.9990  -16.5448   20.1230 N   0  0  0  0  0  0  0  0  0  0  0  0
  -29.1396  -15.4908   20.9448 N   0  0  0  0  0  0  0  0  0  0  0  0
  -21.9876  -25.8879   22.4767 N   0  0  0  0  0  0  0  0  0  0  0  0
  -27.3601  -12.7771   18.9254 N   0  0  0  0  0  0  0  0  0  0  0  0
  -29.7873  -14.8803   23.1399 N   0  0  0  0  0  0  0  0  0  0  0  0
  -30.3298  -19.3636   23.1024 N   0  0  0  0  0  0  0  0  0  0  0  0
  -19.6875  -27.7136   24.1339 N   0  0  0  0  0  0  0  0  0  0  0  0
  -23.8742  -26.5656   19.7491 N   0  0  0  0  0  0  0  0  0  0  0  0
  -25.0982  -12.8297   19.6144 N   0  0  0  0  0  0  0  0  0  0  0  0
  -27.0774  -25.4491   20.1675 N   0  3  0  0  0  0  0  0  0  0  0  0
  -30.5364  -17.4737   24.3847 O   0  0  0  0  0  0  0  0  0  0  0  0
  -19.4524  -25.4355   23.7128 O   0  0  0  0  0  0  0  0  0  0  0  0
  -22.5212  -28.0516   21.7912 O   0  0  0  0  0  0  0  0  0  0  0  0
  -24.3691  -24.3108   19.5302 O   0  0  0  0  0  0  0  0  0  0  0  0
  -25.9496  -10.9690   18.5800 O   0  0  0  0  0  0  0  0  0  0  0  0
  -29.3316  -22.7659   18.8055 O   0  0  0  0  0  0  0  0  0  0  0  0
  -21.4186  -19.8854   23.7801 O   0  0  0  0  0  0  0  0  0  1  0  0
  -33.7151  -25.9615   19.7943 F   0  0  0  0  0  0  0  0  0  0  0  0
  -30.0780  -23.3886   21.3935 F   0  0  0  0  0  0  0  0  0  0  0  0
  -23.1642  -11.6016   22.6925 Cl  0  0  0  0  0  0  0  0  0  0  0  0
  -22.7111  -14.6747   18.2118 Cl  0  0  0  0  0  0  0  0  0  0  0  0
  1  2  1  0  0  0  0
  1  5  2  0  0  0  0
  2  6  2  0  0  0  0
  3  8  2  0  0  0  0
  3 17  1  0  0  0  0
  4  9  1  0  0  0  0
  4 17  2  0  0  0  0
  5 19  1  0  0  0  0
  6 21  1  0  0  0  0
  7 10  2  0  0  0  0
  7 20  1  0  0  0  0
  8 25  1  0  0  0  0
  9 25  2  0  0  0  0
 10 26  1  0  0  0  0
 11 12  2  0  0  0  0
 11 27  1  0  0  0  0
 12 28  1  0  0  0  0
 13 22  1  0  0  0  0
 13 26  2  0  0  0  0
 14 23  1  0  0  0  0
 14 30  2  0  0  0  0
 15 23  2  0  0  0  0
 15 31  1  0  0  0  0
 16 28  2  0  0  0  0
 16 29  1  0  0  0  0
 17 32  1  0  0  0  0
 18 32  1  0  0  0  0
 18 33  2  0  0  0  0
 18 34  1  0  0  0  0
 19 21  2  0  0  0  0
 19 39  1  0  0  0  0
 20 22  2  0  0  0  0
 20 40  1  0  0  0  0
 21 48  1  0  0  0  0
 22 41  1  0  0  0  0
 23 56  1  0  0  0  0
 24 30  1  0  0  0  0
 24 31  2  0  0  0  0
 24 57  1  0  0  0  0
 25 79  1  0  0  0  0
 26 80  1  0  0  0  0
 27 29  2  0  0  0  0
 27 79  1  0  0  0  0
 28 81  1  0  0  0  0
 29 82  1  0  0  0  0
 30 83  1  0  0  0  0
 31 84  1  0  0  0  0
 32 64  2  0  0  0  0
 33 65  1  0  0  0  0
 33 68  1  0  0  0  0
 34 69  1  0  0  0  0
 34 74  2  0  0  0  0
 35 49  1  0  0  0  0
 35 70  1  0  0  0  0
 35 75  2  0  0  0  0
 36 61  1  0  0  0  0
 36 66  1  0  0  0  0
 36 76  2  0  0  0  0
 37 62  1  0  0  0  0
 37 71  1  0  0  0  0
 37 77  2  0  0  0  0
 38 67  1  0  0  0  0
 38 72  1  0  0  0  0
 38 78  2  0  0  0  0
 39 42  1  0  0  0  0
 40 49  1  0  0  0  0
 41 66  1  0  0  0  0
 42 44  1  0  0  0  0
 43 45  1  0  0  0  0
 43 46  1  0  0  0  0
 44 48  1  0  0  0  0
 45 50  1  0  0  0  0
 46 67  1  0  0  0  0
 47 50  1  0  0  0  0
 47 67  1  0  0  0  0
 48 70  1  0  0  0  0
 49 66  1  0  0  0  0
 50 65  1  0  0  0  0
 51 62  1  0  0  0  0
 52 63  1  0  0  0  0
 53 63  1  0  0  0  0
 54 63  1  0  0  0  0
 55 73  1  0  0  0  0
 56 58  1  0  0  0  0
 57 72  1  0  0  0  0
 58 59  1  0  0  0  0
 59 60  1  0  0  0  0
 60 80  1  0  0  0  0
 61 63  1  0  0  0  0
 61 71  1  0  0  0  0
 62 73  1  0  0  0  0
 64 65  1  0  0  0  0
M  CHG  1  73   1
M  ISO  4  38 100  60 101  72 100  80 101
M  END
> <Batch ID>
0026

> <Smiles>
CNC(C)C(=O)NC(C(=O)N1Cc2cc([101O:1][101CH2:1]CCCc3cc(Cl)c(C[100NH:0][100C:0](=O)N4CCCC(n5nc(-c6ccc(Oc7ccc(F)cc7F)cc6)c(C(N)=O)c5N)C4)c(Cl)c3)ccc2CC1C(=O)NC1CCCc2ccccc21)C(C)(C)C

> <Shape>
0.224

> <Color>
0.050

> <Negative vol penalty>
0.000

$$$$

  -OEChem-04052316273D

 94103  0     1  0  0  0  0  0999 V2000
  -31.3212  -37.3853   18.3729 C   0  0  0  0  0  0  0  0  0  0  0  0
  -31.3966  -36.0024   18.2405 C   0  0  0  0  0  0  0  0  0  0  0  0
  -24.5058   -9.2068   21.7672 C   0  0  0  0  0  0  0  0  0  0  0  0
  -22.7299  -10.1126   20.4024 C   0  0  0  0  0  0  0  0  0  0  0  0
  -30.7682  -37.9450   19.5239 C   0  0  0  0  0  0  0  0  0  0  0  0
  -30.9200  -35.1786   19.2596 C   0  0  0  0  0  0  0  0  0  0  0  0
  -28.2040  -29.7270   18.6195 C   0  0  0  0  0  0  0  0  0  0  0  0
  -23.5681   -8.4937   22.5141 C   0  0  0  0  0  0  0  0  0  0  0  0
  -21.7922   -9.3995   21.1492 C   0  0  0  0  0  0  0  0  0  0  0  0
  -28.6827  -28.4220   18.7284 C   0  0  0  0  0  0  0  0  0  0  0  0
  -21.7615   -5.6543   22.1872 C   0  0  0  0  0  0  0  0  0  0  0  0
  -22.0435   -4.3195   22.4776 C   0  0  0  0  0  0  0  0  0  0  0  0
  -27.9098  -28.3355   21.0119 C   0  0  0  0  0  0  0  0  0  0  0  0
  -24.2027  -19.3595   18.9761 C   0  0  0  0  0  0  0  0  0  0  0  0
  -21.9768  -18.7583   17.4055 C   0  0  0  0  0  0  0  0  0  0  0  0
  -21.9559   -4.8151   24.8407 C   0  0  0  0  0  0  0  0  0  0  0  0
  -24.0867  -10.0162   20.7114 C   0  0  0  0  0  0  0  0  0  0  0  0
  -25.7253  -10.3208   18.7800 C   0  0  0  0  0  0  0  0  0  0  0  0
  -30.2759  -37.1275   20.5534 C   0  0  0  0  0  0  0  0  0  0  0  0
  -27.5834  -30.3509   19.7113 C   0  0  0  0  0  0  0  0  0  0  0  0
  -30.3612  -35.7279   20.4260 C   0  0  0  0  0  0  0  0  0  0  0  0
  -27.4219  -29.6475   20.9135 C   0  0  0  0  0  0  0  0  0  0  0  0
  -23.2368  -20.3358   18.7326 C   0  0  0  0  0  0  0  0  0  0  0  0
  -22.9428  -17.7820   17.6490 C   0  0  0  0  0  0  0  0  0  0  0  0
  -24.0558  -18.0825   18.4342 C   0  0  0  0  0  0  0  0  0  0  0  0
  -22.2113   -8.5901   22.2052 C   0  0  0  0  0  0  0  0  0  0  0  0
  -28.5382  -27.7271   19.9256 C   0  0  0  0  0  0  0  0  0  0  0  0
  -21.5767   -6.5696   23.2235 C   0  0  0  0  0  0  0  0  0  0  0  0
  -22.1407   -3.8999   23.8043 C   0  0  0  0  0  0  0  0  0  0  0  0
  -21.6739   -6.1499   24.5502 C   0  0  0  0  0  0  0  0  0  0  0  0
  -22.1238  -20.0352   17.9474 C   0  0  0  0  0  0  0  0  0  0  0  0
  -25.0548  -10.7535   19.9398 C   0  0  0  0  0  0  0  0  0  0  0  0
  -26.5299  -11.3786   18.4337 C   0  0  0  0  0  0  0  0  0  0  0  0
  -25.6292   -9.0741   18.0784 C   0  0  0  0  0  0  0  0  0  0  0  0
  -28.2068  -32.9172   21.4802 C   0  0  0  0  0  0  0  0  0  0  0  0
  -25.3210  -32.2320   22.7936 C   0  0  0  0  0  0  0  0  0  0  0  0
  -22.9204  -29.8989   23.4573 C   0  0  0  0  0  0  0  0  0  0  0  0
  -26.2073  -17.2577   19.4526 C   0  0  0  0  0  0  0  0  0  0  0  0
  -29.7300  -37.7788   21.7994 C   0  0  0  0  0  0  0  0  0  0  0  0
  -27.0487  -31.7495   19.5694 C   0  0  0  0  0  0  0  0  0  0  0  0
  -26.7449  -30.2650   22.1088 C   0  0  0  0  0  0  0  0  0  0  0  0
  -28.9061  -36.8335   22.6699 C   0  0  0  0  0  0  0  0  0  0  0  0
  -28.8784  -15.0835   20.3554 C   0  0  0  0  0  0  0  0  0  0  0  0
  -29.6307  -35.5030   22.8471 C   0  0  0  0  0  0  0  0  0  0  0  0
  -28.2638  -13.6867   20.2399 C   0  0  0  0  0  0  0  0  0  0  0  0
  -26.3544  -22.4991   18.4209 C   0  0  0  0  0  0  0  0  0  0  0  0
  -25.1834  -24.2978   19.7591 C   0  0  0  0  0  0  0  0  0  0  0  0
  -27.8737  -16.1028   20.8894 C   0  0  0  0  0  0  0  0  0  0  0  0
  -25.9862  -14.7643   20.0439 C   0  0  0  0  0  0  0  0  0  0  0  0
  -25.1086  -22.3403   17.5588 C   0  0  0  0  0  0  0  0  0  0  0  0
  -23.9450  -24.1284   18.8885 C   0  0  0  0  0  0  0  0  0  0  0  0
  -29.8324  -34.8008   21.4988 C   0  0  1  0  0  0  0  0  0  0  0  0
  -26.8929  -32.4682   20.9060 C   0  0  1  0  0  0  0  0  0  0  0  0
  -26.9413  -13.7166   19.4489 C   0  0  2  0  0  0  0  0  0  0  0  0
  -26.4473  -23.9082   18.9985 C   0  0  0  0  0  0  0  0  0  0  0  0
  -23.9905  -16.9374   14.8692 C   0  0  0  0  0  0  0  0  0  0  0  0
  -28.7703  -22.9478   21.8385 C   0  0  0  0  0  0  0  0  0  0  0  0
  -21.4980  -15.7321   17.6123 C   0  0  0  0  0  0  0  0  0  0  0  0
  -20.6921  -29.6294   24.5797 C   0  0  0  0  0  0  0  0  0  0  0  0
  -26.6916  -32.2741   25.5193 C   0  0  0  0  0  0  0  0  0  0  0  0
  -24.6965  -31.0922   26.4631 C   0  0  0  0  0  0  0  0  0  0  0  0
  -24.4417  -33.3646   25.4661 C   0  0  0  0  0  0  0  0  0  0  0  0
  -21.6142  -29.0886   20.9282 C   0  0  0  0  0  0  0  0  0  0  0  0
  -23.4316  -21.6968   19.3331 C   0  0  0  0  0  0  0  0  0  0  0  0
  -22.7083  -16.4132   15.5042 C   0  0  0  0  0  0  0  0  0  0  0  0
  -27.6502  -22.7739   20.8362 C   0  0  0  0  0  0  0  0  0  0  0  0
  -28.8931  -24.1962   19.2135 C   0  0  0  0  0  0  0  0  0  0  0  0
  -29.0167  -25.6621   18.8474 C   0  0  0  0  0  0  0  0  0  1  0  0
  -22.7597  -16.4227   17.0555 C   0  0  1  0  0  0  0  0  0  0  0  0
  -24.8463  -31.3835   23.9484 C   0  0  1  0  0  0  0  0  0  0  0  0
  -21.4137  -29.9236   23.2737 C   0  0  2  0  0  0  0  0  0  0  0  0
  -25.1835  -32.0173   25.3275 C   0  0  0  0  0  0  0  0  0  0  0  0
  -25.4034  -11.9898   20.3059 N   0  0  0  0  0  0  0  0  0  0  0  0
  -26.3017  -12.3430   19.3708 N   0  0  0  0  0  0  0  0  0  0  0  0
  -26.2445  -31.6371   21.9224 N   0  0  0  0  0  0  0  0  0  0  0  0
  -26.6477  -16.0777   20.0887 N   0  0  0  0  0  0  0  0  0  0  0  0
  -27.4034  -11.5687   17.4221 N   0  0  0  0  0  0  0  0  0  0  0  0
  -24.7536   -8.0964   18.5702 N   0  0  0  0  0  0  0  0  0  0  0  0
  -25.0483  -17.1047   18.6924 N   0  0  0  0  0  0  0  0  0  0  0  0
  -28.6014  -34.1750   21.0658 N   0  0  0  0  0  0  0  0  0  0  0  0
  -23.4225  -31.1542   23.7283 N   0  0  0  0  0  0  0  0  0  0  0  0
  -23.8674  -22.7282   18.3273 N   0  3  0  0  0  0  0  0  0  0  0  0
  -20.9977  -28.9060   22.2674 N   0  3  0  0  0  0  0  0  0  0  0  0
  -27.6085  -23.9753   19.9244 N   0  3  1  0  0  0  0  0  0  0  0  0
  -26.3121   -8.8280   17.0554 O   0  0  0  0  0  0  0  0  0  0  0  0
  -28.8166  -32.1779   22.2439 O   0  0  0  0  0  0  0  0  0  0  0  0
  -24.8829  -33.3780   22.6650 O   0  0  0  0  0  0  0  0  0  0  0  0
  -23.5849  -28.8685   23.3726 O   0  0  0  0  0  0  0  0  0  0  0  0
  -26.8287  -18.3188   19.5513 O   0  0  0  0  0  0  0  0  0  0  0  0
  -21.2960   -7.8942   22.9336 O   0  0  0  0  0  0  0  0  0  0  0  0
  -29.0050  -26.4535   20.0347 O   0  0  0  0  0  0  0  0  0  1  0  0
  -22.4100   -2.6177   24.0831 F   0  0  0  0  0  0  0  0  0  0  0  0
  -21.4962   -7.0243   25.5501 F   0  0  0  0  0  0  0  0  0  0  0  0
  -20.9088  -21.2180   17.6244 Cl  0  0  0  0  0  0  0  0  0  0  0  0
  1  2  1  0  0  0  0
  1  5  2  0  0  0  0
  2  6  2  0  0  0  0
  3  8  2  0  0  0  0
  3 17  1  0  0  0  0
  4  9  1  0  0  0  0
  4 17  2  0  0  0  0
  5 19  1  0  0  0  0
  6 21  1  0  0  0  0
  7 10  2  0  0  0  0
  7 20  1  0  0  0  0
  8 26  1  0  0  0  0
  9 26  2  0  0  0  0
 10 27  1  0  0  0  0
 11 12  2  0  0  0  0
 11 28  1  0  0  0  0
 12 29  1  0  0  0  0
 13 22  1  0  0  0  0
 13 27  2  0  0  0  0
 14 23  2  0  0  0  0
 14 25  1  0  0  0  0
 15 24  1  0  0  0  0
 15 31  2  0  0  0  0
 16 29  2  0  0  0  0
 16 30  1  0  0  0  0
 17 32  1  0  0  0  0
 18 32  1  0  0  0  0
 18 33  2  0  0  0  0
 18 34  1  0  0  0  0
 19 21  2  0  0  0  0
 19 39  1  0  0  0  0
 20 22  2  0  0  0  0
 20 40  1  0  0  0  0
 21 52  1  0  0  0  0
 22 41  1  0  0  0  0
 23 31  1  0  0  0  0
 23 64  1  0  0  0  0
 24 25  2  0  0  0  0
 24 69  1  0  0  0  0
 25 79  1  0  0  0  0
 26 90  1  0  0  0  0
 27 91  1  0  0  0  0
 28 30  2  0  0  0  0
 28 90  1  0  0  0  0
 29 92  1  0  0  0  0
 30 93  1  0  0  0  0
 31 94  1  0  0  0  0
 32 73  2  0  0  0  0
 33 74  1  0  0  0  0
 33 77  1  0  0  0  0
 34 78  1  0  0  0  0
 34 85  2  0  0  0  0
 35 53  1  0  0  0  0
 35 80  1  0  0  0  0
 35 86  2  0  0  0  0
 36 70  1  0  0  0  0
 36 75  1  0  0  0  0
 36 87  2  0  0  0  0
 37 71  1  0  0  0  0
 37 81  1  0  0  0  0
 37 88  2  0  0  0  0
 38 76  1  0  0  0  0
 38 79  1  0  0  0  0
 38 89  2  0  0  0  0
 39 42  1  0  0  0  0
 40 53  1  0  0  0  0
 41 75  1  0  0  0  0
 42 44  1  0  0  0  0
 43 45  1  0  0  0  0
 43 48  1  0  0  0  0
 44 52  1  0  0  0  0
 45 54  1  0  0  0  0
 46 50  1  0  0  0  0
 46 55  1  0  0  0  0
 47 51  1  0  0  0  0
 47 55  1  0  0  0  0
 48 76  1  0  0  0  0
 49 54  1  0  0  0  0
 49 76  1  0  0  0  0
 50 82  1  0  0  0  0
 51 82  1  0  0  0  0
 52 80  1  0  0  0  0
 53 75  1  0  0  0  0
 54 74  1  0  0  0  0
 55 84  1  0  0  0  0
 56 65  1  0  0  0  0
 57 66  1  0  0  0  0
 58 69  1  0  0  0  0
 59 71  1  0  0  0  0
 60 72  1  0  0  0  0
 61 72  1  0  0  0  0
 62 72  1  0  0  0  0
 63 83  1  0  0  0  0
 64 82  1  0  0  0  0
 65 69  1  0  0  0  0
 66 84  1  0  0  0  0
 67 68  1  0  0  0  0
 67 84  1  0  0  0  0
 68 91  1  0  0  0  0
 70 72  1  0  0  0  0
 70 81  1  0  0  0  0
 71 83  1  0  0  0  0
 73 74  1  0  0  0  0
M  CHG  3  82   1  83   1  84   1
M  ISO  4  38 100  68 101  79 100  91 101
M  END
> <Batch ID>
0026

> <Smiles>
CCC(C)c1cc(Cl)c(CN2CCC(N(CC)C[101CH2:1][101O:1]c3ccc4c(c3)CN(C(=O)C(NC(=O)C(C)NC)C(C)(C)C)C(C(=O)NC3CCCc5ccccc53)C4)CC2)cc1[100NH:0][100C:0](=O)N1CCCC(n2nc(-c3ccc(Oc4ccc(F)cc4F)cc3)c(C(N)=O)c2N)C1

> <Shape>
0.244

> <Color>
0.089

> <Negative vol penalty>
0.000

$$$$

  -OEChem-04052316273D

 85 93  0     1  0  0  0  0  0999 V2000
  -30.3591  -34.1568   23.5867 C   0  0  0  0  0  0  0  0  0  0  0  0
  -30.6461  -32.9443   22.9680 C   0  0  0  0  0  0  0  0  0  0  0  0
  -23.2606   -9.8815   21.9017 C   0  0  0  0  0  0  0  0  0  0  0  0
  -23.9454  -11.1382   23.8482 C   0  0  0  0  0  0  0  0  0  0  0  0
  -29.1892  -34.2982   24.3319 C   0  0  0  0  0  0  0  0  0  0  0  0
  -29.7637  -31.8720   23.0949 C   0  0  0  0  0  0  0  0  0  0  0  0
  -28.5165  -27.6114   18.8762 C   0  0  0  0  0  0  0  0  0  0  0  0
  -22.5657   -8.9916   22.7207 C   0  0  0  0  0  0  0  0  0  0  0  0
  -23.2505  -10.2482   24.6672 C   0  0  0  0  0  0  0  0  0  0  0  0
  -28.9839  -26.3112   18.6895 C   0  0  0  0  0  0  0  0  0  0  0  0
  -19.6145   -8.9084   24.3688 C   0  0  0  0  0  0  0  0  0  0  0  0
  -18.3276   -8.5381   23.9785 C   0  0  0  0  0  0  0  0  0  0  0  0
  -27.0557  -25.4563   19.8600 C   0  0  0  0  0  0  0  0  0  0  0  0
  -31.5071  -19.8235   21.0602 C   0  0  0  0  0  0  0  0  0  0  0  0
  -31.8255  -17.4779   20.5770 C   0  0  0  0  0  0  0  0  0  0  0  0
  -19.0226   -6.2263   23.8801 C   0  0  0  0  0  0  0  0  0  0  0  0
  -23.9505  -10.9548   22.4655 C   0  0  0  0  0  0  0  0  0  0  0  0
  -24.1735  -13.0538   21.0330 C   0  0  0  0  0  0  0  0  0  0  0  0
  -28.2873  -33.2301   24.4600 C   0  0  0  0  0  0  0  0  0  0  0  0
  -27.3186  -27.8447   19.5670 C   0  0  0  0  0  0  0  0  0  0  0  0
  -28.5813  -31.9988   23.8436 C   0  0  0  0  0  0  0  0  0  0  0  0
  -26.5739  -26.7602   20.0520 C   0  0  0  0  0  0  0  0  0  0  0  0
  -32.3562  -18.7316   20.8805 C   0  0  0  0  0  0  0  0  0  0  0  0
  -30.1271  -19.6616   20.9365 C   0  0  0  0  0  0  0  0  0  0  0  0
  -30.4456  -17.3160   20.4533 C   0  0  0  0  0  0  0  0  0  0  0  0
  -22.5607   -9.1749   24.1034 C   0  0  0  0  0  0  0  0  0  0  0  0
  -28.2550  -25.2336   19.1839 C   0  0  0  0  0  0  0  0  0  0  0  0
  -20.6055   -7.9377   24.5146 C   0  0  0  0  0  0  0  0  0  0  0  0
  -29.5964  -18.4079   20.6331 C   0  0  0  0  0  0  0  0  0  0  0  0
  -18.0316   -7.1971   23.7342 C   0  0  0  0  0  0  0  0  0  0  0  0
  -20.3096   -6.5967   24.2703 C   0  0  0  0  0  0  0  0  0  0  0  0
  -24.6690  -11.8741   21.6201 C   0  0  0  0  0  0  0  0  0  0  0  0
  -25.2392  -13.5619   20.3311 C   0  0  0  0  0  0  0  0  0  0  0  0
  -22.8668  -13.6382   21.1149 C   0  0  0  0  0  0  0  0  0  0  0  0
  -26.5318  -29.3763   22.2389 C   0  0  0  0  0  0  0  0  0  0  0  0
  -23.5097  -28.6923   21.2791 C   0  0  0  0  0  0  0  0  0  0  0  0
  -21.4327  -26.6947   19.4509 C   0  0  0  0  0  0  0  0  0  0  0  0
  -30.6401  -14.8577   19.9379 C   0  0  0  0  0  0  0  0  0  0  0  0
  -27.0588  -33.4159   25.3148 C   0  0  0  0  0  0  0  0  0  0  0  0
  -26.8145  -29.2517   19.7368 C   0  0  0  0  0  0  0  0  0  0  0  0
  -25.2716  -26.9560   20.7828 C   0  0  0  0  0  0  0  0  0  0  0  0
  -25.9928  -32.3466   25.0899 C   0  0  0  0  0  0  0  0  0  0  0  0
  -29.7201  -11.4992   19.1959 C   0  0  0  0  0  0  0  0  0  0  0  0
  -26.6235  -30.9578   25.0801 C   0  0  0  0  0  0  0  0  0  0  0  0
  -28.2832  -11.3943   19.7121 C   0  0  0  0  0  0  0  0  0  0  0  0
  -30.5841  -12.3786   20.0980 C   0  0  0  0  0  0  0  0  0  0  0  0
  -28.6011  -13.6094   20.8866 C   0  0  0  0  0  0  0  0  0  0  0  0
  -27.6368  -30.8201   23.9375 C   0  0  1  0  0  0  0  0  0  0  0  0
  -25.8432  -29.4016   20.9037 C   0  0  1  0  0  0  0  0  0  0  0  0
  -27.6760  -12.7863   19.9753 C   0  0  2  0  0  0  0  0  0  0  0  0
  -33.8316  -18.9048   21.0128 C   0  0  0  0  0  0  0  0  0  0  0  0
  -28.9769  -20.4405   23.6536 C   0  0  0  0  0  0  0  0  0  0  0  0
  -19.0089  -26.3591   18.8939 C   0  0  0  0  0  0  0  0  0  0  0  0
  -23.0539  -27.4434   24.0255 C   0  0  0  0  0  0  0  0  0  0  0  0
  -21.0207  -26.3149   23.0978 C   0  0  0  0  0  0  0  0  0  0  0  0
  -21.1398  -28.8056   23.1683 C   0  0  0  0  0  0  0  0  0  0  0  0
  -21.9112  -27.1601   16.5676 C   0  0  0  0  0  0  0  0  0  0  0  0
  -27.6867  -18.4467   19.2163 C   0  0  0  0  0  0  0  0  0  0  0  0
  -29.3298  -21.4463   22.5640 C   0  0  0  0  0  0  0  0  0  0  0  0
  -29.4891  -21.9737   20.0964 C   0  0  0  0  0  0  0  0  0  0  0  0
  -28.3665  -23.0033   20.0019 C   0  0  0  0  0  0  0  0  0  1  0  0
  -29.2183  -20.8644   21.1363 C   0  0  1  0  0  0  0  0  0  0  0  0
  -22.5536  -27.5440   21.4945 C   0  0  1  0  0  0  0  0  0  0  0  0
  -20.3122  -27.0258   18.4818 C   0  0  2  0  0  0  0  0  0  0  0  0
  -21.9675  -27.5231   22.9345 C   0  0  0  0  0  0  0  0  0  0  0  0
  -25.9497  -11.6461   21.3173 N   0  0  0  0  0  0  0  0  0  0  0  0
  -26.2681  -12.6894   20.5323 N   0  0  0  0  0  0  0  0  0  0  0  0
  -24.8237  -28.3508   20.9290 N   0  0  0  0  0  0  0  0  0  0  0  0
  -29.9481  -13.6824   20.2992 N   0  0  0  0  0  0  0  0  0  0  0  0
  -25.3873  -14.6653   19.5676 N   0  0  0  0  0  0  0  0  0  0  0  0
  -21.8898  -12.9857   21.8790 N   0  0  0  0  0  0  0  0  0  0  0  0
  -29.9229  -16.0356   20.1447 N   0  0  0  0  0  0  0  0  0  0  0  0
  -26.9537  -30.6167   22.6779 N   0  0  0  0  0  0  0  0  0  0  0  0
  -21.5488  -27.6465   20.4418 N   0  0  0  0  0  0  0  0  0  0  0  0
  -20.6620  -26.5649   17.1084 N   0  3  0  0  0  0  0  0  0  0  0  0
  -22.5696  -14.6988   20.5145 O   0  0  0  0  0  0  0  0  0  0  0  0
  -26.6688  -28.3105   22.8279 O   0  0  0  0  0  0  0  0  0  0  0  0
  -23.1037  -29.8498   21.4095 O   0  0  0  0  0  0  0  0  0  0  0  0
  -22.1323  -25.6901   19.3421 O   0  0  0  0  0  0  0  0  0  0  0  0
  -31.7741  -14.8203   19.4536 O   0  0  0  0  0  0  0  0  0  0  0  0
  -21.8825   -8.3068   24.9029 O   0  0  0  0  0  0  0  0  0  0  0  0
  -28.2458  -18.2535   20.5129 O   0  0  0  0  0  0  0  0  0  0  0  0
  -28.7093  -23.9636   19.0036 O   0  0  0  0  0  0  0  0  0  1  0  0
  -16.7954   -6.8414   23.3609 F   0  0  0  0  0  0  0  0  0  0  0  0
  -21.2572   -5.6594   24.4099 F   0  0  0  0  0  0  0  0  0  0  0  0
  1  2  1  0  0  0  0
  1  5  2  0  0  0  0
  2  6  2  0  0  0  0
  3  8  2  0  0  0  0
  3 17  1  0  0  0  0
  4  9  1  0  0  0  0
  4 17  2  0  0  0  0
  5 19  1  0  0  0  0
  6 21  1  0  0  0  0
  7 10  2  0  0  0  0
  7 20  1  0  0  0  0
  8 26  1  0  0  0  0
  9 26  2  0  0  0  0
 10 27  1  0  0  0  0
 11 12  2  0  0  0  0
 11 28  1  0  0  0  0
 12 30  1  0  0  0  0
 13 22  1  0  0  0  0
 13 27  2  0  0  0  0
 14 23  2  0  0  0  0
 14 24  1  0  0  0  0
 15 23  1  0  0  0  0
 15 25  2  0  0  0  0
 16 30  2  0  0  0  0
 16 31  1  0  0  0  0
 17 32  1  0  0  0  0
 18 32  1  0  0  0  0
 18 33  2  0  0  0  0
 18 34  1  0  0  0  0
 19 21  2  0  0  0  0
 19 39  1  0  0  0  0
 20 22  2  0  0  0  0
 20 40  1  0  0  0  0
 21 48  1  0  0  0  0
 22 41  1  0  0  0  0
 23 51  1  0  0  0  0
 24 29  2  0  0  0  0
 24 62  1  0  0  0  0
 25 29  1  0  0  0  0
 25 72  1  0  0  0  0
 26 81  1  0  0  0  0
 27 83  1  0  0  0  0
 28 31  2  0  0  0  0
 28 81  1  0  0  0  0
 29 82  1  0  0  0  0
 30 84  1  0  0  0  0
 31 85  1  0  0  0  0
 32 66  2  0  0  0  0
 33 67  1  0  0  0  0
 33 70  1  0  0  0  0
 34 71  1  0  0  0  0
 34 76  2  0  0  0  0
 35 49  1  0  0  0  0
 35 73  1  0  0  0  0
 35 77  2  0  0  0  0
 36 63  1  0  0  0  0
 36 68  1  0  0  0  0
 36 78  2  0  0  0  0
 37 64  1  0  0  0  0
 37 74  1  0  0  0  0
 37 79  2  0  0  0  0
 38 69  1  0  0  0  0
 38 72  1  0  0  0  0
 38 80  2  0  0  0  0
 39 42  1  0  0  0  0
 40 49  1  0  0  0  0
 41 68  1  0  0  0  0
 42 44  1  0  0  0  0
 43 45  1  0  0  0  0
 43 46  1  0  0  0  0
 44 48  1  0  0  0  0
 45 50  1  0  0  0  0
 46 69  1  0  0  0  0
 47 50  1  0  0  0  0
 47 69  1  0  0  0  0
 48 73  1  0  0  0  0
 49 68  1  0  0  0  0
 50 67  1  0  0  0  0
 52 59  1  0  0  0  0
 53 64  1  0  0  0  0
 54 65  1  0  0  0  0
 55 65  1  0  0  0  0
 56 65  1  0  0  0  0
 57 75  1  0  0  0  0
 58 82  1  0  0  0  0
 59 62  1  0  0  0  0
 60 61  1  0  0  0  0
 60 62  1  0  0  0  0
 61 83  1  0  0  0  0
 63 65  1  0  0  0  0
 63 74  1  0  0  0  0
 64 75  1  0  0  0  0
 66 67  1  0  0  0  0
M  CHG  1  75   1
M  ISO  4  38 100  61 101  72 100  83 101
M  END
> <Batch ID>
0026

> <Smiles>
CCC(C[101CH2:1][101O:1]c1ccc2c(c1)CN(C(=O)C(NC(=O)C(C)NC)C(C)(C)C)C(C(=O)NC1CCCc3ccccc31)C2)c1cc(C)cc([100NH:0][100C:0](=O)N2CCCC(n3nc(-c4ccc(Oc5ccc(F)cc5F)cc4)c(C(N)=O)c3N)C2)c1OC

> <Shape>
0.307

> <Color>
0.140

> <Negative vol penalty>
0.000

$$$$

  -OEChem-04052316273D

 89 98  0     1  0  0  0  0  0999 V2000
  -23.7621  -36.9614   24.3477 C   0  0  0  0  0  0  0  0  0  0  0  0
  -23.1437  -36.1230   23.4257 C   0  0  0  0  0  0  0  0  0  0  0  0
  -23.0931   -9.8860   21.4141 C   0  0  0  0  0  0  0  0  0  0  0  0
  -23.8653  -10.7198   23.5462 C   0  0  0  0  0  0  0  0  0  0  0  0
  -25.0461  -36.6670   24.8044 C   0  0  0  0  0  0  0  0  0  0  0  0
  -23.8095  -34.9901   22.9591 C   0  0  0  0  0  0  0  0  0  0  0  0
  -22.5579  -28.2863   20.7662 C   0  0  0  0  0  0  0  0  0  0  0  0
  -22.3701   -8.8874   22.0665 C   0  0  0  0  0  0  0  0  0  0  0  0
  -23.1422   -9.7212   24.1986 C   0  0  0  0  0  0  0  0  0  0  0  0
  -22.8285  -27.4350   19.6958 C   0  0  0  0  0  0  0  0  0  0  0  0
  -22.9995   -5.8984   23.5135 C   0  0  0  0  0  0  0  0  0  0  0  0
  -23.0785   -4.6030   23.0022 C   0  0  0  0  0  0  0  0  0  0  0  0
  -25.0126  -26.9832   20.6150 C   0  0  0  0  0  0  0  0  0  0  0  0
  -20.6896   -4.6000   22.6410 C   0  0  0  0  0  0  0  0  0  0  0  0
  -29.2143  -19.2694   20.3247 C   0  0  0  0  0  0  0  0  0  0  0  0
  -23.8408  -10.8022   22.1540 C   0  0  0  0  0  0  0  0  0  0  0  0
  -24.1396  -13.1234   21.1390 C   0  0  0  0  0  0  0  0  0  0  0  0
  -25.7241  -35.5246   24.3505 C   0  0  0  0  0  0  0  0  0  0  0  0
  -23.5183  -28.5013   21.7651 C   0  0  0  0  0  0  0  0  0  0  0  0
  -25.1042  -34.6808   23.4092 C   0  0  0  0  0  0  0  0  0  0  0  0
  -24.7507  -27.8358   21.6984 C   0  0  0  0  0  0  0  0  0  0  0  0
  -29.8565  -18.3566   21.1319 C   0  0  0  0  0  0  0  0  0  0  0  0
  -22.3946   -8.8050   23.4587 C   0  0  0  0  0  0  0  0  0  0  0  0
  -24.0570  -26.7856   19.6185 C   0  0  0  0  0  0  0  0  0  0  0  0
  -21.7656   -6.5445   23.5886 C   0  0  0  0  0  0  0  0  0  0  0  0
  -21.9235   -3.9538   22.5660 C   0  0  0  0  0  0  0  0  0  0  0  0
  -20.6107   -5.8953   23.1523 C   0  0  0  0  0  0  0  0  0  0  0  0
  -29.5339  -18.6778   22.4736 C   0  0  0  0  0  0  0  0  0  0  0  0
  -24.5884  -11.8336   21.4806 C   0  0  0  0  0  0  0  0  0  0  0  0
  -28.7043  -19.7770   22.4453 C   0  0  0  0  0  0  0  0  0  0  0  0
  -25.2170  -13.7093   20.5206 C   0  0  0  0  0  0  0  0  0  0  0  0
  -22.8630  -13.7371   21.3609 C   0  0  0  0  0  0  0  0  0  0  0  0
  -25.1216  -31.0319   22.8278 C   0  0  0  0  0  0  0  0  0  0  0  0
  -26.1637  -28.9394   25.0768 C   0  0  0  0  0  0  0  0  0  0  0  0
  -26.7550  -25.6980   25.9658 C   0  0  0  0  0  0  0  0  0  0  0  0
  -30.6839  -14.8037   20.2730 C   0  0  0  0  0  0  0  0  0  0  0  0
  -27.1293  -35.2732   24.8371 C   0  0  0  0  0  0  0  0  0  0  0  0
  -23.2009  -29.4019   22.9272 C   0  0  0  0  0  0  0  0  0  0  0  0
  -25.8080  -28.0169   22.7556 C   0  0  0  0  0  0  0  0  0  0  0  0
  -27.6187  -33.8509   24.5770 C   0  0  0  0  0  0  0  0  0  0  0  0
  -29.5733  -11.7101   18.9043 C   0  0  0  0  0  0  0  0  0  0  0  0
  -24.4725  -20.6184   21.0373 C   0  0  0  0  0  0  0  0  0  0  0  0
  -27.2974  -33.4290   23.1467 C   0  0  0  0  0  0  0  0  0  0  0  0
  -28.1434  -11.5701   19.4294 C   0  0  0  0  0  0  0  0  0  0  0  0
  -25.6171  -19.7848   20.4929 C   0  0  0  0  0  0  0  0  0  0  0  0
  -30.4932  -12.3567   19.9376 C   0  0  0  0  0  0  0  0  0  0  0  0
  -28.5871  -13.5075   20.9941 C   0  0  0  0  0  0  0  0  0  0  0  0
  -24.2311  -21.6168   19.9272 C   0  0  0  0  0  0  0  0  0  0  0  0
  -25.7842  -33.4291   22.8982 C   0  0  1  0  0  0  0  0  0  0  0  0
  -24.4468  -29.9469   23.6185 C   0  0  1  0  0  0  0  0  0  0  0  0
  -27.6096  -12.9116   19.9667 C   0  0  2  0  0  0  0  0  0  0  0  0
  -26.5300  -20.7863   19.7858 C   0  0  2  0  0  0  0  0  0  0  0  0
  -28.0733  -20.5285   23.5518 C   0  0  0  0  0  0  0  0  0  0  0  0
  -27.6450  -24.3039   27.8531 C   0  0  0  0  0  0  0  0  0  0  0  0
  -28.5514  -22.3077   19.9399 C   0  0  0  0  0  0  0  0  0  0  0  0
  -29.0100  -29.7388   24.3219 C   0  0  0  0  0  0  0  0  0  0  0  0
  -29.8258  -27.6922   25.5110 C   0  0  0  0  0  0  0  0  0  0  0  0
  -28.6183  -29.4702   26.7773 C   0  0  0  0  0  0  0  0  0  0  0  0
  -24.1755  -24.2840   26.2915 C   0  0  0  0  0  0  0  0  0  0  0  0
  -30.7204  -17.2544   20.6623 C   0  0  0  0  0  0  0  0  0  0  0  0
  -24.8420  -23.7136   17.8942 C   0  0  0  0  0  0  0  0  0  0  0  0
  -25.7085  -22.4768   18.0784 C   0  0  0  0  0  0  0  0  0  0  0  0
  -25.2108  -24.8644   18.8223 C   0  0  0  0  0  0  0  0  0  1  0  0
  -27.3271  -27.9841   25.1910 C   0  0  1  0  0  0  0  0  0  0  0  0
  -26.4058  -24.9178   27.2204 C   0  0  2  0  0  0  0  0  0  0  0  0
  -27.6948  -21.2503   20.6487 C   0  0  2  0  0  0  0  0  0  0  0  0
  -28.6763  -28.7192   25.4292 C   0  0  0  0  0  0  0  0  0  0  0  0
  -25.8524  -11.6124   21.1098 N   0  0  0  0  0  0  0  0  0  0  0  0
  -28.5167  -20.1278   21.1338 N   0  0  0  0  0  0  0  0  0  0  0  0
  -26.2070  -12.7711   20.5288 N   0  0  0  0  0  0  0  0  0  0  0  0
  -25.4525  -28.9124   23.8688 N   0  0  0  0  0  0  0  0  0  0  0  0
  -29.9303  -13.6257   20.4054 N   0  0  0  0  0  0  0  0  0  0  0  0
  -25.4047  -14.9302   19.9760 N   0  0  0  0  0  0  0  0  0  0  0  0
  -21.8683  -12.9939   22.0109 N   0  0  0  0  0  0  0  0  0  0  0  0
  -25.1768  -32.2502   23.4775 N   0  0  0  0  0  0  0  0  0  0  0  0
  -26.9724  -27.0321   26.2379 N   0  0  0  0  0  0  0  0  0  0  0  0
  -30.0739  -15.9632   20.7357 N   0  0  0  0  0  0  0  0  0  0  0  0
  -25.6300  -21.9840   19.4886 N   0  3  1  0  0  0  0  0  0  0  0  0
  -25.4497  -23.8208   26.8989 N   0  3  0  0  0  0  0  0  0  0  0  0
  -22.6064  -14.9041   20.9789 O   0  0  0  0  0  0  0  0  0  0  0  0
  -25.5610  -30.7818   21.7116 O   0  0  0  0  0  0  0  0  0  0  0  0
  -25.8915  -29.6771   26.0272 O   0  0  0  0  0  0  0  0  0  0  0  0
  -26.8312  -25.1753   24.8560 O   0  0  0  0  0  0  0  0  0  0  0  0
  -31.8142  -14.8216   19.7740 O   0  0  0  0  0  0  0  0  0  0  0  0
  -21.6890   -7.8309   24.0956 O   0  0  0  0  0  0  0  0  0  0  0  0
  -24.3240  -25.9546   18.5744 O   0  0  0  0  0  0  0  0  0  1  0  0
  -21.9997   -2.7104   22.0737 F   0  0  0  0  0  0  0  0  0  0  0  0
  -19.4226   -6.5114   23.2209 F   0  0  0  0  0  0  0  0  0  0  0  0
  -30.0875  -17.8444   23.8486 Cl  0  0  0  0  0  0  0  0  0  0  0  0
  1  2  1  0  0  0  0
  1  5  2  0  0  0  0
  2  6  2  0  0  0  0
  3  8  2  0  0  0  0
  3 16  1  0  0  0  0
  4  9  1  0  0  0  0
  4 16  2  0  0  0  0
  5 18  1  0  0  0  0
  6 20  1  0  0  0  0
  7 10  2  0  0  0  0
  7 19  1  0  0  0  0
  8 23  1  0  0  0  0
  9 23  2  0  0  0  0
 10 24  1  0  0  0  0
 11 12  2  0  0  0  0
 11 25  1  0  0  0  0
 12 26  1  0  0  0  0
 13 21  1  0  0  0  0
 13 24  2  0  0  0  0
 14 26  2  0  0  0  0
 14 27  1  0  0  0  0
 15 22  2  0  0  0  0
 15 69  1  0  0  0  0
 16 29  1  0  0  0  0
 17 29  1  0  0  0  0
 17 31  2  0  0  0  0
 17 32  1  0  0  0  0
 18 20  2  0  0  0  0
 18 37  1  0  0  0  0
 19 21  2  0  0  0  0
 19 38  1  0  0  0  0
 20 49  1  0  0  0  0
 21 39  1  0  0  0  0
 22 28  1  0  0  0  0
 22 60  1  0  0  0  0
 23 85  1  0  0  0  0
 24 86  1  0  0  0  0
 25 27  2  0  0  0  0
 25 85  1  0  0  0  0
 26 87  1  0  0  0  0
 27 88  1  0  0  0  0
 28 30  2  0  0  0  0
 28 89  1  0  0  0  0
 29 68  2  0  0  0  0
 30 53  1  0  0  0  0
 30 69  1  0  0  0  0
 31 70  1  0  0  0  0
 31 73  1  0  0  0  0
 32 74  1  0  0  0  0
 32 80  2  0  0  0  0
 33 50  1  0  0  0  0
 33 75  1  0  0  0  0
 33 81  2  0  0  0  0
 34 64  1  0  0  0  0
 34 71  1  0  0  0  0
 34 82  2  0  0  0  0
 35 65  1  0  0  0  0
 35 76  1  0  0  0  0
 35 83  2  0  0  0  0
 36 72  1  0  0  0  0
 36 77  1  0  0  0  0
 36 84  2  0  0  0  0
 37 40  1  0  0  0  0
 38 50  1  0  0  0  0
 39 71  1  0  0  0  0
 40 43  1  0  0  0  0
 41 44  1  0  0  0  0
 41 46  1  0  0  0  0
 42 45  1  0  0  0  0
 42 48  1  0  0  0  0
 43 49  1  0  0  0  0
 44 51  1  0  0  0  0
 45 52  1  0  0  0  0
 46 72  1  0  0  0  0
 47 51  1  0  0  0  0
 47 72  1  0  0  0  0
 48 78  1  0  0  0  0
 49 75  1  0  0  0  0
 50 71  1  0  0  0  0
 51 70  1  0  0  0  0
 52 66  1  0  0  0  0
 52 78  1  0  0  0  0
 54 65  1  0  0  0  0
 55 66  1  0  0  0  0
 56 67  1  0  0  0  0
 57 67  1  0  0  0  0
 58 67  1  0  0  0  0
 59 79  1  0  0  0  0
 60 77  1  0  0  0  0
 61 62  1  0  0  0  0
 61 63  1  0  0  0  0
 62 78  1  0  0  0  0
 63 86  1  0  0  0  0
 64 67  1  0  0  0  0
 64 76  1  0  0  0  0
 65 79  1  0  0  0  0
 66 69  1  0  0  0  0
 68 70  1  0  0  0  0
M  CHG  2  78   1  79   1
M  ISO  4  36 100  63 101  77 100  86 101
M  END
> <Batch ID>
0026

> <Smiles>
CNC(C)C(=O)NC(C(=O)N1Cc2cc([101O:1][101CH2:1]CCN3CCCC3C(C)n3cc(C[100NH:0][100C:0](=O)N4CCCC(n5nc(-c6ccc(Oc7ccc(F)cc7F)cc6)c(C(N)=O)c5N)C4)c(Cl)c3C)ccc2CC1C(=O)NC1CCCc2ccccc21)C(C)(C)C

> <Shape>
0.308

> <Color>
0.151

> <Negative vol penalty>
0.000

$$$$

  -OEChem-04052316273D

 89 98  0     1  0  0  0  0  0999 V2000
  -23.7901  -21.1011   28.6416 C   0  0  0  0  0  0  0  0  0  0  0  0
  -25.0485  -21.5378   28.2402 C   0  0  0  0  0  0  0  0  0  0  0  0
  -22.9840  -10.0001   19.8854 C   0  0  0  0  0  0  0  0  0  0  0  0
  -23.8045   -9.8180   22.1504 C   0  0  0  0  0  0  0  0  0  0  0  0
  -22.7892  -20.8961   27.6928 C   0  0  0  0  0  0  0  0  0  0  0  0
  -25.3070  -21.7688   26.8895 C   0  0  0  0  0  0  0  0  0  0  0  0
  -29.1483  -26.0181   22.5878 C   0  0  0  0  0  0  0  0  0  0  0  0
  -22.1988   -8.8636   20.0784 C   0  0  0  0  0  0  0  0  0  0  0  0
  -23.0192   -8.6815   22.3436 C   0  0  0  0  0  0  0  0  0  0  0  0
  -30.0554  -25.9446   21.5316 C   0  0  0  0  0  0  0  0  0  0  0  0
  -19.2592   -8.0890   21.5589 C   0  0  0  0  0  0  0  0  0  0  0  0
  -17.9390   -8.1294   21.1105 C   0  0  0  0  0  0  0  0  0  0  0  0
  -28.2262  -25.6328   19.9903 C   0  0  0  0  0  0  0  0  0  0  0  0
  -31.8925  -18.0868   20.3327 C   0  0  0  0  0  0  0  0  0  0  0  0
  -18.3801   -6.2611   19.6435 C   0  0  0  0  0  0  0  0  0  0  0  0
  -23.7870  -10.4773   20.9214 C   0  0  0  0  0  0  0  0  0  0  0  0
  -24.2325  -12.9887   20.9628 C   0  0  0  0  0  0  0  0  0  0  0  0
  -23.0327  -21.1340   26.3309 C   0  0  0  0  0  0  0  0  0  0  0  0
  -27.7717  -25.8884   22.3541 C   0  0  0  0  0  0  0  0  0  0  0  0
  -24.3088  -21.5656   25.9215 C   0  0  0  0  0  0  0  0  0  0  0  0
  -27.3035  -25.7076   21.0449 C   0  0  0  0  0  0  0  0  0  0  0  0
  -30.5652  -19.9217   19.4910 C   0  0  0  0  0  0  0  0  0  0  0  0
  -30.8562  -17.7335   21.1969 C   0  0  0  0  0  0  0  0  0  0  0  0
  -22.2163   -8.2043   21.3075 C   0  0  0  0  0  0  0  0  0  0  0  0
  -29.5946  -25.7491   20.2330 C   0  0  0  0  0  0  0  0  0  0  0  0
  -20.1399   -7.1347   21.0496 C   0  0  0  0  0  0  0  0  0  0  0  0
  -17.4994   -7.2155   20.1529 C   0  0  0  0  0  0  0  0  0  0  0  0
  -19.7003   -6.2207   20.0919 C   0  0  0  0  0  0  0  0  0  0  0  0
  -31.7471  -19.1809   19.4798 C   0  0  0  0  0  0  0  0  0  0  0  0
  -29.5288  -19.5684   20.3552 C   0  0  0  0  0  0  0  0  0  0  0  0
  -29.6743  -18.4743   21.2081 C   0  0  0  0  0  0  0  0  0  0  0  0
  -24.5988  -11.6509   20.7223 C   0  0  0  0  0  0  0  0  0  0  0  0
  -25.3454  -13.7166   20.6190 C   0  0  0  0  0  0  0  0  0  0  0  0
  -22.9967  -13.5255   21.4531 C   0  0  0  0  0  0  0  0  0  0  0  0
  -25.5241  -23.8369   23.2725 C   0  0  0  0  0  0  0  0  0  0  0  0
  -23.5523  -25.9215   21.7598 C   0  0  0  0  0  0  0  0  0  0  0  0
  -23.1719  -28.3579   19.4004 C   0  0  0  0  0  0  0  0  0  0  0  0
  -30.8706  -14.4968   20.7138 C   0  0  0  0  0  0  0  0  0  0  0  0
  -21.9336  -20.8530   25.3371 C   0  0  0  0  0  0  0  0  0  0  0  0
  -26.8044  -25.9967   23.5009 C   0  0  0  0  0  0  0  0  0  0  0  0
  -25.8342  -25.5826   20.7383 C   0  0  0  0  0  0  0  0  0  0  0  0
  -22.1767  -21.4801   23.9667 C   0  0  0  0  0  0  0  0  0  0  0  0
  -29.5693  -12.3308   18.2055 C   0  0  0  0  0  0  0  0  0  0  0  0
  -30.4735  -21.8209   16.1552 C   0  0  0  0  0  0  0  0  0  0  0  0
  -30.5227  -20.6314   17.1102 C   0  0  0  0  0  0  0  0  0  0  0  0
  -23.6073  -21.2190   23.5063 C   0  0  0  0  0  0  0  0  0  0  0  0
  -28.1327  -12.0665   18.6598 C   0  0  0  0  0  0  0  0  0  0  0  0
  -30.5267  -12.4309   19.3910 C   0  0  0  0  0  0  0  0  0  0  0  0
  -28.6955  -13.1411   20.8796 C   0  0  0  0  0  0  0  0  0  0  0  0
  -31.5326  -22.8595   16.4936 C   0  0  0  0  0  0  0  0  0  0  0  0
  -31.4891  -22.1421   18.8977 C   0  0  0  0  0  0  0  0  0  0  0  0
  -30.4190  -21.0926   18.5727 C   0  0  2  0  0  0  0  0  0  0  0  0
  -24.6205  -21.8509   24.4684 C   0  0  1  0  0  0  0  0  0  0  0  0
  -25.4595  -25.3368   23.2124 C   0  0  1  0  0  0  0  0  0  0  0  0
  -27.6837  -13.0878   19.7221 C   0  0  2  0  0  0  0  0  0  0  0  0
  -21.4348  -29.8444   18.3661 C   0  0  0  0  0  0  0  0  0  0  0  0
  -22.4845  -23.5547   20.1573 C   0  0  0  0  0  0  0  0  0  0  0  0
  -21.4930  -25.1873   18.5388 C   0  0  0  0  0  0  0  0  0  0  0  0
  -20.7366  -25.1746   20.9158 C   0  0  0  0  0  0  0  0  0  0  0  0
  -24.5748  -30.8087   20.2861 C   0  0  0  0  0  0  0  0  0  0  0  0
  -31.0608  -16.5525   22.0912 C   0  0  0  0  0  0  0  0  0  0  0  0
  -32.3078  -24.4167   18.2799 C   0  0  0  0  0  0  0  0  0  0  0  0
  -31.7751  -25.1573   19.4906 C   0  0  0  0  0  0  0  0  0  1  0  0
  -23.0322  -26.0704   20.3504 C   0  0  1  0  0  0  0  0  0  0  0  0
  -22.4904  -29.7133   19.4530 C   0  0  2  0  0  0  0  0  0  0  0  0
  -21.9645  -24.9971   19.9963 C   0  0  0  0  0  0  0  0  0  0  0  0
  -25.8468  -11.5329   20.2613 N   0  0  0  0  0  0  0  0  0  0  0  0
  -26.2744  -12.8059   20.2092 N   0  0  0  0  0  0  0  0  0  0  0  0
  -24.9284  -25.6889   21.8940 N   0  0  0  0  0  0  0  0  0  0  0  0
  -30.0443  -13.4173   20.3605 N   0  0  0  0  0  0  0  0  0  0  0  0
  -25.6102  -15.0403   20.6303 N   0  0  0  0  0  0  0  0  0  0  0  0
  -21.9565  -12.6371   21.7577 N   0  0  0  0  0  0  0  0  0  0  0  0
  -24.7123  -23.2771   24.2406 N   0  0  0  0  0  0  0  0  0  0  0  0
  -22.5591  -27.4455   20.2330 N   0  0  0  0  0  0  0  0  0  0  0  0
  -30.3342  -15.3889   21.6342 N   0  0  0  0  0  0  0  0  0  0  0  0
  -31.3789  -23.3115   17.9335 N   0  3  1  0  0  0  0  0  0  0  0  0
  -23.4903  -30.8032   19.2708 N   0  3  0  0  0  0  0  0  0  0  0  0
  -22.8146  -14.7578   21.6007 O   0  0  0  0  0  0  0  0  0  0  0  0
  -26.2552  -23.2321   22.4970 O   0  0  0  0  0  0  0  0  0  0  0  0
  -22.7677  -26.0156   22.7070 O   0  0  0  0  0  0  0  0  0  0  0  0
  -24.1479  -28.1301   18.6890 O   0  0  0  0  0  0  0  0  0  0  0  0
  -32.0004  -14.6570   20.2397 O   0  0  0  0  0  0  0  0  0  0  0  0
  -21.4500   -7.0954   21.4964 O   0  0  0  0  0  0  0  0  0  0  0  0
  -30.4779  -25.6763   19.2003 O   0  0  0  0  0  0  0  0  0  1  0  0
  -16.2312   -7.2534   19.7235 F   0  0  0  0  0  0  0  0  0  0  0  0
  -20.5414   -5.3009   19.5998 F   0  0  0  0  0  0  0  0  0  0  0  0
  -33.0562  -19.5830   18.4277 Cl  0  0  0  0  0  0  0  0  0  0  0  0
  -28.0670  -20.5070   20.3494 Cl  0  0  0  0  0  0  0  0  0  0  0  0
  -28.4039  -18.0066   22.2953 Cl  0  0  0  0  0  0  0  0  0  0  0  0
  1  2  1  0  0  0  0
  1  5  2  0  0  0  0
  2  6  2  0  0  0  0
  3  8  2  0  0  0  0
  3 16  1  0  0  0  0
  4  9  1  0  0  0  0
  4 16  2  0  0  0  0
  5 18  1  0  0  0  0
  6 20  1  0  0  0  0
  7 10  2  0  0  0  0
  7 19  1  0  0  0  0
  8 24  1  0  0  0  0
  9 24  2  0  0  0  0
 10 25  1  0  0  0  0
 11 12  2  0  0  0  0
 11 26  1  0  0  0  0
 12 27  1  0  0  0  0
 13 21  1  0  0  0  0
 13 25  2  0  0  0  0
 14 23  1  0  0  0  0
 14 29  2  0  0  0  0
 15 27  2  0  0  0  0
 15 28  1  0  0  0  0
 16 32  1  0  0  0  0
 17 32  1  0  0  0  0
 17 33  2  0  0  0  0
 17 34  1  0  0  0  0
 18 20  2  0  0  0  0
 18 39  1  0  0  0  0
 19 21  2  0  0  0  0
 19 40  1  0  0  0  0
 20 53  1  0  0  0  0
 21 41  1  0  0  0  0
 22 29  1  0  0  0  0
 22 30  2  0  0  0  0
 22 52  1  0  0  0  0
 23 31  2  0  0  0  0
 23 61  1  0  0  0  0
 24 83  1  0  0  0  0
 25 84  1  0  0  0  0
 26 28  2  0  0  0  0
 26 83  1  0  0  0  0
 27 85  1  0  0  0  0
 28 86  1  0  0  0  0
 29 87  1  0  0  0  0
 30 31  1  0  0  0  0
 30 88  1  0  0  0  0
 31 89  1  0  0  0  0
 32 67  2  0  0  0  0
 33 68  1  0  0  0  0
 33 71  1  0  0  0  0
 34 72  1  0  0  0  0
 34 78  2  0  0  0  0
 35 54  1  0  0  0  0
 35 73  1  0  0  0  0
 35 79  2  0  0  0  0
 36 64  1  0  0  0  0
 36 69  1  0  0  0  0
 36 80  2  0  0  0  0
 37 65  1  0  0  0  0
 37 74  1  0  0  0  0
 37 81  2  0  0  0  0
 38 70  1  0  0  0  0
 38 75  1  0  0  0  0
 38 82  2  0  0  0  0
 39 42  1  0  0  0  0
 40 54  1  0  0  0  0
 41 69  1  0  0  0  0
 42 46  1  0  0  0  0
 43 47  1  0  0  0  0
 43 48  1  0  0  0  0
 44 45  1  0  0  0  0
 44 50  1  0  0  0  0
 45 52  1  0  0  0  0
 46 53  1  0  0  0  0
 47 55  1  0  0  0  0
 48 70  1  0  0  0  0
 49 55  1  0  0  0  0
 49 70  1  0  0  0  0
 50 76  1  0  0  0  0
 51 52  1  0  0  0  0
 51 76  1  0  0  0  0
 53 73  1  0  0  0  0
 54 69  1  0  0  0  0
 55 68  1  0  0  0  0
 56 65  1  0  0  0  0
 57 66  1  0  0  0  0
 58 66  1  0  0  0  0
 59 66  1  0  0  0  0
 60 77  1  0  0  0  0
 61 75  1  0  0  0  0
 62 63  1  0  0  0  0
 62 76  1  0  0  0  0
 63 84  1  0  0  0  0
 64 66  1  0  0  0  0
 64 74  1  0  0  0  0
 65 77  1  0  0  0  0
 67 68  1  0  0  0  0
M  CHG  2  76   1  77   1
M  ISO  4  38 100  63 101  75 100  84 101
M  END
> <Batch ID>
0026

> <Smiles>
CNC(C)C(=O)NC(C(=O)N1Cc2cc([101O:1][101CH2:1]CN3CCCC(c4c(Cl)cc(C[100NH:0][100C:0](=O)N5CCCC(n6nc(-c7ccc(Oc8ccc(F)cc8F)cc7)c(C(N)=O)c6N)C5)c(Cl)c4Cl)C3)ccc2CC1C(=O)NC1CCCc2ccccc21)C(C)(C)C

> <Shape>
0.244

> <Color>
0.198

> <Negative vol penalty>
0.000

$$$$

  -OEChem-04052316273D

 85 93  0     1  0  0  0  0  0999 V2000
  -28.3049  -17.4750   23.2205 C   0  0  0  0  0  0  0  0  0  0  0  0
  -29.1147  -17.6924   22.1115 C   0  0  0  0  0  0  0  0  0  0  0  0
  -25.4338  -12.5638   19.5485 C   0  0  0  0  0  0  0  0  0  0  0  0
  -26.3870  -13.0425   21.7163 C   0  0  0  0  0  0  0  0  0  0  0  0
  -27.4276  -18.4710   23.6441 C   0  0  0  0  0  0  0  0  0  0  0  0
  -29.0561  -18.9103   21.4330 C   0  0  0  0  0  0  0  0  0  0  0  0
  -32.3732  -19.6486   17.8756 C   0  0  0  0  0  0  0  0  0  0  0  0
  -24.4622  -11.7654   20.1520 C   0  0  0  0  0  0  0  0  0  0  0  0
  -25.4153  -12.2442   22.3198 C   0  0  0  0  0  0  0  0  0  0  0  0
  -32.3237  -18.9865   16.6497 C   0  0  0  0  0  0  0  0  0  0  0  0
  -21.9480   -9.3119   21.0916 C   0  0  0  0  0  0  0  0  0  0  0  0
  -21.6731   -8.0730   20.5126 C   0  0  0  0  0  0  0  0  0  0  0  0
  -31.4575  -20.9847   15.6123 C   0  0  0  0  0  0  0  0  0  0  0  0
  -36.1669  -18.8908   15.5994 C   0  0  0  0  0  0  0  0  0  0  0  0
  -36.4247  -16.8160   14.3889 C   0  0  0  0  0  0  0  0  0  0  0  0
  -23.9693   -7.4039   20.8540 C   0  0  0  0  0  0  0  0  0  0  0  0
  -26.3962  -13.2022   20.3307 C   0  0  0  0  0  0  0  0  0  0  0  0
  -27.3208  -15.4060   19.4384 C   0  0  0  0  0  0  0  0  0  0  0  0
  -27.3498  -19.6967   22.9624 C   0  0  0  0  0  0  0  0  0  0  0  0
  -31.9542  -20.9827   17.9815 C   0  0  0  0  0  0  0  0  0  0  0  0
  -28.1943  -19.9369   21.8595 C   0  0  0  0  0  0  0  0  0  0  0  0
  -31.5050  -21.6622   16.8402 C   0  0  0  0  0  0  0  0  0  0  0  0
  -36.2965  -18.2049   14.3918 C   0  0  0  0  0  0  0  0  0  0  0  0
  -36.2938  -16.7988   16.8013 C   0  0  0  0  0  0  0  0  0  0  0  0
  -24.4529  -11.6056   21.5377 C   0  0  0  0  0  0  0  0  0  0  0  0
  -31.8631  -19.6536   15.5184 C   0  0  0  0  0  0  0  0  0  0  0  0
  -23.2336   -9.5968   21.5517 C   0  0  0  0  0  0  0  0  0  0  0  0
  -22.6837   -7.1190   20.3938 C   0  0  0  0  0  0  0  0  0  0  0  0
  -24.2443   -8.6428   21.4329 C   0  0  0  0  0  0  0  0  0  0  0  0
  -36.1656  -18.1878   16.8042 C   0  0  0  0  0  0  0  0  0  0  0  0
  -36.4234  -16.1129   15.5937 C   0  0  0  0  0  0  0  0  0  0  0  0
  -27.4005  -14.0266   19.7078 C   0  0  0  0  0  0  0  0  0  0  0  0
  -28.5214  -15.7098   18.8443 C   0  0  0  0  0  0  0  0  0  0  0  0
  -26.2568  -16.3302   19.7017 C   0  0  0  0  0  0  0  0  0  0  0  0
  -29.6662  -22.4944   19.5888 C   0  0  0  0  0  0  0  0  0  0  0  0
  -31.1059  -25.1392   18.3828 C   0  0  0  0  0  0  0  0  0  0  0  0
  -33.0681  -26.5171   15.9543 C   0  0  0  0  0  0  0  0  0  0  0  0
  -33.9828  -15.3873   18.7189 C   0  0  0  0  0  0  0  0  0  0  0  0
  -26.3883  -20.7427   23.4687 C   0  0  0  0  0  0  0  0  0  0  0  0
  -32.0390  -21.6909   19.3057 C   0  0  0  0  0  0  0  0  0  0  0  0
  -31.0629  -23.1009   16.8966 C   0  0  0  0  0  0  0  0  0  0  0  0
  -26.0781  -21.8169   22.4312 C   0  0  0  0  0  0  0  0  0  0  0  0
  -32.1887  -12.6950   17.0970 C   0  0  0  0  0  0  0  0  0  0  0  0
  -27.3711  -22.3503   21.8327 C   0  0  0  0  0  0  0  0  0  0  0  0
  -30.7674  -12.9209   17.6156 C   0  0  0  0  0  0  0  0  0  0  0  0
  -33.2251  -12.9948   18.1760 C   0  0  0  0  0  0  0  0  0  0  0  0
  -31.7055  -14.5884   19.2828 C   0  0  0  0  0  0  0  0  0  0  0  0
  -28.1258  -21.2422   21.0874 C   0  0  1  0  0  0  0  0  0  0  0  0
  -31.1031  -22.8918   19.4020 C   0  0  1  0  0  0  0  0  0  0  0  0
  -30.6121  -14.3239   18.2318 C   0  0  2  0  0  0  0  0  0  0  0  0
  -34.0386  -28.7098   15.2143 C   0  0  0  0  0  0  0  0  0  0  0  0
  -28.3777  -25.9806   17.3063 C   0  0  0  0  0  0  0  0  0  0  0  0
  -29.5483  -27.6146   15.8136 C   0  0  0  0  0  0  0  0  0  0  0  0
  -29.7291  -27.8400   18.2913 C   0  0  0  0  0  0  0  0  0  0  0  0
  -35.8398  -25.5229   16.2512 C   0  0  0  0  0  0  0  0  0  0  0  0
  -36.2931  -16.0437   18.0954 C   0  0  0  0  0  0  0  0  0  0  0  0
  -36.2986  -18.9612   13.0960 C   0  0  0  0  0  0  0  0  0  0  0  0
  -32.6124  -18.9424   12.0602 C   0  0  0  0  0  0  0  0  0  0  0  0
  -33.9634  -18.3589   12.4458 C   0  0  0  0  0  0  0  0  0  0  0  0
  -31.9839  -19.8046   13.1480 C   0  0  0  0  0  0  0  0  0  1  0  0
  -30.9531  -25.9602   17.1252 C   0  0  1  0  0  0  0  0  0  0  0  0
  -34.2641  -27.4487   16.0336 C   0  0  2  0  0  0  0  0  0  0  0  0
  -29.6585  -26.8211   17.1331 C   0  0  0  0  0  0  0  0  0  0  0  0
  -28.5600  -13.4910   19.3168 N   0  0  0  0  0  0  0  0  0  0  0  0
  -29.2198  -14.5393   18.7956 N   0  0  0  0  0  0  0  0  0  0  0  0
  -31.1585  -23.7482   18.2155 N   0  0  0  0  0  0  0  0  0  0  0  0
  -33.0338  -14.3516   18.7078 N   0  0  0  0  0  0  0  0  0  0  0  0
  -29.0371  -16.8612   18.3641 N   0  0  0  0  0  0  0  0  0  0  0  0
  -25.0930  -15.8511   20.3184 N   0  0  0  0  0  0  0  0  0  0  0  0
  -29.4358  -21.7302   20.7168 N   0  0  0  0  0  0  0  0  0  0  0  0
  -32.1835  -26.7324   16.9898 N   0  0  0  0  0  0  0  0  0  0  0  0
  -35.2178  -15.0792   18.1616 N   0  0  0  0  0  0  0  0  0  0  0  0
  -35.4863  -26.7673   15.5209 N   0  3  0  0  0  0  0  0  0  0  0  0
  -34.9458  -19.4392   12.6973 N   0  3  0  0  0  0  0  0  0  0  0  0
  -26.3291  -17.5416   19.3842 O   0  0  0  0  0  0  0  0  0  0  0  0
  -28.8282  -22.8555   18.7708 O   0  0  0  0  0  0  0  0  0  0  0  0
  -31.1831  -25.7115   19.4729 O   0  0  0  0  0  0  0  0  0  0  0  0
  -32.9305  -25.6845   15.0608 O   0  0  0  0  0  0  0  0  0  0  0  0
  -33.7453  -16.5063   19.1863 O   0  0  0  0  0  0  0  0  0  0  0  0
  -23.5048  -10.8269   22.1270 O   0  0  0  0  0  0  0  0  0  0  0  0
  -31.8131  -19.0095   14.3207 O   0  0  0  0  0  0  0  0  0  1  0  0
  -22.4192   -5.9288   19.8392 F   0  0  0  0  0  0  0  0  0  0  0  0
  -25.4810   -8.9103   21.8742 F   0  0  0  0  0  0  0  0  0  0  0  0
  -36.0033  -19.0766   18.2761 Cl  0  0  0  0  0  0  0  0  0  0  0  0
  -36.5855  -14.3942   15.5443 Cl  0  0  0  0  0  0  0  0  0  0  0  0
  1  2  1  0  0  0  0
  1  5  2  0  0  0  0
  2  6  2  0  0  0  0
  3  8  2  0  0  0  0
  3 17  1  0  0  0  0
  4  9  1  0  0  0  0
  4 17  2  0  0  0  0
  5 19  1  0  0  0  0
  6 21  1  0  0  0  0
  7 10  2  0  0  0  0
  7 20  1  0  0  0  0
  8 25  1  0  0  0  0
  9 25  2  0  0  0  0
 10 26  1  0  0  0  0
 11 12  2  0  0  0  0
 11 27  1  0  0  0  0
 12 28  1  0  0  0  0
 13 22  1  0  0  0  0
 13 26  2  0  0  0  0
 14 23  1  0  0  0  0
 14 30  2  0  0  0  0
 15 23  2  0  0  0  0
 15 31  1  0  0  0  0
 16 28  2  0  0  0  0
 16 29  1  0  0  0  0
 17 32  1  0  0  0  0
 18 32  1  0  0  0  0
 18 33  2  0  0  0  0
 18 34  1  0  0  0  0
 19 21  2  0  0  0  0
 19 39  1  0  0  0  0
 20 22  2  0  0  0  0
 20 40  1  0  0  0  0
 21 48  1  0  0  0  0
 22 41  1  0  0  0  0
 23 57  1  0  0  0  0
 24 30  1  0  0  0  0
 24 31  2  0  0  0  0
 24 56  1  0  0  0  0
 25 80  1  0  0  0  0
 26 81  1  0  0  0  0
 27 29  2  0  0  0  0
 27 80  1  0  0  0  0
 28 82  1  0  0  0  0
 29 83  1  0  0  0  0
 30 84  1  0  0  0  0
 31 85  1  0  0  0  0
 32 64  2  0  0  0  0
 33 65  1  0  0  0  0
 33 68  1  0  0  0  0
 34 69  1  0  0  0  0
 34 75  2  0  0  0  0
 35 49  1  0  0  0  0
 35 70  1  0  0  0  0
 35 76  2  0  0  0  0
 36 61  1  0  0  0  0
 36 66  1  0  0  0  0
 36 77  2  0  0  0  0
 37 62  1  0  0  0  0
 37 71  1  0  0  0  0
 37 78  2  0  0  0  0
 38 67  1  0  0  0  0
 38 72  1  0  0  0  0
 38 79  2  0  0  0  0
 39 42  1  0  0  0  0
 40 49  1  0  0  0  0
 41 66  1  0  0  0  0
 42 44  1  0  0  0  0
 43 45  1  0  0  0  0
 43 46  1  0  0  0  0
 44 48  1  0  0  0  0
 45 50  1  0  0  0  0
 46 67  1  0  0  0  0
 47 50  1  0  0  0  0
 47 67  1  0  0  0  0
 48 70  1  0  0  0  0
 49 66  1  0  0  0  0
 50 65  1  0  0  0  0
 51 62  1  0  0  0  0
 52 63  1  0  0  0  0
 53 63  1  0  0  0  0
 54 63  1  0  0  0  0
 55 73  1  0  0  0  0
 56 72  1  0  0  0  0
 57 74  1  0  0  0  0
 58 59  1  0  0  0  0
 58 60  1  0  0  0  0
 59 74  1  0  0  0  0
 60 81  1  0  0  0  0
 61 63  1  0  0  0  0
 61 71  1  0  0  0  0
 62 73  1  0  0  0  0
 64 65  1  0  0  0  0
M  CHG  2  73   1  74   1
M  ISO  4  38 100  60 101  72 100  81 101
M  END
> <Batch ID>
0026

> <Smiles>
CNC(C)C(=O)NC(C(=O)N1Cc2cc([101O:1][101CH2:1]CCNCc3cc(Cl)c(C[100NH:0][100C:0](=O)N4CCCC(n5nc(-c6ccc(Oc7ccc(F)cc7F)cc6)c(C(N)=O)c5N)C4)c(Cl)c3)ccc2CC1C(=O)NC1CCCc2ccccc21)C(C)(C)C

> <Shape>
0.164

> <Color>
0.068

> <Negative vol penalty>
0.000

$$$$

  -OEChem-04052316273D

 90 98  0     1  0  0  0  0  0999 V2000
  -33.2234  -29.6085   21.0922 C   0  0  0  0  0  0  0  0  0  0  0  0
  -32.3925  -28.7023   20.4412 C   0  0  0  0  0  0  0  0  0  0  0  0
  -22.9447  -10.1187   20.3327 C   0  0  0  0  0  0  0  0  0  0  0  0
  -24.3062   -9.2165   22.1130 C   0  0  0  0  0  0  0  0  0  0  0  0
  -32.8662  -30.1040   22.3455 C   0  0  0  0  0  0  0  0  0  0  0  0
  -31.2043  -28.2903   21.0436 C   0  0  0  0  0  0  0  0  0  0  0  0
  -27.2960  -28.2776   17.8233 C   0  0  0  0  0  0  0  0  0  0  0  0
  -22.1897   -8.9460   20.3158 C   0  0  0  0  0  0  0  0  0  0  0  0
  -23.5512   -8.0438   22.0962 C   0  0  0  0  0  0  0  0  0  0  0  0
  -27.2075  -27.2077   16.9338 C   0  0  0  0  0  0  0  0  0  0  0  0
  -20.5536   -6.9963   23.2529 C   0  0  0  0  0  0  0  0  0  0  0  0
  -20.1500   -6.4695   24.4797 C   0  0  0  0  0  0  0  0  0  0  0  0
  -25.5606  -26.1682   18.3573 C   0  0  0  0  0  0  0  0  0  0  0  0
  -28.3599  -23.1538   19.4473 C   0  0  0  0  0  0  0  0  0  0  0  0
  -28.6339  -21.6611   21.3270 C   0  0  0  0  0  0  0  0  0  0  0  0
  -21.3506   -4.4289   23.9985 C   0  0  0  0  0  0  0  0  0  0  0  0
  -24.0030  -10.2540   21.2313 C   0  0  0  0  0  0  0  0  0  0  0  0
  -24.5440  -12.6197   22.0175 C   0  0  0  0  0  0  0  0  0  0  0  0
  -31.6683  -29.7053   22.9593 C   0  0  0  0  0  0  0  0  0  0  0  0
  -26.5242  -28.2956   18.9940 C   0  0  0  0  0  0  0  0  0  0  0  0
  -30.8314  -28.7800   22.3069 C   0  0  0  0  0  0  0  0  0  0  0  0
  -25.6393  -27.2407   19.2588 C   0  0  0  0  0  0  0  0  0  0  0  0
  -28.3020  -22.9177   20.8208 C   0  0  0  0  0  0  0  0  0  0  0  0
  -28.7496  -22.1332   18.5800 C   0  0  0  0  0  0  0  0  0  0  0  0
  -29.0237  -20.6404   20.4597 C   0  0  0  0  0  0  0  0  0  0  0  0
  -22.4929   -7.9085   21.1975 C   0  0  0  0  0  0  0  0  0  0  0  0
  -26.3418  -26.1514   17.2021 C   0  0  0  0  0  0  0  0  0  0  0  0
  -21.3557   -6.2394   22.3988 C   0  0  0  0  0  0  0  0  0  0  0  0
  -20.5485   -5.1858   24.8526 C   0  0  0  0  0  0  0  0  0  0  0  0
  -21.7542   -4.9557   22.7716 C   0  0  0  0  0  0  0  0  0  0  0  0
  -29.0815  -20.8766   19.0862 C   0  0  0  0  0  0  0  0  0  0  0  0
  -24.7836  -11.4649   21.2489 C   0  0  0  0  0  0  0  0  0  0  0  0
  -25.5611  -13.4770   21.6754 C   0  0  0  0  0  0  0  0  0  0  0  0
  -23.4959  -12.8929   22.9570 C   0  0  0  0  0  0  0  0  0  0  0  0
  -27.1699  -28.3258   22.1062 C   0  0  0  0  0  0  0  0  0  0  0  0
  -23.9578  -28.6918   22.3725 C   0  0  0  0  0  0  0  0  0  0  0  0
  -20.8679  -28.2575   20.9903 C   0  0  0  0  0  0  0  0  0  0  0  0
  -30.9553  -14.4595   20.6351 C   0  0  0  0  0  0  0  0  0  0  0  0
  -31.3476  -30.2320   24.3357 C   0  0  0  0  0  0  0  0  0  0  0  0
  -26.6116  -29.4697   19.9300 C   0  0  0  0  0  0  0  0  0  0  0  0
  -24.7740  -27.2218   20.4915 C   0  0  0  0  0  0  0  0  0  0  0  0
  -29.8891  -30.0324   24.7397 C   0  0  0  0  0  0  0  0  0  0  0  0
  -28.9739  -13.2163   17.9509 C   0  0  0  0  0  0  0  0  0  0  0  0
  -29.4369  -28.6107   24.4217 C   0  0  0  0  0  0  0  0  0  0  0  0
  -27.6907  -12.7397   18.6337 C   0  0  0  0  0  0  0  0  0  0  0  0
  -30.2045  -12.9545   18.8165 C   0  0  0  0  0  0  0  0  0  0  0  0
  -28.8417  -13.0193   20.8689 C   0  0  0  0  0  0  0  0  0  0  0  0
  -29.5223  -28.3282   22.9169 C   0  0  1  0  0  0  0  0  0  0  0  0
  -26.1582  -29.1381   21.3484 C   0  0  1  0  0  0  0  0  0  0  0  0
  -27.5675  -13.3127   20.0585 C   0  0  2  0  0  0  0  0  0  0  0  0
  -27.8845  -24.0086   21.7482 C   0  0  0  0  0  0  0  0  0  0  0  0
  -18.4301  -28.6210   21.4620 C   0  0  0  0  0  0  0  0  0  0  0  0
  -28.6593  -22.9174   14.4110 C   0  0  0  0  0  0  0  0  0  0  0  0
  -23.9658  -26.2887   24.2526 C   0  0  0  0  0  0  0  0  0  0  0  0
  -21.4889  -26.1165   23.9304 C   0  0  0  0  0  0  0  0  0  0  0  0
  -22.4713  -28.1639   24.9628 C   0  0  0  0  0  0  0  0  0  0  0  0
  -20.5693  -30.0669   18.6674 C   0  0  0  0  0  0  0  0  0  0  0  0
  -26.8431  -21.1300   16.2845 C   0  0  0  0  0  0  0  0  0  0  0  0
  -28.7973  -22.4334   17.1108 C   0  0  0  0  0  0  0  0  0  0  0  0
  -29.7209  -17.6672   22.7009 C   0  0  0  0  0  0  0  0  0  0  0  0
  -31.1508  -17.3635   22.2364 C   0  0  0  0  0  0  0  0  0  0  0  0
  -29.3033  -19.1068   22.4079 C   0  0  0  0  0  0  0  0  0  0  0  0
  -31.5712  -15.9284   22.5384 C   0  0  0  0  0  0  0  0  0  0  0  0
  -27.4249  -24.7824   15.5869 C   0  0  0  0  0  0  0  0  0  1  0  0
  -22.7808  -27.7535   22.4874 C   0  0  1  0  0  0  0  0  0  0  0  0
  -19.6898  -29.2030   20.8397 C   0  0  2  0  0  0  0  0  0  0  0  0
  -27.4310  -23.3029   15.2193 C   0  0  2  0  0  0  0  0  0  0  0  0
  -22.6943  -27.0798   23.8860 C   0  0  0  0  0  0  0  0  0  0  0  0
  -25.8677  -11.5754   20.4765 N   0  0  0  0  0  0  0  0  0  0  0  0
  -26.3183  -12.8098   20.7580 N   0  0  0  0  0  0  0  0  0  0  0  0
  -24.9000  -28.3896   21.3792 N   0  0  0  0  0  0  0  0  0  0  0  0
  -30.0240  -13.5247   20.1537 N   0  0  0  0  0  0  0  0  0  0  0  0
  -25.8725  -14.7291   22.0726 N   0  0  0  0  0  0  0  0  0  0  0  0
  -22.5328  -11.9019   23.1904 N   0  0  0  0  0  0  0  0  0  0  0  0
  -29.3530  -19.3793   21.0065 N   0  0  0  0  0  0  0  0  0  0  0  0
  -28.4050  -28.9340   22.2248 N   0  0  0  0  0  0  0  0  0  0  0  0
  -21.6013  -28.5320   22.1252 N   0  0  0  0  0  0  0  0  0  0  0  0
  -30.7065  -14.9551   21.9092 N   0  0  0  0  0  0  0  0  0  0  0  0
  -19.4215  -29.4708   19.3985 N   0  3  0  0  0  0  0  0  0  0  0  0
  -27.4324  -22.5024   16.4779 N   0  3  1  0  0  0  0  0  0  0  0  0
  -23.4066  -13.9898   23.5590 O   0  0  0  0  0  0  0  0  0  0  0  0
  -26.8530  -27.2291   22.5517 O   0  0  0  0  0  0  0  0  0  0  0  0
  -24.0347  -29.6613   23.1313 O   0  0  0  0  0  0  0  0  0  0  0  0
  -21.1109  -27.3624   20.1839 O   0  0  0  0  0  0  0  0  0  0  0  0
  -31.9330  -14.8294   19.9761 O   0  0  0  0  0  0  0  0  0  0  0  0
  -21.7562   -6.7641   21.1815 O   0  0  0  0  0  0  0  0  0  0  0  0
  -26.2539  -25.1056   16.3358 O   0  0  0  0  0  0  0  0  0  1  0  0
  -20.1621   -4.6806   26.0314 F   0  0  0  0  0  0  0  0  0  0  0  0
  -22.5257   -4.2242   21.9558 F   0  0  0  0  0  0  0  0  0  0  0  0
  -29.5651  -19.6120   18.0037 Cl  0  0  0  0  0  0  0  0  0  0  0  0
  1  2  1  0  0  0  0
  1  5  2  0  0  0  0
  2  6  2  0  0  0  0
  3  8  2  0  0  0  0
  3 17  1  0  0  0  0
  4  9  1  0  0  0  0
  4 17  2  0  0  0  0
  5 19  1  0  0  0  0
  6 21  1  0  0  0  0
  7 10  2  0  0  0  0
  7 20  1  0  0  0  0
  8 26  1  0  0  0  0
  9 26  2  0  0  0  0
 10 27  1  0  0  0  0
 11 12  2  0  0  0  0
 11 28  1  0  0  0  0
 12 29  1  0  0  0  0
 13 22  1  0  0  0  0
 13 27  2  0  0  0  0
 14 23  2  0  0  0  0
 14 24  1  0  0  0  0
 15 23  1  0  0  0  0
 15 25  2  0  0  0  0
 16 29  2  0  0  0  0
 16 30  1  0  0  0  0
 17 32  1  0  0  0  0
 18 32  1  0  0  0  0
 18 33  2  0  0  0  0
 18 34  1  0  0  0  0
 19 21  2  0  0  0  0
 19 39  1  0  0  0  0
 20 22  2  0  0  0  0
 20 40  1  0  0  0  0
 21 48  1  0  0  0  0
 22 41  1  0  0  0  0
 23 51  1  0  0  0  0
 24 31  2  0  0  0  0
 24 59  1  0  0  0  0
 25 31  1  0  0  0  0
 25 75  1  0  0  0  0
 26 86  1  0  0  0  0
 27 87  1  0  0  0  0
 28 30  2  0  0  0  0
 28 86  1  0  0  0  0
 29 88  1  0  0  0  0
 30 89  1  0  0  0  0
 31 90  1  0  0  0  0
 32 69  2  0  0  0  0
 33 70  1  0  0  0  0
 33 73  1  0  0  0  0
 34 74  1  0  0  0  0
 34 81  2  0  0  0  0
 35 49  1  0  0  0  0
 35 76  1  0  0  0  0
 35 82  2  0  0  0  0
 36 65  1  0  0  0  0
 36 71  1  0  0  0  0
 36 83  2  0  0  0  0
 37 66  1  0  0  0  0
 37 77  1  0  0  0  0
 37 84  2  0  0  0  0
 38 72  1  0  0  0  0
 38 78  1  0  0  0  0
 38 85  2  0  0  0  0
 39 42  1  0  0  0  0
 40 49  1  0  0  0  0
 41 71  1  0  0  0  0
 42 44  1  0  0  0  0
 43 45  1  0  0  0  0
 43 46  1  0  0  0  0
 44 48  1  0  0  0  0
 45 50  1  0  0  0  0
 46 72  1  0  0  0  0
 47 50  1  0  0  0  0
 47 72  1  0  0  0  0
 48 76  1  0  0  0  0
 49 71  1  0  0  0  0
 50 70  1  0  0  0  0
 52 66  1  0  0  0  0
 53 67  1  0  0  0  0
 54 68  1  0  0  0  0
 55 68  1  0  0  0  0
 56 68  1  0  0  0  0
 57 79  1  0  0  0  0
 58 80  1  0  0  0  0
 59 80  1  0  0  0  0
 60 61  1  0  0  0  0
 60 62  1  0  0  0  0
 61 63  1  0  0  0  0
 62 75  1  0  0  0  0
 63 78  1  0  0  0  0
 64 67  1  0  0  0  0
 64 87  1  0  0  0  0
 65 68  1  0  0  0  0
 65 77  1  0  0  0  0
 66 79  1  0  0  0  0
 67 80  1  0  0  0  0
 69 70  1  0  0  0  0
M  CHG  2  79   1  80   1
M  ISO  4  38 100  64 101  78 100  87 101
M  END
> <Batch ID>
0026

> <Smiles>
CNC(C)C(=O)NC(C(=O)N1Cc2cc([101O:1][101CH2:1]C(C)N(C)Cc3cc(C)cc(NCCCC[100NH:0][100C:0](=O)N4CCCC(n5nc(-c6ccc(Oc7ccc(F)cc7F)cc6)c(C(N)=O)c5N)C4)c3Cl)ccc2CC1C(=O)NC1CCCc2ccccc21)C(C)(C)C

> <Shape>
0.297

> <Color>
0.155

> <Negative vol penalty>
0.000

$$$$

  -OEChem-04052316273D

 96105  0     1  0  0  0  0  0999 V2000
  -25.2472  -23.1818   20.3696 C   0  0  0  0  0  0  0  0  0  0  0  0
  -26.4621  -23.7637   20.7172 C   0  0  0  0  0  0  0  0  0  0  0  0
  -23.0760   -9.8958   20.0151 C   0  0  0  0  0  0  0  0  0  0  0  0
  -23.7404  -10.0455   22.3331 C   0  0  0  0  0  0  0  0  0  0  0  0
  -24.3454  -23.8798   19.5674 C   0  0  0  0  0  0  0  0  0  0  0  0
  -26.7764  -25.0436   20.2619 C   0  0  0  0  0  0  0  0  0  0  0  0
  -29.9765  -29.3295   23.2446 C   0  0  0  0  0  0  0  0  0  0  0  0
  -22.3319   -8.7516   20.3022 C   0  0  0  0  0  0  0  0  0  0  0  0
  -22.9961   -8.9012   22.6203 C   0  0  0  0  0  0  0  0  0  0  0  0
  -31.3117  -29.7239   23.1712 C   0  0  0  0  0  0  0  0  0  0  0  0
  -23.3369   -5.5555   22.2726 C   0  0  0  0  0  0  0  0  0  0  0  0
  -23.9305   -4.5807   23.0744 C   0  0  0  0  0  0  0  0  0  0  0  0
  -30.6984  -31.4964   21.6542 C   0  0  0  0  0  0  0  0  0  0  0  0
  -31.0627  -17.7992   20.5249 C   0  0  0  0  0  0  0  0  0  0  0  0
  -22.1586   -4.8362   24.6968 C   0  0  0  0  0  0  0  0  0  0  0  0
  -23.7804  -10.5428   21.0305 C   0  0  0  0  0  0  0  0  0  0  0  0
  -24.1063  -13.0600   20.7755 C   0  0  0  0  0  0  0  0  0  0  0  0
  -24.6447  -25.1728   19.1100 C   0  0  0  0  0  0  0  0  0  0  0  0
  -28.9921  -30.0099   22.5136 C   0  0  0  0  0  0  0  0  0  0  0  0
  -25.8784  -25.7591   19.4517 C   0  0  0  0  0  0  0  0  0  0  0  0
  -29.3511  -31.1103   21.7220 C   0  0  0  0  0  0  0  0  0  0  0  0
  -31.2478  -19.1785   20.4305 C   0  0  0  0  0  0  0  0  0  0  0  0
  -30.4928  -20.0396   21.2268 C   0  0  0  0  0  0  0  0  0  0  0  0
  -29.5527  -19.5214   22.1175 C   0  0  0  0  0  0  0  0  0  0  0  0
  -30.1225  -17.2810   21.4156 C   0  0  0  0  0  0  0  0  0  0  0  0
  -22.2919   -8.2543   21.6048 C   0  0  0  0  0  0  0  0  0  0  0  0
  -31.6733  -30.8057   22.3737 C   0  0  0  0  0  0  0  0  0  0  0  0
  -22.1542   -6.1708   22.6829 C   0  0  0  0  0  0  0  0  0  0  0  0
  -23.3413   -4.2210   24.2865 C   0  0  0  0  0  0  0  0  0  0  0  0
  -21.5650   -5.8111   23.8950 C   0  0  0  0  0  0  0  0  0  0  0  0
  -29.3675  -18.1421   22.2119 C   0  0  0  0  0  0  0  0  0  0  0  0
  -24.5497  -11.7245   20.7345 C   0  0  0  0  0  0  0  0  0  0  0  0
  -25.2064  -13.7983   20.4134 C   0  0  0  0  0  0  0  0  0  0  0  0
  -22.8154  -13.5861   21.1110 C   0  0  0  0  0  0  0  0  0  0  0  0
  -26.9605  -29.2113   20.2030 C   0  0  0  0  0  0  0  0  0  0  0  0
  -25.8410  -32.2178   20.6823 C   0  0  0  0  0  0  0  0  0  0  0  0
  -26.4388  -35.3895   21.7913 C   0  0  0  0  0  0  0  0  0  0  0  0
  -30.6520  -14.9100   20.7490 C   0  0  0  0  0  0  0  0  0  0  0  0
  -23.6586  -25.8695   18.2061 C   0  0  0  0  0  0  0  0  0  0  0  0
  -27.5524  -29.5887   22.6244 C   0  0  0  0  0  0  0  0  0  0  0  0
  -28.3295  -31.8868   20.9335 C   0  0  0  0  0  0  0  0  0  0  0  0
  -23.9077  -27.3698   18.0745 C   0  0  0  0  0  0  0  0  0  0  0  0
  -29.6562  -12.3497   18.4840 C   0  0  0  0  0  0  0  0  0  0  0  0
  -34.1349  -29.1097   17.1793 C   0  0  0  0  0  0  0  0  0  0  0  0
  -25.3871  -27.6455   17.8251 C   0  0  0  0  0  0  0  0  0  0  0  0
  -33.8175  -27.6289   17.3628 C   0  0  0  0  0  0  0  0  0  0  0  0
  -28.2024  -12.0686   18.8710 C   0  0  0  0  0  0  0  0  0  0  0  0
  -30.5189  -12.6583   19.7064 C   0  0  0  0  0  0  0  0  0  0  0  0
  -28.5506  -13.4424   20.9634 C   0  0  0  0  0  0  0  0  0  0  0  0
  -35.0302  -29.6353   18.2910 C   0  0  0  0  0  0  0  0  0  0  0  0
  -34.1267  -27.8933   19.8537 C   0  0  0  0  0  0  0  0  0  0  0  0
  -26.2449  -27.1555   18.9979 C   0  0  1  0  0  0  0  0  0  0  0  0
  -26.7065  -30.0330   21.4351 C   0  0  1  0  0  0  0  0  0  0  0  0
  -33.2172  -27.3561   18.7469 C   0  0  2  0  0  0  0  0  0  0  0  0
  -27.6288  -13.1901   19.7592 C   0  0  2  0  0  0  0  0  0  0  0  0
  -32.2605  -19.7077   19.4680 C   0  0  0  0  0  0  0  0  0  0  0  0
  -28.7510  -20.4631   22.9623 C   0  0  0  0  0  0  0  0  0  0  0  0
  -25.3438  -37.6360   22.0187 C   0  0  0  0  0  0  0  0  0  0  0  0
  -31.0183  -26.1448   20.5158 C   0  0  0  0  0  0  0  0  0  0  0  0
  -26.2076  -32.6966   17.6912 C   0  0  0  0  0  0  0  0  0  0  0  0
  -26.0227  -35.1540   18.1327 C   0  0  0  0  0  0  0  0  0  0  0  0
  -24.1026  -33.6479   18.6497 C   0  0  0  0  0  0  0  0  0  0  0  0
  -26.7267  -35.3608   24.7367 C   0  0  0  0  0  0  0  0  0  0  0  0
  -30.6945  -21.5301   21.1194 C   0  0  0  0  0  0  0  0  0  0  0  0
  -32.9688  -25.8616   18.9406 C   0  0  0  0  0  0  0  0  0  0  0  0
  -31.9211  -22.0474   21.8824 C   0  0  0  0  0  0  0  0  0  0  0  0
  -34.8800  -31.4639   20.8666 C   0  0  0  0  0  0  0  0  0  0  0  0
  -35.1655  -29.9737   20.7569 C   0  0  0  0  0  0  0  0  0  0  0  0
  -32.1268  -23.5586   21.8440 C   0  0  0  0  0  0  0  0  0  0  0  0
  -33.4071  -31.7920   21.0787 C   0  0  0  0  0  0  0  0  0  1  0  0
  -26.1607  -33.5805   20.1166 C   0  0  1  0  0  0  0  0  0  0  0  0
  -25.6383  -36.3073   22.6975 C   0  0  2  0  0  0  0  0  0  0  0  0
  -32.3899  -25.5146   20.3131 C   0  0  2  0  0  0  0  0  0  0  0  0
  -25.6432  -33.7541   18.6608 C   0  0  0  0  0  0  0  0  0  0  0  0
  -25.8315  -11.6176   20.3745 N   0  0  0  0  0  0  0  0  0  0  0  0
  -26.2030  -12.8954   20.1861 N   0  0  0  0  0  0  0  0  0  0  0  0
  -26.9358  -31.4323   21.0698 N   0  0  0  0  0  0  0  0  0  0  0  0
  -29.9158  -13.7329   20.4977 N   0  0  0  0  0  0  0  0  0  0  0  0
  -25.4088  -15.1254   20.2705 N   0  0  0  0  0  0  0  0  0  0  0  0
  -21.7979  -12.6876   21.4599 N   0  0  0  0  0  0  0  0  0  0  0  0
  -29.9638  -15.8747   21.4842 N   0  0  0  0  0  0  0  0  0  0  0  0
  -26.1663  -28.0848   20.1045 N   0  0  0  0  0  0  0  0  0  0  0  0
  -25.6215  -34.5517   21.0623 N   0  0  0  0  0  0  0  0  0  0  0  0
  -34.3925  -29.3748   19.6437 N   0  3  1  0  0  0  0  0  0  0  0  0
  -26.3907  -36.5786   23.9550 N   0  3  0  0  0  0  0  0  0  0  0  0
  -32.2402  -24.0380   20.4422 N   0  3  0  0  0  0  0  0  0  0  0  0
  -22.5670  -14.8154   21.0858 O   0  0  0  0  0  0  0  0  0  0  0  0
  -27.8128  -29.5733   19.4004 O   0  0  0  0  0  0  0  0  0  0  0  0
  -24.6629  -31.8662   20.7834 O   0  0  0  0  0  0  0  0  0  0  0  0
  -27.6662  -35.4158   21.7330 O   0  0  0  0  0  0  0  0  0  0  0  0
  -31.7981  -15.0629   20.3187 O   0  0  0  0  0  0  0  0  0  0  0  0
  -21.5656   -7.1378   21.8854 O   0  0  0  0  0  0  0  0  0  0  0  0
  -32.9759  -31.1924   22.2998 O   0  0  0  0  0  0  0  0  0  1  0  0
  -23.9106   -3.2838   25.0557 F   0  0  0  0  0  0  0  0  0  0  0  0
  -20.4282   -6.3978   24.2939 F   0  0  0  0  0  0  0  0  0  0  0  0
  -28.1991  -17.4994   23.3209 Cl  0  0  0  0  0  0  0  0  0  0  0  0
  1  2  1  0  0  0  0
  1  5  2  0  0  0  0
  2  6  2  0  0  0  0
  3  8  2  0  0  0  0
  3 16  1  0  0  0  0
  4  9  1  0  0  0  0
  4 16  2  0  0  0  0
  5 18  1  0  0  0  0
  6 20  1  0  0  0  0
  7 10  2  0  0  0  0
  7 19  1  0  0  0  0
  8 26  1  0  0  0  0
  9 26  2  0  0  0  0
 10 27  1  0  0  0  0
 11 12  2  0  0  0  0
 11 28  1  0  0  0  0
 12 29  1  0  0  0  0
 13 21  1  0  0  0  0
 13 27  2  0  0  0  0
 14 22  2  0  0  0  0
 14 25  1  0  0  0  0
 15 29  2  0  0  0  0
 15 30  1  0  0  0  0
 16 32  1  0  0  0  0
 17 32  1  0  0  0  0
 17 33  2  0  0  0  0
 17 34  1  0  0  0  0
 18 20  2  0  0  0  0
 18 39  1  0  0  0  0
 19 21  2  0  0  0  0
 19 40  1  0  0  0  0
 20 52  1  0  0  0  0
 21 41  1  0  0  0  0
 22 23  1  0  0  0  0
 22 56  1  0  0  0  0
 23 24  2  0  0  0  0
 23 64  1  0  0  0  0
 24 31  1  0  0  0  0
 24 57  1  0  0  0  0
 25 31  2  0  0  0  0
 25 81  1  0  0  0  0
 26 92  1  0  0  0  0
 27 93  1  0  0  0  0
 28 30  2  0  0  0  0
 28 92  1  0  0  0  0
 29 94  1  0  0  0  0
 30 95  1  0  0  0  0
 31 96  1  0  0  0  0
 32 75  2  0  0  0  0
 33 76  1  0  0  0  0
 33 79  1  0  0  0  0
 34 80  1  0  0  0  0
 34 87  2  0  0  0  0
 35 53  1  0  0  0  0
 35 82  1  0  0  0  0
 35 88  2  0  0  0  0
 36 71  1  0  0  0  0
 36 77  1  0  0  0  0
 36 89  2  0  0  0  0
 37 72  1  0  0  0  0
 37 83  1  0  0  0  0
 37 90  2  0  0  0  0
 38 78  1  0  0  0  0
 38 81  1  0  0  0  0
 38 91  2  0  0  0  0
 39 42  1  0  0  0  0
 40 53  1  0  0  0  0
 41 77  1  0  0  0  0
 42 45  1  0  0  0  0
 43 47  1  0  0  0  0
 43 48  1  0  0  0  0
 44 46  1  0  0  0  0
 44 50  1  0  0  0  0
 45 52  1  0  0  0  0
 46 54  1  0  0  0  0
 47 55  1  0  0  0  0
 48 78  1  0  0  0  0
 49 55  1  0  0  0  0
 49 78  1  0  0  0  0
 50 84  1  0  0  0  0
 51 54  1  0  0  0  0
 51 84  1  0  0  0  0
 52 82  1  0  0  0  0
 53 77  1  0  0  0  0
 54 65  1  0  0  0  0
 55 76  1  0  0  0  0
 58 72  1  0  0  0  0
 59 73  1  0  0  0  0
 60 74  1  0  0  0  0
 61 74  1  0  0  0  0
 62 74  1  0  0  0  0
 63 85  1  0  0  0  0
 64 66  1  0  0  0  0
 65 73  1  0  0  0  0
 66 69  1  0  0  0  0
 67 68  1  0  0  0  0
 67 70  1  0  0  0  0
 68 84  1  0  0  0  0
 69 86  1  0  0  0  0
 70 93  1  0  0  0  0
 71 74  1  0  0  0  0
 71 83  1  0  0  0  0
 72 85  1  0  0  0  0
 73 86  1  0  0  0  0
 75 76  1  0  0  0  0
M  CHG  3  84   1  85   1  86   1
M  ISO  4  38 100  70 101  81 100  93 101
M  END
> <Batch ID>
0026

> <Smiles>
CNC(C)C(=O)NC(C(=O)N1Cc2cc([101O:1][101CH2:1]CCN3CCCC(CC(C)NCCCc4c(C)cc([100NH:0][100C:0](=O)N5CCCC(n6nc(-c7ccc(Oc8ccc(F)cc8F)cc7)c(C(N)=O)c6N)C5)c(Cl)c4C)C3)ccc2CC1C(=O)NC1CCCc2ccccc21)C(C)(C)C

> <Shape>
0.279

> <Color>
0.212

> <Negative vol penalty>
0.000

$$$$

  -OEChem-04052316273D

 82 90  0     1  0  0  0  0  0999 V2000
  -18.7716  -24.1750   24.6896 C   0  0  0  0  0  0  0  0  0  0  0  0
  -20.1600  -24.2085   24.7721 C   0  0  0  0  0  0  0  0  0  0  0  0
  -23.7640  -12.7486   19.3962 C   0  0  0  0  0  0  0  0  0  0  0  0
  -24.9065  -12.2077   21.4551 C   0  0  0  0  0  0  0  0  0  0  0  0
  -18.0916  -25.1718   23.9911 C   0  0  0  0  0  0  0  0  0  0  0  0
  -20.8692  -25.2385   24.1552 C   0  0  0  0  0  0  0  0  0  0  0  0
  -24.5043  -27.1427   27.1225 C   0  0  0  0  0  0  0  0  0  0  0  0
  -23.6241  -11.3893   19.1166 C   0  0  0  0  0  0  0  0  0  0  0  0
  -24.7665  -10.8483   21.1756 C   0  0  0  0  0  0  0  0  0  0  0  0
  -25.6838  -26.4080   27.2357 C   0  0  0  0  0  0  0  0  0  0  0  0
  -22.3435   -8.5015   21.3805 C   0  0  0  0  0  0  0  0  0  0  0  0
  -21.9260   -7.6678   22.4179 C   0  0  0  0  0  0  0  0  0  0  0  0
  -26.7404  -27.8687   25.6328 C   0  0  0  0  0  0  0  0  0  0  0  0
  -23.9719   -6.3980   22.2209 C   0  0  0  0  0  0  0  0  0  0  0  0
  -24.4053  -13.1579   20.5654 C   0  0  0  0  0  0  0  0  0  0  0  0
  -23.6541  -15.3804   21.5672 C   0  0  0  0  0  0  0  0  0  0  0  0
  -18.7923  -26.2198   23.3735 C   0  0  0  0  0  0  0  0  0  0  0  0
  -24.4306  -28.2411   26.2540 C   0  0  0  0  0  0  0  0  0  0  0  0
  -20.1981  -26.2496   23.4467 C   0  0  0  0  0  0  0  0  0  0  0  0
  -25.5596  -28.6172   25.5123 C   0  0  0  0  0  0  0  0  0  0  0  0
  -24.1253  -10.4391   20.0063 C   0  0  0  0  0  0  0  0  0  0  0  0
  -26.8012  -26.7691   26.4886 C   0  0  0  0  0  0  0  0  0  0  0  0
  -23.5752   -8.2835   20.7633 C   0  0  0  0  0  0  0  0  0  0  0  0
  -22.7402   -6.6161   22.8381 C   0  0  0  0  0  0  0  0  0  0  0  0
  -24.3894   -7.2318   21.1835 C   0  0  0  0  0  0  0  0  0  0  0  0
  -26.1448  -22.3900   23.2023 C   0  0  0  0  0  0  0  0  0  0  0  0
  -24.5507  -14.5619   20.8544 C   0  0  0  0  0  0  0  0  0  0  0  0
  -27.3633  -22.3007   23.8299 C   0  0  0  0  0  0  0  0  0  0  0  0
  -25.8934  -23.7725   23.1169 C   0  0  0  0  0  0  0  0  0  0  0  0
  -24.2455  -16.6201   21.5657 C   0  0  0  0  0  0  0  0  0  0  0  0
  -22.3990  -15.0497   22.1762 C   0  0  0  0  0  0  0  0  0  0  0  0
  -22.7003  -28.9578   23.6857 C   0  0  0  0  0  0  0  0  0  0  0  0
  -24.1721  -31.8338   23.9772 C   0  0  0  0  0  0  0  0  0  0  0  0
  -26.8411  -33.6184   25.1339 C   0  0  0  0  0  0  0  0  0  0  0  0
  -28.7468  -19.8655   22.1578 C   0  0  0  0  0  0  0  0  0  0  0  0
  -18.0168  -27.2488   22.5897 C   0  0  0  0  0  0  0  0  0  0  0  0
  -23.1591  -29.0395   26.1633 C   0  0  0  0  0  0  0  0  0  0  0  0
  -25.5384  -29.8005   24.5808 C   0  0  0  0  0  0  0  0  0  0  0  0
  -18.8183  -28.5108   22.2813 C   0  0  0  0  0  0  0  0  0  0  0  0
  -28.2196  -18.3688   18.9706 C   0  0  0  0  0  0  0  0  0  0  0  0
  -20.2057  -28.1482   21.7612 C   0  0  0  0  0  0  0  0  0  0  0  0
  -27.1493  -17.3089   19.2368 C   0  0  0  0  0  0  0  0  0  0  0  0
  -29.1912  -18.4963   20.1419 C   0  0  0  0  0  0  0  0  0  0  0  0
  -27.4846  -17.6725   21.7175 C   0  0  0  0  0  0  0  0  0  0  0  0
  -21.0012  -27.3640   22.8118 C   0  0  1  0  0  0  0  0  0  0  0  0
  -23.0400  -29.8279   24.8627 C   0  0  1  0  0  0  0  0  0  0  0  0
  -26.4482  -17.5469   20.5877 C   0  0  2  0  0  0  0  0  0  0  0  0
  -27.7824  -35.9441   25.1858 C   0  0  0  0  0  0  0  0  0  0  0  0
  -25.0343  -31.5472   21.0644 C   0  0  0  0  0  0  0  0  0  0  0  0
  -26.7129  -33.3631   21.4553 C   0  0  0  0  0  0  0  0  0  0  0  0
  -24.2780  -33.8426   21.7074 C   0  0  0  0  0  0  0  0  0  0  0  0
  -26.7501  -33.7141   28.0905 C   0  0  0  0  0  0  0  0  0  0  0  0
  -28.1806  -21.1338   24.2145 C   0  0  0  0  0  0  0  0  0  0  0  0
  -28.9913  -23.9149   26.2705 C   0  0  0  0  0  0  0  0  0  0  0  0
  -29.0249  -24.0347   24.7453 C   0  0  0  0  0  0  0  0  0  0  0  0
  -27.8298  -24.6667   26.9100 C   0  0  0  0  0  0  0  0  0  1  0  0
  -25.4517  -32.4381   23.4515 C   0  0  1  0  0  0  0  0  0  0  0  0
  -26.9221  -34.9205   25.9102 C   0  0  2  0  0  0  0  0  0  0  0  0
  -25.3694  -32.7742   21.9357 C   0  0  0  0  0  0  0  0  0  0  0  0
  -25.6295  -15.2258   20.4308 N   0  0  0  0  0  0  0  0  0  0  0  0
  -26.8733  -24.5085   23.6479 N   0  0  0  0  0  0  0  0  0  0  0  0
  -27.7523  -23.5851   24.0730 N   0  0  0  0  0  0  0  0  0  0  0  0
  -25.4146  -16.4745   20.8786 N   0  0  0  0  0  0  0  0  0  0  0  0
  -24.2700  -30.5457   24.5222 N   0  0  0  0  0  0  0  0  0  0  0  0
  -28.4628  -18.7224   21.3926 N   0  0  0  0  0  0  0  0  0  0  0  0
  -23.8743  -17.8095   22.0851 N   0  0  0  0  0  0  0  0  0  0  0  0
  -21.9388  -13.7291   22.0837 N   0  0  0  0  0  0  0  0  0  0  0  0
  -21.5171  -28.2580   23.8262 N   0  0  0  0  0  0  0  0  0  0  0  0
  -25.7409  -33.5865   24.3034 N   0  0  0  0  0  0  0  0  0  0  0  0
  -28.0069  -20.0068   23.3254 N   0  0  0  0  0  0  0  0  0  0  0  0
  -27.5092  -34.6835   27.2593 N   0  3  0  0  0  0  0  0  0  0  0  0
  -21.6982  -15.9038   22.7703 O   0  0  0  0  0  0  0  0  0  0  0  0
  -23.4551  -28.9250   22.7208 O   0  0  0  0  0  0  0  0  0  0  0  0
  -23.1255  -32.4837   23.9134 O   0  0  0  0  0  0  0  0  0  0  0  0
  -27.6729  -32.7211   25.2497 O   0  0  0  0  0  0  0  0  0  0  0  0
  -29.5930  -20.7013   21.8224 O   0  0  0  0  0  0  0  0  0  0  0  0
  -23.9887   -9.1126   19.7340 O   0  0  0  0  0  0  0  0  0  0  0  0
  -27.9535  -26.0533   26.5967 O   0  0  0  0  0  0  0  0  0  1  0  0
  -22.3398   -5.8165   23.8353 F   0  0  0  0  0  0  0  0  0  0  0  0
  -25.5743   -7.0181   20.5951 F   0  0  0  0  0  0  0  0  0  0  0  0
  -25.1585  -21.1290   22.6478 Cl  0  0  0  0  0  0  0  0  0  0  0  0
  -24.5323  -24.5227   22.4343 Cl  0  0  0  0  0  0  0  0  0  0  0  0
  1  2  1  0  0  0  0
  1  5  2  0  0  0  0
  2  6  2  0  0  0  0
  3  8  2  0  0  0  0
  3 15  1  0  0  0  0
  4  9  1  0  0  0  0
  4 15  2  0  0  0  0
  5 17  1  0  0  0  0
  6 19  1  0  0  0  0
  7 10  2  0  0  0  0
  7 18  1  0  0  0  0
  8 21  1  0  0  0  0
  9 21  2  0  0  0  0
 10 22  1  0  0  0  0
 11 12  2  0  0  0  0
 11 23  1  0  0  0  0
 12 24  1  0  0  0  0
 13 20  1  0  0  0  0
 13 22  2  0  0  0  0
 14 24  2  0  0  0  0
 14 25  1  0  0  0  0
 15 27  1  0  0  0  0
 16 27  1  0  0  0  0
 16 30  2  0  0  0  0
 16 31  1  0  0  0  0
 17 19  2  0  0  0  0
 17 36  1  0  0  0  0
 18 20  2  0  0  0  0
 18 37  1  0  0  0  0
 19 45  1  0  0  0  0
 20 38  1  0  0  0  0
 21 77  1  0  0  0  0
 22 78  1  0  0  0  0
 23 25  2  0  0  0  0
 23 77  1  0  0  0  0
 24 79  1  0  0  0  0
 25 80  1  0  0  0  0
 26 28  2  0  0  0  0
 26 29  1  0  0  0  0
 26 81  1  0  0  0  0
 27 60  2  0  0  0  0
 28 53  1  0  0  0  0
 28 62  1  0  0  0  0
 29 61  2  0  0  0  0
 29 82  1  0  0  0  0
 30 63  1  0  0  0  0
 30 66  1  0  0  0  0
 31 67  1  0  0  0  0
 31 72  2  0  0  0  0
 32 46  1  0  0  0  0
 32 68  1  0  0  0  0
 32 73  2  0  0  0  0
 33 57  1  0  0  0  0
 33 64  1  0  0  0  0
 33 74  2  0  0  0  0
 34 58  1  0  0  0  0
 34 69  1  0  0  0  0
 34 75  2  0  0  0  0
 35 65  1  0  0  0  0
 35 70  1  0  0  0  0
 35 76  2  0  0  0  0
 36 39  1  0  0  0  0
 37 46  1  0  0  0  0
 38 64  1  0  0  0  0
 39 41  1  0  0  0  0
 40 42  1  0  0  0  0
 40 43  1  0  0  0  0
 41 45  1  0  0  0  0
 42 47  1  0  0  0  0
 43 65  1  0  0  0  0
 44 47  1  0  0  0  0
 44 65  1  0  0  0  0
 45 68  1  0  0  0  0
 46 64  1  0  0  0  0
 47 63  1  0  0  0  0
 48 58  1  0  0  0  0
 49 59  1  0  0  0  0
 50 59  1  0  0  0  0
 51 59  1  0  0  0  0
 52 71  1  0  0  0  0
 53 70  1  0  0  0  0
 54 55  1  0  0  0  0
 54 56  1  0  0  0  0
 55 62  1  0  0  0  0
 56 78  1  0  0  0  0
 57 59  1  0  0  0  0
 57 69  1  0  0  0  0
 58 71  1  0  0  0  0
 60 63  1  0  0  0  0
 61 62  1  0  0  0  0
M  CHG  1  71   1
M  ISO  4  35 100  56 101  70 100  78 101
M  END
> <Batch ID>
0026

> <Smiles>
CNC(C)C(=O)NC(C(=O)N1Cc2cc([101O:1][101CH2:1]CCn3nc(Cl)c(Cl)c3C[100NH:0][100C:0](=O)N3CCCC(n4nc(-c5ccc(Oc6ccc(F)cc6F)cc5)c(C(N)=O)c4N)C3)ccc2CC1C(=O)NC1CCCc2ccccc21)C(C)(C)C

> <Shape>
0.217

> <Color>
0.096

> <Negative vol penalty>
0.000

$$$$

  -OEChem-04052316273D

 89 97  0     1  0  0  0  0  0999 V2000
  -22.3782  -33.2132   15.2759 C   0  0  0  0  0  0  0  0  0  0  0  0
  -22.7269  -31.8888   15.5200 C   0  0  0  0  0  0  0  0  0  0  0  0
  -23.1952   -9.9008   19.7977 C   0  0  0  0  0  0  0  0  0  0  0  0
  -23.9110   -9.7782   22.1019 C   0  0  0  0  0  0  0  0  0  0  0  0
  -22.8522  -34.2231   16.1122 C   0  0  0  0  0  0  0  0  0  0  0  0
  -23.5508  -31.5735   16.5999 C   0  0  0  0  0  0  0  0  0  0  0  0
  -23.2876  -26.5457   20.0866 C   0  0  0  0  0  0  0  0  0  0  0  0
  -22.5064   -8.6972   19.9476 C   0  0  0  0  0  0  0  0  0  0  0  0
  -23.2222   -8.5746   22.2519 C   0  0  0  0  0  0  0  0  0  0  0  0
  -24.0134  -25.3554   20.0725 C   0  0  0  0  0  0  0  0  0  0  0  0
  -20.0281   -7.5767   22.7237 C   0  0  0  0  0  0  0  0  0  0  0  0
  -19.2526   -7.4143   23.8716 C   0  0  0  0  0  0  0  0  0  0  0  0
  -25.4805  -26.2368   21.7725 C   0  0  0  0  0  0  0  0  0  0  0  0
  -20.5770   -5.4920   24.4944 C   0  0  0  0  0  0  0  0  0  0  0  0
  -23.8976  -10.4413   20.8748 C   0  0  0  0  0  0  0  0  0  0  0  0
  -24.1128  -12.9823   20.9441 C   0  0  0  0  0  0  0  0  0  0  0  0
  -23.6745  -33.9191   17.2086 C   0  0  0  0  0  0  0  0  0  0  0  0
  -23.6600  -27.5964   20.9374 C   0  0  0  0  0  0  0  0  0  0  0  0
  -24.0373  -32.5805   17.4508 C   0  0  0  0  0  0  0  0  0  0  0  0
  -24.7562  -27.4385   21.7973 C   0  0  0  0  0  0  0  0  0  0  0  0
  -22.5199   -8.0341   21.1747 C   0  0  0  0  0  0  0  0  0  0  0  0
  -25.1117  -25.2019   20.9134 C   0  0  0  0  0  0  0  0  0  0  0  0
  -21.0781   -6.6967   22.4611 C   0  0  0  0  0  0  0  0  0  0  0  0
  -19.5270   -6.3719   24.7570 C   0  0  0  0  0  0  0  0  0  0  0  0
  -21.3525   -5.6544   23.3465 C   0  0  0  0  0  0  0  0  0  0  0  0
  -24.6098  -11.6843   20.7204 C   0  0  0  0  0  0  0  0  0  0  0  0
  -25.1720  -13.8092   20.6599 C   0  0  0  0  0  0  0  0  0  0  0  0
  -22.8102  -13.4029   21.3706 C   0  0  0  0  0  0  0  0  0  0  0  0
  -24.6288  -30.5933   20.5093 C   0  0  0  0  0  0  0  0  0  0  0  0
  -24.4139  -30.7130   23.7438 C   0  0  0  0  0  0  0  0  0  0  0  0
  -24.4213  -29.0291   26.7122 C   0  0  0  0  0  0  0  0  0  0  0  0
  -30.3587  -15.2066   20.9857 C   0  0  0  0  0  0  0  0  0  0  0  0
  -24.2009  -35.0497   18.0567 C   0  0  0  0  0  0  0  0  0  0  0  0
  -22.8506  -28.8639   20.9599 C   0  0  0  0  0  0  0  0  0  0  0  0
  -25.1849  -28.5286   22.7441 C   0  0  0  0  0  0  0  0  0  0  0  0
  -24.7640  -34.5924   19.3999 C   0  0  0  0  0  0  0  0  0  0  0  0
  -29.6151  -12.8510   18.4618 C   0  0  0  0  0  0  0  0  0  0  0  0
  -25.6784  -33.3860   19.2126 C   0  0  0  0  0  0  0  0  0  0  0  0
  -28.1976  -12.4310   18.8480 C   0  0  0  0  0  0  0  0  0  0  0  0
  -31.9031  -17.1575   19.1556 C   0  0  0  0  0  0  0  0  0  0  0  0
  -30.5144  -13.0322   19.6860 C   0  0  0  0  0  0  0  0  0  0  0  0
  -28.5403  -13.5290   21.0927 C   0  0  0  0  0  0  0  0  0  0  0  0
  -32.4758  -18.5173   18.7852 C   0  0  0  0  0  0  0  0  0  0  0  0
  -32.5715  -19.1513   21.2076 C   0  0  0  0  0  0  0  0  0  0  0  0
  -24.9088  -32.1960   18.6268 C   0  0  1  0  0  0  0  0  0  0  0  0
  -23.6294  -30.0608   21.4969 C   0  0  1  0  0  0  0  0  0  0  0  0
  -31.9978  -17.7877   21.6090 C   0  0  1  0  0  0  0  0  0  0  0  0
  -27.6003  -13.3985   19.8843 C   0  0  2  0  0  0  0  0  0  0  0  0
  -32.3423  -16.7181   20.5546 C   0  0  1  0  0  0  0  0  0  0  0  0
  -24.2643  -29.4019   29.1888 C   0  0  0  0  0  0  0  0  0  0  0  0
  -34.0023  -21.0398   19.7240 C   0  0  0  0  0  0  0  0  0  0  0  0
  -31.8911  -16.0735   23.4356 C   0  0  0  0  0  0  0  0  0  0  0  0
  -32.1401  -18.5018   24.0081 C   0  0  0  0  0  0  0  0  0  0  0  0
  -34.0467  -17.2604   22.9544 C   0  0  0  0  0  0  0  0  0  0  0  0
  -27.2956  -31.7155   23.7732 C   0  0  0  0  0  0  0  0  0  0  0  0
  -27.3891  -31.1639   26.2135 C   0  0  0  0  0  0  0  0  0  0  0  0
  -25.7721  -32.8725   25.3839 C   0  0  0  0  0  0  0  0  0  0  0  0
  -32.6364  -14.2812   20.8015 C   0  0  0  0  0  0  0  0  0  0  0  0
  -21.9623  -27.3953   26.9193 C   0  0  0  0  0  0  0  0  0  0  0  0
  -29.4515  -23.0528   20.7745 C   0  0  0  0  0  0  0  0  0  0  0  0
  -30.1896  -21.9542   20.0074 C   0  0  0  0  0  0  0  0  0  0  0  0
  -27.9505  -23.0113   20.4921 C   0  0  0  0  0  0  0  0  0  0  0  0
  -31.7045  -21.9503   20.2486 C   0  0  0  0  0  0  0  0  0  0  0  0
  -27.2112  -24.1268   21.2174 C   0  0  0  0  0  0  0  0  0  1  0  0
  -25.3554  -30.4285   24.8890 C   0  0  1  0  0  0  0  0  0  0  0  0
  -23.4947  -29.0995   27.9125 C   0  0  2  0  0  0  0  0  0  0  0  0
  -32.5083  -20.9179   19.4498 C   0  0  2  0  0  0  0  0  0  0  0  0
  -32.5176  -17.4068   22.9983 C   0  0  0  0  0  0  0  0  0  0  0  0
  -26.4464  -31.5251   25.0458 C   0  0  0  0  0  0  0  0  0  0  0  0
  -25.8854  -11.6817   20.3245 N   0  0  0  0  0  0  0  0  0  0  0  0
  -26.1989  -12.9882   20.2971 N   0  0  0  0  0  0  0  0  0  0  0  0
  -24.3653  -29.7515   22.7245 N   0  0  0  0  0  0  0  0  0  0  0  0
  -29.8861  -13.9243   20.6699 N   0  0  0  0  0  0  0  0  0  0  0  0
  -25.3158  -15.1512   20.6874 N   0  0  0  0  0  0  0  0  0  0  0  0
  -21.8397  -12.4227   21.6192 N   0  0  0  0  0  0  0  0  0  0  0  0
  -24.1187  -31.5505   19.6532 N   0  0  0  0  0  0  0  0  0  0  0  0
  -24.5183  -30.2453   26.0698 N   0  0  0  0  0  0  0  0  0  0  0  0
  -31.7402  -15.4263   20.8787 N   0  0  0  0  0  0  0  0  0  0  0  0
  -32.0832  -19.5418   19.8275 N   0  3  1  0  0  0  0  0  0  0  0  0
  -22.7789  -27.8046   28.0909 N   0  3  0  0  0  0  0  0  0  0  0  0
  -22.5106  -14.6129   21.5109 O   0  0  0  0  0  0  0  0  0  0  0  0
  -25.7782  -30.1684   20.5240 O   0  0  0  0  0  0  0  0  0  0  0  0
  -23.7409  -31.7467   23.7567 O   0  0  0  0  0  0  0  0  0  0  0  0
  -25.0040  -27.9992   26.3800 O   0  0  0  0  0  0  0  0  0  0  0  0
  -29.5901  -16.1054   21.3513 O   0  0  0  0  0  0  0  0  0  0  0  0
  -21.8476   -6.8597   21.3214 O   0  0  0  0  0  0  0  0  0  0  0  0
  -25.8223  -24.0414   20.9012 O   0  0  0  0  0  0  0  0  0  1  0  0
  -18.7831   -6.2170   25.8601 F   0  0  0  0  0  0  0  0  0  0  0  0
  -22.3606   -4.8065   23.1001 F   0  0  0  0  0  0  0  0  0  0  0  0
  1  2  1  0  0  0  0
  1  5  2  0  0  0  0
  2  6  2  0  0  0  0
  3  8  2  0  0  0  0
  3 15  1  0  0  0  0
  4  9  1  0  0  0  0
  4 15  2  0  0  0  0
  5 17  1  0  0  0  0
  6 19  1  0  0  0  0
  7 10  2  0  0  0  0
  7 18  1  0  0  0  0
  8 21  1  0  0  0  0
  9 21  2  0  0  0  0
 10 22  1  0  0  0  0
 11 12  2  0  0  0  0
 11 23  1  0  0  0  0
 12 24  1  0  0  0  0
 13 20  1  0  0  0  0
 13 22  2  0  0  0  0
 14 24  2  0  0  0  0
 14 25  1  0  0  0  0
 15 26  1  0  0  0  0
 16 26  1  0  0  0  0
 16 27  2  0  0  0  0
 16 28  1  0  0  0  0
 17 19  2  0  0  0  0
 17 33  1  0  0  0  0
 18 20  2  0  0  0  0
 18 34  1  0  0  0  0
 19 45  1  0  0  0  0
 20 35  1  0  0  0  0
 21 86  1  0  0  0  0
 22 87  1  0  0  0  0
 23 25  2  0  0  0  0
 23 86  1  0  0  0  0
 24 88  1  0  0  0  0
 25 89  1  0  0  0  0
 26 70  2  0  0  0  0
 27 71  1  0  0  0  0
 27 74  1  0  0  0  0
 28 75  1  0  0  0  0
 28 81  2  0  0  0  0
 29 46  1  0  0  0  0
 29 76  1  0  0  0  0
 29 82  2  0  0  0  0
 30 65  1  0  0  0  0
 30 72  1  0  0  0  0
 30 83  2  0  0  0  0
 31 66  1  0  0  0  0
 31 77  1  0  0  0  0
 31 84  2  0  0  0  0
 32 73  1  0  0  0  0
 32 78  1  0  0  0  0
 32 85  2  0  0  0  0
 33 36  1  0  0  0  0
 34 46  1  0  0  0  0
 35 72  1  0  0  0  0
 36 38  1  0  0  0  0
 37 39  1  0  0  0  0
 37 41  1  0  0  0  0
 38 45  1  0  0  0  0
 39 48  1  0  0  0  0
 40 43  1  0  0  0  0
 40 49  1  0  0  0  0
 41 73  1  0  0  0  0
 42 48  1  0  0  0  0
 42 73  1  0  0  0  0
 43 79  1  0  0  0  0
 44 47  1  0  0  0  0
 44 79  1  0  0  0  0
 45 76  1  0  0  0  0
 46 72  1  0  0  0  0
 47 49  1  0  0  0  0
 47 68  1  0  0  0  0
 48 71  1  0  0  0  0
 49 78  1  0  0  0  0
 50 66  1  0  0  0  0
 51 67  1  0  0  0  0
 52 68  1  0  0  0  0
 53 68  1  0  0  0  0
 54 68  1  0  0  0  0
 55 69  1  0  0  0  0
 56 69  1  0  0  0  0
 57 69  1  0  0  0  0
 58 78  1  0  0  0  0
 59 80  1  0  0  0  0
 60 61  1  0  0  0  0
 60 62  1  0  0  0  0
 61 63  1  0  0  0  0
 62 64  1  0  0  0  0
 63 67  1  0  0  0  0
 64 87  1  0  0  0  0
 65 69  1  0  0  0  0
 65 77  1  0  0  0  0
 66 80  1  0  0  0  0
 67 79  1  0  0  0  0
 70 71  1  0  0  0  0
M  CHG  2  79   1  80   1
M  ISO  4  32 100  64 101  78 100  87 101
M  END
> <Batch ID>
0026

> <Smiles>
CNC(C)C(=O)NC(C(=O)N1Cc2cc([101O:1][101CH2:1]CCCCC(C)N3CCC([100N:0](C)[100C:0](=O)N4CCCC(n5nc(-c6ccc(Oc7ccc(F)cc7F)cc6)c(C(N)=O)c5N)C4)C(C(C)(C)C)C3)ccc2CC1C(=O)NC1CCCc2ccccc21)C(C)(C)C

> <Shape>
0.283

> <Color>
0.197

> <Negative vol penalty>
0.000

$$$$

  -OEChem-04052316273D

 84 92  0     1  0  0  0  0  0999 V2000
  -26.7521  -21.5261   29.3072 C   0  0  0  0  0  0  0  0  0  0  0  0
  -27.4677  -22.0646   28.2426 C   0  0  0  0  0  0  0  0  0  0  0  0
  -25.4793  -13.2856   22.0104 C   0  0  0  0  0  0  0  0  0  0  0  0
  -26.2065  -13.5479   19.7214 C   0  0  0  0  0  0  0  0  0  0  0  0
  -25.3723  -21.3554   29.2028 C   0  0  0  0  0  0  0  0  0  0  0  0
  -26.8040  -22.4316   27.0725 C   0  0  0  0  0  0  0  0  0  0  0  0
  -28.1573  -27.1371   23.3937 C   0  0  0  0  0  0  0  0  0  0  0  0
  -24.4568  -12.4361   21.5882 C   0  0  0  0  0  0  0  0  0  0  0  0
  -25.1840  -12.6983   19.2992 C   0  0  0  0  0  0  0  0  0  0  0  0
  -28.8682  -27.2179   22.1971 C   0  0  0  0  0  0  0  0  0  0  0  0
  -24.1330   -9.2060   20.6424 C   0  0  0  0  0  0  0  0  0  0  0  0
  -23.9290   -8.0293   21.3630 C   0  0  0  0  0  0  0  0  0  0  0  0
  -26.7982  -27.0860   20.9654 C   0  0  0  0  0  0  0  0  0  0  0  0
  -21.6741   -8.7320   21.8720 C   0  0  0  0  0  0  0  0  0  0  0  0
  -26.3542  -13.8416   21.0770 C   0  0  0  0  0  0  0  0  0  0  0  0
  -28.7181  -14.3564   21.8860 C   0  0  0  0  0  0  0  0  0  0  0  0
  -24.6899  -21.7295   28.0344 C   0  0  0  0  0  0  0  0  0  0  0  0
  -26.7600  -27.0189   23.3849 C   0  0  0  0  0  0  0  0  0  0  0  0
  -25.4139  -22.2645   26.9519 C   0  0  0  0  0  0  0  0  0  0  0  0
  -26.0717  -27.0064   22.1633 C   0  0  0  0  0  0  0  0  0  0  0  0
  -29.6435  -25.9332   16.7282 C   0  0  0  0  0  0  0  0  0  0  0  0
  -24.3091  -12.1424   20.2327 C   0  0  0  0  0  0  0  0  0  0  0  0
  -28.1889  -27.1895   20.9826 C   0  0  0  0  0  0  0  0  0  0  0  0
  -23.1077  -10.1458   20.5367 C   0  0  0  0  0  0  0  0  0  0  0  0
  -22.6995   -7.7922   21.9778 C   0  0  0  0  0  0  0  0  0  0  0  0
  -21.8782   -9.9088   21.1515 C   0  0  0  0  0  0  0  0  0  0  0  0
  -29.7288  -24.5740   16.3380 C   0  0  0  0  0  0  0  0  0  0  0  0
  -27.4104  -14.7197   21.5124 C   0  0  0  0  0  0  0  0  0  0  0  0
  -30.5690  -26.1329   17.7286 C   0  0  0  0  0  0  0  0  0  0  0  0
  -30.7038  -23.9843   17.1120 C   0  0  0  0  0  0  0  0  0  0  0  0
  -29.3241  -15.5446   22.2138 C   0  0  0  0  0  0  0  0  0  0  0  0
  -29.3304  -13.0608   21.9326 C   0  0  0  0  0  0  0  0  0  0  0  0
  -24.6875  -24.8304   24.3942 C   0  0  0  0  0  0  0  0  0  0  0  0
  -22.5017  -27.0676   23.5343 C   0  0  0  0  0  0  0  0  0  0  0  0
  -21.7405  -29.7894   21.6214 C   0  0  0  0  0  0  0  0  0  0  0  0
  -28.3167  -21.2194   20.5911 C   0  0  0  0  0  0  0  0  0  0  0  0
  -23.2045  -21.4821   27.9505 C   0  0  0  0  0  0  0  0  0  0  0  0
  -26.0057  -26.9597   24.6848 C   0  0  0  0  0  0  0  0  0  0  0  0
  -24.5706  -26.9014   22.0999 C   0  0  0  0  0  0  0  0  0  0  0  0
  -22.5232  -22.2440   26.8167 C   0  0  0  0  0  0  0  0  0  0  0  0
  -28.3366  -19.9109   23.9023 C   0  0  0  0  0  0  0  0  0  0  0  0
  -23.3208  -22.1032   25.5241 C   0  0  0  0  0  0  0  0  0  0  0  0
  -28.2195  -18.3993   23.6990 C   0  0  0  0  0  0  0  0  0  0  0  0
  -27.5151  -20.6841   22.8730 C   0  0  0  0  0  0  0  0  0  0  0  0
  -27.6795  -18.8242   21.2645 C   0  0  0  0  0  0  0  0  0  0  0  0
  -24.7262  -22.6978   25.6754 C   0  0  1  0  0  0  0  0  0  0  0  0
  -24.6258  -26.3239   24.5465 C   0  0  1  0  0  0  0  0  0  0  0  0
  -28.5353  -18.0031   22.2441 C   0  0  2  0  0  0  0  0  0  0  0  0
  -28.7341  -26.9573   16.1721 C   0  0  0  0  0  0  0  0  0  0  0  0
  -19.8634  -31.3740   21.1085 C   0  0  0  0  0  0  0  0  0  0  0  0
  -21.1543  -24.9186   21.8383 C   0  0  0  0  0  0  0  0  0  0  0  0
  -19.9122  -26.7365   20.6465 C   0  0  0  0  0  0  0  0  0  0  0  0
  -19.5767  -26.3972   23.0949 C   0  0  0  0  0  0  0  0  0  0  0  0
  -32.2541  -24.7271   18.9308 C   0  0  0  0  0  0  0  0  0  0  0  0
  -23.2952  -32.1217   22.5714 C   0  0  0  0  0  0  0  0  0  0  0  0
  -30.9076  -27.3818   18.5057 C   0  0  0  0  0  0  0  0  0  0  0  0
  -31.2017  -22.5920   17.1255 C   0  0  0  0  0  0  0  0  0  0  0  0
  -30.6394  -21.7109   18.2657 C   0  0  0  0  0  0  0  0  0  0  0  0
  -29.1166  -21.5956   18.2720 C   0  0  0  0  0  0  0  0  0  0  0  0
  -30.3003  -27.3770   19.9043 C   0  0  0  0  0  0  0  0  0  1  0  0
  -21.7478  -27.3944   22.2679 C   0  0  1  0  0  0  0  0  0  0  0  0
  -21.0894  -31.1156   21.9704 C   0  0  2  0  0  0  0  0  0  0  0  0
  -20.6262  -26.3617   21.9627 C   0  0  0  0  0  0  0  0  0  0  0  0
  -27.1973  -16.0357   21.5949 N   0  0  0  0  0  0  0  0  0  0  0  0
  -31.2074  -24.9413   17.9539 N   0  0  0  0  0  0  0  0  0  0  0  0
  -28.3792  -16.5097   22.0243 N   0  0  0  0  0  0  0  0  0  0  0  0
  -23.8784  -26.8398   23.3978 N   0  0  0  0  0  0  0  0  0  0  0  0
  -27.8638  -20.2624   21.5142 N   0  0  0  0  0  0  0  0  0  0  0  0
  -30.5678  -15.8475   22.6428 N   0  0  0  0  0  0  0  0  0  0  0  0
  -28.5650  -11.9465   21.5625 N   0  0  0  0  0  0  0  0  0  0  0  0
  -24.6756  -24.1418   25.5922 N   0  0  0  0  0  0  0  0  0  0  0  0
  -21.2728  -28.7656   22.4178 N   0  0  0  0  0  0  0  0  0  0  0  0
  -28.6317  -20.7345   19.3276 N   0  0  0  0  0  0  0  0  0  0  0  0
  -22.0519  -32.2349   21.7660 N   0  3  0  0  0  0  0  0  0  0  0  0
  -30.5158  -12.8943   22.3073 O   0  0  0  0  0  0  0  0  0  0  0  0
  -24.7403  -24.3391   23.2728 O   0  0  0  0  0  0  0  0  0  0  0  0
  -21.8929  -27.0234   24.6062 O   0  0  0  0  0  0  0  0  0  0  0  0
  -22.5774  -29.6727   20.7289 O   0  0  0  0  0  0  0  0  0  0  0  0
  -28.4370  -22.4163   20.8737 O   0  0  0  0  0  0  0  0  0  0  0  0
  -23.3116  -11.3133   19.8204 O   0  0  0  0  0  0  0  0  0  0  0  0
  -28.8804  -27.2675   19.8132 O   0  0  0  0  0  0  0  0  0  1  0  0
  -22.5032   -6.6614   22.6684 F   0  0  0  0  0  0  0  0  0  0  0  0
  -20.8890  -10.8074   21.0525 F   0  0  0  0  0  0  0  0  0  0  0  0
  -28.7872  -23.8317   15.1319 Cl  0  0  0  0  0  0  0  0  0  0  0  0
  1  2  1  0  0  0  0
  1  5  2  0  0  0  0
  2  6  2  0  0  0  0
  3  8  2  0  0  0  0
  3 15  1  0  0  0  0
  4  9  1  0  0  0  0
  4 15  2  0  0  0  0
  5 17  1  0  0  0  0
  6 19  1  0  0  0  0
  7 10  2  0  0  0  0
  7 18  1  0  0  0  0
  8 22  1  0  0  0  0
  9 22  2  0  0  0  0
 10 23  1  0  0  0  0
 11 12  2  0  0  0  0
 11 24  1  0  0  0  0
 12 25  1  0  0  0  0
 13 20  1  0  0  0  0
 13 23  2  0  0  0  0
 14 25  2  0  0  0  0
 14 26  1  0  0  0  0
 15 28  1  0  0  0  0
 16 28  1  0  0  0  0
 16 31  2  0  0  0  0
 16 32  1  0  0  0  0
 17 19  2  0  0  0  0
 17 37  1  0  0  0  0
 18 20  2  0  0  0  0
 18 38  1  0  0  0  0
 19 46  1  0  0  0  0
 20 39  1  0  0  0  0
 21 27  1  0  0  0  0
 21 29  2  0  0  0  0
 21 49  1  0  0  0  0
 22 80  1  0  0  0  0
 23 81  1  0  0  0  0
 24 26  2  0  0  0  0
 24 80  1  0  0  0  0
 25 82  1  0  0  0  0
 26 83  1  0  0  0  0
 27 30  2  0  0  0  0
 27 84  1  0  0  0  0
 28 64  2  0  0  0  0
 29 56  1  0  0  0  0
 29 65  1  0  0  0  0
 30 57  1  0  0  0  0
 30 65  1  0  0  0  0
 31 66  1  0  0  0  0
 31 69  1  0  0  0  0
 32 70  1  0  0  0  0
 32 75  2  0  0  0  0
 33 47  1  0  0  0  0
 33 71  1  0  0  0  0
 33 76  2  0  0  0  0
 34 61  1  0  0  0  0
 34 67  1  0  0  0  0
 34 77  2  0  0  0  0
 35 62  1  0  0  0  0
 35 72  1  0  0  0  0
 35 78  2  0  0  0  0
 36 68  1  0  0  0  0
 36 73  1  0  0  0  0
 36 79  2  0  0  0  0
 37 40  1  0  0  0  0
 38 47  1  0  0  0  0
 39 67  1  0  0  0  0
 40 42  1  0  0  0  0
 41 43  1  0  0  0  0
 41 44  1  0  0  0  0
 42 46  1  0  0  0  0
 43 48  1  0  0  0  0
 44 68  1  0  0  0  0
 45 48  1  0  0  0  0
 45 68  1  0  0  0  0
 46 71  1  0  0  0  0
 47 67  1  0  0  0  0
 48 66  1  0  0  0  0
 50 62  1  0  0  0  0
 51 63  1  0  0  0  0
 52 63  1  0  0  0  0
 53 63  1  0  0  0  0
 54 65  1  0  0  0  0
 55 74  1  0  0  0  0
 56 60  1  0  0  0  0
 57 58  1  0  0  0  0
 58 59  1  0  0  0  0
 59 73  1  0  0  0  0
 60 81  1  0  0  0  0
 61 63  1  0  0  0  0
 61 72  1  0  0  0  0
 62 74  1  0  0  0  0
 64 66  1  0  0  0  0
M  CHG  1  74   1
M  ISO  4  36 100  60 101  73 100  81 101
M  END
> <Batch ID>
0026

> <Smiles>
CNC(C)C(=O)NC(C(=O)N1Cc2cc([101O:1][101CH2:1]Cc3c(C)c(Cl)c(CCC[100NH:0][100C:0](=O)N4CCCC(n5nc(-c6ccc(Oc7ccc(F)cc7F)cc6)c(C(N)=O)c5N)C4)n3C)ccc2CC1C(=O)NC1CCCc2ccccc21)C(C)(C)C

> <Shape>
0.237

> <Color>
0.060

> <Negative vol penalty>
0.000

$$$$

  -OEChem-04052316273D

 85 93  0     1  0  0  0  0  0999 V2000
  -27.6355  -38.0154   20.7763 C   0  0  0  0  0  0  0  0  0  0  0  0
  -28.1344  -36.8207   20.2671 C   0  0  0  0  0  0  0  0  0  0  0  0
  -22.8675  -10.3536   20.0399 C   0  0  0  0  0  0  0  0  0  0  0  0
  -24.0073   -9.5584   22.0162 C   0  0  0  0  0  0  0  0  0  0  0  0
  -26.7686  -37.9985   21.8681 C   0  0  0  0  0  0  0  0  0  0  0  0
  -27.7675  -35.6084   20.8503 C   0  0  0  0  0  0  0  0  0  0  0  0
  -26.5182  -28.7574   19.1710 C   0  0  0  0  0  0  0  0  0  0  0  0
  -22.0329   -9.2365   20.0718 C   0  0  0  0  0  0  0  0  0  0  0  0
  -23.1726   -8.4413   22.0481 C   0  0  0  0  0  0  0  0  0  0  0  0
  -26.8947  -27.4697   19.5500 C   0  0  0  0  0  0  0  0  0  0  0  0
  -20.0211   -7.7160   23.0290 C   0  0  0  0  0  0  0  0  0  0  0  0
  -19.4798   -7.3483   24.2609 C   0  0  0  0  0  0  0  0  0  0  0  0
  -25.3281  -27.5574   21.3823 C   0  0  0  0  0  0  0  0  0  0  0  0
  -20.5639   -5.1955   24.0946 C   0  0  0  0  0  0  0  0  0  0  0  0
  -27.5704  -21.3353   20.5250 C   0  0  0  0  0  0  0  0  0  0  0  0
  -23.8548  -10.5145   21.0121 C   0  0  0  0  0  0  0  0  0  0  0  0
  -24.5002  -12.9103   21.6048 C   0  0  0  0  0  0  0  0  0  0  0  0
  -26.3832  -36.7848   22.4588 C   0  0  0  0  0  0  0  0  0  0  0  0
  -25.5500  -29.4603   19.9025 C   0  0  0  0  0  0  0  0  0  0  0  0
  -26.8957  -35.5753   21.9518 C   0  0  0  0  0  0  0  0  0  0  0  0
  -24.9392  -28.8530   21.0090 C   0  0  0  0  0  0  0  0  0  0  0  0
  -28.2777  -21.0392   21.6790 C   0  0  0  0  0  0  0  0  0  0  0  0
  -22.1854   -8.2803   21.0759 C   0  0  0  0  0  0  0  0  0  0  0  0
  -26.3017  -26.8706   20.6576 C   0  0  0  0  0  0  0  0  0  0  0  0
  -20.8337   -6.8234   22.3299 C   0  0  0  0  0  0  0  0  0  0  0  0
  -19.7512   -6.0881   24.7937 C   0  0  0  0  0  0  0  0  0  0  0  0
  -21.1051   -5.5632   22.8627 C   0  0  0  0  0  0  0  0  0  0  0  0
  -28.8152  -22.0979   22.4026 C   0  0  0  0  0  0  0  0  0  0  0  0
  -28.6315  -23.4019   21.9564 C   0  0  0  0  0  0  0  0  0  0  0  0
  -24.7176  -11.6680   20.9794 C   0  0  0  0  0  0  0  0  0  0  0  0
  -27.9086  -23.5922   20.7898 C   0  0  0  0  0  0  0  0  0  0  0  0
  -25.6020  -13.6598   21.2720 C   0  0  0  0  0  0  0  0  0  0  0  0
  -23.4006  -13.3477   22.4144 C   0  0  0  0  0  0  0  0  0  0  0  0
  -25.5263  -32.1644   21.5731 C   0  0  0  0  0  0  0  0  0  0  0  0
  -22.3455  -31.5592   21.7688 C   0  0  0  0  0  0  0  0  0  0  0  0
  -19.8215  -29.2643   21.6706 C   0  0  0  0  0  0  0  0  0  0  0  0
  -31.1212  -14.1792   20.6285 C   0  0  0  0  0  0  0  0  0  0  0  0
  -25.4811  -36.8196   23.6670 C   0  0  0  0  0  0  0  0  0  0  0  0
  -25.1356  -30.8383   19.4648 C   0  0  0  0  0  0  0  0  0  0  0  0
  -23.8801  -29.5572   21.8158 C   0  0  0  0  0  0  0  0  0  0  0  0
  -24.8458  -35.4702   23.9919 C   0  0  0  0  0  0  0  0  0  0  0  0
  -29.2834  -12.7899   17.9139 C   0  0  0  0  0  0  0  0  0  0  0  0
  -25.8927  -34.3618   23.9436 C   0  0  0  0  0  0  0  0  0  0  0  0
  -27.9167  -12.4712   18.5225 C   0  0  0  0  0  0  0  0  0  0  0  0
  -30.4156  -12.5423   18.9082 C   0  0  0  0  0  0  0  0  0  0  0  0
  -28.8959  -12.9102   20.8132 C   0  0  0  0  0  0  0  0  0  0  0  0
  -26.5014  -34.2385   22.5415 C   0  0  1  0  0  0  0  0  0  0  0  0
  -24.5101  -31.6593   20.5882 C   0  0  1  0  0  0  0  0  0  0  0  0
  -27.7181  -13.1977   19.8664 C   0  0  2  0  0  0  0  0  0  0  0  0
  -17.3307  -29.0644   21.9019 C   0  0  0  0  0  0  0  0  0  0  0  0
  -22.6074  -31.8298   24.7967 C   0  0  0  0  0  0  0  0  0  0  0  0
  -20.3801  -30.7084   25.0197 C   0  0  0  0  0  0  0  0  0  0  0  0
  -20.5613  -32.8921   23.8275 C   0  0  0  0  0  0  0  0  0  0  0  0
  -19.5303  -28.2440   18.9078 C   0  0  0  0  0  0  0  0  0  0  0  0
  -28.4303  -19.6143   22.0908 C   0  0  0  0  0  0  0  0  0  0  0  0
  -27.6657  -24.9674   20.2410 C   0  0  0  0  0  0  0  0  0  1  0  0
  -31.3934  -17.2156   21.9432 C   0  0  0  0  0  0  0  0  0  0  0  0
  -31.6829  -15.7978   22.4240 C   0  0  0  0  0  0  0  0  0  0  0  0
  -29.9794  -17.6650   22.2889 C   0  0  0  0  0  0  0  0  0  0  0  0
  -21.4584  -30.8006   22.7263 C   0  0  1  0  0  0  0  0  0  0  0  0
  -18.4913  -29.2606   20.9390 C   0  0  2  0  0  0  0  0  0  0  0  0
  -21.2731  -31.5449   24.0787 C   0  0  0  0  0  0  0  0  0  0  0  0
  -27.3713  -22.5890   20.0601 N   0  0  0  0  0  0  0  0  0  0  0  0
  -25.8671  -11.6267   20.3004 N   0  0  0  0  0  0  0  0  0  0  0  0
  -26.3818  -12.8525   20.4972 N   0  0  0  0  0  0  0  0  0  0  0  0
  -23.5136  -30.9055   21.3517 N   0  0  0  0  0  0  0  0  0  0  0  0
  -30.1672  -13.2605   20.1606 N   0  0  0  0  0  0  0  0  0  0  0  0
  -25.9700  -14.9242   21.5692 N   0  0  0  0  0  0  0  0  0  0  0  0
  -22.3516  -12.4506   22.6575 N   0  0  0  0  0  0  0  0  0  0  0  0
  -25.5933  -33.5421   21.6557 N   0  0  0  0  0  0  0  0  0  0  0  0
  -20.2134  -30.5416   22.0112 N   0  0  0  0  0  0  0  0  0  0  0  0
  -30.8045  -14.8212   21.8194 N   0  0  0  0  0  0  0  0  0  0  0  0
  -18.4572  -28.1626   19.9319 N   0  3  0  0  0  0  0  0  0  0  0  0
  -29.7910  -19.0668   21.8330 N   0  3  0  0  0  0  0  0  0  0  0  0
  -23.3420  -14.5053   22.8940 O   0  0  0  0  0  0  0  0  0  0  0  0
  -26.1987  -31.3635   22.2118 O   0  0  0  0  0  0  0  0  0  0  0  0
  -22.0105  -32.6873   21.3988 O   0  0  0  0  0  0  0  0  0  0  0  0
  -20.4482  -28.2365   21.9186 O   0  0  0  0  0  0  0  0  0  0  0  0
  -32.1744  -14.4141   20.0265 O   0  0  0  0  0  0  0  0  0  0  0  0
  -21.3710   -7.1903   21.1075 O   0  0  0  0  0  0  0  0  0  0  0  0
  -26.6678  -25.6140   21.0301 O   0  0  0  0  0  0  0  0  0  1  0  0
  -19.2326   -5.7357   25.9773 F   0  0  0  0  0  0  0  0  0  0  0  0
  -21.8861   -4.7019   22.1963 F   0  0  0  0  0  0  0  0  0  0  0  0
  -29.7059  -21.7605   23.8520 Cl  0  0  0  0  0  0  0  0  0  0  0  0
  -29.2746  -24.7611   22.8112 Cl  0  0  0  0  0  0  0  0  0  0  0  0
  1  2  1  0  0  0  0
  1  5  2  0  0  0  0
  2  6  2  0  0  0  0
  3  8  2  0  0  0  0
  3 16  1  0  0  0  0
  4  9  1  0  0  0  0
  4 16  2  0  0  0  0
  5 18  1  0  0  0  0
  6 20  1  0  0  0  0
  7 10  2  0  0  0  0
  7 19  1  0  0  0  0
  8 23  1  0  0  0  0
  9 23  2  0  0  0  0
 10 24  1  0  0  0  0
 11 12  2  0  0  0  0
 11 25  1  0  0  0  0
 12 26  1  0  0  0  0
 13 21  1  0  0  0  0
 13 24  2  0  0  0  0
 14 26  2  0  0  0  0
 14 27  1  0  0  0  0
 15 22  1  0  0  0  0
 15 63  2  0  0  0  0
 16 30  1  0  0  0  0
 17 30  1  0  0  0  0
 17 32  2  0  0  0  0
 17 33  1  0  0  0  0
 18 20  2  0  0  0  0
 18 38  1  0  0  0  0
 19 21  2  0  0  0  0
 19 39  1  0  0  0  0
 20 47  1  0  0  0  0
 21 40  1  0  0  0  0
 22 28  2  0  0  0  0
 22 55  1  0  0  0  0
 23 80  1  0  0  0  0
 24 81  1  0  0  0  0
 25 27  2  0  0  0  0
 25 80  1  0  0  0  0
 26 82  1  0  0  0  0
 27 83  1  0  0  0  0
 28 29  1  0  0  0  0
 28 84  1  0  0  0  0
 29 31  2  0  0  0  0
 29 85  1  0  0  0  0
 30 64  2  0  0  0  0
 31 56  1  0  0  0  0
 31 63  1  0  0  0  0
 32 65  1  0  0  0  0
 32 68  1  0  0  0  0
 33 69  1  0  0  0  0
 33 75  2  0  0  0  0
 34 48  1  0  0  0  0
 34 70  1  0  0  0  0
 34 76  2  0  0  0  0
 35 60  1  0  0  0  0
 35 66  1  0  0  0  0
 35 77  2  0  0  0  0
 36 61  1  0  0  0  0
 36 71  1  0  0  0  0
 36 78  2  0  0  0  0
 37 67  1  0  0  0  0
 37 72  1  0  0  0  0
 37 79  2  0  0  0  0
 38 41  1  0  0  0  0
 39 48  1  0  0  0  0
 40 66  1  0  0  0  0
 41 43  1  0  0  0  0
 42 44  1  0  0  0  0
 42 45  1  0  0  0  0
 43 47  1  0  0  0  0
 44 49  1  0  0  0  0
 45 67  1  0  0  0  0
 46 49  1  0  0  0  0
 46 67  1  0  0  0  0
 47 70  1  0  0  0  0
 48 66  1  0  0  0  0
 49 65  1  0  0  0  0
 50 61  1  0  0  0  0
 51 62  1  0  0  0  0
 52 62  1  0  0  0  0
 53 62  1  0  0  0  0
 54 73  1  0  0  0  0
 55 74  1  0  0  0  0
 56 81  1  0  0  0  0
 57 58  1  0  0  0  0
 57 59  1  0  0  0  0
 58 72  1  0  0  0  0
 59 74  1  0  0  0  0
 60 62  1  0  0  0  0
 60 71  1  0  0  0  0
 61 73  1  0  0  0  0
 64 65  1  0  0  0  0
M  CHG  2  73   1  74   1
M  ISO  4  37 100  56 101  72 100  81 101
M  END
> <Batch ID>
0026

> <Smiles>
CNC(C)C(=O)NC(C(=O)N1Cc2cc([101O:1][101CH2:1]c3ncc(CNCCC[100NH:0][100C:0](=O)N4CCCC(n5nc(-c6ccc(Oc7ccc(F)cc7F)cc6)c(C(N)=O)c5N)C4)c(Cl)c3Cl)ccc2CC1C(=O)NC1CCCc2ccccc21)C(C)(C)C

> <Shape>
0.345

> <Color>
0.165

> <Negative vol penalty>
0.000

$$$$

  -OEChem-04052316273D

 94103  0     1  0  0  0  0  0999 V2000
  -27.6414  -37.8161   23.1451 C   0  0  0  0  0  0  0  0  0  0  0  0
  -28.4581  -36.7189   23.3990 C   0  0  0  0  0  0  0  0  0  0  0  0
  -23.0552  -10.5059   22.3249 C   0  0  0  0  0  0  0  0  0  0  0  0
  -24.7923  -11.1544   23.8738 C   0  0  0  0  0  0  0  0  0  0  0  0
  -26.3249  -37.8248   23.6042 C   0  0  0  0  0  0  0  0  0  0  0  0
  -27.9591  -35.6301   24.1131 C   0  0  0  0  0  0  0  0  0  0  0  0
  -27.6320  -28.0790   22.1381 C   0  0  0  0  0  0  0  0  0  0  0  0
  -22.4799   -9.7002   23.3074 C   0  0  0  0  0  0  0  0  0  0  0  0
  -24.2170  -10.3487   24.8564 C   0  0  0  0  0  0  0  0  0  0  0  0
  -27.3753  -26.7413   21.8368 C   0  0  0  0  0  0  0  0  0  0  0  0
  -20.7572   -7.1922   25.2988 C   0  0  0  0  0  0  0  0  0  0  0  0
  -20.3487   -5.9102   24.9312 C   0  0  0  0  0  0  0  0  0  0  0  0
  -25.4989  -26.7469   23.3623 C   0  0  0  0  0  0  0  0  0  0  0  0
  -22.6168   -5.3692   24.2983 C   0  0  0  0  0  0  0  0  0  0  0  0
  -24.2115  -11.2330   22.6080 C   0  0  0  0  0  0  0  0  0  0  0  0
  -24.2110  -13.1547   20.9303 C   0  0  0  0  0  0  0  0  0  0  0  0
  -25.8066  -36.7314   24.3159 C   0  0  0  0  0  0  0  0  0  0  0  0
  -26.8128  -28.7610   23.0421 C   0  0  0  0  0  0  0  0  0  0  0  0
  -26.6349  -35.6247   24.5833 C   0  0  0  0  0  0  0  0  0  0  0  0
  -25.7436  -28.0904   23.6585 C   0  0  0  0  0  0  0  0  0  0  0  0
  -23.0607   -9.6216   24.5732 C   0  0  0  0  0  0  0  0  0  0  0  0
  -26.3115  -26.0769   22.4477 C   0  0  0  0  0  0  0  0  0  0  0  0
  -22.0954   -7.5628   25.1661 C   0  0  0  0  0  0  0  0  0  0  0  0
  -21.2785   -4.9987   24.4310 C   0  0  0  0  0  0  0  0  0  0  0  0
  -23.0252   -6.6513   24.6659 C   0  0  0  0  0  0  0  0  0  0  0  0
  -24.8067  -12.0650   21.5933 C   0  0  0  0  0  0  0  0  0  0  0  0
  -25.1812  -13.6041   20.0682 C   0  0  0  0  0  0  0  0  0  0  0  0
  -22.8981  -13.7110   21.0804 C   0  0  0  0  0  0  0  0  0  0  0  0
  -26.0592  -31.9820   24.8120 C   0  0  0  0  0  0  0  0  0  0  0  0
  -23.3654  -30.7631   23.9945 C   0  0  0  0  0  0  0  0  0  0  0  0
  -20.6423  -29.3004   22.5515 C   0  0  0  0  0  0  0  0  0  0  0  0
  -30.3487  -14.9226   18.8314 C   0  0  0  0  0  0  0  0  0  0  0  0
  -24.3917  -36.8066   24.8329 C   0  0  0  0  0  0  0  0  0  0  0  0
  -27.0894  -30.1846   23.4429 C   0  0  0  0  0  0  0  0  0  0  0  0
  -24.9099  -28.8541   24.6508 C   0  0  0  0  0  0  0  0  0  0  0  0
  -23.8259  -35.4541   25.2580 C   0  0  0  0  0  0  0  0  0  0  0  0
  -29.5877  -11.5528   18.6922 C   0  0  0  0  0  0  0  0  0  0  0  0
  -24.8355  -34.6991   26.1167 C   0  0  0  0  0  0  0  0  0  0  0  0
  -20.0485  -23.1980   22.3306 C   0  0  0  0  0  0  0  0  0  0  0  0
  -19.6217  -24.1754   20.0438 C   0  0  0  0  0  0  0  0  0  0  0  0
  -28.2244  -11.4601   19.3773 C   0  0  0  0  0  0  0  0  0  0  0  0
  -18.6063  -22.6952   22.3896 C   0  0  0  0  0  0  0  0  0  0  0  0
  -18.1783  -23.6756   20.0950 C   0  0  0  0  0  0  0  0  0  0  0  0
  -28.3448  -17.8988   17.9077 C   0  0  0  0  0  0  0  0  0  0  0  0
  -28.1776  -17.5409   20.3962 C   0  0  0  0  0  0  0  0  0  0  0  0
  -30.5036  -12.5240   19.4282 C   0  0  0  0  0  0  0  0  0  0  0  0
  -29.6418  -17.0946   17.8979 C   0  0  0  0  0  0  0  0  0  0  0  0
  -29.4797  -16.7488   20.3405 C   0  0  0  0  0  0  0  0  0  0  0  0
  -28.5690  -13.8201   20.2607 C   0  0  0  0  0  0  0  0  0  0  0  0
  -26.1225  -34.4142   25.3331 C   0  0  1  0  0  0  0  0  0  0  0  0
  -25.8089  -30.9963   23.7088 C   0  0  1  0  0  0  0  0  0  0  0  0
  -20.5557  -23.2988   20.8868 C   0  0  0  0  0  0  0  0  0  0  0  0
  -28.1062  -18.5746   19.2642 C   0  0  0  0  0  0  0  0  0  0  0  0
  -27.5977  -12.8549   19.5517 C   0  0  2  0  0  0  0  0  0  0  0  0
  -17.6698  -23.5511   21.5332 C   0  0  0  0  0  0  0  0  0  0  0  0
  -18.1582  -29.5655   22.3138 C   0  0  0  0  0  0  0  0  0  0  0  0
  -22.9875  -29.7414   26.8436 C   0  0  0  0  0  0  0  0  0  0  0  0
  -20.6361  -29.1318   26.2373 C   0  0  0  0  0  0  0  0  0  0  0  0
  -21.3675  -31.5150   26.1474 C   0  0  0  0  0  0  0  0  0  0  0  0
  -20.8343  -29.5555   19.6093 C   0  0  0  0  0  0  0  0  0  0  0  0
  -25.1115  -21.5031   22.8284 C   0  0  0  0  0  0  0  0  0  0  0  0
  -21.9824  -23.8436   20.8534 C   0  0  0  0  0  0  0  0  0  0  0  0
  -26.7658  -19.3055   19.2796 C   0  0  0  0  0  0  0  0  0  0  0  0
  -16.2455  -23.0091   21.5672 C   0  0  0  0  0  0  0  0  0  0  0  0
  -23.0018  -22.7606   21.2179 C   0  0  0  0  0  0  0  0  0  0  0  0
  -26.7084  -20.3335   20.4057 C   0  0  0  0  0  0  0  0  0  0  0  0
  -25.3823  -21.0792   20.3896 C   0  0  0  0  0  0  0  0  0  0  0  0
  -24.7087  -24.3328   22.2255 C   0  0  0  0  0  0  0  0  0  1  0  0
  -22.1967  -29.8968   24.3907 C   0  0  1  0  0  0  0  0  0  0  0  0
  -19.5184  -29.8749   21.7081 C   0  0  2  0  0  0  0  0  0  0  0  0
  -24.4536  -23.2502   21.1801 C   0  0  1  0  0  0  0  0  0  0  0  0
  -21.8189  -30.0608   25.8900 C   0  0  0  0  0  0  0  0  0  0  0  0
  -26.0583  -11.8359   21.1871 N   0  0  0  0  0  0  0  0  0  0  0  0
  -26.2570  -12.7879   20.2595 N   0  0  0  0  0  0  0  0  0  0  0  0
  -24.6427  -30.2095   24.1447 N   0  0  0  0  0  0  0  0  0  0  0  0
  -29.8711  -13.8345   19.5774 N   0  0  0  0  0  0  0  0  0  0  0  0
  -29.6962  -16.1530   19.0153 N   0  0  0  0  0  0  0  0  0  0  0  0
  -25.2105  -14.6139   19.1727 N   0  0  0  0  0  0  0  0  0  0  0  0
  -22.0277  -13.1277   22.0113 N   0  0  0  0  0  0  0  0  0  0  0  0
  -25.9270  -33.3026   24.4272 N   0  0  0  0  0  0  0  0  0  0  0  0
  -21.1171  -30.2189   23.4637 N   0  0  0  0  0  0  0  0  0  0  0  0
  -19.5605  -29.3052   20.3317 N   0  3  0  0  0  0  0  0  0  0  0  0
  -25.3842  -22.0970   21.4677 N   0  3  1  0  0  0  0  0  0  0  0  0
  -22.5027  -14.6859   20.3973 O   0  0  0  0  0  0  0  0  0  0  0  0
  -26.3495  -31.5757   25.9310 O   0  0  0  0  0  0  0  0  0  0  0  0
  -23.1548  -31.9022   23.5685 O   0  0  0  0  0  0  0  0  0  0  0  0
  -21.0550  -28.1505   22.4173 O   0  0  0  0  0  0  0  0  0  0  0  0
  -31.2967  -14.8041   18.0452 O   0  0  0  0  0  0  0  0  0  0  0  0
  -22.4994   -8.8357   25.5322 O   0  0  0  0  0  0  0  0  0  0  0  0
  -26.0620  -24.7633   22.1436 O   0  0  0  0  0  0  0  0  0  1  0  0
  -20.8865   -3.7670   24.0794 F   0  0  0  0  0  0  0  0  0  0  0  0
  -24.3123   -7.0011   24.5372 F   0  0  0  0  0  0  0  0  0  0  0  0
  -17.6369  -24.8059   22.0754 F   0  0  0  0  0  0  0  0  0  0  0  0
  -15.6342  -22.9971   23.2316 Cl  0  0  0  0  0  0  0  0  0  0  0  0
  1  2  1  0  0  0  0
  1  5  2  0  0  0  0
  2  6  2  0  0  0  0
  3  8  2  0  0  0  0
  3 15  1  0  0  0  0
  4  9  1  0  0  0  0
  4 15  2  0  0  0  0
  5 17  1  0  0  0  0
  6 19  1  0  0  0  0
  7 10  2  0  0  0  0
  7 18  1  0  0  0  0
  8 21  1  0  0  0  0
  9 21  2  0  0  0  0
 10 22  1  0  0  0  0
 11 12  2  0  0  0  0
 11 23  1  0  0  0  0
 12 24  1  0  0  0  0
 13 20  1  0  0  0  0
 13 22  2  0  0  0  0
 14 24  2  0  0  0  0
 14 25  1  0  0  0  0
 15 26  1  0  0  0  0
 16 26  1  0  0  0  0
 16 27  2  0  0  0  0
 16 28  1  0  0  0  0
 17 19  2  0  0  0  0
 17 33  1  0  0  0  0
 18 20  2  0  0  0  0
 18 34  1  0  0  0  0
 19 50  1  0  0  0  0
 20 35  1  0  0  0  0
 21 89  1  0  0  0  0
 22 90  1  0  0  0  0
 23 25  2  0  0  0  0
 23 89  1  0  0  0  0
 24 91  1  0  0  0  0
 25 92  1  0  0  0  0
 26 73  2  0  0  0  0
 27 74  1  0  0  0  0
 27 78  1  0  0  0  0
 28 79  1  0  0  0  0
 28 84  2  0  0  0  0
 29 51  1  0  0  0  0
 29 80  1  0  0  0  0
 29 85  2  0  0  0  0
 30 69  1  0  0  0  0
 30 75  1  0  0  0  0
 30 86  2  0  0  0  0
 31 70  1  0  0  0  0
 31 81  1  0  0  0  0
 31 87  2  0  0  0  0
 32 76  1  0  0  0  0
 32 77  1  0  0  0  0
 32 88  2  0  0  0  0
 33 36  1  0  0  0  0
 34 51  1  0  0  0  0
 35 75  1  0  0  0  0
 36 38  1  0  0  0  0
 37 41  1  0  0  0  0
 37 46  1  0  0  0  0
 38 50  1  0  0  0  0
 39 42  1  0  0  0  0
 39 52  1  0  0  0  0
 40 43  1  0  0  0  0
 40 52  1  0  0  0  0
 41 54  1  0  0  0  0
 42 55  1  0  0  0  0
 43 55  1  0  0  0  0
 44 47  1  0  0  0  0
 44 53  1  0  0  0  0
 45 48  1  0  0  0  0
 45 53  1  0  0  0  0
 46 76  1  0  0  0  0
 47 77  1  0  0  0  0
 48 77  1  0  0  0  0
 49 54  1  0  0  0  0
 49 76  1  0  0  0  0
 50 80  1  0  0  0  0
 51 75  1  0  0  0  0
 52 62  1  0  0  0  0
 53 63  1  0  0  0  0
 54 74  1  0  0  0  0
 55 64  1  0  0  0  0
 55 93  1  0  0  0  0
 56 70  1  0  0  0  0
 57 72  1  0  0  0  0
 58 72  1  0  0  0  0
 59 72  1  0  0  0  0
 60 82  1  0  0  0  0
 61 83  1  0  0  0  0
 62 65  1  0  0  0  0
 63 66  1  0  0  0  0
 64 94  1  0  0  0  0
 65 71  1  0  0  0  0
 66 67  1  0  0  0  0
 67 83  1  0  0  0  0
 68 71  1  0  0  0  0
 68 90  1  0  0  0  0
 69 72  1  0  0  0  0
 69 81  1  0  0  0  0
 70 82  1  0  0  0  0
 71 83  1  0  0  0  0
 73 74  1  0  0  0  0
M  CHG  2  82   1  83   1
M  ISO  4  32 100  68 101  77 100  90 101
M  END
> <Batch ID>
0026

> <Smiles>
CNC(C)C(=O)NC(C(=O)N1Cc2cc([101O:1][101CH2:1]C(CCC3CCC(F)(CCl)CC3)N(C)CCCC3CC[100N:0]([100C:0](=O)N4CCCC(n5nc(-c6ccc(Oc7ccc(F)cc7F)cc6)c(C(N)=O)c5N)C4)CC3)ccc2CC1C(=O)NC1CCCc2ccccc21)C(C)(C)C

> <Shape>
0.267

> <Color>
0.128

> <Negative vol penalty>
0.000

$$$$

  -OEChem-04052316273D

 85 93  0     1  0  0  0  0  0999 V2000
  -17.6004  -31.8900   24.2583 C   0  0  0  0  0  0  0  0  0  0  0  0
  -18.7302  -32.2550   23.5333 C   0  0  0  0  0  0  0  0  0  0  0  0
  -27.0763  -12.8870   21.4096 C   0  0  0  0  0  0  0  0  0  0  0  0
  -26.7517  -13.8286   19.2085 C   0  0  0  0  0  0  0  0  0  0  0  0
  -17.6010  -30.7097   25.0004 C   0  0  0  0  0  0  0  0  0  0  0  0
  -19.8618  -31.4403   23.5508 C   0  0  0  0  0  0  0  0  0  0  0  0
  -25.3118  -29.3648   19.3907 C   0  0  0  0  0  0  0  0  0  0  0  0
  -26.3010  -11.7840   21.0521 C   0  0  0  0  0  0  0  0  0  0  0  0
  -25.9764  -12.7256   18.8509 C   0  0  0  0  0  0  0  0  0  0  0  0
  -26.7033  -29.2798   19.4015 C   0  0  0  0  0  0  0  0  0  0  0  0
  -23.0181  -11.0465   20.7306 C   0  0  0  0  0  0  0  0  0  0  0  0
  -22.0583  -10.6071   21.6422 C   0  0  0  0  0  0  0  0  0  0  0  0
  -26.5619  -27.2239   20.6556 C   0  0  0  0  0  0  0  0  0  0  0  0
  -23.1463   -8.4526   21.7492 C   0  0  0  0  0  0  0  0  0  0  0  0
  -27.3016  -13.9094   20.4878 C   0  0  0  0  0  0  0  0  0  0  0  0
  -29.4950  -15.1925   20.7124 C   0  0  0  0  0  0  0  0  0  0  0  0
  -18.7297  -29.8752   25.0194 C   0  0  0  0  0  0  0  0  0  0  0  0
  -24.5338  -28.3841   20.0227 C   0  0  0  0  0  0  0  0  0  0  0  0
  -19.8779  -30.2483   24.2950 C   0  0  0  0  0  0  0  0  0  0  0  0
  -25.1606  -27.2975   20.6492 C   0  0  0  0  0  0  0  0  0  0  0  0
  -25.7511  -11.7033   19.7728 C   0  0  0  0  0  0  0  0  0  0  0  0
  -27.3287  -28.2108   20.0365 C   0  0  0  0  0  0  0  0  0  0  0  0
  -24.0420  -10.1890   20.3281 C   0  0  0  0  0  0  0  0  0  0  0  0
  -22.1224   -9.3101   22.1516 C   0  0  0  0  0  0  0  0  0  0  0  0
  -24.1061   -8.8920   20.8374 C   0  0  0  0  0  0  0  0  0  0  0  0
  -28.1020  -15.0493   20.8567 C   0  0  0  0  0  0  0  0  0  0  0  0
  -29.7645  -16.4450   21.2075 C   0  0  0  0  0  0  0  0  0  0  0  0
  -30.4591  -14.2754   20.1784 C   0  0  0  0  0  0  0  0  0  0  0  0
  -22.4607  -28.3741   22.4322 C   0  0  0  0  0  0  0  0  0  0  0  0
  -22.0316  -25.2857   21.5380 C   0  0  0  0  0  0  0  0  0  0  0  0
  -23.2885  -22.5166   19.9892 C   0  0  0  0  0  0  0  0  0  0  0  0
  -27.4612  -21.7512   21.4370 C   0  0  0  0  0  0  0  0  0  0  0  0
  -18.6999  -28.6330   25.8742 C   0  0  0  0  0  0  0  0  0  0  0  0
  -23.0332  -28.4763   19.9791 C   0  0  0  0  0  0  0  0  0  0  0  0
  -24.3703  -26.2078   21.3247 C   0  0  0  0  0  0  0  0  0  0  0  0
  -19.8070  -27.6367   25.5396 C   0  0  0  0  0  0  0  0  0  0  0  0
  -27.4292  -19.5664   24.2481 C   0  0  0  0  0  0  0  0  0  0  0  0
  -21.1476  -28.3525   25.4084 C   0  0  0  0  0  0  0  0  0  0  0  0
  -27.7289  -18.1922   23.6467 C   0  0  0  0  0  0  0  0  0  0  0  0
  -29.9694  -24.0760   21.1332 C   0  0  0  0  0  0  0  0  0  0  0  0
  -31.2772  -24.8266   20.9763 C   0  0  0  0  0  0  0  0  0  0  0  0
  -26.5629  -20.4127   23.3179 C   0  0  0  0  0  0  0  0  0  0  0  0
  -27.3865  -19.1856   21.3457 C   0  0  0  0  0  0  0  0  0  0  0  0
  -21.1160  -29.3785   24.2691 C   0  0  1  0  0  0  0  0  0  0  0  0
  -22.3536  -27.6923   21.0976 C   0  0  1  0  0  0  0  0  0  0  0  0
  -28.3038  -18.3165   22.2229 C   0  0  2  0  0  0  0  0  0  0  0  0
  -29.8290  -23.3658   19.7961 C   0  0  1  0  0  0  0  0  0  0  0  0
  -31.2389  -25.3675   19.5495 C   0  0  2  0  0  0  0  0  0  0  0  0
  -22.7210  -20.1320   19.4515 C   0  0  0  0  0  0  0  0  0  0  0  0
  -30.5510  -27.1755   17.9742 C   0  0  0  0  0  0  0  0  0  0  0  0
  -31.6110  -27.7503   20.1684 C   0  0  0  0  0  0  0  0  0  0  0  0
  -22.6063  -24.4995   24.4297 C   0  0  0  0  0  0  0  0  0  0  0  0
  -22.9646  -22.1488   23.6461 C   0  0  0  0  0  0  0  0  0  0  0  0
  -20.7365  -23.2324   23.3560 C   0  0  0  0  0  0  0  0  0  0  0  0
  -31.3383  -24.9763   16.6517 C   0  0  0  0  0  0  0  0  0  0  0  0
  -32.1674  -23.0196   18.0088 C   0  0  0  0  0  0  0  0  0  0  0  0
  -29.9040  -22.9176   16.9023 C   0  0  0  0  0  0  0  0  0  0  0  0
  -23.4542  -23.0122   17.0761 C   0  0  0  0  0  0  0  0  0  0  0  0
  -28.4031  -22.9520   19.4799 C   0  0  0  0  0  0  0  0  0  0  0  0
  -29.2553  -26.8173   20.0872 C   0  0  0  0  0  0  0  0  0  1  0  0
  -22.6710  -23.9680   21.9039 C   0  0  1  0  0  0  0  0  0  0  0  0
  -22.6830  -21.5726   18.9660 C   0  0  2  0  0  0  0  0  0  0  0  0
  -30.6618  -26.7736   19.4541 C   0  0  0  0  0  0  0  0  0  0  0  0
  -22.2598  -23.4836   23.3230 C   0  0  0  0  0  0  0  0  0  0  0  0
  -30.9424  -23.8195   17.5681 C   0  0  0  0  0  0  0  0  0  0  0  0
  -27.5268  -16.1248   21.4011 N   0  0  0  0  0  0  0  0  0  0  0  0
  -28.5635  -16.9558   21.6033 N   0  0  0  0  0  0  0  0  0  0  0  0
  -22.9060  -26.3460   21.2604 N   0  0  0  0  0  0  0  0  0  0  0  0
  -27.1646  -20.4922   21.9846 N   0  0  0  0  0  0  0  0  0  0  0  0
  -30.9094  -17.1481   21.3387 N   0  0  0  0  0  0  0  0  0  0  0  0
  -30.0116  -13.0314   19.7130 N   0  0  0  0  0  0  0  0  0  0  0  0
  -21.2429  -28.7159   22.9887 N   0  0  0  0  0  0  0  0  0  0  0  0
  -22.3305  -23.0377   20.8330 N   0  0  0  0  0  0  0  0  0  0  0  0
  -28.0357  -21.7367   20.1719 N   0  0  0  0  0  0  0  0  0  0  0  0
  -30.3151  -24.4061   18.7971 N   0  3  1  0  0  0  0  0  0  0  0  0
  -23.4305  -21.6548   17.6793 N   0  3  0  0  0  0  0  0  0  0  0  0
  -31.6834  -14.5445   20.1308 O   0  0  0  0  0  0  0  0  0  0  0  0
  -23.5662  -28.5740   22.9217 O   0  0  0  0  0  0  0  0  0  0  0  0
  -20.8017  -25.3692   21.4930 O   0  0  0  0  0  0  0  0  0  0  0  0
  -24.4914  -22.7638   20.0375 O   0  0  0  0  0  0  0  0  0  0  0  0
  -27.2361  -22.8096   22.0336 O   0  0  0  0  0  0  0  0  0  0  0  0
  -24.9946  -10.6270   19.4235 O   0  0  0  0  0  0  0  0  0  0  0  0
  -28.6868  -28.1257   20.0491 O   0  0  0  0  0  0  0  0  0  1  0  0
  -21.2015   -8.8888   23.0283 F   0  0  0  0  0  0  0  0  0  0  0  0
  -25.0881   -8.0640   20.4554 F   0  0  0  0  0  0  0  0  0  0  0  0
  1  2  1  0  0  0  0
  1  5  2  0  0  0  0
  2  6  2  0  0  0  0
  3  8  2  0  0  0  0
  3 15  1  0  0  0  0
  4  9  1  0  0  0  0
  4 15  2  0  0  0  0
  5 17  1  0  0  0  0
  6 19  1  0  0  0  0
  7 10  2  0  0  0  0
  7 18  1  0  0  0  0
  8 21  1  0  0  0  0
  9 21  2  0  0  0  0
 10 22  1  0  0  0  0
 11 12  2  0  0  0  0
 11 23  1  0  0  0  0
 12 24  1  0  0  0  0
 13 20  1  0  0  0  0
 13 22  2  0  0  0  0
 14 24  2  0  0  0  0
 14 25  1  0  0  0  0
 15 26  1  0  0  0  0
 16 26  1  0  0  0  0
 16 27  2  0  0  0  0
 16 28  1  0  0  0  0
 17 19  2  0  0  0  0
 17 33  1  0  0  0  0
 18 20  2  0  0  0  0
 18 34  1  0  0  0  0
 19 44  1  0  0  0  0
 20 35  1  0  0  0  0
 21 82  1  0  0  0  0
 22 83  1  0  0  0  0
 23 25  2  0  0  0  0
 23 82  1  0  0  0  0
 24 84  1  0  0  0  0
 25 85  1  0  0  0  0
 26 66  2  0  0  0  0
 27 67  1  0  0  0  0
 27 70  1  0  0  0  0
 28 71  1  0  0  0  0
 28 77  2  0  0  0  0
 29 45  1  0  0  0  0
 29 72  1  0  0  0  0
 29 78  2  0  0  0  0
 30 61  1  0  0  0  0
 30 68  1  0  0  0  0
 30 79  2  0  0  0  0
 31 62  1  0  0  0  0
 31 73  1  0  0  0  0
 31 80  2  0  0  0  0
 32 69  1  0  0  0  0
 32 74  1  0  0  0  0
 32 81  2  0  0  0  0
 33 36  1  0  0  0  0
 34 45  1  0  0  0  0
 35 68  1  0  0  0  0
 36 38  1  0  0  0  0
 37 39  1  0  0  0  0
 37 42  1  0  0  0  0
 38 44  1  0  0  0  0
 39 46  1  0  0  0  0
 40 41  1  0  0  0  0
 40 47  1  0  0  0  0
 41 48  1  0  0  0  0
 42 69  1  0  0  0  0
 43 46  1  0  0  0  0
 43 69  1  0  0  0  0
 44 72  1  0  0  0  0
 45 68  1  0  0  0  0
 46 67  1  0  0  0  0
 47 59  1  0  0  0  0
 47 75  1  0  0  0  0
 48 63  1  0  0  0  0
 48 75  1  0  0  0  0
 49 62  1  0  0  0  0
 50 63  1  0  0  0  0
 51 63  1  0  0  0  0
 52 64  1  0  0  0  0
 53 64  1  0  0  0  0
 54 64  1  0  0  0  0
 55 65  1  0  0  0  0
 56 65  1  0  0  0  0
 57 65  1  0  0  0  0
 58 76  1  0  0  0  0
 59 74  1  0  0  0  0
 60 63  1  0  0  0  0
 60 83  1  0  0  0  0
 61 64  1  0  0  0  0
 61 73  1  0  0  0  0
 62 76  1  0  0  0  0
 65 75  1  0  0  0  0
 66 67  1  0  0  0  0
M  CHG  2  75   1  76   1
M  ISO  4  32 100  60 101  74 100  83 101
M  END
> <Batch ID>
0026

> <Smiles>
CNC(C)C(=O)NC(C(=O)N1Cc2cc([101O:1][101CH2:1]C(C)(C)C3CCC(C[100NH:0][100C:0](=O)N4CCCC(n5nc(-c6ccc(Oc7ccc(F)cc7F)cc6)c(C(N)=O)c5N)C4)N3C(C)(C)C)ccc2CC1C(=O)NC1CCCc2ccccc21)C(C)(C)C

> <Shape>
0.267

> <Color>
0.081

> <Negative vol penalty>
0.000

$$$$

  -OEChem-04052316273D

 82 91  0     1  0  0  0  0  0999 V2000
  -18.3106  -26.6798   22.5718 C   0  0  0  0  0  0  0  0  0  0  0  0
  -19.5725  -26.1517   22.3188 C   0  0  0  0  0  0  0  0  0  0  0  0
  -24.0522   -9.2614   20.9853 C   0  0  0  0  0  0  0  0  0  0  0  0
  -25.5255   -9.7931   22.8248 C   0  0  0  0  0  0  0  0  0  0  0  0
  -18.1319  -28.0616   22.6227 C   0  0  0  0  0  0  0  0  0  0  0  0
  -20.6564  -27.0052   22.1155 C   0  0  0  0  0  0  0  0  0  0  0  0
  -24.7902  -25.5317   24.6423 C   0  0  0  0  0  0  0  0  0  0  0  0
  -23.8791   -7.9750   21.4958 C   0  0  0  0  0  0  0  0  0  0  0  0
  -25.3523   -8.5066   23.3354 C   0  0  0  0  0  0  0  0  0  0  0  0
  -25.5265  -24.4793   24.1000 C   0  0  0  0  0  0  0  0  0  0  0  0
  -22.0880   -6.4884   23.9484 C   0  0  0  0  0  0  0  0  0  0  0  0
  -20.7911   -5.9766   23.9900 C   0  0  0  0  0  0  0  0  0  0  0  0
  -26.7593  -20.7224   22.8440 C   0  0  0  0  0  0  0  0  0  0  0  0
  -29.1369  -19.6513   21.8694 C   0  0  0  0  0  0  0  0  0  0  0  0
  -27.1013  -26.0607   23.1843 C   0  0  0  0  0  0  0  0  0  0  0  0
  -21.4640   -4.1547   22.5530 C   0  0  0  0  0  0  0  0  0  0  0  0
  -24.8755  -10.1705   21.6498 C   0  0  0  0  0  0  0  0  0  0  0  0
  -24.0585  -12.4692   20.9041 C   0  0  0  0  0  0  0  0  0  0  0  0
  -19.2159  -28.9324   22.4295 C   0  0  0  0  0  0  0  0  0  0  0  0
  -25.1987  -26.8594   24.4500 C   0  0  0  0  0  0  0  0  0  0  0  0
  -20.4917  -28.3999   22.1625 C   0  0  0  0  0  0  0  0  0  0  0  0
  -27.9604  -21.4235   23.0389 C   0  0  0  0  0  0  0  0  0  0  0  0
  -29.1601  -20.8875   22.5336 C   0  0  0  0  0  0  0  0  0  0  0  0
  -26.3698  -27.1281   23.7273 C   0  0  0  0  0  0  0  0  0  0  0  0
  -26.7488  -19.4999   22.1733 C   0  0  0  0  0  0  0  0  0  0  0  0
  -27.9375  -18.9638   21.6876 C   0  0  0  0  0  0  0  0  0  0  0  0
  -24.5291   -7.5975   22.6708 C   0  0  0  0  0  0  0  0  0  0  0  0
  -26.6807  -24.7438   23.3685 C   0  0  0  0  0  0  0  0  0  0  0  0
  -23.0729   -5.8334   23.2090 C   0  0  0  0  0  0  0  0  0  0  0  0
  -20.4791   -4.8098   23.2923 C   0  0  0  0  0  0  0  0  0  0  0  0
  -22.7609   -4.6666   22.5114 C   0  0  0  0  0  0  0  0  0  0  0  0
  -25.0552  -11.4994   21.1227 C   0  0  0  0  0  0  0  0  0  0  0  0
  -24.7368  -13.5505   20.3970 C   0  0  0  0  0  0  0  0  0  0  0  0
  -22.6458  -12.3990   21.1385 C   0  0  0  0  0  0  0  0  0  0  0  0
  -23.9336  -29.4142   23.0443 C   0  0  0  0  0  0  0  0  0  0  0  0
  -26.5249  -30.9062   24.3018 C   0  0  0  0  0  0  0  0  0  0  0  0
  -30.0388  -30.1918   24.7011 C   0  0  0  0  0  0  0  0  0  0  0  0
  -29.0569  -17.0625   20.4717 C   0  0  0  0  0  0  0  0  0  0  0  0
  -18.9647  -30.4194   22.4469 C   0  0  0  0  0  0  0  0  0  0  0  0
  -24.4080  -27.9820   25.0641 C   0  0  0  0  0  0  0  0  0  0  0  0
  -30.4849  -21.5778   22.7430 C   0  0  0  0  0  0  0  0  0  0  0  0
  -26.8621  -28.5347   23.5095 C   0  0  0  0  0  0  0  0  0  0  0  0
  -20.2369  -31.2504   22.5922 C   0  0  0  0  0  0  0  0  0  0  0  0
  -30.3481  -23.0481   23.1325 C   0  0  0  0  0  0  0  0  0  0  0  0
  -29.5077  -13.9736   18.7594 C   0  0  0  0  0  0  0  0  0  0  0  0
  -21.3169  -30.7437   21.6416 C   0  0  0  0  0  0  0  0  0  0  0  0
  -29.3062  -23.2118   24.2350 C   0  0  0  0  0  0  0  0  0  0  0  0
  -28.3075  -13.1343   19.2036 C   0  0  0  0  0  0  0  0  0  0  0  0
  -30.0350  -14.8530   19.8917 C   0  0  0  0  0  0  0  0  0  0  0  0
  -27.8267  -14.8625   20.9837 C   0  0  0  0  0  0  0  0  0  0  0  0
  -21.6968  -29.2929   21.9613 C   0  0  1  0  0  0  0  0  0  0  0  0
  -27.9281  -22.7552   23.7487 C   0  0  1  0  0  0  0  0  0  1  0  0
  -24.6345  -29.3216   24.3701 C   0  0  1  0  0  0  0  0  0  0  0  0
  -27.2200  -14.0084   19.8585 C   0  0  2  0  0  0  0  0  0  0  0  0
  -25.4475  -18.7882   21.9918 C   0  0  0  0  0  0  0  0  0  0  0  0
  -31.6868  -31.0116   26.4068 C   0  0  0  0  0  0  0  0  0  0  0  0
  -27.1692  -33.0473   22.2256 C   0  0  0  0  0  0  0  0  0  0  0  0
  -29.5794  -32.8523   22.8743 C   0  0  0  0  0  0  0  0  0  0  0  0
  -27.8940  -33.6007   24.5543 C   0  0  0  0  0  0  0  0  0  0  0  0
  -30.7851  -27.4345   25.4754 C   0  0  0  0  0  0  0  0  0  0  0  0
  -27.9342  -31.1777   23.8334 C   0  0  1  0  0  0  0  0  0  0  0  0
  -30.7604  -29.8766   25.9990 C   0  0  2  0  0  0  0  0  0  0  0  0
  -28.1297  -32.6467   23.3630 C   0  0  0  0  0  0  0  0  0  0  0  0
  -26.2740  -11.9268   20.7822 N   0  0  0  0  0  0  0  0  0  0  0  0
  -26.0475  -13.1770   20.3444 N   0  0  0  0  0  0  0  0  0  0  0  0
  -26.0512  -29.5986   24.1244 N   0  0  0  0  0  0  0  0  0  0  0  0
  -28.9503  -15.6557   20.4611 N   0  0  0  0  0  0  0  0  0  0  0  0
  -24.3340  -14.7747   19.9953 N   0  0  0  0  0  0  0  0  0  0  0  0
  -22.1556  -12.7965   22.3899 N   0  0  0  0  0  0  0  0  0  0  0  0
  -27.9505  -17.7205   21.0081 N   0  0  0  0  0  0  0  0  0  0  0  0
  -22.5647  -29.2409   23.1182 N   0  0  0  0  0  0  0  0  0  0  0  0
  -28.8121  -30.7790   24.9283 N   0  0  0  0  0  0  0  0  0  0  0  0
  -31.5732  -28.6363   25.8518 N   0  3  0  0  0  0  0  0  0  0  0  0
  -21.8436  -11.9801   20.2698 O   0  0  0  0  0  0  0  0  0  0  0  0
  -24.5863  -29.6286   22.0295 O   0  0  0  0  0  0  0  0  0  0  0  0
  -25.8711  -31.8189   24.8128 O   0  0  0  0  0  0  0  0  0  0  0  0
  -30.5173  -29.9454   23.5962 O   0  0  0  0  0  0  0  0  0  0  0  0
  -30.0443  -17.6421   20.0122 O   0  0  0  0  0  0  0  0  0  0  0  0
  -24.3602   -6.3424   23.1694 O   0  0  0  0  0  0  0  0  0  0  0  0
  -27.4008  -23.7185   22.8376 O   0  0  0  0  0  0  0  0  0  1  0  0
  -19.2341   -4.3176   23.3336 F   0  0  0  0  0  0  0  0  0  0  0  0
  -23.7032   -4.0322   21.8003 F   0  0  0  0  0  0  0  0  0  0  0  0
  1  2  1  0  0  0  0
  1  5  2  0  0  0  0
  2  6  2  0  0  0  0
  3  8  2  0  0  0  0
  3 17  1  0  0  0  0
  4  9  1  0  0  0  0
  4 17  2  0  0  0  0
  5 19  1  0  0  0  0
  6 21  1  0  0  0  0
  7 10  2  0  0  0  0
  7 20  1  0  0  0  0
  8 27  1  0  0  0  0
  9 27  2  0  0  0  0
 10 28  1  0  0  0  0
 11 12  2  0  0  0  0
 11 29  1  0  0  0  0
 12 30  1  0  0  0  0
 13 22  1  0  0  0  0
 13 25  2  0  0  0  0
 14 23  1  0  0  0  0
 14 26  2  0  0  0  0
 15 24  1  0  0  0  0
 15 28  2  0  0  0  0
 16 30  2  0  0  0  0
 16 31  1  0  0  0  0
 17 32  1  0  0  0  0
 18 32  1  0  0  0  0
 18 33  2  0  0  0  0
 18 34  1  0  0  0  0
 19 21  2  0  0  0  0
 19 39  1  0  0  0  0
 20 24  2  0  0  0  0
 20 40  1  0  0  0  0
 21 51  1  0  0  0  0
 22 23  2  0  0  0  0
 22 52  1  0  0  0  0
 23 41  1  0  0  0  0
 24 42  1  0  0  0  0
 25 26  1  0  0  0  0
 25 55  1  0  0  0  0
 26 70  1  0  0  0  0
 27 79  1  0  0  0  0
 28 80  1  0  0  0  0
 29 31  2  0  0  0  0
 29 79  1  0  0  0  0
 30 81  1  0  0  0  0
 31 82  1  0  0  0  0
 32 64  2  0  0  0  0
 33 65  1  0  0  0  0
 33 68  1  0  0  0  0
 34 69  1  0  0  0  0
 34 74  2  0  0  0  0
 35 53  1  0  0  0  0
 35 71  1  0  0  0  0
 35 75  2  0  0  0  0
 36 61  1  0  0  0  0
 36 66  1  0  0  0  0
 36 76  2  0  0  0  0
 37 62  1  0  0  0  0
 37 72  1  0  0  0  0
 37 77  2  0  0  0  0
 38 67  1  0  0  0  0
 38 70  1  0  0  0  0
 38 78  2  0  0  0  0
 39 43  1  0  0  0  0
 40 53  1  0  0  0  0
 41 44  1  0  0  0  0
 42 66  1  0  0  0  0
 43 46  1  0  0  0  0
 44 47  1  0  0  0  0
 45 48  1  0  0  0  0
 45 49  1  0  0  0  0
 46 51  1  0  0  0  0
 47 52  1  0  0  0  0
 48 54  1  0  0  0  0
 49 67  1  0  0  0  0
 50 54  1  0  0  0  0
 50 67  1  0  0  0  0
 51 71  1  0  0  0  0
 52 80  1  0  0  0  0
 53 66  1  0  0  0  0
 54 65  1  0  0  0  0
 56 62  1  0  0  0  0
 57 63  1  0  0  0  0
 58 63  1  0  0  0  0
 59 63  1  0  0  0  0
 60 73  1  0  0  0  0
 61 63  1  0  0  0  0
 61 72  1  0  0  0  0
 62 73  1  0  0  0  0
 64 65  1  0  0  0  0
M  CHG  1  73   1
M  ISO  4  38 100  52 101  70 100  80 101
M  END
> <Batch ID>
0026

> <Smiles>
CNC(C)C(=O)NC(C(=O)N1Cc2cc([101O:1][101CH:1]3CCCc4cc([100NH:0][100C:0](=O)N5CCCC(n6nc(-c7ccc(Oc8ccc(F)cc8F)cc7)c(C(N)=O)c6N)C5)c(C)cc43)ccc2CC1C(=O)NC1CCCc2ccccc21)C(C)(C)C

> <Shape>
0.264

> <Color>
0.124

> <Negative vol penalty>
0.000

$$$$

  -OEChem-04052316273D

 85 93  0     1  0  0  0  0  0999 V2000
  -24.6476  -23.4734   18.1824 C   0  0  0  0  0  0  0  0  0  0  0  0
  -25.4711  -22.3536   18.1549 C   0  0  0  0  0  0  0  0  0  0  0  0
  -22.1552  -28.0227   19.7676 C   0  0  0  0  0  0  0  0  0  0  0  0
  -22.7237  -28.3746   22.0892 C   0  0  0  0  0  0  0  0  0  0  0  0
  -23.4905  -23.4640   18.9584 C   0  0  0  0  0  0  0  0  0  0  0  0
  -25.1316  -21.2197   18.8938 C   0  0  0  0  0  0  0  0  0  0  0  0
  -27.9032  -17.2091   18.2332 C   0  0  0  0  0  0  0  0  0  0  0  0
  -20.8131  -27.8766   20.1183 C   0  0  0  0  0  0  0  0  0  0  0  0
  -21.3816  -28.2285   22.4400 C   0  0  0  0  0  0  0  0  0  0  0  0
  -29.2078  -17.1069   18.7142 C   0  0  0  0  0  0  0  0  0  0  0  0
  -18.5739  -30.1083   22.3788 C   0  0  0  0  0  0  0  0  0  0  0  0
  -18.0372  -31.0282   23.2795 C   0  0  0  0  0  0  0  0  0  0  0  0
  -28.4282  -15.7005   20.5124 C   0  0  0  0  0  0  0  0  0  0  0  0
  -34.5943  -20.6566   21.0273 C   0  0  0  0  0  0  0  0  0  0  0  0
  -17.5185  -29.2297   24.8071 C   0  0  0  0  0  0  0  0  0  0  0  0
  -23.1105  -28.2717   20.7530 C   0  0  0  0  0  0  0  0  0  0  0  0
  -25.1615  -29.6149   20.0481 C   0  0  0  0  0  0  0  0  0  0  0  0
  -23.1439  -22.3336   19.7167 C   0  0  0  0  0  0  0  0  0  0  0  0
  -26.8479  -16.5656   18.8956 C   0  0  0  0  0  0  0  0  0  0  0  0
  -23.9554  -21.1820   19.6643 C   0  0  0  0  0  0  0  0  0  0  0  0
  -27.1115  -15.7940   20.0363 C   0  0  0  0  0  0  0  0  0  0  0  0
  -33.5771  -20.2276   21.8799 C   0  0  0  0  0  0  0  0  0  0  0  0
  -32.7020  -22.4779   21.9679 C   0  0  0  0  0  0  0  0  0  0  0  0
  -20.4263  -27.9795   21.4545 C   0  0  0  0  0  0  0  0  0  0  0  0
  -29.4701  -16.3549   19.8556 C   0  0  0  0  0  0  0  0  0  0  0  0
  -18.5829  -28.7491   22.6921 C   0  0  0  0  0  0  0  0  0  0  0  0
  -17.5096  -30.5889   24.4937 C   0  0  0  0  0  0  0  0  0  0  0  0
  -18.0552  -28.3098   23.9063 C   0  0  0  0  0  0  0  0  0  0  0  0
  -34.6654  -21.9962   20.6450 C   0  0  0  0  0  0  0  0  0  0  0  0
  -32.6309  -21.1382   22.3502 C   0  0  0  0  0  0  0  0  0  0  0  0
  -33.7192  -22.9068   21.1153 C   0  0  0  0  0  0  0  0  0  0  0  0
  -24.4971  -28.4222   20.3914 C   0  0  0  0  0  0  0  0  0  0  0  0
  -26.4537  -29.2265   19.7915 C   0  0  0  0  0  0  0  0  0  0  0  0
  -24.6559  -30.9542   19.9685 C   0  0  0  0  0  0  0  0  0  0  0  0
  -24.1946  -17.5313   20.3554 C   0  0  0  0  0  0  0  0  0  0  0  0
  -23.6089  -14.3468   20.5520 C   0  0  0  0  0  0  0  0  0  0  0  0
  -24.8532  -11.1693   20.5931 C   0  0  0  0  0  0  0  0  0  0  0  0
  -29.6423  -24.6487   21.7233 C   0  0  0  0  0  0  0  0  0  0  0  0
  -21.8761  -22.3748   20.5329 C   0  0  0  0  0  0  0  0  0  0  0  0
  -25.4502  -16.6638   18.3487 C   0  0  0  0  0  0  0  0  0  0  0  0
  -26.0168  -15.0671   20.7724 C   0  0  0  0  0  0  0  0  0  0  0  0
  -21.8333  -21.3049   21.6191 C   0  0  0  0  0  0  0  0  0  0  0  0
  -29.0026  -25.4766   18.2588 C   0  0  0  0  0  0  0  0  0  0  0  0
  -22.1878  -19.9489   21.0274 C   0  0  0  0  0  0  0  0  0  0  0  0
  -27.8275  -26.4473   18.3900 C   0  0  0  0  0  0  0  0  0  0  0  0
  -28.9050  -24.3490   19.2821 C   0  0  0  0  0  0  0  0  0  0  0  0
  -27.6252  -25.7778   20.8294 C   0  0  0  0  0  0  0  0  0  0  0  0
  -23.6223  -19.9485   20.4839 C   0  0  1  0  0  0  0  0  0  0  0  0
  -24.3774  -16.3880   19.3977 C   0  0  1  0  0  0  0  0  0  0  0  0
  -27.6778  -26.9535   19.8369 C   0  0  2  0  0  0  0  0  0  0  0  0
  -24.1335   -8.7745   20.8041 C   0  0  0  0  0  0  0  0  0  0  0  0
  -23.2204  -14.7306   23.5540 C   0  0  0  0  0  0  0  0  0  0  0  0
  -23.4534  -12.2532   23.8303 C   0  0  0  0  0  0  0  0  0  0  0  0
  -21.5751  -13.1844   22.4784 C   0  0  0  0  0  0  0  0  0  0  0  0
  -25.9091  -10.4946   17.9119 C   0  0  0  0  0  0  0  0  0  0  0  0
  -31.6826  -23.4536   22.4756 C   0  0  0  0  0  0  0  0  0  0  0  0
  -33.5403  -18.7776   22.2633 C   0  0  0  0  0  0  0  0  0  0  0  0
  -32.2389  -16.6478   22.1683 C   0  0  0  0  0  0  0  0  0  0  0  0
  -30.9012  -16.0809   21.7351 C   0  0  0  0  0  0  0  0  0  1  0  0
  -23.9262  -13.2612   21.5518 C   0  0  1  0  0  0  0  0  0  0  0  0
  -24.4378   -9.9151   19.8454 C   0  0  2  0  0  0  0  0  0  0  0  0
  -23.0644  -13.3725   22.8411 C   0  0  0  0  0  0  0  0  0  0  0  0
  -25.3008  -27.3559   20.3567 N   0  0  0  0  0  0  0  0  0  0  0  0
  -26.4835  -27.8773   19.9886 N   0  0  0  0  0  0  0  0  0  0  0  0
  -24.6659  -15.1990   20.2022 N   0  0  0  0  0  0  0  0  0  0  0  0
  -28.7834  -24.8981   20.6400 N   0  0  0  0  0  0  0  0  0  0  0  0
  -27.5560  -29.9109   19.4186 N   0  0  0  0  0  0  0  0  0  0  0  0
  -23.3042  -31.1767   20.2649 N   0  0  0  0  0  0  0  0  0  0  0  0
  -23.8482  -18.7235   19.7488 N   0  0  0  0  0  0  0  0  0  0  0  0
  -23.7777  -11.9957   20.8412 N   0  0  0  0  0  0  0  0  0  0  0  0
  -30.7107  -23.7995   21.4623 N   0  0  0  0  0  0  0  0  0  0  0  0
  -25.5245   -9.4775   18.9241 N   0  3  0  0  0  0  0  0  0  0  0  0
  -32.2806  -18.0986   21.8557 N   0  3  0  0  0  0  0  0  0  0  0  0
  -25.3772  -31.9223   19.6281 O   0  0  0  0  0  0  0  0  0  0  0  0
  -24.3545  -17.3451   21.5561 O   0  0  0  0  0  0  0  0  0  0  0  0
  -22.4671  -14.4311   20.0928 O   0  0  0  0  0  0  0  0  0  0  0  0
  -26.0148  -11.3917   20.9272 O   0  0  0  0  0  0  0  0  0  0  0  0
  -29.4727  -25.1502   22.8399 O   0  0  0  0  0  0  0  0  0  0  0  0
  -19.1168  -27.8372   21.7971 O   0  0  0  0  0  0  0  0  0  0  0  0
  -30.7424  -16.2540   20.3276 O   0  0  0  0  0  0  0  0  0  1  0  0
  -16.9956  -31.4725   25.3593 F   0  0  0  0  0  0  0  0  0  0  0  0
  -18.0621  -27.0054   24.2134 F   0  0  0  0  0  0  0  0  0  0  0  0
  -35.9528  -22.4580   19.5860 Cl  0  0  0  0  0  0  0  0  0  0  0  0
  -31.3698  -20.5970   23.4088 Cl  0  0  0  0  0  0  0  0  0  0  0  0
  -33.7932  -24.5781   20.6507 Cl  0  0  0  0  0  0  0  0  0  0  0  0
  1  2  1  0  0  0  0
  1  5  2  0  0  0  0
  2  6  2  0  0  0  0
  3  8  2  0  0  0  0
  3 16  1  0  0  0  0
  4  9  1  0  0  0  0
  4 16  2  0  0  0  0
  5 18  1  0  0  0  0
  6 20  1  0  0  0  0
  7 10  2  0  0  0  0
  7 19  1  0  0  0  0
  8 24  1  0  0  0  0
  9 24  2  0  0  0  0
 10 25  1  0  0  0  0
 11 12  2  0  0  0  0
 11 26  1  0  0  0  0
 12 27  1  0  0  0  0
 13 21  1  0  0  0  0
 13 25  2  0  0  0  0
 14 22  1  0  0  0  0
 14 29  2  0  0  0  0
 15 27  2  0  0  0  0
 15 28  1  0  0  0  0
 16 32  1  0  0  0  0
 17 32  1  0  0  0  0
 17 33  2  0  0  0  0
 17 34  1  0  0  0  0
 18 20  2  0  0  0  0
 18 39  1  0  0  0  0
 19 21  2  0  0  0  0
 19 40  1  0  0  0  0
 20 48  1  0  0  0  0
 21 41  1  0  0  0  0
 22 30  2  0  0  0  0
 22 57  1  0  0  0  0
 23 30  1  0  0  0  0
 23 31  2  0  0  0  0
 23 56  1  0  0  0  0
 24 79  1  0  0  0  0
 25 80  1  0  0  0  0
 26 28  2  0  0  0  0
 26 79  1  0  0  0  0
 27 81  1  0  0  0  0
 28 82  1  0  0  0  0
 29 31  1  0  0  0  0
 29 83  1  0  0  0  0
 30 84  1  0  0  0  0
 31 85  1  0  0  0  0
 32 63  2  0  0  0  0
 33 64  1  0  0  0  0
 33 67  1  0  0  0  0
 34 68  1  0  0  0  0
 34 74  2  0  0  0  0
 35 49  1  0  0  0  0
 35 69  1  0  0  0  0
 35 75  2  0  0  0  0
 36 60  1  0  0  0  0
 36 65  1  0  0  0  0
 36 76  2  0  0  0  0
 37 61  1  0  0  0  0
 37 70  1  0  0  0  0
 37 77  2  0  0  0  0
 38 66  1  0  0  0  0
 38 71  1  0  0  0  0
 38 78  2  0  0  0  0
 39 42  1  0  0  0  0
 40 49  1  0  0  0  0
 41 65  1  0  0  0  0
 42 44  1  0  0  0  0
 43 45  1  0  0  0  0
 43 46  1  0  0  0  0
 44 48  1  0  0  0  0
 45 50  1  0  0  0  0
 46 66  1  0  0  0  0
 47 50  1  0  0  0  0
 47 66  1  0  0  0  0
 48 69  1  0  0  0  0
 49 65  1  0  0  0  0
 50 64  1  0  0  0  0
 51 61  1  0  0  0  0
 52 62  1  0  0  0  0
 53 62  1  0  0  0  0
 54 62  1  0  0  0  0
 55 72  1  0  0  0  0
 56 71  1  0  0  0  0
 57 73  1  0  0  0  0
 58 59  1  0  0  0  0
 58 73  1  0  0  0  0
 59 80  1  0  0  0  0
 60 62  1  0  0  0  0
 60 70  1  0  0  0  0
 61 72  1  0  0  0  0
 63 64  1  0  0  0  0
M  CHG  2  72   1  73   1
M  ISO  4  38 100  59 101  71 100  80 101
M  END
> <Batch ID>
0026

> <Smiles>
CNC(C)C(=O)NC(C(=O)N1Cc2cc([101O:1][101CH2:1]CNCc3cc(Cl)c(Cl)c(C[100NH:0][100C:0](=O)N4CCCC(n5nc(-c6ccc(Oc7ccc(F)cc7F)cc6)c(C(N)=O)c5N)C4)c3Cl)ccc2CC1C(=O)NC1CCCc2ccccc21)C(C)(C)C

> <Shape>
0.209

> <Color>
0.063

> <Negative vol penalty>
0.000

$$$$

  -OEChem-04052316273D

 88 96  0     1  0  0  0  0  0999 V2000
  -22.0062  -30.5190   22.8949 C   0  0  0  0  0  0  0  0  0  0  0  0
  -21.5861  -29.2769   22.4300 C   0  0  0  0  0  0  0  0  0  0  0  0
  -23.5798  -15.6021   23.2321 C   0  0  0  0  0  0  0  0  0  0  0  0
  -22.6939  -16.0410   21.0276 C   0  0  0  0  0  0  0  0  0  0  0  0
  -23.2555  -31.0147   22.5243 C   0  0  0  0  0  0  0  0  0  0  0  0
  -22.4148  -28.5302   21.5933 C   0  0  0  0  0  0  0  0  0  0  0  0
  -22.9580  -22.4321   21.4380 C   0  0  0  0  0  0  0  0  0  0  0  0
  -22.6981  -16.5379   23.7727 C   0  0  0  0  0  0  0  0  0  0  0  0
  -21.8122  -16.9769   21.5683 C   0  0  0  0  0  0  0  0  0  0  0  0
  -22.4003  -21.4616   20.6068 C   0  0  0  0  0  0  0  0  0  0  0  0
  -22.4901  -19.9012   24.0365 C   0  0  0  0  0  0  0  0  0  0  0  0
  -22.9979  -20.8055   24.9692 C   0  0  0  0  0  0  0  0  0  0  0  0
  -24.3916  -21.4918   19.2456 C   0  0  0  0  0  0  0  0  0  0  0  0
  -22.4545  -19.5794   13.6809 C   0  0  0  0  0  0  0  0  0  0  0  0
  -21.4379  -19.9799   26.6190 C   0  0  0  0  0  0  0  0  0  0  0  0
  -23.5777  -15.3536   21.8595 C   0  0  0  0  0  0  0  0  0  0  0  0
  -24.2605  -13.0103   21.1176 C   0  0  0  0  0  0  0  0  0  0  0  0
  -24.1040  -30.2695   21.6905 C   0  0  0  0  0  0  0  0  0  0  0  0
  -24.2344  -22.9485   21.1725 C   0  0  0  0  0  0  0  0  0  0  0  0
  -23.6762  -29.0170   21.2101 C   0  0  0  0  0  0  0  0  0  0  0  0
  -24.9643  -22.4669   20.0763 C   0  0  0  0  0  0  0  0  0  0  0  0
  -22.9863  -18.6128   14.5343 C   0  0  0  0  0  0  0  0  0  0  0  0
  -22.4270  -18.4131   15.7965 C   0  0  0  0  0  0  0  0  0  0  0  0
  -21.3359  -19.1801   16.2052 C   0  0  0  0  0  0  0  0  0  0  0  0
  -20.8041  -20.1467   15.3517 C   0  0  0  0  0  0  0  0  0  0  0  0
  -21.8143  -17.2253   22.9409 C   0  0  0  0  0  0  0  0  0  0  0  0
  -23.1159  -20.9934   19.5088 C   0  0  0  0  0  0  0  0  0  0  0  0
  -21.4562  -19.0362   24.3950 C   0  0  0  0  0  0  0  0  0  0  0  0
  -22.4718  -20.8449   26.2605 C   0  0  0  0  0  0  0  0  0  0  0  0
  -20.9301  -19.0756   25.6863 C   0  0  0  0  0  0  0  0  0  0  0  0
  -21.3634  -20.3464   14.0895 C   0  0  0  0  0  0  0  0  0  0  0  0
  -24.4887  -14.3873   21.3003 C   0  0  0  0  0  0  0  0  0  0  0  0
  -25.4229  -12.5411   20.5562 C   0  0  0  0  0  0  0  0  0  0  0  0
  -23.1014  -12.2254   21.4276 C   0  0  0  0  0  0  0  0  0  0  0  0
  -25.3894  -25.8267   20.4754 C   0  0  0  0  0  0  0  0  0  0  0  0
  -28.2472  -24.3146   20.7374 C   0  0  0  0  0  0  0  0  0  0  0  0
  -29.9991  -21.3885   20.6108 C   0  0  0  0  0  0  0  0  0  0  0  0
  -29.7298  -15.1511   17.3174 C   0  0  0  0  0  0  0  0  0  0  0  0
  -25.4259  -30.8676   21.2787 C   0  0  0  0  0  0  0  0  0  0  0  0
  -24.8328  -23.9757   22.0940 C   0  0  0  0  0  0  0  0  0  0  0  0
  -26.3466  -22.9741   19.7595 C   0  0  0  0  0  0  0  0  0  0  0  0
  -26.3992  -29.8485   20.6919 C   0  0  0  0  0  0  0  0  0  0  0  0
  -30.1244  -13.4142   20.4003 C   0  0  0  0  0  0  0  0  0  0  0  0
  -25.6934  -28.9636   19.6694 C   0  0  0  0  0  0  0  0  0  0  0  0
  -28.7042  -13.3424   20.9640 C   0  0  0  0  0  0  0  0  0  0  0  0
  -30.3764  -14.7325   19.6717 C   0  0  0  0  0  0  0  0  0  0  0  0
  -27.9738  -14.9849   19.1843 C   0  0  0  0  0  0  0  0  0  0  0  0
  -24.5569  -28.1663   20.3208 C   0  0  1  0  0  0  0  0  0  0  0  0
  -25.9308  -24.8036   21.4335 C   0  0  1  0  0  0  0  0  0  0  0  0
  -27.6542  -13.6505   19.8797 C   0  0  2  0  0  0  0  0  0  0  0  0
  -22.9999  -17.3756   16.7096 C   0  0  0  0  0  0  0  0  0  0  0  0
  -19.6327  -20.9630   15.8035 C   0  0  0  0  0  0  0  0  0  0  0  0
  -32.3260  -20.4747   20.8294 C   0  0  0  0  0  0  0  0  0  0  0  0
  -28.9239  -25.3797   17.9593 C   0  0  0  0  0  0  0  0  0  0  0  0
  -30.7785  -23.7017   17.8439 C   0  0  0  0  0  0  0  0  0  0  0  0
  -30.8090  -25.4731   19.6001 C   0  0  0  0  0  0  0  0  0  0  0  0
  -29.2407  -19.6908   22.9132 C   0  0  0  0  0  0  0  0  0  0  0  0
  -20.7318  -18.9623   17.5711 C   0  0  0  0  0  0  0  0  0  0  0  0
  -24.1547  -17.8049   14.0728 C   0  0  0  0  0  0  0  0  0  0  0  0
  -29.1124  -17.0324   14.6512 C   0  0  0  0  0  0  0  0  0  0  0  0
  -27.8768  -17.8766   14.9856 C   0  0  0  0  0  0  0  0  0  0  0  0
  -28.9257  -15.5599   15.0053 C   0  0  0  0  0  0  0  0  0  0  0  0
  -26.6059  -17.3838   14.3036 C   0  0  0  0  0  0  0  0  0  0  0  0
  -21.1522  -20.0359   18.5690 C   0  0  0  0  0  0  0  0  0  1  0  0
  -29.1542  -23.5708   19.7871 C   0  0  1  0  0  0  0  0  0  0  0  0
  -31.0259  -20.7877   21.5537 C   0  0  2  0  0  0  0  0  0  0  0  0
  -29.8896  -24.5230   18.8022 C   0  0  0  0  0  0  0  0  0  0  0  0
  -25.7008  -14.7682   20.8885 N   0  0  0  0  0  0  0  0  0  0  0  0
  -26.2448  -13.6235   20.4415 N   0  0  0  0  0  0  0  0  0  0  0  0
  -26.8859  -23.9826   20.6866 N   0  0  0  0  0  0  0  0  0  0  0  0
  -29.3468  -14.9642   18.6558 N   0  0  0  0  0  0  0  0  0  0  0  0
  -25.8119  -11.3125   20.1544 N   0  0  0  0  0  0  0  0  0  0  0  0
  -21.9944  -12.8660   22.0008 N   0  0  0  0  0  0  0  0  0  0  0  0
  -25.0880  -27.0416   21.0607 N   0  0  0  0  0  0  0  0  0  0  0  0
  -30.0442  -22.7667   20.6175 N   0  0  0  0  0  0  0  0  0  0  0  0
  -28.6912  -15.3583   16.4178 N   0  0  0  0  0  0  0  0  0  0  0  0
  -30.5049  -19.5256   22.1507 N   0  3  0  0  0  0  0  0  0  0  0  0
  -25.4387  -18.2118   14.7056 N   0  3  0  0  0  0  0  0  0  0  0  0
  -23.0549  -10.9895   21.2181 O   0  0  0  0  0  0  0  0  0  0  0  0
  -25.2563  -25.5358   19.2924 O   0  0  0  0  0  0  0  0  0  0  0  0
  -28.7298  -25.1539   21.5017 O   0  0  0  0  0  0  0  0  0  0  0  0
  -29.2360  -20.7038   19.9331 O   0  0  0  0  0  0  0  0  0  0  0  0
  -30.9095  -15.1291   16.9503 O   0  0  0  0  0  0  0  0  0  0  0  0
  -20.9536  -18.1385   23.4682 O   0  0  0  0  0  0  0  0  0  0  0  0
  -22.5736  -20.0466   18.6955 O   0  0  0  0  0  0  0  0  0  1  0  0
  -22.9606  -21.7123   27.1565 F   0  0  0  0  0  0  0  0  0  0  0  0
  -19.9376  -18.2463   26.0369 F   0  0  0  0  0  0  0  0  0  0  0  0
  -20.7344  -21.5319   13.0031 Cl  0  0  0  0  0  0  0  0  0  0  0  0
  1  2  1  0  0  0  0
  1  5  2  0  0  0  0
  2  6  2  0  0  0  0
  3  8  2  0  0  0  0
  3 16  1  0  0  0  0
  4  9  1  0  0  0  0
  4 16  2  0  0  0  0
  5 18  1  0  0  0  0
  6 20  1  0  0  0  0
  7 10  2  0  0  0  0
  7 19  1  0  0  0  0
  8 26  1  0  0  0  0
  9 26  2  0  0  0  0
 10 27  1  0  0  0  0
 11 12  2  0  0  0  0
 11 28  1  0  0  0  0
 12 29  1  0  0  0  0
 13 21  1  0  0  0  0
 13 27  2  0  0  0  0
 14 22  2  0  0  0  0
 14 31  1  0  0  0  0
 15 29  2  0  0  0  0
 15 30  1  0  0  0  0
 16 32  1  0  0  0  0
 17 32  1  0  0  0  0
 17 33  2  0  0  0  0
 17 34  1  0  0  0  0
 18 20  2  0  0  0  0
 18 39  1  0  0  0  0
 19 21  2  0  0  0  0
 19 40  1  0  0  0  0
 20 48  1  0  0  0  0
 21 41  1  0  0  0  0
 22 23  1  0  0  0  0
 22 59  1  0  0  0  0
 23 24  2  0  0  0  0
 23 51  1  0  0  0  0
 24 25  1  0  0  0  0
 24 58  1  0  0  0  0
 25 31  2  0  0  0  0
 25 52  1  0  0  0  0
 26 84  1  0  0  0  0
 27 85  1  0  0  0  0
 28 30  2  0  0  0  0
 28 84  1  0  0  0  0
 29 86  1  0  0  0  0
 30 87  1  0  0  0  0
 31 88  1  0  0  0  0
 32 68  2  0  0  0  0
 33 69  1  0  0  0  0
 33 72  1  0  0  0  0
 34 73  1  0  0  0  0
 34 79  2  0  0  0  0
 35 49  1  0  0  0  0
 35 74  1  0  0  0  0
 35 80  2  0  0  0  0
 36 65  1  0  0  0  0
 36 70  1  0  0  0  0
 36 81  2  0  0  0  0
 37 66  1  0  0  0  0
 37 75  1  0  0  0  0
 37 82  2  0  0  0  0
 38 71  1  0  0  0  0
 38 76  1  0  0  0  0
 38 83  2  0  0  0  0
 39 42  1  0  0  0  0
 40 49  1  0  0  0  0
 41 70  1  0  0  0  0
 42 44  1  0  0  0  0
 43 45  1  0  0  0  0
 43 46  1  0  0  0  0
 44 48  1  0  0  0  0
 45 50  1  0  0  0  0
 46 71  1  0  0  0  0
 47 50  1  0  0  0  0
 47 71  1  0  0  0  0
 48 74  1  0  0  0  0
 49 70  1  0  0  0  0
 50 69  1  0  0  0  0
 53 66  1  0  0  0  0
 54 67  1  0  0  0  0
 55 67  1  0  0  0  0
 56 67  1  0  0  0  0
 57 77  1  0  0  0  0
 58 64  1  0  0  0  0
 59 78  1  0  0  0  0
 60 61  1  0  0  0  0
 60 62  1  0  0  0  0
 61 63  1  0  0  0  0
 62 76  1  0  0  0  0
 63 78  1  0  0  0  0
 64 85  1  0  0  0  0
 65 67  1  0  0  0  0
 65 75  1  0  0  0  0
 66 77  1  0  0  0  0
 68 69  1  0  0  0  0
M  CHG  2  77   1  78   1
M  ISO  4  38 100  64 101  76 100  85 101
M  END
> <Batch ID>
0026

> <Smiles>
CNC(C)C(=O)NC(C(=O)N1Cc2cc([101O:1][101CH2:1]Cc3c(C)c(Cl)cc(CNCCCC[100NH:0][100C:0](=O)N4CCCC(n5nc(-c6ccc(Oc7ccc(F)cc7F)cc6)c(C(N)=O)c5N)C4)c3C)ccc2CC1C(=O)NC1CCCc2ccccc21)C(C)(C)C

> <Shape>
0.187

> <Color>
0.085

> <Negative vol penalty>
0.000

$$$$

  -OEChem-04052316273D

 87 95  0     1  0  0  0  0  0999 V2000
  -28.1187  -35.6810   19.2720 C   0  0  0  0  0  0  0  0  0  0  0  0
  -28.6959  -34.5449   18.7139 C   0  0  0  0  0  0  0  0  0  0  0  0
  -22.9449  -10.2162   20.3847 C   0  0  0  0  0  0  0  0  0  0  0  0
  -24.3324   -9.2538   22.1126 C   0  0  0  0  0  0  0  0  0  0  0  0
  -27.3863  -35.5804   20.4541 C   0  0  0  0  0  0  0  0  0  0  0  0
  -28.5419  -33.3076   19.3382 C   0  0  0  0  0  0  0  0  0  0  0  0
  -27.9332  -26.3310   17.8304 C   0  0  0  0  0  0  0  0  0  0  0  0
  -22.1612   -9.0625   20.3714 C   0  0  0  0  0  0  0  0  0  0  0  0
  -23.5486   -8.1000   22.0993 C   0  0  0  0  0  0  0  0  0  0  0  0
  -28.4990  -25.1026   18.1688 C   0  0  0  0  0  0  0  0  0  0  0  0
  -20.5592   -7.1073   23.3235 C   0  0  0  0  0  0  0  0  0  0  0  0
  -20.1767   -6.5713   24.5531 C   0  0  0  0  0  0  0  0  0  0  0  0
  -27.1459  -25.0360   20.1648 C   0  0  0  0  0  0  0  0  0  0  0  0
  -21.3131   -4.5100   24.0081 C   0  0  0  0  0  0  0  0  0  0  0  0
  -24.0306  -10.3119   21.2553 C   0  0  0  0  0  0  0  0  0  0  0  0
  -24.6511  -12.6513   22.0614 C   0  0  0  0  0  0  0  0  0  0  0  0
  -27.2151  -34.3396   21.0881 C   0  0  0  0  0  0  0  0  0  0  0  0
  -26.9758  -26.9273   18.6636 C   0  0  0  0  0  0  0  0  0  0  0  0
  -27.8076  -33.1905   20.5306 C   0  0  0  0  0  0  0  0  0  0  0  0
  -26.5675  -26.2708   19.8334 C   0  0  0  0  0  0  0  0  0  0  0  0
  -22.4630   -8.0044   21.2287 C   0  0  0  0  0  0  0  0  0  0  0  0
  -28.1075  -24.4562   19.3376 C   0  0  0  0  0  0  0  0  0  0  0  0
  -21.3186   -6.3447   22.4361 C   0  0  0  0  0  0  0  0  0  0  0  0
  -20.5537   -5.2727   24.8955 C   0  0  0  0  0  0  0  0  0  0  0  0
  -21.6956   -5.0460   22.7784 C   0  0  0  0  0  0  0  0  0  0  0  0
  -24.8409  -11.5032   21.2692 C   0  0  0  0  0  0  0  0  0  0  0  0
  -25.6790  -13.4891   21.7038 C   0  0  0  0  0  0  0  0  0  0  0  0
  -23.6363  -12.9350   23.0337 C   0  0  0  0  0  0  0  0  0  0  0  0
  -26.8178  -29.6369   20.3180 C   0  0  0  0  0  0  0  0  0  0  0  0
  -23.7723  -28.6664   20.8707 C   0  0  0  0  0  0  0  0  0  0  0  0
  -21.5422  -26.0902   21.0628 C   0  0  0  0  0  0  0  0  0  0  0  0
  -31.0651  -14.3572   20.5282 C   0  0  0  0  0  0  0  0  0  0  0  0
  -26.4547  -34.2882   22.3895 C   0  0  0  0  0  0  0  0  0  0  0  0
  -26.3554  -28.2401   18.2708 C   0  0  0  0  0  0  0  0  0  0  0  0
  -25.5286  -26.8590   20.7515 C   0  0  0  0  0  0  0  0  0  0  0  0
  -26.0234  -32.8790   22.7877 C   0  0  0  0  0  0  0  0  0  0  0  0
  -27.3010  -19.0769   19.3450 C   0  0  0  0  0  0  0  0  0  0  0  0
  -28.9805  -13.2042   17.8821 C   0  0  0  0  0  0  0  0  0  0  0  0
  -27.1822  -31.9003   22.6258 C   0  0  0  0  0  0  0  0  0  0  0  0
  -27.4968  -20.5276   18.9234 C   0  0  0  0  0  0  0  0  0  0  0  0
  -27.7053  -12.7481   18.5933 C   0  0  0  0  0  0  0  0  0  0  0  0
  -27.8192  -18.8394   20.7567 C   0  0  0  0  0  0  0  0  0  0  0  0
  -30.2277  -12.8993   18.7089 C   0  0  0  0  0  0  0  0  0  0  0  0
  -28.9239  -12.9649   20.7993 C   0  0  0  0  0  0  0  0  0  0  0  0
  -27.6420  -31.8265   21.1648 C   0  0  1  0  0  0  0  0  0  0  0  0
  -25.7656  -29.0002   19.4547 C   0  0  1  0  0  0  0  0  0  0  0  0
  -28.9665  -20.9695   19.0339 C   0  0  2  0  0  0  0  0  0  0  0  0
  -29.5170  -20.7275   20.4687 C   0  0  1  0  0  0  0  0  0  0  0  0
  -27.6355  -13.3016   20.0292 C   0  0  2  0  0  0  0  0  0  0  0  0
  -29.2843  -19.2555   20.8800 C   0  0  1  0  0  0  0  0  0  0  0  0
  -19.1337  -25.6035   21.5723 C   0  0  0  0  0  0  0  0  0  0  0  0
  -30.5437  -23.2568   21.8697 C   0  0  0  0  0  0  0  0  0  0  0  0
  -32.7281  -22.9142   20.6975 C   0  0  0  0  0  0  0  0  0  0  0  0
  -29.8224  -17.4645   24.1472 C   0  0  0  0  0  0  0  0  0  0  0  0
  -24.3344  -29.0151   23.8493 C   0  0  0  0  0  0  0  0  0  0  0  0
  -22.2940  -27.6441   24.3238 C   0  0  0  0  0  0  0  0  0  0  0  0
  -22.0823  -29.8143   23.1122 C   0  0  0  0  0  0  0  0  0  0  0  0
  -21.0692  -24.9980   18.3531 C   0  0  0  0  0  0  0  0  0  0  0  0
  -31.0000  -21.1115   20.5728 C   0  0  0  0  0  0  0  0  0  0  0  0
  -29.0776  -22.4148   18.5979 C   0  0  0  0  0  0  0  0  0  1  0  0
  -31.3782  -17.2336   22.1681 C   0  0  0  0  0  0  0  0  0  0  0  0
  -31.7691  -15.7808   22.4353 C   0  0  0  0  0  0  0  0  0  0  0  0
  -23.0929  -27.8248   21.9238 C   0  0  1  0  0  0  0  0  0  0  0  0
  -20.1490  -25.9187   20.4849 C   0  0  2  0  0  0  0  0  0  0  0  0
  -31.2256  -22.6260   20.6548 C   0  0  0  0  0  0  0  0  0  0  0  0
  -29.9700  -17.6201   22.6389 C   0  0  2  0  0  0  0  0  0  0  0  0
  -22.9719  -28.5641   23.2862 C   0  0  0  0  0  0  0  0  0  0  0  0
  -25.9057  -11.5995   20.4685 N   0  0  0  0  0  0  0  0  0  0  0  0
  -26.3941  -12.8181   20.7558 N   0  0  0  0  0  0  0  0  0  0  0  0
  -24.9560  -28.1473   20.3273 N   0  0  0  0  0  0  0  0  0  0  0  0
  -30.0982  -13.4527   20.0591 N   0  0  0  0  0  0  0  0  0  0  0  0
  -26.0319  -14.7269   22.1109 N   0  0  0  0  0  0  0  0  0  0  0  0
  -22.6558  -11.9640   23.2791 N   0  0  0  0  0  0  0  0  0  0  0  0
  -26.7300  -31.0142   20.3884 N   0  0  0  0  0  0  0  0  0  0  0  0
  -21.8157  -27.4100   21.3535 N   0  0  0  0  0  0  0  0  0  0  0  0
  -30.8637  -14.8387   21.8160 N   0  0  0  0  0  0  0  0  0  0  0  0
  -29.6953  -19.0390   22.2973 N   0  3  0  0  0  0  0  0  0  0  0  0
  -20.1335  -24.8081   19.4913 N   0  3  0  0  0  0  0  0  0  0  0  0
  -23.5905  -14.0242   23.6543 O   0  0  0  0  0  0  0  0  0  0  0  0
  -27.6469  -28.9308   20.8799 O   0  0  0  0  0  0  0  0  0  0  0  0
  -23.2673  -29.7413   20.5371 O   0  0  0  0  0  0  0  0  0  0  0  0
  -22.3097  -25.1471   21.2422 O   0  0  0  0  0  0  0  0  0  0  0  0
  -32.0330  -14.7136   19.8477 O   0  0  0  0  0  0  0  0  0  0  0  0
  -21.6983   -6.8785   21.2161 O   0  0  0  0  0  0  0  0  0  0  0  0
  -28.6587  -23.2574   19.6706 O   0  0  0  0  0  0  0  0  0  1  0  0
  -20.1876   -4.7586   26.0769 F   0  0  0  0  0  0  0  0  0  0  0  0
  -22.4261   -4.3090   21.9306 F   0  0  0  0  0  0  0  0  0  0  0  0
  1  2  1  0  0  0  0
  1  5  2  0  0  0  0
  2  6  2  0  0  0  0
  3  8  2  0  0  0  0
  3 15  1  0  0  0  0
  4  9  1  0  0  0  0
  4 15  2  0  0  0  0
  5 17  1  0  0  0  0
  6 19  1  0  0  0  0
  7 10  2  0  0  0  0
  7 18  1  0  0  0  0
  8 21  1  0  0  0  0
  9 21  2  0  0  0  0
 10 22  1  0  0  0  0
 11 12  2  0  0  0  0
 11 23  1  0  0  0  0
 12 24  1  0  0  0  0
 13 20  1  0  0  0  0
 13 22  2  0  0  0  0
 14 24  2  0  0  0  0
 14 25  1  0  0  0  0
 15 26  1  0  0  0  0
 16 26  1  0  0  0  0
 16 27  2  0  0  0  0
 16 28  1  0  0  0  0
 17 19  2  0  0  0  0
 17 33  1  0  0  0  0
 18 20  2  0  0  0  0
 18 34  1  0  0  0  0
 19 45  1  0  0  0  0
 20 35  1  0  0  0  0
 21 84  1  0  0  0  0
 22 85  1  0  0  0  0
 23 25  2  0  0  0  0
 23 84  1  0  0  0  0
 24 86  1  0  0  0  0
 25 87  1  0  0  0  0
 26 68  2  0  0  0  0
 27 69  1  0  0  0  0
 27 72  1  0  0  0  0
 28 73  1  0  0  0  0
 28 79  2  0  0  0  0
 29 46  1  0  0  0  0
 29 74  1  0  0  0  0
 29 80  2  0  0  0  0
 30 63  1  0  0  0  0
 30 70  1  0  0  0  0
 30 81  2  0  0  0  0
 31 64  1  0  0  0  0
 31 75  1  0  0  0  0
 31 82  2  0  0  0  0
 32 71  1  0  0  0  0
 32 76  1  0  0  0  0
 32 83  2  0  0  0  0
 33 36  1  0  0  0  0
 34 46  1  0  0  0  0
 35 70  1  0  0  0  0
 36 39  1  0  0  0  0
 37 40  1  0  0  0  0
 37 42  1  0  0  0  0
 38 41  1  0  0  0  0
 38 43  1  0  0  0  0
 39 45  1  0  0  0  0
 40 47  1  0  0  0  0
 41 49  1  0  0  0  0
 42 50  1  0  0  0  0
 43 71  1  0  0  0  0
 44 49  1  0  0  0  0
 44 71  1  0  0  0  0
 45 74  1  0  0  0  0
 46 70  1  0  0  0  0
 47 48  1  0  0  0  0
 47 60  1  0  0  0  0
 48 50  1  0  0  0  0
 48 59  1  0  0  0  0
 49 69  1  0  0  0  0
 50 77  1  0  0  0  0
 51 64  1  0  0  0  0
 52 65  1  0  0  0  0
 53 65  1  0  0  0  0
 54 66  1  0  0  0  0
 55 67  1  0  0  0  0
 56 67  1  0  0  0  0
 57 67  1  0  0  0  0
 58 78  1  0  0  0  0
 59 65  1  0  0  0  0
 60 85  1  0  0  0  0
 61 62  1  0  0  0  0
 61 66  1  0  0  0  0
 62 76  1  0  0  0  0
 63 67  1  0  0  0  0
 63 75  1  0  0  0  0
 64 78  1  0  0  0  0
 66 77  1  0  0  0  0
 68 69  1  0  0  0  0
M  CHG  2  77   1  78   1
M  ISO  4  32 100  60 101  76 100  85 101
M  END
> <Batch ID>
0026

> <Smiles>
CNC(C)C(=O)NC(C(=O)N1Cc2cc([101O:1][101CH2:1]C3CCCC(NC(C)CC[100NH:0][100C:0](=O)N4CCCC(n5nc(-c6ccc(Oc7ccc(F)cc7F)cc6)c(C(N)=O)c5N)C4)C3CC(C)C)ccc2CC1C(=O)NC1CCCc2ccccc21)C(C)(C)C

> <Shape>
0.347

> <Color>
0.134

> <Negative vol penalty>
0.000

$$$$

  -OEChem-04052316273D

 89 98  0     1  0  0  0  0  0999 V2000
  -31.9199  -27.1299   33.4328 C   0  0  0  0  0  0  0  0  0  0  0  0
  -32.1136  -25.7922   33.1032 C   0  0  0  0  0  0  0  0  0  0  0  0
  -23.0532   -9.8928   19.9749 C   0  0  0  0  0  0  0  0  0  0  0  0
  -23.8252   -9.9375   22.2638 C   0  0  0  0  0  0  0  0  0  0  0  0
  -30.6334  -27.6059   33.6824 C   0  0  0  0  0  0  0  0  0  0  0  0
  -31.0209  -24.9295   33.0241 C   0  0  0  0  0  0  0  0  0  0  0  0
  -31.1837  -21.9590   28.9260 C   0  0  0  0  0  0  0  0  0  0  0  0
  -22.3157   -8.7404   20.2461 C   0  0  0  0  0  0  0  0  0  0  0  0
  -23.0876   -8.7851   22.5350 C   0  0  0  0  0  0  0  0  0  0  0  0
  -32.0396  -20.8593   28.9703 C   0  0  0  0  0  0  0  0  0  0  0  0
  -23.3899   -5.4563   22.0261 C   0  0  0  0  0  0  0  0  0  0  0  0
  -24.0136   -4.4446   22.7561 C   0  0  0  0  0  0  0  0  0  0  0  0
  -30.1650  -19.4284   29.4778 C   0  0  0  0  0  0  0  0  0  0  0  0
  -22.3205   -4.6366   24.4689 C   0  0  0  0  0  0  0  0  0  0  0  0
  -23.8080  -10.4913   20.9837 C   0  0  0  0  0  0  0  0  0  0  0  0
  -24.1383  -13.0158   20.8239 C   0  0  0  0  0  0  0  0  0  0  0  0
  -29.5234  -26.7508   33.5969 C   0  0  0  0  0  0  0  0  0  0  0  0
  -29.8114  -21.8031   29.1685 C   0  0  0  0  0  0  0  0  0  0  0  0
  -29.7185  -25.3942   33.2741 C   0  0  0  0  0  0  0  0  0  0  0  0
  -29.2935  -20.5273   29.4335 C   0  0  0  0  0  0  0  0  0  0  0  0
  -30.2669  -18.1490   21.6543 C   0  0  0  0  0  0  0  0  0  0  0  0
  -31.6225  -19.1338   23.3666 C   0  0  0  0  0  0  0  0  0  0  0  0
  -32.1569  -17.8733   23.6652 C   0  0  0  0  0  0  0  0  0  0  0  0
  -30.8018  -16.8925   21.9544 C   0  0  0  0  0  0  0  0  0  0  0  0
  -22.3328   -8.1865   21.5262 C   0  0  0  0  0  0  0  0  0  0  0  0
  -31.5307  -19.5942   29.2491 C   0  0  0  0  0  0  0  0  0  0  0  0
  -22.2315   -6.0584   22.5175 C   0  0  0  0  0  0  0  0  0  0  0  0
  -23.4789   -4.0347   23.9775 C   0  0  0  0  0  0  0  0  0  0  0  0
  -21.6968   -5.6485   23.7389 C   0  0  0  0  0  0  0  0  0  0  0  0
  -30.6739  -19.2783   22.3535 C   0  0  0  0  0  0  0  0  0  0  0  0
  -31.7497  -16.7400   22.9569 C   0  0  0  0  0  0  0  0  0  0  0  0
  -24.5706  -11.6814   20.7040 C   0  0  0  0  0  0  0  0  0  0  0  0
  -25.2253  -13.7643   20.4436 C   0  0  0  0  0  0  0  0  0  0  0  0
  -22.8679  -13.5325   21.2418 C   0  0  0  0  0  0  0  0  0  0  0  0
  -27.7788  -22.9079   31.3483 C   0  0  0  0  0  0  0  0  0  0  0  0
  -25.5776  -21.4323   29.4776 C   0  0  0  0  0  0  0  0  0  0  0  0
  -24.8912  -19.0156   27.1678 C   0  0  0  0  0  0  0  0  0  0  0  0
  -30.7685  -14.6268   20.9315 C   0  0  0  0  0  0  0  0  0  0  0  0
  -28.1569  -27.3003   33.9216 C   0  0  0  0  0  0  0  0  0  0  0  0
  -28.8974  -22.9951   29.0906 C   0  0  0  0  0  0  0  0  0  0  0  0
  -27.8247  -20.3033   29.6809 C   0  0  0  0  0  0  0  0  0  0  0  0
  -27.0130  -26.4062   33.4502 C   0  0  0  0  0  0  0  0  0  0  0  0
  -29.5793  -12.4057   18.2537 C   0  0  0  0  0  0  0  0  0  0  0  0
  -27.2806  -24.9529   33.8286 C   0  0  0  0  0  0  0  0  0  0  0  0
  -28.1469  -12.0941   18.6928 C   0  0  0  0  0  0  0  0  0  0  0  0
  -30.4999  -12.6677   19.4439 C   0  0  0  0  0  0  0  0  0  0  0  0
  -28.5815  -13.3683   20.8232 C   0  0  0  0  0  0  0  0  0  0  0  0
  -29.1418  -16.5386   20.3457 C   0  0  0  0  0  0  0  0  0  0  0  0
  -28.5559  -24.4330   33.1542 C   0  0  1  0  0  0  0  0  0  0  0  0
  -27.5950  -22.8008   29.8609 C   0  0  1  0  0  0  0  0  0  0  0  0
  -27.6103  -13.1743   19.6514 C   0  0  2  0  0  0  0  0  0  0  0  0
  -29.3126  -18.0729   20.4868 C   0  0  0  0  0  0  0  0  0  0  0  0
  -32.0919  -20.3223   24.1515 C   0  0  0  0  0  0  0  0  0  0  0  0
  -27.9724  -18.7556   20.7726 C   0  0  0  0  0  0  0  0  0  0  0  0
  -29.9577  -18.6659   19.2277 C   0  0  0  0  0  0  0  0  0  0  0  0
  -22.9942  -18.0252   25.8573 C   0  0  0  0  0  0  0  0  0  0  0  0
  -24.6177  -19.9694   31.9773 C   0  0  0  0  0  0  0  0  0  0  0  0
  -23.4223  -18.3515   30.4867 C   0  0  0  0  0  0  0  0  0  0  0  0
  -22.7896  -20.7644   30.4671 C   0  0  0  0  0  0  0  0  0  0  0  0
  -26.1423  -19.7425   24.5861 C   0  0  0  0  0  0  0  0  0  0  0  0
  -33.1606  -17.7646   24.7752 C   0  0  0  0  0  0  0  0  0  0  0  0
  -32.9179  -16.3856   28.3384 C   0  0  0  0  0  0  0  0  0  0  0  0
  -33.5841  -16.9909   27.1121 C   0  0  0  0  0  0  0  0  0  0  0  0
  -31.8143  -17.2548   28.9286 C   0  0  0  0  0  0  0  0  0  1  0  0
  -24.9774  -20.0482   29.4218 C   0  0  1  0  0  0  0  0  0  0  0  0
  -24.1101  -19.0583   25.8669 C   0  0  2  0  0  0  0  0  0  0  0  0
  -23.9798  -19.7876   30.5855 C   0  0  0  0  0  0  0  0  0  0  0  0
  -25.8336  -11.5847   20.2804 N   0  0  0  0  0  0  0  0  0  0  0  0
  -26.2043  -12.8677   20.1308 N   0  0  0  0  0  0  0  0  0  0  0  0
  -30.2316  -15.9016   21.1255 N   0  0  0  0  0  0  0  0  0  0  0  0
  -26.9726  -21.5012   29.6001 N   0  0  0  0  0  0  0  0  0  0  0  0
  -29.9274  -13.6782   20.3319 N   0  0  0  0  0  0  0  0  0  0  0  0
  -25.4296  -15.0954   20.3494 N   0  0  0  0  0  0  0  0  0  0  0  0
  -21.8617  -12.6242   21.5981 N   0  0  0  0  0  0  0  0  0  0  0  0
  -28.3004  -24.1178   31.7650 N   0  0  0  0  0  0  0  0  0  0  0  0
  -24.3937  -19.9097   28.0920 N   0  0  0  0  0  0  0  0  0  0  0  0
  -25.0119  -18.7868   24.7120 N   0  3  0  0  0  0  0  0  0  0  0  0
  -32.5978  -17.1642   26.0119 N   0  3  0  0  0  0  0  0  0  0  0  0
  -22.6266  -14.7628   21.2819 O   0  0  0  0  0  0  0  0  0  0  0  0
  -27.4689  -21.9635   32.0650 O   0  0  0  0  0  0  0  0  0  0  0  0
  -24.8367  -22.4160   29.4077 O   0  0  0  0  0  0  0  0  0  0  0  0
  -25.8450  -18.2615   27.3476 O   0  0  0  0  0  0  0  0  0  0  0  0
  -31.9447  -14.3520   21.1973 O   0  0  0  0  0  0  0  0  0  0  0  0
  -21.6130   -7.0622   21.7913 O   0  0  0  0  0  0  0  0  0  0  0  0
  -32.3699  -18.5118   29.2939 O   0  0  0  0  0  0  0  0  0  1  0  0
  -24.0771   -3.0620   24.6776 F   0  0  0  0  0  0  0  0  0  0  0  0
  -20.5835   -6.2223   24.2156 F   0  0  0  0  0  0  0  0  0  0  0  0
  -30.0844  -20.8604   21.9843 Cl  0  0  0  0  0  0  0  0  0  0  0  0
  -32.2807  -15.1942   23.5330 Cl  0  0  0  0  0  0  0  0  0  0  0  0
  1  2  1  0  0  0  0
  1  5  2  0  0  0  0
  2  6  2  0  0  0  0
  3  8  2  0  0  0  0
  3 15  1  0  0  0  0
  4  9  1  0  0  0  0
  4 15  2  0  0  0  0
  5 17  1  0  0  0  0
  6 19  1  0  0  0  0
  7 10  2  0  0  0  0
  7 18  1  0  0  0  0
  8 25  1  0  0  0  0
  9 25  2  0  0  0  0
 10 26  1  0  0  0  0
 11 12  2  0  0  0  0
 11 27  1  0  0  0  0
 12 28  1  0  0  0  0
 13 20  1  0  0  0  0
 13 26  2  0  0  0  0
 14 28  2  0  0  0  0
 14 29  1  0  0  0  0
 15 32  1  0  0  0  0
 16 32  1  0  0  0  0
 16 33  2  0  0  0  0
 16 34  1  0  0  0  0
 17 19  2  0  0  0  0
 17 39  1  0  0  0  0
 18 20  2  0  0  0  0
 18 40  1  0  0  0  0
 19 49  1  0  0  0  0
 20 41  1  0  0  0  0
 21 24  2  0  0  0  0
 21 30  1  0  0  0  0
 21 52  1  0  0  0  0
 22 23  1  0  0  0  0
 22 30  2  0  0  0  0
 22 53  1  0  0  0  0
 23 31  2  0  0  0  0
 23 61  1  0  0  0  0
 24 31  1  0  0  0  0
 24 70  1  0  0  0  0
 25 84  1  0  0  0  0
 26 85  1  0  0  0  0
 27 29  2  0  0  0  0
 27 84  1  0  0  0  0
 28 86  1  0  0  0  0
 29 87  1  0  0  0  0
 30 88  1  0  0  0  0
 31 89  1  0  0  0  0
 32 68  2  0  0  0  0
 33 69  1  0  0  0  0
 33 73  1  0  0  0  0
 34 74  1  0  0  0  0
 34 79  2  0  0  0  0
 35 50  1  0  0  0  0
 35 75  1  0  0  0  0
 35 80  2  0  0  0  0
 36 65  1  0  0  0  0
 36 71  1  0  0  0  0
 36 81  2  0  0  0  0
 37 66  1  0  0  0  0
 37 76  1  0  0  0  0
 37 82  2  0  0  0  0
 38 70  1  0  0  0  0
 38 72  1  0  0  0  0
 38 83  2  0  0  0  0
 39 42  1  0  0  0  0
 40 50  1  0  0  0  0
 41 71  1  0  0  0  0
 42 44  1  0  0  0  0
 43 45  1  0  0  0  0
 43 46  1  0  0  0  0
 44 49  1  0  0  0  0
 45 51  1  0  0  0  0
 46 72  1  0  0  0  0
 47 51  1  0  0  0  0
 47 72  1  0  0  0  0
 48 52  1  0  0  0  0
 48 70  1  0  0  0  0
 49 75  1  0  0  0  0
 50 71  1  0  0  0  0
 51 69  1  0  0  0  0
 52 54  1  0  0  0  0
 52 55  1  0  0  0  0
 56 66  1  0  0  0  0
 57 67  1  0  0  0  0
 58 67  1  0  0  0  0
 59 67  1  0  0  0  0
 60 77  1  0  0  0  0
 61 78  1  0  0  0  0
 62 63  1  0  0  0  0
 62 64  1  0  0  0  0
 63 78  1  0  0  0  0
 64 85  1  0  0  0  0
 65 67  1  0  0  0  0
 65 76  1  0  0  0  0
 66 77  1  0  0  0  0
 68 69  1  0  0  0  0
M  CHG  2  77   1  78   1
M  ISO  4  38 100  64 101  70 100  85 101
M  END
> <Batch ID>
0026

> <Smiles>
CNC(C)C(=O)NC(C(=O)N1Cc2cc([101O:1][101CH2:1]CCNCc3c(C)c(Cl)c4c(c3Cl)[100N:0]([100C:0](=O)N3CCCC(n5nc(-c6ccc(Oc7ccc(F)cc7F)cc6)c(C(N)=O)c5N)C3)CC4(C)C)ccc2CC1C(=O)NC1CCCc2ccccc21)C(C)(C)C

> <Shape>
0.197

> <Color>
0.175

> <Negative vol penalty>
0.000

$$$$

  -OEChem-04052316273D

 85 93  0     1  0  0  0  0  0999 V2000
  -32.4058  -28.1136   12.9598 C   0  0  0  0  0  0  0  0  0  0  0  0
  -31.3667  -27.1913   12.8882 C   0  0  0  0  0  0  0  0  0  0  0  0
  -22.9936   -9.8856   19.9661 C   0  0  0  0  0  0  0  0  0  0  0  0
  -23.7364   -9.8967   22.2651 C   0  0  0  0  0  0  0  0  0  0  0  0
  -33.1067  -28.2810   14.1534 C   0  0  0  0  0  0  0  0  0  0  0  0
  -31.0287  -26.4350   14.0098 C   0  0  0  0  0  0  0  0  0  0  0  0
  -25.3730  -23.4317   17.2208 C   0  0  0  0  0  0  0  0  0  0  0  0
  -22.2287   -8.7468   20.2187 C   0  0  0  0  0  0  0  0  0  0  0  0
  -22.9714   -8.7580   22.5177 C   0  0  0  0  0  0  0  0  0  0  0  0
  -24.9504  -22.2055   17.7324 C   0  0  0  0  0  0  0  0  0  0  0  0
  -23.2109   -5.4276   21.9866 C   0  0  0  0  0  0  0  0  0  0  0  0
  -23.8037   -4.3975   22.7166 C   0  0  0  0  0  0  0  0  0  0  0  0
  -26.1790  -22.6363   19.7632 C   0  0  0  0  0  0  0  0  0  0  0  0
  -26.7952  -18.2866   20.9814 C   0  0  0  0  0  0  0  0  0  0  0  0
  -22.0928   -4.6120   24.4088 C   0  0  0  0  0  0  0  0  0  0  0  0
  -23.7475  -10.4605   20.9893 C   0  0  0  0  0  0  0  0  0  0  0  0
  -24.1324  -12.9786   20.8536 C   0  0  0  0  0  0  0  0  0  0  0  0
  -32.7708  -27.5332   15.2930 C   0  0  0  0  0  0  0  0  0  0  0  0
  -26.2121  -24.2658   17.9735 C   0  0  0  0  0  0  0  0  0  0  0  0
  -31.7267  -26.5915   15.2194 C   0  0  0  0  0  0  0  0  0  0  0  0
  -26.6088  -23.8736   19.2599 C   0  0  0  0  0  0  0  0  0  0  0  0
  -26.4922  -18.1449   19.6273 C   0  0  0  0  0  0  0  0  0  0  0  0
  -27.5153  -17.9403   18.7014 C   0  0  0  0  0  0  0  0  0  0  0  0
  -29.1442  -18.0192   20.4839 C   0  0  0  0  0  0  0  0  0  0  0  0
  -22.2176   -8.1831   21.4945 C   0  0  0  0  0  0  0  0  0  0  0  0
  -25.3557  -21.8064   19.0026 C   0  0  0  0  0  0  0  0  0  0  0  0
  -22.0590   -6.0500   22.4677 C   0  0  0  0  0  0  0  0  0  0  0  0
  -23.2447   -3.9896   23.9277 C   0  0  0  0  0  0  0  0  0  0  0  0
  -21.4999   -5.6422   23.6788 C   0  0  0  0  0  0  0  0  0  0  0  0
  -28.1212  -18.2238   21.4098 C   0  0  0  0  0  0  0  0  0  0  0  0
  -28.8413  -17.8774   19.1297 C   0  0  0  0  0  0  0  0  0  0  0  0
  -24.5383  -11.6364   20.7288 C   0  0  0  0  0  0  0  0  0  0  0  0
  -25.2397  -13.7071   20.4933 C   0  0  0  0  0  0  0  0  0  0  0  0
  -22.8677  -13.5186   21.2592 C   0  0  0  0  0  0  0  0  0  0  0  0
  -29.1467  -25.4270   17.5943 C   0  0  0  0  0  0  0  0  0  0  0  0
  -28.4191  -27.0822   20.2875 C   0  0  0  0  0  0  0  0  0  0  0  0
  -26.5464  -27.3095   23.1315 C   0  0  0  0  0  0  0  0  0  0  0  0
  -30.7381  -14.6359   20.7159 C   0  0  0  0  0  0  0  0  0  0  0  0
  -33.5881  -27.7151   16.5474 C   0  0  0  0  0  0  0  0  0  0  0  0
  -26.6375  -25.5973   17.4180 C   0  0  0  0  0  0  0  0  0  0  0  0
  -27.4926  -24.7417   20.1164 C   0  0  0  0  0  0  0  0  0  0  0  0
  -32.9224  -27.1430   17.7964 C   0  0  0  0  0  0  0  0  0  0  0  0
  -29.5786  -12.2532   18.3378 C   0  0  0  0  0  0  0  0  0  0  0  0
  -32.3834  -25.7430   17.5203 C   0  0  0  0  0  0  0  0  0  0  0  0
  -28.1333  -11.9867   18.7619 C   0  0  0  0  0  0  0  0  0  0  0  0
  -30.4903  -12.4675   19.5440 C   0  0  0  0  0  0  0  0  0  0  0  0
  -28.5908  -13.2404   20.9108 C   0  0  0  0  0  0  0  0  0  0  0  0
  -31.3141  -25.7702   16.4216 C   0  0  1  0  0  0  0  0  0  0  0  0
  -27.9090  -26.1365   18.0661 C   0  0  1  0  0  0  0  0  0  0  0  0
  -27.6227  -13.0734   19.7271 C   0  0  2  0  0  0  0  0  0  0  0  0
  -27.1666  -17.7908   17.2528 C   0  0  0  0  0  0  0  0  0  0  0  0
  -31.0223  -19.2820   21.5802 C   0  0  0  0  0  0  0  0  0  0  0  0
  -26.2033  -28.7549   25.1539 C   0  0  0  0  0  0  0  0  0  0  0  0
  -30.9860  -25.9756   21.5109 C   0  0  0  0  0  0  0  0  0  0  0  0
  -30.1215  -26.6499   23.7617 C   0  0  0  0  0  0  0  0  0  0  0  0
  -30.5423  -28.3839   22.0184 C   0  0  0  0  0  0  0  0  0  0  0  0
  -23.7280  -27.8516   22.4094 C   0  0  0  0  0  0  0  0  0  0  0  0
  -25.0486  -18.2172   19.1924 C   0  0  0  0  0  0  0  0  0  0  0  0
  -30.8307  -16.7941   21.9377 C   0  0  0  0  0  0  0  0  0  0  0  0
  -24.6984  -19.5628   18.5664 C   0  0  0  0  0  0  0  0  0  1  0  0
  -30.5673  -17.9525   20.9497 C   0  0  1  0  0  0  0  0  0  0  0  0
  -28.5634  -26.8303   21.7690 C   0  0  1  0  0  0  0  0  0  0  0  0
  -25.7588  -28.4612   23.7296 C   0  0  2  0  0  0  0  0  0  0  0  0
  -30.0382  -26.9425   22.2483 C   0  0  0  0  0  0  0  0  0  0  0  0
  -25.8045  -11.5164   20.3208 N   0  0  0  0  0  0  0  0  0  0  0  0
  -26.2038  -12.7926   20.1861 N   0  0  0  0  0  0  0  0  0  0  0  0
  -27.8872  -26.0316   19.5265 N   0  0  0  0  0  0  0  0  0  0  0  0
  -29.9505  -13.5116   20.4183 N   0  0  0  0  0  0  0  0  0  0  0  0
  -25.4729  -15.0343   20.4122 N   0  0  0  0  0  0  0  0  0  0  0  0
  -21.8382  -12.6290   21.5953 N   0  0  0  0  0  0  0  0  0  0  0  0
  -30.0553  -26.2472   16.9531 N   0  0  0  0  0  0  0  0  0  0  0  0
  -27.6480  -27.7534   22.4311 N   0  0  0  0  0  0  0  0  0  0  0  0
  -30.1483  -15.5807   21.5466 N   0  0  0  0  0  0  0  0  0  0  0  0
  -24.3038  -28.1392   23.7483 N   0  3  0  0  0  0  0  0  0  0  0  0
  -22.6516  -14.7534   21.3058 O   0  0  0  0  0  0  0  0  0  0  0  0
  -29.2688  -24.2249   17.7983 O   0  0  0  0  0  0  0  0  0  0  0  0
  -28.7590  -28.1736   19.8238 O   0  0  0  0  0  0  0  0  0  0  0  0
  -26.2193  -26.1334   23.2747 O   0  0  0  0  0  0  0  0  0  0  0  0
  -31.8802  -14.7891   20.2696 O   0  0  0  0  0  0  0  0  0  0  0  0
  -21.4711   -7.0721   21.7414 O   0  0  0  0  0  0  0  0  0  0  0  0
  -24.9451  -20.6098   19.5041 O   0  0  0  0  0  0  0  0  0  1  0  0
  -23.8132   -2.9993   24.6278 F   0  0  0  0  0  0  0  0  0  0  0  0
  -20.3927   -6.2355   24.1456 F   0  0  0  0  0  0  0  0  0  0  0  0
  -28.4506  -18.4044   23.0955 Cl  0  0  0  0  0  0  0  0  0  0  0  0
  -30.1106  -17.6231   17.9769 Cl  0  0  0  0  0  0  0  0  0  0  0  0
  1  2  1  0  0  0  0
  1  5  2  0  0  0  0
  2  6  2  0  0  0  0
  3  8  2  0  0  0  0
  3 16  1  0  0  0  0
  4  9  1  0  0  0  0
  4 16  2  0  0  0  0
  5 18  1  0  0  0  0
  6 20  1  0  0  0  0
  7 10  2  0  0  0  0
  7 19  1  0  0  0  0
  8 25  1  0  0  0  0
  9 25  2  0  0  0  0
 10 26  1  0  0  0  0
 11 12  2  0  0  0  0
 11 27  1  0  0  0  0
 12 28  1  0  0  0  0
 13 21  1  0  0  0  0
 13 26  2  0  0  0  0
 14 22  1  0  0  0  0
 14 30  2  0  0  0  0
 15 28  2  0  0  0  0
 15 29  1  0  0  0  0
 16 32  1  0  0  0  0
 17 32  1  0  0  0  0
 17 33  2  0  0  0  0
 17 34  1  0  0  0  0
 18 20  2  0  0  0  0
 18 39  1  0  0  0  0
 19 21  2  0  0  0  0
 19 40  1  0  0  0  0
 20 48  1  0  0  0  0
 21 41  1  0  0  0  0
 22 23  2  0  0  0  0
 22 58  1  0  0  0  0
 23 31  1  0  0  0  0
 23 51  1  0  0  0  0
 24 30  1  0  0  0  0
 24 31  2  0  0  0  0
 24 61  1  0  0  0  0
 25 80  1  0  0  0  0
 26 81  1  0  0  0  0
 27 29  2  0  0  0  0
 27 80  1  0  0  0  0
 28 82  1  0  0  0  0
 29 83  1  0  0  0  0
 30 84  1  0  0  0  0
 31 85  1  0  0  0  0
 32 65  2  0  0  0  0
 33 66  1  0  0  0  0
 33 69  1  0  0  0  0
 34 70  1  0  0  0  0
 34 75  2  0  0  0  0
 35 49  1  0  0  0  0
 35 71  1  0  0  0  0
 35 76  2  0  0  0  0
 36 62  1  0  0  0  0
 36 67  1  0  0  0  0
 36 77  2  0  0  0  0
 37 63  1  0  0  0  0
 37 72  1  0  0  0  0
 37 78  2  0  0  0  0
 38 68  1  0  0  0  0
 38 73  1  0  0  0  0
 38 79  2  0  0  0  0
 39 42  1  0  0  0  0
 40 49  1  0  0  0  0
 41 67  1  0  0  0  0
 42 44  1  0  0  0  0
 43 45  1  0  0  0  0
 43 46  1  0  0  0  0
 44 48  1  0  0  0  0
 45 50  1  0  0  0  0
 46 68  1  0  0  0  0
 47 50  1  0  0  0  0
 47 68  1  0  0  0  0
 48 71  1  0  0  0  0
 49 67  1  0  0  0  0
 50 66  1  0  0  0  0
 52 61  1  0  0  0  0
 53 63  1  0  0  0  0
 54 64  1  0  0  0  0
 55 64  1  0  0  0  0
 56 64  1  0  0  0  0
 57 74  1  0  0  0  0
 58 60  1  0  0  0  0
 59 61  1  0  0  0  0
 59 73  1  0  0  0  0
 60 81  1  0  0  0  0
 62 64  1  0  0  0  0
 62 72  1  0  0  0  0
 63 74  1  0  0  0  0
 65 66  1  0  0  0  0
M  CHG  1  74   1
M  ISO  4  38 100  60 101  73 100  81 101
M  END
> <Batch ID>
0026

> <Smiles>
CNC(C)C(=O)NC(C(=O)N1Cc2cc([101O:1][101CH2:1]Cc3cc(Cl)c(C(C)C[100NH:0][100C:0](=O)N4CCCC(n5nc(-c6ccc(Oc7ccc(F)cc7F)cc6)c(C(N)=O)c5N)C4)c(Cl)c3C)ccc2CC1C(=O)NC1CCCc2ccccc21)C(C)(C)C

> <Shape>
0.272

> <Color>
0.206

> <Negative vol penalty>
0.000

$$$$

  -OEChem-04052316273D

 90 98  0     1  0  0  0  0  0999 V2000
  -28.1337  -23.9764   18.0923 C   0  0  0  0  0  0  0  0  0  0  0  0
  -27.0066  -24.2312   18.8669 C   0  0  0  0  0  0  0  0  0  0  0  0
  -24.8651  -15.8818   18.3475 C   0  0  0  0  0  0  0  0  0  0  0  0
  -24.1108  -17.4635   20.0107 C   0  0  0  0  0  0  0  0  0  0  0  0
  -29.3291  -24.6411   18.3631 C   0  0  0  0  0  0  0  0  0  0  0  0
  -27.0744  -25.1501   19.9136 C   0  0  0  0  0  0  0  0  0  0  0  0
  -23.0968  -28.2828   20.0092 C   0  0  0  0  0  0  0  0  0  0  0  0
  -23.9975  -14.9213   18.8673 C   0  0  0  0  0  0  0  0  0  0  0  0
  -23.2431  -16.5030   20.5305 C   0  0  0  0  0  0  0  0  0  0  0  0
  -21.9056  -27.7837   20.5342 C   0  0  0  0  0  0  0  0  0  0  0  0
  -23.9182  -12.7999   21.4975 C   0  0  0  0  0  0  0  0  0  0  0  0
  -24.4159  -11.5101   21.6819 C   0  0  0  0  0  0  0  0  0  0  0  0
  -22.3656  -28.8995   22.6229 C   0  0  0  0  0  0  0  0  0  0  0  0
  -22.7414  -10.6476   20.1689 C   0  0  0  0  0  0  0  0  0  0  0  0
  -24.9218  -17.1529   18.9192 C   0  0  0  0  0  0  0  0  0  0  0  0
  -25.5418  -19.0809   17.3681 C   0  0  0  0  0  0  0  0  0  0  0  0
  -29.4090  -25.5757   19.4075 C   0  0  0  0  0  0  0  0  0  0  0  0
  -23.9381  -29.0865   20.7920 C   0  0  0  0  0  0  0  0  0  0  0  0
  -28.2723  -25.8269   20.1994 C   0  0  0  0  0  0  0  0  0  0  0  0
  -23.5657  -29.4098   22.1046 C   0  0  0  0  0  0  0  0  0  0  0  0
  -23.1864  -15.2319   19.9589 C   0  0  0  0  0  0  0  0  0  0  0  0
  -21.5413  -28.0896   21.8422 C   0  0  0  0  0  0  0  0  0  0  0  0
  -22.8320  -13.0137   20.6489 C   0  0  0  0  0  0  0  0  0  0  0  0
  -23.8275  -10.4339   21.0176 C   0  0  0  0  0  0  0  0  0  0  0  0
  -22.2436  -11.9375   19.9846 C   0  0  0  0  0  0  0  0  0  0  0  0
  -26.3374  -22.6975   25.5353 C   0  0  0  0  0  0  0  0  0  0  0  0
  -25.8183  -18.1453   18.3830 C   0  0  0  0  0  0  0  0  0  0  0  0
  -25.1874  -22.2302   26.1382 C   0  0  0  0  0  0  0  0  0  0  0  0
  -27.3637  -21.7826   25.4174 C   0  0  0  0  0  0  0  0  0  0  0  0
  -26.7103  -19.7888   17.2261 C   0  0  0  0  0  0  0  0  0  0  0  0
  -26.1114  -20.1727   26.4209 C   0  0  0  0  0  0  0  0  0  0  0  0
  -24.3366  -19.2914   16.6206 C   0  0  0  0  0  0  0  0  0  0  0  0
  -26.9182  -28.8327   21.8682 C   0  0  0  0  0  0  0  0  0  0  0  0
  -26.3906  -31.8633   22.8973 C   0  0  0  0  0  0  0  0  0  0  0  0
  -24.1429  -34.2586   23.8232 C   0  0  0  0  0  0  0  0  0  0  0  0
  -31.2811  -20.8988   20.9311 C   0  0  0  0  0  0  0  0  0  0  0  0
  -30.7355  -26.2344   19.6922 C   0  0  0  0  0  0  0  0  0  0  0  0
  -25.2066  -29.6391   20.2021 C   0  0  0  0  0  0  0  0  0  0  0  0
  -24.4239  -30.2851   22.9796 C   0  0  0  0  0  0  0  0  0  0  0  0
  -30.6235  -27.4702   20.5814 C   0  0  0  0  0  0  0  0  0  0  0  0
  -31.4463  -19.3388   17.7349 C   0  0  0  0  0  0  0  0  0  0  0  0
  -29.7224  -27.1863   21.7790 C   0  0  0  0  0  0  0  0  0  0  0  0
  -29.9977  -18.9404   17.4470 C   0  0  0  0  0  0  0  0  0  0  0  0
  -31.7900  -19.1863   19.2150 C   0  0  0  0  0  0  0  0  0  0  0  0
  -29.4278  -19.4869   19.8502 C   0  0  0  0  0  0  0  0  0  0  0  0
  -28.2996  -26.8350   21.3277 C   0  0  1  0  0  0  0  0  0  0  0  0
  -26.2379  -30.0253   21.2579 C   0  0  1  0  0  0  0  0  0  0  0  0
  -29.0176  -19.6770   18.3798 C   0  0  2  0  0  0  0  0  0  0  0  0
  -25.9862  -18.7708   26.9134 C   0  0  0  0  0  0  0  0  0  0  0  0
  -24.0137  -36.6242   24.6506 C   0  0  0  0  0  0  0  0  0  0  0  0
  -27.2495  -30.9363   25.6746 C   0  0  0  0  0  0  0  0  0  0  0  0
  -26.2129  -33.0135   26.6122 C   0  0  0  0  0  0  0  0  0  0  0  0
  -28.1177  -33.1857   25.0107 C   0  0  0  0  0  0  0  0  0  0  0  0
  -22.6015  -35.1268   21.4506 C   0  0  0  0  0  0  0  0  0  0  0  0
  -23.9902  -23.1259   26.3343 C   0  0  0  0  0  0  0  0  0  0  0  0
  -23.1787  -23.3645   25.0559 C   0  0  0  0  0  0  0  0  0  0  0  0
  -21.9599  -24.2655   25.2791 C   0  0  0  0  0  0  0  0  0  0  0  0
  -21.1631  -24.4507   23.9849 C   0  0  0  0  0  0  0  0  0  0  0  0
  -19.9282  -25.3243   24.2158 C   0  0  0  0  0  0  0  0  0  0  0  0
  -19.1374  -25.6087   22.9339 C   0  0  0  0  0  0  0  0  0  0  0  0
  -30.8790  -22.0378   24.0260 C   0  0  0  0  0  0  0  0  0  0  0  0
  -29.6885  -21.3071   24.6459 C   0  0  0  0  0  0  0  0  0  0  0  0
  -30.6125  -22.5846   22.6252 C   0  0  0  0  0  0  0  0  0  0  0  0
  -19.9220  -26.3479   21.8559 C   0  0  0  0  0  0  0  0  0  1  0  0
  -25.8428  -32.4835   24.1600 C   0  0  1  0  0  0  0  0  0  0  0  0
  -24.0067  -35.7182   23.4291 C   0  0  2  0  0  0  0  0  0  0  0  0
  -26.8403  -32.3866   25.3488 C   0  0  0  0  0  0  0  0  0  0  0  0
  -27.0646  -18.2469   18.8524 N   0  0  0  0  0  0  0  0  0  0  0  0
  -25.0394  -20.9691   26.5944 N   0  0  0  0  0  0  0  0  0  0  0  0
  -27.2847  -20.5074   25.8509 N   0  0  0  0  0  0  0  0  0  0  0  0
  -27.5817  -19.2547   18.1291 N   0  0  0  0  0  0  0  0  0  0  0  0
  -25.6576  -30.7959   22.3595 N   0  0  0  0  0  0  0  0  0  0  0  0
  -30.8235  -19.9095   20.0450 N   0  0  0  0  0  0  0  0  0  0  0  0
  -27.0670  -20.8097   16.4181 N   0  0  0  0  0  0  0  0  0  0  0  0
  -23.2301  -18.4756   16.8935 N   0  0  0  0  0  0  0  0  0  0  0  0
  -28.5772  -22.1871   24.8086 N   0  0  0  0  0  0  0  0  0  0  0  0
  -27.5775  -28.0325   20.9547 N   0  0  0  0  0  0  0  0  0  0  0  0
  -25.4589  -33.8471   23.8117 N   0  0  0  0  0  0  0  0  0  0  0  0
  -30.2988  -21.5401   21.6758 N   0  0  0  0  0  0  0  0  0  0  0  0
  -22.7323  -35.9380   22.6883 N   0  3  0  0  0  0  0  0  0  0  0  0
  -24.2488  -20.1658   15.7255 O   0  0  0  0  0  0  0  0  0  0  0  0
  -26.8512  -28.6526   23.0785 O   0  0  0  0  0  0  0  0  0  0  0  0
  -27.4267  -32.3141   22.4024 O   0  0  0  0  0  0  0  0  0  0  0  0
  -23.1787  -33.5549   24.1158 O   0  0  0  0  0  0  0  0  0  0  0  0
  -32.4758  -21.1926   21.0459 O   0  0  0  0  0  0  0  0  0  0  0  0
  -22.3395  -14.2950   20.4662 O   0  0  0  0  0  0  0  0  0  0  0  0
  -20.3794  -27.6031   22.3573 O   0  0  0  0  0  0  0  0  0  1  0  0
  -24.3066   -9.1955   21.1936 F   0  0  0  0  0  0  0  0  0  0  0  0
  -21.2006  -12.1368   19.1671 F   0  0  0  0  0  0  0  0  0  0  0  0
  -26.4684  -24.3189   24.9704 Cl  0  0  0  0  0  0  0  0  0  0  0  0
  1  2  1  0  0  0  0
  1  5  2  0  0  0  0
  2  6  2  0  0  0  0
  3  8  2  0  0  0  0
  3 15  1  0  0  0  0
  4  9  1  0  0  0  0
  4 15  2  0  0  0  0
  5 17  1  0  0  0  0
  6 19  1  0  0  0  0
  7 10  2  0  0  0  0
  7 18  1  0  0  0  0
  8 21  1  0  0  0  0
  9 21  2  0  0  0  0
 10 22  1  0  0  0  0
 11 12  2  0  0  0  0
 11 23  1  0  0  0  0
 12 24  1  0  0  0  0
 13 20  1  0  0  0  0
 13 22  2  0  0  0  0
 14 24  2  0  0  0  0
 14 25  1  0  0  0  0
 15 27  1  0  0  0  0
 16 27  1  0  0  0  0
 16 30  2  0  0  0  0
 16 32  1  0  0  0  0
 17 19  2  0  0  0  0
 17 37  1  0  0  0  0
 18 20  2  0  0  0  0
 18 38  1  0  0  0  0
 19 46  1  0  0  0  0
 20 39  1  0  0  0  0
 21 86  1  0  0  0  0
 22 87  1  0  0  0  0
 23 25  2  0  0  0  0
 23 86  1  0  0  0  0
 24 88  1  0  0  0  0
 25 89  1  0  0  0  0
 26 28  2  0  0  0  0
 26 29  1  0  0  0  0
 26 90  1  0  0  0  0
 27 68  2  0  0  0  0
 28 55  1  0  0  0  0
 28 69  1  0  0  0  0
 29 70  2  0  0  0  0
 29 76  1  0  0  0  0
 30 71  1  0  0  0  0
 30 74  1  0  0  0  0
 31 49  1  0  0  0  0
 31 69  2  0  0  0  0
 31 70  1  0  0  0  0
 32 75  1  0  0  0  0
 32 81  2  0  0  0  0
 33 47  1  0  0  0  0
 33 77  1  0  0  0  0
 33 82  2  0  0  0  0
 34 65  1  0  0  0  0
 34 72  1  0  0  0  0
 34 83  2  0  0  0  0
 35 66  1  0  0  0  0
 35 78  1  0  0  0  0
 35 84  2  0  0  0  0
 36 73  1  0  0  0  0
 36 79  1  0  0  0  0
 36 85  2  0  0  0  0
 37 40  1  0  0  0  0
 38 47  1  0  0  0  0
 39 72  1  0  0  0  0
 40 42  1  0  0  0  0
 41 43  1  0  0  0  0
 41 44  1  0  0  0  0
 42 46  1  0  0  0  0
 43 48  1  0  0  0  0
 44 73  1  0  0  0  0
 45 48  1  0  0  0  0
 45 73  1  0  0  0  0
 46 77  1  0  0  0  0
 47 72  1  0  0  0  0
 48 71  1  0  0  0  0
 50 66  1  0  0  0  0
 51 67  1  0  0  0  0
 52 67  1  0  0  0  0
 53 67  1  0  0  0  0
 54 80  1  0  0  0  0
 55 56  1  0  0  0  0
 56 57  1  0  0  0  0
 57 58  1  0  0  0  0
 58 59  1  0  0  0  0
 59 60  1  0  0  0  0
 60 64  1  0  0  0  0
 61 62  1  0  0  0  0
 61 63  1  0  0  0  0
 62 76  1  0  0  0  0
 63 79  1  0  0  0  0
 64 87  1  0  0  0  0
 65 67  1  0  0  0  0
 65 78  1  0  0  0  0
 66 80  1  0  0  0  0
 68 71  1  0  0  0  0
M  CHG  1  80   1
M  ISO  4  36 100  64 101  79 100  87 101
M  END
> <Batch ID>
0026

> <Smiles>
CNC(C)C(=O)NC(C(=O)N1Cc2cc([101O:1][101CH2:1]CCCCCCc3nc(C)nc(NCCC[100NH:0][100C:0](=O)N4CCCC(n5nc(-c6ccc(Oc7ccc(F)cc7F)cc6)c(C(N)=O)c5N)C4)c3Cl)ccc2CC1C(=O)NC1CCCc2ccccc21)C(C)(C)C

> <Shape>
0.258

> <Color>
0.050

> <Negative vol penalty>
0.000

$$$$

  -OEChem-04052316273D

 85 93  0     1  0  0  0  0  0999 V2000
  -18.4288  -15.4081   20.1573 C   0  0  0  0  0  0  0  0  0  0  0  0
  -19.4381  -16.2876   20.5359 C   0  0  0  0  0  0  0  0  0  0  0  0
  -23.1534   -9.8656   19.9609 C   0  0  0  0  0  0  0  0  0  0  0  0
  -23.8211   -9.9648   22.2807 C   0  0  0  0  0  0  0  0  0  0  0  0
  -17.3976  -15.1078   21.0464 C   0  0  0  0  0  0  0  0  0  0  0  0
  -19.4161  -16.8681   21.8036 C   0  0  0  0  0  0  0  0  0  0  0  0
  -23.9502  -16.7841   24.0575 C   0  0  0  0  0  0  0  0  0  0  0  0
  -22.4395   -8.6949   20.2165 C   0  0  0  0  0  0  0  0  0  0  0  0
  -23.1072   -8.7941   22.5363 C   0  0  0  0  0  0  0  0  0  0  0  0
  -24.8834  -17.7348   23.6462 C   0  0  0  0  0  0  0  0  0  0  0  0
  -21.7571   -5.6356   23.7242 C   0  0  0  0  0  0  0  0  0  0  0  0
  -22.3761   -4.6547   24.4989 C   0  0  0  0  0  0  0  0  0  0  0  0
  -24.3585  -19.0780   25.5800 C   0  0  0  0  0  0  0  0  0  0  0  0
  -30.1892  -17.1256   24.3585 C   0  0  0  0  0  0  0  0  0  0  0  0
  -24.1513   -4.4875   22.8685 C   0  0  0  0  0  0  0  0  0  0  0  0
  -23.8443  -10.5005   20.9930 C   0  0  0  0  0  0  0  0  0  0  0  0
  -24.1054  -13.0316   20.8105 C   0  0  0  0  0  0  0  0  0  0  0  0
  -17.3682  -15.6775   22.3290 C   0  0  0  0  0  0  0  0  0  0  0  0
  -23.2050  -16.9788   25.2294 C   0  0  0  0  0  0  0  0  0  0  0  0
  -18.3829  -16.5762   22.7101 C   0  0  0  0  0  0  0  0  0  0  0  0
  -23.4182  -18.1271   26.0053 C   0  0  0  0  0  0  0  0  0  0  0  0
  -30.6347  -15.8042   24.3278 C   0  0  0  0  0  0  0  0  0  0  0  0
  -29.7450  -15.4526   26.5463 C   0  0  0  0  0  0  0  0  0  0  0  0
  -29.5217  -17.6106   25.4832 C   0  0  0  0  0  0  0  0  0  0  0  0
  -22.4163   -8.1591   21.5042 C   0  0  0  0  0  0  0  0  0  0  0  0
  -25.0856  -18.8833   24.4059 C   0  0  0  0  0  0  0  0  0  0  0  0
  -22.3350   -6.0424   22.5216 C   0  0  0  0  0  0  0  0  0  0  0  0
  -23.5733   -4.0807   24.0711 C   0  0  0  0  0  0  0  0  0  0  0  0
  -23.5322   -5.4684   22.0938 C   0  0  0  0  0  0  0  0  0  0  0  0
  -30.4126  -14.9677   25.4216 C   0  0  0  0  0  0  0  0  0  0  0  0
  -29.2996  -16.7740   26.5771 C   0  0  0  0  0  0  0  0  0  0  0  0
  -24.5824  -11.7096   20.7295 C   0  0  0  0  0  0  0  0  0  0  0  0
  -25.1852  -13.8079   20.4673 C   0  0  0  0  0  0  0  0  0  0  0  0
  -22.8026  -13.5146   21.1644 C   0  0  0  0  0  0  0  0  0  0  0  0
  -20.1130  -17.2957   25.8948 C   0  0  0  0  0  0  0  0  0  0  0  0
  -21.1653  -17.2279   28.9624 C   0  0  0  0  0  0  0  0  0  0  0  0
  -23.7299  -17.7300   31.1573 C   0  0  0  0  0  0  0  0  0  0  0  0
  -30.9414  -13.9715   21.0619 C   0  0  0  0  0  0  0  0  0  0  0  0
  -16.2077  -15.3593   23.2382 C   0  0  0  0  0  0  0  0  0  0  0  0
  -22.2213  -15.9312   25.6736 C   0  0  0  0  0  0  0  0  0  0  0  0
  -22.6584  -18.3737   27.2822 C   0  0  0  0  0  0  0  0  0  0  0  0
  -16.4595  -15.7265   24.6984 C   0  0  0  0  0  0  0  0  0  0  0  0
  -29.3957  -13.0239   17.9977 C   0  0  0  0  0  0  0  0  0  0  0  0
  -17.0537  -17.1275   24.8018 C   0  0  0  0  0  0  0  0  0  0  0  0
  -27.9526  -12.7113   18.3973 C   0  0  0  0  0  0  0  0  0  0  0  0
  -30.3860  -12.5955   19.0783 C   0  0  0  0  0  0  0  0  0  0  0  0
  -28.6600  -12.8160   20.8237 C   0  0  0  0  0  0  0  0  0  0  0  0
  -18.4073  -17.2070   24.0855 C   0  0  1  0  0  0  0  0  0  0  0  0
  -21.1495  -16.4775   26.6117 C   0  0  1  0  0  0  0  0  0  0  0  0
  -27.6204  -13.2809   19.7896 C   0  0  2  0  0  0  0  0  0  0  0  0
  -29.5051  -14.5526   27.7212 C   0  0  0  0  0  0  0  0  0  0  0  0
  -24.2768  -17.6284   33.6044 C   0  0  0  0  0  0  0  0  0  0  0  0
  -19.6582  -19.8437   29.4054 C   0  0  0  0  0  0  0  0  0  0  0  0
  -20.9863  -20.1729   31.5020 C   0  0  0  0  0  0  0  0  0  0  0  0
  -19.4729  -18.2021   31.2830 C   0  0  0  0  0  0  0  0  0  0  0  0
  -25.8084  -15.6679   30.7257 C   0  0  0  0  0  0  0  0  0  0  0  0
  -31.3442  -15.3283   23.1005 C   0  0  0  0  0  0  0  0  0  0  0  0
  -28.0450  -20.9323   24.5593 C   0  0  0  0  0  0  0  0  0  0  0  0
  -28.9113  -19.7099   24.2808 C   0  0  0  0  0  0  0  0  0  0  0  0
  -26.6404  -20.5718   25.0285 C   0  0  0  0  0  0  0  0  0  1  0  0
  -21.6252  -18.2653   29.9580 C   0  0  1  0  0  0  0  0  0  0  0  0
  -24.2730  -16.8715   32.2854 C   0  0  2  0  0  0  0  0  0  0  0  0
  -20.4487  -19.1176   30.5121 C   0  0  0  0  0  0  0  0  0  0  0  0
  -25.8654  -11.6459   20.3635 N   0  0  0  0  0  0  0  0  0  0  0  0
  -26.2036  -12.9376   20.2113 N   0  0  0  0  0  0  0  0  0  0  0  0
  -21.7032  -17.3231   27.6711 N   0  0  0  0  0  0  0  0  0  0  0  0
  -30.0152  -13.1706   20.3736 N   0  0  0  0  0  0  0  0  0  0  0  0
  -25.3533  -15.1433   20.3625 N   0  0  0  0  0  0  0  0  0  0  0  0
  -21.8093  -12.5808   21.4895 N   0  0  0  0  0  0  0  0  0  0  0  0
  -29.0929  -18.9287   25.4804 N   0  0  0  0  0  0  0  0  0  0  0  0
  -19.4450  -16.6098   24.8984 N   0  0  0  0  0  0  0  0  0  0  0  0
  -22.3749  -17.5448   30.9814 N   0  0  0  0  0  0  0  0  0  0  0  0
  -30.5074  -14.4822   22.2791 N   0  0  0  0  0  0  0  0  0  0  0  0
  -25.6685  -16.4437   31.9849 N   0  3  0  0  0  0  0  0  0  0  0  0
  -22.5230  -14.7374   21.1756 O   0  0  0  0  0  0  0  0  0  0  0  0
  -19.9316  -18.4625   26.2224 O   0  0  0  0  0  0  0  0  0  0  0  0
  -20.3640  -16.3607   29.3193 O   0  0  0  0  0  0  0  0  0  0  0  0
  -24.4363  -18.4918   30.5006 O   0  0  0  0  0  0  0  0  0  0  0  0
  -32.0694  -14.2178   20.6217 O   0  0  0  0  0  0  0  0  0  0  0  0
  -21.7196   -7.0169   21.7540 O   0  0  0  0  0  0  0  0  0  0  0  0
  -25.9954  -19.8130   24.0064 O   0  0  0  0  0  0  0  0  0  1  0  0
  -24.1685   -3.1399   24.8159 F   0  0  0  0  0  0  0  0  0  0  0  0
  -24.0928   -5.8559   20.9400 F   0  0  0  0  0  0  0  0  0  0  0  0
  -30.9670  -13.3264   25.3755 Cl  0  0  0  0  0  0  0  0  0  0  0  0
  -28.4703  -17.3791   27.9758 Cl  0  0  0  0  0  0  0  0  0  0  0  0
  1  2  1  0  0  0  0
  1  5  2  0  0  0  0
  2  6  2  0  0  0  0
  3  8  2  0  0  0  0
  3 16  1  0  0  0  0
  4  9  1  0  0  0  0
  4 16  2  0  0  0  0
  5 18  1  0  0  0  0
  6 20  1  0  0  0  0
  7 10  2  0  0  0  0
  7 19  1  0  0  0  0
  8 25  1  0  0  0  0
  9 25  2  0  0  0  0
 10 26  1  0  0  0  0
 11 12  2  0  0  0  0
 11 27  1  0  0  0  0
 12 28  1  0  0  0  0
 13 21  1  0  0  0  0
 13 26  2  0  0  0  0
 14 22  2  0  0  0  0
 14 24  1  0  0  0  0
 15 28  2  0  0  0  0
 15 29  1  0  0  0  0
 16 32  1  0  0  0  0
 17 32  1  0  0  0  0
 17 33  2  0  0  0  0
 17 34  1  0  0  0  0
 18 20  2  0  0  0  0
 18 39  1  0  0  0  0
 19 21  2  0  0  0  0
 19 40  1  0  0  0  0
 20 48  1  0  0  0  0
 21 41  1  0  0  0  0
 22 30  1  0  0  0  0
 22 57  1  0  0  0  0
 23 30  2  0  0  0  0
 23 31  1  0  0  0  0
 23 51  1  0  0  0  0
 24 31  2  0  0  0  0
 24 70  1  0  0  0  0
 25 80  1  0  0  0  0
 26 81  1  0  0  0  0
 27 29  2  0  0  0  0
 27 80  1  0  0  0  0
 28 82  1  0  0  0  0
 29 83  1  0  0  0  0
 30 84  1  0  0  0  0
 31 85  1  0  0  0  0
 32 64  2  0  0  0  0
 33 65  1  0  0  0  0
 33 68  1  0  0  0  0
 34 69  1  0  0  0  0
 34 75  2  0  0  0  0
 35 49  1  0  0  0  0
 35 71  1  0  0  0  0
 35 76  2  0  0  0  0
 36 61  1  0  0  0  0
 36 66  1  0  0  0  0
 36 77  2  0  0  0  0
 37 62  1  0  0  0  0
 37 72  1  0  0  0  0
 37 78  2  0  0  0  0
 38 67  1  0  0  0  0
 38 73  1  0  0  0  0
 38 79  2  0  0  0  0
 39 42  1  0  0  0  0
 40 49  1  0  0  0  0
 41 66  1  0  0  0  0
 42 44  1  0  0  0  0
 43 45  1  0  0  0  0
 43 46  1  0  0  0  0
 44 48  1  0  0  0  0
 45 50  1  0  0  0  0
 46 67  1  0  0  0  0
 47 50  1  0  0  0  0
 47 67  1  0  0  0  0
 48 71  1  0  0  0  0
 49 66  1  0  0  0  0
 50 65  1  0  0  0  0
 52 62  1  0  0  0  0
 53 63  1  0  0  0  0
 54 63  1  0  0  0  0
 55 63  1  0  0  0  0
 56 74  1  0  0  0  0
 57 73  1  0  0  0  0
 58 59  1  0  0  0  0
 58 60  1  0  0  0  0
 59 70  1  0  0  0  0
 60 81  1  0  0  0  0
 61 63  1  0  0  0  0
 61 72  1  0  0  0  0
 62 74  1  0  0  0  0
 64 65  1  0  0  0  0
M  CHG  1  74   1
M  ISO  4  38 100  60 101  73 100  81 101
M  END
> <Batch ID>
0026

> <Smiles>
CNC(C)C(=O)NC(C(=O)N1Cc2cc([101O:1][101CH2:1]CCNc3cc(C[100NH:0][100C:0](=O)N4CCCC(n5nc(-c6ccc(Oc7ccc(F)cc7F)cc6)c(C(N)=O)c5N)C4)c(Cl)c(C)c3Cl)ccc2CC1C(=O)NC1CCCc2ccccc21)C(C)(C)C

> <Shape>
0.150

> <Color>
0.191

> <Negative vol penalty>
0.000

$$$$

  -OEChem-04052316273D

 86 94  0     1  0  0  0  0  0999 V2000
  -27.6489  -22.8230   25.9104 C   0  0  0  0  0  0  0  0  0  0  0  0
  -27.0035  -23.7847   25.1397 C   0  0  0  0  0  0  0  0  0  0  0  0
  -26.9113  -15.3836   21.9359 C   0  0  0  0  0  0  0  0  0  0  0  0
  -26.6197  -15.8812   19.5897 C   0  0  0  0  0  0  0  0  0  0  0  0
  -27.4379  -21.4689   25.6536 C   0  0  0  0  0  0  0  0  0  0  0  0
  -26.1476  -23.3929   24.1110 C   0  0  0  0  0  0  0  0  0  0  0  0
  -21.8236  -26.0285   24.0716 C   0  0  0  0  0  0  0  0  0  0  0  0
  -25.7255  -14.6492   21.9275 C   0  0  0  0  0  0  0  0  0  0  0  0
  -25.4339  -15.1467   19.5813 C   0  0  0  0  0  0  0  0  0  0  0  0
  -21.8669  -27.3149   23.5358 C   0  0  0  0  0  0  0  0  0  0  0  0
  -24.7030  -11.5805   20.9424 C   0  0  0  0  0  0  0  0  0  0  0  0
  -24.7056  -10.3380   21.5764 C   0  0  0  0  0  0  0  0  0  0  0  0
  -20.9446  -26.4789   21.4695 C   0  0  0  0  0  0  0  0  0  0  0  0
  -24.5817  -27.7982   20.0666 C   0  0  0  0  0  0  0  0  0  0  0  0
  -22.9653  -11.0969   23.0706 C   0  0  0  0  0  0  0  0  0  0  0  0
  -27.3584  -15.9997   20.7670 C   0  0  0  0  0  0  0  0  0  0  0  0
  -29.8809  -16.2816   20.5123 C   0  0  0  0  0  0  0  0  0  0  0  0
  -26.5714  -21.0603   24.6275 C   0  0  0  0  0  0  0  0  0  0  0  0
  -21.3499  -24.9539   23.3052 C   0  0  0  0  0  0  0  0  0  0  0  0
  -25.9258  -22.0321   23.8394 C   0  0  0  0  0  0  0  0  0  0  0  0
  -20.8940  -25.1802   21.9987 C   0  0  0  0  0  0  0  0  0  0  0  0
  -24.6394  -29.1894   19.9843 C   0  0  0  0  0  0  0  0  0  0  0  0
  -25.8686  -29.8428   20.0722 C   0  0  0  0  0  0  0  0  0  0  0  0
  -26.9824  -27.7138   20.3247 C   0  0  0  0  0  0  0  0  0  0  0  0
  -24.9868  -14.5307   20.7503 C   0  0  0  0  0  0  0  0  0  0  0  0
  -21.4301  -27.5398   22.2336 C   0  0  0  0  0  0  0  0  0  0  0  0
  -23.8317  -12.5812   21.3726 C   0  0  0  0  0  0  0  0  0  0  0  0
  -23.8367  -10.0962   22.6404 C   0  0  0  0  0  0  0  0  0  0  0  0
  -22.9628  -12.3394   22.4367 C   0  0  0  0  0  0  0  0  0  0  0  0
  -25.7532  -27.0604   20.2368 C   0  0  0  0  0  0  0  0  0  0  0  0
  -27.0401  -29.1051   20.2424 C   0  0  0  0  0  0  0  0  0  0  0  0
  -28.5829  -16.7590   20.7751 C   0  0  0  0  0  0  0  0  0  0  0  0
  -30.6865  -17.3861   20.6456 C   0  0  0  0  0  0  0  0  0  0  0  0
  -30.3193  -14.9582   20.1776 C   0  0  0  0  0  0  0  0  0  0  0  0
  -22.6076  -22.2409   22.2273 C   0  0  0  0  0  0  0  0  0  0  0  0
  -19.5655  -21.6714   21.2561 C   0  0  0  0  0  0  0  0  0  0  0  0
  -16.5209  -22.9362   20.3742 C   0  0  0  0  0  0  0  0  0  0  0  0
  -29.5927  -23.1524   20.0069 C   0  0  0  0  0  0  0  0  0  0  0  0
  -26.4116  -19.5852   24.3568 C   0  0  0  0  0  0  0  0  0  0  0  0
  -21.2846  -23.5769   23.9069 C   0  0  0  0  0  0  0  0  0  0  0  0
  -20.3574  -24.0641   21.1415 C   0  0  0  0  0  0  0  0  0  0  0  0
  -25.1988  -19.2527   23.4914 C   0  0  0  0  0  0  0  0  0  0  0  0
  -30.9568  -21.5666   22.9601 C   0  0  0  0  0  0  0  0  0  0  0  0
  -25.1295  -20.1871   22.2877 C   0  0  0  0  0  0  0  0  0  0  0  0
  -30.6196  -20.0974   22.6997 C   0  0  0  0  0  0  0  0  0  0  0  0
  -29.8395  -22.4849   22.4739 C   0  0  0  0  0  0  0  0  0  0  0  0
  -29.1398  -20.8406   20.7767 C   0  0  0  0  0  0  0  0  0  0  0  0
  -24.9707  -21.6466   22.7307 C   0  0  1  0  0  0  0  0  0  0  0  0
  -21.2636  -22.4676   22.8598 C   0  0  1  0  0  0  0  0  0  0  0  0
  -30.2406  -19.8623   21.2255 C   0  0  2  0  0  0  0  0  0  0  0  0
  -25.9065  -31.3371   19.9812 C   0  0  0  0  0  0  0  0  0  0  0  0
  -14.2445  -22.2265   19.5923 C   0  0  0  0  0  0  0  0  0  0  0  0
  -20.6845  -21.1682   18.4624 C   0  0  0  0  0  0  0  0  0  0  0  0
  -18.3601  -21.4086   17.5639 C   0  0  0  0  0  0  0  0  0  0  0  0
  -18.8910  -19.5755   19.1702 C   0  0  0  0  0  0  0  0  0  0  0  0
  -15.2119  -24.0965   22.7614 C   0  0  0  0  0  0  0  0  0  0  0  0
  -23.3572  -29.9612   19.8003 C   0  0  0  0  0  0  0  0  0  0  0  0
  -28.2380  -26.9161   20.5076 C   0  0  0  0  0  0  0  0  0  0  0  0
  -22.8615  -30.6452   21.0762 C   0  0  0  0  0  0  0  0  0  0  0  0
  -28.7705  -26.2731   19.2154 C   0  0  0  0  0  0  0  0  0  0  0  0
  -30.0794  -25.5049   19.3857 C   0  0  0  0  0  0  0  0  0  0  0  0
  -22.4975  -29.6644   22.1848 C   0  0  0  0  0  0  0  0  0  1  0  0
  -18.7711  -21.9590   20.0050 C   0  0  1  0  0  0  0  0  0  0  0  0
  -15.1126  -22.5582   20.7961 C   0  0  2  0  0  0  0  0  0  0  0  0
  -19.1885  -21.0487   18.8156 C   0  0  0  0  0  0  0  0  0  0  0  0
  -28.5605  -18.0650   21.0544 N   0  0  0  0  0  0  0  0  0  0  0  0
  -29.8545  -18.4176   20.9679 N   0  0  0  0  0  0  0  0  0  0  0  0
  -20.3197  -22.7345   21.7726 N   0  0  0  0  0  0  0  0  0  0  0  0
  -29.5399  -22.2231   21.0590 N   0  0  0  0  0  0  0  0  0  0  0  0
  -32.0183  -17.5657   20.5174 N   0  0  0  0  0  0  0  0  0  0  0  0
  -29.3600  -13.9408   20.0819 N   0  0  0  0  0  0  0  0  0  0  0  0
  -23.6034  -21.9088   23.1259 N   0  0  0  0  0  0  0  0  0  0  0  0
  -17.3655  -21.8462   20.3791 N   0  0  0  0  0  0  0  0  0  0  0  0
  -29.9737  -24.4413   20.3596 N   0  0  0  0  0  0  0  0  0  0  0  0
  -14.4755  -23.6816   21.5397 N   0  3  0  0  0  0  0  0  0  0  0  0
  -31.5279  -14.6824   19.9858 O   0  0  0  0  0  0  0  0  0  0  0  0
  -22.7316  -22.3572   21.0137 O   0  0  0  0  0  0  0  0  0  0  0  0
  -19.5129  -20.5470   21.7607 O   0  0  0  0  0  0  0  0  0  0  0  0
  -16.8391  -24.0829   20.0671 O   0  0  0  0  0  0  0  0  0  0  0  0
  -29.3251  -22.8543   18.8378 O   0  0  0  0  0  0  0  0  0  0  0  0
  -23.8298  -13.8139   20.7417 O   0  0  0  0  0  0  0  0  0  0  0  0
  -21.4718  -28.7943   21.7080 O   0  0  0  0  0  0  0  0  0  1  0  0
  -23.8381   -8.9025   23.2481 F   0  0  0  0  0  0  0  0  0  0  0  0
  -22.1226  -13.2965   22.8536 F   0  0  0  0  0  0  0  0  0  0  0  0
  -25.6352  -25.3400   20.3338 Cl  0  0  0  0  0  0  0  0  0  0  0  0
  -28.5663  -29.9198   20.3513 Cl  0  0  0  0  0  0  0  0  0  0  0  0
  1  2  1  0  0  0  0
  1  5  2  0  0  0  0
  2  6  2  0  0  0  0
  3  8  2  0  0  0  0
  3 16  1  0  0  0  0
  4  9  1  0  0  0  0
  4 16  2  0  0  0  0
  5 18  1  0  0  0  0
  6 20  1  0  0  0  0
  7 10  2  0  0  0  0
  7 19  1  0  0  0  0
  8 25  1  0  0  0  0
  9 25  2  0  0  0  0
 10 26  1  0  0  0  0
 11 12  2  0  0  0  0
 11 27  1  0  0  0  0
 12 28  1  0  0  0  0
 13 21  1  0  0  0  0
 13 26  2  0  0  0  0
 14 22  1  0  0  0  0
 14 30  2  0  0  0  0
 15 28  2  0  0  0  0
 15 29  1  0  0  0  0
 16 32  1  0  0  0  0
 17 32  1  0  0  0  0
 17 33  2  0  0  0  0
 17 34  1  0  0  0  0
 18 20  2  0  0  0  0
 18 39  1  0  0  0  0
 19 21  2  0  0  0  0
 19 40  1  0  0  0  0
 20 48  1  0  0  0  0
 21 41  1  0  0  0  0
 22 23  2  0  0  0  0
 22 57  1  0  0  0  0
 23 31  1  0  0  0  0
 23 51  1  0  0  0  0
 24 30  1  0  0  0  0
 24 31  2  0  0  0  0
 24 58  1  0  0  0  0
 25 81  1  0  0  0  0
 26 82  1  0  0  0  0
 27 29  2  0  0  0  0
 27 81  1  0  0  0  0
 28 83  1  0  0  0  0
 29 84  1  0  0  0  0
 30 85  1  0  0  0  0
 31 86  1  0  0  0  0
 32 66  2  0  0  0  0
 33 67  1  0  0  0  0
 33 70  1  0  0  0  0
 34 71  1  0  0  0  0
 34 76  2  0  0  0  0
 35 49  1  0  0  0  0
 35 72  1  0  0  0  0
 35 77  2  0  0  0  0
 36 63  1  0  0  0  0
 36 68  1  0  0  0  0
 36 78  2  0  0  0  0
 37 64  1  0  0  0  0
 37 73  1  0  0  0  0
 37 79  2  0  0  0  0
 38 69  1  0  0  0  0
 38 74  1  0  0  0  0
 38 80  2  0  0  0  0
 39 42  1  0  0  0  0
 40 49  1  0  0  0  0
 41 68  1  0  0  0  0
 42 44  1  0  0  0  0
 43 45  1  0  0  0  0
 43 46  1  0  0  0  0
 44 48  1  0  0  0  0
 45 50  1  0  0  0  0
 46 69  1  0  0  0  0
 47 50  1  0  0  0  0
 47 69  1  0  0  0  0
 48 72  1  0  0  0  0
 49 68  1  0  0  0  0
 50 67  1  0  0  0  0
 52 64  1  0  0  0  0
 53 65  1  0  0  0  0
 54 65  1  0  0  0  0
 55 65  1  0  0  0  0
 56 75  1  0  0  0  0
 57 59  1  0  0  0  0
 58 60  1  0  0  0  0
 59 62  1  0  0  0  0
 60 61  1  0  0  0  0
 61 74  1  0  0  0  0
 62 82  1  0  0  0  0
 63 65  1  0  0  0  0
 63 73  1  0  0  0  0
 64 75  1  0  0  0  0
 66 67  1  0  0  0  0
M  CHG  1  75   1
M  ISO  4  38 100  62 101  74 100  82 101
M  END
> <Batch ID>
0026

> <Smiles>
CNC(C)C(=O)NC(C(=O)N1Cc2cc([101O:1][101CH2:1]CCc3cc(Cl)c(CCC[100NH:0][100C:0](=O)N4CCCC(n5nc(-c6ccc(Oc7ccc(F)cc7F)cc6)c(C(N)=O)c5N)C4)c(Cl)c3C)ccc2CC1C(=O)NC1CCCc2ccccc21)C(C)(C)C

> <Shape>
0.231

> <Color>
0.056

> <Negative vol penalty>
0.000

$$$$

  -OEChem-04052316273D

 83 91  0     1  0  0  0  0  0999 V2000
  -23.3972  -17.6667   22.2947 C   0  0  0  0  0  0  0  0  0  0  0  0
  -24.4590  -18.5096   21.9822 C   0  0  0  0  0  0  0  0  0  0  0  0
  -25.9642  -15.4688   20.8492 C   0  0  0  0  0  0  0  0  0  0  0  0
  -27.6084  -14.7636   19.2255 C   0  0  0  0  0  0  0  0  0  0  0  0
  -22.0890  -18.0652   22.0229 C   0  0  0  0  0  0  0  0  0  0  0  0
  -24.2133  -19.7511   21.3967 C   0  0  0  0  0  0  0  0  0  0  0  0
  -27.3525  -24.9319   22.2968 C   0  0  0  0  0  0  0  0  0  0  0  0
  -25.6259  -14.1364   21.0854 C   0  0  0  0  0  0  0  0  0  0  0  0
  -27.2701  -13.4311   19.4617 C   0  0  0  0  0  0  0  0  0  0  0  0
  -28.3602  -25.5574   21.5640 C   0  0  0  0  0  0  0  0  0  0  0  0
  -23.7763  -11.7341   19.5913 C   0  0  0  0  0  0  0  0  0  0  0  0
  -22.4207  -11.4123   19.6572 C   0  0  0  0  0  0  0  0  0  0  0  0
  -26.7089  -26.9570   20.4994 C   0  0  0  0  0  0  0  0  0  0  0  0
  -31.4635  -25.8468   18.4349 C   0  0  0  0  0  0  0  0  0  0  0  0
  -30.0573  -25.5266   16.4966 C   0  0  0  0  0  0  0  0  0  0  0  0
  -22.7199  -10.6153   21.9183 C   0  0  0  0  0  0  0  0  0  0  0  0
  -26.9554  -15.7824   19.9192 C   0  0  0  0  0  0  0  0  0  0  0  0
  -28.2869  -17.9175   20.3389 C   0  0  0  0  0  0  0  0  0  0  0  0
  -21.8266  -19.3163   21.4427 C   0  0  0  0  0  0  0  0  0  0  0  0
  -26.0120  -25.3074   22.1281 C   0  0  0  0  0  0  0  0  0  0  0  0
  -22.9005  -20.1661   21.1157 C   0  0  0  0  0  0  0  0  0  0  0  0
  -25.6864  -26.3365   21.2331 C   0  0  0  0  0  0  0  0  0  0  0  0
  -30.4886  -26.3223   17.5580 C   0  0  0  0  0  0  0  0  0  0  0  0
  -32.0073  -24.5755   18.2504 C   0  0  0  0  0  0  0  0  0  0  0  0
  -30.6010  -24.2553   16.3122 C   0  0  0  0  0  0  0  0  0  0  0  0
  -26.2789  -13.1175   20.3917 C   0  0  0  0  0  0  0  0  0  0  0  0
  -28.0382  -26.5681   20.6630 C   0  0  0  0  0  0  0  0  0  0  0  0
  -24.6038  -11.4964   20.6889 C   0  0  0  0  0  0  0  0  0  0  0  0
  -21.8925  -10.8529   20.8208 C   0  0  0  0  0  0  0  0  0  0  0  0
  -24.0755  -10.9371   21.8524 C   0  0  0  0  0  0  0  0  0  0  0  0
  -31.5760  -23.7798   17.1891 C   0  0  0  0  0  0  0  0  0  0  0  0
  -27.3049  -17.1586   19.6744 C   0  0  0  0  0  0  0  0  0  0  0  0
  -28.2283  -19.1530   19.7418 C   0  0  0  0  0  0  0  0  0  0  0  0
  -29.1728  -17.5394   21.4009 C   0  0  0  0  0  0  0  0  0  0  0  0
  -23.3757  -23.8303   21.1423 C   0  0  0  0  0  0  0  0  0  0  0  0
  -21.9554  -26.6083   22.0298 C   0  0  0  0  0  0  0  0  0  0  0  0
  -22.2541  -29.9574   22.6138 C   0  0  0  0  0  0  0  0  0  0  0  0
  -27.8838  -22.3387   15.1725 C   0  0  0  0  0  0  0  0  0  0  0  0
  -20.3989  -19.6836   21.1241 C   0  0  0  0  0  0  0  0  0  0  0  0
  -24.9396  -24.6413   22.9458 C   0  0  0  0  0  0  0  0  0  0  0  0
  -24.2647  -26.7906   21.0302 C   0  0  0  0  0  0  0  0  0  0  0  0
  -20.2002  -21.1714   20.8463 C   0  0  0  0  0  0  0  0  0  0  0  0
  -24.8358  -21.1032   16.5365 C   0  0  0  0  0  0  0  0  0  0  0  0
  -21.2743  -21.6845   19.8926 C   0  0  0  0  0  0  0  0  0  0  0  0
  -25.2872  -20.0257   17.5240 C   0  0  0  0  0  0  0  0  0  0  0  0
  -25.7216  -21.1358   15.2929 C   0  0  0  0  0  0  0  0  0  0  0  0
  -27.6168  -20.1886   16.5518 C   0  0  0  0  0  0  0  0  0  0  0  0
  -22.6728  -21.5308   20.5026 C   0  0  1  0  0  0  0  0  0  0  0  0
  -23.5541  -24.7505   22.3167 C   0  0  1  0  0  0  0  0  0  0  0  0
  -26.7879  -20.1546   17.8473 C   0  0  2  0  0  0  0  0  0  0  0  0
  -32.4924  -23.1153   20.2301 C   0  0  0  0  0  0  0  0  0  0  0  0
  -20.9114  -31.9664   23.2908 C   0  0  0  0  0  0  0  0  0  0  0  0
  -20.7369  -26.7326   19.2352 C   0  0  0  0  0  0  0  0  0  0  0  0
  -20.2198  -29.1480   19.6440 C   0  0  0  0  0  0  0  0  0  0  0  0
  -19.1834  -27.3919   21.0809 C   0  0  0  0  0  0  0  0  0  0  0  0
  -23.9025  -30.3880   25.0338 C   0  0  0  0  0  0  0  0  0  0  0  0
  -29.9002  -27.6979   17.7577 C   0  0  0  0  0  0  0  0  0  0  0  0
  -33.0497  -24.1074   19.2145 C   0  0  0  0  0  0  0  0  0  0  0  0
  -30.1089  -23.4377   15.1613 C   0  0  0  0  0  0  0  0  0  0  0  0
  -28.6679  -27.6767   18.6554 C   0  0  0  0  0  0  0  0  0  1  0  0
  -21.6428  -27.9161   21.3435 C   0  0  1  0  0  0  0  0  0  0  0  0
  -21.7914  -30.8232   23.7717 C   0  0  2  0  0  0  0  0  0  0  0  0
  -20.4724  -27.7875   20.3281 C   0  0  0  0  0  0  0  0  0  0  0  0
  -26.6689  -17.8540   18.7277 N   0  0  0  0  0  0  0  0  0  0  0  0
  -27.2526  -19.0627   18.7931 N   0  0  0  0  0  0  0  0  0  0  0  0
  -23.2511  -26.1043   21.8482 N   0  0  0  0  0  0  0  0  0  0  0  0
  -27.1320  -21.2608   15.6686 N   0  0  0  0  0  0  0  0  0  0  0  0
  -28.9168  -20.2971   19.9410 N   0  0  0  0  0  0  0  0  0  0  0  0
  -29.1005  -16.2307   21.8973 N   0  0  0  0  0  0  0  0  0  0  0  0
  -22.9156  -22.5715   21.4786 N   0  0  0  0  0  0  0  0  0  0  0  0
  -21.4083  -28.8885   22.4055 N   0  0  0  0  0  0  0  0  0  0  0  0
  -29.2105  -22.3859   15.5826 N   0  0  0  0  0  0  0  0  0  0  0  0
  -22.9640  -31.4015   24.4869 N   0  3  0  0  0  0  0  0  0  0  0  0
  -29.9925  -18.3432   21.9062 O   0  0  0  0  0  0  0  0  0  0  0  0
  -23.6349  -24.2331   20.0143 O   0  0  0  0  0  0  0  0  0  0  0  0
  -21.0844  -26.0579   22.7081 O   0  0  0  0  0  0  0  0  0  0  0  0
  -23.2627  -30.2067   21.9572 O   0  0  0  0  0  0  0  0  0  0  0  0
  -27.4064  -23.1983   14.4241 O   0  0  0  0  0  0  0  0  0  0  0  0
  -25.9492  -11.8172   20.6221 O   0  0  0  0  0  0  0  0  0  0  0  0
  -29.0198  -27.1798   19.9459 O   0  0  0  0  0  0  0  0  0  1  0  0
  -20.5903  -10.5454   20.8845 F   0  0  0  0  0  0  0  0  0  0  0  0
  -24.8652  -10.7076   22.9104 F   0  0  0  0  0  0  0  0  0  0  0  0
  -32.2512  -22.2016   16.9600 Cl  0  0  0  0  0  0  0  0  0  0  0  0
  1  2  1  0  0  0  0
  1  5  2  0  0  0  0
  2  6  2  0  0  0  0
  3  8  2  0  0  0  0
  3 17  1  0  0  0  0
  4  9  1  0  0  0  0
  4 17  2  0  0  0  0
  5 19  1  0  0  0  0
  6 21  1  0  0  0  0
  7 10  2  0  0  0  0
  7 20  1  0  0  0  0
  8 26  1  0  0  0  0
  9 26  2  0  0  0  0
 10 27  1  0  0  0  0
 11 12  2  0  0  0  0
 11 28  1  0  0  0  0
 12 29  1  0  0  0  0
 13 22  1  0  0  0  0
 13 27  2  0  0  0  0
 14 23  2  0  0  0  0
 14 24  1  0  0  0  0
 15 23  1  0  0  0  0
 15 25  2  0  0  0  0
 16 29  2  0  0  0  0
 16 30  1  0  0  0  0
 17 32  1  0  0  0  0
 18 32  1  0  0  0  0
 18 33  2  0  0  0  0
 18 34  1  0  0  0  0
 19 21  2  0  0  0  0
 19 39  1  0  0  0  0
 20 22  2  0  0  0  0
 20 40  1  0  0  0  0
 21 48  1  0  0  0  0
 22 41  1  0  0  0  0
 23 57  1  0  0  0  0
 24 31  2  0  0  0  0
 24 58  1  0  0  0  0
 25 31  1  0  0  0  0
 25 59  1  0  0  0  0
 26 79  1  0  0  0  0
 27 80  1  0  0  0  0
 28 30  2  0  0  0  0
 28 79  1  0  0  0  0
 29 81  1  0  0  0  0
 30 82  1  0  0  0  0
 31 83  1  0  0  0  0
 32 64  2  0  0  0  0
 33 65  1  0  0  0  0
 33 68  1  0  0  0  0
 34 69  1  0  0  0  0
 34 74  2  0  0  0  0
 35 49  1  0  0  0  0
 35 70  1  0  0  0  0
 35 75  2  0  0  0  0
 36 61  1  0  0  0  0
 36 66  1  0  0  0  0
 36 76  2  0  0  0  0
 37 62  1  0  0  0  0
 37 71  1  0  0  0  0
 37 77  2  0  0  0  0
 38 67  1  0  0  0  0
 38 72  1  0  0  0  0
 38 78  2  0  0  0  0
 39 42  1  0  0  0  0
 40 49  1  0  0  0  0
 41 66  1  0  0  0  0
 42 44  1  0  0  0  0
 43 45  1  0  0  0  0
 43 46  1  0  0  0  0
 44 48  1  0  0  0  0
 45 50  1  0  0  0  0
 46 67  1  0  0  0  0
 47 50  1  0  0  0  0
 47 67  1  0  0  0  0
 48 70  1  0  0  0  0
 49 66  1  0  0  0  0
 50 65  1  0  0  0  0
 51 58  1  0  0  0  0
 52 62  1  0  0  0  0
 53 63  1  0  0  0  0
 54 63  1  0  0  0  0
 55 63  1  0  0  0  0
 56 73  1  0  0  0  0
 57 60  1  0  0  0  0
 59 72  1  0  0  0  0
 60 80  1  0  0  0  0
 61 63  1  0  0  0  0
 61 71  1  0  0  0  0
 62 73  1  0  0  0  0
 64 65  1  0  0  0  0
M  CHG  1  73   1
M  ISO  4  38 100  60 101  72 100  80 101
M  END
> <Batch ID>
0026

> <Smiles>
CCc1cc(C[101CH2:1][101O:1]c2ccc3c(c2)CN(C(=O)C(NC(=O)C(C)NC)C(C)(C)C)C(C(=O)NC2CCCc4ccccc42)C3)cc(C[100NH:0][100C:0](=O)N2CCCC(n3nc(-c4ccc(Oc5ccc(F)cc5F)cc4)c(C(N)=O)c3N)C2)c1Cl

> <Shape>
0.193

> <Color>
0.062

> <Negative vol penalty>
0.000

$$$$

  -OEChem-04052316273D

 90100  0     1  0  0  0  0  0999 V2000
  -17.8174  -25.7072   22.8972 C   0  0  0  0  0  0  0  0  0  0  0  0
  -19.0719  -25.3676   22.4010 C   0  0  0  0  0  0  0  0  0  0  0  0
  -26.6660  -13.2149   19.9646 C   0  0  0  0  0  0  0  0  0  0  0  0
  -25.0591  -14.6113   21.1070 C   0  0  0  0  0  0  0  0  0  0  0  0
  -17.4203  -27.0433   22.9302 C   0  0  0  0  0  0  0  0  0  0  0  0
  -19.9298  -26.3640   21.9364 C   0  0  0  0  0  0  0  0  0  0  0  0
  -26.0382  -26.4574   22.3658 C   0  0  0  0  0  0  0  0  0  0  0  0
  -25.8721  -12.0959   20.2157 C   0  0  0  0  0  0  0  0  0  0  0  0
  -24.2652  -13.4922   21.3581 C   0  0  0  0  0  0  0  0  0  0  0  0
  -27.0472  -26.1285   21.4616 C   0  0  0  0  0  0  0  0  0  0  0  0
  -23.0724  -10.6914   18.9420 C   0  0  0  0  0  0  0  0  0  0  0  0
  -22.8603   -9.7982   17.8919 C   0  0  0  0  0  0  0  0  0  0  0  0
  -27.2371  -28.4511   20.8381 C   0  0  0  0  0  0  0  0  0  0  0  0
  -29.9640  -22.8406   17.6484 C   0  0  0  0  0  0  0  0  0  0  0  0
  -23.8784   -8.0321   19.1885 C   0  0  0  0  0  0  0  0  0  0  0  0
  -26.2595  -14.4726   20.4103 C   0  0  0  0  0  0  0  0  0  0  0  0
  -28.4060  -15.8416   20.5723 C   0  0  0  0  0  0  0  0  0  0  0  0
  -18.2775  -28.0574   22.4747 C   0  0  0  0  0  0  0  0  0  0  0  0
  -25.6128  -27.7863   22.5053 C   0  0  0  0  0  0  0  0  0  0  0  0
  -19.5433  -27.7148   21.9621 C   0  0  0  0  0  0  0  0  0  0  0  0
  -26.2243  -28.7946   21.7466 C   0  0  0  0  0  0  0  0  0  0  0  0
  -30.7162  -21.6588   17.8623 C   0  0  0  0  0  0  0  0  0  0  0  0
  -24.6717  -12.2345   20.9124 C   0  0  0  0  0  0  0  0  0  0  0  0
  -27.6448  -27.1250   20.6955 C   0  0  0  0  0  0  0  0  0  0  0  0
  -23.6875  -10.2550   20.1154 C   0  0  0  0  0  0  0  0  0  0  0  0
  -23.2633   -8.4686   18.0151 C   0  0  0  0  0  0  0  0  0  0  0  0
  -24.0904   -8.9253   20.2387 C   0  0  0  0  0  0  0  0  0  0  0  0
  -27.0795  -15.6289   20.1518 C   0  0  0  0  0  0  0  0  0  0  0  0
  -31.6741  -21.9400   18.8167 C   0  0  0  0  0  0  0  0  0  0  0  0
  -30.4797  -23.8141   18.4758 C   0  0  0  0  0  0  0  0  0  0  0  0
  -28.7297  -17.0800   20.0744 C   0  0  0  0  0  0  0  0  0  0  0  0
  -29.2686  -14.9953   21.3440 C   0  0  0  0  0  0  0  0  0  0  0  0
  -22.8688  -29.3232   22.0451 C   0  0  0  0  0  0  0  0  0  0  0  0
  -24.4969  -31.8139   23.3367 C   0  0  0  0  0  0  0  0  0  0  0  0
  -26.7998  -34.0688   24.4586 C   0  0  0  0  0  0  0  0  0  0  0  0
  -28.6069  -20.4726   15.5145 C   0  0  0  0  0  0  0  0  0  0  0  0
  -17.7857  -29.4832   22.4863 C   0  0  0  0  0  0  0  0  0  0  0  0
  -24.5417  -28.1283   23.5044 C   0  0  0  0  0  0  0  0  0  0  0  0
  -25.8180  -30.2393   21.8735 C   0  0  0  0  0  0  0  0  0  0  0  0
  -32.7123  -21.0729   19.4427 C   0  0  0  0  0  0  0  0  0  0  0  0
  -18.9003  -30.5133   22.3226 C   0  0  0  0  0  0  0  0  0  0  0  0
  -33.8103  -21.8961   20.1225 C   0  0  0  0  0  0  0  0  0  0  0  0
  -33.4375  -22.3135   14.0852 C   0  0  0  0  0  0  0  0  0  0  0  0
  -33.2812  -20.7986   13.9878 C   0  0  0  0  0  0  0  0  0  0  0  0
  -32.0961  -23.0272   13.9446 C   0  0  0  0  0  0  0  0  0  0  0  0
  -25.8516  -20.6608   17.9792 C   0  0  0  0  0  0  0  0  0  0  0  0
  -19.8332  -30.1139   21.1837 C   0  0  0  0  0  0  0  0  0  0  0  0
  -26.0005  -19.3479   18.7462 C   0  0  0  0  0  0  0  0  0  0  0  0
  -32.2589  -20.2717   14.9932 C   0  0  0  0  0  0  0  0  0  0  0  0
  -31.0709  -22.5043   14.9493 C   0  0  0  0  0  0  0  0  0  0  0  0
  -32.3573  -23.9631   20.1282 C   0  0  0  0  0  0  0  0  0  0  0  0
  -26.3666  -20.5431   16.5480 C   0  0  0  0  0  0  0  0  0  0  0  0
  -27.9159  -18.7360   17.2173 C   0  0  0  0  0  0  0  0  0  0  0  0
  -20.5117  -28.7693   21.4720 C   0  0  1  0  0  0  0  0  0  0  0  0
  -23.8314  -29.4420   23.1927 C   0  0  1  0  0  0  0  0  0  0  0  0
  -27.4490  -18.8337   18.6775 C   0  0  2  0  0  0  0  0  0  0  0  0
  -30.9123  -20.9854   14.8471 C   0  0  0  0  0  0  0  0  0  0  0  0
  -33.2237  -23.0250   20.9730 C   0  0  1  0  0  0  0  0  0  0  0  0
  -27.0552  -36.4934   25.0533 C   0  0  0  0  0  0  0  0  0  0  0  0
  -24.5516  -32.5327   20.3719 C   0  0  0  0  0  0  0  0  0  0  0  0
  -25.7188  -34.6622   20.9811 C   0  0  0  0  0  0  0  0  0  0  0  0
  -23.4170  -34.2159   21.8327 C   0  0  0  0  0  0  0  0  0  0  0  0
  -27.5193  -33.4265   27.2566 C   0  0  0  0  0  0  0  0  0  0  0  0
  -30.5024  -20.3631   17.1871 C   0  0  0  0  0  0  0  0  0  0  0  0
  -30.0602  -25.2549   18.6383 C   0  0  0  0  0  0  0  0  0  0  0  0
  -29.0008  -25.4319   19.7206 C   0  0  0  0  0  0  0  0  0  1  0  0
  -25.3657  -32.9213   22.7910 C   0  0  1  0  0  0  0  0  0  0  0  0
  -26.7414  -35.0988   25.5723 C   0  0  2  0  0  0  0  0  0  0  0  0
  -24.7742  -33.5579   21.5017 C   0  0  0  0  0  0  0  0  0  0  0  0
  -26.5937  -16.6504   19.4415 N   0  0  0  0  0  0  0  0  0  0  0  0
  -31.5123  -23.2552   19.1790 N   0  0  0  0  0  0  0  0  0  0  0  0
  -27.6204  -17.5170   19.4120 N   0  0  0  0  0  0  0  0  0  0  0  0
  -24.7619  -30.5224   22.8594 N   0  0  0  0  0  0  0  0  0  0  0  0
  -27.7294  -20.0115   16.5096 N   0  0  0  0  0  0  0  0  0  0  0  0
  -29.8520  -17.8270   20.1430 N   0  0  0  0  0  0  0  0  0  0  0  0
  -29.2581  -15.1251   22.7394 N   0  0  0  0  0  0  0  0  0  0  0  0
  -21.5939  -28.9418   22.4174 N   0  0  0  0  0  0  0  0  0  0  0  0
  -25.5618  -33.8640   23.8870 N   0  0  0  0  0  0  0  0  0  0  0  0
  -29.9729  -20.5085   15.8329 N   0  0  0  0  0  0  0  0  0  0  0  0
  -27.7245  -34.7627   26.6407 N   0  3  0  0  0  0  0  0  0  0  0  0
  -30.0382  -14.1604   20.8108 O   0  0  0  0  0  0  0  0  0  0  0  0
  -23.2538  -29.5615   20.9064 O   0  0  0  0  0  0  0  0  0  0  0  0
  -23.6203  -32.0837   24.1616 O   0  0  0  0  0  0  0  0  0  0  0  0
  -27.8402  -33.5053   24.1264 O   0  0  0  0  0  0  0  0  0  0  0  0
  -28.1919  -20.8408   14.4081 O   0  0  0  0  0  0  0  0  0  0  0  0
  -32.4427  -22.4595   22.0240 O   0  0  0  0  0  0  0  0  0  0  0  0
  -23.8966  -11.1428   21.1574 O   0  0  0  0  0  0  0  0  0  0  0  0
  -28.6294  -26.8067   19.8117 O   0  0  0  0  0  0  0  0  0  1  0  0
  -23.0582   -7.6106   17.0072 F   0  0  0  0  0  0  0  0  0  0  0  0
  -24.6808   -8.4999   21.3640 F   0  0  0  0  0  0  0  0  0  0  0  0
  1  2  1  0  0  0  0
  1  5  2  0  0  0  0
  2  6  2  0  0  0  0
  3  8  2  0  0  0  0
  3 16  1  0  0  0  0
  4  9  1  0  0  0  0
  4 16  2  0  0  0  0
  5 18  1  0  0  0  0
  6 20  1  0  0  0  0
  7 10  2  0  0  0  0
  7 19  1  0  0  0  0
  8 23  1  0  0  0  0
  9 23  2  0  0  0  0
 10 24  1  0  0  0  0
 11 12  2  0  0  0  0
 11 25  1  0  0  0  0
 12 26  1  0  0  0  0
 13 21  1  0  0  0  0
 13 24  2  0  0  0  0
 14 22  1  0  0  0  0
 14 30  2  0  0  0  0
 15 26  2  0  0  0  0
 15 27  1  0  0  0  0
 16 28  1  0  0  0  0
 17 28  1  0  0  0  0
 17 31  2  0  0  0  0
 17 32  1  0  0  0  0
 18 20  2  0  0  0  0
 18 37  1  0  0  0  0
 19 21  2  0  0  0  0
 19 38  1  0  0  0  0
 20 54  1  0  0  0  0
 21 39  1  0  0  0  0
 22 29  2  0  0  0  0
 22 64  1  0  0  0  0
 23 87  1  0  0  0  0
 24 88  1  0  0  0  0
 25 27  2  0  0  0  0
 25 87  1  0  0  0  0
 26 89  1  0  0  0  0
 27 90  1  0  0  0  0
 28 70  2  0  0  0  0
 29 40  1  0  0  0  0
 29 71  1  0  0  0  0
 30 65  1  0  0  0  0
 30 71  1  0  0  0  0
 31 72  1  0  0  0  0
 31 75  1  0  0  0  0
 32 76  1  0  0  0  0
 32 81  2  0  0  0  0
 33 55  1  0  0  0  0
 33 77  1  0  0  0  0
 33 82  2  0  0  0  0
 34 67  1  0  0  0  0
 34 73  1  0  0  0  0
 34 83  2  0  0  0  0
 35 68  1  0  0  0  0
 35 78  1  0  0  0  0
 35 84  2  0  0  0  0
 36 74  1  0  0  0  0
 36 79  1  0  0  0  0
 36 85  2  0  0  0  0
 37 41  1  0  0  0  0
 38 55  1  0  0  0  0
 39 73  1  0  0  0  0
 40 42  1  0  0  0  0
 41 47  1  0  0  0  0
 42 58  1  0  0  0  0
 43 44  1  0  0  0  0
 43 45  1  0  0  0  0
 44 49  1  0  0  0  0
 45 50  1  0  0  0  0
 46 48  1  0  0  0  0
 46 52  1  0  0  0  0
 47 54  1  0  0  0  0
 48 56  1  0  0  0  0
 49 57  1  0  0  0  0
 50 57  1  0  0  0  0
 51 58  1  0  0  0  0
 51 71  1  0  0  0  0
 52 74  1  0  0  0  0
 53 56  1  0  0  0  0
 53 74  1  0  0  0  0
 54 77  1  0  0  0  0
 55 73  1  0  0  0  0
 56 72  1  0  0  0  0
 57 79  1  0  0  0  0
 58 86  1  0  0  0  0
 59 68  1  0  0  0  0
 60 69  1  0  0  0  0
 61 69  1  0  0  0  0
 62 69  1  0  0  0  0
 63 80  1  0  0  0  0
 64 79  1  0  0  0  0
 65 66  1  0  0  0  0
 66 88  1  0  0  0  0
 67 69  1  0  0  0  0
 67 78  1  0  0  0  0
 68 80  1  0  0  0  0
 70 72  1  0  0  0  0
M  CHG  1  80   1
M  ISO  4  36 100  66 101  79 100  88 101
M  END
> <Batch ID>
0026

> <Smiles>
CNC(C)C(=O)NC(C(=O)N1Cc2cc([101O:1][101CH2:1]Cc3cc(C[100N:0](C4CCCCC4)[100C:0](=O)N4CCCC(n5nc(-c6ccc(Oc7ccc(F)cc7F)cc6)c(C(N)=O)c5N)C4)c4n3CC(O)CC4)ccc2CC1C(=O)NC1CCCc2ccccc21)C(C)(C)C

> <Shape>
0.276

> <Color>
0.102

> <Negative vol penalty>
0.000

$$$$

  -OEChem-04052316273D

 86 94  0     1  0  0  0  0  0999 V2000
  -27.3436  -17.7078   18.0845 C   0  0  0  0  0  0  0  0  0  0  0  0
  -26.4310  -18.7263   17.8291 C   0  0  0  0  0  0  0  0  0  0  0  0
  -24.4416  -13.8779   20.1815 C   0  0  0  0  0  0  0  0  0  0  0  0
  -24.7308  -14.3354   22.5361 C   0  0  0  0  0  0  0  0  0  0  0  0
  -28.3457  -17.8936   19.0359 C   0  0  0  0  0  0  0  0  0  0  0  0
  -26.5194  -19.9310   18.5258 C   0  0  0  0  0  0  0  0  0  0  0  0
  -25.2303  -25.5233   16.3880 C   0  0  0  0  0  0  0  0  0  0  0  0
  -25.5590  -13.0433   20.2064 C   0  0  0  0  0  0  0  0  0  0  0  0
  -25.8482  -13.5008   22.5610 C   0  0  0  0  0  0  0  0  0  0  0  0
  -24.1023  -26.3345   16.5033 C   0  0  0  0  0  0  0  0  0  0  0  0
  -28.5495  -11.0747   19.5700 C   0  0  0  0  0  0  0  0  0  0  0  0
  -29.4770  -11.1992   18.5356 C   0  0  0  0  0  0  0  0  0  0  0  0
  -25.1238  -27.4799   18.3645 C   0  0  0  0  0  0  0  0  0  0  0  0
  -22.7115  -27.7059   21.3869 C   0  0  0  0  0  0  0  0  0  0  0  0
  -29.8517  -13.5058   19.1493 C   0  0  0  0  0  0  0  0  0  0  0  0
  -24.0275  -14.5240   21.3463 C   0  0  0  0  0  0  0  0  0  0  0  0
  -21.5345  -15.0221   21.5566 C   0  0  0  0  0  0  0  0  0  0  0  0
  -28.4523  -19.1047   19.7377 C   0  0  0  0  0  0  0  0  0  0  0  0
  -26.3108  -25.6772   17.2684 C   0  0  0  0  0  0  0  0  0  0  0  0
  -27.5231  -20.1327   19.4884 C   0  0  0  0  0  0  0  0  0  0  0  0
  -26.2654  -26.6710   18.2566 C   0  0  0  0  0  0  0  0  0  0  0  0
  -20.3779  -27.1562   21.0887 C   0  0  0  0  0  0  0  0  0  0  0  0
  -21.8733  -25.5602   22.1151 C   0  0  0  0  0  0  0  0  0  0  0  0
  -21.4352  -28.0546   20.9453 C   0  0  0  0  0  0  0  0  0  0  0  0
  -26.2623  -12.8548   21.3961 C   0  0  0  0  0  0  0  0  0  0  0  0
  -24.0477  -27.3111   17.4935 C   0  0  0  0  0  0  0  0  0  0  0  0
  -28.2730  -12.1658   20.3939 C   0  0  0  0  0  0  0  0  0  0  0  0
  -30.1281  -12.4147   18.3253 C   0  0  0  0  0  0  0  0  0  0  0  0
  -28.9241  -13.3813   20.1836 C   0  0  0  0  0  0  0  0  0  0  0  0
  -22.9306  -26.4586   21.9718 C   0  0  0  0  0  0  0  0  0  0  0  0
  -20.5970  -25.9089   21.6736 C   0  0  0  0  0  0  0  0  0  0  0  0
  -22.8737  -15.3866   21.3211 C   0  0  0  0  0  0  0  0  0  0  0  0
  -20.8303  -16.1930   21.4164 C   0  0  0  0  0  0  0  0  0  0  0  0
  -20.9769  -13.7399   21.8738 C   0  0  0  0  0  0  0  0  0  0  0  0
  -27.7301  -23.8213   19.4236 C   0  0  0  0  0  0  0  0  0  0  0  0
  -29.8279  -26.2896   19.5949 C   0  0  0  0  0  0  0  0  0  0  0  0
  -30.4299  -29.6173   19.1363 C   0  0  0  0  0  0  0  0  0  0  0  0
  -22.4070  -21.8392   22.1161 C   0  0  0  0  0  0  0  0  0  0  0  0
  -29.5234  -19.2417   20.7907 C   0  0  0  0  0  0  0  0  0  0  0  0
  -27.5314  -24.8120   17.1138 C   0  0  0  0  0  0  0  0  0  0  0  0
  -27.4073  -26.8902   19.2139 C   0  0  0  0  0  0  0  0  0  0  0  0
  -29.7772  -20.6853   21.2171 C   0  0  0  0  0  0  0  0  0  0  0  0
  -20.9667  -20.3939   19.1271 C   0  0  0  0  0  0  0  0  0  0  0  0
  -28.4577  -21.4052   21.4767 C   0  0  0  0  0  0  0  0  0  0  0  0
  -21.1705  -18.8995   19.3832 C   0  0  0  0  0  0  0  0  0  0  0  0
  -22.1501  -21.2091   19.6402 C   0  0  0  0  0  0  0  0  0  0  0  0
  -22.6725  -19.5010   21.3382 C   0  0  0  0  0  0  0  0  0  0  0  0
  -27.6014  -21.4628   20.2059 C   0  0  1  0  0  0  0  0  0  0  0  0
  -28.3596  -24.7133   18.3912 C   0  0  1  0  0  0  0  0  0  0  0  0
  -21.4998  -18.6244   20.8624 C   0  0  2  0  0  0  0  0  0  0  0  0
  -19.0138  -27.5487   20.6087 C   0  0  0  0  0  0  0  0  0  0  0  0
  -32.2274  -31.3486   19.3992 C   0  0  0  0  0  0  0  0  0  0  0  0
  -29.3588  -26.3153   22.6097 C   0  0  0  0  0  0  0  0  0  0  0  0
  -30.3932  -28.5941   22.6810 C   0  0  0  0  0  0  0  0  0  0  0  0
  -31.7416  -26.6374   21.9220 C   0  0  0  0  0  0  0  0  0  0  0  0
  -21.5216  -30.5285   21.1259 C   0  0  0  0  0  0  0  0  0  0  0  0
  -30.4308  -30.2239   16.2396 C   0  0  0  0  0  0  0  0  0  0  0  0
  -22.1142  -24.2216   22.7448 C   0  0  0  0  0  0  0  0  0  0  0  0
  -21.8074  -30.1481   18.1378 C   0  0  0  0  0  0  0  0  0  0  0  0
  -20.7667  -29.4470   19.0025 C   0  0  0  0  0  0  0  0  0  0  0  0
  -23.1479  -29.4230   18.1147 C   0  0  0  0  0  0  0  0  0  1  0  0
  -29.9283  -27.5522   20.4162 C   0  0  1  0  0  0  0  0  0  0  0  0
  -31.5730  -30.3500   18.4573 C   0  0  2  0  0  0  0  0  0  0  0  0
  -30.3330  -27.2696   21.8906 C   0  0  0  0  0  0  0  0  0  0  0  0
  -23.0144  -16.6872   21.0516 N   0  0  0  0  0  0  0  0  0  0  0  0
  -21.7544  -17.1502   21.1168 N   0  0  0  0  0  0  0  0  0  0  0  0
  -28.5761  -26.0148   19.0263 N   0  0  0  0  0  0  0  0  0  0  0  0
  -22.3990  -20.9146   21.0585 N   0  0  0  0  0  0  0  0  0  0  0  0
  -19.5169  -16.4868   21.5214 N   0  0  0  0  0  0  0  0  0  0  0  0
  -21.8425  -12.6427   21.9799 N   0  0  0  0  0  0  0  0  0  0  0  0
  -28.0903  -22.4918   19.3133 N   0  0  0  0  0  0  0  0  0  0  0  0
  -30.8479  -28.4315   19.7023 N   0  0  0  0  0  0  0  0  0  0  0  0
  -22.1458  -23.1581   21.7656 N   0  0  0  0  0  0  0  0  0  0  0  0
  -21.2369  -29.3135   20.3602 N   0  0  3  0  0  0  0  0  0  0  0  0
  -31.0774  -31.0875   17.2608 N   0  3  0  0  0  0  0  0  0  0  0  0
  -19.7456  -13.5689   22.0415 O   0  0  0  0  0  0  0  0  0  0  0  0
  -26.9749  -24.3038   20.2594 O   0  0  0  0  0  0  0  0  0  0  0  0
  -30.8254  -25.5771   19.4568 O   0  0  0  0  0  0  0  0  0  0  0  0
  -29.2818  -30.0551   19.1651 O   0  0  0  0  0  0  0  0  0  0  0  0
  -22.6256  -21.5126   23.2877 O   0  0  0  0  0  0  0  0  0  0  0  0
  -27.3525  -12.0403   21.4209 O   0  0  0  0  0  0  0  0  0  0  0  0
  -22.9477  -28.1039   17.6087 O   0  0  0  0  0  0  0  0  0  1  0  0
  -31.0199  -12.5337   17.3330 F   0  0  0  0  0  0  0  0  0  0  0  0
  -28.6636  -14.4326   20.9726 F   0  0  0  0  0  0  0  0  0  0  0  0
  -24.5262  -26.0684   22.5044 Cl  0  0  0  0  0  0  0  0  0  0  0  0
  -19.2812  -24.7938   21.8493 Cl  0  0  0  0  0  0  0  0  0  0  0  0
  1  2  1  0  0  0  0
  1  5  2  0  0  0  0
  2  6  2  0  0  0  0
  3  8  2  0  0  0  0
  3 16  1  0  0  0  0
  4  9  1  0  0  0  0
  4 16  2  0  0  0  0
  5 18  1  0  0  0  0
  6 20  1  0  0  0  0
  7 10  2  0  0  0  0
  7 19  1  0  0  0  0
  8 25  1  0  0  0  0
  9 25  2  0  0  0  0
 10 26  1  0  0  0  0
 11 12  2  0  0  0  0
 11 27  1  0  0  0  0
 12 28  1  0  0  0  0
 13 21  1  0  0  0  0
 13 26  2  0  0  0  0
 14 24  1  0  0  0  0
 14 30  2  0  0  0  0
 15 28  2  0  0  0  0
 15 29  1  0  0  0  0
 16 32  1  0  0  0  0
 17 32  1  0  0  0  0
 17 33  2  0  0  0  0
 17 34  1  0  0  0  0
 18 20  2  0  0  0  0
 18 39  1  0  0  0  0
 19 21  2  0  0  0  0
 19 40  1  0  0  0  0
 20 48  1  0  0  0  0
 21 41  1  0  0  0  0
 22 24  2  0  0  0  0
 22 31  1  0  0  0  0
 22 51  1  0  0  0  0
 23 30  1  0  0  0  0
 23 31  2  0  0  0  0
 23 58  1  0  0  0  0
 24 74  1  0  0  0  0
 25 81  1  0  0  0  0
 26 82  1  0  0  0  0
 27 29  2  0  0  0  0
 27 81  1  0  0  0  0
 28 83  1  0  0  0  0
 29 84  1  0  0  0  0
 30 85  1  0  0  0  0
 31 86  1  0  0  0  0
 32 65  2  0  0  0  0
 33 66  1  0  0  0  0
 33 69  1  0  0  0  0
 34 70  1  0  0  0  0
 34 76  2  0  0  0  0
 35 49  1  0  0  0  0
 35 71  1  0  0  0  0
 35 77  2  0  0  0  0
 36 62  1  0  0  0  0
 36 67  1  0  0  0  0
 36 78  2  0  0  0  0
 37 63  1  0  0  0  0
 37 72  1  0  0  0  0
 37 79  2  0  0  0  0
 38 68  1  0  0  0  0
 38 73  1  0  0  0  0
 38 80  2  0  0  0  0
 39 42  1  0  0  0  0
 40 49  1  0  0  0  0
 41 67  1  0  0  0  0
 42 44  1  0  0  0  0
 43 45  1  0  0  0  0
 43 46  1  0  0  0  0
 44 48  1  0  0  0  0
 45 50  1  0  0  0  0
 46 68  1  0  0  0  0
 47 50  1  0  0  0  0
 47 68  1  0  0  0  0
 48 71  1  0  0  0  0
 49 67  1  0  0  0  0
 50 66  1  0  0  0  0
 52 63  1  0  0  0  0
 53 64  1  0  0  0  0
 54 64  1  0  0  0  0
 55 64  1  0  0  0  0
 56 74  1  0  0  0  0
 57 75  1  0  0  0  0
 58 73  1  0  0  0  0
 59 60  1  0  0  0  0
 59 61  1  0  0  0  0
 60 74  1  0  0  0  0
 61 82  1  0  0  0  0
 62 64  1  0  0  0  0
 62 72  1  0  0  0  0
 63 75  1  0  0  0  0
 65 66  1  0  0  0  0
M  CHG  1  75   1
M  ISO  4  38 100  61 101  73 100  82 101
M  END
> <Batch ID>
0026

> <Smiles>
CNC(C)C(=O)NC(C(=O)N1Cc2cc([101O:1][101CH2:1]CCN(C)c3cc(Cl)c(C[100NH:0][100C:0](=O)N4CCCC(n5nc(-c6ccc(Oc7ccc(F)cc7F)cc6)c(C(N)=O)c5N)C4)c(Cl)c3C)ccc2CC1C(=O)NC1CCCc2ccccc21)C(C)(C)C

> <Shape>
0.211

> <Color>
0.056

> <Negative vol penalty>
0.000

$$$$

  -OEChem-04052316273D

 93102  0     1  0  0  0  0  0999 V2000
  -34.8295   -9.6036   19.2513 C   0  0  0  0  0  0  0  0  0  0  0  0
  -34.3754  -10.9053   19.0653 C   0  0  0  0  0  0  0  0  0  0  0  0
  -19.5881  -23.7010   22.5960 C   0  0  0  0  0  0  0  0  0  0  0  0
  -20.2635  -24.5900   24.7386 C   0  0  0  0  0  0  0  0  0  0  0  0
  -33.9550   -8.5307   19.0836 C   0  0  0  0  0  0  0  0  0  0  0  0
  -33.0466  -11.1349   18.7102 C   0  0  0  0  0  0  0  0  0  0  0  0
  -30.9468  -14.8969   21.3717 C   0  0  0  0  0  0  0  0  0  0  0  0
  -19.7259  -22.4042   23.0907 C   0  0  0  0  0  0  0  0  0  0  0  0
  -20.4012  -23.2931   25.2333 C   0  0  0  0  0  0  0  0  0  0  0  0
  -31.2657  -16.2001   20.9927 C   0  0  0  0  0  0  0  0  0  0  0  0
  -17.9557  -20.2790   25.0357 C   0  0  0  0  0  0  0  0  0  0  0  0
  -16.9405  -19.3656   24.7516 C   0  0  0  0  0  0  0  0  0  0  0  0
  -29.1695  -16.3627   19.8100 C   0  0  0  0  0  0  0  0  0  0  0  0
  -18.5332  -17.9491   23.6142 C   0  0  0  0  0  0  0  0  0  0  0  0
  -27.1325  -32.0642   25.6395 C   0  0  0  0  0  0  0  0  0  0  0  0
  -19.8570  -24.7940   23.4199 C   0  0  0  0  0  0  0  0  0  0  0  0
  -18.5602  -26.9378   22.9402 C   0  0  0  0  0  0  0  0  0  0  0  0
  -32.6124   -8.7478   18.7357 C   0  0  0  0  0  0  0  0  0  0  0  0
  -29.7396  -14.3120   20.9629 C   0  0  0  0  0  0  0  0  0  0  0  0
  -32.1536  -10.0639   18.5363 C   0  0  0  0  0  0  0  0  0  0  0  0
  -28.8365  -15.0528   20.1873 C   0  0  0  0  0  0  0  0  0  0  0  0
  -25.1381  -31.2810   23.9500 C   0  0  0  0  0  0  0  0  0  0  0  0
  -20.1324  -22.2002   24.4093 C   0  0  0  0  0  0  0  0  0  0  0  0
  -30.3783  -16.9323   20.2093 C   0  0  0  0  0  0  0  0  0  0  0  0
  -19.2597  -20.0274   24.6090 C   0  0  0  0  0  0  0  0  0  0  0  0
  -17.2293  -18.2006   24.0409 C   0  0  0  0  0  0  0  0  0  0  0  0
  -19.5484  -18.8625   23.8982 C   0  0  0  0  0  0  0  0  0  0  0  0
  -25.8200  -32.2549   26.0406 C   0  0  0  0  0  0  0  0  0  0  0  0
  -24.8097  -31.8531   25.1740 C   0  0  0  0  0  0  0  0  0  0  0  0
  -19.7155  -26.1339   22.9094 C   0  0  0  0  0  0  0  0  0  0  0  0
  -26.4811  -31.1341   23.6424 C   0  0  0  0  0  0  0  0  0  0  0  0
  -18.9414  -28.1101   22.3346 C   0  0  0  0  0  0  0  0  0  0  0  0
  -17.2589  -26.6505   23.4691 C   0  0  0  0  0  0  0  0  0  0  0  0
  -28.9547  -11.7948   19.1877 C   0  0  0  0  0  0  0  0  0  0  0  0
  -25.9485  -12.5455   20.1475 C   0  0  0  0  0  0  0  0  0  0  0  0
  -23.7813  -14.9194   21.2943 C   0  0  0  0  0  0  0  0  0  0  0  0
  -24.2218  -30.8215   21.6487 C   0  0  0  0  0  0  0  0  0  0  0  0
  -31.7164   -7.5540   18.5192 C   0  0  0  0  0  0  0  0  0  0  0  0
  -29.3985  -12.9146   21.4024 C   0  0  0  0  0  0  0  0  0  0  0  0
  -27.5184  -14.4779   19.7393 C   0  0  0  0  0  0  0  0  0  0  0  0
  -30.2301   -7.9019   18.5087 C   0  0  0  0  0  0  0  0  0  0  0  0
  -21.9935  -29.8139   19.0610 C   0  0  0  0  0  0  0  0  0  0  0  0
  -29.9743   -9.1249   17.6338 C   0  0  0  0  0  0  0  0  0  0  0  0
  -28.2505  -27.8230   22.1676 C   0  0  0  0  0  0  0  0  0  0  0  0
  -27.7359  -28.9132   19.9467 C   0  0  0  0  0  0  0  0  0  0  0  0
  -21.0475  -28.8336   19.7584 C   0  0  0  0  0  0  0  0  0  0  0  0
  -28.8031  -29.1478   22.6946 C   0  0  0  0  0  0  0  0  0  0  0  0
  -28.2755  -30.2439   20.4733 C   0  0  0  0  0  0  0  0  0  0  0  0
  -23.4235  -29.6918   19.5844 C   0  0  0  0  0  0  0  0  0  0  0  0
  -22.6158  -28.8146   21.7402 C   0  0  0  0  0  0  0  0  0  0  0  0
  -30.7131  -10.3548   18.1750 C   0  0  1  0  0  0  0  0  0  0  0  0
  -28.3715  -12.2381   20.4995 C   0  0  1  0  0  0  0  0  0  0  0  0
  -28.3932  -27.7157   20.6443 C   0  0  0  0  0  0  0  0  0  0  0  0
  -21.1509  -28.9453   21.2922 C   0  0  2  0  0  0  0  0  0  0  0  0
  -28.1852  -30.3623   21.9974 C   0  0  0  0  0  0  0  0  0  0  0  0
  -21.3809  -15.2429   21.9504 C   0  0  0  0  0  0  0  0  0  0  0  0
  -25.1498  -12.5736   17.2028 C   0  0  0  0  0  0  0  0  0  0  0  0
  -23.0666  -13.8015   17.8514 C   0  0  0  0  0  0  0  0  0  0  0  0
  -23.4807  -11.5024   18.7262 C   0  0  0  0  0  0  0  0  0  0  0  0
  -24.5175  -15.6646   24.0622 C   0  0  0  0  0  0  0  0  0  0  0  0
  -27.7972  -26.4034   20.1384 C   0  0  0  0  0  0  0  0  0  0  0  0
  -28.9481  -21.5404   19.7810 C   0  0  0  0  0  0  0  0  0  0  0  0
  -29.4181  -22.9518   20.1355 C   0  0  0  0  0  0  0  0  0  0  0  0
  -30.0714  -20.5203   19.9535 C   0  0  0  0  0  0  0  0  0  0  0  0
  -28.3041  -23.9668   19.9269 C   0  0  0  0  0  0  0  0  0  0  0  0
  -29.5993  -19.1069   19.6435 C   0  0  0  0  0  0  0  0  0  1  0  0
  -24.8477  -13.4329   19.6186 C   0  0  1  0  0  0  0  0  0  0  0  0
  -22.7813  -14.9028   22.4362 C   0  0  2  0  0  0  0  0  0  0  0  0
  -24.1618  -12.8380   18.3564 C   0  0  0  0  0  0  0  0  0  0  0  0
  -27.4903  -31.5122   24.4585 N   0  0  0  0  0  0  0  0  0  0  0  0
  -20.7528  -26.7439   22.3298 N   0  0  0  0  0  0  0  0  0  0  0  0
  -20.2507  -27.9435   21.9908 N   0  0  0  0  0  0  0  0  0  0  0  0
  -27.2332  -13.1055   20.1894 N   0  0  0  0  0  0  0  0  0  0  0  0
  -23.4440  -29.8116   21.0439 N   0  0  0  0  0  0  0  0  0  0  0  0
  -18.2809  -29.2569   22.0677 N   0  0  0  0  0  0  0  0  0  0  0  0
  -17.0385  -25.3977   24.0576 N   0  0  0  0  0  0  0  0  0  0  0  0
  -24.1371  -30.8590   23.0401 N   0  0  0  0  0  0  0  0  0  0  0  0
  -26.8211  -30.5668   22.4284 N   0  0  0  0  0  0  0  0  0  0  0  0
  -30.0079  -10.9087   19.3110 N   0  0  0  0  0  0  0  0  0  0  0  0
  -23.9405  -13.6684   20.7367 N   0  0  0  0  0  0  0  0  0  0  0  0
  -23.1702  -15.8932   23.4797 N   0  3  0  0  0  0  0  0  0  0  0  0
  -28.7900  -25.3099   20.3250 N   0  3  0  0  0  0  0  0  0  0  0  0
  -16.3148  -27.4740   23.4066 O   0  0  0  0  0  0  0  0  0  0  0  0
  -28.4831  -12.2236   18.1411 O   0  0  0  0  0  0  0  0  0  0  0  0
  -25.6772  -11.4003   20.5167 O   0  0  0  0  0  0  0  0  0  0  0  0
  -24.3603  -15.9406   20.9306 O   0  0  0  0  0  0  0  0  0  0  0  0
  -24.8908  -31.6134   20.9799 O   0  0  0  0  0  0  0  0  0  0  0  0
  -20.2666  -20.9348   24.8924 O   0  0  0  0  0  0  0  0  0  0  0  0
  -30.6874  -18.2043   19.8374 O   0  0  0  0  0  0  0  0  0  1  0  0
  -16.2545  -17.3229   23.7696 F   0  0  0  0  0  0  0  0  0  0  0  0
  -20.7995  -18.6148   23.4867 F   0  0  0  0  0  0  0  0  0  0  0  0
  -25.5226  -32.9733   27.5784 Cl  0  0  0  0  0  0  0  0  0  0  0  0
  -23.1414  -32.0596   25.6071 Cl  0  0  0  0  0  0  0  0  0  0  0  0
  1  2  1  0  0  0  0
  1  5  2  0  0  0  0
  2  6  2  0  0  0  0
  3  8  2  0  0  0  0
  3 16  1  0  0  0  0
  4  9  1  0  0  0  0
  4 16  2  0  0  0  0
  5 18  1  0  0  0  0
  6 20  1  0  0  0  0
  7 10  2  0  0  0  0
  7 19  1  0  0  0  0
  8 23  1  0  0  0  0
  9 23  2  0  0  0  0
 10 24  1  0  0  0  0
 11 12  2  0  0  0  0
 11 25  1  0  0  0  0
 12 26  1  0  0  0  0
 13 21  1  0  0  0  0
 13 24  2  0  0  0  0
 14 26  2  0  0  0  0
 14 27  1  0  0  0  0
 15 28  1  0  0  0  0
 15 70  2  0  0  0  0
 16 30  1  0  0  0  0
 17 30  1  0  0  0  0
 17 32  2  0  0  0  0
 17 33  1  0  0  0  0
 18 20  2  0  0  0  0
 18 38  1  0  0  0  0
 19 21  2  0  0  0  0
 19 39  1  0  0  0  0
 20 51  1  0  0  0  0
 21 40  1  0  0  0  0
 22 29  1  0  0  0  0
 22 31  2  0  0  0  0
 22 77  1  0  0  0  0
 23 88  1  0  0  0  0
 24 89  1  0  0  0  0
 25 27  2  0  0  0  0
 25 88  1  0  0  0  0
 26 90  1  0  0  0  0
 27 91  1  0  0  0  0
 28 29  2  0  0  0  0
 28 92  1  0  0  0  0
 29 93  1  0  0  0  0
 30 71  2  0  0  0  0
 31 70  1  0  0  0  0
 31 78  1  0  0  0  0
 32 72  1  0  0  0  0
 32 75  1  0  0  0  0
 33 76  1  0  0  0  0
 33 83  2  0  0  0  0
 34 52  1  0  0  0  0
 34 79  1  0  0  0  0
 34 84  2  0  0  0  0
 35 67  1  0  0  0  0
 35 73  1  0  0  0  0
 35 85  2  0  0  0  0
 36 68  1  0  0  0  0
 36 80  1  0  0  0  0
 36 86  2  0  0  0  0
 37 74  1  0  0  0  0
 37 77  1  0  0  0  0
 37 87  2  0  0  0  0
 38 41  1  0  0  0  0
 39 52  1  0  0  0  0
 40 73  1  0  0  0  0
 41 43  1  0  0  0  0
 42 46  1  0  0  0  0
 42 49  1  0  0  0  0
 43 51  1  0  0  0  0
 44 47  1  0  0  0  0
 44 53  1  0  0  0  0
 45 48  1  0  0  0  0
 45 53  1  0  0  0  0
 46 54  1  0  0  0  0
 47 55  1  0  0  0  0
 48 55  1  0  0  0  0
 49 74  1  0  0  0  0
 50 54  1  0  0  0  0
 50 74  1  0  0  0  0
 51 79  1  0  0  0  0
 52 73  1  0  0  0  0
 53 61  1  0  0  0  0
 54 72  1  0  0  0  0
 55 78  1  0  0  0  0
 56 68  1  0  0  0  0
 57 69  1  0  0  0  0
 58 69  1  0  0  0  0
 59 69  1  0  0  0  0
 60 81  1  0  0  0  0
 61 82  1  0  0  0  0
 62 63  1  0  0  0  0
 62 64  1  0  0  0  0
 63 65  1  0  0  0  0
 64 66  1  0  0  0  0
 65 82  1  0  0  0  0
 66 89  1  0  0  0  0
 67 69  1  0  0  0  0
 67 80  1  0  0  0  0
 68 81  1  0  0  0  0
 71 72  1  0  0  0  0
M  CHG  2  81   1  82   1
M  ISO  4  37 100  66 101  77 100  89 101
M  END
> <Batch ID>
0026

> <Smiles>
CNC(C)C(=O)NC(C(=O)N1Cc2cc([101O:1][101CH2:1]CCCCNCC3CCC(Nc4ncc(Cl)c(Cl)c4[100NH:0][100C:0](=O)N4CCCC(n5nc(-c6ccc(Oc7ccc(F)cc7F)cc6)c(C(N)=O)c5N)C4)CC3)ccc2CC1C(=O)NC1CCCc2ccccc21)C(C)(C)C

> <Shape>
0.298

> <Color>
0.046

> <Negative vol penalty>
0.000

$$$$

  -OEChem-04052316273D

 84 92  0     1  0  0  0  0  0999 V2000
  -17.3089  -30.5178   24.1805 C   0  0  0  0  0  0  0  0  0  0  0  0
  -18.6773  -30.7592   24.2492 C   0  0  0  0  0  0  0  0  0  0  0  0
  -24.4296  -12.7824   19.5855 C   0  0  0  0  0  0  0  0  0  0  0  0
  -25.3644  -13.4837   21.7001 C   0  0  0  0  0  0  0  0  0  0  0  0
  -16.8370  -29.3548   23.5733 C   0  0  0  0  0  0  0  0  0  0  0  0
  -19.5746  -29.8371   23.7118 C   0  0  0  0  0  0  0  0  0  0  0  0
  -25.9494  -29.4925   20.4621 C   0  0  0  0  0  0  0  0  0  0  0  0
  -25.2362  -11.6447   19.6062 C   0  0  0  0  0  0  0  0  0  0  0  0
  -26.1710  -12.3458   21.7208 C   0  0  0  0  0  0  0  0  0  0  0  0
  -27.1790  -28.8441   20.5686 C   0  0  0  0  0  0  0  0  0  0  0  0
  -27.3113   -8.7365   18.9277 C   0  0  0  0  0  0  0  0  0  0  0  0
  -27.9755   -8.3891   17.7514 C   0  0  0  0  0  0  0  0  0  0  0  0
  -26.2460  -26.9079   19.4733 C   0  0  0  0  0  0  0  0  0  0  0  0
  -29.1244  -10.5143   17.7723 C   0  0  0  0  0  0  0  0  0  0  0  0
  -24.4937  -13.7020   20.6324 C   0  0  0  0  0  0  0  0  0  0  0  0
  -22.3636  -15.0103   21.1411 C   0  0  0  0  0  0  0  0  0  0  0  0
  -17.7286  -28.4226   23.0196 C   0  0  0  0  0  0  0  0  0  0  0  0
  -24.8540  -28.8484   19.8691 C   0  0  0  0  0  0  0  0  0  0  0  0
  -19.1143  -28.6599   23.0978 C   0  0  0  0  0  0  0  0  0  0  0  0
  -25.0043  -27.5513   19.3581 C   0  0  0  0  0  0  0  0  0  0  0  0
  -28.6263  -22.9405   22.0638 C   0  0  0  0  0  0  0  0  0  0  0  0
  -27.4410  -22.4975   24.1219 C   0  0  0  0  0  0  0  0  0  0  0  0
  -26.5486  -21.7084   22.0200 C   0  0  0  0  0  0  0  0  0  0  0  0
  -26.1069  -11.4263   20.6739 C   0  0  0  0  0  0  0  0  0  0  0  0
  -27.3266  -27.5505   20.0768 C   0  0  0  0  0  0  0  0  0  0  0  0
  -27.5536   -9.9729   19.5263 C   0  0  0  0  0  0  0  0  0  0  0  0
  -28.8821   -9.2779   17.1737 C   0  0  0  0  0  0  0  0  0  0  0  0
  -28.4602  -10.8618   18.9486 C   0  0  0  0  0  0  0  0  0  0  0  0
  -27.6363  -22.2667   21.3486 C   0  0  0  0  0  0  0  0  0  0  0  0
  -28.5287  -23.0558   23.4505 C   0  0  0  0  0  0  0  0  0  0  0  0
  -26.4509  -21.8238   23.4067 C   0  0  0  0  0  0  0  0  0  0  0  0
  -23.6611  -14.8778   20.6113 C   0  0  0  0  0  0  0  0  0  0  0  0
  -22.0118  -16.3093   20.8669 C   0  0  0  0  0  0  0  0  0  0  0  0
  -21.5493  -14.0454   21.8206 C   0  0  0  0  0  0  0  0  0  0  0  0
  -21.9709  -27.9524   20.8636 C   0  0  0  0  0  0  0  0  0  0  0  0
  -21.5586  -27.1877   17.7383 C   0  0  0  0  0  0  0  0  0  0  0  0
  -22.9764  -26.3503   14.7490 C   0  0  0  0  0  0  0  0  0  0  0  0
  -25.1822  -21.2897   19.9454 C   0  0  0  0  0  0  0  0  0  0  0  0
  -17.1733  -27.1572   22.4154 C   0  0  0  0  0  0  0  0  0  0  0  0
  -23.5416  -29.5715   19.7378 C   0  0  0  0  0  0  0  0  0  0  0  0
  -23.8648  -26.8235   18.6944 C   0  0  0  0  0  0  0  0  0  0  0  0
  -18.1747  -26.4109   21.5376 C   0  0  0  0  0  0  0  0  0  0  0  0
  -22.8241  -19.8236   17.7167 C   0  0  0  0  0  0  0  0  0  0  0  0
  -19.5253  -26.3063   22.2389 C   0  0  0  0  0  0  0  0  0  0  0  0
  -22.6485  -18.4029   18.2579 C   0  0  0  0  0  0  0  0  0  0  0  0
  -24.2662  -20.3087   17.8541 C   0  0  0  0  0  0  0  0  0  0  0  0
  -24.6558  -18.7800   19.7463 C   0  0  0  0  0  0  0  0  0  0  0  0
  -20.1181  -27.6954   22.5043 C   0  0  1  0  0  0  0  0  0  0  0  0
  -22.3532  -28.6285   19.5773 C   0  0  1  0  0  0  0  0  0  0  0  0
  -23.2058  -18.2721   19.6889 C   0  0  2  0  0  0  0  0  0  0  0  0
  -27.3374  -22.6218   25.6123 C   0  0  0  0  0  0  0  0  0  0  0  0
  -22.3817  -25.7482   12.3866 C   0  0  0  0  0  0  0  0  0  0  0  0
  -20.7373  -24.3970   18.6588 C   0  0  0  0  0  0  0  0  0  0  0  0
  -21.0803  -23.5975   16.3112 C   0  0  0  0  0  0  0  0  0  0  0  0
  -19.3533  -25.3307   16.7969 C   0  0  0  0  0  0  0  0  0  0  0  0
  -24.4311  -28.6883   13.6642 C   0  0  0  0  0  0  0  0  0  0  0  0
  -29.7845  -23.5295   21.2989 C   0  0  0  0  0  0  0  0  0  0  0  0
  -29.6990  -25.0473   21.1240 C   0  0  0  0  0  0  0  0  0  0  0  0
  -28.4990  -25.4930   20.2965 C   0  0  0  0  0  0  0  0  0  1  0  0
  -21.8006  -25.9572   16.8978 C   0  0  1  0  0  0  0  0  0  0  0  0
  -22.7453  -26.8735   13.3429 C   0  0  2  0  0  0  0  0  0  0  0  0
  -20.7640  -24.8333   17.1804 C   0  0  0  0  0  0  0  0  0  0  0  0
  -24.1035  -16.0028   20.0433 N   0  0  0  0  0  0  0  0  0  0  0  0
  -23.0782  -16.8545   20.2145 N   0  0  0  0  0  0  0  0  0  0  0  0
  -22.5999  -27.5703   18.5957 N   0  0  0  0  0  0  0  0  0  0  0  0
  -24.7248  -20.1585   19.2369 N   0  0  0  0  0  0  0  0  0  0  0  0
  -20.8972  -17.0269   21.1224 N   0  0  0  0  0  0  0  0  0  0  0  0
  -22.0647  -12.7573   22.0190 N   0  0  0  0  0  0  0  0  0  0  0  0
  -25.5617  -21.0307   21.2620 N   0  0  0  0  0  0  0  0  0  0  0  0
  -20.6893  -28.2413   21.2917 N   0  0  0  0  0  0  0  0  0  0  0  0
  -21.8287  -26.4092   15.5110 N   0  0  0  0  0  0  0  0  0  0  0  0
  -23.9732  -27.5460   12.8320 N   0  3  0  0  0  0  0  0  0  0  0  0
  -20.3923  -14.3127   22.2247 O   0  0  0  0  0  0  0  0  0  0  0  0
  -22.7785  -27.2215   21.4252 O   0  0  0  0  0  0  0  0  0  0  0  0
  -20.4881  -27.7913   17.6325 O   0  0  0  0  0  0  0  0  0  0  0  0
  -24.0652  -25.9280   15.1320 O   0  0  0  0  0  0  0  0  0  0  0  0
  -25.2077  -22.4109   19.4313 O   0  0  0  0  0  0  0  0  0  0  0  0
  -26.8940  -10.3161   20.6945 O   0  0  0  0  0  0  0  0  0  0  0  0
  -28.5256  -26.9150   20.1801 O   0  0  0  0  0  0  0  0  0  1  0  0
  -29.5210   -8.9435   16.0449 F   0  0  0  0  0  0  0  0  0  0  0  0
  -28.6979  -12.0505   19.5198 F   0  0  0  0  0  0  0  0  0  0  0  0
  -27.7322  -22.1567   20.0146 F   0  0  0  0  0  0  0  0  0  0  0  0
  -29.7628  -23.8937   24.3328 Cl  0  0  0  0  0  0  0  0  0  0  0  0
  -25.0981  -21.1289   24.2415 Cl  0  0  0  0  0  0  0  0  0  0  0  0
  1  2  1  0  0  0  0
  1  5  2  0  0  0  0
  2  6  2  0  0  0  0
  3  8  2  0  0  0  0
  3 15  1  0  0  0  0
  4  9  1  0  0  0  0
  4 15  2  0  0  0  0
  5 17  1  0  0  0  0
  6 19  1  0  0  0  0
  7 10  2  0  0  0  0
  7 18  1  0  0  0  0
  8 24  1  0  0  0  0
  9 24  2  0  0  0  0
 10 25  1  0  0  0  0
 11 12  2  0  0  0  0
 11 26  1  0  0  0  0
 12 27  1  0  0  0  0
 13 20  1  0  0  0  0
 13 25  2  0  0  0  0
 14 27  2  0  0  0  0
 14 28  1  0  0  0  0
 15 32  1  0  0  0  0
 16 32  1  0  0  0  0
 16 33  2  0  0  0  0
 16 34  1  0  0  0  0
 17 19  2  0  0  0  0
 17 39  1  0  0  0  0
 18 20  2  0  0  0  0
 18 40  1  0  0  0  0
 19 48  1  0  0  0  0
 20 41  1  0  0  0  0
 21 29  1  0  0  0  0
 21 30  2  0  0  0  0
 21 57  1  0  0  0  0
 22 30  1  0  0  0  0
 22 31  2  0  0  0  0
 22 51  1  0  0  0  0
 23 29  2  0  0  0  0
 23 31  1  0  0  0  0
 23 69  1  0  0  0  0
 24 78  1  0  0  0  0
 25 79  1  0  0  0  0
 26 28  2  0  0  0  0
 26 78  1  0  0  0  0
 27 80  1  0  0  0  0
 28 81  1  0  0  0  0
 29 82  1  0  0  0  0
 30 83  1  0  0  0  0
 31 84  1  0  0  0  0
 32 63  2  0  0  0  0
 33 64  1  0  0  0  0
 33 67  1  0  0  0  0
 34 68  1  0  0  0  0
 34 73  2  0  0  0  0
 35 49  1  0  0  0  0
 35 70  1  0  0  0  0
 35 74  2  0  0  0  0
 36 60  1  0  0  0  0
 36 65  1  0  0  0  0
 36 75  2  0  0  0  0
 37 61  1  0  0  0  0
 37 71  1  0  0  0  0
 37 76  2  0  0  0  0
 38 66  1  0  0  0  0
 38 69  1  0  0  0  0
 38 77  2  0  0  0  0
 39 42  1  0  0  0  0
 40 49  1  0  0  0  0
 41 65  1  0  0  0  0
 42 44  1  0  0  0  0
 43 45  1  0  0  0  0
 43 46  1  0  0  0  0
 44 48  1  0  0  0  0
 45 50  1  0  0  0  0
 46 66  1  0  0  0  0
 47 50  1  0  0  0  0
 47 66  1  0  0  0  0
 48 70  1  0  0  0  0
 49 65  1  0  0  0  0
 50 64  1  0  0  0  0
 52 61  1  0  0  0  0
 53 62  1  0  0  0  0
 54 62  1  0  0  0  0
 55 62  1  0  0  0  0
 56 72  1  0  0  0  0
 57 58  1  0  0  0  0
 58 59  1  0  0  0  0
 59 79  1  0  0  0  0
 60 62  1  0  0  0  0
 60 71  1  0  0  0  0
 61 72  1  0  0  0  0
 63 64  1  0  0  0  0
M  CHG  1  72   1
M  ISO  4  38 100  59 101  69 100  79 101
M  END
> <Batch ID>
0026

> <Smiles>
CNC(C)C(=O)NC(C(=O)N1Cc2cc([101O:1][101CH2:1]CCc3c(F)c([100NH:0][100C:0](=O)N4CCCC(n5nc(-c6ccc(Oc7ccc(F)cc7F)cc6)c(C(N)=O)c5N)C4)c(Cl)c(C)c3Cl)ccc2CC1C(=O)NC1CCCc2ccccc21)C(C)(C)C

> <Shape>
0.199

> <Color>
0.113

> <Negative vol penalty>
0.000

$$$$

  -OEChem-04052316273D

 90 98  0     1  0  0  0  0  0999 V2000
  -29.1357   -5.1510   18.4845 C   0  0  0  0  0  0  0  0  0  0  0  0
  -28.3476   -6.0862   19.1475 C   0  0  0  0  0  0  0  0  0  0  0  0
  -23.9071  -29.5097   21.8680 C   0  0  0  0  0  0  0  0  0  0  0  0
  -25.7306  -31.0701   21.5906 C   0  0  0  0  0  0  0  0  0  0  0  0
  -30.5209   -5.3056   18.4526 C   0  0  0  0  0  0  0  0  0  0  0  0
  -28.9446   -7.1762   19.7801 C   0  0  0  0  0  0  0  0  0  0  0  0
  -26.5272  -11.5271   18.8469 C   0  0  0  0  0  0  0  0  0  0  0  0
  -23.2988  -30.3810   22.7715 C   0  0  0  0  0  0  0  0  0  0  0  0
  -25.1223  -31.9415   22.4941 C   0  0  0  0  0  0  0  0  0  0  0  0
  -25.3520  -11.7676   19.5574 C   0  0  0  0  0  0  0  0  0  0  0  0
  -24.2295  -34.4176   25.0004 C   0  0  0  0  0  0  0  0  0  0  0  0
  -25.0342  -35.0050   25.9766 C   0  0  0  0  0  0  0  0  0  0  0  0
  -26.5680  -13.1971   21.0730 C   0  0  0  0  0  0  0  0  0  0  0  0
  -26.5969  -20.1725   21.2983 C   0  0  0  0  0  0  0  0  0  0  0  0
  -25.6037  -32.8155   26.8245 C   0  0  0  0  0  0  0  0  0  0  0  0
  -25.1230  -29.8542   21.2775 C   0  0  0  0  0  0  0  0  0  0  0  0
  -25.5734  -28.9153   18.9487 C   0  0  0  0  0  0  0  0  0  0  0  0
  -31.1344   -6.4032   19.0768 C   0  0  0  0  0  0  0  0  0  0  0  0
  -27.7358  -12.1121   19.2513 C   0  0  0  0  0  0  0  0  0  0  0  0
  -30.3395   -7.3449   19.7576 C   0  0  0  0  0  0  0  0  0  0  0  0
  -27.7566  -12.9645   20.3645 C   0  0  0  0  0  0  0  0  0  0  0  0
  -25.7286  -20.4596   23.9339 C   0  0  0  0  0  0  0  0  0  0  0  0
  -25.5865  -19.2345   23.2823 C   0  0  0  0  0  0  0  0  0  0  0  0
  -26.7390  -21.3976   21.9498 C   0  0  0  0  0  0  0  0  0  0  0  0
  -23.9064  -31.5969   23.0845 C   0  0  0  0  0  0  0  0  0  0  0  0
  -25.3728  -12.6004   20.6724 C   0  0  0  0  0  0  0  0  0  0  0  0
  -24.1118  -33.0292   24.9362 C   0  0  0  0  0  0  0  0  0  0  0  0
  -25.7214  -34.2039   26.8886 C   0  0  0  0  0  0  0  0  0  0  0  0
  -24.7989  -32.2281   25.8482 C   0  0  0  0  0  0  0  0  0  0  0  0
  -26.0206  -19.0909   21.9645 C   0  0  0  0  0  0  0  0  0  0  0  0
  -26.3049  -21.5412   23.2676 C   0  0  0  0  0  0  0  0  0  0  0  0
  -25.7521  -28.9543   20.3446 C   0  0  0  0  0  0  0  0  0  0  0  0
  -26.3863  -27.8917   18.5269 C   0  0  0  0  0  0  0  0  0  0  0  0
  -24.7466  -29.7315   18.1086 C   0  0  0  0  0  0  0  0  0  0  0  0
  -30.5427  -11.0017   20.2473 C   0  0  0  0  0  0  0  0  0  0  0  0
  -31.3904  -14.1296   20.1064 C   0  0  0  0  0  0  0  0  0  0  0  0
  -30.4174  -17.4002   20.1595 C   0  0  0  0  0  0  0  0  0  0  0  0
  -28.5225  -23.1135   21.6853 C   0  0  0  0  0  0  0  0  0  0  0  0
  -32.6392   -6.5025   19.0558 C   0  0  0  0  0  0  0  0  0  0  0  0
  -28.9896  -11.8639   18.4583 C   0  0  0  0  0  0  0  0  0  0  0  0
  -29.0243  -13.6330   20.8277 C   0  0  0  0  0  0  0  0  0  0  0  0
  -33.1635   -7.8861   19.4313 C   0  0  0  0  0  0  0  0  0  0  0  0
  -30.4017  -25.5686   19.6725 C   0  0  0  0  0  0  0  0  0  0  0  0
  -32.4546   -8.4054   20.6782 C   0  0  0  0  0  0  0  0  0  0  0  0
  -29.4223  -26.7355   19.5575 C   0  0  0  0  0  0  0  0  0  0  0  0
  -30.2022  -24.7868   20.9675 C   0  0  0  0  0  0  0  0  0  0  0  0
  -27.8250  -25.4735   21.0546 C   0  0  0  0  0  0  0  0  0  0  0  0
  -30.9479   -8.5539   20.4346 C   0  0  1  0  0  0  0  0  0  0  0  0
  -30.2630  -12.1026   19.2638 C   0  0  1  0  0  0  0  0  0  0  0  0
  -27.9723  -26.2549   19.7402 C   0  0  1  0  0  0  0  0  0  0  0  0
  -25.2566  -20.5950   25.3492 C   0  0  0  0  0  0  0  0  0  0  0  0
  -31.3403  -19.7318   20.0627 C   0  0  0  0  0  0  0  0  0  0  0  0
  -32.3244  -13.8775   23.0003 C   0  0  0  0  0  0  0  0  0  0  0  0
  -32.3342  -16.3772   23.1416 C   0  0  0  0  0  0  0  0  0  0  0  0
  -33.8400  -15.2150   21.5277 C   0  0  0  0  0  0  0  0  0  0  0  0
  -21.1930  -17.4196   24.9206 C   0  0  0  0  0  0  0  0  0  0  0  0
  -23.2393  -16.9262   26.2916 C   0  0  0  0  0  0  0  0  0  0  0  0
  -26.8457  -22.7982   19.8801 C   0  0  0  0  0  0  0  0  0  0  0  0
  -28.9144  -18.0168   17.6857 C   0  0  0  0  0  0  0  0  0  0  0  0
  -24.9598  -18.0715   24.0129 C   0  0  0  0  0  0  0  0  0  0  0  0
  -23.4327  -18.2114   24.0810 C   0  0  0  0  0  0  0  0  0  0  0  0
  -22.6394  -14.4820   22.0918 C   0  0  0  0  0  0  0  0  0  0  0  0
  -22.3872  -15.8286   22.7530 C   0  0  0  0  0  0  0  0  0  0  0  0
  -24.1127  -14.0998   22.0215 C   0  0  0  0  0  0  0  0  0  1  0  0
  -31.3547  -15.2914   21.0698 C   0  0  1  0  0  0  0  0  0  0  0  0
  -30.7718  -18.5713   19.2609 C   0  0  2  0  0  0  0  0  0  0  0  0
  -32.4396  -15.1763   22.1775 C   0  0  0  0  0  0  0  0  0  0  0  0
  -22.6943  -17.1114   24.8740 C   0  0  0  0  0  0  0  0  0  0  0  0
  -26.6110  -28.0288   20.7804 N   0  0  0  0  0  0  0  0  0  0  0  0
  -26.9791  -27.3987   19.6519 N   0  0  0  0  0  0  0  0  0  0  0  0
  -30.2253  -13.3541   20.0231 N   0  0  0  0  0  0  0  0  0  0  0  0
  -28.8066  -24.3811   21.1389 N   0  0  0  0  0  0  0  0  0  0  0  0
  -26.6445  -27.3742   17.3071 N   0  0  0  0  0  0  0  0  0  0  0  0
  -23.9751  -30.7380   18.7053 N   0  0  0  0  0  0  0  0  0  0  0  0
  -30.6752   -9.7527   19.6711 N   0  0  0  0  0  0  0  0  0  0  0  0
  -31.4562  -16.4987   20.2571 N   0  0  0  0  0  0  0  0  0  0  0  0
  -27.3400  -22.4935   21.2268 N   0  0  0  0  0  0  0  0  0  0  0  0
  -29.5627  -19.0504   18.5333 N   0  3  0  0  0  0  0  0  0  0  0  0
  -22.8492  -15.8134   24.1608 N   0  3  0  0  0  0  0  0  0  0  0  0
  -24.6810  -29.5623   16.8674 O   0  0  0  0  0  0  0  0  0  0  0  0
  -30.6330  -11.2660   21.4405 O   0  0  0  0  0  0  0  0  0  0  0  0
  -32.4119  -13.9222   19.4468 O   0  0  0  0  0  0  0  0  0  0  0  0
  -29.3294  -17.2975   20.7218 O   0  0  0  0  0  0  0  0  0  0  0  0
  -29.2809  -22.5672   22.4953 O   0  0  0  0  0  0  0  0  0  0  0  0
  -23.3130  -32.4476   23.9660 O   0  0  0  0  0  0  0  0  0  0  0  0
  -24.2273  -12.8364   21.3681 O   0  0  0  0  0  0  0  0  0  1  0  0
  -26.4953  -34.7680   27.8251 F   0  0  0  0  0  0  0  0  0  0  0  0
  -24.6907  -30.8937   25.7908 F   0  0  0  0  0  0  0  0  0  0  0  0
  -25.8580  -17.5933   21.1207 Cl  0  0  0  0  0  0  0  0  0  0  0  0
  -26.4803  -23.0640   24.0792 Cl  0  0  0  0  0  0  0  0  0  0  0  0
  1  2  1  0  0  0  0
  1  5  2  0  0  0  0
  2  6  2  0  0  0  0
  3  8  2  0  0  0  0
  3 16  1  0  0  0  0
  4  9  1  0  0  0  0
  4 16  2  0  0  0  0
  5 18  1  0  0  0  0
  6 20  1  0  0  0  0
  7 10  2  0  0  0  0
  7 19  1  0  0  0  0
  8 25  1  0  0  0  0
  9 25  2  0  0  0  0
 10 26  1  0  0  0  0
 11 12  2  0  0  0  0
 11 27  1  0  0  0  0
 12 28  1  0  0  0  0
 13 21  1  0  0  0  0
 13 26  2  0  0  0  0
 14 24  1  0  0  0  0
 14 30  2  0  0  0  0
 15 28  2  0  0  0  0
 15 29  1  0  0  0  0
 16 32  1  0  0  0  0
 17 32  1  0  0  0  0
 17 33  2  0  0  0  0
 17 34  1  0  0  0  0
 18 20  2  0  0  0  0
 18 39  1  0  0  0  0
 19 21  2  0  0  0  0
 19 40  1  0  0  0  0
 20 48  1  0  0  0  0
 21 41  1  0  0  0  0
 22 23  2  0  0  0  0
 22 31  1  0  0  0  0
 22 51  1  0  0  0  0
 23 30  1  0  0  0  0
 23 60  1  0  0  0  0
 24 31  2  0  0  0  0
 24 77  1  0  0  0  0
 25 85  1  0  0  0  0
 26 86  1  0  0  0  0
 27 29  2  0  0  0  0
 27 85  1  0  0  0  0
 28 87  1  0  0  0  0
 29 88  1  0  0  0  0
 30 89  1  0  0  0  0
 31 90  1  0  0  0  0
 32 69  2  0  0  0  0
 33 70  1  0  0  0  0
 33 73  1  0  0  0  0
 34 74  1  0  0  0  0
 34 80  2  0  0  0  0
 35 49  1  0  0  0  0
 35 75  1  0  0  0  0
 35 81  2  0  0  0  0
 36 65  1  0  0  0  0
 36 71  1  0  0  0  0
 36 82  2  0  0  0  0
 37 66  1  0  0  0  0
 37 76  1  0  0  0  0
 37 83  2  0  0  0  0
 38 72  1  0  0  0  0
 38 77  1  0  0  0  0
 38 84  2  0  0  0  0
 39 42  1  0  0  0  0
 40 49  1  0  0  0  0
 41 71  1  0  0  0  0
 42 44  1  0  0  0  0
 43 45  1  0  0  0  0
 43 46  1  0  0  0  0
 44 48  1  0  0  0  0
 45 50  1  0  0  0  0
 46 72  1  0  0  0  0
 47 50  1  0  0  0  0
 47 72  1  0  0  0  0
 48 75  1  0  0  0  0
 49 71  1  0  0  0  0
 50 70  1  0  0  0  0
 52 66  1  0  0  0  0
 53 67  1  0  0  0  0
 54 67  1  0  0  0  0
 55 67  1  0  0  0  0
 56 68  1  0  0  0  0
 57 68  1  0  0  0  0
 58 77  1  0  0  0  0
 59 78  1  0  0  0  0
 60 61  1  0  0  0  0
 61 68  1  0  0  0  0
 62 63  1  0  0  0  0
 62 64  1  0  0  0  0
 63 79  1  0  0  0  0
 64 86  1  0  0  0  0
 65 67  1  0  0  0  0
 65 76  1  0  0  0  0
 66 78  1  0  0  0  0
 68 79  1  0  0  0  0
 69 70  1  0  0  0  0
M  CHG  2  78   1  79   1
M  ISO  4  38 100  64 101  77 100  86 101
M  END
> <Batch ID>
0026

> <Smiles>
CNC(C)C(=O)NC(C(=O)N1Cc2cc([101O:1][101CH2:1]CCNC(C)(C)CCc3c(Cl)cc([100N:0](C)[100C:0](=O)N4CCCC(n5nc(-c6ccc(Oc7ccc(F)cc7F)cc6)c(C(N)=O)c5N)C4)c(Cl)c3C)ccc2CC1C(=O)NC1CCCc2ccccc21)C(C)(C)C

> <Shape>
0.244

> <Color>
0.062

> <Negative vol penalty>
0.000

$$$$

  -OEChem-04052316273D

 91100  0     1  0  0  0  0  0999 V2000
  -16.8758  -21.9336   19.5101 C   0  0  0  0  0  0  0  0  0  0  0  0
  -18.1735  -22.1275   19.9723 C   0  0  0  0  0  0  0  0  0  0  0  0
  -29.8675  -24.1774   18.5245 C   0  0  0  0  0  0  0  0  0  0  0  0
  -28.3114  -25.2644   17.0299 C   0  0  0  0  0  0  0  0  0  0  0  0
  -16.2422  -20.7076   19.7085 C   0  0  0  0  0  0  0  0  0  0  0  0
  -18.8381  -21.0957   20.6343 C   0  0  0  0  0  0  0  0  0  0  0  0
  -23.6141  -20.5294   19.0488 C   0  0  0  0  0  0  0  0  0  0  0  0
  -29.7932  -23.0153   17.7567 C   0  0  0  0  0  0  0  0  0  0  0  0
  -28.2371  -24.1023   16.2620 C   0  0  0  0  0  0  0  0  0  0  0  0
  -24.5569  -21.4363   19.5311 C   0  0  0  0  0  0  0  0  0  0  0  0
  -29.7354  -19.6450   16.3924 C   0  0  0  0  0  0  0  0  0  0  0  0
  -29.5980  -18.4300   17.0636 C   0  0  0  0  0  0  0  0  0  0  0  0
  -25.2909  -19.8039   21.1485 C   0  0  0  0  0  0  0  0  0  0  0  0
  -27.5260  -19.2022   18.0372 C   0  0  0  0  0  0  0  0  0  0  0  0
  -29.1265  -25.3020   18.1611 C   0  0  0  0  0  0  0  0  0  0  0  0
  -30.1036  -27.5720   18.7935 C   0  0  0  0  0  0  0  0  0  0  0  0
  -16.9028  -19.6571   20.3647 C   0  0  0  0  0  0  0  0  0  0  0  0
  -23.4951  -19.2546   19.6210 C   0  0  0  0  0  0  0  0  0  0  0  0
  -18.2123  -19.8549   20.8428 C   0  0  0  0  0  0  0  0  0  0  0  0
  -24.3476  -18.8818   20.6700 C   0  0  0  0  0  0  0  0  0  0  0  0
  -28.9780  -22.9777   16.6255 C   0  0  0  0  0  0  0  0  0  0  0  0
  -25.3935  -21.0746   20.5830 C   0  0  0  0  0  0  0  0  0  0  0  0
  -28.7681  -20.6386   16.5436 C   0  0  0  0  0  0  0  0  0  0  0  0
  -28.4933  -18.2086   17.8860 C   0  0  0  0  0  0  0  0  0  0  0  0
  -27.6634  -20.4172   17.3659 C   0  0  0  0  0  0  0  0  0  0  0  0
  -29.2024  -26.5025   18.9542 C   0  0  0  0  0  0  0  0  0  0  0  0
  -19.9687  -26.9784   22.7874 C   0  0  0  0  0  0  0  0  0  0  0  0
  -20.1905  -28.3237   22.6097 C   0  0  0  0  0  0  0  0  0  0  0  0
  -29.7662  -28.4577   19.7875 C   0  0  0  0  0  0  0  0  0  0  0  0
  -18.0802  -28.0740   22.4873 C   0  0  0  0  0  0  0  0  0  0  0  0
  -31.1519  -27.7491   17.8315 C   0  0  0  0  0  0  0  0  0  0  0  0
  -21.1894  -17.6878   21.1483 C   0  0  0  0  0  0  0  0  0  0  0  0
  -23.2872  -15.2197   20.9752 C   0  0  0  0  0  0  0  0  0  0  0  0
  -26.5252  -14.1854   20.6709 C   0  0  0  0  0  0  0  0  0  0  0  0
  -24.6936  -29.4596   22.8068 C   0  0  0  0  0  0  0  0  0  0  0  0
  -16.1600  -18.3653   20.5976 C   0  0  0  0  0  0  0  0  0  0  0  0
  -22.4912  -18.2785   19.0716 C   0  0  0  0  0  0  0  0  0  0  0  0
  -24.2737  -17.5182   21.3053 C   0  0  0  0  0  0  0  0  0  0  0  0
  -17.0695  -17.1996   20.9774 C   0  0  0  0  0  0  0  0  0  0  0  0
  -27.8694  -28.6151   24.1771 C   0  0  0  0  0  0  0  0  0  0  0  0
  -18.0649  -17.6270   22.0513 C   0  0  0  0  0  0  0  0  0  0  0  0
  -28.6525  -28.0744   22.9794 C   0  0  0  0  0  0  0  0  0  0  0  0
  -21.8626  -25.6870   21.8346 C   0  0  0  0  0  0  0  0  0  0  0  0
  -21.6774  -26.0474   24.3291 C   0  0  0  0  0  0  0  0  0  0  0  0
  -26.3956  -28.2206   24.1124 C   0  0  0  0  0  0  0  0  0  0  0  0
  -26.4965  -28.0372   21.6568 C   0  0  0  0  0  0  0  0  0  0  0  0
  -22.8730  -24.5738   22.0803 C   0  0  0  0  0  0  0  0  0  0  0  0
  -22.6889  -24.9312   24.5557 C   0  0  0  0  0  0  0  0  0  0  0  0
  -18.9752  -18.7517   21.5435 C   0  0  1  0  0  0  0  0  0  0  0  0
  -20.8971  -25.8441   23.0204 C   0  0  0  0  0  0  0  0  0  0  0  0
  -22.1089  -17.1896   20.0693 C   0  0  1  0  0  0  0  0  0  0  0  0
  -27.9765  -28.4565   21.6489 C   0  0  2  0  0  0  0  0  0  0  0  0
  -16.6262  -28.2927   22.3420 C   0  0  0  0  0  0  0  0  0  0  0  0
  -28.4451  -12.5920   20.4016 C   0  0  0  0  0  0  0  0  0  0  0  0
  -22.9864  -14.9160   23.9963 C   0  0  0  0  0  0  0  0  0  0  0  0
  -25.0640  -13.5190   23.9927 C   0  0  0  0  0  0  0  0  0  0  0  0
  -23.0500  -12.7590   22.7322 C   0  0  0  0  0  0  0  0  0  0  0  0
  -17.8768  -25.5955   22.8283 C   0  0  0  0  0  0  0  0  0  0  0  0
  -26.3373  -14.2759   17.7187 C   0  0  0  0  0  0  0  0  0  0  0  0
  -21.4722  -29.0465   22.6022 C   0  0  0  0  0  0  0  0  0  0  0  0
  -21.7482  -29.8833   21.3273 C   0  0  0  0  0  0  0  0  0  0  0  0
  -25.9352  -24.2498   22.7818 C   0  0  0  0  0  0  0  0  0  0  0  0
  -27.0648  -23.2353   22.9437 C   0  0  0  0  0  0  0  0  0  0  0  0
  -23.0662  -30.6539   21.3630 C   0  0  0  0  0  0  0  0  0  0  0  0
  -24.7144  -23.8423   23.5932 C   0  0  0  0  0  0  0  0  0  0  0  0
  -26.6606  -21.8582   22.4367 C   0  0  0  0  0  0  0  0  0  1  0  0
  -24.4043  -14.7028   21.8492 C   0  0  1  0  0  0  0  0  0  0  0  0
  -27.1685  -13.1375   19.7807 C   0  0  2  0  0  0  0  0  0  0  0  0
  -23.8765  -14.0007   23.1321 C   0  0  0  0  0  0  0  0  0  0  0  0
  -28.3562  -26.6897   19.9705 N   0  0  0  0  0  0  0  0  0  0  0  0
  -19.0109  -29.0001   22.4237 N   0  0  0  0  0  0  0  0  0  0  0  0
  -18.6123  -26.8338   22.7069 N   0  0  0  0  0  0  0  0  0  0  0  0
  -28.7242  -27.8870   20.4574 N   0  0  0  0  0  0  0  0  0  0  0  0
  -23.2717  -16.6014   20.7373 N   0  0  0  0  0  0  0  0  0  0  0  0
  -25.8137  -28.6123   22.8263 N   0  0  0  0  0  0  0  0  0  0  0  0
  -30.2621  -29.6612   20.1453 N   0  0  0  0  0  0  0  0  0  0  0  0
  -31.3630  -26.7417   16.8803 N   0  0  0  0  0  0  0  0  0  0  0  0
  -20.0034  -18.2172   20.6766 N   0  0  0  0  0  0  0  0  0  0  0  0
  -25.2281  -13.8513   20.9979 N   0  0  0  0  0  0  0  0  0  0  0  0
  -24.2089  -29.7870   21.5464 N   0  0  0  0  0  0  0  0  0  0  0  0
  -23.6312  -24.8299   23.3700 N   0  3  0  0  0  0  0  0  0  0  0  0
  -27.5048  -13.7223   18.4518 N   0  3  0  0  0  0  0  0  0  0  0  0
  -31.8905  -28.7630   17.8262 O   0  0  0  0  0  0  0  0  0  0  0  0
  -21.5302  -17.5973   22.3219 O   0  0  0  0  0  0  0  0  0  0  0  0
  -22.4631  -14.4258   20.5145 O   0  0  0  0  0  0  0  0  0  0  0  0
  -27.1157  -15.1973   21.0422 O   0  0  0  0  0  0  0  0  0  0  0  0
  -24.1679  -29.8965   23.8363 O   0  0  0  0  0  0  0  0  0  0  0  0
  -28.9055  -21.8440   15.8758 O   0  0  0  0  0  0  0  0  0  0  0  0
  -26.3141  -21.9581   21.0560 O   0  0  0  0  0  0  0  0  0  1  0  0
  -28.3608  -17.0413   18.5293 F   0  0  0  0  0  0  0  0  0  0  0  0
  -26.7303  -21.3675   17.5141 F   0  0  0  0  0  0  0  0  0  0  0  0
  1  2  1  0  0  0  0
  1  5  2  0  0  0  0
  2  6  2  0  0  0  0
  3  8  2  0  0  0  0
  3 15  1  0  0  0  0
  4  9  1  0  0  0  0
  4 15  2  0  0  0  0
  5 17  1  0  0  0  0
  6 19  1  0  0  0  0
  7 10  2  0  0  0  0
  7 18  1  0  0  0  0
  8 21  1  0  0  0  0
  9 21  2  0  0  0  0
 10 22  1  0  0  0  0
 11 12  2  0  0  0  0
 11 23  1  0  0  0  0
 12 24  1  0  0  0  0
 13 20  1  0  0  0  0
 13 22  2  0  0  0  0
 14 24  2  0  0  0  0
 14 25  1  0  0  0  0
 15 26  1  0  0  0  0
 16 26  1  0  0  0  0
 16 29  2  0  0  0  0
 16 31  1  0  0  0  0
 17 19  2  0  0  0  0
 17 36  1  0  0  0  0
 18 20  2  0  0  0  0
 18 37  1  0  0  0  0
 19 49  1  0  0  0  0
 20 38  1  0  0  0  0
 21 88  1  0  0  0  0
 22 89  1  0  0  0  0
 23 25  2  0  0  0  0
 23 88  1  0  0  0  0
 24 90  1  0  0  0  0
 25 91  1  0  0  0  0
 26 70  2  0  0  0  0
 27 28  2  0  0  0  0
 27 50  1  0  0  0  0
 27 72  1  0  0  0  0
 28 60  1  0  0  0  0
 28 71  1  0  0  0  0
 29 73  1  0  0  0  0
 29 76  1  0  0  0  0
 30 53  1  0  0  0  0
 30 71  2  0  0  0  0
 30 72  1  0  0  0  0
 31 77  1  0  0  0  0
 31 83  2  0  0  0  0
 32 51  1  0  0  0  0
 32 78  1  0  0  0  0
 32 84  2  0  0  0  0
 33 67  1  0  0  0  0
 33 74  1  0  0  0  0
 33 85  2  0  0  0  0
 34 68  1  0  0  0  0
 34 79  1  0  0  0  0
 34 86  2  0  0  0  0
 35 75  1  0  0  0  0
 35 80  1  0  0  0  0
 35 87  2  0  0  0  0
 36 39  1  0  0  0  0
 37 51  1  0  0  0  0
 38 74  1  0  0  0  0
 39 41  1  0  0  0  0
 40 42  1  0  0  0  0
 40 45  1  0  0  0  0
 41 49  1  0  0  0  0
 42 52  1  0  0  0  0
 43 47  1  0  0  0  0
 43 50  1  0  0  0  0
 44 48  1  0  0  0  0
 44 50  1  0  0  0  0
 45 75  1  0  0  0  0
 46 52  1  0  0  0  0
 46 75  1  0  0  0  0
 47 81  1  0  0  0  0
 48 81  1  0  0  0  0
 49 78  1  0  0  0  0
 51 74  1  0  0  0  0
 52 73  1  0  0  0  0
 54 68  1  0  0  0  0
 55 69  1  0  0  0  0
 56 69  1  0  0  0  0
 57 69  1  0  0  0  0
 58 72  1  0  0  0  0
 59 82  1  0  0  0  0
 60 61  1  0  0  0  0
 61 64  1  0  0  0  0
 62 63  1  0  0  0  0
 62 65  1  0  0  0  0
 63 66  1  0  0  0  0
 64 80  1  0  0  0  0
 65 81  1  0  0  0  0
 66 89  1  0  0  0  0
 67 69  1  0  0  0  0
 67 79  1  0  0  0  0
 68 82  1  0  0  0  0
 70 73  1  0  0  0  0
M  CHG  2  81   1  82   1
M  ISO  4  35 100  66 101  80 100  89 101
M  END
> <Batch ID>
0026

> <Smiles>
CNC(C)C(=O)NC(C(=O)N1Cc2cc([101O:1][101CH2:1]CCCN3CCC(c4c(CCC[100NH:0][100C:0](=O)N5CCCC(n6nc(-c7ccc(Oc8ccc(F)cc8F)cc7)c(C(N)=O)c6N)C5)nc(C)n4C)CC3)ccc2CC1C(=O)NC1CCCc2ccccc21)C(C)(C)C

> <Shape>
0.197

> <Color>
0.057

> <Negative vol penalty>
0.000

$$$$

  -OEChem-04052316273D

 92100  0     1  0  0  0  0  0999 V2000
  -27.4389  -33.6672   24.5474 C   0  0  0  0  0  0  0  0  0  0  0  0
  -27.5505  -32.5612   23.7109 C   0  0  0  0  0  0  0  0  0  0  0  0
  -23.1008   -9.8404   20.1438 C   0  0  0  0  0  0  0  0  0  0  0  0
  -23.7674  -10.1083   22.4505 C   0  0  0  0  0  0  0  0  0  0  0  0
  -26.4230  -33.7189   25.5009 C   0  0  0  0  0  0  0  0  0  0  0  0
  -26.6467  -31.5057   23.8282 C   0  0  0  0  0  0  0  0  0  0  0  0
  -23.3113  -26.5470   19.8782 C   0  0  0  0  0  0  0  0  0  0  0  0
  -22.3494   -8.7178   20.4912 C   0  0  0  0  0  0  0  0  0  0  0  0
  -23.0158   -8.9857   22.7980 C   0  0  0  0  0  0  0  0  0  0  0  0
  -23.0943  -25.1704   19.8362 C   0  0  0  0  0  0  0  0  0  0  0  0
  -19.3462   -8.0702   21.9034 C   0  0  0  0  0  0  0  0  0  0  0  0
  -18.0601   -7.9620   21.3745 C   0  0  0  0  0  0  0  0  0  0  0  0
  -21.3316  -25.4047   21.4662 C   0  0  0  0  0  0  0  0  0  0  0  0
  -18.6760   -5.8868   20.3015 C   0  0  0  0  0  0  0  0  0  0  0  0
  -23.8099  -10.5356   21.1234 C   0  0  0  0  0  0  0  0  0  0  0  0
  -24.1521  -13.0336   20.7353 C   0  0  0  0  0  0  0  0  0  0  0  0
  -25.5005  -32.6679   25.6234 C   0  0  0  0  0  0  0  0  0  0  0  0
  -22.5461  -27.3627   20.7240 C   0  0  0  0  0  0  0  0  0  0  0  0
  -25.6183  -31.5429   24.7851 C   0  0  0  0  0  0  0  0  0  0  0  0
  -21.5391  -26.7917   21.5152 C   0  0  0  0  0  0  0  0  0  0  0  0
  -24.7121  -18.2598   25.1646 C   0  0  0  0  0  0  0  0  0  0  0  0
  -26.7386  -18.7636   23.9495 C   0  0  0  0  0  0  0  0  0  0  0  0
  -24.5863  -19.2194   22.9509 C   0  0  0  0  0  0  0  0  0  0  0  0
  -22.3069   -8.2905   21.8183 C   0  0  0  0  0  0  0  0  0  0  0  0
  -22.1063  -24.5987   20.6324 C   0  0  0  0  0  0  0  0  0  0  0  0
  -20.2973   -7.0868   21.6313 C   0  0  0  0  0  0  0  0  0  0  0  0
  -17.7250   -6.8703   20.5736 C   0  0  0  0  0  0  0  0  0  0  0  0
  -19.9622   -5.9951   20.8304 C   0  0  0  0  0  0  0  0  0  0  0  0
  -26.1050  -18.2758   25.0924 C   0  0  0  0  0  0  0  0  0  0  0  0
  -23.9528  -18.7316   24.0938 C   0  0  0  0  0  0  0  0  0  0  0  0
  -25.9793  -19.2354   22.8787 C   0  0  0  0  0  0  0  0  0  0  0  0
  -24.5868  -11.6949   20.7650 C   0  0  0  0  0  0  0  0  0  0  0  0
  -25.2568  -13.7445   20.3345 C   0  0  0  0  0  0  0  0  0  0  0  0
  -22.8649  -13.5851   21.0428 C   0  0  0  0  0  0  0  0  0  0  0  0
  -23.1872  -29.2627   23.1904 C   0  0  0  0  0  0  0  0  0  0  0  0
  -20.0432  -30.0164   22.9265 C   0  0  0  0  0  0  0  0  0  0  0  0
  -16.9249  -29.1104   21.8765 C   0  0  0  0  0  0  0  0  0  0  0  0
  -30.7268  -14.8120   20.6269 C   0  0  0  0  0  0  0  0  0  0  0  0
  -24.4480  -32.7477   26.7007 C   0  0  0  0  0  0  0  0  0  0  0  0
  -22.7746  -28.8493   20.7378 C   0  0  0  0  0  0  0  0  0  0  0  0
  -20.6766  -27.6262   22.4252 C   0  0  0  0  0  0  0  0  0  0  0  0
  -23.3036  -31.7558   26.5089 C   0  0  0  0  0  0  0  0  0  0  0  0
  -29.6906  -12.1687   18.4783 C   0  0  0  0  0  0  0  0  0  0  0  0
  -23.8481  -30.3702   26.1768 C   0  0  0  0  0  0  0  0  0  0  0  0
  -28.2373  -11.9164   18.8835 C   0  0  0  0  0  0  0  0  0  0  0  0
  -30.5580  -12.5280   19.6827 C   0  0  0  0  0  0  0  0  0  0  0  0
  -28.6005  -13.3977   20.9016 C   0  0  0  0  0  0  0  0  0  0  0  0
  -24.6422  -30.3893   24.8651 C   0  0  1  0  0  0  0  0  0  0  0  0
  -22.2826  -29.5176   22.0180 C   0  0  1  0  0  0  0  0  0  0  0  0
  -27.6751  -13.0866   19.7128 C   0  0  2  0  0  0  0  0  0  0  0  0
  -24.0738  -17.7269   26.4077 C   0  0  0  0  0  0  0  0  0  0  0  0
  -14.5489  -29.9168   21.8342 C   0  0  0  0  0  0  0  0  0  0  0  0
  -30.5435  -18.0454   20.4412 C   0  0  0  0  0  0  0  0  0  0  0  0
  -30.8421  -16.9866   24.1767 C   0  0  0  0  0  0  0  0  0  0  0  0
  -19.7566  -29.3192   25.8832 C   0  0  0  0  0  0  0  0  0  0  0  0
  -17.2776  -29.2189   25.5476 C   0  0  0  0  0  0  0  0  0  0  0  0
  -18.5005  -31.3593   25.1659 C   0  0  0  0  0  0  0  0  0  0  0  0
  -23.4107  -18.7803   20.8096 C   0  0  0  0  0  0  0  0  0  0  0  0
  -16.8513  -29.0982   18.9179 C   0  0  0  0  0  0  0  0  0  0  0  0
  -28.2334  -18.7619   23.9135 C   0  0  0  0  0  0  0  0  0  0  0  0
  -21.8972  -21.1954   21.8252 C   0  0  0  0  0  0  0  0  0  0  0  0
  -23.4163  -21.0778   21.7944 C   0  0  0  0  0  0  0  0  0  0  0  0
  -21.4114  -22.6396   21.7879 C   0  0  0  0  0  0  0  0  0  1  0  0
  -18.7606  -29.4702   23.5060 C   0  0  1  0  0  0  0  0  0  0  0  0
  -15.8708  -29.8625   21.0842 C   0  0  2  0  0  0  0  0  0  0  0  0
  -30.7390  -17.0876   21.6170 C   0  0  1  0  0  0  0  0  0  0  0  0
  -30.2822  -17.7043   22.9529 C   0  0  1  0  0  0  0  0  0  0  0  0
  -18.5912  -29.8257   25.0101 C   0  0  0  0  0  0  0  0  0  0  0  0
  -25.8677  -11.5607   20.4110 N   0  0  0  0  0  0  0  0  0  0  0  0
  -26.2474  -12.8242   20.1550 N   0  0  0  0  0  0  0  0  0  0  0  0
  -20.9427  -29.0741   22.4081 N   0  0  0  0  0  0  0  0  0  0  0  0
  -29.9704  -13.6457   20.4252 N   0  0  0  0  0  0  0  0  0  0  0  0
  -25.4678  -15.0607   20.1214 N   0  0  0  0  0  0  0  0  0  0  0  0
  -21.8417  -12.7131   21.4389 N   0  0  0  0  0  0  0  0  0  0  0  0
  -23.7438  -30.4063   23.7306 N   0  0  0  0  0  0  0  0  0  0  0  0
  -17.6850  -29.9609   22.6512 N   0  0  0  0  0  0  0  0  0  0  0  0
  -30.0925  -15.8254   21.3350 N   0  0  0  0  0  0  0  0  0  0  0  0
  -23.8232  -19.6957   21.8752 N   0  0  3  0  0  0  0  0  0  0  0  0
  -15.6387  -29.1987   19.7703 N   0  3  0  0  0  0  0  0  0  0  0  0
  -28.7986  -17.6907   23.0499 N   0  3  0  0  0  0  0  0  0  0  0  0
  -22.6245  -14.8129   20.9525 O   0  0  0  0  0  0  0  0  0  0  0  0
  -23.3657  -28.1137   23.5772 O   0  0  0  0  0  0  0  0  0  0  0  0
  -20.2365  -31.2347   22.9273 O   0  0  0  0  0  0  0  0  0  0  0  0
  -17.0582  -27.8901   21.8171 O   0  0  0  0  0  0  0  0  0  0  0  0
  -31.8799  -14.9427   20.2023 O   0  0  0  0  0  0  0  0  0  0  0  0
  -21.5735   -7.1953   22.1578 O   0  0  0  0  0  0  0  0  0  0  0  0
  -21.8928  -23.2553   20.5939 O   0  0  0  0  0  0  0  0  0  1  0  0
  -16.4894   -6.7657   20.0670 F   0  0  0  0  0  0  0  0  0  0  0  0
  -20.8713   -5.0465   20.5664 F   0  0  0  0  0  0  0  0  0  0  0  0
  -26.8354  -17.8219   26.1223 F   0  0  0  0  0  0  0  0  0  0  0  0
  -22.2211  -18.7081   24.1960 Cl  0  0  0  0  0  0  0  0  0  0  0  0
  -26.7784  -19.8410   21.4632 Cl  0  0  0  0  0  0  0  0  0  0  0  0
  1  2  1  0  0  0  0
  1  5  2  0  0  0  0
  2  6  2  0  0  0  0
  3  8  2  0  0  0  0
  3 15  1  0  0  0  0
  4  9  1  0  0  0  0
  4 15  2  0  0  0  0
  5 17  1  0  0  0  0
  6 19  1  0  0  0  0
  7 10  2  0  0  0  0
  7 18  1  0  0  0  0
  8 24  1  0  0  0  0
  9 24  2  0  0  0  0
 10 25  1  0  0  0  0
 11 12  2  0  0  0  0
 11 26  1  0  0  0  0
 12 27  1  0  0  0  0
 13 20  1  0  0  0  0
 13 25  2  0  0  0  0
 14 27  2  0  0  0  0
 14 28  1  0  0  0  0
 15 32  1  0  0  0  0
 16 32  1  0  0  0  0
 16 33  2  0  0  0  0
 16 34  1  0  0  0  0
 17 19  2  0  0  0  0
 17 39  1  0  0  0  0
 18 20  2  0  0  0  0
 18 40  1  0  0  0  0
 19 48  1  0  0  0  0
 20 41  1  0  0  0  0
 21 29  1  0  0  0  0
 21 30  2  0  0  0  0
 21 51  1  0  0  0  0
 22 29  2  0  0  0  0
 22 31  1  0  0  0  0
 22 60  1  0  0  0  0
 23 30  1  0  0  0  0
 23 31  2  0  0  0  0
 23 78  1  0  0  0  0
 24 86  1  0  0  0  0
 25 87  1  0  0  0  0
 26 28  2  0  0  0  0
 26 86  1  0  0  0  0
 27 88  1  0  0  0  0
 28 89  1  0  0  0  0
 29 90  1  0  0  0  0
 30 91  1  0  0  0  0
 31 92  1  0  0  0  0
 32 69  2  0  0  0  0
 33 70  1  0  0  0  0
 33 73  1  0  0  0  0
 34 74  1  0  0  0  0
 34 81  2  0  0  0  0
 35 49  1  0  0  0  0
 35 75  1  0  0  0  0
 35 82  2  0  0  0  0
 36 64  1  0  0  0  0
 36 71  1  0  0  0  0
 36 83  2  0  0  0  0
 37 65  1  0  0  0  0
 37 76  1  0  0  0  0
 37 84  2  0  0  0  0
 38 72  1  0  0  0  0
 38 77  1  0  0  0  0
 38 85  2  0  0  0  0
 39 42  1  0  0  0  0
 40 49  1  0  0  0  0
 41 71  1  0  0  0  0
 42 44  1  0  0  0  0
 43 45  1  0  0  0  0
 43 46  1  0  0  0  0
 44 48  1  0  0  0  0
 45 50  1  0  0  0  0
 46 72  1  0  0  0  0
 47 50  1  0  0  0  0
 47 72  1  0  0  0  0
 48 75  1  0  0  0  0
 49 71  1  0  0  0  0
 50 70  1  0  0  0  0
 52 65  1  0  0  0  0
 53 66  1  0  0  0  0
 54 67  1  0  0  0  0
 55 68  1  0  0  0  0
 56 68  1  0  0  0  0
 57 68  1  0  0  0  0
 58 78  1  0  0  0  0
 59 79  1  0  0  0  0
 60 80  1  0  0  0  0
 61 62  1  0  0  0  0
 61 63  1  0  0  0  0
 62 78  1  0  0  0  0
 63 87  1  0  0  0  0
 64 68  1  0  0  0  0
 64 76  1  0  0  0  0
 65 79  1  0  0  0  0
 66 67  1  0  0  0  0
 66 77  1  0  0  0  0
 67 80  1  0  0  0  0
 69 70  1  0  0  0  0
M  CHG  2  79   1  80   1
M  ISO  4  38 100  63 101  77 100  87 101
M  END
> <Batch ID>
0026

> <Smiles>
CNC(C)C(=O)NC(C(=O)N1Cc2cc([101O:1][101CH2:1]CCN(C)c3c(Cl)c(C)c(F)c(CNC(C)C(C)[100NH:0][100C:0](=O)N4CCCC(n5nc(-c6ccc(Oc7ccc(F)cc7F)cc6)c(C(N)=O)c5N)C4)c3Cl)ccc2CC1C(=O)NC1CCCc2ccccc21)C(C)(C)C

> <Shape>
0.291

> <Color>
0.194

> <Negative vol penalty>
0.000

$$$$

  -OEChem-04052316273D

 85 93  0     1  0  0  0  0  0999 V2000
  -34.6755  -31.3034   17.7121 C   0  0  0  0  0  0  0  0  0  0  0  0
  -35.1531  -30.0800   18.1711 C   0  0  0  0  0  0  0  0  0  0  0  0
  -23.3094   -9.7490   19.9948 C   0  0  0  0  0  0  0  0  0  0  0  0
  -23.7801   -9.9792   22.3533 C   0  0  0  0  0  0  0  0  0  0  0  0
  -33.3444  -31.6567   17.9293 C   0  0  0  0  0  0  0  0  0  0  0  0
  -34.3000  -29.2097   18.8487 C   0  0  0  0  0  0  0  0  0  0  0  0
  -33.0796  -22.2181   19.8206 C   0  0  0  0  0  0  0  0  0  0  0  0
  -22.6042   -8.5730   20.2503 C   0  0  0  0  0  0  0  0  0  0  0  0
  -23.0748   -8.8032   22.6088 C   0  0  0  0  0  0  0  0  0  0  0  0
  -32.9170  -21.2851   20.8438 C   0  0  0  0  0  0  0  0  0  0  0  0
  -19.8452   -7.8486   22.8899 C   0  0  0  0  0  0  0  0  0  0  0  0
  -18.9534   -7.8495   23.9623 C   0  0  0  0  0  0  0  0  0  0  0  0
  -30.6165  -21.9673   21.0919 C   0  0  0  0  0  0  0  0  0  0  0  0
  -20.1983   -6.0573   24.9992 C   0  0  0  0  0  0  0  0  0  0  0  0
  -23.8974  -10.4521   21.0463 C   0  0  0  0  0  0  0  0  0  0  0  0
  -24.1136  -12.9775   20.7575 C   0  0  0  0  0  0  0  0  0  0  0  0
  -32.4720  -30.7861   18.6014 C   0  0  0  0  0  0  0  0  0  0  0  0
  -32.0132  -23.0416   19.4321 C   0  0  0  0  0  0  0  0  0  0  0  0
  -32.9563  -29.5522   19.0764 C   0  0  0  0  0  0  0  0  0  0  0  0
  -30.7675  -22.9081   20.0617 C   0  0  0  0  0  0  0  0  0  0  0  0
  -30.2643  -17.7953   23.8362 C   0  0  0  0  0  0  0  0  0  0  0  0
  -30.2942  -16.8218   24.8347 C   0  0  0  0  0  0  0  0  0  0  0  0
  -30.2687  -19.1472   24.1797 C   0  0  0  0  0  0  0  0  0  0  0  0
  -30.3326  -18.5522   26.5204 C   0  0  0  0  0  0  0  0  0  0  0  0
  -22.4869   -8.1001   21.5573 C   0  0  0  0  0  0  0  0  0  0  0  0
  -31.6861  -21.1616   21.4816 C   0  0  0  0  0  0  0  0  0  0  0  0
  -20.9136   -6.9519   22.8720 C   0  0  0  0  0  0  0  0  0  0  0  0
  -19.1299   -6.9539   25.0170 C   0  0  0  0  0  0  0  0  0  0  0  0
  -21.0901   -6.0563   23.9267 C   0  0  0  0  0  0  0  0  0  0  0  0
  -30.3283  -17.2002   26.1768 C   0  0  0  0  0  0  0  0  0  0  0  0
  -30.3028  -19.5256   25.5219 C   0  0  0  0  0  0  0  0  0  0  0  0
  -24.6265  -11.6667   20.7829 C   0  0  0  0  0  0  0  0  0  0  0  0
  -25.1998  -13.7655   20.4647 C   0  0  0  0  0  0  0  0  0  0  0  0
  -22.7752  -13.4413   20.9789 C   0  0  0  0  0  0  0  0  0  0  0  0
  -31.4912  -26.1770   19.4147 C   0  0  0  0  0  0  0  0  0  0  0  0
  -28.7718  -25.3221   17.8667 C   0  0  0  0  0  0  0  0  0  0  0  0
  -26.4366  -22.9173   17.2260 C   0  0  0  0  0  0  0  0  0  0  0  0
  -31.0912  -13.0453   21.2546 C   0  0  0  0  0  0  0  0  0  0  0  0
  -31.0536  -31.2319   18.8542 C   0  0  0  0  0  0  0  0  0  0  0  0
  -32.1973  -24.0244   18.3085 C   0  0  0  0  0  0  0  0  0  0  0  0
  -29.5853  -23.7543   19.6682 C   0  0  0  0  0  0  0  0  0  0  0  0
  -30.1187  -30.0925   19.2517 C   0  0  0  0  0  0  0  0  0  0  0  0
  -29.4017  -13.6511   18.1796 C   0  0  0  0  0  0  0  0  0  0  0  0
  -30.7678  -29.2170   20.3188 C   0  0  0  0  0  0  0  0  0  0  0  0
  -27.9401  -13.3295   18.4958 C   0  0  0  0  0  0  0  0  0  0  0  0
  -30.3575  -12.7119   18.9122 C   0  0  0  0  0  0  0  0  0  0  0  0
  -28.6945  -12.3167   20.6876 C   0  0  0  0  0  0  0  0  0  0  0  0
  -32.0554  -28.5705   19.7938 C   0  0  1  0  0  0  0  0  0  0  0  0
  -31.1881  -25.1679   18.3434 C   0  0  1  0  0  0  0  0  0  0  0  0
  -27.6944  -13.2730   20.0156 C   0  0  2  0  0  0  0  0  0  0  0  0
  -30.2283  -17.3894   22.3959 C   0  0  0  0  0  0  0  0  0  0  0  0
  -30.3689  -18.9591   27.9631 C   0  0  0  0  0  0  0  0  0  0  0  0
  -24.3103  -22.5259   15.9520 C   0  0  0  0  0  0  0  0  0  0  0  0
  -27.2279  -26.9213   19.9568 C   0  0  0  0  0  0  0  0  0  0  0  0
  -25.1466  -25.7392   19.2226 C   0  0  0  0  0  0  0  0  0  0  0  0
  -26.3913  -27.1843   17.6148 C   0  0  0  0  0  0  0  0  0  0  0  0
  -27.6647  -20.7631   15.6105 C   0  0  0  0  0  0  0  0  0  0  0  0
  -30.2902  -15.3755   24.4454 C   0  0  0  0  0  0  0  0  0  0  0  0
  -30.2368  -20.1791   23.0909 C   0  0  0  0  0  0  0  0  0  1  0  0
  -31.6600  -14.8392   23.9936 C   0  0  0  0  0  0  0  0  0  0  0  0
  -31.6721  -13.3517   23.6479 C   0  0  0  0  0  0  0  0  0  0  0  0
  -27.3707  -24.9538   18.2912 C   0  0  1  0  0  0  0  0  0  0  0  0
  -25.8276  -22.4258   15.9253 C   0  0  2  0  0  0  0  0  0  0  0  0
  -26.5568  -26.1849   18.7803 C   0  0  0  0  0  0  0  0  0  0  0  0
  -25.9365  -11.6205   20.5265 N   0  0  0  0  0  0  0  0  0  0  0  0
  -26.2560  -12.9120   20.3372 N   0  0  0  0  0  0  0  0  0  0  0  0
  -29.8172  -24.7052   18.5684 N   0  0  0  0  0  0  0  0  0  0  0  0
  -30.0725  -12.7057   20.3491 N   0  0  0  0  0  0  0  0  0  0  0  0
  -25.3449  -15.0983   20.3064 N   0  0  0  0  0  0  0  0  0  0  0  0
  -21.7804  -12.4976   21.2688 N   0  0  0  0  0  0  0  0  0  0  0  0
  -31.7436  -27.4481   18.9350 N   0  0  0  0  0  0  0  0  0  0  0  0
  -26.7724  -24.2530   17.1601 N   0  0  0  0  0  0  0  0  0  0  0  0
  -30.7352  -13.0205   22.5975 N   0  0  0  0  0  0  0  0  0  0  0  0
  -26.2005  -21.0033   15.6837 N   0  3  0  0  0  0  0  0  0  0  0  0
  -22.4671  -14.6551   20.9052 O   0  0  0  0  0  0  0  0  0  0  0  0
  -31.4943  -25.8285   20.5895 O   0  0  0  0  0  0  0  0  0  0  0  0
  -28.9328  -26.1221   16.9416 O   0  0  0  0  0  0  0  0  0  0  0  0
  -26.5949  -22.1901   18.2041 O   0  0  0  0  0  0  0  0  0  0  0  0
  -32.2319  -13.3534   20.8928 O   0  0  0  0  0  0  0  0  0  0  0  0
  -21.7986   -6.9527   21.8070 O   0  0  0  0  0  0  0  0  0  0  0  0
  -31.5248  -20.2523   22.4810 O   0  0  0  0  0  0  0  0  0  1  0  0
  -18.2742   -6.9560   26.0475 F   0  0  0  0  0  0  0  0  0  0  0  0
  -22.1153   -5.1933   23.9157 F   0  0  0  0  0  0  0  0  0  0  0  0
  -30.3647  -15.9879   27.4156 Cl  0  0  0  0  0  0  0  0  0  0  0  0
  -30.3094  -21.2068   25.9454 Cl  0  0  0  0  0  0  0  0  0  0  0  0
  1  2  1  0  0  0  0
  1  5  2  0  0  0  0
  2  6  2  0  0  0  0
  3  8  2  0  0  0  0
  3 15  1  0  0  0  0
  4  9  1  0  0  0  0
  4 15  2  0  0  0  0
  5 17  1  0  0  0  0
  6 19  1  0  0  0  0
  7 10  2  0  0  0  0
  7 18  1  0  0  0  0
  8 25  1  0  0  0  0
  9 25  2  0  0  0  0
 10 26  1  0  0  0  0
 11 12  2  0  0  0  0
 11 27  1  0  0  0  0
 12 28  1  0  0  0  0
 13 20  1  0  0  0  0
 13 26  2  0  0  0  0
 14 28  2  0  0  0  0
 14 29  1  0  0  0  0
 15 32  1  0  0  0  0
 16 32  1  0  0  0  0
 16 33  2  0  0  0  0
 16 34  1  0  0  0  0
 17 19  2  0  0  0  0
 17 39  1  0  0  0  0
 18 20  2  0  0  0  0
 18 40  1  0  0  0  0
 19 48  1  0  0  0  0
 20 41  1  0  0  0  0
 21 22  2  0  0  0  0
 21 23  1  0  0  0  0
 21 51  1  0  0  0  0
 22 30  1  0  0  0  0
 22 58  1  0  0  0  0
 23 31  2  0  0  0  0
 23 59  1  0  0  0  0
 24 30  2  0  0  0  0
 24 31  1  0  0  0  0
 24 52  1  0  0  0  0
 25 80  1  0  0  0  0
 26 81  1  0  0  0  0
 27 29  2  0  0  0  0
 27 80  1  0  0  0  0
 28 82  1  0  0  0  0
 29 83  1  0  0  0  0
 30 84  1  0  0  0  0
 31 85  1  0  0  0  0
 32 65  2  0  0  0  0
 33 66  1  0  0  0  0
 33 69  1  0  0  0  0
 34 70  1  0  0  0  0
 34 75  2  0  0  0  0
 35 49  1  0  0  0  0
 35 71  1  0  0  0  0
 35 76  2  0  0  0  0
 36 62  1  0  0  0  0
 36 67  1  0  0  0  0
 36 77  2  0  0  0  0
 37 63  1  0  0  0  0
 37 72  1  0  0  0  0
 37 78  2  0  0  0  0
 38 68  1  0  0  0  0
 38 73  1  0  0  0  0
 38 79  2  0  0  0  0
 39 42  1  0  0  0  0
 40 49  1  0  0  0  0
 41 67  1  0  0  0  0
 42 44  1  0  0  0  0
 43 45  1  0  0  0  0
 43 46  1  0  0  0  0
 44 48  1  0  0  0  0
 45 50  1  0  0  0  0
 46 68  1  0  0  0  0
 47 50  1  0  0  0  0
 47 68  1  0  0  0  0
 48 71  1  0  0  0  0
 49 67  1  0  0  0  0
 50 66  1  0  0  0  0
 53 63  1  0  0  0  0
 54 64  1  0  0  0  0
 55 64  1  0  0  0  0
 56 64  1  0  0  0  0
 57 74  1  0  0  0  0
 58 60  1  0  0  0  0
 59 81  1  0  0  0  0
 60 61  1  0  0  0  0
 61 73  1  0  0  0  0
 62 64  1  0  0  0  0
 62 72  1  0  0  0  0
 63 74  1  0  0  0  0
 65 66  1  0  0  0  0
M  CHG  1  74   1
M  ISO  4  38 100  59 101  73 100  81 101
M  END
> <Batch ID>
0026

> <Smiles>
CNC(C)C(=O)NC(C(=O)N1Cc2cc([101O:1][101CH2:1]c3c(C)c(CCC[100NH:0][100C:0](=O)N4CCCC(n5nc(-c6ccc(Oc7ccc(F)cc7F)cc6)c(C(N)=O)c5N)C4)c(Cl)c(C)c3Cl)ccc2CC1C(=O)NC1CCCc2ccccc21)C(C)(C)C

> <Shape>
0.219

> <Color>
0.182

> <Negative vol penalty>
0.000

$$$$

  -OEChem-04052316273D

 91 99  0     1  0  0  0  0  0999 V2000
  -27.0000  -28.5392   18.5496 C   0  0  0  0  0  0  0  0  0  0  0  0
  -26.6472  -27.3173   19.1134 C   0  0  0  0  0  0  0  0  0  0  0  0
  -23.9274   -9.5855   21.1557 C   0  0  0  0  0  0  0  0  0  0  0  0
  -24.3363  -10.4923   23.3574 C   0  0  0  0  0  0  0  0  0  0  0  0
  -26.5795  -29.7277   19.1450 C   0  0  0  0  0  0  0  0  0  0  0  0
  -25.8747  -27.2832   20.2737 C   0  0  0  0  0  0  0  0  0  0  0  0
  -22.1490  -23.8621   20.0273 C   0  0  0  0  0  0  0  0  0  0  0  0
  -23.4145   -8.4224   21.7300 C   0  0  0  0  0  0  0  0  0  0  0  0
  -23.8233   -9.3292   23.9317 C   0  0  0  0  0  0  0  0  0  0  0  0
  -22.4963  -22.5269   20.2280 C   0  0  0  0  0  0  0  0  0  0  0  0
  -20.5242   -7.4210   23.1708 C   0  0  0  0  0  0  0  0  0  0  0  0
  -19.3383   -6.9073   22.6459 C   0  0  0  0  0  0  0  0  0  0  0  0
  -21.7122  -22.6714   22.5047 C   0  0  0  0  0  0  0  0  0  0  0  0
  -20.4751   -4.8485   22.0925 C   0  0  0  0  0  0  0  0  0  0  0  0
  -24.3883  -10.6204   21.9694 C   0  0  0  0  0  0  0  0  0  0  0  0
  -24.2057  -12.9852   21.0303 C   0  0  0  0  0  0  0  0  0  0  0  0
  -25.7933  -29.7080   20.3078 C   0  0  0  0  0  0  0  0  0  0  0  0
  -21.5898  -24.6164   21.0688 C   0  0  0  0  0  0  0  0  0  0  0  0
  -25.4444  -28.4726   20.8861 C   0  0  0  0  0  0  0  0  0  0  0  0
  -21.3563  -24.0153   22.3139 C   0  0  0  0  0  0  0  0  0  0  0  0
  -28.2466  -21.2007   22.5628 C   0  0  0  0  0  0  0  0  0  0  0  0
  -23.3625   -8.2942   23.1179 C   0  0  0  0  0  0  0  0  0  0  0  0
  -22.2806  -21.9322   21.4677 C   0  0  0  0  0  0  0  0  0  0  0  0
  -21.6855   -6.6484   23.1565 C   0  0  0  0  0  0  0  0  0  0  0  0
  -19.3138   -5.6211   22.1068 C   0  0  0  0  0  0  0  0  0  0  0  0
  -21.6609   -5.3622   22.6174 C   0  0  0  0  0  0  0  0  0  0  0  0
  -27.2990  -20.1855   22.6303 C   0  0  0  0  0  0  0  0  0  0  0  0
  -27.8734  -22.5118   22.8371 C   0  0  0  0  0  0  0  0  0  0  0  0
  -24.9187  -11.8219   21.3768 C   0  0  0  0  0  0  0  0  0  0  0  0
  -26.0019  -20.5307   22.9739 C   0  0  0  0  0  0  0  0  0  0  0  0
  -26.5505  -22.7530   23.1713 C   0  0  0  0  0  0  0  0  0  0  0  0
  -25.1563  -13.8277   20.5077 C   0  0  0  0  0  0  0  0  0  0  0  0
  -22.8090  -13.2782   21.1685 C   0  0  0  0  0  0  0  0  0  0  0  0
  -22.4580  -27.2230   22.6673 C   0  0  0  0  0  0  0  0  0  0  0  0
  -19.5150  -26.9149   23.9962 C   0  0  0  0  0  0  0  0  0  0  0  0
  -16.8942  -24.8790   24.7921 C   0  0  0  0  0  0  0  0  0  0  0  0
  -30.9802  -14.2186   21.3938 C   0  0  0  0  0  0  0  0  0  0  0  0
  -25.4023  -31.0194   20.9420 C   0  0  0  0  0  0  0  0  0  0  0  0
  -21.1959  -26.0480   20.8282 C   0  0  0  0  0  0  0  0  0  0  0  0
  -20.7400  -24.7758   23.4585 C   0  0  0  0  0  0  0  0  0  0  0  0
  -24.2717  -30.8907   21.9596 C   0  0  0  0  0  0  0  0  0  0  0  0
  -29.3466  -13.7706   18.1957 C   0  0  0  0  0  0  0  0  0  0  0  0
  -24.5314  -29.7188   22.9008 C   0  0  0  0  0  0  0  0  0  0  0  0
  -27.9478  -13.3274   18.6281 C   0  0  0  0  0  0  0  0  0  0  0  0
  -30.4190  -13.1866   19.1107 C   0  0  0  0  0  0  0  0  0  0  0  0
  -28.8314  -13.0511   20.9908 C   0  0  0  0  0  0  0  0  0  0  0  0
  -24.5867  -28.3941   22.1303 C   0  0  1  0  0  0  0  0  0  0  0  0
  -21.1079  -26.8673   22.1121 C   0  0  1  0  0  0  0  0  0  0  0  0
  -27.7009  -13.6267   20.1186 C   0  0  2  0  0  0  0  0  0  0  0  0
  -14.6471  -24.9061   25.9088 C   0  0  0  0  0  0  0  0  0  0  0  0
  -20.8753  -27.0067   26.7259 C   0  0  0  0  0  0  0  0  0  0  0  0
  -18.7707  -26.0930   27.7279 C   0  0  0  0  0  0  0  0  0  0  0  0
  -18.7440  -28.3066   26.5783 C   0  0  0  0  0  0  0  0  0  0  0  0
  -15.5218  -24.0314   22.3108 C   0  0  0  0  0  0  0  0  0  0  0  0
  -29.6636  -20.8801   22.1953 C   0  0  0  0  0  0  0  0  0  0  0  0
  -24.9177  -19.4872   23.0698 C   0  0  0  0  0  0  0  0  0  0  0  0
  -30.0181  -21.1811   20.7291 C   0  0  0  0  0  0  0  0  0  0  0  0
  -24.3946  -19.0159   21.7111 C   0  0  0  0  0  0  0  0  0  0  0  0
  -32.9783  -16.8659   21.5519 C   0  0  0  0  0  0  0  0  0  0  0  0
  -33.1332  -17.3863   20.1180 C   0  0  0  0  0  0  0  0  0  0  0  0
  -33.1712  -15.3552   21.6479 C   0  0  0  0  0  0  0  0  0  0  0  0
  -31.4404  -20.8164   20.3149 C   0  0  0  0  0  0  0  0  0  0  0  0
  -33.0155  -18.9021   20.0094 C   0  0  0  0  0  0  0  0  0  0  0  0
  -23.7165  -20.1205   20.9090 C   0  0  0  0  0  0  0  0  0  1  0  0
  -18.9557  -26.1972   25.2008 C   0  0  1  0  0  0  0  0  0  0  0  0
  -15.3978  -25.0389   24.5930 C   0  0  2  0  0  0  0  0  0  0  0  0
  -19.3498  -26.8868   26.5374 C   0  0  0  0  0  0  0  0  0  0  0  0
  -26.2217  -11.9134   21.0977 N   0  0  0  0  0  0  0  0  0  0  0  0
  -25.6018  -21.7928   23.2471 N   0  0  0  0  0  0  0  0  0  0  0  0
  -26.3349  -13.1442   20.5702 N   0  0  0  0  0  0  0  0  0  0  0  0
  -20.3778  -26.1745   23.1758 N   0  0  0  0  0  0  0  0  0  0  0  0
  -30.1353  -13.5232   20.5129 N   0  0  0  0  0  0  0  0  0  0  0  0
  -25.0906  -15.0790   20.0053 N   0  0  0  0  0  0  0  0  0  0  0  0
  -21.9733  -12.3006   21.7255 N   0  0  0  0  0  0  0  0  0  0  0  0
  -23.2511  -27.9469   21.7975 N   0  0  0  0  0  0  0  0  0  0  0  0
  -17.5168  -26.0944   24.9831 N   0  0  0  0  0  0  0  0  0  0  0  0
  -32.1992  -14.6249   20.8651 N   0  0  0  0  0  0  0  0  0  0  0  0
  -14.8865  -24.0013   23.6534 N   0  3  0  0  0  0  0  0  0  0  0  0
  -31.6672  -19.3584   20.4473 N   0  3  0  0  0  0  0  0  0  0  0  0
  -22.3139  -14.3681   20.7936 O   0  0  0  0  0  0  0  0  0  0  0  0
  -22.7575  -26.8684   23.8015 O   0  0  0  0  0  0  0  0  0  0  0  0
  -19.1924  -28.0870   23.7869 O   0  0  0  0  0  0  0  0  0  0  0  0
  -17.4542  -23.7850   24.7831 O   0  0  0  0  0  0  0  0  0  0  0  0
  -30.6689  -14.4643   22.5642 O   0  0  0  0  0  0  0  0  0  0  0  0
  -22.8619   -7.1595   23.6787 O   0  0  0  0  0  0  0  0  0  0  0  0
  -22.6194  -20.6292   21.6665 O   0  0  0  0  0  0  0  0  0  1  0  0
  -18.1745   -5.1274   21.6042 F   0  0  0  0  0  0  0  0  0  0  0  0
  -22.7732   -4.6149   22.6019 F   0  0  0  0  0  0  0  0  0  0  0  0
  -27.7233  -18.5447   22.2982 Cl  0  0  0  0  0  0  0  0  0  0  0  0
  -29.0342  -23.7904   22.7582 Cl  0  0  0  0  0  0  0  0  0  0  0  0
  -25.9371  -24.3211   23.5362 Cl  0  0  0  0  0  0  0  0  0  0  0  0
  1  2  1  0  0  0  0
  1  5  2  0  0  0  0
  2  6  2  0  0  0  0
  3  8  2  0  0  0  0
  3 15  1  0  0  0  0
  4  9  1  0  0  0  0
  4 15  2  0  0  0  0
  5 17  1  0  0  0  0
  6 19  1  0  0  0  0
  7 10  2  0  0  0  0
  7 18  1  0  0  0  0
  8 22  1  0  0  0  0
  9 22  2  0  0  0  0
 10 23  1  0  0  0  0
 11 12  2  0  0  0  0
 11 24  1  0  0  0  0
 12 25  1  0  0  0  0
 13 20  1  0  0  0  0
 13 23  2  0  0  0  0
 14 25  2  0  0  0  0
 14 26  1  0  0  0  0
 15 29  1  0  0  0  0
 16 29  1  0  0  0  0
 16 32  2  0  0  0  0
 16 33  1  0  0  0  0
 17 19  2  0  0  0  0
 17 38  1  0  0  0  0
 18 20  2  0  0  0  0
 18 39  1  0  0  0  0
 19 47  1  0  0  0  0
 20 40  1  0  0  0  0
 21 27  1  0  0  0  0
 21 28  2  0  0  0  0
 21 55  1  0  0  0  0
 22 85  1  0  0  0  0
 23 86  1  0  0  0  0
 24 26  2  0  0  0  0
 24 85  1  0  0  0  0
 25 87  1  0  0  0  0
 26 88  1  0  0  0  0
 27 30  2  0  0  0  0
 27 89  1  0  0  0  0
 28 31  1  0  0  0  0
 28 90  1  0  0  0  0
 29 68  2  0  0  0  0
 30 56  1  0  0  0  0
 30 69  1  0  0  0  0
 31 69  2  0  0  0  0
 31 91  1  0  0  0  0
 32 70  1  0  0  0  0
 32 73  1  0  0  0  0
 33 74  1  0  0  0  0
 33 80  2  0  0  0  0
 34 48  1  0  0  0  0
 34 75  1  0  0  0  0
 34 81  2  0  0  0  0
 35 65  1  0  0  0  0
 35 71  1  0  0  0  0
 35 82  2  0  0  0  0
 36 66  1  0  0  0  0
 36 76  1  0  0  0  0
 36 83  2  0  0  0  0
 37 72  1  0  0  0  0
 37 77  1  0  0  0  0
 37 84  2  0  0  0  0
 38 41  1  0  0  0  0
 39 48  1  0  0  0  0
 40 71  1  0  0  0  0
 41 43  1  0  0  0  0
 42 44  1  0  0  0  0
 42 45  1  0  0  0  0
 43 47  1  0  0  0  0
 44 49  1  0  0  0  0
 45 72  1  0  0  0  0
 46 49  1  0  0  0  0
 46 72  1  0  0  0  0
 47 75  1  0  0  0  0
 48 71  1  0  0  0  0
 49 70  1  0  0  0  0
 50 66  1  0  0  0  0
 51 67  1  0  0  0  0
 52 67  1  0  0  0  0
 53 67  1  0  0  0  0
 54 78  1  0  0  0  0
 55 57  1  0  0  0  0
 56 58  1  0  0  0  0
 57 62  1  0  0  0  0
 58 64  1  0  0  0  0
 59 60  1  0  0  0  0
 59 61  1  0  0  0  0
 60 63  1  0  0  0  0
 61 77  1  0  0  0  0
 62 79  1  0  0  0  0
 63 79  1  0  0  0  0
 64 86  1  0  0  0  0
 65 67  1  0  0  0  0
 65 76  1  0  0  0  0
 66 78  1  0  0  0  0
 68 70  1  0  0  0  0
M  CHG  2  78   1  79   1
M  ISO  4  37 100  64 101  77 100  86 101
M  END
> <Batch ID>
0026

> <Smiles>
CNC(C)C(=O)NC(C(=O)N1Cc2cc([101O:1][101CH2:1]CCc3nc(Cl)c(Cl)c(CCCNCCCC[100NH:0][100C:0](=O)N4CCCC(n5nc(-c6ccc(Oc7ccc(F)cc7F)cc6)c(C(N)=O)c5N)C4)c3Cl)ccc2CC1C(=O)NC1CCCc2ccccc21)C(C)(C)C

> <Shape>
0.231

> <Color>
0.138

> <Negative vol penalty>
0.000

$$$$

  -OEChem-04052316273D

 91 99  0     1  0  0  0  0  0999 V2000
  -23.5860  -38.5939   24.0256 C   0  0  0  0  0  0  0  0  0  0  0  0
  -23.7362  -37.7131   22.9592 C   0  0  0  0  0  0  0  0  0  0  0  0
  -23.3310  -12.8937   20.7299 C   0  0  0  0  0  0  0  0  0  0  0  0
  -24.9897  -14.1897   21.9156 C   0  0  0  0  0  0  0  0  0  0  0  0
  -24.2767  -38.3699   25.2158 C   0  0  0  0  0  0  0  0  0  0  0  0
  -24.5782  -36.6084   23.0822 C   0  0  0  0  0  0  0  0  0  0  0  0
  -23.7792  -31.0745   20.5834 C   0  0  0  0  0  0  0  0  0  0  0  0
  -24.3171  -11.9872   20.3410 C   0  0  0  0  0  0  0  0  0  0  0  0
  -25.9760  -13.2832   21.5267 C   0  0  0  0  0  0  0  0  0  0  0  0
  -24.3026  -30.4787   19.4368 C   0  0  0  0  0  0  0  0  0  0  0  0
  -27.8101  -12.6310   18.7624 C   0  0  0  0  0  0  0  0  0  0  0  0
  -29.0153  -13.1486   18.2878 C   0  0  0  0  0  0  0  0  0  0  0  0
  -26.0154  -29.4281   20.7718 C   0  0  0  0  0  0  0  0  0  0  0  0
  -30.1991  -12.0261   20.0698 C   0  0  0  0  0  0  0  0  0  0  0  0
  -23.6672  -13.9950   21.5171 C   0  0  0  0  0  0  0  0  0  0  0  0
  -21.8578  -14.8810   23.0819 C   0  0  0  0  0  0  0  0  0  0  0  0
  -25.1201  -37.2566   25.3567 C   0  0  0  0  0  0  0  0  0  0  0  0
  -24.3775  -30.8600   21.8334 C   0  0  0  0  0  0  0  0  0  0  0  0
  -25.2818  -36.3701   24.2750 C   0  0  0  0  0  0  0  0  0  0  0  0
  -25.4961  -30.0204   21.9331 C   0  0  0  0  0  0  0  0  0  0  0  0
  -25.6396  -12.1819   20.7394 C   0  0  0  0  0  0  0  0  0  0  0  0
  -25.4226  -29.6576   19.5304 C   0  0  0  0  0  0  0  0  0  0  0  0
  -27.7994  -11.8111   19.8908 C   0  0  0  0  0  0  0  0  0  0  0  0
  -30.2098  -12.8461   18.9414 C   0  0  0  0  0  0  0  0  0  0  0  0
  -28.9939  -11.5086   20.5445 C   0  0  0  0  0  0  0  0  0  0  0  0
  -22.6491  -14.9321   21.9187 C   0  0  0  0  0  0  0  0  0  0  0  0
  -21.0522  -15.9903   22.9982 C   0  0  0  0  0  0  0  0  0  0  0  0
  -21.8516  -13.9170   24.1433 C   0  0  0  0  0  0  0  0  0  0  0  0
  -25.7772  -32.7189   23.9989 C   0  0  0  0  0  0  0  0  0  0  0  0
  -25.8283  -29.9844   25.7432 C   0  0  0  0  0  0  0  0  0  0  0  0
  -25.5028  -23.9748   18.3393 C   0  0  0  0  0  0  0  0  0  0  0  0
  -25.7904  -26.5721   25.7829 C   0  0  0  0  0  0  0  0  0  0  0  0
  -21.6360  -21.2517   20.2005 C   0  0  0  0  0  0  0  0  0  0  0  0
  -25.8826  -37.0821   26.6462 C   0  0  0  0  0  0  0  0  0  0  0  0
  -23.7848  -31.4887   23.0646 C   0  0  0  0  0  0  0  0  0  0  0  0
  -26.1633  -29.7418   23.2544 C   0  0  0  0  0  0  0  0  0  0  0  0
  -26.4649  -35.6824   26.8249 C   0  0  0  0  0  0  0  0  0  0  0  0
  -18.9989  -18.8938   19.7976 C   0  0  0  0  0  0  0  0  0  0  0  0
  -27.1584  -35.2254   25.5454 C   0  0  0  0  0  0  0  0  0  0  0  0
  -19.5639  -17.6065   20.4004 C   0  0  0  0  0  0  0  0  0  0  0  0
  -23.0039  -25.7682   19.0624 C   0  0  0  0  0  0  0  0  0  0  0  0
  -22.0054  -25.4735   20.1450 C   0  0  0  0  0  0  0  0  0  0  0  0
  -20.0752  -19.6958   19.0693 C   0  0  0  0  0  0  0  0  0  0  0  0
  -21.8406  -18.7064   20.4758 C   0  0  0  0  0  0  0  0  0  0  0  0
  -26.1668  -35.1468   24.3783 C   0  0  1  0  0  0  0  0  0  0  0  0
  -24.7829  -31.6127   24.2117 C   0  0  1  0  0  0  0  0  0  0  0  0
  -20.8045  -17.8912   21.2683 C   0  0  2  0  0  0  0  0  0  0  0  0
  -23.4323  -24.9985   20.2899 C   0  0  0  0  0  0  0  0  0  0  0  0
  -27.1274  -19.9110   18.9641 C   0  0  0  0  0  0  0  0  0  0  0  0
  -25.7075  -24.2555   26.7440 C   0  0  0  0  0  0  0  0  0  0  0  0
  -28.8270  -30.4182   26.1035 C   0  0  0  0  0  0  0  0  0  0  0  0
  -29.0147  -28.0293   26.8288 C   0  0  0  0  0  0  0  0  0  0  0  0
  -27.6333  -29.6284   28.1543 C   0  0  0  0  0  0  0  0  0  0  0  0
  -24.4611  -22.4459   22.3557 C   0  0  0  0  0  0  0  0  0  0  0  0
  -22.1982  -23.4468   22.2168 C   0  0  0  0  0  0  0  0  0  0  0  0
  -22.8310  -26.5473   25.7696 C   0  0  0  0  0  0  0  0  0  0  0  0
  -26.8860  -21.4067   19.0974 C   0  0  0  0  0  0  0  0  0  0  0  0
  -25.4172  -21.7098   19.4187 C   0  0  0  0  0  0  0  0  0  0  0  0
  -26.4005  -26.9927   17.3070 C   0  0  0  0  0  0  0  0  0  0  0  0
  -27.0763  -25.6302   17.3816 C   0  0  0  0  0  0  0  0  0  0  0  0
  -26.5868  -27.8171   18.5750 C   0  0  0  0  0  0  0  0  0  1  0  0
  -26.7958  -28.8368   25.9040 C   0  0  1  0  0  0  0  0  0  0  0  0
  -25.1635  -23.2224   19.6305 C   0  0  2  0  0  0  0  0  0  0  0  0
  -24.9799  -25.5832   26.6012 C   0  0  2  0  0  0  0  0  0  0  0  0
  -23.7075  -23.5093   20.1384 C   0  0  1  0  0  0  0  0  0  0  0  0
  -24.3102  -25.6984   21.2905 C   0  0  0  0  0  0  0  0  0  0  0  0
  -28.0565  -29.2348   26.7223 C   0  0  0  0  0  0  0  0  0  0  0  0
  -23.2657  -22.6812   21.4087 C   0  0  0  0  0  0  0  0  0  0  0  0
  -22.3712  -15.9900   21.1521 N   0  0  0  0  0  0  0  0  0  0  0  0
  -21.3963  -16.6139   21.8350 N   0  0  0  0  0  0  0  0  0  0  0  0
  -25.5503  -30.3846   24.4285 N   0  0  0  0  0  0  0  0  0  0  0  0
  -21.2232  -19.9331   19.9478 N   0  0  0  0  0  0  0  0  0  0  0  0
  -20.0901  -16.4833   23.8067 N   0  0  0  0  0  0  0  0  0  0  0  0
  -22.7441  -12.8388   24.0717 N   0  0  0  0  0  0  0  0  0  0  0  0
  -25.3633  -33.9473   24.4777 N   0  0  0  0  0  0  0  0  0  0  0  0
  -26.5834  -24.8318   18.4787 N   0  0  0  0  0  0  0  0  0  0  0  0
  -26.0315  -27.7364   26.4812 N   0  0  0  0  0  0  0  0  0  0  0  0
  -22.7280  -21.3881   21.0489 N   0  0  0  0  0  0  0  0  0  0  0  0
  -23.6628  -25.3299   25.9515 N   0  3  0  0  0  0  0  0  0  0  0  0
  -21.0662  -14.0003   25.1178 O   0  0  0  0  0  0  0  0  0  0  0  0
  -26.8418  -32.4756   23.4428 O   0  0  0  0  0  0  0  0  0  0  0  0
  -25.3318  -30.5020   26.7468 O   0  0  0  0  0  0  0  0  0  0  0  0
  -24.8733  -23.8136   17.2952 O   0  0  0  0  0  0  0  0  0  0  0  0
  -26.1746  -26.3340   24.6400 O   0  0  0  0  0  0  0  0  0  0  0  0
  -21.0699  -22.2349   19.7107 O   0  0  0  0  0  0  0  0  0  0  0  0
  -26.6022  -11.2974   20.3603 O   0  0  0  0  0  0  0  0  0  0  0  0
  -25.9395  -29.0712   18.4047 O   0  0  0  0  0  0  0  0  0  1  0  0
  -31.3672  -13.3419   18.4846 F   0  0  0  0  0  0  0  0  0  0  0  0
  -28.9901  -10.7205   21.6283 F   0  0  0  0  0  0  0  0  0  0  0  0
  -24.0558  -27.0228   21.2361 F   0  0  0  0  0  0  0  0  0  0  0  0
  -25.5997  -25.5152   20.9364 F   0  0  0  0  0  0  0  0  0  0  0  0
  1  2  1  0  0  0  0
  1  5  2  0  0  0  0
  2  6  2  0  0  0  0
  3  8  2  0  0  0  0
  3 15  1  0  0  0  0
  4  9  1  0  0  0  0
  4 15  2  0  0  0  0
  5 17  1  0  0  0  0
  6 19  1  0  0  0  0
  7 10  2  0  0  0  0
  7 18  1  0  0  0  0
  8 21  1  0  0  0  0
  9 21  2  0  0  0  0
 10 22  1  0  0  0  0
 11 12  2  0  0  0  0
 11 23  1  0  0  0  0
 12 24  1  0  0  0  0
 13 20  1  0  0  0  0
 13 22  2  0  0  0  0
 14 24  2  0  0  0  0
 14 25  1  0  0  0  0
 15 26  1  0  0  0  0
 16 26  1  0  0  0  0
 16 27  2  0  0  0  0
 16 28  1  0  0  0  0
 17 19  2  0  0  0  0
 17 34  1  0  0  0  0
 18 20  2  0  0  0  0
 18 35  1  0  0  0  0
 19 45  1  0  0  0  0
 20 36  1  0  0  0  0
 21 86  1  0  0  0  0
 22 87  1  0  0  0  0
 23 25  2  0  0  0  0
 23 86  1  0  0  0  0
 24 88  1  0  0  0  0
 25 89  1  0  0  0  0
 26 69  2  0  0  0  0
 27 70  1  0  0  0  0
 27 73  1  0  0  0  0
 28 74  1  0  0  0  0
 28 80  2  0  0  0  0
 29 46  1  0  0  0  0
 29 75  1  0  0  0  0
 29 81  2  0  0  0  0
 30 62  1  0  0  0  0
 30 71  1  0  0  0  0
 30 82  2  0  0  0  0
 31 63  1  0  0  0  0
 31 76  1  0  0  0  0
 31 83  2  0  0  0  0
 32 64  1  0  0  0  0
 32 77  1  0  0  0  0
 32 84  2  0  0  0  0
 33 72  1  0  0  0  0
 33 78  1  0  0  0  0
 33 85  2  0  0  0  0
 34 37  1  0  0  0  0
 35 46  1  0  0  0  0
 36 71  1  0  0  0  0
 37 39  1  0  0  0  0
 38 40  1  0  0  0  0
 38 43  1  0  0  0  0
 39 45  1  0  0  0  0
 40 47  1  0  0  0  0
 41 42  1  0  0  0  0
 41 48  1  0  0  0  0
 42 48  1  0  0  0  0
 43 72  1  0  0  0  0
 44 47  1  0  0  0  0
 44 72  1  0  0  0  0
 45 75  1  0  0  0  0
 46 71  1  0  0  0  0
 47 70  1  0  0  0  0
 48 65  1  0  0  0  0
 48 66  1  0  0  0  0
 49 57  1  0  0  0  0
 50 64  1  0  0  0  0
 51 67  1  0  0  0  0
 52 67  1  0  0  0  0
 53 67  1  0  0  0  0
 54 68  1  0  0  0  0
 55 68  1  0  0  0  0
 56 79  1  0  0  0  0
 57 58  1  0  0  0  0
 58 63  1  0  0  0  0
 59 60  1  0  0  0  0
 59 61  1  0  0  0  0
 60 76  1  0  0  0  0
 61 87  1  0  0  0  0
 62 67  1  0  0  0  0
 62 77  1  0  0  0  0
 63 65  1  0  0  0  0
 64 79  1  0  0  0  0
 65 68  1  0  0  0  0
 66 90  1  0  0  0  0
 66 91  1  0  0  0  0
 68 78  1  0  0  0  0
 69 70  1  0  0  0  0
M  CHG  1  79   1
M  ISO  4  33 100  61 101  78 100  87 101
M  END
> <Batch ID>
0026

> <Smiles>
CCCC(C(=O)NCC[101CH2:1][101O:1]c1ccc2c(c1)CN(C(=O)C(NC(=O)C(C)NC)C(C)(C)C)C(C(=O)NC1CCCc3ccccc31)C2)C(C(C)(C)[100NH:0][100C:0](=O)N1CCCC(n2nc(-c3ccc(Oc4ccc(F)cc4F)cc3)c(C(N)=O)c2N)C1)C1(C(F)F)CC1

> <Shape>
0.209

> <Color>
0.067

> <Negative vol penalty>
0.000

$$$$

  -OEChem-04052316273D

 89 98  0     1  0  0  0  0  0999 V2000
  -15.7880  -27.0367   25.0227 C   0  0  0  0  0  0  0  0  0  0  0  0
  -16.9455  -26.2649   25.0223 C   0  0  0  0  0  0  0  0  0  0  0  0
  -24.1182   -9.2577   21.1343 C   0  0  0  0  0  0  0  0  0  0  0  0
  -25.4412   -9.9633   23.0287 C   0  0  0  0  0  0  0  0  0  0  0  0
  -15.8016  -28.3118   24.4590 C   0  0  0  0  0  0  0  0  0  0  0  0
  -18.1170  -26.7674   24.4570 C   0  0  0  0  0  0  0  0  0  0  0  0
  -22.1862  -25.9291   27.3525 C   0  0  0  0  0  0  0  0  0  0  0  0
  -23.9113   -8.0185   21.7403 C   0  0  0  0  0  0  0  0  0  0  0  0
  -25.2342   -8.7241   23.6348 C   0  0  0  0  0  0  0  0  0  0  0  0
  -22.7325  -24.6467   27.3270 C   0  0  0  0  0  0  0  0  0  0  0  0
  -21.9407   -6.7306   24.1674 C   0  0  0  0  0  0  0  0  0  0  0  0
  -20.6468   -6.2100   24.1531 C   0  0  0  0  0  0  0  0  0  0  0  0
  -24.4358  -25.4093   25.7984 C   0  0  0  0  0  0  0  0  0  0  0  0
  -27.6313  -19.7006   23.0333 C   0  0  0  0  0  0  0  0  0  0  0  0
  -21.4377   -4.2779   22.9372 C   0  0  0  0  0  0  0  0  0  0  0  0
  -24.8832  -10.2301   21.7785 C   0  0  0  0  0  0  0  0  0  0  0  0
  -24.1170  -12.4462   20.7737 C   0  0  0  0  0  0  0  0  0  0  0  0
  -16.9763  -28.8340   23.8951 C   0  0  0  0  0  0  0  0  0  0  0  0
  -22.7550  -26.9604   26.5913 C   0  0  0  0  0  0  0  0  0  0  0  0
  -18.1459  -28.0501   23.8839 C   0  0  0  0  0  0  0  0  0  0  0  0
  -23.8963  -26.7045   25.8180 C   0  0  0  0  0  0  0  0  0  0  0  0
  -25.0781  -20.8229   22.6402 C   0  0  0  0  0  0  0  0  0  0  0  0
  -25.7677  -20.2931   21.5230 C   0  0  0  0  0  0  0  0  0  0  0  0
  -27.0646  -19.7675   21.7596 C   0  0  0  0  0  0  0  0  0  0  0  0
  -25.6620  -20.7244   23.9266 C   0  0  0  0  0  0  0  0  0  0  0  0
  -24.4693   -7.7517   22.9905 C   0  0  0  0  0  0  0  0  0  0  0  0
  -23.8558  -24.3859   26.5476 C   0  0  0  0  0  0  0  0  0  0  0  0
  -22.9832   -6.0249   23.5665 C   0  0  0  0  0  0  0  0  0  0  0  0
  -20.3952   -4.9836   23.5380 C   0  0  0  0  0  0  0  0  0  0  0  0
  -26.9213  -20.1678   24.1232 C   0  0  0  0  0  0  0  0  0  0  0  0
  -22.7316   -4.7985   22.9515 C   0  0  0  0  0  0  0  0  0  0  0  0
  -25.0978  -11.5101   21.1527 C   0  0  0  0  0  0  0  0  0  0  0  0
  -24.8281  -13.4868   20.2281 C   0  0  0  0  0  0  0  0  0  0  0  0
  -22.6906  -12.3808   20.9034 C   0  0  0  0  0  0  0  0  0  0  0  0
  -21.7479  -28.8073   24.2084 C   0  0  0  0  0  0  0  0  0  0  0  0
  -24.6010  -30.2821   24.6635 C   0  0  0  0  0  0  0  0  0  0  0  0
  -28.0060  -29.2847   25.3184 C   0  0  0  0  0  0  0  0  0  0  0  0
  -29.1378  -17.0304   20.3530 C   0  0  0  0  0  0  0  0  0  0  0  0
  -16.9299  -30.1989   23.2552 C   0  0  0  0  0  0  0  0  0  0  0  0
  -22.1697  -28.3447   26.6506 C   0  0  0  0  0  0  0  0  0  0  0  0
  -23.7352  -21.5237   22.5893 C   0  0  0  0  0  0  0  0  0  0  0  0
  -24.5569  -27.7818   24.9986 C   0  0  0  0  0  0  0  0  0  0  0  0
  -18.3098  -30.8046   23.0116 C   0  0  0  0  0  0  0  0  0  0  0  0
  -29.7053  -13.8173   18.9280 C   0  0  0  0  0  0  0  0  0  0  0  0
  -19.2400  -29.7757   22.3768 C   0  0  0  0  0  0  0  0  0  0  0  0
  -23.2126  -21.9394   20.1463 C   0  0  0  0  0  0  0  0  0  0  0  0
  -28.4799  -13.0067   19.3537 C   0  0  0  0  0  0  0  0  0  0  0  0
  -23.7147  -20.5174   19.9048 C   0  0  0  0  0  0  0  0  0  0  0  0
  -30.1442  -14.7917   20.0188 C   0  0  0  0  0  0  0  0  0  0  0  0
  -27.8579  -14.8809   20.9346 C   0  0  0  0  0  0  0  0  0  0  0  0
  -19.4427  -28.5700   23.3025 C   0  0  1  0  0  0  0  0  0  0  0  0
  -22.5239  -29.1957   25.4350 C   0  0  1  0  0  0  0  0  0  0  0  0
  -23.6473  -22.5672   21.4711 C   0  0  1  0  0  0  0  0  0  0  0  0
  -27.3440  -13.9240   19.8453 C   0  0  2  0  0  0  0  0  0  0  0  0
  -25.2355  -20.2544   20.0710 C   0  0  0  0  0  0  0  0  0  0  0  0
  -22.6790  -23.6939   21.8475 C   0  0  0  0  0  0  0  0  0  0  0  0
  -26.0390  -21.2481   19.2035 C   0  0  0  0  0  0  0  0  0  0  0  0
  -25.4458  -18.8270   19.4796 C   0  0  0  0  0  0  0  0  0  0  0  0
  -29.8686  -30.5030   26.4776 C   0  0  0  0  0  0  0  0  0  0  0  0
  -25.3763  -31.1777   21.8516 C   0  0  0  0  0  0  0  0  0  0  0  0
  -27.7788  -30.9186   22.5068 C   0  0  0  0  0  0  0  0  0  0  0  0
  -26.3359  -32.5724   23.6924 C   0  0  0  0  0  0  0  0  0  0  0  0
  -28.4274  -27.0624   27.2271 C   0  0  0  0  0  0  0  0  0  0  0  0
  -24.9753  -21.2150   25.1678 C   0  0  0  0  0  0  0  0  0  0  0  0
  -27.9905  -19.1985   20.7304 C   0  0  0  0  0  0  0  0  0  0  0  0
  -25.0466  -22.7341   25.3191 C   0  0  0  0  0  0  0  0  0  1  0  0
  -25.9964  -30.1031   24.1158 C   0  0  1  0  0  0  0  0  0  0  0  0
  -28.7704  -29.4604   26.6181 C   0  0  2  0  0  0  0  0  0  0  0  0
  -26.3538  -31.1710   23.0439 C   0  0  0  0  0  0  0  0  0  0  0  0
  -26.3375  -11.9198   20.8715 N   0  0  0  0  0  0  0  0  0  0  0  0
  -26.1405  -13.1248   20.3099 N   0  0  0  0  0  0  0  0  0  0  0  0
  -23.9436  -29.1175   25.0846 N   0  0  0  0  0  0  0  0  0  0  0  0
  -29.0214  -15.6333   20.4395 N   0  0  0  0  0  0  0  0  0  0  0  0
  -24.4526  -14.6670   19.6910 N   0  0  0  0  0  0  0  0  0  0  0  0
  -22.1025  -12.8800   22.0736 N   0  0  0  0  0  0  0  0  0  0  0  0
  -20.3771  -28.8953   24.3587 N   0  0  0  0  0  0  0  0  0  0  0  0
  -26.8894  -30.0922   25.2695 N   0  0  0  0  0  0  0  0  0  0  0  0
  -28.0254  -17.7534   20.7660 N   0  0  0  0  0  0  0  0  0  0  0  0
  -29.3956  -28.1717   27.0296 N   0  3  0  0  0  0  0  0  0  0  0  0
  -21.9605  -11.8793   20.0152 O   0  0  0  0  0  0  0  0  0  0  0  0
  -22.3484  -28.4554   23.1998 O   0  0  0  0  0  0  0  0  0  0  0  0
  -24.1151  -31.4143   24.7223 O   0  0  0  0  0  0  0  0  0  0  0  0
  -28.3656  -28.5114   24.4334 O   0  0  0  0  0  0  0  0  0  0  0  0
  -30.1555  -17.5917   19.9333 O   0  0  0  0  0  0  0  0  0  0  0  0
  -24.2674   -6.5428   23.5823 O   0  0  0  0  0  0  0  0  0  0  0  0
  -24.3944  -23.1261   26.5202 O   0  0  0  0  0  0  0  0  0  1  0  0
  -19.1529   -4.4831   23.5257 F   0  0  0  0  0  0  0  0  0  0  0  0
  -27.4509  -20.0758   25.3514 F   0  0  0  0  0  0  0  0  0  0  0  0
  -23.7292   -4.1154   22.3736 F   0  0  0  0  0  0  0  0  0  0  0  0
  1  2  1  0  0  0  0
  1  5  2  0  0  0  0
  2  6  2  0  0  0  0
  3  8  2  0  0  0  0
  3 16  1  0  0  0  0
  4  9  1  0  0  0  0
  4 16  2  0  0  0  0
  5 18  1  0  0  0  0
  6 20  1  0  0  0  0
  7 10  2  0  0  0  0
  7 19  1  0  0  0  0
  8 26  1  0  0  0  0
  9 26  2  0  0  0  0
 10 27  1  0  0  0  0
 11 12  2  0  0  0  0
 11 28  1  0  0  0  0
 12 29  1  0  0  0  0
 13 21  1  0  0  0  0
 13 27  2  0  0  0  0
 14 24  1  0  0  0  0
 14 30  2  0  0  0  0
 15 29  2  0  0  0  0
 15 31  1  0  0  0  0
 16 32  1  0  0  0  0
 17 32  1  0  0  0  0
 17 33  2  0  0  0  0
 17 34  1  0  0  0  0
 18 20  2  0  0  0  0
 18 39  1  0  0  0  0
 19 21  2  0  0  0  0
 19 40  1  0  0  0  0
 20 51  1  0  0  0  0
 21 42  1  0  0  0  0
 22 23  1  0  0  0  0
 22 25  2  0  0  0  0
 22 41  1  0  0  0  0
 23 24  2  0  0  0  0
 23 55  1  0  0  0  0
 24 65  1  0  0  0  0
 25 30  1  0  0  0  0
 25 64  1  0  0  0  0
 26 85  1  0  0  0  0
 27 86  1  0  0  0  0
 28 31  2  0  0  0  0
 28 85  1  0  0  0  0
 29 87  1  0  0  0  0
 30 88  1  0  0  0  0
 31 89  1  0  0  0  0
 32 70  2  0  0  0  0
 33 71  1  0  0  0  0
 33 74  1  0  0  0  0
 34 75  1  0  0  0  0
 34 80  2  0  0  0  0
 35 52  1  0  0  0  0
 35 76  1  0  0  0  0
 35 81  2  0  0  0  0
 36 67  1  0  0  0  0
 36 72  1  0  0  0  0
 36 82  2  0  0  0  0
 37 68  1  0  0  0  0
 37 77  1  0  0  0  0
 37 83  2  0  0  0  0
 38 73  1  0  0  0  0
 38 78  1  0  0  0  0
 38 84  2  0  0  0  0
 39 43  1  0  0  0  0
 40 52  1  0  0  0  0
 41 53  1  0  0  0  0
 42 72  1  0  0  0  0
 43 45  1  0  0  0  0
 44 47  1  0  0  0  0
 44 49  1  0  0  0  0
 45 51  1  0  0  0  0
 46 48  1  0  0  0  0
 46 53  1  0  0  0  0
 47 54  1  0  0  0  0
 48 55  1  0  0  0  0
 49 73  1  0  0  0  0
 50 54  1  0  0  0  0
 50 73  1  0  0  0  0
 51 76  1  0  0  0  0
 52 72  1  0  0  0  0
 53 56  1  0  0  0  0
 54 71  1  0  0  0  0
 55 57  1  0  0  0  0
 55 58  1  0  0  0  0
 59 68  1  0  0  0  0
 60 69  1  0  0  0  0
 61 69  1  0  0  0  0
 62 69  1  0  0  0  0
 63 79  1  0  0  0  0
 64 66  1  0  0  0  0
 65 78  1  0  0  0  0
 66 86  1  0  0  0  0
 67 69  1  0  0  0  0
 67 77  1  0  0  0  0
 68 79  1  0  0  0  0
 70 71  1  0  0  0  0
M  CHG  1  79   1
M  ISO  4  38 100  66 101  78 100  86 101
M  END
> <Batch ID>
0026

> <Smiles>
CNC(C)C(=O)NC(C(=O)N1Cc2cc([101O:1][101CH2:1]Cc3c(F)cc(C[100NH:0][100C:0](=O)N4CCCC(n5nc(-c6ccc(Oc7ccc(F)cc7F)cc6)c(C(N)=O)c5N)C4)c4c3CC(C)CCC4(C)C)ccc2CC1C(=O)NC1CCCc2ccccc21)C(C)(C)C

> <Shape>
0.240

> <Color>
0.128

> <Negative vol penalty>
0.000

$$$$

  -OEChem-04052316273D

 84 92  0     1  0  0  0  0  0999 V2000
  -32.3772  -14.8249   21.0035 C   0  0  0  0  0  0  0  0  0  0  0  0
  -31.3969  -15.7948   21.1866 C   0  0  0  0  0  0  0  0  0  0  0  0
  -29.2832  -25.9354   19.1389 C   0  0  0  0  0  0  0  0  0  0  0  0
  -27.7890  -25.2558   20.9116 C   0  0  0  0  0  0  0  0  0  0  0  0
  -32.0449  -13.5997   20.4268 C   0  0  0  0  0  0  0  0  0  0  0  0
  -30.0838  -15.5406   20.7921 C   0  0  0  0  0  0  0  0  0  0  0  0
  -26.6967  -16.9821   24.2698 C   0  0  0  0  0  0  0  0  0  0  0  0
  -29.3241  -24.6224   18.6699 C   0  0  0  0  0  0  0  0  0  0  0  0
  -27.8298  -23.9427   20.4426 C   0  0  0  0  0  0  0  0  0  0  0  0
  -26.4025  -18.3428   24.3465 C   0  0  0  0  0  0  0  0  0  0  0  0
  -29.9395  -21.3054   20.6003 C   0  0  0  0  0  0  0  0  0  0  0  0
  -30.1058  -20.2870   21.5387 C   0  0  0  0  0  0  0  0  0  0  0  0
  -24.3871  -17.9727   23.0735 C   0  0  0  0  0  0  0  0  0  0  0  0
  -21.6825  -26.5337   22.4291 C   0  0  0  0  0  0  0  0  0  0  0  0
  -21.9551  -28.9334   22.4899 C   0  0  0  0  0  0  0  0  0  0  0  0
  -23.1480  -27.5420   24.0639 C   0  0  0  0  0  0  0  0  0  0  0  0
  -27.9937  -19.3243   20.8684 C   0  0  0  0  0  0  0  0  0  0  0  0
  -28.5157  -26.2521   20.2598 C   0  0  0  0  0  0  0  0  0  0  0  0
  -29.5587  -28.3846   21.1936 C   0  0  0  0  0  0  0  0  0  0  0  0
  -30.7252  -13.3267   20.0339 C   0  0  0  0  0  0  0  0  0  0  0  0
  -25.8424  -16.1068   23.5839 C   0  0  0  0  0  0  0  0  0  0  0  0
  -29.7338  -14.3112   20.2084 C   0  0  0  0  0  0  0  0  0  0  0  0
  -24.6714  -16.6009   22.9917 C   0  0  0  0  0  0  0  0  0  0  0  0
  -21.3757  -27.7974   21.9247 C   0  0  0  0  0  0  0  0  0  0  0  0
  -22.5687  -26.4059   23.4987 C   0  0  0  0  0  0  0  0  0  0  0  0
  -22.8413  -28.8057   23.5595 C   0  0  0  0  0  0  0  0  0  0  0  0
  -28.5974  -23.6261   19.3217 C   0  0  0  0  0  0  0  0  0  0  0  0
  -25.2491  -18.8387   23.7458 C   0  0  0  0  0  0  0  0  0  0  0  0
  -28.8002  -21.3334   19.7959 C   0  0  0  0  0  0  0  0  0  0  0  0
  -29.1330  -19.2964   21.6727 C   0  0  0  0  0  0  0  0  0  0  0  0
  -27.8273  -20.3429   19.9300 C   0  0  0  0  0  0  0  0  0  0  0  0
  -28.4735  -27.6081   20.7451 C   0  0  0  0  0  0  0  0  0  0  0  0
  -28.9980  -29.5885   21.5438 C   0  0  0  0  0  0  0  0  0  0  0  0
  -30.9494  -28.0478   21.2855 C   0  0  0  0  0  0  0  0  0  0  0  0
  -26.1369  -14.2129   21.0481 C   0  0  0  0  0  0  0  0  0  0  0  0
  -23.1517  -13.2670   21.8946 C   0  0  0  0  0  0  0  0  0  0  0  0
  -20.2301  -13.9910   23.5030 C   0  0  0  0  0  0  0  0  0  0  0  0
  -23.6901  -31.1372   23.3730 C   0  0  0  0  0  0  0  0  0  0  0  0
  -30.4235  -12.0057   19.3715 C   0  0  0  0  0  0  0  0  0  0  0  0
  -26.1601  -14.6375   23.5331 C   0  0  0  0  0  0  0  0  0  0  0  0
  -23.7110  -15.6997   22.2609 C   0  0  0  0  0  0  0  0  0  0  0  0
  -28.9342  -11.6742   19.3241 C   0  0  0  0  0  0  0  0  0  0  0  0
  -25.3247  -32.4604   20.5059 C   0  0  0  0  0  0  0  0  0  0  0  0
  -28.1330  -12.8829   18.8507 C   0  0  0  0  0  0  0  0  0  0  0  0
  -26.4258  -31.4251   20.2795 C   0  0  0  0  0  0  0  0  0  0  0  0
  -24.0092  -31.8118   20.9379 C   0  0  0  0  0  0  0  0  0  0  0  0
  -25.2376  -29.8851   21.8882 C   0  0  0  0  0  0  0  0  0  0  0  0
  -28.2934  -14.0635   19.8160 C   0  0  1  0  0  0  0  0  0  0  0  0
  -25.4837  -13.9198   22.3692 C   0  0  1  0  0  0  0  0  0  0  0  0
  -26.5877  -30.5133   21.5086 C   0  0  1  0  0  0  0  0  0  0  0  0
  -20.4281  -27.9339   20.7811 C   0  0  0  0  0  0  0  0  0  0  0  0
  -17.9604  -13.0374   23.9891 C   0  0  0  0  0  0  0  0  0  0  0  0
  -22.2776  -13.8987   19.0404 C   0  0  0  0  0  0  0  0  0  0  0  0
  -19.9025  -13.8479   19.8307 C   0  0  0  0  0  0  0  0  0  0  0  0
  -21.3110  -11.7949   19.9859 C   0  0  0  0  0  0  0  0  0  0  0  0
  -23.5666  -30.0507   25.6045 C   0  0  0  0  0  0  0  0  0  0  0  0
  -20.7054  -14.0445   26.4236 C   0  0  0  0  0  0  0  0  0  0  0  0
  -22.9004  -25.0395   24.0438 C   0  0  0  0  0  0  0  0  0  0  0  0
  -24.1078  -24.3795   23.3683 C   0  0  0  0  0  0  0  0  0  0  0  0
  -24.4757  -23.0272   23.9871 C   0  0  0  0  0  0  0  0  0  0  0  0
  -25.6627  -22.3927   23.2645 C   0  0  0  0  0  0  0  0  0  0  0  0
  -26.0632  -21.0680   23.8981 C   0  0  0  0  0  0  0  0  0  1  0  0
  -21.7514  -13.7222   21.5619 C   0  0  1  0  0  0  0  0  0  0  0  0
  -19.3920  -13.1864   24.4801 C   0  0  2  0  0  0  0  0  0  0  0  0
  -21.3295  -13.3335   20.1167 C   0  0  0  0  0  0  0  0  0  0  0  0
  -27.3113  -28.2636   20.8040 N   0  0  0  0  0  0  0  0  0  0  0  0
  -27.6629  -29.4647   21.2938 N   0  0  0  0  0  0  0  0  0  0  0  0
  -24.0689  -14.2719   22.2334 N   0  0  0  0  0  0  0  0  0  0  0  0
  -24.2205  -30.9204   22.0872 N   0  0  0  0  0  0  0  0  0  0  0  0
  -29.5215  -30.7304   22.0382 N   0  0  0  0  0  0  0  0  0  0  0  0
  -31.4210  -27.4752   22.4746 N   0  0  0  0  0  0  0  0  0  0  0  0
  -27.4741  -13.8689   20.9930 N   0  0  0  0  0  0  0  0  0  0  0  0
  -20.8869  -13.1781   22.6035 N   0  0  0  0  0  0  0  0  0  0  0  0
  -23.4412  -29.9818   24.1446 N   0  0  0  0  0  0  0  0  0  0  0  0
  -19.3650  -13.8546   25.8119 N   0  3  0  0  0  0  0  0  0  0  0  0
  -31.7532  -28.2638   20.3470 O   0  0  0  0  0  0  0  0  0  0  0  0
  -25.4762  -14.7126   20.1451 O   0  0  0  0  0  0  0  0  0  0  0  0
  -23.4201  -12.0634   21.8623 O   0  0  0  0  0  0  0  0  0  0  0  0
  -20.2928  -15.2181   23.5323 O   0  0  0  0  0  0  0  0  0  0  0  0
  -23.4799  -32.2758   23.8083 O   0  0  0  0  0  0  0  0  0  0  0  0
  -28.6368  -22.3448   18.8642 O   0  0  0  0  0  0  0  0  0  0  0  0
  -24.9600  -20.1665   23.8186 O   0  0  0  0  0  0  0  0  0  1  0  0
  -29.2936  -18.3176   22.5728 F   0  0  0  0  0  0  0  0  0  0  0  0
  -26.7312  -20.3638   19.1592 F   0  0  0  0  0  0  0  0  0  0  0  0
  1  2  1  0  0  0  0
  1  5  2  0  0  0  0
  2  6  2  0  0  0  0
  3  8  2  0  0  0  0
  3 18  1  0  0  0  0
  4  9  1  0  0  0  0
  4 18  2  0  0  0  0
  5 20  1  0  0  0  0
  6 22  1  0  0  0  0
  7 10  2  0  0  0  0
  7 21  1  0  0  0  0
  8 27  1  0  0  0  0
  9 27  2  0  0  0  0
 10 28  1  0  0  0  0
 11 12  2  0  0  0  0
 11 29  1  0  0  0  0
 12 30  1  0  0  0  0
 13 23  1  0  0  0  0
 13 28  2  0  0  0  0
 14 24  2  0  0  0  0
 14 25  1  0  0  0  0
 15 24  1  0  0  0  0
 15 26  2  0  0  0  0
 16 25  2  0  0  0  0
 16 26  1  0  0  0  0
 17 30  2  0  0  0  0
 17 31  1  0  0  0  0
 18 32  1  0  0  0  0
 19 32  1  0  0  0  0
 19 33  2  0  0  0  0
 19 34  1  0  0  0  0
 20 22  2  0  0  0  0
 20 39  1  0  0  0  0
 21 23  2  0  0  0  0
 21 40  1  0  0  0  0
 22 48  1  0  0  0  0
 23 41  1  0  0  0  0
 24 51  1  0  0  0  0
 25 58  1  0  0  0  0
 26 74  1  0  0  0  0
 27 81  1  0  0  0  0
 28 82  1  0  0  0  0
 29 31  2  0  0  0  0
 29 81  1  0  0  0  0
 30 83  1  0  0  0  0
 31 84  1  0  0  0  0
 32 66  2  0  0  0  0
 33 67  1  0  0  0  0
 33 70  1  0  0  0  0
 34 71  1  0  0  0  0
 34 76  2  0  0  0  0
 35 49  1  0  0  0  0
 35 72  1  0  0  0  0
 35 77  2  0  0  0  0
 36 63  1  0  0  0  0
 36 68  1  0  0  0  0
 36 78  2  0  0  0  0
 37 64  1  0  0  0  0
 37 73  1  0  0  0  0
 37 79  2  0  0  0  0
 38 69  1  0  0  0  0
 38 74  1  0  0  0  0
 38 80  2  0  0  0  0
 39 42  1  0  0  0  0
 40 49  1  0  0  0  0
 41 68  1  0  0  0  0
 42 44  1  0  0  0  0
 43 45  1  0  0  0  0
 43 46  1  0  0  0  0
 44 48  1  0  0  0  0
 45 50  1  0  0  0  0
 46 69  1  0  0  0  0
 47 50  1  0  0  0  0
 47 69  1  0  0  0  0
 48 72  1  0  0  0  0
 49 68  1  0  0  0  0
 50 67  1  0  0  0  0
 52 64  1  0  0  0  0
 53 65  1  0  0  0  0
 54 65  1  0  0  0  0
 55 65  1  0  0  0  0
 56 74  1  0  0  0  0
 57 75  1  0  0  0  0
 58 59  1  0  0  0  0
 59 60  1  0  0  0  0
 60 61  1  0  0  0  0
 61 62  1  0  0  0  0
 62 82  1  0  0  0  0
 63 65  1  0  0  0  0
 63 73  1  0  0  0  0
 64 75  1  0  0  0  0
 66 67  1  0  0  0  0
M  CHG  1  75   1
M  ISO  4  38 100  62 101  74 100  82 101
M  END
> <Batch ID>
0026

> <Smiles>
CNC(C)C(=O)NC(C(=O)N1Cc2cc([101O:1][101CH2:1]CCCCc3cc(C)cc([100N:0](C)[100C:0](=O)N4CCCC(n5nc(-c6ccc(Oc7ccc(F)cc7F)cc6)c(C(N)=O)c5N)C4)c3)ccc2CC1C(=O)NC1CCCc2ccccc21)C(C)(C)C

> <Shape>
0.259

> <Color>
0.070

> <Negative vol penalty>
0.000

$$$$

  -OEChem-04052316273D

 92100  0     1  0  0  0  0  0999 V2000
  -32.5905  -17.0972   22.9998 C   0  0  0  0  0  0  0  0  0  0  0  0
  -31.3708  -17.6927   23.3049 C   0  0  0  0  0  0  0  0  0  0  0  0
  -22.4607  -28.8972   19.5893 C   0  0  0  0  0  0  0  0  0  0  0  0
  -22.4786  -27.6412   21.6531 C   0  0  0  0  0  0  0  0  0  0  0  0
  -32.6916  -16.2394   21.9053 C   0  0  0  0  0  0  0  0  0  0  0  0
  -30.2517  -17.4317   22.5150 C   0  0  0  0  0  0  0  0  0  0  0  0
  -24.4367  -17.0179   24.3912 C   0  0  0  0  0  0  0  0  0  0  0  0
  -21.0788  -29.0535   19.6964 C   0  0  0  0  0  0  0  0  0  0  0  0
  -21.0967  -27.7975   21.7602 C   0  0  0  0  0  0  0  0  0  0  0  0
  -23.3793  -17.9265   24.3761 C   0  0  0  0  0  0  0  0  0  0  0  0
  -18.9313  -30.2067   22.7234 C   0  0  0  0  0  0  0  0  0  0  0  0
  -18.4159  -30.5658   23.9688 C   0  0  0  0  0  0  0  0  0  0  0  0
  -22.5902  -16.9647   22.3094 C   0  0  0  0  0  0  0  0  0  0  0  0
  -29.8360  -21.8466   23.3439 C   0  0  0  0  0  0  0  0  0  0  0  0
  -17.1079  -28.5349   24.0130 C   0  0  0  0  0  0  0  0  0  0  0  0
  -23.1606  -28.1910   20.5676 C   0  0  0  0  0  0  0  0  0  0  0  0
  -25.5829  -28.8833   20.9690 C   0  0  0  0  0  0  0  0  0  0  0  0
  -31.5709  -15.9601   21.1073 C   0  0  0  0  0  0  0  0  0  0  0  0
  -24.5852  -16.0814   23.3580 C   0  0  0  0  0  0  0  0  0  0  0  0
  -30.3383  -16.5704   21.4081 C   0  0  0  0  0  0  0  0  0  0  0  0
  -23.6488  -16.0436   22.3150 C   0  0  0  0  0  0  0  0  0  0  0  0
  -28.5505  -21.6264   22.8494 C   0  0  0  0  0  0  0  0  0  0  0  0
  -28.9219  -22.2399   25.5454 C   0  0  0  0  0  0  0  0  0  0  0  0
  -27.6363  -22.0198   25.0509 C   0  0  0  0  0  0  0  0  0  0  0  0
  -20.3968  -28.5037   20.7818 C   0  0  0  0  0  0  0  0  0  0  0  0
  -22.4575  -17.9019   23.3336 C   0  0  0  0  0  0  0  0  0  0  0  0
  -18.5351  -29.0117   22.1228 C   0  0  0  0  0  0  0  0  0  0  0  0
  -17.5042  -29.7299   24.6136 C   0  0  0  0  0  0  0  0  0  0  0  0
  -17.6234  -28.1758   22.7676 C   0  0  0  0  0  0  0  0  0  0  0  0
  -30.0217  -22.1533   24.6919 C   0  0  0  0  0  0  0  0  0  0  0  0
  -27.4506  -21.7131   23.7028 C   0  0  0  0  0  0  0  0  0  0  0  0
  -24.5881  -28.0287   20.4573 C   0  0  0  0  0  0  0  0  0  0  0  0
  -26.7664  -28.2922   20.6000 C   0  0  0  0  0  0  0  0  0  0  0  0
  -25.4490  -30.1025   21.7116 C   0  0  0  0  0  0  0  0  0  0  0  0
  -26.8124  -15.4915   21.1683 C   0  0  0  0  0  0  0  0  0  0  0  0
  -24.9402  -12.9233   20.5194 C   0  0  0  0  0  0  0  0  0  0  0  0
  -21.8455  -11.4897   20.6395 C   0  0  0  0  0  0  0  0  0  0  0  0
  -28.2753  -22.6423   19.3142 C   0  0  0  0  0  0  0  0  0  0  0  0
  -31.7401  -15.0634   19.9065 C   0  0  0  0  0  0  0  0  0  0  0  0
  -25.7160  -15.0907   23.4028 C   0  0  0  0  0  0  0  0  0  0  0  0
  -23.7520  -15.0447   21.1925 C   0  0  0  0  0  0  0  0  0  0  0  0
  -30.4197  -14.5454   19.3423 C   0  0  0  0  0  0  0  0  0  0  0  0
  -28.6565  -25.4911   17.2129 C   0  0  0  0  0  0  0  0  0  0  0  0
  -29.4095  -15.6816   19.2187 C   0  0  0  0  0  0  0  0  0  0  0  0
  -27.7468  -26.5416   17.8523 C   0  0  0  0  0  0  0  0  0  0  0  0
  -28.0590  -24.0895   17.3154 C   0  0  0  0  0  0  0  0  0  0  0  0
  -26.7730  -24.7255   19.3193 C   0  0  0  0  0  0  0  0  0  0  0  0
  -29.0959  -16.2926   20.5898 C   0  0  1  0  0  0  0  0  0  0  0  0
  -26.0627  -14.5173   22.0322 C   0  0  1  0  0  0  0  0  0  0  0  0
  -27.3593  -26.1473   19.2902 C   0  0  2  0  0  0  0  0  0  0  0  0
  -29.1088  -22.5670   26.9948 C   0  0  0  0  0  0  0  0  0  0  0  0
  -20.6174   -9.3976   19.9974 C   0  0  0  0  0  0  0  0  0  0  0  0
  -24.9155  -13.8344   17.6075 C   0  0  0  0  0  0  0  0  0  0  0  0
  -22.9630  -12.3154   17.2215 C   0  0  0  0  0  0  0  0  0  0  0  0
  -25.1596  -11.3660   17.9262 C   0  0  0  0  0  0  0  0  0  0  0  0
  -21.1476  -10.8969   23.4539 C   0  0  0  0  0  0  0  0  0  0  0  0
  -28.3996  -21.3000   21.3980 C   0  0  0  0  0  0  0  0  0  0  0  0
  -26.4643  -22.1172   25.9825 C   0  0  0  0  0  0  0  0  0  0  0  0
  -21.8386  -24.0991   23.1224 C   0  0  0  0  0  0  0  0  0  0  0  0
  -22.3142  -23.9427   24.5704 C   0  0  0  0  0  0  0  0  0  0  0  0
  -20.8243  -23.0579   22.6369 C   0  0  0  0  0  0  0  0  0  0  0  0
  -23.3066  -25.0237   25.0067 C   0  0  0  0  0  0  0  0  0  0  0  0
  -21.3822  -21.6330   22.6140 C   0  0  0  0  0  0  0  0  0  0  0  0
  -23.7682  -24.7994   26.4504 C   0  0  0  0  0  0  0  0  0  0  0  0
  -20.3627  -20.5946   22.1429 C   0  0  0  0  0  0  0  0  0  0  0  0
  -24.4737  -23.4651   26.6603 C   0  0  0  0  0  0  0  0  0  0  0  0
  -20.9306  -19.1855   22.0387 C   0  0  0  0  0  0  0  0  0  1  0  0
  -23.7726  -12.6563   19.6005 C   0  0  1  0  0  0  0  0  0  0  0  0
  -21.3891  -10.1150   21.0940 C   0  0  2  0  0  0  0  0  0  0  0  0
  -24.2015  -12.5632   18.1089 C   0  0  0  0  0  0  0  0  0  0  0  0
  -25.0955  -26.9750   19.8122 N   0  0  0  0  0  0  0  0  0  0  0  0
  -26.4220  -27.1636   19.9160 N   0  0  0  0  0  0  0  0  0  0  0  0
  -24.8787  -14.1009   21.2778 N   0  0  0  0  0  0  0  0  0  0  0  0
  -27.7149  -23.7769   18.7046 N   0  0  0  0  0  0  0  0  0  0  0  0
  -28.0577  -28.6329   20.7970 N   0  0  0  0  0  0  0  0  0  0  0  0
  -24.1600  -30.5679   22.0052 N   0  0  0  0  0  0  0  0  0  0  0  0
  -28.1845  -15.4426   21.3253 N   0  0  0  0  0  0  0  0  0  0  0  0
  -23.1182  -11.4561   20.1101 N   0  0  0  0  0  0  0  0  0  0  0  0
  -27.9016  -22.4224   20.6344 N   0  0  0  0  0  0  0  0  0  0  0  0
  -20.5078  -10.2310   22.2901 N   0  3  0  0  0  0  0  0  0  0  0  0
  -25.6753  -23.3667   25.7989 N   0  3  0  0  0  0  0  0  0  0  0  0
  -26.4429  -30.7682   22.0891 O   0  0  0  0  0  0  0  0  0  0  0  0
  -26.1922  -16.2317   20.4139 O   0  0  0  0  0  0  0  0  0  0  0  0
  -25.8691  -12.1131   20.5680 O   0  0  0  0  0  0  0  0  0  0  0  0
  -21.1418  -12.4923   20.7405 O   0  0  0  0  0  0  0  0  0  0  0  0
  -29.0553  -21.8845   18.7273 O   0  0  0  0  0  0  0  0  0  0  0  0
  -19.0483  -28.6562   20.8867 O   0  0  0  0  0  0  0  0  0  0  0  0
  -21.4177  -18.7943   23.3161 O   0  0  0  0  0  0  0  0  0  1  0  0
  -17.0104  -30.0741   25.8102 F   0  0  0  0  0  0  0  0  0  0  0  0
  -17.2398  -27.0260   22.1961 F   0  0  0  0  0  0  0  0  0  0  0  0
  -31.6294  -22.4164   25.2645 Cl  0  0  0  0  0  0  0  0  0  0  0  0
  -25.8555  -21.4399   23.0842 Cl  0  0  0  0  0  0  0  0  0  0  0  0
  1  2  1  0  0  0  0
  1  5  2  0  0  0  0
  2  6  2  0  0  0  0
  3  8  2  0  0  0  0
  3 16  1  0  0  0  0
  4  9  1  0  0  0  0
  4 16  2  0  0  0  0
  5 18  1  0  0  0  0
  6 20  1  0  0  0  0
  7 10  2  0  0  0  0
  7 19  1  0  0  0  0
  8 25  1  0  0  0  0
  9 25  2  0  0  0  0
 10 26  1  0  0  0  0
 11 12  2  0  0  0  0
 11 27  1  0  0  0  0
 12 28  1  0  0  0  0
 13 21  1  0  0  0  0
 13 26  2  0  0  0  0
 14 22  2  0  0  0  0
 14 30  1  0  0  0  0
 15 28  2  0  0  0  0
 15 29  1  0  0  0  0
 16 32  1  0  0  0  0
 17 32  1  0  0  0  0
 17 33  2  0  0  0  0
 17 34  1  0  0  0  0
 18 20  2  0  0  0  0
 18 39  1  0  0  0  0
 19 21  2  0  0  0  0
 19 40  1  0  0  0  0
 20 48  1  0  0  0  0
 21 41  1  0  0  0  0
 22 31  1  0  0  0  0
 22 57  1  0  0  0  0
 23 24  1  0  0  0  0
 23 30  2  0  0  0  0
 23 51  1  0  0  0  0
 24 31  2  0  0  0  0
 24 58  1  0  0  0  0
 25 87  1  0  0  0  0
 26 88  1  0  0  0  0
 27 29  2  0  0  0  0
 27 87  1  0  0  0  0
 28 89  1  0  0  0  0
 29 90  1  0  0  0  0
 30 91  1  0  0  0  0
 31 92  1  0  0  0  0
 32 71  2  0  0  0  0
 33 72  1  0  0  0  0
 33 75  1  0  0  0  0
 34 76  1  0  0  0  0
 34 82  2  0  0  0  0
 35 49  1  0  0  0  0
 35 77  1  0  0  0  0
 35 83  2  0  0  0  0
 36 68  1  0  0  0  0
 36 73  1  0  0  0  0
 36 84  2  0  0  0  0
 37 69  1  0  0  0  0
 37 78  1  0  0  0  0
 37 85  2  0  0  0  0
 38 74  1  0  0  0  0
 38 79  1  0  0  0  0
 38 86  2  0  0  0  0
 39 42  1  0  0  0  0
 40 49  1  0  0  0  0
 41 73  1  0  0  0  0
 42 44  1  0  0  0  0
 43 45  1  0  0  0  0
 43 46  1  0  0  0  0
 44 48  1  0  0  0  0
 45 50  1  0  0  0  0
 46 74  1  0  0  0  0
 47 50  1  0  0  0  0
 47 74  1  0  0  0  0
 48 77  1  0  0  0  0
 49 73  1  0  0  0  0
 50 72  1  0  0  0  0
 52 69  1  0  0  0  0
 53 70  1  0  0  0  0
 54 70  1  0  0  0  0
 55 70  1  0  0  0  0
 56 80  1  0  0  0  0
 57 79  1  0  0  0  0
 58 81  1  0  0  0  0
 59 60  1  0  0  0  0
 59 61  1  0  0  0  0
 60 62  1  0  0  0  0
 61 63  1  0  0  0  0
 62 64  1  0  0  0  0
 63 65  1  0  0  0  0
 64 66  1  0  0  0  0
 65 67  1  0  0  0  0
 66 81  1  0  0  0  0
 67 88  1  0  0  0  0
 68 70  1  0  0  0  0
 68 78  1  0  0  0  0
 69 80  1  0  0  0  0
 71 72  1  0  0  0  0
M  CHG  2  80   1  81   1
M  ISO  4  38 100  67 101  79 100  88 101
M  END
> <Batch ID>
0026

> <Smiles>
CNC(C)C(=O)NC(C(=O)N1Cc2cc([101O:1][101CH2:1]CCCCCCCCNCc3c(C)c(Cl)cc(C[100NH:0][100C:0](=O)N4CCCC(n5nc(-c6ccc(Oc7ccc(F)cc7F)cc6)c(C(N)=O)c5N)C4)c3Cl)ccc2CC1C(=O)NC1CCCc2ccccc21)C(C)(C)C

> <Shape>
0.223

> <Color>
0.057

> <Negative vol penalty>
0.000

$$$$

  -OEChem-04052316273D

 85 93  0     1  0  0  0  0  0999 V2000
  -24.4701  -19.1905   26.2428 C   0  0  0  0  0  0  0  0  0  0  0  0
  -25.0480  -19.9181   25.2075 C   0  0  0  0  0  0  0  0  0  0  0  0
  -24.3341   -9.5321   21.3432 C   0  0  0  0  0  0  0  0  0  0  0  0
  -24.9163  -10.5423   23.4592 C   0  0  0  0  0  0  0  0  0  0  0  0
  -23.1243  -19.3755   26.5568 C   0  0  0  0  0  0  0  0  0  0  0  0
  -24.2802  -20.8304   24.4847 C   0  0  0  0  0  0  0  0  0  0  0  0
  -26.6778  -25.2286   23.7413 C   0  0  0  0  0  0  0  0  0  0  0  0
  -23.9761   -8.3564   22.0030 C   0  0  0  0  0  0  0  0  0  0  0  0
  -24.5583   -9.3667   24.1190 C   0  0  0  0  0  0  0  0  0  0  0  0
  -27.6481  -25.2636   22.7408 C   0  0  0  0  0  0  0  0  0  0  0  0
  -22.5678   -5.2129   23.1649 C   0  0  0  0  0  0  0  0  0  0  0  0
  -21.3744   -4.5962   22.7895 C   0  0  0  0  0  0  0  0  0  0  0  0
  -26.0623  -26.2999   21.2474 C   0  0  0  0  0  0  0  0  0  0  0  0
  -29.5116  -19.2183   18.9186 C   0  0  0  0  0  0  0  0  0  0  0  0
  -20.1512   -6.5848   23.4110 C   0  0  0  0  0  0  0  0  0  0  0  0
  -24.8042  -10.6250   22.0713 C   0  0  0  0  0  0  0  0  0  0  0  0
  -24.3431  -12.9365   21.0956 C   0  0  0  0  0  0  0  0  0  0  0  0
  -22.3420  -20.2976   25.8438 C   0  0  0  0  0  0  0  0  0  0  0  0
  -25.3870  -25.7198   23.4984 C   0  0  0  0  0  0  0  0  0  0  0  0
  -22.9223  -21.0270   24.7885 C   0  0  0  0  0  0  0  0  0  0  0  0
  -25.0781  -26.2723   22.2473 C   0  0  0  0  0  0  0  0  0  0  0  0
  -29.2651  -20.5001   18.4268 C   0  0  0  0  0  0  0  0  0  0  0  0
  -28.2810  -21.2952   19.0142 C   0  0  0  0  0  0  0  0  0  0  0  0
  -27.5434  -20.8085   20.0935 C   0  0  0  0  0  0  0  0  0  0  0  0
  -28.7741  -18.7316   19.9979 C   0  0  0  0  0  0  0  0  0  0  0  0
  -24.0882   -8.2737   23.3909 C   0  0  0  0  0  0  0  0  0  0  0  0
  -27.3396  -25.7967   21.4927 C   0  0  0  0  0  0  0  0  0  0  0  0
  -22.5530   -6.5156   23.6635 C   0  0  0  0  0  0  0  0  0  0  0  0
  -20.1661   -5.2821   22.9125 C   0  0  0  0  0  0  0  0  0  0  0  0
  -21.3447   -7.2015   23.7865 C   0  0  0  0  0  0  0  0  0  0  0  0
  -27.7900  -19.5267   20.5854 C   0  0  0  0  0  0  0  0  0  0  0  0
  -25.1747  -11.8395   21.3903 C   0  0  0  0  0  0  0  0  0  0  0  0
  -25.1645  -13.8254   20.4461 C   0  0  0  0  0  0  0  0  0  0  0  0
  -22.9525  -13.1344   21.3833 C   0  0  0  0  0  0  0  0  0  0  0  0
  -22.4713  -24.4541   23.4829 C   0  0  0  0  0  0  0  0  0  0  0  0
  -21.5588  -27.5366   23.0497 C   0  0  0  0  0  0  0  0  0  0  0  0
  -22.3668  -30.6738   21.9764 C   0  0  0  0  0  0  0  0  0  0  0  0
  -30.0063  -16.5344   19.9762 C   0  0  0  0  0  0  0  0  0  0  0  0
  -20.8796  -20.4288   26.1887 C   0  0  0  0  0  0  0  0  0  0  0  0
  -24.3595  -25.6992   24.5967 C   0  0  0  0  0  0  0  0  0  0  0  0
  -23.7132  -26.8312   21.9423 C   0  0  0  0  0  0  0  0  0  0  0  0
  -20.2301  -21.6875   25.6195 C   0  0  0  0  0  0  0  0  0  0  0  0
  -29.8475  -13.2488   18.6136 C   0  0  0  0  0  0  0  0  0  0  0  0
  -20.6130  -21.8699   24.1542 C   0  0  0  0  0  0  0  0  0  0  0  0
  -28.5493  -12.6795   19.1903 C   0  0  0  0  0  0  0  0  0  0  0  0
  -30.5719  -14.1411   19.6200 C   0  0  0  0  0  0  0  0  0  0  0  0
  -28.4557  -14.6448   20.7765 C   0  0  0  0  0  0  0  0  0  0  0  0
  -22.1285  -22.0440   23.9976 C   0  0  1  0  0  0  0  0  0  0  0  0
  -22.9268  -25.7575   24.0757 C   0  0  1  0  0  0  0  0  0  0  0  0
  -27.6578  -13.7916   19.7769 C   0  0  2  0  0  0  0  0  0  0  0  0
  -30.0684  -20.9971   17.2694 C   0  0  0  0  0  0  0  0  0  0  0  0
  -26.4901  -21.6773   20.7089 C   0  0  0  0  0  0  0  0  0  0  0  0
  -21.4017  -32.9753   21.7133 C   0  0  0  0  0  0  0  0  0  0  0  0
  -30.1916  -25.7364   18.2757 C   0  0  0  0  0  0  0  0  0  0  0  0
  -19.9952  -26.5988   20.6031 C   0  0  0  0  0  0  0  0  0  0  0  0
  -19.8569  -28.9864   19.8628 C   0  0  0  0  0  0  0  0  0  0  0  0
  -18.8082  -28.2872   22.0155 C   0  0  0  0  0  0  0  0  0  0  0  0
  -24.3731  -31.8503   23.8065 C   0  0  0  0  0  0  0  0  0  0  0  0
  -28.0175  -22.6722   18.4802 C   0  0  0  0  0  0  0  0  0  0  0  0
  -27.8266  -25.7447   19.1654 C   0  0  0  0  0  0  0  0  0  1  0  0
  -21.3274  -28.4247   21.8511 C   0  0  1  0  0  0  0  0  0  0  0  0
  -22.1835  -32.0367   22.6193 C   0  0  2  0  0  0  0  0  0  0  0  0
  -28.8512  -25.0198   18.3001 C   0  0  2  0  0  0  0  0  0  0  0  0
  -20.0222  -28.0620   21.0880 C   0  0  0  0  0  0  0  0  0  0  0  0
  -26.4282  -12.0133   20.9630 N   0  0  0  0  0  0  0  0  0  0  0  0
  -26.3903  -13.2298   20.3931 N   0  0  0  0  0  0  0  0  0  0  0  0
  -22.7408  -26.7827   23.0468 N   0  0  0  0  0  0  0  0  0  0  0  0
  -29.6669  -15.1736   20.1297 N   0  0  0  0  0  0  0  0  0  0  0  0
  -24.9505  -15.0504   19.9209 N   0  0  0  0  0  0  0  0  0  0  0  0
  -22.2588  -12.1202   22.0575 N   0  0  0  0  0  0  0  0  0  0  0  0
  -29.0542  -17.4254   20.4704 N   0  0  0  0  0  0  0  0  0  0  0  0
  -22.5229  -23.3882   24.3608 N   0  0  0  0  0  0  0  0  0  0  0  0
  -21.3689  -29.7967   22.3455 N   0  0  0  0  0  0  0  0  0  0  0  0
  -23.5081  -32.6561   22.9068 N   0  3  0  0  0  0  0  0  0  0  0  0
  -29.0640  -23.6544   18.8617 N   0  3  0  0  0  0  0  0  0  0  0  0
  -22.3391  -14.1726   21.0377 O   0  0  0  0  0  0  0  0  0  0  0  0
  -22.0991  -24.4184   22.3160 O   0  0  0  0  0  0  0  0  0  0  0  0
  -20.7249  -27.5181   23.9586 O   0  0  0  0  0  0  0  0  0  0  0  0
  -23.2996  -30.4144   21.2193 O   0  0  0  0  0  0  0  0  0  0  0  0
  -31.0510  -16.8841   19.4210 O   0  0  0  0  0  0  0  0  0  0  0  0
  -23.7387   -7.1268   24.0351 O   0  0  0  0  0  0  0  0  0  0  0  0
  -28.2847  -25.8315   20.5141 O   0  0  0  0  0  0  0  0  0  1  0  0
  -19.0203   -4.6903   22.5505 F   0  0  0  0  0  0  0  0  0  0  0  0
  -21.3242   -8.4536   24.2636 F   0  0  0  0  0  0  0  0  0  0  0  0
  -26.8729  -18.9236   21.9283 Cl  0  0  0  0  0  0  0  0  0  0  0  0
  1  2  1  0  0  0  0
  1  5  2  0  0  0  0
  2  6  2  0  0  0  0
  3  8  2  0  0  0  0
  3 16  1  0  0  0  0
  4  9  1  0  0  0  0
  4 16  2  0  0  0  0
  5 18  1  0  0  0  0
  6 20  1  0  0  0  0
  7 10  2  0  0  0  0
  7 19  1  0  0  0  0
  8 26  1  0  0  0  0
  9 26  2  0  0  0  0
 10 27  1  0  0  0  0
 11 12  2  0  0  0  0
 11 28  1  0  0  0  0
 12 29  1  0  0  0  0
 13 21  1  0  0  0  0
 13 27  2  0  0  0  0
 14 22  2  0  0  0  0
 14 25  1  0  0  0  0
 15 29  2  0  0  0  0
 15 30  1  0  0  0  0
 16 32  1  0  0  0  0
 17 32  1  0  0  0  0
 17 33  2  0  0  0  0
 17 34  1  0  0  0  0
 18 20  2  0  0  0  0
 18 39  1  0  0  0  0
 19 21  2  0  0  0  0
 19 40  1  0  0  0  0
 20 48  1  0  0  0  0
 21 41  1  0  0  0  0
 22 23  1  0  0  0  0
 22 51  1  0  0  0  0
 23 24  2  0  0  0  0
 23 59  1  0  0  0  0
 24 31  1  0  0  0  0
 24 52  1  0  0  0  0
 25 31  2  0  0  0  0
 25 71  1  0  0  0  0
 26 81  1  0  0  0  0
 27 82  1  0  0  0  0
 28 30  2  0  0  0  0
 28 81  1  0  0  0  0
 29 83  1  0  0  0  0
 30 84  1  0  0  0  0
 31 85  1  0  0  0  0
 32 65  2  0  0  0  0
 33 66  1  0  0  0  0
 33 69  1  0  0  0  0
 34 70  1  0  0  0  0
 34 76  2  0  0  0  0
 35 49  1  0  0  0  0
 35 72  1  0  0  0  0
 35 77  2  0  0  0  0
 36 61  1  0  0  0  0
 36 67  1  0  0  0  0
 36 78  2  0  0  0  0
 37 62  1  0  0  0  0
 37 73  1  0  0  0  0
 37 79  2  0  0  0  0
 38 68  1  0  0  0  0
 38 71  1  0  0  0  0
 38 80  2  0  0  0  0
 39 42  1  0  0  0  0
 40 49  1  0  0  0  0
 41 67  1  0  0  0  0
 42 44  1  0  0  0  0
 43 45  1  0  0  0  0
 43 46  1  0  0  0  0
 44 48  1  0  0  0  0
 45 50  1  0  0  0  0
 46 68  1  0  0  0  0
 47 50  1  0  0  0  0
 47 68  1  0  0  0  0
 48 72  1  0  0  0  0
 49 67  1  0  0  0  0
 50 66  1  0  0  0  0
 53 62  1  0  0  0  0
 54 63  1  0  0  0  0
 55 64  1  0  0  0  0
 56 64  1  0  0  0  0
 57 64  1  0  0  0  0
 58 74  1  0  0  0  0
 59 75  1  0  0  0  0
 60 63  1  0  0  0  0
 60 82  1  0  0  0  0
 61 64  1  0  0  0  0
 61 73  1  0  0  0  0
 62 74  1  0  0  0  0
 63 75  1  0  0  0  0
 65 66  1  0  0  0  0
M  CHG  2  74   1  75   1
M  ISO  4  38 100  60 101  71 100  82 101
M  END
> <Batch ID>
0026

> <Smiles>
CNC(C)C(=O)NC(C(=O)N1Cc2cc([101O:1][101CH2:1]C(C)NCc3c(C)cc([100NH:0][100C:0](=O)N4CCCC(n5nc(-c6ccc(Oc7ccc(F)cc7F)cc6)c(C(N)=O)c5N)C4)c(Cl)c3C)ccc2CC1C(=O)NC1CCCc2ccccc21)C(C)(C)C

> <Shape>
0.272

> <Color>
0.126

> <Negative vol penalty>
0.000

$$$$

  -OEChem-04052316273D

 90 98  0     1  0  0  0  0  0999 V2000
  -32.6808   -8.2952   19.1877 C   0  0  0  0  0  0  0  0  0  0  0  0
  -32.6284   -9.1305   20.2978 C   0  0  0  0  0  0  0  0  0  0  0  0
  -27.1038  -30.8547   21.7632 C   0  0  0  0  0  0  0  0  0  0  0  0
  -25.5834  -29.5127   23.0763 C   0  0  0  0  0  0  0  0  0  0  0  0
  -32.3868   -8.8027   17.9239 C   0  0  0  0  0  0  0  0  0  0  0  0
  -32.2704  -10.4706   20.1462 C   0  0  0  0  0  0  0  0  0  0  0  0
  -30.7413  -17.9664   22.3136 C   0  0  0  0  0  0  0  0  0  0  0  0
  -27.1393  -31.8091   22.7797 C   0  0  0  0  0  0  0  0  0  0  0  0
  -25.6189  -30.4671   24.0929 C   0  0  0  0  0  0  0  0  0  0  0  0
  -30.6348  -19.2669   21.8225 C   0  0  0  0  0  0  0  0  0  0  0  0
  -25.1809  -34.3241   23.9039 C   0  0  0  0  0  0  0  0  0  0  0  0
  -25.0676  -35.6650   23.5370 C   0  0  0  0  0  0  0  0  0  0  0  0
  -28.9973  -18.5199   20.2163 C   0  0  0  0  0  0  0  0  0  0  0  0
  -27.2329  -36.1142   24.5101 C   0  0  0  0  0  0  0  0  0  0  0  0
  -26.3258  -29.7065   21.9115 C   0  0  0  0  0  0  0  0  0  0  0  0
  -27.3740  -27.9908   20.3413 C   0  0  0  0  0  0  0  0  0  0  0  0
  -32.0372  -10.1527   17.7559 C   0  0  0  0  0  0  0  0  0  0  0  0
  -29.9833  -16.9291   21.7516 C   0  0  0  0  0  0  0  0  0  0  0  0
  -31.9468  -10.9959   18.8821 C   0  0  0  0  0  0  0  0  0  0  0  0
  -29.0940  -17.2076   20.7038 C   0  0  0  0  0  0  0  0  0  0  0  0
  -26.3969  -31.6154   23.9446 C   0  0  0  0  0  0  0  0  0  0  0  0
  -29.7649  -19.5433   20.7718 C   0  0  0  0  0  0  0  0  0  0  0  0
  -26.3201  -33.8782   24.5740 C   0  0  0  0  0  0  0  0  0  0  0  0
  -26.0936  -36.5601   23.8401 C   0  0  0  0  0  0  0  0  0  0  0  0
  -27.3461  -34.7732   24.8770 C   0  0  0  0  0  0  0  0  0  0  0  0
  -26.2883  -28.7204   20.8615 C   0  0  0  0  0  0  0  0  0  0  0  0
  -26.8183  -27.1931   19.3711 C   0  0  0  0  0  0  0  0  0  0  0  0
  -28.7609  -28.0306   20.7028 C   0  0  0  0  0  0  0  0  0  0  0  0
  -21.2337  -25.1123   18.6002 C   0  0  0  0  0  0  0  0  0  0  0  0
  -30.6653  -14.2168   20.2410 C   0  0  0  0  0  0  0  0  0  0  0  0
  -27.4592  -13.7608   20.4290 C   0  0  0  0  0  0  0  0  0  0  0  0
  -24.4860  -15.7624   20.0153 C   0  0  0  0  0  0  0  0  0  0  0  0
  -31.7212  -10.6475   16.3665 C   0  0  0  0  0  0  0  0  0  0  0  0
  -30.0898  -15.5367   22.3104 C   0  0  0  0  0  0  0  0  0  0  0  0
  -28.2431  -16.1333   20.0791 C   0  0  0  0  0  0  0  0  0  0  0  0
  -31.7871  -12.1666   16.2470 C   0  0  0  0  0  0  0  0  0  0  0  0
  -23.1805  -27.0268   16.2796 C   0  0  0  0  0  0  0  0  0  0  0  0
  -30.9880  -12.8113   17.3697 C   0  0  0  0  0  0  0  0  0  0  0  0
  -20.1555  -23.8539   20.4259 C   0  0  0  0  0  0  0  0  0  0  0  0
  -20.3462  -23.0319   21.6998 C   0  0  0  0  0  0  0  0  0  0  0  0
  -24.2801  -27.6347   17.1494 C   0  0  0  0  0  0  0  0  0  0  0  0
  -22.5493  -23.3571   19.7527 C   0  0  0  0  0  0  0  0  0  0  0  0
  -21.8612  -26.9239   17.0385 C   0  0  0  0  0  0  0  0  0  0  0  0
  -23.0578  -26.7812   19.1994 C   0  0  0  0  0  0  0  0  0  0  0  0
  -31.5896  -12.4641   18.7373 C   0  0  1  0  0  0  0  0  0  0  0  0
  -21.4739  -24.4364   19.9160 C   0  0  1  0  0  0  0  0  0  0  0  0
  -29.6506  -14.4609   21.3219 C   0  0  1  0  0  0  0  0  0  0  0  0
  -21.4235  -21.9419   21.5578 C   0  0  2  0  0  0  0  0  0  0  0  0
  -24.4155  -26.8747   18.4807 C   0  0  2  0  0  0  0  0  0  0  0  0
  -22.7568  -22.5129   21.0207 C   0  0  2  0  0  0  0  0  0  0  0  0
  -19.6679  -20.1926   21.2204 C   0  0  0  0  0  0  0  0  0  0  0  0
  -22.1979  -15.5110   21.0146 C   0  0  0  0  0  0  0  0  0  0  0  0
  -25.4257  -24.6710   22.4167 C   0  0  0  0  0  0  0  0  0  0  0  0
  -26.8226  -12.2374   17.8631 C   0  0  0  0  0  0  0  0  0  0  0  0
  -24.5591  -13.3075   17.8719 C   0  0  0  0  0  0  0  0  0  0  0  0
  -25.2370  -11.8118   19.7497 C   0  0  0  0  0  0  0  0  0  0  0  0
  -26.1610  -20.2975   23.9699 C   0  0  0  0  0  0  0  0  0  0  0  0
  -25.6134  -22.5883   24.7643 C   0  0  0  0  0  0  0  0  0  0  0  0
  -23.8106  -21.1339   23.8463 C   0  0  0  0  0  0  0  0  0  0  0  0
  -24.5357  -18.5113   21.1109 C   0  0  0  0  0  0  0  0  0  0  0  0
  -20.9223  -20.7893   20.6773 C   0  0  0  0  0  0  0  0  0  0  0  0
  -29.0433  -23.0740   20.7950 C   0  0  0  0  0  0  0  0  0  0  0  0
  -27.5475  -22.7967   20.7988 C   0  0  0  0  0  0  0  0  0  0  0  0
  -29.8898  -21.8773   21.2108 C   0  0  0  0  0  0  0  0  0  1  0  0
  -26.2770  -14.1082   19.5568 C   0  0  1  0  0  0  0  0  0  0  0  0
  -23.5395  -16.2208   21.1100 C   0  0  2  0  0  0  0  0  0  0  0  0
  -24.8690  -23.3859   21.7893 C   0  0  1  0  0  0  0  0  0  0  0  0
  -25.6364  -22.1174   22.2567 C   0  0  2  0  0  0  0  0  0  0  0  0
  -25.7475  -12.8822   18.7606 C   0  0  0  0  0  0  0  0  0  0  0  0
  -25.2880  -21.5363   23.6753 C   0  0  0  0  0  0  0  0  0  0  0  0
  -25.1304  -28.4135   20.2706 N   0  0  0  0  0  0  0  0  0  0  0  0
  -25.4855  -27.4824   19.3690 N   0  0  0  0  0  0  0  0  0  0  0  0
  -22.0363  -26.2151   18.3074 N   0  0  0  0  0  0  0  0  0  0  0  0
  -28.3876  -14.7866   20.6563 N   0  0  0  0  0  0  0  0  0  0  0  0
  -27.3447  -26.2796   18.5280 N   0  0  0  0  0  0  0  0  0  0  0  0
  -29.2144  -27.1656   21.7080 N   0  0  0  0  0  0  0  0  0  0  0  0
  -30.6908  -12.9155   19.7767 N   0  0  0  0  0  0  0  0  0  0  0  0
  -25.2877  -14.7224   20.4357 N   0  0  0  0  0  0  0  0  0  0  0  0
  -23.4299  -23.3230   22.0434 N   0  0  0  0  0  0  0  0  0  0  0  0
  -23.3028  -17.6887   21.0091 N   0  3  0  0  0  0  0  0  0  0  0  0
  -27.1015  -22.3581   22.1421 N   0  3  0  0  0  0  0  0  0  0  0  0
  -29.5706  -28.8217   20.1622 O   0  0  0  0  0  0  0  0  0  0  0  0
  -20.3592  -24.6734   17.8487 O   0  0  0  0  0  0  0  0  0  0  0  0
  -31.3718  -15.1409   19.8556 O   0  0  0  0  0  0  0  0  0  0  0  0
  -27.5517  -12.6234   20.8974 O   0  0  0  0  0  0  0  0  0  0  0  0
  -24.5091  -16.2733   18.8977 O   0  0  0  0  0  0  0  0  0  0  0  0
  -26.4315  -32.5464   24.9368 O   0  0  0  0  0  0  0  0  0  0  0  0
  -29.6596  -20.8116   20.2901 O   0  0  0  0  0  0  0  0  0  1  0  0
  -25.9853  -37.8475   23.4863 F   0  0  0  0  0  0  0  0  0  0  0  0
  -28.4436  -34.3505   25.5195 F   0  0  0  0  0  0  0  0  0  0  0  0
  1  2  1  0  0  0  0
  1  5  2  0  0  0  0
  2  6  2  0  0  0  0
  3  8  2  0  0  0  0
  3 15  1  0  0  0  0
  4  9  1  0  0  0  0
  4 15  2  0  0  0  0
  5 17  1  0  0  0  0
  6 19  1  0  0  0  0
  7 10  2  0  0  0  0
  7 18  1  0  0  0  0
  8 21  1  0  0  0  0
  9 21  2  0  0  0  0
 10 22  1  0  0  0  0
 11 12  2  0  0  0  0
 11 23  1  0  0  0  0
 12 24  1  0  0  0  0
 13 20  1  0  0  0  0
 13 22  2  0  0  0  0
 14 24  2  0  0  0  0
 14 25  1  0  0  0  0
 15 26  1  0  0  0  0
 16 26  1  0  0  0  0
 16 27  2  0  0  0  0
 16 28  1  0  0  0  0
 17 19  2  0  0  0  0
 17 33  1  0  0  0  0
 18 20  2  0  0  0  0
 18 34  1  0  0  0  0
 19 45  1  0  0  0  0
 20 35  1  0  0  0  0
 21 87  1  0  0  0  0
 22 88  1  0  0  0  0
 23 25  2  0  0  0  0
 23 87  1  0  0  0  0
 24 89  1  0  0  0  0
 25 90  1  0  0  0  0
 26 71  2  0  0  0  0
 27 72  1  0  0  0  0
 27 75  1  0  0  0  0
 28 76  1  0  0  0  0
 28 82  2  0  0  0  0
 29 46  1  0  0  0  0
 29 73  1  0  0  0  0
 29 83  2  0  0  0  0
 30 47  1  0  0  0  0
 30 77  1  0  0  0  0
 30 84  2  0  0  0  0
 31 65  1  0  0  0  0
 31 74  1  0  0  0  0
 31 85  2  0  0  0  0
 32 66  1  0  0  0  0
 32 78  1  0  0  0  0
 32 86  2  0  0  0  0
 33 36  1  0  0  0  0
 34 47  1  0  0  0  0
 35 74  1  0  0  0  0
 36 38  1  0  0  0  0
 37 41  1  0  0  0  0
 37 43  1  0  0  0  0
 38 45  1  0  0  0  0
 39 40  1  0  0  0  0
 39 46  1  0  0  0  0
 40 48  1  0  0  0  0
 41 49  1  0  0  0  0
 42 46  1  0  0  0  0
 42 50  1  0  0  0  0
 43 73  1  0  0  0  0
 44 49  1  0  0  0  0
 44 73  1  0  0  0  0
 45 77  1  0  0  0  0
 47 74  1  0  0  0  0
 48 50  1  0  0  0  0
 48 61  1  0  0  0  0
 49 72  1  0  0  0  0
 50 79  1  0  0  0  0
 51 61  1  0  0  0  0
 52 66  1  0  0  0  0
 53 67  1  0  0  0  0
 54 69  1  0  0  0  0
 55 69  1  0  0  0  0
 56 69  1  0  0  0  0
 57 70  1  0  0  0  0
 58 70  1  0  0  0  0
 59 70  1  0  0  0  0
 60 80  1  0  0  0  0
 62 63  1  0  0  0  0
 62 64  1  0  0  0  0
 63 81  1  0  0  0  0
 64 88  1  0  0  0  0
 65 69  1  0  0  0  0
 65 78  1  0  0  0  0
 66 80  1  0  0  0  0
 67 68  1  0  0  0  0
 67 79  1  0  0  0  0
 68 70  1  0  0  0  0
 68 81  1  0  0  0  0
 71 72  1  0  0  0  0
M  CHG  2  80   1  81   1
M  ISO  4  29 100  46 100  64 101  88 101
M  END
> <Batch ID>
0026

> <Smiles>
CCC1CC[100CH:0]([100C:0](=O)N2CCCC(n3nc(-c4ccc(Oc5ccc(F)cc5F)cc4)c(C(N)=O)c3N)C2)CC1NC(C)C(NCC[101CH2:1][101O:1]c1ccc2c(c1)CN(C(=O)C(NC(=O)C(C)NC)C(C)(C)C)C(C(=O)NC1CCCc3ccccc31)C2)C(C)(C)C

> <Shape>
0.263

> <Color>
0.056

> <Negative vol penalty>
0.000

$$$$

  -OEChem-04052316273D

 86 94  0     1  0  0  0  0  0999 V2000
  -15.4021  -26.8259   24.5456 C   0  0  0  0  0  0  0  0  0  0  0  0
  -16.5197  -26.0709   24.2048 C   0  0  0  0  0  0  0  0  0  0  0  0
  -24.5827  -13.7837   24.0204 C   0  0  0  0  0  0  0  0  0  0  0  0
  -24.0946  -15.5597   22.4568 C   0  0  0  0  0  0  0  0  0  0  0  0
  -15.4416  -28.2154   24.4378 C   0  0  0  0  0  0  0  0  0  0  0  0
  -17.6773  -26.7049   23.7550 C   0  0  0  0  0  0  0  0  0  0  0  0
  -23.4606  -24.9746   24.7870 C   0  0  0  0  0  0  0  0  0  0  0  0
  -24.1476  -14.5901   25.0721 C   0  0  0  0  0  0  0  0  0  0  0  0
  -23.6595  -16.3660   23.5086 C   0  0  0  0  0  0  0  0  0  0  0  0
  -24.3785  -24.2626   24.0160 C   0  0  0  0  0  0  0  0  0  0  0  0
  -25.0535  -18.2715   25.9286 C   0  0  0  0  0  0  0  0  0  0  0  0
  -25.4871  -19.5971   25.9512 C   0  0  0  0  0  0  0  0  0  0  0  0
  -25.3299  -26.3397   23.2416 C   0  0  0  0  0  0  0  0  0  0  0  0
  -29.0286  -23.3760   21.5860 C   0  0  0  0  0  0  0  0  0  0  0  0
  -27.8135  -23.9139   19.5683 C   0  0  0  0  0  0  0  0  0  0  0  0
  -23.1936  -20.3491   25.8444 C   0  0  0  0  0  0  0  0  0  0  0  0
  -24.5563  -14.2686   22.7128 C   0  0  0  0  0  0  0  0  0  0  0  0
  -24.2301  -12.5474   20.8583 C   0  0  0  0  0  0  0  0  0  0  0  0
  -16.6035  -28.8674   23.9956 C   0  0  0  0  0  0  0  0  0  0  0  0
  -23.4635  -26.3769   24.7826 C   0  0  0  0  0  0  0  0  0  0  0  0
  -17.7320  -28.1043   23.6399 C   0  0  0  0  0  0  0  0  0  0  0  0
  -24.4128  -27.0671   24.0154 C   0  0  0  0  0  0  0  0  0  0  0  0
  -28.0131  -24.0799   20.9388 C   0  0  0  0  0  0  0  0  0  0  0  0
  -29.6451  -22.3402   19.4922 C   0  0  0  0  0  0  0  0  0  0  0  0
  -23.6860  -15.8812   24.8162 C   0  0  0  0  0  0  0  0  0  0  0  0
  -25.3115  -24.9452   23.2409 C   0  0  0  0  0  0  0  0  0  0  0  0
  -23.6900  -17.9847   25.8638 C   0  0  0  0  0  0  0  0  0  0  0  0
  -24.5572  -20.6358   25.9092 C   0  0  0  0  0  0  0  0  0  0  0  0
  -22.7600  -19.0235   25.8217 C   0  0  0  0  0  0  0  0  0  0  0  0
  -29.8447  -22.5062   20.8627 C   0  0  0  0  0  0  0  0  0  0  0  0
  -28.6296  -23.0441   18.8449 C   0  0  0  0  0  0  0  0  0  0  0  0
  -25.0062  -13.4363   21.6260 C   0  0  0  0  0  0  0  0  0  0  0  0
  -25.1171  -12.0032   19.9620 C   0  0  0  0  0  0  0  0  0  0  0  0
  -22.8322  -12.2411   20.9475 C   0  0  0  0  0  0  0  0  0  0  0  0
  -21.3787  -28.6216   23.9349 C   0  0  0  0  0  0  0  0  0  0  0  0
  -23.6068  -30.6159   25.1921 C   0  0  0  0  0  0  0  0  0  0  0  0
  -26.8713  -31.1530   26.0299 C   0  0  0  0  0  0  0  0  0  0  0  0
  -30.3037  -13.9325   17.6755 C   0  0  0  0  0  0  0  0  0  0  0  0
  -16.5830  -30.3685   23.8504 C   0  0  0  0  0  0  0  0  0  0  0  0
  -22.4841  -27.1300   25.6405 C   0  0  0  0  0  0  0  0  0  0  0  0
  -24.4708  -28.5719   23.9916 C   0  0  0  0  0  0  0  0  0  0  0  0
  -17.9727  -30.9871   23.7222 C   0  0  0  0  0  0  0  0  0  0  0  0
  -29.7490  -10.9093   19.4724 C   0  0  0  0  0  0  0  0  0  0  0  0
  -18.8133  -30.2075   22.7160 C   0  0  0  0  0  0  0  0  0  0  0  0
  -28.4006  -11.1339   20.1588 C   0  0  0  0  0  0  0  0  0  0  0  0
  -30.5751  -12.1925   19.4176 C   0  0  0  0  0  0  0  0  0  0  0  0
  -28.5356  -13.5733   19.5034 C   0  0  0  0  0  0  0  0  0  0  0  0
  -19.0145  -28.7571   23.1715 C   0  0  1  0  0  0  0  0  0  0  0  0
  -22.2449  -28.5583   25.1611 C   0  0  1  0  0  0  0  0  0  0  0  0
  -27.6434  -12.3205   19.5328 C   0  0  2  0  0  0  0  0  0  0  0  0
  -28.3941  -32.8931   27.0047 C   0  0  0  0  0  0  0  0  0  0  0  0
  -23.5499  -32.1420   22.5506 C   0  0  0  0  0  0  0  0  0  0  0  0
  -25.7041  -33.2317   23.2139 C   0  0  0  0  0  0  0  0  0  0  0  0
  -23.6533  -33.5878   24.5886 C   0  0  0  0  0  0  0  0  0  0  0  0
  -27.5999  -29.4071   28.3059 C   0  0  0  0  0  0  0  0  0  0  0  0
  -30.5221  -21.4064   18.7151 C   0  0  0  0  0  0  0  0  0  0  0  0
  -27.1357  -25.0160   21.7167 C   0  0  0  0  0  0  0  0  0  1  0  0
  -30.6934  -16.9500   16.3444 C   0  0  0  0  0  0  0  0  0  0  0  0
  -29.9114  -17.9260   17.2315 C   0  0  0  0  0  0  0  0  0  0  0  0
  -29.8832  -15.7060   15.9912 C   0  0  0  0  0  0  0  0  0  0  0  0
  -30.6754  -19.2088   17.5378 C   0  0  0  0  0  0  0  0  0  0  0  0
  -24.8154  -31.3434   24.6545 C   0  0  1  0  0  0  0  0  0  0  0  0
  -27.5105  -31.6906   27.2976 C   0  0  2  0  0  0  0  0  0  0  0  0
  -24.4286  -32.5479   23.7506 C   0  0  0  0  0  0  0  0  0  0  0  0
  -26.2877  -13.4584   21.2503 N   0  0  0  0  0  0  0  0  0  0  0  0
  -26.3237  -12.5766   20.2368 N   0  0  0  0  0  0  0  0  0  0  0  0
  -23.4881  -29.2633   24.8424 N   0  0  0  0  0  0  0  0  0  0  0  0
  -29.8002  -13.2781   18.8119 N   0  0  0  0  0  0  0  0  0  0  0  0
  -24.9749  -11.0948   18.9735 N   0  0  0  0  0  0  0  0  0  0  0  0
  -22.0669  -12.8908   21.9255 N   0  0  0  0  0  0  0  0  0  0  0  0
  -20.0252  -28.6875   24.2050 N   0  0  0  0  0  0  0  0  0  0  0  0
  -25.6251  -31.7022   25.8139 N   0  0  0  0  0  0  0  0  0  0  0  0
  -29.5036  -14.9453   17.1607 N   0  0  0  0  0  0  0  0  0  0  0  0
  -28.3467  -30.6388   27.9422 N   0  3  0  0  0  0  0  0  0  0  0  0
  -29.8465  -20.1314   18.3586 N   0  3  0  0  0  0  0  0  0  0  0  0
  -22.2816  -11.4035   20.1933 O   0  0  0  0  0  0  0  0  0  0  0  0
  -21.9000  -28.6128   22.8259 O   0  0  0  0  0  0  0  0  0  0  0  0
  -22.8016  -31.2234   25.9022 O   0  0  0  0  0  0  0  0  0  0  0  0
  -27.4238  -30.3312   25.3021 O   0  0  0  0  0  0  0  0  0  0  0  0
  -31.3835  -13.6327   17.1549 O   0  0  0  0  0  0  0  0  0  0  0  0
  -23.2611  -16.6682   25.8422 O   0  0  0  0  0  0  0  0  0  0  0  0
  -26.2080  -24.2527   22.4869 O   0  0  0  0  0  0  0  0  0  1  0  0
  -24.9736  -21.9087   25.9325 F   0  0  0  0  0  0  0  0  0  0  0  0
  -21.4487  -18.7542   25.7607 F   0  0  0  0  0  0  0  0  0  0  0  0
  -31.0902  -21.6551   21.7034 Cl  0  0  0  0  0  0  0  0  0  0  0  0
  -28.3483  -22.8692   17.1500 Cl  0  0  0  0  0  0  0  0  0  0  0  0
  1  2  1  0  0  0  0
  1  5  2  0  0  0  0
  2  6  2  0  0  0  0
  3  8  2  0  0  0  0
  3 17  1  0  0  0  0
  4  9  1  0  0  0  0
  4 17  2  0  0  0  0
  5 19  1  0  0  0  0
  6 21  1  0  0  0  0
  7 10  2  0  0  0  0
  7 20  1  0  0  0  0
  8 25  1  0  0  0  0
  9 25  2  0  0  0  0
 10 26  1  0  0  0  0
 11 12  2  0  0  0  0
 11 27  1  0  0  0  0
 12 28  1  0  0  0  0
 13 22  1  0  0  0  0
 13 26  2  0  0  0  0
 14 23  1  0  0  0  0
 14 30  2  0  0  0  0
 15 23  2  0  0  0  0
 15 31  1  0  0  0  0
 16 28  2  0  0  0  0
 16 29  1  0  0  0  0
 17 32  1  0  0  0  0
 18 32  1  0  0  0  0
 18 33  2  0  0  0  0
 18 34  1  0  0  0  0
 19 21  2  0  0  0  0
 19 39  1  0  0  0  0
 20 22  2  0  0  0  0
 20 40  1  0  0  0  0
 21 48  1  0  0  0  0
 22 41  1  0  0  0  0
 23 57  1  0  0  0  0
 24 30  1  0  0  0  0
 24 31  2  0  0  0  0
 24 56  1  0  0  0  0
 25 81  1  0  0  0  0
 26 82  1  0  0  0  0
 27 29  2  0  0  0  0
 27 81  1  0  0  0  0
 28 83  1  0  0  0  0
 29 84  1  0  0  0  0
 30 85  1  0  0  0  0
 31 86  1  0  0  0  0
 32 65  2  0  0  0  0
 33 66  1  0  0  0  0
 33 69  1  0  0  0  0
 34 70  1  0  0  0  0
 34 76  2  0  0  0  0
 35 49  1  0  0  0  0
 35 71  1  0  0  0  0
 35 77  2  0  0  0  0
 36 62  1  0  0  0  0
 36 67  1  0  0  0  0
 36 78  2  0  0  0  0
 37 63  1  0  0  0  0
 37 72  1  0  0  0  0
 37 79  2  0  0  0  0
 38 68  1  0  0  0  0
 38 73  1  0  0  0  0
 38 80  2  0  0  0  0
 39 42  1  0  0  0  0
 40 49  1  0  0  0  0
 41 67  1  0  0  0  0
 42 44  1  0  0  0  0
 43 45  1  0  0  0  0
 43 46  1  0  0  0  0
 44 48  1  0  0  0  0
 45 50  1  0  0  0  0
 46 68  1  0  0  0  0
 47 50  1  0  0  0  0
 47 68  1  0  0  0  0
 48 71  1  0  0  0  0
 49 67  1  0  0  0  0
 50 66  1  0  0  0  0
 51 63  1  0  0  0  0
 52 64  1  0  0  0  0
 53 64  1  0  0  0  0
 54 64  1  0  0  0  0
 55 74  1  0  0  0  0
 56 75  1  0  0  0  0
 57 82  1  0  0  0  0
 58 59  1  0  0  0  0
 58 60  1  0  0  0  0
 59 61  1  0  0  0  0
 60 73  1  0  0  0  0
 61 75  1  0  0  0  0
 62 64  1  0  0  0  0
 62 72  1  0  0  0  0
 63 74  1  0  0  0  0
 65 66  1  0  0  0  0
M  CHG  2  74   1  75   1
M  ISO  4  38 100  57 101  73 100  82 101
M  END
> <Batch ID>
0026

> <Smiles>
CNC(C)C(=O)NC(C(=O)N1Cc2cc([101O:1][101CH2:1]c3cc(Cl)c(CNCCCC[100NH:0][100C:0](=O)N4CCCC(n5nc(-c6ccc(Oc7ccc(F)cc7F)cc6)c(C(N)=O)c5N)C4)c(Cl)c3)ccc2CC1C(=O)NC1CCCc2ccccc21)C(C)(C)C

> <Shape>
0.226

> <Color>
0.072

> <Negative vol penalty>
0.000

$$$$

  -OEChem-04052316273D

 88 96  0     1  0  0  0  0  0999 V2000
  -31.5595  -27.0337   19.2428 C   0  0  0  0  0  0  0  0  0  0  0  0
  -30.5148  -26.1404   19.4575 C   0  0  0  0  0  0  0  0  0  0  0  0
  -22.9486   -9.9069   20.5201 C   0  0  0  0  0  0  0  0  0  0  0  0
  -23.6095  -10.4057   22.7898 C   0  0  0  0  0  0  0  0  0  0  0  0
  -31.6346  -28.2091   19.9889 C   0  0  0  0  0  0  0  0  0  0  0  0
  -29.5452  -26.4216   20.4194 C   0  0  0  0  0  0  0  0  0  0  0  0
  -24.8455  -25.5234   18.7605 C   0  0  0  0  0  0  0  0  0  0  0  0
  -22.1405   -8.8688   20.9836 C   0  0  0  0  0  0  0  0  0  0  0  0
  -22.8013   -9.3676   23.2533 C   0  0  0  0  0  0  0  0  0  0  0  0
  -24.4229  -24.1951   18.7332 C   0  0  0  0  0  0  0  0  0  0  0  0
  -22.9565   -5.9973   23.4728 C   0  0  0  0  0  0  0  0  0  0  0  0
  -23.4911   -5.1395   24.4340 C   0  0  0  0  0  0  0  0  0  0  0  0
  -23.2302  -24.5383   20.8017 C   0  0  0  0  0  0  0  0  0  0  0  0
  -21.7288   -5.7583   25.9664 C   0  0  0  0  0  0  0  0  0  0  0  0
  -23.6832  -10.6753   21.4232 C   0  0  0  0  0  0  0  0  0  0  0  0
  -24.1502  -13.0931   20.7569 C   0  0  0  0  0  0  0  0  0  0  0  0
  -30.6600  -28.5094   20.9536 C   0  0  0  0  0  0  0  0  0  0  0  0
  -24.4720  -26.3676   19.8161 C   0  0  0  0  0  0  0  0  0  0  0  0
  -29.6080  -27.6015   21.1801 C   0  0  0  0  0  0  0  0  0  0  0  0
  -23.6473  -25.8776   20.8388 C   0  0  0  0  0  0  0  0  0  0  0  0
  -25.4372  -20.1329   22.0163 C   0  0  0  0  0  0  0  0  0  0  0  0
  -24.6623  -19.8777   20.8903 C   0  0  0  0  0  0  0  0  0  0  0  0
  -22.0668   -8.5991   22.3501 C   0  0  0  0  0  0  0  0  0  0  0  0
  -23.6175  -23.7016   19.7553 C   0  0  0  0  0  0  0  0  0  0  0  0
  -21.8081   -6.7357   23.7584 C   0  0  0  0  0  0  0  0  0  0  0  0
  -22.8772   -5.0200   25.6808 C   0  0  0  0  0  0  0  0  0  0  0  0
  -21.1942   -6.6162   25.0052 C   0  0  0  0  0  0  0  0  0  0  0  0
  -26.7809  -19.7755   22.0242 C   0  0  0  0  0  0  0  0  0  0  0  0
  -24.5186  -11.7475   20.9451 C   0  0  0  0  0  0  0  0  0  0  0  0
  -25.2738  -19.2679   19.8068 C   0  0  0  0  0  0  0  0  0  0  0  0
  -27.2975  -19.1701   20.8899 C   0  0  0  0  0  0  0  0  0  0  0  0
  -25.2914  -13.6998   20.2921 C   0  0  0  0  0  0  0  0  0  0  0  0
  -22.8891  -13.7370   20.9821 C   0  0  0  0  0  0  0  0  0  0  0  0
  -26.0403  -27.9739   22.0664 C   0  0  0  0  0  0  0  0  0  0  0  0
  -23.0931  -29.1570   22.7275 C   0  0  0  0  0  0  0  0  0  0  0  0
  -19.7078  -28.7558   22.5692 C   0  0  0  0  0  0  0  0  0  0  0  0
  -30.8046  -14.5316   20.5333 C   0  0  0  0  0  0  0  0  0  0  0  0
  -30.8094  -29.7697   21.7686 C   0  0  0  0  0  0  0  0  0  0  0  0
  -24.9141  -27.8053   19.8171 C   0  0  0  0  0  0  0  0  0  0  0  0
  -23.2017  -26.7485   21.9840 C   0  0  0  0  0  0  0  0  0  0  0  0
  -29.5353  -30.1724   22.5066 C   0  0  0  0  0  0  0  0  0  0  0  0
  -29.6570  -11.7117   18.6873 C   0  0  0  0  0  0  0  0  0  0  0  0
  -28.9205  -28.9654   23.2081 C   0  0  0  0  0  0  0  0  0  0  0  0
  -28.1900  -11.5771   19.0994 C   0  0  0  0  0  0  0  0  0  0  0  0
  -30.5316  -12.1650   19.8542 C   0  0  0  0  0  0  0  0  0  0  0  0
  -28.6097  -13.2613   20.9395 C   0  0  0  0  0  0  0  0  0  0  0  0
  -28.5233  -27.8829   22.1971 C   0  0  1  0  0  0  0  0  0  0  0  0
  -24.8973  -28.4346   21.2068 C   0  0  1  0  0  0  0  0  0  0  0  0
  -27.6793  -12.8603   19.7819 C   0  0  2  0  0  0  0  0  0  0  0  0
  -24.8077  -20.7900   23.2050 C   0  0  0  0  0  0  0  0  0  0  0  0
  -25.2381  -18.0271   17.6283 C   0  0  0  0  0  0  0  0  0  0  0  0
  -22.3946  -19.4982   21.9126 C   0  0  0  0  0  0  0  0  0  0  0  0
  -17.5589  -29.8720   23.2278 C   0  0  0  0  0  0  0  0  0  0  0  0
  -23.5281  -28.2831   25.6184 C   0  0  0  0  0  0  0  0  0  0  0  0
  -21.0659  -28.5392   25.9930 C   0  0  0  0  0  0  0  0  0  0  0  0
  -22.4417  -30.5205   25.3571 C   0  0  0  0  0  0  0  0  0  0  0  0
  -18.8244  -28.9766   19.7532 C   0  0  0  0  0  0  0  0  0  0  0  0
  -24.4925  -18.9685   18.5692 C   0  0  0  0  0  0  0  0  0  0  0  0
  -30.7357  -17.8176   20.0482 C   0  0  0  0  0  0  0  0  0  0  0  0
  -29.2785  -18.1690   19.7503 C   0  0  0  0  0  0  0  0  0  0  0  0
  -30.9204  -16.9027   21.2570 C   0  0  0  0  0  0  0  0  0  0  0  0
  -22.9827  -21.7708   20.9903 C   0  0  0  0  0  0  0  0  0  1  0  0
  -23.1904  -20.2569   20.8469 C   0  0  1  0  0  0  0  0  0  0  0  0
  -21.9523  -28.7442   23.6258 C   0  0  1  0  0  0  0  0  0  0  0  0
  -18.6009  -29.6990   22.1337 C   0  0  2  0  0  0  0  0  0  0  0  0
  -22.2568  -29.0046   25.1281 C   0  0  0  0  0  0  0  0  0  0  0  0
  -25.7941  -11.5126   20.6258 N   0  0  0  0  0  0  0  0  0  0  0  0
  -26.5761  -18.9063   19.7775 N   0  0  0  0  0  0  0  0  0  0  0  0
  -26.2371  -12.7188   20.2322 N   0  0  0  0  0  0  0  0  0  0  0  0
  -23.6653  -28.1452   21.9434 N   0  0  0  0  0  0  0  0  0  0  0  0
  -29.9936  -13.3873   20.4563 N   0  0  0  0  0  0  0  0  0  0  0  0
  -25.5682  -14.9713   19.9328 N   0  0  0  0  0  0  0  0  0  0  0  0
  -21.8214  -12.9661   21.4616 N   0  0  0  0  0  0  0  0  0  0  0  0
  -28.6643  -18.7965   20.8746 N   0  0  0  0  0  0  0  0  0  0  0  0
  -27.2874  -28.2398   21.5340 N   0  0  0  0  0  0  0  0  0  0  0  0
  -20.7690  -29.4367   23.1272 N   0  0  0  0  0  0  0  0  0  0  0  0
  -30.2152  -15.6487   21.1126 N   0  0  0  0  0  0  0  0  0  0  0  0
  -17.9212  -29.1730   20.9162 N   0  3  0  0  0  0  0  0  0  0  0  0
  -22.7097  -14.9564   20.7489 O   0  0  0  0  0  0  0  0  0  0  0  0
  -25.8080  -27.4197   23.1344 O   0  0  0  0  0  0  0  0  0  0  0  0
  -23.4584  -30.3351   22.7165 O   0  0  0  0  0  0  0  0  0  0  0  0
  -19.6364  -27.5365   22.4317 O   0  0  0  0  0  0  0  0  0  0  0  0
  -31.9659  -14.5576   20.1120 O   0  0  0  0  0  0  0  0  0  0  0  0
  -21.2781   -7.5863   22.8027 O   0  0  0  0  0  0  0  0  0  0  0  0
  -23.2042  -22.4052   19.7314 O   0  0  0  0  0  0  0  0  0  1  0  0
  -23.3898   -4.1950   26.6032 F   0  0  0  0  0  0  0  0  0  0  0  0
  -20.0900   -7.3221   25.2849 F   0  0  0  0  0  0  0  0  0  0  0  0
  -27.7642  -20.0848   23.4127 Cl  0  0  0  0  0  0  0  0  0  0  0  0
  1  2  1  0  0  0  0
  1  5  2  0  0  0  0
  2  6  2  0  0  0  0
  3  8  2  0  0  0  0
  3 15  1  0  0  0  0
  4  9  1  0  0  0  0
  4 15  2  0  0  0  0
  5 17  1  0  0  0  0
  6 19  1  0  0  0  0
  7 10  2  0  0  0  0
  7 18  1  0  0  0  0
  8 23  1  0  0  0  0
  9 23  2  0  0  0  0
 10 24  1  0  0  0  0
 11 12  2  0  0  0  0
 11 25  1  0  0  0  0
 12 26  1  0  0  0  0
 13 20  1  0  0  0  0
 13 24  2  0  0  0  0
 14 26  2  0  0  0  0
 14 27  1  0  0  0  0
 15 29  1  0  0  0  0
 16 29  1  0  0  0  0
 16 32  2  0  0  0  0
 16 33  1  0  0  0  0
 17 19  2  0  0  0  0
 17 38  1  0  0  0  0
 18 20  2  0  0  0  0
 18 39  1  0  0  0  0
 19 47  1  0  0  0  0
 20 40  1  0  0  0  0
 21 22  1  0  0  0  0
 21 28  2  0  0  0  0
 21 50  1  0  0  0  0
 22 30  2  0  0  0  0
 22 63  1  0  0  0  0
 23 84  1  0  0  0  0
 24 85  1  0  0  0  0
 25 27  2  0  0  0  0
 25 84  1  0  0  0  0
 26 86  1  0  0  0  0
 27 87  1  0  0  0  0
 28 31  1  0  0  0  0
 28 88  1  0  0  0  0
 29 67  2  0  0  0  0
 30 58  1  0  0  0  0
 30 68  1  0  0  0  0
 31 68  2  0  0  0  0
 31 74  1  0  0  0  0
 32 69  1  0  0  0  0
 32 72  1  0  0  0  0
 33 73  1  0  0  0  0
 33 79  2  0  0  0  0
 34 48  1  0  0  0  0
 34 75  1  0  0  0  0
 34 80  2  0  0  0  0
 35 64  1  0  0  0  0
 35 70  1  0  0  0  0
 35 81  2  0  0  0  0
 36 65  1  0  0  0  0
 36 76  1  0  0  0  0
 36 82  2  0  0  0  0
 37 71  1  0  0  0  0
 37 77  1  0  0  0  0
 37 83  2  0  0  0  0
 38 41  1  0  0  0  0
 39 48  1  0  0  0  0
 40 70  1  0  0  0  0
 41 43  1  0  0  0  0
 42 44  1  0  0  0  0
 42 45  1  0  0  0  0
 43 47  1  0  0  0  0
 44 49  1  0  0  0  0
 45 71  1  0  0  0  0
 46 49  1  0  0  0  0
 46 71  1  0  0  0  0
 47 75  1  0  0  0  0
 48 70  1  0  0  0  0
 49 69  1  0  0  0  0
 51 58  1  0  0  0  0
 52 63  1  0  0  0  0
 53 65  1  0  0  0  0
 54 66  1  0  0  0  0
 55 66  1  0  0  0  0
 56 66  1  0  0  0  0
 57 78  1  0  0  0  0
 59 60  1  0  0  0  0
 59 61  1  0  0  0  0
 60 74  1  0  0  0  0
 61 77  1  0  0  0  0
 62 63  1  0  0  0  0
 62 85  1  0  0  0  0
 64 66  1  0  0  0  0
 64 76  1  0  0  0  0
 65 78  1  0  0  0  0
 67 69  1  0  0  0  0
M  CHG  1  78   1
M  ISO  4  37 100  62 101  77 100  85 101
M  END
> <Batch ID>
0026

> <Smiles>
CCc1nc(NCCC[100NH:0][100C:0](=O)N2CCCC(n3nc(-c4ccc(Oc5ccc(F)cc5F)cc4)c(C(N)=O)c3N)C2)c(Cl)c(C)c1C(C)[101CH2:1][101O:1]c1ccc2c(c1)CN(C(=O)C(NC(=O)C(C)NC)C(C)(C)C)C(C(=O)NC1CCCc3ccccc31)C2

> <Shape>
0.299

> <Color>
0.157

> <Negative vol penalty>
0.000

$$$$

  -OEChem-04052316273D

 83 91  0     1  0  0  0  0  0999 V2000
  -22.3433  -29.6768   37.5293 C   0  0  0  0  0  0  0  0  0  0  0  0
  -22.4112  -28.2905   37.4346 C   0  0  0  0  0  0  0  0  0  0  0  0
  -23.2733  -10.2234   22.2247 C   0  0  0  0  0  0  0  0  0  0  0  0
  -23.6251   -9.5194   19.9405 C   0  0  0  0  0  0  0  0  0  0  0  0
  -21.9119  -30.4288   36.4374 C   0  0  0  0  0  0  0  0  0  0  0  0
  -22.0467  -27.6553   36.2480 C   0  0  0  0  0  0  0  0  0  0  0  0
  -26.7138  -23.4736   32.6952 C   0  0  0  0  0  0  0  0  0  0  0  0
  -22.5171   -9.0756   22.4620 C   0  0  0  0  0  0  0  0  0  0  0  0
  -22.8688   -8.3716   20.1778 C   0  0  0  0  0  0  0  0  0  0  0  0
  -27.4805  -22.4906   32.0691 C   0  0  0  0  0  0  0  0  0  0  0  0
  -19.3772   -7.9896   21.8409 C   0  0  0  0  0  0  0  0  0  0  0  0
  -18.1756   -8.1378   22.5335 C   0  0  0  0  0  0  0  0  0  0  0  0
  -25.7721  -22.2192   30.3792 C   0  0  0  0  0  0  0  0  0  0  0  0
  -18.9885   -6.6571   24.2609 C   0  0  0  0  0  0  0  0  0  0  0  0
  -23.8273  -10.4453   20.9639 C   0  0  0  0  0  0  0  0  0  0  0  0
  -24.1827  -12.9681   20.8332 C   0  0  0  0  0  0  0  0  0  0  0  0
  -21.5511  -29.8031   35.2336 C   0  0  0  0  0  0  0  0  0  0  0  0
  -25.4787  -23.8445   32.1563 C   0  0  0  0  0  0  0  0  0  0  0  0
  -21.6087  -28.3994   35.1393 C   0  0  0  0  0  0  0  0  0  0  0  0
  -25.0053  -23.2121   30.9949 C   0  0  0  0  0  0  0  0  0  0  0  0
  -22.3149   -8.1497   21.4386 C   0  0  0  0  0  0  0  0  0  0  0  0
  -27.0107  -21.8648   30.9141 C   0  0  0  0  0  0  0  0  0  0  0  0
  -20.3845   -7.1750   22.3583 C   0  0  0  0  0  0  0  0  0  0  0  0
  -17.9812   -7.4716   23.7435 C   0  0  0  0  0  0  0  0  0  0  0  0
  -20.1901   -6.5088   23.5683 C   0  0  0  0  0  0  0  0  0  0  0  0
  -24.6081  -11.6310   20.7179 C   0  0  0  0  0  0  0  0  0  0  0  0
  -25.2876  -13.7103   20.4942 C   0  0  0  0  0  0  0  0  0  0  0  0
  -22.9034  -13.4922   21.2128 C   0  0  0  0  0  0  0  0  0  0  0  0
  -22.4484  -26.0405   32.4221 C   0  0  0  0  0  0  0  0  0  0  0  0
  -23.1878  -25.8985   29.4483 C   0  0  0  0  0  0  0  0  0  0  0  0
  -23.6701  -26.5110   26.1272 C   0  0  0  0  0  0  0  0  0  0  0  0
  -30.6779  -14.7680   20.6793 C   0  0  0  0  0  0  0  0  0  0  0  0
  -21.0458  -30.6545   34.0959 C   0  0  0  0  0  0  0  0  0  0  0  0
  -24.5915  -24.8547   32.8316 C   0  0  0  0  0  0  0  0  0  0  0  0
  -23.6553  -23.6187   30.4704 C   0  0  0  0  0  0  0  0  0  0  0  0
  -21.0348  -29.9309   32.7518 C   0  0  0  0  0  0  0  0  0  0  0  0
  -29.6802  -12.3360   18.4175 C   0  0  0  0  0  0  0  0  0  0  0  0
  -20.4232  -28.5412   32.8988 C   0  0  0  0  0  0  0  0  0  0  0  0
  -31.5483  -19.0820   22.6104 C   0  0  0  0  0  0  0  0  0  0  0  0
  -31.7715  -17.4393   24.5181 C   0  0  0  0  0  0  0  0  0  0  0  0
  -28.2362  -12.0338   18.8159 C   0  0  0  0  0  0  0  0  0  0  0  0
  -30.6716  -18.0852   21.8517 C   0  0  0  0  0  0  0  0  0  0  0  0
  -30.8960  -16.4392   23.7624 C   0  0  0  0  0  0  0  0  0  0  0  0
  -30.5577  -12.5203   19.6498 C   0  0  0  0  0  0  0  0  0  0  0  0
  -28.6286  -13.3014   20.9875 C   0  0  0  0  0  0  0  0  0  0  0  0
  -21.2454  -27.6755   33.8610 C   0  0  1  0  0  0  0  0  0  0  0  0
  -23.7916  -25.7156   31.8375 C   0  0  1  0  0  0  0  0  0  0  0  0
  -31.4894  -18.8988   24.1337 C   0  0  0  0  0  0  0  0  0  0  0  0
  -27.6935  -13.1065   19.7763 C   0  0  2  0  0  0  0  0  0  0  0  0
  -30.9920  -16.6427   22.2493 C   0  0  0  0  0  0  0  0  0  0  0  0
  -22.4317  -27.1630   24.0443 C   0  0  0  0  0  0  0  0  0  0  0  0
  -22.0569  -23.0732   29.2409 C   0  0  0  0  0  0  0  0  0  0  0  0
  -21.6739  -23.4820   26.8007 C   0  0  0  0  0  0  0  0  0  0  0  0
  -20.4952  -24.8796   28.4977 C   0  0  0  0  0  0  0  0  0  0  0  0
  -28.7403  -15.6553   22.0444 C   0  0  0  0  0  0  0  0  0  0  0  0
  -25.2738  -28.9777   25.8065 C   0  0  0  0  0  0  0  0  0  0  0  0
  -30.1588  -19.3887   24.7115 C   0  0  0  0  0  0  0  0  0  0  0  0
  -30.1943  -19.6102   26.2250 C   0  0  0  0  0  0  0  0  0  0  0  0
  -28.8701  -20.1243   26.7939 C   0  0  0  0  0  0  0  0  0  0  0  0
  -28.9522  -20.3050   28.3089 C   0  0  0  0  0  0  0  0  0  0  0  0
  -27.6269  -20.7752   28.8916 C   0  0  0  0  0  0  0  0  0  1  0  0
  -22.9732  -25.2125   28.1228 C   0  0  1  0  0  0  0  0  0  0  0  0
  -23.2282  -27.6610   25.2402 C   0  0  2  0  0  0  0  0  0  0  0  0
  -21.8258  -24.1647   28.1767 C   0  0  0  0  0  0  0  0  0  0  0  0
  -25.8836  -11.5269   20.3354 N   0  0  0  0  0  0  0  0  0  0  0  0
  -26.2692  -12.8079   20.2073 N   0  0  0  0  0  0  0  0  0  0  0  0
  -23.5096  -25.0812   30.5387 N   0  0  0  0  0  0  0  0  0  0  0  0
  -30.0097  -13.5423   20.5421 N   0  0  0  0  0  0  0  0  0  0  0  0
  -25.5054  -15.0403   20.4164 N   0  0  0  0  0  0  0  0  0  0  0  0
  -21.8788  -12.5898   21.5293 N   0  0  0  0  0  0  0  0  0  0  0  0
  -22.4357  -27.1801   33.2036 N   0  0  0  0  0  0  0  0  0  0  0  0
  -22.7681  -26.2734   27.1426 N   0  0  0  0  0  0  0  0  0  0  0  0
  -30.1160  -15.7107   21.5535 N   0  0  0  0  0  0  0  0  0  0  0  0
  -24.4130  -28.4114   24.7362 N   0  3  0  0  0  0  0  0  0  0  0  0
  -22.6707  -14.7242   21.2538 O   0  0  0  0  0  0  0  0  0  0  0  0
  -21.4926  -25.3126   32.1812 O   0  0  0  0  0  0  0  0  0  0  0  0
  -23.0685  -27.1248   29.5190 O   0  0  0  0  0  0  0  0  0  0  0  0
  -24.7096  -25.8837   25.9360 O   0  0  0  0  0  0  0  0  0  0  0  0
  -31.7236  -15.0056   20.0610 O   0  0  0  0  0  0  0  0  0  0  0  0
  -21.5772   -7.0295   21.6699 O   0  0  0  0  0  0  0  0  0  0  0  0
  -27.7664  -20.9092   30.3054 O   0  0  0  0  0  0  0  0  0  1  0  0
  -16.8278   -7.6153   24.4093 F   0  0  0  0  0  0  0  0  0  0  0  0
  -21.1546   -5.7259   24.0709 F   0  0  0  0  0  0  0  0  0  0  0  0
  1  2  1  0  0  0  0
  1  5  2  0  0  0  0
  2  6  2  0  0  0  0
  3  8  2  0  0  0  0
  3 15  1  0  0  0  0
  4  9  1  0  0  0  0
  4 15  2  0  0  0  0
  5 17  1  0  0  0  0
  6 19  1  0  0  0  0
  7 10  2  0  0  0  0
  7 18  1  0  0  0  0
  8 21  1  0  0  0  0
  9 21  2  0  0  0  0
 10 22  1  0  0  0  0
 11 12  2  0  0  0  0
 11 23  1  0  0  0  0
 12 24  1  0  0  0  0
 13 20  1  0  0  0  0
 13 22  2  0  0  0  0
 14 24  2  0  0  0  0
 14 25  1  0  0  0  0
 15 26  1  0  0  0  0
 16 26  1  0  0  0  0
 16 27  2  0  0  0  0
 16 28  1  0  0  0  0
 17 19  2  0  0  0  0
 17 33  1  0  0  0  0
 18 20  2  0  0  0  0
 18 34  1  0  0  0  0
 19 46  1  0  0  0  0
 20 35  1  0  0  0  0
 21 80  1  0  0  0  0
 22 81  1  0  0  0  0
 23 25  2  0  0  0  0
 23 80  1  0  0  0  0
 24 82  1  0  0  0  0
 25 83  1  0  0  0  0
 26 65  2  0  0  0  0
 27 66  1  0  0  0  0
 27 69  1  0  0  0  0
 28 70  1  0  0  0  0
 28 75  2  0  0  0  0
 29 47  1  0  0  0  0
 29 71  1  0  0  0  0
 29 76  2  0  0  0  0
 30 62  1  0  0  0  0
 30 67  1  0  0  0  0
 30 77  2  0  0  0  0
 31 63  1  0  0  0  0
 31 72  1  0  0  0  0
 31 78  2  0  0  0  0
 32 68  1  0  0  0  0
 32 73  1  0  0  0  0
 32 79  2  0  0  0  0
 33 36  1  0  0  0  0
 34 47  1  0  0  0  0
 35 67  1  0  0  0  0
 36 38  1  0  0  0  0
 37 41  1  0  0  0  0
 37 44  1  0  0  0  0
 38 46  1  0  0  0  0
 39 42  1  0  0  0  0
 39 48  1  0  0  0  0
 40 43  1  0  0  0  0
 40 48  1  0  0  0  0
 41 49  1  0  0  0  0
 42 50  1  0  0  0  0
 43 50  1  0  0  0  0
 44 68  1  0  0  0  0
 45 49  1  0  0  0  0
 45 68  1  0  0  0  0
 46 71  1  0  0  0  0
 47 67  1  0  0  0  0
 48 57  1  0  0  0  0
 49 66  1  0  0  0  0
 50 73  1  0  0  0  0
 51 63  1  0  0  0  0
 52 64  1  0  0  0  0
 53 64  1  0  0  0  0
 54 64  1  0  0  0  0
 55 73  1  0  0  0  0
 56 74  1  0  0  0  0
 57 58  1  0  0  0  0
 58 59  1  0  0  0  0
 59 60  1  0  0  0  0
 60 61  1  0  0  0  0
 61 81  1  0  0  0  0
 62 64  1  0  0  0  0
 62 72  1  0  0  0  0
 63 74  1  0  0  0  0
 65 66  1  0  0  0  0
M  CHG  1  74   1
M  ISO  4  32 100  61 101  73 100  81 101
M  END
> <Batch ID>
0026

> <Smiles>
CNC(C)C(=O)NC(C(=O)N1Cc2cc([101O:1][101CH2:1]CCCCC3CCC([100N:0](C)[100C:0](=O)N4CCCC(n5nc(-c6ccc(Oc7ccc(F)cc7F)cc6)c(C(N)=O)c5N)C4)CC3)ccc2CC1C(=O)NC1CCCc2ccccc21)C(C)(C)C

> <Shape>
0.161

> <Color>
0.200

> <Negative vol penalty>
0.000

$$$$

  -OEChem-04052316273D

 88 97  0     1  0  0  0  0  0999 V2000
  -27.9501  -37.2529   27.1507 C   0  0  0  0  0  0  0  0  0  0  0  0
  -27.9163  -35.8709   27.3070 C   0  0  0  0  0  0  0  0  0  0  0  0
  -23.7494   -9.5992   19.8196 C   0  0  0  0  0  0  0  0  0  0  0  0
  -23.7895   -9.8521   22.2220 C   0  0  0  0  0  0  0  0  0  0  0  0
  -27.0050  -37.8854   26.3441 C   0  0  0  0  0  0  0  0  0  0  0  0
  -26.9367  -35.1207   26.6574 C   0  0  0  0  0  0  0  0  0  0  0  0
  -28.8104  -30.9529   24.4749 C   0  0  0  0  0  0  0  0  0  0  0  0
  -23.1659   -8.3403   19.9619 C   0  0  0  0  0  0  0  0  0  0  0  0
  -23.2059   -8.5932   22.3643 C   0  0  0  0  0  0  0  0  0  0  0  0
  -29.0817  -29.8663   25.3054 C   0  0  0  0  0  0  0  0  0  0  0  0
  -20.1213   -7.2364   22.1104 C   0  0  0  0  0  0  0  0  0  0  0  0
  -19.0710   -7.1096   23.0194 C   0  0  0  0  0  0  0  0  0  0  0  0
  -27.0061  -28.8394   24.6296 C   0  0  0  0  0  0  0  0  0  0  0  0
  -27.7482  -20.2000   23.0555 C   0  0  0  0  0  0  0  0  0  0  0  0
  -29.8824  -18.7884   21.9440 C   0  0  0  0  0  0  0  0  0  0  0  0
  -20.3429   -5.4729   24.2606 C   0  0  0  0  0  0  0  0  0  0  0  0
  -24.0613  -10.3551   20.9497 C   0  0  0  0  0  0  0  0  0  0  0  0
  -24.0017  -12.8916   20.6845 C   0  0  0  0  0  0  0  0  0  0  0  0
  -26.0192  -37.1415   25.6766 C   0  0  0  0  0  0  0  0  0  0  0  0
  -27.6278  -30.9960   23.7226 C   0  0  0  0  0  0  0  0  0  0  0  0
  -25.9767  -35.7439   25.8421 C   0  0  0  0  0  0  0  0  0  0  0  0
  -26.7234  -29.9264   23.7884 C   0  0  0  0  0  0  0  0  0  0  0  0
  -28.7718  -20.8849   22.4008 C   0  0  0  0  0  0  0  0  0  0  0  0
  -28.8588  -18.1035   22.5989 C   0  0  0  0  0  0  0  0  0  0  0  0
  -22.8941   -7.8373   21.2342 C   0  0  0  0  0  0  0  0  0  0  0  0
  -28.1781  -28.8107   25.3850 C   0  0  0  0  0  0  0  0  0  0  0  0
  -21.2824   -6.4814   22.2763 C   0  0  0  0  0  0  0  0  0  0  0  0
  -19.1818   -6.2279   24.0946 C   0  0  0  0  0  0  0  0  0  0  0  0
  -21.3932   -5.5997   23.3515 C   0  0  0  0  0  0  0  0  0  0  0  0
  -27.7917  -18.8093   23.1546 C   0  0  0  0  0  0  0  0  0  0  0  0
  -29.8389  -20.1791   21.8450 C   0  0  0  0  0  0  0  0  0  0  0  0
  -24.6646  -11.6554   20.8034 C   0  0  0  0  0  0  0  0  0  0  0  0
  -25.0130  -13.8140   20.5714 C   0  0  0  0  0  0  0  0  0  0  0  0
  -22.5973  -13.1803   20.6771 C   0  0  0  0  0  0  0  0  0  0  0  0
  -25.1001  -32.9209   23.6252 C   0  0  0  0  0  0  0  0  0  0  0  0
  -24.2898  -31.0865   21.0755 C   0  0  0  0  0  0  0  0  0  0  0  0
  -24.5758  -28.1016   19.4462 C   0  0  0  0  0  0  0  0  0  0  0  0
  -29.9353  -15.8663   22.1720 C   0  0  0  0  0  0  0  0  0  0  0  0
  -24.9900  -37.8744   24.8530 C   0  0  0  0  0  0  0  0  0  0  0  0
  -27.3626  -32.1628   22.8112 C   0  0  0  0  0  0  0  0  0  0  0  0
  -25.4491  -29.9149   22.9857 C   0  0  0  0  0  0  0  0  0  0  0  0
  -24.2141  -36.9682   23.9007 C   0  0  0  0  0  0  0  0  0  0  0  0
  -29.9807  -13.1817   19.8336 C   0  0  0  0  0  0  0  0  0  0  0  0
  -23.7501  -35.7073   24.6229 C   0  0  0  0  0  0  0  0  0  0  0  0
  -28.5471  -12.6470   19.8677 C   0  0  0  0  0  0  0  0  0  0  0  0
  -28.4618  -23.0095   24.7444 C   0  0  0  0  0  0  0  0  0  0  0  0
  -29.7458  -24.5024   23.1734 C   0  0  0  0  0  0  0  0  0  0  0  0
  -30.4512  -13.6315   21.2156 C   0  0  0  0  0  0  0  0  0  0  0  0
  -28.1303  -14.0503   21.9277 C   0  0  0  0  0  0  0  0  0  0  0  0
  -29.0919  -23.7268   25.9305 C   0  0  0  0  0  0  0  0  0  0  0  0
  -30.3694  -25.2118   24.3676 C   0  0  0  0  0  0  0  0  0  0  0  0
  -24.9447  -34.8931   25.1342 C   0  0  1  0  0  0  0  0  0  0  0  0
  -25.8835  -32.3399   22.4822 C   0  0  1  0  0  0  0  0  0  0  0  0
  -29.3660  -23.0550   23.5071 C   0  0  0  0  0  0  0  0  0  0  0  0
  -27.5892  -13.6454   20.5468 C   0  0  2  0  0  0  0  0  0  0  0  0
  -23.7660  -26.8855   17.4059 C   0  0  0  0  0  0  0  0  0  0  0  0
  -21.5941  -30.6199   22.4266 C   0  0  0  0  0  0  0  0  0  0  0  0
  -21.2226  -28.6985   20.8650 C   0  0  0  0  0  0  0  0  0  0  0  0
  -21.4708  -31.0095   19.9594 C   0  0  0  0  0  0  0  0  0  0  0  0
  -27.3221  -27.8263   18.3780 C   0  0  0  0  0  0  0  0  0  0  0  0
  -28.6872  -22.3840   22.3150 C   0  0  0  0  0  0  0  0  0  0  0  0
  -29.9354  -25.9384   26.7125 C   0  0  0  0  0  0  0  0  0  0  0  0
  -29.8117  -27.4186   26.4094 C   0  0  0  0  0  0  0  0  0  1  0  0
  -23.4994  -29.8151   20.8813 C   0  0  1  0  0  0  0  0  0  0  0  0
  -24.8551  -27.7709   17.9911 C   0  0  2  0  0  0  0  0  0  0  0  0
  -21.9697  -30.0366   21.0498 C   0  0  0  0  0  0  0  0  0  0  0  0
  -25.9942  -11.7778   20.7689 N   0  0  0  0  0  0  0  0  0  0  0  0
  -26.1749  -13.1019   20.6269 N   0  0  0  0  0  0  0  0  0  0  0  0
  -25.2318  -31.0813   22.1140 N   0  0  0  0  0  0  0  0  0  0  0  0
  -29.4969  -14.5791   21.7955 N   0  0  0  0  0  0  0  0  0  0  0  0
  -25.0129  -15.1566   20.4307 N   0  0  0  0  0  0  0  0  0  0  0  0
  -21.6955  -12.1149   20.8035 N   0  0  0  0  0  0  0  0  0  0  0  0
  -28.9326  -16.6909   22.6811 N   0  0  0  0  0  0  0  0  0  0  0  0
  -25.5548  -34.1550   24.0491 N   0  0  0  0  0  0  0  0  0  0  0  0
  -23.8869  -29.2888   19.5770 N   0  0  0  0  0  0  0  0  0  0  0  0
  -29.4221  -25.1472   25.5410 N   0  3  0  0  0  0  0  0  0  0  0  0
  -26.1585  -27.0599   17.8625 N   0  3  0  0  0  0  0  0  0  0  0  0
  -22.1549  -14.3467   20.5452 O   0  0  0  0  0  0  0  0  0  0  0  0
  -24.1524  -32.2964   24.0873 O   0  0  0  0  0  0  0  0  0  0  0  0
  -24.0841  -32.0465   20.3286 O   0  0  0  0  0  0  0  0  0  0  0  0
  -24.9298  -27.3771   20.3737 O   0  0  0  0  0  0  0  0  0  0  0  0
  -31.1079  -16.2209   22.0264 O   0  0  0  0  0  0  0  0  0  0  0  0
  -22.3245   -6.6090   21.3734 O   0  0  0  0  0  0  0  0  0  0  0  0
  -28.4401  -27.7493   26.1953 O   0  0  0  0  0  0  0  0  0  1  0  0
  -18.1738   -6.1073   24.9684 F   0  0  0  0  0  0  0  0  0  0  0  0
  -22.5067   -4.8726   23.5168 F   0  0  0  0  0  0  0  0  0  0  0  0
  -26.5040  -18.0005   23.9744 Cl  0  0  0  0  0  0  0  0  0  0  0  0
  -31.1234  -20.9936   21.0287 Cl  0  0  0  0  0  0  0  0  0  0  0  0
  1  2  1  0  0  0  0
  1  5  2  0  0  0  0
  2  6  2  0  0  0  0
  3  8  2  0  0  0  0
  3 17  1  0  0  0  0
  4  9  1  0  0  0  0
  4 17  2  0  0  0  0
  5 19  1  0  0  0  0
  6 21  1  0  0  0  0
  7 10  2  0  0  0  0
  7 20  1  0  0  0  0
  8 25  1  0  0  0  0
  9 25  2  0  0  0  0
 10 26  1  0  0  0  0
 11 12  2  0  0  0  0
 11 27  1  0  0  0  0
 12 28  1  0  0  0  0
 13 22  1  0  0  0  0
 13 26  2  0  0  0  0
 14 23  1  0  0  0  0
 14 30  2  0  0  0  0
 15 24  2  0  0  0  0
 15 31  1  0  0  0  0
 16 28  2  0  0  0  0
 16 29  1  0  0  0  0
 17 32  1  0  0  0  0
 18 32  1  0  0  0  0
 18 33  2  0  0  0  0
 18 34  1  0  0  0  0
 19 21  2  0  0  0  0
 19 39  1  0  0  0  0
 20 22  2  0  0  0  0
 20 40  1  0  0  0  0
 21 52  1  0  0  0  0
 22 41  1  0  0  0  0
 23 31  2  0  0  0  0
 23 61  1  0  0  0  0
 24 30  1  0  0  0  0
 24 73  1  0  0  0  0
 25 83  1  0  0  0  0
 26 84  1  0  0  0  0
 27 29  2  0  0  0  0
 27 83  1  0  0  0  0
 28 85  1  0  0  0  0
 29 86  1  0  0  0  0
 30 87  1  0  0  0  0
 31 88  1  0  0  0  0
 32 67  2  0  0  0  0
 33 68  1  0  0  0  0
 33 71  1  0  0  0  0
 34 72  1  0  0  0  0
 34 78  2  0  0  0  0
 35 53  1  0  0  0  0
 35 74  1  0  0  0  0
 35 79  2  0  0  0  0
 36 64  1  0  0  0  0
 36 69  1  0  0  0  0
 36 80  2  0  0  0  0
 37 65  1  0  0  0  0
 37 75  1  0  0  0  0
 37 81  2  0  0  0  0
 38 70  1  0  0  0  0
 38 73  1  0  0  0  0
 38 82  2  0  0  0  0
 39 42  1  0  0  0  0
 40 53  1  0  0  0  0
 41 69  1  0  0  0  0
 42 44  1  0  0  0  0
 43 45  1  0  0  0  0
 43 48  1  0  0  0  0
 44 52  1  0  0  0  0
 45 55  1  0  0  0  0
 46 50  1  0  0  0  0
 46 54  1  0  0  0  0
 47 51  1  0  0  0  0
 47 54  1  0  0  0  0
 48 70  1  0  0  0  0
 49 55  1  0  0  0  0
 49 70  1  0  0  0  0
 50 76  1  0  0  0  0
 51 76  1  0  0  0  0
 52 74  1  0  0  0  0
 53 69  1  0  0  0  0
 54 61  1  0  0  0  0
 55 68  1  0  0  0  0
 56 65  1  0  0  0  0
 57 66  1  0  0  0  0
 58 66  1  0  0  0  0
 59 66  1  0  0  0  0
 60 77  1  0  0  0  0
 62 63  1  0  0  0  0
 62 76  1  0  0  0  0
 63 84  1  0  0  0  0
 64 66  1  0  0  0  0
 64 75  1  0  0  0  0
 65 77  1  0  0  0  0
 67 68  1  0  0  0  0
M  CHG  2  76   1  77   1
M  ISO  4  38 100  63 101  73 100  84 101
M  END
> <Batch ID>
0026

> <Smiles>
CNC(C)C(=O)NC(C(=O)N1Cc2cc([101O:1][101CH2:1]CN3CCC(Cc4cc(Cl)c([100NH:0][100C:0](=O)N5CCCC(n6nc(-c7ccc(Oc8ccc(F)cc8F)cc7)c(C(N)=O)c6N)C5)cc4Cl)CC3)ccc2CC1C(=O)NC1CCCc2ccccc21)C(C)(C)C

> <Shape>
0.319

> <Color>
0.158

> <Negative vol penalty>
0.000

$$$$

  -OEChem-04052316273D

 85 93  0     1  0  0  0  0  0999 V2000
  -31.8825  -22.2078   26.0529 C   0  0  0  0  0  0  0  0  0  0  0  0
  -30.6297  -22.4111   25.4832 C   0  0  0  0  0  0  0  0  0  0  0  0
  -28.9714  -28.4388   18.9873 C   0  0  0  0  0  0  0  0  0  0  0  0
  -27.2175  -26.7772   18.9818 C   0  0  0  0  0  0  0  0  0  0  0  0
  -32.7302  -21.2277   25.5383 C   0  0  0  0  0  0  0  0  0  0  0  0
  -30.2243  -21.6352   24.3978 C   0  0  0  0  0  0  0  0  0  0  0  0
  -25.4649  -19.9707   24.8692 C   0  0  0  0  0  0  0  0  0  0  0  0
  -29.9172  -27.4397   19.2169 C   0  0  0  0  0  0  0  0  0  0  0  0
  -28.1633  -25.7780   19.2113 C   0  0  0  0  0  0  0  0  0  0  0  0
  -24.4429  -20.8779   24.5931 C   0  0  0  0  0  0  0  0  0  0  0  0
  -30.4322  -24.0371   17.4108 C   0  0  0  0  0  0  0  0  0  0  0  0
  -30.3371  -22.8703   16.6526 C   0  0  0  0  0  0  0  0  0  0  0  0
  -24.1755  -19.9012   22.4036 C   0  0  0  0  0  0  0  0  0  0  0  0
  -18.9843  -26.3403   21.6938 C   0  0  0  0  0  0  0  0  0  0  0  0
  -30.0616  -21.5783   18.6755 C   0  0  0  0  0  0  0  0  0  0  0  0
  -27.6215  -28.1076   18.8698 C   0  0  0  0  0  0  0  0  0  0  0  0
  -26.1958  -29.6161   17.3866 C   0  0  0  0  0  0  0  0  0  0  0  0
  -32.3312  -20.4329   24.4522 C   0  0  0  0  0  0  0  0  0  0  0  0
  -25.8580  -19.0275   23.9089 C   0  0  0  0  0  0  0  0  0  0  0  0
  -31.0681  -20.6445   23.8674 C   0  0  0  0  0  0  0  0  0  0  0  0
  -25.2011  -18.9815   22.6709 C   0  0  0  0  0  0  0  0  0  0  0  0
  -19.5181  -25.6484   22.7809 C   0  0  0  0  0  0  0  0  0  0  0  0
  -19.7950  -28.4196   22.6190 C   0  0  0  0  0  0  0  0  0  0  0  0
  -29.5132  -26.1093   19.3289 C   0  0  0  0  0  0  0  0  0  0  0  0
  -23.7999  -20.8451   23.3591 C   0  0  0  0  0  0  0  0  0  0  0  0
  -30.3421  -23.9746   18.8014 C   0  0  0  0  0  0  0  0  0  0  0  0
  -30.1518  -21.6408   17.2849 C   0  0  0  0  0  0  0  0  0  0  0  0
  -30.1568  -22.7452   19.4337 C   0  0  0  0  0  0  0  0  0  0  0  0
  -19.1227  -27.7259   21.6128 C   0  0  0  0  0  0  0  0  0  0  0  0
  -20.1904  -26.3421   23.7871 C   0  0  0  0  0  0  0  0  0  0  0  0
  -20.3288  -27.7277   23.7062 C   0  0  0  0  0  0  0  0  0  0  0  0
  -26.6439  -29.1393   18.6331 C   0  0  0  0  0  0  0  0  0  0  0  0
  -25.2751  -30.5857   17.7007 C   0  0  0  0  0  0  0  0  0  0  0  0
  -26.5777  -29.2180   16.0632 C   0  0  0  0  0  0  0  0  0  0  0  0
  -28.5478  -18.4255   22.3256 C   0  0  0  0  0  0  0  0  0  0  0  0
  -26.8864  -15.8507   21.2616 C   0  0  0  0  0  0  0  0  0  0  0  0
  -23.8536  -14.4141   20.6410 C   0  0  0  0  0  0  0  0  0  0  0  0
  -21.8202  -31.5264   22.4996 C   0  0  0  0  0  0  0  0  0  0  0  0
  -33.3009  -19.4179   23.9005 C   0  0  0  0  0  0  0  0  0  0  0  0
  -26.9442  -18.0384   24.2321 C   0  0  0  0  0  0  0  0  0  0  0  0
  -25.5718  -17.9752   21.6134 C   0  0  0  0  0  0  0  0  0  0  0  0
  -32.6469  -18.3847   22.9868 C   0  0  0  0  0  0  0  0  0  0  0  0
  -24.2062  -33.7718   21.1061 C   0  0  0  0  0  0  0  0  0  0  0  0
  -31.7188  -19.0674   21.9872 C   0  0  0  0  0  0  0  0  0  0  0  0
  -25.0611  -32.8822   20.2018 C   0  0  0  0  0  0  0  0  0  0  0  0
  -23.7776  -33.0397   22.3758 C   0  0  0  0  0  0  0  0  0  0  0  0
  -23.9586  -30.8580   21.2439 C   0  0  0  0  0  0  0  0  0  0  0  0
  -30.5827  -19.8062   22.7047 C   0  0  1  0  0  0  0  0  0  0  0  0
  -27.6112  -17.4563   22.9897 C   0  0  1  0  0  0  0  0  0  0  0  0
  -24.3685  -31.5344   19.9245 C   0  0  2  0  0  0  0  0  0  0  0  0
  -22.8159  -12.3162   19.7357 C   0  0  0  0  0  0  0  0  0  0  0  0
  -27.5657  -16.7421   18.4237 C   0  0  0  0  0  0  0  0  0  0  0  0
  -25.7636  -15.2181   17.5882 C   0  0  0  0  0  0  0  0  0  0  0  0
  -27.7246  -14.2761   18.8087 C   0  0  0  0  0  0  0  0  0  0  0  0
  -22.4967  -13.8395   23.2076 C   0  0  0  0  0  0  0  0  0  0  0  0
  -19.9382  -29.9088   22.5229 C   0  0  0  0  0  0  0  0  0  0  0  0
  -19.3423  -24.1589   22.8218 C   0  0  0  0  0  0  0  0  0  0  0  0
  -20.4612  -21.9390   22.5797 C   0  0  0  0  0  0  0  0  0  0  0  0
  -21.7792  -21.2992   22.1903 C   0  0  0  0  0  0  0  0  0  1  0  0
  -25.9750  -15.5761   20.0898 C   0  0  1  0  0  0  0  0  0  0  0  0
  -23.3004  -13.0420   20.9812 C   0  0  2  0  0  0  0  0  0  0  0  0
  -26.7513  -15.4734   18.7466 C   0  0  0  0  0  0  0  0  0  0  0  0
  -26.0563  -29.7553   19.6623 N   0  0  0  0  0  0  0  0  0  0  0  0
  -25.2297  -30.6292   19.0631 N   0  0  0  0  0  0  0  0  0  0  0  0
  -26.6442  -17.0333   21.9746 N   0  0  0  0  0  0  0  0  0  0  0  0
  -23.1260  -31.7705   22.0432 N   0  0  0  0  0  0  0  0  0  0  0  0
  -24.5081  -31.3968   16.9416 N   0  0  0  0  0  0  0  0  0  0  0  0
  -27.5374  -28.2066   15.9205 N   0  0  0  0  0  0  0  0  0  0  0  0
  -29.5691  -18.8708   23.1430 N   0  0  0  0  0  0  0  0  0  0  0  0
  -25.2165  -14.3785   20.4346 N   0  0  0  0  0  0  0  0  0  0  0  0
  -21.2744  -30.3019   22.1344 N   0  0  0  0  0  0  0  0  0  0  0  0
  -22.1565  -13.1650   21.9284 N   0  3  0  0  0  0  0  0  0  0  0  0
  -20.5876  -23.4155   22.4895 N   0  3  0  0  0  0  0  0  0  0  0  0
  -26.0946  -29.7551   15.0377 O   0  0  0  0  0  0  0  0  0  0  0  0
  -28.3587  -18.7446   21.1577 O   0  0  0  0  0  0  0  0  0  0  0  0
  -27.7757  -15.0419   21.5385 O   0  0  0  0  0  0  0  0  0  0  0  0
  -23.1468  -15.4164   20.5622 O   0  0  0  0  0  0  0  0  0  0  0  0
  -21.1857  -32.3418   23.1775 O   0  0  0  0  0  0  0  0  0  0  0  0
  -30.4359  -25.1341   19.5527 O   0  0  0  0  0  0  0  0  0  0  0  0
  -22.8025  -21.7298   23.0868 O   0  0  0  0  0  0  0  0  0  1  0  0
  -30.0589  -20.5205   16.5565 F   0  0  0  0  0  0  0  0  0  0  0  0
  -30.0683  -22.6789   20.7692 F   0  0  0  0  0  0  0  0  0  0  0  0
  -18.4473  -28.5415   20.2485 Cl  0  0  0  0  0  0  0  0  0  0  0  0
  -20.8416  -25.4501   25.1269 Cl  0  0  0  0  0  0  0  0  0  0  0  0
  -21.1612  -28.6151   24.9462 Cl  0  0  0  0  0  0  0  0  0  0  0  0
  1  2  1  0  0  0  0
  1  5  2  0  0  0  0
  2  6  2  0  0  0  0
  3  8  2  0  0  0  0
  3 16  1  0  0  0  0
  4  9  1  0  0  0  0
  4 16  2  0  0  0  0
  5 18  1  0  0  0  0
  6 20  1  0  0  0  0
  7 10  2  0  0  0  0
  7 19  1  0  0  0  0
  8 24  1  0  0  0  0
  9 24  2  0  0  0  0
 10 25  1  0  0  0  0
 11 12  2  0  0  0  0
 11 26  1  0  0  0  0
 12 27  1  0  0  0  0
 13 21  1  0  0  0  0
 13 25  2  0  0  0  0
 14 22  1  0  0  0  0
 14 29  2  0  0  0  0
 15 27  2  0  0  0  0
 15 28  1  0  0  0  0
 16 32  1  0  0  0  0
 17 32  1  0  0  0  0
 17 33  2  0  0  0  0
 17 34  1  0  0  0  0
 18 20  2  0  0  0  0
 18 39  1  0  0  0  0
 19 21  2  0  0  0  0
 19 40  1  0  0  0  0
 20 48  1  0  0  0  0
 21 41  1  0  0  0  0
 22 30  2  0  0  0  0
 22 57  1  0  0  0  0
 23 29  1  0  0  0  0
 23 31  2  0  0  0  0
 23 56  1  0  0  0  0
 24 79  1  0  0  0  0
 25 80  1  0  0  0  0
 26 28  2  0  0  0  0
 26 79  1  0  0  0  0
 27 81  1  0  0  0  0
 28 82  1  0  0  0  0
 29 83  1  0  0  0  0
 30 31  1  0  0  0  0
 30 84  1  0  0  0  0
 31 85  1  0  0  0  0
 32 63  2  0  0  0  0
 33 64  1  0  0  0  0
 33 67  1  0  0  0  0
 34 68  1  0  0  0  0
 34 74  2  0  0  0  0
 35 49  1  0  0  0  0
 35 69  1  0  0  0  0
 35 75  2  0  0  0  0
 36 60  1  0  0  0  0
 36 65  1  0  0  0  0
 36 76  2  0  0  0  0
 37 61  1  0  0  0  0
 37 70  1  0  0  0  0
 37 77  2  0  0  0  0
 38 66  1  0  0  0  0
 38 71  1  0  0  0  0
 38 78  2  0  0  0  0
 39 42  1  0  0  0  0
 40 49  1  0  0  0  0
 41 65  1  0  0  0  0
 42 44  1  0  0  0  0
 43 45  1  0  0  0  0
 43 46  1  0  0  0  0
 44 48  1  0  0  0  0
 45 50  1  0  0  0  0
 46 66  1  0  0  0  0
 47 50  1  0  0  0  0
 47 66  1  0  0  0  0
 48 69  1  0  0  0  0
 49 65  1  0  0  0  0
 50 64  1  0  0  0  0
 51 61  1  0  0  0  0
 52 62  1  0  0  0  0
 53 62  1  0  0  0  0
 54 62  1  0  0  0  0
 55 72  1  0  0  0  0
 56 71  1  0  0  0  0
 57 73  1  0  0  0  0
 58 59  1  0  0  0  0
 58 73  1  0  0  0  0
 59 80  1  0  0  0  0
 60 62  1  0  0  0  0
 60 70  1  0  0  0  0
 61 72  1  0  0  0  0
 63 64  1  0  0  0  0
M  CHG  2  72   1  73   1
M  ISO  4  38 100  59 101  71 100  80 101
M  END
> <Batch ID>
0026

> <Smiles>
CNC(C)C(=O)NC(C(=O)N1Cc2cc([101O:1][101CH2:1]CNCc3cc(Cl)c(C[100NH:0][100C:0](=O)N4CCCC(n5nc(-c6ccc(Oc7ccc(F)cc7F)cc6)c(C(N)=O)c5N)C4)c(Cl)c3Cl)ccc2CC1C(=O)NC1CCCc2ccccc21)C(C)(C)C

> <Shape>
0.188

> <Color>
0.067

> <Negative vol penalty>
0.000

$$$$

  -OEChem-04052316273D

 82 90  0     1  0  0  0  0  0999 V2000
  -19.0285  -26.4222   17.7166 C   0  0  0  0  0  0  0  0  0  0  0  0
  -20.3559  -26.7769   17.4983 C   0  0  0  0  0  0  0  0  0  0  0  0
  -22.3632  -23.6693   25.7618 C   0  0  0  0  0  0  0  0  0  0  0  0
  -24.1570  -25.2873   25.7989 C   0  0  0  0  0  0  0  0  0  0  0  0
  -18.1796  -27.2908   18.4014 C   0  0  0  0  0  0  0  0  0  0  0  0
  -20.8349  -28.0010   17.9639 C   0  0  0  0  0  0  0  0  0  0  0  0
  -25.3503  -27.5893   20.2191 C   0  0  0  0  0  0  0  0  0  0  0  0
  -22.1199  -23.9079   27.1144 C   0  0  0  0  0  0  0  0  0  0  0  0
  -23.9137  -25.5260   27.1515 C   0  0  0  0  0  0  0  0  0  0  0  0
  -26.4670  -27.4750   19.3923 C   0  0  0  0  0  0  0  0  0  0  0  0
  -23.4668  -23.0134   30.0826 C   0  0  0  0  0  0  0  0  0  0  0  0
  -23.2713  -21.9077   30.9101 C   0  0  0  0  0  0  0  0  0  0  0  0
  -26.9351  -29.8200   19.7103 C   0  0  0  0  0  0  0  0  0  0  0  0
  -31.5263  -26.2252   21.0692 C   0  0  0  0  0  0  0  0  0  0  0  0
  -21.0674  -22.7204   31.4754 C   0  0  0  0  0  0  0  0  0  0  0  0
  -30.7338  -26.1645   18.4589 C   0  0  0  0  0  0  0  0  0  0  0  0
  -23.3817  -24.3590   25.1041 C   0  0  0  0  0  0  0  0  0  0  0  0
  -23.0568  -24.7778   22.6088 C   0  0  0  0  0  0  0  0  0  0  0  0
  -18.6509  -28.5219   18.8839 C   0  0  0  0  0  0  0  0  0  0  0  0
  -25.0109  -28.8244   20.7901 C   0  0  0  0  0  0  0  0  0  0  0  0
  -19.9912  -28.8874   18.6546 C   0  0  0  0  0  0  0  0  0  0  0  0
  -25.8151  -29.9468   20.5462 C   0  0  0  0  0  0  0  0  0  0  0  0
  -31.3573  -27.4207   20.3797 C   0  0  0  0  0  0  0  0  0  0  0  0
  -30.9537  -27.3985   19.0494 C   0  0  0  0  0  0  0  0  0  0  0  0
  -22.8952  -24.8363   27.8093 C   0  0  0  0  0  0  0  0  0  0  0  0
  -27.2579  -28.5911   19.1354 C   0  0  0  0  0  0  0  0  0  0  0  0
  -22.4626  -23.9727   29.9516 C   0  0  0  0  0  0  0  0  0  0  0  0
  -22.0716  -21.7611   31.6064 C   0  0  0  0  0  0  0  0  0  0  0  0
  -21.2630  -23.8262   30.6480 C   0  0  0  0  0  0  0  0  0  0  0  0
  -23.6339  -24.1125   23.7070 C   0  0  0  0  0  0  0  0  0  0  0  0
  -31.2805  -25.0437   20.3884 C   0  0  0  0  0  0  0  0  0  0  0  0
  -23.6211  -24.1787   21.5092 C   0  0  0  0  0  0  0  0  0  0  0  0
  -22.0966  -25.8423   22.5847 C   0  0  0  0  0  0  0  0  0  0  0  0
  -22.5070  -30.7729   20.5958 C   0  0  0  0  0  0  0  0  0  0  0  0
  -28.7952  -21.2136   20.7680 C   0  0  0  0  0  0  0  0  0  0  0  0
  -24.0847  -32.3983   22.9177 C   0  0  0  0  0  0  0  0  0  0  0  0
  -27.0504  -33.1230   24.4428 C   0  0  0  0  0  0  0  0  0  0  0  0
  -17.6836  -29.4482   19.5773 C   0  0  0  0  0  0  0  0  0  0  0  0
  -23.8184  -28.9252   21.7013 C   0  0  0  0  0  0  0  0  0  0  0  0
  -25.5053  -31.2909   21.1511 C   0  0  0  0  0  0  0  0  0  0  0  0
  -18.3664  -30.5631   20.3654 C   0  0  0  0  0  0  0  0  0  0  0  0
  -25.4904  -20.0359   20.0389 C   0  0  0  0  0  0  0  0  0  0  0  0
  -19.4652  -31.2119   19.5296 C   0  0  0  0  0  0  0  0  0  0  0  0
  -24.5886  -20.9908   20.8200 C   0  0  0  0  0  0  0  0  0  0  0  0
  -26.7930  -19.7627   20.7845 C   0  0  0  0  0  0  0  0  0  0  0  0
  -26.6554  -21.9521   21.9288 C   0  0  0  0  0  0  0  0  0  0  0  0
  -20.5544  -30.1956   19.1658 C   0  0  1  0  0  0  0  0  0  0  0  0
  -23.2724  -30.3450   21.8160 C   0  0  1  0  0  0  0  0  0  0  0  0
  -25.3419  -22.2790   21.1964 C   0  0  2  0  0  0  0  0  0  0  0  0
  -31.6135  -28.7116   21.0845 C   0  0  0  0  0  0  0  0  0  0  0  0
  -28.0284  -34.5148   26.2877 C   0  0  0  0  0  0  0  0  0  0  0  0
  -23.8456  -34.8847   21.1654 C   0  0  0  0  0  0  0  0  0  0  0  0
  -25.6153  -35.9609   22.5719 C   0  0  0  0  0  0  0  0  0  0  0  0
  -23.4468  -35.2833   23.6019 C   0  0  0  0  0  0  0  0  0  0  0  0
  -28.0188  -30.7307   25.8914 C   0  0  0  0  0  0  0  0  0  0  0  0
  -30.7549  -28.6656   18.2536 C   0  0  0  0  0  0  0  0  0  0  0  0
  -29.4201  -22.5256   21.1708 C   0  0  0  0  0  0  0  0  0  0  0  0
  -30.8626  -22.6030   20.6949 C   0  0  0  0  0  0  0  0  0  0  0  0
  -29.4408  -29.3618   18.5906 C   0  0  0  0  0  0  0  0  0  1  0  0
  -25.1142  -33.5022   22.9390 C   0  0  1  0  0  0  0  0  0  0  0  0
  -27.4467  -33.1620   25.9077 C   0  0  2  0  0  0  0  0  0  0  0  0
  -24.5105  -34.8830   22.5564 C   0  0  0  0  0  0  0  0  0  0  0  0
  -30.8874  -24.9823   19.0963 N   0  0  0  0  0  0  0  0  0  0  0  0
  -24.4983  -23.1633   23.3387 N   0  0  0  0  0  0  0  0  0  0  0  0
  -24.4686  -23.2277   21.9967 N   0  0  0  0  0  0  0  0  0  0  0  0
  -24.3253  -31.3399   22.0301 N   0  0  0  0  0  0  0  0  0  0  0  0
  -27.4671  -21.0116   21.1439 N   0  0  0  0  0  0  0  0  0  0  0  0
  -23.4700  -24.3777   20.1825 N   0  0  0  0  0  0  0  0  0  0  0  0
  -21.6208  -26.3406   23.8052 N   0  0  0  0  0  0  0  0  0  0  0  0
  -31.4571  -23.8335   21.1042 N   0  0  0  0  0  0  0  0  0  0  0  0
  -21.4274  -29.9639   20.2965 N   0  0  0  0  0  0  0  0  0  0  0  0
  -25.7266  -33.4638   24.2625 N   0  0  0  0  0  0  0  0  0  0  0  0
  -28.4662  -32.1141   26.1966 N   0  3  0  0  0  0  0  0  0  0  0  0
  -21.6607  -26.3257   21.5124 O   0  0  0  0  0  0  0  0  0  0  0  0
  -22.8682  -31.7644   19.9728 O   0  0  0  0  0  0  0  0  0  0  0  0
  -29.4680  -20.3953   20.1357 O   0  0  0  0  0  0  0  0  0  0  0  0
  -23.1068  -32.4688   23.6663 O   0  0  0  0  0  0  0  0  0  0  0  0
  -27.8376  -32.8239   23.5475 O   0  0  0  0  0  0  0  0  0  0  0  0
  -22.6579  -25.0695   29.1291 O   0  0  0  0  0  0  0  0  0  0  0  0
  -28.3481  -28.4824   18.3281 O   0  0  0  0  0  0  0  0  0  1  0  0
  -21.8834  -20.6985   32.3998 F   0  0  0  0  0  0  0  0  0  0  0  0
  -20.2942  -24.7439   30.5252 F   0  0  0  0  0  0  0  0  0  0  0  0
  1  2  1  0  0  0  0
  1  5  2  0  0  0  0
  2  6  2  0  0  0  0
  3  8  2  0  0  0  0
  3 17  1  0  0  0  0
  4  9  1  0  0  0  0
  4 17  2  0  0  0  0
  5 19  1  0  0  0  0
  6 21  1  0  0  0  0
  7 10  2  0  0  0  0
  7 20  1  0  0  0  0
  8 25  1  0  0  0  0
  9 25  2  0  0  0  0
 10 26  1  0  0  0  0
 11 12  2  0  0  0  0
 11 27  1  0  0  0  0
 12 28  1  0  0  0  0
 13 22  1  0  0  0  0
 13 26  2  0  0  0  0
 14 23  1  0  0  0  0
 14 31  2  0  0  0  0
 15 28  2  0  0  0  0
 15 29  1  0  0  0  0
 16 24  1  0  0  0  0
 16 63  2  0  0  0  0
 17 30  1  0  0  0  0
 18 30  1  0  0  0  0
 18 32  2  0  0  0  0
 18 33  1  0  0  0  0
 19 21  2  0  0  0  0
 19 38  1  0  0  0  0
 20 22  2  0  0  0  0
 20 39  1  0  0  0  0
 21 47  1  0  0  0  0
 22 40  1  0  0  0  0
 23 24  2  0  0  0  0
 23 50  1  0  0  0  0
 24 56  1  0  0  0  0
 25 79  1  0  0  0  0
 26 80  1  0  0  0  0
 27 29  2  0  0  0  0
 27 79  1  0  0  0  0
 28 81  1  0  0  0  0
 29 82  1  0  0  0  0
 30 64  2  0  0  0  0
 31 63  1  0  0  0  0
 31 70  1  0  0  0  0
 32 65  1  0  0  0  0
 32 68  1  0  0  0  0
 33 69  1  0  0  0  0
 33 74  2  0  0  0  0
 34 48  1  0  0  0  0
 34 71  1  0  0  0  0
 34 75  2  0  0  0  0
 35 57  1  0  0  0  0
 35 67  1  0  0  0  0
 35 76  2  0  0  0  0
 36 60  1  0  0  0  0
 36 66  1  0  0  0  0
 36 77  2  0  0  0  0
 37 61  1  0  0  0  0
 37 72  1  0  0  0  0
 37 78  2  0  0  0  0
 38 41  1  0  0  0  0
 39 48  1  0  0  0  0
 40 66  1  0  0  0  0
 41 43  1  0  0  0  0
 42 44  1  0  0  0  0
 42 45  1  0  0  0  0
 43 47  1  0  0  0  0
 44 49  1  0  0  0  0
 45 67  1  0  0  0  0
 46 49  1  0  0  0  0
 46 67  1  0  0  0  0
 47 71  1  0  0  0  0
 48 66  1  0  0  0  0
 49 65  1  0  0  0  0
 51 61  1  0  0  0  0
 52 62  1  0  0  0  0
 53 62  1  0  0  0  0
 54 62  1  0  0  0  0
 55 73  1  0  0  0  0
 56 59  1  0  0  0  0
 57 58  1  0  0  0  0
 58 70  1  0  0  0  0
 59 80  1  0  0  0  0
 60 62  1  0  0  0  0
 60 72  1  0  0  0  0
 61 73  1  0  0  0  0
 64 65  1  0  0  0  0
M  CHG  1  73   1
M  ISO  4  35 100  57 100  59 101  80 101
M  END
> <Batch ID>
0026

> <Smiles>
CNC(C)C(=O)NC(C(=O)N1Cc2cc([101O:1][101CH2:1]Cc3cnc(NC[100CH2:0][100C:0](=O)N4CCCC(n5nc(-c6ccc(Oc7ccc(F)cc7F)cc6)c(C(N)=O)c5N)C4)cc3C)ccc2CC1C(=O)NC1CCCc2ccccc21)C(C)(C)C

> <Shape>
0.181

> <Color>
0.099

> <Negative vol penalty>
0.000

$$$$

  -OEChem-04052316273D

 88 96  0     1  0  0  0  0  0999 V2000
  -32.2871  -31.1635   16.9519 C   0  0  0  0  0  0  0  0  0  0  0  0
  -31.9226  -29.8215   16.9123 C   0  0  0  0  0  0  0  0  0  0  0  0
  -23.0535   -9.9222   19.9308 C   0  0  0  0  0  0  0  0  0  0  0  0
  -23.8216   -9.8959   22.2213 C   0  0  0  0  0  0  0  0  0  0  0  0
  -33.3972  -31.5614   17.6956 C   0  0  0  0  0  0  0  0  0  0  0  0
  -32.6687  -28.8764   17.6155 C   0  0  0  0  0  0  0  0  0  0  0  0
  -29.7582  -25.6012   20.1545 C   0  0  0  0  0  0  0  0  0  0  0  0
  -22.3169   -8.7609   20.1645 C   0  0  0  0  0  0  0  0  0  0  0  0
  -23.0851   -8.7347   22.4550 C   0  0  0  0  0  0  0  0  0  0  0  0
  -29.1643  -24.5755   19.4205 C   0  0  0  0  0  0  0  0  0  0  0  0
  -23.3924   -5.4239   21.8423 C   0  0  0  0  0  0  0  0  0  0  0  0
  -24.0162   -4.3905   22.5412 C   0  0  0  0  0  0  0  0  0  0  0  0
  -30.8831  -23.0555   20.1651 C   0  0  0  0  0  0  0  0  0  0  0  0
  -31.5633  -18.4363   20.1658 C   0  0  0  0  0  0  0  0  0  0  0  0
  -22.3201   -4.5266   24.2564 C   0  0  0  0  0  0  0  0  0  0  0  0
  -23.8059  -10.4897   20.9592 C   0  0  0  0  0  0  0  0  0  0  0  0
  -24.1332  -13.0183   20.8793 C   0  0  0  0  0  0  0  0  0  0  0  0
  -34.1517  -30.6221   18.4161 C   0  0  0  0  0  0  0  0  0  0  0  0
  -30.9271  -25.3641   20.8919 C   0  0  0  0  0  0  0  0  0  0  0  0
  -33.7908  -29.2620   18.3685 C   0  0  0  0  0  0  0  0  0  0  0  0
  -31.4885  -24.0793   20.9097 C   0  0  0  0  0  0  0  0  0  0  0  0
  -31.3902  -19.4770   19.2533 C   0  0  0  0  0  0  0  0  0  0  0  0
  -30.5217  -18.0792   21.0221 C   0  0  0  0  0  0  0  0  0  0  0  0
  -30.1757  -20.1607   19.1972 C   0  0  0  0  0  0  0  0  0  0  0  0
  -22.3327   -8.1672   21.4266 C   0  0  0  0  0  0  0  0  0  0  0  0
  -29.7283  -23.3031   19.4233 C   0  0  0  0  0  0  0  0  0  0  0  0
  -22.2325   -6.0088   22.3505 C   0  0  0  0  0  0  0  0  0  0  0  0
  -23.4801   -3.9418   23.7482 C   0  0  0  0  0  0  0  0  0  0  0  0
  -21.6963   -5.5601   23.5575 C   0  0  0  0  0  0  0  0  0  0  0  0
  -29.3071  -18.7628   20.9660 C   0  0  0  0  0  0  0  0  0  0  0  0
  -29.1341  -19.8036   20.0536 C   0  0  0  0  0  0  0  0  0  0  0  0
  -24.5674  -11.6889   20.7182 C   0  0  0  0  0  0  0  0  0  0  0  0
  -25.2198  -13.7798   20.5245 C   0  0  0  0  0  0  0  0  0  0  0  0
  -22.8614  -13.5201   21.3111 C   0  0  0  0  0  0  0  0  0  0  0  0
  -33.8987  -26.4895   20.8086 C   0  0  0  0  0  0  0  0  0  0  0  0
  -34.2340  -24.7065   23.4976 C   0  0  0  0  0  0  0  0  0  0  0  0
  -33.1635  -22.0648   25.3744 C   0  0  0  0  0  0  0  0  0  0  0  0
  -30.6985  -14.8264   20.7100 C   0  0  0  0  0  0  0  0  0  0  0  0
  -35.3715  -31.0933   19.1676 C   0  0  0  0  0  0  0  0  0  0  0  0
  -31.5405  -26.4747   21.6999 C   0  0  0  0  0  0  0  0  0  0  0  0
  -32.7314  -23.7679   21.7013 C   0  0  0  0  0  0  0  0  0  0  0  0
  -35.8875  -30.0812   20.1872 C   0  0  0  0  0  0  0  0  0  0  0  0
  -29.5655  -12.4749   18.2886 C   0  0  0  0  0  0  0  0  0  0  0  0
  -35.9522  -28.6876   19.5702 C   0  0  0  0  0  0  0  0  0  0  0  0
  -28.1313  -12.1661   18.7217 C   0  0  0  0  0  0  0  0  0  0  0  0
  -30.4857  -12.6812   19.4896 C   0  0  0  0  0  0  0  0  0  0  0  0
  -28.5850  -13.3788   20.8948 C   0  0  0  0  0  0  0  0  0  0  0  0
  -34.5604  -28.2105   19.1380 C   0  0  1  0  0  0  0  0  0  0  0  0
  -33.0185  -26.2477   22.0021 C   0  0  1  0  0  0  0  0  0  0  0  0
  -27.6076  -13.2180   19.7179 C   0  0  2  0  0  0  0  0  0  0  0  0
  -29.4570  -20.7958   16.8684 C   0  0  0  0  0  0  0  0  0  0  0  0
  -33.6579  -20.8324   27.5038 C   0  0  0  0  0  0  0  0  0  0  0  0
  -36.6033  -22.3519   17.4780 C   0  0  0  0  0  0  0  0  0  0  0  0
  -36.7606  -20.7818   19.4488 C   0  0  0  0  0  0  0  0  0  0  0  0
  -36.6434  -23.3855   22.1710 C   0  0  0  0  0  0  0  0  0  0  0  0
  -36.5028  -21.5669   23.8860 C   0  0  0  0  0  0  0  0  0  0  0  0
  -36.9485  -23.9165   24.5958 C   0  0  0  0  0  0  0  0  0  0  0  0
  -30.4864  -22.6692   26.4819 C   0  0  0  0  0  0  0  0  0  0  0  0
  -32.5229  -19.8375   18.3483 C   0  0  0  0  0  0  0  0  0  0  0  0
  -30.7569  -16.9568   21.9817 C   0  0  0  0  0  0  0  0  0  0  0  0
  -33.6421  -20.6226   19.0316 C   0  0  0  0  0  0  0  0  0  0  0  0
  -30.0149  -21.2844   18.1991 C   0  0  1  0  0  0  0  0  0  1  0  0
  -34.6368  -23.2817   23.7924 C   0  0  1  0  0  0  0  0  0  0  0  0
  -32.8471  -21.9430   26.8541 C   0  0  2  0  0  0  0  0  0  0  0  0
  -35.8618  -21.6958   18.6317 C   0  0  0  0  0  0  0  0  0  0  0  0
  -36.1605  -23.0437   23.5947 C   0  0  0  0  0  0  0  0  0  0  0  0
  -25.8312  -11.6070   20.2940 N   0  0  0  0  0  0  0  0  0  0  0  0
  -26.2005  -12.8946   20.1853 N   0  0  0  0  0  0  0  0  0  0  0  0
  -33.2975  -24.8886   22.4702 N   0  0  0  0  0  0  0  0  0  0  0  0
  -29.9327  -13.6920   20.3943 N   0  0  0  0  0  0  0  0  0  0  0  0
  -25.4226  -15.1134   20.4725 N   0  0  0  0  0  0  0  0  0  0  0  0
  -21.8558  -12.5998   21.6370 N   0  0  0  0  0  0  0  0  0  0  0  0
  -33.7999  -27.7647   20.2857 N   0  0  0  0  0  0  0  0  0  0  0  0
  -34.1565  -22.9920   25.1392 N   0  0  0  0  0  0  0  0  0  0  0  0
  -30.0972  -15.7380   21.5692 N   0  0  0  0  0  0  0  0  0  0  0  0
  -31.4002  -21.6457   27.0516 N   0  3  0  0  0  0  0  0  0  0  0  0
  -34.7452  -20.8847   18.0745 N   0  3  0  0  0  0  0  0  0  0  0  0
  -22.6185  -14.7482   21.3894 O   0  0  0  0  0  0  0  0  0  0  0  0
  -34.6157  -25.5863   20.3938 O   0  0  0  0  0  0  0  0  0  0  0  0
  -34.7266  -25.6234   24.1596 O   0  0  0  0  0  0  0  0  0  0  0  0
  -32.5900  -21.4008   24.5137 O   0  0  0  0  0  0  0  0  0  0  0  0
  -31.8318  -15.0157   20.2553 O   0  0  0  0  0  0  0  0  0  0  0  0
  -21.6139   -7.0342   21.6550 O   0  0  0  0  0  0  0  0  0  0  0  0
  -29.1510  -22.3002   18.7072 O   0  0  0  0  0  0  0  0  0  1  0  0
  -24.0784   -2.9484   24.4185 F   0  0  0  0  0  0  0  0  0  0  0  0
  -20.5816   -6.1173   24.0501 F   0  0  0  0  0  0  0  0  0  0  0  0
  -28.0315  -18.2938   22.0461 Cl  0  0  0  0  0  0  0  0  0  0  0  0
  -27.6330  -20.6720   19.9613 Cl  0  0  0  0  0  0  0  0  0  0  0  0
  1  2  1  0  0  0  0
  1  5  2  0  0  0  0
  2  6  2  0  0  0  0
  3  8  2  0  0  0  0
  3 16  1  0  0  0  0
  4  9  1  0  0  0  0
  4 16  2  0  0  0  0
  5 18  1  0  0  0  0
  6 20  1  0  0  0  0
  7 10  2  0  0  0  0
  7 19  1  0  0  0  0
  8 25  1  0  0  0  0
  9 25  2  0  0  0  0
 10 26  1  0  0  0  0
 11 12  2  0  0  0  0
 11 27  1  0  0  0  0
 12 28  1  0  0  0  0
 13 21  1  0  0  0  0
 13 26  2  0  0  0  0
 14 22  2  0  0  0  0
 14 23  1  0  0  0  0
 15 28  2  0  0  0  0
 15 29  1  0  0  0  0
 16 32  1  0  0  0  0
 17 32  1  0  0  0  0
 17 33  2  0  0  0  0
 17 34  1  0  0  0  0
 18 20  2  0  0  0  0
 18 39  1  0  0  0  0
 19 21  2  0  0  0  0
 19 40  1  0  0  0  0
 20 48  1  0  0  0  0
 21 41  1  0  0  0  0
 22 24  1  0  0  0  0
 22 59  1  0  0  0  0
 23 30  2  0  0  0  0
 23 60  1  0  0  0  0
 24 31  2  0  0  0  0
 24 62  1  0  0  0  0
 25 83  1  0  0  0  0
 26 84  1  0  0  0  0
 27 29  2  0  0  0  0
 27 83  1  0  0  0  0
 28 85  1  0  0  0  0
 29 86  1  0  0  0  0
 30 31  1  0  0  0  0
 30 87  1  0  0  0  0
 31 88  1  0  0  0  0
 32 67  2  0  0  0  0
 33 68  1  0  0  0  0
 33 71  1  0  0  0  0
 34 72  1  0  0  0  0
 34 78  2  0  0  0  0
 35 49  1  0  0  0  0
 35 73  1  0  0  0  0
 35 79  2  0  0  0  0
 36 63  1  0  0  0  0
 36 69  1  0  0  0  0
 36 80  2  0  0  0  0
 37 64  1  0  0  0  0
 37 74  1  0  0  0  0
 37 81  2  0  0  0  0
 38 70  1  0  0  0  0
 38 75  1  0  0  0  0
 38 82  2  0  0  0  0
 39 42  1  0  0  0  0
 40 49  1  0  0  0  0
 41 69  1  0  0  0  0
 42 44  1  0  0  0  0
 43 45  1  0  0  0  0
 43 46  1  0  0  0  0
 44 48  1  0  0  0  0
 45 50  1  0  0  0  0
 46 70  1  0  0  0  0
 47 50  1  0  0  0  0
 47 70  1  0  0  0  0
 48 73  1  0  0  0  0
 49 69  1  0  0  0  0
 50 68  1  0  0  0  0
 51 62  1  0  0  0  0
 52 64  1  0  0  0  0
 53 65  1  0  0  0  0
 54 65  1  0  0  0  0
 55 66  1  0  0  0  0
 56 66  1  0  0  0  0
 57 66  1  0  0  0  0
 58 76  1  0  0  0  0
 59 61  1  0  0  0  0
 60 75  1  0  0  0  0
 61 77  1  0  0  0  0
 62 84  1  0  0  0  0
 63 66  1  0  0  0  0
 63 74  1  0  0  0  0
 64 76  1  0  0  0  0
 65 77  1  0  0  0  0
 67 68  1  0  0  0  0
M  CHG  2  76   1  77   1
M  ISO  4  38 100  62 101  75 100  84 101
M  END
> <Batch ID>
0026

> <Smiles>
CNC(C)C(=O)NC(C(=O)N1Cc2cc([101O:1][101CH:1](C)c3c(CCNC(C)C)cc(C[100NH:0][100C:0](=O)N4CCCC(n5nc(-c6ccc(Oc7ccc(F)cc7F)cc6)c(C(N)=O)c5N)C4)c(Cl)c3Cl)ccc2CC1C(=O)NC1CCCc2ccccc21)C(C)(C)C

> <Shape>
0.234

> <Color>
0.205

> <Negative vol penalty>
0.000

$$$$

  -OEChem-04052316273D

 86 94  0     1  0  0  0  0  0999 V2000
  -25.6348  -20.4914   28.0667 C   0  0  0  0  0  0  0  0  0  0  0  0
  -26.4589  -21.1202   27.1388 C   0  0  0  0  0  0  0  0  0  0  0  0
  -25.6623  -12.7764   21.8975 C   0  0  0  0  0  0  0  0  0  0  0  0
  -25.7286  -13.3670   19.5557 C   0  0  0  0  0  0  0  0  0  0  0  0
  -24.2519  -20.5034   27.8901 C   0  0  0  0  0  0  0  0  0  0  0  0
  -25.9004  -21.7604   26.0331 C   0  0  0  0  0  0  0  0  0  0  0  0
  -27.9469  -26.8450   23.3009 C   0  0  0  0  0  0  0  0  0  0  0  0
  -24.5911  -11.9179   21.6507 C   0  0  0  0  0  0  0  0  0  0  0  0
  -24.6574  -12.5084   19.3089 C   0  0  0  0  0  0  0  0  0  0  0  0
  -28.7231  -27.0499   22.1611 C   0  0  0  0  0  0  0  0  0  0  0  0
  -22.0724   -9.2977   21.5750 C   0  0  0  0  0  0  0  0  0  0  0  0
  -22.1084   -8.0314   22.1588 C   0  0  0  0  0  0  0  0  0  0  0  0
  -26.7175  -27.3768   20.8612 C   0  0  0  0  0  0  0  0  0  0  0  0
  -29.9017  -23.1285   18.6539 C   0  0  0  0  0  0  0  0  0  0  0  0
  -24.1602   -7.5459   20.9791 C   0  0  0  0  0  0  0  0  0  0  0  0
  -26.2311  -13.5010   20.8500 C   0  0  0  0  0  0  0  0  0  0  0  0
  -28.7083  -14.0716   21.0631 C   0  0  0  0  0  0  0  0  0  0  0  0
  -23.6756  -21.1524   26.7868 C   0  0  0  0  0  0  0  0  0  0  0  0
  -26.5474  -26.8938   23.2271 C   0  0  0  0  0  0  0  0  0  0  0  0
  -24.5085  -21.7799   25.8408 C   0  0  0  0  0  0  0  0  0  0  0  0
  -25.9258  -27.1747   22.0021 C   0  0  0  0  0  0  0  0  0  0  0  0
  -29.3085  -21.9654   18.1631 C   0  0  0  0  0  0  0  0  0  0  0  0
  -31.3884  -21.3549   17.0961 C   0  0  0  0  0  0  0  0  0  0  0  0
  -31.2383  -23.4049   18.3658 C   0  0  0  0  0  0  0  0  0  0  0  0
  -24.0886  -11.7838   20.3564 C   0  0  0  0  0  0  0  0  0  0  0  0
  -28.1084  -27.3129   20.9404 C   0  0  0  0  0  0  0  0  0  0  0  0
  -23.0802   -9.6881   20.6932 C   0  0  0  0  0  0  0  0  0  0  0  0
  -23.1523   -7.1555   21.8608 C   0  0  0  0  0  0  0  0  0  0  0  0
  -24.1241   -8.8123   20.3953 C   0  0  0  0  0  0  0  0  0  0  0  0
  -30.0519  -21.0786   17.3843 C   0  0  0  0  0  0  0  0  0  0  0  0
  -31.9816  -22.5181   17.5869 C   0  0  0  0  0  0  0  0  0  0  0  0
  -27.3373  -14.3885   21.1044 C   0  0  0  0  0  0  0  0  0  0  0  0
  -29.3425  -15.2488   21.3770 C   0  0  0  0  0  0  0  0  0  0  0  0
  -29.3511  -12.8246   20.7673 C   0  0  0  0  0  0  0  0  0  0  0  0
  -24.1992  -24.8193   23.7625 C   0  0  0  0  0  0  0  0  0  0  0  0
  -22.3178  -27.4114   23.2489 C   0  0  0  0  0  0  0  0  0  0  0  0
  -21.9577  -30.4949   21.8314 C   0  0  0  0  0  0  0  0  0  0  0  0
  -27.7496  -20.9986   20.8731 C   0  0  0  0  0  0  0  0  0  0  0  0
  -22.1784  -21.0981   26.6132 C   0  0  0  0  0  0  0  0  0  0  0  0
  -25.7250  -26.6971   24.4711 C   0  0  0  0  0  0  0  0  0  0  0  0
  -24.4274  -27.2579   21.8737 C   0  0  0  0  0  0  0  0  0  0  0  0
  -21.6437  -22.1202   25.6133 C   0  0  0  0  0  0  0  0  0  0  0  0
  -28.7140  -19.2971   23.8483 C   0  0  0  0  0  0  0  0  0  0  0  0
  -22.4868  -22.1149   24.3421 C   0  0  0  0  0  0  0  0  0  0  0  0
  -28.5942  -17.8175   23.4787 C   0  0  0  0  0  0  0  0  0  0  0  0
  -27.6186  -20.1335   23.1907 C   0  0  0  0  0  0  0  0  0  0  0  0
  -27.3972  -18.5011   21.3577 C   0  0  0  0  0  0  0  0  0  0  0  0
  -23.9389  -22.5063   24.6416 C   0  0  1  0  0  0  0  0  0  0  0  0
  -24.2930  -26.2603   24.1779 C   0  0  1  0  0  0  0  0  0  0  0  0
  -28.5136  -17.6256   21.9523 C   0  0  2  0  0  0  0  0  0  0  0  0
  -32.1874  -20.4006   16.2602 C   0  0  0  0  0  0  0  0  0  0  0  0
  -20.2936  -32.3522   21.5517 C   0  0  0  0  0  0  0  0  0  0  0  0
  -20.8334  -25.7628   21.1539 C   0  0  0  0  0  0  0  0  0  0  0  0
  -19.8601  -27.8928   20.2684 C   0  0  0  0  0  0  0  0  0  0  0  0
  -19.3637  -27.1732   22.6048 C   0  0  0  0  0  0  0  0  0  0  0  0
  -32.4511  -24.5754   20.1876 C   0  0  0  0  0  0  0  0  0  0  0  0
  -23.7063  -32.4286   23.2321 C   0  0  0  0  0  0  0  0  0  0  0  0
  -27.8739  -21.7105   18.4989 C   0  0  0  0  0  0  0  0  0  0  0  0
  -30.4363  -26.5251   18.3060 C   0  0  0  0  0  0  0  0  0  0  0  0
  -31.7735  -25.8167   18.1264 C   0  0  0  0  0  0  0  0  0  0  0  0
  -30.1199  -26.8384   19.7637 C   0  0  0  0  0  0  0  0  0  1  0  0
  -21.6703  -28.0395   22.0384 C   0  0  1  0  0  0  0  0  0  0  0  0
  -21.4380  -31.8065   22.3916 C   0  0  2  0  0  0  0  0  0  0  0  0
  -20.4601  -27.2136   21.5181 C   0  0  0  0  0  0  0  0  0  0  0  0
  -27.1129  -15.6668   21.4199 N   0  0  0  0  0  0  0  0  0  0  0  0
  -28.3513  -16.1635   21.5798 N   0  0  0  0  0  0  0  0  0  0  0  0
  -23.6666  -27.0520   23.1172 N   0  0  0  0  0  0  0  0  0  0  0  0
  -27.5966  -19.9068   21.7436 N   0  0  0  0  0  0  0  0  0  0  0  0
  -30.6456  -15.5803   21.4968 N   0  0  0  0  0  0  0  0  0  0  0  0
  -28.5499  -11.7149   20.4655 N   0  0  0  0  0  0  0  0  0  0  0  0
  -24.0505  -23.9385   24.8168 N   0  0  0  0  0  0  0  0  0  0  0  0
  -21.3407  -29.4094   22.4164 N   0  0  0  0  0  0  0  0  0  0  0  0
  -27.7232  -20.6952   19.5174 N   0  0  0  0  0  0  0  0  0  0  0  0
  -31.8025  -24.5834   18.8750 N   0  0  3  0  0  0  0  0  0  0  0  0
  -22.5261  -32.8244   22.4213 N   0  3  0  0  0  0  0  0  0  0  0  0
  -30.5986  -12.6941   20.7865 O   0  0  0  0  0  0  0  0  0  0  0  0
  -24.2560  -24.5283   22.5735 O   0  0  0  0  0  0  0  0  0  0  0  0
  -21.6532  -27.2522   24.2759 O   0  0  0  0  0  0  0  0  0  0  0  0
  -22.8218  -30.4388   20.9592 O   0  0  0  0  0  0  0  0  0  0  0  0
  -27.9041  -22.1570   21.2745 O   0  0  0  0  0  0  0  0  0  0  0  0
  -23.0435  -10.9459   20.1151 O   0  0  0  0  0  0  0  0  0  0  0  0
  -28.8638  -27.5126   19.8262 O   0  0  0  0  0  0  0  0  0  1  0  0
  -23.1875   -5.9401   22.4227 F   0  0  0  0  0  0  0  0  0  0  0  0
  -25.0958   -9.1821   19.5499 F   0  0  0  0  0  0  0  0  0  0  0  0
  -29.3089  -19.6344   16.7797 Cl  0  0  0  0  0  0  0  0  0  0  0  0
  -33.6435  -22.8639   17.2282 Cl  0  0  0  0  0  0  0  0  0  0  0  0
  1  2  1  0  0  0  0
  1  5  2  0  0  0  0
  2  6  2  0  0  0  0
  3  8  2  0  0  0  0
  3 16  1  0  0  0  0
  4  9  1  0  0  0  0
  4 16  2  0  0  0  0
  5 18  1  0  0  0  0
  6 20  1  0  0  0  0
  7 10  2  0  0  0  0
  7 19  1  0  0  0  0
  8 25  1  0  0  0  0
  9 25  2  0  0  0  0
 10 26  1  0  0  0  0
 11 12  2  0  0  0  0
 11 27  1  0  0  0  0
 12 28  1  0  0  0  0
 13 21  1  0  0  0  0
 13 26  2  0  0  0  0
 14 22  2  0  0  0  0
 14 24  1  0  0  0  0
 15 28  2  0  0  0  0
 15 29  1  0  0  0  0
 16 32  1  0  0  0  0
 17 32  1  0  0  0  0
 17 33  2  0  0  0  0
 17 34  1  0  0  0  0
 18 20  2  0  0  0  0
 18 39  1  0  0  0  0
 19 21  2  0  0  0  0
 19 40  1  0  0  0  0
 20 48  1  0  0  0  0
 21 41  1  0  0  0  0
 22 30  1  0  0  0  0
 22 58  1  0  0  0  0
 23 30  2  0  0  0  0
 23 31  1  0  0  0  0
 23 51  1  0  0  0  0
 24 31  2  0  0  0  0
 24 74  1  0  0  0  0
 25 81  1  0  0  0  0
 26 82  1  0  0  0  0
 27 29  2  0  0  0  0
 27 81  1  0  0  0  0
 28 83  1  0  0  0  0
 29 84  1  0  0  0  0
 30 85  1  0  0  0  0
 31 86  1  0  0  0  0
 32 65  2  0  0  0  0
 33 66  1  0  0  0  0
 33 69  1  0  0  0  0
 34 70  1  0  0  0  0
 34 76  2  0  0  0  0
 35 49  1  0  0  0  0
 35 71  1  0  0  0  0
 35 77  2  0  0  0  0
 36 62  1  0  0  0  0
 36 67  1  0  0  0  0
 36 78  2  0  0  0  0
 37 63  1  0  0  0  0
 37 72  1  0  0  0  0
 37 79  2  0  0  0  0
 38 68  1  0  0  0  0
 38 73  1  0  0  0  0
 38 80  2  0  0  0  0
 39 42  1  0  0  0  0
 40 49  1  0  0  0  0
 41 67  1  0  0  0  0
 42 44  1  0  0  0  0
 43 45  1  0  0  0  0
 43 46  1  0  0  0  0
 44 48  1  0  0  0  0
 45 50  1  0  0  0  0
 46 68  1  0  0  0  0
 47 50  1  0  0  0  0
 47 68  1  0  0  0  0
 48 71  1  0  0  0  0
 49 67  1  0  0  0  0
 50 66  1  0  0  0  0
 52 63  1  0  0  0  0
 53 64  1  0  0  0  0
 54 64  1  0  0  0  0
 55 64  1  0  0  0  0
 56 74  1  0  0  0  0
 57 75  1  0  0  0  0
 58 73  1  0  0  0  0
 59 60  1  0  0  0  0
 59 61  1  0  0  0  0
 60 74  1  0  0  0  0
 61 82  1  0  0  0  0
 62 64  1  0  0  0  0
 62 72  1  0  0  0  0
 63 75  1  0  0  0  0
 65 66  1  0  0  0  0
M  CHG  1  75   1
M  ISO  4  38 100  61 101  73 100  82 101
M  END
> <Batch ID>
0026

> <Smiles>
CNC(C)C(=O)NC(C(=O)N1Cc2cc([101O:1][101CH2:1]CCN(C)c3cc(C[100NH:0][100C:0](=O)N4CCCC(n5nc(-c6ccc(Oc7ccc(F)cc7F)cc6)c(C(N)=O)c5N)C4)c(Cl)c(C)c3Cl)ccc2CC1C(=O)NC1CCCc2ccccc21)C(C)(C)C

> <Shape>
0.241

> <Color>
0.058

> <Negative vol penalty>
0.000

$$$$

  -OEChem-04052316273D

 85 93  0     1  0  0  0  0  0999 V2000
  -33.4878  -28.3150   16.4455 C   0  0  0  0  0  0  0  0  0  0  0  0
  -32.9222  -27.6160   17.5071 C   0  0  0  0  0  0  0  0  0  0  0  0
  -23.0556   -9.8257   20.0782 C   0  0  0  0  0  0  0  0  0  0  0  0
  -23.7747  -10.0003   22.3781 C   0  0  0  0  0  0  0  0  0  0  0  0
  -33.3321  -29.6980   16.3611 C   0  0  0  0  0  0  0  0  0  0  0  0
  -32.2014  -28.2998   18.4855 C   0  0  0  0  0  0  0  0  0  0  0  0
  -27.8680  -25.9719   19.6886 C   0  0  0  0  0  0  0  0  0  0  0  0
  -22.2888   -8.7066   20.4029 C   0  0  0  0  0  0  0  0  0  0  0  0
  -23.0080   -8.8812   22.7028 C   0  0  0  0  0  0  0  0  0  0  0  0
  -27.9525  -24.8663   20.5338 C   0  0  0  0  0  0  0  0  0  0  0  0
  -19.7571   -8.1806   23.3043 C   0  0  0  0  0  0  0  0  0  0  0  0
  -18.9790   -8.2432   24.4602 C   0  0  0  0  0  0  0  0  0  0  0  0
  -27.2967  -26.2492   22.3984 C   0  0  0  0  0  0  0  0  0  0  0  0
  -20.1757   -6.3510   25.3683 C   0  0  0  0  0  0  0  0  0  0  0  0
  -23.7986  -10.4725   21.0658 C   0  0  0  0  0  0  0  0  0  0  0  0
  -24.1833  -12.9753   20.7564 C   0  0  0  0  0  0  0  0  0  0  0  0
  -32.6008  -30.3978   17.3338 C   0  0  0  0  0  0  0  0  0  0  0  0
  -27.5072  -27.2289   20.1949 C   0  0  0  0  0  0  0  0  0  0  0  0
  -32.0368  -29.6936   18.4147 C   0  0  0  0  0  0  0  0  0  0  0  0
  -27.2059  -27.3686   21.5571 C   0  0  0  0  0  0  0  0  0  0  0  0
  -22.2650   -8.2344   21.7152 C   0  0  0  0  0  0  0  0  0  0  0  0
  -27.6697  -25.0055   21.8894 C   0  0  0  0  0  0  0  0  0  0  0  0
  -20.7445   -7.2031   23.1803 C   0  0  0  0  0  0  0  0  0  0  0  0
  -19.1883   -7.3285   25.4923 C   0  0  0  0  0  0  0  0  0  0  0  0
  -20.9538   -6.2883   24.2123 C   0  0  0  0  0  0  0  0  0  0  0  0
  -24.5913  -11.6281   20.7309 C   0  0  0  0  0  0  0  0  0  0  0  0
  -25.2937  -13.6779   20.3567 C   0  0  0  0  0  0  0  0  0  0  0  0
  -22.9141  -13.5409   21.1099 C   0  0  0  0  0  0  0  0  0  0  0  0
  -28.9305  -30.0650   20.3808 C   0  0  0  0  0  0  0  0  0  0  0  0
  -26.0355  -31.0094   21.4986 C   0  0  0  0  0  0  0  0  0  0  0  0
  -23.0960  -30.1605   23.0104 C   0  0  0  0  0  0  0  0  0  0  0  0
  -30.7891  -14.6275   20.5690 C   0  0  0  0  0  0  0  0  0  0  0  0
  -32.4996  -31.8987   17.2255 C   0  0  0  0  0  0  0  0  0  0  0  0
  -27.3946  -28.4059   19.2652 C   0  0  0  0  0  0  0  0  0  0  0  0
  -26.7942  -28.6921   22.1466 C   0  0  0  0  0  0  0  0  0  0  0  0
  -31.4041  -32.5001   18.1021 C   0  0  0  0  0  0  0  0  0  0  0  0
  -29.6555  -12.0812   18.3536 C   0  0  0  0  0  0  0  0  0  0  0  0
  -31.4623  -31.9117   19.5082 C   0  0  0  0  0  0  0  0  0  0  0  0
  -32.7391  -17.8372   23.0492 C   0  0  0  0  0  0  0  0  0  0  0  0
  -30.7215  -16.7963   24.1687 C   0  0  0  0  0  0  0  0  0  0  0  0
  -28.2060  -11.8434   18.7808 C   0  0  0  0  0  0  0  0  0  0  0  0
  -32.1738  -19.2312   23.3222 C   0  0  0  0  0  0  0  0  0  0  0  0
  -30.1534  -18.1889   24.4435 C   0  0  0  0  0  0  0  0  0  0  0  0
  -30.5546  -12.3814   19.5509 C   0  0  0  0  0  0  0  0  0  0  0  0
  -28.6407  -13.2464   20.8403 C   0  0  0  0  0  0  0  0  0  0  0  0
  -31.2269  -30.3966   19.4824 C   0  0  1  0  0  0  0  0  0  0  0  0
  -27.5172  -29.7472   19.9817 C   0  0  1  0  0  0  0  0  0  0  0  0
  -31.6521  -16.7560   22.9466 C   0  0  0  0  0  0  0  0  0  0  0  0
  -27.6849  -12.9949   19.6615 C   0  0  2  0  0  0  0  0  0  0  0  0
  -31.2693  -19.2245   24.5516 C   0  0  0  0  0  0  0  0  0  0  0  0
  -32.3459  -22.1242   27.7760 C   0  0  0  0  0  0  0  0  0  0  0  0
  -20.9411  -31.1550   23.8256 C   0  0  0  0  0  0  0  0  0  0  0  0
  -27.4870  -32.1614   23.9227 C   0  0  0  0  0  0  0  0  0  0  0  0
  -25.2819  -32.2712   25.1034 C   0  0  0  0  0  0  0  0  0  0  0  0
  -25.6497  -33.6014   23.0254 C   0  0  0  0  0  0  0  0  0  0  0  0
  -21.4929  -28.4881   21.1688 C   0  0  0  0  0  0  0  0  0  0  0  0
  -30.8678  -16.8667   21.6361 C   0  0  0  0  0  0  0  0  0  0  0  0
  -31.4742  -21.1869   26.9562 C   0  0  0  0  0  0  0  0  0  0  0  0
  -29.1754  -22.2398   23.6530 C   0  0  0  0  0  0  0  0  0  0  0  0
  -31.5771  -21.4978   25.4715 C   0  0  0  0  0  0  0  0  0  0  0  0
  -30.2103  -21.1495   23.4194 C   0  0  0  0  0  0  0  0  0  0  0  0
  -28.6987  -22.9169   22.3739 C   0  0  0  0  0  0  0  0  0  1  0  0
  -25.3905  -31.0918   22.8610 C   0  0  1  0  0  0  0  0  0  0  0  0
  -21.6542  -30.4836   22.6623 C   0  0  2  0  0  0  0  0  0  0  0  0
  -25.9619  -32.2568   23.7177 C   0  0  0  0  0  0  0  0  0  0  0  0
  -25.8616  -11.4813   20.3453 N   0  0  0  0  0  0  0  0  0  0  0  0
  -26.2615  -12.7453   20.1248 N   0  0  0  0  0  0  0  0  0  0  0  0
  -26.7047  -29.8145   21.1981 N   0  0  0  0  0  0  0  0  0  0  0  0
  -30.0052  -13.4839   20.3437 N   0  0  0  0  0  0  0  0  0  0  0  0
  -25.5269  -14.9964   20.1845 N   0  0  0  0  0  0  0  0  0  0  0  0
  -21.8818  -12.6758   21.4976 N   0  0  0  0  0  0  0  0  0  0  0  0
  -29.8181  -30.1067   19.3226 N   0  0  0  0  0  0  0  0  0  0  0  0
  -23.9526  -31.1711   22.6278 N   0  0  0  0  0  0  0  0  0  0  0  0
  -30.1902  -15.6279   21.3249 N   0  0  0  0  0  0  0  0  0  0  0  0
  -20.9141  -29.2381   22.3130 N   0  3  0  0  0  0  0  0  0  0  0  0
  -30.6604  -20.5725   24.7078 N   0  3  1  0  0  0  0  0  0  0  0  0
  -22.6969  -14.7756   21.0669 O   0  0  0  0  0  0  0  0  0  0  0  0
  -29.1958  -30.2594   21.5613 O   0  0  0  0  0  0  0  0  0  0  0  0
  -25.9428  -31.9671   20.7267 O   0  0  0  0  0  0  0  0  0  0  0  0
  -23.4287  -29.1178   23.5695 O   0  0  0  0  0  0  0  0  0  0  0  0
  -31.9356  -14.7503   20.1247 O   0  0  0  0  0  0  0  0  0  0  0  0
  -21.5167   -7.1426   22.0324 O   0  0  0  0  0  0  0  0  0  0  0  0
  -27.7520  -23.9281   22.7167 O   0  0  0  0  0  0  0  0  0  1  0  0
  -18.4421   -7.3898   26.6029 F   0  0  0  0  0  0  0  0  0  0  0  0
  -21.9016   -5.3477   24.0995 F   0  0  0  0  0  0  0  0  0  0  0  0
  1  2  1  0  0  0  0
  1  5  2  0  0  0  0
  2  6  2  0  0  0  0
  3  8  2  0  0  0  0
  3 15  1  0  0  0  0
  4  9  1  0  0  0  0
  4 15  2  0  0  0  0
  5 17  1  0  0  0  0
  6 19  1  0  0  0  0
  7 10  2  0  0  0  0
  7 18  1  0  0  0  0
  8 21  1  0  0  0  0
  9 21  2  0  0  0  0
 10 22  1  0  0  0  0
 11 12  2  0  0  0  0
 11 23  1  0  0  0  0
 12 24  1  0  0  0  0
 13 20  1  0  0  0  0
 13 22  2  0  0  0  0
 14 24  2  0  0  0  0
 14 25  1  0  0  0  0
 15 26  1  0  0  0  0
 16 26  1  0  0  0  0
 16 27  2  0  0  0  0
 16 28  1  0  0  0  0
 17 19  2  0  0  0  0
 17 33  1  0  0  0  0
 18 20  2  0  0  0  0
 18 34  1  0  0  0  0
 19 46  1  0  0  0  0
 20 35  1  0  0  0  0
 21 82  1  0  0  0  0
 22 83  1  0  0  0  0
 23 25  2  0  0  0  0
 23 82  1  0  0  0  0
 24 84  1  0  0  0  0
 25 85  1  0  0  0  0
 26 66  2  0  0  0  0
 27 67  1  0  0  0  0
 27 70  1  0  0  0  0
 28 71  1  0  0  0  0
 28 77  2  0  0  0  0
 29 47  1  0  0  0  0
 29 72  1  0  0  0  0
 29 78  2  0  0  0  0
 30 63  1  0  0  0  0
 30 68  1  0  0  0  0
 30 79  2  0  0  0  0
 31 64  1  0  0  0  0
 31 73  1  0  0  0  0
 31 80  2  0  0  0  0
 32 69  1  0  0  0  0
 32 74  1  0  0  0  0
 32 81  2  0  0  0  0
 33 36  1  0  0  0  0
 34 47  1  0  0  0  0
 35 68  1  0  0  0  0
 36 38  1  0  0  0  0
 37 41  1  0  0  0  0
 37 44  1  0  0  0  0
 38 46  1  0  0  0  0
 39 42  1  0  0  0  0
 39 48  1  0  0  0  0
 40 43  1  0  0  0  0
 40 48  1  0  0  0  0
 41 49  1  0  0  0  0
 42 50  1  0  0  0  0
 43 50  1  0  0  0  0
 44 69  1  0  0  0  0
 45 49  1  0  0  0  0
 45 69  1  0  0  0  0
 46 72  1  0  0  0  0
 47 68  1  0  0  0  0
 48 57  1  0  0  0  0
 49 67  1  0  0  0  0
 50 76  1  0  0  0  0
 51 58  1  0  0  0  0
 52 64  1  0  0  0  0
 53 65  1  0  0  0  0
 54 65  1  0  0  0  0
 55 65  1  0  0  0  0
 56 75  1  0  0  0  0
 57 74  1  0  0  0  0
 58 60  1  0  0  0  0
 59 61  1  0  0  0  0
 59 62  1  0  0  0  0
 60 76  1  0  0  0  0
 61 76  1  0  0  0  0
 62 83  1  0  0  0  0
 63 65  1  0  0  0  0
 63 73  1  0  0  0  0
 64 75  1  0  0  0  0
 66 67  1  0  0  0  0
M  CHG  2  75   1  76   1
M  ISO  4  32 100  62 101  74 100  83 101
M  END
> <Batch ID>
0026

> <Smiles>
CCCN(CC[101CH2:1][101O:1]c1ccc2c(c1)CN(C(=O)C(NC(=O)C(C)NC)C(C)(C)C)C(C(=O)NC1CCCc3ccccc31)C2)C1CCC(C[100NH:0][100C:0](=O)N2CCCC(n3nc(-c4ccc(Oc5ccc(F)cc5F)cc4)c(C(N)=O)c3N)C2)CC1

> <Shape>
0.292

> <Color>
0.225

> <Negative vol penalty>
0.000

$$$$

  -OEChem-04052316273D

 86 94  0     1  0  0  0  0  0999 V2000
  -16.9084  -30.1801   24.4616 C   0  0  0  0  0  0  0  0  0  0  0  0
  -17.2590  -28.8338   24.4498 C   0  0  0  0  0  0  0  0  0  0  0  0
  -26.4286  -12.3383   20.9011 C   0  0  0  0  0  0  0  0  0  0  0  0
  -24.7698  -13.8984   20.0939 C   0  0  0  0  0  0  0  0  0  0  0  0
  -17.4945  -31.0599   23.5526 C   0  0  0  0  0  0  0  0  0  0  0  0
  -18.1952  -28.3664   23.5280 C   0  0  0  0  0  0  0  0  0  0  0  0
  -23.3775  -23.4705   22.8284 C   0  0  0  0  0  0  0  0  0  0  0  0
  -25.5838  -11.2752   20.5823 C   0  0  0  0  0  0  0  0  0  0  0  0
  -23.9251  -12.8353   19.7750 C   0  0  0  0  0  0  0  0  0  0  0  0
  -23.7817  -22.4442   21.9756 C   0  0  0  0  0  0  0  0  0  0  0  0
  -23.7164   -8.1665   20.3124 C   0  0  0  0  0  0  0  0  0  0  0  0
  -23.5717   -7.1467   21.2529 C   0  0  0  0  0  0  0  0  0  0  0  0
  -24.7876  -24.0706   20.5051 C   0  0  0  0  0  0  0  0  0  0  0  0
  -22.7220   -8.7439   22.8542 C   0  0  0  0  0  0  0  0  0  0  0  0
  -26.0216  -13.6500   20.6570 C   0  0  0  0  0  0  0  0  0  0  0  0
  -27.8598  -15.3461   20.1553 C   0  0  0  0  0  0  0  0  0  0  0  0
  -18.4455  -30.6049   22.6256 C   0  0  0  0  0  0  0  0  0  0  0  0
  -23.6663  -24.8076   22.5199 C   0  0  0  0  0  0  0  0  0  0  0  0
  -18.7936  -29.2408   22.6049 C   0  0  0  0  0  0  0  0  0  0  0  0
  -24.3882  -25.1117   21.3569 C   0  0  0  0  0  0  0  0  0  0  0  0
  -24.3321  -11.5236   20.0192 C   0  0  0  0  0  0  0  0  0  0  0  0
  -24.4843  -22.7444   20.8123 C   0  0  0  0  0  0  0  0  0  0  0  0
  -23.3640   -9.4751   20.6428 C   0  0  0  0  0  0  0  0  0  0  0  0
  -23.0745   -7.4353   22.5237 C   0  0  0  0  0  0  0  0  0  0  0  0
  -22.8668   -9.7638   21.9137 C   0  0  0  0  0  0  0  0  0  0  0  0
  -30.8906  -23.2199   19.9745 C   0  0  0  0  0  0  0  0  0  0  0  0
  -26.8935  -14.7487   20.9867 C   0  0  0  0  0  0  0  0  0  0  0  0
  -30.4093  -23.4518   18.7022 C   0  0  0  0  0  0  0  0  0  0  0  0
  -30.3732  -22.1130   20.6159 C   0  0  0  0  0  0  0  0  0  0  0  0
  -28.4135  -16.3366   20.9292 C   0  0  0  0  0  0  0  0  0  0  0  0
  -29.0667  -21.6215   18.8219 C   0  0  0  0  0  0  0  0  0  0  0  0
  -28.2242  -15.0338   18.8042 C   0  0  0  0  0  0  0  0  0  0  0  0
  -21.9245  -27.3994   21.9268 C   0  0  0  0  0  0  0  0  0  0  0  0
  -24.8166  -28.8684   21.9333 C   0  0  0  0  0  0  0  0  0  0  0  0
  -28.1963  -28.6138   21.5340 C   0  0  0  0  0  0  0  0  0  0  0  0
  -27.8834  -20.5804   24.5145 C   0  0  0  0  0  0  0  0  0  0  0  0
  -19.0167  -31.5846   21.6314 C   0  0  0  0  0  0  0  0  0  0  0  0
  -23.2466  -25.9009   23.4638 C   0  0  0  0  0  0  0  0  0  0  0  0
  -24.7410  -26.5294   20.9906 C   0  0  0  0  0  0  0  0  0  0  0  0
  -20.2778  -31.0799   20.9347 C   0  0  0  0  0  0  0  0  0  0  0  0
  -27.9586  -17.2913   25.8757 C   0  0  0  0  0  0  0  0  0  0  0  0
  -20.0853  -29.6441   20.4568 C   0  0  0  0  0  0  0  0  0  0  0  0
  -27.7617  -16.3869   24.6579 C   0  0  0  0  0  0  0  0  0  0  0  0
  -27.1390  -18.5750   25.7637 C   0  0  0  0  0  0  0  0  0  0  0  0
  -27.1562  -18.4355   23.3032 C   0  0  0  0  0  0  0  0  0  0  0  0
  -19.8235  -28.7004   21.6367 C   0  0  1  0  0  0  0  0  0  0  0  0
  -23.1469  -27.2661   22.7902 C   0  0  1  0  0  0  0  0  0  0  0  0
  -28.0060  -17.1539   23.3444 C   0  0  2  0  0  0  0  0  0  0  0  0
  -30.2519  -25.9289   18.3471 C   0  0  0  0  0  0  0  0  0  0  0  0
  -30.2928  -29.9927   21.5632 C   0  0  0  0  0  0  0  0  0  0  0  0
  -24.1099  -29.9967   19.1878 C   0  0  0  0  0  0  0  0  0  0  0  0
  -26.5316  -30.5448   18.8668 C   0  0  0  0  0  0  0  0  0  0  0  0
  -25.2475  -31.6140   20.7190 C   0  0  0  0  0  0  0  0  0  0  0  0
  -29.3334  -27.0479   23.7731 C   0  0  0  0  0  0  0  0  0  0  0  0
  -30.8860  -24.6166   17.8967 C   0  0  0  0  0  0  0  0  0  0  0  0
  -30.8087  -21.7475   21.9977 C   0  0  0  0  0  0  0  0  0  0  0  0
  -28.0425  -20.7240   18.1746 C   0  0  0  0  0  0  0  0  0  0  0  0
  -30.1426  -22.5747   23.1134 C   0  0  0  0  0  0  0  0  0  0  0  0
  -26.7352  -20.6130   18.9622 C   0  0  0  0  0  0  0  0  0  0  0  0
  -28.6172  -22.5018   23.1256 C   0  0  0  0  0  0  0  0  0  0  0  0
  -26.0727  -21.9602   19.2254 C   0  0  0  0  0  0  0  0  0  1  0  0
  -25.8657  -29.1684   20.8900 C   0  0  1  0  0  0  0  0  0  0  0  0
  -29.3514  -29.1202   22.3788 C   0  0  2  0  0  0  0  0  0  0  0  0
  -25.4305  -30.3043   19.9216 C   0  0  0  0  0  0  0  0  0  0  0  0
  -26.8344  -15.3123   22.1961 N   0  0  0  0  0  0  0  0  0  0  0  0
  -29.4938  -22.6702   18.0930 N   0  0  0  0  0  0  0  0  0  0  0  0
  -29.4564  -21.2890   20.0674 N   0  0  0  0  0  0  0  0  0  0  0  0
  -27.7705  -16.2743   22.1304 N   0  0  0  0  0  0  0  0  0  0  0  0
  -24.3031  -27.5638   21.9423 N   0  0  0  0  0  0  0  0  0  0  0  0
  -27.4183  -19.2552   24.4967 N   0  0  0  0  0  0  0  0  0  0  0  0
  -29.3828  -17.2459   20.6926 N   0  0  0  0  0  0  0  0  0  0  0  0
  -27.5550  -13.9862   18.1569 N   0  0  0  0  0  0  0  0  0  0  0  0
  -21.0592  -28.3996   22.3273 N   0  0  0  0  0  0  0  0  0  0  0  0
  -27.0990  -29.4444   21.6188 N   0  0  0  0  0  0  0  0  0  0  0  0
  -28.1294  -21.1483   23.2704 N   0  0  0  0  0  0  0  0  0  0  0  0
  -30.1307  -27.9757   22.9301 N   0  3  0  0  0  0  0  0  0  0  0  0
  -29.1281  -15.6543   18.1948 O   0  0  0  0  0  0  0  0  0  0  0  0
  -21.7779  -26.6513   20.9674 O   0  0  0  0  0  0  0  0  0  0  0  0
  -24.4709  -29.7568   22.7162 O   0  0  0  0  0  0  0  0  0  0  0  0
  -28.2623  -27.5864   20.8627 O   0  0  0  0  0  0  0  0  0  0  0  0
  -28.0711  -21.2090   25.5616 O   0  0  0  0  0  0  0  0  0  0  0  0
  -23.5076  -10.4864   19.7078 O   0  0  0  0  0  0  0  0  0  0  0  0
  -24.8794  -21.7447   19.9778 O   0  0  0  0  0  0  0  0  0  1  0  0
  -22.9341   -6.4555   23.4263 F   0  0  0  0  0  0  0  0  0  0  0  0
  -22.5255  -11.0188   22.2365 F   0  0  0  0  0  0  0  0  0  0  0  0
  -32.0584  -24.2433   20.7126 Cl  0  0  0  0  0  0  0  0  0  0  0  0
  1  2  1  0  0  0  0
  1  5  2  0  0  0  0
  2  6  2  0  0  0  0
  3  8  2  0  0  0  0
  3 15  1  0  0  0  0
  4  9  1  0  0  0  0
  4 15  2  0  0  0  0
  5 17  1  0  0  0  0
  6 19  1  0  0  0  0
  7 10  2  0  0  0  0
  7 18  1  0  0  0  0
  8 21  1  0  0  0  0
  9 21  2  0  0  0  0
 10 22  1  0  0  0  0
 11 12  2  0  0  0  0
 11 23  1  0  0  0  0
 12 24  1  0  0  0  0
 13 20  1  0  0  0  0
 13 22  2  0  0  0  0
 14 24  2  0  0  0  0
 14 25  1  0  0  0  0
 15 27  1  0  0  0  0
 16 27  1  0  0  0  0
 16 30  2  0  0  0  0
 16 32  1  0  0  0  0
 17 19  2  0  0  0  0
 17 37  1  0  0  0  0
 18 20  2  0  0  0  0
 18 38  1  0  0  0  0
 19 46  1  0  0  0  0
 20 39  1  0  0  0  0
 21 82  1  0  0  0  0
 22 83  1  0  0  0  0
 23 25  2  0  0  0  0
 23 82  1  0  0  0  0
 24 84  1  0  0  0  0
 25 85  1  0  0  0  0
 26 28  2  0  0  0  0
 26 29  1  0  0  0  0
 26 86  1  0  0  0  0
 27 65  2  0  0  0  0
 28 55  1  0  0  0  0
 28 66  1  0  0  0  0
 29 56  1  0  0  0  0
 29 67  2  0  0  0  0
 30 68  1  0  0  0  0
 30 71  1  0  0  0  0
 31 57  1  0  0  0  0
 31 66  2  0  0  0  0
 31 67  1  0  0  0  0
 32 72  1  0  0  0  0
 32 77  2  0  0  0  0
 33 47  1  0  0  0  0
 33 73  1  0  0  0  0
 33 78  2  0  0  0  0
 34 62  1  0  0  0  0
 34 69  1  0  0  0  0
 34 79  2  0  0  0  0
 35 63  1  0  0  0  0
 35 74  1  0  0  0  0
 35 80  2  0  0  0  0
 36 70  1  0  0  0  0
 36 75  1  0  0  0  0
 36 81  2  0  0  0  0
 37 40  1  0  0  0  0
 38 47  1  0  0  0  0
 39 69  1  0  0  0  0
 40 42  1  0  0  0  0
 41 43  1  0  0  0  0
 41 44  1  0  0  0  0
 42 46  1  0  0  0  0
 43 48  1  0  0  0  0
 44 70  1  0  0  0  0
 45 48  1  0  0  0  0
 45 70  1  0  0  0  0
 46 73  1  0  0  0  0
 47 69  1  0  0  0  0
 48 68  1  0  0  0  0
 49 55  1  0  0  0  0
 50 63  1  0  0  0  0
 51 64  1  0  0  0  0
 52 64  1  0  0  0  0
 53 64  1  0  0  0  0
 54 76  1  0  0  0  0
 56 58  1  0  0  0  0
 57 59  1  0  0  0  0
 58 60  1  0  0  0  0
 59 61  1  0  0  0  0
 60 75  1  0  0  0  0
 61 83  1  0  0  0  0
 62 64  1  0  0  0  0
 62 74  1  0  0  0  0
 63 76  1  0  0  0  0
 65 68  1  0  0  0  0
M  CHG  1  76   1
M  ISO  4  36 100  61 101  75 100  83 101
M  END
> <Batch ID>
0026

> <Smiles>
CCc1nc(CC[101CH2:1][101O:1]c2ccc3c(c2)CN(C(=O)C(NC(=O)C(C)NC)C(C)(C)C)C(C(=O)NC2CCCc4ccccc42)C3)nc(CCC[100NH:0][100C:0](=O)N2CCCC(n3nc(-c4ccc(Oc5ccc(F)cc5F)cc4)c(C(N)=O)c3N)C2)c1Cl

> <Shape>
0.239

> <Color>
0.076

> <Negative vol penalty>
0.000

$$$$

  -OEChem-04052316273D

 85 93  0     1  0  0  0  0  0999 V2000
  -27.8564  -24.4423   17.3195 C   0  0  0  0  0  0  0  0  0  0  0  0
  -26.8045  -25.3298   17.5163 C   0  0  0  0  0  0  0  0  0  0  0  0
  -24.5318  -11.8697   19.5654 C   0  0  0  0  0  0  0  0  0  0  0  0
  -25.5882  -12.0967   21.7263 C   0  0  0  0  0  0  0  0  0  0  0  0
  -28.8637  -24.3383   18.2764 C   0  0  0  0  0  0  0  0  0  0  0  0
  -26.7657  -26.1221   18.6642 C   0  0  0  0  0  0  0  0  0  0  0  0
  -23.2448  -29.5504   18.8956 C   0  0  0  0  0  0  0  0  0  0  0  0
  -24.9551  -10.5423   19.4979 C   0  0  0  0  0  0  0  0  0  0  0  0
  -26.0115  -10.7693   21.6589 C   0  0  0  0  0  0  0  0  0  0  0  0
  -21.9002  -29.2379   19.0906 C   0  0  0  0  0  0  0  0  0  0  0  0
  -24.6739   -7.7028   22.1366 C   0  0  0  0  0  0  0  0  0  0  0  0
  -24.5114   -6.9137   23.2752 C   0  0  0  0  0  0  0  0  0  0  0  0
  -22.0785  -29.9341   21.3933 C   0  0  0  0  0  0  0  0  0  0  0  0
  -23.8753  -23.6862   21.8036 C   0  0  0  0  0  0  0  0  0  0  0  0
  -21.3059  -22.6735   22.1979 C   0  0  0  0  0  0  0  0  0  0  0  0
  -26.8975   -6.5441   23.3595 C   0  0  0  0  0  0  0  0  0  0  0  0
  -24.8485  -12.6469   20.6796 C   0  0  0  0  0  0  0  0  0  0  0  0
  -23.2044  -14.4995   21.2897 C   0  0  0  0  0  0  0  0  0  0  0  0
  -28.8300  -25.1210   19.4422 C   0  0  0  0  0  0  0  0  0  0  0  0
  -24.0205  -30.0477   19.9527 C   0  0  0  0  0  0  0  0  0  0  0  0
  -27.7854  -26.0489   19.6302 C   0  0  0  0  0  0  0  0  0  0  0  0
  -23.4321  -30.2546   21.2085 C   0  0  0  0  0  0  0  0  0  0  0  0
  -22.7770  -24.3292   21.2328 C   0  0  0  0  0  0  0  0  0  0  0  0
  -22.4042  -22.0304   22.7688 C   0  0  0  0  0  0  0  0  0  0  0  0
  -23.6889  -22.5367   22.5716 C   0  0  0  0  0  0  0  0  0  0  0  0
  -21.4923  -23.8229   21.4299 C   0  0  0  0  0  0  0  0  0  0  0  0
  -25.6949   -9.9921   20.5446 C   0  0  0  0  0  0  0  0  0  0  0  0
  -21.3175  -29.4270   20.3403 C   0  0  0  0  0  0  0  0  0  0  0  0
  -25.9481   -7.9125   21.6093 C   0  0  0  0  0  0  0  0  0  0  0  0
  -25.6233   -6.3344   23.8867 C   0  0  0  0  0  0  0  0  0  0  0  0
  -27.0599   -7.3332   22.2208 C   0  0  0  0  0  0  0  0  0  0  0  0
  -24.4120  -14.0183   20.7496 C   0  0  0  0  0  0  0  0  0  0  0  0
  -23.2688  -15.8605   21.1162 C   0  0  0  0  0  0  0  0  0  0  0  0
  -22.1211  -13.7806   21.8943 C   0  0  0  0  0  0  0  0  0  0  0  0
  -26.6051  -29.0412   21.5053 C   0  0  0  0  0  0  0  0  0  0  0  0
  -26.3949  -31.9424   22.9410 C   0  0  0  0  0  0  0  0  0  0  0  0
  -24.4455  -34.5949   23.8415 C   0  0  0  0  0  0  0  0  0  0  0  0
  -26.0888  -20.6700   21.3639 C   0  0  0  0  0  0  0  0  0  0  0  0
  -29.9504  -24.9738   20.4414 C   0  0  0  0  0  0  0  0  0  0  0  0
  -25.4627  -30.4051   19.7190 C   0  0  0  0  0  0  0  0  0  0  0  0
  -24.2162  -30.8050   22.3706 C   0  0  0  0  0  0  0  0  0  0  0  0
  -29.5942  -25.5227   21.8191 C   0  0  0  0  0  0  0  0  0  0  0  0
  -26.4929  -18.6883   18.4337 C   0  0  0  0  0  0  0  0  0  0  0  0
  -29.0142  -26.9229   21.6867 C   0  0  0  0  0  0  0  0  0  0  0  0
  -25.8939  -17.3353   18.8217 C   0  0  0  0  0  0  0  0  0  0  0  0
  -27.2210  -19.3404   19.6070 C   0  0  0  0  0  0  0  0  0  0  0  0
  -25.8197  -18.1196   21.2255 C   0  0  0  0  0  0  0  0  0  0  0  0
  -27.7062  -26.8987   20.8856 C   0  0  1  0  0  0  0  0  0  0  0  0
  -26.2896  -30.4210   21.0010 C   0  0  1  0  0  0  0  0  0  0  0  0
  -25.0273  -17.4488   20.0904 C   0  0  2  0  0  0  0  0  0  0  0  0
  -23.0010  -25.5587   20.4150 C   0  0  0  0  0  0  0  0  0  0  0  0
  -22.1803  -20.8009   23.5864 C   0  0  0  0  0  0  0  0  0  0  0  0
  -24.5477  -36.7982   25.0383 C   0  0  0  0  0  0  0  0  0  0  0  0
  -26.4550  -30.4819   25.6193 C   0  0  0  0  0  0  0  0  0  0  0  0
  -25.6119  -32.5764   26.7013 C   0  0  0  0  0  0  0  0  0  0  0  0
  -27.8206  -32.5756   25.5419 C   0  0  0  0  0  0  0  0  0  0  0  0
  -23.6313  -36.0821   21.4157 C   0  0  0  0  0  0  0  0  0  0  0  0
  -24.8799  -21.8649   23.1722 C   0  0  0  0  0  0  0  0  0  0  0  0
  -20.2960  -24.4977   20.8263 C   0  0  0  0  0  0  0  0  0  0  0  0
  -18.4520  -27.7322   21.7202 C   0  0  0  0  0  0  0  0  0  0  0  0
  -18.7757  -26.4772   20.9238 C   0  0  0  0  0  0  0  0  0  0  0  0
  -19.6225  -28.7001   21.8418 C   0  0  0  0  0  0  0  0  0  1  0  0
  -25.6999  -32.4798   24.1687 C   0  0  1  0  0  0  0  0  0  0  0  0
  -24.6515  -36.0918   23.6956 C   0  0  2  0  0  0  0  0  0  0  0  0
  -26.3823  -32.0162   25.4866 C   0  0  0  0  0  0  0  0  0  0  0  0
  -25.1870  -14.9942   20.2688 N   0  0  0  0  0  0  0  0  0  0  0  0
  -24.4645  -16.1022   20.5061 N   0  0  0  0  0  0  0  0  0  0  0  0
  -25.6245  -31.1333   22.0938 N   0  0  0  0  0  0  0  0  0  0  0  0
  -26.3438  -19.4194   20.7775 N   0  0  0  0  0  0  0  0  0  0  0  0
  -22.4188  -16.8620   21.4273 N   0  0  0  0  0  0  0  0  0  0  0  0
  -22.2175  -12.3859   21.9929 N   0  0  0  0  0  0  0  0  0  0  0  0
  -27.3001  -28.2579   20.6037 N   0  0  0  0  0  0  0  0  0  0  0  0
  -25.6415  -33.9281   24.0035 N   0  0  0  0  0  0  0  0  0  0  0  0
  -25.2418  -20.6565   22.4653 N   0  0  0  0  0  0  0  0  0  0  0  0
  -23.6266  -36.6690   22.7804 N   0  3  0  0  0  0  0  0  0  0  0  0
  -19.9152  -25.7519   21.5330 N   0  3  0  0  0  0  0  0  0  0  0  0
  -21.0909  -14.3564   22.3192 O   0  0  0  0  0  0  0  0  0  0  0  0
  -26.2458  -28.7121   22.6297 O   0  0  0  0  0  0  0  0  0  0  0  0
  -27.5756  -32.2356   22.7374 O   0  0  0  0  0  0  0  0  0  0  0  0
  -23.3344  -34.0700   23.8180 O   0  0  0  0  0  0  0  0  0  0  0  0
  -26.5754  -21.7215   20.9342 O   0  0  0  0  0  0  0  0  0  0  0  0
  -26.1078   -8.6968   20.4792 O   0  0  0  0  0  0  0  0  0  0  0  0
  -20.0054  -29.1221   20.5335 O   0  0  0  0  0  0  0  0  0  1  0  0
  -25.4673   -5.5780   24.9811 F   0  0  0  0  0  0  0  0  0  0  0  0
  -28.2867   -7.5320   21.7195 F   0  0  0  0  0  0  0  0  0  0  0  0
  1  2  1  0  0  0  0
  1  5  2  0  0  0  0
  2  6  2  0  0  0  0
  3  8  2  0  0  0  0
  3 17  1  0  0  0  0
  4  9  1  0  0  0  0
  4 17  2  0  0  0  0
  5 19  1  0  0  0  0
  6 21  1  0  0  0  0
  7 10  2  0  0  0  0
  7 20  1  0  0  0  0
  8 27  1  0  0  0  0
  9 27  2  0  0  0  0
 10 28  1  0  0  0  0
 11 12  2  0  0  0  0
 11 29  1  0  0  0  0
 12 30  1  0  0  0  0
 13 22  1  0  0  0  0
 13 28  2  0  0  0  0
 14 23  1  0  0  0  0
 14 25  2  0  0  0  0
 15 24  2  0  0  0  0
 15 26  1  0  0  0  0
 16 30  2  0  0  0  0
 16 31  1  0  0  0  0
 17 32  1  0  0  0  0
 18 32  1  0  0  0  0
 18 33  2  0  0  0  0
 18 34  1  0  0  0  0
 19 21  2  0  0  0  0
 19 39  1  0  0  0  0
 20 22  2  0  0  0  0
 20 40  1  0  0  0  0
 21 48  1  0  0  0  0
 22 41  1  0  0  0  0
 23 26  2  0  0  0  0
 23 51  1  0  0  0  0
 24 25  1  0  0  0  0
 24 52  1  0  0  0  0
 25 58  1  0  0  0  0
 26 59  1  0  0  0  0
 27 82  1  0  0  0  0
 28 83  1  0  0  0  0
 29 31  2  0  0  0  0
 29 82  1  0  0  0  0
 30 84  1  0  0  0  0
 31 85  1  0  0  0  0
 32 66  2  0  0  0  0
 33 67  1  0  0  0  0
 33 70  1  0  0  0  0
 34 71  1  0  0  0  0
 34 77  2  0  0  0  0
 35 49  1  0  0  0  0
 35 72  1  0  0  0  0
 35 78  2  0  0  0  0
 36 63  1  0  0  0  0
 36 68  1  0  0  0  0
 36 79  2  0  0  0  0
 37 64  1  0  0  0  0
 37 73  1  0  0  0  0
 37 80  2  0  0  0  0
 38 69  1  0  0  0  0
 38 74  1  0  0  0  0
 38 81  2  0  0  0  0
 39 42  1  0  0  0  0
 40 49  1  0  0  0  0
 41 68  1  0  0  0  0
 42 44  1  0  0  0  0
 43 45  1  0  0  0  0
 43 46  1  0  0  0  0
 44 48  1  0  0  0  0
 45 50  1  0  0  0  0
 46 69  1  0  0  0  0
 47 50  1  0  0  0  0
 47 69  1  0  0  0  0
 48 72  1  0  0  0  0
 49 68  1  0  0  0  0
 50 67  1  0  0  0  0
 53 64  1  0  0  0  0
 54 65  1  0  0  0  0
 55 65  1  0  0  0  0
 56 65  1  0  0  0  0
 57 75  1  0  0  0  0
 58 74  1  0  0  0  0
 59 76  1  0  0  0  0
 60 61  1  0  0  0  0
 60 62  1  0  0  0  0
 61 76  1  0  0  0  0
 62 83  1  0  0  0  0
 63 65  1  0  0  0  0
 63 73  1  0  0  0  0
 64 75  1  0  0  0  0
 66 67  1  0  0  0  0
M  CHG  2  75   1  76   1
M  ISO  4  38 100  62 101  74 100  83 101
M  END
> <Batch ID>
0026

> <Smiles>
CNC(C)C(=O)NC(C(=O)N1Cc2cc([101O:1][101CH2:1]CCNCc3cc(C)c(C[100NH:0][100C:0](=O)N4CCCC(n5nc(-c6ccc(Oc7ccc(F)cc7F)cc6)c(C(N)=O)c5N)C4)cc3C)ccc2CC1C(=O)NC1CCCc2ccccc21)C(C)(C)C

> <Shape>
0.271

> <Color>
0.085

> <Negative vol penalty>
0.000

$$$$

  -OEChem-04052316273D

 85 93  0     1  0  0  0  0  0999 V2000
  -21.6655  -11.7122   20.2014 C   0  0  0  0  0  0  0  0  0  0  0  0
  -21.6539  -12.6785   21.2022 C   0  0  0  0  0  0  0  0  0  0  0  0
  -21.4909  -25.4393   18.1107 C   0  0  0  0  0  0  0  0  0  0  0  0
  -22.6064  -24.1849   19.8483 C   0  0  0  0  0  0  0  0  0  0  0  0
  -22.8617  -11.3836   19.5650 C   0  0  0  0  0  0  0  0  0  0  0  0
  -22.8389  -13.3160   21.5679 C   0  0  0  0  0  0  0  0  0  0  0  0
  -23.4848  -19.1327   23.3720 C   0  0  0  0  0  0  0  0  0  0  0  0
  -21.4240  -24.2897   17.3237 C   0  0  0  0  0  0  0  0  0  0  0  0
  -22.5395  -23.0352   19.0612 C   0  0  0  0  0  0  0  0  0  0  0  0
  -23.5893  -19.7175   24.6333 C   0  0  0  0  0  0  0  0  0  0  0  0
  -24.1989  -21.7207   16.4251 C   0  0  0  0  0  0  0  0  0  0  0  0
  -25.3452  -20.9314   16.3320 C   0  0  0  0  0  0  0  0  0  0  0  0
  -25.9934  -19.7030   24.4342 C   0  0  0  0  0  0  0  0  0  0  0  0
  -28.4902  -27.0670   25.3800 C   0  0  0  0  0  0  0  0  0  0  0  0
  -29.6627  -25.0314   24.8156 C   0  0  0  0  0  0  0  0  0  0  0  0
  -24.1343  -19.0625   17.2691 C   0  0  0  0  0  0  0  0  0  0  0  0
  -22.0822  -25.3869   19.3730 C   0  0  0  0  0  0  0  0  0  0  0  0
  -21.1994  -27.0216   21.1212 C   0  0  0  0  0  0  0  0  0  0  0  0
  -24.0603  -12.0243   19.9164 C   0  0  0  0  0  0  0  0  0  0  0  0
  -24.6361  -18.8181   22.6357 C   0  0  0  0  0  0  0  0  0  0  0  0
  -24.0526  -12.9947   20.9366 C   0  0  0  0  0  0  0  0  0  0  0  0
  -25.9007  -19.1166   23.1627 C   0  0  0  0  0  0  0  0  0  0  0  0
  -28.8513  -25.7556   25.6890 C   0  0  0  0  0  0  0  0  0  0  0  0
  -28.9404  -27.6541   24.1974 C   0  0  0  0  0  0  0  0  0  0  0  0
  -21.9483  -23.0877   17.7989 C   0  0  0  0  0  0  0  0  0  0  0  0
  -24.8438  -20.0001   25.1658 C   0  0  0  0  0  0  0  0  0  0  0  0
  -23.0203  -21.1809   16.9402 C   0  0  0  0  0  0  0  0  0  0  0  0
  -25.3129  -19.6023   16.7540 C   0  0  0  0  0  0  0  0  0  0  0  0
  -22.9881  -19.8518   17.3622 C   0  0  0  0  0  0  0  0  0  0  0  0
  -30.1129  -25.6185   23.6331 C   0  0  0  0  0  0  0  0  0  0  0  0
  -29.7517  -26.9299   23.3240 C   0  0  0  0  0  0  0  0  0  0  0  0
  -22.1521  -26.5743   20.1863 C   0  0  0  0  0  0  0  0  0  0  0  0
  -21.7299  -28.1854   21.6220 C   0  0  0  0  0  0  0  0  0  0  0  0
  -19.9469  -26.4374   21.5029 C   0  0  0  0  0  0  0  0  0  0  0  0
  -25.9139  -16.1351   21.5078 C   0  0  0  0  0  0  0  0  0  0  0  0
  -28.0107  -18.1799   20.1133 C   0  0  0  0  0  0  0  0  0  0  0  0
  -29.5166  -21.2424   20.1288 C   0  0  0  0  0  0  0  0  0  0  0  0
  -27.3332  -30.2446   22.0840 C   0  0  0  0  0  0  0  0  0  0  0  0
  -25.3367  -11.6019   19.2331 C   0  0  0  0  0  0  0  0  0  0  0  0
  -24.5056  -18.2121   21.2652 C   0  0  0  0  0  0  0  0  0  0  0  0
  -27.1668  -18.8172   22.4040 C   0  0  0  0  0  0  0  0  0  0  0  0
  -26.4839  -12.5915   19.4197 C   0  0  0  0  0  0  0  0  0  0  0  0
  -24.6069  -31.8126   20.4150 C   0  0  0  0  0  0  0  0  0  0  0  0
  -26.5907  -13.0156   20.8811 C   0  0  0  0  0  0  0  0  0  0  0  0
  -23.5826  -30.6882   20.2515 C   0  0  0  0  0  0  0  0  0  0  0  0
  -26.0369  -31.3008   20.2563 C   0  0  0  0  0  0  0  0  0  0  0  0
  -25.3630  -29.0378   20.9622 C   0  0  0  0  0  0  0  0  0  0  0  0
  -25.3131  -13.7261   21.3441 C   0  0  1  0  0  0  0  0  0  0  0  0
  -25.7583  -17.4627   20.8216 C   0  0  1  0  0  0  0  0  0  0  0  0
  -23.9088  -29.4947   21.1693 C   0  0  2  0  0  0  0  0  0  0  0  0
  -31.2139  -22.6093   18.8847 C   0  0  0  0  0  0  0  0  0  0  0  0
  -30.2538  -16.5547   21.3928 C   0  0  0  0  0  0  0  0  0  0  0  0
  -31.8071  -18.4621   20.9269 C   0  0  0  0  0  0  0  0  0  0  0  0
  -30.6966  -17.2703   19.0377 C   0  0  0  0  0  0  0  0  0  0  0  0
  -27.5201  -23.3206   19.4552 C   0  0  0  0  0  0  0  0  0  0  0  0
  -28.5259  -29.0621   23.9111 C   0  0  0  0  0  0  0  0  0  0  0  0
  -28.3675  -25.1247   26.9613 C   0  0  0  0  0  0  0  0  0  0  0  0
  -25.6958  -22.4709   27.6548 C   0  0  0  0  0  0  0  0  0  0  0  0
  -26.8182  -23.4472   27.9735 C   0  0  0  0  0  0  0  0  0  0  0  0
  -26.0782  -21.4106   26.6295 C   0  0  0  0  0  0  0  0  0  1  0  0
  -29.3277  -18.7990   20.5146 C   0  0  1  0  0  0  0  0  0  0  0  0
  -29.7404  -22.2604   19.0252 C   0  0  2  0  0  0  0  0  0  0  0  0
  -30.4977  -17.7755   20.4834 C   0  0  0  0  0  0  0  0  0  0  0  0
  -23.2077  -27.3876   20.0965 N   0  0  0  0  0  0  0  0  0  0  0  0
  -22.9215  -28.3578   20.9813 N   0  0  0  0  0  0  0  0  0  0  0  0
  -26.9872  -18.2188   21.0708 N   0  0  0  0  0  0  0  0  0  0  0  0
  -26.2819  -30.1705   21.1553 N   0  0  0  0  0  0  0  0  0  0  0  0
  -21.2886  -29.0678   22.5434 N   0  0  0  0  0  0  0  0  0  0  0  0
  -19.5537  -25.2400   20.8898 N   0  0  0  0  0  0  0  0  0  0  0  0
  -25.2880  -15.0888   20.8574 N   0  0  0  0  0  0  0  0  0  0  0  0
  -29.5193  -19.9524   19.6419 N   0  0  0  0  0  0  0  0  0  0  0  0
  -27.4925  -29.1329   22.9022 N   0  0  0  0  0  0  0  0  0  0  0  0
  -28.9865  -23.5128   19.3151 N   0  3  0  0  0  0  0  0  0  0  0  0
  -27.2757  -24.1357   26.7437 N   0  3  0  0  0  0  0  0  0  0  0  0
  -19.1909  -26.9703   22.3503 O   0  0  0  0  0  0  0  0  0  0  0  0
  -26.5557  -16.0649   22.5494 O   0  0  0  0  0  0  0  0  0  0  0  0
  -27.8921  -17.6865   18.9890 O   0  0  0  0  0  0  0  0  0  0  0  0
  -29.3590  -21.5596   21.3057 O   0  0  0  0  0  0  0  0  0  0  0  0
  -28.0715  -31.2307   22.1806 O   0  0  0  0  0  0  0  0  0  0  0  0
  -21.8829  -21.9656   17.0312 O   0  0  0  0  0  0  0  0  0  0  0  0
  -24.9486  -20.5702   26.3970 O   0  0  0  0  0  0  0  0  0  1  0  0
  -26.4133  -18.8440   16.6631 F   0  0  0  0  0  0  0  0  0  0  0  0
  -21.8584  -19.3274   17.8568 F   0  0  0  0  0  0  0  0  0  0  0  0
  -31.1155  -24.6638   22.5962 Cl  0  0  0  0  0  0  0  0  0  0  0  0
  -30.2970  -27.6820   21.8585 Cl  0  0  0  0  0  0  0  0  0  0  0  0
  1  2  1  0  0  0  0
  1  5  2  0  0  0  0
  2  6  2  0  0  0  0
  3  8  2  0  0  0  0
  3 17  1  0  0  0  0
  4  9  1  0  0  0  0
  4 17  2  0  0  0  0
  5 19  1  0  0  0  0
  6 21  1  0  0  0  0
  7 10  2  0  0  0  0
  7 20  1  0  0  0  0
  8 25  1  0  0  0  0
  9 25  2  0  0  0  0
 10 26  1  0  0  0  0
 11 12  2  0  0  0  0
 11 27  1  0  0  0  0
 12 28  1  0  0  0  0
 13 22  1  0  0  0  0
 13 26  2  0  0  0  0
 14 23  2  0  0  0  0
 14 24  1  0  0  0  0
 15 23  1  0  0  0  0
 15 30  2  0  0  0  0
 16 28  2  0  0  0  0
 16 29  1  0  0  0  0
 17 32  1  0  0  0  0
 18 32  1  0  0  0  0
 18 33  2  0  0  0  0
 18 34  1  0  0  0  0
 19 21  2  0  0  0  0
 19 39  1  0  0  0  0
 20 22  2  0  0  0  0
 20 40  1  0  0  0  0
 21 48  1  0  0  0  0
 22 41  1  0  0  0  0
 23 57  1  0  0  0  0
 24 31  2  0  0  0  0
 24 56  1  0  0  0  0
 25 80  1  0  0  0  0
 26 81  1  0  0  0  0
 27 29  2  0  0  0  0
 27 80  1  0  0  0  0
 28 82  1  0  0  0  0
 29 83  1  0  0  0  0
 30 31  1  0  0  0  0
 30 84  1  0  0  0  0
 31 85  1  0  0  0  0
 32 64  2  0  0  0  0
 33 65  1  0  0  0  0
 33 68  1  0  0  0  0
 34 69  1  0  0  0  0
 34 75  2  0  0  0  0
 35 49  1  0  0  0  0
 35 70  1  0  0  0  0
 35 76  2  0  0  0  0
 36 61  1  0  0  0  0
 36 66  1  0  0  0  0
 36 77  2  0  0  0  0
 37 62  1  0  0  0  0
 37 71  1  0  0  0  0
 37 78  2  0  0  0  0
 38 67  1  0  0  0  0
 38 72  1  0  0  0  0
 38 79  2  0  0  0  0
 39 42  1  0  0  0  0
 40 49  1  0  0  0  0
 41 66  1  0  0  0  0
 42 44  1  0  0  0  0
 43 45  1  0  0  0  0
 43 46  1  0  0  0  0
 44 48  1  0  0  0  0
 45 50  1  0  0  0  0
 46 67  1  0  0  0  0
 47 50  1  0  0  0  0
 47 67  1  0  0  0  0
 48 70  1  0  0  0  0
 49 66  1  0  0  0  0
 50 65  1  0  0  0  0
 51 62  1  0  0  0  0
 52 63  1  0  0  0  0
 53 63  1  0  0  0  0
 54 63  1  0  0  0  0
 55 73  1  0  0  0  0
 56 72  1  0  0  0  0
 57 74  1  0  0  0  0
 58 59  1  0  0  0  0
 58 60  1  0  0  0  0
 59 74  1  0  0  0  0
 60 81  1  0  0  0  0
 61 63  1  0  0  0  0
 61 71  1  0  0  0  0
 62 73  1  0  0  0  0
 64 65  1  0  0  0  0
M  CHG  2  73   1  74   1
M  ISO  4  38 100  60 101  72 100  81 101
M  END
> <Batch ID>
0026

> <Smiles>
CNC(C)C(=O)NC(C(=O)N1Cc2cc([101O:1][101CH2:1]CCNCc3cc(Cl)c(Cl)c(C[100NH:0][100C:0](=O)N4CCCC(n5nc(-c6ccc(Oc7ccc(F)cc7F)cc6)c(C(N)=O)c5N)C4)c3)ccc2CC1C(=O)NC1CCCc2ccccc21)C(C)(C)C

> <Shape>
0.205

> <Color>
0.065

> <Negative vol penalty>
0.000

$$$$

  -OEChem-04052316273D

 87 95  0     1  0  0  0  0  0999 V2000
  -34.4637  -28.2188   18.1042 C   0  0  0  0  0  0  0  0  0  0  0  0
  -33.0841  -28.2533   18.2803 C   0  0  0  0  0  0  0  0  0  0  0  0
  -23.8547  -14.7728   18.9423 C   0  0  0  0  0  0  0  0  0  0  0  0
  -23.2752  -14.7501   21.2877 C   0  0  0  0  0  0  0  0  0  0  0  0
  -35.0898  -27.0260   17.7447 C   0  0  0  0  0  0  0  0  0  0  0  0
  -32.3297  -27.0951   18.0958 C   0  0  0  0  0  0  0  0  0  0  0  0
  -28.8975  -26.4090   21.7557 C   0  0  0  0  0  0  0  0  0  0  0  0
  -24.8207  -13.7932   19.1715 C   0  0  0  0  0  0  0  0  0  0  0  0
  -24.2412  -13.7704   21.5169 C   0  0  0  0  0  0  0  0  0  0  0  0
  -27.7319  -27.1707   21.6864 C   0  0  0  0  0  0  0  0  0  0  0  0
  -27.6872  -11.5558   19.2038 C   0  0  0  0  0  0  0  0  0  0  0  0
  -28.9400  -11.7281   18.6152 C   0  0  0  0  0  0  0  0  0  0  0  0
  -26.5616  -25.2831   20.7448 C   0  0  0  0  0  0  0  0  0  0  0  0
  -18.7497  -26.0717   23.5250 C   0  0  0  0  0  0  0  0  0  0  0  0
  -29.2187  -13.8057   19.8165 C   0  0  0  0  0  0  0  0  0  0  0  0
  -23.0819  -15.2514   20.0004 C   0  0  0  0  0  0  0  0  0  0  0  0
  -20.7319  -16.0627   19.4286 C   0  0  0  0  0  0  0  0  0  0  0  0
  -34.3438  -25.8505   17.5652 C   0  0  0  0  0  0  0  0  0  0  0  0
  -28.9067  -25.0797   21.3092 C   0  0  0  0  0  0  0  0  0  0  0  0
  -32.9462  -25.8858   17.7323 C   0  0  0  0  0  0  0  0  0  0  0  0
  -27.7280  -24.5059   20.8119 C   0  0  0  0  0  0  0  0  0  0  0  0
  -19.1161  -27.2545   24.1671 C   0  0  0  0  0  0  0  0  0  0  0  0
  -18.9590  -25.9290   22.1533 C   0  0  0  0  0  0  0  0  0  0  0  0
  -19.9010  -28.1521   22.0658 C   0  0  0  0  0  0  0  0  0  0  0  0
  -25.0140  -13.2919   20.4587 C   0  0  0  0  0  0  0  0  0  0  0  0
  -26.5644  -26.6087   21.1782 C   0  0  0  0  0  0  0  0  0  0  0  0
  -27.2001  -12.5086   20.0986 C   0  0  0  0  0  0  0  0  0  0  0  0
  -29.7058  -12.8530   18.9216 C   0  0  0  0  0  0  0  0  0  0  0  0
  -27.9659  -13.6335   20.4050 C   0  0  0  0  0  0  0  0  0  0  0  0
  -19.6917  -28.2947   23.4375 C   0  0  0  0  0  0  0  0  0  0  0  0
  -19.5347  -26.9692   21.4237 C   0  0  0  0  0  0  0  0  0  0  0  0
  -22.0842  -16.2638   19.7645 C   0  0  0  0  0  0  0  0  0  0  0  0
  -20.2146  -17.3299   19.3139 C   0  0  0  0  0  0  0  0  0  0  0  0
  -20.0082  -14.8399   19.2375 C   0  0  0  0  0  0  0  0  0  0  0  0
  -30.4540  -23.4884   19.0338 C   0  0  0  0  0  0  0  0  0  0  0  0
  -28.9927  -20.9226   20.3769 C   0  0  0  0  0  0  0  0  0  0  0  0
  -26.4010  -19.7092   22.2364 C   0  0  0  0  0  0  0  0  0  0  0  0
  -19.6040  -22.4117   21.2503 C   0  0  0  0  0  0  0  0  0  0  0  0
  -35.0593  -24.5960   17.1305 C   0  0  0  0  0  0  0  0  0  0  0  0
  -30.1655  -24.2632   21.4155 C   0  0  0  0  0  0  0  0  0  0  0  0
  -27.6800  -23.0769   20.3384 C   0  0  0  0  0  0  0  0  0  0  0  0
  -34.2328  -23.3266   17.3202 C   0  0  0  0  0  0  0  0  0  0  0  0
  -22.5202  -21.8309   19.1874 C   0  0  0  0  0  0  0  0  0  0  0  0
  -32.8147  -23.5296   16.7961 C   0  0  0  0  0  0  0  0  0  0  0  0
  -22.5514  -20.3026   19.1281 C   0  0  0  0  0  0  0  0  0  0  0  0
  -22.0760  -22.3218   20.5622 C   0  0  0  0  0  0  0  0  0  0  0  0
  -20.7908  -20.2560   20.9552 C   0  0  0  0  0  0  0  0  0  0  0  0
  -32.0965  -24.6447   17.5655 C   0  0  1  0  0  0  0  0  0  0  0  0
  -30.1918  -23.0780   20.4553 C   0  0  1  0  0  0  0  0  0  0  0  0
  -21.2106  -19.6967   19.5837 C   0  0  2  0  0  0  0  0  0  0  0  0
  -18.8733  -27.3608   25.6387 C   0  0  0  0  0  0  0  0  0  0  0  0
  -25.4551  -17.5653   23.1343 C   0  0  0  0  0  0  0  0  0  0  0  0
  -21.8745  -31.1258   21.0361 C   0  0  0  0  0  0  0  0  0  0  0  0
  -27.9346  -20.2294   17.6003 C   0  0  0  0  0  0  0  0  0  0  0  0
  -26.2784  -18.7001   18.6895 C   0  0  0  0  0  0  0  0  0  0  0  0
  -28.7228  -18.2676   18.9361 C   0  0  0  0  0  0  0  0  0  0  0  0
  -26.6937  -20.6181   25.0377 C   0  0  0  0  0  0  0  0  0  0  0  0
  -18.5504  -24.6433   21.5084 C   0  0  0  0  0  0  0  0  0  0  0  0
  -23.1337  -27.5586   21.8529 C   0  0  0  0  0  0  0  0  0  0  0  0
  -22.8684  -28.8090   21.0028 C   0  0  0  0  0  0  0  0  0  0  0  0
  -24.1871  -26.6511   21.2275 C   0  0  0  0  0  0  0  0  0  1  0  0
  -27.6774  -20.2114   20.1692 C   0  0  1  0  0  0  0  0  0  0  0  0
  -26.3675  -18.7498   23.4123 C   0  0  2  0  0  0  0  0  0  0  0  0
  -21.7915  -29.7165   21.6138 C   0  0  2  0  0  0  0  0  0  0  0  0
  -27.6543  -19.3797   18.8558 C   0  0  0  0  0  0  0  0  0  0  0  0
  -22.4058  -17.5569   19.8570 N   0  0  0  0  0  0  0  0  0  0  0  0
  -21.2482  -18.1798   19.5775 N   0  0  0  0  0  0  0  0  0  0  0  0
  -28.9381  -22.3214   20.4569 N   0  0  0  0  0  0  0  0  0  0  0  0
  -20.7849  -21.7225   20.9280 N   0  0  0  0  0  0  0  0  0  0  0  0
  -18.9809  -17.7889   19.0143 N   0  0  0  0  0  0  0  0  0  0  0  0
  -20.6927  -13.6269   19.3940 N   0  0  0  0  0  0  0  0  0  0  0  0
  -20.4728  -29.1833   21.3425 N   0  0  0  0  0  0  0  0  0  0  0  0
  -31.6472  -24.1616   18.8536 N   0  0  0  0  0  0  0  0  0  0  0  0
  -27.4420  -19.4277   21.3770 N   0  0  0  0  0  0  0  0  0  0  0  0
  -19.6845  -23.7982   21.2077 N   0  0  0  0  0  0  0  0  0  0  0  0
  -25.8751  -19.4456   24.6347 N   0  3  0  0  0  0  0  0  0  0  0  0
  -18.7946  -14.8235   18.9206 O   0  0  0  0  0  0  0  0  0  0  0  0
  -29.6352  -23.2132   18.1646 O   0  0  0  0  0  0  0  0  0  0  0  0
  -30.0295  -20.2611   20.4721 O   0  0  0  0  0  0  0  0  0  0  0  0
  -25.5832  -20.6153   22.0924 O   0  0  0  0  0  0  0  0  0  0  0  0
  -18.5532  -21.8338   21.5490 O   0  0  0  0  0  0  0  0  0  0  0  0
  -25.9564  -12.3357   20.6827 O   0  0  0  0  0  0  0  0  0  0  0  0
  -25.4254  -27.3502   21.1088 O   0  0  0  0  0  0  0  0  0  1  0  0
  -30.9095  -13.0174   18.3576 F   0  0  0  0  0  0  0  0  0  0  0  0
  -27.5037  -14.5515   21.2648 F   0  0  0  0  0  0  0  0  0  0  0  0
  -20.1443  -29.7602   24.2476 Cl  0  0  0  0  0  0  0  0  0  0  0  0
  -19.7910  -26.7798   19.7187 Cl  0  0  0  0  0  0  0  0  0  0  0  0
  1  2  1  0  0  0  0
  1  5  2  0  0  0  0
  2  6  2  0  0  0  0
  3  8  2  0  0  0  0
  3 16  1  0  0  0  0
  4  9  1  0  0  0  0
  4 16  2  0  0  0  0
  5 18  1  0  0  0  0
  6 20  1  0  0  0  0
  7 10  2  0  0  0  0
  7 19  1  0  0  0  0
  8 25  1  0  0  0  0
  9 25  2  0  0  0  0
 10 26  1  0  0  0  0
 11 12  2  0  0  0  0
 11 27  1  0  0  0  0
 12 28  1  0  0  0  0
 13 21  1  0  0  0  0
 13 26  2  0  0  0  0
 14 22  1  0  0  0  0
 14 23  2  0  0  0  0
 15 28  2  0  0  0  0
 15 29  1  0  0  0  0
 16 32  1  0  0  0  0
 17 32  1  0  0  0  0
 17 33  2  0  0  0  0
 17 34  1  0  0  0  0
 18 20  2  0  0  0  0
 18 39  1  0  0  0  0
 19 21  2  0  0  0  0
 19 40  1  0  0  0  0
 20 48  1  0  0  0  0
 21 41  1  0  0  0  0
 22 30  2  0  0  0  0
 22 51  1  0  0  0  0
 23 31  1  0  0  0  0
 23 58  1  0  0  0  0
 24 30  1  0  0  0  0
 24 31  2  0  0  0  0
 24 72  1  0  0  0  0
 25 82  1  0  0  0  0
 26 83  1  0  0  0  0
 27 29  2  0  0  0  0
 27 82  1  0  0  0  0
 28 84  1  0  0  0  0
 29 85  1  0  0  0  0
 30 86  1  0  0  0  0
 31 87  1  0  0  0  0
 32 66  2  0  0  0  0
 33 67  1  0  0  0  0
 33 70  1  0  0  0  0
 34 71  1  0  0  0  0
 34 77  2  0  0  0  0
 35 49  1  0  0  0  0
 35 73  1  0  0  0  0
 35 78  2  0  0  0  0
 36 62  1  0  0  0  0
 36 68  1  0  0  0  0
 36 79  2  0  0  0  0
 37 63  1  0  0  0  0
 37 74  1  0  0  0  0
 37 80  2  0  0  0  0
 38 69  1  0  0  0  0
 38 75  1  0  0  0  0
 38 81  2  0  0  0  0
 39 42  1  0  0  0  0
 40 49  1  0  0  0  0
 41 68  1  0  0  0  0
 42 44  1  0  0  0  0
 43 45  1  0  0  0  0
 43 46  1  0  0  0  0
 44 48  1  0  0  0  0
 45 50  1  0  0  0  0
 46 69  1  0  0  0  0
 47 50  1  0  0  0  0
 47 69  1  0  0  0  0
 48 73  1  0  0  0  0
 49 68  1  0  0  0  0
 50 67  1  0  0  0  0
 52 63  1  0  0  0  0
 53 64  1  0  0  0  0
 54 65  1  0  0  0  0
 55 65  1  0  0  0  0
 56 65  1  0  0  0  0
 57 76  1  0  0  0  0
 58 75  1  0  0  0  0
 59 60  1  0  0  0  0
 59 61  1  0  0  0  0
 60 64  1  0  0  0  0
 61 83  1  0  0  0  0
 62 65  1  0  0  0  0
 62 74  1  0  0  0  0
 63 76  1  0  0  0  0
 64 72  1  0  0  0  0
 66 67  1  0  0  0  0
M  CHG  1  76   1
M  ISO  4  38 100  61 101  75 100  83 101
M  END
> <Batch ID>
0026

> <Smiles>
CNC(C)C(=O)NC(C(=O)N1Cc2cc([101O:1][101CH2:1]CCC(C)Nc3c(Cl)c(C)cc(C[100NH:0][100C:0](=O)N4CCCC(n5nc(-c6ccc(Oc7ccc(F)cc7F)cc6)c(C(N)=O)c5N)C4)c3Cl)ccc2CC1C(=O)NC1CCCc2ccccc21)C(C)(C)C

> <Shape>
0.216

> <Color>
0.059

> <Negative vol penalty>
0.000

$$$$

  -OEChem-04052316273D

 89 97  0     1  0  0  0  0  0999 V2000
  -19.1266  -21.0336   16.8779 C   0  0  0  0  0  0  0  0  0  0  0  0
  -20.3742  -20.6905   16.3668 C   0  0  0  0  0  0  0  0  0  0  0  0
  -21.7002  -26.2170   22.1367 C   0  0  0  0  0  0  0  0  0  0  0  0
  -22.1217  -27.1816   19.9621 C   0  0  0  0  0  0  0  0  0  0  0  0
  -18.8384  -20.8046   18.2226 C   0  0  0  0  0  0  0  0  0  0  0  0
  -21.3348  -20.1191   17.2006 C   0  0  0  0  0  0  0  0  0  0  0  0
  -26.7433  -15.4232   17.0879 C   0  0  0  0  0  0  0  0  0  0  0  0
  -20.4332  -26.8000   22.1499 C   0  0  0  0  0  0  0  0  0  0  0  0
  -20.8546  -27.7647   19.9752 C   0  0  0  0  0  0  0  0  0  0  0  0
  -28.0884  -15.3210   17.4399 C   0  0  0  0  0  0  0  0  0  0  0  0
  -17.2247  -28.3319   22.9132 C   0  0  0  0  0  0  0  0  0  0  0  0
  -16.8132  -28.9664   24.0852 C   0  0  0  0  0  0  0  0  0  0  0  0
  -27.4513  -14.8988   19.7279 C   0  0  0  0  0  0  0  0  0  0  0  0
  -18.6863  -30.4835   23.9217 C   0  0  0  0  0  0  0  0  0  0  0  0
  -22.5445  -26.4078   21.0429 C   0  0  0  0  0  0  0  0  0  0  0  0
  -24.2001  -24.5354   20.5322 C   0  0  0  0  0  0  0  0  0  0  0  0
  -19.7926  -20.2212   19.0711 C   0  0  0  0  0  0  0  0  0  0  0  0
  -25.7407  -15.2746   18.0569 C   0  0  0  0  0  0  0  0  0  0  0  0
  -21.0595  -19.8833   18.5583 C   0  0  0  0  0  0  0  0  0  0  0  0
  -26.0941  -14.9970   19.3851 C   0  0  0  0  0  0  0  0  0  0  0  0
  -20.0103  -27.5739   21.0691 C   0  0  0  0  0  0  0  0  0  0  0  0
  -28.4427  -15.0616   18.7606 C   0  0  0  0  0  0  0  0  0  0  0  0
  -18.3671  -28.7732   22.2454 C   0  0  0  0  0  0  0  0  0  0  0  0
  -17.5440  -30.0421   24.5895 C   0  0  0  0  0  0  0  0  0  0  0  0
  -19.0979  -29.8490   22.7496 C   0  0  0  0  0  0  0  0  0  0  0  0
  -31.6660  -19.2161   20.1885 C   0  0  0  0  0  0  0  0  0  0  0  0
  -23.8537  -25.8062   21.0290 C   0  0  0  0  0  0  0  0  0  0  0  0
  -30.9897  -20.4105   20.0462 C   0  0  0  0  0  0  0  0  0  0  0  0
  -30.8777  -18.0839   20.2212 C   0  0  0  0  0  0  0  0  0  0  0  0
  -25.5526  -24.4384   20.7503 C   0  0  0  0  0  0  0  0  0  0  0  0
  -28.9908  -19.3298   19.9879 C   0  0  0  0  0  0  0  0  0  0  0  0
  -23.3731  -23.5323   19.9274 C   0  0  0  0  0  0  0  0  0  0  0  0
  -23.4530  -17.1480   19.2234 C   0  0  0  0  0  0  0  0  0  0  0  0
  -22.5810  -14.4467   20.7935 C   0  0  0  0  0  0  0  0  0  0  0  0
  -23.4851  -11.4032   22.0451 C   0  0  0  0  0  0  0  0  0  0  0  0
  -30.6765  -26.6453   20.6042 C   0  0  0  0  0  0  0  0  0  0  0  0
  -19.4516  -20.0364   20.5285 C   0  0  0  0  0  0  0  0  0  0  0  0
  -24.2936  -15.3612   17.6560 C   0  0  0  0  0  0  0  0  0  0  0  0
  -25.0554  -14.8090   20.4594 C   0  0  0  0  0  0  0  0  0  0  0  0
  -20.3938  -19.0824   21.2583 C   0  0  0  0  0  0  0  0  0  0  0  0
  -28.6691  -27.3630   23.4559 C   0  0  0  0  0  0  0  0  0  0  0  0
  -21.8463  -19.4076   20.9248 C   0  0  0  0  0  0  0  0  0  0  0  0
  -27.2657  -26.9231   23.0354 C   0  0  0  0  0  0  0  0  0  0  0  0
  -29.4416  -27.9758   22.2898 C   0  0  0  0  0  0  0  0  0  0  0  0
  -28.1092  -26.6919   20.6619 C   0  0  0  0  0  0  0  0  0  0  0  0
  -22.1192  -19.2387   19.4253 C   0  0  1  0  0  0  0  0  0  0  0  0
  -23.3701  -15.7026   18.8213 C   0  0  1  0  0  0  0  0  0  0  0  0
  -27.3116  -26.0166   21.7907 C   0  0  2  0  0  0  0  0  0  0  0  0
  -27.5053  -19.3917   19.8754 C   0  0  0  0  0  0  0  0  0  0  0  0
  -30.7059  -15.0552   23.6703 C   0  0  0  0  0  0  0  0  0  0  0  0
  -22.5644   -9.4409   23.3096 C   0  0  0  0  0  0  0  0  0  0  0  0
  -22.6945  -16.0627   23.3792 C   0  0  0  0  0  0  0  0  0  0  0  0
  -22.7119  -13.9034   24.6461 C   0  0  0  0  0  0  0  0  0  0  0  0
  -20.7554  -14.4920   23.2149 C   0  0  0  0  0  0  0  0  0  0  0  0
  -24.0467   -9.5498   19.8072 C   0  0  0  0  0  0  0  0  0  0  0  0
  -30.4778  -15.6191   22.2750 C   0  0  0  0  0  0  0  0  0  0  0  0
  -32.2460  -23.9406   19.4822 C   0  0  0  0  0  0  0  0  0  0  0  0
  -31.7249  -16.2742   21.6934 C   0  0  0  0  0  0  0  0  0  0  0  0
  -31.2004  -22.8262   19.4584 C   0  0  0  0  0  0  0  0  0  0  0  0
  -31.7699  -25.2536   18.8645 C   0  0  0  0  0  0  0  0  0  0  0  0
  -31.8944  -16.0587   19.2088 C   0  0  0  0  0  0  0  0  0  0  0  0
  -30.6875  -15.7288   18.3464 C   0  0  0  0  0  0  0  0  0  1  0  0
  -22.9337  -13.8208   22.1212 C   0  0  1  0  0  0  0  0  0  0  0  0
  -22.8347  -10.0359   21.9364 C   0  0  2  0  0  0  0  0  0  0  0  0
  -22.2937  -14.5751   23.3207 C   0  0  0  0  0  0  0  0  0  0  0  0
  -24.9017  -26.4689   21.5255 N   0  0  0  0  0  0  0  0  0  0  0  0
  -29.6478  -20.5044   19.9427 N   0  0  0  0  0  0  0  0  0  0  0  0
  -29.5322  -18.1042   20.1234 N   0  0  0  0  0  0  0  0  0  0  0  0
  -25.9198  -25.6111   21.3419 N   0  0  0  0  0  0  0  0  0  0  0  0
  -23.6542  -14.9093   20.0188 N   0  0  0  0  0  0  0  0  0  0  0  0
  -29.4488  -27.0655   21.1421 N   0  0  0  0  0  0  0  0  0  0  0  0
  -26.4518  -23.4651   20.4921 N   0  0  0  0  0  0  0  0  0  0  0  0
  -22.0044  -23.7949   19.7795 N   0  0  0  0  0  0  0  0  0  0  0  0
  -31.7286  -21.6183   20.0042 N   0  0  0  0  0  0  0  0  0  0  0  0
  -22.2628  -17.8376   19.0924 N   0  0  0  0  0  0  0  0  0  0  0  0
  -22.5501  -12.4165   22.0252 N   0  0  0  0  0  0  0  0  0  0  0  0
  -30.5936  -25.7780   19.5218 N   0  0  0  0  0  0  0  0  0  0  0  0
  -31.4915  -16.8320   20.3610 N   0  0  3  0  0  0  0  0  0  0  0  0
  -23.7182   -9.1004   21.1845 N   0  3  0  0  0  0  0  0  0  0  0  0
  -23.8314  -22.4290   19.5450 O   0  0  0  0  0  0  0  0  0  0  0  0
  -24.5177  -17.6034   19.6243 O   0  0  0  0  0  0  0  0  0  0  0  0
  -21.3974  -14.5161   20.4530 O   0  0  0  0  0  0  0  0  0  0  0  0
  -24.7006  -11.5569   22.1420 O   0  0  0  0  0  0  0  0  0  0  0  0
  -31.7657  -27.0113   21.0586 O   0  0  0  0  0  0  0  0  0  0  0  0
  -18.7739  -28.1428   21.0815 O   0  0  0  0  0  0  0  0  0  0  0  0
  -29.7549  -14.9620   19.1071 O   0  0  0  0  0  0  0  0  0  1  0  0
  -17.1478  -30.6523   25.7142 F   0  0  0  0  0  0  0  0  0  0  0  0
  -20.1955  -30.2782   22.1119 F   0  0  0  0  0  0  0  0  0  0  0  0
  -33.3844  -19.1425   20.3191 Cl  0  0  0  0  0  0  0  0  0  0  0  0
  1  2  1  0  0  0  0
  1  5  2  0  0  0  0
  2  6  2  0  0  0  0
  3  8  2  0  0  0  0
  3 15  1  0  0  0  0
  4  9  1  0  0  0  0
  4 15  2  0  0  0  0
  5 17  1  0  0  0  0
  6 19  1  0  0  0  0
  7 10  2  0  0  0  0
  7 18  1  0  0  0  0
  8 21  1  0  0  0  0
  9 21  2  0  0  0  0
 10 22  1  0  0  0  0
 11 12  2  0  0  0  0
 11 23  1  0  0  0  0
 12 24  1  0  0  0  0
 13 20  1  0  0  0  0
 13 22  2  0  0  0  0
 14 24  2  0  0  0  0
 14 25  1  0  0  0  0
 15 27  1  0  0  0  0
 16 27  1  0  0  0  0
 16 30  2  0  0  0  0
 16 32  1  0  0  0  0
 17 19  2  0  0  0  0
 17 37  1  0  0  0  0
 18 20  2  0  0  0  0
 18 38  1  0  0  0  0
 19 46  1  0  0  0  0
 20 39  1  0  0  0  0
 21 85  1  0  0  0  0
 22 86  1  0  0  0  0
 23 25  2  0  0  0  0
 23 85  1  0  0  0  0
 24 87  1  0  0  0  0
 25 88  1  0  0  0  0
 26 28  1  0  0  0  0
 26 29  2  0  0  0  0
 26 89  1  0  0  0  0
 27 66  2  0  0  0  0
 28 67  2  0  0  0  0
 28 74  1  0  0  0  0
 29 68  1  0  0  0  0
 29 78  1  0  0  0  0
 30 69  1  0  0  0  0
 30 72  1  0  0  0  0
 31 49  1  0  0  0  0
 31 67  1  0  0  0  0
 31 68  2  0  0  0  0
 32 73  1  0  0  0  0
 32 80  2  0  0  0  0
 33 47  1  0  0  0  0
 33 75  1  0  0  0  0
 33 81  2  0  0  0  0
 34 63  1  0  0  0  0
 34 70  1  0  0  0  0
 34 82  2  0  0  0  0
 35 64  1  0  0  0  0
 35 76  1  0  0  0  0
 35 83  2  0  0  0  0
 36 71  1  0  0  0  0
 36 77  1  0  0  0  0
 36 84  2  0  0  0  0
 37 40  1  0  0  0  0
 38 47  1  0  0  0  0
 39 70  1  0  0  0  0
 40 42  1  0  0  0  0
 41 43  1  0  0  0  0
 41 44  1  0  0  0  0
 42 46  1  0  0  0  0
 43 48  1  0  0  0  0
 44 71  1  0  0  0  0
 45 48  1  0  0  0  0
 45 71  1  0  0  0  0
 46 75  1  0  0  0  0
 47 70  1  0  0  0  0
 48 69  1  0  0  0  0
 50 56  1  0  0  0  0
 51 64  1  0  0  0  0
 52 65  1  0  0  0  0
 53 65  1  0  0  0  0
 54 65  1  0  0  0  0
 55 79  1  0  0  0  0
 56 58  1  0  0  0  0
 57 59  1  0  0  0  0
 57 60  1  0  0  0  0
 58 78  1  0  0  0  0
 59 74  1  0  0  0  0
 60 77  1  0  0  0  0
 61 62  1  0  0  0  0
 61 78  1  0  0  0  0
 62 86  1  0  0  0  0
 63 65  1  0  0  0  0
 63 76  1  0  0  0  0
 64 79  1  0  0  0  0
 66 69  1  0  0  0  0
M  CHG  1  79   1
M  ISO  4  36 100  62 101  77 100  86 101
M  END
> <Batch ID>
0026

> <Smiles>
CCCN(C[101CH2:1][101O:1]c1ccc2c(c1)CN(C(=O)C(NC(=O)C(C)NC)C(C)(C)C)C(C(=O)NC1CCCc3ccccc31)C2)c1nc(C)nc(NCCC[100NH:0][100C:0](=O)N2CCCC(n3nc(-c4ccc(Oc5ccc(F)cc5F)cc4)c(C(N)=O)c3N)C2)c1Cl

> <Shape>
0.205

> <Color>
0.062

> <Negative vol penalty>
0.000

$$$$

  -OEChem-04052316273D

 91 99  0     1  0  0  0  0  0999 V2000
  -18.1592  -25.5448   22.6197 C   0  0  0  0  0  0  0  0  0  0  0  0
  -19.5207  -25.4372   22.8849 C   0  0  0  0  0  0  0  0  0  0  0  0
  -24.5855   -8.3968   21.3660 C   0  0  0  0  0  0  0  0  0  0  0  0
  -23.6902  -10.4039   22.3695 C   0  0  0  0  0  0  0  0  0  0  0  0
  -17.6643  -26.6735   21.9677 C   0  0  0  0  0  0  0  0  0  0  0  0
  -20.3882  -26.4578   22.4973 C   0  0  0  0  0  0  0  0  0  0  0  0
  -23.7110  -27.6649   26.1231 C   0  0  0  0  0  0  0  0  0  0  0  0
  -23.9980   -7.6312   22.3731 C   0  0  0  0  0  0  0  0  0  0  0  0
  -23.1027   -9.6383   23.3766 C   0  0  0  0  0  0  0  0  0  0  0  0
  -24.8015  -26.8137   26.2964 C   0  0  0  0  0  0  0  0  0  0  0  0
  -20.9268   -6.4285   23.1173 C   0  0  0  0  0  0  0  0  0  0  0  0
  -20.2526   -5.2674   22.7392 C   0  0  0  0  0  0  0  0  0  0  0  0
  -26.1836  -28.3377   25.0369 C   0  0  0  0  0  0  0  0  0  0  0  0
  -29.6063  -17.8294   20.2018 C   0  0  0  0  0  0  0  0  0  0  0  0
  -21.7552   -3.9521   24.0990 C   0  0  0  0  0  0  0  0  0  0  0  0
  -24.4316   -9.7831   21.3642 C   0  0  0  0  0  0  0  0  0  0  0  0
  -24.4682  -10.9377   19.0897 C   0  0  0  0  0  0  0  0  0  0  0  0
  -18.5248  -27.7128   21.5805 C   0  0  0  0  0  0  0  0  0  0  0  0
  -23.8463  -28.8557   25.3949 C   0  0  0  0  0  0  0  0  0  0  0  0
  -19.9044  -27.6008   21.8383 C   0  0  0  0  0  0  0  0  0  0  0  0
  -25.0940  -29.2036   24.8580 C   0  0  0  0  0  0  0  0  0  0  0  0
  -27.4139  -19.0404   21.4305 C   0  0  0  0  0  0  0  0  0  0  0  0
  -28.3041  -19.8077   20.6792 C   0  0  0  0  0  0  0  0  0  0  0  0
  -28.7162  -17.0621   20.9531 C   0  0  0  0  0  0  0  0  0  0  0  0
  -23.2566   -8.2519   23.3784 C   0  0  0  0  0  0  0  0  0  0  0  0
  -26.0374  -27.1486   25.7508 C   0  0  0  0  0  0  0  0  0  0  0  0
  -22.0152   -6.3514   23.9862 C   0  0  0  0  0  0  0  0  0  0  0  0
  -20.6668   -4.0292   23.2301 C   0  0  0  0  0  0  0  0  0  0  0  0
  -22.4294   -5.1132   24.4771 C   0  0  0  0  0  0  0  0  0  0  0  0
  -29.4003  -19.2022   20.0649 C   0  0  0  0  0  0  0  0  0  0  0  0
  -27.6200  -17.6676   21.5674 C   0  0  0  0  0  0  0  0  0  0  0  0
  -25.0387  -10.5746   20.3244 C   0  0  0  0  0  0  0  0  0  0  0  0
  -25.4402  -11.6830   18.4683 C   0  0  0  0  0  0  0  0  0  0  0  0
  -23.1752  -10.6290   18.5526 C   0  0  0  0  0  0  0  0  0  0  0  0
  -22.5541  -30.0159   22.7326 C   0  0  0  0  0  0  0  0  0  0  0  0
  -24.1925  -32.6887   23.5657 C   0  0  0  0  0  0  0  0  0  0  0  0
  -26.8057  -34.0716   25.2702 C   0  0  0  0  0  0  0  0  0  0  0  0
  -30.0105  -14.9469   20.5090 C   0  0  0  0  0  0  0  0  0  0  0  0
  -17.9500  -28.8919   20.8362 C   0  0  0  0  0  0  0  0  0  0  0  0
  -22.6668  -29.7761   25.2397 C   0  0  0  0  0  0  0  0  0  0  0  0
  -25.2966  -30.4804   24.0851 C   0  0  0  0  0  0  0  0  0  0  0  0
  -18.8837  -30.0988   20.7927 C   0  0  0  0  0  0  0  0  0  0  0  0
  -30.1962  -12.2002   18.2511 C   0  0  0  0  0  0  0  0  0  0  0  0
  -20.2973  -29.6668   20.4159 C   0  0  0  0  0  0  0  0  0  0  0  0
  -28.8405  -11.5082   18.4097 C   0  0  0  0  0  0  0  0  0  0  0  0
  -30.7106  -12.7512   19.5799 C   0  0  0  0  0  0  0  0  0  0  0  0
  -28.4147  -12.9305   20.4549 C   0  0  0  0  0  0  0  0  0  0  0  0
  -20.8737  -28.6981   21.4556 C   0  0  1  0  0  0  0  0  0  0  0  0
  -22.7933  -30.7127   24.0421 C   0  0  1  0  0  0  0  0  0  0  0  0
  -27.8253  -12.4161   19.1314 C   0  0  2  0  0  0  0  0  0  0  0  0
  -26.2422  -19.7080   22.0829 C   0  0  0  0  0  0  0  0  0  0  0  0
  -27.9107  -36.2772   25.7308 C   0  0  0  0  0  0  0  0  0  0  0  0
  -27.7671  -22.6075   25.6697 C   0  0  0  0  0  0  0  0  0  0  0  0
  -25.4284  -32.6493   20.7763 C   0  0  0  0  0  0  0  0  0  0  0  0
  -27.1737  -34.2427   21.6029 C   0  0  0  0  0  0  0  0  0  0  0  0
  -24.7727  -34.9197   21.5948 C   0  0  0  0  0  0  0  0  0  0  0  0
  -29.5541  -25.8678   21.8447 C   0  0  0  0  0  0  0  0  0  0  0  0
  -31.2645  -24.0588   21.7618 C   0  0  0  0  0  0  0  0  0  0  0  0
  -26.3098  -33.8441   28.1790 C   0  0  0  0  0  0  0  0  0  0  0  0
  -28.0734  -21.2836   20.5404 C   0  0  0  0  0  0  0  0  0  0  0  0
  -28.8414  -23.5651   21.2066 C   0  0  0  0  0  0  0  0  0  0  0  0
  -29.6088  -24.0662   23.6264 C   0  0  0  0  0  0  0  0  0  0  0  0
  -26.8280  -24.9242   26.0386 C   0  0  0  0  0  0  0  0  0  1  0  0
  -25.5767  -33.2239   23.2890 C   0  0  1  0  0  0  0  0  0  0  0  0
  -26.8796  -35.2651   26.2055 C   0  0  2  0  0  0  0  0  0  0  0  0
  -28.0152  -24.1024   25.5493 C   0  0  2  0  0  0  0  0  0  0  0  0
  -25.7339  -33.7338   21.8286 C   0  0  0  0  0  0  0  0  0  0  0  0
  -29.7951  -24.3680   22.1213 C   0  0  0  0  0  0  0  0  0  0  0  0
  -26.2772  -11.0499   20.4798 N   0  0  0  0  0  0  0  0  0  0  0  0
  -26.4930  -11.7193   19.3346 N   0  0  0  0  0  0  0  0  0  0  0  0
  -24.1115  -31.3442   23.9552 N   0  0  0  0  0  0  0  0  0  0  0  0
  -29.6978  -13.6054   20.2038 N   0  0  0  0  0  0  0  0  0  0  0  0
  -25.4886  -12.3042   17.2707 N   0  0  0  0  0  0  0  0  0  0  0  0
  -22.2996   -9.8521   19.3234 N   0  0  0  0  0  0  0  0  0  0  0  0
  -28.9587  -15.6710   21.0695 N   0  0  0  0  0  0  0  0  0  0  0  0
  -21.3114  -29.4201   22.6310 N   0  0  0  0  0  0  0  0  0  0  0  0
  -25.8335  -34.2373   24.3066 N   0  0  0  0  0  0  0  0  0  0  0  0
  -27.2517  -34.8241   27.5795 N   0  3  0  0  0  0  0  0  0  0  0  0
  -29.0028  -22.0997   21.3685 N   0  3  0  0  0  0  0  0  0  0  0  0
  -28.2506  -24.4205   24.1111 N   0  3  0  0  0  0  0  0  0  0  0  0
  -22.8133  -11.0163   17.4157 O   0  0  0  0  0  0  0  0  0  0  0  0
  -23.4314  -30.0198   21.8770 O   0  0  0  0  0  0  0  0  0  0  0  0
  -23.2197  -33.4379   23.4477 O   0  0  0  0  0  0  0  0  0  0  0  0
  -27.5398  -33.0922   25.3810 O   0  0  0  0  0  0  0  0  0  0  0  0
  -31.1205  -15.4264   20.2642 O   0  0  0  0  0  0  0  0  0  0  0  0
  -22.6830   -7.5051   24.3612 O   0  0  0  0  0  0  0  0  0  0  0  0
  -27.1032  -26.3192   25.9179 O   0  0  0  0  0  0  0  0  0  1  0  0
  -20.0183   -2.9145   22.8681 F   0  0  0  0  0  0  0  0  0  0  0  0
  -23.4737   -5.0330   25.3131 F   0  0  0  0  0  0  0  0  0  0  0  0
  -30.5284  -20.1171   19.1311 Cl  0  0  0  0  0  0  0  0  0  0  0  0
  -26.5123  -16.7150   22.5024 Cl  0  0  0  0  0  0  0  0  0  0  0  0
  1  2  1  0  0  0  0
  1  5  2  0  0  0  0
  2  6  2  0  0  0  0
  3  8  2  0  0  0  0
  3 16  1  0  0  0  0
  4  9  1  0  0  0  0
  4 16  2  0  0  0  0
  5 18  1  0  0  0  0
  6 20  1  0  0  0  0
  7 10  2  0  0  0  0
  7 19  1  0  0  0  0
  8 25  1  0  0  0  0
  9 25  2  0  0  0  0
 10 26  1  0  0  0  0
 11 12  2  0  0  0  0
 11 27  1  0  0  0  0
 12 28  1  0  0  0  0
 13 21  1  0  0  0  0
 13 26  2  0  0  0  0
 14 24  1  0  0  0  0
 14 30  2  0  0  0  0
 15 28  2  0  0  0  0
 15 29  1  0  0  0  0
 16 32  1  0  0  0  0
 17 32  1  0  0  0  0
 17 33  2  0  0  0  0
 17 34  1  0  0  0  0
 18 20  2  0  0  0  0
 18 39  1  0  0  0  0
 19 21  2  0  0  0  0
 19 40  1  0  0  0  0
 20 48  1  0  0  0  0
 21 41  1  0  0  0  0
 22 23  2  0  0  0  0
 22 31  1  0  0  0  0
 22 51  1  0  0  0  0
 23 30  1  0  0  0  0
 23 60  1  0  0  0  0
 24 31  2  0  0  0  0
 24 75  1  0  0  0  0
 25 86  1  0  0  0  0
 26 87  1  0  0  0  0
 27 29  2  0  0  0  0
 27 86  1  0  0  0  0
 28 88  1  0  0  0  0
 29 89  1  0  0  0  0
 30 90  1  0  0  0  0
 31 91  1  0  0  0  0
 32 69  2  0  0  0  0
 33 70  1  0  0  0  0
 33 73  1  0  0  0  0
 34 74  1  0  0  0  0
 34 81  2  0  0  0  0
 35 49  1  0  0  0  0
 35 76  1  0  0  0  0
 35 82  2  0  0  0  0
 36 64  1  0  0  0  0
 36 71  1  0  0  0  0
 36 83  2  0  0  0  0
 37 65  1  0  0  0  0
 37 77  1  0  0  0  0
 37 84  2  0  0  0  0
 38 72  1  0  0  0  0
 38 75  1  0  0  0  0
 38 85  2  0  0  0  0
 39 42  1  0  0  0  0
 40 49  1  0  0  0  0
 41 71  1  0  0  0  0
 42 44  1  0  0  0  0
 43 45  1  0  0  0  0
 43 46  1  0  0  0  0
 44 48  1  0  0  0  0
 45 50  1  0  0  0  0
 46 72  1  0  0  0  0
 47 50  1  0  0  0  0
 47 72  1  0  0  0  0
 48 76  1  0  0  0  0
 49 71  1  0  0  0  0
 50 70  1  0  0  0  0
 52 65  1  0  0  0  0
 53 66  1  0  0  0  0
 54 67  1  0  0  0  0
 55 67  1  0  0  0  0
 56 67  1  0  0  0  0
 57 68  1  0  0  0  0
 58 68  1  0  0  0  0
 59 78  1  0  0  0  0
 60 79  1  0  0  0  0
 61 68  1  0  0  0  0
 61 79  1  0  0  0  0
 62 68  1  0  0  0  0
 62 80  1  0  0  0  0
 63 66  1  0  0  0  0
 63 87  1  0  0  0  0
 64 67  1  0  0  0  0
 64 77  1  0  0  0  0
 65 78  1  0  0  0  0
 66 80  1  0  0  0  0
 69 70  1  0  0  0  0
M  CHG  3  78   1  79   1  80   1
M  ISO  4  38 100  63 101  75 100  87 101
M  END
> <Batch ID>
0026

> <Smiles>
CNC(C)C(=O)NC(C(=O)N1Cc2cc([101O:1][101CH2:1]C(C)NCC(C)(C)CNCc3c(Cl)cc([100NH:0][100C:0](=O)N4CCCC(n5nc(-c6ccc(Oc7ccc(F)cc7F)cc6)c(C(N)=O)c5N)C4)c(Cl)c3C)ccc2CC1C(=O)NC1CCCc2ccccc21)C(C)(C)C

> <Shape>
0.304

> <Color>
0.095

> <Negative vol penalty>
0.000

$$$$

  -OEChem-04052316273D

 81 89  0     1  0  0  0  0  0999 V2000
  -18.2305  -31.6593   20.7732 C   0  0  0  0  0  0  0  0  0  0  0  0
  -19.5161  -31.1306   20.7178 C   0  0  0  0  0  0  0  0  0  0  0  0
  -25.5648  -14.5650   21.5271 C   0  0  0  0  0  0  0  0  0  0  0  0
  -24.8015  -15.3462   19.3721 C   0  0  0  0  0  0  0  0  0  0  0  0
  -17.2991  -31.1322   21.6669 C   0  0  0  0  0  0  0  0  0  0  0  0
  -19.8715  -30.0752   21.5570 C   0  0  0  0  0  0  0  0  0  0  0  0
  -22.4405  -26.4461   19.1332 C   0  0  0  0  0  0  0  0  0  0  0  0
  -24.5495  -13.6087   21.5402 C   0  0  0  0  0  0  0  0  0  0  0  0
  -23.7861  -14.3898   19.3851 C   0  0  0  0  0  0  0  0  0  0  0  0
  -23.7895  -26.6853   18.8747 C   0  0  0  0  0  0  0  0  0  0  0  0
  -23.9592  -10.5833   20.1503 C   0  0  0  0  0  0  0  0  0  0  0  0
  -24.2952   -9.2864   20.5386 C   0  0  0  0  0  0  0  0  0  0  0  0
  -24.3885  -25.3258   20.7752 C   0  0  0  0  0  0  0  0  0  0  0  0
  -22.7177   -9.4241   22.3633 C   0  0  0  0  0  0  0  0  0  0  0  0
  -25.6908  -15.4338   20.4431 C   0  0  0  0  0  0  0  0  0  0  0  0
  -28.0407  -16.2739   19.9142 C   0  0  0  0  0  0  0  0  0  0  0  0
  -17.6403  -30.0634   22.5106 C   0  0  0  0  0  0  0  0  0  0  0  0
  -22.0544  -25.6526   20.2230 C   0  0  0  0  0  0  0  0  0  0  0  0
  -18.9442  -29.5342   22.4638 C   0  0  0  0  0  0  0  0  0  0  0  0
  -23.0340  -25.0760   21.0439 C   0  0  0  0  0  0  0  0  0  0  0  0
  -29.3146  -26.5705   20.5809 C   0  0  0  0  0  0  0  0  0  0  0  0
  -23.6602  -13.5211   20.4691 C   0  0  0  0  0  0  0  0  0  0  0  0
  -24.7636  -26.1274   19.6974 C   0  0  0  0  0  0  0  0  0  0  0  0
  -23.0025  -11.3007   20.8686 C   0  0  0  0  0  0  0  0  0  0  0  0
  -23.6745   -8.7068   21.6451 C   0  0  0  0  0  0  0  0  0  0  0  0
  -22.3818  -10.7210   21.9751 C   0  0  0  0  0  0  0  0  0  0  0  0
  -29.8455  -26.8852   21.8651 C   0  0  0  0  0  0  0  0  0  0  0  0
  -26.7390  -16.4223   20.4293 C   0  0  0  0  0  0  0  0  0  0  0  0
  -28.6358  -27.6335   20.0269 C   0  0  0  0  0  0  0  0  0  0  0  0
  -28.6404  -17.4885   20.1412 C   0  0  0  0  0  0  0  0  0  0  0  0
  -29.5523  -28.1770   22.2437 C   0  0  0  0  0  0  0  0  0  0  0  0
  -28.6530  -15.1395   19.2866 C   0  0  0  0  0  0  0  0  0  0  0  0
  -20.3550  -26.1427   22.8641 C   0  0  0  0  0  0  0  0  0  0  0  0
  -20.7386  -22.9433   23.2373 C   0  0  0  0  0  0  0  0  0  0  0  0
  -22.5601  -20.1429   22.5399 C   0  0  0  0  0  0  0  0  0  0  0  0
  -28.5351  -22.9563   19.9425 C   0  0  0  0  0  0  0  0  0  0  0  0
  -16.6139  -29.5582   23.4935 C   0  0  0  0  0  0  0  0  0  0  0  0
  -20.5960  -25.3823   20.4725 C   0  0  0  0  0  0  0  0  0  0  0  0
  -22.6725  -24.2001   22.2146 C   0  0  0  0  0  0  0  0  0  0  0  0
  -16.9568  -28.1932   24.0846 C   0  0  0  0  0  0  0  0  0  0  0  0
  -27.1306  -21.4412   22.9139 C   0  0  0  0  0  0  0  0  0  0  0  0
  -18.4156  -28.1550   24.5288 C   0  0  0  0  0  0  0  0  0  0  0  0
  -27.0121  -19.9783   22.4825 C   0  0  0  0  0  0  0  0  0  0  0  0
  -26.8121  -22.3858   21.7587 C   0  0  0  0  0  0  0  0  0  0  0  0
  -27.5178  -20.7020   20.1033 C   0  0  0  0  0  0  0  0  0  0  0  0
  -19.3600  -28.3729   23.3405 C   0  0  1  0  0  0  0  0  0  0  0  0
  -20.3010  -24.9798   21.9141 C   0  0  1  0  0  0  0  0  0  0  0  0
  -27.8496  -19.6966   21.2210 C   0  0  2  0  0  0  0  0  0  0  0  0
  -22.6488  -17.6810   23.0177 C   0  0  0  0  0  0  0  0  0  0  0  0
  -21.8349  -23.5263   26.0245 C   0  0  0  0  0  0  0  0  0  0  0  0
  -22.7667  -21.2029   26.0679 C   0  0  0  0  0  0  0  0  0  0  0  0
  -20.3028  -21.5537   25.8976 C   0  0  0  0  0  0  0  0  0  0  0  0
  -22.2493  -19.4582   19.6774 C   0  0  0  0  0  0  0  0  0  0  0  0
  -29.4660  -25.2561   19.9058 C   0  0  0  0  0  0  0  0  0  0  0  0
  -27.9303  -27.7184   18.6952 C   0  0  0  0  0  0  0  0  0  0  0  0
  -26.4161  -27.6031   18.8328 C   0  0  0  0  0  0  0  0  0  1  0  0
  -21.7678  -22.0601   23.9003 C   0  0  1  0  0  0  0  0  0  0  0  0
  -22.1426  -18.7600   22.0732 C   0  0  2  0  0  0  0  0  0  0  0  0
  -21.6751  -22.1038   25.4518 C   0  0  0  0  0  0  0  0  0  0  0  0
  -26.5237  -17.6355   20.9448 N   0  0  0  0  0  0  0  0  0  0  0  0
  -27.6982  -18.2605   20.7548 N   0  0  0  0  0  0  0  0  0  0  0  0
  -21.2330  -23.9706   22.4212 N   0  0  0  0  0  0  0  0  0  0  0  0
  -27.6562  -22.0766   20.5960 N   0  0  0  0  0  0  0  0  0  0  0  0
  -29.8764  -17.9609   19.8737 N   0  0  0  0  0  0  0  0  0  0  0  0
  -27.8947  -13.9709   19.1325 N   0  0  0  0  0  0  0  0  0  0  0  0
  -19.4738  -27.1617   22.5566 N   0  0  0  0  0  0  0  0  0  0  0  0
  -21.5930  -20.7294   23.3285 N   0  0  0  0  0  0  0  0  0  0  0  0
  -28.6024  -24.2412   20.4671 N   0  0  0  0  0  0  0  0  0  0  0  0
  -22.6860  -18.4864   20.7127 N   0  3  0  0  0  0  0  0  0  0  0  0
  -29.8428  -15.1561   18.8895 O   0  0  0  0  0  0  0  0  0  0  0  0
  -21.1371  -26.1167   23.8071 O   0  0  0  0  0  0  0  0  0  0  0  0
  -19.5400  -22.7252   23.4305 O   0  0  0  0  0  0  0  0  0  0  0  0
  -23.6381  -20.6504   22.2382 O   0  0  0  0  0  0  0  0  0  0  0  0
  -29.2142  -22.6200   18.9664 O   0  0  0  0  0  0  0  0  0  0  0  0
  -22.6695  -12.5878   20.4814 O   0  0  0  0  0  0  0  0  0  0  0  0
  -26.0810  -26.3598   19.4478 O   0  0  0  0  0  0  0  0  0  1  0  0
  -23.9961   -7.4608   22.0169 F   0  0  0  0  0  0  0  0  0  0  0  0
  -21.4611  -11.4047   22.6683 F   0  0  0  0  0  0  0  0  0  0  0  0
  -28.6404  -29.0041   21.0535 S   0  0  0  0  0  0  0  0  0  0  0  0
  -30.7403  -25.7614   22.8031 Cl  0  0  0  0  0  0  0  0  0  0  0  0
  -29.9777  -28.9960   23.6916 Cl  0  0  0  0  0  0  0  0  0  0  0  0
  1  2  1  0  0  0  0
  1  5  2  0  0  0  0
  2  6  2  0  0  0  0
  3  8  2  0  0  0  0
  3 15  1  0  0  0  0
  4  9  1  0  0  0  0
  4 15  2  0  0  0  0
  5 17  1  0  0  0  0
  6 19  1  0  0  0  0
  7 10  2  0  0  0  0
  7 18  1  0  0  0  0
  8 22  1  0  0  0  0
  9 22  2  0  0  0  0
 10 23  1  0  0  0  0
 11 12  2  0  0  0  0
 11 24  1  0  0  0  0
 12 25  1  0  0  0  0
 13 20  1  0  0  0  0
 13 23  2  0  0  0  0
 14 25  2  0  0  0  0
 14 26  1  0  0  0  0
 15 28  1  0  0  0  0
 16 28  1  0  0  0  0
 16 30  2  0  0  0  0
 16 32  1  0  0  0  0
 17 19  2  0  0  0  0
 17 37  1  0  0  0  0
 18 20  2  0  0  0  0
 18 38  1  0  0  0  0
 19 46  1  0  0  0  0
 20 39  1  0  0  0  0
 21 27  1  0  0  0  0
 21 29  2  0  0  0  0
 21 54  1  0  0  0  0
 22 75  1  0  0  0  0
 23 76  1  0  0  0  0
 24 26  2  0  0  0  0
 24 75  1  0  0  0  0
 25 77  1  0  0  0  0
 26 78  1  0  0  0  0
 27 31  2  0  0  0  0
 27 80  1  0  0  0  0
 28 60  2  0  0  0  0
 29 55  1  0  0  0  0
 29 79  1  0  0  0  0
 30 61  1  0  0  0  0
 30 64  1  0  0  0  0
 31 79  1  0  0  0  0
 31 81  1  0  0  0  0
 32 65  1  0  0  0  0
 32 70  2  0  0  0  0
 33 47  1  0  0  0  0
 33 66  1  0  0  0  0
 33 71  2  0  0  0  0
 34 57  1  0  0  0  0
 34 62  1  0  0  0  0
 34 72  2  0  0  0  0
 35 58  1  0  0  0  0
 35 67  1  0  0  0  0
 35 73  2  0  0  0  0
 36 63  1  0  0  0  0
 36 68  1  0  0  0  0
 36 74  2  0  0  0  0
 37 40  1  0  0  0  0
 38 47  1  0  0  0  0
 39 62  1  0  0  0  0
 40 42  1  0  0  0  0
 41 43  1  0  0  0  0
 41 44  1  0  0  0  0
 42 46  1  0  0  0  0
 43 48  1  0  0  0  0
 44 63  1  0  0  0  0
 45 48  1  0  0  0  0
 45 63  1  0  0  0  0
 46 66  1  0  0  0  0
 47 62  1  0  0  0  0
 48 61  1  0  0  0  0
 49 58  1  0  0  0  0
 50 59  1  0  0  0  0
 51 59  1  0  0  0  0
 52 59  1  0  0  0  0
 53 69  1  0  0  0  0
 54 68  1  0  0  0  0
 55 56  1  0  0  0  0
 56 76  1  0  0  0  0
 57 59  1  0  0  0  0
 57 67  1  0  0  0  0
 58 69  1  0  0  0  0
 60 61  1  0  0  0  0
M  CHG  1  69   1
M  ISO  4  36 100  56 101  68 100  76 101
M  END
> <Batch ID>
0026

> <Smiles>
CNC(C)C(=O)NC(C(=O)N1Cc2cc([101O:1][101CH2:1]Cc3sc(Cl)c(Cl)c3C[100NH:0][100C:0](=O)N3CCCC(n4nc(-c5ccc(Oc6ccc(F)cc6F)cc5)c(C(N)=O)c4N)C3)ccc2CC1C(=O)NC1CCCc2ccccc21)C(C)(C)C

> <Shape>
0.219

> <Color>
0.058

> <Negative vol penalty>
0.000

$$$$

  -OEChem-04052316273D

 83 91  0     1  0  0  0  0  0999 V2000
  -20.5073  -17.1788   25.9815 C   0  0  0  0  0  0  0  0  0  0  0  0
  -21.7486  -17.6078   25.5224 C   0  0  0  0  0  0  0  0  0  0  0  0
  -26.8872  -12.8431   21.0433 C   0  0  0  0  0  0  0  0  0  0  0  0
  -26.6864  -13.3218   18.6838 C   0  0  0  0  0  0  0  0  0  0  0  0
  -19.3511  -17.8570   25.5979 C   0  0  0  0  0  0  0  0  0  0  0  0
  -21.8342  -18.7145   24.6785 C   0  0  0  0  0  0  0  0  0  0  0  0
  -26.3114  -22.8902   24.5258 C   0  0  0  0  0  0  0  0  0  0  0  0
  -26.3155  -11.5877   20.8373 C   0  0  0  0  0  0  0  0  0  0  0  0
  -26.1147  -12.0663   18.4777 C   0  0  0  0  0  0  0  0  0  0  0  0
  -27.4257  -23.0411   23.7015 C   0  0  0  0  0  0  0  0  0  0  0  0
  -24.5783   -8.3965   20.9880 C   0  0  0  0  0  0  0  0  0  0  0  0
  -23.5925   -7.9767   21.8811 C   0  0  0  0  0  0  0  0  0  0  0  0
  -26.1876  -24.5837   22.3206 C   0  0  0  0  0  0  0  0  0  0  0  0
  -22.2345   -9.8816   21.2775 C   0  0  0  0  0  0  0  0  0  0  0  0
  -27.0726  -13.7103   19.9666 C   0  0  0  0  0  0  0  0  0  0  0  0
  -29.0302  -15.3379   20.1293 C   0  0  0  0  0  0  0  0  0  0  0  0
  -19.4234  -18.9784   24.7567 C   0  0  0  0  0  0  0  0  0  0  0  0
  -25.1215  -23.5777   24.2470 C   0  0  0  0  0  0  0  0  0  0  0  0
  -20.6777  -19.4075   24.2822 C   0  0  0  0  0  0  0  0  0  0  0  0
  -25.0606  -24.4418   23.1444 C   0  0  0  0  0  0  0  0  0  0  0  0
  -30.5711  -24.4863   18.5073 C   0  0  0  0  0  0  0  0  0  0  0  0
  -28.8689  -24.1122   16.8499 C   0  0  0  0  0  0  0  0  0  0  0  0
  -25.9293  -11.1992   19.5545 C   0  0  0  0  0  0  0  0  0  0  0  0
  -27.3630  -23.8857   22.5970 C   0  0  0  0  0  0  0  0  0  0  0  0
  -24.3923   -9.5590   20.2398 C   0  0  0  0  0  0  0  0  0  0  0  0
  -22.4206   -8.7192   22.0258 C   0  0  0  0  0  0  0  0  0  0  0  0
  -23.2204  -10.3015   20.3845 C   0  0  0  0  0  0  0  0  0  0  0  0
  -30.0338  -24.7553   17.2534 C   0  0  0  0  0  0  0  0  0  0  0  0
  -27.6626  -15.0076   20.1788 C   0  0  0  0  0  0  0  0  0  0  0  0
  -29.9108  -23.5733   19.3136 C   0  0  0  0  0  0  0  0  0  0  0  0
  -28.2849  -23.2158   17.7303 C   0  0  0  0  0  0  0  0  0  0  0  0
  -29.0681  -16.6842   20.3983 C   0  0  0  0  0  0  0  0  0  0  0  0
  -30.1647  -14.5025   19.8637 C   0  0  0  0  0  0  0  0  0  0  0  0
  -22.1463  -22.7147   23.5348 C   0  0  0  0  0  0  0  0  0  0  0  0
  -21.5806  -25.9001   23.7705 C   0  0  0  0  0  0  0  0  0  0  0  0
  -22.8127  -29.0796   23.6305 C   0  0  0  0  0  0  0  0  0  0  0  0
  -26.0485  -21.5250   19.4168 C   0  0  0  0  0  0  0  0  0  0  0  0
  -18.1420  -19.6505   24.3311 C   0  0  0  0  0  0  0  0  0  0  0  0
  -23.9369  -23.4248   25.1613 C   0  0  0  0  0  0  0  0  0  0  0  0
  -23.8131  -25.2182   22.8132 C   0  0  0  0  0  0  0  0  0  0  0  0
  -18.3518  -21.0405   23.7360 C   0  0  0  0  0  0  0  0  0  0  0  0
  -26.0000  -19.8895   22.5790 C   0  0  0  0  0  0  0  0  0  0  0  0
  -19.4909  -21.0206   22.7217 C   0  0  0  0  0  0  0  0  0  0  0  0
  -26.5509  -18.4946   22.2778 C   0  0  0  0  0  0  0  0  0  0  0  0
  -25.1361  -20.4143   21.4343 C   0  0  0  0  0  0  0  0  0  0  0  0
  -26.3367  -19.0032   19.8092 C   0  0  0  0  0  0  0  0  0  0  0  0
  -20.8136  -20.6189   23.3854 C   0  0  1  0  0  0  0  0  0  0  0  0
  -22.6137  -23.7773   24.4888 C   0  0  1  0  0  0  0  0  0  0  0  0
  -27.2599  -18.4548   20.9107 C   0  0  2  0  0  0  0  0  0  0  0  0
  -31.8194  -25.1512   18.9867 C   0  0  0  0  0  0  0  0  0  0  0  0
  -28.2524  -24.3676   15.5142 C   0  0  0  0  0  0  0  0  0  0  0  0
  -22.1017  -31.4781   23.8273 C   0  0  0  0  0  0  0  0  0  0  0  0
  -20.3443  -25.7597   20.9845 C   0  0  0  0  0  0  0  0  0  0  0  0
  -20.5288  -28.2531   20.8531 C   0  0  0  0  0  0  0  0  0  0  0  0
  -19.1003  -27.2006   22.6065 C   0  0  0  0  0  0  0  0  0  0  0  0
  -24.6017  -29.5410   25.9425 C   0  0  0  0  0  0  0  0  0  0  0  0
  -30.4442  -23.2402   20.6857 C   0  0  0  0  0  0  0  0  0  0  0  0
  -27.0313  -22.4952   17.3547 C   0  0  0  0  0  0  0  0  0  0  0  0
  -29.3318  -22.9188   21.6779 C   0  0  0  0  0  0  0  0  0  1  0  0
  -21.6166  -27.0660   22.8123 C   0  0  1  0  0  0  0  0  0  0  0  0
  -22.6488  -30.2654   24.5640 C   0  0  2  0  0  0  0  0  0  0  0  0
  -20.4205  -27.0539   21.8190 C   0  0  0  0  0  0  0  0  0  0  0  0
  -26.8879  -16.0593   20.4576 N   0  0  0  0  0  0  0  0  0  0  0  0
  -28.7774  -22.9288   18.9561 N   0  0  0  0  0  0  0  0  0  0  0  0
  -27.7716  -17.0636   20.5857 N   0  0  0  0  0  0  0  0  0  0  0  0
  -22.6795  -25.0301   23.7336 N   0  0  0  0  0  0  0  0  0  0  0  0
  -25.8675  -20.3511   20.1666 N   0  0  0  0  0  0  0  0  0  0  0  0
  -30.0838  -17.5687   20.4906 N   0  0  0  0  0  0  0  0  0  0  0  0
  -29.9471  -13.1419   19.6070 N   0  0  0  0  0  0  0  0  0  0  0  0
  -21.3690  -21.7343   24.1215 N   0  0  0  0  0  0  0  0  0  0  0  0
  -21.6979  -28.2681   23.6350 N   0  0  0  0  0  0  0  0  0  0  0  0
  -26.7583  -21.3781   18.2313 N   0  0  0  0  0  0  0  0  0  0  0  0
  -23.9604  -30.6344   25.1678 N   0  3  0  0  0  0  0  0  0  0  0  0
  -31.3381  -14.9459   19.8706 O   0  0  0  0  0  0  0  0  0  0  0  0
  -22.4659  -22.7802   22.3536 O   0  0  0  0  0  0  0  0  0  0  0  0
  -20.6165  -25.7701   24.5289 O   0  0  0  0  0  0  0  0  0  0  0  0
  -23.8267  -28.8938   22.9612 O   0  0  0  0  0  0  0  0  0  0  0  0
  -25.6148  -22.6237   19.7798 O   0  0  0  0  0  0  0  0  0  0  0  0
  -25.3716   -9.9741   19.3530 O   0  0  0  0  0  0  0  0  0  0  0  0
  -28.4489  -24.0342   21.7904 O   0  0  0  0  0  0  0  0  0  1  0  0
  -21.4733   -8.3151   22.8823 F   0  0  0  0  0  0  0  0  0  0  0  0
  -23.0354  -11.4184   19.6675 F   0  0  0  0  0  0  0  0  0  0  0  0
  -30.8118  -25.8869   16.1989 Cl  0  0  0  0  0  0  0  0  0  0  0  0
  1  2  1  0  0  0  0
  1  5  2  0  0  0  0
  2  6  2  0  0  0  0
  3  8  2  0  0  0  0
  3 15  1  0  0  0  0
  4  9  1  0  0  0  0
  4 15  2  0  0  0  0
  5 17  1  0  0  0  0
  6 19  1  0  0  0  0
  7 10  2  0  0  0  0
  7 18  1  0  0  0  0
  8 23  1  0  0  0  0
  9 23  2  0  0  0  0
 10 24  1  0  0  0  0
 11 12  2  0  0  0  0
 11 25  1  0  0  0  0
 12 26  1  0  0  0  0
 13 20  1  0  0  0  0
 13 24  2  0  0  0  0
 14 26  2  0  0  0  0
 14 27  1  0  0  0  0
 15 29  1  0  0  0  0
 16 29  1  0  0  0  0
 16 32  2  0  0  0  0
 16 33  1  0  0  0  0
 17 19  2  0  0  0  0
 17 38  1  0  0  0  0
 18 20  2  0  0  0  0
 18 39  1  0  0  0  0
 19 47  1  0  0  0  0
 20 40  1  0  0  0  0
 21 28  1  0  0  0  0
 21 30  2  0  0  0  0
 21 50  1  0  0  0  0
 22 28  2  0  0  0  0
 22 31  1  0  0  0  0
 22 51  1  0  0  0  0
 23 79  1  0  0  0  0
 24 80  1  0  0  0  0
 25 27  2  0  0  0  0
 25 79  1  0  0  0  0
 26 81  1  0  0  0  0
 27 82  1  0  0  0  0
 28 83  1  0  0  0  0
 29 63  2  0  0  0  0
 30 57  1  0  0  0  0
 30 64  1  0  0  0  0
 31 58  1  0  0  0  0
 31 64  2  0  0  0  0
 32 65  1  0  0  0  0
 32 68  1  0  0  0  0
 33 69  1  0  0  0  0
 33 74  2  0  0  0  0
 34 48  1  0  0  0  0
 34 70  1  0  0  0  0
 34 75  2  0  0  0  0
 35 60  1  0  0  0  0
 35 66  1  0  0  0  0
 35 76  2  0  0  0  0
 36 61  1  0  0  0  0
 36 71  1  0  0  0  0
 36 77  2  0  0  0  0
 37 67  1  0  0  0  0
 37 72  1  0  0  0  0
 37 78  2  0  0  0  0
 38 41  1  0  0  0  0
 39 48  1  0  0  0  0
 40 66  1  0  0  0  0
 41 43  1  0  0  0  0
 42 44  1  0  0  0  0
 42 45  1  0  0  0  0
 43 47  1  0  0  0  0
 44 49  1  0  0  0  0
 45 67  1  0  0  0  0
 46 49  1  0  0  0  0
 46 67  1  0  0  0  0
 47 70  1  0  0  0  0
 48 66  1  0  0  0  0
 49 65  1  0  0  0  0
 52 61  1  0  0  0  0
 53 62  1  0  0  0  0
 54 62  1  0  0  0  0
 55 62  1  0  0  0  0
 56 73  1  0  0  0  0
 57 59  1  0  0  0  0
 58 72  1  0  0  0  0
 59 80  1  0  0  0  0
 60 62  1  0  0  0  0
 60 71  1  0  0  0  0
 61 73  1  0  0  0  0
 63 65  1  0  0  0  0
M  CHG  1  73   1
M  ISO  4  37 100  59 101  72 100  80 101
M  END
> <Batch ID>
0026

> <Smiles>
CNC(C)C(=O)NC(C(=O)N1Cc2cc([101O:1][101CH2:1]Cc3nc(C[100NH:0][100C:0](=O)N4CCCC(n5nc(-c6ccc(Oc7ccc(F)cc7F)cc6)c(C(N)=O)c5N)C4)c(C)c(Cl)c3C)ccc2CC1C(=O)NC1CCCc2ccccc21)C(C)(C)C

> <Shape>
0.195

> <Color>
0.084

> <Negative vol penalty>
0.000

$$$$

  -OEChem-04052316273D

 91 99  0     1  0  0  0  0  0999 V2000
  -21.4145  -12.4102   21.1319 C   0  0  0  0  0  0  0  0  0  0  0  0
  -21.6878  -13.5578   21.8692 C   0  0  0  0  0  0  0  0  0  0  0  0
  -23.4591  -26.2939   21.1358 C   0  0  0  0  0  0  0  0  0  0  0  0
  -23.3238  -28.5369   22.0232 C   0  0  0  0  0  0  0  0  0  0  0  0
  -22.4434  -11.7558   20.4559 C   0  0  0  0  0  0  0  0  0  0  0  0
  -22.9905  -14.0512   21.9319 C   0  0  0  0  0  0  0  0  0  0  0  0
  -23.1989  -19.0718   21.3037 C   0  0  0  0  0  0  0  0  0  0  0  0
  -22.2932  -25.9524   21.8211 C   0  0  0  0  0  0  0  0  0  0  0  0
  -22.1578  -28.1955   22.7084 C   0  0  0  0  0  0  0  0  0  0  0  0
  -22.8536  -19.8652   22.3969 C   0  0  0  0  0  0  0  0  0  0  0  0
  -18.8780  -27.7990   21.9970 C   0  0  0  0  0  0  0  0  0  0  0  0
  -17.8111  -28.6960   21.9446 C   0  0  0  0  0  0  0  0  0  0  0  0
  -25.1922  -20.2007   22.8844 C   0  0  0  0  0  0  0  0  0  0  0  0
  -25.5445  -27.9840   28.3911 C   0  0  0  0  0  0  0  0  0  0  0  0
  -24.5916  -27.7949   25.7760 C   0  0  0  0  0  0  0  0  0  0  0  0
  -17.8781  -28.9161   24.3497 C   0  0  0  0  0  0  0  0  0  0  0  0
  -23.9745  -27.5861   21.2369 C   0  0  0  0  0  0  0  0  0  0  0  0
  -25.2776  -28.4612   19.2260 C   0  0  0  0  0  0  0  0  0  0  0  0
  -23.7577  -12.2469   20.5024 C   0  0  0  0  0  0  0  0  0  0  0  0
  -24.5457  -18.8276   20.9986 C   0  0  0  0  0  0  0  0  0  0  0  0
  -24.0382  -13.4020   21.2570 C   0  0  0  0  0  0  0  0  0  0  0  0
  -25.5520  -19.4060   21.7853 C   0  0  0  0  0  0  0  0  0  0  0  0
  -25.7248  -29.0457   27.5047 C   0  0  0  0  0  0  0  0  0  0  0  0
  -21.6425  -26.9032   22.6073 C   0  0  0  0  0  0  0  0  0  0  0  0
  -23.8502  -20.4274   23.1892 C   0  0  0  0  0  0  0  0  0  0  0  0
  -19.4450  -27.4605   23.2257 C   0  0  0  0  0  0  0  0  0  0  0  0
  -24.4113  -26.7332   26.6624 C   0  0  0  0  0  0  0  0  0  0  0  0
  -17.3112  -29.2545   23.1209 C   0  0  0  0  0  0  0  0  0  0  0  0
  -18.9450  -28.0191   24.4020 C   0  0  0  0  0  0  0  0  0  0  0  0
  -24.8877  -26.8276   27.9700 C   0  0  0  0  0  0  0  0  0  0  0  0
  -25.2484  -28.9512   26.1972 C   0  0  0  0  0  0  0  0  0  0  0  0
  -25.1792  -27.9393   20.5297 C   0  0  0  0  0  0  0  0  0  0  0  0
  -26.6261  -28.6240   19.0222 C   0  0  0  0  0  0  0  0  0  0  0  0
  -24.2426  -28.7711   18.2834 C   0  0  0  0  0  0  0  0  0  0  0  0
  -26.3762  -16.2335   20.8450 C   0  0  0  0  0  0  0  0  0  0  0  0
  -23.6914  -23.4085   25.2369 C   0  0  0  0  0  0  0  0  0  0  0  0
  -28.5748  -18.3282   19.7046 C   0  0  0  0  0  0  0  0  0  0  0  0
  -29.6797  -21.5515   19.5145 C   0  0  0  0  0  0  0  0  0  0  0  0
  -31.2455  -29.4219   22.7472 C   0  0  0  0  0  0  0  0  0  0  0  0
  -24.8452  -11.4785   19.7941 C   0  0  0  0  0  0  0  0  0  0  0  0
  -24.9018  -17.9914   19.8001 C   0  0  0  0  0  0  0  0  0  0  0  0
  -27.0128  -19.1911   21.4881 C   0  0  0  0  0  0  0  0  0  0  0  0
  -26.1317  -12.2782   19.6049 C   0  0  0  0  0  0  0  0  0  0  0  0
  -30.8571  -26.8236   20.3443 C   0  0  0  0  0  0  0  0  0  0  0  0
  -26.5170  -12.9840   20.9011 C   0  0  0  0  0  0  0  0  0  0  0  0
  -29.3668  -26.8619   20.0017 C   0  0  0  0  0  0  0  0  0  0  0  0
  -31.1051  -27.1292   21.8198 C   0  0  0  0  0  0  0  0  0  0  0  0
  -29.0136  -28.4255   21.9586 C   0  0  0  0  0  0  0  0  0  0  0  0
  -25.4342  -13.9819   21.3289 C   0  0  1  0  0  0  0  0  0  0  0  0
  -26.3004  -17.3882   19.8867 C   0  0  1  0  0  0  0  0  0  0  0  0
  -28.7176  -28.1784   20.4694 C   0  0  2  0  0  0  0  0  0  0  0  0
  -31.5244  -22.9474   18.5420 C   0  0  0  0  0  0  0  0  0  0  0  0
  -30.4774  -17.3133   21.8634 C   0  0  0  0  0  0  0  0  0  0  0  0
  -31.8931  -19.3406   21.4706 C   0  0  0  0  0  0  0  0  0  0  0  0
  -31.5395  -17.6930   19.6313 C   0  0  0  0  0  0  0  0  0  0  0  0
  -27.7794  -23.1462   17.9005 C   0  0  0  0  0  0  0  0  0  0  0  0
  -26.4332  -30.2668   27.9955 C   0  0  0  0  0  0  0  0  0  0  0  0
  -24.4280  -22.2377   24.6192 C   0  0  0  0  0  0  0  0  0  1  0  0
  -24.5505  -24.5861   25.6491 C   0  0  0  0  0  0  0  0  0  0  0  0
  -29.8606  -31.6524   25.7813 C   0  0  0  0  0  0  0  0  0  0  0  0
  -31.2617  -31.7029   25.1647 C   0  0  0  0  0  0  0  0  0  0  0  0
  -29.9273  -31.6321   27.3095 C   0  0  0  0  0  0  0  0  0  0  0  0
  -31.2280  -31.7375   23.6400 C   0  0  0  0  0  0  0  0  0  0  0  0
  -28.5325  -31.6180   27.9170 C   0  0  0  0  0  0  0  0  0  0  0  0
  -29.6359  -19.2064   20.3226 C   0  0  1  0  0  0  0  0  0  0  0  0
  -30.1223  -22.3966   18.3337 C   0  0  2  0  0  0  0  0  0  0  0  0
  -30.8590  -18.3910   20.8290 C   0  0  0  0  0  0  0  0  0  0  0  0
  -26.3703  -27.7809   21.1130 N   0  0  0  0  0  0  0  0  0  0  0  0
  -27.2299  -28.2057   20.1714 N   0  0  0  0  0  0  0  0  0  0  0  0
  -27.3102  -18.3608   20.3093 N   0  0  0  0  0  0  0  0  0  0  0  0
  -30.4648  -28.3911   22.1988 N   0  0  0  0  0  0  0  0  0  0  0  0
  -27.3424  -29.0827   17.9740 N   0  0  0  0  0  0  0  0  0  0  0  0
  -22.9106  -28.5430   18.6547 N   0  0  0  0  0  0  0  0  0  0  0  0
  -25.5214  -15.1917   20.5393 N   0  0  0  0  0  0  0  0  0  0  0  0
  -29.9638  -20.2160   19.3218 N   0  0  0  0  0  0  0  0  0  0  0  0
  -30.5612  -30.5866   23.0729 N   0  0  0  0  0  0  0  0  0  0  0  0
  -29.1908  -23.5435   18.1394 N   0  3  0  0  0  0  0  0  0  0  0  0
  -27.8269  -30.3819   27.4877 N   0  3  0  0  0  0  0  0  0  0  0  0
  -24.4926  -29.2211   17.1395 O   0  0  0  0  0  0  0  0  0  0  0  0
  -27.1536  -16.2833   21.7909 O   0  0  0  0  0  0  0  0  0  0  0  0
  -22.4714  -23.4029   25.3944 O   0  0  0  0  0  0  0  0  0  0  0  0
  -28.8556  -17.6440   18.7174 O   0  0  0  0  0  0  0  0  0  0  0  0
  -29.1396  -22.0288   20.5100 O   0  0  0  0  0  0  0  0  0  0  0  0
  -32.4632  -29.3144   22.9280 O   0  0  0  0  0  0  0  0  0  0  0  0
  -20.5047  -26.5705   23.2760 O   0  0  0  0  0  0  0  0  0  0  0  0
  -23.5159  -21.2016   24.2572 O   0  0  0  0  0  0  0  0  0  1  0  0
  -23.7593  -25.6060   26.2214 O   0  0  0  0  0  0  0  0  0  0  0  0
  -16.2876  -30.1171   23.0703 F   0  0  0  0  0  0  0  0  0  0  0  0
  -19.4863  -27.6986   25.5853 F   0  0  0  0  0  0  0  0  0  0  0  0
  -24.6765  -25.5298   29.0868 Cl  0  0  0  0  0  0  0  0  0  0  0  0
  -25.4544  -30.2445   25.0729 Cl  0  0  0  0  0  0  0  0  0  0  0  0
  1  2  1  0  0  0  0
  1  5  2  0  0  0  0
  2  6  2  0  0  0  0
  3  8  2  0  0  0  0
  3 17  1  0  0  0  0
  4  9  1  0  0  0  0
  4 17  2  0  0  0  0
  5 19  1  0  0  0  0
  6 21  1  0  0  0  0
  7 10  2  0  0  0  0
  7 20  1  0  0  0  0
  8 24  1  0  0  0  0
  9 24  2  0  0  0  0
 10 25  1  0  0  0  0
 11 12  2  0  0  0  0
 11 26  1  0  0  0  0
 12 28  1  0  0  0  0
 13 22  1  0  0  0  0
 13 25  2  0  0  0  0
 14 23  2  0  0  0  0
 14 30  1  0  0  0  0
 15 27  1  0  0  0  0
 15 31  2  0  0  0  0
 16 28  2  0  0  0  0
 16 29  1  0  0  0  0
 17 32  1  0  0  0  0
 18 32  1  0  0  0  0
 18 33  2  0  0  0  0
 18 34  1  0  0  0  0
 19 21  2  0  0  0  0
 19 40  1  0  0  0  0
 20 22  2  0  0  0  0
 20 41  1  0  0  0  0
 21 49  1  0  0  0  0
 22 42  1  0  0  0  0
 23 31  1  0  0  0  0
 23 57  1  0  0  0  0
 24 85  1  0  0  0  0
 25 86  1  0  0  0  0
 26 29  2  0  0  0  0
 26 85  1  0  0  0  0
 27 30  2  0  0  0  0
 27 87  1  0  0  0  0
 28 88  1  0  0  0  0
 29 89  1  0  0  0  0
 30 90  1  0  0  0  0
 31 91  1  0  0  0  0
 32 68  2  0  0  0  0
 33 69  1  0  0  0  0
 33 72  1  0  0  0  0
 34 73  1  0  0  0  0
 34 79  2  0  0  0  0
 35 50  1  0  0  0  0
 35 74  1  0  0  0  0
 35 80  2  0  0  0  0
 36 58  1  0  0  0  0
 36 59  1  0  0  0  0
 36 81  2  0  0  0  0
 37 65  1  0  0  0  0
 37 70  1  0  0  0  0
 37 82  2  0  0  0  0
 38 66  1  0  0  0  0
 38 75  1  0  0  0  0
 38 83  2  0  0  0  0
 39 71  1  0  0  0  0
 39 76  1  0  0  0  0
 39 84  2  0  0  0  0
 40 43  1  0  0  0  0
 41 50  1  0  0  0  0
 42 70  1  0  0  0  0
 43 45  1  0  0  0  0
 44 46  1  0  0  0  0
 44 47  1  0  0  0  0
 45 49  1  0  0  0  0
 46 51  1  0  0  0  0
 47 71  1  0  0  0  0
 48 51  1  0  0  0  0
 48 71  1  0  0  0  0
 49 74  1  0  0  0  0
 50 70  1  0  0  0  0
 51 69  1  0  0  0  0
 52 66  1  0  0  0  0
 53 67  1  0  0  0  0
 54 67  1  0  0  0  0
 55 67  1  0  0  0  0
 56 77  1  0  0  0  0
 57 78  1  0  0  0  0
 58 86  1  0  0  0  0
 59 87  1  0  0  0  0
 60 61  1  0  0  0  0
 60 62  1  0  0  0  0
 61 63  1  0  0  0  0
 62 64  1  0  0  0  0
 63 76  1  0  0  0  0
 64 78  1  0  0  0  0
 65 67  1  0  0  0  0
 65 75  1  0  0  0  0
 66 77  1  0  0  0  0
 68 69  1  0  0  0  0
M  CHG  2  77   1  78   1
M  ISO  4  39 100  58 101  76 100  86 101
M  END
> <Batch ID>
0026

> <Smiles>
CNC(C)C(=O)NC(C(=O)N1Cc2cc([101O:1][101CH2:1]C(=O)COc3cc(Cl)c(CNCCCCC[100NH:0][100C:0](=O)N4CCCC(n5nc(-c6ccc(Oc7ccc(F)cc7F)cc6)c(C(N)=O)c5N)C4)cc3Cl)ccc2CC1C(=O)NC1CCCc2ccccc21)C(C)(C)C

> <Shape>
0.247

> <Color>
0.063

> <Negative vol penalty>
0.000

$$$$

  -OEChem-04052316273D

 95105  0     1  0  0  0  0  0999 V2000
  -16.1609  -28.0699   24.7733 C   0  0  0  0  0  0  0  0  0  0  0  0
  -17.5370  -27.8924   24.8740 C   0  0  0  0  0  0  0  0  0  0  0  0
  -25.2365   -8.6868   22.1581 C   0  0  0  0  0  0  0  0  0  0  0  0
  -25.1520   -7.8529   19.8922 C   0  0  0  0  0  0  0  0  0  0  0  0
  -15.6346  -28.8697   23.7597 C   0  0  0  0  0  0  0  0  0  0  0  0
  -18.3877  -28.5139   23.9605 C   0  0  0  0  0  0  0  0  0  0  0  0
  -22.3937  -30.6654   26.1894 C   0  0  0  0  0  0  0  0  0  0  0  0
  -23.8929   -8.3545   22.3305 C   0  0  0  0  0  0  0  0  0  0  0  0
  -23.8083   -7.5206   20.0646 C   0  0  0  0  0  0  0  0  0  0  0  0
  -23.4356  -29.8236   26.5760 C   0  0  0  0  0  0  0  0  0  0  0  0
  -22.0742   -5.5711   22.9449 C   0  0  0  0  0  0  0  0  0  0  0  0
  -21.7130   -4.9233   24.1263 C   0  0  0  0  0  0  0  0  0  0  0  0
  -24.6665  -30.4485   24.5976 C   0  0  0  0  0  0  0  0  0  0  0  0
  -20.2205   -6.7443   24.6684 C   0  0  0  0  0  0  0  0  0  0  0  0
  -25.8661   -8.4360   20.9389 C   0  0  0  0  0  0  0  0  0  0  0  0
  -28.3718   -7.9637   21.0184 C   0  0  0  0  0  0  0  0  0  0  0  0
  -16.4799  -29.5091   22.8392 C   0  0  0  0  0  0  0  0  0  0  0  0
  -22.4758  -31.3980   24.9965 C   0  0  0  0  0  0  0  0  0  0  0  0
  -17.8722  -29.3220   22.9329 C   0  0  0  0  0  0  0  0  0  0  0  0
  -23.6254  -31.3008   24.1994 C   0  0  0  0  0  0  0  0  0  0  0  0
  -28.3391  -18.8673   22.8503 C   0  0  0  0  0  0  0  0  0  0  0  0
  -28.2889  -21.0164   21.7477 C   0  0  0  0  0  0  0  0  0  0  0  0
  -27.6888  -21.5802   22.8737 C   0  0  0  0  0  0  0  0  0  0  0  0
  -23.1788   -7.7715   21.2838 C   0  0  0  0  0  0  0  0  0  0  0  0
  -24.5710  -29.7128   25.7786 C   0  0  0  0  0  0  0  0  0  0  0  0
  -21.5086   -6.8055   22.6253 C   0  0  0  0  0  0  0  0  0  0  0  0
  -20.7861   -5.5099   24.9880 C   0  0  0  0  0  0  0  0  0  0  0  0
  -20.5818   -7.3920   23.4870 C   0  0  0  0  0  0  0  0  0  0  0  0
  -28.6139  -19.6600   21.7360 C   0  0  0  0  0  0  0  0  0  0  0  0
  -27.7390  -19.4311   23.9763 C   0  0  0  0  0  0  0  0  0  0  0  0
  -27.4139  -20.7875   23.9880 C   0  0  0  0  0  0  0  0  0  0  0  0
  -27.2540   -8.7796   20.7600 C   0  0  0  0  0  0  0  0  0  0  0  0
  -29.4514   -8.7463   20.6892 C   0  0  0  0  0  0  0  0  0  0  0  0
  -28.4290   -6.6187   21.5116 C   0  0  0  0  0  0  0  0  0  0  0  0
  -20.8022  -31.4812   22.2954 C   0  0  0  0  0  0  0  0  0  0  0  0
  -22.7471  -33.9890   21.6243 C   0  0  0  0  0  0  0  0  0  0  0  0
  -25.7178  -35.5781   22.1687 C   0  0  0  0  0  0  0  0  0  0  0  0
  -30.4331  -14.5284   20.4669 C   0  0  0  0  0  0  0  0  0  0  0  0
  -15.8620  -30.3259   21.7321 C   0  0  0  0  0  0  0  0  0  0  0  0
  -21.3548  -32.3221   24.6070 C   0  0  0  0  0  0  0  0  0  0  0  0
  -23.7714  -32.0815   22.9197 C   0  0  0  0  0  0  0  0  0  0  0  0
  -16.8536  -31.2513   21.0316 C   0  0  0  0  0  0  0  0  0  0  0  0
  -30.7497  -12.3341   17.8149 C   0  0  0  0  0  0  0  0  0  0  0  0
  -18.1408  -30.5025   20.7013 C   0  0  0  0  0  0  0  0  0  0  0  0
  -26.8986  -26.0049   23.2493 C   0  0  0  0  0  0  0  0  0  0  0  0
  -28.3244  -24.9640   25.0575 C   0  0  0  0  0  0  0  0  0  0  0  0
  -30.0020  -11.0864   18.2844 C   0  0  0  0  0  0  0  0  0  0  0  0
  -27.7216  -25.2852   22.1803 C   0  0  0  0  0  0  0  0  0  0  0  0
  -29.1425  -24.2316   23.9928 C   0  0  0  0  0  0  0  0  0  0  0  0
  -27.9251  -16.6261   21.7426 C   0  0  0  0  0  0  0  0  0  0  0  0
  -30.2104  -17.1659   22.6890 C   0  0  0  0  0  0  0  0  0  0  0  0
  -30.0008  -13.6008   18.2122 C   0  0  0  0  0  0  0  0  0  0  0  0
  -28.3128  -15.1450   21.7099 C   0  0  0  0  0  0  0  0  0  0  0  0
  -30.5335  -15.6749   22.6588 C   0  0  0  0  0  0  0  0  0  0  0  0
  -28.9861  -12.4682   20.1630 C   0  0  0  0  0  0  0  0  0  0  0  0
  -28.6946  -17.3926   22.8334 C   0  0  0  0  0  0  0  0  0  0  0  0
  -18.8290  -29.9995   21.9759 C   0  0  1  0  0  0  0  0  0  0  0  0
  -21.3248  -32.6285   23.1128 C   0  0  1  0  0  0  0  0  0  0  0  0
  -27.7217  -26.2667   24.5168 C   0  0  0  0  0  0  0  0  0  0  0  0
  -29.7047  -11.1548   19.7928 C   0  0  1  0  0  0  0  0  0  0  0  0
  -28.3592  -23.9938   22.6986 C   0  0  0  0  0  0  0  0  0  0  0  0
  -28.5782  -21.8801   20.5573 C   0  0  0  0  0  0  0  0  0  0  0  0
  -27.0390  -37.5859   21.4470 C   0  0  0  0  0  0  0  0  0  0  0  0
  -23.4459  -32.5853   19.0068 C   0  0  0  0  0  0  0  0  0  0  0  0
  -25.4195  -34.1114   18.7962 C   0  0  0  0  0  0  0  0  0  0  0  0
  -23.1106  -35.0557   18.8086 C   0  0  0  0  0  0  0  0  0  0  0  0
  -25.7480  -36.6887   24.9118 C   0  0  0  0  0  0  0  0  0  0  0  0
  -26.8665  -26.9484   25.5833 C   0  0  0  0  0  0  0  0  0  0  0  0
  -26.3667  -28.3022   25.1140 C   0  0  0  0  0  0  0  0  0  1  0  0
  -24.0911  -34.1506   20.9561 C   0  0  1  0  0  0  0  0  0  0  0  0
  -26.0444  -37.0326   22.4556 C   0  0  2  0  0  0  0  0  0  0  0  0
  -24.0135  -33.9594   19.4150 C   0  0  0  0  0  0  0  0  0  0  0  0
  -27.5923   -9.9879   20.3023 N   0  0  0  0  0  0  0  0  0  0  0  0
  -28.9348   -9.9371   20.2704 N   0  0  0  0  0  0  0  0  0  0  0  0
  -22.6455  -32.9667   22.5786 N   0  0  0  0  0  0  0  0  0  0  0  0
  -29.7344  -13.6265   19.6503 N   0  0  0  0  0  0  0  0  0  0  0  0
  -29.7712  -14.9921   21.6138 N   0  0  0  0  0  0  0  0  0  0  0  0
  -30.7828   -8.5252   20.7202 N   0  0  0  0  0  0  0  0  0  0  0  0
  -27.2254   -5.9608   21.7994 N   0  0  0  0  0  0  0  0  0  0  0  0
  -27.3650  -22.9590   22.8691 N   0  0  0  0  0  0  0  0  0  0  0  0
  -19.5235  -31.0836   22.6368 N   0  0  0  0  0  0  0  0  0  0  0  0
  -24.5996  -35.4534   21.3717 N   0  0  0  0  0  0  0  0  0  0  0  0
  -26.6301  -37.1728   23.8188 N   0  3  0  0  0  0  0  0  0  0  0  0
  -29.5159   -6.0238   21.7074 O   0  0  0  0  0  0  0  0  0  0  0  0
  -21.5062  -30.9937   21.4189 O   0  0  0  0  0  0  0  0  0  0  0  0
  -21.8236  -34.7465   21.3164 O   0  0  0  0  0  0  0  0  0  0  0  0
  -26.3899  -34.6460   22.6046 O   0  0  0  0  0  0  0  0  0  0  0  0
  -31.5810  -14.8974   20.1888 O   0  0  0  0  0  0  0  0  0  0  0  0
  -21.8676   -7.4469   21.4517 O   0  0  0  0  0  0  0  0  0  0  0  0
  -25.5967  -28.8853   26.1561 O   0  0  0  0  0  0  0  0  0  1  0  0
  -20.4382   -4.8871   26.1216 F   0  0  0  0  0  0  0  0  0  0  0  0
  -20.0342   -8.5772   23.1848 F   0  0  0  0  0  0  0  0  0  0  0  0
  -29.3597  -18.9624   20.3346 Cl  0  0  0  0  0  0  0  0  0  0  0  0
  -27.4072  -18.4211   25.3511 Cl  0  0  0  0  0  0  0  0  0  0  0  0
  -26.6658  -21.5129   25.3799 Cl  0  0  0  0  0  0  0  0  0  0  0  0
  1  2  1  0  0  0  0
  1  5  2  0  0  0  0
  2  6  2  0  0  0  0
  3  8  2  0  0  0  0
  3 15  1  0  0  0  0
  4  9  1  0  0  0  0
  4 15  2  0  0  0  0
  5 17  1  0  0  0  0
  6 19  1  0  0  0  0
  7 10  2  0  0  0  0
  7 18  1  0  0  0  0
  8 24  1  0  0  0  0
  9 24  2  0  0  0  0
 10 25  1  0  0  0  0
 11 12  2  0  0  0  0
 11 26  1  0  0  0  0
 12 27  1  0  0  0  0
 13 20  1  0  0  0  0
 13 25  2  0  0  0  0
 14 27  2  0  0  0  0
 14 28  1  0  0  0  0
 15 32  1  0  0  0  0
 16 32  1  0  0  0  0
 16 33  2  0  0  0  0
 16 34  1  0  0  0  0
 17 19  2  0  0  0  0
 17 39  1  0  0  0  0
 18 20  2  0  0  0  0
 18 40  1  0  0  0  0
 19 57  1  0  0  0  0
 20 41  1  0  0  0  0
 21 29  1  0  0  0  0
 21 30  2  0  0  0  0
 21 56  1  0  0  0  0
 22 23  1  0  0  0  0
 22 29  2  0  0  0  0
 22 62  1  0  0  0  0
 23 31  2  0  0  0  0
 23 80  1  0  0  0  0
 24 89  1  0  0  0  0
 25 90  1  0  0  0  0
 26 28  2  0  0  0  0
 26 89  1  0  0  0  0
 27 91  1  0  0  0  0
 28 92  1  0  0  0  0
 29 93  1  0  0  0  0
 30 31  1  0  0  0  0
 30 94  1  0  0  0  0
 31 95  1  0  0  0  0
 32 73  2  0  0  0  0
 33 74  1  0  0  0  0
 33 78  1  0  0  0  0
 34 79  1  0  0  0  0
 34 84  2  0  0  0  0
 35 58  1  0  0  0  0
 35 81  1  0  0  0  0
 35 85  2  0  0  0  0
 36 70  1  0  0  0  0
 36 75  1  0  0  0  0
 36 86  2  0  0  0  0
 37 71  1  0  0  0  0
 37 82  1  0  0  0  0
 37 87  2  0  0  0  0
 38 76  1  0  0  0  0
 38 77  1  0  0  0  0
 38 88  2  0  0  0  0
 39 42  1  0  0  0  0
 40 58  1  0  0  0  0
 41 75  1  0  0  0  0
 42 44  1  0  0  0  0
 43 47  1  0  0  0  0
 43 52  1  0  0  0  0
 44 57  1  0  0  0  0
 45 48  1  0  0  0  0
 45 59  1  0  0  0  0
 46 49  1  0  0  0  0
 46 59  1  0  0  0  0
 47 60  1  0  0  0  0
 48 61  1  0  0  0  0
 49 61  1  0  0  0  0
 50 53  1  0  0  0  0
 50 56  1  0  0  0  0
 51 54  1  0  0  0  0
 51 56  1  0  0  0  0
 52 76  1  0  0  0  0
 53 77  1  0  0  0  0
 54 77  1  0  0  0  0
 55 60  1  0  0  0  0
 55 76  1  0  0  0  0
 57 81  1  0  0  0  0
 58 75  1  0  0  0  0
 59 68  1  0  0  0  0
 60 74  1  0  0  0  0
 61 80  1  0  0  0  0
 63 71  1  0  0  0  0
 64 72  1  0  0  0  0
 65 72  1  0  0  0  0
 66 72  1  0  0  0  0
 67 83  1  0  0  0  0
 68 69  1  0  0  0  0
 69 90  1  0  0  0  0
 70 72  1  0  0  0  0
 70 82  1  0  0  0  0
 71 83  1  0  0  0  0
 73 74  1  0  0  0  0
M  CHG  1  83   1
M  ISO  4  38 100  69 101  77 100  90 101
M  END
> <Batch ID>
0026

> <Smiles>
CNC(C)C(=O)NC(C(=O)N1Cc2cc([101O:1][101CH2:1]CC3CCC(Nc4c(C)c(Cl)c(C5CC[100N:0]([100C:0](=O)N6CCCC(n7nc(-c8ccc(Oc9ccc(F)cc9F)cc8)c(C(N)=O)c7N)C6)CC5)c(Cl)c4Cl)CC3)ccc2CC1C(=O)NC1CCCc2ccccc21)C(C)(C)C

> <Shape>
0.212

> <Color>
0.105

> <Negative vol penalty>
0.000

$$$$

  -OEChem-04052316273D

 92100  0     1  0  0  0  0  0999 V2000
  -28.2605  -31.1602   28.3739 C   0  0  0  0  0  0  0  0  0  0  0  0
  -28.0630  -30.1385   27.4506 C   0  0  0  0  0  0  0  0  0  0  0  0
  -23.0418   -9.8465   20.1075 C   0  0  0  0  0  0  0  0  0  0  0  0
  -23.7356  -10.0554   22.4123 C   0  0  0  0  0  0  0  0  0  0  0  0
  -27.3191  -32.1816   28.4936 C   0  0  0  0  0  0  0  0  0  0  0  0
  -26.9233  -30.1370   26.6472 C   0  0  0  0  0  0  0  0  0  0  0  0
  -26.5043  -28.1909   20.8556 C   0  0  0  0  0  0  0  0  0  0  0  0
  -22.2557   -8.7445   20.4439 C   0  0  0  0  0  0  0  0  0  0  0  0
  -22.9494   -8.9534   22.7488 C   0  0  0  0  0  0  0  0  0  0  0  0
  -26.0580  -26.9933   20.2984 C   0  0  0  0  0  0  0  0  0  0  0  0
  -19.2439   -8.1760   21.8717 C   0  0  0  0  0  0  0  0  0  0  0  0
  -17.9506   -8.1195   21.3522 C   0  0  0  0  0  0  0  0  0  0  0  0
  -23.8871  -27.9793   19.9326 C   0  0  0  0  0  0  0  0  0  0  0  0
  -24.2157  -18.6669   24.0901 C   0  0  0  0  0  0  0  0  0  0  0  0
  -18.4875   -6.0420   20.2419 C   0  0  0  0  0  0  0  0  0  0  0  0
  -23.7818  -10.5019   21.0916 C   0  0  0  0  0  0  0  0  0  0  0  0
  -24.2050  -12.9928   20.7394 C   0  0  0  0  0  0  0  0  0  0  0  0
  -26.1720  -32.1978   27.6845 C   0  0  0  0  0  0  0  0  0  0  0  0
  -25.6405  -29.2901   20.9656 C   0  0  0  0  0  0  0  0  0  0  0  0
  -25.9649  -31.1588   26.7571 C   0  0  0  0  0  0  0  0  0  0  0  0
  -24.3255  -29.1905   20.4892 C   0  0  0  0  0  0  0  0  0  0  0  0
  -24.8982  -19.1410   22.9698 C   0  0  0  0  0  0  0  0  0  0  0  0
  -27.0029  -18.5766   24.0132 C   0  0  0  0  0  0  0  0  0  0  0  0
  -22.2095   -8.2979   21.7646 C   0  0  0  0  0  0  0  0  0  0  0  0
  -24.7484  -26.8864   19.8395 C   0  0  0  0  0  0  0  0  0  0  0  0
  -20.1590   -7.1656   21.5762 C   0  0  0  0  0  0  0  0  0  0  0  0
  -17.5724   -7.0525   20.5374 C   0  0  0  0  0  0  0  0  0  0  0  0
  -19.7808   -6.0986   20.7613 C   0  0  0  0  0  0  0  0  0  0  0  0
  -24.9268  -18.1478   25.1720 C   0  0  0  0  0  0  0  0  0  0  0  0
  -26.2918  -19.0957   22.9313 C   0  0  0  0  0  0  0  0  0  0  0  0
  -26.3204  -18.1026   25.1335 C   0  0  0  0  0  0  0  0  0  0  0  0
  -24.5945  -11.6400   20.7446 C   0  0  0  0  0  0  0  0  0  0  0  0
  -25.3298  -13.6724   20.3401 C   0  0  0  0  0  0  0  0  0  0  0  0
  -22.9396  -13.5824   21.0664 C   0  0  0  0  0  0  0  0  0  0  0  0
  -24.4683  -30.9887   23.3831 C   0  0  0  0  0  0  0  0  0  0  0  0
  -23.2714  -32.8318   20.9972 C   0  0  0  0  0  0  0  0  0  0  0  0
  -22.2839  -33.0723   17.7394 C   0  0  0  0  0  0  0  0  0  0  0  0
  -30.8348  -14.5507   20.6019 C   0  0  0  0  0  0  0  0  0  0  0  0
  -25.1590  -33.2974   27.8831 C   0  0  0  0  0  0  0  0  0  0  0  0
  -26.1451  -30.5834   21.5446 C   0  0  0  0  0  0  0  0  0  0  0  0
  -23.3646  -30.3478   20.5657 C   0  0  0  0  0  0  0  0  0  0  0  0
  -24.1636  -33.4236   26.7327 C   0  0  0  0  0  0  0  0  0  0  0  0
  -29.6927  -11.9780   18.4217 C   0  0  0  0  0  0  0  0  0  0  0  0
  -23.6252  -32.0516   26.3397 C   0  0  0  0  0  0  0  0  0  0  0  0
  -28.2350  -11.7683   18.8354 C   0  0  0  0  0  0  0  0  0  0  0  0
  -30.5815  -12.2889   19.6239 C   0  0  0  0  0  0  0  0  0  0  0  0
  -28.6644  -13.2045   20.8730 C   0  0  0  0  0  0  0  0  0  0  0  0
  -24.7535  -31.1356   25.8505 C   0  0  1  0  0  0  0  0  0  0  0  0
  -25.0281  -31.4759   22.0766 C   0  0  1  0  0  0  0  0  0  0  0  0
  -27.7194  -12.9435   19.6876 C   0  0  2  0  0  0  0  0  0  0  0  0
  -21.3147  -34.6958   16.0894 C   0  0  0  0  0  0  0  0  0  0  0  0
  -30.7593  -17.7910   20.4680 C   0  0  0  0  0  0  0  0  0  0  0  0
  -31.0522  -16.6639   24.1840 C   0  0  0  0  0  0  0  0  0  0  0  0
  -20.5271  -32.5034   22.2897 C   0  0  0  0  0  0  0  0  0  0  0  0
  -19.5011  -33.3044   20.1510 C   0  0  0  0  0  0  0  0  0  0  0  0
  -21.0139  -34.8068   21.4460 C   0  0  0  0  0  0  0  0  0  0  0  0
  -24.6547  -32.8769   15.9787 C   0  0  0  0  0  0  0  0  0  0  0  0
  -24.0914  -19.6896   21.8301 C   0  0  0  0  0  0  0  0  0  0  0  0
  -28.5011  -18.5295   23.9677 C   0  0  0  0  0  0  0  0  0  0  0  0
  -23.5374  -23.2611   20.6140 C   0  0  0  0  0  0  0  0  0  0  0  0
  -22.7550  -23.8992   19.4687 C   0  0  0  0  0  0  0  0  0  0  0  0
  -23.3927  -21.7466   20.5975 C   0  0  0  0  0  0  0  0  0  0  0  0
  -22.9246  -25.4117   19.4461 C   0  0  0  0  0  0  0  0  0  1  0  0
  -21.9942  -32.8422   20.1924 C   0  0  1  0  0  0  0  0  0  0  0  0
  -22.5902  -34.1025   16.6674 C   0  0  2  0  0  0  0  0  0  0  0  0
  -30.9319  -16.8087   21.6271 C   0  0  1  0  0  0  0  0  0  0  0  0
  -30.5069  -17.4192   22.9763 C   0  0  1  0  0  0  0  0  0  0  0  0
  -20.7764  -33.3416   21.0200 C   0  0  0  0  0  0  0  0  0  0  0  0
  -25.8672  -11.4685   20.3775 N   0  0  0  0  0  0  0  0  0  0  0  0
  -26.2872  -12.7224   20.1379 N   0  0  0  0  0  0  0  0  0  0  0  0
  -23.9033  -31.5891   21.1459 N   0  0  0  0  0  0  0  0  0  0  0  0
  -30.0379  -13.4138   20.3888 N   0  0  0  0  0  0  0  0  0  0  0  0
  -25.5834  -14.9840   20.1457 N   0  0  0  0  0  0  0  0  0  0  0  0
  -21.8908  -12.7391   21.4577 N   0  0  0  0  0  0  0  0  0  0  0  0
  -25.1288  -31.4758   24.4948 N   0  0  0  0  0  0  0  0  0  0  0  0
  -22.2705  -33.6339   18.9986 N   0  0  0  0  0  0  0  0  0  0  0  0
  -30.2409  -15.5735   21.3312 N   0  0  0  0  0  0  0  0  0  0  0  0
  -23.3643  -33.4798   15.5565 N   0  3  0  0  0  0  0  0  0  0  0  0
  -24.1298  -21.1757   21.7504 N   0  3  0  0  0  0  0  0  0  0  0  0
  -29.0239  -17.4540   23.0859 N   0  3  0  0  0  0  0  0  0  0  0  0
  -22.7401  -14.8189   20.9973 O   0  0  0  0  0  0  0  0  0  0  0  0
  -23.5074  -30.2282   23.3827 O   0  0  0  0  0  0  0  0  0  0  0  0
  -23.6967  -33.8887   21.4704 O   0  0  0  0  0  0  0  0  0  0  0  0
  -22.0735  -31.8884   17.4848 O   0  0  0  0  0  0  0  0  0  0  0  0
  -31.9882  -14.6492   20.1695 O   0  0  0  0  0  0  0  0  0  0  0  0
  -21.4423   -7.2228   22.0933 O   0  0  0  0  0  0  0  0  0  0  0  0
  -24.3101  -25.7184   19.2958 O   0  0  0  0  0  0  0  0  0  1  0  0
  -16.3299   -6.9975   20.0399 F   0  0  0  0  0  0  0  0  0  0  0  0
  -20.6551   -5.1243   20.4749 F   0  0  0  0  0  0  0  0  0  0  0  0
  -24.0160  -17.5781   26.5279 Cl  0  0  0  0  0  0  0  0  0  0  0  0
  -27.1322  -19.6862   21.5352 Cl  0  0  0  0  0  0  0  0  0  0  0  0
  -27.2215  -17.4608   26.4717 Cl  0  0  0  0  0  0  0  0  0  0  0  0
  1  2  1  0  0  0  0
  1  5  2  0  0  0  0
  2  6  2  0  0  0  0
  3  8  2  0  0  0  0
  3 16  1  0  0  0  0
  4  9  1  0  0  0  0
  4 16  2  0  0  0  0
  5 18  1  0  0  0  0
  6 20  1  0  0  0  0
  7 10  2  0  0  0  0
  7 19  1  0  0  0  0
  8 24  1  0  0  0  0
  9 24  2  0  0  0  0
 10 25  1  0  0  0  0
 11 12  2  0  0  0  0
 11 26  1  0  0  0  0
 12 27  1  0  0  0  0
 13 21  1  0  0  0  0
 13 25  2  0  0  0  0
 14 22  1  0  0  0  0
 14 29  2  0  0  0  0
 15 27  2  0  0  0  0
 15 28  1  0  0  0  0
 16 32  1  0  0  0  0
 17 32  1  0  0  0  0
 17 33  2  0  0  0  0
 17 34  1  0  0  0  0
 18 20  2  0  0  0  0
 18 39  1  0  0  0  0
 19 21  2  0  0  0  0
 19 40  1  0  0  0  0
 20 48  1  0  0  0  0
 21 41  1  0  0  0  0
 22 30  2  0  0  0  0
 22 58  1  0  0  0  0
 23 30  1  0  0  0  0
 23 31  2  0  0  0  0
 23 59  1  0  0  0  0
 24 86  1  0  0  0  0
 25 87  1  0  0  0  0
 26 28  2  0  0  0  0
 26 86  1  0  0  0  0
 27 88  1  0  0  0  0
 28 89  1  0  0  0  0
 29 31  1  0  0  0  0
 29 90  1  0  0  0  0
 30 91  1  0  0  0  0
 31 92  1  0  0  0  0
 32 69  2  0  0  0  0
 33 70  1  0  0  0  0
 33 73  1  0  0  0  0
 34 74  1  0  0  0  0
 34 81  2  0  0  0  0
 35 49  1  0  0  0  0
 35 75  1  0  0  0  0
 35 82  2  0  0  0  0
 36 64  1  0  0  0  0
 36 71  1  0  0  0  0
 36 83  2  0  0  0  0
 37 65  1  0  0  0  0
 37 76  1  0  0  0  0
 37 84  2  0  0  0  0
 38 72  1  0  0  0  0
 38 77  1  0  0  0  0
 38 85  2  0  0  0  0
 39 42  1  0  0  0  0
 40 49  1  0  0  0  0
 41 71  1  0  0  0  0
 42 44  1  0  0  0  0
 43 45  1  0  0  0  0
 43 46  1  0  0  0  0
 44 48  1  0  0  0  0
 45 50  1  0  0  0  0
 46 72  1  0  0  0  0
 47 50  1  0  0  0  0
 47 72  1  0  0  0  0
 48 75  1  0  0  0  0
 49 71  1  0  0  0  0
 50 70  1  0  0  0  0
 51 65  1  0  0  0  0
 52 66  1  0  0  0  0
 53 67  1  0  0  0  0
 54 68  1  0  0  0  0
 55 68  1  0  0  0  0
 56 68  1  0  0  0  0
 57 78  1  0  0  0  0
 58 79  1  0  0  0  0
 59 80  1  0  0  0  0
 60 61  1  0  0  0  0
 60 62  1  0  0  0  0
 61 63  1  0  0  0  0
 62 79  1  0  0  0  0
 63 87  1  0  0  0  0
 64 68  1  0  0  0  0
 64 76  1  0  0  0  0
 65 78  1  0  0  0  0
 66 67  1  0  0  0  0
 66 77  1  0  0  0  0
 67 80  1  0  0  0  0
 69 70  1  0  0  0  0
M  CHG  3  78   1  79   1  80   1
M  ISO  4  38 100  63 101  77 100  87 101
M  END
> <Batch ID>
0026

> <Smiles>
CNC(C)C(=O)NC(C(=O)N1Cc2cc([101O:1][101CH2:1]CCCNCc3cc(Cl)c(Cl)c(CNC(C)C(C)[100NH:0][100C:0](=O)N4CCCC(n5nc(-c6ccc(Oc7ccc(F)cc7F)cc6)c(C(N)=O)c5N)C4)c3Cl)ccc2CC1C(=O)NC1CCCc2ccccc21)C(C)(C)C

> <Shape>
0.261

> <Color>
0.207

> <Negative vol penalty>
0.000

$$$$

  -OEChem-04052316273D

 82 90  0     1  0  0  0  0  0999 V2000
  -27.4774  -27.5879   14.4935 C   0  0  0  0  0  0  0  0  0  0  0  0
  -28.3970  -26.9534   15.3224 C   0  0  0  0  0  0  0  0  0  0  0  0
  -23.0639   -9.8640   19.9832 C   0  0  0  0  0  0  0  0  0  0  0  0
  -23.8177   -9.9198   22.2779 C   0  0  0  0  0  0  0  0  0  0  0  0
  -26.4796  -28.3896   15.0464 C   0  0  0  0  0  0  0  0  0  0  0  0
  -28.3201  -27.1210   16.7045 C   0  0  0  0  0  0  0  0  0  0  0  0
  -28.8653  -22.7618   19.2235 C   0  0  0  0  0  0  0  0  0  0  0  0
  -22.3117   -8.7220   20.2581 C   0  0  0  0  0  0  0  0  0  0  0  0
  -23.0655   -8.7778   22.5529 C   0  0  0  0  0  0  0  0  0  0  0  0
  -30.1604  -22.2649   19.3632 C   0  0  0  0  0  0  0  0  0  0  0  0
  -19.8305   -8.0158   23.1649 C   0  0  0  0  0  0  0  0  0  0  0  0
  -19.0702   -8.0084   24.3343 C   0  0  0  0  0  0  0  0  0  0  0  0
  -30.2496  -23.1449   21.6075 C   0  0  0  0  0  0  0  0  0  0  0  0
  -20.2966   -6.0807   25.1195 C   0  0  0  0  0  0  0  0  0  0  0  0
  -31.8547  -17.4416   21.5350 C   0  0  0  0  0  0  0  0  0  0  0  0
  -23.8170  -10.4629   20.9931 C   0  0  0  0  0  0  0  0  0  0  0  0
  -24.1760  -12.9822   20.8148 C   0  0  0  0  0  0  0  0  0  0  0  0
  -26.3844  -28.5594   16.4366 C   0  0  0  0  0  0  0  0  0  0  0  0
  -28.2557  -23.4647   20.2727 C   0  0  0  0  0  0  0  0  0  0  0  0
  -27.3209  -27.9268   17.2764 C   0  0  0  0  0  0  0  0  0  0  0  0
  -28.9458  -23.6476   21.4795 C   0  0  0  0  0  0  0  0  0  0  0  0
  -30.6149  -16.9270   21.8261 C   0  0  0  0  0  0  0  0  0  0  0  0
  -22.3124   -8.1789   21.5429 C   0  0  0  0  0  0  0  0  0  0  0  0
  -30.8539  -22.4589   20.5542 C   0  0  0  0  0  0  0  0  0  0  0  0
  -20.8238   -7.0556   22.9728 C   0  0  0  0  0  0  0  0  0  0  0  0
  -19.3032   -7.0409   25.3116 C   0  0  0  0  0  0  0  0  0  0  0  0
  -21.0569   -6.0880   23.9501 C   0  0  0  0  0  0  0  0  0  0  0  0
  -24.5947  -11.6422   20.7096 C   0  0  0  0  0  0  0  0  0  0  0  0
  -30.0043  -17.9114   22.6261 C   0  0  0  0  0  0  0  0  0  0  0  0
  -25.2742  -13.7157   20.4371 C   0  0  0  0  0  0  0  0  0  0  0  0
  -22.9079  -13.5161   21.2179 C   0  0  0  0  0  0  0  0  0  0  0  0
  -27.1422  -26.4186   20.6448 C   0  0  0  0  0  0  0  0  0  0  0  0
  -26.1234  -25.2574   23.4972 C   0  0  0  0  0  0  0  0  0  0  0  0
  -26.4879  -22.9457   25.9811 C   0  0  0  0  0  0  0  0  0  0  0  0
  -30.7467  -14.7289   20.6024 C   0  0  0  0  0  0  0  0  0  0  0  0
  -25.3176  -29.4737   16.9849 C   0  0  0  0  0  0  0  0  0  0  0  0
  -26.8481  -23.9713   20.1158 C   0  0  0  0  0  0  0  0  0  0  0  0
  -28.3284  -24.3777   22.6433 C   0  0  0  0  0  0  0  0  0  0  0  0
  -25.0762  -29.2988   18.4821 C   0  0  0  0  0  0  0  0  0  0  0  0
  -29.6225  -12.2673   18.2886 C   0  0  0  0  0  0  0  0  0  0  0  0
  -26.4020  -29.2553   19.2351 C   0  0  0  0  0  0  0  0  0  0  0  0
  -28.1798  -11.9955   18.7208 C   0  0  0  0  0  0  0  0  0  0  0  0
  -30.5359  -12.5184   19.4870 C   0  0  0  0  0  0  0  0  0  0  0  0
  -28.6302  -13.2878   20.8455 C   0  0  0  0  0  0  0  0  0  0  0  0
  -27.2550  -28.0642   18.7820 C   0  0  1  0  0  0  0  0  0  0  0  0
  -26.5167  -25.1187   21.0650 C   0  0  1  0  0  0  0  0  0  0  0  0
  -27.6593  -13.0932   19.6693 C   0  0  2  0  0  0  0  0  0  0  0  0
  -27.6702  -19.5688   21.5883 C   0  0  0  0  0  0  0  0  0  0  0  0
  -25.5329  -22.2736   28.2023 C   0  0  0  0  0  0  0  0  0  0  0  0
  -27.5701  -27.5937   24.8233 C   0  0  0  0  0  0  0  0  0  0  0  0
  -27.3993  -26.3721   27.0020 C   0  0  0  0  0  0  0  0  0  0  0  0
  -25.3280  -27.0666   25.7977 C   0  0  0  0  0  0  0  0  0  0  0  0
  -25.6962  -20.2811   24.9651 C   0  0  0  0  0  0  0  0  0  0  0  0
  -28.6576  -17.8826   23.2248 C   0  0  0  0  0  0  0  0  0  0  0  0
  -27.5441  -18.1824   22.1998 C   0  0  0  0  0  0  0  0  0  0  0  0
  -33.5127  -20.0233   20.7296 C   0  0  0  0  0  0  0  0  0  0  0  0
  -33.0710  -19.6165   22.1371 C   0  0  0  0  0  0  0  0  0  0  0  0
  -32.4463  -20.7950   19.9612 C   0  0  0  0  0  0  0  0  0  1  0  0
  -26.7128  -25.1591   24.8835 C   0  0  1  0  0  0  0  0  0  0  0  0
  -25.4768  -22.0680   26.6965 C   0  0  2  0  0  0  0  0  0  0  0  0
  -26.7652  -26.5358   25.6042 C   0  0  0  0  0  0  0  0  0  0  0  0
  -25.8600  -11.5282   20.2973 N   0  0  0  0  0  0  0  0  0  0  0  0
  -30.7914  -18.9710   22.8304 N   0  0  0  0  0  0  0  0  0  0  0  0
  -31.9093  -18.6554   22.1546 N   0  0  0  0  0  0  0  0  0  0  0  0
  -26.2458  -12.8059   20.1399 N   0  0  0  0  0  0  0  0  0  0  0  0
  -26.9524  -24.8595   22.4388 N   0  0  0  0  0  0  0  0  0  0  0  0
  -29.9815  -13.5733   20.3383 N   0  0  0  0  0  0  0  0  0  0  0  0
  -25.4937  -15.0436   20.3334 N   0  0  0  0  0  0  0  0  0  0  0  0
  -21.8891  -12.6219   21.5736 N   0  0  0  0  0  0  0  0  0  0  0  0
  -30.1033  -15.6773   21.3969 N   0  0  0  0  0  0  0  0  0  0  0  0
  -26.7715  -26.8391   19.3818 N   0  0  0  0  0  0  0  0  0  0  0  0
  -25.9343  -24.1455   25.5871 N   0  0  0  0  0  0  0  0  0  0  0  0
  -25.7432  -20.6303   26.4083 N   0  3  0  0  0  0  0  0  0  0  0  0
  -22.6798  -14.7493   21.2456 O   0  0  0  0  0  0  0  0  0  0  0  0
  -27.9037  -26.9980   21.4105 O   0  0  0  0  0  0  0  0  0  0  0  0
  -24.9674  -25.6653   23.3590 O   0  0  0  0  0  0  0  0  0  0  0  0
  -27.6532  -22.6029   25.7940 O   0  0  0  0  0  0  0  0  0  0  0  0
  -31.8781  -14.8791   20.1341 O   0  0  0  0  0  0  0  0  0  0  0  0
  -21.5783   -7.0647   21.8116 O   0  0  0  0  0  0  0  0  0  0  0  0
  -32.1183  -21.9754   20.6930 O   0  0  0  0  0  0  0  0  0  1  0  0
  -18.5741   -7.0349   26.4352 F   0  0  0  0  0  0  0  0  0  0  0  0
  -22.0106   -5.1637   23.7717 F   0  0  0  0  0  0  0  0  0  0  0  0
  1  2  1  0  0  0  0
  1  5  2  0  0  0  0
  2  6  2  0  0  0  0
  3  8  2  0  0  0  0
  3 16  1  0  0  0  0
  4  9  1  0  0  0  0
  4 16  2  0  0  0  0
  5 18  1  0  0  0  0
  6 20  1  0  0  0  0
  7 10  2  0  0  0  0
  7 19  1  0  0  0  0
  8 23  1  0  0  0  0
  9 23  2  0  0  0  0
 10 24  1  0  0  0  0
 11 12  2  0  0  0  0
 11 25  1  0  0  0  0
 12 26  1  0  0  0  0
 13 21  1  0  0  0  0
 13 24  2  0  0  0  0
 14 26  2  0  0  0  0
 14 27  1  0  0  0  0
 15 22  2  0  0  0  0
 15 64  1  0  0  0  0
 16 28  1  0  0  0  0
 17 28  1  0  0  0  0
 17 30  2  0  0  0  0
 17 31  1  0  0  0  0
 18 20  2  0  0  0  0
 18 36  1  0  0  0  0
 19 21  2  0  0  0  0
 19 37  1  0  0  0  0
 20 45  1  0  0  0  0
 21 38  1  0  0  0  0
 22 29  1  0  0  0  0
 22 70  1  0  0  0  0
 23 79  1  0  0  0  0
 24 80  1  0  0  0  0
 25 27  2  0  0  0  0
 25 79  1  0  0  0  0
 26 81  1  0  0  0  0
 27 82  1  0  0  0  0
 28 62  2  0  0  0  0
 29 54  1  0  0  0  0
 29 63  2  0  0  0  0
 30 65  1  0  0  0  0
 30 68  1  0  0  0  0
 31 69  1  0  0  0  0
 31 74  2  0  0  0  0
 32 46  1  0  0  0  0
 32 71  1  0  0  0  0
 32 75  2  0  0  0  0
 33 59  1  0  0  0  0
 33 66  1  0  0  0  0
 33 76  2  0  0  0  0
 34 60  1  0  0  0  0
 34 72  1  0  0  0  0
 34 77  2  0  0  0  0
 35 67  1  0  0  0  0
 35 70  1  0  0  0  0
 35 78  2  0  0  0  0
 36 39  1  0  0  0  0
 37 46  1  0  0  0  0
 38 66  1  0  0  0  0
 39 41  1  0  0  0  0
 40 42  1  0  0  0  0
 40 43  1  0  0  0  0
 41 45  1  0  0  0  0
 42 47  1  0  0  0  0
 43 67  1  0  0  0  0
 44 47  1  0  0  0  0
 44 67  1  0  0  0  0
 45 71  1  0  0  0  0
 46 66  1  0  0  0  0
 47 65  1  0  0  0  0
 48 55  1  0  0  0  0
 49 60  1  0  0  0  0
 50 61  1  0  0  0  0
 51 61  1  0  0  0  0
 52 61  1  0  0  0  0
 53 73  1  0  0  0  0
 54 55  1  0  0  0  0
 56 57  1  0  0  0  0
 56 58  1  0  0  0  0
 57 64  1  0  0  0  0
 58 80  1  0  0  0  0
 59 61  1  0  0  0  0
 59 72  1  0  0  0  0
 60 73  1  0  0  0  0
 62 65  1  0  0  0  0
 63 64  1  0  0  0  0
M  CHG  1  73   1
M  ISO  4  35 100  58 101  70 100  80 101
M  END
> <Batch ID>
0026

> <Smiles>
CCCc1nn(CC[101CH2:1][101O:1]c2ccc3c(c2)CN(C(=O)C(NC(=O)C(C)NC)C(C)(C)C)C(C(=O)NC2CCCc4ccccc42)C3)cc1[100NH:0][100C:0](=O)N1CCCC(n2nc(-c3ccc(Oc4ccc(F)cc4F)cc3)c(C(N)=O)c2N)C1

> <Shape>
0.232

> <Color>
0.193

> <Negative vol penalty>
0.000

$$$$

  -OEChem-04052316273D

 84 92  0     1  0  0  0  0  0999 V2000
  -28.9224  -25.6266   15.6612 C   0  0  0  0  0  0  0  0  0  0  0  0
  -27.7547  -25.5370   16.4122 C   0  0  0  0  0  0  0  0  0  0  0  0
  -23.9055   -9.9268   22.3095 C   0  0  0  0  0  0  0  0  0  0  0  0
  -23.0723  -10.2130   20.0598 C   0  0  0  0  0  0  0  0  0  0  0  0
  -30.0447  -26.2605   16.1927 C   0  0  0  0  0  0  0  0  0  0  0  0
  -27.7090  -26.0804   17.6956 C   0  0  0  0  0  0  0  0  0  0  0  0
  -23.4650  -28.7104   18.5419 C   0  0  0  0  0  0  0  0  0  0  0  0
  -23.0669   -8.8254   22.4800 C   0  0  0  0  0  0  0  0  0  0  0  0
  -22.2337   -9.1115   20.2303 C   0  0  0  0  0  0  0  0  0  0  0  0
  -22.3086  -27.9818   18.8170 C   0  0  0  0  0  0  0  0  0  0  0  0
  -23.0309   -5.5617   21.5969 C   0  0  0  0  0  0  0  0  0  0  0  0
  -23.5724   -4.4199   22.1874 C   0  0  0  0  0  0  0  0  0  0  0  0
  -22.6052  -28.4120   21.1721 C   0  0  0  0  0  0  0  0  0  0  0  0
  -21.9515   -4.5741   23.9723 C   0  0  0  0  0  0  0  0  0  0  0  0
  -23.9082  -10.6207   21.0994 C   0  0  0  0  0  0  0  0  0  0  0  0
  -26.0938  -11.7553   20.4334 C   0  0  0  0  0  0  0  0  0  0  0  0
  -30.0097  -26.8204   17.4796 C   0  0  0  0  0  0  0  0  0  0  0  0
  -24.2074  -29.2870   19.5825 C   0  0  0  0  0  0  0  0  0  0  0  0
  -28.8324  -26.7212   18.2453 C   0  0  0  0  0  0  0  0  0  0  0  0
  -23.7692  -29.1495   20.9073 C   0  0  0  0  0  0  0  0  0  0  0  0
  -22.8551  -21.7998   20.1368 C   0  0  0  0  0  0  0  0  0  0  0  0
  -24.0558  -22.4736   20.3305 C   0  0  0  0  0  0  0  0  0  0  0  0
  -22.2310   -8.4177   21.4404 C   0  0  0  0  0  0  0  0  0  0  0  0
  -21.8801  -27.8301   20.1325 C   0  0  0  0  0  0  0  0  0  0  0  0
  -21.9497   -6.2098   22.1942 C   0  0  0  0  0  0  0  0  0  0  0  0
  -23.0327   -3.9261   23.3750 C   0  0  0  0  0  0  0  0  0  0  0  0
  -21.4100   -5.7160   23.3818 C   0  0  0  0  0  0  0  0  0  0  0  0
  -21.6574  -22.4075   20.4969 C   0  0  0  0  0  0  0  0  0  0  0  0
  -24.7738  -11.7590   20.9229 C   0  0  0  0  0  0  0  0  0  0  0  0
  -24.0053  -23.7430   20.8835 C   0  0  0  0  0  0  0  0  0  0  0  0
  -21.7142  -23.6798   21.0426 C   0  0  0  0  0  0  0  0  0  0  0  0
  -26.4734  -13.0751   20.4598 C   0  0  0  0  0  0  0  0  0  0  0  0
  -26.9042  -10.6572   19.9940 C   0  0  0  0  0  0  0  0  0  0  0  0
  -27.1655  -28.9334   20.6908 C   0  0  0  0  0  0  0  0  0  0  0  0
  -26.3379  -31.4340   22.5840 C   0  0  0  0  0  0  0  0  0  0  0  0
  -23.8580  -33.2357   24.0843 C   0  0  0  0  0  0  0  0  0  0  0  0
  -23.3458  -18.0741   20.1708 C   0  0  0  0  0  0  0  0  0  0  0  0
  -31.2629  -27.4542   18.0298 C   0  0  0  0  0  0  0  0  0  0  0  0
  -25.4379  -30.0925   19.2668 C   0  0  0  0  0  0  0  0  0  0  0  0
  -24.5194  -29.7660   22.0587 C   0  0  0  0  0  0  0  0  0  0  0  0
  -31.0143  -28.3333   19.2527 C   0  0  0  0  0  0  0  0  0  0  0  0
  -25.6490  -17.1625   22.8093 C   0  0  0  0  0  0  0  0  0  0  0  0
  -30.1077  -27.6178   20.2492 C   0  0  0  0  0  0  0  0  0  0  0  0
  -25.8074  -15.6601   22.5692 C   0  0  0  0  0  0  0  0  0  0  0  0
  -24.2171  -17.6171   22.5424 C   0  0  0  0  0  0  0  0  0  0  0  0
  -23.8632  -15.7764   20.9424 C   0  0  0  0  0  0  0  0  0  0  0  0
  -28.7359  -27.3200   19.6317 C   0  0  1  0  0  0  0  0  0  0  0  0
  -26.3990  -30.2024   20.4465 C   0  0  1  0  0  0  0  0  0  0  0  0
  -25.2945  -15.2586   21.1735 C   0  0  2  0  0  0  0  0  0  0  0  0
  -25.3584  -21.8513   19.9524 C   0  0  0  0  0  0  0  0  0  0  0  0
  -25.2627  -24.5155   21.1158 C   0  0  0  0  0  0  0  0  0  0  0  0
  -23.4927  -35.2016   25.6006 C   0  0  0  0  0  0  0  0  0  0  0  0
  -27.1949  -29.7449   24.9762 C   0  0  0  0  0  0  0  0  0  0  0  0
  -25.9489  -31.3342   26.4561 C   0  0  0  0  0  0  0  0  0  0  0  0
  -27.8767  -32.1480   25.0981 C   0  0  0  0  0  0  0  0  0  0  0  0
  -22.3150  -34.6895   22.0192 C   0  0  0  0  0  0  0  0  0  0  0  0
  -22.8703  -20.4266   19.5412 C   0  0  0  0  0  0  0  0  0  0  0  0
  -20.4596  -24.4060   21.4575 C   0  0  0  0  0  0  0  0  0  0  0  0
  -19.6653  -24.9833   20.2839 C   0  0  0  0  0  0  0  0  0  0  0  0
  -20.4241  -26.0555   19.5106 C   0  0  0  0  0  0  0  0  0  1  0  0
  -25.6999  -31.5798   23.9444 C   0  0  1  0  0  0  0  0  0  0  0  0
  -23.6028  -34.7303   24.1589 C   0  0  2  0  0  0  0  0  0  0  0  0
  -26.6668  -31.1884   25.0974 C   0  0  0  0  0  0  0  0  0  0  0  0
  -24.3439  -12.9838   21.2374 N   0  0  0  0  0  0  0  0  0  0  0  0
  -22.8613  -24.3657   21.2458 N   0  0  0  0  0  0  0  0  0  0  0  0
  -25.3997  -13.7621   20.9449 N   0  0  0  0  0  0  0  0  0  0  0  0
  -25.7198  -30.5389   21.6994 N   0  0  0  0  0  0  0  0  0  0  0  0
  -23.7967  -17.2203   21.1912 N   0  0  0  0  0  0  0  0  0  0  0  0
  -27.6175  -13.7032   20.1152 N   0  0  0  0  0  0  0  0  0  0  0  0
  -26.3587   -9.3668   20.0327 N   0  0  0  0  0  0  0  0  0  0  0  0
  -27.9205  -28.5155   19.6116 N   0  0  0  0  0  0  0  0  0  0  0  0
  -25.2054  -32.9503   24.0186 N   0  0  0  0  0  0  0  0  0  0  0  0
  -23.3061  -19.4259   20.4897 N   0  0  0  0  0  0  0  0  0  0  0  0
  -22.3362  -35.0754   23.4536 N   0  3  0  0  0  0  0  0  0  0  0  0
  -28.0830  -10.8137   19.5948 O   0  0  0  0  0  0  0  0  0  0  0  0
  -27.0795  -28.3755   21.7785 O   0  0  0  0  0  0  0  0  0  0  0  0
  -27.3433  -32.0956   22.3136 O   0  0  0  0  0  0  0  0  0  0  0  0
  -22.9528  -32.4044   24.0878 O   0  0  0  0  0  0  0  0  0  0  0  0
  -23.0085  -17.6626   19.0554 O   0  0  0  0  0  0  0  0  0  0  0  0
  -21.4127   -7.3428   21.6063 O   0  0  0  0  0  0  0  0  0  0  0  0
  -20.7521  -27.1189   20.4039 O   0  0  0  0  0  0  0  0  0  1  0  0
  -23.5518   -2.8287   23.9411 F   0  0  0  0  0  0  0  0  0  0  0  0
  -20.3705   -6.3336   23.9596 F   0  0  0  0  0  0  0  0  0  0  0  0
  -20.1478  -21.6006   20.2738 Cl  0  0  0  0  0  0  0  0  0  0  0  0
  1  2  1  0  0  0  0
  1  5  2  0  0  0  0
  2  6  2  0  0  0  0
  3  8  2  0  0  0  0
  3 15  1  0  0  0  0
  4  9  1  0  0  0  0
  4 15  2  0  0  0  0
  5 17  1  0  0  0  0
  6 19  1  0  0  0  0
  7 10  2  0  0  0  0
  7 18  1  0  0  0  0
  8 23  1  0  0  0  0
  9 23  2  0  0  0  0
 10 24  1  0  0  0  0
 11 12  2  0  0  0  0
 11 25  1  0  0  0  0
 12 26  1  0  0  0  0
 13 20  1  0  0  0  0
 13 24  2  0  0  0  0
 14 26  2  0  0  0  0
 14 27  1  0  0  0  0
 15 29  1  0  0  0  0
 16 29  1  0  0  0  0
 16 32  2  0  0  0  0
 16 33  1  0  0  0  0
 17 19  2  0  0  0  0
 17 38  1  0  0  0  0
 18 20  2  0  0  0  0
 18 39  1  0  0  0  0
 19 47  1  0  0  0  0
 20 40  1  0  0  0  0
 21 22  2  0  0  0  0
 21 28  1  0  0  0  0
 21 57  1  0  0  0  0
 22 30  1  0  0  0  0
 22 50  1  0  0  0  0
 23 80  1  0  0  0  0
 24 81  1  0  0  0  0
 25 27  2  0  0  0  0
 25 80  1  0  0  0  0
 26 82  1  0  0  0  0
 27 83  1  0  0  0  0
 28 31  2  0  0  0  0
 28 84  1  0  0  0  0
 29 64  2  0  0  0  0
 30 51  1  0  0  0  0
 30 65  2  0  0  0  0
 31 58  1  0  0  0  0
 31 65  1  0  0  0  0
 32 66  1  0  0  0  0
 32 69  1  0  0  0  0
 33 70  1  0  0  0  0
 33 75  2  0  0  0  0
 34 48  1  0  0  0  0
 34 71  1  0  0  0  0
 34 76  2  0  0  0  0
 35 61  1  0  0  0  0
 35 67  1  0  0  0  0
 35 77  2  0  0  0  0
 36 62  1  0  0  0  0
 36 72  1  0  0  0  0
 36 78  2  0  0  0  0
 37 68  1  0  0  0  0
 37 73  1  0  0  0  0
 37 79  2  0  0  0  0
 38 41  1  0  0  0  0
 39 48  1  0  0  0  0
 40 67  1  0  0  0  0
 41 43  1  0  0  0  0
 42 44  1  0  0  0  0
 42 45  1  0  0  0  0
 43 47  1  0  0  0  0
 44 49  1  0  0  0  0
 45 68  1  0  0  0  0
 46 49  1  0  0  0  0
 46 68  1  0  0  0  0
 47 71  1  0  0  0  0
 48 67  1  0  0  0  0
 49 66  1  0  0  0  0
 52 62  1  0  0  0  0
 53 63  1  0  0  0  0
 54 63  1  0  0  0  0
 55 63  1  0  0  0  0
 56 74  1  0  0  0  0
 57 73  1  0  0  0  0
 58 59  1  0  0  0  0
 59 60  1  0  0  0  0
 60 81  1  0  0  0  0
 61 63  1  0  0  0  0
 61 72  1  0  0  0  0
 62 74  1  0  0  0  0
 64 66  1  0  0  0  0
M  CHG  1  74   1
M  ISO  4  37 100  60 101  73 100  81 101
M  END
> <Batch ID>
0026

> <Smiles>
CNC(C)C(=O)NC(C(=O)N1Cc2cc([101O:1][101CH2:1]CCc3nc(C)c(C)c(C[100NH:0][100C:0](=O)N4CCCC(n5nc(-c6ccc(Oc7ccc(F)cc7F)cc6)c(C(N)=O)c5N)C4)c3Cl)ccc2CC1C(=O)NC1CCCc2ccccc21)C(C)(C)C

> <Shape>
0.270

> <Color>
0.109

> <Negative vol penalty>
0.000

$$$$

  -OEChem-04052316273D

 90 98  0     1  0  0  0  0  0999 V2000
  -30.5508  -22.0039   20.2421 C   0  0  0  0  0  0  0  0  0  0  0  0
  -29.5251  -22.6249   19.5366 C   0  0  0  0  0  0  0  0  0  0  0  0
  -23.4824  -14.3245   20.1487 C   0  0  0  0  0  0  0  0  0  0  0  0
  -25.2694  -15.1647   21.5407 C   0  0  0  0  0  0  0  0  0  0  0  0
  -30.5482  -22.0243   21.6362 C   0  0  0  0  0  0  0  0  0  0  0  0
  -28.4956  -23.2658   20.2249 C   0  0  0  0  0  0  0  0  0  0  0  0
  -25.5121  -28.3300   18.5050 C   0  0  0  0  0  0  0  0  0  0  0  0
  -24.1947  -13.1423   19.9477 C   0  0  0  0  0  0  0  0  0  0  0  0
  -25.9818  -13.9824   21.3397 C   0  0  0  0  0  0  0  0  0  0  0  0
  -24.2836  -28.5269   17.8759 C   0  0  0  0  0  0  0  0  0  0  0  0
  -27.9057  -12.6139   18.9196 C   0  0  0  0  0  0  0  0  0  0  0  0
  -29.2650  -12.7185   18.6250 C   0  0  0  0  0  0  0  0  0  0  0  0
  -23.2432  -28.8633   20.0262 C   0  0  0  0  0  0  0  0  0  0  0  0
  -18.2821  -25.3961   22.6747 C   0  0  0  0  0  0  0  0  0  0  0  0
  -20.5228  -25.8634   21.9018 C   0  0  0  0  0  0  0  0  0  0  0  0
  -29.7926  -11.4377   20.6045 C   0  0  0  0  0  0  0  0  0  0  0  0
  -24.0197  -15.3357   20.9452 C   0  0  0  0  0  0  0  0  0  0  0  0
  -22.3588  -16.8287   22.1780 C   0  0  0  0  0  0  0  0  0  0  0  0
  -29.5233  -22.6741   22.3418 C   0  0  0  0  0  0  0  0  0  0  0  0
  -25.6134  -28.3876   19.9024 C   0  0  0  0  0  0  0  0  0  0  0  0
  -28.4786  -23.2938   21.6298 C   0  0  0  0  0  0  0  0  0  0  0  0
  -24.4746  -28.6693   20.6704 C   0  0  0  0  0  0  0  0  0  0  0  0
  -19.1551  -26.1362   21.8774 C   0  0  0  0  0  0  0  0  0  0  0  0
  -18.7767  -24.3834   23.4965 C   0  0  0  0  0  0  0  0  0  0  0  0
  -21.0175  -24.8506   22.7236 C   0  0  0  0  0  0  0  0  0  0  0  0
  -25.4445  -12.9712   20.5431 C   0  0  0  0  0  0  0  0  0  0  0  0
  -23.1483  -28.7908   18.6366 C   0  0  0  0  0  0  0  0  0  0  0  0
  -27.4898  -11.9212   20.0567 C   0  0  0  0  0  0  0  0  0  0  0  0
  -30.2085  -12.1304   19.4674 C   0  0  0  0  0  0  0  0  0  0  0  0
  -28.4332  -11.3331   20.8991 C   0  0  0  0  0  0  0  0  0  0  0  0
  -20.1445  -24.1106   23.5209 C   0  0  0  0  0  0  0  0  0  0  0  0
  -23.2846  -16.5574   21.1528 C   0  0  0  0  0  0  0  0  0  0  0  0
  -21.9444  -18.1154   21.9349 C   0  0  0  0  0  0  0  0  0  0  0  0
  -21.9132  -15.9924   23.2541 C   0  0  0  0  0  0  0  0  0  0  0  0
  -26.4449  -26.3297   22.1778 C   0  0  0  0  0  0  0  0  0  0  0  0
  -26.1613  -28.9324   24.0930 C   0  0  0  0  0  0  0  0  0  0  0  0
  -24.7894  -32.0144   24.6086 C   0  0  0  0  0  0  0  0  0  0  0  0
  -23.0623  -23.4194   20.6072 C   0  0  0  0  0  0  0  0  0  0  0  0
  -29.5382  -22.6290   23.8493 C   0  0  0  0  0  0  0  0  0  0  0  0
  -26.9510  -28.1995   20.5642 C   0  0  0  0  0  0  0  0  0  0  0  0
  -24.5340  -28.7618   22.1725 C   0  0  0  0  0  0  0  0  0  0  0  0
  -28.6094  -23.6518   24.4985 C   0  0  0  0  0  0  0  0  0  0  0  0
  -22.6816  -21.1092   17.9249 C   0  0  0  0  0  0  0  0  0  0  0  0
  -27.2429  -23.6379   23.8208 C   0  0  0  0  0  0  0  0  0  0  0  0
  -22.7345  -19.7422   18.6093 C   0  0  0  0  0  0  0  0  0  0  0  0
  -23.6306  -22.1075   18.5842 C   0  0  0  0  0  0  0  0  0  0  0  0
  -23.5079  -20.8928   20.7251 C   0  0  0  0  0  0  0  0  0  0  0  0
  -27.3574  -24.0207   22.3403 C   0  0  1  0  0  0  0  0  0  0  0  0
  -26.8403  -27.7711   22.0242 C   0  0  1  0  0  0  0  0  0  0  0  0
  -22.5265  -19.8683   20.1305 C   0  0  2  0  0  0  0  0  0  0  0  0
  -17.8044  -23.6163   24.3340 C   0  0  0  0  0  0  0  0  0  0  0  0
  -17.6511  -30.4519   18.0993 C   0  0  0  0  0  0  0  0  0  0  0  0
  -24.7135  -33.8817   26.2834 C   0  0  0  0  0  0  0  0  0  0  0  0
  -16.9313  -25.9217   19.6217 C   0  0  0  0  0  0  0  0  0  0  0  0
  -20.2039  -26.8923   17.0254 C   0  0  0  0  0  0  0  0  0  0  0  0
  -24.2737  -27.2879   25.8373 C   0  0  0  0  0  0  0  0  0  0  0  0
  -23.5094  -29.4218   26.9006 C   0  0  0  0  0  0  0  0  0  0  0  0
  -25.8919  -28.7115   27.1058 C   0  0  0  0  0  0  0  0  0  0  0  0
  -17.2461  -27.5171   17.3551 C   0  0  0  0  0  0  0  0  0  0  0  0
  -25.9543  -33.9405   22.6871 C   0  0  0  0  0  0  0  0  0  0  0  0
  -18.6189  -27.2340   20.9866 C   0  0  0  0  0  0  0  0  0  0  0  0
  -22.4903  -24.5934   22.7176 C   0  0  0  0  0  0  0  0  0  0  0  0
  -17.7513  -29.2813   19.0760 C   0  0  0  0  0  0  0  0  0  0  0  0
  -20.7808  -28.6007   18.7570 C   0  0  0  0  0  0  0  0  0  1  0  0
  -25.0390  -29.5615   24.8827 C   0  0  1  0  0  0  0  0  0  0  0  0
  -25.4057  -33.3309   25.0464 C   0  0  2  0  0  0  0  0  0  0  0  0
  -18.2272  -26.7541   19.5613 C   0  0  2  0  0  0  0  0  0  0  0  0
  -19.6772  -28.1211   17.7842 C   0  0  2  0  0  0  0  0  0  0  0  0
  -24.6767  -28.7421   26.1534 C   0  0  0  0  0  0  0  0  0  0  0  0
  -18.2567  -27.9243   18.4763 C   0  0  1  0  0  0  0  0  0  0  0  0
  -23.4488  -17.5888   20.3202 N   0  0  0  0  0  0  0  0  0  0  0  0
  -22.6206  -18.5207   20.8219 N   0  0  0  0  0  0  0  0  0  0  0  0
  -25.8635  -28.5640   22.7734 N   0  0  0  0  0  0  0  0  0  0  0  0
  -23.3803  -22.1810   20.0257 N   0  0  0  0  0  0  0  0  0  0  0  0
  -21.0711  -18.9283   22.5665 N   0  0  0  0  0  0  0  0  0  0  0  0
  -22.4408  -14.6980   23.3567 N   0  0  0  0  0  0  0  0  0  0  0  0
  -27.5124  -25.4526   22.1990 N   0  0  0  0  0  0  0  0  0  0  0  0
  -25.4506  -30.9345   25.1543 N   0  0  0  0  0  0  0  0  0  0  0  0
  -22.8337  -23.3996   21.9776 N   0  0  0  0  0  0  0  0  0  0  0  0
  -25.2959  -34.3418   23.9570 N   0  3  0  0  0  0  0  0  0  0  0  0
  -21.0600  -16.3756   24.0899 O   0  0  0  0  0  0  0  0  0  0  0  0
  -25.2590  -26.0352   22.2717 O   0  0  0  0  0  0  0  0  0  0  0  0
  -27.2638  -28.7802   24.6250 O   0  0  0  0  0  0  0  0  0  0  0  0
  -23.8164  -31.9506   23.8605 O   0  0  0  0  0  0  0  0  0  0  0  0
  -22.9824  -24.4645   19.9526 O   0  0  0  0  0  0  0  0  0  0  0  0
  -26.1398  -11.8176   20.3474 O   0  0  0  0  0  0  0  0  0  0  0  0
  -21.9411  -28.9838   18.0217 O   0  0  0  0  0  0  0  0  0  1  0  0
  -31.5138  -12.2296   19.1835 F   0  0  0  0  0  0  0  0  0  0  0  0
  -28.0396  -10.6654   21.9923 F   0  0  0  0  0  0  0  0  0  0  0  0
  -20.7586  -22.8533   24.5413 Cl  0  0  0  0  0  0  0  0  0  0  0  0
  1  2  1  0  0  0  0
  1  5  2  0  0  0  0
  2  6  2  0  0  0  0
  3  8  2  0  0  0  0
  3 17  1  0  0  0  0
  4  9  1  0  0  0  0
  4 17  2  0  0  0  0
  5 19  1  0  0  0  0
  6 21  1  0  0  0  0
  7 10  2  0  0  0  0
  7 20  1  0  0  0  0
  8 26  1  0  0  0  0
  9 26  2  0  0  0  0
 10 27  1  0  0  0  0
 11 12  2  0  0  0  0
 11 28  1  0  0  0  0
 12 29  1  0  0  0  0
 13 22  1  0  0  0  0
 13 27  2  0  0  0  0
 14 23  1  0  0  0  0
 14 24  2  0  0  0  0
 15 23  2  0  0  0  0
 15 25  1  0  0  0  0
 16 29  2  0  0  0  0
 16 30  1  0  0  0  0
 17 32  1  0  0  0  0
 18 32  1  0  0  0  0
 18 33  2  0  0  0  0
 18 34  1  0  0  0  0
 19 21  2  0  0  0  0
 19 39  1  0  0  0  0
 20 22  2  0  0  0  0
 20 40  1  0  0  0  0
 21 48  1  0  0  0  0
 22 41  1  0  0  0  0
 23 61  1  0  0  0  0
 24 31  1  0  0  0  0
 24 51  1  0  0  0  0
 25 31  2  0  0  0  0
 25 62  1  0  0  0  0
 26 86  1  0  0  0  0
 27 87  1  0  0  0  0
 28 30  2  0  0  0  0
 28 86  1  0  0  0  0
 29 88  1  0  0  0  0
 30 89  1  0  0  0  0
 31 90  1  0  0  0  0
 32 71  2  0  0  0  0
 33 72  1  0  0  0  0
 33 75  1  0  0  0  0
 34 76  1  0  0  0  0
 34 81  2  0  0  0  0
 35 49  1  0  0  0  0
 35 77  1  0  0  0  0
 35 82  2  0  0  0  0
 36 65  1  0  0  0  0
 36 73  1  0  0  0  0
 36 83  2  0  0  0  0
 37 66  1  0  0  0  0
 37 78  1  0  0  0  0
 37 84  2  0  0  0  0
 38 74  1  0  0  0  0
 38 79  1  0  0  0  0
 38 85  2  0  0  0  0
 39 42  1  0  0  0  0
 40 49  1  0  0  0  0
 41 73  1  0  0  0  0
 42 44  1  0  0  0  0
 43 45  1  0  0  0  0
 43 46  1  0  0  0  0
 44 48  1  0  0  0  0
 45 50  1  0  0  0  0
 46 74  1  0  0  0  0
 47 50  1  0  0  0  0
 47 74  1  0  0  0  0
 48 77  1  0  0  0  0
 49 73  1  0  0  0  0
 50 72  1  0  0  0  0
 52 63  1  0  0  0  0
 53 66  1  0  0  0  0
 54 67  1  0  0  0  0
 55 68  1  0  0  0  0
 56 69  1  0  0  0  0
 57 69  1  0  0  0  0
 58 69  1  0  0  0  0
 59 70  1  0  0  0  0
 60 80  1  0  0  0  0
 61 67  1  0  0  0  0
 62 79  1  0  0  0  0
 63 70  1  0  0  0  0
 64 68  1  0  0  0  0
 64 87  1  0  0  0  0
 65 69  1  0  0  0  0
 65 78  1  0  0  0  0
 66 80  1  0  0  0  0
 67 70  1  0  0  0  0
 68 70  1  0  0  0  0
 71 72  1  0  0  0  0
M  CHG  1  80   1
M  ISO  4  38 100  64 101  79 100  87 101
M  END
> <Batch ID>
0026

> <Smiles>
CCC(C)(C(C)Cc1cc(C)c(Cl)c(C[100NH:0][100C:0](=O)N2CCCC(n3nc(-c4ccc(Oc5ccc(F)cc5F)cc4)c(C(N)=O)c3N)C2)c1)C(C)[101CH2:1][101O:1]c1ccc2c(c1)CN(C(=O)C(NC(=O)C(C)NC)C(C)(C)C)C(C(=O)NC1CCCc3ccccc31)C2

> <Shape>
0.198

> <Color>
0.056

> <Negative vol penalty>
0.000

$$$$

  -OEChem-04052316273D

 83 91  0     1  0  0  0  0  0999 V2000
  -22.7976  -23.6715   19.2334 C   0  0  0  0  0  0  0  0  0  0  0  0
  -24.0181  -23.0716   18.9399 C   0  0  0  0  0  0  0  0  0  0  0  0
  -22.3627  -28.0040   19.5629 C   0  0  0  0  0  0  0  0  0  0  0  0
  -22.7169  -27.8227   21.9459 C   0  0  0  0  0  0  0  0  0  0  0  0
  -21.9863  -23.1439   20.2370 C   0  0  0  0  0  0  0  0  0  0  0  0
  -24.4284  -21.9443   19.6508 C   0  0  0  0  0  0  0  0  0  0  0  0
  -27.6623  -17.2101   17.4980 C   0  0  0  0  0  0  0  0  0  0  0  0
  -20.9841  -27.9322   19.7623 C   0  0  0  0  0  0  0  0  0  0  0  0
  -21.3382  -27.7510   22.1453 C   0  0  0  0  0  0  0  0  0  0  0  0
  -29.0187  -16.8943   17.5618 C   0  0  0  0  0  0  0  0  0  0  0  0
  -17.8974  -27.8828   23.3121 C   0  0  0  0  0  0  0  0  0  0  0  0
  -17.3488  -28.6523   24.3380 C   0  0  0  0  0  0  0  0  0  0  0  0
  -28.5970  -15.4981   19.4834 C   0  0  0  0  0  0  0  0  0  0  0  0
  -33.3481  -19.0958   21.1313 C   0  0  0  0  0  0  0  0  0  0  0  0
  -31.0494  -18.3715   20.9631 C   0  0  0  0  0  0  0  0  0  0  0  0
  -18.1719  -30.6587   23.2731 C   0  0  0  0  0  0  0  0  0  0  0  0
  -23.2291  -27.9492   20.6547 C   0  0  0  0  0  0  0  0  0  0  0  0
  -25.4492  -29.1836   20.4195 C   0  0  0  0  0  0  0  0  0  0  0  0
  -22.3825  -22.0039   20.9539 C   0  0  0  0  0  0  0  0  0  0  0  0
  -26.7632  -16.6800   18.4346 C   0  0  0  0  0  0  0  0  0  0  0  0
  -23.6222  -21.4018   20.6658 C   0  0  0  0  0  0  0  0  0  0  0  0
  -27.2293  -15.8068   19.4277 C   0  0  0  0  0  0  0  0  0  0  0  0
  -32.4130  -18.0985   20.8547 C   0  0  0  0  0  0  0  0  0  0  0  0
  -31.5560  -20.6391   21.6251 C   0  0  0  0  0  0  0  0  0  0  0  0
  -20.4718  -27.8057   21.0535 C   0  0  0  0  0  0  0  0  0  0  0  0
  -29.4868  -16.0405   18.5564 C   0  0  0  0  0  0  0  0  0  0  0  0
  -18.5832  -28.5012   22.2667 C   0  0  0  0  0  0  0  0  0  0  0  0
  -17.4860  -30.0402   24.3185 C   0  0  0  0  0  0  0  0  0  0  0  0
  -32.9196  -20.3661   21.5166 C   0  0  0  0  0  0  0  0  0  0  0  0
  -18.7204  -29.8892   22.2472 C   0  0  0  0  0  0  0  0  0  0  0  0
  -30.6209  -19.6418   21.3483 C   0  0  0  0  0  0  0  0  0  0  0  0
  -24.6534  -28.0227   20.4493 C   0  0  0  0  0  0  0  0  0  0  0  0
  -26.7230  -28.7210   20.1959 C   0  0  0  0  0  0  0  0  0  0  0  0
  -25.0708  -30.5572   20.5798 C   0  0  0  0  0  0  0  0  0  0  0  0
  -24.8393  -17.9131   20.6440 C   0  0  0  0  0  0  0  0  0  0  0  0
  -23.8552  -14.8369   20.9453 C   0  0  0  0  0  0  0  0  0  0  0  0
  -24.5523  -11.5198   20.5476 C   0  0  0  0  0  0  0  0  0  0  0  0
  -29.2921  -23.5406   21.3866 C   0  0  0  0  0  0  0  0  0  0  0  0
  -21.4933  -21.4979   22.0621 C   0  0  0  0  0  0  0  0  0  0  0  0
  -25.2989  -17.0093   18.3358 C   0  0  0  0  0  0  0  0  0  0  0  0
  -26.3019  -15.1951   20.4447 C   0  0  0  0  0  0  0  0  0  0  0  0
  -21.8302  -20.0792   22.5137 C   0  0  0  0  0  0  0  0  0  0  0  0
  -29.0861  -25.1074   18.1308 C   0  0  0  0  0  0  0  0  0  0  0  0
  -23.3349  -19.9249   22.7108 C   0  0  0  0  0  0  0  0  0  0  0  0
  -27.9912  -26.1500   18.3638 C   0  0  0  0  0  0  0  0  0  0  0  0
  -28.7875  -23.8144   18.8840 C   0  0  0  0  0  0  0  0  0  0  0  0
  -27.4820  -25.0310   20.5838 C   0  0  0  0  0  0  0  0  0  0  0  0
  -24.0907  -20.1630   21.3979 C   0  0  1  0  0  0  0  0  0  0  0  0
  -24.5537  -16.8200   19.6535 C   0  0  1  0  0  0  0  0  0  0  0  0
  -27.7369  -26.3693   19.8669 C   0  0  2  0  0  0  0  0  0  0  0  0
  -23.5676   -9.2417   20.9184 C   0  0  0  0  0  0  0  0  0  0  0  0
  -24.4322  -15.0762   23.9319 C   0  0  0  0  0  0  0  0  0  0  0  0
  -24.3525  -12.5780   24.0766 C   0  0  0  0  0  0  0  0  0  0  0  0
  -22.3259  -13.8500   23.3713 C   0  0  0  0  0  0  0  0  0  0  0  0
  -24.6546  -10.8783   17.6602 C   0  0  0  0  0  0  0  0  0  0  0  0
  -32.8769  -16.7260   20.4367 C   0  0  0  0  0  0  0  0  0  0  0  0
  -31.1343  -22.0119   22.0397 C   0  0  0  0  0  0  0  0  0  0  0  0
  -33.0396  -16.5651   18.9237 C   0  0  0  0  0  0  0  0  0  0  0  0
  -31.7314  -16.7168   18.1562 C   0  0  0  0  0  0  0  0  0  1  0  0
  -24.2822  -13.6549   21.7817 C   0  0  1  0  0  0  0  0  0  0  0  0
  -23.7475  -10.3878   19.9351 C   0  0  2  0  0  0  0  0  0  0  0  0
  -23.8662  -13.8027   23.2726 C   0  0  0  0  0  0  0  0  0  0  0  0
  -25.3622  -26.9067   20.2595 N   0  0  0  0  0  0  0  0  0  0  0  0
  -26.6168  -27.3641   20.1083 N   0  0  0  0  0  0  0  0  0  0  0  0
  -24.8801  -15.5526   20.3103 N   0  0  0  0  0  0  0  0  0  0  0  0
  -28.5740  -24.0904   20.3117 N   0  0  0  0  0  0  0  0  0  0  0  0
  -27.9123  -29.3467   20.0674 N   0  0  0  0  0  0  0  0  0  0  0  0
  -23.7199  -30.8565   20.8026 N   0  0  0  0  0  0  0  0  0  0  0  0
  -23.9934  -19.0009   20.5409 N   0  0  0  0  0  0  0  0  0  0  0  0
  -23.7381  -12.4717   21.1241 N   0  0  0  0  0  0  0  0  0  0  0  0
  -30.3052  -22.6535   21.0438 N   0  0  0  0  0  0  0  0  0  0  0  0
  -24.4337   -9.8621   18.7211 N   0  3  0  0  0  0  0  0  0  0  0  0
  -25.9036  -31.4928   20.5107 O   0  0  0  0  0  0  0  0  0  0  0  0
  -25.7581  -17.7789   21.4438 O   0  0  0  0  0  0  0  0  0  0  0  0
  -22.6560  -15.1106   20.8528 O   0  0  0  0  0  0  0  0  0  0  0  0
  -25.7806  -11.5543   20.5208 O   0  0  0  0  0  0  0  0  0  0  0  0
  -29.0518  -23.8236   22.5653 O   0  0  0  0  0  0  0  0  0  0  0  0
  -19.1266  -27.7359   21.2484 O   0  0  0  0  0  0  0  0  0  0  0  0
  -30.8104  -15.7311   18.6214 O   0  0  0  0  0  0  0  0  0  1  0  0
  -16.9579  -30.7792   25.3030 F   0  0  0  0  0  0  0  0  0  0  0  0
  -33.8266  -21.3170   21.7815 F   0  0  0  0  0  0  0  0  0  0  0  0
  -19.3772  -30.4891   21.2449 F   0  0  0  0  0  0  0  0  0  0  0  0
  -28.9258  -19.9434   21.4714 Cl  0  0  0  0  0  0  0  0  0  0  0  0
  1  2  1  0  0  0  0
  1  5  2  0  0  0  0
  2  6  2  0  0  0  0
  3  8  2  0  0  0  0
  3 17  1  0  0  0  0
  4  9  1  0  0  0  0
  4 17  2  0  0  0  0
  5 19  1  0  0  0  0
  6 21  1  0  0  0  0
  7 10  2  0  0  0  0
  7 20  1  0  0  0  0
  8 25  1  0  0  0  0
  9 25  2  0  0  0  0
 10 26  1  0  0  0  0
 11 12  2  0  0  0  0
 11 27  1  0  0  0  0
 12 28  1  0  0  0  0
 13 22  1  0  0  0  0
 13 26  2  0  0  0  0
 14 23  1  0  0  0  0
 14 29  2  0  0  0  0
 15 23  2  0  0  0  0
 15 31  1  0  0  0  0
 16 28  2  0  0  0  0
 16 30  1  0  0  0  0
 17 32  1  0  0  0  0
 18 32  1  0  0  0  0
 18 33  2  0  0  0  0
 18 34  1  0  0  0  0
 19 21  2  0  0  0  0
 19 39  1  0  0  0  0
 20 22  2  0  0  0  0
 20 40  1  0  0  0  0
 21 48  1  0  0  0  0
 22 41  1  0  0  0  0
 23 56  1  0  0  0  0
 24 29  1  0  0  0  0
 24 31  2  0  0  0  0
 24 57  1  0  0  0  0
 25 78  1  0  0  0  0
 26 79  1  0  0  0  0
 27 30  2  0  0  0  0
 27 78  1  0  0  0  0
 28 80  1  0  0  0  0
 29 81  1  0  0  0  0
 30 82  1  0  0  0  0
 31 83  1  0  0  0  0
 32 63  2  0  0  0  0
 33 64  1  0  0  0  0
 33 67  1  0  0  0  0
 34 68  1  0  0  0  0
 34 73  2  0  0  0  0
 35 49  1  0  0  0  0
 35 69  1  0  0  0  0
 35 74  2  0  0  0  0
 36 60  1  0  0  0  0
 36 65  1  0  0  0  0
 36 75  2  0  0  0  0
 37 61  1  0  0  0  0
 37 70  1  0  0  0  0
 37 76  2  0  0  0  0
 38 66  1  0  0  0  0
 38 71  1  0  0  0  0
 38 77  2  0  0  0  0
 39 42  1  0  0  0  0
 40 49  1  0  0  0  0
 41 65  1  0  0  0  0
 42 44  1  0  0  0  0
 43 45  1  0  0  0  0
 43 46  1  0  0  0  0
 44 48  1  0  0  0  0
 45 50  1  0  0  0  0
 46 66  1  0  0  0  0
 47 50  1  0  0  0  0
 47 66  1  0  0  0  0
 48 69  1  0  0  0  0
 49 65  1  0  0  0  0
 50 64  1  0  0  0  0
 51 61  1  0  0  0  0
 52 62  1  0  0  0  0
 53 62  1  0  0  0  0
 54 62  1  0  0  0  0
 55 72  1  0  0  0  0
 56 58  1  0  0  0  0
 57 71  1  0  0  0  0
 58 59  1  0  0  0  0
 59 79  1  0  0  0  0
 60 62  1  0  0  0  0
 60 70  1  0  0  0  0
 61 72  1  0  0  0  0
 63 64  1  0  0  0  0
M  CHG  1  72   1
M  ISO  4  38 100  59 101  71 100  79 101
M  END
> <Batch ID>
0026

> <Smiles>
CNC(C)C(=O)NC(C(=O)N1Cc2cc([101O:1][101CH2:1]CCc3cc(F)c(C[100NH:0][100C:0](=O)N4CCCC(n5nc(-c6ccc(Oc7ccc(F)cc7F)cc6)c(C(N)=O)c5N)C4)c(Cl)c3)ccc2CC1C(=O)NC1CCCc2ccccc21)C(C)(C)C

> <Shape>
0.208

> <Color>
0.069

> <Negative vol penalty>
0.000

$$$$

  -OEChem-04052316273D

 85 93  0     1  0  0  0  0  0999 V2000
  -20.3333  -17.8946   24.1671 C   0  0  0  0  0  0  0  0  0  0  0  0
  -21.6506  -18.2555   23.9026 C   0  0  0  0  0  0  0  0  0  0  0  0
  -21.1928  -29.0590   20.8982 C   0  0  0  0  0  0  0  0  0  0  0  0
  -22.5170  -27.6876   22.3824 C   0  0  0  0  0  0  0  0  0  0  0  0
  -20.0113  -16.5583   24.4010 C   0  0  0  0  0  0  0  0  0  0  0  0
  -22.6469  -17.2804   23.8731 C   0  0  0  0  0  0  0  0  0  0  0  0
  -25.7733  -17.8164   19.9255 C   0  0  0  0  0  0  0  0  0  0  0  0
  -20.0893  -28.2359   21.1222 C   0  0  0  0  0  0  0  0  0  0  0  0
  -21.4134  -26.8645   22.6065 C   0  0  0  0  0  0  0  0  0  0  0  0
  -26.7528  -18.8042   20.0185 C   0  0  0  0  0  0  0  0  0  0  0  0
  -19.8055  -24.3613   21.0004 C   0  0  0  0  0  0  0  0  0  0  0  0
  -20.0081  -22.9818   20.9646 C   0  0  0  0  0  0  0  0  0  0  0  0
  -28.3815  -17.1251   20.6077 C   0  0  0  0  0  0  0  0  0  0  0  0
  -30.7445  -24.9210   22.7000 C   0  0  0  0  0  0  0  0  0  0  0  0
  -29.8643  -23.6380   20.8517 C   0  0  0  0  0  0  0  0  0  0  0  0
  -19.2479  -22.8108   23.2515 C   0  0  0  0  0  0  0  0  0  0  0  0
  -22.4068  -28.7848   21.5282 C   0  0  0  0  0  0  0  0  0  0  0  0
  -23.9159  -30.7802   22.0269 C   0  0  0  0  0  0  0  0  0  0  0  0
  -21.0027  -15.5650   24.3647 C   0  0  0  0  0  0  0  0  0  0  0  0
  -26.0886  -16.4747   20.1839 C   0  0  0  0  0  0  0  0  0  0  0  0
  -22.3382  -15.9297   24.1080 C   0  0  0  0  0  0  0  0  0  0  0  0
  -27.4047  -16.1219   20.5147 C   0  0  0  0  0  0  0  0  0  0  0  0
  -30.9066  -26.0217   21.8588 C   0  0  0  0  0  0  0  0  0  0  0  0
  -30.0264  -24.7387   20.0104 C   0  0  0  0  0  0  0  0  0  0  0  0
  -30.5476  -25.9306   20.5140 C   0  0  0  0  0  0  0  0  0  0  0  0
  -30.2234  -23.7291   22.1964 C   0  0  0  0  0  0  0  0  0  0  0  0
  -20.1995  -27.1386   21.9764 C   0  0  0  0  0  0  0  0  0  0  0  0
  -28.0565  -18.4590   20.3625 C   0  0  0  0  0  0  0  0  0  0  0  0
  -19.3241  -24.9657   22.1617 C   0  0  0  0  0  0  0  0  0  0  0  0
  -19.7292  -22.2065   22.0902 C   0  0  0  0  0  0  0  0  0  0  0  0
  -19.0453  -24.1905   23.2873 C   0  0  0  0  0  0  0  0  0  0  0  0
  -23.5473  -29.6344   21.2968 C   0  0  0  0  0  0  0  0  0  0  0  0
  -25.0627  -31.2233   21.4145 C   0  0  0  0  0  0  0  0  0  0  0  0
  -23.2787  -31.3895   23.1576 C   0  0  0  0  0  0  0  0  0  0  0  0
  -25.1416  -14.3191   22.3194 C   0  0  0  0  0  0  0  0  0  0  0  0
  -26.9740  -12.3216   20.5376 C   0  0  0  0  0  0  0  0  0  0  0  0
  -29.5697  -11.9454   18.3542 C   0  0  0  0  0  0  0  0  0  0  0  0
  -29.2606  -28.4782   18.1445 C   0  0  0  0  0  0  0  0  0  0  0  0
  -20.6142  -14.1402   24.6705 C   0  0  0  0  0  0  0  0  0  0  0  0
  -25.0265  -15.4177   20.0531 C   0  0  0  0  0  0  0  0  0  0  0  0
  -27.7993  -14.6931   20.7821 C   0  0  0  0  0  0  0  0  0  0  0  0
  -21.6676  -13.1182   24.2510 C   0  0  0  0  0  0  0  0  0  0  0  0
  -27.2651  -31.2602   17.1672 C   0  0  0  0  0  0  0  0  0  0  0  0
  -23.0550  -13.5670   24.6990 C   0  0  0  0  0  0  0  0  0  0  0  0
  -26.1192  -31.2623   18.1807 C   0  0  0  0  0  0  0  0  0  0  0  0
  -27.6895  -29.8404   16.7983 C   0  0  0  0  0  0  0  0  0  0  0  0
  -26.8767  -28.9778   18.9591 C   0  0  0  0  0  0  0  0  0  0  0  0
  -23.4430  -14.8976   24.0429 C   0  0  1  0  0  0  0  0  0  0  0  0
  -25.3449  -14.1502   20.8402 C   0  0  1  0  0  0  0  0  0  0  0  0
  -26.4513  -30.3874   19.4044 C   0  0  2  0  0  0  0  0  0  0  0  0
  -31.4674  -27.2862   22.4228 C   0  0  0  0  0  0  0  0  0  0  0  0
  -29.6344  -24.6152   18.5743 C   0  0  0  0  0  0  0  0  0  0  0  0
  -30.8551  -10.1884   17.1060 C   0  0  0  0  0  0  0  0  0  0  0  0
  -28.4201  -11.5539   23.1124 C   0  0  0  0  0  0  0  0  0  0  0  0
  -30.2477  -10.5721   21.7109 C   0  0  0  0  0  0  0  0  0  0  0  0
  -27.9378   -9.6401   21.5764 C   0  0  0  0  0  0  0  0  0  0  0  0
  -30.4365  -22.7198   24.4539 C   0  0  0  0  0  0  0  0  0  0  0  0
  -28.8202  -13.0948   15.7319 C   0  0  0  0  0  0  0  0  0  0  0  0
  -30.7222  -27.1105   19.6116 C   0  0  0  0  0  0  0  0  0  0  0  0
  -30.5884  -20.5436   21.8765 C   0  0  0  0  0  0  0  0  0  0  0  0
  -29.5113  -21.3790   22.5579 C   0  0  0  0  0  0  0  0  0  0  0  0
  -30.0736  -19.1962   21.3840 C   0  0  0  0  0  0  0  0  0  1  0  0
  -28.4237  -11.9007   20.5539 C   0  0  1  0  0  0  0  0  0  0  0  0
  -29.6904  -11.1651   17.0577 C   0  0  2  0  0  0  0  0  0  0  0  0
  -28.7498  -10.9440   21.7353 C   0  0  0  0  0  0  0  0  0  0  0  0
  -24.3914  -29.3664   20.2969 N   0  0  0  0  0  0  0  0  0  0  0  0
  -25.3018  -30.3501   20.3943 N   0  0  0  0  0  0  0  0  0  0  0  0
  -26.7239  -13.6967   20.6478 N   0  0  0  0  0  0  0  0  0  0  0  0
  -27.9918  -29.0639   18.0031 N   0  0  0  0  0  0  0  0  0  0  0  0
  -25.8798  -32.2707   21.6545 N   0  0  0  0  0  0  0  0  0  0  0  0
  -22.1084  -30.8048   23.6603 N   0  0  0  0  0  0  0  0  0  0  0  0
  -23.8565  -14.6839   22.6726 N   0  0  0  0  0  0  0  0  0  0  0  0
  -28.7005  -11.3391   19.2363 N   0  0  0  0  0  0  0  0  0  0  0  0
  -29.4663  -27.7648   19.3190 N   0  0  0  0  0  0  0  0  0  0  0  0
  -30.0599  -22.6227   23.0423 N   0  0  3  0  0  0  0  0  0  0  0  0
  -29.9032  -12.0939   15.9119 N   0  3  0  0  0  0  0  0  0  0  0  0
  -23.7247  -32.4312   23.6956 O   0  0  0  0  0  0  0  0  0  0  0  0
  -26.0808  -14.1308   23.0837 O   0  0  0  0  0  0  0  0  0  0  0  0
  -26.0961  -11.4624   20.4239 O   0  0  0  0  0  0  0  0  0  0  0  0
  -30.1878  -12.9867   18.5649 O   0  0  0  0  0  0  0  0  0  0  0  0
  -30.1464  -28.5876   17.2899 O   0  0  0  0  0  0  0  0  0  0  0  0
  -19.1228  -26.3354   22.1954 O   0  0  0  0  0  0  0  0  0  0  0  0
  -29.0143  -19.4212   20.4547 O   0  0  0  0  0  0  0  0  0  1  0  0
  -19.9224  -20.8815   22.0552 F   0  0  0  0  0  0  0  0  0  0  0  0
  -18.5816  -24.7653   24.4055 F   0  0  0  0  0  0  0  0  0  0  0  0
  1  2  1  0  0  0  0
  1  5  2  0  0  0  0
  2  6  2  0  0  0  0
  3  8  2  0  0  0  0
  3 17  1  0  0  0  0
  4  9  1  0  0  0  0
  4 17  2  0  0  0  0
  5 19  1  0  0  0  0
  6 21  1  0  0  0  0
  7 10  2  0  0  0  0
  7 20  1  0  0  0  0
  8 27  1  0  0  0  0
  9 27  2  0  0  0  0
 10 28  1  0  0  0  0
 11 12  2  0  0  0  0
 11 29  1  0  0  0  0
 12 30  1  0  0  0  0
 13 22  1  0  0  0  0
 13 28  2  0  0  0  0
 14 23  2  0  0  0  0
 14 26  1  0  0  0  0
 15 24  1  0  0  0  0
 15 26  2  0  0  0  0
 16 30  2  0  0  0  0
 16 31  1  0  0  0  0
 17 32  1  0  0  0  0
 18 32  1  0  0  0  0
 18 33  2  0  0  0  0
 18 34  1  0  0  0  0
 19 21  2  0  0  0  0
 19 39  1  0  0  0  0
 20 22  2  0  0  0  0
 20 40  1  0  0  0  0
 21 48  1  0  0  0  0
 22 41  1  0  0  0  0
 23 25  1  0  0  0  0
 23 51  1  0  0  0  0
 24 25  2  0  0  0  0
 24 52  1  0  0  0  0
 25 59  1  0  0  0  0
 26 75  1  0  0  0  0
 27 82  1  0  0  0  0
 28 83  1  0  0  0  0
 29 31  2  0  0  0  0
 29 82  1  0  0  0  0
 30 84  1  0  0  0  0
 31 85  1  0  0  0  0
 32 66  2  0  0  0  0
 33 67  1  0  0  0  0
 33 70  1  0  0  0  0
 34 71  1  0  0  0  0
 34 77  2  0  0  0  0
 35 49  1  0  0  0  0
 35 72  1  0  0  0  0
 35 78  2  0  0  0  0
 36 63  1  0  0  0  0
 36 68  1  0  0  0  0
 36 79  2  0  0  0  0
 37 64  1  0  0  0  0
 37 73  1  0  0  0  0
 37 80  2  0  0  0  0
 38 69  1  0  0  0  0
 38 74  1  0  0  0  0
 38 81  2  0  0  0  0
 39 42  1  0  0  0  0
 40 49  1  0  0  0  0
 41 68  1  0  0  0  0
 42 44  1  0  0  0  0
 43 45  1  0  0  0  0
 43 46  1  0  0  0  0
 44 48  1  0  0  0  0
 45 50  1  0  0  0  0
 46 69  1  0  0  0  0
 47 50  1  0  0  0  0
 47 69  1  0  0  0  0
 48 72  1  0  0  0  0
 49 68  1  0  0  0  0
 50 67  1  0  0  0  0
 53 64  1  0  0  0  0
 54 65  1  0  0  0  0
 55 65  1  0  0  0  0
 56 65  1  0  0  0  0
 57 75  1  0  0  0  0
 58 76  1  0  0  0  0
 59 74  1  0  0  0  0
 60 61  1  0  0  0  0
 60 62  1  0  0  0  0
 61 75  1  0  0  0  0
 62 83  1  0  0  0  0
 63 65  1  0  0  0  0
 63 73  1  0  0  0  0
 64 76  1  0  0  0  0
 66 67  1  0  0  0  0
M  CHG  1  76   1
M  ISO  4  38 100  62 101  74 100  83 101
M  END
> <Batch ID>
0026

> <Smiles>
CNC(C)C(=O)NC(C(=O)N1Cc2cc([101O:1][101CH2:1]CCN(C)c3cc(C)c(C[100NH:0][100C:0](=O)N4CCCC(n5nc(-c6ccc(Oc7ccc(F)cc7F)cc6)c(C(N)=O)c5N)C4)c(C)c3)ccc2CC1C(=O)NC1CCCc2ccccc21)C(C)(C)C

> <Shape>
0.226

> <Color>
0.058

> <Negative vol penalty>
0.000

$$$$

  -OEChem-04052316273D

 90 98  0     1  0  0  0  0  0999 V2000
  -26.7188  -36.4705   21.4049 C   0  0  0  0  0  0  0  0  0  0  0  0
  -27.2998  -35.5695   20.5184 C   0  0  0  0  0  0  0  0  0  0  0  0
  -23.0292   -9.8176   20.0104 C   0  0  0  0  0  0  0  0  0  0  0  0
  -23.7708   -9.9301   22.3071 C   0  0  0  0  0  0  0  0  0  0  0  0
  -26.3630  -36.0540   22.6871 C   0  0  0  0  0  0  0  0  0  0  0  0
  -27.5265  -34.2517   20.9139 C   0  0  0  0  0  0  0  0  0  0  0  0
  -27.6807  -27.5853   18.2963 C   0  0  0  0  0  0  0  0  0  0  0  0
  -22.2831   -8.6771   20.3072 C   0  0  0  0  0  0  0  0  0  0  0  0
  -23.0246   -8.7896   22.6039 C   0  0  0  0  0  0  0  0  0  0  0  0
  -28.5106  -26.4660   18.2482 C   0  0  0  0  0  0  0  0  0  0  0  0
  -23.3191   -5.4455   22.2023 C   0  0  0  0  0  0  0  0  0  0  0  0
  -23.9286   -4.4544   22.9715 C   0  0  0  0  0  0  0  0  0  0  0  0
  -27.7827  -25.8386   20.4608 C   0  0  0  0  0  0  0  0  0  0  0  0
  -22.2137   -4.7062   24.6546 C   0  0  0  0  0  0  0  0  0  0  0  0
  -23.7732  -10.4441   21.0103 C   0  0  0  0  0  0  0  0  0  0  0  0
  -24.1166  -12.9611   20.7770 C   0  0  0  0  0  0  0  0  0  0  0  0
  -26.5767  -34.7279   23.0952 C   0  0  0  0  0  0  0  0  0  0  0  0
  -26.9025  -27.8459   19.4334 C   0  0  0  0  0  0  0  0  0  0  0  0
  -27.1746  -33.8174   22.2031 C   0  0  0  0  0  0  0  0  0  0  0  0
  -26.9418  -26.9604   20.5198 C   0  0  0  0  0  0  0  0  0  0  0  0
  -31.5794  -22.5475   20.8579 C   0  0  0  0  0  0  0  0  0  0  0  0
  -32.4924  -21.5121   20.6576 C   0  0  0  0  0  0  0  0  0  0  0  0
  -30.3475  -22.5273   20.2039 C   0  0  0  0  0  0  0  0  0  0  0  0
  -30.9415  -20.4363   19.1494 C   0  0  0  0  0  0  0  0  0  0  0  0
  -22.2808   -8.1631   21.6039 C   0  0  0  0  0  0  0  0  0  0  0  0
  -28.5639  -25.5940   19.3316 C   0  0  0  0  0  0  0  0  0  0  0  0
  -22.1569   -6.0671   22.6592 C   0  0  0  0  0  0  0  0  0  0  0  0
  -23.3759   -4.0847   24.1977 C   0  0  0  0  0  0  0  0  0  0  0  0
  -21.6042   -5.6974   23.8854 C   0  0  0  0  0  0  0  0  0  0  0  0
  -32.1735  -20.4566   19.8034 C   0  0  0  0  0  0  0  0  0  0  0  0
  -30.0285  -21.4717   19.3497 C   0  0  0  0  0  0  0  0  0  0  0  0
  -24.5446  -11.6219   20.7042 C   0  0  0  0  0  0  0  0  0  0  0  0
  -25.2118  -13.6932   20.3884 C   0  0  0  0  0  0  0  0  0  0  0  0
  -22.8430  -13.4955   21.1616 C   0  0  0  0  0  0  0  0  0  0  0  0
  -26.7600  -30.2022   21.5621 C   0  0  0  0  0  0  0  0  0  0  0  0
  -30.7142  -14.6585   20.6735 C   0  0  0  0  0  0  0  0  0  0  0  0
  -24.1821  -28.5520   22.6363 C   0  0  0  0  0  0  0  0  0  0  0  0
  -22.5420  -25.5680   22.8652 C   0  0  0  0  0  0  0  0  0  0  0  0
  -26.2189  -34.3364   24.5071 C   0  0  0  0  0  0  0  0  0  0  0  0
  -25.9923  -29.0431   19.4590 C   0  0  0  0  0  0  0  0  0  0  0  0
  -26.1108  -27.1843   21.7558 C   0  0  0  0  0  0  0  0  0  0  0  0
  -26.1493  -32.8266   24.7214 C   0  0  0  0  0  0  0  0  0  0  0  0
  -29.5687  -12.2496   18.2808 C   0  0  0  0  0  0  0  0  0  0  0  0
  -27.3640  -32.1429   24.1020 C   0  0  0  0  0  0  0  0  0  0  0  0
  -28.1348  -11.9592   18.7221 C   0  0  0  0  0  0  0  0  0  0  0  0
  -30.4797  -12.5073   19.4770 C   0  0  0  0  0  0  0  0  0  0  0  0
  -28.5654  -13.3054   20.8262 C   0  0  0  0  0  0  0  0  0  0  0  0
  -27.4138  -32.3732   22.5868 C   0  0  1  0  0  0  0  0  0  0  0  0
  -25.6314  -29.4892   20.8725 C   0  0  1  0  0  0  0  0  0  0  0  0
  -27.6053  -13.0696   19.6467 C   0  0  2  0  0  0  0  0  0  0  0  0
  -32.3203  -24.9379   21.0118 C   0  0  0  0  0  0  0  0  0  0  0  0
  -33.8462  -20.6022   22.5617 C   0  0  0  0  0  0  0  0  0  0  0  0
  -31.1478  -16.3026   22.4694 C   0  0  0  0  0  0  0  0  0  0  0  0
  -20.4771  -24.5246   23.8372 C   0  0  0  0  0  0  0  0  0  0  0  0
  -28.2783  -17.5088   21.5209 C   0  0  0  0  0  0  0  0  0  0  0  0
  -25.4700  -28.5857   25.4022 C   0  0  0  0  0  0  0  0  0  0  0  0
  -23.8892  -26.7678   26.0838 C   0  0  0  0  0  0  0  0  0  0  0  0
  -23.0029  -28.9955   25.3951 C   0  0  0  0  0  0  0  0  0  0  0  0
  -21.5338  -24.7952   20.1921 C   0  0  0  0  0  0  0  0  0  0  0  0
  -31.9213  -23.6800   21.7749 C   0  0  0  0  0  0  0  0  0  0  0  0
  -33.8094  -21.5514   21.3699 C   0  0  0  0  0  0  0  0  0  0  0  0
  -30.5988  -19.3019   18.2308 C   0  0  0  0  0  0  0  0  0  0  0  0
  -29.3789  -23.6501   20.4329 C   0  0  0  0  0  0  0  0  0  1  0  0
  -29.6123  -18.3008   18.8255 C   0  0  0  0  0  0  0  0  0  0  0  0
  -30.0789  -15.6949   21.5658 C   0  0  1  0  0  0  0  0  0  0  0  0
  -23.9629  -27.4475   23.6418 C   0  0  1  0  0  0  0  0  0  0  0  0
  -21.0917  -25.1942   22.6179 C   0  0  2  0  0  0  0  0  0  0  0  0
  -29.2833  -16.6973   20.7122 C   0  0  2  0  0  0  0  0  0  0  0  0
  -24.0985  -27.9457   25.1083 C   0  0  0  0  0  0  0  0  0  0  0  0
  -25.8127  -11.5071   20.3009 N   0  0  0  0  0  0  0  0  0  0  0  0
  -26.1910  -12.7835   20.1167 N   0  0  0  0  0  0  0  0  0  0  0  0
  -25.2413  -28.3723   21.7354 N   0  0  0  0  0  0  0  0  0  0  0  0
  -29.9308  -13.5527   20.3425 N   0  0  0  0  0  0  0  0  0  0  0  0
  -25.4232  -15.0199   20.2559 N   0  0  0  0  0  0  0  0  0  0  0  0
  -21.8281  -12.6027   21.5323 N   0  0  0  0  0  0  0  0  0  0  0  0
  -26.4705  -31.5071   21.9126 N   0  0  0  0  0  0  0  0  0  0  0  0
  -22.6644  -26.8613   23.3275 N   0  0  0  0  0  0  0  0  0  0  0  0
  -20.9880  -24.2563   21.4644 N   0  3  0  0  0  0  0  0  0  0  0  0
  -30.1955  -17.6523   20.0260 N   0  3  0  0  0  0  0  0  0  0  0  0
  -22.6066  -14.7274   21.1604 O   0  0  0  0  0  0  0  0  0  0  0  0
  -27.8149  -29.6116   21.7627 O   0  0  0  0  0  0  0  0  0  0  0  0
  -31.8713  -14.8298   20.2809 O   0  0  0  0  0  0  0  0  0  0  0  0
  -23.4365  -29.5347   22.6452 O   0  0  0  0  0  0  0  0  0  0  0  0
  -23.4730  -24.7893   22.6715 O   0  0  0  0  0  0  0  0  0  0  0  0
  -21.5526   -7.0504   21.8940 O   0  0  0  0  0  0  0  0  0  0  0  0
  -29.3735  -24.5011   19.2875 O   0  0  0  0  0  0  0  0  0  1  0  0
  -23.9604   -3.1318   24.9356 F   0  0  0  0  0  0  0  0  0  0  0  0
  -20.4872   -6.2900   24.3290 F   0  0  0  0  0  0  0  0  0  0  0  0
  -33.3106  -19.1715   19.5561 Cl  0  0  0  0  0  0  0  0  0  0  0  0
  -28.4960  -21.4491   18.5393 Cl  0  0  0  0  0  0  0  0  0  0  0  0
  1  2  1  0  0  0  0
  1  5  2  0  0  0  0
  2  6  2  0  0  0  0
  3  8  2  0  0  0  0
  3 15  1  0  0  0  0
  4  9  1  0  0  0  0
  4 15  2  0  0  0  0
  5 17  1  0  0  0  0
  6 19  1  0  0  0  0
  7 10  2  0  0  0  0
  7 18  1  0  0  0  0
  8 25  1  0  0  0  0
  9 25  2  0  0  0  0
 10 26  1  0  0  0  0
 11 12  2  0  0  0  0
 11 27  1  0  0  0  0
 12 28  1  0  0  0  0
 13 20  1  0  0  0  0
 13 26  2  0  0  0  0
 14 28  2  0  0  0  0
 14 29  1  0  0  0  0
 15 32  1  0  0  0  0
 16 32  1  0  0  0  0
 16 33  2  0  0  0  0
 16 34  1  0  0  0  0
 17 19  2  0  0  0  0
 17 39  1  0  0  0  0
 18 20  2  0  0  0  0
 18 40  1  0  0  0  0
 19 48  1  0  0  0  0
 20 41  1  0  0  0  0
 21 22  2  0  0  0  0
 21 23  1  0  0  0  0
 21 60  1  0  0  0  0
 22 30  1  0  0  0  0
 22 61  1  0  0  0  0
 23 31  2  0  0  0  0
 23 63  1  0  0  0  0
 24 30  2  0  0  0  0
 24 31  1  0  0  0  0
 24 62  1  0  0  0  0
 25 85  1  0  0  0  0
 26 86  1  0  0  0  0
 27 29  2  0  0  0  0
 27 85  1  0  0  0  0
 28 87  1  0  0  0  0
 29 88  1  0  0  0  0
 30 89  1  0  0  0  0
 31 90  1  0  0  0  0
 32 70  2  0  0  0  0
 33 71  1  0  0  0  0
 33 74  1  0  0  0  0
 34 75  1  0  0  0  0
 34 80  2  0  0  0  0
 35 49  1  0  0  0  0
 35 76  1  0  0  0  0
 35 81  2  0  0  0  0
 36 65  1  0  0  0  0
 36 73  1  0  0  0  0
 36 82  2  0  0  0  0
 37 66  1  0  0  0  0
 37 72  1  0  0  0  0
 37 83  2  0  0  0  0
 38 67  1  0  0  0  0
 38 77  1  0  0  0  0
 38 84  2  0  0  0  0
 39 42  1  0  0  0  0
 40 49  1  0  0  0  0
 41 72  1  0  0  0  0
 42 44  1  0  0  0  0
 43 45  1  0  0  0  0
 43 46  1  0  0  0  0
 44 48  1  0  0  0  0
 45 50  1  0  0  0  0
 46 73  1  0  0  0  0
 47 50  1  0  0  0  0
 47 73  1  0  0  0  0
 48 76  1  0  0  0  0
 49 72  1  0  0  0  0
 50 71  1  0  0  0  0
 51 60  1  0  0  0  0
 52 61  1  0  0  0  0
 53 65  1  0  0  0  0
 54 67  1  0  0  0  0
 55 68  1  0  0  0  0
 56 69  1  0  0  0  0
 57 69  1  0  0  0  0
 58 69  1  0  0  0  0
 59 78  1  0  0  0  0
 62 64  1  0  0  0  0
 63 86  1  0  0  0  0
 64 79  1  0  0  0  0
 65 68  1  0  0  0  0
 66 69  1  0  0  0  0
 66 77  1  0  0  0  0
 67 78  1  0  0  0  0
 68 79  1  0  0  0  0
 70 71  1  0  0  0  0
M  CHG  2  78   1  79   1
M  ISO  4  36 100  63 101  65 100  86 101
M  END
> <Batch ID>
0026

> <Smiles>
CCc1c(Cl)c(CCNC(C)[100CH:0](C)[100C:0](=O)N2CCCC(n3nc(-c4ccc(Oc5ccc(F)cc5F)cc4)c(C(N)=O)c3N)C2)c(Cl)c([101CH2:1][101O:1]c2ccc3c(c2)CN(C(=O)C(NC(=O)C(C)NC)C(C)(C)C)C(C(=O)NC2CCCc4ccccc42)C3)c1CC

> <Shape>
0.349

> <Color>
0.219

> <Negative vol penalty>
0.000

$$$$

  -OEChem-04052316273D

 93101  0     1  0  0  0  0  0999 V2000
  -34.5646  -14.5713   19.2962 C   0  0  0  0  0  0  0  0  0  0  0  0
  -33.5048  -15.4523   19.1066 C   0  0  0  0  0  0  0  0  0  0  0  0
  -30.0348  -24.6032   19.3736 C   0  0  0  0  0  0  0  0  0  0  0  0
  -29.6063  -25.9023   17.3822 C   0  0  0  0  0  0  0  0  0  0  0  0
  -34.3710  -13.2018   19.1207 C   0  0  0  0  0  0  0  0  0  0  0  0
  -32.2509  -14.9644   18.7403 C   0  0  0  0  0  0  0  0  0  0  0  0
  -28.4909  -17.0892   21.3846 C   0  0  0  0  0  0  0  0  0  0  0  0
  -30.1547  -23.4512   18.5963 C   0  0  0  0  0  0  0  0  0  0  0  0
  -29.7262  -24.7503   16.6049 C   0  0  0  0  0  0  0  0  0  0  0  0
  -28.0936  -18.3716   21.0086 C   0  0  0  0  0  0  0  0  0  0  0  0
  -27.8221  -22.0720   15.8099 C   0  0  0  0  0  0  0  0  0  0  0  0
  -26.8656  -21.8573   14.8176 C   0  0  0  0  0  0  0  0  0  0  0  0
  -26.2232  -17.4337   19.8082 C   0  0  0  0  0  0  0  0  0  0  0  0
  -19.2977  -28.5106   23.2836 C   0  0  0  0  0  0  0  0  0  0  0  0
  -28.6032  -21.8756   13.1390 C   0  0  0  0  0  0  0  0  0  0  0  0
  -29.7606  -25.8287   18.7665 C   0  0  0  0  0  0  0  0  0  0  0  0
  -30.6628  -27.9118   19.9303 C   0  0  0  0  0  0  0  0  0  0  0  0
  -33.1118  -12.6959   18.7615 C   0  0  0  0  0  0  0  0  0  0  0  0
  -27.7623  -15.9667   20.9654 C   0  0  0  0  0  0  0  0  0  0  0  0
  -32.0407  -13.5869   18.5585 C   0  0  0  0  0  0  0  0  0  0  0  0
  -26.6118  -16.1383   20.1824 C   0  0  0  0  0  0  0  0  0  0  0  0
  -18.9085  -28.5814   21.9461 C   0  0  0  0  0  0  0  0  0  0  0  0
  -20.0318  -26.2332   22.9496 C   0  0  0  0  0  0  0  0  0  0  0  0
  -19.6426  -26.3040   21.6120 C   0  0  0  0  0  0  0  0  0  0  0  0
  -30.0004  -23.5247   17.2120 C   0  0  0  0  0  0  0  0  0  0  0  0
  -26.9613  -18.5438   20.2179 C   0  0  0  0  0  0  0  0  0  0  0  0
  -29.1691  -22.1885   15.4668 C   0  0  0  0  0  0  0  0  0  0  0  0
  -27.2562  -21.7591   13.4821 C   0  0  0  0  0  0  0  0  0  0  0  0
  -29.5596  -22.0903   14.1313 C   0  0  0  0  0  0  0  0  0  0  0  0
  -19.8594  -27.3365   23.7854 C   0  0  0  0  0  0  0  0  0  0  0  0
  -19.0810  -27.4781   21.1102 C   0  0  0  0  0  0  0  0  0  0  0  0
  -29.6361  -27.0190   19.5690 C   0  0  0  0  0  0  0  0  0  0  0  0
  -30.0343  -28.8689   20.6888 C   0  0  0  0  0  0  0  0  0  0  0  0
  -32.0597  -27.8791   19.6089 C   0  0  0  0  0  0  0  0  0  0  0  0
  -28.4029  -13.4140   19.1831 C   0  0  0  0  0  0  0  0  0  0  0  0
  -25.4341  -12.5000   20.1174 C   0  0  0  0  0  0  0  0  0  0  0  0
  -22.3442  -13.4082   21.2462 C   0  0  0  0  0  0  0  0  0  0  0  0
  -24.4464  -30.7722   20.7794 C   0  0  0  0  0  0  0  0  0  0  0  0
  -32.9627  -11.2119   18.5372 C   0  0  0  0  0  0  0  0  0  0  0  0
  -28.1887  -14.5919   21.4018 C   0  0  0  0  0  0  0  0  0  0  0  0
  -25.7834  -14.9673   19.7230 C   0  0  0  0  0  0  0  0  0  0  0  0
  -31.5104  -10.7423   18.5141 C   0  0  0  0  0  0  0  0  0  0  0  0
  -26.2896  -29.4698   23.6084 C   0  0  0  0  0  0  0  0  0  0  0  0
  -30.6659  -11.6615   17.6373 C   0  0  0  0  0  0  0  0  0  0  0  0
  -27.4620  -28.7748   22.9137 C   0  0  0  0  0  0  0  0  0  0  0  0
  -24.9985  -29.3043   22.8124 C   0  0  0  0  0  0  0  0  0  0  0  0
  -26.2528  -29.0771   20.7032 C   0  0  0  0  0  0  0  0  0  0  0  0
  -30.6595  -13.0937   18.1851 C   0  0  1  0  0  0  0  0  0  0  0  0
  -27.6652  -13.4865   20.4900 C   0  0  1  0  0  0  0  0  0  0  0  0
  -27.5922  -29.2271   21.4472 C   0  0  2  0  0  0  0  0  0  0  0  0
  -20.6351  -24.9679   23.4765 C   0  0  0  0  0  0  0  0  0  0  0  0
  -20.1170  -12.4425   21.8821 C   0  0  0  0  0  0  0  0  0  0  0  0
  -24.7569  -12.1250   17.1660 C   0  0  0  0  0  0  0  0  0  0  0  0
  -22.3343  -12.0977   17.7972 C   0  0  0  0  0  0  0  0  0  0  0  0
  -23.8699  -10.3387   18.6750 C   0  0  0  0  0  0  0  0  0  0  0  0
  -22.5699  -14.4139   24.0205 C   0  0  0  0  0  0  0  0  0  0  0  0
  -21.6977  -25.8992   19.2761 C   0  0  0  0  0  0  0  0  0  0  0  0
  -18.3116  -29.8603   21.4521 C   0  0  0  0  0  0  0  0  0  0  0  0
  -19.8349  -25.1080   20.7268 C   0  0  0  0  0  0  0  0  0  0  0  0
  -23.3598  -21.7531   19.7785 C   0  0  0  0  0  0  0  0  0  0  0  0
  -23.0308  -23.2028   20.1373 C   0  0  0  0  0  0  0  0  0  0  0  0
  -24.8472  -21.4590   19.9604 C   0  0  0  0  0  0  0  0  0  0  0  0
  -21.3489  -31.8826   20.3408 C   0  0  0  0  0  0  0  0  0  0  0  0
  -22.6098  -32.4255   21.0047 C   0  0  0  0  0  0  0  0  0  0  0  0
  -21.5542  -23.4977   19.9195 C   0  0  0  0  0  0  0  0  0  0  0  0
  -20.4704  -31.1092   21.3158 C   0  0  0  0  0  0  0  0  0  0  0  0
  -25.1752  -20.0062   19.6460 C   0  0  0  0  0  0  0  0  0  1  0  0
  -24.0370  -12.6938   19.5794 C   0  0  1  0  0  0  0  0  0  0  0  0
  -21.4882  -12.8723   22.3797 C   0  0  2  0  0  0  0  0  0  0  0  0
  -23.7660  -11.8359   18.3113 C   0  0  0  0  0  0  0  0  0  0  0  0
  -28.4458  -27.3768   20.0579 N   0  0  0  0  0  0  0  0  0  0  0  0
  -28.7206  -28.5051   20.7343 N   0  0  0  0  0  0  0  0  0  0  0  0
  -26.2447  -13.6428   20.1704 N   0  0  0  0  0  0  0  0  0  0  0  0
  -25.1846  -29.7703   21.4309 N   0  0  0  0  0  0  0  0  0  0  0  0
  -30.4827  -29.9777   21.3148 N   0  0  0  0  0  0  0  0  0  0  0  0
  -32.5390  -26.8251   18.8191 N   0  0  0  0  0  0  0  0  0  0  0  0
  -29.7615  -13.1986   19.3151 N   0  0  0  0  0  0  0  0  0  0  0  0
  -23.1306  -12.4217   20.6897 N   0  0  0  0  0  0  0  0  0  0  0  0
  -23.4486  -31.3743   21.5361 N   0  0  0  0  0  0  0  0  0  0  0  0
  -21.3023  -13.9165   23.4266 N   0  3  0  0  0  0  0  0  0  0  0  0
  -19.2435  -30.6560   20.6088 N   0  3  0  0  0  0  0  0  0  0  0  0
  -21.2737  -24.8969   20.3220 N   0  3  1  0  0  0  0  0  0  0  0  0
  -32.8620  -28.7494   20.0238 O   0  0  0  0  0  0  0  0  0  0  0  0
  -27.7851  -13.5425   18.1326 O   0  0  0  0  0  0  0  0  0  0  0  0
  -25.7907  -11.3774   20.4841 O   0  0  0  0  0  0  0  0  0  0  0  0
  -22.3151  -14.5834   20.8878 O   0  0  0  0  0  0  0  0  0  0  0  0
  -24.6639  -31.1095   19.6106 O   0  0  0  0  0  0  0  0  0  0  0  0
  -30.1175  -22.4008   16.4532 O   0  0  0  0  0  0  0  0  0  0  0  0
  -26.5717  -19.7944   19.8490 O   0  0  0  0  0  0  0  0  0  1  0  0
  -26.3377  -21.5514   12.5295 F   0  0  0  0  0  0  0  0  0  0  0  0
  -30.8523  -22.2002   13.7957 F   0  0  0  0  0  0  0  0  0  0  0  0
  -20.3297  -27.2910   25.4462 Cl  0  0  0  0  0  0  0  0  0  0  0  0
  -18.5952  -27.5700   19.4496 Cl  0  0  0  0  0  0  0  0  0  0  0  0
  1  2  1  0  0  0  0
  1  5  2  0  0  0  0
  2  6  2  0  0  0  0
  3  8  2  0  0  0  0
  3 16  1  0  0  0  0
  4  9  1  0  0  0  0
  4 16  2  0  0  0  0
  5 18  1  0  0  0  0
  6 20  1  0  0  0  0
  7 10  2  0  0  0  0
  7 19  1  0  0  0  0
  8 25  1  0  0  0  0
  9 25  2  0  0  0  0
 10 26  1  0  0  0  0
 11 12  2  0  0  0  0
 11 27  1  0  0  0  0
 12 28  1  0  0  0  0
 13 21  1  0  0  0  0
 13 26  2  0  0  0  0
 14 22  2  0  0  0  0
 14 30  1  0  0  0  0
 15 28  2  0  0  0  0
 15 29  1  0  0  0  0
 16 32  1  0  0  0  0
 17 32  1  0  0  0  0
 17 33  2  0  0  0  0
 17 34  1  0  0  0  0
 18 20  2  0  0  0  0
 18 39  1  0  0  0  0
 19 21  2  0  0  0  0
 19 40  1  0  0  0  0
 20 48  1  0  0  0  0
 21 41  1  0  0  0  0
 22 31  1  0  0  0  0
 22 58  1  0  0  0  0
 23 24  1  0  0  0  0
 23 30  2  0  0  0  0
 23 51  1  0  0  0  0
 24 31  2  0  0  0  0
 24 59  1  0  0  0  0
 25 88  1  0  0  0  0
 26 89  1  0  0  0  0
 27 29  2  0  0  0  0
 27 88  1  0  0  0  0
 28 90  1  0  0  0  0
 29 91  1  0  0  0  0
 30 92  1  0  0  0  0
 31 93  1  0  0  0  0
 32 71  2  0  0  0  0
 33 72  1  0  0  0  0
 33 75  1  0  0  0  0
 34 76  1  0  0  0  0
 34 83  2  0  0  0  0
 35 49  1  0  0  0  0
 35 77  1  0  0  0  0
 35 84  2  0  0  0  0
 36 68  1  0  0  0  0
 36 73  1  0  0  0  0
 36 85  2  0  0  0  0
 37 69  1  0  0  0  0
 37 78  1  0  0  0  0
 37 86  2  0  0  0  0
 38 74  1  0  0  0  0
 38 79  1  0  0  0  0
 38 87  2  0  0  0  0
 39 42  1  0  0  0  0
 40 49  1  0  0  0  0
 41 73  1  0  0  0  0
 42 44  1  0  0  0  0
 43 45  1  0  0  0  0
 43 46  1  0  0  0  0
 44 48  1  0  0  0  0
 45 50  1  0  0  0  0
 46 74  1  0  0  0  0
 47 50  1  0  0  0  0
 47 74  1  0  0  0  0
 48 77  1  0  0  0  0
 49 73  1  0  0  0  0
 50 72  1  0  0  0  0
 52 69  1  0  0  0  0
 53 70  1  0  0  0  0
 54 70  1  0  0  0  0
 55 70  1  0  0  0  0
 56 80  1  0  0  0  0
 57 82  1  0  0  0  0
 58 81  1  0  0  0  0
 59 82  1  0  0  0  0
 60 61  1  0  0  0  0
 60 62  1  0  0  0  0
 61 65  1  0  0  0  0
 62 67  1  0  0  0  0
 63 64  1  0  0  0  0
 63 66  1  0  0  0  0
 64 79  1  0  0  0  0
 65 82  1  0  0  0  0
 66 81  1  0  0  0  0
 67 89  1  0  0  0  0
 68 70  1  0  0  0  0
 68 78  1  0  0  0  0
 69 80  1  0  0  0  0
 71 72  1  0  0  0  0
M  CHG  3  80   1  81   1  82   1
M  ISO  4  38 100  67 101  79 100  89 101
M  END
> <Batch ID>
0026

> <Smiles>
CNC(C)C(=O)NC(C(=O)N1Cc2cc([101O:1][101CH2:1]CCCCN(C)Cc3c(C)c(Cl)cc(CNCCC[100NH:0][100C:0](=O)N4CCCC(n5nc(-c6ccc(Oc7ccc(F)cc7F)cc6)c(C(N)=O)c5N)C4)c3Cl)ccc2CC1C(=O)NC1CCCc2ccccc21)C(C)(C)C

> <Shape>
0.260

> <Color>
0.064

> <Negative vol penalty>
0.000

$$$$

  -OEChem-04052316273D

 88 96  0     1  0  0  0  0  0999 V2000
  -26.9895  -20.3157   26.9169 C   0  0  0  0  0  0  0  0  0  0  0  0
  -27.4930  -21.1044   25.8874 C   0  0  0  0  0  0  0  0  0  0  0  0
  -24.3670  -10.2540   22.6852 C   0  0  0  0  0  0  0  0  0  0  0  0
  -24.4851  -11.8650   24.4817 C   0  0  0  0  0  0  0  0  0  0  0  0
  -25.6586  -20.4504   27.3097 C   0  0  0  0  0  0  0  0  0  0  0  0
  -26.6653  -22.0276   25.2493 C   0  0  0  0  0  0  0  0  0  0  0  0
  -28.9119  -26.5172   24.5852 C   0  0  0  0  0  0  0  0  0  0  0  0
  -23.9199   -9.2850   23.5834 C   0  0  0  0  0  0  0  0  0  0  0  0
  -24.0379  -10.8961   25.3800 C   0  0  0  0  0  0  0  0  0  0  0  0
  -29.8257  -26.6232   23.5376 C   0  0  0  0  0  0  0  0  0  0  0  0
  -21.0223   -8.4585   25.1175 C   0  0  0  0  0  0  0  0  0  0  0  0
  -19.9443   -7.6630   24.7294 C   0  0  0  0  0  0  0  0  0  0  0  0
  -28.1369  -27.6830   22.1797 C   0  0  0  0  0  0  0  0  0  0  0  0
  -29.8607  -21.0551   18.4375 C   0  0  0  0  0  0  0  0  0  0  0  0
  -21.3212   -5.6900   24.9495 C   0  0  0  0  0  0  0  0  0  0  0  0
  -24.6497  -11.5440   23.1343 C   0  0  0  0  0  0  0  0  0  0  0  0
  -24.3237  -13.4388   21.4577 C   0  0  0  0  0  0  0  0  0  0  0  0
  -24.8168  -21.3825   26.6826 C   0  0  0  0  0  0  0  0  0  0  0  0
  -27.5984  -26.9843   24.4339 C   0  0  0  0  0  0  0  0  0  0  0  0
  -25.3215  -22.1739   25.6331 C   0  0  0  0  0  0  0  0  0  0  0  0
  -27.2091  -27.5841   23.2278 C   0  0  0  0  0  0  0  0  0  0  0  0
  -30.4238  -21.9232   19.3729 C   0  0  0  0  0  0  0  0  0  0  0  0
  -30.5011  -21.5483   20.7143 C   0  0  0  0  0  0  0  0  0  0  0  0
  -29.4520  -19.4373   20.1848 C   0  0  0  0  0  0  0  0  0  0  0  0
  -23.7553   -9.6061   24.9308 C   0  0  0  0  0  0  0  0  0  0  0  0
  -29.4374  -27.2035   22.3336 C   0  0  0  0  0  0  0  0  0  0  0  0
  -22.2497   -7.8698   25.4216 C   0  0  0  0  0  0  0  0  0  0  0  0
  -20.0937   -6.2787   24.6454 C   0  0  0  0  0  0  0  0  0  0  0  0
  -22.3992   -6.4855   25.3376 C   0  0  0  0  0  0  0  0  0  0  0  0
  -29.3747  -19.8122   18.8435 C   0  0  0  0  0  0  0  0  0  0  0  0
  -30.0152  -20.3054   21.1202 C   0  0  0  0  0  0  0  0  0  0  0  0
  -25.1122  -12.5451   22.2070 C   0  0  0  0  0  0  0  0  0  0  0  0
  -25.2312  -14.1766   20.7376 C   0  0  0  0  0  0  0  0  0  0  0  0
  -22.8984  -13.5887   21.4164 C   0  0  0  0  0  0  0  0  0  0  0  0
  -24.7176  -25.6431   24.5137 C   0  0  0  0  0  0  0  0  0  0  0  0
  -23.7085  -28.7165   24.2728 C   0  0  0  0  0  0  0  0  0  0  0  0
  -30.0187  -17.0623   20.5314 C   0  0  0  0  0  0  0  0  0  0  0  0
  -24.3810  -31.9193   23.3050 C   0  0  0  0  0  0  0  0  0  0  0  0
  -23.3724  -21.4589   27.1099 C   0  0  0  0  0  0  0  0  0  0  0  0
  -26.6324  -26.8867   25.5828 C   0  0  0  0  0  0  0  0  0  0  0  0
  -25.8165  -28.1195   23.0216 C   0  0  0  0  0  0  0  0  0  0  0  0
  -22.6628  -22.7242   26.6348 C   0  0  0  0  0  0  0  0  0  0  0  0
  -30.1864  -13.5205   20.0140 C   0  0  0  0  0  0  0  0  0  0  0  0
  -22.9615  -22.9825   25.1615 C   0  0  0  0  0  0  0  0  0  0  0  0
  -28.8281  -13.0213   20.5050 C   0  0  0  0  0  0  0  0  0  0  0  0
  -30.6811  -14.7006   20.8445 C   0  0  0  0  0  0  0  0  0  0  0  0
  -28.3586  -15.3439   21.4049 C   0  0  0  0  0  0  0  0  0  0  0  0
  -24.4616  -23.2040   24.9333 C   0  0  1  0  0  0  0  0  0  0  0  0
  -25.1727  -26.9301   25.1414 C   0  0  1  0  0  0  0  0  0  0  0  0
  -27.8082  -14.1716   20.5735 C   0  0  2  0  0  0  0  0  0  0  0  0
  -31.1097  -22.4963   21.7009 C   0  0  0  0  0  0  0  0  0  0  0  0
  -23.3476  -34.2037   23.2004 C   0  0  0  0  0  0  0  0  0  0  0  0
  -22.0385  -27.8484   21.8713 C   0  0  0  0  0  0  0  0  0  0  0  0
  -21.8025  -30.2624   21.2509 C   0  0  0  0  0  0  0  0  0  0  0  0
  -20.8888  -29.4391   23.4212 C   0  0  0  0  0  0  0  0  0  0  0  0
  -26.4541  -33.0654   25.0793 C   0  0  0  0  0  0  0  0  0  0  0  0
  -28.6254  -24.1682   18.7890 C   0  0  0  0  0  0  0  0  0  0  0  0
  -30.9384  -23.2536   18.9081 C   0  0  0  0  0  0  0  0  0  0  0  0
  -31.7317  -26.1285   19.7632 C   0  0  0  0  0  0  0  0  0  0  0  0
  -30.5743  -25.7166   18.8659 C   0  0  0  0  0  0  0  0  0  0  0  0
  -31.3408  -26.3067   21.2251 C   0  0  0  0  0  0  0  0  0  1  0  0
  -23.3913  -29.6512   23.1305 C   0  0  1  0  0  0  0  0  0  0  0  0
  -24.1997  -33.2465   24.0192 C   0  0  2  0  0  0  0  0  0  0  0  0
  -28.9283  -18.1006   20.6154 C   0  0  0  0  0  0  0  0  0  0  0  0
  -22.0560  -29.2885   22.4214 C   0  0  0  0  0  0  0  0  0  0  0  0
  -26.4199  -12.6993   21.9835 N   0  0  0  0  0  0  0  0  0  0  0  0
  -26.4602  -13.6984   21.0855 N   0  0  0  0  0  0  0  0  0  0  0  0
  -24.9067  -27.9953   24.1724 N   0  0  0  0  0  0  0  0  0  0  0  0
  -29.6751  -15.7625   20.9038 N   0  0  0  0  0  0  0  0  0  0  0  0
  -25.0898  -15.1812   19.8470 N   0  0  0  0  0  0  0  0  0  0  0  0
  -22.1147  -12.7491   22.2198 N   0  0  0  0  0  0  0  0  0  0  0  0
  -24.8424  -24.5405   25.3372 N   0  0  0  0  0  0  0  0  0  0  0  0
  -23.4261  -31.0001   23.6851 N   0  0  0  0  0  0  0  0  0  0  0  0
  -25.5225  -33.8875   24.2649 N   0  3  0  0  0  0  0  0  0  0  0  0
  -30.0327  -24.4020   19.2832 N   0  3  1  0  0  0  0  0  0  0  0  0
  -22.3356  -14.4307   20.6764 O   0  0  0  0  0  0  0  0  0  0  0  0
  -24.2839  -25.6501   23.3676 O   0  0  0  0  0  0  0  0  0  0  0  0
  -22.9257  -28.6348   25.2226 O   0  0  0  0  0  0  0  0  0  0  0  0
  -31.1408  -17.3977   20.1433 O   0  0  0  0  0  0  0  0  0  0  0  0
  -25.2777  -31.7193   22.4886 O   0  0  0  0  0  0  0  0  0  0  0  0
  -23.3188   -8.6609   25.8075 O   0  0  0  0  0  0  0  0  0  0  0  0
  -30.3272  -27.3076   21.3092 O   0  0  0  0  0  0  0  0  0  1  0  0
  -19.0580   -5.5147   24.2741 F   0  0  0  0  0  0  0  0  0  0  0  0
  -23.5756   -5.9141   25.6296 F   0  0  0  0  0  0  0  0  0  0  0  0
  -28.4367  -18.1217   21.8939 F   0  0  0  0  0  0  0  0  0  0  0  0
  -27.8667  -17.6881   19.8541 F   0  0  0  0  0  0  0  0  0  0  0  0
  -28.6856  -18.7692   17.6517 Cl  0  0  0  0  0  0  0  0  0  0  0  0
  -30.1125  -19.8421   22.7878 Cl  0  0  0  0  0  0  0  0  0  0  0  0
  1  2  1  0  0  0  0
  1  5  2  0  0  0  0
  2  6  2  0  0  0  0
  3  8  2  0  0  0  0
  3 16  1  0  0  0  0
  4  9  1  0  0  0  0
  4 16  2  0  0  0  0
  5 18  1  0  0  0  0
  6 20  1  0  0  0  0
  7 10  2  0  0  0  0
  7 19  1  0  0  0  0
  8 25  1  0  0  0  0
  9 25  2  0  0  0  0
 10 26  1  0  0  0  0
 11 12  2  0  0  0  0
 11 27  1  0  0  0  0
 12 28  1  0  0  0  0
 13 21  1  0  0  0  0
 13 26  2  0  0  0  0
 14 22  1  0  0  0  0
 14 30  2  0  0  0  0
 15 28  2  0  0  0  0
 15 29  1  0  0  0  0
 16 32  1  0  0  0  0
 17 32  1  0  0  0  0
 17 33  2  0  0  0  0
 17 34  1  0  0  0  0
 18 20  2  0  0  0  0
 18 39  1  0  0  0  0
 19 21  2  0  0  0  0
 19 40  1  0  0  0  0
 20 48  1  0  0  0  0
 21 41  1  0  0  0  0
 22 23  2  0  0  0  0
 22 58  1  0  0  0  0
 23 31  1  0  0  0  0
 23 51  1  0  0  0  0
 24 30  1  0  0  0  0
 24 31  2  0  0  0  0
 24 64  1  0  0  0  0
 25 81  1  0  0  0  0
 26 82  1  0  0  0  0
 27 29  2  0  0  0  0
 27 81  1  0  0  0  0
 28 83  1  0  0  0  0
 29 84  1  0  0  0  0
 30 87  1  0  0  0  0
 31 88  1  0  0  0  0
 32 66  2  0  0  0  0
 33 67  1  0  0  0  0
 33 70  1  0  0  0  0
 34 71  1  0  0  0  0
 34 76  2  0  0  0  0
 35 49  1  0  0  0  0
 35 72  1  0  0  0  0
 35 77  2  0  0  0  0
 36 62  1  0  0  0  0
 36 68  1  0  0  0  0
 36 78  2  0  0  0  0
 37 64  1  0  0  0  0
 37 69  1  0  0  0  0
 37 79  2  0  0  0  0
 38 63  1  0  0  0  0
 38 73  1  0  0  0  0
 38 80  2  0  0  0  0
 39 42  1  0  0  0  0
 40 49  1  0  0  0  0
 41 68  1  0  0  0  0
 42 44  1  0  0  0  0
 43 45  1  0  0  0  0
 43 46  1  0  0  0  0
 44 48  1  0  0  0  0
 45 50  1  0  0  0  0
 46 69  1  0  0  0  0
 47 50  1  0  0  0  0
 47 69  1  0  0  0  0
 48 72  1  0  0  0  0
 49 68  1  0  0  0  0
 50 67  1  0  0  0  0
 52 63  1  0  0  0  0
 53 65  1  0  0  0  0
 54 65  1  0  0  0  0
 55 65  1  0  0  0  0
 56 74  1  0  0  0  0
 57 75  1  0  0  0  0
 58 75  1  0  0  0  0
 59 60  1  0  0  0  0
 59 61  1  0  0  0  0
 60 75  1  0  0  0  0
 61 82  1  0  0  0  0
 62 65  1  0  0  0  0
 62 73  1  0  0  0  0
 63 74  1  0  0  0  0
 64 85  1  0  0  0  0
 64 86  1  0  0  0  0
 66 67  1  0  0  0  0
M  CHG  2  74   1  75   1
M  ISO  4  37 100  61 101  64 100  82 101
M  END
> <Batch ID>
0026

> <Smiles>
CNC(C)C(=O)NC(C(=O)N1Cc2cc([101O:1][101CH2:1]CCN(C)Cc3cc(Cl)c([100C:0](F)(F)[100C:0](=O)N4CCCC(n5nc(-c6ccc(Oc7ccc(F)cc7F)cc6)c(C(N)=O)c5N)C4)c(Cl)c3C)ccc2CC1C(=O)NC1CCCc2ccccc21)C(C)(C)C

> <Shape>
0.252

> <Color>
0.102

> <Negative vol penalty>
0.000

$$$$

  -OEChem-04052316273D

 84 92  0     1  0  0  0  0  0999 V2000
  -21.6727  -11.9389   21.1427 C   0  0  0  0  0  0  0  0  0  0  0  0
  -21.7346  -13.2172   21.6881 C   0  0  0  0  0  0  0  0  0  0  0  0
  -30.3483  -29.9787   19.7371 C   0  0  0  0  0  0  0  0  0  0  0  0
  -29.9984  -28.5310   21.6394 C   0  0  0  0  0  0  0  0  0  0  0  0
  -22.8270  -11.3400   20.6401 C   0  0  0  0  0  0  0  0  0  0  0  0
  -22.9513  -13.8970   21.7323 C   0  0  0  0  0  0  0  0  0  0  0  0
  -22.5314  -18.7287   20.2751 C   0  0  0  0  0  0  0  0  0  0  0  0
  -31.7197  -29.9819   19.9917 C   0  0  0  0  0  0  0  0  0  0  0  0
  -31.3699  -28.5342   21.8940 C   0  0  0  0  0  0  0  0  0  0  0  0
  -22.0032  -19.6289   21.1994 C   0  0  0  0  0  0  0  0  0  0  0  0
  -34.1309  -27.0120   20.6775 C   0  0  0  0  0  0  0  0  0  0  0  0
  -34.7374  -25.7900   20.9682 C   0  0  0  0  0  0  0  0  0  0  0  0
  -24.2333  -20.3722   21.7409 C   0  0  0  0  0  0  0  0  0  0  0  0
  -35.4257  -26.6437   23.1210 C   0  0  0  0  0  0  0  0  0  0  0  0
  -29.4876  -29.2533   20.5610 C   0  0  0  0  0  0  0  0  0  0  0  0
  -27.3593  -28.3500   19.4832 C   0  0  0  0  0  0  0  0  0  0  0  0
  -24.0567  -12.0166   20.6694 C   0  0  0  0  0  0  0  0  0  0  0  0
  -23.9175  -18.6356   20.0843 C   0  0  0  0  0  0  0  0  0  0  0  0
  -24.1235  -13.3060   21.2309 C   0  0  0  0  0  0  0  0  0  0  0  0
  -24.7765  -19.4718   20.8117 C   0  0  0  0  0  0  0  0  0  0  0  0
  -20.0270  -27.4891   24.6327 C   0  0  0  0  0  0  0  0  0  0  0  0
  -32.2305  -29.2596   21.0701 C   0  0  0  0  0  0  0  0  0  0  0  0
  -22.8543  -20.4488   21.9346 C   0  0  0  0  0  0  0  0  0  0  0  0
  -34.1719  -28.0499   21.6085 C   0  0  0  0  0  0  0  0  0  0  0  0
  -35.3847  -25.6058   22.1899 C   0  0  0  0  0  0  0  0  0  0  0  0
  -34.8193  -27.8657   22.8302 C   0  0  0  0  0  0  0  0  0  0  0  0
  -19.9430  -26.1652   25.1528 C   0  0  0  0  0  0  0  0  0  0  0  0
  -28.0708  -29.2501   20.2988 C   0  0  0  0  0  0  0  0  0  0  0  0
  -20.0449  -27.5037   23.2554 C   0  0  0  0  0  0  0  0  0  0  0  0
  -19.8997  -25.2184   24.1530 C   0  0  0  0  0  0  0  0  0  0  0  0
  -26.0544  -28.7708   19.5645 C   0  0  0  0  0  0  0  0  0  0  0  0
  -27.8352  -27.2332   18.7204 C   0  0  0  0  0  0  0  0  0  0  0  0
  -26.0852  -16.3421   20.4646 C   0  0  0  0  0  0  0  0  0  0  0  0
  -28.0617  -18.5218   19.0991 C   0  0  0  0  0  0  0  0  0  0  0  0
  -28.7360  -21.7981   18.4225 C   0  0  0  0  0  0  0  0  0  0  0  0
  -21.6983  -30.5696   22.5535 C   0  0  0  0  0  0  0  0  0  0  0  0
  -25.2866  -11.3097   20.1572 C   0  0  0  0  0  0  0  0  0  0  0  0
  -24.4700  -17.6783   19.0641 C   0  0  0  0  0  0  0  0  0  0  0  0
  -26.2708  -19.4251   20.6295 C   0  0  0  0  0  0  0  0  0  0  0  0
  -26.4648  -12.2458   19.9008 C   0  0  0  0  0  0  0  0  0  0  0  0
  -24.0749  -33.0033   21.5021 C   0  0  0  0  0  0  0  0  0  0  0  0
  -26.6554  -13.1985   21.0767 C   0  0  0  0  0  0  0  0  0  0  0  0
  -25.2693  -32.1699   21.0342 C   0  0  0  0  0  0  0  0  0  0  0  0
  -23.3874  -32.3746   22.7121 C   0  0  0  0  0  0  0  0  0  0  0  0
  -24.1820  -30.1327   22.0668 C   0  0  0  0  0  0  0  0  0  0  0  0
  -25.4201  -14.0853   21.2741 C   0  0  1  0  0  0  0  0  0  0  0  0
  -25.9265  -17.3050   19.3221 C   0  0  1  0  0  0  0  0  0  0  0  0
  -24.8738  -30.6974   20.8143 C   0  0  2  0  0  0  0  0  0  0  0  0
  -20.0901  -28.7174   25.4659 C   0  0  0  0  0  0  0  0  0  0  0  0
  -30.4439  -23.2714   17.3226 C   0  0  0  0  0  0  0  0  0  0  0  0
  -22.1454  -21.1858   25.7701 C   0  0  0  0  0  0  0  0  0  0  0  0
  -29.9185  -18.1516   21.4919 C   0  0  0  0  0  0  0  0  0  0  0  0
  -31.0750  -20.2724   20.8340 C   0  0  0  0  0  0  0  0  0  0  0  0
  -31.0820  -18.3176   19.2844 C   0  0  0  0  0  0  0  0  0  0  0  0
  -26.7637  -22.8222   16.4680 C   0  0  0  0  0  0  0  0  0  0  0  0
  -20.1240  -28.6632   22.3385 C   0  0  0  0  0  0  0  0  0  0  0  0
  -19.8111  -23.7250   24.2664 C   0  0  0  0  0  0  0  0  0  0  0  0
  -21.1159  -20.9657   23.4730 C   0  0  0  0  0  0  0  0  0  1  0  0
  -28.9471  -19.6315   19.6124 C   0  0  1  0  0  0  0  0  0  0  0  0
  -29.1475  -22.4977   17.1397 C   0  0  2  0  0  0  0  0  0  0  0  0
  -21.0157  -21.6157   24.8483 C   0  0  2  0  0  0  0  0  0  0  0  0
  -30.2276  -19.0930   20.3107 C   0  0  0  0  0  0  0  0  0  0  0  0
  -27.2833  -30.1732   20.8571 N   0  0  0  0  0  0  0  0  0  0  0  0
  -26.0634  -29.8554   20.3914 N   0  0  0  0  0  0  0  0  0  0  0  0
  -26.7630  -18.4681   19.6247 N   0  0  0  0  0  0  0  0  0  0  0  0
  -23.0369  -30.9790   22.4375 N   0  0  0  0  0  0  0  0  0  0  0  0
  -24.9116  -28.3153   19.0086 N   0  0  0  0  0  0  0  0  0  0  0  0
  -29.2055  -26.9402   18.7485 N   0  0  0  0  0  0  0  0  0  0  0  0
  -25.4026  -15.1524   20.2967 N   0  0  0  0  0  0  0  0  0  0  0  0
  -29.2098  -20.5042   18.4732 N   0  0  0  0  0  0  0  0  0  0  0  0
  -21.4516  -29.2320   22.2694 N   0  0  0  0  0  0  0  0  0  0  0  0
  -28.0877  -23.4521   16.7073 N   0  3  0  0  0  0  0  0  0  0  0  0
  -21.0914  -23.0958   24.6790 N   0  3  0  0  0  0  0  0  0  0  0  0
  -27.0706  -26.5263   18.0210 O   0  0  0  0  0  0  0  0  0  0  0  0
  -26.7770  -16.6547   21.4266 O   0  0  0  0  0  0  0  0  0  0  0  0
  -28.5037  -17.7359   18.2573 O   0  0  0  0  0  0  0  0  0  0  0  0
  -28.0648  -22.3459   19.2943 O   0  0  0  0  0  0  0  0  0  0  0  0
  -20.7894  -31.3404   22.8804 O   0  0  0  0  0  0  0  0  0  0  0  0
  -33.5687  -29.2623   21.3187 O   0  0  0  0  0  0  0  0  0  0  0  0
  -22.3414  -21.3278   22.8379 O   0  0  0  0  0  0  0  0  0  1  0  0
  -35.9657  -24.4318   22.4695 F   0  0  0  0  0  0  0  0  0  0  0  0
  -34.8609  -28.8588   23.7291 F   0  0  0  0  0  0  0  0  0  0  0  0
  -19.9605  -25.9261   22.5949 S   0  0  0  0  0  0  0  0  0  0  0  0
  -19.9025  -25.8157   26.8306 Cl  0  0  0  0  0  0  0  0  0  0  0  0
  1  2  1  0  0  0  0
  1  5  2  0  0  0  0
  2  6  2  0  0  0  0
  3  8  2  0  0  0  0
  3 15  1  0  0  0  0
  4  9  1  0  0  0  0
  4 15  2  0  0  0  0
  5 17  1  0  0  0  0
  6 19  1  0  0  0  0
  7 10  2  0  0  0  0
  7 18  1  0  0  0  0
  8 22  1  0  0  0  0
  9 22  2  0  0  0  0
 10 23  1  0  0  0  0
 11 12  2  0  0  0  0
 11 24  1  0  0  0  0
 12 25  1  0  0  0  0
 13 20  1  0  0  0  0
 13 23  2  0  0  0  0
 14 25  2  0  0  0  0
 14 26  1  0  0  0  0
 15 28  1  0  0  0  0
 16 28  1  0  0  0  0
 16 31  2  0  0  0  0
 16 32  1  0  0  0  0
 17 19  2  0  0  0  0
 17 37  1  0  0  0  0
 18 20  2  0  0  0  0
 18 38  1  0  0  0  0
 19 46  1  0  0  0  0
 20 39  1  0  0  0  0
 21 27  1  0  0  0  0
 21 29  2  0  0  0  0
 21 49  1  0  0  0  0
 22 79  1  0  0  0  0
 23 80  1  0  0  0  0
 24 26  2  0  0  0  0
 24 79  1  0  0  0  0
 25 81  1  0  0  0  0
 26 82  1  0  0  0  0
 27 30  2  0  0  0  0
 27 84  1  0  0  0  0
 28 63  2  0  0  0  0
 29 56  1  0  0  0  0
 29 83  1  0  0  0  0
 30 57  1  0  0  0  0
 30 83  1  0  0  0  0
 31 64  1  0  0  0  0
 31 67  1  0  0  0  0
 32 68  1  0  0  0  0
 32 74  2  0  0  0  0
 33 47  1  0  0  0  0
 33 69  1  0  0  0  0
 33 75  2  0  0  0  0
 34 59  1  0  0  0  0
 34 65  1  0  0  0  0
 34 76  2  0  0  0  0
 35 60  1  0  0  0  0
 35 70  1  0  0  0  0
 35 77  2  0  0  0  0
 36 66  1  0  0  0  0
 36 71  1  0  0  0  0
 36 78  2  0  0  0  0
 37 40  1  0  0  0  0
 38 47  1  0  0  0  0
 39 65  1  0  0  0  0
 40 42  1  0  0  0  0
 41 43  1  0  0  0  0
 41 44  1  0  0  0  0
 42 46  1  0  0  0  0
 43 48  1  0  0  0  0
 44 66  1  0  0  0  0
 45 48  1  0  0  0  0
 45 66  1  0  0  0  0
 46 69  1  0  0  0  0
 47 65  1  0  0  0  0
 48 64  1  0  0  0  0
 50 60  1  0  0  0  0
 51 61  1  0  0  0  0
 52 62  1  0  0  0  0
 53 62  1  0  0  0  0
 54 62  1  0  0  0  0
 55 72  1  0  0  0  0
 56 71  1  0  0  0  0
 57 73  1  0  0  0  0
 58 61  1  0  0  0  0
 58 80  1  0  0  0  0
 59 62  1  0  0  0  0
 59 70  1  0  0  0  0
 60 72  1  0  0  0  0
 61 73  1  0  0  0  0
 63 64  1  0  0  0  0
M  CHG  2  72   1  73   1
M  ISO  4  36 100  58 101  71 100  80 101
M  END
> <Batch ID>
0026

> <Smiles>
CNC(C)C(=O)NC(C(=O)N1Cc2cc([101O:1][101CH2:1]C(C)NCc3sc(C[100NH:0][100C:0](=O)N4CCCC(n5nc(-c6ccc(Oc7ccc(F)cc7F)cc6)c(C(N)=O)c5N)C4)c(C)c3Cl)ccc2CC1C(=O)NC1CCCc2ccccc21)C(C)(C)C

> <Shape>
0.220

> <Color>
0.065

> <Negative vol penalty>
0.000

$$$$

  -OEChem-04052316273D

 87 95  0     1  0  0  0  0  0999 V2000
  -26.4227  -15.8091   24.0558 C   0  0  0  0  0  0  0  0  0  0  0  0
  -26.9056  -16.6780   23.0825 C   0  0  0  0  0  0  0  0  0  0  0  0
  -24.2970   -9.4057   21.4416 C   0  0  0  0  0  0  0  0  0  0  0  0
  -24.8593  -10.4631   23.5399 C   0  0  0  0  0  0  0  0  0  0  0  0
  -25.0755  -15.8438   24.4132 C   0  0  0  0  0  0  0  0  0  0  0  0
  -26.0412  -17.5814   22.4653 C   0  0  0  0  0  0  0  0  0  0  0  0
  -28.0264  -22.2253   22.0934 C   0  0  0  0  0  0  0  0  0  0  0  0
  -23.9420   -8.2417   22.1233 C   0  0  0  0  0  0  0  0  0  0  0  0
  -24.5043   -9.2991   24.2216 C   0  0  0  0  0  0  0  0  0  0  0  0
  -28.9610  -22.4390   21.0811 C   0  0  0  0  0  0  0  0  0  0  0  0
  -21.3077   -7.1098   23.9155 C   0  0  0  0  0  0  0  0  0  0  0  0
  -20.1186   -6.4802   23.5477 C   0  0  0  0  0  0  0  0  0  0  0  0
  -27.2492  -23.4640   19.7253 C   0  0  0  0  0  0  0  0  0  0  0  0
  -35.0591  -16.4146   19.3057 C   0  0  0  0  0  0  0  0  0  0  0  0
  -35.1453  -18.3391   17.8476 C   0  0  0  0  0  0  0  0  0  0  0  0
  -21.3531   -4.4842   22.9737 C   0  0  0  0  0  0  0  0  0  0  0  0
  -24.7557  -10.5164   22.1499 C   0  0  0  0  0  0  0  0  0  0  0  0
  -24.2867  -12.8043   21.1236 C   0  0  0  0  0  0  0  0  0  0  0  0
  -24.1962  -16.7547   23.8070 C   0  0  0  0  0  0  0  0  0  0  0  0
  -26.6915  -22.6202   21.9246 C   0  0  0  0  0  0  0  0  0  0  0  0
  -24.6806  -17.6275   22.8140 C   0  0  0  0  0  0  0  0  0  0  0  0
  -26.3002  -23.2565   20.7380 C   0  0  0  0  0  0  0  0  0  0  0  0
  -33.7553  -16.7496   19.6709 C   0  0  0  0  0  0  0  0  0  0  0  0
  -33.8414  -18.6741   18.2128 C   0  0  0  0  0  0  0  0  0  0  0  0
  -24.0456   -8.1884   23.5133 C   0  0  0  0  0  0  0  0  0  0  0  0
  -28.5718  -23.0559   19.8958 C   0  0  0  0  0  0  0  0  0  0  0  0
  -22.5195   -6.4266   23.8125 C   0  0  0  0  0  0  0  0  0  0  0  0
  -20.1413   -5.1674   23.0768 C   0  0  0  0  0  0  0  0  0  0  0  0
  -22.5421   -5.1139   23.3416 C   0  0  0  0  0  0  0  0  0  0  0  0
  -35.7541  -17.2093   18.3941 C   0  0  0  0  0  0  0  0  0  0  0  0
  -33.1464  -17.8793   19.1245 C   0  0  0  0  0  0  0  0  0  0  0  0
  -25.1231  -11.7188   21.4462 C   0  0  0  0  0  0  0  0  0  0  0  0
  -25.1068  -13.6846   20.4612 C   0  0  0  0  0  0  0  0  0  0  0  0
  -22.8931  -12.9993   21.3983 C   0  0  0  0  0  0  0  0  0  0  0  0
  -23.8972  -21.1070   21.8486 C   0  0  0  0  0  0  0  0  0  0  0  0
  -22.7090  -24.1230   21.7283 C   0  0  0  0  0  0  0  0  0  0  0  0
  -23.2110  -27.4054   20.9409 C   0  0  0  0  0  0  0  0  0  0  0  0
  -30.9410  -14.5590   20.6906 C   0  0  0  0  0  0  0  0  0  0  0  0
  -22.7384  -16.7228   24.1925 C   0  0  0  0  0  0  0  0  0  0  0  0
  -25.7015  -22.4066   23.0367 C   0  0  0  0  0  0  0  0  0  0  0  0
  -24.8838  -23.7176   20.5153 C   0  0  0  0  0  0  0  0  0  0  0  0
  -21.9662  -17.9661   23.7585 C   0  0  0  0  0  0  0  0  0  0  0  0
  -29.0238  -13.8108   17.7137 C   0  0  0  0  0  0  0  0  0  0  0  0
  -22.2898  -18.3167   22.3096 C   0  0  0  0  0  0  0  0  0  0  0  0
  -27.7179  -13.2894   18.3161 C   0  0  0  0  0  0  0  0  0  0  0  0
  -30.2293  -13.3611   18.5340 C   0  0  0  0  0  0  0  0  0  0  0  0
  -28.8627  -13.2134   20.5796 C   0  0  0  0  0  0  0  0  0  0  0  0
  -23.7793  -18.6387   22.1393 C   0  0  1  0  0  0  0  0  0  0  0  0
  -24.2549  -22.3852   22.5528 C   0  0  1  0  0  0  0  0  0  0  0  0
  -27.6048  -13.6528   19.8085 C   0  0  2  0  0  0  0  0  0  0  0  0
  -22.0431  -29.6264   20.9169 C   0  0  0  0  0  0  0  0  0  0  0  0
  -30.9151  -20.3552   14.6462 C   0  0  0  0  0  0  0  0  0  0  0  0
  -21.1631  -23.2804   19.2362 C   0  0  0  0  0  0  0  0  0  0  0  0
  -20.7973  -25.7046   18.7285 C   0  0  0  0  0  0  0  0  0  0  0  0
  -19.8752  -24.7184   20.8261 C   0  0  0  0  0  0  0  0  0  0  0  0
  -25.1595  -28.5812   22.8330 C   0  0  0  0  0  0  0  0  0  0  0  0
  -33.0482  -15.8687   20.6506 C   0  0  0  0  0  0  0  0  0  0  0  0
  -33.2263  -19.8972   17.5991 C   0  0  0  0  0  0  0  0  0  0  0  0
  -30.0814  -22.7668   16.6171 C   0  0  0  0  0  0  0  0  0  0  0  0
  -30.5213  -21.3335   16.9437 C   0  0  0  0  0  0  0  0  0  0  0  0
  -28.9947  -23.2632   17.5646 C   0  0  0  0  0  0  0  0  0  1  0  0
  -22.3673  -25.0941   20.6242 C   0  0  1  0  0  0  0  0  0  0  0  0
  -22.9288  -28.6812   21.7136 C   0  0  2  0  0  0  0  0  0  0  0  0
  -31.5578  -20.7761   15.9613 C   0  0  1  0  0  0  0  0  0  0  0  0
  -21.0771  -24.6891   19.8568 C   0  0  0  0  0  0  0  0  0  0  0  0
  -26.3783  -11.8916   21.0234 N   0  0  0  0  0  0  0  0  0  0  0  0
  -26.3366  -13.0958   20.4282 N   0  0  0  0  0  0  0  0  0  0  0  0
  -23.9514  -23.4806   21.6297 N   0  0  0  0  0  0  0  0  0  0  0  0
  -30.0674  -13.7539   19.9410 N   0  0  0  0  0  0  0  0  0  0  0  0
  -24.8887  -14.8972   19.9094 N   0  0  0  0  0  0  0  0  0  0  0  0
  -22.2013  -11.9950   22.0890 N   0  0  0  0  0  0  0  0  0  0  0  0
  -24.0661  -19.9732   22.6203 N   0  0  0  0  0  0  0  0  0  0  0  0
  -22.3039  -26.4126   21.2454 N   0  0  0  0  0  0  0  0  0  0  0  0
  -32.0616  -15.0248   20.0138 N   0  0  0  0  0  0  0  0  0  0  0  0
  -24.2025  -29.3867   22.0316 N   0  3  0  0  0  0  0  0  0  0  0  0
  -32.2231  -19.5803   16.5498 N   0  3  0  0  0  0  0  0  0  0  0  0
  -22.2756  -14.0263   21.0275 O   0  0  0  0  0  0  0  0  0  0  0  0
  -23.4962  -21.1466   20.6913 O   0  0  0  0  0  0  0  0  0  0  0  0
  -21.9063  -23.9463   22.6481 O   0  0  0  0  0  0  0  0  0  0  0  0
  -24.1407  -27.3013   20.1438 O   0  0  0  0  0  0  0  0  0  0  0  0
  -30.7349  -14.8463   21.8747 O   0  0  0  0  0  0  0  0  0  0  0  0
  -23.6990   -7.0528   24.1788 O   0  0  0  0  0  0  0  0  0  0  0  0
  -29.4819  -23.2651   18.9059 O   0  0  0  0  0  0  0  0  0  1  0  0
  -18.9992   -4.5624   22.7250 F   0  0  0  0  0  0  0  0  0  0  0  0
  -23.7031   -4.4520   23.2415 F   0  0  0  0  0  0  0  0  0  0  0  0
  -37.3632  -16.7967   17.9437 Cl  0  0  0  0  0  0  0  0  0  0  0  0
  -31.5283  -18.2961   19.5792 Cl  0  0  0  0  0  0  0  0  0  0  0  0
  1  2  1  0  0  0  0
  1  5  2  0  0  0  0
  2  6  2  0  0  0  0
  3  8  2  0  0  0  0
  3 17  1  0  0  0  0
  4  9  1  0  0  0  0
  4 17  2  0  0  0  0
  5 19  1  0  0  0  0
  6 21  1  0  0  0  0
  7 10  2  0  0  0  0
  7 20  1  0  0  0  0
  8 25  1  0  0  0  0
  9 25  2  0  0  0  0
 10 26  1  0  0  0  0
 11 12  2  0  0  0  0
 11 27  1  0  0  0  0
 12 28  1  0  0  0  0
 13 22  1  0  0  0  0
 13 26  2  0  0  0  0
 14 23  2  0  0  0  0
 14 30  1  0  0  0  0
 15 24  1  0  0  0  0
 15 30  2  0  0  0  0
 16 28  2  0  0  0  0
 16 29  1  0  0  0  0
 17 32  1  0  0  0  0
 18 32  1  0  0  0  0
 18 33  2  0  0  0  0
 18 34  1  0  0  0  0
 19 21  2  0  0  0  0
 19 39  1  0  0  0  0
 20 22  2  0  0  0  0
 20 40  1  0  0  0  0
 21 48  1  0  0  0  0
 22 41  1  0  0  0  0
 23 31  1  0  0  0  0
 23 57  1  0  0  0  0
 24 31  2  0  0  0  0
 24 58  1  0  0  0  0
 25 82  1  0  0  0  0
 26 83  1  0  0  0  0
 27 29  2  0  0  0  0
 27 82  1  0  0  0  0
 28 84  1  0  0  0  0
 29 85  1  0  0  0  0
 30 86  1  0  0  0  0
 31 87  1  0  0  0  0
 32 66  2  0  0  0  0
 33 67  1  0  0  0  0
 33 70  1  0  0  0  0
 34 71  1  0  0  0  0
 34 77  2  0  0  0  0
 35 49  1  0  0  0  0
 35 72  1  0  0  0  0
 35 78  2  0  0  0  0
 36 62  1  0  0  0  0
 36 68  1  0  0  0  0
 36 79  2  0  0  0  0
 37 63  1  0  0  0  0
 37 73  1  0  0  0  0
 37 80  2  0  0  0  0
 38 69  1  0  0  0  0
 38 74  1  0  0  0  0
 38 81  2  0  0  0  0
 39 42  1  0  0  0  0
 40 49  1  0  0  0  0
 41 68  1  0  0  0  0
 42 44  1  0  0  0  0
 43 45  1  0  0  0  0
 43 46  1  0  0  0  0
 44 48  1  0  0  0  0
 45 50  1  0  0  0  0
 46 69  1  0  0  0  0
 47 50  1  0  0  0  0
 47 69  1  0  0  0  0
 48 72  1  0  0  0  0
 49 68  1  0  0  0  0
 50 67  1  0  0  0  0
 51 63  1  0  0  0  0
 52 64  1  0  0  0  0
 53 65  1  0  0  0  0
 54 65  1  0  0  0  0
 55 65  1  0  0  0  0
 56 75  1  0  0  0  0
 57 74  1  0  0  0  0
 58 76  1  0  0  0  0
 59 60  1  0  0  0  0
 59 61  1  0  0  0  0
 60 64  1  0  0  0  0
 61 83  1  0  0  0  0
 62 65  1  0  0  0  0
 62 73  1  0  0  0  0
 63 75  1  0  0  0  0
 64 76  1  0  0  0  0
 66 67  1  0  0  0  0
M  CHG  2  75   1  76   1
M  ISO  4  38 100  61 101  74 100  83 101
M  END
> <Batch ID>
0026

> <Smiles>
CNC(C)C(=O)NC(C(=O)N1Cc2cc([101O:1][101CH2:1]CCC(C)NCc3cc(Cl)cc(C[100NH:0][100C:0](=O)N4CCCC(n5nc(-c6ccc(Oc7ccc(F)cc7F)cc6)c(C(N)=O)c5N)C4)c3Cl)ccc2CC1C(=O)NC1CCCc2ccccc21)C(C)(C)C

> <Shape>
0.197

> <Color>
0.112

> <Negative vol penalty>
0.000

$$$$

  -OEChem-04052316273D

 82 90  0     1  0  0  0  0  0999 V2000
  -17.6577  -24.8494   25.0254 C   0  0  0  0  0  0  0  0  0  0  0  0
  -18.4005  -23.9826   24.2302 C   0  0  0  0  0  0  0  0  0  0  0  0
  -27.5509  -18.2203   21.9077 C   0  0  0  0  0  0  0  0  0  0  0  0
  -27.9049  -17.3868   19.6679 C   0  0  0  0  0  0  0  0  0  0  0  0
  -17.6589  -26.2169   24.7535 C   0  0  0  0  0  0  0  0  0  0  0  0
  -19.1442  -24.4827   23.1619 C   0  0  0  0  0  0  0  0  0  0  0  0
  -25.2088  -23.2931   19.5396 C   0  0  0  0  0  0  0  0  0  0  0  0
  -26.4726  -17.3490   22.0616 C   0  0  0  0  0  0  0  0  0  0  0  0
  -26.8266  -16.5154   19.8217 C   0  0  0  0  0  0  0  0  0  0  0  0
  -25.6665  -23.1132   18.2350 C   0  0  0  0  0  0  0  0  0  0  0  0
  -24.3919  -13.8161   19.7548 C   0  0  0  0  0  0  0  0  0  0  0  0
  -24.5563  -12.4982   19.3287 C   0  0  0  0  0  0  0  0  0  0  0  0
  -25.6564  -25.5032   17.9082 C   0  0  0  0  0  0  0  0  0  0  0  0
  -28.2485  -24.5417   11.5172 C   0  0  0  0  0  0  0  0  0  0  0  0
  -26.3835  -12.2229   20.8852 C   0  0  0  0  0  0  0  0  0  0  0  0
  -28.2670  -18.2392   20.7109 C   0  0  0  0  0  0  0  0  0  0  0  0
  -30.7305  -18.8849   20.8590 C   0  0  0  0  0  0  0  0  0  0  0  0
  -18.4106  -26.7352   23.6872 C   0  0  0  0  0  0  0  0  0  0  0  0
  -24.9606  -24.5811   20.0355 C   0  0  0  0  0  0  0  0  0  0  0  0
  -19.1544  -25.8583   22.8747 C   0  0  0  0  0  0  0  0  0  0  0  0
  -25.1980  -25.6969   19.2202 C   0  0  0  0  0  0  0  0  0  0  0  0
  -27.0429  -24.1164   12.0640 C   0  0  0  0  0  0  0  0  0  0  0  0
  -29.4208  -24.4221   12.2553 C   0  0  0  0  0  0  0  0  0  0  0  0
  -26.1104  -16.4965   21.0186 C   0  0  0  0  0  0  0  0  0  0  0  0
  -25.8876  -24.2181   17.4181 C   0  0  0  0  0  0  0  0  0  0  0  0
  -25.2234  -14.3376   20.7460 C   0  0  0  0  0  0  0  0  0  0  0  0
  -25.5521  -11.7015   19.8939 C   0  0  0  0  0  0  0  0  0  0  0  0
  -26.2192  -13.5409   21.3112 C   0  0  0  0  0  0  0  0  0  0  0  0
  -29.3806  -19.1395   20.5511 C   0  0  0  0  0  0  0  0  0  0  0  0
  -27.0630  -23.5828   13.3425 C   0  0  0  0  0  0  0  0  0  0  0  0
  -29.3344  -23.8750   13.5253 C   0  0  0  0  0  0  0  0  0  0  0  0
  -31.3832  -20.0474   20.5287 C   0  0  0  0  0  0  0  0  0  0  0  0
  -31.3400  -17.7032   21.3956 C   0  0  0  0  0  0  0  0  0  0  0  0
  -22.3929  -26.1132   21.1141 C   0  0  0  0  0  0  0  0  0  0  0  0
  -24.5512  -28.4310   21.8154 C   0  0  0  0  0  0  0  0  0  0  0  0
  -27.5878  -29.8514   21.1765 C   0  0  0  0  0  0  0  0  0  0  0  0
  -30.1408  -24.4716   16.6903 C   0  0  0  0  0  0  0  0  0  0  0  0
  -18.3432  -28.2149   23.4032 C   0  0  0  0  0  0  0  0  0  0  0  0
  -24.4926  -24.7597   21.4538 C   0  0  0  0  0  0  0  0  0  0  0  0
  -24.9663  -27.1017   19.7116 C   0  0  0  0  0  0  0  0  0  0  0  0
  -19.4554  -28.7096   22.4821 C   0  0  0  0  0  0  0  0  0  0  0  0
  -30.6851  -24.7689   20.1963 C   0  0  0  0  0  0  0  0  0  0  0  0
  -19.6055  -27.7820   21.2805 C   0  0  0  0  0  0  0  0  0  0  0  0
  -30.5343  -23.3369   20.7126 C   0  0  0  0  0  0  0  0  0  0  0  0
  -29.7117  -25.0636   19.0571 C   0  0  0  0  0  0  0  0  0  0  0  0
  -29.6145  -22.6769   18.4505 C   0  0  0  0  0  0  0  0  0  0  0  0
  -19.9934  -26.3656   21.7220 C   0  0  1  0  0  0  0  0  0  0  0  0
  -23.7823  -26.0898   21.6856 C   0  0  1  0  0  0  0  0  0  0  0  0
  -30.6138  -22.3149   19.5625 C   0  0  2  0  0  0  0  0  0  0  0  0
  -25.7835  -24.2417   11.2783 C   0  0  0  0  0  0  0  0  0  0  0  0
  -30.7157  -24.8761   11.6754 C   0  0  0  0  0  0  0  0  0  0  0  0
  -29.5442  -31.3954   21.4698 C   0  0  0  0  0  0  0  0  0  0  0  0
  -22.7943  -30.3682   20.2435 C   0  0  0  0  0  0  0  0  0  0  0  0
  -24.7283  -31.9566   20.1740 C   0  0  0  0  0  0  0  0  0  0  0  0
  -23.7343  -31.2995   22.3656 C   0  0  0  0  0  0  0  0  0  0  0  0
  -28.9164  -27.9976   23.0626 C   0  0  0  0  0  0  0  0  0  0  0  0
  -25.7850  -23.1054   13.9884 C   0  0  0  0  0  0  0  0  0  0  0  0
  -30.5620  -23.7213   14.3625 C   0  0  0  0  0  0  0  0  0  0  0  0
  -25.9532  -22.8407   15.4806 C   0  0  0  0  0  0  0  0  0  1  0  0
  -25.1197  -29.6204   21.0798 C   0  0  1  0  0  0  0  0  0  0  0  0
  -28.7076  -30.2935   22.1012 C   0  0  2  0  0  0  0  0  0  0  0  0
  -24.0967  -30.7847   20.9555 C   0  0  0  0  0  0  0  0  0  0  0  0
  -29.1858  -20.3674   20.0629 N   0  0  0  0  0  0  0  0  0  0  0  0
  -28.1817  -23.4506   14.0900 N   0  0  0  0  0  0  0  0  0  0  0  0
  -30.4219  -20.8947   20.0615 N   0  0  0  0  0  0  0  0  0  0  0  0
  -24.5026  -27.2241   21.1035 N   0  0  0  0  0  0  0  0  0  0  0  0
  -29.8388  -24.0590   17.9985 N   0  0  0  0  0  0  0  0  0  0  0  0
  -32.6798  -20.4172   20.5952 N   0  0  0  0  0  0  0  0  0  0  0  0
  -30.5234  -16.5996   21.6780 N   0  0  0  0  0  0  0  0  0  0  0  0
  -21.4005  -26.3078   22.0557 N   0  0  0  0  0  0  0  0  0  0  0  0
  -26.3517  -29.9790   21.7740 N   0  0  0  0  0  0  0  0  0  0  0  0
  -30.2497  -23.4553   15.7490 N   0  0  0  0  0  0  0  0  0  0  0  0
  -29.6036  -29.1449   22.4156 N   0  3  0  0  0  0  0  0  0  0  0  0
  -32.5697  -17.6339   21.6333 O   0  0  0  0  0  0  0  0  0  0  0  0
  -22.2332  -25.9671   19.9079 O   0  0  0  0  0  0  0  0  0  0  0  0
  -24.1710  -28.5662   22.9811 O   0  0  0  0  0  0  0  0  0  0  0  0
  -27.7892  -29.4380   20.0367 O   0  0  0  0  0  0  0  0  0  0  0  0
  -30.3067  -25.6575   16.3848 O   0  0  0  0  0  0  0  0  0  0  0  0
  -25.0584  -15.6460   21.1685 O   0  0  0  0  0  0  0  0  0  0  0  0
  -26.3337  -24.0453   16.1442 O   0  0  0  0  0  0  0  0  0  1  0  0
  -25.7088  -10.4354   19.4858 F   0  0  0  0  0  0  0  0  0  0  0  0
  -27.0202  -14.0359   22.2647 F   0  0  0  0  0  0  0  0  0  0  0  0
  1  2  1  0  0  0  0
  1  5  2  0  0  0  0
  2  6  2  0  0  0  0
  3  8  2  0  0  0  0
  3 16  1  0  0  0  0
  4  9  1  0  0  0  0
  4 16  2  0  0  0  0
  5 18  1  0  0  0  0
  6 20  1  0  0  0  0
  7 10  2  0  0  0  0
  7 19  1  0  0  0  0
  8 24  1  0  0  0  0
  9 24  2  0  0  0  0
 10 25  1  0  0  0  0
 11 12  2  0  0  0  0
 11 26  1  0  0  0  0
 12 27  1  0  0  0  0
 13 21  1  0  0  0  0
 13 25  2  0  0  0  0
 14 22  1  0  0  0  0
 14 23  2  0  0  0  0
 15 27  2  0  0  0  0
 15 28  1  0  0  0  0
 16 29  1  0  0  0  0
 17 29  1  0  0  0  0
 17 32  2  0  0  0  0
 17 33  1  0  0  0  0
 18 20  2  0  0  0  0
 18 38  1  0  0  0  0
 19 21  2  0  0  0  0
 19 39  1  0  0  0  0
 20 47  1  0  0  0  0
 21 40  1  0  0  0  0
 22 30  2  0  0  0  0
 22 50  1  0  0  0  0
 23 31  1  0  0  0  0
 23 51  1  0  0  0  0
 24 79  1  0  0  0  0
 25 80  1  0  0  0  0
 26 28  2  0  0  0  0
 26 79  1  0  0  0  0
 27 81  1  0  0  0  0
 28 82  1  0  0  0  0
 29 63  2  0  0  0  0
 30 57  1  0  0  0  0
 30 64  1  0  0  0  0
 31 58  1  0  0  0  0
 31 64  2  0  0  0  0
 32 65  1  0  0  0  0
 32 68  1  0  0  0  0
 33 69  1  0  0  0  0
 33 74  2  0  0  0  0
 34 48  1  0  0  0  0
 34 70  1  0  0  0  0
 34 75  2  0  0  0  0
 35 60  1  0  0  0  0
 35 66  1  0  0  0  0
 35 76  2  0  0  0  0
 36 61  1  0  0  0  0
 36 71  1  0  0  0  0
 36 77  2  0  0  0  0
 37 67  1  0  0  0  0
 37 72  1  0  0  0  0
 37 78  2  0  0  0  0
 38 41  1  0  0  0  0
 39 48  1  0  0  0  0
 40 66  1  0  0  0  0
 41 43  1  0  0  0  0
 42 44  1  0  0  0  0
 42 45  1  0  0  0  0
 43 47  1  0  0  0  0
 44 49  1  0  0  0  0
 45 67  1  0  0  0  0
 46 49  1  0  0  0  0
 46 67  1  0  0  0  0
 47 70  1  0  0  0  0
 48 66  1  0  0  0  0
 49 65  1  0  0  0  0
 52 61  1  0  0  0  0
 53 62  1  0  0  0  0
 54 62  1  0  0  0  0
 55 62  1  0  0  0  0
 56 73  1  0  0  0  0
 57 59  1  0  0  0  0
 58 72  1  0  0  0  0
 59 80  1  0  0  0  0
 60 62  1  0  0  0  0
 60 71  1  0  0  0  0
 61 73  1  0  0  0  0
 63 65  1  0  0  0  0
M  CHG  1  73   1
M  ISO  4  37 100  59 101  72 100  80 101
M  END
> <Batch ID>
0026

> <Smiles>
CNC(C)C(=O)NC(C(=O)N1Cc2cc([101O:1][101CH2:1]Cc3nc(C[100NH:0][100C:0](=O)N4CCCC(n5nc(-c6ccc(Oc7ccc(F)cc7F)cc6)c(C(N)=O)c5N)C4)c(C)cc3C)ccc2CC1C(=O)NC1CCCc2ccccc21)C(C)(C)C

> <Shape>
0.221

> <Color>
0.067

> <Negative vol penalty>
0.000

$$$$

  -OEChem-04052316273D

 86 94  0     1  0  0  0  0  0999 V2000
  -26.3912  -13.0669   21.0951 C   0  0  0  0  0  0  0  0  0  0  0  0
  -26.6165  -14.2879   20.4676 C   0  0  0  0  0  0  0  0  0  0  0  0
  -31.1338  -20.6075   18.7519 C   0  0  0  0  0  0  0  0  0  0  0  0
  -28.7474  -20.3381   18.4876 C   0  0  0  0  0  0  0  0  0  0  0  0
  -25.1143  -12.7449   21.5531 C   0  0  0  0  0  0  0  0  0  0  0  0
  -25.5647  -15.1873   20.2968 C   0  0  0  0  0  0  0  0  0  0  0  0
  -24.9294  -22.6320   22.5770 C   0  0  0  0  0  0  0  0  0  0  0  0
  -31.2141  -19.3367   19.3214 C   0  0  0  0  0  0  0  0  0  0  0  0
  -28.8278  -19.0673   19.0570 C   0  0  0  0  0  0  0  0  0  0  0  0
  -24.6365  -23.9052   23.0664 C   0  0  0  0  0  0  0  0  0  0  0  0
  -31.9939  -16.3064   21.1743 C   0  0  0  0  0  0  0  0  0  0  0  0
  -32.7675  -16.1577   22.3254 C   0  0  0  0  0  0  0  0  0  0  0  0
  -22.2752  -23.3841   23.0394 C   0  0  0  0  0  0  0  0  0  0  0  0
  -24.0697  -28.9504   19.9584 C   0  0  0  0  0  0  0  0  0  0  0  0
  -31.3666  -17.7567   23.4734 C   0  0  0  0  0  0  0  0  0  0  0  0
  -23.5165  -26.9222   19.1519 C   0  0  0  0  0  0  0  0  0  0  0  0
  -29.9004  -21.1082   18.3351 C   0  0  0  0  0  0  0  0  0  0  0  0
  -29.9303  -22.7507   16.3834 C   0  0  0  0  0  0  0  0  0  0  0  0
  -24.0484  -13.6448   21.3965 C   0  0  0  0  0  0  0  0  0  0  0  0
  -23.8960  -21.7236   22.3313 C   0  0  0  0  0  0  0  0  0  0  0  0
  -24.2720  -14.8765   20.7520 C   0  0  0  0  0  0  0  0  0  0  0  0
  -22.5634  -22.1031   22.5610 C   0  0  0  0  0  0  0  0  0  0  0  0
  -24.5842  -27.6935   19.5551 C   0  0  0  0  0  0  0  0  0  0  0  0
  -30.0612  -18.5666   19.4739 C   0  0  0  0  0  0  0  0  0  0  0  0
  -23.3127  -24.2803   23.2967 C   0  0  0  0  0  0  0  0  0  0  0  0
  -30.9068  -17.1804   21.1726 C   0  0  0  0  0  0  0  0  0  0  0  0
  -32.4538  -16.8828   23.4749 C   0  0  0  0  0  0  0  0  0  0  0  0
  -30.5931  -17.9055   22.3222 C   0  0  0  0  0  0  0  0  0  0  0  0
  -29.8166  -22.4211   17.7473 C   0  0  0  0  0  0  0  0  0  0  0  0
  -22.7033  -28.9089   19.7895 C   0  0  0  0  0  0  0  0  0  0  0  0
  -29.7795  -24.1154   16.3463 C   0  0  0  0  0  0  0  0  0  0  0  0
  -30.1523  -21.8994   15.2513 C   0  0  0  0  0  0  0  0  0  0  0  0
  -22.9178  -18.2865   21.1888 C   0  0  0  0  0  0  0  0  0  0  0  0
  -21.1296  -18.9714   23.5854 C   0  0  0  0  0  0  0  0  0  0  0  0
  -19.6548  -19.9372   26.5059 C   0  0  0  0  0  0  0  0  0  0  0  0
  -27.0502  -28.0206   19.9525 C   0  0  0  0  0  0  0  0  0  0  0  0
  -22.6755  -13.2327   21.8656 C   0  0  0  0  0  0  0  0  0  0  0  0
  -24.1605  -20.3631   21.7458 C   0  0  0  0  0  0  0  0  0  0  0  0
  -21.4819  -21.1049   22.2495 C   0  0  0  0  0  0  0  0  0  0  0  0
  -21.6960  -14.3978   21.9807 C   0  0  0  0  0  0  0  0  0  0  0  0
  -30.4829  -28.0344   19.0072 C   0  0  0  0  0  0  0  0  0  0  0  0
  -21.7652  -15.2783   20.7369 C   0  0  0  0  0  0  0  0  0  0  0  0
  -30.7104  -26.6285   18.4471 C   0  0  0  0  0  0  0  0  0  0  0  0
  -29.5232  -28.0230   20.1958 C   0  0  0  0  0  0  0  0  0  0  0  0
  -28.4665  -25.9485   19.3903 C   0  0  0  0  0  0  0  0  0  0  0  0
  -23.1620  -15.8889   20.5703 C   0  0  1  0  0  0  0  0  0  0  0  0
  -23.2019  -19.2815   22.2754 C   0  0  1  0  0  0  0  0  0  0  0  0
  -29.3756  -25.9171   18.1508 C   0  0  2  0  0  0  0  0  0  0  0  0
  -17.9826  -19.1744   28.2145 C   0  0  0  0  0  0  0  0  0  0  0  0
  -22.3357  -31.2651   20.6113 C   0  0  0  0  0  0  0  0  0  0  0  0
  -20.8653  -30.4370   18.7997 C   0  0  0  0  0  0  0  0  0  0  0  0
  -18.8605  -19.6623   21.6676 C   0  0  0  0  0  0  0  0  0  0  0  0
  -17.3301  -19.8089   23.6436 C   0  0  0  0  0  0  0  0  0  0  0  0
  -18.4471  -17.6480   23.0910 C   0  0  0  0  0  0  0  0  0  0  0  0
  -21.0459  -27.2084   18.9795 C   0  0  0  0  0  0  0  0  0  0  0  0
  -21.6775  -19.9615   28.6662 C   0  0  0  0  0  0  0  0  0  0  0  0
  -20.3054  -29.2480   23.5925 C   0  0  0  0  0  0  0  0  0  0  0  0
  -23.1658  -27.8861   23.3878 C   0  0  0  0  0  0  0  0  0  0  0  0
  -22.0143  -27.8904   22.3936 C   0  0  0  0  0  0  0  0  0  0  0  0
  -20.6149  -29.5221   21.1367 C   0  0  0  0  0  0  0  0  0  0  0  0
  -23.9361  -26.5720   23.4281 C   0  0  0  0  0  0  0  0  0  1  0  0
  -19.8165  -19.5381   24.0628 C   0  0  1  0  0  0  0  0  0  0  0  0
  -19.4513  -19.2073   27.8213 C   0  0  2  0  0  0  0  0  0  0  0  0
  -21.6388  -29.9905   20.0660 C   0  0  0  0  0  0  0  0  0  0  0  0
  -18.6371  -19.1803   23.1149 C   0  0  0  0  0  0  0  0  0  0  0  0
  -29.6097  -23.4902   18.5207 N   0  0  0  0  0  0  0  0  0  0  0  0
  -22.3782  -27.6712   19.2991 N   0  0  0  0  0  0  0  0  0  0  0  0
  -29.5923  -24.5051   17.6398 N   0  0  0  0  0  0  0  0  0  0  0  0
  -21.8830  -19.7680   22.7146 N   0  0  0  0  0  0  0  0  0  0  0  0
  -28.2793  -27.3368   19.8399 N   0  0  0  0  0  0  0  0  0  0  0  0
  -29.7902  -25.0080   15.3336 N   0  0  0  0  0  0  0  0  0  0  0  0
  -30.2847  -20.5210   15.4676 N   0  0  0  0  0  0  0  0  0  0  0  0
  -25.9388  -27.2780   19.5550 N   0  0  0  0  0  0  0  0  0  0  0  0
  -23.3383  -17.0023   21.4778 N   0  0  0  0  0  0  0  0  0  0  0  0
  -19.6443  -19.0702   25.4338 N   0  0  0  0  0  0  0  0  0  0  0  0
  -20.2144  -19.8800   28.9104 N   0  3  0  0  0  0  0  0  0  0  0  0
  -21.2849  -29.1791   22.4455 N   0  3  1  0  0  0  0  0  0  0  0  0
  -30.2473  -22.3496   14.0843 O   0  0  0  0  0  0  0  0  0  0  0  0
  -22.3569  -18.6552   20.1635 O   0  0  0  0  0  0  0  0  0  0  0  0
  -21.4777  -17.8509   23.9681 O   0  0  0  0  0  0  0  0  0  0  0  0
  -19.8042  -21.1551   26.4361 O   0  0  0  0  0  0  0  0  0  0  0  0
  -26.9910  -29.1887   20.3449 O   0  0  0  0  0  0  0  0  0  0  0  0
  -30.1393  -17.3264   20.0293 O   0  0  0  0  0  0  0  0  0  0  0  0
  -23.0341  -25.5232   23.7788 O   0  0  0  0  0  0  0  0  0  1  0  0
  -33.1958  -16.7386   24.5807 F   0  0  0  0  0  0  0  0  0  0  0  0
  -29.5492  -18.7457   22.3271 F   0  0  0  0  0  0  0  0  0  0  0  0
  1  2  1  0  0  0  0
  1  5  2  0  0  0  0
  2  6  2  0  0  0  0
  3  8  2  0  0  0  0
  3 17  1  0  0  0  0
  4  9  1  0  0  0  0
  4 17  2  0  0  0  0
  5 19  1  0  0  0  0
  6 21  1  0  0  0  0
  7 10  2  0  0  0  0
  7 20  1  0  0  0  0
  8 24  1  0  0  0  0
  9 24  2  0  0  0  0
 10 25  1  0  0  0  0
 11 12  2  0  0  0  0
 11 26  1  0  0  0  0
 12 27  1  0  0  0  0
 13 22  1  0  0  0  0
 13 25  2  0  0  0  0
 14 23  1  0  0  0  0
 14 30  2  0  0  0  0
 15 27  2  0  0  0  0
 15 28  1  0  0  0  0
 16 23  2  0  0  0  0
 16 67  1  0  0  0  0
 17 29  1  0  0  0  0
 18 29  1  0  0  0  0
 18 31  2  0  0  0  0
 18 32  1  0  0  0  0
 19 21  2  0  0  0  0
 19 37  1  0  0  0  0
 20 22  2  0  0  0  0
 20 38  1  0  0  0  0
 21 46  1  0  0  0  0
 22 39  1  0  0  0  0
 23 73  1  0  0  0  0
 24 83  1  0  0  0  0
 25 84  1  0  0  0  0
 26 28  2  0  0  0  0
 26 83  1  0  0  0  0
 27 85  1  0  0  0  0
 28 86  1  0  0  0  0
 29 66  2  0  0  0  0
 30 64  1  0  0  0  0
 30 67  1  0  0  0  0
 31 68  1  0  0  0  0
 31 71  1  0  0  0  0
 32 72  1  0  0  0  0
 32 78  2  0  0  0  0
 33 47  1  0  0  0  0
 33 74  1  0  0  0  0
 33 79  2  0  0  0  0
 34 62  1  0  0  0  0
 34 69  1  0  0  0  0
 34 80  2  0  0  0  0
 35 63  1  0  0  0  0
 35 75  1  0  0  0  0
 35 81  2  0  0  0  0
 36 70  1  0  0  0  0
 36 73  1  0  0  0  0
 36 82  2  0  0  0  0
 37 40  1  0  0  0  0
 38 47  1  0  0  0  0
 39 69  1  0  0  0  0
 40 42  1  0  0  0  0
 41 43  1  0  0  0  0
 41 44  1  0  0  0  0
 42 46  1  0  0  0  0
 43 48  1  0  0  0  0
 44 70  1  0  0  0  0
 45 48  1  0  0  0  0
 45 70  1  0  0  0  0
 46 74  1  0  0  0  0
 47 69  1  0  0  0  0
 48 68  1  0  0  0  0
 49 63  1  0  0  0  0
 50 64  1  0  0  0  0
 51 64  1  0  0  0  0
 52 65  1  0  0  0  0
 53 65  1  0  0  0  0
 54 65  1  0  0  0  0
 55 67  1  0  0  0  0
 56 76  1  0  0  0  0
 57 77  1  0  0  0  0
 58 59  1  0  0  0  0
 58 61  1  0  0  0  0
 59 77  1  0  0  0  0
 60 64  1  0  0  0  0
 60 77  1  0  0  0  0
 61 84  1  0  0  0  0
 62 65  1  0  0  0  0
 62 75  1  0  0  0  0
 63 76  1  0  0  0  0
 66 68  1  0  0  0  0
M  CHG  2  76   1  77   1
M  ISO  4  36 100  61 101  73 100  84 101
M  END
> <Batch ID>
0026

> <Smiles>
CNC(C)C(=O)NC(C(=O)N1Cc2cc([101O:1][101CH2:1]CCN(C)CC(C)(C)c3cc([100NH:0][100C:0](=O)N4CCCC(n5nc(-c6ccc(Oc7ccc(F)cc7F)cc6)c(C(N)=O)c5N)C4)cn3C)ccc2CC1C(=O)NC1CCCc2ccccc21)C(C)(C)C

> <Shape>
0.204

> <Color>
0.044

> <Negative vol penalty>
0.000

$$$$

  -OEChem-04052316273D

 83 91  0     1  0  0  0  0  0999 V2000
  -30.0888  -30.2855   17.3323 C   0  0  0  0  0  0  0  0  0  0  0  0
  -29.9715  -29.0060   17.8658 C   0  0  0  0  0  0  0  0  0  0  0  0
  -23.0759   -9.8672   19.9411 C   0  0  0  0  0  0  0  0  0  0  0  0
  -23.8348   -9.8752   22.2348 C   0  0  0  0  0  0  0  0  0  0  0  0
  -31.3401  -30.8956   17.2558 C   0  0  0  0  0  0  0  0  0  0  0  0
  -31.1058  -28.3355   18.3221 C   0  0  0  0  0  0  0  0  0  0  0  0
  -30.3627  -26.0835   22.7966 C   0  0  0  0  0  0  0  0  0  0  0  0
  -22.3318   -8.7142   20.1913 C   0  0  0  0  0  0  0  0  0  0  0  0
  -23.0907   -8.7222   22.4850 C   0  0  0  0  0  0  0  0  0  0  0  0
  -29.6604  -24.8791   22.7945 C   0  0  0  0  0  0  0  0  0  0  0  0
  -19.8622   -7.9250   23.0866 C   0  0  0  0  0  0  0  0  0  0  0  0
  -19.1048   -7.8856   24.2572 C   0  0  0  0  0  0  0  0  0  0  0  0
  -31.7428  -23.6714   22.9494 C   0  0  0  0  0  0  0  0  0  0  0  0
  -32.0643  -16.5928   22.5347 C   0  0  0  0  0  0  0  0  0  0  0  0
  -20.3457   -5.9484   24.9951 C   0  0  0  0  0  0  0  0  0  0  0  0
  -23.8274  -10.4477   20.9629 C   0  0  0  0  0  0  0  0  0  0  0  0
  -24.1695  -12.9727   20.8418 C   0  0  0  0  0  0  0  0  0  0  0  0
  -32.4889  -30.2360   17.7202 C   0  0  0  0  0  0  0  0  0  0  0  0
  -31.7633  -26.0905   22.8643 C   0  0  0  0  0  0  0  0  0  0  0  0
  -32.3738  -28.9368   18.2505 C   0  0  0  0  0  0  0  0  0  0  0  0
  -32.4604  -24.8773   22.9549 C   0  0  0  0  0  0  0  0  0  0  0  0
  -32.6719  -17.4686   23.4343 C   0  0  0  0  0  0  0  0  0  0  0  0
  -31.8919  -18.3431   24.1911 C   0  0  0  0  0  0  0  0  0  0  0  0
  -30.5044  -18.3417   24.0482 C   0  0  0  0  0  0  0  0  0  0  0  0
  -29.8968  -17.4658   23.1486 C   0  0  0  0  0  0  0  0  0  0  0  0
  -30.6767  -16.5914   22.3918 C   0  0  0  0  0  0  0  0  0  0  0  0
  -22.3392   -8.1418   21.4632 C   0  0  0  0  0  0  0  0  0  0  0  0
  -30.3506  -23.6728   22.8680 C   0  0  0  0  0  0  0  0  0  0  0  0
  -20.8614   -6.9760   22.8701 C   0  0  0  0  0  0  0  0  0  0  0  0
  -19.3465   -6.8974   25.2114 C   0  0  0  0  0  0  0  0  0  0  0  0
  -21.1032   -5.9878   23.8244 C   0  0  0  0  0  0  0  0  0  0  0  0
  -24.5967  -11.6384   20.7049 C   0  0  0  0  0  0  0  0  0  0  0  0
  -25.2619  -13.7220   20.4786 C   0  0  0  0  0  0  0  0  0  0  0  0
  -22.8989  -13.4889   21.2599 C   0  0  0  0  0  0  0  0  0  0  0  0
  -34.0961  -27.1067   20.9592 C   0  0  0  0  0  0  0  0  0  0  0  0
  -35.9759  -26.2917   23.4741 C   0  0  0  0  0  0  0  0  0  0  0  0
  -36.3910  -24.4107   26.2912 C   0  0  0  0  0  0  0  0  0  0  0  0
  -30.7281  -14.7672   20.6551 C   0  0  0  0  0  0  0  0  0  0  0  0
  -33.8265  -30.9172   17.5732 C   0  0  0  0  0  0  0  0  0  0  0  0
  -32.5047  -27.3990   22.8926 C   0  0  0  0  0  0  0  0  0  0  0  0
  -33.9629  -24.8311   23.0498 C   0  0  0  0  0  0  0  0  0  0  0  0
  -34.9274  -30.2875   18.4229 C   0  0  0  0  0  0  0  0  0  0  0  0
  -29.6144  -12.3524   18.2875 C   0  0  0  0  0  0  0  0  0  0  0  0
  -34.9069  -28.7687   18.2830 C   0  0  0  0  0  0  0  0  0  0  0  0
  -28.1746  -12.0611   18.7166 C   0  0  0  0  0  0  0  0  0  0  0  0
  -30.5291  -12.5817   19.4894 C   0  0  0  0  0  0  0  0  0  0  0  0
  -28.6216  -13.3069   20.8695 C   0  0  0  0  0  0  0  0  0  0  0  0
  -33.5775  -28.1869   18.7786 C   0  0  1  0  0  0  0  0  0  0  0  0
  -33.9580  -27.2721   22.4463 C   0  0  1  0  0  0  0  0  0  0  0  0
  -27.6493  -13.1332   19.6914 C   0  0  2  0  0  0  0  0  0  0  0  0
  -34.1598  -17.4527   23.5656 C   0  0  0  0  0  0  0  0  0  0  0  0
  -32.5470  -19.2821   25.1541 C   0  0  0  0  0  0  0  0  0  0  0  0
  -28.4077  -17.4674   22.9958 C   0  0  0  0  0  0  0  0  0  0  0  0
  -38.0474  -23.9335   28.1149 C   0  0  0  0  0  0  0  0  0  0  0  0
  -37.6141  -24.5944   21.5387 C   0  0  0  0  0  0  0  0  0  0  0  0
  -38.6176  -23.4326   23.5165 C   0  0  0  0  0  0  0  0  0  0  0  0
  -38.9685  -25.8821   23.2006 C   0  0  0  0  0  0  0  0  0  0  0  0
  -34.5312  -25.3610   28.3881 C   0  0  0  0  0  0  0  0  0  0  0  0
  -29.6619  -19.2873   24.8665 C   0  0  0  0  0  0  0  0  0  0  0  0
  -29.1450  -20.4920   24.0771 C   0  0  0  0  0  0  0  0  0  0  0  0
  -30.2567  -21.4014   23.5666 C   0  0  0  0  0  0  0  0  0  1  0  0
  -36.6936  -25.0372   23.9100 C   0  0  1  0  0  0  0  0  0  0  0  0
  -36.8571  -24.7784   27.6883 C   0  0  2  0  0  0  0  0  0  0  0  0
  -37.9452  -24.7370   23.0377 C   0  0  0  0  0  0  0  0  0  0  0  0
  -25.8617  -11.5422   20.2872 N   0  0  0  0  0  0  0  0  0  0  0  0
  -26.2388  -12.8257   20.1584 N   0  0  0  0  0  0  0  0  0  0  0  0
  -34.6430  -26.1367   23.0676 N   0  0  0  0  0  0  0  0  0  0  0  0
  -29.9698  -13.6130   20.3661 N   0  0  0  0  0  0  0  0  0  0  0  0
  -25.4724  -15.0534   20.4050 N   0  0  0  0  0  0  0  0  0  0  0  0
  -21.8868  -12.5799   21.5972 N   0  0  0  0  0  0  0  0  0  0  0  0
  -30.0804  -15.6927   21.4728 N   0  0  0  0  0  0  0  0  0  0  0  0
  -33.5527  -28.1436   20.2250 N   0  0  0  0  0  0  0  0  0  0  0  0
  -36.9813  -25.2041   25.3305 N   0  0  0  0  0  0  0  0  0  0  0  0
  -35.7572  -24.5717   28.6725 N   0  3  0  0  0  0  0  0  0  0  0  0
  -22.6627  -14.7195   21.3166 O   0  0  0  0  0  0  0  0  0  0  0  0
  -34.6556  -26.1127   20.5112 O   0  0  0  0  0  0  0  0  0  0  0  0
  -36.5735  -27.3704   23.5003 O   0  0  0  0  0  0  0  0  0  0  0  0
  -35.5866  -23.5072   26.0736 O   0  0  0  0  0  0  0  0  0  0  0  0
  -31.8574  -14.9356   20.1878 O   0  0  0  0  0  0  0  0  0  0  0  0
  -21.6130   -7.0168   21.7078 O   0  0  0  0  0  0  0  0  0  0  0  0
  -29.6675  -22.4958   22.8654 O   0  0  0  0  0  0  0  0  0  1  0  0
  -18.6201   -6.8607   26.3362 F   0  0  0  0  0  0  0  0  0  0  0  0
  -22.0625   -5.0741   23.6226 F   0  0  0  0  0  0  0  0  0  0  0  0
  1  2  1  0  0  0  0
  1  5  2  0  0  0  0
  2  6  2  0  0  0  0
  3  8  2  0  0  0  0
  3 16  1  0  0  0  0
  4  9  1  0  0  0  0
  4 16  2  0  0  0  0
  5 18  1  0  0  0  0
  6 20  1  0  0  0  0
  7 10  2  0  0  0  0
  7 19  1  0  0  0  0
  8 27  1  0  0  0  0
  9 27  2  0  0  0  0
 10 28  1  0  0  0  0
 11 12  2  0  0  0  0
 11 29  1  0  0  0  0
 12 30  1  0  0  0  0
 13 21  1  0  0  0  0
 13 28  2  0  0  0  0
 14 22  1  0  0  0  0
 14 26  2  0  0  0  0
 15 30  2  0  0  0  0
 15 31  1  0  0  0  0
 16 32  1  0  0  0  0
 17 32  1  0  0  0  0
 17 33  2  0  0  0  0
 17 34  1  0  0  0  0
 18 20  2  0  0  0  0
 18 39  1  0  0  0  0
 19 21  2  0  0  0  0
 19 40  1  0  0  0  0
 20 48  1  0  0  0  0
 21 41  1  0  0  0  0
 22 23  2  0  0  0  0
 22 51  1  0  0  0  0
 23 24  1  0  0  0  0
 23 52  1  0  0  0  0
 24 25  2  0  0  0  0
 24 59  1  0  0  0  0
 25 26  1  0  0  0  0
 25 53  1  0  0  0  0
 26 71  1  0  0  0  0
 27 80  1  0  0  0  0
 28 81  1  0  0  0  0
 29 31  2  0  0  0  0
 29 80  1  0  0  0  0
 30 82  1  0  0  0  0
 31 83  1  0  0  0  0
 32 65  2  0  0  0  0
 33 66  1  0  0  0  0
 33 69  1  0  0  0  0
 34 70  1  0  0  0  0
 34 75  2  0  0  0  0
 35 49  1  0  0  0  0
 35 72  1  0  0  0  0
 35 76  2  0  0  0  0
 36 62  1  0  0  0  0
 36 67  1  0  0  0  0
 36 77  2  0  0  0  0
 37 63  1  0  0  0  0
 37 73  1  0  0  0  0
 37 78  2  0  0  0  0
 38 68  1  0  0  0  0
 38 71  1  0  0  0  0
 38 79  2  0  0  0  0
 39 42  1  0  0  0  0
 40 49  1  0  0  0  0
 41 67  1  0  0  0  0
 42 44  1  0  0  0  0
 43 45  1  0  0  0  0
 43 46  1  0  0  0  0
 44 48  1  0  0  0  0
 45 50  1  0  0  0  0
 46 68  1  0  0  0  0
 47 50  1  0  0  0  0
 47 68  1  0  0  0  0
 48 72  1  0  0  0  0
 49 67  1  0  0  0  0
 50 66  1  0  0  0  0
 54 63  1  0  0  0  0
 55 64  1  0  0  0  0
 56 64  1  0  0  0  0
 57 64  1  0  0  0  0
 58 74  1  0  0  0  0
 59 60  1  0  0  0  0
 60 61  1  0  0  0  0
 61 81  1  0  0  0  0
 62 64  1  0  0  0  0
 62 73  1  0  0  0  0
 63 74  1  0  0  0  0
 65 66  1  0  0  0  0
M  CHG  1  74   1
M  ISO  4  38 100  61 101  71 100  81 101
M  END
> <Batch ID>
0026

> <Smiles>
CNC(C)C(=O)NC(C(=O)N1Cc2cc([101O:1][101CH2:1]CCc3c(C)c(C)cc([100NH:0][100C:0](=O)N4CCCC(n5nc(-c6ccc(Oc7ccc(F)cc7F)cc6)c(C(N)=O)c5N)C4)c3C)ccc2CC1C(=O)NC1CCCc2ccccc21)C(C)(C)C

> <Shape>
0.176

> <Color>
0.200

> <Negative vol penalty>
0.000

$$$$

  -OEChem-04052316273D

 77 85  0     1  0  0  0  0  0999 V2000
  -18.9649  -31.7927   22.8966 C   0  0  0  0  0  0  0  0  0  0  0  0
  -20.3257  -31.5656   22.7179 C   0  0  0  0  0  0  0  0  0  0  0  0
  -25.3017  -13.0993   19.3510 C   0  0  0  0  0  0  0  0  0  0  0  0
  -25.6942  -14.0896   21.5195 C   0  0  0  0  0  0  0  0  0  0  0  0
  -18.0834  -30.7151   22.9718 C   0  0  0  0  0  0  0  0  0  0  0  0
  -20.8060  -30.2605   22.6154 C   0  0  0  0  0  0  0  0  0  0  0  0
  -25.4806  -28.3182   19.1684 C   0  0  0  0  0  0  0  0  0  0  0  0
  -25.1813  -11.8436   19.9462 C   0  0  0  0  0  0  0  0  0  0  0  0
  -25.5738  -12.8339   22.1148 C   0  0  0  0  0  0  0  0  0  0  0  0
  -26.8170  -28.0527   19.4638 C   0  0  0  0  0  0  0  0  0  0  0  0
  -24.4124   -8.4310   20.9350 C   0  0  0  0  0  0  0  0  0  0  0  0
  -23.3572   -7.6168   20.5237 C   0  0  0  0  0  0  0  0  0  0  0  0
  -26.2859  -25.7157   19.7386 C   0  0  0  0  0  0  0  0  0  0  0  0
  -21.7789   -9.2973   21.2464 C   0  0  0  0  0  0  0  0  0  0  0  0
  -25.5582  -14.2224   20.1377 C   0  0  0  0  0  0  0  0  0  0  0  0
  -24.6540  -16.4501   19.2850 C   0  0  0  0  0  0  0  0  0  0  0  0
  -18.5519  -29.3965   22.8604 C   0  0  0  0  0  0  0  0  0  0  0  0
  -24.5332  -27.2843   19.1665 C   0  0  0  0  0  0  0  0  0  0  0  0
  -19.9301  -29.1642   22.6905 C   0  0  0  0  0  0  0  0  0  0  0  0
  -24.9385  -25.9702   19.4403 C   0  0  0  0  0  0  0  0  0  0  0  0
  -25.3173  -11.7109   21.3281 C   0  0  0  0  0  0  0  0  0  0  0  0
  -27.2193  -26.7519   19.7518 C   0  0  0  0  0  0  0  0  0  0  0  0
  -24.1510   -9.6783   21.5021 C   0  0  0  0  0  0  0  0  0  0  0  0
  -22.0405   -8.0499   20.6794 C   0  0  0  0  0  0  0  0  0  0  0  0
  -22.8342  -10.1114   21.6578 C   0  0  0  0  0  0  0  0  0  0  0  0
  -25.6832  -15.5197   19.5234 C   0  0  0  0  0  0  0  0  0  0  0  0
  -25.2843  -17.5135   18.6862 C   0  0  0  0  0  0  0  0  0  0  0  0
  -23.2534  -16.3612   19.5786 C   0  0  0  0  0  0  0  0  0  0  0  0
  -30.4976  -25.2694   19.3953 C   0  0  0  0  0  0  0  0  0  0  0  0
  -21.9007  -26.6512   20.8318 C   0  0  0  0  0  0  0  0  0  0  0  0
  -21.6235  -24.2031   18.7217 C   0  0  0  0  0  0  0  0  0  0  0  0
  -23.1543  -22.0701   16.5414 C   0  0  0  0  0  0  0  0  0  0  0  0
  -29.4027  -21.1122   18.5014 C   0  0  0  0  0  0  0  0  0  0  0  0
  -17.5669  -28.2623   22.9951 C   0  0  0  0  0  0  0  0  0  0  0  0
  -23.1004  -27.5829   18.8196 C   0  0  0  0  0  0  0  0  0  0  0  0
  -23.9643  -24.8217   19.4314 C   0  0  0  0  0  0  0  0  0  0  0  0
  -18.1088  -26.9232   22.5019 C   0  0  0  0  0  0  0  0  0  0  0  0
  -29.9734  -17.9490   16.8385 C   0  0  0  0  0  0  0  0  0  0  0  0
  -19.5149  -26.6844   23.0429 C   0  0  0  0  0  0  0  0  0  0  0  0
  -28.8129  -17.1093   17.3755 C   0  0  0  0  0  0  0  0  0  0  0  0
  -31.9041  -23.8988   17.7456 C   0  0  0  0  0  0  0  0  0  0  0  0
  -30.5264  -18.8796   17.9138 C   0  0  0  0  0  0  0  0  0  0  0  0
  -28.3506  -18.9414   19.0695 C   0  0  0  0  0  0  0  0  0  0  0  0
  -20.4863  -27.7638   22.5500 C   0  0  1  0  0  0  0  0  0  0  0  0
  -31.1395  -23.9758   19.0250 C   0  0  2  0  0  0  0  0  0  0  0  0
  -22.1263  -26.5357   19.3507 C   0  0  1  0  0  0  0  0  0  0  0  0
  -27.7328  -17.9957   18.0235 C   0  0  2  0  0  0  0  0  0  0  0  0
  -30.5768  -23.2052   17.8703 C   0  0  2  0  0  0  0  0  0  0  0  0
  -22.6724  -20.1542   14.9940 C   0  0  0  0  0  0  0  0  0  0  0  0
  -21.3933  -22.3287   21.1182 C   0  0  0  0  0  0  0  0  0  0  0  0
  -21.8698  -20.4135   19.5777 C   0  0  0  0  0  0  0  0  0  0  0  0
  -19.8318  -21.8105   19.2347 C   0  0  0  0  0  0  0  0  0  0  0  0
  -24.0950  -23.5881   14.1814 C   0  0  0  0  0  0  0  0  0  0  0  0
  -29.0196  -25.1991   19.6905 C   0  0  0  0  0  0  0  0  0  1  0  0
  -22.1022  -22.7721   18.6755 C   0  0  1  0  0  0  0  0  0  0  0  0
  -22.8092  -21.6636   15.1201 C   0  0  2  0  0  0  0  0  0  0  0  0
  -21.3175  -21.8529   19.6537 C   0  0  0  0  0  0  0  0  0  0  0  0
  -26.8767  -15.9537   19.1097 N   0  0  0  0  0  0  0  0  0  0  0  0
  -26.6014  -17.1686   18.6052 N   0  0  0  0  0  0  0  0  0  0  0  0
  -22.5734  -25.1654   19.0925 N   0  0  0  0  0  0  0  0  0  0  0  0
  -29.4512  -19.7085   18.4768 N   0  0  0  0  0  0  0  0  0  0  0  0
  -24.8349  -18.7004   18.2263 N   0  0  0  0  0  0  0  0  0  0  0  0
  -22.7727  -15.1984   20.1958 N   0  0  0  0  0  0  0  0  0  0  0  0
  -20.8734  -27.5075   21.1793 N   0  0  0  0  0  0  0  0  0  0  0  0
  -22.0255  -22.3610   17.2779 N   0  0  0  0  0  0  0  0  0  0  0  0
  -30.4871  -21.7630   17.9257 N   0  0  0  0  0  0  0  0  0  0  0  0
  -23.8705  -22.1196   14.1786 N   0  3  0  0  0  0  0  0  0  0  0  0
  -22.4494  -17.2788   19.2869 O   0  0  0  0  0  0  0  0  0  0  0  0
  -31.1625  -26.2966   19.4445 O   0  0  0  0  0  0  0  0  0  0  0  0
  -22.6055  -26.0097   21.6021 O   0  0  0  0  0  0  0  0  0  0  0  0
  -20.4519  -24.4586   18.4323 O   0  0  0  0  0  0  0  0  0  0  0  0
  -24.3096  -22.1208   16.9578 O   0  0  0  0  0  0  0  0  0  0  0  0
  -28.4597  -21.7398   18.9953 O   0  0  0  0  0  0  0  0  0  0  0  0
  -25.1997  -10.4858   21.9093 O   0  0  0  0  0  0  0  0  0  0  0  0
  -28.5230  -26.4901   20.0411 O   0  0  0  0  0  0  0  0  0  1  0  0
  -21.0273   -7.2686   20.2829 F   0  0  0  0  0  0  0  0  0  0  0  0
  -22.5768  -11.3092   22.2008 F   0  0  0  0  0  0  0  0  0  0  0  0
  1  2  1  0  0  0  0
  1  5  2  0  0  0  0
  2  6  2  0  0  0  0
  3  8  2  0  0  0  0
  3 15  1  0  0  0  0
  4  9  1  0  0  0  0
  4 15  2  0  0  0  0
  5 17  1  0  0  0  0
  6 19  1  0  0  0  0
  7 10  2  0  0  0  0
  7 18  1  0  0  0  0
  8 21  1  0  0  0  0
  9 21  2  0  0  0  0
 10 22  1  0  0  0  0
 11 12  2  0  0  0  0
 11 23  1  0  0  0  0
 12 24  1  0  0  0  0
 13 20  1  0  0  0  0
 13 22  2  0  0  0  0
 14 24  2  0  0  0  0
 14 25  1  0  0  0  0
 15 26  1  0  0  0  0
 16 26  1  0  0  0  0
 16 27  2  0  0  0  0
 16 28  1  0  0  0  0
 17 19  2  0  0  0  0
 17 34  1  0  0  0  0
 18 20  2  0  0  0  0
 18 35  1  0  0  0  0
 19 44  1  0  0  0  0
 20 36  1  0  0  0  0
 21 74  1  0  0  0  0
 22 75  1  0  0  0  0
 23 25  2  0  0  0  0
 23 74  1  0  0  0  0
 24 76  1  0  0  0  0
 25 77  1  0  0  0  0
 26 58  2  0  0  0  0
 27 59  1  0  0  0  0
 27 62  1  0  0  0  0
 28 63  1  0  0  0  0
 28 68  2  0  0  0  0
 29 45  1  0  0  0  0
 29 54  1  0  0  0  0
 29 69  2  0  0  0  0
 30 46  1  0  0  0  0
 30 64  1  0  0  0  0
 30 70  2  0  0  0  0
 31 55  1  0  0  0  0
 31 60  1  0  0  0  0
 31 71  2  0  0  0  0
 32 56  1  0  0  0  0
 32 65  1  0  0  0  0
 32 72  2  0  0  0  0
 33 61  1  0  0  0  0
 33 66  1  0  0  0  0
 33 73  2  0  0  0  0
 34 37  1  0  0  0  0
 35 46  1  0  0  0  0
 36 60  1  0  0  0  0
 37 39  1  0  0  0  0
 38 40  1  0  0  0  0
 38 42  1  0  0  0  0
 39 44  1  0  0  0  0
 40 47  1  0  0  0  0
 41 45  1  0  0  0  0
 41 48  1  0  0  0  0
 42 61  1  0  0  0  0
 43 47  1  0  0  0  0
 43 61  1  0  0  0  0
 44 64  1  0  0  0  0
 45 48  1  0  0  0  0
 46 60  1  0  0  0  0
 47 59  1  0  0  0  0
 48 66  1  0  0  0  0
 49 56  1  0  0  0  0
 50 57  1  0  0  0  0
 51 57  1  0  0  0  0
 52 57  1  0  0  0  0
 53 67  1  0  0  0  0
 54 75  1  0  0  0  0
 55 57  1  0  0  0  0
 55 65  1  0  0  0  0
 56 67  1  0  0  0  0
 58 59  1  0  0  0  0
M  CHG  1  67   1
M  ISO  4  33 100  54 101  66 100  75 101
M  END
> <Batch ID>
0026

> <Smiles>
CNC(C)C(=O)NC(C(=O)N1Cc2cc([101O:1][101CH2:1]C(=O)C3CC3[100NH:0][100C:0](=O)N3CCCC(n4nc(-c5ccc(Oc6ccc(F)cc6F)cc5)c(C(N)=O)c4N)C3)ccc2CC1C(=O)NC1CCCc2ccccc21)C(C)(C)C

> <Shape>
0.223

> <Color>
0.083

> <Negative vol penalty>
0.000

$$$$

  -OEChem-04052316273D

 89 98  0     1  0  0  0  0  0999 V2000
  -21.6091  -22.4725   15.7577 C   0  0  0  0  0  0  0  0  0  0  0  0
  -21.9920  -21.3975   16.5533 C   0  0  0  0  0  0  0  0  0  0  0  0
  -27.8583  -26.1150   18.6519 C   0  0  0  0  0  0  0  0  0  0  0  0
  -29.3814  -25.9504   20.5200 C   0  0  0  0  0  0  0  0  0  0  0  0
  -22.0314  -23.7617   16.0794 C   0  0  0  0  0  0  0  0  0  0  0  0
  -22.7985  -21.6109   17.6707 C   0  0  0  0  0  0  0  0  0  0  0  0
  -21.1870  -19.0696   21.7437 C   0  0  0  0  0  0  0  0  0  0  0  0
  -27.4345  -27.3634   19.1074 C   0  0  0  0  0  0  0  0  0  0  0  0
  -28.9576  -27.1988   20.9756 C   0  0  0  0  0  0  0  0  0  0  0  0
  -21.4798  -17.7078   21.8015 C   0  0  0  0  0  0  0  0  0  0  0  0
  -25.3585  -28.5739   21.4843 C   0  0  0  0  0  0  0  0  0  0  0  0
  -23.9869  -28.8273   21.4960 C   0  0  0  0  0  0  0  0  0  0  0  0
  -28.4051  -13.7130   20.1417 C   0  0  0  0  0  0  0  0  0  0  0  0
  -23.3271  -18.1739   23.2813 C   0  0  0  0  0  0  0  0  0  0  0  0
  -29.6369  -11.7695   18.5642 C   0  0  0  0  0  0  0  0  0  0  0  0
  -24.3176  -30.6867   19.9892 C   0  0  0  0  0  0  0  0  0  0  0  0
  -28.8317  -25.4085   19.3582 C   0  0  0  0  0  0  0  0  0  0  0  0
  -30.3293  -23.8519   18.0011 C   0  0  0  0  0  0  0  0  0  0  0  0
  -22.8355  -23.9923   17.2068 C   0  0  0  0  0  0  0  0  0  0  0  0
  -21.9700  -19.9965   22.4468 C   0  0  0  0  0  0  0  0  0  0  0  0
  -23.2331  -22.9043   18.0071 C   0  0  0  0  0  0  0  0  0  0  0  0
  -27.6786  -12.6046   19.7066 C   0  0  0  0  0  0  0  0  0  0  0  0
  -23.0405  -19.5467   23.2328 C   0  0  0  0  0  0  0  0  0  0  0  0
  -29.7475  -13.8497   19.7880 C   0  0  0  0  0  0  0  0  0  0  0  0
  -28.2945  -11.6329   18.9178 C   0  0  0  0  0  0  0  0  0  0  0  0
  -30.3634  -12.8779   18.9993 C   0  0  0  0  0  0  0  0  0  0  0  0
  -27.9841  -27.9053   20.2692 C   0  0  0  0  0  0  0  0  0  0  0  0
  -22.5518  -17.2600   22.5680 C   0  0  0  0  0  0  0  0  0  0  0  0
  -26.2096  -29.3769   20.7251 C   0  0  0  0  0  0  0  0  0  0  0  0
  -23.4664  -29.8836   20.7484 C   0  0  0  0  0  0  0  0  0  0  0  0
  -25.6892  -30.4333   19.9775 C   0  0  0  0  0  0  0  0  0  0  0  0
  -29.2695  -24.1186   18.8885 C   0  0  0  0  0  0  0  0  0  0  0  0
  -30.3363  -22.4841   17.8759 C   0  0  0  0  0  0  0  0  0  0  0  0
  -31.2272  -24.7593   17.3484 C   0  0  0  0  0  0  0  0  0  0  0  0
  -23.8100  -22.4560   21.6291 C   0  0  0  0  0  0  0  0  0  0  0  0
  -23.9934  -22.8843   24.8393 C   0  0  0  0  0  0  0  0  0  0  0  0
  -23.7700  -21.5238   27.9611 C   0  0  0  0  0  0  0  0  0  0  0  0
  -30.1708  -17.5003   20.1301 C   0  0  0  0  0  0  0  0  0  0  0  0
  -23.3062  -25.3974   17.4876 C   0  0  0  0  0  0  0  0  0  0  0  0
  -21.6247  -21.4595   22.3954 C   0  0  0  0  0  0  0  0  0  0  0  0
  -23.8995  -20.4991   24.0226 C   0  0  0  0  0  0  0  0  0  0  0  0
  -23.8499  -25.5865   18.9014 C   0  0  0  0  0  0  0  0  0  0  0  0
  -26.9722  -19.0203   19.3846 C   0  0  0  0  0  0  0  0  0  0  0  0
  -24.8052  -24.4533   19.2620 C   0  0  0  0  0  0  0  0  0  0  0  0
  -27.3798  -20.4698   19.1145 C   0  0  0  0  0  0  0  0  0  0  0  0
  -26.1126  -12.4031   21.6286 C   0  0  0  0  0  0  0  0  0  0  0  0
  -25.4344  -13.6653   19.5468 C   0  0  0  0  0  0  0  0  0  0  0  0
  -27.8018  -18.4138   20.5124 C   0  0  0  0  0  0  0  0  0  0  0  0
  -29.6846  -19.9284   20.0281 C   0  0  0  0  0  0  0  0  0  0  0  0
  -24.6538  -12.3580   22.0648 C   0  0  0  0  0  0  0  0  0  0  0  0
  -23.9807  -13.6103   19.9988 C   0  0  0  0  0  0  0  0  0  0  0  0
  -26.2417  -12.4792   20.0987 C   0  0  0  0  0  0  0  0  0  0  0  0
  -24.0868  -23.0986   19.2414 C   0  0  1  0  0  0  0  0  0  0  0  0
  -22.8035  -22.3642   22.7409 C   0  0  1  0  0  0  0  0  0  0  0  0
  -28.8977  -20.5912   18.8829 C   0  0  2  0  0  0  0  0  0  0  0  0
  -27.5369  -10.4374   18.4408 C   0  0  0  0  0  0  0  0  0  0  0  0
  -31.7991  -13.0033   18.6074 C   0  0  0  0  0  0  0  0  0  0  0  0
  -31.1948  -14.8119   21.6158 C   0  0  0  0  0  0  0  0  0  0  0  0
  -24.0090  -22.1133   30.3886 C   0  0  0  0  0  0  0  0  0  0  0  0
  -27.0301  -22.8654   24.5424 C   0  0  0  0  0  0  0  0  0  0  0  0
  -27.1996  -22.5000   27.0134 C   0  0  0  0  0  0  0  0  0  0  0  0
  -26.1479  -24.5831   26.1317 C   0  0  0  0  0  0  0  0  0  0  0  0
  -20.9502  -20.8262   28.5277 C   0  0  0  0  0  0  0  0  0  0  0  0
  -22.5103  -13.6298   22.0119 C   0  0  0  0  0  0  0  0  0  0  0  0
  -22.0031  -15.0519   21.8759 C   0  0  0  0  0  0  0  0  0  1  0  0
  -30.5049  -15.0452   20.2648 C   0  0  2  0  0  0  0  0  0  0  0  0
  -24.9078  -22.3888   25.9335 C   0  0  1  0  0  0  0  0  0  0  0  0
  -23.0508  -21.9902   29.2141 C   0  0  2  0  0  0  0  0  0  0  0  0
  -26.3066  -23.0663   25.8889 C   0  0  0  0  0  0  0  0  0  0  0  0
  -28.6482  -23.0094   19.2979 N   0  0  0  0  0  0  0  0  0  0  0  0
  -29.3196  -22.0324   18.6649 N   0  0  0  0  0  0  0  0  0  0  0  0
  -23.5256  -21.9203   23.9350 N   0  0  0  0  0  0  0  0  0  0  0  0
  -29.2364  -18.5453   20.2215 N   0  0  0  0  0  0  0  0  0  0  0  0
  -31.1128  -21.6358   17.1689 N   0  0  0  0  0  0  0  0  0  0  0  0
  -31.0806  -26.1324   17.5880 N   0  0  0  0  0  0  0  0  0  0  0  0
  -23.2919  -22.9297   20.4389 N   0  0  0  0  0  0  0  0  0  0  0  0
  -24.1882  -22.5856   27.1872 N   0  0  0  0  0  0  0  0  0  0  0  0
  -29.6666  -16.2215   20.3330 N   0  0  0  0  0  0  0  0  0  0  0  0
  -23.9069  -13.5578   21.5133 N   0  3  0  0  0  0  0  0  0  0  0  0
  -21.9759  -21.0263   29.5835 N   0  3  0  0  0  0  0  0  0  0  0  0
  -32.1223  -24.3653   16.5628 O   0  0  0  0  0  0  0  0  0  0  0  0
  -24.9711  -22.1233   21.8362 O   0  0  0  0  0  0  0  0  0  0  0  0
  -23.6991  -24.0813   24.7930 O   0  0  0  0  0  0  0  0  0  0  0  0
  -23.9465  -20.3365   27.6974 O   0  0  0  0  0  0  0  0  0  0  0  0
  -31.3658  -17.6922   19.8806 O   0  0  0  0  0  0  0  0  0  0  0  0
  -27.5710  -29.1236   20.7139 O   0  0  0  0  0  0  0  0  0  0  0  0
  -22.8402  -15.9313   22.6257 O   0  0  0  0  0  0  0  0  0  1  0  0
  -22.1491  -30.1259   20.7585 F   0  0  0  0  0  0  0  0  0  0  0  0
  -26.5018  -31.2075   19.2453 F   0  0  0  0  0  0  0  0  0  0  0  0
  1  2  1  0  0  0  0
  1  5  2  0  0  0  0
  2  6  2  0  0  0  0
  3  8  2  0  0  0  0
  3 17  1  0  0  0  0
  4  9  1  0  0  0  0
  4 17  2  0  0  0  0
  5 19  1  0  0  0  0
  6 21  1  0  0  0  0
  7 10  2  0  0  0  0
  7 20  1  0  0  0  0
  8 27  1  0  0  0  0
  9 27  2  0  0  0  0
 10 28  1  0  0  0  0
 11 12  2  0  0  0  0
 11 29  1  0  0  0  0
 12 30  1  0  0  0  0
 13 22  1  0  0  0  0
 13 24  2  0  0  0  0
 14 23  1  0  0  0  0
 14 28  2  0  0  0  0
 15 25  1  0  0  0  0
 15 26  2  0  0  0  0
 16 30  2  0  0  0  0
 16 31  1  0  0  0  0
 17 32  1  0  0  0  0
 18 32  1  0  0  0  0
 18 33  2  0  0  0  0
 18 34  1  0  0  0  0
 19 21  2  0  0  0  0
 19 39  1  0  0  0  0
 20 23  2  0  0  0  0
 20 40  1  0  0  0  0
 21 53  1  0  0  0  0
 22 25  2  0  0  0  0
 22 52  1  0  0  0  0
 23 41  1  0  0  0  0
 24 26  1  0  0  0  0
 24 66  1  0  0  0  0
 25 56  1  0  0  0  0
 26 57  1  0  0  0  0
 27 86  1  0  0  0  0
 28 87  1  0  0  0  0
 29 31  2  0  0  0  0
 29 86  1  0  0  0  0
 30 88  1  0  0  0  0
 31 89  1  0  0  0  0
 32 70  2  0  0  0  0
 33 71  1  0  0  0  0
 33 74  1  0  0  0  0
 34 75  1  0  0  0  0
 34 81  2  0  0  0  0
 35 54  1  0  0  0  0
 35 76  1  0  0  0  0
 35 82  2  0  0  0  0
 36 67  1  0  0  0  0
 36 72  1  0  0  0  0
 36 83  2  0  0  0  0
 37 68  1  0  0  0  0
 37 77  1  0  0  0  0
 37 84  2  0  0  0  0
 38 73  1  0  0  0  0
 38 78  1  0  0  0  0
 38 85  2  0  0  0  0
 39 42  1  0  0  0  0
 40 54  1  0  0  0  0
 41 72  1  0  0  0  0
 42 44  1  0  0  0  0
 43 45  1  0  0  0  0
 43 48  1  0  0  0  0
 44 53  1  0  0  0  0
 45 55  1  0  0  0  0
 46 50  1  0  0  0  0
 46 52  1  0  0  0  0
 47 51  1  0  0  0  0
 47 52  1  0  0  0  0
 48 73  1  0  0  0  0
 49 55  1  0  0  0  0
 49 73  1  0  0  0  0
 50 79  1  0  0  0  0
 51 79  1  0  0  0  0
 53 76  1  0  0  0  0
 54 72  1  0  0  0  0
 55 71  1  0  0  0  0
 58 66  1  0  0  0  0
 59 68  1  0  0  0  0
 60 69  1  0  0  0  0
 61 69  1  0  0  0  0
 62 69  1  0  0  0  0
 63 80  1  0  0  0  0
 64 65  1  0  0  0  0
 64 79  1  0  0  0  0
 65 87  1  0  0  0  0
 66 78  1  0  0  0  0
 67 69  1  0  0  0  0
 67 77  1  0  0  0  0
 68 80  1  0  0  0  0
 70 71  1  0  0  0  0
M  CHG  2  79   1  80   1
M  ISO  4  38 100  65 101  78 100  87 101
M  END
> <Batch ID>
0026

> <Smiles>
CNC(C)C(=O)NC(C(=O)N1Cc2cc([101O:1][101CH2:1]CN3CCC(c4cc(C(C)[100NH:0][100C:0](=O)N5CCCC(n6nc(-c7ccc(Oc8ccc(F)cc8F)cc7)c(C(N)=O)c6N)C5)c(C)cc4C)CC3)ccc2CC1C(=O)NC1CCCc2ccccc21)C(C)(C)C

> <Shape>
0.227

> <Color>
0.068

> <Negative vol penalty>
0.000

$$$$

  -OEChem-04052316273D

 88 97  0     1  0  0  0  0  0999 V2000
  -23.8150   -9.1585   21.2100 C   0  0  0  0  0  0  0  0  0  0  0  0
  -25.0191   -9.8341   21.0394 C   0  0  0  0  0  0  0  0  0  0  0  0
  -20.2786  -27.0292   21.5641 C   0  0  0  0  0  0  0  0  0  0  0  0
  -20.4644  -27.7359   23.8669 C   0  0  0  0  0  0  0  0  0  0  0  0
  -22.6081   -9.8460   21.0894 C   0  0  0  0  0  0  0  0  0  0  0  0
  -25.0169  -11.1976   20.7470 C   0  0  0  0  0  0  0  0  0  0  0  0
  -28.8238  -17.1579   21.8863 C   0  0  0  0  0  0  0  0  0  0  0  0
  -18.8890  -27.1146   21.6499 C   0  0  0  0  0  0  0  0  0  0  0  0
  -19.0748  -27.8214   23.9528 C   0  0  0  0  0  0  0  0  0  0  0  0
  -29.4051  -18.2147   21.1871 C   0  0  0  0  0  0  0  0  0  0  0  0
  -16.5325  -29.5380   21.5663 C   0  0  0  0  0  0  0  0  0  0  0  0
  -15.8551  -30.1575   20.5161 C   0  0  0  0  0  0  0  0  0  0  0  0
  -27.2613  -19.3156   21.0806 C   0  0  0  0  0  0  0  0  0  0  0  0
  -14.6291  -28.1170   20.1033 C   0  0  0  0  0  0  0  0  0  0  0  0
  -32.0097  -28.6610   20.9084 C   0  0  0  0  0  0  0  0  0  0  0  0
  -21.0663  -27.3398   22.6726 C   0  0  0  0  0  0  0  0  0  0  0  0
  -23.2661  -26.1073   22.2861 C   0  0  0  0  0  0  0  0  0  0  0  0
  -22.5912  -11.2205   20.8049 C   0  0  0  0  0  0  0  0  0  0  0  0
  -27.4524  -17.1669   22.1789 C   0  0  0  0  0  0  0  0  0  0  0  0
  -23.8085  -11.9038   20.6211 C   0  0  0  0  0  0  0  0  0  0  0  0
  -26.6655  -18.2589   21.7859 C   0  0  0  0  0  0  0  0  0  0  0  0
  -18.2871  -27.5108   22.8442 C   0  0  0  0  0  0  0  0  0  0  0  0
  -28.6234  -19.2924   20.7816 C   0  0  0  0  0  0  0  0  0  0  0  0
  -16.2583  -28.2079   21.8849 C   0  0  0  0  0  0  0  0  0  0  0  0
  -14.9033  -29.4470   19.7846 C   0  0  0  0  0  0  0  0  0  0  0  0
  -15.3066  -27.4975   21.1534 C   0  0  0  0  0  0  0  0  0  0  0  0
  -22.5017  -27.2511   22.5847 C   0  0  0  0  0  0  0  0  0  0  0  0
  -32.5223  -27.4674   21.4509 C   0  0  0  0  0  0  0  0  0  0  0  0
  -30.8752  -28.2740   20.2378 C   0  0  0  0  0  0  0  0  0  0  0  0
  -24.5677  -26.5443   22.3251 C   0  0  0  0  0  0  0  0  0  0  0  0
  -22.8380  -24.7694   21.9991 C   0  0  0  0  0  0  0  0  0  0  0  0
  -24.9838  -15.3156   21.4157 C   0  0  0  0  0  0  0  0  0  0  0  0
  -23.4001  -17.2368   23.4949 C   0  0  0  0  0  0  0  0  0  0  0  0
  -23.2042  -20.2539   25.0779 C   0  0  0  0  0  0  0  0  0  0  0  0
  -28.4728  -30.3230   21.0535 C   0  0  0  0  0  0  0  0  0  0  0  0
  -21.2609  -11.9109   20.6373 C   0  0  0  0  0  0  0  0  0  0  0  0
  -26.8457  -16.0318   22.9573 C   0  0  0  0  0  0  0  0  0  0  0  0
  -25.1925  -18.3263   22.0929 C   0  0  0  0  0  0  0  0  0  0  0  0
  -21.3531  -13.4335   20.6960 C   0  0  0  0  0  0  0  0  0  0  0  0
  -26.5286  -30.9039   23.9791 C   0  0  0  0  0  0  0  0  0  0  0  0
  -22.5041  -13.9325   19.8282 C   0  0  0  0  0  0  0  0  0  0  0  0
  -28.2584  -23.6210   18.5363 C   0  0  0  0  0  0  0  0  0  0  0  0
  -30.3086  -22.9447   19.8531 C   0  0  0  0  0  0  0  0  0  0  0  0
  -25.3681  -29.9158   23.8492 C   0  0  0  0  0  0  0  0  0  0  0  0
  -29.0659  -24.7202   17.8443 C   0  0  0  0  0  0  0  0  0  0  0  0
  -31.1156  -24.0433   19.1599 C   0  0  0  0  0  0  0  0  0  0  0  0
  -26.9397  -31.4730   22.6230 C   0  0  0  0  0  0  0  0  0  0  0  0
  -26.0839  -29.4737   21.4636 C   0  0  0  0  0  0  0  0  0  0  0  0
  -23.8478  -13.3878   20.3275 C   0  0  1  0  0  0  0  0  0  0  0  0
  -25.3394  -15.9041   22.7517 C   0  0  1  0  0  0  0  0  0  0  0  0
  -29.1495  -22.4541   18.9778 C   0  0  0  0  0  0  0  0  0  0  0  0
  -25.6705  -28.8305   22.7985 C   0  0  2  0  0  0  0  0  0  0  0  0
  -30.2532  -25.2350   18.6882 C   0  0  0  0  0  0  0  0  0  0  0  0
  -31.1190  -26.1659   17.8183 C   0  0  0  0  0  0  0  0  0  0  0  0
  -34.9912  -27.0307   21.4273 C   0  0  0  0  0  0  0  0  0  0  0  0
  -21.7770  -21.5442   26.6890 C   0  0  0  0  0  0  0  0  0  0  0  0
  -21.3623  -17.7426   21.2810 C   0  0  0  0  0  0  0  0  0  0  0  0
  -20.5371  -19.7132   22.5864 C   0  0  0  0  0  0  0  0  0  0  0  0
  -20.3734  -17.4204   23.5553 C   0  0  0  0  0  0  0  0  0  0  0  0
  -25.4139  -20.4808   27.0336 C   0  0  0  0  0  0  0  0  0  0  0  0
  -33.7367  -27.3017   22.2671 C   0  0  0  0  0  0  0  0  0  0  0  0
  -29.8945  -29.0555   19.4624 C   0  0  0  0  0  0  0  0  0  0  0  0
  -28.3282  -21.3968   19.7136 C   0  0  0  0  0  0  0  0  0  1  0  0
  -29.7480  -26.0494   19.8948 C   0  0  0  0  0  0  0  0  0  0  0  0
  -22.6365  -18.5342   23.3824 C   0  0  1  0  0  0  0  0  0  0  0  0
  -22.9703  -20.6142   26.5339 C   0  0  2  0  0  0  0  0  0  0  0  0
  -21.2546  -18.3507   22.6936 C   0  0  0  0  0  0  0  0  0  0  0  0
  -23.2549  -28.3334   22.7979 N   0  0  0  0  0  0  0  0  0  0  0  0
  -31.7747  -26.4020   21.1510 N   0  0  0  0  0  0  0  0  0  0  0  0
  -30.7808  -26.9247   20.4129 N   0  0  0  0  0  0  0  0  0  0  0  0
  -24.5061  -27.8716   22.6331 N   0  0  0  0  0  0  0  0  0  0  0  0
  -24.6445  -17.1892   22.8508 N   0  0  0  0  0  0  0  0  0  0  0  0
  -27.2140  -30.3923   21.6729 N   0  0  0  0  0  0  0  0  0  0  0  0
  -25.7473  -25.9189   22.1258 N   0  0  0  0  0  0  0  0  0  0  0  0
  -22.6949  -23.8705   23.0648 N   0  0  0  0  0  0  0  0  0  0  0  0
  -24.2896  -14.1233   21.4930 N   0  0  0  0  0  0  0  0  0  0  0  0
  -22.5632  -19.0831   24.7321 N   0  0  0  0  0  0  0  0  0  0  0  0
  -28.6518  -29.2642   20.1717 N   0  0  0  0  0  0  0  0  0  0  0  0
  -24.1711  -21.2921   27.0991 N   0  3  0  0  0  0  0  0  0  0  0  0
  -22.6054  -24.3778   20.8303 O   0  0  0  0  0  0  0  0  0  0  0  0
  -25.3134  -15.9007   20.3907 O   0  0  0  0  0  0  0  0  0  0  0  0
  -22.9137  -16.3025   24.1369 O   0  0  0  0  0  0  0  0  0  0  0  0
  -23.8843  -20.9441   24.3219 O   0  0  0  0  0  0  0  0  0  0  0  0
  -29.3725  -31.1408   21.2743 O   0  0  0  0  0  0  0  0  0  0  0  0
  -16.9312  -27.5945   22.9283 O   0  0  0  0  0  0  0  0  0  0  0  0
  -29.1882  -20.3250   20.0984 O   0  0  0  0  0  0  0  0  0  1  0  0
  -14.2517  -30.0426   18.7772 F   0  0  0  0  0  0  0  0  0  0  0  0
  -15.0380  -26.2198   21.4556 F   0  0  0  0  0  0  0  0  0  0  0  0
  1  2  1  0  0  0  0
  1  5  2  0  0  0  0
  2  6  2  0  0  0  0
  3  8  2  0  0  0  0
  3 16  1  0  0  0  0
  4  9  1  0  0  0  0
  4 16  2  0  0  0  0
  5 18  1  0  0  0  0
  6 20  1  0  0  0  0
  7 10  2  0  0  0  0
  7 19  1  0  0  0  0
  8 22  1  0  0  0  0
  9 22  2  0  0  0  0
 10 23  1  0  0  0  0
 11 12  2  0  0  0  0
 11 24  1  0  0  0  0
 12 25  1  0  0  0  0
 13 21  1  0  0  0  0
 13 23  2  0  0  0  0
 14 25  2  0  0  0  0
 14 26  1  0  0  0  0
 15 28  1  0  0  0  0
 15 29  2  0  0  0  0
 16 27  1  0  0  0  0
 17 27  1  0  0  0  0
 17 30  2  0  0  0  0
 17 31  1  0  0  0  0
 18 20  2  0  0  0  0
 18 36  1  0  0  0  0
 19 21  2  0  0  0  0
 19 37  1  0  0  0  0
 20 49  1  0  0  0  0
 21 38  1  0  0  0  0
 22 85  1  0  0  0  0
 23 86  1  0  0  0  0
 24 26  2  0  0  0  0
 24 85  1  0  0  0  0
 25 87  1  0  0  0  0
 26 88  1  0  0  0  0
 27 68  2  0  0  0  0
 28 61  1  0  0  0  0
 28 69  2  0  0  0  0
 29 62  1  0  0  0  0
 29 70  1  0  0  0  0
 30 71  1  0  0  0  0
 30 74  1  0  0  0  0
 31 75  1  0  0  0  0
 31 80  2  0  0  0  0
 32 50  1  0  0  0  0
 32 76  1  0  0  0  0
 32 81  2  0  0  0  0
 33 65  1  0  0  0  0
 33 72  1  0  0  0  0
 33 82  2  0  0  0  0
 34 66  1  0  0  0  0
 34 77  1  0  0  0  0
 34 83  2  0  0  0  0
 35 73  1  0  0  0  0
 35 78  1  0  0  0  0
 35 84  2  0  0  0  0
 36 39  1  0  0  0  0
 37 50  1  0  0  0  0
 38 72  1  0  0  0  0
 39 41  1  0  0  0  0
 40 44  1  0  0  0  0
 40 47  1  0  0  0  0
 41 49  1  0  0  0  0
 42 45  1  0  0  0  0
 42 51  1  0  0  0  0
 43 46  1  0  0  0  0
 43 51  1  0  0  0  0
 44 52  1  0  0  0  0
 45 53  1  0  0  0  0
 46 53  1  0  0  0  0
 47 73  1  0  0  0  0
 48 52  1  0  0  0  0
 48 73  1  0  0  0  0
 49 76  1  0  0  0  0
 50 72  1  0  0  0  0
 51 63  1  0  0  0  0
 52 71  1  0  0  0  0
 53 54  1  0  0  0  0
 53 64  1  0  0  0  0
 55 61  1  0  0  0  0
 56 66  1  0  0  0  0
 57 67  1  0  0  0  0
 58 67  1  0  0  0  0
 59 67  1  0  0  0  0
 60 79  1  0  0  0  0
 62 78  1  0  0  0  0
 63 86  1  0  0  0  0
 64 70  1  0  0  0  0
 65 67  1  0  0  0  0
 65 77  1  0  0  0  0
 66 79  1  0  0  0  0
 68 71  1  0  0  0  0
 69 70  1  0  0  0  0
M  CHG  1  79   1
M  ISO  4  35 100  63 101  78 100  86 101
M  END
> <Batch ID>
0026

> <Smiles>
CCc1cc(C[100NH:0][100C:0](=O)N2CCCC(n3nc(-c4ccc(Oc5ccc(F)cc5F)cc4)c(C(N)=O)c3N)C2)n(CC2(C)CCC([101CH2:1][101O:1]c3ccc4c(c3)CN(C(=O)C(NC(=O)C(C)NC)C(C)(C)C)C(C(=O)NC3CCCc5ccccc53)C4)CC2)n1

> <Shape>
0.234

> <Color>
0.058

> <Negative vol penalty>
0.000

$$$$

  -OEChem-04052316273D

 87 96  0     1  0  0  0  0  0999 V2000
  -23.3492   -6.7990   23.9852 C   0  0  0  0  0  0  0  0  0  0  0  0
  -24.5134   -7.5433   24.1464 C   0  0  0  0  0  0  0  0  0  0  0  0
  -22.4832  -28.4367   20.6262 C   0  0  0  0  0  0  0  0  0  0  0  0
  -23.1441  -26.3139   21.5717 C   0  0  0  0  0  0  0  0  0  0  0  0
  -22.4951   -7.0656   22.9159 C   0  0  0  0  0  0  0  0  0  0  0  0
  -24.8249   -8.5540   23.2376 C   0  0  0  0  0  0  0  0  0  0  0  0
  -27.6392  -13.8564   24.4504 C   0  0  0  0  0  0  0  0  0  0  0  0
  -21.1657  -28.2016   21.0193 C   0  0  0  0  0  0  0  0  0  0  0  0
  -21.8266  -26.0788   21.9649 C   0  0  0  0  0  0  0  0  0  0  0  0
  -28.9633  -14.2692   24.3092 C   0  0  0  0  0  0  0  0  0  0  0  0
  -17.6948  -28.3233   22.0932 C   0  0  0  0  0  0  0  0  0  0  0  0
  -17.0015  -29.3718   22.6978 C   0  0  0  0  0  0  0  0  0  0  0  0
  -28.4223  -15.2538   22.1745 C   0  0  0  0  0  0  0  0  0  0  0  0
  -30.1454  -22.2140   21.5053 C   0  0  0  0  0  0  0  0  0  0  0  0
  -18.6475  -29.4411   24.4651 C   0  0  0  0  0  0  0  0  0  0  0  0
  -32.0562  -20.8570   20.0870 C   0  0  0  0  0  0  0  0  0  0  0  0
  -23.4724  -27.4928   20.9024 C   0  0  0  0  0  0  0  0  0  0  0  0
  -25.6600  -28.8049   20.8876 C   0  0  0  0  0  0  0  0  0  0  0  0
  -22.7914   -8.0866   21.9991 C   0  0  0  0  0  0  0  0  0  0  0  0
  -26.6975  -14.1301   23.4480 C   0  0  0  0  0  0  0  0  0  0  0  0
  -23.9746   -8.8337   22.1543 C   0  0  0  0  0  0  0  0  0  0  0  0
  -27.0863  -14.8456   22.3066 C   0  0  0  0  0  0  0  0  0  0  0  0
  -31.9402  -20.6049   21.4587 C   0  0  0  0  0  0  0  0  0  0  0  0
  -30.9781  -21.3179   22.1969 C   0  0  0  0  0  0  0  0  0  0  0  0
  -20.8374  -27.0227   21.6887 C   0  0  0  0  0  0  0  0  0  0  0  0
  -29.3557  -14.9655   23.1698 C   0  0  0  0  0  0  0  0  0  0  0  0
  -18.8644  -27.8336   22.6746 C   0  0  0  0  0  0  0  0  0  0  0  0
  -17.4779  -29.9307   23.8837 C   0  0  0  0  0  0  0  0  0  0  0  0
  -19.3407  -28.3925   23.8605 C   0  0  0  0  0  0  0  0  0  0  0  0
  -24.8334  -27.7348   20.4960 C   0  0  0  0  0  0  0  0  0  0  0  0
  -26.8461  -28.5802   20.2324 C   0  0  0  0  0  0  0  0  0  0  0  0
  -30.3019  -22.4043   20.1403 C   0  0  0  0  0  0  0  0  0  0  0  0
  -25.3808  -29.9037   21.7652 C   0  0  0  0  0  0  0  0  0  0  0  0
  -24.8865  -12.3592   21.5277 C   0  0  0  0  0  0  0  0  0  0  0  0
  -23.6408  -15.2355   20.6926 C   0  0  0  0  0  0  0  0  0  0  0  0
  -24.8930  -18.5501   20.0125 C   0  0  0  0  0  0  0  0  0  0  0  0
  -29.4682  -23.6466   18.1135 C   0  0  0  0  0  0  0  0  0  0  0  0
  -21.8616   -8.3065   20.8321 C   0  0  0  0  0  0  0  0  0  0  0  0
  -25.2670  -13.7012   23.6277 C   0  0  0  0  0  0  0  0  0  0  0  0
  -26.1094  -15.1823   21.2108 C   0  0  0  0  0  0  0  0  0  0  0  0
  -32.8514  -19.5663   22.0633 C   0  0  0  0  0  0  0  0  0  0  0  0
  -22.0749   -9.6435   20.1270 C   0  0  0  0  0  0  0  0  0  0  0  0
  -28.6072  -26.5634   16.2619 C   0  0  0  0  0  0  0  0  0  0  0  0
  -23.5606   -9.8865   19.8814 C   0  0  0  0  0  0  0  0  0  0  0  0
  -27.6217  -27.2952   17.1758 C   0  0  0  0  0  0  0  0  0  0  0  0
  -28.4348  -25.0475   16.3401 C   0  0  0  0  0  0  0  0  0  0  0  0
  -27.4940  -25.2186   18.6105 C   0  0  0  0  0  0  0  0  0  0  0  0
  -31.8288  -20.6882   24.4567 C   0  0  0  0  0  0  0  0  0  0  0  0
  -24.3344   -9.9548   21.2036 C   0  0  1  0  0  0  0  0  0  0  0  0
  -24.5080  -13.5852   22.3095 C   0  0  1  0  0  0  0  0  0  0  0  0
  -27.6729  -26.7456   18.6148 C   0  0  2  0  0  0  0  0  0  0  0  0
  -31.9364  -19.1615   24.4321 C   0  0  1  0  0  0  0  0  0  0  0  0
  -30.4627  -18.9323   26.4377 C   0  0  0  0  0  0  0  0  0  0  0  0
  -23.7846  -20.7905   20.2354 C   0  0  0  0  0  0  0  0  0  0  0  0
  -22.9490  -14.8632   17.7442 C   0  0  0  0  0  0  0  0  0  0  0  0
  -23.3809  -17.3061   17.4063 C   0  0  0  0  0  0  0  0  0  0  0  0
  -21.5556  -16.5639   18.9360 C   0  0  0  0  0  0  0  0  0  0  0  0
  -27.0501  -19.5728   21.7619 C   0  0  0  0  0  0  0  0  0  0  0  0
  -30.6855  -18.5072   25.0251 C   0  0  0  0  0  0  0  0  0  0  0  0
  -32.4651  -16.4245   21.8636 C   0  0  0  0  0  0  0  0  0  0  0  0
  -32.8731  -17.2784   23.0546 C   0  0  0  0  0  0  0  0  0  0  0  0
  -30.9815  -16.0779   21.8373 C   0  0  0  0  0  0  0  0  0  1  0  0
  -23.9640  -16.2785   19.6502 C   0  0  1  0  0  0  0  0  0  0  0  0
  -24.7218  -19.7824   20.8823 C   0  0  2  0  0  0  0  0  0  0  0  0
  -22.9826  -16.2361   18.4451 C   0  0  0  0  0  0  0  0  0  0  0  0
  -25.4427  -26.8929   19.6569 N   0  0  0  0  0  0  0  0  0  0  0  0
  -26.6647  -27.4340   19.5158 N   0  0  0  0  0  0  0  0  0  0  0  0
  -31.2481  -21.7325   19.4801 N   0  3  0  0  0  0  0  0  0  0  0  0
  -30.8103  -21.2054   23.5688 N   0  0  0  0  0  0  0  0  0  0  0  0
  -24.7237  -14.7359   21.4299 N   0  0  0  0  0  0  0  0  0  0  0  0
  -28.4987  -24.5985   17.7326 N   0  0  0  0  0  0  0  0  0  0  0  0
  -28.0160  -29.2533   20.2051 N   0  0  0  0  0  0  0  0  0  0  0  0
  -24.1116  -29.9823   22.3545 N   0  0  0  0  0  0  0  0  0  0  0  0
  -29.4546  -23.3206   19.4692 N   0  0  0  0  0  0  0  0  0  0  0  0
  -24.1375  -11.2403   21.8386 N   0  0  0  0  0  0  0  0  0  0  0  0
  -23.9963  -17.5584   20.3497 N   0  0  0  0  0  0  0  0  0  0  0  0
  -32.1577  -18.6117   23.0245 N   0  3  2  0  0  0  0  0  0  0  0  0
  -26.0381  -20.4431   21.1095 N   0  3  0  0  0  0  0  0  0  0  0  0
  -26.2261  -30.7986   22.0065 O   0  0  0  0  0  0  0  0  0  0  0  0
  -25.7901  -12.4239   20.7025 O   0  0  0  0  0  0  0  0  0  0  0  0
  -22.4696  -14.8824   20.8519 O   0  0  0  0  0  0  0  0  0  0  0  0
  -25.7353  -18.4761   19.1206 O   0  0  0  0  0  0  0  0  0  0  0  0
  -30.2704  -23.1772   17.3023 O   0  0  0  0  0  0  0  0  0  0  0  0
  -19.5520  -26.7931   22.0727 O   0  0  0  0  0  0  0  0  0  0  0  0
  -30.6568  -15.3719   23.0282 O   0  0  0  0  0  0  0  0  0  1  0  0
  -16.8129  -30.9387   24.4633 F   0  0  0  0  0  0  0  0  0  0  0  0
  -20.4644  -27.9270   24.4230 F   0  0  0  0  0  0  0  0  0  0  0  0
  1  2  1  0  0  0  0
  1  5  2  0  0  0  0
  2  6  2  0  0  0  0
  3  8  2  0  0  0  0
  3 17  1  0  0  0  0
  4  9  1  0  0  0  0
  4 17  2  0  0  0  0
  5 19  1  0  0  0  0
  6 21  1  0  0  0  0
  7 10  2  0  0  0  0
  7 20  1  0  0  0  0
  8 25  1  0  0  0  0
  9 25  2  0  0  0  0
 10 26  1  0  0  0  0
 11 12  2  0  0  0  0
 11 27  1  0  0  0  0
 12 28  1  0  0  0  0
 13 22  1  0  0  0  0
 13 26  2  0  0  0  0
 14 24  1  0  0  0  0
 14 32  2  0  0  0  0
 15 28  2  0  0  0  0
 15 29  1  0  0  0  0
 16 23  1  0  0  0  0
 16 68  2  0  0  0  0
 17 30  1  0  0  0  0
 18 30  1  0  0  0  0
 18 31  2  0  0  0  0
 18 33  1  0  0  0  0
 19 21  2  0  0  0  0
 19 38  1  0  0  0  0
 20 22  2  0  0  0  0
 20 39  1  0  0  0  0
 21 49  1  0  0  0  0
 22 40  1  0  0  0  0
 23 24  2  0  0  0  0
 23 41  1  0  0  0  0
 24 69  1  0  0  0  0
 25 84  1  0  0  0  0
 26 85  1  0  0  0  0
 27 29  2  0  0  0  0
 27 84  1  0  0  0  0
 28 86  1  0  0  0  0
 29 87  1  0  0  0  0
 30 66  2  0  0  0  0
 31 67  1  0  0  0  0
 31 72  1  0  0  0  0
 32 68  1  0  0  0  0
 32 74  1  0  0  0  0
 33 73  1  0  0  0  0
 33 79  2  0  0  0  0
 34 50  1  0  0  0  0
 34 75  1  0  0  0  0
 34 80  2  0  0  0  0
 35 63  1  0  0  0  0
 35 70  1  0  0  0  0
 35 81  2  0  0  0  0
 36 64  1  0  0  0  0
 36 76  1  0  0  0  0
 36 82  2  0  0  0  0
 37 71  1  0  0  0  0
 37 74  1  0  0  0  0
 37 83  2  0  0  0  0
 38 42  1  0  0  0  0
 39 50  1  0  0  0  0
 40 70  1  0  0  0  0
 41 77  1  0  0  0  0
 42 44  1  0  0  0  0
 43 45  1  0  0  0  0
 43 46  1  0  0  0  0
 44 49  1  0  0  0  0
 45 51  1  0  0  0  0
 46 71  1  0  0  0  0
 47 51  1  0  0  0  0
 47 71  1  0  0  0  0
 48 52  1  0  0  0  0
 48 69  1  0  0  0  0
 49 75  1  0  0  0  0
 50 70  1  0  0  0  0
 51 67  1  0  0  0  0
 52 59  1  0  0  0  0
 52 77  1  0  0  0  0
 53 59  1  0  0  0  0
 54 64  1  0  0  0  0
 55 65  1  0  0  0  0
 56 65  1  0  0  0  0
 57 65  1  0  0  0  0
 58 78  1  0  0  0  0
 60 61  1  0  0  0  0
 60 62  1  0  0  0  0
 61 77  1  0  0  0  0
 62 85  1  0  0  0  0
 63 65  1  0  0  0  0
 63 76  1  0  0  0  0
 64 78  1  0  0  0  0
 66 67  1  0  0  0  0
M  CHG  3  68   1  77   1  78   1
M  ISO  4  37 100  62 101  74 100  85 101
M  END
> <Batch ID>
0026

> <Smiles>
CCC1CNc2cc([100NH:0][100C:0](=O)N3CCCC(n4nc(-c5ccc(Oc6ccc(F)cc6F)cc5)c(C(N)=O)c4N)C3)ncc2CN1CC[101CH2:1][101O:1]c1ccc2c(c1)CN(C(=O)C(NC(=O)C(C)NC)C(C)(C)C)C(C(=O)NC1CCCc3ccccc31)C2

> <Shape>
0.256

> <Color>
0.071

> <Negative vol penalty>
0.000

$$$$

  -OEChem-04052316273D

 87 95  0     1  0  0  0  0  0999 V2000
  -21.1196  -34.1077   24.2127 C   0  0  0  0  0  0  0  0  0  0  0  0
  -22.3225  -33.4826   23.9004 C   0  0  0  0  0  0  0  0  0  0  0  0
  -27.0768  -12.7751   21.9310 C   0  0  0  0  0  0  0  0  0  0  0  0
  -26.3273  -14.6730   20.6375 C   0  0  0  0  0  0  0  0  0  0  0  0
  -19.9598  -33.3488   24.3645 C   0  0  0  0  0  0  0  0  0  0  0  0
  -22.3666  -32.0980   23.7408 C   0  0  0  0  0  0  0  0  0  0  0  0
  -25.8858  -28.9523   19.8387 C   0  0  0  0  0  0  0  0  0  0  0  0
  -25.7577  -12.3391   22.0557 C   0  0  0  0  0  0  0  0  0  0  0  0
  -25.0082  -14.2371   20.7622 C   0  0  0  0  0  0  0  0  0  0  0  0
  -27.0967  -28.2804   20.0003 C   0  0  0  0  0  0  0  0  0  0  0  0
  -22.6233  -10.5319   22.4084 C   0  0  0  0  0  0  0  0  0  0  0  0
  -22.3659   -9.1766   22.2021 C   0  0  0  0  0  0  0  0  0  0  0  0
  -25.8992  -26.2087   20.3062 C   0  0  0  0  0  0  0  0  0  0  0  0
  -23.2231   -9.3568   19.9504 C   0  0  0  0  0  0  0  0  0  0  0  0
  -27.3616  -13.9421   21.2219 C   0  0  0  0  0  0  0  0  0  0  0  0
  -29.6371  -14.0601   20.0750 C   0  0  0  0  0  0  0  0  0  0  0  0
  -19.9878  -31.9553   24.1971 C   0  0  0  0  0  0  0  0  0  0  0  0
  -24.6701  -28.2582   19.9206 C   0  0  0  0  0  0  0  0  0  0  0  0
  -21.2064  -31.3197   23.8918 C   0  0  0  0  0  0  0  0  0  0  0  0
  -24.6744  -26.8737   20.1427 C   0  0  0  0  0  0  0  0  0  0  0  0
  -24.7234  -13.0701   21.4713 C   0  0  0  0  0  0  0  0  0  0  0  0
  -27.1034  -26.9088   20.2370 C   0  0  0  0  0  0  0  0  0  0  0  0
  -23.1805  -11.2996   21.3858 C   0  0  0  0  0  0  0  0  0  0  0  0
  -22.6659   -8.5890   20.9731 C   0  0  0  0  0  0  0  0  0  0  0  0
  -23.4804  -10.7121   20.1568 C   0  0  0  0  0  0  0  0  0  0  0  0
  -28.7239  -14.3932   21.0933 C   0  0  0  0  0  0  0  0  0  0  0  0
  -30.7838  -14.7398   20.4063 C   0  0  0  0  0  0  0  0  0  0  0  0
  -29.4644  -13.2122   18.9318 C   0  0  0  0  0  0  0  0  0  0  0  0
  -32.0663  -20.1001   22.5053 C   0  0  0  0  0  0  0  0  0  0  0  0
  -22.1320  -28.3970   21.8292 C   0  0  0  0  0  0  0  0  0  0  0  0
  -20.9259  -26.2323   19.7360 C   0  0  0  0  0  0  0  0  0  0  0  0
  -21.5229  -23.8177   17.3993 C   0  0  0  0  0  0  0  0  0  0  0  0
  -18.7180  -31.1721   24.4178 C   0  0  0  0  0  0  0  0  0  0  0  0
  -23.3736  -28.9931   19.7175 C   0  0  0  0  0  0  0  0  0  0  0  0
  -23.3974  -26.0789   20.2193 C   0  0  0  0  0  0  0  0  0  0  0  0
  -18.7747  -29.7510   23.8631 C   0  0  0  0  0  0  0  0  0  0  0  0
  -32.1131  -17.1726   24.6437 C   0  0  0  0  0  0  0  0  0  0  0  0
  -20.0819  -29.0738   24.2625 C   0  0  0  0  0  0  0  0  0  0  0  0
  -31.1427  -16.2869   23.8554 C   0  0  0  0  0  0  0  0  0  0  0  0
  -29.4124  -22.0905   19.6924 C   0  0  0  0  0  0  0  0  0  0  0  0
  -30.5461  -20.0084   20.5776 C   0  0  0  0  0  0  0  0  0  0  0  0
  -32.9012  -18.1495   23.7744 C   0  0  0  0  0  0  0  0  0  0  0  0
  -31.3806  -17.7669   21.8317 C   0  0  0  0  0  0  0  0  0  0  0  0
  -21.2897  -29.8227   23.6862 C   0  0  1  0  0  0  0  0  0  0  0  0
  -22.1766  -28.2742   20.3323 C   0  0  1  0  0  0  0  0  0  0  0  0
  -29.6319  -22.8033   21.0416 C   0  0  1  0  0  0  0  0  0  0  0  0
  -31.4277  -16.3175   22.3469 C   0  0  2  0  0  0  0  0  0  0  0  0
  -29.3292  -20.5789   19.8584 C   0  0  2  0  0  0  0  0  0  0  0  0
  -30.7838  -20.6765   21.9551 C   0  0  2  0  0  0  0  0  0  0  0  0
  -30.8929  -22.2549   21.8155 C   0  0  0  0  0  0  0  0  0  0  0  0
  -29.6745  -20.2294   22.9341 C   0  0  0  0  0  0  0  0  0  0  0  0
  -32.1973  -22.6517   21.0707 C   0  0  0  0  0  0  0  0  0  0  0  0
  -30.9643  -22.9246   23.2120 C   0  0  0  0  0  0  0  0  0  0  0  0
  -20.3374  -22.2005   15.8905 C   0  0  0  0  0  0  0  0  0  0  0  0
  -20.3472  -24.4286   22.1280 C   0  0  0  0  0  0  0  0  0  0  0  0
  -20.0703  -22.5191   20.5326 C   0  0  0  0  0  0  0  0  0  0  0  0
  -18.5388  -24.4838   20.4014 C   0  0  0  0  0  0  0  0  0  0  0  0
  -27.8288  -18.3962   17.2463 C   0  0  0  0  0  0  0  0  0  0  0  0
  -29.7247  -17.5606   18.6833 C   0  0  0  0  0  0  0  0  0  0  0  0
  -27.6677  -18.5462   19.7582 C   0  0  0  0  0  0  0  0  0  0  0  0
  -22.6682  -25.0639   14.9715 C   0  0  0  0  0  0  0  0  0  0  0  0
  -30.5629  -19.9259   17.7964 C   0  0  0  0  0  0  0  0  0  0  0  0
  -29.6299  -24.3207   20.8006 C   0  0  0  0  0  0  0  0  0  0  0  0
  -28.2196  -24.8469   20.6352 C   0  0  0  0  0  0  0  0  0  1  0  0
  -20.9348  -24.7263   19.6316 C   0  0  1  0  0  0  0  0  0  0  0  0
  -20.9427  -23.5900   16.0151 C   0  0  2  0  0  0  0  0  0  0  0  0
  -19.9969  -24.0544   20.6739 C   0  0  0  0  0  0  0  0  0  0  0  0
  -28.6022  -18.5887   18.5499 C   0  0  0  0  0  0  0  0  0  0  0  0
  -29.2455  -15.2201   22.0034 N   0  0  0  0  0  0  0  0  0  0  0  0
  -30.4989  -15.4122   21.5582 N   0  0  0  0  0  0  0  0  0  0  0  0
  -32.0825  -18.7174   22.7057 N   0  0  0  0  0  0  0  0  0  0  0  0
  -22.1552  -26.8437   20.0204 N   0  0  0  0  0  0  0  0  0  0  0  0
  -31.9979  -14.8218   19.8219 N   0  0  0  0  0  0  0  0  0  0  0  0
  -28.2223  -12.5914   18.7420 N   0  0  0  0  0  0  0  0  0  0  0  0
  -21.4538  -29.5125   22.2822 N   0  0  0  0  0  0  0  0  0  0  0  0
  -20.6096  -24.4114   18.2447 N   0  0  0  0  0  0  0  0  0  0  0  0
  -22.0034  -23.7353   14.9785 N   0  3  0  0  0  0  0  0  0  0  0  0
  -29.2355  -19.9553   18.5089 N   0  3  1  0  0  0  0  0  0  0  0  0
  -30.3894  -12.9980   18.1121 O   0  0  0  0  0  0  0  0  0  0  0  0
  -33.0127  -20.8505   22.7535 O   0  0  0  0  0  0  0  0  0  0  0  0
  -22.6717  -27.5422   22.5219 O   0  0  0  0  0  0  0  0  0  0  0  0
  -19.8687  -26.8442   19.5642 O   0  0  0  0  0  0  0  0  0  0  0  0
  -22.6703  -23.4972   17.7016 O   0  0  0  0  0  0  0  0  0  0  0  0
  -23.4361  -12.6449   21.5925 O   0  0  0  0  0  0  0  0  0  0  0  0
  -28.2925  -26.2458   20.3969 O   0  0  0  0  0  0  0  0  0  1  0  0
  -22.4201   -7.2872   20.7755 F   0  0  0  0  0  0  0  0  0  0  0  0
  -24.0170  -11.4442   19.1710 F   0  0  0  0  0  0  0  0  0  0  0  0
  1  2  1  0  0  0  0
  1  5  2  0  0  0  0
  2  6  2  0  0  0  0
  3  8  2  0  0  0  0
  3 15  1  0  0  0  0
  4  9  1  0  0  0  0
  4 15  2  0  0  0  0
  5 17  1  0  0  0  0
  6 19  1  0  0  0  0
  7 10  2  0  0  0  0
  7 18  1  0  0  0  0
  8 21  1  0  0  0  0
  9 21  2  0  0  0  0
 10 22  1  0  0  0  0
 11 12  2  0  0  0  0
 11 23  1  0  0  0  0
 12 24  1  0  0  0  0
 13 20  1  0  0  0  0
 13 22  2  0  0  0  0
 14 24  2  0  0  0  0
 14 25  1  0  0  0  0
 15 26  1  0  0  0  0
 16 26  1  0  0  0  0
 16 27  2  0  0  0  0
 16 28  1  0  0  0  0
 17 19  2  0  0  0  0
 17 33  1  0  0  0  0
 18 20  2  0  0  0  0
 18 34  1  0  0  0  0
 19 44  1  0  0  0  0
 20 35  1  0  0  0  0
 21 84  1  0  0  0  0
 22 85  1  0  0  0  0
 23 25  2  0  0  0  0
 23 84  1  0  0  0  0
 24 86  1  0  0  0  0
 25 87  1  0  0  0  0
 26 69  2  0  0  0  0
 27 70  1  0  0  0  0
 27 73  1  0  0  0  0
 28 74  1  0  0  0  0
 28 79  2  0  0  0  0
 29 49  1  0  0  0  0
 29 71  1  0  0  0  0
 29 80  2  0  0  0  0
 30 45  1  0  0  0  0
 30 75  1  0  0  0  0
 30 81  2  0  0  0  0
 31 65  1  0  0  0  0
 31 72  1  0  0  0  0
 31 82  2  0  0  0  0
 32 66  1  0  0  0  0
 32 76  1  0  0  0  0
 32 83  2  0  0  0  0
 33 36  1  0  0  0  0
 34 45  1  0  0  0  0
 35 72  1  0  0  0  0
 36 38  1  0  0  0  0
 37 39  1  0  0  0  0
 37 42  1  0  0  0  0
 38 44  1  0  0  0  0
 39 47  1  0  0  0  0
 40 46  1  0  0  0  0
 40 48  1  0  0  0  0
 41 48  1  0  0  0  0
 41 49  1  0  0  0  0
 42 71  1  0  0  0  0
 43 47  1  0  0  0  0
 43 71  1  0  0  0  0
 44 75  1  0  0  0  0
 45 72  1  0  0  0  0
 46 50  1  0  0  0  0
 46 63  1  0  0  0  0
 47 70  1  0  0  0  0
 48 78  1  0  0  0  0
 49 50  1  0  0  0  0
 49 51  1  0  0  0  0
 50 52  1  0  0  0  0
 50 53  1  0  0  0  0
 54 66  1  0  0  0  0
 55 67  1  0  0  0  0
 56 67  1  0  0  0  0
 57 67  1  0  0  0  0
 58 68  1  0  0  0  0
 59 68  1  0  0  0  0
 60 68  1  0  0  0  0
 61 77  1  0  0  0  0
 62 78  1  0  0  0  0
 63 64  1  0  0  0  0
 64 85  1  0  0  0  0
 65 67  1  0  0  0  0
 65 76  1  0  0  0  0
 66 77  1  0  0  0  0
 68 78  1  0  0  0  0
 69 70  1  0  0  0  0
M  CHG  2  77   1  78   1
M  ISO  4  29 100  49 100  64 101  85 101
M  END
> <Batch ID>
0026

> <Smiles>
CNC(C)C(=O)NC(C(=O)N1Cc2cc([101O:1][101CH2:1]CC3CC(N(C)C(C)(C)C)C[100C:0](C)([100C:0](=O)N4CCCC(n5nc(-c6ccc(Oc7ccc(F)cc7F)cc6)c(C(N)=O)c5N)C4)C3(C)C)ccc2CC1C(=O)NC1CCCc2ccccc21)C(C)(C)C

> <Shape>
0.269

> <Color>
0.074

> <Negative vol penalty>
0.000

$$$$

  -OEChem-04052316273D

 88 96  0     1  0  0  0  0  0999 V2000
  -31.4089  -29.1425   11.6509 C   0  0  0  0  0  0  0  0  0  0  0  0
  -31.4950  -27.7617   11.7968 C   0  0  0  0  0  0  0  0  0  0  0  0
  -23.0025   -9.8936   19.9798 C   0  0  0  0  0  0  0  0  0  0  0  0
  -23.7333   -9.9406   22.2821 C   0  0  0  0  0  0  0  0  0  0  0  0
  -32.1285  -29.9787   12.5036 C   0  0  0  0  0  0  0  0  0  0  0  0
  -32.3017  -27.2161   12.7948 C   0  0  0  0  0  0  0  0  0  0  0  0
  -30.0137  -23.4602   15.3054 C   0  0  0  0  0  0  0  0  0  0  0  0
  -22.2387   -8.7571   20.2454 C   0  0  0  0  0  0  0  0  0  0  0  0
  -22.9695   -8.8041   22.5477 C   0  0  0  0  0  0  0  0  0  0  0  0
  -29.9596  -22.2159   14.6790 C   0  0  0  0  0  0  0  0  0  0  0  0
  -23.2186   -5.4667   22.0675 C   0  0  0  0  0  0  0  0  0  0  0  0
  -23.8098   -4.4489   22.8158 C   0  0  0  0  0  0  0  0  0  0  0  0
  -31.8281  -21.4711   16.0106 C   0  0  0  0  0  0  0  0  0  0  0  0
  -22.0896   -4.6848   24.4959 C   0  0  0  0  0  0  0  0  0  0  0  0
  -23.7499  -10.4853   20.9981 C   0  0  0  0  0  0  0  0  0  0  0  0
  -24.1303  -13.0020   20.8270 C   0  0  0  0  0  0  0  0  0  0  0  0
  -32.9369  -29.4433   13.5187 C   0  0  0  0  0  0  0  0  0  0  0  0
  -30.9839  -23.7234   16.2831 C   0  0  0  0  0  0  0  0  0  0  0  0
  -33.0339  -28.0459   13.6610 C   0  0  0  0  0  0  0  0  0  0  0  0
  -31.8907  -22.7187   16.6498 C   0  0  0  0  0  0  0  0  0  0  0  0
  -28.5039  -17.8725   17.9117 C   0  0  0  0  0  0  0  0  0  0  0  0
  -22.2221   -8.2124   21.5293 C   0  0  0  0  0  0  0  0  0  0  0  0
  -30.8687  -21.2220   15.0294 C   0  0  0  0  0  0  0  0  0  0  0  0
  -22.0629   -6.0937   22.5334 C   0  0  0  0  0  0  0  0  0  0  0  0
  -23.2453   -4.0579   24.0300 C   0  0  0  0  0  0  0  0  0  0  0  0
  -21.4984   -5.7028   23.7476 C   0  0  0  0  0  0  0  0  0  0  0  0
  -24.5396  -11.6590   20.7242 C   0  0  0  0  0  0  0  0  0  0  0  0
  -29.0561  -16.7622   17.2454 C   0  0  0  0  0  0  0  0  0  0  0  0
  -25.2379  -13.7274   20.4615 C   0  0  0  0  0  0  0  0  0  0  0  0
  -27.1502  -17.6406   17.9018 C   0  0  0  0  0  0  0  0  0  0  0  0
  -22.8623  -13.5452   21.2179 C   0  0  0  0  0  0  0  0  0  0  0  0
  -33.3937  -25.7782   16.5560 C   0  0  0  0  0  0  0  0  0  0  0  0
  -33.5987  -24.5399   19.5471 C   0  0  0  0  0  0  0  0  0  0  0  0
  -32.9701  -21.9268   21.6504 C   0  0  0  0  0  0  0  0  0  0  0  0
  -30.7332  -14.6713   20.6986 C   0  0  0  0  0  0  0  0  0  0  0  0
  -33.7330  -30.3861   14.3858 C   0  0  0  0  0  0  0  0  0  0  0  0
  -31.0119  -25.0620   16.9685 C   0  0  0  0  0  0  0  0  0  0  0  0
  -32.9387  -22.9440   17.7079 C   0  0  0  0  0  0  0  0  0  0  0  0
  -34.2719  -29.7358   15.6575 C   0  0  0  0  0  0  0  0  0  0  0  0
  -29.5910  -12.2510   18.3503 C   0  0  0  0  0  0  0  0  0  0  0  0
  -34.9086  -28.3869   15.3387 C   0  0  0  0  0  0  0  0  0  0  0  0
  -28.1440  -11.9877   18.7709 C   0  0  0  0  0  0  0  0  0  0  0  0
  -30.4960  -12.4852   19.5579 C   0  0  0  0  0  0  0  0  0  0  0  0
  -28.5878  -13.2742   20.9032 C   0  0  0  0  0  0  0  0  0  0  0  0
  -33.8788  -27.4167   14.7474 C   0  0  1  0  0  0  0  0  0  0  0  0
  -32.3688  -25.3899   17.5839 C   0  0  1  0  0  0  0  0  0  0  0  0
  -27.6261  -13.0875   19.7171 C   0  0  2  0  0  0  0  0  0  0  0  0
  -32.8374  -20.6562   23.8103 C   0  0  0  0  0  0  0  0  0  0  0  0
  -32.3356  -16.0008   15.3119 C   0  0  0  0  0  0  0  0  0  0  0  0
  -36.5430  -23.9774   18.9773 C   0  0  0  0  0  0  0  0  0  0  0  0
  -36.5567  -22.4309   20.9462 C   0  0  0  0  0  0  0  0  0  0  0  0
  -36.0738  -24.8566   21.2710 C   0  0  0  0  0  0  0  0  0  0  0  0
  -25.7370  -15.7660   16.9837 C   0  0  0  0  0  0  0  0  0  0  0  0
  -30.2632  -22.9717   22.2329 C   0  0  0  0  0  0  0  0  0  0  0  0
  -29.2168  -19.0252   18.4902 C   0  0  0  0  0  0  0  0  0  0  0  0
  -30.5123  -16.4827   16.9618 C   0  0  0  0  0  0  0  0  0  0  0  0
  -29.8466  -18.0037   22.1144 C   0  0  0  0  0  0  0  0  0  0  0  0
  -30.4966  -17.6454   14.6933 C   0  0  0  0  0  0  0  0  0  0  0  0
  -30.8149  -16.8476   21.8885 C   0  0  0  0  0  0  0  0  0  0  0  0
  -29.0156  -18.3111   20.8752 C   0  0  0  0  0  0  0  0  0  0  0  0
  -31.2484  -18.8792   15.1807 C   0  0  0  0  0  0  0  0  0  1  0  0
  -34.3355  -23.3825   20.1769 C   0  0  1  0  0  0  0  0  0  0  0  0
  -32.3581  -21.8759   23.0386 C   0  0  2  0  0  0  0  0  0  0  0  0
  -30.8512  -16.3548   15.4589 C   0  0  1  0  0  0  0  0  0  0  0  0
  -35.8589  -23.6579   20.3215 C   0  0  0  0  0  0  0  0  0  0  0  0
  -25.8081  -11.5357   20.3246 N   0  0  0  0  0  0  0  0  0  0  0  0
  -28.1289  -15.8896   16.8417 N   0  0  0  0  0  0  0  0  0  0  0  0
  -26.2055  -12.8105   20.1730 N   0  0  0  0  0  0  0  0  0  0  0  0
  -26.9804  -16.4516   17.2557 N   0  0  0  0  0  0  0  0  0  0  0  0
  -32.9296  -24.2714   18.3446 N   0  0  0  0  0  0  0  0  0  0  0  0
  -29.9494  -13.5409   20.4137 N   0  0  0  0  0  0  0  0  0  0  0  0
  -25.4687  -15.0538   20.3619 N   0  0  0  0  0  0  0  0  0  0  0  0
  -21.8330  -12.6585   21.5619 N   0  0  0  0  0  0  0  0  0  0  0  0
  -33.0378  -26.8736   15.7926 N   0  0  0  0  0  0  0  0  0  0  0  0
  -33.6564  -23.1037   21.4376 N   0  0  0  0  0  0  0  0  0  0  0  0
  -30.1371  -15.6271   21.5121 N   0  0  0  0  0  0  0  0  0  0  0  0
  -30.8716  -21.8202   22.9477 N   0  3  0  0  0  0  0  0  0  0  0  0
  -29.9212  -18.7230   19.7751 N   0  3  0  0  0  0  0  0  0  0  0  0
  -22.6435  -14.7801   21.2450 O   0  0  0  0  0  0  0  0  0  0  0  0
  -34.4312  -25.1327   16.4634 O   0  0  0  0  0  0  0  0  0  0  0  0
  -33.6103  -25.6398   20.1054 O   0  0  0  0  0  0  0  0  0  0  0  0
  -32.8544  -21.0123   20.8375 O   0  0  0  0  0  0  0  0  0  0  0  0
  -31.8772  -14.8202   20.2560 O   0  0  0  0  0  0  0  0  0  0  0  0
  -21.4767   -7.1036   21.7890 O   0  0  0  0  0  0  0  0  0  0  0  0
  -30.8186  -20.0068   14.4190 O   0  0  0  0  0  0  0  0  0  1  0  0
  -23.8123   -3.0793   24.7477 F   0  0  0  0  0  0  0  0  0  0  0  0
  -20.3876   -6.3006   24.1997 F   0  0  0  0  0  0  0  0  0  0  0  0
  -25.8294  -18.5156   18.5054 Cl  0  0  0  0  0  0  0  0  0  0  0  0
  1  2  1  0  0  0  0
  1  5  2  0  0  0  0
  2  6  2  0  0  0  0
  3  8  2  0  0  0  0
  3 15  1  0  0  0  0
  4  9  1  0  0  0  0
  4 15  2  0  0  0  0
  5 17  1  0  0  0  0
  6 19  1  0  0  0  0
  7 10  2  0  0  0  0
  7 18  1  0  0  0  0
  8 22  1  0  0  0  0
  9 22  2  0  0  0  0
 10 23  1  0  0  0  0
 11 12  2  0  0  0  0
 11 24  1  0  0  0  0
 12 25  1  0  0  0  0
 13 20  1  0  0  0  0
 13 23  2  0  0  0  0
 14 25  2  0  0  0  0
 14 26  1  0  0  0  0
 15 27  1  0  0  0  0
 16 27  1  0  0  0  0
 16 29  2  0  0  0  0
 16 31  1  0  0  0  0
 17 19  2  0  0  0  0
 17 36  1  0  0  0  0
 18 20  2  0  0  0  0
 18 37  1  0  0  0  0
 19 45  1  0  0  0  0
 20 38  1  0  0  0  0
 21 28  1  0  0  0  0
 21 30  2  0  0  0  0
 21 55  1  0  0  0  0
 22 84  1  0  0  0  0
 23 85  1  0  0  0  0
 24 26  2  0  0  0  0
 24 84  1  0  0  0  0
 25 86  1  0  0  0  0
 26 87  1  0  0  0  0
 27 66  2  0  0  0  0
 28 56  1  0  0  0  0
 28 67  2  0  0  0  0
 29 68  1  0  0  0  0
 29 72  1  0  0  0  0
 30 69  1  0  0  0  0
 30 88  1  0  0  0  0
 31 73  1  0  0  0  0
 31 79  2  0  0  0  0
 32 46  1  0  0  0  0
 32 74  1  0  0  0  0
 32 80  2  0  0  0  0
 33 62  1  0  0  0  0
 33 70  1  0  0  0  0
 33 81  2  0  0  0  0
 34 63  1  0  0  0  0
 34 75  1  0  0  0  0
 34 82  2  0  0  0  0
 35 71  1  0  0  0  0
 35 76  1  0  0  0  0
 35 83  2  0  0  0  0
 36 39  1  0  0  0  0
 37 46  1  0  0  0  0
 38 70  1  0  0  0  0
 39 41  1  0  0  0  0
 40 42  1  0  0  0  0
 40 43  1  0  0  0  0
 41 45  1  0  0  0  0
 42 47  1  0  0  0  0
 43 71  1  0  0  0  0
 44 47  1  0  0  0  0
 44 71  1  0  0  0  0
 45 74  1  0  0  0  0
 46 70  1  0  0  0  0
 47 68  1  0  0  0  0
 48 63  1  0  0  0  0
 49 64  1  0  0  0  0
 50 65  1  0  0  0  0
 51 65  1  0  0  0  0
 52 65  1  0  0  0  0
 53 69  1  0  0  0  0
 54 77  1  0  0  0  0
 55 78  1  0  0  0  0
 56 64  1  0  0  0  0
 57 59  1  0  0  0  0
 57 60  1  0  0  0  0
 58 61  1  0  0  0  0
 58 64  1  0  0  0  0
 59 76  1  0  0  0  0
 60 78  1  0  0  0  0
 61 85  1  0  0  0  0
 62 65  1  0  0  0  0
 62 75  1  0  0  0  0
 63 77  1  0  0  0  0
 66 68  1  0  0  0  0
 67 69  1  0  0  0  0
M  CHG  2  77   1  78   1
M  ISO  4  35 100  61 101  76 100  85 101
M  END
> <Batch ID>
0026

> <Smiles>
CNC(C)C(=O)NC(C(=O)N1Cc2cc([101O:1][101CH2:1]CC(C)Cc3nn(C)c(Cl)c3CNCCC[100NH:0][100C:0](=O)N3CCCC(n4nc(-c5ccc(Oc6ccc(F)cc6F)cc5)c(C(N)=O)c4N)C3)ccc2CC1C(=O)NC1CCCc2ccccc21)C(C)(C)C

> <Shape>
0.208

> <Color>
0.189

> <Negative vol penalty>
0.000

$$$$

  -OEChem-04052316273D

 83 91  0     1  0  0  0  0  0999 V2000
  -37.4126  -28.2944   19.4971 C   0  0  0  0  0  0  0  0  0  0  0  0
  -36.6856  -27.6268   20.4775 C   0  0  0  0  0  0  0  0  0  0  0  0
  -23.3970   -9.8212   21.3992 C   0  0  0  0  0  0  0  0  0  0  0  0
  -24.0382  -10.7481   23.5361 C   0  0  0  0  0  0  0  0  0  0  0  0
  -36.8047  -28.6318   18.2886 C   0  0  0  0  0  0  0  0  0  0  0  0
  -35.3499  -27.2971   20.2504 C   0  0  0  0  0  0  0  0  0  0  0  0
  -34.2483  -22.5633   21.6725 C   0  0  0  0  0  0  0  0  0  0  0  0
  -22.7535   -8.7680   22.0490 C   0  0  0  0  0  0  0  0  0  0  0  0
  -23.3947   -9.6950   24.1860 C   0  0  0  0  0  0  0  0  0  0  0  0
  -34.0655  -22.3342   23.0356 C   0  0  0  0  0  0  0  0  0  0  0  0
  -21.2492   -5.6417   23.1384 C   0  0  0  0  0  0  0  0  0  0  0  0
  -21.4556   -4.3523   22.6484 C   0  0  0  0  0  0  0  0  0  0  0  0
  -31.6749  -22.4016   22.7202 C   0  0  0  0  0  0  0  0  0  0  0  0
  -31.5198  -16.2899   24.9978 C   0  0  0  0  0  0  0  0  0  0  0  0
  -32.3210  -15.7475   22.3812 C   0  0  0  0  0  0  0  0  0  0  0  0
  -23.8256   -4.5747   23.0615 C   0  0  0  0  0  0  0  0  0  0  0  0
  -24.0394  -10.8112   22.1427 C   0  0  0  0  0  0  0  0  0  0  0  0
  -24.1476  -13.1378   21.1021 C   0  0  0  0  0  0  0  0  0  0  0  0
  -35.4636  -28.2975   18.0427 C   0  0  0  0  0  0  0  0  0  0  0  0
  -33.1439  -22.7244   20.8235 C   0  0  0  0  0  0  0  0  0  0  0  0
  -34.7231  -27.6315   19.0380 C   0  0  0  0  0  0  0  0  0  0  0  0
  -31.8463  -22.6301   21.3463 C   0  0  0  0  0  0  0  0  0  0  0  0
  -32.4696  -17.1011   24.3769 C   0  0  0  0  0  0  0  0  0  0  0  0
  -30.9707  -15.2074   24.3105 C   0  0  0  0  0  0  0  0  0  0  0  0
  -32.8701  -16.8299   23.0686 C   0  0  0  0  0  0  0  0  0  0  0  0
  -31.3713  -14.9363   23.0022 C   0  0  0  0  0  0  0  0  0  0  0  0
  -22.7523   -8.7049   23.4425 C   0  0  0  0  0  0  0  0  0  0  0  0
  -32.7787  -22.2562   23.5601 C   0  0  0  0  0  0  0  0  0  0  0  0
  -22.3310   -6.3978   23.5900 C   0  0  0  0  0  0  0  0  0  0  0  0
  -22.7438   -3.8187   22.6099 C   0  0  0  0  0  0  0  0  0  0  0  0
  -23.6192   -5.8642   23.5515 C   0  0  0  0  0  0  0  0  0  0  0  0
  -24.7048  -11.8991   21.4720 C   0  0  0  0  0  0  0  0  0  0  0  0
  -25.1810  -13.8131   20.5000 C   0  0  0  0  0  0  0  0  0  0  0  0
  -22.8150  -13.6337   21.2863 C   0  0  0  0  0  0  0  0  0  0  0  0
  -32.0587  -25.0722   18.9758 C   0  0  0  0  0  0  0  0  0  0  0  0
  -29.9043  -22.8278   18.0572 C   0  0  0  0  0  0  0  0  0  0  0  0
  -28.2316  -19.9453   18.7921 C   0  0  0  0  0  0  0  0  0  0  0  0
  -31.1257  -13.4495   20.9833 C   0  0  0  0  0  0  0  0  0  0  0  0
  -34.8361  -28.7251   16.7396 C   0  0  0  0  0  0  0  0  0  0  0  0
  -33.3577  -22.9444   19.3510 C   0  0  0  0  0  0  0  0  0  0  0  0
  -30.6273  -22.7759   20.4739 C   0  0  0  0  0  0  0  0  0  0  0  0
  -33.5244  -28.0077   16.4310 C   0  0  0  0  0  0  0  0  0  0  0  0
  -29.2028  -13.0572   18.0125 C   0  0  0  0  0  0  0  0  0  0  0  0
  -32.6215  -27.9937   17.6603 C   0  0  0  0  0  0  0  0  0  0  0  0
  -27.7794  -12.8345   18.5287 C   0  0  0  0  0  0  0  0  0  0  0  0
  -30.2431  -12.3945   18.9138 C   0  0  0  0  0  0  0  0  0  0  0  0
  -28.7276  -12.5290   20.8513 C   0  0  0  0  0  0  0  0  0  0  0  0
  -33.2792  -27.2348   18.8192 C   0  0  1  0  0  0  0  0  0  0  0  0
  -32.1656  -23.6058   18.6663 C   0  0  1  0  0  0  0  0  0  0  0  0
  -27.6490  -13.2331   20.0118 C   0  0  2  0  0  0  0  0  0  0  0  0
  -29.9552  -14.3554   25.0002 C   0  0  0  0  0  0  0  0  0  0  0  0
  -33.8856  -17.6844   22.3836 C   0  0  0  0  0  0  0  0  0  0  0  0
  -26.5078  -18.3764   17.8624 C   0  0  0  0  0  0  0  0  0  0  0  0
  -32.8587  -20.7842   26.9229 C   0  0  0  0  0  0  0  0  0  0  0  0
  -27.7094  -24.8282   18.7579 C   0  0  0  0  0  0  0  0  0  0  0  0
  -26.0709  -22.9354   18.7263 C   0  0  0  0  0  0  0  0  0  0  0  0
  -27.3141  -23.5413   16.6502 C   0  0  0  0  0  0  0  0  0  0  0  0
  -30.1333  -17.6776   18.7811 C   0  0  0  0  0  0  0  0  0  0  0  0
  -33.0494  -18.2652   25.1400 C   0  0  0  0  0  0  0  0  0  0  0  0
  -32.4834  -19.6279   24.7147 C   0  0  0  0  0  0  0  0  0  0  0  0
  -28.5412  -22.3937   18.5394 C   0  0  1  0  0  0  0  0  0  0  0  0
  -27.9923  -18.6848   17.9808 C   0  0  2  0  0  0  0  0  0  0  0  0
  -33.1318  -20.8228   25.4247 C   0  0  1  0  0  0  0  0  0  1  0  0
  -27.4317  -23.4238   18.1855 C   0  0  0  0  0  0  0  0  0  0  0  0
  -25.9923  -11.7911   21.1331 N   0  0  0  0  0  0  0  0  0  0  0  0
  -26.2526  -12.9705   20.5439 N   0  0  0  0  0  0  0  0  0  0  0  0
  -30.8883  -22.9959   19.0418 N   0  0  0  0  0  0  0  0  0  0  0  0
  -30.0609  -12.8222   20.3025 N   0  0  0  0  0  0  0  0  0  0  0  0
  -25.2685  -15.0395   19.9426 N   0  0  0  0  0  0  0  0  0  0  0  0
  -21.8776  -12.8097   21.9241 N   0  0  0  0  0  0  0  0  0  0  0  0
  -30.8250  -13.8415   22.2874 N   0  0  0  0  0  0  0  0  0  0  0  0
  -33.1719  -25.8063   18.6135 N   0  0  0  0  0  0  0  0  0  0  0  0
  -28.3181  -21.0618   17.9876 N   0  0  0  0  0  0  0  0  0  0  0  0
  -28.6645  -17.5201   18.6229 N   0  3  0  0  0  0  0  0  0  0  0  0
  -22.4614  -14.7674   20.8822 O   0  0  0  0  0  0  0  0  0  0  0  0
  -31.0410  -25.5058   19.5029 O   0  0  0  0  0  0  0  0  0  0  0  0
  -30.0911  -23.0041   16.8507 O   0  0  0  0  0  0  0  0  0  0  0  0
  -28.3282  -19.9406   20.0173 O   0  0  0  0  0  0  0  0  0  0  0  0
  -32.2148  -13.6504   20.4397 O   0  0  0  0  0  0  0  0  0  0  0  0
  -22.1243   -7.6775   24.0770 O   0  0  0  0  0  0  0  0  0  0  0  0
  -32.5975  -22.0333   24.8903 O   0  0  0  0  0  0  0  0  0  1  0  0
  -22.9417   -2.5798   22.1407 F   0  0  0  0  0  0  0  0  0  0  0  0
  -24.6622   -6.5853   23.9850 F   0  0  0  0  0  0  0  0  0  0  0  0
  1  2  1  0  0  0  0
  1  5  2  0  0  0  0
  2  6  2  0  0  0  0
  3  8  2  0  0  0  0
  3 17  1  0  0  0  0
  4  9  1  0  0  0  0
  4 17  2  0  0  0  0
  5 19  1  0  0  0  0
  6 21  1  0  0  0  0
  7 10  2  0  0  0  0
  7 20  1  0  0  0  0
  8 27  1  0  0  0  0
  9 27  2  0  0  0  0
 10 28  1  0  0  0  0
 11 12  2  0  0  0  0
 11 29  1  0  0  0  0
 12 30  1  0  0  0  0
 13 22  1  0  0  0  0
 13 28  2  0  0  0  0
 14 23  1  0  0  0  0
 14 24  2  0  0  0  0
 15 25  1  0  0  0  0
 15 26  2  0  0  0  0
 16 30  2  0  0  0  0
 16 31  1  0  0  0  0
 17 32  1  0  0  0  0
 18 32  1  0  0  0  0
 18 33  2  0  0  0  0
 18 34  1  0  0  0  0
 19 21  2  0  0  0  0
 19 39  1  0  0  0  0
 20 22  2  0  0  0  0
 20 40  1  0  0  0  0
 21 48  1  0  0  0  0
 22 41  1  0  0  0  0
 23 25  2  0  0  0  0
 23 59  1  0  0  0  0
 24 26  1  0  0  0  0
 24 51  1  0  0  0  0
 25 52  1  0  0  0  0
 26 71  1  0  0  0  0
 27 80  1  0  0  0  0
 28 81  1  0  0  0  0
 29 31  2  0  0  0  0
 29 80  1  0  0  0  0
 30 82  1  0  0  0  0
 31 83  1  0  0  0  0
 32 65  2  0  0  0  0
 33 66  1  0  0  0  0
 33 69  1  0  0  0  0
 34 70  1  0  0  0  0
 34 75  2  0  0  0  0
 35 49  1  0  0  0  0
 35 72  1  0  0  0  0
 35 76  2  0  0  0  0
 36 61  1  0  0  0  0
 36 67  1  0  0  0  0
 36 77  2  0  0  0  0
 37 62  1  0  0  0  0
 37 73  1  0  0  0  0
 37 78  2  0  0  0  0
 38 68  1  0  0  0  0
 38 71  1  0  0  0  0
 38 79  2  0  0  0  0
 39 42  1  0  0  0  0
 40 49  1  0  0  0  0
 41 67  1  0  0  0  0
 42 44  1  0  0  0  0
 43 45  1  0  0  0  0
 43 46  1  0  0  0  0
 44 48  1  0  0  0  0
 45 50  1  0  0  0  0
 46 68  1  0  0  0  0
 47 50  1  0  0  0  0
 47 68  1  0  0  0  0
 48 72  1  0  0  0  0
 49 67  1  0  0  0  0
 50 66  1  0  0  0  0
 53 62  1  0  0  0  0
 54 63  1  0  0  0  0
 55 64  1  0  0  0  0
 56 64  1  0  0  0  0
 57 64  1  0  0  0  0
 58 74  1  0  0  0  0
 59 60  1  0  0  0  0
 60 63  1  0  0  0  0
 61 64  1  0  0  0  0
 61 73  1  0  0  0  0
 62 74  1  0  0  0  0
 63 81  1  0  0  0  0
 65 66  1  0  0  0  0
M  CHG  1  74   1
M  ISO  4  38 100  63 101  71 100  81 101
M  END
> <Batch ID>
0026

> <Smiles>
CNC(C)C(=O)NC(C(=O)N1Cc2cc([101O:1][101CH:1](C)CCc3cc(C)c([100NH:0][100C:0](=O)N4CCCC(n5nc(-c6ccc(Oc7ccc(F)cc7F)cc6)c(C(N)=O)c5N)C4)cc3C)ccc2CC1C(=O)NC1CCCc2ccccc21)C(C)(C)C

> <Shape>
0.212

> <Color>
0.170

> <Negative vol penalty>
0.000

$$$$

  -OEChem-04052316273D

 82 90  0     1  0  0  0  0  0999 V2000
  -29.5236  -23.5715   16.5548 C   0  0  0  0  0  0  0  0  0  0  0  0
  -28.2141  -23.8997   16.8906 C   0  0  0  0  0  0  0  0  0  0  0  0
  -27.6220  -16.0096   22.1804 C   0  0  0  0  0  0  0  0  0  0  0  0
  -25.9642  -16.4092   20.4690 C   0  0  0  0  0  0  0  0  0  0  0  0
  -30.5458  -23.7466   17.4867 C   0  0  0  0  0  0  0  0  0  0  0  0
  -27.9258  -24.4022   18.1590 C   0  0  0  0  0  0  0  0  0  0  0  0
  -24.7938  -28.3788   18.0072 C   0  0  0  0  0  0  0  0  0  0  0  0
  -27.6457  -14.6568   21.8417 C   0  0  0  0  0  0  0  0  0  0  0  0
  -25.9879  -15.0563   20.1302 C   0  0  0  0  0  0  0  0  0  0  0  0
  -23.4389  -28.1150   17.8117 C   0  0  0  0  0  0  0  0  0  0  0  0
  -25.8765  -11.7728   18.5730 C   0  0  0  0  0  0  0  0  0  0  0  0
  -25.9221  -11.4434   17.2184 C   0  0  0  0  0  0  0  0  0  0  0  0
  -23.0535  -28.3710   20.1792 C   0  0  0  0  0  0  0  0  0  0  0  0
  -20.4308  -22.4864   21.2832 C   0  0  0  0  0  0  0  0  0  0  0  0
  -20.5065  -24.0329   23.1379 C   0  0  0  0  0  0  0  0  0  0  0  0
  -28.0111  -12.6372   16.9986 C   0  0  0  0  0  0  0  0  0  0  0  0
  -26.7812  -16.8859   21.4941 C   0  0  0  0  0  0  0  0  0  0  0  0
  -27.5571  -19.3088   21.3070 C   0  0  0  0  0  0  0  0  0  0  0  0
  -30.2713  -24.2606   18.7638 C   0  0  0  0  0  0  0  0  0  0  0  0
  -25.2915  -28.6303   19.2939 C   0  0  0  0  0  0  0  0  0  0  0  0
  -28.9450  -24.5831   19.1093 C   0  0  0  0  0  0  0  0  0  0  0  0
  -24.4147  -28.6402   20.3881 C   0  0  0  0  0  0  0  0  0  0  0  0
  -19.7068  -23.4165   20.5373 C   0  0  0  0  0  0  0  0  0  0  0  0
  -19.3827  -24.6548   21.0916 C   0  0  0  0  0  0  0  0  0  0  0  0
  -20.8306  -22.7946   22.5836 C   0  0  0  0  0  0  0  0  0  0  0  0
  -26.8287  -14.1801   20.8166 C   0  0  0  0  0  0  0  0  0  0  0  0
  -22.5690  -28.1082   18.8981 C   0  0  0  0  0  0  0  0  0  0  0  0
  -26.8981  -12.5345   19.1404 C   0  0  0  0  0  0  0  0  0  0  0  0
  -26.9894  -11.8756   16.4312 C   0  0  0  0  0  0  0  0  0  0  0  0
  -27.9654  -12.9666   18.3532 C   0  0  0  0  0  0  0  0  0  0  0  0
  -19.7826  -24.9630   22.3919 C   0  0  0  0  0  0  0  0  0  0  0  0
  -26.7559  -18.2834   21.8440 C   0  0  0  0  0  0  0  0  0  0  0  0
  -27.1497  -20.4433   21.9653 C   0  0  0  0  0  0  0  0  0  0  0  0
  -28.5783  -19.2418   20.3028 C   0  0  0  0  0  0  0  0  0  0  0  0
  -27.4022  -27.2103   21.1998 C   0  0  0  0  0  0  0  0  0  0  0  0
  -26.8803  -29.8106   23.0675 C   0  0  0  0  0  0  0  0  0  0  0  0
  -24.8016  -32.3652   23.9620 C   0  0  0  0  0  0  0  0  0  0  0  0
  -22.0391  -21.9954   24.6445 C   0  0  0  0  0  0  0  0  0  0  0  0
  -31.4022  -24.3880   19.7536 C   0  0  0  0  0  0  0  0  0  0  0  0
  -26.7511  -28.9395   19.4846 C   0  0  0  0  0  0  0  0  0  0  0  0
  -24.8954  -28.9244   21.7869 C   0  0  0  0  0  0  0  0  0  0  0  0
  -31.0688  -25.2779   20.9482 C   0  0  0  0  0  0  0  0  0  0  0  0
  -25.2739  -21.8876   26.1282 C   0  0  0  0  0  0  0  0  0  0  0  0
  -29.6956  -24.9244   21.5105 C   0  0  0  0  0  0  0  0  0  0  0  0
  -26.0955  -21.0495   25.1460 C   0  0  0  0  0  0  0  0  0  0  0  0
  -23.8379  -21.3794   26.2443 C   0  0  0  0  0  0  0  0  0  0  0  0
  -23.9460  -20.3997   23.9865 C   0  0  0  0  0  0  0  0  0  0  0  0
  -28.5961  -25.1542   20.4666 C   0  0  1  0  0  0  0  0  0  0  0  0
  -27.2373  -28.6747   20.9061 C   0  0  1  0  0  0  0  0  0  0  0  0
  -25.3814  -20.9131   23.7870 C   0  0  2  0  0  0  0  0  0  0  0  0
  -19.2904  -23.0602   19.1476 C   0  0  0  0  0  0  0  0  0  0  0  0
  -24.6328  -34.3054   25.5445 C   0  0  0  0  0  0  0  0  0  0  0  0
  -26.2618  -27.8882   25.3548 C   0  0  0  0  0  0  0  0  0  0  0  0
  -25.2038  -29.7975   26.5809 C   0  0  0  0  0  0  0  0  0  0  0  0
  -27.6298  -29.8780   26.0056 C   0  0  0  0  0  0  0  0  0  0  0  0
  -24.6275  -34.3121   21.7398 C   0  0  0  0  0  0  0  0  0  0  0  0
  -18.5986  -25.6484   20.2722 C   0  0  0  0  0  0  0  0  0  0  0  0
  -19.4320  -26.3601   19.2042 C   0  0  0  0  0  0  0  0  0  0  0  0
  -20.5479  -27.2215   19.7840 C   0  0  0  0  0  0  0  0  0  1  0  0
  -25.9112  -30.1564   24.1722 C   0  0  1  0  0  0  0  0  0  0  0  0
  -25.0553  -33.8492   24.1567 C   0  0  2  0  0  0  0  0  0  0  0  0
  -26.2426  -29.4227   25.5024 C   0  0  0  0  0  0  0  0  0  0  0  0
  -25.9040  -18.7271   22.7721 N   0  0  0  0  0  0  0  0  0  0  0  0
  -26.1677  -20.0439   22.8234 N   0  0  0  0  0  0  0  0  0  0  0  0
  -26.3323  -29.2148   21.9228 N   0  0  0  0  0  0  0  0  0  0  0  0
  -23.2237  -21.2797   24.9186 N   0  0  0  0  0  0  0  0  0  0  0  0
  -27.5392  -21.7335   21.8881 N   0  0  0  0  0  0  0  0  0  0  0  0
  -28.8710  -17.9968   19.7296 N   0  0  0  0  0  0  0  0  0  0  0  0
  -21.5657  -21.8492   23.3410 N   0  0  0  0  0  0  0  0  0  0  0  0
  -28.2881  -26.5642   20.3590 N   0  0  0  0  0  0  0  0  0  0  0  0
  -25.9128  -31.6116   24.2760 N   0  0  0  0  0  0  0  0  0  0  0  0
  -24.2942  -34.6413   23.1496 N   0  3  0  0  0  0  0  0  0  0  0  0
  -29.2237  -20.2532   19.9367 O   0  0  0  0  0  0  0  0  0  0  0  0
  -26.7733  -26.7045   22.1220 O   0  0  0  0  0  0  0  0  0  0  0  0
  -28.0783  -30.0666   23.2120 O   0  0  0  0  0  0  0  0  0  0  0  0
  -23.7242  -31.9189   23.5740 O   0  0  0  0  0  0  0  0  0  0  0  0
  -21.5003  -22.7086   25.4948 O   0  0  0  0  0  0  0  0  0  0  0  0
  -26.8517  -12.8600   20.4856 O   0  0  0  0  0  0  0  0  0  0  0  0
  -21.2461  -27.8504   18.7101 O   0  0  0  0  0  0  0  0  0  1  0  0
  -27.0339  -11.5579   15.1307 F   0  0  0  0  0  0  0  0  0  0  0  0
  -28.9504  -13.6976   18.8929 F   0  0  0  0  0  0  0  0  0  0  0  0
  -19.4036  -26.4852   23.1134 Cl  0  0  0  0  0  0  0  0  0  0  0  0
  1  2  1  0  0  0  0
  1  5  2  0  0  0  0
  2  6  2  0  0  0  0
  3  8  2  0  0  0  0
  3 17  1  0  0  0  0
  4  9  1  0  0  0  0
  4 17  2  0  0  0  0
  5 19  1  0  0  0  0
  6 21  1  0  0  0  0
  7 10  2  0  0  0  0
  7 20  1  0  0  0  0
  8 26  1  0  0  0  0
  9 26  2  0  0  0  0
 10 27  1  0  0  0  0
 11 12  2  0  0  0  0
 11 28  1  0  0  0  0
 12 29  1  0  0  0  0
 13 22  1  0  0  0  0
 13 27  2  0  0  0  0
 14 23  2  0  0  0  0
 14 25  1  0  0  0  0
 15 25  2  0  0  0  0
 15 31  1  0  0  0  0
 16 29  2  0  0  0  0
 16 30  1  0  0  0  0
 17 32  1  0  0  0  0
 18 32  1  0  0  0  0
 18 33  2  0  0  0  0
 18 34  1  0  0  0  0
 19 21  2  0  0  0  0
 19 39  1  0  0  0  0
 20 22  2  0  0  0  0
 20 40  1  0  0  0  0
 21 48  1  0  0  0  0
 22 41  1  0  0  0  0
 23 24  1  0  0  0  0
 23 51  1  0  0  0  0
 24 31  2  0  0  0  0
 24 57  1  0  0  0  0
 25 69  1  0  0  0  0
 26 78  1  0  0  0  0
 27 79  1  0  0  0  0
 28 30  2  0  0  0  0
 28 78  1  0  0  0  0
 29 80  1  0  0  0  0
 30 81  1  0  0  0  0
 31 82  1  0  0  0  0
 32 63  2  0  0  0  0
 33 64  1  0  0  0  0
 33 67  1  0  0  0  0
 34 68  1  0  0  0  0
 34 73  2  0  0  0  0
 35 49  1  0  0  0  0
 35 70  1  0  0  0  0
 35 74  2  0  0  0  0
 36 60  1  0  0  0  0
 36 65  1  0  0  0  0
 36 75  2  0  0  0  0
 37 61  1  0  0  0  0
 37 71  1  0  0  0  0
 37 76  2  0  0  0  0
 38 66  1  0  0  0  0
 38 69  1  0  0  0  0
 38 77  2  0  0  0  0
 39 42  1  0  0  0  0
 40 49  1  0  0  0  0
 41 65  1  0  0  0  0
 42 44  1  0  0  0  0
 43 45  1  0  0  0  0
 43 46  1  0  0  0  0
 44 48  1  0  0  0  0
 45 50  1  0  0  0  0
 46 66  1  0  0  0  0
 47 50  1  0  0  0  0
 47 66  1  0  0  0  0
 48 70  1  0  0  0  0
 49 65  1  0  0  0  0
 50 64  1  0  0  0  0
 52 61  1  0  0  0  0
 53 62  1  0  0  0  0
 54 62  1  0  0  0  0
 55 62  1  0  0  0  0
 56 72  1  0  0  0  0
 57 58  1  0  0  0  0
 58 59  1  0  0  0  0
 59 79  1  0  0  0  0
 60 62  1  0  0  0  0
 60 71  1  0  0  0  0
 61 72  1  0  0  0  0
 63 64  1  0  0  0  0
M  CHG  1  72   1
M  ISO  4  38 100  59 101  69 100  79 101
M  END
> <Batch ID>
0026

> <Smiles>
CNC(C)C(=O)NC(C(=O)N1Cc2cc([101O:1][101CH2:1]CCc3c(C)cc([100NH:0][100C:0](=O)N4CCCC(n5nc(-c6ccc(Oc7ccc(F)cc7F)cc6)c(C(N)=O)c5N)C4)cc3Cl)ccc2CC1C(=O)NC1CCCc2ccccc21)C(C)(C)C

> <Shape>
0.231

> <Color>
0.050

> <Negative vol penalty>
0.000

$$$$

  -OEChem-04052316273D

 91100  0     1  0  0  0  0  0999 V2000
  -20.6734  -26.7711   26.1154 C   0  0  0  0  0  0  0  0  0  0  0  0
  -21.7512  -26.8477   25.2391 C   0  0  0  0  0  0  0  0  0  0  0  0
  -27.7993  -11.8385   18.7484 C   0  0  0  0  0  0  0  0  0  0  0  0
  -28.6899  -12.8755   20.7405 C   0  0  0  0  0  0  0  0  0  0  0  0
  -19.3963  -27.1223   25.6802 C   0  0  0  0  0  0  0  0  0  0  0  0
  -21.5522  -27.2746   23.9266 C   0  0  0  0  0  0  0  0  0  0  0  0
  -25.0552  -30.6044   22.4146 C   0  0  0  0  0  0  0  0  0  0  0  0
  -29.0955  -11.5702   18.3086 C   0  0  0  0  0  0  0  0  0  0  0  0
  -29.9862  -12.6071   20.3008 C   0  0  0  0  0  0  0  0  0  0  0  0
  -26.3022  -30.0966   22.0528 C   0  0  0  0  0  0  0  0  0  0  0  0
  -32.1801  -10.9328   16.4912 C   0  0  0  0  0  0  0  0  0  0  0  0
  -32.4825  -11.2022   15.1565 C   0  0  0  0  0  0  0  0  0  0  0  0
  -25.6834  -30.2515   19.7263 C   0  0  0  0  0  0  0  0  0  0  0  0
  -31.9311  -13.5291   15.5013 C   0  0  0  0  0  0  0  0  0  0  0  0
  -27.5965  -12.4913   19.9644 C   0  0  0  0  0  0  0  0  0  0  0  0
  -25.2378  -11.8351   20.6810 C   0  0  0  0  0  0  0  0  0  0  0  0
  -19.1831  -27.5630   24.3645 C   0  0  0  0  0  0  0  0  0  0  0  0
  -24.1073  -30.9299   21.4338 C   0  0  0  0  0  0  0  0  0  0  0  0
  -20.2708  -27.6308   23.4730 C   0  0  0  0  0  0  0  0  0  0  0  0
  -24.4261  -30.7657   20.0783 C   0  0  0  0  0  0  0  0  0  0  0  0
  -30.5413  -18.8305   19.3629 C   0  0  0  0  0  0  0  0  0  0  0  0
  -29.6831  -21.0138   19.9404 C   0  0  0  0  0  0  0  0  0  0  0  0
  -28.2159  -19.0945   19.9627 C   0  0  0  0  0  0  0  0  0  0  0  0
  -30.1889  -11.9544   19.0848 C   0  0  0  0  0  0  0  0  0  0  0  0
  -26.6154  -29.9174   20.7086 C   0  0  0  0  0  0  0  0  0  0  0  0
  -31.7530  -11.9614   17.3310 C   0  0  0  0  0  0  0  0  0  0  0  0
  -32.3581  -12.5004   14.6615 C   0  0  0  0  0  0  0  0  0  0  0  0
  -31.6286  -13.2596   16.8360 C   0  0  0  0  0  0  0  0  0  0  0  0
  -30.7443  -20.1980   19.5479 C   0  0  0  0  0  0  0  0  0  0  0  0
  -29.2771  -18.2787   19.5703 C   0  0  0  0  0  0  0  0  0  0  0  0
  -28.4188  -20.4621   20.1478 C   0  0  0  0  0  0  0  0  0  0  0  0
  -26.2578  -12.7693   20.4189 C   0  0  0  0  0  0  0  0  0  0  0  0
  -24.1689  -12.5977   21.0839 C   0  0  0  0  0  0  0  0  0  0  0  0
  -25.2551  -10.4057   20.5703 C   0  0  0  0  0  0  0  0  0  0  0  0
  -21.1873  -29.9046   20.7085 C   0  0  0  0  0  0  0  0  0  0  0  0
  -21.2844  -32.3434   18.5718 C   0  0  0  0  0  0  0  0  0  0  0  0
  -23.1737  -34.4595   16.6745 C   0  0  0  0  0  0  0  0  0  0  0  0
  -26.5703  -17.5395   21.0867 C   0  0  0  0  0  0  0  0  0  0  0  0
  -17.7768  -27.8867   23.9263 C   0  0  0  0  0  0  0  0  0  0  0  0
  -22.7766  -31.5018   21.8396 C   0  0  0  0  0  0  0  0  0  0  0  0
  -23.4511  -31.1189   18.9859 C   0  0  0  0  0  0  0  0  0  0  0  0
  -17.7124  -28.6868   22.6278 C   0  0  0  0  0  0  0  0  0  0  0  0
  -22.8383  -17.1550   20.1973 C   0  0  0  0  0  0  0  0  0  0  0  0
  -18.6396  -28.0793   21.5799 C   0  0  0  0  0  0  0  0  0  0  0  0
  -22.9742  -15.6376   20.1877 C   0  0  0  0  0  0  0  0  0  0  0  0
  -29.8689  -24.6640   17.1542 C   0  0  0  0  0  0  0  0  0  0  0  0
  -24.2158  -17.8099   20.1430 C   0  0  0  0  0  0  0  0  0  0  0  0
  -24.6718  -16.2370   22.0272 C   0  0  0  0  0  0  0  0  0  0  0  0
  -30.1961  -23.3280   17.7855 C   0  0  0  0  0  0  0  0  0  0  0  0
  -29.0654  -24.7612   19.4116 C   0  0  0  0  0  0  0  0  0  0  0  0
  -20.0992  -28.1129   22.0488 C   0  0  1  0  0  0  0  0  0  0  0  0
  -21.6976  -31.3162   20.7772 C   0  0  1  0  0  0  0  0  0  0  0  0
  -23.7986  -15.1364   21.3904 C   0  0  2  0  0  0  0  0  0  0  0  0
  -29.7922  -25.5872   18.3586 C   0  0  2  0  0  0  0  0  0  0  0  0
  -31.6818  -17.9533   18.9406 C   0  0  0  0  0  0  0  0  0  0  0  0
  -22.9695  -36.3179   15.0006 C   0  0  0  0  0  0  0  0  0  0  0  0
  -20.5520  -30.3153   16.4130 C   0  0  0  0  0  0  0  0  0  0  0  0
  -21.2860  -31.9826   14.6956 C   0  0  0  0  0  0  0  0  0  0  0  0
  -19.3820  -32.5168   16.2162 C   0  0  0  0  0  0  0  0  0  0  0  0
  -29.8339  -27.5451   17.0090 C   0  0  0  0  0  0  0  0  0  0  0  0
  -24.5886  -36.3642   18.4434 C   0  0  0  0  0  0  0  0  0  0  0  0
  -29.9019  -22.4845   20.1411 C   0  0  0  0  0  0  0  0  0  0  0  0
  -29.0192  -27.6446   19.2671 C   0  0  0  0  0  0  0  0  0  0  0  0
  -27.8956  -28.6626   19.1457 C   0  0  0  0  0  0  0  0  0  1  0  0
  -21.7357  -32.4920   17.1389 C   0  0  1  0  0  0  0  0  0  0  0  0
  -23.1071  -35.9626   16.4729 C   0  0  2  0  0  0  0  0  0  0  0  0
  -20.7568  -31.8181   16.1363 C   0  0  0  0  0  0  0  0  0  0  0  0
  -25.8715  -14.0292   20.6368 N   0  0  0  0  0  0  0  0  0  0  0  0
  -24.5969  -13.8920   21.0400 N   0  0  0  0  0  0  0  0  0  0  0  0
  -22.1608  -31.6687   19.4335 N   0  0  0  0  0  0  0  0  0  0  0  0
  -25.1957  -17.1958   21.0511 N   0  0  0  0  0  0  0  0  0  0  0  0
  -22.9141  -12.2808   21.4678 N   0  0  0  0  0  0  0  0  0  0  0  0
  -25.6422   -9.6536   21.6878 N   0  0  0  0  0  0  0  0  0  0  0  0
  -26.9308  -18.5340   20.1734 N   0  0  0  0  0  0  0  0  0  0  0  0
  -20.6492  -29.4426   21.8944 N   0  0  0  0  0  0  0  0  0  0  0  0
  -21.9277  -33.9211   16.9175 N   0  0  0  0  0  0  0  0  0  0  0  0
  -29.1251  -26.8242   18.0688 N   0  0  2  0  0  0  0  0  0  0  0  0
  -29.3415  -23.3166   19.0331 N   0  3  2  0  0  0  0  0  0  0  0  0
  -24.3414  -36.6110   16.9994 N   0  3  0  0  0  0  0  0  0  0  0  0
  -24.9523   -9.8135   19.5067 O   0  0  0  0  0  0  0  0  0  0  0  0
  -21.2740  -29.2814   19.6570 O   0  0  0  0  0  0  0  0  0  0  0  0
  -20.1977  -32.8150   18.9155 O   0  0  0  0  0  0  0  0  0  0  0  0
  -24.2252  -33.8257   16.6181 O   0  0  0  0  0  0  0  0  0  0  0  0
  -27.3539  -16.9954   21.8674 O   0  0  0  0  0  0  0  0  0  0  0  0
  -31.4539  -11.6925   18.6561 O   0  0  0  0  0  0  0  0  0  0  0  0
  -27.8315  -29.4213   20.3526 O   0  0  0  0  0  0  0  0  0  1  0  0
  -32.6500  -12.7593   13.3802 F   0  0  0  0  0  0  0  0  0  0  0  0
  -31.2200  -14.2522   17.6383 F   0  0  0  0  0  0  0  0  0  0  0  0
  -32.3163  -20.8837   19.2911 Cl  0  0  0  0  0  0  0  0  0  0  0  0
  -29.0299  -16.5758   19.3383 Cl  0  0  0  0  0  0  0  0  0  0  0  0
  -27.1010  -21.4824   20.6345 Cl  0  0  0  0  0  0  0  0  0  0  0  0
  1  2  1  0  0  0  0
  1  5  2  0  0  0  0
  2  6  2  0  0  0  0
  3  8  2  0  0  0  0
  3 15  1  0  0  0  0
  4  9  1  0  0  0  0
  4 15  2  0  0  0  0
  5 17  1  0  0  0  0
  6 19  1  0  0  0  0
  7 10  2  0  0  0  0
  7 18  1  0  0  0  0
  8 24  1  0  0  0  0
  9 24  2  0  0  0  0
 10 25  1  0  0  0  0
 11 12  2  0  0  0  0
 11 26  1  0  0  0  0
 12 27  1  0  0  0  0
 13 20  1  0  0  0  0
 13 25  2  0  0  0  0
 14 27  2  0  0  0  0
 14 28  1  0  0  0  0
 15 32  1  0  0  0  0
 16 32  1  0  0  0  0
 16 33  2  0  0  0  0
 16 34  1  0  0  0  0
 17 19  2  0  0  0  0
 17 39  1  0  0  0  0
 18 20  2  0  0  0  0
 18 40  1  0  0  0  0
 19 51  1  0  0  0  0
 20 41  1  0  0  0  0
 21 29  2  0  0  0  0
 21 30  1  0  0  0  0
 21 55  1  0  0  0  0
 22 29  1  0  0  0  0
 22 31  2  0  0  0  0
 22 62  1  0  0  0  0
 23 30  2  0  0  0  0
 23 31  1  0  0  0  0
 23 74  1  0  0  0  0
 24 85  1  0  0  0  0
 25 86  1  0  0  0  0
 26 28  2  0  0  0  0
 26 85  1  0  0  0  0
 27 87  1  0  0  0  0
 28 88  1  0  0  0  0
 29 89  1  0  0  0  0
 30 90  1  0  0  0  0
 31 91  1  0  0  0  0
 32 68  2  0  0  0  0
 33 69  1  0  0  0  0
 33 72  1  0  0  0  0
 34 73  1  0  0  0  0
 34 80  2  0  0  0  0
 35 52  1  0  0  0  0
 35 75  1  0  0  0  0
 35 81  2  0  0  0  0
 36 65  1  0  0  0  0
 36 70  1  0  0  0  0
 36 82  2  0  0  0  0
 37 66  1  0  0  0  0
 37 76  1  0  0  0  0
 37 83  2  0  0  0  0
 38 71  1  0  0  0  0
 38 74  1  0  0  0  0
 38 84  2  0  0  0  0
 39 42  1  0  0  0  0
 40 52  1  0  0  0  0
 41 70  1  0  0  0  0
 42 44  1  0  0  0  0
 43 45  1  0  0  0  0
 43 47  1  0  0  0  0
 44 51  1  0  0  0  0
 45 53  1  0  0  0  0
 46 49  1  0  0  0  0
 46 54  1  0  0  0  0
 47 71  1  0  0  0  0
 48 53  1  0  0  0  0
 48 71  1  0  0  0  0
 49 78  1  0  0  0  0
 50 54  1  0  0  0  0
 50 78  1  0  0  0  0
 51 75  1  0  0  0  0
 52 70  1  0  0  0  0
 53 69  1  0  0  0  0
 54 77  1  0  0  0  0
 56 66  1  0  0  0  0
 57 67  1  0  0  0  0
 58 67  1  0  0  0  0
 59 67  1  0  0  0  0
 60 77  1  0  0  0  0
 61 79  1  0  0  0  0
 62 78  1  0  0  0  0
 63 64  1  0  0  0  0
 63 77  1  0  0  0  0
 64 86  1  0  0  0  0
 65 67  1  0  0  0  0
 65 76  1  0  0  0  0
 66 79  1  0  0  0  0
 68 69  1  0  0  0  0
M  CHG  2  78   1  79   1
M  ISO  4  38 100  64 101  74 100  86 101
M  END
> <Batch ID>
0026

> <Smiles>
CNC(C)C(=O)NC(C(=O)N1Cc2cc([101O:1][101CH2:1]CN(C)C3CCN(Cc4c(Cl)c(C)c(Cl)c([100NH:0][100C:0](=O)N5CCCC(n6nc(-c7ccc(Oc8ccc(F)cc8F)cc7)c(C(N)=O)c6N)C5)c4Cl)C3)ccc2CC1C(=O)NC1CCCc2ccccc21)C(C)(C)C

> <Shape>
0.281

> <Color>
0.070

> <Negative vol penalty>
0.000

$$$$

  -OEChem-04052316273D

 89 98  0     1  0  0  0  0  0999 V2000
  -21.6798  -12.7228   19.2661 C   0  0  0  0  0  0  0  0  0  0  0  0
  -21.6855  -14.0328   19.7346 C   0  0  0  0  0  0  0  0  0  0  0  0
  -29.4606  -26.9537   21.5368 C   0  0  0  0  0  0  0  0  0  0  0  0
  -27.7630  -25.3447   22.1421 C   0  0  0  0  0  0  0  0  0  0  0  0
  -22.8124  -11.9242   19.4189 C   0  0  0  0  0  0  0  0  0  0  0  0
  -22.8234  -14.5445   20.3572 C   0  0  0  0  0  0  0  0  0  0  0  0
  -23.9891  -19.2029   18.7493 C   0  0  0  0  0  0  0  0  0  0  0  0
  -30.3833  -26.2819   22.3386 C   0  0  0  0  0  0  0  0  0  0  0  0
  -28.6857  -24.6729   22.9440 C   0  0  0  0  0  0  0  0  0  0  0  0
  -23.2405  -20.2602   19.2646 C   0  0  0  0  0  0  0  0  0  0  0  0
  -31.1293  -26.0616   25.6279 C   0  0  0  0  0  0  0  0  0  0  0  0
  -31.9416  -26.8293   26.4624 C   0  0  0  0  0  0  0  0  0  0  0  0
  -25.0178  -20.7527   20.8195 C   0  0  0  0  0  0  0  0  0  0  0  0
  -18.9928  -27.0314   21.8880 C   0  0  0  0  0  0  0  0  0  0  0  0
  -33.9032  -25.9666   25.3465 C   0  0  0  0  0  0  0  0  0  0  0  0
  -28.1504  -26.4852   21.4386 C   0  0  0  0  0  0  0  0  0  0  0  0
  -26.9280  -26.9496   19.2482 C   0  0  0  0  0  0  0  0  0  0  0  0
  -23.9681  -12.4294   20.0351 C   0  0  0  0  0  0  0  0  0  0  0  0
  -25.2552  -18.9052   19.2735 C   0  0  0  0  0  0  0  0  0  0  0  0
  -23.9721  -13.7514   20.5196 C   0  0  0  0  0  0  0  0  0  0  0  0
  -25.7815  -19.6927   20.3074 C   0  0  0  0  0  0  0  0  0  0  0  0
  -19.1590  -24.9204   23.0512 C   0  0  0  0  0  0  0  0  0  0  0  0
  -19.7060  -27.6525   22.9133 C   0  0  0  0  0  0  0  0  0  0  0  0
  -29.9958  -25.1414   23.0422 C   0  0  0  0  0  0  0  0  0  0  0  0
  -23.7536  -21.0335   20.3018 C   0  0  0  0  0  0  0  0  0  0  0  0
  -31.7038  -25.2464   24.6527 C   0  0  0  0  0  0  0  0  0  0  0  0
  -33.3285  -26.7818   26.3217 C   0  0  0  0  0  0  0  0  0  0  0  0
  -33.0908  -25.1989   24.5120 C   0  0  0  0  0  0  0  0  0  0  0  0
  -18.7192  -25.6653   21.9570 C   0  0  0  0  0  0  0  0  0  0  0  0
  -19.8723  -25.5415   24.0765 C   0  0  0  0  0  0  0  0  0  0  0  0
  -20.1458  -26.9075   24.0075 C   0  0  0  0  0  0  0  0  0  0  0  0
  -27.1967  -27.1790   20.6109 C   0  0  0  0  0  0  0  0  0  0  0  0
  -25.9503  -27.8612   18.9328 C   0  0  0  0  0  0  0  0  0  0  0  0
  -27.5101  -25.9974   18.3481 C   0  0  0  0  0  0  0  0  0  0  0  0
  -26.5418  -16.3971   20.7424 C   0  0  0  0  0  0  0  0  0  0  0  0
  -29.2694  -18.1324   20.4762 C   0  0  0  0  0  0  0  0  0  0  0  0
  -30.7318  -21.1967   20.1318 C   0  0  0  0  0  0  0  0  0  0  0  0
  -21.8035  -30.6872   22.1990 C   0  0  0  0  0  0  0  0  0  0  0  0
  -25.1518  -11.5132   20.2200 C   0  0  0  0  0  0  0  0  0  0  0  0
  -26.0613  -17.7781   18.6886 C   0  0  0  0  0  0  0  0  0  0  0  0
  -27.1442  -19.4271   20.8915 C   0  0  0  0  0  0  0  0  0  0  0  0
  -26.4459  -12.2501   20.5555 C   0  0  0  0  0  0  0  0  0  0  0  0
  -24.3207  -32.1847   20.1748 C   0  0  0  0  0  0  0  0  0  0  0  0
  -26.2011  -13.2902   21.6441 C   0  0  0  0  0  0  0  0  0  0  0  0
  -25.3190  -31.0509   19.9340 C   0  0  0  0  0  0  0  0  0  0  0  0
  -17.3325  -23.2045   23.2019 C   0  0  0  0  0  0  0  0  0  0  0  0
  -23.7246  -32.1231   21.5793 C   0  0  0  0  0  0  0  0  0  0  0  0
  -24.1181  -29.6931   21.6984 C   0  0  0  0  0  0  0  0  0  0  0  0
  -16.9840  -21.7270   23.2746 C   0  0  0  0  0  0  0  0  0  0  0  0
  -19.0745  -21.1425   22.0395 C   0  0  0  0  0  0  0  0  0  0  0  0
  -18.8558  -23.4316   23.1168 C   0  0  1  0  0  0  0  0  0  0  0  0
  -25.1958  -14.3503   21.1782 C   0  0  1  0  0  0  0  0  0  0  0  0
  -27.1227  -17.2434   19.6451 C   0  0  1  0  0  0  0  0  0  0  0  0
  -19.4751  -22.6190   21.9465 C   0  0  1  0  0  0  0  0  0  0  0  0
  -24.7042  -29.6805   20.2762 C   0  0  2  0  0  0  0  0  0  0  0  0
  -32.5655  -22.8778   19.8023 C   0  0  0  0  0  0  0  0  0  0  0  0
  -29.6401  -17.7781   23.4840 C   0  0  0  0  0  0  0  0  0  0  0  0
  -31.3112  -19.6416   23.4272 C   0  0  0  0  0  0  0  0  0  0  0  0
  -31.7366  -17.5474   22.1402 C   0  0  0  0  0  0  0  0  0  0  0  0
  -30.5068  -21.0370   17.1852 C   0  0  0  0  0  0  0  0  0  0  0  0
  -19.9740  -29.1188   22.7924 C   0  0  0  0  0  0  0  0  0  0  0  0
  -21.0043  -22.7198   21.9218 C   0  0  0  0  0  0  0  0  0  0  0  0
  -21.6040  -21.9414   20.7608 C   0  0  0  0  0  0  0  0  0  1  0  0
  -29.9686  -19.1628   21.3298 C   0  0  1  0  0  0  0  0  0  0  0  0
  -31.8253  -21.6923   19.2028 C   0  0  2  0  0  0  0  0  0  0  0  0
  -30.6376  -18.5365   22.5858 C   0  0  0  0  0  0  0  0  0  0  0  0
  -26.4501  -28.1597   21.1257 N   0  0  0  0  0  0  0  0  0  0  0  0
  -25.7027  -28.5545   20.0809 N   0  0  0  0  0  0  0  0  0  0  0  0
  -27.8911  -18.3101   20.2900 N   0  0  0  0  0  0  0  0  0  0  0  0
  -23.1569  -30.7981   21.8400 N   0  0  0  0  0  0  0  0  0  0  0  0
  -25.2869  -28.1294   17.7881 N   0  0  0  0  0  0  0  0  0  0  0  0
  -28.5018  -25.1359   18.8365 N   0  0  0  0  0  0  0  0  0  0  0  0
  -25.8356  -15.2983   20.2914 N   0  0  0  0  0  0  0  0  0  0  0  0
  -30.8942  -19.8642   20.4468 N   0  0  0  0  0  0  0  0  0  0  0  0
  -21.3442  -29.3950   22.4221 N   0  0  0  0  0  0  0  0  0  0  0  0
  -17.5888  -21.0280   22.1055 N   0  3  0  0  0  0  0  0  0  0  0  0
  -31.2440  -22.1128   17.8966 N   0  3  0  0  0  0  0  0  0  0  0  0
  -27.1728  -25.9242   17.1421 O   0  0  0  0  0  0  0  0  0  0  0  0
  -26.7222  -16.7165   21.9116 O   0  0  0  0  0  0  0  0  0  0  0  0
  -29.9234  -17.2082   19.9866 O   0  0  0  0  0  0  0  0  0  0  0  0
  -29.8262  -21.9203   20.5404 O   0  0  0  0  0  0  0  0  0  0  0  0
  -21.0582  -31.6669   22.3072 O   0  0  0  0  0  0  0  0  0  0  0  0
  -30.8960  -24.4855   23.8245 O   0  0  0  0  0  0  0  0  0  0  0  0
  -23.0248  -22.0657   20.8071 O   0  0  0  0  0  0  0  0  0  1  0  0
  -34.1085  -27.5202   27.1221 F   0  0  0  0  0  0  0  0  0  0  0  0
  -33.6485  -24.4185   23.5762 F   0  0  0  0  0  0  0  0  0  0  0  0
  -17.8320  -24.9382   20.6660 Cl  0  0  0  0  0  0  0  0  0  0  0  0
  -20.4091  -24.5912   25.4280 Cl  0  0  0  0  0  0  0  0  0  0  0  0
  -21.0320  -27.7117   25.2654 Cl  0  0  0  0  0  0  0  0  0  0  0  0
  1  2  1  0  0  0  0
  1  5  2  0  0  0  0
  2  6  2  0  0  0  0
  3  8  2  0  0  0  0
  3 16  1  0  0  0  0
  4  9  1  0  0  0  0
  4 16  2  0  0  0  0
  5 18  1  0  0  0  0
  6 20  1  0  0  0  0
  7 10  2  0  0  0  0
  7 19  1  0  0  0  0
  8 24  1  0  0  0  0
  9 24  2  0  0  0  0
 10 25  1  0  0  0  0
 11 12  2  0  0  0  0
 11 26  1  0  0  0  0
 12 27  1  0  0  0  0
 13 21  1  0  0  0  0
 13 25  2  0  0  0  0
 14 23  1  0  0  0  0
 14 29  2  0  0  0  0
 15 27  2  0  0  0  0
 15 28  1  0  0  0  0
 16 32  1  0  0  0  0
 17 32  1  0  0  0  0
 17 33  2  0  0  0  0
 17 34  1  0  0  0  0
 18 20  2  0  0  0  0
 18 39  1  0  0  0  0
 19 21  2  0  0  0  0
 19 40  1  0  0  0  0
 20 52  1  0  0  0  0
 21 41  1  0  0  0  0
 22 29  1  0  0  0  0
 22 30  2  0  0  0  0
 22 51  1  0  0  0  0
 23 31  2  0  0  0  0
 23 61  1  0  0  0  0
 24 83  1  0  0  0  0
 25 84  1  0  0  0  0
 26 28  2  0  0  0  0
 26 83  1  0  0  0  0
 27 85  1  0  0  0  0
 28 86  1  0  0  0  0
 29 87  1  0  0  0  0
 30 31  1  0  0  0  0
 30 88  1  0  0  0  0
 31 89  1  0  0  0  0
 32 67  2  0  0  0  0
 33 68  1  0  0  0  0
 33 71  1  0  0  0  0
 34 72  1  0  0  0  0
 34 78  2  0  0  0  0
 35 53  1  0  0  0  0
 35 73  1  0  0  0  0
 35 79  2  0  0  0  0
 36 64  1  0  0  0  0
 36 69  1  0  0  0  0
 36 80  2  0  0  0  0
 37 65  1  0  0  0  0
 37 74  1  0  0  0  0
 37 81  2  0  0  0  0
 38 70  1  0  0  0  0
 38 75  1  0  0  0  0
 38 82  2  0  0  0  0
 39 42  1  0  0  0  0
 40 53  1  0  0  0  0
 41 69  1  0  0  0  0
 42 44  1  0  0  0  0
 43 45  1  0  0  0  0
 43 47  1  0  0  0  0
 44 52  1  0  0  0  0
 45 55  1  0  0  0  0
 46 49  1  0  0  0  0
 46 51  1  0  0  0  0
 47 70  1  0  0  0  0
 48 55  1  0  0  0  0
 48 70  1  0  0  0  0
 49 76  1  0  0  0  0
 50 54  1  0  0  0  0
 50 76  1  0  0  0  0
 51 54  1  0  0  0  0
 52 73  1  0  0  0  0
 53 69  1  0  0  0  0
 54 62  1  0  0  0  0
 55 68  1  0  0  0  0
 56 65  1  0  0  0  0
 57 66  1  0  0  0  0
 58 66  1  0  0  0  0
 59 66  1  0  0  0  0
 60 77  1  0  0  0  0
 61 75  1  0  0  0  0
 62 63  1  0  0  0  0
 63 84  1  0  0  0  0
 64 66  1  0  0  0  0
 64 74  1  0  0  0  0
 65 77  1  0  0  0  0
 67 68  1  0  0  0  0
M  CHG  2  76   1  77   1
M  ISO  4  38 100  63 101  75 100  84 101
M  END
> <Batch ID>
0026

> <Smiles>
CNC(C)C(=O)NC(C(=O)N1Cc2cc([101O:1][101CH2:1]CC3CNCCC3c3c(Cl)cc(C[100NH:0][100C:0](=O)N4CCCC(n5nc(-c6ccc(Oc7ccc(F)cc7F)cc6)c(C(N)=O)c5N)C4)c(Cl)c3Cl)ccc2CC1C(=O)NC1CCCc2ccccc21)C(C)(C)C

> <Shape>
0.209

> <Color>
0.089

> <Negative vol penalty>
0.000

$$$$

  -OEChem-04052316273D

 97108  0     1  0  0  0  0  0999 V2000
  -18.8476  -24.3306   23.7430 C   0  0  0  0  0  0  0  0  0  0  0  0
  -20.2295  -24.3698   23.5881 C   0  0  0  0  0  0  0  0  0  0  0  0
  -26.7047  -14.9664   21.5221 C   0  0  0  0  0  0  0  0  0  0  0  0
  -26.6065  -14.8082   19.1133 C   0  0  0  0  0  0  0  0  0  0  0  0
  -18.0779  -25.4439   23.4084 C   0  0  0  0  0  0  0  0  0  0  0  0
  -20.8426  -25.5221   23.0975 C   0  0  0  0  0  0  0  0  0  0  0  0
  -24.9768  -26.7947   25.7306 C   0  0  0  0  0  0  0  0  0  0  0  0
  -26.4583  -13.5972   21.6221 C   0  0  0  0  0  0  0  0  0  0  0  0
  -26.3601  -13.4389   19.2133 C   0  0  0  0  0  0  0  0  0  0  0  0
  -26.1423  -26.0739   25.4736 C   0  0  0  0  0  0  0  0  0  0  0  0
  -25.4977  -10.2070   22.5210 C   0  0  0  0  0  0  0  0  0  0  0  0
  -24.5609   -9.7822   23.4631 C   0  0  0  0  0  0  0  0  0  0  0  0
  -26.9353  -27.8684   24.0700 C   0  0  0  0  0  0  0  0  0  0  0  0
  -22.8584  -11.0971   22.3632 C   0  0  0  0  0  0  0  0  0  0  0  0
  -26.7787  -15.5720   20.2677 C   0  0  0  0  0  0  0  0  0  0  0  0
  -28.2861  -17.6206   20.0708 C   0  0  0  0  0  0  0  0  0  0  0  0
  -18.6827  -26.6139   22.9225 C   0  0  0  0  0  0  0  0  0  0  0  0
  -24.7767  -28.0551   25.1495 C   0  0  0  0  0  0  0  0  0  0  0  0
  -20.0801  -26.6517   22.7548 C   0  0  0  0  0  0  0  0  0  0  0  0
  -25.7675  -28.6042   24.3232 C   0  0  0  0  0  0  0  0  0  0  0  0
  -26.2860  -12.8334   20.4678 C   0  0  0  0  0  0  0  0  0  0  0  0
  -27.1204  -26.6095   24.6409 C   0  0  0  0  0  0  0  0  0  0  0  0
  -25.1148  -11.0770   21.5000 C   0  0  0  0  0  0  0  0  0  0  0  0
  -23.2413  -10.2272   23.3843 C   0  0  0  0  0  0  0  0  0  0  0  0
  -23.7952  -11.5220   21.4211 C   0  0  0  0  0  0  0  0  0  0  0  0
  -27.0327  -16.9865   20.1638 C   0  0  0  0  0  0  0  0  0  0  0  0
  -28.6254  -25.2067   17.9623 C   0  0  0  0  0  0  0  0  0  0  0  0
  -27.3506  -25.3108   17.4605 C   0  0  0  0  0  0  0  0  0  0  0  0
  -27.9888  -18.9593   19.9941 C   0  0  0  0  0  0  0  0  0  0  0  0
  -27.6325  -27.0694   18.6486 C   0  0  0  0  0  0  0  0  0  0  0  0
  -29.9197  -26.7269   19.4552 C   0  0  0  0  0  0  0  0  0  0  0  0
  -27.5914  -28.2990   19.3739 C   0  0  0  0  0  0  0  0  0  0  0  0
  -29.8952  -27.8847   20.1443 C   0  0  0  0  0  0  0  0  0  0  0  0
  -28.6668  -28.6999   20.0927 C   0  0  0  0  0  0  0  0  0  0  0  0
  -29.6015  -17.0504   20.0551 C   0  0  0  0  0  0  0  0  0  0  0  0
  -22.6425  -29.2858   23.1409 C   0  0  0  0  0  0  0  0  0  0  0  0
  -24.2029  -32.0538   23.7934 C   0  0  0  0  0  0  0  0  0  0  0  0
  -27.0692  -33.5888   24.8299 C   0  0  0  0  0  0  0  0  0  0  0  0
  -24.9475  -23.1588   17.9301 C   0  0  0  0  0  0  0  0  0  0  0  0
  -17.8048  -27.7756   22.5296 C   0  0  0  0  0  0  0  0  0  0  0  0
  -23.5259  -28.8314   25.4581 C   0  0  0  0  0  0  0  0  0  0  0  0
  -25.6100  -29.9621   23.6911 C   0  0  0  0  0  0  0  0  0  0  0  0
  -18.5672  -29.0884   22.3699 C   0  0  0  0  0  0  0  0  0  0  0  0
  -31.2428  -23.1852   16.5429 C   0  0  0  0  0  0  0  0  0  0  0  0
  -23.6271  -21.4109   20.7369 C   0  0  0  0  0  0  0  0  0  0  0  0
  -32.1271  -27.6938   24.6094 C   0  0  0  0  0  0  0  0  0  0  0  0
  -19.8353  -28.8730   21.5500 C   0  0  0  0  0  0  0  0  0  0  0  0
  -29.7380  -23.3938   16.2875 C   0  0  0  0  0  0  0  0  0  0  0  0
  -31.1632  -24.3774   17.5158 C   0  0  0  0  0  0  0  0  0  0  0  0
  -32.1692  -28.2769   23.2003 C   0  0  0  0  0  0  0  0  0  0  0  0
  -24.4944  -20.1540   20.8263 C   0  0  0  0  0  0  0  0  0  0  0  0
  -23.3688  -21.8165   19.2875 C   0  0  0  0  0  0  0  0  0  0  0  0
  -25.4489  -20.7179   18.5525 C   0  0  0  0  0  0  0  0  0  0  0  0
  -32.0393  -26.1754   24.5877 C   0  0  0  0  0  0  0  0  0  0  0  0
  -30.9031  -26.2647   22.3530 C   0  0  0  0  0  0  0  0  0  0  0  0
  -20.7843  -27.8921   22.2490 C   0  0  1  0  0  0  0  0  0  0  0  0
  -29.6557  -24.0309   17.7076 C   0  0  0  0  0  0  0  0  0  0  0  0
  -23.1995  -29.8830   24.4022 C   0  0  1  0  0  0  0  0  0  0  0  0
  -30.9802  -27.7926   22.3623 C   0  0  2  0  0  0  0  0  0  0  0  0
  -25.7832  -20.3019   19.9953 C   0  0  2  0  0  0  0  0  0  0  0  0
  -28.0541  -35.8630   25.2243 C   0  0  0  0  0  0  0  0  0  0  0  0
  -24.5403  -32.4268   20.7839 C   0  0  0  0  0  0  0  0  0  0  0  0
  -26.2993  -34.1425   21.2642 C   0  0  0  0  0  0  0  0  0  0  0  0
  -23.9557  -34.5121   22.0345 C   0  0  0  0  0  0  0  0  0  0  0  0
  -27.4947  -33.0335   27.7056 C   0  0  0  0  0  0  0  0  0  0  0  0
  -26.6332  -24.3777   16.5767 C   0  0  0  0  0  0  0  0  0  0  0  0
  -31.0734  -28.3297   20.9355 C   0  0  0  0  0  0  0  0  0  0  0  0
  -29.2009  -23.9107   23.4515 C   0  0  0  0  0  0  0  0  0  0  0  0
  -30.6336  -24.2653   23.8203 C   0  0  0  0  0  0  0  0  0  0  0  0
  -28.1619  -24.4843   24.4072 C   0  0  0  0  0  0  0  0  0  1  0  0
  -25.3843  -32.7809   23.1981 C   0  0  1  0  0  0  0  0  0  0  0  0
  -27.3111  -34.6907   25.8458 C   0  0  2  0  0  0  0  0  0  0  0  0
  -25.0473  -33.4391   21.8304 C   0  0  0  0  0  0  0  0  0  0  0  0
  -26.0149  -17.8513   20.1480 N   0  0  0  0  0  0  0  0  0  0  0  0
  -26.7423  -26.4624   17.8871 N   0  0  0  0  0  0  0  0  0  0  0  0
  -28.8073  -26.3327   18.7238 N   0  0  0  0  0  0  0  0  0  0  0  0
  -26.6284  -19.0425   20.0443 N   0  0  0  0  0  0  0  0  0  0  0  0
  -24.3667  -30.6796   24.0182 N   0  0  0  0  0  0  0  0  0  0  0  0
  -24.6313  -21.9412   18.5550 N   0  0  0  0  0  0  0  0  0  0  0  0
  -28.7610  -20.0617   19.8895 N   0  0  0  0  0  0  0  0  0  0  0  0
  -29.7270  -15.6572   20.1422 N   0  0  0  0  0  0  0  0  0  0  0  0
  -21.4871  -28.5514   23.3287 N   0  0  0  0  0  0  0  0  0  0  0  0
  -25.8412  -33.7201   24.2168 N   0  0  0  0  0  0  0  0  0  0  0  0
  -26.1657  -23.1938   17.2628 N   0  0  0  0  0  0  0  0  0  0  0  0
  -30.8362  -25.7324   23.7749 N   0  3  1  0  0  0  0  0  0  0  0  0
  -28.1183  -34.1746   26.9873 N   0  3  0  0  0  0  0  0  0  0  0  0
  -30.6357  -17.7566   19.9829 O   0  0  0  0  0  0  0  0  0  0  0  0
  -23.2175  -29.4782   22.0760 O   0  0  0  0  0  0  0  0  0  0  0  0
  -23.1751  -32.6833   24.0561 O   0  0  0  0  0  0  0  0  0  0  0  0
  -27.8894  -32.7027   24.6004 O   0  0  0  0  0  0  0  0  0  0  0  0
  -24.2020  -24.1435   17.9689 O   0  0  0  0  0  0  0  0  0  0  0  0
  -26.0458  -11.4972   20.5650 O   0  0  0  0  0  0  0  0  0  0  0  0
  -28.2586  -25.9079   24.3879 O   0  0  0  0  0  0  0  0  0  1  0  0
  -22.3415   -9.8180   24.2882 F   0  0  0  0  0  0  0  0  0  0  0  0
  -23.4212  -12.3568   20.4418 F   0  0  0  0  0  0  0  0  0  0  0  0
  -26.1183  -29.2020   19.2679 Cl  0  0  0  0  0  0  0  0  0  0  0  0
  -28.6413  -30.1934   20.9857 Cl  0  0  0  0  0  0  0  0  0  0  0  0
  1  2  1  0  0  0  0
  1  5  2  0  0  0  0
  2  6  2  0  0  0  0
  3  8  2  0  0  0  0
  3 15  1  0  0  0  0
  4  9  1  0  0  0  0
  4 15  2  0  0  0  0
  5 17  1  0  0  0  0
  6 19  1  0  0  0  0
  7 10  2  0  0  0  0
  7 18  1  0  0  0  0
  8 21  1  0  0  0  0
  9 21  2  0  0  0  0
 10 22  1  0  0  0  0
 11 12  2  0  0  0  0
 11 23  1  0  0  0  0
 12 24  1  0  0  0  0
 13 20  1  0  0  0  0
 13 22  2  0  0  0  0
 14 24  2  0  0  0  0
 14 25  1  0  0  0  0
 15 26  1  0  0  0  0
 16 26  1  0  0  0  0
 16 29  2  0  0  0  0
 16 35  1  0  0  0  0
 17 19  2  0  0  0  0
 17 40  1  0  0  0  0
 18 20  2  0  0  0  0
 18 41  1  0  0  0  0
 19 56  1  0  0  0  0
 20 42  1  0  0  0  0
 21 92  1  0  0  0  0
 22 93  1  0  0  0  0
 23 25  2  0  0  0  0
 23 92  1  0  0  0  0
 24 94  1  0  0  0  0
 25 95  1  0  0  0  0
 26 74  2  0  0  0  0
 27 28  2  0  0  0  0
 27 57  1  0  0  0  0
 27 76  1  0  0  0  0
 28 66  1  0  0  0  0
 28 75  1  0  0  0  0
 29 77  1  0  0  0  0
 29 80  1  0  0  0  0
 30 32  1  0  0  0  0
 30 75  2  0  0  0  0
 30 76  1  0  0  0  0
 31 33  2  0  0  0  0
 31 76  1  0  0  0  0
 32 34  2  0  0  0  0
 32 96  1  0  0  0  0
 33 34  1  0  0  0  0
 33 67  1  0  0  0  0
 34 97  1  0  0  0  0
 35 81  1  0  0  0  0
 35 87  2  0  0  0  0
 36 58  1  0  0  0  0
 36 82  1  0  0  0  0
 36 88  2  0  0  0  0
 37 71  1  0  0  0  0
 37 78  1  0  0  0  0
 37 89  2  0  0  0  0
 38 72  1  0  0  0  0
 38 83  1  0  0  0  0
 38 90  2  0  0  0  0
 39 79  1  0  0  0  0
 39 84  1  0  0  0  0
 39 91  2  0  0  0  0
 40 43  1  0  0  0  0
 41 58  1  0  0  0  0
 42 78  1  0  0  0  0
 43 47  1  0  0  0  0
 44 48  1  0  0  0  0
 44 49  1  0  0  0  0
 45 51  1  0  0  0  0
 45 52  1  0  0  0  0
 46 50  1  0  0  0  0
 46 54  1  0  0  0  0
 47 56  1  0  0  0  0
 48 57  1  0  0  0  0
 49 57  1  0  0  0  0
 50 59  1  0  0  0  0
 51 60  1  0  0  0  0
 52 79  1  0  0  0  0
 53 60  1  0  0  0  0
 53 79  1  0  0  0  0
 54 85  1  0  0  0  0
 55 59  1  0  0  0  0
 55 85  1  0  0  0  0
 56 82  1  0  0  0  0
 58 78  1  0  0  0  0
 59 67  1  0  0  0  0
 60 77  1  0  0  0  0
 61 72  1  0  0  0  0
 62 73  1  0  0  0  0
 63 73  1  0  0  0  0
 64 73  1  0  0  0  0
 65 86  1  0  0  0  0
 66 84  1  0  0  0  0
 68 69  1  0  0  0  0
 68 70  1  0  0  0  0
 69 85  1  0  0  0  0
 70 93  1  0  0  0  0
 71 73  1  0  0  0  0
 71 83  1  0  0  0  0
 72 86  1  0  0  0  0
 74 77  1  0  0  0  0
M  CHG  2  85   1  86   1
M  ISO  4  39 100  70 101  84 100  93 101
M  END
> <Batch ID>
0026

> <Smiles>
CNC(C)C(=O)NC(C(=O)N1Cc2cc([101O:1][101CH2:1]CCN3CCCC(Cc4cn5c(C6CCC6)c(C[100NH:0][100C:0](=O)N6CCCC(n7nc(-c8ccc(Oc9ccc(F)cc9F)cc8)c(C(N)=O)c7N)C6)nc5c(Cl)c4Cl)C3)ccc2CC1C(=O)NC1CCCc2ccccc21)C(C)(C)C

> <Shape>
0.262

> <Color>
0.095

> <Negative vol penalty>
0.000

$$$$

  -OEChem-04052316273D

 82 90  0     1  0  0  0  0  0999 V2000
  -23.0813  -23.9408   19.3605 C   0  0  0  0  0  0  0  0  0  0  0  0
  -24.2140  -23.2092   19.7027 C   0  0  0  0  0  0  0  0  0  0  0  0
  -22.8592  -27.6137   20.4018 C   0  0  0  0  0  0  0  0  0  0  0  0
  -24.0239  -26.1049   21.8864 C   0  0  0  0  0  0  0  0  0  0  0  0
  -21.8160  -23.4646   19.7013 C   0  0  0  0  0  0  0  0  0  0  0  0
  -24.0821  -22.0014   20.3869 C   0  0  0  0  0  0  0  0  0  0  0  0
  -27.0316  -18.3546   18.4773 C   0  0  0  0  0  0  0  0  0  0  0  0
  -21.6534  -27.3001   21.0290 C   0  0  0  0  0  0  0  0  0  0  0  0
  -22.8181  -25.7914   22.5137 C   0  0  0  0  0  0  0  0  0  0  0  0
  -28.3843  -18.3887   18.8130 C   0  0  0  0  0  0  0  0  0  0  0  0
  -20.0360  -28.1374   23.8778 C   0  0  0  0  0  0  0  0  0  0  0  0
  -19.1802  -29.1905   24.2006 C   0  0  0  0  0  0  0  0  0  0  0  0
  -28.0054  -16.6939   20.4873 C   0  0  0  0  0  0  0  0  0  0  0  0
  -32.1716  -20.5424   21.0115 C   0  0  0  0  0  0  0  0  0  0  0  0
  -17.4641  -28.2250   22.8005 C   0  0  0  0  0  0  0  0  0  0  0  0
  -24.0444  -27.0161   20.8305 C   0  0  0  0  0  0  0  0  0  0  0  0
  -25.8939  -28.6072   20.0851 C   0  0  0  0  0  0  0  0  0  0  0  0
  -21.6680  -22.2456   20.3816 C   0  0  0  0  0  0  0  0  0  0  0  0
  -26.1520  -17.4963   19.1527 C   0  0  0  0  0  0  0  0  0  0  0  0
  -22.8137  -21.5091   20.7383 C   0  0  0  0  0  0  0  0  0  0  0  0
  -26.6424  -16.6489   20.1565 C   0  0  0  0  0  0  0  0  0  0  0  0
  -31.4829  -19.6159   21.8304 C   0  0  0  0  0  0  0  0  0  0  0  0
  -21.6328  -26.3890   22.0849 C   0  0  0  0  0  0  0  0  0  0  0  0
  -28.8709  -17.5604   19.8201 C   0  0  0  0  0  0  0  0  0  0  0  0
  -19.6059  -27.1282   23.0163 C   0  0  0  0  0  0  0  0  0  0  0  0
  -17.8942  -29.2343   23.6620 C   0  0  0  0  0  0  0  0  0  0  0  0
  -18.3200  -27.1720   22.4777 C   0  0  0  0  0  0  0  0  0  0  0  0
  -25.2902  -27.3391   20.1826 C   0  0  0  0  0  0  0  0  0  0  0  0
  -31.5726  -21.7617   21.2271 C   0  0  0  0  0  0  0  0  0  0  0  0
  -30.5124  -20.3352   22.4882 C   0  0  0  0  0  0  0  0  0  0  0  0
  -27.0517  -28.3830   19.3811 C   0  0  0  0  0  0  0  0  0  0  0  0
  -25.4479  -29.8744   20.5862 C   0  0  0  0  0  0  0  0  0  0  0  0
  -23.5775  -17.9015   20.9723 C   0  0  0  0  0  0  0  0  0  0  0  0
  -23.4418  -14.6640   20.8232 C   0  0  0  0  0  0  0  0  0  0  0  0
  -25.0898  -11.7142   20.3440 C   0  0  0  0  0  0  0  0  0  0  0  0
  -30.4960  -23.5429   18.6318 C   0  0  0  0  0  0  0  0  0  0  0  0
  -20.2823  -21.7949   20.7703 C   0  0  0  0  0  0  0  0  0  0  0  0
  -24.7006  -17.4521   18.7604 C   0  0  0  0  0  0  0  0  0  0  0  0
  -25.7434  -15.6948   20.8980 C   0  0  0  0  0  0  0  0  0  0  0  0
  -20.2092  -20.3220   21.1650 C   0  0  0  0  0  0  0  0  0  0  0  0
  -28.9229  -25.4667   16.0820 C   0  0  0  0  0  0  0  0  0  0  0  0
  -21.3439  -19.9687   22.1212 C   0  0  0  0  0  0  0  0  0  0  0  0
  -27.8680  -26.2791   16.8350 C   0  0  0  0  0  0  0  0  0  0  0  0
  -29.0798  -24.0650   16.6675 C   0  0  0  0  0  0  0  0  0  0  0  0
  -28.2911  -24.8383   18.8706 C   0  0  0  0  0  0  0  0  0  0  0  0
  -22.7103  -20.1823   21.4588 C   0  0  1  0  0  0  0  0  0  0  0  0
  -23.7993  -16.9099   19.8654 C   0  0  1  0  0  0  0  0  0  0  0  0
  -28.1370  -26.2783   18.3518 C   0  0  2  0  0  0  0  0  0  0  0  0
  -29.4764  -19.9734   23.4670 C   0  0  0  0  0  0  0  0  0  0  0  0
  -24.7200   -9.2322   20.3212 C   0  0  0  0  0  0  0  0  0  0  0  0
  -32.1401  -17.6623   23.3894 C   0  0  0  0  0  0  0  0  0  0  0  0
  -32.9611  -17.7405   21.0447 C   0  0  0  0  0  0  0  0  0  0  0  0
  -23.3490  -14.6522   23.8729 C   0  0  0  0  0  0  0  0  0  0  0  0
  -23.9356  -12.2190   23.8120 C   0  0  0  0  0  0  0  0  0  0  0  0
  -21.8102  -13.0141   22.7761 C   0  0  0  0  0  0  0  0  0  0  0  0
  -25.9146  -11.5004   17.5098 C   0  0  0  0  0  0  0  0  0  0  0  0
  -31.8120  -23.1086   20.6906 C   0  0  0  0  0  0  0  0  0  0  0  0
  -30.5294  -17.2887   21.5028 C   0  0  0  0  0  0  0  0  0  1  0  0
  -24.0105  -13.5312   21.6432 C   0  0  1  0  0  0  0  0  0  0  0  0
  -24.7610  -10.5040   19.4885 C   0  0  2  0  0  0  0  0  0  0  0  0
  -31.7663  -18.1071   21.9549 C   0  0  0  0  0  0  0  0  0  0  0  0
  -23.2932  -13.3734   23.0136 C   0  0  0  0  0  0  0  0  0  0  0  0
  -26.0054  -26.3805   19.5880 N   0  0  0  0  0  0  0  0  0  0  0  0
  -27.0703  -27.0465   19.1100 N   0  0  0  0  0  0  0  0  0  0  0  0
  -24.3310  -15.6931   20.4824 N   0  0  0  0  0  0  0  0  0  0  0  0
  -29.3345  -24.1346   18.1084 N   0  0  0  0  0  0  0  0  0  0  0  0
  -28.0455  -29.2008   18.9736 N   0  0  0  0  0  0  0  0  0  0  0  0
  -25.8420  -30.2595   21.8748 N   0  0  0  0  0  0  0  0  0  0  0  0
  -23.0108  -19.0913   20.5567 N   0  0  0  0  0  0  0  0  0  0  0  0
  -23.9501  -12.3443   20.7970 N   0  0  0  0  0  0  0  0  0  0  0  0
  -30.6639  -23.6601   20.0061 N   0  0  0  0  0  0  0  0  0  0  0  0
  -25.7843  -10.3326   18.4187 N   0  3  0  0  0  0  0  0  0  0  0  0
  -24.7079  -30.6351   19.9175 O   0  0  0  0  0  0  0  0  0  0  0  0
  -23.8955  -17.6083   22.1189 O   0  0  0  0  0  0  0  0  0  0  0  0
  -22.2543  -14.6332   20.4909 O   0  0  0  0  0  0  0  0  0  0  0  0
  -26.2425  -12.0632   20.5893 O   0  0  0  0  0  0  0  0  0  0  0  0
  -31.3248  -22.9585   17.9258 O   0  0  0  0  0  0  0  0  0  0  0  0
  -30.5604  -21.6440   22.1260 O   0  0  0  0  0  0  0  0  0  0  0  0
  -20.4565  -26.0830   22.6973 O   0  0  0  0  0  0  0  0  0  0  0  0
  -30.1907  -17.5922   20.1502 O   0  0  0  0  0  0  0  0  0  1  0  0
  -17.0720  -30.2448   23.9734 F   0  0  0  0  0  0  0  0  0  0  0  0
  -17.9007  -26.2047   21.6504 F   0  0  0  0  0  0  0  0  0  0  0  0
  1  2  1  0  0  0  0
  1  5  2  0  0  0  0
  2  6  2  0  0  0  0
  3  8  2  0  0  0  0
  3 16  1  0  0  0  0
  4  9  1  0  0  0  0
  4 16  2  0  0  0  0
  5 18  1  0  0  0  0
  6 20  1  0  0  0  0
  7 10  2  0  0  0  0
  7 19  1  0  0  0  0
  8 23  1  0  0  0  0
  9 23  2  0  0  0  0
 10 24  1  0  0  0  0
 11 12  2  0  0  0  0
 11 25  1  0  0  0  0
 12 26  1  0  0  0  0
 13 21  1  0  0  0  0
 13 24  2  0  0  0  0
 14 22  1  0  0  0  0
 14 29  2  0  0  0  0
 15 26  2  0  0  0  0
 15 27  1  0  0  0  0
 16 28  1  0  0  0  0
 17 28  1  0  0  0  0
 17 31  2  0  0  0  0
 17 32  1  0  0  0  0
 18 20  2  0  0  0  0
 18 37  1  0  0  0  0
 19 21  2  0  0  0  0
 19 38  1  0  0  0  0
 20 46  1  0  0  0  0
 21 39  1  0  0  0  0
 22 30  2  0  0  0  0
 22 61  1  0  0  0  0
 23 79  1  0  0  0  0
 24 80  1  0  0  0  0
 25 27  2  0  0  0  0
 25 79  1  0  0  0  0
 26 81  1  0  0  0  0
 27 82  1  0  0  0  0
 28 63  2  0  0  0  0
 29 57  1  0  0  0  0
 29 78  1  0  0  0  0
 30 49  1  0  0  0  0
 30 78  1  0  0  0  0
 31 64  1  0  0  0  0
 31 67  1  0  0  0  0
 32 68  1  0  0  0  0
 32 73  2  0  0  0  0
 33 47  1  0  0  0  0
 33 69  1  0  0  0  0
 33 74  2  0  0  0  0
 34 59  1  0  0  0  0
 34 65  1  0  0  0  0
 34 75  2  0  0  0  0
 35 60  1  0  0  0  0
 35 70  1  0  0  0  0
 35 76  2  0  0  0  0
 36 66  1  0  0  0  0
 36 71  1  0  0  0  0
 36 77  2  0  0  0  0
 37 40  1  0  0  0  0
 38 47  1  0  0  0  0
 39 65  1  0  0  0  0
 40 42  1  0  0  0  0
 41 43  1  0  0  0  0
 41 44  1  0  0  0  0
 42 46  1  0  0  0  0
 43 48  1  0  0  0  0
 44 66  1  0  0  0  0
 45 48  1  0  0  0  0
 45 66  1  0  0  0  0
 46 69  1  0  0  0  0
 47 65  1  0  0  0  0
 48 64  1  0  0  0  0
 50 60  1  0  0  0  0
 51 61  1  0  0  0  0
 52 61  1  0  0  0  0
 53 62  1  0  0  0  0
 54 62  1  0  0  0  0
 55 62  1  0  0  0  0
 56 72  1  0  0  0  0
 57 71  1  0  0  0  0
 58 61  1  0  0  0  0
 58 80  1  0  0  0  0
 59 62  1  0  0  0  0
 59 70  1  0  0  0  0
 60 72  1  0  0  0  0
 63 64  1  0  0  0  0
M  CHG  1  72   1
M  ISO  4  36 100  58 101  71 100  80 101
M  END
> <Batch ID>
0026

> <Smiles>
CNC(C)C(=O)NC(C(=O)N1Cc2cc([101O:1][101CH2:1]C(C)(C)c3cc(C[100NH:0][100C:0](=O)N4CCCC(n5nc(-c6ccc(Oc7ccc(F)cc7F)cc6)c(C(N)=O)c5N)C4)oc3C)ccc2CC1C(=O)NC1CCCc2ccccc21)C(C)(C)C

> <Shape>
0.232

> <Color>
0.067

> <Negative vol penalty>
0.000

$$$$

  -OEChem-04052316273D

 79 87  0     1  0  0  0  0  0999 V2000
  -27.8021  -33.9449   15.3708 C   0  0  0  0  0  0  0  0  0  0  0  0
  -27.9383  -32.6791   15.9316 C   0  0  0  0  0  0  0  0  0  0  0  0
  -27.0351  -13.5875   22.5621 C   0  0  0  0  0  0  0  0  0  0  0  0
  -26.4851  -13.2032   20.2411 C   0  0  0  0  0  0  0  0  0  0  0  0
  -27.5769  -35.0492   16.1917 C   0  0  0  0  0  0  0  0  0  0  0  0
  -27.8506  -32.5169   17.3137 C   0  0  0  0  0  0  0  0  0  0  0  0
  -24.9780  -28.5585   18.6269 C   0  0  0  0  0  0  0  0  0  0  0  0
  -25.8143  -13.0312   22.9436 C   0  0  0  0  0  0  0  0  0  0  0  0
  -25.2642  -12.6468   20.6226 C   0  0  0  0  0  0  0  0  0  0  0  0
  -25.5522  -27.2924   18.5221 C   0  0  0  0  0  0  0  0  0  0  0  0
  -22.1580  -10.7962   21.0026 C   0  0  0  0  0  0  0  0  0  0  0  0
  -21.7629   -9.6107   20.3830 C   0  0  0  0  0  0  0  0  0  0  0  0
  -25.9814  -27.2971   20.8959 C   0  0  0  0  0  0  0  0  0  0  0  0
  -23.7458   -8.5127   21.2194 C   0  0  0  0  0  0  0  0  0  0  0  0
  -27.3706  -13.6736   21.2109 C   0  0  0  0  0  0  0  0  0  0  0  0
  -29.8544  -13.5749   20.6377 C   0  0  0  0  0  0  0  0  0  0  0  0
  -27.4767  -34.8991   17.5838 C   0  0  0  0  0  0  0  0  0  0  0  0
  -24.9109  -29.2092   19.8673 C   0  0  0  0  0  0  0  0  0  0  0  0
  -27.6252  -33.6204   18.1541 C   0  0  0  0  0  0  0  0  0  0  0  0
  -25.4035  -28.5704   21.0142 C   0  0  0  0  0  0  0  0  0  0  0  0
  -24.9288  -12.5608   21.9739 C   0  0  0  0  0  0  0  0  0  0  0  0
  -26.0567  -26.6627   19.6561 C   0  0  0  0  0  0  0  0  0  0  0  0
  -23.3470  -10.8401   21.7305 C   0  0  0  0  0  0  0  0  0  0  0  0
  -22.5567   -8.4689   20.4914 C   0  0  0  0  0  0  0  0  0  0  0  0
  -24.1409   -9.6983   21.8389 C   0  0  0  0  0  0  0  0  0  0  0  0
  -28.6313  -14.2488   20.8161 C   0  0  0  0  0  0  0  0  0  0  0  0
  -30.7372  -14.5587   20.2647 C   0  0  0  0  0  0  0  0  0  0  0  0
  -30.1647  -12.1840   20.7949 C   0  0  0  0  0  0  0  0  0  0  0  0
  -26.1008  -31.9081   21.0519 C   0  0  0  0  0  0  0  0  0  0  0  0
  -24.2662  -31.1356   23.6131 C   0  0  0  0  0  0  0  0  0  0  0  0
  -22.6743  -28.7105   25.4107 C   0  0  0  0  0  0  0  0  0  0  0  0
  -31.0540  -20.2466   21.2458 C   0  0  0  0  0  0  0  0  0  0  0  0
  -27.2798  -36.1290   18.4343 C   0  0  0  0  0  0  0  0  0  0  0  0
  -24.2642  -30.5634   19.9681 C   0  0  0  0  0  0  0  0  0  0  0  0
  -25.3374  -29.2175   22.3726 C   0  0  0  0  0  0  0  0  0  0  0  0
  -26.8263  -35.8185   19.8584 C   0  0  0  0  0  0  0  0  0  0  0  0
  -32.9449  -23.3411   20.4877 C   0  0  0  0  0  0  0  0  0  0  0  0
  -30.9251  -18.7905   18.0529 C   0  0  0  0  0  0  0  0  0  0  0  0
  -27.6687  -34.6949   20.4540 C   0  0  0  0  0  0  0  0  0  0  0  0
  -31.8298  -24.3435   20.2006 C   0  0  0  0  0  0  0  0  0  0  0  0
  -30.4364  -17.3802   18.3817 C   0  0  0  0  0  0  0  0  0  0  0  0
  -32.4872  -22.2452   21.4442 C   0  0  0  0  0  0  0  0  0  0  0  0
  -30.2109  -19.8537   18.8890 C   0  0  0  0  0  0  0  0  0  0  0  0
  -30.1452  -22.5394   20.7038 C   0  0  0  0  0  0  0  0  0  0  0  0
  -29.7802  -18.1995   20.6765 C   0  0  0  0  0  0  0  0  0  0  0  0
  -27.5116  -33.4004   19.6471 C   0  0  1  0  0  0  0  0  0  0  0  0
  -24.7132  -31.3501   21.1957 C   0  0  1  0  0  0  0  0  0  0  0  0
  -30.5599  -23.6331   19.7137 C   0  0  1  0  0  0  0  0  0  0  0  0
  -30.5214  -17.1046   19.8936 C   0  0  1  0  0  0  0  0  0  0  0  0
  -21.2890  -28.3792   27.4768 C   0  0  0  0  0  0  0  0  0  0  0  0
  -26.7696  -31.4194   25.3342 C   0  0  0  0  0  0  0  0  0  0  0  0
  -25.5748  -30.1818   27.1532 C   0  0  0  0  0  0  0  0  0  0  0  0
  -24.6921  -32.3722   26.3495 C   0  0  0  0  0  0  0  0  0  0  0  0
  -20.3828  -27.6766   23.8490 C   0  0  0  0  0  0  0  0  0  0  0  0
  -29.4252  -24.6346   19.5107 C   0  0  0  0  0  0  0  0  0  0  0  0
  -28.3676  -24.0863   18.5611 C   0  0  0  0  0  0  0  0  0  0  0  0
  -27.2555  -25.0995   18.3238 C   0  0  0  0  0  0  0  0  0  1  0  0
  -24.4741  -30.3311   24.8735 C   0  0  1  0  0  0  0  0  0  0  0  0
  -21.2682  -28.6366   25.9781 C   0  0  2  0  0  0  0  0  0  0  0  0
  -25.3808  -31.0645   25.9018 C   0  0  0  0  0  0  0  0  0  0  0  0
  -28.7250  -15.5594   20.5764 N   0  0  0  0  0  0  0  0  0  0  0  0
  -30.0174  -15.7170   20.2436 N   0  0  0  0  0  0  0  0  0  0  0  0
  -24.7015  -30.5446   22.4185 N   0  0  0  0  0  0  0  0  0  0  0  0
  -31.2520  -21.6125   20.9828 N   0  0  0  0  0  0  0  0  0  0  0  0
  -30.2842  -19.5273   20.3194 N   0  0  0  0  0  0  0  0  0  0  0  0
  -32.0513  -14.5374   19.9561 N   0  0  0  0  0  0  0  0  0  0  0  0
  -29.1397  -11.3105   21.1832 N   0  0  0  0  0  0  0  0  0  0  0  0
  -26.2582  -32.7528   19.9697 N   0  0  0  0  0  0  0  0  0  0  0  0
  -23.1430  -30.0067   25.3749 N   0  0  0  0  0  0  0  0  0  0  0  0
  -20.5025  -27.5384   25.3233 N   0  3  0  0  0  0  0  0  0  0  0  0
  -31.3205  -11.7318   20.6129 O   0  0  0  0  0  0  0  0  0  0  0  0
  -26.9644  -31.5967   21.8637 O   0  0  0  0  0  0  0  0  0  0  0  0
  -23.7305  -32.2445   23.6849 O   0  0  0  0  0  0  0  0  0  0  0  0
  -23.2961  -27.7173   25.0401 O   0  0  0  0  0  0  0  0  0  0  0  0
  -31.5389  -19.7034   22.2464 O   0  0  0  0  0  0  0  0  0  0  0  0
  -23.7375  -12.0177   22.3457 O   0  0  0  0  0  0  0  0  0  0  0  0
  -26.6223  -25.4183   19.5557 O   0  0  0  0  0  0  0  0  0  1  0  0
  -22.1764   -7.3301   19.8976 F   0  0  0  0  0  0  0  0  0  0  0  0
  -25.2837   -9.7340   22.5379 F   0  0  0  0  0  0  0  0  0  0  0  0
  1  2  1  0  0  0  0
  1  5  2  0  0  0  0
  2  6  2  0  0  0  0
  3  8  2  0  0  0  0
  3 15  1  0  0  0  0
  4  9  1  0  0  0  0
  4 15  2  0  0  0  0
  5 17  1  0  0  0  0
  6 19  1  0  0  0  0
  7 10  2  0  0  0  0
  7 18  1  0  0  0  0
  8 21  1  0  0  0  0
  9 21  2  0  0  0  0
 10 22  1  0  0  0  0
 11 12  2  0  0  0  0
 11 23  1  0  0  0  0
 12 24  1  0  0  0  0
 13 20  1  0  0  0  0
 13 22  2  0  0  0  0
 14 24  2  0  0  0  0
 14 25  1  0  0  0  0
 15 26  1  0  0  0  0
 16 26  1  0  0  0  0
 16 27  2  0  0  0  0
 16 28  1  0  0  0  0
 17 19  2  0  0  0  0
 17 33  1  0  0  0  0
 18 20  2  0  0  0  0
 18 34  1  0  0  0  0
 19 46  1  0  0  0  0
 20 35  1  0  0  0  0
 21 76  1  0  0  0  0
 22 77  1  0  0  0  0
 23 25  2  0  0  0  0
 23 76  1  0  0  0  0
 24 78  1  0  0  0  0
 25 79  1  0  0  0  0
 26 61  2  0  0  0  0
 27 62  1  0  0  0  0
 27 66  1  0  0  0  0
 28 67  1  0  0  0  0
 28 71  2  0  0  0  0
 29 47  1  0  0  0  0
 29 68  1  0  0  0  0
 29 72  2  0  0  0  0
 30 58  1  0  0  0  0
 30 63  1  0  0  0  0
 30 73  2  0  0  0  0
 31 59  1  0  0  0  0
 31 69  1  0  0  0  0
 31 74  2  0  0  0  0
 32 64  1  0  0  0  0
 32 65  1  0  0  0  0
 32 75  2  0  0  0  0
 33 36  1  0  0  0  0
 34 47  1  0  0  0  0
 35 63  1  0  0  0  0
 36 39  1  0  0  0  0
 37 40  1  0  0  0  0
 37 42  1  0  0  0  0
 38 41  1  0  0  0  0
 38 43  1  0  0  0  0
 39 46  1  0  0  0  0
 40 48  1  0  0  0  0
 41 49  1  0  0  0  0
 42 64  1  0  0  0  0
 43 65  1  0  0  0  0
 44 48  1  0  0  0  0
 44 64  1  0  0  0  0
 45 49  1  0  0  0  0
 45 65  1  0  0  0  0
 46 68  1  0  0  0  0
 47 63  1  0  0  0  0
 48 55  1  0  0  0  0
 49 62  1  0  0  0  0
 50 59  1  0  0  0  0
 51 60  1  0  0  0  0
 52 60  1  0  0  0  0
 53 60  1  0  0  0  0
 54 70  1  0  0  0  0
 55 56  1  0  0  0  0
 56 57  1  0  0  0  0
 57 77  1  0  0  0  0
 58 60  1  0  0  0  0
 58 69  1  0  0  0  0
 59 70  1  0  0  0  0
 61 62  1  0  0  0  0
M  CHG  1  70   1
M  ISO  4  32 100  57 101  64 100  77 101
M  END
> <Batch ID>
0026

> <Smiles>
CNC(C)C(=O)NC(C(=O)N1Cc2cc([101O:1][101CH2:1]CCC3CCC[100N:0]([100C:0](=O)N4CCCC(n5nc(-c6ccc(Oc7ccc(F)cc7F)cc6)c(C(N)=O)c5N)C4)C3)ccc2CC1C(=O)NC1CCCc2ccccc21)C(C)(C)C

> <Shape>
0.263

> <Color>
0.093

> <Negative vol penalty>
0.000

$$$$

  -OEChem-04052316273D

 87 95  0     1  0  0  0  0  0999 V2000
  -25.0570  -19.0014   15.5349 C   0  0  0  0  0  0  0  0  0  0  0  0
  -25.0066  -18.8901   16.9207 C   0  0  0  0  0  0  0  0  0  0  0  0
  -23.0769   -9.8656   19.9437 C   0  0  0  0  0  0  0  0  0  0  0  0
  -23.8367   -9.8790   22.2371 C   0  0  0  0  0  0  0  0  0  0  0  0
  -25.0056  -20.2592   14.9355 C   0  0  0  0  0  0  0  0  0  0  0  0
  -24.9059  -20.0366   17.7080 C   0  0  0  0  0  0  0  0  0  0  0  0
  -21.4835  -19.5571   21.4097 C   0  0  0  0  0  0  0  0  0  0  0  0
  -22.3347   -8.7119   20.1963 C   0  0  0  0  0  0  0  0  0  0  0  0
  -23.0945   -8.7254   22.4897 C   0  0  0  0  0  0  0  0  0  0  0  0
  -21.8612  -18.8262   22.5352 C   0  0  0  0  0  0  0  0  0  0  0  0
  -19.8674   -7.9243   23.0940 C   0  0  0  0  0  0  0  0  0  0  0  0
  -19.1105   -7.8860   24.2650 C   0  0  0  0  0  0  0  0  0  0  0  0
  -22.3039  -20.8832   23.7150 C   0  0  0  0  0  0  0  0  0  0  0  0
  -20.3547   -5.9521   25.0060 C   0  0  0  0  0  0  0  0  0  0  0  0
  -23.8280  -10.4491   20.9640 C   0  0  0  0  0  0  0  0  0  0  0  0
  -24.1662  -12.9745   20.8381 C   0  0  0  0  0  0  0  0  0  0  0  0
  -24.8944  -21.4211   15.7153 C   0  0  0  0  0  0  0  0  0  0  0  0
  -21.5237  -20.9587   21.4248 C   0  0  0  0  0  0  0  0  0  0  0  0
  -24.8543  -21.3112   17.1185 C   0  0  0  0  0  0  0  0  0  0  0  0
  -21.9238  -21.6296   22.5892 C   0  0  0  0  0  0  0  0  0  0  0  0
  -28.0328  -20.1309   22.4649 C   0  0  0  0  0  0  0  0  0  0  0  0
  -28.1384  -19.1219   23.4221 C   0  0  0  0  0  0  0  0  0  0  0  0
  -29.8327  -18.0331   22.0876 C   0  0  0  0  0  0  0  0  0  0  0  0
  -22.3435   -8.1419   21.4693 C   0  0  0  0  0  0  0  0  0  0  0  0
  -22.2743  -19.4891   23.6872 C   0  0  0  0  0  0  0  0  0  0  0  0
  -20.8680   -6.9765   22.8790 C   0  0  0  0  0  0  0  0  0  0  0  0
  -19.3541   -6.9000   25.2210 C   0  0  0  0  0  0  0  0  0  0  0  0
  -21.1116   -5.9904   23.8350 C   0  0  0  0  0  0  0  0  0  0  0  0
  -28.8272  -20.0910   21.3189 C   0  0  0  0  0  0  0  0  0  0  0  0
  -29.0383  -18.0730   23.2335 C   0  0  0  0  0  0  0  0  0  0  0  0
  -29.7271  -19.0421   21.1304 C   0  0  0  0  0  0  0  0  0  0  0  0
  -24.5953  -11.6405   20.7035 C   0  0  0  0  0  0  0  0  0  0  0  0
  -25.2572  -13.7247   20.4731 C   0  0  0  0  0  0  0  0  0  0  0  0
  -22.8949  -13.4894   21.2558 C   0  0  0  0  0  0  0  0  0  0  0  0
  -23.1126  -23.1750   19.7916 C   0  0  0  0  0  0  0  0  0  0  0  0
  -21.2021  -25.2077   21.4470 C   0  0  0  0  0  0  0  0  0  0  0  0
  -19.2789  -25.7745   24.2087 C   0  0  0  0  0  0  0  0  0  0  0  0
  -30.7395  -14.7521   20.6593 C   0  0  0  0  0  0  0  0  0  0  0  0
  -24.8899  -22.7616   15.0242 C   0  0  0  0  0  0  0  0  0  0  0  0
  -21.0876  -21.7331   20.2113 C   0  0  0  0  0  0  0  0  0  0  0  0
  -21.9652  -23.1333   22.6636 C   0  0  0  0  0  0  0  0  0  0  0  0
  -24.4057  -23.9038   15.9136 C   0  0  0  0  0  0  0  0  0  0  0  0
  -29.6054  -12.3604   18.2781 C   0  0  0  0  0  0  0  0  0  0  0  0
  -25.0751  -23.8351   17.2826 C   0  0  0  0  0  0  0  0  0  0  0  0
  -28.1684  -12.0656   18.7116 C   0  0  0  0  0  0  0  0  0  0  0  0
  -30.5222  -12.5853   19.4785 C   0  0  0  0  0  0  0  0  0  0  0  0
  -28.6193  -13.3169   20.8633 C   0  0  0  0  0  0  0  0  0  0  0  0
  -24.7201  -22.5300   18.0053 C   0  0  1  0  0  0  0  0  0  0  0  0
  -21.6582  -23.1472   20.1680 C   0  0  1  0  0  0  0  0  0  0  0  0
  -27.6455  -13.1381   19.6860 C   0  0  2  0  0  0  0  0  0  0  0  0
  -27.0577  -21.2470   22.6863 C   0  0  0  0  0  0  0  0  0  0  0  0
  -17.8751  -27.5439   25.3023 C   0  0  0  0  0  0  0  0  0  0  0  0
  -23.7326  -26.6606   22.3391 C   0  0  0  0  0  0  0  0  0  0  0  0
  -22.3797  -27.7726   24.1283 C   0  0  0  0  0  0  0  0  0  0  0  0
  -21.8285  -28.1620   21.7267 C   0  0  0  0  0  0  0  0  0  0  0  0
  -16.8471  -24.0932   24.0724 C   0  0  0  0  0  0  0  0  0  0  0  0
  -30.8022  -16.9057   21.8911 C   0  0  0  0  0  0  0  0  0  0  0  0
  -27.2745  -19.1790   24.6475 C   0  0  0  0  0  0  0  0  0  0  0  0
  -24.1827  -17.1819   25.7024 C   0  0  0  0  0  0  0  0  0  0  0  0
  -25.3120  -18.1923   25.8364 C   0  0  0  0  0  0  0  0  0  0  0  0
  -23.2162  -17.4897   24.5653 C   0  0  0  0  0  0  0  0  0  1  0  0
  -21.2968  -25.9227   22.7732 C   0  0  1  0  0  0  0  0  0  0  0  0
  -17.8819  -26.3479   24.3629 C   0  0  2  0  0  0  0  0  0  0  0  0
  -22.3106  -27.1011   22.7401 C   0  0  0  0  0  0  0  0  0  0  0  0
  -25.8604  -11.5455   20.2855 N   0  0  0  0  0  0  0  0  0  0  0  0
  -26.2354  -12.8293   20.1542 N   0  0  0  0  0  0  0  0  0  0  0  0
  -21.5353  -23.8458   21.4490 N   0  0  0  0  0  0  0  0  0  0  0  0
  -29.9701  -13.6151   20.3620 N   0  0  0  0  0  0  0  0  0  0  0  0
  -25.4657  -15.0563   20.3970 N   0  0  0  0  0  0  0  0  0  0  0  0
  -21.8843  -12.5796   21.5951 N   0  0  0  0  0  0  0  0  0  0  0  0
  -23.3865  -22.6071   18.5619 N   0  0  0  0  0  0  0  0  0  0  0  0
  -19.9360  -26.3149   23.1236 N   0  0  0  0  0  0  0  0  0  0  0  0
  -30.1389  -15.6821   21.4991 N   0  0  0  0  0  0  0  0  0  0  0  0
  -16.9557  -25.3160   24.9091 N   0  3  0  0  0  0  0  0  0  0  0  0
  -26.1478  -18.2060   24.6130 N   0  3  0  0  0  0  0  0  0  0  0  0
  -22.6569  -14.7198   21.3102 O   0  0  0  0  0  0  0  0  0  0  0  0
  -23.9259  -23.6759   20.5593 O   0  0  0  0  0  0  0  0  0  0  0  0
  -20.8388  -25.8328   20.4475 O   0  0  0  0  0  0  0  0  0  0  0  0
  -19.7425  -24.9341   24.9764 O   0  0  0  0  0  0  0  0  0  0  0  0
  -31.8752  -14.9282   20.2053 O   0  0  0  0  0  0  0  0  0  0  0  0
  -21.6191   -7.0163   21.7163 O   0  0  0  0  0  0  0  0  0  0  0  0
  -22.6441  -18.7781   24.7870 O   0  0  0  0  0  0  0  0  0  1  0  0
  -18.6282   -6.8643   26.3461 F   0  0  0  0  0  0  0  0  0  0  0  0
  -22.0723   -5.0778   23.6346 F   0  0  0  0  0  0  0  0  0  0  0  0
  -28.6739  -21.3617   20.1443 Cl  0  0  0  0  0  0  0  0  0  0  0  0
  -29.1673  -16.8206   24.4256 Cl  0  0  0  0  0  0  0  0  0  0  0  0
  -30.7274  -18.9688   19.7113 Cl  0  0  0  0  0  0  0  0  0  0  0  0
  1  2  1  0  0  0  0
  1  5  2  0  0  0  0
  2  6  2  0  0  0  0
  3  8  2  0  0  0  0
  3 15  1  0  0  0  0
  4  9  1  0  0  0  0
  4 15  2  0  0  0  0
  5 17  1  0  0  0  0
  6 19  1  0  0  0  0
  7 10  2  0  0  0  0
  7 18  1  0  0  0  0
  8 24  1  0  0  0  0
  9 24  2  0  0  0  0
 10 25  1  0  0  0  0
 11 12  2  0  0  0  0
 11 26  1  0  0  0  0
 12 27  1  0  0  0  0
 13 20  1  0  0  0  0
 13 25  2  0  0  0  0
 14 27  2  0  0  0  0
 14 28  1  0  0  0  0
 15 32  1  0  0  0  0
 16 32  1  0  0  0  0
 16 33  2  0  0  0  0
 16 34  1  0  0  0  0
 17 19  2  0  0  0  0
 17 39  1  0  0  0  0
 18 20  2  0  0  0  0
 18 40  1  0  0  0  0
 19 48  1  0  0  0  0
 20 41  1  0  0  0  0
 21 22  1  0  0  0  0
 21 29  2  0  0  0  0
 21 51  1  0  0  0  0
 22 30  2  0  0  0  0
 22 58  1  0  0  0  0
 23 30  1  0  0  0  0
 23 31  2  0  0  0  0
 23 57  1  0  0  0  0
 24 81  1  0  0  0  0
 25 82  1  0  0  0  0
 26 28  2  0  0  0  0
 26 81  1  0  0  0  0
 27 83  1  0  0  0  0
 28 84  1  0  0  0  0
 29 31  1  0  0  0  0
 29 85  1  0  0  0  0
 30 86  1  0  0  0  0
 31 87  1  0  0  0  0
 32 65  2  0  0  0  0
 33 66  1  0  0  0  0
 33 69  1  0  0  0  0
 34 70  1  0  0  0  0
 34 76  2  0  0  0  0
 35 49  1  0  0  0  0
 35 71  1  0  0  0  0
 35 77  2  0  0  0  0
 36 62  1  0  0  0  0
 36 67  1  0  0  0  0
 36 78  2  0  0  0  0
 37 63  1  0  0  0  0
 37 72  1  0  0  0  0
 37 79  2  0  0  0  0
 38 68  1  0  0  0  0
 38 73  1  0  0  0  0
 38 80  2  0  0  0  0
 39 42  1  0  0  0  0
 40 49  1  0  0  0  0
 41 67  1  0  0  0  0
 42 44  1  0  0  0  0
 43 45  1  0  0  0  0
 43 46  1  0  0  0  0
 44 48  1  0  0  0  0
 45 50  1  0  0  0  0
 46 68  1  0  0  0  0
 47 50  1  0  0  0  0
 47 68  1  0  0  0  0
 48 71  1  0  0  0  0
 49 67  1  0  0  0  0
 50 66  1  0  0  0  0
 52 63  1  0  0  0  0
 53 64  1  0  0  0  0
 54 64  1  0  0  0  0
 55 64  1  0  0  0  0
 56 74  1  0  0  0  0
 57 73  1  0  0  0  0
 58 75  1  0  0  0  0
 59 60  1  0  0  0  0
 59 61  1  0  0  0  0
 60 75  1  0  0  0  0
 61 82  1  0  0  0  0
 62 64  1  0  0  0  0
 62 72  1  0  0  0  0
 63 74  1  0  0  0  0
 65 66  1  0  0  0  0
M  CHG  2  74   1  75   1
M  ISO  4  38 100  61 101  73 100  82 101
M  END
> <Batch ID>
0026

> <Smiles>
CNC(C)C(=O)NC(C(=O)N1Cc2cc([101O:1][101CH2:1]CCNCc3c(C)c(Cl)c(Cl)c(C[100NH:0][100C:0](=O)N4CCCC(n5nc(-c6ccc(Oc7ccc(F)cc7F)cc6)c(C(N)=O)c5N)C4)c3Cl)ccc2CC1C(=O)NC1CCCc2ccccc21)C(C)(C)C

> <Shape>
0.223

> <Color>
0.191

> <Negative vol penalty>
0.000

$$$$

  -OEChem-04052316273D

 85 93  0     1  0  0  0  0  0999 V2000
  -32.2925  -21.7358   22.1592 C   0  0  0  0  0  0  0  0  0  0  0  0
  -31.1302  -22.1709   22.7879 C   0  0  0  0  0  0  0  0  0  0  0  0
  -29.8506  -27.7387   20.2352 C   0  0  0  0  0  0  0  0  0  0  0  0
  -28.7799  -26.4489   21.9751 C   0  0  0  0  0  0  0  0  0  0  0  0
  -32.2121  -21.0266   20.9615 C   0  0  0  0  0  0  0  0  0  0  0  0
  -29.8869  -21.8980   22.2186 C   0  0  0  0  0  0  0  0  0  0  0  0
  -23.1020  -20.4915   24.0363 C   0  0  0  0  0  0  0  0  0  0  0  0
  -31.1008  -27.3491   20.7158 C   0  0  0  0  0  0  0  0  0  0  0  0
  -30.0300  -26.0593   22.4556 C   0  0  0  0  0  0  0  0  0  0  0  0
  -21.8041  -20.9278   23.7739 C   0  0  0  0  0  0  0  0  0  0  0  0
  -33.0962  -24.6247   20.5464 C   0  0  0  0  0  0  0  0  0  0  0  0
  -34.0485  -24.2109   19.6150 C   0  0  0  0  0  0  0  0  0  0  0  0
  -21.7836  -19.6260   21.7431 C   0  0  0  0  0  0  0  0  0  0  0  0
  -19.1556  -27.2383   23.5661 C   0  0  0  0  0  0  0  0  0  0  0  0
  -35.5213  -25.9869   20.3318 C   0  0  0  0  0  0  0  0  0  0  0  0
  -28.6901  -27.2886   20.8649 C   0  0  0  0  0  0  0  0  0  0  0  0
  -26.6168  -27.0333   19.4008 C   0  0  0  0  0  0  0  0  0  0  0  0
  -30.9667  -20.7365   20.3822 C   0  0  0  0  0  0  0  0  0  0  0  0
  -23.7556  -19.6264   23.1470 C   0  0  0  0  0  0  0  0  0  0  0  0
  -29.7899  -21.1855   21.0113 C   0  0  0  0  0  0  0  0  0  0  0  0
  -23.0888  -19.1782   21.9978 C   0  0  0  0  0  0  0  0  0  0  0  0
  -19.5689  -28.2311   22.6777 C   0  0  0  0  0  0  0  0  0  0  0  0
  -18.5492  -25.8239   21.7037 C   0  0  0  0  0  0  0  0  0  0  0  0
  -31.1905  -26.5094   21.8260 C   0  0  0  0  0  0  0  0  0  0  0  0
  -21.1458  -20.4974   22.6257 C   0  0  0  0  0  0  0  0  0  0  0  0
  -33.3564  -25.7197   21.3704 C   0  0  0  0  0  0  0  0  0  0  0  0
  -35.2611  -24.8919   19.5078 C   0  0  0  0  0  0  0  0  0  0  0  0
  -34.5689  -26.4008   21.2631 C   0  0  0  0  0  0  0  0  0  0  0  0
  -19.4722  -28.0203   21.3023 C   0  0  0  0  0  0  0  0  0  0  0  0
  -18.6459  -26.0347   23.0791 C   0  0  0  0  0  0  0  0  0  0  0  0
  -18.9624  -26.8167   20.8152 C   0  0  0  0  0  0  0  0  0  0  0  0
  -27.3985  -27.6911   20.3693 C   0  0  0  0  0  0  0  0  0  0  0  0
  -25.4898  -27.8096   19.2839 C   0  0  0  0  0  0  0  0  0  0  0  0
  -26.8853  -25.8281   18.6720 C   0  0  0  0  0  0  0  0  0  0  0  0
  -26.3794  -19.8075   21.3619 C   0  0  0  0  0  0  0  0  0  0  0  0
  -25.7172  -16.6889   20.7635 C   0  0  0  0  0  0  0  0  0  0  0  0
  -23.3908  -14.1958   20.6259 C   0  0  0  0  0  0  0  0  0  0  0  0
  -21.9395  -31.0488   22.5116 C   0  0  0  0  0  0  0  0  0  0  0  0
  -30.9322  -20.0080   19.0621 C   0  0  0  0  0  0  0  0  0  0  0  0
  -25.1458  -19.1438   23.4580 C   0  0  0  0  0  0  0  0  0  0  0  0
  -23.7389  -18.2333   21.0216 C   0  0  0  0  0  0  0  0  0  0  0  0
  -29.5597  -19.4351   18.7183 C   0  0  0  0  0  0  0  0  0  0  0  0
  -24.3670  -32.5045   20.3518 C   0  0  0  0  0  0  0  0  0  0  0  0
  -28.4708  -20.4754   18.9615 C   0  0  0  0  0  0  0  0  0  0  0  0
  -25.3235  -31.3505   20.0461 C   0  0  0  0  0  0  0  0  0  0  0  0
  -23.8531  -32.4459   21.7886 C   0  0  0  0  0  0  0  0  0  0  0  0
  -24.1977  -30.0070   21.8699 C   0  0  0  0  0  0  0  0  0  0  0  0
  -28.4215  -20.8875   20.4377 C   0  0  1  0  0  0  0  0  0  0  0  0
  -25.9046  -18.6707   22.2220 C   0  0  1  0  0  0  0  0  0  0  0  0
  -24.6990  -29.9916   20.4157 C   0  0  2  0  0  0  0  0  0  0  0  0
  -23.1423  -11.7620   20.0670 C   0  0  0  0  0  0  0  0  0  0  0  0
  -25.8523  -17.3605   17.7902 C   0  0  0  0  0  0  0  0  0  0  0  0
  -24.6878  -15.1947   17.3193 C   0  0  0  0  0  0  0  0  0  0  0  0
  -26.9266  -15.1915   18.4197 C   0  0  0  0  0  0  0  0  0  0  0  0
  -22.4943  -13.5382   23.3687 C   0  0  0  0  0  0  0  0  0  0  0  0
  -20.1129  -29.5172   23.2022 C   0  0  0  0  0  0  0  0  0  0  0  0
  -18.0002  -24.5290   21.1815 C   0  0  0  0  0  0  0  0  0  0  0  0
  -18.4228  -22.0896   20.8506 C   0  0  0  0  0  0  0  0  0  0  0  0
  -19.4978  -21.0307   20.9960 C   0  0  0  0  0  0  0  0  0  1  0  0
  -24.9019  -15.9481   19.7313 C   0  0  1  0  0  0  0  0  0  0  0  0
  -23.4003  -12.7781   21.1687 C   0  0  2  0  0  0  0  0  0  0  0  0
  -25.5803  -15.9430   18.3323 C   0  0  0  0  0  0  0  0  0  0  0  0
  -26.8174  -28.8001   20.8345 N   0  0  0  0  0  0  0  0  0  0  0  0
  -25.6586  -28.8452   20.1553 N   0  0  0  0  0  0  0  0  0  0  0  0
  -25.1013  -17.7947   21.3666 N   0  0  0  0  0  0  0  0  0  0  0  0
  -23.2718  -31.1320   22.0743 N   0  0  0  0  0  0  0  0  0  0  0  0
  -24.3809  -27.7008   18.5217 N   0  0  0  0  0  0  0  0  0  0  0  0
  -28.0908  -25.1554   18.9142 N   0  0  0  0  0  0  0  0  0  0  0  0
  -27.7527  -19.8729   21.2237 N   0  0  0  0  0  0  0  0  0  0  0  0
  -24.6570  -14.6193   20.2814 N   0  0  0  0  0  0  0  0  0  0  0  0
  -21.4650  -29.7654   22.7536 N   0  0  0  0  0  0  0  0  0  0  0  0
  -22.3495  -12.6162   22.2129 N   0  3  0  0  0  0  0  0  0  0  0  0
  -18.9589  -23.3977   21.3041 N   0  3  0  0  0  0  0  0  0  0  0  0
  -26.0875  -25.3704   17.8190 O   0  0  0  0  0  0  0  0  0  0  0  0
  -25.5603  -20.5682   20.8597 O   0  0  0  0  0  0  0  0  0  0  0  0
  -26.8559  -16.2965   21.0302 O   0  0  0  0  0  0  0  0  0  0  0  0
  -22.3625  -14.8596   20.5149 O   0  0  0  0  0  0  0  0  0  0  0  0
  -21.2243  -32.0440   22.6692 O   0  0  0  0  0  0  0  0  0  0  0  0
  -32.4102  -26.1289   22.2951 O   0  0  0  0  0  0  0  0  0  0  0  0
  -19.8791  -20.9222   22.3668 O   0  0  0  0  0  0  0  0  0  1  0  0
  -36.1761  -24.4934   18.6144 F   0  0  0  0  0  0  0  0  0  0  0  0
  -34.8251  -27.4527   22.0528 F   0  0  0  0  0  0  0  0  0  0  0  0
  -19.8718  -28.9807   20.4545 F   0  0  0  0  0  0  0  0  0  0  0  0
  -18.1476  -24.8322   24.2142 Cl  0  0  0  0  0  0  0  0  0  0  0  0
  -18.8564  -26.5905   19.1056 Cl  0  0  0  0  0  0  0  0  0  0  0  0
  1  2  1  0  0  0  0
  1  5  2  0  0  0  0
  2  6  2  0  0  0  0
  3  8  2  0  0  0  0
  3 16  1  0  0  0  0
  4  9  1  0  0  0  0
  4 16  2  0  0  0  0
  5 18  1  0  0  0  0
  6 20  1  0  0  0  0
  7 10  2  0  0  0  0
  7 19  1  0  0  0  0
  8 24  1  0  0  0  0
  9 24  2  0  0  0  0
 10 25  1  0  0  0  0
 11 12  2  0  0  0  0
 11 26  1  0  0  0  0
 12 27  1  0  0  0  0
 13 21  1  0  0  0  0
 13 25  2  0  0  0  0
 14 22  1  0  0  0  0
 14 30  2  0  0  0  0
 15 27  2  0  0  0  0
 15 28  1  0  0  0  0
 16 32  1  0  0  0  0
 17 32  1  0  0  0  0
 17 33  2  0  0  0  0
 17 34  1  0  0  0  0
 18 20  2  0  0  0  0
 18 39  1  0  0  0  0
 19 21  2  0  0  0  0
 19 40  1  0  0  0  0
 20 48  1  0  0  0  0
 21 41  1  0  0  0  0
 22 29  2  0  0  0  0
 22 56  1  0  0  0  0
 23 30  1  0  0  0  0
 23 31  2  0  0  0  0
 23 57  1  0  0  0  0
 24 79  1  0  0  0  0
 25 80  1  0  0  0  0
 26 28  2  0  0  0  0
 26 79  1  0  0  0  0
 27 81  1  0  0  0  0
 28 82  1  0  0  0  0
 29 31  1  0  0  0  0
 29 83  1  0  0  0  0
 30 84  1  0  0  0  0
 31 85  1  0  0  0  0
 32 63  2  0  0  0  0
 33 64  1  0  0  0  0
 33 67  1  0  0  0  0
 34 68  1  0  0  0  0
 34 74  2  0  0  0  0
 35 49  1  0  0  0  0
 35 69  1  0  0  0  0
 35 75  2  0  0  0  0
 36 60  1  0  0  0  0
 36 65  1  0  0  0  0
 36 76  2  0  0  0  0
 37 61  1  0  0  0  0
 37 70  1  0  0  0  0
 37 77  2  0  0  0  0
 38 66  1  0  0  0  0
 38 71  1  0  0  0  0
 38 78  2  0  0  0  0
 39 42  1  0  0  0  0
 40 49  1  0  0  0  0
 41 65  1  0  0  0  0
 42 44  1  0  0  0  0
 43 45  1  0  0  0  0
 43 46  1  0  0  0  0
 44 48  1  0  0  0  0
 45 50  1  0  0  0  0
 46 66  1  0  0  0  0
 47 50  1  0  0  0  0
 47 66  1  0  0  0  0
 48 69  1  0  0  0  0
 49 65  1  0  0  0  0
 50 64  1  0  0  0  0
 51 61  1  0  0  0  0
 52 62  1  0  0  0  0
 53 62  1  0  0  0  0
 54 62  1  0  0  0  0
 55 72  1  0  0  0  0
 56 71  1  0  0  0  0
 57 73  1  0  0  0  0
 58 59  1  0  0  0  0
 58 73  1  0  0  0  0
 59 80  1  0  0  0  0
 60 62  1  0  0  0  0
 60 70  1  0  0  0  0
 61 72  1  0  0  0  0
 63 64  1  0  0  0  0
M  CHG  2  72   1  73   1
M  ISO  4  38 100  59 101  71 100  80 101
M  END
> <Batch ID>
0026

> <Smiles>
CNC(C)C(=O)NC(C(=O)N1Cc2cc([101O:1][101CH2:1]CNCc3c(Cl)cc(C[100NH:0][100C:0](=O)N4CCCC(n5nc(-c6ccc(Oc7ccc(F)cc7F)cc6)c(C(N)=O)c5N)C4)c(F)c3Cl)ccc2CC1C(=O)NC1CCCc2ccccc21)C(C)(C)C

> <Shape>
0.209

> <Color>
0.088

> <Negative vol penalty>
0.000

$$$$
