
  -OEChem-04052316303D

 88 96  0     1  0  0  0  0  0999 V2000
  -17.3288  -27.7303   24.3645 C   0  0  0  0  0  0  0  0  0  0  0  0
  -17.4872  -26.8654   23.2864 C   0  0  0  0  0  0  0  0  0  0  0  0
  -23.5864   -9.7148   19.9497 C   0  0  0  0  0  0  0  0  0  0  0  0
  -23.1944  -10.0374   22.3117 C   0  0  0  0  0  0  0  0  0  0  0  0
  -18.1137  -28.8789   24.4565 C   0  0  0  0  0  0  0  0  0  0  0  0
  -18.4301  -27.1493   22.2990 C   0  0  0  0  0  0  0  0  0  0  0  0
  -23.7466  -22.5227   20.8086 C   0  0  0  0  0  0  0  0  0  0  0  0
  -22.8381   -8.5382   19.9862 C   0  0  0  0  0  0  0  0  0  0  0  0
  -22.4460   -8.8609   22.3482 C   0  0  0  0  0  0  0  0  0  0  0  0
  -24.6678  -21.5960   20.3201 C   0  0  0  0  0  0  0  0  0  0  0  0
  -23.0382   -5.5336   22.4437 C   0  0  0  0  0  0  0  0  0  0  0  0
  -23.2732   -4.6484   23.4957 C   0  0  0  0  0  0  0  0  0  0  0  0
  -25.4906  -23.2310   18.7396 C   0  0  0  0  0  0  0  0  0  0  0  0
  -20.9706   -4.8665   24.1938 C   0  0  0  0  0  0  0  0  0  0  0  0
  -23.7646  -10.4644   21.1125 C   0  0  0  0  0  0  0  0  0  0  0  0
  -24.0654  -12.9806   20.8195 C   0  0  0  0  0  0  0  0  0  0  0  0
  -19.0734  -29.1720   23.4748 C   0  0  0  0  0  0  0  0  0  0  0  0
  -23.7042  -23.8135   20.2743 C   0  0  0  0  0  0  0  0  0  0  0  0
  -19.2277  -28.3036   22.3773 C   0  0  0  0  0  0  0  0  0  0  0  0
  -24.5784  -24.1674   19.2334 C   0  0  0  0  0  0  0  0  0  0  0  0
  -31.5901  -17.1001   16.0622 C   0  0  0  0  0  0  0  0  0  0  0  0
  -31.0712  -18.6899   17.8059 C   0  0  0  0  0  0  0  0  0  0  0  0
  -22.2678   -8.1113   21.1854 C   0  0  0  0  0  0  0  0  0  0  0  0
  -25.5375  -21.9492   19.2880 C   0  0  0  0  0  0  0  0  0  0  0  0
  -21.7693   -6.0854   22.2667 C   0  0  0  0  0  0  0  0  0  0  0  0
  -30.3555  -16.3918   18.0143 C   0  0  0  0  0  0  0  0  0  0  0  0
  -22.2394   -4.3148   24.3707 C   0  0  0  0  0  0  0  0  0  0  0  0
  -20.7355   -5.7518   23.1418 C   0  0  0  0  0  0  0  0  0  0  0  0
  -30.9400  -16.0979   16.7824 C   0  0  0  0  0  0  0  0  0  0  0  0
  -31.6557  -18.3961   16.5740 C   0  0  0  0  0  0  0  0  0  0  0  0
  -30.4210  -17.6878   18.5261 C   0  0  0  0  0  0  0  0  0  0  0  0
  -24.5381  -11.6795   21.0755 C   0  0  0  0  0  0  0  0  0  0  0  0
  -25.1839  -13.7738   20.8977 C   0  0  0  0  0  0  0  0  0  0  0  0
  -22.7342  -13.4318   20.5365 C   0  0  0  0  0  0  0  0  0  0  0  0
  -22.1195  -27.2133   20.3521 C   0  0  0  0  0  0  0  0  0  0  0  0
  -25.1315  -27.6428   19.9595 C   0  0  0  0  0  0  0  0  0  0  0  0
  -28.5423  -27.6992   19.9584 C   0  0  0  0  0  0  0  0  0  0  0  0
  -30.5411  -14.6574   19.5849 C   0  0  0  0  0  0  0  0  0  0  0  0
  -19.8656  -30.4499   23.5927 C   0  0  0  0  0  0  0  0  0  0  0  0
  -22.6867  -24.8250   20.7276 C   0  0  0  0  0  0  0  0  0  0  0  0
  -24.4735  -25.5564   18.6656 C   0  0  0  0  0  0  0  0  0  0  0  0
  -21.1027  -30.4843   22.6990 C   0  0  0  0  0  0  0  0  0  0  0  0
  -29.8429  -12.7623   22.5647 C   0  0  0  0  0  0  0  0  0  0  0  0
  -20.7565  -30.0141   21.2898 C   0  0  0  0  0  0  0  0  0  0  0  0
  -28.3702  -12.3873   22.4011 C   0  0  0  0  0  0  0  0  0  0  0  0
  -30.5650  -12.7917   21.2213 C   0  0  0  0  0  0  0  0  0  0  0  0
  -28.4455  -13.3146   20.0437 C   0  0  0  0  0  0  0  0  0  0  0  0
  -20.2571  -28.5643   21.2991 C   0  0  1  0  0  0  0  0  0  0  0  0
  -23.2246  -26.2671   20.7197 C   0  0  1  0  0  0  0  0  0  0  0  0
  -27.6773  -13.3033   21.3764 C   0  0  1  0  0  0  0  0  0  0  0  0
  -32.2030  -16.7416   14.7463 C   0  0  0  0  0  0  0  0  0  0  0  0
  -32.9699  -21.2386   21.4551 C   0  0  0  0  0  0  0  0  0  0  0  0
  -30.4861  -29.2849   19.8899 C   0  0  0  0  0  0  0  0  0  0  0  0
  -24.6577  -28.0891   16.9796 C   0  0  0  0  0  0  0  0  0  0  0  0
  -27.0405  -28.8323   16.7843 C   0  0  0  0  0  0  0  0  0  0  0  0
  -25.4520  -30.1079   18.2238 C   0  0  0  0  0  0  0  0  0  0  0  0
  -29.5407  -26.7719   22.5856 C   0  0  0  0  0  0  0  0  0  0  0  0
  -31.8104  -20.8084   20.5679 C   0  0  0  0  0  0  0  0  0  0  0  0
  -28.7671  -20.5300   18.5532 C   0  0  0  0  0  0  0  0  0  0  0  0
  -32.2604  -20.3844   19.1749 C   0  0  0  0  0  0  0  0  0  0  0  0
  -30.1237  -20.9739   18.0194 C   0  0  0  0  0  0  0  0  0  0  0  0
  -27.6651  -21.5524   18.3014 C   0  0  0  0  0  0  0  0  0  1  0  0
  -26.2649  -27.8380   18.9845 C   0  0  1  0  0  0  0  0  0  0  0  0
  -29.5371  -28.4985   20.7807 C   0  0  2  0  0  0  0  0  0  0  0  0
  -25.8474  -28.6912   17.7536 C   0  0  0  0  0  0  0  0  0  0  0  0
  -25.8544  -11.6438   21.2994 N   0  0  0  0  0  0  0  0  0  0  0  0
  -26.2184  -12.9324   21.1842 N   0  0  0  0  0  0  0  0  0  0  0  0
  -24.3039  -26.5324   19.7534 N   0  0  0  0  0  0  0  0  0  0  0  0
  -29.8598  -13.6410   20.2623 N   0  0  0  0  0  0  0  0  0  0  0  0
  -25.3737  -15.1020   20.7484 N   0  0  0  0  0  0  0  0  0  0  0  0
  -21.7024  -12.4842   20.4939 N   0  0  0  0  0  0  0  0  0  0  0  0
  -21.3694  -27.6475   21.4283 N   0  0  0  0  0  0  0  0  0  0  0  0
  -27.3718  -28.3982   19.7522 N   0  0  0  0  0  0  0  0  0  0  0  0
  -31.1374  -19.9923   18.3213 N   0  0  3  0  0  0  0  0  0  0  0  0
  -30.3454  -27.5899   21.6421 N   0  3  0  0  0  0  0  0  0  0  0  0
  -22.4703  -14.6373   20.3113 O   0  0  0  0  0  0  0  0  0  0  0  0
  -21.9592  -27.5283   19.1787 O   0  0  0  0  0  0  0  0  0  0  0  0
  -24.9783  -28.4545   20.8766 O   0  0  0  0  0  0  0  0  0  0  0  0
  -28.7813  -26.5695   19.5376 O   0  0  0  0  0  0  0  0  0  0  0  0
  -31.7363  -14.9083   19.7344 O   0  0  0  0  0  0  0  0  0  0  0  0
  -21.5373   -6.9634   21.2214 O   0  0  0  0  0  0  0  0  0  0  0  0
  -29.7105  -15.3653   18.7117 O   0  0  0  0  0  0  0  0  0  0  0  0
  -26.4374  -21.0410   18.8190 O   0  0  0  0  0  0  0  0  0  1  0  0
  -22.4649   -3.4635   25.3800 F   0  0  0  0  0  0  0  0  0  0  0  0
  -19.5141   -6.2778   22.9761 F   0  0  0  0  0  0  0  0  0  0  0  0
  -30.8717  -14.8510   16.2929 F   0  0  0  0  0  0  0  0  0  0  0  0
  -32.4681  -19.6340   15.6705 Cl  0  0  0  0  0  0  0  0  0  0  0  0
  -29.6876  -18.0322   20.0584 Cl  0  0  0  0  0  0  0  0  0  0  0  0
  1  2  1  0  0  0  0
  1  5  2  0  0  0  0
  2  6  2  0  0  0  0
  3  8  2  0  0  0  0
  3 15  1  0  0  0  0
  4  9  1  0  0  0  0
  4 15  2  0  0  0  0
  5 17  1  0  0  0  0
  6 19  1  0  0  0  0
  7 10  2  0  0  0  0
  7 18  1  0  0  0  0
  8 23  1  0  0  0  0
  9 23  2  0  0  0  0
 10 24  1  0  0  0  0
 11 12  2  0  0  0  0
 11 25  1  0  0  0  0
 12 27  1  0  0  0  0
 13 20  1  0  0  0  0
 13 24  2  0  0  0  0
 14 27  2  0  0  0  0
 14 28  1  0  0  0  0
 15 32  1  0  0  0  0
 16 32  1  0  0  0  0
 16 33  2  0  0  0  0
 16 34  1  0  0  0  0
 17 19  2  0  0  0  0
 17 39  1  0  0  0  0
 18 20  2  0  0  0  0
 18 40  1  0  0  0  0
 19 48  1  0  0  0  0
 20 41  1  0  0  0  0
 21 29  1  0  0  0  0
 21 30  2  0  0  0  0
 21 51  1  0  0  0  0
 22 30  1  0  0  0  0
 22 31  2  0  0  0  0
 22 74  1  0  0  0  0
 23 81  1  0  0  0  0
 24 83  1  0  0  0  0
 25 28  2  0  0  0  0
 25 81  1  0  0  0  0
 26 29  2  0  0  0  0
 26 31  1  0  0  0  0
 26 82  1  0  0  0  0
 27 84  1  0  0  0  0
 28 85  1  0  0  0  0
 29 86  1  0  0  0  0
 30 87  1  0  0  0  0
 31 88  1  0  0  0  0
 32 66  2  0  0  0  0
 33 67  1  0  0  0  0
 33 70  1  0  0  0  0
 34 71  1  0  0  0  0
 34 76  2  0  0  0  0
 35 49  1  0  0  0  0
 35 72  1  0  0  0  0
 35 77  2  0  0  0  0
 36 63  1  0  0  0  0
 36 68  1  0  0  0  0
 36 78  2  0  0  0  0
 37 64  1  0  0  0  0
 37 73  1  0  0  0  0
 37 79  2  0  0  0  0
 38 69  1  0  0  0  0
 38 80  2  0  0  0  0
 38 82  1  0  0  0  0
 39 42  1  0  0  0  0
 40 49  1  0  0  0  0
 41 68  1  0  0  0  0
 42 44  1  0  0  0  0
 43 45  1  0  0  0  0
 43 46  1  0  0  0  0
 44 48  1  0  0  0  0
 45 50  1  0  0  0  0
 46 69  1  0  0  0  0
 47 50  1  0  0  0  0
 47 69  1  0  0  0  0
 48 72  1  0  0  0  0
 49 68  1  0  0  0  0
 50 67  1  0  0  0  0
 52 58  1  0  0  0  0
 53 64  1  0  0  0  0
 54 65  1  0  0  0  0
 55 65  1  0  0  0  0
 56 65  1  0  0  0  0
 57 75  1  0  0  0  0
 58 60  1  0  0  0  0
 59 61  1  0  0  0  0
 59 62  1  0  0  0  0
 60 74  1  0  0  0  0
 61 74  1  0  0  0  0
 62 83  1  0  0  0  0
 63 65  1  0  0  0  0
 63 73  1  0  0  0  0
 64 75  1  0  0  0  0
 66 67  1  0  0  0  0
M  CHG  1  75   1
M  ISO  4  38 100  62 101  82 100  83 101
M  END
> <Batch ID>
0027

> <Smiles>
CCCN(CC[101CH2:1][101O:1]c1ccc2c(c1)CN(C(=O)C(NC(=O)C(C)NC)C(C)(C)C)C(C(=O)NC1CCCc3ccccc31)C2)c1c(Cl)c(C)c(F)c([100O:0][100C:0](=O)N2CCCC(n3nc(-c4ccc(Oc5ccc(F)cc5F)cc4)c(C(N)=O)c3N)C2)c1Cl

> <Shape>
0.267

> <Color>
0.193

> <Negative vol penalty>
0.000

$$$$

  -OEChem-04052316303D

 89 97  0     1  0  0  0  0  0999 V2000
  -29.8435  -12.3517   19.5605 C   0  0  0  0  0  0  0  0  0  0  0  0
  -29.4514  -13.4969   18.8748 C   0  0  0  0  0  0  0  0  0  0  0  0
  -25.4799  -29.4533   25.4231 C   0  0  0  0  0  0  0  0  0  0  0  0
  -26.2199  -29.4893   23.1235 C   0  0  0  0  0  0  0  0  0  0  0  0
  -28.9056  -11.6214   20.2891 C   0  0  0  0  0  0  0  0  0  0  0  0
  -28.1208  -13.9119   18.9165 C   0  0  0  0  0  0  0  0  0  0  0  0
  -27.6636  -18.8955   19.6909 C   0  0  0  0  0  0  0  0  0  0  0  0
  -26.7639  -29.0918   25.8307 C   0  0  0  0  0  0  0  0  0  0  0  0
  -27.5040  -29.1279   23.5310 C   0  0  0  0  0  0  0  0  0  0  0  0
  -27.8828  -19.7325   18.5976 C   0  0  0  0  0  0  0  0  0  0  0  0
  -28.6504  -26.2888   25.9246 C   0  0  0  0  0  0  0  0  0  0  0  0
  -28.7671  -25.2637   26.8632 C   0  0  0  0  0  0  0  0  0  0  0  0
  -25.4997  -19.9370   18.2840 C   0  0  0  0  0  0  0  0  0  0  0  0
  -29.8759  -26.7805   28.3820 C   0  0  0  0  0  0  0  0  0  0  0  0
  -30.7260  -23.9545   18.0026 C   0  0  0  0  0  0  0  0  0  0  0  0
  -25.2078  -29.6520   24.0695 C   0  0  0  0  0  0  0  0  0  0  0  0
  -23.3702  -31.3285   23.5035 C   0  0  0  0  0  0  0  0  0  0  0  0
  -27.5648  -12.0331   20.3477 C   0  0  0  0  0  0  0  0  0  0  0  0
  -26.3587  -18.5636   20.0828 C   0  0  0  0  0  0  0  0  0  0  0  0
  -27.1638  -13.1857   19.6456 C   0  0  0  0  0  0  0  0  0  0  0  0
  -25.2666  -19.0976   19.3841 C   0  0  0  0  0  0  0  0  0  0  0  0
  -30.8650  -24.5541   19.2349 C   0  0  0  0  0  0  0  0  0  0  0  0
  -27.7760  -28.9292   24.8847 C   0  0  0  0  0  0  0  0  0  0  0  0
  -26.8009  -20.2510   17.8922 C   0  0  0  0  0  0  0  0  0  0  0  0
  -29.1465  -27.5598   26.2146 C   0  0  0  0  0  0  0  0  0  0  0  0
  -29.3798  -25.5095   28.0919 C   0  0  0  0  0  0  0  0  0  0  0  0
  -29.7593  -27.8057   27.4433 C   0  0  0  0  0  0  0  0  0  0  0  0
  -29.8072  -25.4862   19.3735 C   0  0  0  0  0  0  0  0  0  0  0  0
  -23.8814  -30.0247   23.6478 C   0  0  0  0  0  0  0  0  0  0  0  0
  -29.0538  -25.4278   18.2218 C   0  0  0  0  0  0  0  0  0  0  0  0
  -22.0756  -31.1451   23.0831 C   0  0  0  0  0  0  0  0  0  0  0  0
  -24.0086  -32.5923   23.7292 C   0  0  0  0  0  0  0  0  0  0  0  0
  -24.6992  -15.8609   20.2951 C   0  0  0  0  0  0  0  0  0  0  0  0
  -22.4685  -17.7930   21.6417 C   0  0  0  0  0  0  0  0  0  0  0  0
  -19.3954  -26.5974   20.2113 C   0  0  0  0  0  0  0  0  0  0  0  0
  -21.1928  -20.9386   21.9942 C   0  0  0  0  0  0  0  0  0  0  0  0
  -26.5776  -11.1848   21.1098 C   0  0  0  0  0  0  0  0  0  0  0  0
  -26.1387  -17.6809   21.2807 C   0  0  0  0  0  0  0  0  0  0  0  0
  -23.8459  -18.7883   19.7769 C   0  0  0  0  0  0  0  0  0  0  0  0
  -25.2633  -11.9009   21.4097 C   0  0  0  0  0  0  0  0  0  0  0  0
  -18.4476  -28.0489   23.3474 C   0  0  0  0  0  0  0  0  0  0  0  0
  -24.7456  -12.6109   20.1628 C   0  0  0  0  0  0  0  0  0  0  0  0
  -19.6968  -28.8152   23.7804 C   0  0  0  0  0  0  0  0  0  0  0  0
  -18.8088  -26.7646   22.6076 C   0  0  0  0  0  0  0  0  0  0  0  0
  -20.9577  -27.7390   21.8628 C   0  0  0  0  0  0  0  0  0  0  0  0
  -25.7347  -13.6818   19.6869 C   0  0  1  0  0  0  0  0  0  0  0  0
  -24.7753  -16.9964   21.2762 C   0  0  1  0  0  0  0  0  0  0  0  0
  -20.6374  -29.0586   22.5869 C   0  0  2  0  0  0  0  0  0  0  0  0
  -31.9314  -24.2640   20.2148 C   0  0  0  0  0  0  0  0  0  0  0  0
  -19.3435  -22.1985   23.1300 C   0  0  0  0  0  0  0  0  0  0  0  0
  -20.5450  -28.4373   19.0208 C   0  0  0  0  0  0  0  0  0  0  0  0
  -19.7829  -26.3830   17.8080 C   0  0  0  0  0  0  0  0  0  0  0  0
  -20.4794  -16.7135   19.5952 C   0  0  0  0  0  0  0  0  0  0  0  0
  -18.9789  -18.6423   20.1397 C   0  0  0  0  0  0  0  0  0  0  0  0
  -19.5590  -16.9784   21.9054 C   0  0  0  0  0  0  0  0  0  0  0  0
  -23.1066  -22.6088   23.5131 C   0  0  0  0  0  0  0  0  0  0  0  0
  -27.8425  -26.1812   17.8312 C   0  0  0  0  0  0  0  0  0  0  0  0
  -22.9270  -26.7535   18.6238 C   0  0  0  0  0  0  0  0  0  0  0  0
  -24.1913  -25.9405   18.9142 C   0  0  0  0  0  0  0  0  0  0  0  0
  -21.7218  -26.1969   19.3942 C   0  0  0  0  0  0  0  0  0  0  0  0
  -27.9258  -23.1493   16.0573 C   0  0  0  0  0  0  0  0  0  0  0  0
  -29.1225  -24.1027   16.0276 C   0  0  0  0  0  0  0  0  0  0  0  0
  -25.3916  -26.5159   18.1772 C   0  0  0  0  0  0  0  0  0  0  0  0
  -28.1912  -21.8712   16.8444 C   0  0  0  0  0  0  0  0  0  1  0  0
  -21.3163  -18.6191   21.1231 C   0  0  1  0  0  0  0  0  0  0  0  0
  -20.7868  -21.7289   23.2251 C   0  0  2  0  0  0  0  0  0  0  0  0
  -20.3823  -26.9170   19.1168 C   0  0  0  0  0  0  0  0  0  0  0  0
  -20.1101  -17.7428   20.6820 C   0  0  0  0  0  0  0  0  0  0  0  0
  -22.9846  -29.0827   23.3439 N   0  0  0  0  0  0  0  0  0  0  0  0
  -29.6215  -24.4931   17.3958 N   0  0  0  0  0  0  0  0  0  0  0  0
  -21.8969  -29.7952   23.0046 N   0  0  0  0  0  0  0  0  0  0  0  0
  -23.6826  -17.9154   20.9512 N   0  0  0  0  0  0  0  0  0  0  0  0
  -19.7211  -27.0354   21.4951 N   0  0  0  0  0  0  0  0  0  0  0  0
  -21.0840  -32.0084   22.7768 N   0  0  0  0  0  0  0  0  0  0  0  0
  -25.3425  -32.5996   24.1594 N   0  0  0  0  0  0  0  0  0  0  0  0
  -25.6333  -14.8661   20.5125 N   0  0  0  0  0  0  0  0  0  0  0  0
  -21.0021  -19.5845   22.1708 N   0  0  0  0  0  0  0  0  0  0  0  0
  -21.6609  -22.9254   23.3841 N   0  3  0  0  0  0  0  0  0  0  0  0
  -26.5993  -25.7258   18.5233 N   0  3  0  0  0  0  0  0  0  0  0  0
  -23.4087  -33.6824   23.5705 O   0  0  0  0  0  0  0  0  0  0  0  0
  -23.8546  -15.8848   19.4076 O   0  0  0  0  0  0  0  0  0  0  0  0
  -22.2995  -17.0712   22.6277 O   0  0  0  0  0  0  0  0  0  0  0  0
  -18.3648  -25.9796   19.9311 O   0  0  0  0  0  0  0  0  0  0  0  0
  -21.6315  -21.4698   20.9764 O   0  0  0  0  0  0  0  0  0  0  0  0
  -29.0292  -28.5768   25.2820 O   0  0  0  0  0  0  0  0  0  0  0  0
  -27.0121  -21.0677   16.8244 O   0  0  0  0  0  0  0  0  0  1  0  0
  -29.4905  -24.5253   28.9937 F   0  0  0  0  0  0  0  0  0  0  0  0
  -30.2367  -29.0250   27.7282 F   0  0  0  0  0  0  0  0  0  0  0  0
  -29.5423  -26.4852   20.7240 Cl  0  0  0  0  0  0  0  0  0  0  0  0
  1  2  1  0  0  0  0
  1  5  2  0  0  0  0
  2  6  2  0  0  0  0
  3  8  2  0  0  0  0
  3 16  1  0  0  0  0
  4  9  1  0  0  0  0
  4 16  2  0  0  0  0
  5 18  1  0  0  0  0
  6 20  1  0  0  0  0
  7 10  2  0  0  0  0
  7 19  1  0  0  0  0
  8 23  1  0  0  0  0
  9 23  2  0  0  0  0
 10 24  1  0  0  0  0
 11 12  2  0  0  0  0
 11 25  1  0  0  0  0
 12 26  1  0  0  0  0
 13 21  1  0  0  0  0
 13 24  2  0  0  0  0
 14 26  2  0  0  0  0
 14 27  1  0  0  0  0
 15 22  2  0  0  0  0
 15 70  1  0  0  0  0
 16 29  1  0  0  0  0
 17 29  1  0  0  0  0
 17 31  2  0  0  0  0
 17 32  1  0  0  0  0
 18 20  2  0  0  0  0
 18 37  1  0  0  0  0
 19 21  2  0  0  0  0
 19 38  1  0  0  0  0
 20 46  1  0  0  0  0
 21 39  1  0  0  0  0
 22 28  1  0  0  0  0
 22 49  1  0  0  0  0
 23 85  1  0  0  0  0
 24 86  1  0  0  0  0
 25 27  2  0  0  0  0
 25 85  1  0  0  0  0
 26 87  1  0  0  0  0
 27 88  1  0  0  0  0
 28 30  2  0  0  0  0
 28 89  1  0  0  0  0
 29 69  2  0  0  0  0
 30 57  1  0  0  0  0
 30 70  1  0  0  0  0
 31 71  1  0  0  0  0
 31 74  1  0  0  0  0
 32 75  1  0  0  0  0
 32 80  2  0  0  0  0
 33 47  1  0  0  0  0
 33 76  1  0  0  0  0
 33 81  2  0  0  0  0
 34 65  1  0  0  0  0
 34 72  1  0  0  0  0
 34 82  2  0  0  0  0
 35 67  1  0  0  0  0
 35 73  1  0  0  0  0
 35 83  2  0  0  0  0
 36 66  1  0  0  0  0
 36 77  1  0  0  0  0
 36 84  2  0  0  0  0
 37 40  1  0  0  0  0
 38 47  1  0  0  0  0
 39 72  1  0  0  0  0
 40 42  1  0  0  0  0
 41 43  1  0  0  0  0
 41 44  1  0  0  0  0
 42 46  1  0  0  0  0
 43 48  1  0  0  0  0
 44 73  1  0  0  0  0
 45 48  1  0  0  0  0
 45 73  1  0  0  0  0
 46 76  1  0  0  0  0
 47 72  1  0  0  0  0
 48 71  1  0  0  0  0
 50 66  1  0  0  0  0
 51 67  1  0  0  0  0
 52 67  1  0  0  0  0
 53 68  1  0  0  0  0
 54 68  1  0  0  0  0
 55 68  1  0  0  0  0
 56 78  1  0  0  0  0
 57 79  1  0  0  0  0
 58 59  1  0  0  0  0
 58 60  1  0  0  0  0
 59 63  1  0  0  0  0
 60 67  1  0  0  0  0
 61 62  1  0  0  0  0
 61 64  1  0  0  0  0
 62 70  1  0  0  0  0
 63 79  1  0  0  0  0
 64 86  1  0  0  0  0
 65 68  1  0  0  0  0
 65 77  1  0  0  0  0
 66 78  1  0  0  0  0
 69 71  1  0  0  0  0
M  CHG  2  78   1  79   1
M  ISO  4  35 100  64 101  67 100  86 101
M  END
> <Batch ID>
0027

> <Smiles>
CNC(C)C(=O)NC(C(=O)N1Cc2cc([101O:1][101CH2:1]CCn3cc(C)c(Cl)c3CNCCCC[100C:0](C)(C)[100C:0](=O)N3CCCC(n4nc(-c5ccc(Oc6ccc(F)cc6F)cc5)c(C(N)=O)c4N)C3)ccc2CC1C(=O)NC1CCCc2ccccc21)C(C)(C)C

> <Shape>
0.220

> <Color>
0.073

> <Negative vol penalty>
0.000

$$$$

  -OEChem-04052316303D

 86 94  0     1  0  0  0  0  0999 V2000
  -27.6489  -22.8230   25.9104 C   0  0  0  0  0  0  0  0  0  0  0  0
  -27.0035  -23.7847   25.1397 C   0  0  0  0  0  0  0  0  0  0  0  0
  -26.9113  -15.3836   21.9359 C   0  0  0  0  0  0  0  0  0  0  0  0
  -26.6197  -15.8812   19.5897 C   0  0  0  0  0  0  0  0  0  0  0  0
  -27.4379  -21.4689   25.6536 C   0  0  0  0  0  0  0  0  0  0  0  0
  -26.1476  -23.3929   24.1110 C   0  0  0  0  0  0  0  0  0  0  0  0
  -21.8236  -26.0285   24.0716 C   0  0  0  0  0  0  0  0  0  0  0  0
  -25.7255  -14.6492   21.9275 C   0  0  0  0  0  0  0  0  0  0  0  0
  -25.4339  -15.1467   19.5813 C   0  0  0  0  0  0  0  0  0  0  0  0
  -21.8669  -27.3149   23.5358 C   0  0  0  0  0  0  0  0  0  0  0  0
  -24.7030  -11.5805   20.9424 C   0  0  0  0  0  0  0  0  0  0  0  0
  -24.7056  -10.3380   21.5764 C   0  0  0  0  0  0  0  0  0  0  0  0
  -20.9446  -26.4789   21.4695 C   0  0  0  0  0  0  0  0  0  0  0  0
  -24.5817  -27.7982   20.0666 C   0  0  0  0  0  0  0  0  0  0  0  0
  -22.9653  -11.0969   23.0706 C   0  0  0  0  0  0  0  0  0  0  0  0
  -27.3584  -15.9997   20.7670 C   0  0  0  0  0  0  0  0  0  0  0  0
  -29.8809  -16.2816   20.5123 C   0  0  0  0  0  0  0  0  0  0  0  0
  -26.5714  -21.0603   24.6275 C   0  0  0  0  0  0  0  0  0  0  0  0
  -21.3499  -24.9539   23.3052 C   0  0  0  0  0  0  0  0  0  0  0  0
  -25.9258  -22.0321   23.8394 C   0  0  0  0  0  0  0  0  0  0  0  0
  -20.8940  -25.1802   21.9987 C   0  0  0  0  0  0  0  0  0  0  0  0
  -24.6394  -29.1894   19.9843 C   0  0  0  0  0  0  0  0  0  0  0  0
  -25.8686  -29.8428   20.0722 C   0  0  0  0  0  0  0  0  0  0  0  0
  -26.9824  -27.7138   20.3247 C   0  0  0  0  0  0  0  0  0  0  0  0
  -24.9868  -14.5307   20.7503 C   0  0  0  0  0  0  0  0  0  0  0  0
  -21.4301  -27.5398   22.2336 C   0  0  0  0  0  0  0  0  0  0  0  0
  -23.8317  -12.5812   21.3726 C   0  0  0  0  0  0  0  0  0  0  0  0
  -23.8367  -10.0962   22.6404 C   0  0  0  0  0  0  0  0  0  0  0  0
  -22.9628  -12.3394   22.4367 C   0  0  0  0  0  0  0  0  0  0  0  0
  -25.7532  -27.0604   20.2368 C   0  0  0  0  0  0  0  0  0  0  0  0
  -27.0401  -29.1051   20.2424 C   0  0  0  0  0  0  0  0  0  0  0  0
  -28.5829  -16.7590   20.7751 C   0  0  0  0  0  0  0  0  0  0  0  0
  -30.6865  -17.3861   20.6456 C   0  0  0  0  0  0  0  0  0  0  0  0
  -30.3193  -14.9582   20.1776 C   0  0  0  0  0  0  0  0  0  0  0  0
  -22.6076  -22.2409   22.2273 C   0  0  0  0  0  0  0  0  0  0  0  0
  -19.5655  -21.6714   21.2561 C   0  0  0  0  0  0  0  0  0  0  0  0
  -16.5209  -22.9362   20.3742 C   0  0  0  0  0  0  0  0  0  0  0  0
  -29.5927  -23.1524   20.0069 C   0  0  0  0  0  0  0  0  0  0  0  0
  -26.4116  -19.5852   24.3568 C   0  0  0  0  0  0  0  0  0  0  0  0
  -21.2846  -23.5769   23.9069 C   0  0  0  0  0  0  0  0  0  0  0  0
  -20.3574  -24.0641   21.1415 C   0  0  0  0  0  0  0  0  0  0  0  0
  -25.1988  -19.2527   23.4914 C   0  0  0  0  0  0  0  0  0  0  0  0
  -30.9568  -21.5666   22.9601 C   0  0  0  0  0  0  0  0  0  0  0  0
  -25.1295  -20.1871   22.2877 C   0  0  0  0  0  0  0  0  0  0  0  0
  -30.6196  -20.0974   22.6997 C   0  0  0  0  0  0  0  0  0  0  0  0
  -29.8395  -22.4849   22.4739 C   0  0  0  0  0  0  0  0  0  0  0  0
  -29.1398  -20.8406   20.7767 C   0  0  0  0  0  0  0  0  0  0  0  0
  -24.9707  -21.6466   22.7307 C   0  0  1  0  0  0  0  0  0  0  0  0
  -21.2636  -22.4676   22.8598 C   0  0  1  0  0  0  0  0  0  0  0  0
  -30.2406  -19.8623   21.2255 C   0  0  2  0  0  0  0  0  0  0  0  0
  -25.9065  -31.3371   19.9812 C   0  0  0  0  0  0  0  0  0  0  0  0
  -14.2445  -22.2265   19.5923 C   0  0  0  0  0  0  0  0  0  0  0  0
  -20.6845  -21.1682   18.4624 C   0  0  0  0  0  0  0  0  0  0  0  0
  -18.3601  -21.4086   17.5639 C   0  0  0  0  0  0  0  0  0  0  0  0
  -18.8910  -19.5755   19.1702 C   0  0  0  0  0  0  0  0  0  0  0  0
  -15.2119  -24.0965   22.7614 C   0  0  0  0  0  0  0  0  0  0  0  0
  -23.3572  -29.9612   19.8003 C   0  0  0  0  0  0  0  0  0  0  0  0
  -28.2380  -26.9161   20.5076 C   0  0  0  0  0  0  0  0  0  0  0  0
  -22.8615  -30.6452   21.0762 C   0  0  0  0  0  0  0  0  0  0  0  0
  -28.7705  -26.2731   19.2154 C   0  0  0  0  0  0  0  0  0  0  0  0
  -30.0794  -25.5049   19.3857 C   0  0  0  0  0  0  0  0  0  0  0  0
  -22.4975  -29.6644   22.1848 C   0  0  0  0  0  0  0  0  0  1  0  0
  -18.7711  -21.9590   20.0050 C   0  0  1  0  0  0  0  0  0  0  0  0
  -15.1126  -22.5582   20.7961 C   0  0  2  0  0  0  0  0  0  0  0  0
  -19.1885  -21.0487   18.8156 C   0  0  0  0  0  0  0  0  0  0  0  0
  -28.5605  -18.0650   21.0544 N   0  0  0  0  0  0  0  0  0  0  0  0
  -29.8545  -18.4176   20.9679 N   0  0  0  0  0  0  0  0  0  0  0  0
  -20.3197  -22.7345   21.7726 N   0  0  0  0  0  0  0  0  0  0  0  0
  -29.5399  -22.2231   21.0590 N   0  0  0  0  0  0  0  0  0  0  0  0
  -32.0183  -17.5657   20.5174 N   0  0  0  0  0  0  0  0  0  0  0  0
  -29.3600  -13.9408   20.0819 N   0  0  0  0  0  0  0  0  0  0  0  0
  -23.6034  -21.9088   23.1259 N   0  0  0  0  0  0  0  0  0  0  0  0
  -17.3655  -21.8462   20.3791 N   0  0  0  0  0  0  0  0  0  0  0  0
  -29.9737  -24.4413   20.3596 N   0  0  0  0  0  0  0  0  0  0  0  0
  -14.4755  -23.6816   21.5397 N   0  3  0  0  0  0  0  0  0  0  0  0
  -31.5279  -14.6824   19.9858 O   0  0  0  0  0  0  0  0  0  0  0  0
  -22.7316  -22.3572   21.0137 O   0  0  0  0  0  0  0  0  0  0  0  0
  -19.5129  -20.5470   21.7607 O   0  0  0  0  0  0  0  0  0  0  0  0
  -16.8391  -24.0829   20.0671 O   0  0  0  0  0  0  0  0  0  0  0  0
  -29.3251  -22.8543   18.8378 O   0  0  0  0  0  0  0  0  0  0  0  0
  -23.8298  -13.8139   20.7417 O   0  0  0  0  0  0  0  0  0  0  0  0
  -21.4718  -28.7943   21.7080 O   0  0  0  0  0  0  0  0  0  1  0  0
  -23.8381   -8.9025   23.2481 F   0  0  0  0  0  0  0  0  0  0  0  0
  -22.1226  -13.2965   22.8536 F   0  0  0  0  0  0  0  0  0  0  0  0
  -25.6352  -25.3400   20.3338 Cl  0  0  0  0  0  0  0  0  0  0  0  0
  -28.5663  -29.9198   20.3513 Cl  0  0  0  0  0  0  0  0  0  0  0  0
  1  2  1  0  0  0  0
  1  5  2  0  0  0  0
  2  6  2  0  0  0  0
  3  8  2  0  0  0  0
  3 16  1  0  0  0  0
  4  9  1  0  0  0  0
  4 16  2  0  0  0  0
  5 18  1  0  0  0  0
  6 20  1  0  0  0  0
  7 10  2  0  0  0  0
  7 19  1  0  0  0  0
  8 25  1  0  0  0  0
  9 25  2  0  0  0  0
 10 26  1  0  0  0  0
 11 12  2  0  0  0  0
 11 27  1  0  0  0  0
 12 28  1  0  0  0  0
 13 21  1  0  0  0  0
 13 26  2  0  0  0  0
 14 22  1  0  0  0  0
 14 30  2  0  0  0  0
 15 28  2  0  0  0  0
 15 29  1  0  0  0  0
 16 32  1  0  0  0  0
 17 32  1  0  0  0  0
 17 33  2  0  0  0  0
 17 34  1  0  0  0  0
 18 20  2  0  0  0  0
 18 39  1  0  0  0  0
 19 21  2  0  0  0  0
 19 40  1  0  0  0  0
 20 48  1  0  0  0  0
 21 41  1  0  0  0  0
 22 23  2  0  0  0  0
 22 57  1  0  0  0  0
 23 31  1  0  0  0  0
 23 51  1  0  0  0  0
 24 30  1  0  0  0  0
 24 31  2  0  0  0  0
 24 58  1  0  0  0  0
 25 81  1  0  0  0  0
 26 82  1  0  0  0  0
 27 29  2  0  0  0  0
 27 81  1  0  0  0  0
 28 83  1  0  0  0  0
 29 84  1  0  0  0  0
 30 85  1  0  0  0  0
 31 86  1  0  0  0  0
 32 66  2  0  0  0  0
 33 67  1  0  0  0  0
 33 70  1  0  0  0  0
 34 71  1  0  0  0  0
 34 76  2  0  0  0  0
 35 49  1  0  0  0  0
 35 72  1  0  0  0  0
 35 77  2  0  0  0  0
 36 63  1  0  0  0  0
 36 68  1  0  0  0  0
 36 78  2  0  0  0  0
 37 64  1  0  0  0  0
 37 73  1  0  0  0  0
 37 79  2  0  0  0  0
 38 69  1  0  0  0  0
 38 74  1  0  0  0  0
 38 80  2  0  0  0  0
 39 42  1  0  0  0  0
 40 49  1  0  0  0  0
 41 68  1  0  0  0  0
 42 44  1  0  0  0  0
 43 45  1  0  0  0  0
 43 46  1  0  0  0  0
 44 48  1  0  0  0  0
 45 50  1  0  0  0  0
 46 69  1  0  0  0  0
 47 50  1  0  0  0  0
 47 69  1  0  0  0  0
 48 72  1  0  0  0  0
 49 68  1  0  0  0  0
 50 67  1  0  0  0  0
 52 64  1  0  0  0  0
 53 65  1  0  0  0  0
 54 65  1  0  0  0  0
 55 65  1  0  0  0  0
 56 75  1  0  0  0  0
 57 59  1  0  0  0  0
 58 60  1  0  0  0  0
 59 62  1  0  0  0  0
 60 61  1  0  0  0  0
 61 74  1  0  0  0  0
 62 82  1  0  0  0  0
 63 65  1  0  0  0  0
 63 73  1  0  0  0  0
 64 75  1  0  0  0  0
 66 67  1  0  0  0  0
M  CHG  1  75   1
M  ISO  4  38 100  62 101  74 100  82 101
M  END
> <Batch ID>
0027

> <Smiles>
CNC(C)C(=O)NC(C(=O)N1Cc2cc([101O:1][101CH2:1]CCc3cc(Cl)c(CCC[100NH:0][100C:0](=O)N4CCCC(n5nc(-c6ccc(Oc7ccc(F)cc7F)cc6)c(C(N)=O)c5N)C4)c(Cl)c3C)ccc2CC1C(=O)NC1CCCc2ccccc21)C(C)(C)C

> <Shape>
0.231

> <Color>
0.056

> <Negative vol penalty>
0.000

$$$$

  -OEChem-04052316303D

 82 90  0     1  0  0  0  0  0999 V2000
  -26.7459  -12.1535   17.1663 C   0  0  0  0  0  0  0  0  0  0  0  0
  -26.0662  -13.3324   16.8770 C   0  0  0  0  0  0  0  0  0  0  0  0
  -29.2988  -25.3982   19.7683 C   0  0  0  0  0  0  0  0  0  0  0  0
  -27.3856  -23.9305   19.9188 C   0  0  0  0  0  0  0  0  0  0  0  0
  -26.7167  -11.6327   18.4593 C   0  0  0  0  0  0  0  0  0  0  0  0
  -25.3560  -13.9906   17.8804 C   0  0  0  0  0  0  0  0  0  0  0  0
  -23.4906  -20.5744   19.9993 C   0  0  0  0  0  0  0  0  0  0  0  0
  -19.0219  -24.7428   22.1487 C   0  0  0  0  0  0  0  0  0  0  0  0
  -19.3268  -26.0822   21.9064 C   0  0  0  0  0  0  0  0  0  0  0  0
  -30.1279  -24.3614   20.1965 C   0  0  0  0  0  0  0  0  0  0  0  0
  -28.2147  -22.8936   20.3469 C   0  0  0  0  0  0  0  0  0  0  0  0
  -22.3623  -21.3120   20.3554 C   0  0  0  0  0  0  0  0  0  0  0  0
  -29.8783  -19.7580   21.1335 C   0  0  0  0  0  0  0  0  0  0  0  0
  -29.6945  -18.5004   20.5590 C   0  0  0  0  0  0  0  0  0  0  0  0
  -22.4478  -20.3618   22.5710 C   0  0  0  0  0  0  0  0  0  0  0  0
  -30.1779  -19.4252   18.3800 C   0  0  0  0  0  0  0  0  0  0  0  0
  -27.9276  -25.1827   19.6295 C   0  0  0  0  0  0  0  0  0  0  0  0
  -26.7221  -26.5714   17.8615 C   0  0  0  0  0  0  0  0  0  0  0  0
  -26.0138  -12.2900   19.4813 C   0  0  0  0  0  0  0  0  0  0  0  0
  -24.1004  -19.7152   20.9247 C   0  0  0  0  0  0  0  0  0  0  0  0
  -25.3163  -13.4774   19.1879 C   0  0  0  0  0  0  0  0  0  0  0  0
  -23.5852  -19.6163   22.2250 C   0  0  0  0  0  0  0  0  0  0  0  0
  -19.4216  -24.1414   23.3422 C   0  0  0  0  0  0  0  0  0  0  0  0
  -20.0315  -26.8201   22.8575 C   0  0  0  0  0  0  0  0  0  0  0  0
  -29.5859  -23.1091   20.4857 C   0  0  0  0  0  0  0  0  0  0  0  0
  -21.8391  -21.2036   21.6406 C   0  0  0  0  0  0  0  0  0  0  0  0
  -30.2118  -20.8494   20.3313 C   0  0  0  0  0  0  0  0  0  0  0  0
  -29.8444  -18.3340   19.1822 C   0  0  0  0  0  0  0  0  0  0  0  0
  -30.3616  -20.6829   18.9545 C   0  0  0  0  0  0  0  0  0  0  0  0
  -20.1263  -24.8793   24.2932 C   0  0  0  0  0  0  0  0  0  0  0  0
  -20.4313  -26.2187   24.0509 C   0  0  0  0  0  0  0  0  0  0  0  0
  -27.0706  -26.2535   19.1879 C   0  0  0  0  0  0  0  0  0  0  0  0
  -25.8940  -27.6612   17.9758 C   0  0  0  0  0  0  0  0  0  0  0  0
  -27.1121  -25.9382   16.6356 C   0  0  0  0  0  0  0  0  0  0  0  0
  -24.6317  -16.5845   21.0668 C   0  0  0  0  0  0  0  0  0  0  0  0
  -26.2998  -17.3828   23.7319 C   0  0  0  0  0  0  0  0  0  0  0  0
  -26.8083  -19.6002   26.2758 C   0  0  0  0  0  0  0  0  0  0  0  0
  -22.3707  -29.6601   22.3851 C   0  0  0  0  0  0  0  0  0  0  0  0
  -25.9720  -11.6636   20.8526 C   0  0  0  0  0  0  0  0  0  0  0  0
  -25.3327  -18.9467   20.5331 C   0  0  0  0  0  0  0  0  0  0  0  0
  -24.2149  -18.7235   23.2617 C   0  0  0  0  0  0  0  0  0  0  0  0
  -25.5060  -12.6216   21.9459 C   0  0  0  0  0  0  0  0  0  0  0  0
  -25.0260  -31.4245   20.7998 C   0  0  0  0  0  0  0  0  0  0  0  0
  -24.2622  -13.3811   21.4956 C   0  0  0  0  0  0  0  0  0  0  0  0
  -25.8196  -30.3280   20.0872 C   0  0  0  0  0  0  0  0  0  0  0  0
  -24.4760  -30.9425   22.1404 C   0  0  0  0  0  0  0  0  0  0  0  0
  -24.4764  -28.6044   21.3614 C   0  0  0  0  0  0  0  0  0  0  0  0
  -24.5553  -14.2337   20.2552 C   0  0  1  0  0  0  0  0  0  0  0  0
  -25.5673  -17.7125   21.3986 C   0  0  1  0  0  0  0  0  0  0  0  0
  -25.0040  -29.0256   19.9792 C   0  0  2  0  0  0  0  0  0  0  0  0
  -27.9050  -20.6255   28.2867 C   0  0  0  0  0  0  0  0  0  0  0  0
  -24.6325  -15.3210   25.2414 C   0  0  0  0  0  0  0  0  0  0  0  0
  -25.3880  -16.3792   27.3810 C   0  0  0  0  0  0  0  0  0  0  0  0
  -27.0593  -15.3443   25.8452 C   0  0  0  0  0  0  0  0  0  0  0  0
  -28.6624  -21.1858   24.6004 C   0  0  0  0  0  0  0  0  0  0  0  0
  -19.0670  -22.6899   23.5563 C   0  0  0  0  0  0  0  0  0  0  0  0
  -20.3336  -28.2522   22.5505 C   0  0  0  0  0  0  0  0  0  0  0  0
  -20.2548  -21.7625   23.3239 C   0  0  0  0  0  0  0  0  0  1  0  0
  -25.9673  -17.5306   25.1970 C   0  0  1  0  0  0  0  0  0  0  0  0
  -28.0764  -20.2241   26.8299 C   0  0  2  0  0  0  0  0  0  0  0  0
  -25.7485  -16.1592   25.8963 C   0  0  0  0  0  0  0  0  0  0  0  0
  -26.5098  -27.0750   20.0793 N   0  0  0  0  0  0  0  0  0  0  0  0
  -25.8007  -27.9199   19.3117 N   0  0  0  0  0  0  0  0  0  0  0  0
  -25.4142  -17.9876   22.8287 N   0  0  0  0  0  0  0  0  0  0  0  0
  -23.7113  -29.7050   21.9681 N   0  0  0  0  0  0  0  0  0  0  0  0
  -25.2439  -28.4138   17.0630 N   0  0  0  0  0  0  0  0  0  0  0  0
  -27.9681  -24.8302   16.6988 N   0  0  0  0  0  0  0  0  0  0  0  0
  -25.2660  -15.4385   20.6264 N   0  0  0  0  0  0  0  0  0  0  0  0
  -27.0366  -18.3343   25.7793 N   0  0  0  0  0  0  0  0  0  0  0  0
  -21.7170  -28.4513   22.1797 N   0  0  0  0  0  0  0  0  0  0  0  0
  -28.4406  -21.4390   26.0474 N   0  3  0  0  0  0  0  0  0  0  0  0
  -26.7264  -26.3530   15.5164 O   0  0  0  0  0  0  0  0  0  0  0  0
  -23.4240  -16.7417   21.2019 O   0  0  0  0  0  0  0  0  0  0  0  0
  -27.3120  -16.7601   23.4013 O   0  0  0  0  0  0  0  0  0  0  0  0
  -25.7228  -20.1766   26.2862 O   0  0  0  0  0  0  0  0  0  0  0  0
  -21.7972  -30.6275   22.8973 O   0  0  0  0  0  0  0  0  0  0  0  0
  -30.3946  -22.0972   20.9033 O   0  0  0  0  0  0  0  0  0  0  0  0
  -20.7376  -21.9219   21.9906 O   0  0  0  0  0  0  0  0  0  1  0  0
  -29.6694  -17.1258   18.6308 F   0  0  0  0  0  0  0  0  0  0  0  0
  -30.6831  -21.7273   18.1788 F   0  0  0  0  0  0  0  0  0  0  0  0
  -20.6090  -24.1009   25.7677 Cl  0  0  0  0  0  0  0  0  0  0  0  0
  -21.3065  -27.1651   25.2134 Cl  0  0  0  0  0  0  0  0  0  0  0  0
  1  2  1  0  0  0  0
  1  5  2  0  0  0  0
  2  6  2  0  0  0  0
  3 10  2  0  0  0  0
  3 17  1  0  0  0  0
  4 11  1  0  0  0  0
  4 17  2  0  0  0  0
  5 19  1  0  0  0  0
  6 21  1  0  0  0  0
  7 12  2  0  0  0  0
  7 20  1  0  0  0  0
  8  9  2  0  0  0  0
  8 23  1  0  0  0  0
  9 24  1  0  0  0  0
 10 25  1  0  0  0  0
 11 25  2  0  0  0  0
 12 26  1  0  0  0  0
 13 14  2  0  0  0  0
 13 27  1  0  0  0  0
 14 28  1  0  0  0  0
 15 22  1  0  0  0  0
 15 26  2  0  0  0  0
 16 28  2  0  0  0  0
 16 29  1  0  0  0  0
 17 32  1  0  0  0  0
 18 32  1  0  0  0  0
 18 33  2  0  0  0  0
 18 34  1  0  0  0  0
 19 21  2  0  0  0  0
 19 39  1  0  0  0  0
 20 22  2  0  0  0  0
 20 40  1  0  0  0  0
 21 48  1  0  0  0  0
 22 41  1  0  0  0  0
 23 30  2  0  0  0  0
 23 56  1  0  0  0  0
 24 31  2  0  0  0  0
 24 57  1  0  0  0  0
 25 77  1  0  0  0  0
 26 78  1  0  0  0  0
 27 29  2  0  0  0  0
 27 77  1  0  0  0  0
 28 79  1  0  0  0  0
 29 80  1  0  0  0  0
 30 31  1  0  0  0  0
 30 81  1  0  0  0  0
 31 82  1  0  0  0  0
 32 62  2  0  0  0  0
 33 63  1  0  0  0  0
 33 66  1  0  0  0  0
 34 67  1  0  0  0  0
 34 72  2  0  0  0  0
 35 49  1  0  0  0  0
 35 68  1  0  0  0  0
 35 73  2  0  0  0  0
 36 59  1  0  0  0  0
 36 64  1  0  0  0  0
 36 74  2  0  0  0  0
 37 60  1  0  0  0  0
 37 69  1  0  0  0  0
 37 75  2  0  0  0  0
 38 65  1  0  0  0  0
 38 70  1  0  0  0  0
 38 76  2  0  0  0  0
 39 42  1  0  0  0  0
 40 49  1  0  0  0  0
 41 64  1  0  0  0  0
 42 44  1  0  0  0  0
 43 45  1  0  0  0  0
 43 46  1  0  0  0  0
 44 48  1  0  0  0  0
 45 50  1  0  0  0  0
 46 65  1  0  0  0  0
 47 50  1  0  0  0  0
 47 65  1  0  0  0  0
 48 68  1  0  0  0  0
 49 64  1  0  0  0  0
 50 63  1  0  0  0  0
 51 60  1  0  0  0  0
 52 61  1  0  0  0  0
 53 61  1  0  0  0  0
 54 61  1  0  0  0  0
 55 71  1  0  0  0  0
 56 58  1  0  0  0  0
 57 70  1  0  0  0  0
 58 78  1  0  0  0  0
 59 61  1  0  0  0  0
 59 69  1  0  0  0  0
 60 71  1  0  0  0  0
 62 63  1  0  0  0  0
M  CHG  1  71   1
M  ISO  4  38 100  58 101  70 100  78 101
M  END
> <Batch ID>
0027

> <Smiles>
CNC(C)C(=O)NC(C(=O)N1Cc2cc([101O:1][101CH2:1]Cc3ccc(C[100NH:0][100C:0](=O)N4CCCC(n5nc(-c6ccc(Oc7ccc(F)cc7F)cc6)c(C(N)=O)c5N)C4)c(Cl)c3Cl)ccc2CC1C(=O)NC1CCCc2ccccc21)C(C)(C)C

> <Shape>
0.191

> <Color>
0.064

> <Negative vol penalty>
0.000

$$$$

  -OEChem-04052316303D

 83 91  0     1  0  0  0  0  0999 V2000
  -25.5922  -36.9606   22.1623 C   0  0  0  0  0  0  0  0  0  0  0  0
  -26.2963  -35.8716   21.6585 C   0  0  0  0  0  0  0  0  0  0  0  0
  -26.6259  -13.1195   21.9447 C   0  0  0  0  0  0  0  0  0  0  0  0
  -25.7153  -14.7266   20.3874 C   0  0  0  0  0  0  0  0  0  0  0  0
  -24.7046  -36.7851   23.2231 C   0  0  0  0  0  0  0  0  0  0  0  0
  -26.1140  -34.6066   22.2160 C   0  0  0  0  0  0  0  0  0  0  0  0
  -26.2398  -29.2352   19.2769 C   0  0  0  0  0  0  0  0  0  0  0  0
  -25.4014  -12.4521   21.9719 C   0  0  0  0  0  0  0  0  0  0  0  0
  -24.4908  -14.0592   20.4145 C   0  0  0  0  0  0  0  0  0  0  0  0
  -27.2347  -28.2697   19.1295 C   0  0  0  0  0  0  0  0  0  0  0  0
  -22.6232  -10.1162   22.1728 C   0  0  0  0  0  0  0  0  0  0  0  0
  -22.6410   -8.7244   22.0824 C   0  0  0  0  0  0  0  0  0  0  0  0
  -26.2976  -27.0312   20.9754 C   0  0  0  0  0  0  0  0  0  0  0  0
  -33.2478  -22.1782   17.7133 C   0  0  0  0  0  0  0  0  0  0  0  0
  -32.5376  -22.8760   20.3193 C   0  0  0  0  0  0  0  0  0  0  0  0
  -23.7263   -8.8782   19.9293 C   0  0  0  0  0  0  0  0  0  0  0  0
  -26.7828  -14.2568   21.1524 C   0  0  0  0  0  0  0  0  0  0  0  0
  -29.1253  -14.7112   20.2503 C   0  0  0  0  0  0  0  0  0  0  0  0
  -24.5042  -35.5155   23.7876 C   0  0  0  0  0  0  0  0  0  0  0  0
  -25.2712  -29.1114   20.2833 C   0  0  0  0  0  0  0  0  0  0  0  0
  -25.2239  -34.4141   23.2863 C   0  0  0  0  0  0  0  0  0  0  0  0
  -25.2900  -27.9952   21.1318 C   0  0  0  0  0  0  0  0  0  0  0  0
  -33.3507  -23.5045   18.1327 C   0  0  0  0  0  0  0  0  0  0  0  0
  -32.7898  -21.2008   18.5968 C   0  0  0  0  0  0  0  0  0  0  0  0
  -32.9956  -23.8534   19.4357 C   0  0  0  0  0  0  0  0  0  0  0  0
  -32.4348  -21.5497   19.8998 C   0  0  0  0  0  0  0  0  0  0  0  0
  -24.3339  -12.9219   21.2068 C   0  0  0  0  0  0  0  0  0  0  0  0
  -27.2654  -27.1690   19.9807 C   0  0  0  0  0  0  0  0  0  0  0  0
  -23.1568  -10.8890   21.1414 C   0  0  0  0  0  0  0  0  0  0  0  0
  -23.1926   -8.1054   20.9607 C   0  0  0  0  0  0  0  0  0  0  0  0
  -23.7083  -10.2700   20.0197 C   0  0  0  0  0  0  0  0  0  0  0  0
  -28.0473  -14.9470   21.1244 C   0  0  0  0  0  0  0  0  0  0  0  0
  -30.0809  -15.6218   20.6301 C   0  0  0  0  0  0  0  0  0  0  0  0
  -29.2517  -13.7545   19.1899 C   0  0  0  0  0  0  0  0  0  0  0  0
  -24.4446  -30.8318   22.8250 C   0  0  0  0  0  0  0  0  0  0  0  0
  -22.0315  -28.6725   23.0163 C   0  0  0  0  0  0  0  0  0  0  0  0
  -20.8701  -25.5519   22.2684 C   0  0  0  0  0  0  0  0  0  0  0  0
  -31.5786  -20.7686   22.1366 C   0  0  0  0  0  0  0  0  0  0  0  0
  -23.5696  -35.3834   24.9640 C   0  0  0  0  0  0  0  0  0  0  0  0
  -24.1888  -30.1479   20.4120 C   0  0  0  0  0  0  0  0  0  0  0  0
  -24.2611  -27.8052   22.2151 C   0  0  0  0  0  0  0  0  0  0  0  0
  -23.1536  -33.9433   25.2527 C   0  0  0  0  0  0  0  0  0  0  0  0
  -30.3361  -18.6269   24.6952 C   0  0  0  0  0  0  0  0  0  0  0  0
  -24.3688  -33.0217   25.2294 C   0  0  0  0  0  0  0  0  0  0  0  0
  -29.7186  -17.4592   23.9224 C   0  0  0  0  0  0  0  0  0  0  0  0
  -30.1204  -19.9587   23.9785 C   0  0  0  0  0  0  0  0  0  0  0  0
  -29.9356  -18.8182   21.8027 C   0  0  0  0  0  0  0  0  0  0  0  0
  -25.0348  -33.0217   23.8481 C   0  0  1  0  0  0  0  0  0  0  0  0
  -23.5574  -30.1832   21.8003 C   0  0  1  0  0  0  0  0  0  0  0  0
  -30.1835  -17.4473   22.4530 C   0  0  2  0  0  0  0  0  0  0  0  0
  -33.8432  -24.5337   17.1690 C   0  0  0  0  0  0  0  0  0  0  0  0
  -32.6898  -19.7880   18.1205 C   0  0  0  0  0  0  0  0  0  0  0  0
  -18.8765  -24.0622   22.5910 C   0  0  0  0  0  0  0  0  0  0  0  0
  -22.8760  -28.1720   25.9053 C   0  0  0  0  0  0  0  0  0  0  0  0
  -21.5208  -26.0673   25.8635 C   0  0  0  0  0  0  0  0  0  0  0  0
  -20.4034  -28.2746   25.5440 C   0  0  0  0  0  0  0  0  0  0  0  0
  -20.4021  -25.3520   19.3529 C   0  0  0  0  0  0  0  0  0  0  0  0
  -33.0981  -25.2806   19.9116 C   0  0  0  0  0  0  0  0  0  0  0  0
  -31.9737  -26.1868   19.3981 C   0  0  0  0  0  0  0  0  0  0  0  0
  -30.5901  -25.7629   19.8929 C   0  0  0  0  0  0  0  0  0  0  0  0
  -29.4961  -26.6609   19.3313 C   0  0  0  0  0  0  0  0  0  1  0  0
  -21.8445  -27.3352   23.6913 C   0  0  1  0  0  0  0  0  0  0  0  0
  -19.5499  -25.0814   21.6851 C   0  0  2  0  0  0  0  0  0  0  0  0
  -21.6819  -27.4665   25.2319 C   0  0  0  0  0  0  0  0  0  0  0  0
  -28.2942  -15.9303   21.9940 N   0  0  0  0  0  0  0  0  0  0  0  0
  -29.5384  -16.3203   21.6683 N   0  0  0  0  0  0  0  0  0  0  0  0
  -23.2268  -28.8490   22.3050 N   0  0  0  0  0  0  0  0  0  0  0  0
  -30.5881  -19.8736   22.5933 N   0  0  0  0  0  0  0  0  0  0  0  0
  -31.3239  -15.8851   20.1739 N   0  0  0  0  0  0  0  0  0  0  0  0
  -28.1747  -12.8949   18.9336 N   0  0  0  0  0  0  0  0  0  0  0  0
  -31.9676  -20.5713   20.8121 N   0  0  0  0  0  0  0  0  0  0  0  0
  -24.2823  -32.2005   22.9241 N   0  0  0  0  0  0  0  0  0  0  0  0
  -20.7162  -26.6952   23.0237 N   0  0  0  0  0  0  0  0  0  0  0  0
  -19.7674  -24.4534   20.3512 N   0  3  0  0  0  0  0  0  0  0  0  0
  -30.2951  -13.6536   18.5009 O   0  0  0  0  0  0  0  0  0  0  0  0
  -25.2179  -30.1414   23.4784 O   0  0  0  0  0  0  0  0  0  0  0  0
  -21.1463  -29.5265   23.1106 O   0  0  0  0  0  0  0  0  0  0  0  0
  -21.9310  -24.9619   22.0765 O   0  0  0  0  0  0  0  0  0  0  0  0
  -32.0669  -21.6280   22.8749 O   0  0  0  0  0  0  0  0  0  0  0  0
  -23.1389  -12.2707   21.2329 O   0  0  0  0  0  0  0  0  0  0  0  0
  -28.2358  -26.2254   19.8395 O   0  0  0  0  0  0  0  0  0  1  0  0
  -23.2111   -6.7688   20.8748 F   0  0  0  0  0  0  0  0  0  0  0  0
  -24.2235  -11.0071   19.0262 F   0  0  0  0  0  0  0  0  0  0  0  0
  1  2  1  0  0  0  0
  1  5  2  0  0  0  0
  2  6  2  0  0  0  0
  3  8  2  0  0  0  0
  3 17  1  0  0  0  0
  4  9  1  0  0  0  0
  4 17  2  0  0  0  0
  5 19  1  0  0  0  0
  6 21  1  0  0  0  0
  7 10  2  0  0  0  0
  7 20  1  0  0  0  0
  8 27  1  0  0  0  0
  9 27  2  0  0  0  0
 10 28  1  0  0  0  0
 11 12  2  0  0  0  0
 11 29  1  0  0  0  0
 12 30  1  0  0  0  0
 13 22  1  0  0  0  0
 13 28  2  0  0  0  0
 14 23  1  0  0  0  0
 14 24  2  0  0  0  0
 15 25  1  0  0  0  0
 15 26  2  0  0  0  0
 16 30  2  0  0  0  0
 16 31  1  0  0  0  0
 17 32  1  0  0  0  0
 18 32  1  0  0  0  0
 18 33  2  0  0  0  0
 18 34  1  0  0  0  0
 19 21  2  0  0  0  0
 19 39  1  0  0  0  0
 20 22  2  0  0  0  0
 20 40  1  0  0  0  0
 21 48  1  0  0  0  0
 22 41  1  0  0  0  0
 23 25  2  0  0  0  0
 23 51  1  0  0  0  0
 24 26  1  0  0  0  0
 24 52  1  0  0  0  0
 25 58  1  0  0  0  0
 26 71  1  0  0  0  0
 27 80  1  0  0  0  0
 28 81  1  0  0  0  0
 29 31  2  0  0  0  0
 29 80  1  0  0  0  0
 30 82  1  0  0  0  0
 31 83  1  0  0  0  0
 32 65  2  0  0  0  0
 33 66  1  0  0  0  0
 33 69  1  0  0  0  0
 34 70  1  0  0  0  0
 34 75  2  0  0  0  0
 35 49  1  0  0  0  0
 35 72  1  0  0  0  0
 35 76  2  0  0  0  0
 36 62  1  0  0  0  0
 36 67  1  0  0  0  0
 36 77  2  0  0  0  0
 37 63  1  0  0  0  0
 37 73  1  0  0  0  0
 37 78  2  0  0  0  0
 38 68  1  0  0  0  0
 38 71  1  0  0  0  0
 38 79  2  0  0  0  0
 39 42  1  0  0  0  0
 40 49  1  0  0  0  0
 41 67  1  0  0  0  0
 42 44  1  0  0  0  0
 43 45  1  0  0  0  0
 43 46  1  0  0  0  0
 44 48  1  0  0  0  0
 45 50  1  0  0  0  0
 46 68  1  0  0  0  0
 47 50  1  0  0  0  0
 47 68  1  0  0  0  0
 48 72  1  0  0  0  0
 49 67  1  0  0  0  0
 50 66  1  0  0  0  0
 53 63  1  0  0  0  0
 54 64  1  0  0  0  0
 55 64  1  0  0  0  0
 56 64  1  0  0  0  0
 57 74  1  0  0  0  0
 58 59  1  0  0  0  0
 59 60  1  0  0  0  0
 60 61  1  0  0  0  0
 61 81  1  0  0  0  0
 62 64  1  0  0  0  0
 62 73  1  0  0  0  0
 63 74  1  0  0  0  0
 65 66  1  0  0  0  0
M  CHG  1  74   1
M  ISO  4  38 100  61 101  71 100  81 101
M  END
> <Batch ID>
0027

> <Smiles>
CNC(C)C(=O)NC(C(=O)N1Cc2cc([101O:1][101CH2:1]CCCc3cc([100NH:0][100C:0](=O)N4CCCC(n5nc(-c6ccc(Oc7ccc(F)cc7F)cc6)c(C(N)=O)c5N)C4)c(C)cc3C)ccc2CC1C(=O)NC1CCCc2ccccc21)C(C)(C)C

> <Shape>
0.283

> <Color>
0.065

> <Negative vol penalty>
0.000

$$$$

  -OEChem-04052316303D

 85 93  0     1  0  0  0  0  0999 V2000
  -18.6102  -28.3250   23.7358 C   0  0  0  0  0  0  0  0  0  0  0  0
  -19.2809  -27.1126   23.8609 C   0  0  0  0  0  0  0  0  0  0  0  0
  -24.1839  -12.4610   19.3701 C   0  0  0  0  0  0  0  0  0  0  0  0
  -25.3634  -12.1636   21.4575 C   0  0  0  0  0  0  0  0  0  0  0  0
  -18.5596  -28.9680   22.4997 C   0  0  0  0  0  0  0  0  0  0  0  0
  -19.9004  -26.5419   22.7496 C   0  0  0  0  0  0  0  0  0  0  0  0
  -24.5389  -24.7982   23.7933 C   0  0  0  0  0  0  0  0  0  0  0  0
  -24.2385  -11.0858   19.1433 C   0  0  0  0  0  0  0  0  0  0  0  0
  -25.4180  -10.7883   21.2307 C   0  0  0  0  0  0  0  0  0  0  0  0
  -24.6249  -23.5765   24.4596 C   0  0  0  0  0  0  0  0  0  0  0  0
  -25.5505   -7.1580   21.3753 C   0  0  0  0  0  0  0  0  0  0  0  0
  -25.2421   -6.3116   22.4403 C   0  0  0  0  0  0  0  0  0  0  0  0
  -25.0837  -22.4729   22.3642 C   0  0  0  0  0  0  0  0  0  0  0  0
  -23.0354   -7.2859   22.5756 C   0  0  0  0  0  0  0  0  0  0  0  0
  -28.5953  -21.7224   27.7682 C   0  0  0  0  0  0  0  0  0  0  0  0
  -24.7464  -12.9999   20.5272 C   0  0  0  0  0  0  0  0  0  0  0  0
  -23.6796  -15.1320   21.4347 C   0  0  0  0  0  0  0  0  0  0  0  0
  -19.1870  -28.4097   21.3749 C   0  0  0  0  0  0  0  0  0  0  0  0
  -24.7142  -24.8649   22.4036 C   0  0  0  0  0  0  0  0  0  0  0  0
  -19.8570  -27.1774   21.4970 C   0  0  0  0  0  0  0  0  0  0  0  0
  -25.0020  -23.6970   21.6830 C   0  0  0  0  0  0  0  0  0  0  0  0
  -28.5177  -20.6833   25.6302 C   0  0  0  0  0  0  0  0  0  0  0  0
  -27.2408  -20.2241   25.9335 C   0  0  0  0  0  0  0  0  0  0  0  0
  -24.8555  -10.2495   20.0736 C   0  0  0  0  0  0  0  0  0  0  0  0
  -24.8944  -22.4132   23.7447 C   0  0  0  0  0  0  0  0  0  0  0  0
  -24.6013   -8.0684   20.9106 C   0  0  0  0  0  0  0  0  0  0  0  0
  -23.9846   -6.3755   23.0404 C   0  0  0  0  0  0  0  0  0  0  0  0
  -23.3438   -8.1323   21.5107 C   0  0  0  0  0  0  0  0  0  0  0  0
  -29.2146  -21.4474   26.5596 C   0  0  0  0  0  0  0  0  0  0  0  0
  -24.6908  -14.4205   20.7618 C   0  0  0  0  0  0  0  0  0  0  0  0
  -26.7099  -20.5537   27.1702 C   0  0  0  0  0  0  0  0  0  0  0  0
  -24.0924  -16.4412   21.3890 C   0  0  0  0  0  0  0  0  0  0  0  0
  -22.4749  -14.6524   22.0466 C   0  0  0  0  0  0  0  0  0  0  0  0
  -22.8896  -25.7389   19.9520 C   0  0  0  0  0  0  0  0  0  0  0  0
  -25.6221  -25.2913   18.2621 C   0  0  0  0  0  0  0  0  0  0  0  0
  -28.6661  -23.7664   18.0269 C   0  0  0  0  0  0  0  0  0  0  0  0
  -29.4781  -19.0020   20.8522 C   0  0  0  0  0  0  0  0  0  0  0  0
  -19.0649  -29.1183   20.0491 C   0  0  0  0  0  0  0  0  0  0  0  0
  -24.6448  -26.1943   21.7035 C   0  0  0  0  0  0  0  0  0  0  0  0
  -25.2185  -23.7178   20.1927 C   0  0  0  0  0  0  0  0  0  0  0  0
  -20.0664  -28.6326   19.0044 C   0  0  0  0  0  0  0  0  0  0  0  0
  -26.6652  -19.4651   18.7191 C   0  0  0  0  0  0  0  0  0  0  0  0
  -20.1064  -27.1081   18.9714 C   0  0  0  0  0  0  0  0  0  0  0  0
  -25.7490  -18.2889   19.0615 C   0  0  0  0  0  0  0  0  0  0  0  0
  -28.1384  -19.0661   18.7695 C   0  0  0  0  0  0  0  0  0  0  0  0
  -27.6507  -17.2613   20.3753 C   0  0  0  0  0  0  0  0  0  0  0  0
  -20.5625  -26.5389   20.3203 C   0  0  1  0  0  0  0  0  0  0  0  0
  -24.3312  -26.0704   20.2156 C   0  0  1  0  0  0  0  0  0  0  0  0
  -26.1571  -17.6291   20.3924 C   0  0  2  0  0  0  0  0  0  0  0  0
  -24.8149  -20.8034   28.7928 C   0  0  0  0  0  0  0  0  0  0  0  0
  -30.6570  -23.5656   16.5124 C   0  0  0  0  0  0  0  0  0  0  0  0
  -24.0352  -23.4427   16.4251 C   0  0  0  0  0  0  0  0  0  0  0  0
  -26.2089  -22.5562   15.5548 C   0  0  0  0  0  0  0  0  0  0  0  0
  -25.6331  -24.9638   15.2470 C   0  0  0  0  0  0  0  0  0  0  0  0
  -30.4842  -24.8841   20.0773 C   0  0  0  0  0  0  0  0  0  0  0  0
  -29.1278  -20.3495   24.3052 C   0  0  0  0  0  0  0  0  0  0  0  0
  -26.4573  -19.3927   24.9471 C   0  0  0  0  0  0  0  0  0  0  0  0
  -25.3427  -20.0889   27.5526 C   0  0  0  0  0  0  0  0  0  0  0  0
  -30.1420  -19.1922   24.3489 C   0  0  0  0  0  0  0  0  0  0  0  0
  -30.7258  -18.8143   22.9892 C   0  0  0  0  0  0  0  0  0  0  0  0
  -25.8480  -20.2363   23.8326 C   0  0  0  0  0  0  0  0  0  1  0  0
  -26.2582  -24.1232   17.5480 C   0  0  1  0  0  0  0  0  0  0  0  0
  -30.0418  -24.3107   17.6868 C   0  0  2  0  0  0  0  0  0  0  0  0
  -25.5279  -23.7705   16.2215 C   0  0  0  0  0  0  0  0  0  0  0  0
  -27.3565  -21.2937   28.0986 N   0  0  0  0  0  0  0  0  0  0  0  0
  -25.6721  -15.2120   20.3207 N   0  0  0  0  0  0  0  0  0  0  0  0
  -25.2794  -16.4345   20.7173 N   0  0  0  0  0  0  0  0  0  0  0  0
  -25.1342  -25.0410   19.5526 N   0  0  0  0  0  0  0  0  0  0  0  0
  -28.4606  -18.4480   20.0579 N   0  0  0  0  0  0  0  0  0  0  0  0
  -23.5522  -17.5860   21.8582 N   0  0  0  0  0  0  0  0  0  0  0  0
  -22.2046  -13.2779   22.0026 N   0  0  0  0  0  0  0  0  0  0  0  0
  -21.9975  -26.6628   20.4619 N   0  0  0  0  0  0  0  0  0  0  0  0
  -27.6670  -24.4644   17.3821 N   0  0  0  0  0  0  0  0  0  0  0  0
  -29.7152  -18.3588   22.0608 N   0  0  0  0  0  0  0  0  0  0  0  0
  -30.9548  -24.1790   18.8573 N   0  3  0  0  0  0  0  0  0  0  0  0
  -21.6541  -15.4221   22.6011 O   0  0  0  0  0  0  0  0  0  0  0  0
  -22.6076  -24.7211   19.3305 O   0  0  0  0  0  0  0  0  0  0  0  0
  -25.5666  -26.3872   17.6986 O   0  0  0  0  0  0  0  0  0  0  0  0
  -28.4952  -22.8146   18.7855 O   0  0  0  0  0  0  0  0  0  0  0  0
  -30.1235  -19.9993   20.5119 O   0  0  0  0  0  0  0  0  0  0  0  0
  -24.9087   -8.9075   19.8527 O   0  0  0  0  0  0  0  0  0  0  0  0
  -24.9783  -21.2194   24.3924 O   0  0  0  0  0  0  0  0  0  1  0  0
  -23.6880   -5.5616   24.0621 F   0  0  0  0  0  0  0  0  0  0  0  0
  -22.4274   -9.0041   21.0678 F   0  0  0  0  0  0  0  0  0  0  0  0
  -30.7967  -22.0507   26.2571 Cl  0  0  0  0  0  0  0  0  0  0  0  0
  1  2  1  0  0  0  0
  1  5  2  0  0  0  0
  2  6  2  0  0  0  0
  3  8  2  0  0  0  0
  3 16  1  0  0  0  0
  4  9  1  0  0  0  0
  4 16  2  0  0  0  0
  5 18  1  0  0  0  0
  6 20  1  0  0  0  0
  7 10  2  0  0  0  0
  7 19  1  0  0  0  0
  8 24  1  0  0  0  0
  9 24  2  0  0  0  0
 10 25  1  0  0  0  0
 11 12  2  0  0  0  0
 11 26  1  0  0  0  0
 12 27  1  0  0  0  0
 13 21  1  0  0  0  0
 13 25  2  0  0  0  0
 14 27  2  0  0  0  0
 14 28  1  0  0  0  0
 15 29  1  0  0  0  0
 15 65  2  0  0  0  0
 16 30  1  0  0  0  0
 17 30  1  0  0  0  0
 17 32  2  0  0  0  0
 17 33  1  0  0  0  0
 18 20  2  0  0  0  0
 18 38  1  0  0  0  0
 19 21  2  0  0  0  0
 19 39  1  0  0  0  0
 20 47  1  0  0  0  0
 21 40  1  0  0  0  0
 22 23  1  0  0  0  0
 22 29  2  0  0  0  0
 22 56  1  0  0  0  0
 23 31  2  0  0  0  0
 23 57  1  0  0  0  0
 24 81  1  0  0  0  0
 25 82  1  0  0  0  0
 26 28  2  0  0  0  0
 26 81  1  0  0  0  0
 27 83  1  0  0  0  0
 28 84  1  0  0  0  0
 29 85  1  0  0  0  0
 30 66  2  0  0  0  0
 31 58  1  0  0  0  0
 31 65  1  0  0  0  0
 32 67  1  0  0  0  0
 32 70  1  0  0  0  0
 33 71  1  0  0  0  0
 33 76  2  0  0  0  0
 34 48  1  0  0  0  0
 34 72  1  0  0  0  0
 34 77  2  0  0  0  0
 35 62  1  0  0  0  0
 35 68  1  0  0  0  0
 35 78  2  0  0  0  0
 36 63  1  0  0  0  0
 36 73  1  0  0  0  0
 36 79  2  0  0  0  0
 37 69  1  0  0  0  0
 37 74  1  0  0  0  0
 37 80  2  0  0  0  0
 38 41  1  0  0  0  0
 39 48  1  0  0  0  0
 40 68  1  0  0  0  0
 41 43  1  0  0  0  0
 42 44  1  0  0  0  0
 42 45  1  0  0  0  0
 43 47  1  0  0  0  0
 44 49  1  0  0  0  0
 45 69  1  0  0  0  0
 46 49  1  0  0  0  0
 46 69  1  0  0  0  0
 47 72  1  0  0  0  0
 48 68  1  0  0  0  0
 49 67  1  0  0  0  0
 50 58  1  0  0  0  0
 51 63  1  0  0  0  0
 52 64  1  0  0  0  0
 53 64  1  0  0  0  0
 54 64  1  0  0  0  0
 55 75  1  0  0  0  0
 56 59  1  0  0  0  0
 57 61  1  0  0  0  0
 59 60  1  0  0  0  0
 60 74  1  0  0  0  0
 61 82  1  0  0  0  0
 62 64  1  0  0  0  0
 62 73  1  0  0  0  0
 63 75  1  0  0  0  0
 66 67  1  0  0  0  0
M  CHG  1  75   1
M  ISO  4  37 100  61 101  74 100  82 101
M  END
> <Batch ID>
0027

> <Smiles>
CCc1ncc(Cl)c(CCC[100NH:0][100C:0](=O)N2CCCC(n3nc(-c4ccc(Oc5ccc(F)cc5F)cc4)c(C(N)=O)c3N)C2)c1C[101CH2:1][101O:1]c1ccc2c(c1)CN(C(=O)C(NC(=O)C(C)NC)C(C)(C)C)C(C(=O)NC1CCCc3ccccc31)C2

> <Shape>
0.171

> <Color>
0.078

> <Negative vol penalty>
0.000

$$$$

  -OEChem-04052316303D

 88 96  0     1  0  0  0  0  0999 V2000
  -26.2246  -37.4497   22.5648 C   0  0  0  0  0  0  0  0  0  0  0  0
  -26.8852  -36.3362   22.0559 C   0  0  0  0  0  0  0  0  0  0  0  0
  -24.5770   -8.6770   21.3673 C   0  0  0  0  0  0  0  0  0  0  0  0
  -23.2567  -10.6748   21.6880 C   0  0  0  0  0  0  0  0  0  0  0  0
  -25.2484  -37.2909   23.5475 C   0  0  0  0  0  0  0  0  0  0  0  0
  -26.5706  -35.0632   22.5301 C   0  0  0  0  0  0  0  0  0  0  0  0
  -26.5349  -29.8452   19.3243 C   0  0  0  0  0  0  0  0  0  0  0  0
  -23.8470   -8.0341   22.3669 C   0  0  0  0  0  0  0  0  0  0  0  0
  -22.5267  -10.0318   22.6876 C   0  0  0  0  0  0  0  0  0  0  0  0
  -27.4664  -28.8155   19.1981 C   0  0  0  0  0  0  0  0  0  0  0  0
  -20.8325   -6.5340   22.6765 C   0  0  0  0  0  0  0  0  0  0  0  0
  -20.3977   -5.2325   22.4263 C   0  0  0  0  0  0  0  0  0  0  0  0
  -26.3048  -27.5640   20.9021 C   0  0  0  0  0  0  0  0  0  0  0  0
  -21.6555   -4.4459   24.3333 C   0  0  0  0  0  0  0  0  0  0  0  0
  -24.2819   -9.9974   21.0278 C   0  0  0  0  0  0  0  0  0  0  0  0
  -24.7477  -10.6931   18.6181 C   0  0  0  0  0  0  0  0  0  0  0  0
  -24.9149  -36.0144   24.0271 C   0  0  0  0  0  0  0  0  0  0  0  0
  -25.4859  -29.7465   20.2497 C   0  0  0  0  0  0  0  0  0  0  0  0
  -25.5900  -34.8872   23.5211 C   0  0  0  0  0  0  0  0  0  0  0  0
  -25.3599  -28.5927   21.0363 C   0  0  0  0  0  0  0  0  0  0  0  0
  -26.6961  -18.3211   20.6920 C   0  0  0  0  0  0  0  0  0  0  0  0
  -22.8218   -8.7115   23.0271 C   0  0  0  0  0  0  0  0  0  0  0  0
  -27.3531  -27.6759   19.9890 C   0  0  0  0  0  0  0  0  0  0  0  0
  -21.6789   -6.7915   23.7550 C   0  0  0  0  0  0  0  0  0  0  0  0
  -20.8091   -4.1884   23.2547 C   0  0  0  0  0  0  0  0  0  0  0  0
  -22.0903   -5.7474   24.5834 C   0  0  0  0  0  0  0  0  0  0  0  0
  -25.0361  -10.6623   19.9957 C   0  0  0  0  0  0  0  0  0  0  0  0
  -25.8418  -18.2899   21.8105 C   0  0  0  0  0  0  0  0  0  0  0  0
  -25.9556  -18.9347   19.7114 C   0  0  0  0  0  0  0  0  0  0  0  0
  -25.7569  -11.4485   18.0729 C   0  0  0  0  0  0  0  0  0  0  0  0
  -23.6644  -10.0925   17.8959 C   0  0  0  0  0  0  0  0  0  0  0  0
  -24.5933  -31.4004   22.8132 C   0  0  0  0  0  0  0  0  0  0  0  0
  -22.0240  -29.4227   22.7130 C   0  0  0  0  0  0  0  0  0  0  0  0
  -20.7023  -26.4382   21.7167 C   0  0  0  0  0  0  0  0  0  0  0  0
  -29.3379  -15.6932   20.3112 C   0  0  0  0  0  0  0  0  0  0  0  0
  -23.8862  -35.8969   25.1238 C   0  0  0  0  0  0  0  0  0  0  0  0
  -24.4740  -30.8544   20.3548 C   0  0  0  0  0  0  0  0  0  0  0  0
  -24.2403  -28.4290   22.0304 C   0  0  0  0  0  0  0  0  0  0  0  0
  -23.3472  -34.4801   25.3040 C   0  0  0  0  0  0  0  0  0  0  0  0
  -30.3370  -12.6422   18.7718 C   0  0  0  0  0  0  0  0  0  0  0  0
  -24.4914  -33.4715   25.3196 C   0  0  0  0  0  0  0  0  0  0  0  0
  -29.0657  -11.7916   18.7866 C   0  0  0  0  0  0  0  0  0  0  0  0
  -30.4562  -13.5009   20.0290 C   0  0  0  0  0  0  0  0  0  0  0  0
  -28.0102  -13.4948   20.3306 C   0  0  0  0  0  0  0  0  0  0  0  0
  -25.2592  -33.4877   23.9923 C   0  0  1  0  0  0  0  0  0  0  0  0
  -23.7427  -30.8706   21.6936 C   0  0  1  0  0  0  0  0  0  0  0  0
  -27.8177  -12.6532   19.0574 C   0  0  2  0  0  0  0  0  0  0  0  0
  -26.4286  -18.8230   24.1891 C   0  0  0  0  0  0  0  0  0  0  0  0
  -26.5415  -17.9986   17.4596 C   0  0  0  0  0  0  0  0  0  0  0  0
  -18.5883  -25.0895   21.8135 C   0  0  0  0  0  0  0  0  0  0  0  0
  -22.6075  -28.7215   25.6247 C   0  0  0  0  0  0  0  0  0  0  0  0
  -21.1120  -26.7296   25.3719 C   0  0  0  0  0  0  0  0  0  0  0  0
  -20.1835  -29.0277   25.0910 C   0  0  0  0  0  0  0  0  0  0  0  0
  -23.6247  -19.8721   19.6481 C   0  0  0  0  0  0  0  0  0  0  0  0
  -20.4452  -26.4146   18.7684 C   0  0  0  0  0  0  0  0  0  0  0  0
  -28.0744  -17.8108   20.5919 C   0  0  0  0  0  0  0  0  0  0  0  0
  -26.1238  -17.7394   23.1479 C   0  0  0  0  0  0  0  0  0  0  0  0
  -28.3231  -22.6239   18.2639 C   0  0  0  0  0  0  0  0  0  0  0  0
  -27.9967  -24.1045   18.4837 C   0  0  0  0  0  0  0  0  0  0  0  0
  -27.1050  -21.7058   18.3946 C   0  0  0  0  0  0  0  0  0  0  0  0
  -29.2222  -25.0191   18.3843 C   0  0  0  0  0  0  0  0  0  0  0  0
  -27.4852  -20.2420   18.1346 C   0  0  0  0  0  0  0  0  0  0  0  0
  -28.8612  -26.4866   18.5865 C   0  0  0  0  0  0  0  0  0  1  0  0
  -26.2883  -19.2763   18.2691 C   0  0  2  0  0  0  0  0  0  0  0  0
  -21.6907  -28.0724   23.3000 C   0  0  1  0  0  0  0  0  0  0  0  0
  -19.4002  -26.0973   21.0148 C   0  0  2  0  0  0  0  0  0  0  0  0
  -21.4208  -28.1414   24.8296 C   0  0  0  0  0  0  0  0  0  0  0  0
  -26.1419  -11.3438   20.3064 N   0  0  0  0  0  0  0  0  0  0  0  0
  -24.6498  -18.8401   21.5644 N   0  0  0  0  0  0  0  0  0  0  0  0
  -24.7499  -19.2229   20.2801 N   0  0  0  0  0  0  0  0  0  0  0  0
  -26.5574  -11.8099   19.1163 N   0  0  0  0  0  0  0  0  0  0  0  0
  -23.2797  -29.5424   22.1008 N   0  0  0  0  0  0  0  0  0  0  0  0
  -29.2409  -14.2945   20.2275 N   0  0  0  0  0  0  0  0  0  0  0  0
  -26.0288  -11.8322   16.8075 N   0  0  0  0  0  0  0  0  0  0  0  0
  -22.7153   -9.3496   18.6110 N   0  0  0  0  0  0  0  0  0  0  0  0
  -24.5225  -32.7710   22.9735 N   0  0  0  0  0  0  0  0  0  0  0  0
  -20.5737  -27.5522   22.5189 N   0  0  0  0  0  0  0  0  0  0  0  0
  -28.1378  -16.3696   20.4934 N   0  0  0  0  0  0  0  0  0  0  0  0
  -19.6733  -25.5195   19.6685 N   0  3  0  0  0  0  0  0  0  0  0  0
  -23.5509  -10.1976   16.6511 O   0  0  0  0  0  0  0  0  0  0  0  0
  -25.2630  -30.6229   23.4831 O   0  0  0  0  0  0  0  0  0  0  0  0
  -21.1977  -30.3355   22.7884 O   0  0  0  0  0  0  0  0  0  0  0  0
  -21.7298  -25.7797   21.5710 O   0  0  0  0  0  0  0  0  0  0  0  0
  -30.4136  -16.2952   20.2243 O   0  0  0  0  0  0  0  0  0  0  0  0
  -22.1091   -8.0843   24.0024 O   0  0  0  0  0  0  0  0  0  0  0  0
  -28.2613  -26.6697   19.8683 O   0  0  0  0  0  0  0  0  0  1  0  0
  -20.3903   -2.9389   23.0154 F   0  0  0  0  0  0  0  0  0  0  0  0
  -22.9024   -5.9888   25.6217 F   0  0  0  0  0  0  0  0  0  0  0  0
  1  2  1  0  0  0  0
  1  5  2  0  0  0  0
  2  6  2  0  0  0  0
  3  8  2  0  0  0  0
  3 15  1  0  0  0  0
  4  9  1  0  0  0  0
  4 15  2  0  0  0  0
  5 17  1  0  0  0  0
  6 19  1  0  0  0  0
  7 10  2  0  0  0  0
  7 18  1  0  0  0  0
  8 22  1  0  0  0  0
  9 22  2  0  0  0  0
 10 23  1  0  0  0  0
 11 12  2  0  0  0  0
 11 24  1  0  0  0  0
 12 25  1  0  0  0  0
 13 20  1  0  0  0  0
 13 23  2  0  0  0  0
 14 25  2  0  0  0  0
 14 26  1  0  0  0  0
 15 27  1  0  0  0  0
 16 27  1  0  0  0  0
 16 30  2  0  0  0  0
 16 31  1  0  0  0  0
 17 19  2  0  0  0  0
 17 36  1  0  0  0  0
 18 20  2  0  0  0  0
 18 37  1  0  0  0  0
 19 45  1  0  0  0  0
 20 38  1  0  0  0  0
 21 28  1  0  0  0  0
 21 29  2  0  0  0  0
 21 56  1  0  0  0  0
 22 85  1  0  0  0  0
 23 86  1  0  0  0  0
 24 26  2  0  0  0  0
 24 85  1  0  0  0  0
 25 87  1  0  0  0  0
 26 88  1  0  0  0  0
 27 68  2  0  0  0  0
 28 57  1  0  0  0  0
 28 69  2  0  0  0  0
 29 64  1  0  0  0  0
 29 70  1  0  0  0  0
 30 71  1  0  0  0  0
 30 74  1  0  0  0  0
 31 75  1  0  0  0  0
 31 80  2  0  0  0  0
 32 46  1  0  0  0  0
 32 76  1  0  0  0  0
 32 81  2  0  0  0  0
 33 65  1  0  0  0  0
 33 72  1  0  0  0  0
 33 82  2  0  0  0  0
 34 66  1  0  0  0  0
 34 77  1  0  0  0  0
 34 83  2  0  0  0  0
 35 73  1  0  0  0  0
 35 78  1  0  0  0  0
 35 84  2  0  0  0  0
 36 39  1  0  0  0  0
 37 46  1  0  0  0  0
 38 72  1  0  0  0  0
 39 41  1  0  0  0  0
 40 42  1  0  0  0  0
 40 43  1  0  0  0  0
 41 45  1  0  0  0  0
 42 47  1  0  0  0  0
 43 73  1  0  0  0  0
 44 47  1  0  0  0  0
 44 73  1  0  0  0  0
 45 76  1  0  0  0  0
 46 72  1  0  0  0  0
 47 71  1  0  0  0  0
 48 57  1  0  0  0  0
 49 64  1  0  0  0  0
 50 66  1  0  0  0  0
 51 67  1  0  0  0  0
 52 67  1  0  0  0  0
 53 67  1  0  0  0  0
 54 70  1  0  0  0  0
 55 79  1  0  0  0  0
 56 78  1  0  0  0  0
 58 59  1  0  0  0  0
 58 60  1  0  0  0  0
 59 61  1  0  0  0  0
 60 62  1  0  0  0  0
 61 63  1  0  0  0  0
 62 64  1  0  0  0  0
 63 86  1  0  0  0  0
 65 67  1  0  0  0  0
 65 77  1  0  0  0  0
 66 79  1  0  0  0  0
 68 71  1  0  0  0  0
 69 70  1  0  0  0  0
M  CHG  1  79   1
M  ISO  4  35 100  63 101  78 100  86 101
M  END
> <Batch ID>
0027

> <Smiles>
CCc1nn(C)c(C(C)CCCCC[101CH2:1][101O:1]c2ccc3c(c2)CN(C(=O)C(NC(=O)C(C)NC)C(C)(C)C)C(C(=O)NC2CCCc4ccccc42)C3)c1C[100NH:0][100C:0](=O)N1CCCC(n2nc(-c3ccc(Oc4ccc(F)cc4F)cc3)c(C(N)=O)c2N)C1

> <Shape>
0.323

> <Color>
0.102

> <Negative vol penalty>
0.000

$$$$

  -OEChem-04052316303D

 88 96  0     1  0  0  0  0  0999 V2000
  -23.6893   -7.7315   21.7342 C   0  0  0  0  0  0  0  0  0  0  0  0
  -24.1912   -8.6853   20.8546 C   0  0  0  0  0  0  0  0  0  0  0  0
  -26.3534  -26.0276   18.5437 C   0  0  0  0  0  0  0  0  0  0  0  0
  -26.5941  -26.2428   20.9380 C   0  0  0  0  0  0  0  0  0  0  0  0
  -22.5120   -7.9841   22.4371 C   0  0  0  0  0  0  0  0  0  0  0  0
  -23.5154   -9.8920   20.6767 C   0  0  0  0  0  0  0  0  0  0  0  0
  -26.6308  -13.8844   20.6951 C   0  0  0  0  0  0  0  0  0  0  0  0
  -33.5648  -14.1989   16.4599 C   0  0  0  0  0  0  0  0  0  0  0  0
  -33.6729  -14.5715   17.7997 C   0  0  0  0  0  0  0  0  0  0  0  0
  -25.4046  -27.0499   18.5472 C   0  0  0  0  0  0  0  0  0  0  0  0
  -25.6453  -27.2652   20.9415 C   0  0  0  0  0  0  0  0  0  0  0  0
  -27.3592  -14.1290   19.5318 C   0  0  0  0  0  0  0  0  0  0  0  0
  -25.5357  -30.5619   20.2064 C   0  0  0  0  0  0  0  0  0  0  0  0
  -25.8180  -31.7035   20.9566 C   0  0  0  0  0  0  0  0  0  0  0  0
  -25.7741  -15.8362   18.9055 C   0  0  0  0  0  0  0  0  0  0  0  0
  -23.8357  -31.3214   22.2839 C   0  0  0  0  0  0  0  0  0  0  0  0
  -26.9482  -25.6239   19.7392 C   0  0  0  0  0  0  0  0  0  0  0  0
  -29.3212  -24.7006   19.5846 C   0  0  0  0  0  0  0  0  0  0  0  0
  -21.8266   -9.1985   22.2750 C   0  0  0  0  0  0  0  0  0  0  0  0
  -25.4607  -14.6075   20.9675 C   0  0  0  0  0  0  0  0  0  0  0  0
  -22.3271  -10.1606   21.3771 C   0  0  0  0  0  0  0  0  0  0  0  0
  -25.0341  -15.6006   20.0743 C   0  0  0  0  0  0  0  0  0  0  0  0
  -32.9744  -15.0658   15.5404 C   0  0  0  0  0  0  0  0  0  0  0  0
  -33.1904  -15.8110   18.2200 C   0  0  0  0  0  0  0  0  0  0  0  0
  -32.4919  -16.3053   15.9607 C   0  0  0  0  0  0  0  0  0  0  0  0
  -25.0505  -27.6688   19.7460 C   0  0  0  0  0  0  0  0  0  0  0  0
  -26.9293  -15.1030   18.6353 C   0  0  0  0  0  0  0  0  0  0  0  0
  -24.4033  -29.8001   20.4949 C   0  0  0  0  0  0  0  0  0  0  0  0
  -24.9680  -32.0832   21.9953 C   0  0  0  0  0  0  0  0  0  0  0  0
  -23.5534  -30.1799   21.5337 C   0  0  0  0  0  0  0  0  0  0  0  0
  -32.5999  -16.6779   17.3005 C   0  0  0  0  0  0  0  0  0  0  0  0
  -27.9280  -24.5675   19.7364 C   0  0  0  0  0  0  0  0  0  0  0  0
  -29.7984  -23.4145   19.6531 C   0  0  0  0  0  0  0  0  0  0  0  0
  -30.1131  -25.8812   19.3984 C   0  0  0  0  0  0  0  0  0  0  0  0
  -22.3958  -13.8548   21.3471 C   0  0  0  0  0  0  0  0  0  0  0  0
  -22.1259  -16.9903   22.1332 C   0  0  0  0  0  0  0  0  0  0  0  0
  -23.3773  -20.1561   21.8908 C   0  0  0  0  0  0  0  0  0  0  0  0
  -29.9237  -18.5102   22.0776 C   0  0  0  0  0  0  0  0  0  0  0  0
  -20.5325   -9.4069   23.0209 C   0  0  0  0  0  0  0  0  0  0  0  0
  -24.7009  -14.3501   22.2399 C   0  0  0  0  0  0  0  0  0  0  0  0
  -23.7957  -16.4186   20.3303 C   0  0  0  0  0  0  0  0  0  0  0  0
  -20.0783  -10.8638   23.0572 C   0  0  0  0  0  0  0  0  0  0  0  0
  -27.3559  -18.9852   19.5721 C   0  0  0  0  0  0  0  0  0  0  0  0
  -20.1847  -11.4909   21.6707 C   0  0  0  0  0  0  0  0  0  0  0  0
  -27.3947  -20.5025   19.3806 C   0  0  0  0  0  0  0  0  0  0  0  0
  -27.5802  -18.6064   21.0330 C   0  0  0  0  0  0  0  0  0  0  0  0
  -28.8781  -20.6628   21.4334 C   0  0  0  0  0  0  0  0  0  0  0  0
  -21.6361  -11.4917   21.1756 C   0  0  1  0  0  0  0  0  0  0  0  0
  -23.2421  -14.7898   22.1641 C   0  0  1  0  0  0  0  0  0  0  0  0
  -28.6802  -21.1093   19.9733 C   0  0  2  0  0  0  0  0  0  0  0  0
  -32.8717  -14.6405   14.1122 C   0  0  0  0  0  0  0  0  0  0  0  0
  -23.5930  -22.6154   22.3410 C   0  0  0  0  0  0  0  0  0  0  0  0
  -19.9266  -17.1997   20.0285 C   0  0  0  0  0  0  0  0  0  0  0  0
  -20.1767  -19.6893   20.1154 C   0  0  0  0  0  0  0  0  0  0  0  0
  -19.4606  -18.4376   22.1509 C   0  0  0  0  0  0  0  0  0  0  0  0
  -25.1544  -19.6933   24.2118 C   0  0  0  0  0  0  0  0  0  0  0  0
  -33.3269  -16.1666   19.6659 C   0  0  0  0  0  0  0  0  0  0  0  0
  -31.8556  -17.2259   14.9498 C   0  0  0  0  0  0  0  0  0  0  0  0
  -32.0022  -16.0122   20.4265 C   0  0  0  0  0  0  0  0  0  0  0  0
  -30.4117  -16.8530   14.5950 C   0  0  0  0  0  0  0  0  0  0  0  0
  -29.4892  -16.7983   15.8168 C   0  0  0  0  0  0  0  0  0  0  0  0
  -32.1467  -16.4142   21.8973 C   0  0  0  0  0  0  0  0  0  0  0  0
  -28.0566  -16.4538   15.4133 C   0  0  0  0  0  0  0  0  0  0  0  0
  -30.8398  -16.2821   22.6724 C   0  0  0  0  0  0  0  0  0  0  0  0
  -27.1402  -16.3555   16.6247 C   0  0  0  0  0  0  0  0  0  1  0  0
  -21.8588  -18.2648   21.3694 C   0  0  1  0  0  0  0  0  0  0  0  0
  -23.6381  -21.2194   22.9425 C   0  0  2  0  0  0  0  0  0  0  0  0
  -20.3780  -18.3813   20.9100 C   0  0  0  0  0  0  0  0  0  0  0  0
  -27.5450  -23.2971   19.8896 N   0  0  0  0  0  0  0  0  0  0  0  0
  -28.7047  -22.6202   19.8343 N   0  0  0  0  0  0  0  0  0  0  0  0
  -23.0836  -16.1254   21.5851 N   0  0  0  0  0  0  0  0  0  0  0  0
  -28.8292  -19.2002   21.5307 N   0  0  0  0  0  0  0  0  0  0  0  0
  -31.0428  -22.8969   19.5752 N   0  0  0  0  0  0  0  0  0  0  0  0
  -29.4624  -27.1217   19.3515 N   0  0  0  0  0  0  0  0  0  0  0  0
  -22.3864  -12.5534   21.8115 N   0  0  0  0  0  0  0  0  0  0  0  0
  -22.3057  -19.3565   22.2279 N   0  0  0  0  0  0  0  0  0  0  0  0
  -29.7946  -17.1281   22.1404 N   0  0  0  0  0  0  0  0  0  0  0  0
  -24.9786  -21.0175   23.5617 N   0  3  0  0  0  0  0  0  0  0  0  0
  -31.3591  -25.8359   19.2607 O   0  0  0  0  0  0  0  0  0  0  0  0
  -21.7948  -14.2828   20.3687 O   0  0  0  0  0  0  0  0  0  0  0  0
  -21.5126  -16.7737   23.1813 O   0  0  0  0  0  0  0  0  0  0  0  0
  -24.0539  -20.0483   20.8705 O   0  0  0  0  0  0  0  0  0  0  0  0
  -30.9436  -19.0831   22.4759 O   0  0  0  0  0  0  0  0  0  0  0  0
  -24.1249  -28.6666   19.7497 O   0  0  0  0  0  0  0  0  0  0  0  0
  -27.6381  -15.3433   17.4988 O   0  0  0  0  0  0  0  0  0  1  0  0
  -25.2401  -33.1786   22.7166 F   0  0  0  0  0  0  0  0  0  0  0  0
  -22.4647  -29.4513   21.8163 F   0  0  0  0  0  0  0  0  0  0  0  0
  -31.9981  -18.2146   17.8270 Cl  0  0  0  0  0  0  0  0  0  0  0  0
  1  2  1  0  0  0  0
  1  5  2  0  0  0  0
  2  6  2  0  0  0  0
  3 10  2  0  0  0  0
  3 17  1  0  0  0  0
  4 11  1  0  0  0  0
  4 17  2  0  0  0  0
  5 19  1  0  0  0  0
  6 21  1  0  0  0  0
  7 12  2  0  0  0  0
  7 20  1  0  0  0  0
  8  9  1  0  0  0  0
  8 23  2  0  0  0  0
  9 24  2  0  0  0  0
 10 26  1  0  0  0  0
 11 26  2  0  0  0  0
 12 27  1  0  0  0  0
 13 14  2  0  0  0  0
 13 28  1  0  0  0  0
 14 29  1  0  0  0  0
 15 22  1  0  0  0  0
 15 27  2  0  0  0  0
 16 29  2  0  0  0  0
 16 30  1  0  0  0  0
 17 32  1  0  0  0  0
 18 32  1  0  0  0  0
 18 33  2  0  0  0  0
 18 34  1  0  0  0  0
 19 21  2  0  0  0  0
 19 39  1  0  0  0  0
 20 22  2  0  0  0  0
 20 40  1  0  0  0  0
 21 48  1  0  0  0  0
 22 41  1  0  0  0  0
 23 25  1  0  0  0  0
 23 51  1  0  0  0  0
 24 31  1  0  0  0  0
 24 57  1  0  0  0  0
 25 31  2  0  0  0  0
 25 58  1  0  0  0  0
 26 84  1  0  0  0  0
 27 85  1  0  0  0  0
 28 30  2  0  0  0  0
 28 84  1  0  0  0  0
 29 86  1  0  0  0  0
 30 87  1  0  0  0  0
 31 88  1  0  0  0  0
 32 69  2  0  0  0  0
 33 70  1  0  0  0  0
 33 73  1  0  0  0  0
 34 74  1  0  0  0  0
 34 79  2  0  0  0  0
 35 49  1  0  0  0  0
 35 75  1  0  0  0  0
 35 80  2  0  0  0  0
 36 66  1  0  0  0  0
 36 71  1  0  0  0  0
 36 81  2  0  0  0  0
 37 67  1  0  0  0  0
 37 76  1  0  0  0  0
 37 82  2  0  0  0  0
 38 72  1  0  0  0  0
 38 77  1  0  0  0  0
 38 83  2  0  0  0  0
 39 42  1  0  0  0  0
 40 49  1  0  0  0  0
 41 71  1  0  0  0  0
 42 44  1  0  0  0  0
 43 45  1  0  0  0  0
 43 46  1  0  0  0  0
 44 48  1  0  0  0  0
 45 50  1  0  0  0  0
 46 72  1  0  0  0  0
 47 50  1  0  0  0  0
 47 72  1  0  0  0  0
 48 75  1  0  0  0  0
 49 71  1  0  0  0  0
 50 70  1  0  0  0  0
 52 67  1  0  0  0  0
 53 68  1  0  0  0  0
 54 68  1  0  0  0  0
 55 68  1  0  0  0  0
 56 78  1  0  0  0  0
 57 59  1  0  0  0  0
 58 60  1  0  0  0  0
 59 62  1  0  0  0  0
 60 61  1  0  0  0  0
 61 63  1  0  0  0  0
 62 64  1  0  0  0  0
 63 65  1  0  0  0  0
 64 77  1  0  0  0  0
 65 85  1  0  0  0  0
 66 68  1  0  0  0  0
 66 76  1  0  0  0  0
 67 78  1  0  0  0  0
 69 70  1  0  0  0  0
M  CHG  1  78   1
M  ISO  4  38 100  65 101  77 100  85 101
M  END
> <Batch ID>
0027

> <Smiles>
CNC(C)C(=O)NC(C(=O)N1Cc2cc([101O:1][101CH2:1]CCCCc3c(C)ccc(CCCC[100NH:0][100C:0](=O)N4CCCC(n5nc(-c6ccc(Oc7ccc(F)cc7F)cc6)c(C(N)=O)c5N)C4)c3Cl)ccc2CC1C(=O)NC1CCCc2ccccc21)C(C)(C)C

> <Shape>
0.242

> <Color>
0.064

> <Negative vol penalty>
0.000

$$$$

  -OEChem-04052316303D

 87 96  0     1  0  0  0  0  0999 V2000
  -24.1435  -16.5519   26.3773 C   0  0  0  0  0  0  0  0  0  0  0  0
  -24.9969  -17.5830   25.9978 C   0  0  0  0  0  0  0  0  0  0  0  0
  -23.1807  -10.2743   22.1817 C   0  0  0  0  0  0  0  0  0  0  0  0
  -23.8030   -9.3052   20.0579 C   0  0  0  0  0  0  0  0  0  0  0  0
  -22.7791  -16.6417   26.1045 C   0  0  0  0  0  0  0  0  0  0  0  0
  -24.4865  -18.7041   25.3443 C   0  0  0  0  0  0  0  0  0  0  0  0
  -26.3429  -23.0400   27.1877 C   0  0  0  0  0  0  0  0  0  0  0  0
  -22.4707   -9.1172   22.5017 C   0  0  0  0  0  0  0  0  0  0  0  0
  -23.0930   -8.1480   20.3779 C   0  0  0  0  0  0  0  0  0  0  0  0
  -27.6290  -23.4023   26.7895 C   0  0  0  0  0  0  0  0  0  0  0  0
  -23.1596   -6.0001   23.6162 C   0  0  0  0  0  0  0  0  0  0  0  0
  -23.3235   -5.4722   24.8969 C   0  0  0  0  0  0  0  0  0  0  0  0
  -29.5537  -19.5579   22.7060 C   0  0  0  0  0  0  0  0  0  0  0  0
  -26.6921  -24.9231   25.1682 C   0  0  0  0  0  0  0  0  0  0  0  0
  -31.3750  -17.8091   21.5197 C   0  0  0  0  0  0  0  0  0  0  0  0
  -20.9595   -5.7469   25.3127 C   0  0  0  0  0  0  0  0  0  0  0  0
  -23.8469  -10.3684   20.9597 C   0  0  0  0  0  0  0  0  0  0  0  0
  -24.0698  -12.8712   20.5198 C   0  0  0  0  0  0  0  0  0  0  0  0
  -22.2504  -17.7688   25.4559 C   0  0  0  0  0  0  0  0  0  0  0  0
  -25.2198  -23.6094   26.5706 C   0  0  0  0  0  0  0  0  0  0  0  0
  -23.1140  -18.8084   25.0614 C   0  0  0  0  0  0  0  0  0  0  0  0
  -30.8530  -19.9847   22.4315 C   0  0  0  0  0  0  0  0  0  0  0  0
  -25.3928  -24.5682   25.5621 C   0  0  0  0  0  0  0  0  0  0  0  0
  -29.1650  -18.2567   22.3874 C   0  0  0  0  0  0  0  0  0  0  0  0
  -31.7636  -19.1103   21.8384 C   0  0  0  0  0  0  0  0  0  0  0  0
  -30.0757  -17.3823   21.7942 C   0  0  0  0  0  0  0  0  0  0  0  0
  -22.4268   -8.0540   21.5998 C   0  0  0  0  0  0  0  0  0  0  0  0
  -27.8037  -24.3418   25.7776 C   0  0  0  0  0  0  0  0  0  0  0  0
  -21.8955   -6.4014   23.1838 C   0  0  0  0  0  0  0  0  0  0  0  0
  -22.2235   -5.3456   25.7451 C   0  0  0  0  0  0  0  0  0  0  0  0
  -20.7955   -6.2748   24.0321 C   0  0  0  0  0  0  0  0  0  0  0  0
  -24.5800  -11.5637   20.6284 C   0  0  0  0  0  0  0  0  0  0  0  0
  -25.1595  -13.6385   20.1874 C   0  0  0  0  0  0  0  0  0  0  0  0
  -22.7307  -13.3496   20.7031 C   0  0  0  0  0  0  0  0  0  0  0  0
  -22.7862  -22.4835   24.8637 C   0  0  0  0  0  0  0  0  0  0  0  0
  -21.7251  -25.5411   25.0828 C   0  0  0  0  0  0  0  0  0  0  0  0
  -23.1550  -28.8465   24.8663 C   0  0  0  0  0  0  0  0  0  0  0  0
  -30.4951  -15.0763   20.8708 C   0  0  0  0  0  0  0  0  0  0  0  0
  -20.7759  -17.7996   25.1403 C   0  0  0  0  0  0  0  0  0  0  0  0
  -23.8394  -23.2277   27.0300 C   0  0  0  0  0  0  0  0  0  0  0  0
  -24.2200  -25.2240   24.8818 C   0  0  0  0  0  0  0  0  0  0  0  0
  -20.2593  -19.1897   24.7786 C   0  0  0  0  0  0  0  0  0  0  0  0
  -29.8242  -12.2906   18.7572 C   0  0  0  0  0  0  0  0  0  0  0  0
  -30.0743  -22.3823   22.6489 C   0  0  0  0  0  0  0  0  0  0  0  0
  -31.8846  -21.4863   24.1867 C   0  0  0  0  0  0  0  0  0  0  0  0
  -21.1937  -19.8629   23.7783 C   0  0  0  0  0  0  0  0  0  0  0  0
  -28.3581  -11.9607   19.0467 C   0  0  0  0  0  0  0  0  0  0  0  0
  -30.4850  -23.8121   23.0063 C   0  0  0  0  0  0  0  0  0  0  0  0
  -32.2881  -22.9195   24.5391 C   0  0  0  0  0  0  0  0  0  0  0  0
  -30.5625  -12.7442   20.0153 C   0  0  0  0  0  0  0  0  0  0  0  0
  -28.4575  -13.5155   21.0366 C   0  0  0  0  0  0  0  0  0  0  0  0
  -31.2529  -21.4052   22.7877 C   0  0  0  0  0  0  0  0  0  0  0  0
  -22.5945  -20.0519   24.3728 C   0  0  1  0  0  0  0  0  0  0  0  0
  -22.7657  -23.4907   25.9786 C   0  0  1  0  0  0  0  0  0  0  0  0
  -27.6560  -13.1160   19.7869 C   0  0  2  0  0  0  0  0  0  0  0  0
  -31.1312  -23.9349   24.4045 C   0  0  0  0  0  0  0  0  0  0  0  0
  -27.7669  -17.8266   22.6925 C   0  0  0  0  0  0  0  0  0  0  0  0
  -33.1600  -19.5449   21.5355 C   0  0  0  0  0  0  0  0  0  0  0  0
  -31.6944  -25.3589   24.5714 C   0  0  0  0  0  0  0  0  0  0  0  0
  -22.4148  -31.0146   25.8906 C   0  0  0  0  0  0  0  0  0  0  0  0
  -20.2765  -25.9653   22.4311 C   0  0  0  0  0  0  0  0  0  0  0  0
  -20.8997  -28.3868   22.5579 C   0  0  0  0  0  0  0  0  0  0  0  0
  -19.4409  -27.3825   24.3146 C   0  0  0  0  0  0  0  0  0  0  0  0
  -25.7884  -29.2740   26.1474 C   0  0  0  0  0  0  0  0  0  0  0  0
  -30.0803  -23.7088   25.5087 C   0  0  0  0  0  0  0  0  0  1  0  0
  -21.8993  -26.7947   24.2599 C   0  0  1  0  0  0  0  0  0  0  0  0
  -23.3564  -29.8261   26.0084 C   0  0  2  0  0  0  0  0  0  0  0  0
  -20.6492  -27.1122   23.3917 C   0  0  0  0  0  0  0  0  0  0  0  0
  -25.8917  -11.5001   20.3846 N   0  0  0  0  0  0  0  0  0  0  0  0
  -26.2149  -12.7773   20.1194 N   0  0  0  0  0  0  0  0  0  0  0  0
  -22.8903  -24.8129   25.3619 N   0  0  0  0  0  0  0  0  0  0  0  0
  -29.8417  -13.8435   20.6609 N   0  0  0  0  0  0  0  0  0  0  0  0
  -25.3082  -14.9590   19.9496 N   0  0  0  0  0  0  0  0  0  0  0  0
  -21.7321  -12.4265   21.0426 N   0  0  0  0  0  0  0  0  0  0  0  0
  -29.6999  -16.0569   21.4630 N   0  0  0  0  0  0  0  0  0  0  0  0
  -22.6102  -21.1782   25.2814 N   0  0  0  0  0  0  0  0  0  0  0  0
  -22.2593  -27.8522   25.1983 N   0  0  0  0  0  0  0  0  0  0  0  0
  -24.7571  -30.3349   26.0134 N   0  3  0  0  0  0  0  0  0  0  0  0
  -22.4254  -14.5570   20.5536 O   0  0  0  0  0  0  0  0  0  0  0  0
  -22.9481  -22.8629   23.7097 O   0  0  0  0  0  0  0  0  0  0  0  0
  -20.5977  -25.2235   25.4698 O   0  0  0  0  0  0  0  0  0  0  0  0
  -23.7315  -28.9549   23.7863 O   0  0  0  0  0  0  0  0  0  0  0  0
  -31.6650  -15.2580   20.5240 O   0  0  0  0  0  0  0  0  0  0  0  0
  -21.7343   -6.9246   21.9118 O   0  0  0  0  0  0  0  0  0  0  0  0
  -29.0579  -24.6968   25.3866 O   0  0  0  0  0  0  0  0  0  1  0  0
  -22.3808   -4.8373   26.9743 F   0  0  0  0  0  0  0  0  0  0  0  0
  -19.5785   -6.6576   23.6219 F   0  0  0  0  0  0  0  0  0  0  0  0
  1  2  1  0  0  0  0
  1  5  2  0  0  0  0
  2  6  2  0  0  0  0
  3  8  2  0  0  0  0
  3 17  1  0  0  0  0
  4  9  1  0  0  0  0
  4 17  2  0  0  0  0
  5 19  1  0  0  0  0
  6 21  1  0  0  0  0
  7 10  2  0  0  0  0
  7 20  1  0  0  0  0
  8 27  1  0  0  0  0
  9 27  2  0  0  0  0
 10 28  1  0  0  0  0
 11 12  2  0  0  0  0
 11 29  1  0  0  0  0
 12 30  1  0  0  0  0
 13 22  1  0  0  0  0
 13 24  2  0  0  0  0
 14 23  1  0  0  0  0
 14 28  2  0  0  0  0
 15 25  1  0  0  0  0
 15 26  2  0  0  0  0
 16 30  2  0  0  0  0
 16 31  1  0  0  0  0
 17 32  1  0  0  0  0
 18 32  1  0  0  0  0
 18 33  2  0  0  0  0
 18 34  1  0  0  0  0
 19 21  2  0  0  0  0
 19 39  1  0  0  0  0
 20 23  2  0  0  0  0
 20 40  1  0  0  0  0
 21 53  1  0  0  0  0
 22 25  2  0  0  0  0
 22 52  1  0  0  0  0
 23 41  1  0  0  0  0
 24 26  1  0  0  0  0
 24 57  1  0  0  0  0
 25 58  1  0  0  0  0
 26 75  1  0  0  0  0
 27 84  1  0  0  0  0
 28 85  1  0  0  0  0
 29 31  2  0  0  0  0
 29 84  1  0  0  0  0
 30 86  1  0  0  0  0
 31 87  1  0  0  0  0
 32 69  2  0  0  0  0
 33 70  1  0  0  0  0
 33 73  1  0  0  0  0
 34 74  1  0  0  0  0
 34 79  2  0  0  0  0
 35 54  1  0  0  0  0
 35 76  1  0  0  0  0
 35 80  2  0  0  0  0
 36 66  1  0  0  0  0
 36 71  1  0  0  0  0
 36 81  2  0  0  0  0
 37 67  1  0  0  0  0
 37 77  1  0  0  0  0
 37 82  2  0  0  0  0
 38 72  1  0  0  0  0
 38 75  1  0  0  0  0
 38 83  2  0  0  0  0
 39 42  1  0  0  0  0
 40 54  1  0  0  0  0
 41 71  1  0  0  0  0
 42 46  1  0  0  0  0
 43 47  1  0  0  0  0
 43 50  1  0  0  0  0
 44 48  1  0  0  0  0
 44 52  1  0  0  0  0
 45 49  1  0  0  0  0
 45 52  1  0  0  0  0
 46 53  1  0  0  0  0
 47 55  1  0  0  0  0
 48 56  1  0  0  0  0
 49 56  1  0  0  0  0
 50 72  1  0  0  0  0
 51 55  1  0  0  0  0
 51 72  1  0  0  0  0
 53 76  1  0  0  0  0
 54 71  1  0  0  0  0
 55 70  1  0  0  0  0
 56 59  1  0  0  0  0
 56 65  1  0  0  0  0
 60 67  1  0  0  0  0
 61 68  1  0  0  0  0
 62 68  1  0  0  0  0
 63 68  1  0  0  0  0
 64 78  1  0  0  0  0
 65 85  1  0  0  0  0
 66 68  1  0  0  0  0
 66 77  1  0  0  0  0
 67 78  1  0  0  0  0
 69 70  1  0  0  0  0
M  CHG  1  78   1
M  ISO  4  38 100  65 101  75 100  85 101
M  END
> <Batch ID>
0027

> <Smiles>
CNC(C)C(=O)NC(C(=O)N1Cc2cc([101O:1][101CH2:1]C3(C)CCC(c4cc(C)c([100NH:0][100C:0](=O)N5CCCC(n6nc(-c7ccc(Oc8ccc(F)cc8F)cc7)c(C(N)=O)c6N)C5)cc4C)CC3)ccc2CC1C(=O)NC1CCCc2ccccc21)C(C)(C)C

> <Shape>
0.207

> <Color>
0.192

> <Negative vol penalty>
0.000

$$$$

  -OEChem-04052316303D

 89 97  0     1  0  0  0  0  0999 V2000
  -22.9238  -19.9336   23.7129 C   0  0  0  0  0  0  0  0  0  0  0  0
  -24.2105  -20.4525   23.6106 C   0  0  0  0  0  0  0  0  0  0  0  0
  -22.9972   -9.9690   20.2406 C   0  0  0  0  0  0  0  0  0  0  0  0
  -23.7675  -10.1618   22.5224 C   0  0  0  0  0  0  0  0  0  0  0  0
  -21.8596  -20.5837   23.0894 C   0  0  0  0  0  0  0  0  0  0  0  0
  -24.4339  -21.6214   22.8838 C   0  0  0  0  0  0  0  0  0  0  0  0
  -28.5317  -26.0007   24.1232 C   0  0  0  0  0  0  0  0  0  0  0  0
  -22.2147   -8.8708   20.5975 C   0  0  0  0  0  0  0  0  0  0  0  0
  -22.9850   -9.0637   22.8794 C   0  0  0  0  0  0  0  0  0  0  0  0
  -29.8048  -26.2638   23.6195 C   0  0  0  0  0  0  0  0  0  0  0  0
  -19.7338   -8.4393   23.5578 C   0  0  0  0  0  0  0  0  0  0  0  0
  -18.9813   -8.5347   24.7284 C   0  0  0  0  0  0  0  0  0  0  0  0
  -28.8561  -27.8449   22.0641 C   0  0  0  0  0  0  0  0  0  0  0  0
  -30.4524  -25.0175   19.6326 C   0  0  0  0  0  0  0  0  0  0  0  0
  -32.4995  -24.2152   18.6314 C   0  0  0  0  0  0  0  0  0  0  0  0
  -20.1578   -6.6314   25.6398 C   0  0  0  0  0  0  0  0  0  0  0  0
  -23.7737  -10.6144   21.2030 C   0  0  0  0  0  0  0  0  0  0  0  0
  -24.2029  -13.1040   20.8486 C   0  0  0  0  0  0  0  0  0  0  0  0
  -22.0686  -21.7664   22.3627 C   0  0  0  0  0  0  0  0  0  0  0  0
  -27.4080  -26.6509   23.5929 C   0  0  0  0  0  0  0  0  0  0  0  0
  -23.3717  -22.2872   22.2489 C   0  0  0  0  0  0  0  0  0  0  0  0
  -27.5701  -27.5903   22.5646 C   0  0  0  0  0  0  0  0  0  0  0  0
  -31.7875  -25.2216   19.2840 C   0  0  0  0  0  0  0  0  0  0  0  0
  -30.5414  -22.8007   18.6761 C   0  0  0  0  0  0  0  0  0  0  0  0
  -22.2085   -8.4182   21.9169 C   0  0  0  0  0  0  0  0  0  0  0  0
  -29.9668  -27.1838   22.5879 C   0  0  0  0  0  0  0  0  0  0  0  0
  -20.6982   -7.4398   23.4281 C   0  0  0  0  0  0  0  0  0  0  0  0
  -19.1933   -7.6309   25.7694 C   0  0  0  0  0  0  0  0  0  0  0  0
  -20.9102   -6.5360   24.4691 C   0  0  0  0  0  0  0  0  0  0  0  0
  -29.8294  -23.8071   19.3287 C   0  0  0  0  0  0  0  0  0  0  0  0
  -31.8765  -23.0048   18.3274 C   0  0  0  0  0  0  0  0  0  0  0  0
  -24.5827  -11.7485   20.8348 C   0  0  0  0  0  0  0  0  0  0  0  0
  -25.3188  -13.7776   20.4158 C   0  0  0  0  0  0  0  0  0  0  0  0
  -22.9531  -13.7008   21.2196 C   0  0  0  0  0  0  0  0  0  0  0  0
  -24.7670  -25.7053   22.0981 C   0  0  0  0  0  0  0  0  0  0  0  0
  -23.9587  -28.8348   22.3722 C   0  0  0  0  0  0  0  0  0  0  0  0
  -24.9815  -32.0698   22.7400 C   0  0  0  0  0  0  0  0  0  0  0  0
  -30.8356  -14.6161   20.5012 C   0  0  0  0  0  0  0  0  0  0  0  0
  -20.8944  -22.4077   21.6666 C   0  0  0  0  0  0  0  0  0  0  0  0
  -26.0446  -26.3758   24.1655 C   0  0  0  0  0  0  0  0  0  0  0  0
  -26.3985  -28.3301   21.9745 C   0  0  0  0  0  0  0  0  0  0  0  0
  -21.1574  -23.8462   21.2284 C   0  0  0  0  0  0  0  0  0  0  0  0
  -29.6044  -12.0621   18.3476 C   0  0  0  0  0  0  0  0  0  0  0  0
  -22.5130  -23.9543   20.5374 C   0  0  0  0  0  0  0  0  0  0  0  0
  -28.1596  -11.8606   18.8080 C   0  0  0  0  0  0  0  0  0  0  0  0
  -30.5343  -12.3609   19.5216 C   0  0  0  0  0  0  0  0  0  0  0  0
  -28.6657  -13.2839   20.8370 C   0  0  0  0  0  0  0  0  0  0  0  0
  -23.6504  -23.5665   21.4901 C   0  0  1  0  0  0  0  0  0  0  0  0
  -24.9121  -26.7151   23.2012 C   0  0  1  0  0  0  0  0  0  0  0  0
  -27.6805  -13.0352   19.6820 C   0  0  2  0  0  0  0  0  0  0  0  0
  -24.0927  -34.4116   22.8927 C   0  0  0  0  0  0  0  0  0  0  0  0
  -27.4918  -19.6607   19.1388 C   0  0  0  0  0  0  0  0  0  0  0  0
  -23.4704  -28.8433   19.3603 C   0  0  0  0  0  0  0  0  0  0  0  0
  -23.5228  -31.3455   19.4292 C   0  0  0  0  0  0  0  0  0  0  0  0
  -21.7710  -30.1010   20.6962 C   0  0  0  0  0  0  0  0  0  0  0  0
  -26.1018  -32.4419   25.4539 C   0  0  0  0  0  0  0  0  0  0  0  0
  -32.4612  -26.5298   19.6131 C   0  0  0  0  0  0  0  0  0  0  0  0
  -29.8724  -21.5003   18.3502 C   0  0  0  0  0  0  0  0  0  0  0  0
  -33.1382  -26.5458   20.9853 C   0  0  0  0  0  0  0  0  0  0  0  0
  -30.7382  -17.9374   20.4713 C   0  0  0  0  0  0  0  0  0  0  0  0
  -29.2592  -18.3325   20.3646 C   0  0  0  0  0  0  0  0  0  0  0  0
  -30.9823  -16.8684   21.5330 C   0  0  0  0  0  0  0  0  0  0  0  0
  -32.1605  -26.3802   22.1430 C   0  0  0  0  0  0  0  0  0  1  0  0
  -24.1590  -30.0688   21.5260 C   0  0  1  0  0  0  0  0  0  0  0  0
  -24.5140  -33.1745   23.6704 C   0  0  2  0  0  0  0  0  0  0  0  0
  -28.9786  -19.3493   19.2519 C   0  0  2  0  0  0  0  0  0  0  0  0
  -23.2529  -30.0745   20.2625 C   0  0  0  0  0  0  0  0  0  0  0  0
  -25.8414  -11.5698   20.4254 N   0  0  0  0  0  0  0  0  0  0  0  0
  -26.2623  -12.8219   20.1780 N   0  0  0  0  0  0  0  0  0  0  0  0
  -25.0849  -28.0220   22.5638 N   0  0  0  0  0  0  0  0  0  0  0  0
  -30.0241  -13.4859   20.3090 N   0  0  0  0  0  0  0  0  0  0  0  0
  -25.5753  -15.0884   20.2193 N   0  0  0  0  0  0  0  0  0  0  0  0
  -21.9117  -12.8630   21.6412 N   0  0  0  0  0  0  0  0  0  0  0  0
  -23.9317  -24.6492   22.4084 N   0  0  0  0  0  0  0  0  0  0  0  0
  -23.9551  -31.2093   22.4126 N   0  0  0  0  0  0  0  0  0  0  0  0
  -30.2732  -15.6395   21.2542 N   0  0  0  0  0  0  0  0  0  0  0  0
  -25.6065  -33.5585   24.6085 N   0  3  0  0  0  0  0  0  0  0  0  0
  -29.6915  -20.6232   19.5364 N   0  3  0  0  0  0  0  0  0  0  0  0
  -22.7603  -14.9390   21.1628 O   0  0  0  0  0  0  0  0  0  0  0  0
  -25.3672  -25.8728   21.0429 O   0  0  0  0  0  0  0  0  0  0  0  0
  -22.8457  -28.6045   22.8517 O   0  0  0  0  0  0  0  0  0  0  0  0
  -26.1404  -31.9815   22.3404 O   0  0  0  0  0  0  0  0  0  0  0  0
  -31.9749  -14.7087   20.0317 O   0  0  0  0  0  0  0  0  0  0  0  0
  -21.4449   -7.3469   22.2656 O   0  0  0  0  0  0  0  0  0  0  0  0
  -31.2083  -27.4419   22.0939 O   0  0  0  0  0  0  0  0  0  1  0  0
  -18.4718   -7.7236   26.8941 F   0  0  0  0  0  0  0  0  0  0  0  0
  -21.8361   -5.5744   24.3509 F   0  0  0  0  0  0  0  0  0  0  0  0
  -28.1754  -23.5965   19.7788 Cl  0  0  0  0  0  0  0  0  0  0  0  0
  -32.7953  -21.7858   17.5196 Cl  0  0  0  0  0  0  0  0  0  0  0  0
  1  2  1  0  0  0  0
  1  5  2  0  0  0  0
  2  6  2  0  0  0  0
  3  8  2  0  0  0  0
  3 17  1  0  0  0  0
  4  9  1  0  0  0  0
  4 17  2  0  0  0  0
  5 19  1  0  0  0  0
  6 21  1  0  0  0  0
  7 10  2  0  0  0  0
  7 20  1  0  0  0  0
  8 25  1  0  0  0  0
  9 25  2  0  0  0  0
 10 26  1  0  0  0  0
 11 12  2  0  0  0  0
 11 27  1  0  0  0  0
 12 28  1  0  0  0  0
 13 22  1  0  0  0  0
 13 26  2  0  0  0  0
 14 23  1  0  0  0  0
 14 30  2  0  0  0  0
 15 23  2  0  0  0  0
 15 31  1  0  0  0  0
 16 28  2  0  0  0  0
 16 29  1  0  0  0  0
 17 32  1  0  0  0  0
 18 32  1  0  0  0  0
 18 33  2  0  0  0  0
 18 34  1  0  0  0  0
 19 21  2  0  0  0  0
 19 39  1  0  0  0  0
 20 22  2  0  0  0  0
 20 40  1  0  0  0  0
 21 48  1  0  0  0  0
 22 41  1  0  0  0  0
 23 57  1  0  0  0  0
 24 30  1  0  0  0  0
 24 31  2  0  0  0  0
 24 58  1  0  0  0  0
 25 84  1  0  0  0  0
 26 85  1  0  0  0  0
 27 29  2  0  0  0  0
 27 84  1  0  0  0  0
 28 86  1  0  0  0  0
 29 87  1  0  0  0  0
 30 88  1  0  0  0  0
 31 89  1  0  0  0  0
 32 68  2  0  0  0  0
 33 69  1  0  0  0  0
 33 72  1  0  0  0  0
 34 73  1  0  0  0  0
 34 79  2  0  0  0  0
 35 49  1  0  0  0  0
 35 74  1  0  0  0  0
 35 80  2  0  0  0  0
 36 64  1  0  0  0  0
 36 70  1  0  0  0  0
 36 81  2  0  0  0  0
 37 65  1  0  0  0  0
 37 75  1  0  0  0  0
 37 82  2  0  0  0  0
 38 71  1  0  0  0  0
 38 76  1  0  0  0  0
 38 83  2  0  0  0  0
 39 42  1  0  0  0  0
 40 49  1  0  0  0  0
 41 70  1  0  0  0  0
 42 44  1  0  0  0  0
 43 45  1  0  0  0  0
 43 46  1  0  0  0  0
 44 48  1  0  0  0  0
 45 50  1  0  0  0  0
 46 71  1  0  0  0  0
 47 50  1  0  0  0  0
 47 71  1  0  0  0  0
 48 74  1  0  0  0  0
 49 70  1  0  0  0  0
 50 69  1  0  0  0  0
 51 65  1  0  0  0  0
 52 66  1  0  0  0  0
 53 67  1  0  0  0  0
 54 67  1  0  0  0  0
 55 67  1  0  0  0  0
 56 77  1  0  0  0  0
 57 59  1  0  0  0  0
 58 78  1  0  0  0  0
 59 63  1  0  0  0  0
 60 61  1  0  0  0  0
 60 62  1  0  0  0  0
 61 66  1  0  0  0  0
 62 76  1  0  0  0  0
 63 85  1  0  0  0  0
 64 67  1  0  0  0  0
 64 75  1  0  0  0  0
 65 77  1  0  0  0  0
 66 78  1  0  0  0  0
 68 69  1  0  0  0  0
M  CHG  2  77   1  78   1
M  ISO  4  38 100  63 101  76 100  85 101
M  END
> <Batch ID>
0027

> <Smiles>
CNC(C)C(=O)NC(C(=O)N1Cc2cc([101O:1][101CH2:1]CCc3cc(Cl)c(CNC(C)CCC[100NH:0][100C:0](=O)N4CCCC(n5nc(-c6ccc(Oc7ccc(F)cc7F)cc6)c(C(N)=O)c5N)C4)c(Cl)c3)ccc2CC1C(=O)NC1CCCc2ccccc21)C(C)(C)C

> <Shape>
0.325

> <Color>
0.210

> <Negative vol penalty>
0.000

$$$$

  -OEChem-04052316303D

 82 90  0     1  0  0  0  0  0999 V2000
  -19.3342  -28.1682   23.9421 C   0  0  0  0  0  0  0  0  0  0  0  0
  -19.1179  -26.8006   23.8074 C   0  0  0  0  0  0  0  0  0  0  0  0
  -30.0220  -23.7035   19.5631 C   0  0  0  0  0  0  0  0  0  0  0  0
  -28.4513  -23.7494   21.3982 C   0  0  0  0  0  0  0  0  0  0  0  0
  -19.5398  -28.9552   22.8097 C   0  0  0  0  0  0  0  0  0  0  0  0
  -19.1060  -26.2193   22.5399 C   0  0  0  0  0  0  0  0  0  0  0  0
  -21.1004  -20.6278   21.0354 C   0  0  0  0  0  0  0  0  0  0  0  0
  -29.8205  -25.0682   19.3565 C   0  0  0  0  0  0  0  0  0  0  0  0
  -28.2498  -25.1141   21.1917 C   0  0  0  0  0  0  0  0  0  0  0  0
  -20.4381  -19.4164   20.8414 C   0  0  0  0  0  0  0  0  0  0  0  0
  -26.5085  -27.0812   19.0635 C   0  0  0  0  0  0  0  0  0  0  0  0
  -25.1954  -27.5516   19.0761 C   0  0  0  0  0  0  0  0  0  0  0  0
  -20.3791  -19.8360   18.4666 C   0  0  0  0  0  0  0  0  0  0  0  0
  -22.8424  -14.5259   22.5652 C   0  0  0  0  0  0  0  0  0  0  0  0
  -25.7339  -29.0050   20.9294 C   0  0  0  0  0  0  0  0  0  0  0  0
  -29.3373  -23.0441   20.5839 C   0  0  0  0  0  0  0  0  0  0  0  0
  -30.5042  -21.0333   21.6340 C   0  0  0  0  0  0  0  0  0  0  0  0
  -19.5401  -28.3817   21.5285 C   0  0  0  0  0  0  0  0  0  0  0  0
  -21.3979  -21.4589   19.9458 C   0  0  0  0  0  0  0  0  0  0  0  0
  -19.3105  -26.9996   21.3892 C   0  0  0  0  0  0  0  0  0  0  0  0
  -21.0476  -21.0562   18.6492 C   0  0  0  0  0  0  0  0  0  0  0  0
  -23.4008  -14.0778   21.3427 C   0  0  0  0  0  0  0  0  0  0  0  0
  -28.9344  -25.7735   20.1708 C   0  0  0  0  0  0  0  0  0  0  0  0
  -20.0748  -19.0217   19.5571 C   0  0  0  0  0  0  0  0  0  0  0  0
  -27.4343  -27.5726   19.9839 C   0  0  0  0  0  0  0  0  0  0  0  0
  -24.8081  -28.5135   20.0090 C   0  0  0  0  0  0  0  0  0  0  0  0
  -27.0470  -28.5345   20.9168 C   0  0  0  0  0  0  0  0  0  0  0  0
  -29.5446  -21.6343   20.7975 C   0  0  0  0  0  0  0  0  0  0  0  0
  -30.2915  -19.6844   21.4868 C   0  0  0  0  0  0  0  0  0  0  0  0
  -21.4819  -14.6358   22.3802 C   0  0  0  0  0  0  0  0  0  0  0  0
  -22.3645  -13.9278   20.4477 C   0  0  0  0  0  0  0  0  0  0  0  0
  -31.4989  -21.6401   22.4696 C   0  0  0  0  0  0  0  0  0  0  0  0
  -20.5764  -24.4057   19.0823 C   0  0  0  0  0  0  0  0  0  0  0  0
  -22.7296  -23.8923   16.7111 C   0  0  0  0  0  0  0  0  0  0  0  0
  -24.4219  -21.6536   14.7691 C   0  0  0  0  0  0  0  0  0  0  0  0
  -25.9882  -16.0077   20.8733 C   0  0  0  0  0  0  0  0  0  0  0  0
  -19.7198  -29.2806   20.3308 C   0  0  0  0  0  0  0  0  0  0  0  0
  -22.1365  -22.7500   20.1690 C   0  0  0  0  0  0  0  0  0  0  0  0
  -21.3619  -21.9028   17.4437 C   0  0  0  0  0  0  0  0  0  0  0  0
  -20.0649  -28.5262   19.0494 C   0  0  0  0  0  0  0  0  0  0  0  0
  -28.1131  -16.8522   18.0681 C   0  0  0  0  0  0  0  0  0  0  0  0
  -19.1468  -27.3204   18.8761 C   0  0  0  0  0  0  0  0  0  0  0  0
  -28.7963  -18.1233   18.5759 C   0  0  0  0  0  0  0  0  0  0  0  0
  -26.6573  -16.7886   18.5206 C   0  0  0  0  0  0  0  0  0  0  0  0
  -27.1468  -18.1673   20.5039 C   0  0  0  0  0  0  0  0  0  0  0  0
  -19.3151  -26.3281   20.0331 C   0  0  1  0  0  0  0  0  0  0  0  0
  -21.9317  -23.7581   19.0424 C   0  0  1  0  0  0  0  0  0  0  0  0
  -28.6278  -18.2798   20.0988 C   0  0  2  0  0  0  0  0  0  0  0  0
  -26.0787  -20.8249   13.0763 C   0  0  0  0  0  0  0  0  0  0  0  0
  -20.5426  -24.6644   14.7285 C   0  0  0  0  0  0  0  0  0  0  0  0
  -21.9216  -23.6317   12.9119 C   0  0  0  0  0  0  0  0  0  0  0  0
  -22.8071  -25.5805   14.1928 C   0  0  0  0  0  0  0  0  0  0  0  0
  -26.5569  -21.4141   16.8046 C   0  0  0  0  0  0  0  0  0  0  0  0
  -24.8324  -13.8224   21.0870 C   0  0  0  0  0  0  0  0  0  0  0  0
  -19.5332  -15.4526   19.5770 C   0  0  0  0  0  0  0  0  0  0  0  0
  -19.8276  -14.2462   20.4713 C   0  0  0  0  0  0  0  0  0  0  0  0
  -19.7066  -16.7891   20.2890 C   0  0  0  0  0  0  0  0  0  1  0  0
  -22.6670  -23.3197   15.3157 C   0  0  1  0  0  0  0  0  0  0  0  0
  -25.8909  -21.5478   14.4011 C   0  0  2  0  0  0  0  0  0  0  0  0
  -21.9768  -24.2838   14.3099 C   0  0  0  0  0  0  0  0  0  0  0  0
  -28.7794  -20.7405   20.1655 N   0  0  0  0  0  0  0  0  0  0  0  0
  -29.2579  -19.5641   20.6050 N   0  0  0  0  0  0  0  0  0  0  0  0
  -21.2028  -14.2701   21.0892 N   0  0  0  0  0  0  0  0  0  0  0  0
  -22.0798  -23.1593   17.7143 N   0  0  0  0  0  0  0  0  0  0  0  0
  -26.5680  -16.9251   19.9813 N   0  0  0  0  0  0  0  0  0  0  0  0
  -30.8896  -18.6013   22.0267 N   0  0  0  0  0  0  0  0  0  0  0  0
  -31.5803  -23.0388   22.5034 N   0  0  0  0  0  0  0  0  0  0  0  0
  -20.5213  -25.5478   19.8582 N   0  0  0  0  0  0  0  0  0  0  0  0
  -24.0360  -22.9637   14.9587 N   0  0  0  0  0  0  0  0  0  0  0  0
  -25.4566  -14.8605   20.2972 N   0  0  0  0  0  0  0  0  0  0  0  0
  -26.6361  -20.8011   15.4537 N   0  3  0  0  0  0  0  0  0  0  0  0
  -32.3027  -20.9616   23.1531 O   0  0  0  0  0  0  0  0  0  0  0  0
  -19.6498  -23.9069   18.4544 O   0  0  0  0  0  0  0  0  0  0  0  0
  -23.3389  -24.9471   16.9052 O   0  0  0  0  0  0  0  0  0  0  0  0
  -23.6892  -20.6725   14.8741 O   0  0  0  0  0  0  0  0  0  0  0  0
  -25.9518  -16.1946   22.0943 O   0  0  0  0  0  0  0  0  0  0  0  0
  -28.7377  -27.1052   19.9696 O   0  0  0  0  0  0  0  0  0  0  0  0
  -19.4276  -17.8401   19.3650 O   0  0  0  0  0  0  0  0  0  1  0  0
  -23.5476  -28.9663   20.0199 F   0  0  0  0  0  0  0  0  0  0  0  0
  -27.9322  -29.0113   21.8028 F   0  0  0  0  0  0  0  0  0  0  0  0
  -20.2482  -15.1194   23.4449 Cl  0  0  0  0  0  0  0  0  0  0  0  0
  -22.3483  -13.4259   18.8220 Cl  0  0  0  0  0  0  0  0  0  0  0  0
  1  2  1  0  0  0  0
  1  5  2  0  0  0  0
  2  6  2  0  0  0  0
  3  8  2  0  0  0  0
  3 16  1  0  0  0  0
  4  9  1  0  0  0  0
  4 16  2  0  0  0  0
  5 18  1  0  0  0  0
  6 20  1  0  0  0  0
  7 10  2  0  0  0  0
  7 19  1  0  0  0  0
  8 23  1  0  0  0  0
  9 23  2  0  0  0  0
 10 24  1  0  0  0  0
 11 12  2  0  0  0  0
 11 25  1  0  0  0  0
 12 26  1  0  0  0  0
 13 21  1  0  0  0  0
 13 24  2  0  0  0  0
 14 22  1  0  0  0  0
 14 30  2  0  0  0  0
 15 26  2  0  0  0  0
 15 27  1  0  0  0  0
 16 28  1  0  0  0  0
 17 28  1  0  0  0  0
 17 29  2  0  0  0  0
 17 32  1  0  0  0  0
 18 20  2  0  0  0  0
 18 37  1  0  0  0  0
 19 21  2  0  0  0  0
 19 38  1  0  0  0  0
 20 46  1  0  0  0  0
 21 39  1  0  0  0  0
 22 31  2  0  0  0  0
 22 54  1  0  0  0  0
 23 77  1  0  0  0  0
 24 78  1  0  0  0  0
 25 27  2  0  0  0  0
 25 77  1  0  0  0  0
 26 79  1  0  0  0  0
 27 80  1  0  0  0  0
 28 61  2  0  0  0  0
 29 62  1  0  0  0  0
 29 66  1  0  0  0  0
 30 63  1  0  0  0  0
 30 81  1  0  0  0  0
 31 63  1  0  0  0  0
 31 82  1  0  0  0  0
 32 67  1  0  0  0  0
 32 72  2  0  0  0  0
 33 47  1  0  0  0  0
 33 68  1  0  0  0  0
 33 73  2  0  0  0  0
 34 58  1  0  0  0  0
 34 64  1  0  0  0  0
 34 74  2  0  0  0  0
 35 59  1  0  0  0  0
 35 69  1  0  0  0  0
 35 75  2  0  0  0  0
 36 65  1  0  0  0  0
 36 70  1  0  0  0  0
 36 76  2  0  0  0  0
 37 40  1  0  0  0  0
 38 47  1  0  0  0  0
 39 64  1  0  0  0  0
 40 42  1  0  0  0  0
 41 43  1  0  0  0  0
 41 44  1  0  0  0  0
 42 46  1  0  0  0  0
 43 48  1  0  0  0  0
 44 65  1  0  0  0  0
 45 48  1  0  0  0  0
 45 65  1  0  0  0  0
 46 68  1  0  0  0  0
 47 64  1  0  0  0  0
 48 62  1  0  0  0  0
 49 59  1  0  0  0  0
 50 60  1  0  0  0  0
 51 60  1  0  0  0  0
 52 60  1  0  0  0  0
 53 71  1  0  0  0  0
 54 70  1  0  0  0  0
 55 56  1  0  0  0  0
 55 57  1  0  0  0  0
 56 63  1  0  0  0  0
 57 78  1  0  0  0  0
 58 60  1  0  0  0  0
 58 69  1  0  0  0  0
 59 71  1  0  0  0  0
 61 62  1  0  0  0  0
M  CHG  1  71   1
M  ISO  4  36 100  57 101  70 100  78 101
M  END
> <Batch ID>
0027

> <Smiles>
CNC(C)C(=O)NC(C(=O)N1Cc2cc([101O:1][101CH2:1]CCn3c(Cl)cc(C[100NH:0][100C:0](=O)N4CCCC(n5nc(-c6ccc(Oc7ccc(F)cc7F)cc6)c(C(N)=O)c5N)C4)c3Cl)ccc2CC1C(=O)NC1CCCc2ccccc21)C(C)(C)C

> <Shape>
0.185

> <Color>
0.085

> <Negative vol penalty>
0.000

$$$$

  -OEChem-04052316303D

 93102  0     1  0  0  0  0  0999 V2000
  -19.7640   -9.9066   22.6454 C   0  0  0  0  0  0  0  0  0  0  0  0
  -20.5194  -11.0465   22.9013 C   0  0  0  0  0  0  0  0  0  0  0  0
  -25.7334  -30.1457   20.4395 C   0  0  0  0  0  0  0  0  0  0  0  0
  -23.8798  -28.8528   21.2939 C   0  0  0  0  0  0  0  0  0  0  0  0
  -20.3379   -8.8275   21.9745 C   0  0  0  0  0  0  0  0  0  0  0  0
  -21.8496  -11.1075   22.4873 C   0  0  0  0  0  0  0  0  0  0  0  0
  -23.0048  -15.5297   20.3069 C   0  0  0  0  0  0  0  0  0  0  0  0
  -25.4508  -31.1573   21.3573 C   0  0  0  0  0  0  0  0  0  0  0  0
  -23.5973  -29.8644   22.2118 C   0  0  0  0  0  0  0  0  0  0  0  0
  -23.2252  -16.6174   21.1508 C   0  0  0  0  0  0  0  0  0  0  0  0
  -25.9671  -31.7529   24.6454 C   0  0  0  0  0  0  0  0  0  0  0  0
  -27.0370  -32.3106   25.3452 C   0  0  0  0  0  0  0  0  0  0  0  0
  -25.6062  -16.3046   20.9223 C   0  0  0  0  0  0  0  0  0  0  0  0
  -30.3826  -25.2840   24.0464 C   0  0  0  0  0  0  0  0  0  0  0  0
  -32.4088  -24.8901   22.1697 C   0  0  0  0  0  0  0  0  0  0  0  0
  -26.5115  -34.4797   24.4202 C   0  0  0  0  0  0  0  0  0  0  0  0
  -24.9478  -28.9934   20.4078 C   0  0  0  0  0  0  0  0  0  0  0  0
  -25.2493  -28.0530   18.0557 C   0  0  0  0  0  0  0  0  0  0  0  0
  -21.6729   -8.8791   21.5435 C   0  0  0  0  0  0  0  0  0  0  0  0
  -24.0853  -14.8134   19.7722 C   0  0  0  0  0  0  0  0  0  0  0  0
  -22.4422  -10.0275   21.8111 C   0  0  0  0  0  0  0  0  0  0  0  0
  -25.3969  -15.2098   20.0698 C   0  0  0  0  0  0  0  0  0  0  0  0
  -30.4419  -24.0923   23.3240 C   0  0  0  0  0  0  0  0  0  0  0  0
  -31.4551  -23.8954   22.3856 C   0  0  0  0  0  0  0  0  0  0  0  0
  -32.3493  -26.0818   22.8922 C   0  0  0  0  0  0  0  0  0  0  0  0
  -24.3828  -31.0167   22.2434 C   0  0  0  0  0  0  0  0  0  0  0  0
  -24.5259  -17.0032   21.4610 C   0  0  0  0  0  0  0  0  0  0  0  0
  -25.1694  -32.5586   23.8329 C   0  0  0  0  0  0  0  0  0  0  0  0
  -27.3092  -33.6740   25.2327 C   0  0  0  0  0  0  0  0  0  0  0  0
  -25.4415  -33.9220   23.7203 C   0  0  0  0  0  0  0  0  0  0  0  0
  -31.3362  -26.2788   23.8305 C   0  0  0  0  0  0  0  0  0  0  0  0
  -25.2388  -27.9483   19.4595 C   0  0  0  0  0  0  0  0  0  0  0  0
  -25.5815  -26.7935   17.6200 C   0  0  0  0  0  0  0  0  0  0  0  0
  -24.9827  -29.1873   17.2202 C   0  0  0  0  0  0  0  0  0  0  0  0
  -25.1124  -11.8128   19.9846 C   0  0  0  0  0  0  0  0  0  0  0  0
  -27.2484  -12.7971   17.7507 C   0  0  0  0  0  0  0  0  0  0  0  0
  -28.9499  -15.3803   16.3089 C   0  0  0  0  0  0  0  0  0  0  0  0
  -28.5751  -22.2635   20.1435 C   0  0  0  0  0  0  0  0  0  0  0  0
  -22.2635   -7.6693   20.8637 C   0  0  0  0  0  0  0  0  0  0  0  0
  -23.8310  -13.6590   18.8420 C   0  0  0  0  0  0  0  0  0  0  0  0
  -26.5914  -14.4866   19.5054 C   0  0  0  0  0  0  0  0  0  0  0  0
  -23.5686   -7.9607   20.1276 C   0  0  0  0  0  0  0  0  0  0  0  0
  -25.2493  -22.1885   18.8747 C   0  0  0  0  0  0  0  0  0  0  0  0
  -24.5046   -8.7847   21.0062 C   0  0  0  0  0  0  0  0  0  0  0  0
  -24.8704  -23.6656   18.7540 C   0  0  0  0  0  0  0  0  0  0  0  0
  -29.8622  -21.9984   24.6263 C   0  0  0  0  0  0  0  0  0  0  0  0
  -28.0270  -23.6151   23.9500 C   0  0  0  0  0  0  0  0  0  0  0  0
  -26.1211  -21.9278   20.1010 C   0  0  0  0  0  0  0  0  0  0  0  0
  -26.9479  -24.2494   20.0739 C   0  0  0  0  0  0  0  0  0  0  0  0
  -28.7402  -21.5034   25.5315 C   0  0  0  0  0  0  0  0  0  0  0  0
  -29.3940  -23.0240   23.5764 C   0  0  1  0  0  0  0  0  0  0  0  0
  -23.8810  -10.1413   21.3560 C   0  0  1  0  0  0  0  0  0  0  0  0
  -25.0019  -12.6842   18.7655 C   0  0  1  0  0  0  0  0  0  0  0  0
  -26.1150  -24.5710   18.8213 C   0  0  2  0  0  0  0  0  0  0  0  0
  -26.9482  -22.5265   24.0377 C   0  0  2  0  0  0  0  0  0  0  0  0
  -32.8551  -28.2663   21.7702 C   0  0  0  0  0  0  0  0  0  0  0  0
  -25.0667  -24.1696   24.0334 C   0  0  0  0  0  0  0  0  0  0  0  0
  -30.6531  -15.8692   14.5319 C   0  0  0  0  0  0  0  0  0  0  0  0
  -29.4550  -11.7545   19.5821 C   0  0  0  0  0  0  0  0  0  0  0  0
  -31.0982  -13.0914   18.2478 C   0  0  0  0  0  0  0  0  0  0  0  0
  -29.7973  -11.2658   17.1535 C   0  0  0  0  0  0  0  0  0  0  0  0
  -27.0561  -17.0804   14.7982 C   0  0  0  0  0  0  0  0  0  0  0  0
  -31.5385  -22.6284   21.5994 C   0  0  0  0  0  0  0  0  0  0  0  0
  -33.3882  -27.1241   22.6289 C   0  0  0  0  0  0  0  0  0  0  0  0
  -25.7010  -23.0283   24.7584 C   0  0  0  0  0  0  0  0  0  0  0  0
  -26.1245  -19.5987   23.5064 C   0  0  0  0  0  0  0  0  0  0  0  0
  -31.0066  -22.7600   20.1681 C   0  0  0  0  0  0  0  0  0  0  0  0
  -27.5260  -20.0724   23.8609 C   0  0  0  0  0  0  0  0  0  0  0  0
  -26.1020  -18.4044   22.5604 C   0  0  0  0  0  0  0  0  0  1  0  0
  -28.6255  -13.4146   17.7871 C   0  0  1  0  0  0  0  0  0  0  0  0
  -29.1714  -15.7532   14.8541 C   0  0  2  0  0  0  0  0  0  0  0  0
  -29.7217  -12.3942   18.2050 C   0  0  0  0  0  0  0  0  0  0  0  0
  -25.5402  -26.7194   19.8872 N   0  0  0  0  0  0  0  0  0  0  0  0
  -25.7431  -26.0403   18.7455 N   0  0  0  0  0  0  0  0  0  0  0  0
  -26.2909  -13.3604   18.6059 N   0  0  0  0  0  0  0  0  0  0  0  0
  -27.2849  -22.8175   20.1038 N   0  0  0  0  0  0  0  0  0  0  0  0
  -25.7480  -26.2679   16.3877 N   0  0  0  0  0  0  0  0  0  0  0  0
  -23.6649  -29.4121   16.7993 N   0  0  0  0  0  0  0  0  0  0  0  0
  -23.9873  -11.0505   20.2351 N   0  0  0  0  0  0  0  0  0  0  0  0
  -28.8380  -14.0161   16.4751 N   0  0  0  0  0  0  0  0  0  0  0  0
  -29.6223  -23.1767   20.1368 N   0  0  0  0  0  0  0  0  0  0  0  0
  -27.4664  -21.2831   24.7575 N   0  3  1  0  0  0  0  0  0  0  0  0
  -28.5205  -17.0588   14.5492 N   0  3  0  0  0  0  0  0  0  0  0  0
  -25.8890  -29.9687   16.8442 O   0  0  0  0  0  0  0  0  0  0  0  0
  -26.1426  -11.8296   20.6480 O   0  0  0  0  0  0  0  0  0  0  0  0
  -27.0285  -11.8543   16.9861 O   0  0  0  0  0  0  0  0  0  0  0  0
  -28.8865  -16.2154   17.2084 O   0  0  0  0  0  0  0  0  0  0  0  0
  -28.7787  -21.0451   20.1767 O   0  0  0  0  0  0  0  0  0  0  0  0
  -24.1070  -32.0035   23.1393 O   0  0  0  0  0  0  0  0  0  0  0  0
  -24.7438  -18.0641   22.2850 O   0  0  0  0  0  0  0  0  0  1  0  0
  -28.3358  -34.2097   25.9060 F   0  0  0  0  0  0  0  0  0  0  0  0
  -24.6780  -34.7013   22.9422 F   0  0  0  0  0  0  0  0  0  0  0  0
  -31.2313  -27.7407   24.7422 Cl  0  0  0  0  0  0  0  0  0  0  0  0
  1  2  1  0  0  0  0
  1  5  2  0  0  0  0
  2  6  2  0  0  0  0
  3  8  2  0  0  0  0
  3 17  1  0  0  0  0
  4  9  1  0  0  0  0
  4 17  2  0  0  0  0
  5 19  1  0  0  0  0
  6 21  1  0  0  0  0
  7 10  2  0  0  0  0
  7 20  1  0  0  0  0
  8 26  1  0  0  0  0
  9 26  2  0  0  0  0
 10 27  1  0  0  0  0
 11 12  2  0  0  0  0
 11 28  1  0  0  0  0
 12 29  1  0  0  0  0
 13 22  1  0  0  0  0
 13 27  2  0  0  0  0
 14 23  2  0  0  0  0
 14 31  1  0  0  0  0
 15 24  2  0  0  0  0
 15 25  1  0  0  0  0
 16 29  2  0  0  0  0
 16 30  1  0  0  0  0
 17 32  1  0  0  0  0
 18 32  1  0  0  0  0
 18 33  2  0  0  0  0
 18 34  1  0  0  0  0
 19 21  2  0  0  0  0
 19 39  1  0  0  0  0
 20 22  2  0  0  0  0
 20 40  1  0  0  0  0
 21 52  1  0  0  0  0
 22 41  1  0  0  0  0
 23 24  1  0  0  0  0
 23 51  1  0  0  0  0
 24 63  1  0  0  0  0
 25 31  2  0  0  0  0
 25 64  1  0  0  0  0
 26 89  1  0  0  0  0
 27 90  1  0  0  0  0
 28 30  2  0  0  0  0
 28 89  1  0  0  0  0
 29 91  1  0  0  0  0
 30 92  1  0  0  0  0
 31 93  1  0  0  0  0
 32 73  2  0  0  0  0
 33 74  1  0  0  0  0
 33 77  1  0  0  0  0
 34 78  1  0  0  0  0
 34 84  2  0  0  0  0
 35 53  1  0  0  0  0
 35 79  1  0  0  0  0
 35 85  2  0  0  0  0
 36 70  1  0  0  0  0
 36 75  1  0  0  0  0
 36 86  2  0  0  0  0
 37 71  1  0  0  0  0
 37 80  1  0  0  0  0
 37 87  2  0  0  0  0
 38 76  1  0  0  0  0
 38 81  1  0  0  0  0
 38 88  2  0  0  0  0
 39 42  1  0  0  0  0
 40 53  1  0  0  0  0
 41 75  1  0  0  0  0
 42 44  1  0  0  0  0
 43 45  1  0  0  0  0
 43 48  1  0  0  0  0
 44 52  1  0  0  0  0
 45 54  1  0  0  0  0
 46 50  1  0  0  0  0
 46 51  1  0  0  0  0
 47 51  1  0  0  0  0
 47 55  1  0  0  0  0
 48 76  1  0  0  0  0
 49 54  1  0  0  0  0
 49 76  1  0  0  0  0
 50 82  1  0  0  0  0
 52 79  1  0  0  0  0
 53 75  1  0  0  0  0
 54 74  1  0  0  0  0
 55 65  1  0  0  0  0
 55 82  1  0  0  0  0
 56 64  1  0  0  0  0
 57 65  1  0  0  0  0
 58 71  1  0  0  0  0
 59 72  1  0  0  0  0
 60 72  1  0  0  0  0
 61 72  1  0  0  0  0
 62 83  1  0  0  0  0
 63 67  1  0  0  0  0
 66 68  1  0  0  0  0
 66 69  1  0  0  0  0
 67 81  1  0  0  0  0
 68 82  1  0  0  0  0
 69 90  1  0  0  0  0
 70 72  1  0  0  0  0
 70 80  1  0  0  0  0
 71 83  1  0  0  0  0
 73 74  1  0  0  0  0
M  CHG  2  82   1  83   1
M  ISO  4  38 100  69 101  81 100  90 101
M  END
> <Batch ID>
0027

> <Smiles>
CCc1cc(CC[100NH:0][100C:0](=O)N2CCCC(n3nc(-c4ccc(Oc5ccc(F)cc5F)cc4)c(C(N)=O)c3N)C2)c(C2CCN(CC[101CH2:1][101O:1]c3ccc4c(c3)CN(C(=O)C(NC(=O)C(C)NC)C(C)(C)C)C(C(=O)NC3CCCc5ccccc53)C4)C(CC)C2)cc1Cl

> <Shape>
0.229

> <Color>
0.067

> <Negative vol penalty>
0.000

$$$$

  -OEChem-04052316303D

 86 94  0     1  0  0  0  0  0999 V2000
  -15.3164  -27.6633   25.6496 C   0  0  0  0  0  0  0  0  0  0  0  0
  -15.8963  -26.4891   25.1801 C   0  0  0  0  0  0  0  0  0  0  0  0
  -28.3082  -20.6323   19.9041 C   0  0  0  0  0  0  0  0  0  0  0  0
  -30.6898  -20.3053   19.6629 C   0  0  0  0  0  0  0  0  0  0  0  0
  -15.7660  -28.8971   25.1812 C   0  0  0  0  0  0  0  0  0  0  0  0
  -16.9255  -26.5480   24.2411 C   0  0  0  0  0  0  0  0  0  0  0  0
  -21.7321  -22.7781   23.8057 C   0  0  0  0  0  0  0  0  0  0  0  0
  -28.5415  -21.8153   20.6052 C   0  0  0  0  0  0  0  0  0  0  0  0
  -30.9232  -21.4884   20.3640 C   0  0  0  0  0  0  0  0  0  0  0  0
  -21.9868  -21.6726   22.9952 C   0  0  0  0  0  0  0  0  0  0  0  0
  -32.1404  -24.6091   21.7775 C   0  0  0  0  0  0  0  0  0  0  0  0
  -33.0959  -25.4882   21.2677 C   0  0  0  0  0  0  0  0  0  0  0  0
  -23.1874  -23.0872   21.4535 C   0  0  0  0  0  0  0  0  0  0  0  0
  -24.6939  -15.8408   19.8012 C   0  0  0  0  0  0  0  0  0  0  0  0
  -31.8209  -25.6896   19.2254 C   0  0  0  0  0  0  0  0  0  0  0  0
  -29.3823  -19.8772   19.4330 C   0  0  0  0  0  0  0  0  0  0  0  0
  -28.9810  -18.5079   17.3184 C   0  0  0  0  0  0  0  0  0  0  0  0
  -16.8078  -28.9716   24.2432 C   0  0  0  0  0  0  0  0  0  0  0  0
  -22.1946  -24.0504   23.4401 C   0  0  0  0  0  0  0  0  0  0  0  0
  -17.3886  -27.7840   23.7588 C   0  0  0  0  0  0  0  0  0  0  0  0
  -22.9395  -24.2067   22.2624 C   0  0  0  0  0  0  0  0  0  0  0  0
  -24.7734  -17.1615   19.3595 C   0  0  0  0  0  0  0  0  0  0  0  0
  -25.2256  -17.4394   18.0696 C   0  0  0  0  0  0  0  0  0  0  0  0
  -25.5189  -15.0760   17.6631 C   0  0  0  0  0  0  0  0  0  0  0  0
  -25.0667  -14.7980   18.9530 C   0  0  0  0  0  0  0  0  0  0  0  0
  -29.8490  -22.2434   20.8351 C   0  0  0  0  0  0  0  0  0  0  0  0
  -22.7120  -21.8276   21.8174 C   0  0  0  0  0  0  0  0  0  0  0  0
  -31.0252  -24.2702   21.0112 C   0  0  0  0  0  0  0  0  0  0  0  0
  -32.9361  -26.0285   19.9917 C   0  0  0  0  0  0  0  0  0  0  0  0
  -30.8654  -24.8105   19.7352 C   0  0  0  0  0  0  0  0  0  0  0  0
  -25.5984  -16.3967   17.2214 C   0  0  0  0  0  0  0  0  0  0  0  0
  -29.1418  -18.6548   18.7092 C   0  0  0  0  0  0  0  0  0  0  0  0
  -28.7786  -17.1617   17.1364 C   0  0  0  0  0  0  0  0  0  0  0  0
  -29.0120  -19.4997   16.2835 C   0  0  0  0  0  0  0  0  0  0  0  0
  -20.8104  -26.8262   22.7456 C   0  0  0  0  0  0  0  0  0  0  0  0
  -23.8733  -27.8922   22.6785 C   0  0  0  0  0  0  0  0  0  0  0  0
  -27.1844  -27.1696   22.2766 C   0  0  0  0  0  0  0  0  0  0  0  0
  -26.0652  -12.8177   20.0828 C   0  0  0  0  0  0  0  0  0  0  0  0
  -17.2279  -30.3265   23.7310 C   0  0  0  0  0  0  0  0  0  0  0  0
  -21.9345  -25.2281   24.3388 C   0  0  0  0  0  0  0  0  0  0  0  0
  -23.4757  -25.5478   21.8354 C   0  0  0  0  0  0  0  0  0  0  0  0
  -18.5769  -30.3162   23.0166 C   0  0  0  0  0  0  0  0  0  0  0  0
  -29.7302  -13.0928   19.7628 C   0  0  0  0  0  0  0  0  0  0  0  0
  -18.6512  -29.1526   22.0330 C   0  0  0  0  0  0  0  0  0  0  0  0
  -29.9304  -14.5616   19.3933 C   0  0  0  0  0  0  0  0  0  0  0  0
  -28.4830  -12.8882   20.6176 C   0  0  0  0  0  0  0  0  0  0  0  0
  -27.4391  -14.9074   19.6361 C   0  0  0  0  0  0  0  0  0  0  0  0
  -18.5241  -27.8078   22.7587 C   0  0  1  0  0  0  0  0  0  0  0  0
  -22.0122  -26.5655   23.6088 C   0  0  1  0  0  0  0  0  0  0  0  0
  -28.6640  -15.1403   18.7388 C   0  0  1  0  0  0  0  0  0  0  0  0
  -25.3164  -18.8470   17.5783 C   0  0  0  0  0  0  0  0  0  0  0  0
  -25.9226  -13.9761   16.7353 C   0  0  0  0  0  0  0  0  0  0  0  0
  -29.4470  -28.2543   22.2393 C   0  0  0  0  0  0  0  0  0  0  0  0
  -22.9835  -12.9908   20.7941 C   0  0  0  0  0  0  0  0  0  0  0  0
  -22.7998  -13.3087   18.3064 C   0  0  0  0  0  0  0  0  0  0  0  0
  -23.2978  -28.9914   19.8909 C   0  0  0  0  0  0  0  0  0  0  0  0
  -25.7679  -29.1954   19.5373 C   0  0  0  0  0  0  0  0  0  0  0  0
  -24.6567  -30.5027   21.3481 C   0  0  0  0  0  0  0  0  0  0  0  0
  -28.1228  -25.5585   24.5749 C   0  0  0  0  0  0  0  0  0  0  0  0
  -24.3661  -18.2716   20.2951 C   0  0  0  0  0  0  0  0  0  0  0  0
  -22.8511  -18.4242   20.4471 C   0  0  0  0  0  0  0  0  0  0  0  0
  -22.4503  -19.4911   21.4592 C   0  0  0  0  0  0  0  0  0  1  0  0
  -24.9430  -28.0054   21.6193 C   0  0  1  0  0  0  0  0  0  0  0  0
  -28.4050  -27.5505   23.0947 C   0  0  2  0  0  0  0  0  0  0  0  0
  -23.6644  -12.7864   19.4466 C   0  0  0  0  0  0  0  0  0  0  0  0
  -24.6547  -29.1487   20.6057 C   0  0  0  0  0  0  0  0  0  0  0  0
  -29.0494  -17.4945   19.3643 N   0  0  0  0  0  0  0  0  0  0  0  0
  -28.8282  -16.6057   18.3808 N   0  0  0  0  0  0  0  0  0  0  0  0
  -23.1896  -26.6700   22.7445 N   0  0  0  0  0  0  0  0  0  0  0  0
  -27.3022  -13.4873   19.9943 N   0  0  0  0  0  0  0  0  0  0  0  0
  -28.5648  -16.4111   16.0349 N   0  0  0  0  0  0  0  0  0  0  0  0
  -29.2313  -20.8360   16.6450 N   0  0  0  0  0  0  0  0  0  0  0  0
  -19.7731  -27.4606   23.4021 N   0  0  0  0  0  0  0  0  0  0  0  0
  -26.2092  -28.1429   22.3308 N   0  0  0  0  0  0  0  0  0  0  0  0
  -24.9782  -13.4380   19.4297 N   0  0  0  0  0  0  0  0  0  0  0  0
  -29.0291  -26.3353   23.6905 N   0  3  0  0  0  0  0  0  0  0  0  0
  -28.8336  -19.2118   15.0756 O   0  0  0  0  0  0  0  0  0  0  0  0
  -20.8238  -26.4790   21.5704 O   0  0  0  0  0  0  0  0  0  0  0  0
  -23.6574  -28.8505   23.4247 O   0  0  0  0  0  0  0  0  0  0  0  0
  -27.1055  -26.1159   21.6489 O   0  0  0  0  0  0  0  0  0  0  0  0
  -25.9491  -11.7370   20.6729 O   0  0  0  0  0  0  0  0  0  0  0  0
  -30.0771  -23.3979   21.5190 O   0  0  0  0  0  0  0  0  0  0  0  0
  -22.9614  -20.7504   21.0241 O   0  0  0  0  0  0  0  0  0  1  0  0
  -33.8530  -26.8739   19.5029 F   0  0  0  0  0  0  0  0  0  0  0  0
  -29.7956  -24.4896   18.9948 F   0  0  0  0  0  0  0  0  0  0  0  0
  -26.0319  -16.6641   15.9803 F   0  0  0  0  0  0  0  0  0  0  0  0
  1  2  1  0  0  0  0
  1  5  2  0  0  0  0
  2  6  2  0  0  0  0
  3  8  2  0  0  0  0
  3 16  1  0  0  0  0
  4  9  1  0  0  0  0
  4 16  2  0  0  0  0
  5 18  1  0  0  0  0
  6 20  1  0  0  0  0
  7 10  2  0  0  0  0
  7 19  1  0  0  0  0
  8 26  1  0  0  0  0
  9 26  2  0  0  0  0
 10 27  1  0  0  0  0
 11 12  2  0  0  0  0
 11 28  1  0  0  0  0
 12 29  1  0  0  0  0
 13 21  1  0  0  0  0
 13 27  2  0  0  0  0
 14 22  1  0  0  0  0
 14 25  2  0  0  0  0
 15 29  2  0  0  0  0
 15 30  1  0  0  0  0
 16 32  1  0  0  0  0
 17 32  1  0  0  0  0
 17 33  2  0  0  0  0
 17 34  1  0  0  0  0
 18 20  2  0  0  0  0
 18 39  1  0  0  0  0
 19 21  2  0  0  0  0
 19 40  1  0  0  0  0
 20 48  1  0  0  0  0
 21 41  1  0  0  0  0
 22 23  2  0  0  0  0
 22 60  1  0  0  0  0
 23 31  1  0  0  0  0
 23 51  1  0  0  0  0
 24 25  1  0  0  0  0
 24 31  2  0  0  0  0
 24 52  1  0  0  0  0
 25 75  1  0  0  0  0
 26 82  1  0  0  0  0
 27 83  1  0  0  0  0
 28 30  2  0  0  0  0
 28 82  1  0  0  0  0
 29 84  1  0  0  0  0
 30 85  1  0  0  0  0
 31 86  1  0  0  0  0
 32 67  2  0  0  0  0
 33 68  1  0  0  0  0
 33 71  1  0  0  0  0
 34 72  1  0  0  0  0
 34 77  2  0  0  0  0
 35 49  1  0  0  0  0
 35 73  1  0  0  0  0
 35 78  2  0  0  0  0
 36 63  1  0  0  0  0
 36 69  1  0  0  0  0
 36 79  2  0  0  0  0
 37 64  1  0  0  0  0
 37 74  1  0  0  0  0
 37 80  2  0  0  0  0
 38 70  1  0  0  0  0
 38 75  1  0  0  0  0
 38 81  2  0  0  0  0
 39 42  1  0  0  0  0
 40 49  1  0  0  0  0
 41 69  1  0  0  0  0
 42 44  1  0  0  0  0
 43 45  1  0  0  0  0
 43 46  1  0  0  0  0
 44 48  1  0  0  0  0
 45 50  1  0  0  0  0
 46 70  1  0  0  0  0
 47 50  1  0  0  0  0
 47 70  1  0  0  0  0
 48 73  1  0  0  0  0
 49 69  1  0  0  0  0
 50 68  1  0  0  0  0
 53 64  1  0  0  0  0
 54 65  1  0  0  0  0
 55 65  1  0  0  0  0
 56 66  1  0  0  0  0
 57 66  1  0  0  0  0
 58 66  1  0  0  0  0
 59 76  1  0  0  0  0
 60 61  1  0  0  0  0
 61 62  1  0  0  0  0
 62 83  1  0  0  0  0
 63 66  1  0  0  0  0
 63 74  1  0  0  0  0
 64 76  1  0  0  0  0
 65 75  1  0  0  0  0
 67 68  1  0  0  0  0
M  CHG  1  76   1
M  ISO  4  38 100  62 101  75 100  83 101
M  END
> <Batch ID>
0027

> <Smiles>
CNC(C)C(=O)NC(C(=O)N1Cc2cc([101O:1][101CH2:1]CCc3cc([100N:0](C(C)C)[100C:0](=O)N4CCCC(n5nc(-c6ccc(Oc7ccc(F)cc7F)cc6)c(C(N)=O)c5N)C4)c(C)c(F)c3C)ccc2CC1C(=O)NC1CCCc2ccccc21)C(C)(C)C

> <Shape>
0.216

> <Color>
0.061

> <Negative vol penalty>
0.000

$$$$

  -OEChem-04052316303D

 81 89  0     1  0  0  0  0  0999 V2000
  -18.7819  -25.2621   19.7102 C   0  0  0  0  0  0  0  0  0  0  0  0
  -20.1223  -25.5647   19.4933 C   0  0  0  0  0  0  0  0  0  0  0  0
  -24.1272  -14.1656   20.8121 C   0  0  0  0  0  0  0  0  0  0  0  0
  -26.5405  -14.0654   20.8704 C   0  0  0  0  0  0  0  0  0  0  0  0
  -18.0966  -25.8567   20.7688 C   0  0  0  0  0  0  0  0  0  0  0  0
  -20.7780  -26.4630   20.3344 C   0  0  0  0  0  0  0  0  0  0  0  0
  -25.3665  -24.8303   21.7220 C   0  0  0  0  0  0  0  0  0  0  0  0
  -24.0797  -12.8169   20.4597 C   0  0  0  0  0  0  0  0  0  0  0  0
  -26.4930  -12.7166   20.5180 C   0  0  0  0  0  0  0  0  0  0  0  0
  -26.3968  -24.9604   20.7917 C   0  0  0  0  0  0  0  0  0  0  0  0
  -24.3666   -9.8256   22.0098 C   0  0  0  0  0  0  0  0  0  0  0  0
  -23.4442   -9.0149   22.6712 C   0  0  0  0  0  0  0  0  0  0  0  0
  -27.1652  -26.9440   21.9293 C   0  0  0  0  0  0  0  0  0  0  0  0
  -30.3836  -23.8067   18.9168 C   0  0  0  0  0  0  0  0  0  0  0  0
  -22.3876   -8.4959   20.5613 C   0  0  0  0  0  0  0  0  0  0  0  0
  -31.3626  -22.7512   21.2349 C   0  0  0  0  0  0  0  0  0  0  0  0
  -25.3576  -14.7899   21.0174 C   0  0  0  0  0  0  0  0  0  0  0  0
  -25.3986  -16.7235   22.6809 C   0  0  0  0  0  0  0  0  0  0  0  0
  -18.7468  -26.7553   21.6292 C   0  0  0  0  0  0  0  0  0  0  0  0
  -25.2210  -25.7638   22.7582 C   0  0  0  0  0  0  0  0  0  0  0  0
  -20.1004  -27.0712   21.4048 C   0  0  0  0  0  0  0  0  0  0  0  0
  -26.1338  -26.8220   22.8729 C   0  0  0  0  0  0  0  0  0  0  0  0
  -30.8039  -24.6601   19.9309 C   0  0  0  0  0  0  0  0  0  0  0  0
  -25.2626  -12.0923   20.3126 C   0  0  0  0  0  0  0  0  0  0  0  0
  -27.2946  -26.0190   20.8936 C   0  0  0  0  0  0  0  0  0  0  0  0
  -24.2995   -9.9715   20.6242 C   0  0  0  0  0  0  0  0  0  0  0  0
  -22.4547   -8.3500   21.9470 C   0  0  0  0  0  0  0  0  0  0  0  0
  -23.3101   -9.3067   19.9000 C   0  0  0  0  0  0  0  0  0  0  0  0
  -31.3040  -24.1303   21.1151 C   0  0  0  0  0  0  0  0  0  0  0  0
  -25.4074  -16.1833   21.3809 C   0  0  0  0  0  0  0  0  0  0  0  0
  -30.4836  -22.4420   19.1349 C   0  0  0  0  0  0  0  0  0  0  0  0
  -25.4605  -18.0820   22.4886 C   0  0  0  0  0  0  0  0  0  0  0  0
  -25.3399  -16.0569   23.9489 C   0  0  0  0  0  0  0  0  0  0  0  0
  -22.9617  -27.8281   23.6169 C   0  0  0  0  0  0  0  0  0  0  0  0
  -24.8911  -28.2734   26.1862 C   0  0  0  0  0  0  0  0  0  0  0  0
  -28.0275  -28.0947   27.5196 C   0  0  0  0  0  0  0  0  0  0  0  0
  -27.5616  -21.4768   18.0262 C   0  0  0  0  0  0  0  0  0  0  0  0
  -17.9518  -27.4091   22.7315 C   0  0  0  0  0  0  0  0  0  0  0  0
  -24.1204  -25.5943   23.7692 C   0  0  0  0  0  0  0  0  0  0  0  0
  -26.0333  -27.8395   23.9788 C   0  0  0  0  0  0  0  0  0  0  0  0
  -18.8202  -28.0638   23.8028 C   0  0  0  0  0  0  0  0  0  0  0  0
  -24.2528  -21.4771   19.3412 C   0  0  0  0  0  0  0  0  0  0  0  0
  -19.9237  -28.8976   23.1595 C   0  0  0  0  0  0  0  0  0  0  0  0
  -24.1727  -20.1691   20.1303 C   0  0  0  0  0  0  0  0  0  0  0  0
  -25.0897  -21.3209   18.0734 C   0  0  0  0  0  0  0  0  0  0  0  0
  -26.3615  -19.4636   19.0766 C   0  0  0  0  0  0  0  0  0  0  0  0
  -20.8530  -28.0218   22.3104 C   0  0  1  0  0  0  0  0  0  0  0  0
  -23.7587  -26.8935   24.4823 C   0  0  1  0  0  0  0  0  0  0  0  0
  -25.5742  -19.5857   20.3925 C   0  0  2  0  0  0  0  0  0  0  0  0
  -29.2999  -28.5627   29.6314 C   0  0  0  0  0  0  0  0  0  0  0  0
  -24.8226  -31.2594   25.5628 C   0  0  0  0  0  0  0  0  0  0  0  0
  -26.8083  -31.5467   27.0604 C   0  0  0  0  0  0  0  0  0  0  0  0
  -24.6567  -30.6972   27.9940 C   0  0  0  0  0  0  0  0  0  0  0  0
  -28.8068  -25.2551   27.8168 C   0  0  0  0  0  0  0  0  0  0  0  0
  -30.7000  -26.1498   19.7111 C   0  0  0  0  0  0  0  0  0  0  0  0
  -30.0429  -21.4960   18.0680 C   0  0  0  0  0  0  0  0  0  0  0  0
  -29.5077  -26.7615   20.4386 C   0  0  0  0  0  0  0  0  0  1  0  0
  -26.0444  -29.1919   26.5107 C   0  0  1  0  0  0  0  0  0  0  0  0
  -28.5334  -27.5213   28.8310 C   0  0  2  0  0  0  0  0  0  0  0  0
  -25.5840  -30.6559   26.7599 C   0  0  0  0  0  0  0  0  0  0  0  0
  -30.9638  -21.8903   20.2718 N   0  0  0  0  0  0  0  0  0  0  0  0
  -25.4698  -17.1220   20.4328 N   0  0  0  0  0  0  0  0  0  0  0  0
  -25.5007  -18.2658   21.1377 N   0  0  0  0  0  0  0  0  0  0  0  0
  -24.9364  -27.6343   24.9390 N   0  0  0  0  0  0  0  0  0  0  0  0
  -26.4071  -20.7648   18.3914 N   0  0  0  0  0  0  0  0  0  0  0  0
  -25.4839  -19.1254   23.3448 N   0  0  0  0  0  0  0  0  0  0  0  0
  -25.2806  -14.6567   23.9655 N   0  0  0  0  0  0  0  0  0  0  0  0
  -21.7736  -27.2932   23.1567 N   0  0  0  0  0  0  0  0  0  0  0  0
  -26.7444  -28.5856   27.6380 N   0  0  0  0  0  0  0  0  0  0  0  0
  -28.7692  -20.8821   18.3707 N   0  0  0  0  0  0  0  0  0  0  0  0
  -29.4384  -26.3650   28.5759 N   0  3  0  0  0  0  0  0  0  0  0  0
  -25.3234  -16.6850   25.0346 O   0  0  0  0  0  0  0  0  0  0  0  0
  -23.3920  -28.9519   23.3852 O   0  0  0  0  0  0  0  0  0  0  0  0
  -23.9872  -28.1227   27.0119 O   0  0  0  0  0  0  0  0  0  0  0  0
  -28.7044  -28.1094   26.4938 O   0  0  0  0  0  0  0  0  0  0  0  0
  -27.5191  -22.5646   17.4416 O   0  0  0  0  0  0  0  0  0  0  0  0
  -25.2166  -10.7762   19.9690 O   0  0  0  0  0  0  0  0  0  0  0  0
  -28.3008  -26.1487   19.9866 O   0  0  0  0  0  0  0  0  0  1  0  0
  -21.5699   -7.5703   22.5820 F   0  0  0  0  0  0  0  0  0  0  0  0
  -23.2413   -9.4420   18.5685 F   0  0  0  0  0  0  0  0  0  0  0  0
  -31.8394  -25.1249   22.4119 Cl  0  0  0  0  0  0  0  0  0  0  0  0
  1  2  1  0  0  0  0
  1  5  2  0  0  0  0
  2  6  2  0  0  0  0
  3  8  2  0  0  0  0
  3 17  1  0  0  0  0
  4  9  1  0  0  0  0
  4 17  2  0  0  0  0
  5 19  1  0  0  0  0
  6 21  1  0  0  0  0
  7 10  2  0  0  0  0
  7 20  1  0  0  0  0
  8 24  1  0  0  0  0
  9 24  2  0  0  0  0
 10 25  1  0  0  0  0
 11 12  2  0  0  0  0
 11 26  1  0  0  0  0
 12 27  1  0  0  0  0
 13 22  1  0  0  0  0
 13 25  2  0  0  0  0
 14 23  1  0  0  0  0
 14 31  2  0  0  0  0
 15 27  2  0  0  0  0
 15 28  1  0  0  0  0
 16 29  1  0  0  0  0
 16 61  2  0  0  0  0
 17 30  1  0  0  0  0
 18 30  1  0  0  0  0
 18 32  2  0  0  0  0
 18 33  1  0  0  0  0
 19 21  2  0  0  0  0
 19 38  1  0  0  0  0
 20 22  2  0  0  0  0
 20 39  1  0  0  0  0
 21 47  1  0  0  0  0
 22 40  1  0  0  0  0
 23 29  2  0  0  0  0
 23 55  1  0  0  0  0
 24 77  1  0  0  0  0
 25 78  1  0  0  0  0
 26 28  2  0  0  0  0
 26 77  1  0  0  0  0
 27 79  1  0  0  0  0
 28 80  1  0  0  0  0
 29 81  1  0  0  0  0
 30 62  2  0  0  0  0
 31 56  1  0  0  0  0
 31 61  1  0  0  0  0
 32 63  1  0  0  0  0
 32 66  1  0  0  0  0
 33 67  1  0  0  0  0
 33 72  2  0  0  0  0
 34 48  1  0  0  0  0
 34 68  1  0  0  0  0
 34 73  2  0  0  0  0
 35 58  1  0  0  0  0
 35 64  1  0  0  0  0
 35 74  2  0  0  0  0
 36 59  1  0  0  0  0
 36 69  1  0  0  0  0
 36 75  2  0  0  0  0
 37 65  1  0  0  0  0
 37 70  1  0  0  0  0
 37 76  2  0  0  0  0
 38 41  1  0  0  0  0
 39 48  1  0  0  0  0
 40 64  1  0  0  0  0
 41 43  1  0  0  0  0
 42 44  1  0  0  0  0
 42 45  1  0  0  0  0
 43 47  1  0  0  0  0
 44 49  1  0  0  0  0
 45 65  1  0  0  0  0
 46 49  1  0  0  0  0
 46 65  1  0  0  0  0
 47 68  1  0  0  0  0
 48 64  1  0  0  0  0
 49 63  1  0  0  0  0
 50 59  1  0  0  0  0
 51 60  1  0  0  0  0
 52 60  1  0  0  0  0
 53 60  1  0  0  0  0
 54 71  1  0  0  0  0
 55 57  1  0  0  0  0
 56 70  1  0  0  0  0
 57 78  1  0  0  0  0
 58 60  1  0  0  0  0
 58 69  1  0  0  0  0
 59 71  1  0  0  0  0
 62 63  1  0  0  0  0
M  CHG  1  71   1
M  ISO  4  37 100  57 101  70 100  78 101
M  END
> <Batch ID>
0027

> <Smiles>
CNC(C)C(=O)NC(C(=O)N1Cc2cc([101O:1][101CH2:1]Cc3cc(C[100NH:0][100C:0](=O)N4CCCC(n5nc(-c6ccc(Oc7ccc(F)cc7F)cc6)c(C(N)=O)c5N)C4)ncc3Cl)ccc2CC1C(=O)NC1CCCc2ccccc21)C(C)(C)C

> <Shape>
0.204

> <Color>
0.087

> <Negative vol penalty>
0.000

$$$$

  -OEChem-04052316303D

 82 90  0     1  0  0  0  0  0999 V2000
  -26.4127  -18.5110   23.1364 C   0  0  0  0  0  0  0  0  0  0  0  0
  -26.8043  -19.6103   22.3791 C   0  0  0  0  0  0  0  0  0  0  0  0
  -26.1302  -13.7931   21.7058 C   0  0  0  0  0  0  0  0  0  0  0  0
  -25.9924  -13.8629   19.2947 C   0  0  0  0  0  0  0  0  0  0  0  0
  -25.0689  -18.3339   23.4629 C   0  0  0  0  0  0  0  0  0  0  0  0
  -25.8520  -20.5327   21.9469 C   0  0  0  0  0  0  0  0  0  0  0  0
  -27.3498  -25.3251   22.6062 C   0  0  0  0  0  0  0  0  0  0  0  0
  -24.7944  -13.3971   21.7707 C   0  0  0  0  0  0  0  0  0  0  0  0
  -24.6565  -13.4669   19.3597 C   0  0  0  0  0  0  0  0  0  0  0  0
  -28.2581  -25.8410   21.6829 C   0  0  0  0  0  0  0  0  0  0  0  0
  -21.7518  -14.8509   21.5393 C   0  0  0  0  0  0  0  0  0  0  0  0
  -20.9351  -15.4799   22.4790 C   0  0  0  0  0  0  0  0  0  0  0  0
  -26.4508  -26.9531   20.5356 C   0  0  0  0  0  0  0  0  0  0  0  0
  -31.0731  -25.6606   18.2837 C   0  0  0  0  0  0  0  0  0  0  0  0
  -29.5311  -24.9305   16.5731 C   0  0  0  0  0  0  0  0  0  0  0  0
  -20.4994  -13.3474   23.5277 C   0  0  0  0  0  0  0  0  0  0  0  0
  -26.7292  -14.0261   20.4678 C   0  0  0  0  0  0  0  0  0  0  0  0
  -29.2399  -13.6021   20.3111 C   0  0  0  0  0  0  0  0  0  0  0  0
  -24.1009  -19.2597   23.0427 C   0  0  0  0  0  0  0  0  0  0  0  0
  -25.9815  -25.6108   22.4947 C   0  0  0  0  0  0  0  0  0  0  0  0
  -24.4938  -20.3671   22.2670 C   0  0  0  0  0  0  0  0  0  0  0  0
  -25.5276  -26.4416   21.4603 C   0  0  0  0  0  0  0  0  0  0  0  0
  -30.0043  -25.9262   17.4277 C   0  0  0  0  0  0  0  0  0  0  0  0
  -31.1955  -23.4036   17.4306 C   0  0  0  0  0  0  0  0  0  0  0  0
  -24.0575  -13.2339   20.5977 C   0  0  0  0  0  0  0  0  0  0  0  0
  -27.8083  -26.6528   20.6457 C   0  0  0  0  0  0  0  0  0  0  0  0
  -21.9423  -13.4701   21.5938 C   0  0  0  0  0  0  0  0  0  0  0  0
  -20.3089  -14.7281   23.4732 C   0  0  0  0  0  0  0  0  0  0  0  0
  -21.3161  -12.7184   22.5880 C   0  0  0  0  0  0  0  0  0  0  0  0
  -31.6688  -24.3993   18.2851 C   0  0  0  0  0  0  0  0  0  0  0  0
  -30.1267  -23.6692   16.5746 C   0  0  0  0  0  0  0  0  0  0  0  0
  -28.1090  -14.4358   20.4001 C   0  0  0  0  0  0  0  0  0  0  0  0
  -30.3040  -14.4698   20.2745 C   0  0  0  0  0  0  0  0  0  0  0  0
  -29.3212  -12.1714   20.2654 C   0  0  0  0  0  0  0  0  0  0  0  0
  -23.3575  -23.8757   22.0391 C   0  0  0  0  0  0  0  0  0  0  0  0
  -21.8657  -26.7139   22.5304 C   0  0  0  0  0  0  0  0  0  0  0  0
  -22.0283  -30.1221   22.4637 C   0  0  0  0  0  0  0  0  0  0  0  0
  -30.7505  -20.0725   18.4674 C   0  0  0  0  0  0  0  0  0  0  0  0
  -22.6540  -19.0008   23.3802 C   0  0  0  0  0  0  0  0  0  0  0  0
  -25.0180  -25.0683   23.5143 C   0  0  0  0  0  0  0  0  0  0  0  0
  -24.0714  -26.7950   21.3082 C   0  0  0  0  0  0  0  0  0  0  0  0
  -21.7584  -20.2239   23.2007 C   0  0  0  0  0  0  0  0  0  0  0  0
  -31.6375  -18.8244   21.7466 C   0  0  0  0  0  0  0  0  0  0  0  0
  -22.0450  -20.9042   21.8659 C   0  0  0  0  0  0  0  0  0  0  0  0
  -30.9315  -17.4673   21.7567 C   0  0  0  0  0  0  0  0  0  0  0  0
  -30.8002  -19.8777   21.0272 C   0  0  0  0  0  0  0  0  0  0  0  0
  -29.7076  -18.1561   19.6430 C   0  0  0  0  0  0  0  0  0  0  0  0
  -23.4937  -21.4027   21.8006 C   0  0  1  0  0  0  0  0  0  0  0  0
  -23.5815  -25.0049   23.0047 C   0  0  1  0  0  0  0  0  0  0  0  0
  -30.5135  -17.0426   20.3364 C   0  0  2  0  0  0  0  0  0  0  0  0
  -20.6384  -32.1691   22.8821 C   0  0  0  0  0  0  0  0  0  0  0  0
  -20.4162  -26.2678   19.8828 C   0  0  0  0  0  0  0  0  0  0  0  0
  -19.8035  -28.6953   19.8893 C   0  0  0  0  0  0  0  0  0  0  0  0
  -18.9864  -27.1997   21.7109 C   0  0  0  0  0  0  0  0  0  0  0  0
  -23.8446  -31.0596   24.6041 C   0  0  0  0  0  0  0  0  0  0  0  0
  -29.3602  -27.2913   17.4257 C   0  0  0  0  0  0  0  0  0  0  0  0
  -31.8357  -22.0489   17.4316 C   0  0  0  0  0  0  0  0  0  0  0  0
  -28.2090  -27.3907   18.4206 C   0  0  0  0  0  0  0  0  0  1  0  0
  -21.4267  -27.8577   21.6484 C   0  0  1  0  0  0  0  0  0  0  0  0
  -21.6161  -31.1703   23.4814 C   0  0  2  0  0  0  0  0  0  0  0  0
  -20.1854  -27.4971   20.7843 C   0  0  0  0  0  0  0  0  0  0  0  0
  -28.4251  -15.7333   20.4191 N   0  0  0  0  0  0  0  0  0  0  0  0
  -29.7667  -15.7216   20.3416 N   0  0  0  0  0  0  0  0  0  0  0  0
  -23.1676  -26.2350   22.3265 N   0  0  0  0  0  0  0  0  0  0  0  0
  -30.4515  -19.4197   19.6749 N   0  0  0  0  0  0  0  0  0  0  0  0
  -31.6375  -14.2764   20.1919 N   0  0  0  0  0  0  0  0  0  0  0  0
  -28.1311  -11.4327   20.3128 N   0  0  0  0  0  0  0  0  0  0  0  0
  -23.6416  -22.6269   22.5582 N   0  0  0  0  0  0  0  0  0  0  0  0
  -21.2279  -29.0015   22.5319 N   0  0  0  0  0  0  0  0  0  0  0  0
  -31.4512  -21.2666   18.5853 N   0  0  0  0  0  0  0  0  0  0  0  0
  -22.8103  -31.9165   23.9693 N   0  3  0  0  0  0  0  0  0  0  0  0
  -30.4177  -11.5655   20.2015 O   0  0  0  0  0  0  0  0  0  0  0  0
  -22.9552  -24.1191   20.9075 O   0  0  0  0  0  0  0  0  0  0  0  0
  -21.0849  -26.2668   23.3742 O   0  0  0  0  0  0  0  0  0  0  0  0
  -22.9643  -30.2830   21.6836 O   0  0  0  0  0  0  0  0  0  0  0  0
  -30.4218  -19.6218   17.3648 O   0  0  0  0  0  0  0  0  0  0  0  0
  -22.7540  -12.8472   20.6607 O   0  0  0  0  0  0  0  0  0  0  0  0
  -28.6927  -27.1572   19.7427 O   0  0  0  0  0  0  0  0  0  1  0  0
  -19.5259  -15.3325   24.3764 F   0  0  0  0  0  0  0  0  0  0  0  0
  -21.4962  -11.3917   22.6461 F   0  0  0  0  0  0  0  0  0  0  0  0
  -32.9896  -24.1136   19.3604 Cl  0  0  0  0  0  0  0  0  0  0  0  0
  -29.5099  -22.4661   15.5000 Cl  0  0  0  0  0  0  0  0  0  0  0  0
  1  2  1  0  0  0  0
  1  5  2  0  0  0  0
  2  6  2  0  0  0  0
  3  8  2  0  0  0  0
  3 17  1  0  0  0  0
  4  9  1  0  0  0  0
  4 17  2  0  0  0  0
  5 19  1  0  0  0  0
  6 21  1  0  0  0  0
  7 10  2  0  0  0  0
  7 20  1  0  0  0  0
  8 25  1  0  0  0  0
  9 25  2  0  0  0  0
 10 26  1  0  0  0  0
 11 12  2  0  0  0  0
 11 27  1  0  0  0  0
 12 28  1  0  0  0  0
 13 22  1  0  0  0  0
 13 26  2  0  0  0  0
 14 23  1  0  0  0  0
 14 30  2  0  0  0  0
 15 23  2  0  0  0  0
 15 31  1  0  0  0  0
 16 28  2  0  0  0  0
 16 29  1  0  0  0  0
 17 32  1  0  0  0  0
 18 32  1  0  0  0  0
 18 33  2  0  0  0  0
 18 34  1  0  0  0  0
 19 21  2  0  0  0  0
 19 39  1  0  0  0  0
 20 22  2  0  0  0  0
 20 40  1  0  0  0  0
 21 48  1  0  0  0  0
 22 41  1  0  0  0  0
 23 56  1  0  0  0  0
 24 30  1  0  0  0  0
 24 31  2  0  0  0  0
 24 57  1  0  0  0  0
 25 77  1  0  0  0  0
 26 78  1  0  0  0  0
 27 29  2  0  0  0  0
 27 77  1  0  0  0  0
 28 79  1  0  0  0  0
 29 80  1  0  0  0  0
 30 81  1  0  0  0  0
 31 82  1  0  0  0  0
 32 62  2  0  0  0  0
 33 63  1  0  0  0  0
 33 66  1  0  0  0  0
 34 67  1  0  0  0  0
 34 72  2  0  0  0  0
 35 49  1  0  0  0  0
 35 68  1  0  0  0  0
 35 73  2  0  0  0  0
 36 59  1  0  0  0  0
 36 64  1  0  0  0  0
 36 74  2  0  0  0  0
 37 60  1  0  0  0  0
 37 69  1  0  0  0  0
 37 75  2  0  0  0  0
 38 65  1  0  0  0  0
 38 70  1  0  0  0  0
 38 76  2  0  0  0  0
 39 42  1  0  0  0  0
 40 49  1  0  0  0  0
 41 64  1  0  0  0  0
 42 44  1  0  0  0  0
 43 45  1  0  0  0  0
 43 46  1  0  0  0  0
 44 48  1  0  0  0  0
 45 50  1  0  0  0  0
 46 65  1  0  0  0  0
 47 50  1  0  0  0  0
 47 65  1  0  0  0  0
 48 68  1  0  0  0  0
 49 64  1  0  0  0  0
 50 63  1  0  0  0  0
 51 60  1  0  0  0  0
 52 61  1  0  0  0  0
 53 61  1  0  0  0  0
 54 61  1  0  0  0  0
 55 71  1  0  0  0  0
 56 58  1  0  0  0  0
 57 70  1  0  0  0  0
 58 78  1  0  0  0  0
 59 61  1  0  0  0  0
 59 69  1  0  0  0  0
 60 71  1  0  0  0  0
 62 63  1  0  0  0  0
M  CHG  1  71   1
M  ISO  4  38 100  58 101  70 100  78 101
M  END
> <Batch ID>
0027

> <Smiles>
CNC(C)C(=O)NC(C(=O)N1Cc2cc([101O:1][101CH2:1]Cc3cc(Cl)c(C[100NH:0][100C:0](=O)N4CCCC(n5nc(-c6ccc(Oc7ccc(F)cc7F)cc6)c(C(N)=O)c5N)C4)c(Cl)c3)ccc2CC1C(=O)NC1CCCc2ccccc21)C(C)(C)C

> <Shape>
0.220

> <Color>
0.055

> <Negative vol penalty>
0.000

$$$$

  -OEChem-04052316303D

 94102  0     1  0  0  0  0  0999 V2000
  -33.6467  -13.2995   21.5284 C   0  0  0  0  0  0  0  0  0  0  0  0
  -32.9723  -14.3778   20.9648 C   0  0  0  0  0  0  0  0  0  0  0  0
  -25.8287  -28.4677   21.6367 C   0  0  0  0  0  0  0  0  0  0  0  0
  -25.0484  -27.8341   19.4397 C   0  0  0  0  0  0  0  0  0  0  0  0
  -33.0459  -12.0417   21.5588 C   0  0  0  0  0  0  0  0  0  0  0  0
  -31.6969  -14.1987   20.4302 C   0  0  0  0  0  0  0  0  0  0  0  0
  -27.0811  -18.2232   20.4912 C   0  0  0  0  0  0  0  0  0  0  0  0
  -27.0880  -27.9468   21.3397 C   0  0  0  0  0  0  0  0  0  0  0  0
  -26.3078  -27.3132   19.1427 C   0  0  0  0  0  0  0  0  0  0  0  0
  -26.6050  -19.1191   19.5349 C   0  0  0  0  0  0  0  0  0  0  0  0
  -28.0655  -24.5056   19.8200 C   0  0  0  0  0  0  0  0  0  0  0  0
  -28.1208  -23.2566   19.2015 C   0  0  0  0  0  0  0  0  0  0  0  0
  -24.9472  -17.5037   18.8556 C   0  0  0  0  0  0  0  0  0  0  0  0
  -15.2967  -31.9081   19.8438 C   0  0  0  0  0  0  0  0  0  0  0  0
  -29.2682  -24.2407   17.3167 C   0  0  0  0  0  0  0  0  0  0  0  0
  -24.8088  -28.4113   20.6867 C   0  0  0  0  0  0  0  0  0  0  0  0
  -23.0579  -30.2645   20.7731 C   0  0  0  0  0  0  0  0  0  0  0  0
  -31.7586  -11.8492   21.0330 C   0  0  0  0  0  0  0  0  0  0  0  0
  -26.4999  -16.9546   20.6298 C   0  0  0  0  0  0  0  0  0  0  0  0
  -31.0788  -12.9369   20.4524 C   0  0  0  0  0  0  0  0  0  0  0  0
  -25.4161  -16.5945   19.8162 C   0  0  0  0  0  0  0  0  0  0  0  0
  -15.4569  -30.6094   19.3609 C   0  0  0  0  0  0  0  0  0  0  0  0
  -15.6840  -32.7810   17.6245 C   0  0  0  0  0  0  0  0  0  0  0  0
  -15.8443  -31.4822   17.1416 C   0  0  0  0  0  0  0  0  0  0  0  0
  -27.3277  -27.3696   20.0927 C   0  0  0  0  0  0  0  0  0  0  0  0
  -25.5398  -18.7583   18.7150 C   0  0  0  0  0  0  0  0  0  0  0  0
  -28.6115  -25.6222   19.1868 C   0  0  0  0  0  0  0  0  0  0  0  0
  -28.7222  -23.1241   17.9499 C   0  0  0  0  0  0  0  0  0  0  0  0
  -29.2128  -25.4897   17.9352 C   0  0  0  0  0  0  0  0  0  0  0  0
  -15.4102  -32.9940   18.9755 C   0  0  0  0  0  0  0  0  0  0  0  0
  -15.7307  -30.3964   18.0099 C   0  0  0  0  0  0  0  0  0  0  0  0
  -23.5075  -28.9488   20.9931 C   0  0  0  0  0  0  0  0  0  0  0  0
  -21.7631  -30.2661   21.2315 C   0  0  0  0  0  0  0  0  0  0  0  0
  -23.7487  -31.3851   20.2051 C   0  0  0  0  0  0  0  0  0  0  0  0
  -27.5332  -13.9662   20.3045 C   0  0  0  0  0  0  0  0  0  0  0  0
  -24.5864  -13.2359   21.4471 C   0  0  0  0  0  0  0  0  0  0  0  0
  -21.3352  -14.1753   21.8879 C   0  0  0  0  0  0  0  0  0  0  0  0
  -16.7313  -27.8821   21.6095 C   0  0  0  0  0  0  0  0  0  0  0  0
  -31.1692  -10.4610   21.0460 C   0  0  0  0  0  0  0  0  0  0  0  0
  -27.0077  -16.0098   21.6843 C   0  0  0  0  0  0  0  0  0  0  0  0
  -24.7441  -15.2522   19.9387 C   0  0  0  0  0  0  0  0  0  0  0  0
  -29.6636  -10.4361   20.7956 C   0  0  0  0  0  0  0  0  0  0  0  0
  -19.2199  -26.8211   23.9242 C   0  0  0  0  0  0  0  0  0  0  0  0
  -29.3047  -11.3275   19.6110 C   0  0  0  0  0  0  0  0  0  0  0  0
  -20.5201  -27.3831   23.3466 C   0  0  0  0  0  0  0  0  0  0  0  0
  -18.2653  -26.3627   22.8240 C   0  0  0  0  0  0  0  0  0  0  0  0
  -19.2693  -27.9417   21.2201 C   0  0  0  0  0  0  0  0  0  0  0  0
  -29.6840  -12.7879   19.8846 C   0  0  1  0  0  0  0  0  0  0  0  0
  -26.6739  -14.5506   21.3899 C   0  0  1  0  0  0  0  0  0  0  0  0
  -20.2411  -28.4686   22.2898 C   0  0  2  0  0  0  0  0  0  0  0  0
  -15.8066  -33.9387   16.6825 C   0  0  0  0  0  0  0  0  0  0  0  0
  -19.1561  -13.3521   22.8211 C   0  0  0  0  0  0  0  0  0  0  0  0
  -24.2226  -11.4402   19.0072 C   0  0  0  0  0  0  0  0  0  0  0  0
  -21.7645  -11.4111   19.4819 C   0  0  0  0  0  0  0  0  0  0  0  0
  -23.3663  -10.4753   21.1496 C   0  0  0  0  0  0  0  0  0  0  0  0
  -21.2102  -16.3835   23.8545 C   0  0  0  0  0  0  0  0  0  0  0  0
  -16.1402  -31.2698   15.6781 C   0  0  0  0  0  0  0  0  0  0  0  0
  -15.3261  -29.4764   20.3280 C   0  0  0  0  0  0  0  0  0  0  0  0
  -17.5908  -31.5792   15.2903 C   0  0  0  0  0  0  0  0  0  0  0  0
  -18.6087  -30.7216   16.0499 C   0  0  0  0  0  0  0  0  0  0  0  0
  -20.0392  -31.0439   15.6122 C   0  0  0  0  0  0  0  0  0  0  0  0
  -21.1024  -30.2226   16.3483 C   0  0  0  0  0  0  0  0  0  0  0  0
  -21.0422  -28.7064   16.1368 C   0  0  0  0  0  0  0  0  0  0  0  0
  -22.1784  -27.9471   16.8267 C   0  0  0  0  0  0  0  0  0  0  0  0
  -22.0752  -26.4426   16.5625 C   0  0  0  0  0  0  0  0  0  0  0  0
  -23.1935  -25.6282   17.2216 C   0  0  0  0  0  0  0  0  0  0  0  0
  -23.0456  -24.1181   17.0177 C   0  0  0  0  0  0  0  0  0  0  0  0
  -24.1631  -23.3034   17.6788 C   0  0  0  0  0  0  0  0  0  0  0  0
  -24.0631  -21.7987   17.4081 C   0  0  0  0  0  0  0  0  0  0  0  0
  -25.1965  -21.0209   18.0678 C   0  0  0  0  0  0  0  0  0  1  0  0
  -23.2333  -12.9795   20.8287 C   0  0  1  0  0  0  0  0  0  0  0  0
  -20.4304  -14.1317   23.1060 C   0  0  2  0  0  0  0  0  0  0  0  0
  -23.1604  -11.6012   20.1130 C   0  0  0  0  0  0  0  0  0  0  0  0
  -22.5743  -28.1710   21.5483 N   0  0  0  0  0  0  0  0  0  0  0  0
  -21.5254  -29.0005   21.6811 N   0  0  0  0  0  0  0  0  0  0  0  0
  -25.2809  -14.3609   20.9803 N   0  0  0  0  0  0  0  0  0  0  0  0
  -18.0413  -27.4387   21.8555 N   0  0  0  0  0  0  0  0  0  0  0  0
  -20.8163  -31.2265   21.2900 N   0  0  0  0  0  0  0  0  0  0  0  0
  -25.0745  -31.2100   19.7856 N   0  0  0  0  0  0  0  0  0  0  0  0
  -28.7119  -13.4071   20.7599 N   0  0  0  0  0  0  0  0  0  0  0  0
  -22.2565  -13.1495   21.8990 N   0  0  0  0  0  0  0  0  0  0  0  0
  -16.6082  -28.9095   20.6822 N   0  0  0  0  0  0  0  0  0  0  0  0
  -20.0537  -15.5125   23.5212 N   0  3  0  0  0  0  0  0  0  0  0  0
  -23.2118  -32.5128   20.0885 O   0  0  0  0  0  0  0  0  0  0  0  0
  -27.1540  -14.0175   19.1404 O   0  0  0  0  0  0  0  0  0  0  0  0
  -25.0083  -12.4704   22.3175 O   0  0  0  0  0  0  0  0  0  0  0  0
  -21.2324  -15.0315   21.0121 O   0  0  0  0  0  0  0  0  0  0  0  0
  -15.7451  -27.4017   22.1784 O   0  0  0  0  0  0  0  0  0  0  0  0
  -28.5565  -26.8614   19.8025 O   0  0  0  0  0  0  0  0  0  0  0  0
  -25.0701  -19.6372   17.7732 O   0  0  0  0  0  0  0  0  0  1  0  0
  -28.7766  -21.9244   17.3567 F   0  0  0  0  0  0  0  0  0  0  0  0
  -29.7401  -26.5586   17.3226 F   0  0  0  0  0  0  0  0  0  0  0  0
  -15.2027  -34.5853   19.6128 Cl  0  0  0  0  0  0  0  0  0  0  0  0
  -15.9300  -28.7815   17.4146 Cl  0  0  0  0  0  0  0  0  0  0  0  0
  1  2  1  0  0  0  0
  1  5  2  0  0  0  0
  2  6  2  0  0  0  0
  3  8  2  0  0  0  0
  3 16  1  0  0  0  0
  4  9  1  0  0  0  0
  4 16  2  0  0  0  0
  5 18  1  0  0  0  0
  6 20  1  0  0  0  0
  7 10  2  0  0  0  0
  7 19  1  0  0  0  0
  8 25  1  0  0  0  0
  9 25  2  0  0  0  0
 10 26  1  0  0  0  0
 11 12  2  0  0  0  0
 11 27  1  0  0  0  0
 12 28  1  0  0  0  0
 13 21  1  0  0  0  0
 13 26  2  0  0  0  0
 14 22  2  0  0  0  0
 14 30  1  0  0  0  0
 15 28  2  0  0  0  0
 15 29  1  0  0  0  0
 16 32  1  0  0  0  0
 17 32  1  0  0  0  0
 17 33  2  0  0  0  0
 17 34  1  0  0  0  0
 18 20  2  0  0  0  0
 18 39  1  0  0  0  0
 19 21  2  0  0  0  0
 19 40  1  0  0  0  0
 20 48  1  0  0  0  0
 21 41  1  0  0  0  0
 22 31  1  0  0  0  0
 22 58  1  0  0  0  0
 23 24  1  0  0  0  0
 23 30  2  0  0  0  0
 23 51  1  0  0  0  0
 24 31  2  0  0  0  0
 24 57  1  0  0  0  0
 25 89  1  0  0  0  0
 26 90  1  0  0  0  0
 27 29  2  0  0  0  0
 27 89  1  0  0  0  0
 28 91  1  0  0  0  0
 29 92  1  0  0  0  0
 30 93  1  0  0  0  0
 31 94  1  0  0  0  0
 32 74  2  0  0  0  0
 33 75  1  0  0  0  0
 33 78  1  0  0  0  0
 34 79  1  0  0  0  0
 34 84  2  0  0  0  0
 35 49  1  0  0  0  0
 35 80  1  0  0  0  0
 35 85  2  0  0  0  0
 36 71  1  0  0  0  0
 36 76  1  0  0  0  0
 36 86  2  0  0  0  0
 37 72  1  0  0  0  0
 37 81  1  0  0  0  0
 37 87  2  0  0  0  0
 38 77  1  0  0  0  0
 38 82  1  0  0  0  0
 38 88  2  0  0  0  0
 39 42  1  0  0  0  0
 40 49  1  0  0  0  0
 41 76  1  0  0  0  0
 42 44  1  0  0  0  0
 43 45  1  0  0  0  0
 43 46  1  0  0  0  0
 44 48  1  0  0  0  0
 45 50  1  0  0  0  0
 46 77  1  0  0  0  0
 47 50  1  0  0  0  0
 47 77  1  0  0  0  0
 48 80  1  0  0  0  0
 49 76  1  0  0  0  0
 50 75  1  0  0  0  0
 52 72  1  0  0  0  0
 53 73  1  0  0  0  0
 54 73  1  0  0  0  0
 55 73  1  0  0  0  0
 56 83  1  0  0  0  0
 57 59  1  0  0  0  0
 58 82  1  0  0  0  0
 59 60  1  0  0  0  0
 60 61  1  0  0  0  0
 61 62  1  0  0  0  0
 62 63  1  0  0  0  0
 63 64  1  0  0  0  0
 64 65  1  0  0  0  0
 65 66  1  0  0  0  0
 66 67  1  0  0  0  0
 67 68  1  0  0  0  0
 68 69  1  0  0  0  0
 69 70  1  0  0  0  0
 70 90  1  0  0  0  0
 71 73  1  0  0  0  0
 71 81  1  0  0  0  0
 72 83  1  0  0  0  0
 74 75  1  0  0  0  0
M  CHG  1  83   1
M  ISO  4  38 100  70 101  82 100  90 101
M  END
> <Batch ID>
0027

> <Smiles>
CNC(C)C(=O)NC(C(=O)N1Cc2cc([101O:1][101CH2:1]CCCCCCCCCCCCc3c(C)c(Cl)cc(C[100NH:0][100C:0](=O)N4CCCC(n5nc(-c6ccc(Oc7ccc(F)cc7F)cc6)c(C(N)=O)c5N)C4)c3Cl)ccc2CC1C(=O)NC1CCCc2ccccc21)C(C)(C)C

> <Shape>
0.239

> <Color>
0.075

> <Negative vol penalty>
0.000

$$$$

  -OEChem-04052316303D

 84 92  0     1  0  0  0  0  0999 V2000
  -25.0709  -32.9965   18.3058 C   0  0  0  0  0  0  0  0  0  0  0  0
  -25.6604  -31.8103   18.7309 C   0  0  0  0  0  0  0  0  0  0  0  0
  -23.2577   -9.6678   20.6354 C   0  0  0  0  0  0  0  0  0  0  0  0
  -23.8614  -10.2954   22.8890 C   0  0  0  0  0  0  0  0  0  0  0  0
  -24.0651  -33.5867   19.0701 C   0  0  0  0  0  0  0  0  0  0  0  0
  -25.2453  -31.2141   19.9211 C   0  0  0  0  0  0  0  0  0  0  0  0
  -24.5949  -26.2127   19.4651 C   0  0  0  0  0  0  0  0  0  0  0  0
  -22.5616   -8.5645   21.1291 C   0  0  0  0  0  0  0  0  0  0  0  0
  -23.1653   -9.1921   23.3827 C   0  0  0  0  0  0  0  0  0  0  0  0
  -25.7405  -25.4181   19.4751 C   0  0  0  0  0  0  0  0  0  0  0  0
  -19.9515   -8.3494   24.0006 C   0  0  0  0  0  0  0  0  0  0  0  0
  -19.1213   -8.5493   25.1035 C   0  0  0  0  0  0  0  0  0  0  0  0
  -25.3434  -24.8853   21.7940 C   0  0  0  0  0  0  0  0  0  0  0  0
  -28.8946  -19.3711   20.8492 C   0  0  0  0  0  0  0  0  0  0  0  0
  -20.4128   -6.9448   26.3664 C   0  0  0  0  0  0  0  0  0  0  0  0
  -23.9077  -10.5333   21.5153 C   0  0  0  0  0  0  0  0  0  0  0  0
  -24.1211  -12.9670   20.7814 C   0  0  0  0  0  0  0  0  0  0  0  0
  -23.6307  -32.9924   20.2654 C   0  0  0  0  0  0  0  0  0  0  0  0
  -23.8197  -26.3585   20.6245 C   0  0  0  0  0  0  0  0  0  0  0  0
  -24.2337  -31.7976   20.7028 C   0  0  0  0  0  0  0  0  0  0  0  0
  -24.1870  -25.6802   21.7954 C   0  0  0  0  0  0  0  0  0  0  0  0
  -29.4884  -18.4617   21.7244 C   0  0  0  0  0  0  0  0  0  0  0  0
  -28.2616  -19.4325   23.5655 C   0  0  0  0  0  0  0  0  0  0  0  0
  -22.5154   -8.3267   22.5028 C   0  0  0  0  0  0  0  0  0  0  0  0
  -26.1165  -24.7566   20.6404 C   0  0  0  0  0  0  0  0  0  0  0  0
  -21.0122   -7.4471   24.0805 C   0  0  0  0  0  0  0  0  0  0  0  0
  -27.9843  -20.3113   21.3322 C   0  0  0  0  0  0  0  0  0  0  0  0
  -19.3520   -7.8471   26.2864 C   0  0  0  0  0  0  0  0  0  0  0  0
  -21.2429   -6.7448   25.2634 C   0  0  0  0  0  0  0  0  0  0  0  0
  -29.1719  -18.4924   23.0825 C   0  0  0  0  0  0  0  0  0  0  0  0
  -27.6678  -20.3419   22.6903 C   0  0  0  0  0  0  0  0  0  0  0  0
  -24.6274  -11.6728   21.0059 C   0  0  0  0  0  0  0  0  0  0  0  0
  -25.1934  -13.6760   20.2976 C   0  0  0  0  0  0  0  0  0  0  0  0
  -22.7997  -13.4824   20.9914 C   0  0  0  0  0  0  0  0  0  0  0  0
  -23.0044  -28.8034   22.4850 C   0  0  0  0  0  0  0  0  0  0  0  0
  -21.1459  -26.5752   23.9353 C   0  0  0  0  0  0  0  0  0  0  0  0
  -20.5732  -23.2815   24.6211 C   0  0  0  0  0  0  0  0  0  0  0  0
  -30.5899  -15.0832   20.5038 C   0  0  0  0  0  0  0  0  0  0  0  0
  -22.5733  -33.6924   21.0817 C   0  0  0  0  0  0  0  0  0  0  0  0
  -22.5720  -27.1978   20.5899 C   0  0  0  0  0  0  0  0  0  0  0  0
  -23.3777  -25.7876   23.0611 C   0  0  0  0  0  0  0  0  0  0  0  0
  -21.9302  -32.7994   22.1397 C   0  0  0  0  0  0  0  0  0  0  0  0
  -29.7433  -12.1091   18.7390 C   0  0  0  0  0  0  0  0  0  0  0  0
  -22.9984  -32.0287   22.9088 C   0  0  0  0  0  0  0  0  0  0  0  0
  -28.2980  -11.8341   19.1577 C   0  0  0  0  0  0  0  0  0  0  0  0
  -30.5652  -12.6831   19.8909 C   0  0  0  0  0  0  0  0  0  0  0  0
  -28.5388  -13.6032   20.9497 C   0  0  0  0  0  0  0  0  0  0  0  0
  -23.7934  -31.1074   21.9755 C   0  0  1  0  0  0  0  0  0  0  0  0
  -22.1419  -27.6861   21.9698 C   0  0  1  0  0  0  0  0  0  0  0  0
  -27.6561  -13.0757   19.8056 C   0  0  2  0  0  0  0  0  0  0  0  0
  -27.9204  -19.4662   25.0249 C   0  0  0  0  0  0  0  0  0  0  0  0
  -18.9985  -21.7727   25.8626 C   0  0  0  0  0  0  0  0  0  0  0  0
  -22.4611  -27.3745   26.5699 C   0  0  0  0  0  0  0  0  0  0  0  0
  -21.5839  -25.2539   27.5709 C   0  0  0  0  0  0  0  0  0  0  0  0
  -19.9963  -26.9762   26.7131 C   0  0  0  0  0  0  0  0  0  0  0  0
  -19.7657  -21.8885   22.1378 C   0  0  0  0  0  0  0  0  0  0  0  0
  -30.4579  -17.4726   21.1614 C   0  0  0  0  0  0  0  0  0  0  0  0
  -27.6007  -23.3491   19.4271 C   0  0  0  0  0  0  0  0  0  1  0  0
  -28.3074  -22.0432   19.7347 C   0  0  0  0  0  0  0  0  0  0  0  0
  -21.3367  -25.5986   25.0706 C   0  0  1  0  0  0  0  0  0  0  0  0
  -19.3141  -22.4382   24.5321 C   0  0  2  0  0  0  0  0  0  0  0  0
  -21.3611  -26.3002   26.4580 C   0  0  0  0  0  0  0  0  0  0  0  0
  -25.9206  -11.5631   20.6905 N   0  0  0  0  0  0  0  0  0  0  0  0
  -26.2360  -12.7975   20.2628 N   0  0  0  0  0  0  0  0  0  0  0  0
  -22.1697  -26.6252   22.9787 N   0  0  0  0  0  0  0  0  0  0  0  0
  -29.9025  -13.8590   20.4602 N   0  0  0  0  0  0  0  0  0  0  0  0
  -25.3366  -14.9590   19.9027 N   0  0  0  0  0  0  0  0  0  0  0  0
  -21.8177  -12.6181   21.4944 N   0  0  0  0  0  0  0  0  0  0  0  0
  -23.0289  -29.9177   21.6682 N   0  0  0  0  0  0  0  0  0  0  0  0
  -20.2874  -24.5953   24.9267 N   0  0  0  0  0  0  0  0  0  0  0  0
  -29.8871  -16.1485   21.0532 N   0  0  0  0  0  0  0  0  0  0  0  0
  -19.4749  -21.3743   23.5009 N   0  3  0  0  0  0  0  0  0  0  0  0
  -22.4947  -14.6696   20.7250 O   0  0  0  0  0  0  0  0  0  0  0  0
  -23.6022  -28.6653   23.5458 O   0  0  0  0  0  0  0  0  0  0  0  0
  -20.1227  -27.2630   23.8948 O   0  0  0  0  0  0  0  0  0  0  0  0
  -21.6980  -22.8200   24.4413 O   0  0  0  0  0  0  0  0  0  0  0  0
  -31.7426  -15.2181   20.0794 O   0  0  0  0  0  0  0  0  0  0  0  0
  -21.8360   -7.2503   22.9849 O   0  0  0  0  0  0  0  0  0  0  0  0
  -27.2346  -23.9809   20.6531 O   0  0  0  0  0  0  0  0  0  1  0  0
  -27.4189  -21.1905   20.4465 O   0  0  0  0  0  0  0  0  0  0  0  0
  -18.5557   -8.0403   27.3460 F   0  0  0  0  0  0  0  0  0  0  0  0
  -22.2611   -5.8776   25.3466 F   0  0  0  0  0  0  0  0  0  0  0  0
  -29.9132  -17.3592   24.1639 Cl  0  0  0  0  0  0  0  0  0  0  0  0
  -26.5357  -21.5156   23.2740 Cl  0  0  0  0  0  0  0  0  0  0  0  0
  1  2  1  0  0  0  0
  1  5  2  0  0  0  0
  2  6  2  0  0  0  0
  3  8  2  0  0  0  0
  3 16  1  0  0  0  0
  4  9  1  0  0  0  0
  4 16  2  0  0  0  0
  5 18  1  0  0  0  0
  6 20  1  0  0  0  0
  7 10  2  0  0  0  0
  7 19  1  0  0  0  0
  8 24  1  0  0  0  0
  9 24  2  0  0  0  0
 10 25  1  0  0  0  0
 11 12  2  0  0  0  0
 11 26  1  0  0  0  0
 12 28  1  0  0  0  0
 13 21  1  0  0  0  0
 13 25  2  0  0  0  0
 14 22  2  0  0  0  0
 14 27  1  0  0  0  0
 15 28  2  0  0  0  0
 15 29  1  0  0  0  0
 16 32  1  0  0  0  0
 17 32  1  0  0  0  0
 17 33  2  0  0  0  0
 17 34  1  0  0  0  0
 18 20  2  0  0  0  0
 18 39  1  0  0  0  0
 19 21  2  0  0  0  0
 19 40  1  0  0  0  0
 20 48  1  0  0  0  0
 21 41  1  0  0  0  0
 22 30  1  0  0  0  0
 22 57  1  0  0  0  0
 23 30  2  0  0  0  0
 23 31  1  0  0  0  0
 23 51  1  0  0  0  0
 24 78  1  0  0  0  0
 25 79  1  0  0  0  0
 26 29  2  0  0  0  0
 26 78  1  0  0  0  0
 27 31  2  0  0  0  0
 27 80  1  0  0  0  0
 28 81  1  0  0  0  0
 29 82  1  0  0  0  0
 30 83  1  0  0  0  0
 31 84  1  0  0  0  0
 32 63  2  0  0  0  0
 33 64  1  0  0  0  0
 33 67  1  0  0  0  0
 34 68  1  0  0  0  0
 34 73  2  0  0  0  0
 35 49  1  0  0  0  0
 35 69  1  0  0  0  0
 35 74  2  0  0  0  0
 36 60  1  0  0  0  0
 36 65  1  0  0  0  0
 36 75  2  0  0  0  0
 37 61  1  0  0  0  0
 37 70  1  0  0  0  0
 37 76  2  0  0  0  0
 38 66  1  0  0  0  0
 38 71  1  0  0  0  0
 38 77  2  0  0  0  0
 39 42  1  0  0  0  0
 40 49  1  0  0  0  0
 41 65  1  0  0  0  0
 42 44  1  0  0  0  0
 43 45  1  0  0  0  0
 43 46  1  0  0  0  0
 44 48  1  0  0  0  0
 45 50  1  0  0  0  0
 46 66  1  0  0  0  0
 47 50  1  0  0  0  0
 47 66  1  0  0  0  0
 48 69  1  0  0  0  0
 49 65  1  0  0  0  0
 50 64  1  0  0  0  0
 52 61  1  0  0  0  0
 53 62  1  0  0  0  0
 54 62  1  0  0  0  0
 55 62  1  0  0  0  0
 56 72  1  0  0  0  0
 57 71  1  0  0  0  0
 58 59  1  0  0  0  0
 58 79  1  0  0  0  0
 59 80  1  0  0  0  0
 60 62  1  0  0  0  0
 60 70  1  0  0  0  0
 61 72  1  0  0  0  0
 63 64  1  0  0  0  0
M  CHG  1  72   1
M  ISO  4  38 100  58 101  71 100  79 101
M  END
> <Batch ID>
0027

> <Smiles>
CNC(C)C(=O)NC(C(=O)N1Cc2cc([101O:1][101CH2:1]COc3cc(C[100NH:0][100C:0](=O)N4CCCC(n5nc(-c6ccc(Oc7ccc(F)cc7F)cc6)c(C(N)=O)c5N)C4)c(Cl)c(C)c3Cl)ccc2CC1C(=O)NC1CCCc2ccccc21)C(C)(C)C

> <Shape>
0.249

> <Color>
0.177

> <Negative vol penalty>
0.000

$$$$

  -OEChem-04052316303D

 86 94  0     1  0  0  0  0  0999 V2000
  -20.0335  -34.6206   21.8115 C   0  0  0  0  0  0  0  0  0  0  0  0
  -21.2549  -34.1135   21.3794 C   0  0  0  0  0  0  0  0  0  0  0  0
  -25.6443  -13.6541   21.2235 C   0  0  0  0  0  0  0  0  0  0  0  0
  -25.5393  -13.9393   18.8266 C   0  0  0  0  0  0  0  0  0  0  0  0
  -19.3195  -33.9594   22.8100 C   0  0  0  0  0  0  0  0  0  0  0  0
  -21.7634  -32.9455   21.9464 C   0  0  0  0  0  0  0  0  0  0  0  0
  -25.0385  -28.6071   19.1255 C   0  0  0  0  0  0  0  0  0  0  0  0
  -24.6261  -12.7032   21.1550 C   0  0  0  0  0  0  0  0  0  0  0  0
  -24.5211  -12.9883   18.7581 C   0  0  0  0  0  0  0  0  0  0  0  0
  -26.4085  -28.3551   19.0672 C   0  0  0  0  0  0  0  0  0  0  0  0
  -24.3177   -9.4391   20.3285 C   0  0  0  0  0  0  0  0  0  0  0  0
  -24.4791   -8.2626   21.0602 C   0  0  0  0  0  0  0  0  0  0  0  0
  -26.1860  -26.7624   20.8652 C   0  0  0  0  0  0  0  0  0  0  0  0
  -22.4660   -8.7579   22.3007 C   0  0  0  0  0  0  0  0  0  0  0  0
  -26.1009  -14.2722   20.0593 C   0  0  0  0  0  0  0  0  0  0  0  0
  -28.5383  -15.0248   20.0412 C   0  0  0  0  0  0  0  0  0  0  0  0
  -19.8150  -32.7774   23.3827 C   0  0  0  0  0  0  0  0  0  0  0  0
  -24.2324  -27.9455   20.0630 C   0  0  0  0  0  0  0  0  0  0  0  0
  -21.0560  -32.2687   22.9545 C   0  0  0  0  0  0  0  0  0  0  0  0
  -24.8056  -27.0058   20.9317 C   0  0  0  0  0  0  0  0  0  0  0  0
  -33.3520  -25.2455   18.4335 C   0  0  0  0  0  0  0  0  0  0  0  0
  -33.4622  -24.1205   17.5794 C   0  0  0  0  0  0  0  0  0  0  0  0
  -24.0645  -12.3703   19.9223 C   0  0  0  0  0  0  0  0  0  0  0  0
  -26.9829  -27.4348   19.9391 C   0  0  0  0  0  0  0  0  0  0  0  0
  -23.2304  -10.2750   20.5829 C   0  0  0  0  0  0  0  0  0  0  0  0
  -23.5533   -7.9220   22.0463 C   0  0  0  0  0  0  0  0  0  0  0  0
  -22.3046   -9.9345   21.5690 C   0  0  0  0  0  0  0  0  0  0  0  0
  -27.1522  -15.2549   20.1295 C   0  0  0  0  0  0  0  0  0  0  0  0
  -33.0833  -26.3392   17.6405 C   0  0  0  0  0  0  0  0  0  0  0  0
  -29.1018  -16.2714   20.1640 C   0  0  0  0  0  0  0  0  0  0  0  0
  -33.2577  -24.5612   16.2904 C   0  0  0  0  0  0  0  0  0  0  0  0
  -29.2525  -13.7943   19.8639 C   0  0  0  0  0  0  0  0  0  0  0  0
  -22.4191  -28.8636   22.5070 C   0  0  0  0  0  0  0  0  0  0  0  0
  -21.5937  -25.7271   22.5678 C   0  0  0  0  0  0  0  0  0  0  0  0
  -22.4043  -22.5025   21.7987 C   0  0  0  0  0  0  0  0  0  0  0  0
  -29.2310  -21.7015   18.8826 C   0  0  0  0  0  0  0  0  0  0  0  0
  -19.0299  -32.1239   24.4923 C   0  0  0  0  0  0  0  0  0  0  0  0
  -22.7518  -28.2087   20.0952 C   0  0  0  0  0  0  0  0  0  0  0  0
  -23.9806  -26.2540   21.9429 C   0  0  0  0  0  0  0  0  0  0  0  0
  -19.4596  -30.6872   24.7780 C   0  0  0  0  0  0  0  0  0  0  0  0
  -27.0492  -20.6943   21.5097 C   0  0  0  0  0  0  0  0  0  0  0  0
  -20.9798  -30.5906   24.8581 C   0  0  0  0  0  0  0  0  0  0  0  0
  -26.9911  -19.1718   21.3735 C   0  0  0  0  0  0  0  0  0  0  0  0
  -27.1255  -21.3803   20.1476 C   0  0  0  0  0  0  0  0  0  0  0  0
  -28.1573  -19.3825   19.1387 C   0  0  0  0  0  0  0  0  0  0  0  0
  -21.6290  -30.9907   23.5277 C   0  0  1  0  0  0  0  0  0  0  0  0
  -22.1114  -27.8571   21.4345 C   0  0  1  0  0  0  0  0  0  0  0  0
  -28.1358  -18.6440   20.4879 C   0  0  2  0  0  0  0  0  0  0  0  0
  -33.4976  -25.2481   19.9038 C   0  0  0  0  0  0  0  0  0  0  0  0
  -21.5485  -20.1527   22.0075 C   0  0  0  0  0  0  0  0  0  0  0  0
  -22.3713  -25.7087   25.5183 C   0  0  0  0  0  0  0  0  0  0  0  0
  -22.4108  -23.2072   25.4204 C   0  0  0  0  0  0  0  0  0  0  0  0
  -20.2856  -24.4374   24.9811 C   0  0  0  0  0  0  0  0  0  0  0  0
  -32.7666  -26.7717   15.2034 C   0  0  0  0  0  0  0  0  0  0  0  0
  -22.3283  -22.1457   18.8617 C   0  0  0  0  0  0  0  0  0  0  0  0
  -33.7446  -22.7309   17.9954 C   0  0  0  0  0  0  0  0  0  0  0  0
  -32.8700  -27.7833   18.0186 C   0  0  0  0  0  0  0  0  0  0  0  0
  -32.5286  -21.9605   18.5625 C   0  0  0  0  0  0  0  0  0  0  0  0
  -31.4016  -28.2214   17.9866 C   0  0  0  0  0  0  0  0  0  0  0  0
  -30.5317  -27.4739   18.9982 C   0  0  0  0  0  0  0  0  0  0  0  0
  -31.3485  -21.8611   17.5982 C   0  0  0  0  0  0  0  0  0  0  0  0
  -29.0744  -27.9065   18.9099 C   0  0  0  0  0  0  0  0  0  1  0  0
  -22.1302  -24.4935   23.2530 C   0  0  1  0  0  0  0  0  0  0  0  0
  -21.6079  -21.3951   21.1325 C   0  0  2  0  0  0  0  0  0  0  0  0
  -21.8156  -24.4771   24.7756 C   0  0  0  0  0  0  0  0  0  0  0  0
  -26.8535  -16.5461   20.2957 N   0  0  0  0  0  0  0  0  0  0  0  0
  -33.0285  -25.9114   16.3397 N   0  0  0  0  0  0  0  0  0  0  0  0
  -28.0596  -17.1385   20.3129 N   0  0  0  0  0  0  0  0  0  0  0  0
  -22.5386  -26.5508   21.9397 N   0  0  0  0  0  0  0  0  0  0  0  0
  -28.2326  -20.8354   19.3580 N   0  0  0  0  0  0  0  0  0  0  0  0
  -30.3821  -16.6993   20.1581 N   0  0  0  0  0  0  0  0  0  0  0  0
  -28.5184  -12.6054   19.7554 N   0  0  0  0  0  0  0  0  0  0  0  0
  -21.5215  -29.9124   22.5685 N   0  0  0  0  0  0  0  0  0  0  0  0
  -21.5927  -23.3528   22.5195 N   0  0  0  0  0  0  0  0  0  0  0  0
  -30.2473  -21.1026   18.1484 N   0  0  0  0  0  0  0  0  0  0  0  0
  -22.2280  -21.0230   19.8294 N   0  3  0  0  0  0  0  0  0  0  0  0
  -30.5053  -13.7485   19.8200 O   0  0  0  0  0  0  0  0  0  0  0  0
  -23.3975  -28.6999   23.2264 O   0  0  0  0  0  0  0  0  0  0  0  0
  -20.3802  -25.9479   22.5831 O   0  0  0  0  0  0  0  0  0  0  0  0
  -23.6249  -22.6010   21.6935 O   0  0  0  0  0  0  0  0  0  0  0  0
  -29.2205  -22.9177   19.1012 O   0  0  0  0  0  0  0  0  0  0  0  0
  -23.0711  -11.4423   19.8550 O   0  0  0  0  0  0  0  0  0  0  0  0
  -28.3200  -27.1875   19.8847 O   0  0  0  0  0  0  0  0  0  1  0  0
  -23.7076   -6.7914   22.7479 F   0  0  0  0  0  0  0  0  0  0  0  0
  -21.2574  -10.7330   21.8171 F   0  0  0  0  0  0  0  0  0  0  0  0
  -33.2539  -23.7317   14.8050 Cl  0  0  0  0  0  0  0  0  0  0  0  0
  1  2  1  0  0  0  0
  1  5  2  0  0  0  0
  2  6  2  0  0  0  0
  3  8  2  0  0  0  0
  3 15  1  0  0  0  0
  4  9  1  0  0  0  0
  4 15  2  0  0  0  0
  5 17  1  0  0  0  0
  6 19  1  0  0  0  0
  7 10  2  0  0  0  0
  7 18  1  0  0  0  0
  8 23  1  0  0  0  0
  9 23  2  0  0  0  0
 10 24  1  0  0  0  0
 11 12  2  0  0  0  0
 11 25  1  0  0  0  0
 12 26  1  0  0  0  0
 13 20  1  0  0  0  0
 13 24  2  0  0  0  0
 14 26  2  0  0  0  0
 14 27  1  0  0  0  0
 15 28  1  0  0  0  0
 16 28  1  0  0  0  0
 16 30  2  0  0  0  0
 16 32  1  0  0  0  0
 17 19  2  0  0  0  0
 17 37  1  0  0  0  0
 18 20  2  0  0  0  0
 18 38  1  0  0  0  0
 19 46  1  0  0  0  0
 20 39  1  0  0  0  0
 21 22  1  0  0  0  0
 21 29  2  0  0  0  0
 21 49  1  0  0  0  0
 22 31  2  0  0  0  0
 22 56  1  0  0  0  0
 23 82  1  0  0  0  0
 24 83  1  0  0  0  0
 25 27  2  0  0  0  0
 25 82  1  0  0  0  0
 26 84  1  0  0  0  0
 27 85  1  0  0  0  0
 28 66  2  0  0  0  0
 29 57  1  0  0  0  0
 29 67  1  0  0  0  0
 30 68  1  0  0  0  0
 30 71  1  0  0  0  0
 31 67  1  0  0  0  0
 31 86  1  0  0  0  0
 32 72  1  0  0  0  0
 32 77  2  0  0  0  0
 33 47  1  0  0  0  0
 33 73  1  0  0  0  0
 33 78  2  0  0  0  0
 34 63  1  0  0  0  0
 34 69  1  0  0  0  0
 34 79  2  0  0  0  0
 35 64  1  0  0  0  0
 35 74  1  0  0  0  0
 35 80  2  0  0  0  0
 36 70  1  0  0  0  0
 36 75  1  0  0  0  0
 36 81  2  0  0  0  0
 37 40  1  0  0  0  0
 38 47  1  0  0  0  0
 39 69  1  0  0  0  0
 40 42  1  0  0  0  0
 41 43  1  0  0  0  0
 41 44  1  0  0  0  0
 42 46  1  0  0  0  0
 43 48  1  0  0  0  0
 44 70  1  0  0  0  0
 45 48  1  0  0  0  0
 45 70  1  0  0  0  0
 46 73  1  0  0  0  0
 47 69  1  0  0  0  0
 48 68  1  0  0  0  0
 50 64  1  0  0  0  0
 51 65  1  0  0  0  0
 52 65  1  0  0  0  0
 53 65  1  0  0  0  0
 54 67  1  0  0  0  0
 55 76  1  0  0  0  0
 56 58  1  0  0  0  0
 57 59  1  0  0  0  0
 58 61  1  0  0  0  0
 59 60  1  0  0  0  0
 60 62  1  0  0  0  0
 61 75  1  0  0  0  0
 62 83  1  0  0  0  0
 63 65  1  0  0  0  0
 63 74  1  0  0  0  0
 64 76  1  0  0  0  0
 66 68  1  0  0  0  0
M  CHG  1  76   1
M  ISO  4  36 100  62 101  75 100  83 101
M  END
> <Batch ID>
0027

> <Smiles>
CNC(C)C(=O)NC(C(=O)N1Cc2cc([101O:1][101CH2:1]CCCc3c(C)c(CCC[100NH:0][100C:0](=O)N4CCCC(n5nc(-c6ccc(Oc7ccc(F)cc7F)cc6)c(C(N)=O)c5N)C4)c(Cl)n3C)ccc2CC1C(=O)NC1CCCc2ccccc21)C(C)(C)C

> <Shape>
0.217

> <Color>
0.119

> <Negative vol penalty>
0.000

$$$$

  -OEChem-04052316303D

 85 93  0     1  0  0  0  0  0999 V2000
  -25.0002  -32.4233   20.4342 C   0  0  0  0  0  0  0  0  0  0  0  0
  -25.5187  -31.3855   19.6665 C   0  0  0  0  0  0  0  0  0  0  0  0
  -23.0796   -9.8622   19.9386 C   0  0  0  0  0  0  0  0  0  0  0  0
  -23.8390   -9.8688   22.2321 C   0  0  0  0  0  0  0  0  0  0  0  0
  -25.7680  -32.9863   21.4528 C   0  0  0  0  0  0  0  0  0  0  0  0
  -26.8058  -30.9108   19.9161 C   0  0  0  0  0  0  0  0  0  0  0  0
  -28.7656  -25.1327   19.3875 C   0  0  0  0  0  0  0  0  0  0  0  0
  -22.3381   -8.7073   20.1874 C   0  0  0  0  0  0  0  0  0  0  0  0
  -23.0975   -8.7139   22.4810 C   0  0  0  0  0  0  0  0  0  0  0  0
  -29.4597  -24.4663   18.3787 C   0  0  0  0  0  0  0  0  0  0  0  0
  -19.8710   -7.9087   23.0822 C   0  0  0  0  0  0  0  0  0  0  0  0
  -19.1139   -7.8661   24.2529 C   0  0  0  0  0  0  0  0  0  0  0  0
  -31.5319  -24.8703   19.5457 C   0  0  0  0  0  0  0  0  0  0  0  0
  -31.1466  -17.6731   20.5892 C   0  0  0  0  0  0  0  0  0  0  0  0
  -20.3593   -5.9307   24.9879 C   0  0  0  0  0  0  0  0  0  0  0  0
  -23.8301  -10.4430   20.9610 C   0  0  0  0  0  0  0  0  0  0  0  0
  -24.1666  -12.9690   20.8432 C   0  0  0  0  0  0  0  0  0  0  0  0
  -27.0616  -32.5117   21.7213 C   0  0  0  0  0  0  0  0  0  0  0  0
  -29.4518  -25.6834   20.4795 C   0  0  0  0  0  0  0  0  0  0  0  0
  -27.5922  -31.4688   20.9383 C   0  0  0  0  0  0  0  0  0  0  0  0
  -30.8439  -25.5411   20.5684 C   0  0  0  0  0  0  0  0  0  0  0  0
  -31.3393  -19.0544   20.5696 C   0  0  0  0  0  0  0  0  0  0  0  0
  -30.6247  -19.8708   21.4463 C   0  0  0  0  0  0  0  0  0  0  0  0
  -29.7173  -19.3058   22.3425 C   0  0  0  0  0  0  0  0  0  0  0  0
  -30.2392  -17.1081   21.4854 C   0  0  0  0  0  0  0  0  0  0  0  0
  -22.3471   -8.1331   21.4586 C   0  0  0  0  0  0  0  0  0  0  0  0
  -30.8434  -24.3375   18.4562 C   0  0  0  0  0  0  0  0  0  0  0  0
  -20.8722   -6.9622   22.8643 C   0  0  0  0  0  0  0  0  0  0  0  0
  -19.3580   -6.8771   25.2058 C   0  0  0  0  0  0  0  0  0  0  0  0
  -21.1163   -5.9732   23.8171 C   0  0  0  0  0  0  0  0  0  0  0  0
  -29.5246  -17.9245   22.3620 C   0  0  0  0  0  0  0  0  0  0  0  0
  -24.5967  -11.6357   20.7044 C   0  0  0  0  0  0  0  0  0  0  0  0
  -25.2572  -13.7211   20.4808 C   0  0  0  0  0  0  0  0  0  0  0  0
  -22.8949  -13.4817   21.2623 C   0  0  0  0  0  0  0  0  0  0  0  0
  -29.8364  -28.6182   21.6383 C   0  0  0  0  0  0  0  0  0  0  0  0
  -31.3372  -27.0493   24.0484 C   0  0  0  0  0  0  0  0  0  0  0  0
  -33.0166  -24.2673   25.0911 C   0  0  0  0  0  0  0  0  0  0  0  0
  -30.7211  -14.7782   20.6575 C   0  0  0  0  0  0  0  0  0  0  0  0
  -27.8715  -33.1836   22.8017 C   0  0  0  0  0  0  0  0  0  0  0  0
  -28.6855  -26.3761   21.5728 C   0  0  0  0  0  0  0  0  0  0  0  0
  -31.6252  -26.0966   21.7300 C   0  0  0  0  0  0  0  0  0  0  0  0
  -29.0849  -32.3716   23.2473 C   0  0  0  0  0  0  0  0  0  0  0  0
  -29.6123  -12.3640   18.2869 C   0  0  0  0  0  0  0  0  0  0  0  0
  -29.8498  -31.8467   22.0364 C   0  0  0  0  0  0  0  0  0  0  0  0
  -28.1732  -12.0690   18.7159 C   0  0  0  0  0  0  0  0  0  0  0  0
  -30.5267  -12.5938   19.4889 C   0  0  0  0  0  0  0  0  0  0  0  0
  -28.6179  -13.3130   20.8704 C   0  0  0  0  0  0  0  0  0  0  0  0
  -28.9749  -30.9099   21.1948 C   0  0  1  0  0  0  0  0  0  0  0  0
  -29.5423  -27.3456   22.3811 C   0  0  1  0  0  0  0  0  0  0  0  0
  -27.6457  -13.1386   19.6923 C   0  0  2  0  0  0  0  0  0  0  0  0
  -30.8328  -21.3524   21.4199 C   0  0  0  0  0  0  0  0  0  0  0  0
  -28.9586  -20.2000   23.2742 C   0  0  0  0  0  0  0  0  0  0  0  0
  -34.1536  -22.6929   26.6804 C   0  0  0  0  0  0  0  0  0  0  0  0
  -33.7283  -28.8882   23.5887 C   0  0  0  0  0  0  0  0  0  0  0  0
  -35.1236  -27.2913   24.9196 C   0  0  0  0  0  0  0  0  0  0  0  0
  -33.1942  -28.4525   25.9928 C   0  0  0  0  0  0  0  0  0  0  0  0
  -30.4717  -22.9056   25.7452 C   0  0  0  0  0  0  0  0  0  0  0  0
  -32.3205  -19.6367   19.5954 C   0  0  0  0  0  0  0  0  0  0  0  0
  -31.8483  -21.5982   16.3410 C   0  0  0  0  0  0  0  0  0  0  0  0
  -32.6058  -20.9515   17.4910 C   0  0  0  0  0  0  0  0  0  0  0  0
  -30.8336  -22.6440   16.7864 C   0  0  0  0  0  0  0  0  0  1  0  0
  -32.7562  -26.6101   24.3178 C   0  0  1  0  0  0  0  0  0  0  0  0
  -32.8524  -23.3938   26.3217 C   0  0  2  0  0  0  0  0  0  0  0  0
  -33.6864  -27.8016   24.6818 C   0  0  0  0  0  0  0  0  0  0  0  0
  -25.8618  -11.5429   20.2863 N   0  0  0  0  0  0  0  0  0  0  0  0
  -26.2360  -12.8274   20.1591 N   0  0  0  0  0  0  0  0  0  0  0  0
  -30.8315  -26.7709   22.7707 N   0  0  0  0  0  0  0  0  0  0  0  0
  -29.9653  -13.6226   20.3671 N   0  0  0  0  0  0  0  0  0  0  0  0
  -25.4648  -15.0531   20.4090 N   0  0  0  0  0  0  0  0  0  0  0  0
  -21.8849  -12.5701   21.5986 N   0  0  0  0  0  0  0  0  0  0  0  0
  -30.0716  -15.7011   21.4765 N   0  0  0  0  0  0  0  0  0  0  0  0
  -28.8869  -29.6061   21.8168 N   0  0  0  0  0  0  0  0  0  0  0  0
  -32.6760  -25.5788   25.3466 N   0  0  0  0  0  0  0  0  0  0  0  0
  -31.8094  -22.3560   26.0849 N   0  3  0  0  0  0  0  0  0  0  0  0
  -31.6657  -20.3103   18.4400 N   0  3  0  0  0  0  0  0  0  0  0  0
  -22.6560  -14.7118   21.3207 O   0  0  0  0  0  0  0  0  0  0  0  0
  -30.8506  -28.6984   20.9551 O   0  0  0  0  0  0  0  0  0  0  0  0
  -30.6985  -27.6120   24.9412 O   0  0  0  0  0  0  0  0  0  0  0  0
  -33.4114  -23.8307   24.0121 O   0  0  0  0  0  0  0  0  0  0  0  0
  -31.8499  -14.9497   20.1902 O   0  0  0  0  0  0  0  0  0  0  0  0
  -21.6235   -7.0063   21.7018 O   0  0  0  0  0  0  0  0  0  0  0  0
  -31.5234  -23.6880   17.4725 O   0  0  0  0  0  0  0  0  0  1  0  0
  -18.6320   -6.8373   26.3307 F   0  0  0  0  0  0  0  0  0  0  0  0
  -22.0776   -5.0620   23.6139 F   0  0  0  0  0  0  0  0  0  0  0  0
  -28.3969  -17.2235   23.4779 Cl  0  0  0  0  0  0  0  0  0  0  0  0
  1  2  1  0  0  0  0
  1  5  2  0  0  0  0
  2  6  2  0  0  0  0
  3  8  2  0  0  0  0
  3 16  1  0  0  0  0
  4  9  1  0  0  0  0
  4 16  2  0  0  0  0
  5 18  1  0  0  0  0
  6 20  1  0  0  0  0
  7 10  2  0  0  0  0
  7 19  1  0  0  0  0
  8 26  1  0  0  0  0
  9 26  2  0  0  0  0
 10 27  1  0  0  0  0
 11 12  2  0  0  0  0
 11 28  1  0  0  0  0
 12 29  1  0  0  0  0
 13 21  1  0  0  0  0
 13 27  2  0  0  0  0
 14 22  1  0  0  0  0
 14 25  2  0  0  0  0
 15 29  2  0  0  0  0
 15 30  1  0  0  0  0
 16 32  1  0  0  0  0
 17 32  1  0  0  0  0
 17 33  2  0  0  0  0
 17 34  1  0  0  0  0
 18 20  2  0  0  0  0
 18 39  1  0  0  0  0
 19 21  2  0  0  0  0
 19 40  1  0  0  0  0
 20 48  1  0  0  0  0
 21 41  1  0  0  0  0
 22 23  2  0  0  0  0
 22 58  1  0  0  0  0
 23 24  1  0  0  0  0
 23 51  1  0  0  0  0
 24 31  2  0  0  0  0
 24 52  1  0  0  0  0
 25 31  1  0  0  0  0
 25 71  1  0  0  0  0
 26 81  1  0  0  0  0
 27 82  1  0  0  0  0
 28 30  2  0  0  0  0
 28 81  1  0  0  0  0
 29 83  1  0  0  0  0
 30 84  1  0  0  0  0
 31 85  1  0  0  0  0
 32 65  2  0  0  0  0
 33 66  1  0  0  0  0
 33 69  1  0  0  0  0
 34 70  1  0  0  0  0
 34 76  2  0  0  0  0
 35 49  1  0  0  0  0
 35 72  1  0  0  0  0
 35 77  2  0  0  0  0
 36 62  1  0  0  0  0
 36 67  1  0  0  0  0
 36 78  2  0  0  0  0
 37 63  1  0  0  0  0
 37 73  1  0  0  0  0
 37 79  2  0  0  0  0
 38 68  1  0  0  0  0
 38 71  1  0  0  0  0
 38 80  2  0  0  0  0
 39 42  1  0  0  0  0
 40 49  1  0  0  0  0
 41 67  1  0  0  0  0
 42 44  1  0  0  0  0
 43 45  1  0  0  0  0
 43 46  1  0  0  0  0
 44 48  1  0  0  0  0
 45 50  1  0  0  0  0
 46 68  1  0  0  0  0
 47 50  1  0  0  0  0
 47 68  1  0  0  0  0
 48 72  1  0  0  0  0
 49 67  1  0  0  0  0
 50 66  1  0  0  0  0
 53 63  1  0  0  0  0
 54 64  1  0  0  0  0
 55 64  1  0  0  0  0
 56 64  1  0  0  0  0
 57 74  1  0  0  0  0
 58 75  1  0  0  0  0
 59 60  1  0  0  0  0
 59 61  1  0  0  0  0
 60 75  1  0  0  0  0
 61 82  1  0  0  0  0
 62 64  1  0  0  0  0
 62 73  1  0  0  0  0
 63 74  1  0  0  0  0
 65 66  1  0  0  0  0
M  CHG  2  74   1  75   1
M  ISO  4  38 100  61 101  71 100  82 101
M  END
> <Batch ID>
0027

> <Smiles>
CNC(C)C(=O)NC(C(=O)N1Cc2cc([101O:1][101CH2:1]CCNCc3cc([100NH:0][100C:0](=O)N4CCCC(n5nc(-c6ccc(Oc7ccc(F)cc7F)cc6)c(C(N)=O)c5N)C4)c(Cl)c(C)c3C)ccc2CC1C(=O)NC1CCCc2ccccc21)C(C)(C)C

> <Shape>
0.262

> <Color>
0.192

> <Negative vol penalty>
0.000

$$$$

  -OEChem-04052316303D

 89 98  0     1  0  0  0  0  0999 V2000
  -37.1595  -19.4437   32.2213 C   0  0  0  0  0  0  0  0  0  0  0  0
  -35.7719  -19.4587   32.1223 C   0  0  0  0  0  0  0  0  0  0  0  0
  -23.1033   -9.8602   19.9223 C   0  0  0  0  0  0  0  0  0  0  0  0
  -23.7958   -9.8797   22.2369 C   0  0  0  0  0  0  0  0  0  0  0  0
  -37.9012  -20.5352   31.7715 C   0  0  0  0  0  0  0  0  0  0  0  0
  -35.1252  -20.5658   31.5742 C   0  0  0  0  0  0  0  0  0  0  0  0
  -30.0201  -20.5457   28.1914 C   0  0  0  0  0  0  0  0  0  0  0  0
  -22.3461   -8.7128   20.1585 C   0  0  0  0  0  0  0  0  0  0  0  0
  -23.0386   -8.7323   22.4731 C   0  0  0  0  0  0  0  0  0  0  0  0
  -28.6840  -20.7873   28.5082 C   0  0  0  0  0  0  0  0  0  0  0  0
  -19.7899   -7.9558   22.9863 C   0  0  0  0  0  0  0  0  0  0  0  0
  -18.9988   -7.9283   24.1348 C   0  0  0  0  0  0  0  0  0  0  0  0
  -28.9338  -23.0765   27.7897 C   0  0  0  0  0  0  0  0  0  0  0  0
  -25.9981  -20.7557   25.4386 C   0  0  0  0  0  0  0  0  0  0  0  0
  -20.2075   -5.9897   24.9209 C   0  0  0  0  0  0  0  0  0  0  0  0
  -23.8282  -10.4436   20.9615 C   0  0  0  0  0  0  0  0  0  0  0  0
  -24.1872  -12.9660   20.8338 C   0  0  0  0  0  0  0  0  0  0  0  0
  -37.2638  -21.6522   31.2088 C   0  0  0  0  0  0  0  0  0  0  0  0
  -30.8273  -21.5723   27.6808 C   0  0  0  0  0  0  0  0  0  0  0  0
  -35.8590  -21.6739   31.1176 C   0  0  0  0  0  0  0  0  0  0  0  0
  -30.2791  -22.8447   27.4648 C   0  0  0  0  0  0  0  0  0  0  0  0
  -24.8284  -21.4486   25.7299 C   0  0  0  0  0  0  0  0  0  0  0  0
  -22.3137   -8.1489   21.4338 C   0  0  0  0  0  0  0  0  0  0  0  0
  -28.1414  -22.0535   28.3101 C   0  0  0  0  0  0  0  0  0  0  0  0
  -20.7897   -7.0003   22.8051 C   0  0  0  0  0  0  0  0  0  0  0  0
  -19.2076   -6.9453   25.1021 C   0  0  0  0  0  0  0  0  0  0  0  0
  -20.9985   -6.0172   23.7724 C   0  0  0  0  0  0  0  0  0  0  0  0
  -24.0865  -22.0138   24.6986 C   0  0  0  0  0  0  0  0  0  0  0  0
  -24.6110  -11.6286   20.7180 C   0  0  0  0  0  0  0  0  0  0  0  0
  -26.3798  -20.6571   24.1103 C   0  0  0  0  0  0  0  0  0  0  0  0
  -24.5539  -21.8591   23.4035 C   0  0  0  0  0  0  0  0  0  0  0  0
  -25.2936  -13.7071   20.4974 C   0  0  0  0  0  0  0  0  0  0  0  0
  -22.9078  -13.4915   21.2117 C   0  0  0  0  0  0  0  0  0  0  0  0
  -33.4659  -23.0491   28.6611 C   0  0  0  0  0  0  0  0  0  0  0  0
  -33.2885  -24.4643   25.7476 C   0  0  0  0  0  0  0  0  0  0  0  0
  -31.3567  -25.4033   23.0956 C   0  0  0  0  0  0  0  0  0  0  0  0
  -30.6595  -14.7782   20.6710 C   0  0  0  0  0  0  0  0  0  0  0  0
  -38.1049  -22.8283   30.7796 C   0  0  0  0  0  0  0  0  0  0  0  0
  -32.2595  -21.2886   27.3190 C   0  0  0  0  0  0  0  0  0  0  0  0
  -31.0980  -23.9756   26.9001 C   0  0  0  0  0  0  0  0  0  0  0  0
  -37.3663  -23.8050   29.8681 C   0  0  0  0  0  0  0  0  0  0  0  0
  -29.6924  -12.3280   18.4317 C   0  0  0  0  0  0  0  0  0  0  0  0
  -35.9813  -24.1141   30.4276 C   0  0  0  0  0  0  0  0  0  0  0  0
  -28.2460  -12.0277   18.8247 C   0  0  0  0  0  0  0  0  0  0  0  0
  -29.0098  -17.9453   21.6583 C   0  0  0  0  0  0  0  0  0  0  0  0
  -28.4842  -16.1793   23.3770 C   0  0  0  0  0  0  0  0  0  0  0  0
  -30.5658  -12.5164   19.6668 C   0  0  0  0  0  0  0  0  0  0  0  0
  -30.2374  -17.1428   21.2363 C   0  0  0  0  0  0  0  0  0  0  0  0
  -29.7238  -15.4134   22.9267 C   0  0  0  0  0  0  0  0  0  0  0  0
  -28.6312  -13.2932   20.9970 C   0  0  0  0  0  0  0  0  0  0  0  0
  -35.1225  -22.8461   30.5064 C   0  0  1  0  0  0  0  0  0  0  0  0
  -33.1275  -22.5427   27.2875 C   0  0  1  0  0  0  0  0  0  0  0  0
  -28.6380  -17.6851   23.1238 C   0  0  0  0  0  0  0  0  0  0  0  0
  -27.6998  -13.1008   19.7833 C   0  0  2  0  0  0  0  0  0  0  0  0
  -23.8123  -22.4377   22.2420 C   0  0  0  0  0  0  0  0  0  0  0  0
  -31.4871  -26.5760   20.8808 C   0  0  0  0  0  0  0  0  0  0  0  0
  -33.4428  -27.1525   27.1827 C   0  0  0  0  0  0  0  0  0  0  0  0
  -32.6252  -28.2421   25.0821 C   0  0  0  0  0  0  0  0  0  0  0  0
  -34.7950  -27.0114   25.0837 C   0  0  0  0  0  0  0  0  0  0  0  0
  -30.4568  -22.9918   21.6348 C   0  0  0  0  0  0  0  0  0  0  0  0
  -24.4068  -21.5614   27.1591 C   0  0  0  0  0  0  0  0  0  0  0  0
  -27.6427  -19.9128   23.7570 C   0  0  0  0  0  0  0  0  0  0  0  0
  -27.3617  -18.4328   23.5023 C   0  0  0  0  0  0  0  0  0  0  0  0
  -24.6767  -22.9360   27.7884 C   0  0  0  0  0  0  0  0  0  0  0  0
  -26.1590  -23.2852   27.8527 C   0  0  0  0  0  0  0  0  0  1  0  0
  -32.6313  -25.7090   25.2019 C   0  0  1  0  0  0  0  0  0  0  0  0
  -31.5506  -25.2371   21.5992 C   0  0  2  0  0  0  0  0  0  0  0  0
  -33.3584  -27.0081   25.6501 C   0  0  0  0  0  0  0  0  0  0  0  0
  -25.8870  -11.5231   20.3377 N   0  0  0  0  0  0  0  0  0  0  0  0
  -25.6854  -21.1929   23.0816 N   0  0  0  0  0  0  0  0  0  0  0  0
  -26.2745  -12.8037   20.2114 N   0  0  0  0  0  0  0  0  0  0  0  0
  -32.4948  -23.6501   26.5680 N   0  0  0  0  0  0  0  0  0  0  0  0
  -30.0114  -13.5395   20.5532 N   0  0  0  0  0  0  0  0  0  0  0  0
  -30.0752  -15.7203   21.5338 N   0  0  0  0  0  0  0  0  0  0  0  0
  -25.5133  -15.0369   20.4212 N   0  0  0  0  0  0  0  0  0  0  0  0
  -21.8815  -12.5901   21.5255 N   0  0  0  0  0  0  0  0  0  0  0  0
  -34.6141  -22.4979   29.1969 N   0  0  0  0  0  0  0  0  0  0  0  0
  -32.5605  -25.5325   23.7554 N   0  0  0  0  0  0  0  0  0  0  0  0
  -30.4937  -24.3505   21.0353 N   0  3  0  0  0  0  0  0  0  0  0  0
  -22.6767  -14.7237   21.2534 O   0  0  0  0  0  0  0  0  0  0  0  0
  -32.7398  -23.8797   29.1946 O   0  0  0  0  0  0  0  0  0  0  0  0
  -34.4606  -24.2196   25.4509 O   0  0  0  0  0  0  0  0  0  0  0  0
  -30.2480  -25.4209   23.6257 O   0  0  0  0  0  0  0  0  0  0  0  0
  -31.6944  -15.0315   20.0418 O   0  0  0  0  0  0  0  0  0  0  0  0
  -21.5748   -7.0294   21.6647 O   0  0  0  0  0  0  0  0  0  0  0  0
  -26.8286  -22.2939   28.6212 O   0  0  0  0  0  0  0  0  0  1  0  0
  -18.4488   -6.9199   26.2057 F   0  0  0  0  0  0  0  0  0  0  0  0
  -21.9584   -5.0973   23.6044 F   0  0  0  0  0  0  0  0  0  0  0  0
  -22.6305  -22.8800   25.0266 Cl  0  0  0  0  0  0  0  0  0  0  0  0
  1  2  1  0  0  0  0
  1  5  2  0  0  0  0
  2  6  2  0  0  0  0
  3  8  2  0  0  0  0
  3 16  1  0  0  0  0
  4  9  1  0  0  0  0
  4 16  2  0  0  0  0
  5 18  1  0  0  0  0
  6 20  1  0  0  0  0
  7 10  2  0  0  0  0
  7 19  1  0  0  0  0
  8 23  1  0  0  0  0
  9 23  2  0  0  0  0
 10 24  1  0  0  0  0
 11 12  2  0  0  0  0
 11 25  1  0  0  0  0
 12 26  1  0  0  0  0
 13 21  1  0  0  0  0
 13 24  2  0  0  0  0
 14 22  1  0  0  0  0
 14 30  2  0  0  0  0
 15 26  2  0  0  0  0
 15 27  1  0  0  0  0
 16 29  1  0  0  0  0
 17 29  1  0  0  0  0
 17 32  2  0  0  0  0
 17 33  1  0  0  0  0
 18 20  2  0  0  0  0
 18 38  1  0  0  0  0
 19 21  2  0  0  0  0
 19 39  1  0  0  0  0
 20 51  1  0  0  0  0
 21 40  1  0  0  0  0
 22 28  2  0  0  0  0
 22 61  1  0  0  0  0
 23 85  1  0  0  0  0
 24 86  1  0  0  0  0
 25 27  2  0  0  0  0
 25 85  1  0  0  0  0
 26 87  1  0  0  0  0
 27 88  1  0  0  0  0
 28 31  1  0  0  0  0
 28 89  1  0  0  0  0
 29 69  2  0  0  0  0
 30 62  1  0  0  0  0
 30 70  1  0  0  0  0
 31 55  1  0  0  0  0
 31 70  2  0  0  0  0
 32 71  1  0  0  0  0
 32 75  1  0  0  0  0
 33 76  1  0  0  0  0
 33 80  2  0  0  0  0
 34 52  1  0  0  0  0
 34 77  1  0  0  0  0
 34 81  2  0  0  0  0
 35 66  1  0  0  0  0
 35 72  1  0  0  0  0
 35 82  2  0  0  0  0
 36 67  1  0  0  0  0
 36 78  1  0  0  0  0
 36 83  2  0  0  0  0
 37 73  1  0  0  0  0
 37 74  1  0  0  0  0
 37 84  2  0  0  0  0
 38 41  1  0  0  0  0
 39 52  1  0  0  0  0
 40 72  1  0  0  0  0
 41 43  1  0  0  0  0
 42 44  1  0  0  0  0
 42 47  1  0  0  0  0
 43 51  1  0  0  0  0
 44 54  1  0  0  0  0
 45 48  1  0  0  0  0
 45 53  1  0  0  0  0
 46 49  1  0  0  0  0
 46 53  1  0  0  0  0
 47 73  1  0  0  0  0
 48 74  1  0  0  0  0
 49 74  1  0  0  0  0
 50 54  1  0  0  0  0
 50 73  1  0  0  0  0
 51 77  1  0  0  0  0
 52 72  1  0  0  0  0
 53 63  1  0  0  0  0
 54 71  1  0  0  0  0
 56 67  1  0  0  0  0
 57 68  1  0  0  0  0
 58 68  1  0  0  0  0
 59 68  1  0  0  0  0
 60 79  1  0  0  0  0
 61 64  1  0  0  0  0
 62 63  1  0  0  0  0
 64 65  1  0  0  0  0
 65 86  1  0  0  0  0
 66 68  1  0  0  0  0
 66 78  1  0  0  0  0
 67 79  1  0  0  0  0
 69 71  1  0  0  0  0
M  CHG  1  79   1
M  ISO  4  37 100  65 101  74 100  86 101
M  END
> <Batch ID>
0027

> <Smiles>
CNC(C)C(=O)NC(C(=O)N1Cc2cc([101O:1][101CH2:1]CCc3cc(CCC4CC[100N:0]([100C:0](=O)N5CCCC(n6nc(-c7ccc(Oc8ccc(F)cc8F)cc7)c(C(N)=O)c6N)C5)CC4)nc(C)c3Cl)ccc2CC1C(=O)NC1CCCc2ccccc21)C(C)(C)C

> <Shape>
0.175

> <Color>
0.194

> <Negative vol penalty>
0.000

$$$$

  -OEChem-04052316303D

 89 98  0     1  0  0  0  0  0999 V2000
  -30.1036  -32.5989   10.1823 C   0  0  0  0  0  0  0  0  0  0  0  0
  -29.9911  -32.4498   11.5609 C   0  0  0  0  0  0  0  0  0  0  0  0
  -22.9742   -9.8436   20.0113 C   0  0  0  0  0  0  0  0  0  0  0  0
  -23.6718   -9.9553   22.3217 C   0  0  0  0  0  0  0  0  0  0  0  0
  -29.4918  -31.6799    9.3307 C   0  0  0  0  0  0  0  0  0  0  0  0
  -29.2658  -31.3822   12.0887 C   0  0  0  0  0  0  0  0  0  0  0  0
  -30.4808  -28.2929   17.2351 C   0  0  0  0  0  0  0  0  0  0  0  0
  -22.1964   -8.7224   20.3004 C   0  0  0  0  0  0  0  0  0  0  0  0
  -22.8940   -8.8341   22.6108 C   0  0  0  0  0  0  0  0  0  0  0  0
  -29.9662  -28.3842   18.5276 C   0  0  0  0  0  0  0  0  0  0  0  0
  -23.1203   -5.4815   22.2370 C   0  0  0  0  0  0  0  0  0  0  0  0
  -23.6915   -4.4822   23.0249 C   0  0  0  0  0  0  0  0  0  0  0  0
  -28.4243  -26.5959   18.0337 C   0  0  0  0  0  0  0  0  0  0  0  0
  -29.7792  -19.2341   22.0971 C   0  0  0  0  0  0  0  0  0  0  0  0
  -31.2206  -17.4825   20.4733 C   0  0  0  0  0  0  0  0  0  0  0  0
  -21.9493   -4.7844   24.6712 C   0  0  0  0  0  0  0  0  0  0  0  0
  -23.7119  -10.4601   21.0220 C   0  0  0  0  0  0  0  0  0  0  0  0
  -24.1172  -12.9670   20.7793 C   0  0  0  0  0  0  0  0  0  0  0  0
  -28.7668  -30.5950    9.8485 C   0  0  0  0  0  0  0  0  0  0  0  0
  -29.9627  -27.3581   16.3272 C   0  0  0  0  0  0  0  0  0  0  0  0
  -28.6427  -30.4486   11.2433 C   0  0  0  0  0  0  0  0  0  0  0  0
  -28.9358  -26.4930   16.7311 C   0  0  0  0  0  0  0  0  0  0  0  0
  -30.7235  -19.7324   21.1997 C   0  0  0  0  0  0  0  0  0  0  0  0
  -30.2763  -16.9841   21.3707 C   0  0  0  0  0  0  0  0  0  0  0  0
  -22.1563   -8.2176   21.6001 C   0  0  0  0  0  0  0  0  0  0  0  0
  -28.9359  -27.5377   18.9262 C   0  0  0  0  0  0  0  0  0  0  0  0
  -21.9636   -6.1323   22.6662 C   0  0  0  0  0  0  0  0  0  0  0  0
  -23.1060   -4.1336   24.2419 C   0  0  0  0  0  0  0  0  0  0  0  0
  -21.3781   -5.7838   23.8833 C   0  0  0  0  0  0  0  0  0  0  0  0
  -29.5555  -17.8599   22.1826 C   0  0  0  0  0  0  0  0  0  0  0  0
  -31.4443  -18.8567   20.3878 C   0  0  0  0  0  0  0  0  0  0  0  0
  -24.5159  -11.6180   20.7239 C   0  0  0  0  0  0  0  0  0  0  0  0
  -25.2363  -13.6714   20.4082 C   0  0  0  0  0  0  0  0  0  0  0  0
  -22.8485  -13.5327   21.1345 C   0  0  0  0  0  0  0  0  0  0  0  0
  -28.4893  -27.5397   13.5165 C   0  0  0  0  0  0  0  0  0  0  0  0
  -28.7803  -24.3099   13.5944 C   0  0  0  0  0  0  0  0  0  0  0  0
  -29.1484  -21.4784   15.4636 C   0  0  0  0  0  0  0  0  0  0  0  0
  -30.7193  -14.6017   20.6820 C   0  0  0  0  0  0  0  0  0  0  0  0
  -28.0834  -29.6541    8.8881 C   0  0  0  0  0  0  0  0  0  0  0  0
  -30.5469  -27.2541   14.9450 C   0  0  0  0  0  0  0  0  0  0  0  0
  -28.3586  -25.4586   15.8008 C   0  0  0  0  0  0  0  0  0  0  0  0
  -27.6472  -28.3395    9.5299 C   0  0  0  0  0  0  0  0  0  0  0  0
  -29.6118  -12.0911   18.4132 C   0  0  0  0  0  0  0  0  0  0  0  0
  -26.9441  -28.6014   10.8581 C   0  0  0  0  0  0  0  0  0  0  0  0
  -28.1545  -11.8552   18.8166 C   0  0  0  0  0  0  0  0  0  0  0  0
  -29.6326  -21.9155   20.7188 C   0  0  0  0  0  0  0  0  0  0  0  0
  -31.4177  -21.7369   22.4987 C   0  0  0  0  0  0  0  0  0  0  0  0
  -30.4993  -12.3628   19.6265 C   0  0  0  0  0  0  0  0  0  0  0  0
  -28.5737  -13.2023   20.9134 C   0  0  0  0  0  0  0  0  0  0  0  0
  -29.7901  -23.4307   20.7266 C   0  0  0  0  0  0  0  0  0  0  0  0
  -31.5618  -23.2534   22.4926 C   0  0  0  0  0  0  0  0  0  0  0  0
  -30.9331  -21.2111   21.1379 C   0  0  0  0  0  0  0  0  0  0  0  0
  -27.8852  -29.2897   11.8542 C   0  0  1  0  0  0  0  0  0  0  0  0
  -29.5941  -26.6137   13.9403 C   0  0  1  0  0  0  0  0  0  0  0  0
  -27.6291  -12.9886   19.7194 C   0  0  2  0  0  0  0  0  0  0  0  0
  -29.4971  -19.0426   15.9564 C   0  0  0  0  0  0  0  0  0  0  0  0
  -25.7730  -24.1523   13.1029 C   0  0  0  0  0  0  0  0  0  0  0  0
  -25.8490  -21.7597   13.8362 C   0  0  0  0  0  0  0  0  0  0  0  0
  -27.1282  -22.4862   11.8216 C   0  0  0  0  0  0  0  0  0  0  0  0
  -32.0928  -21.7760   15.4397 C   0  0  0  0  0  0  0  0  0  0  0  0
  -28.8973  -25.9085   22.4694 C   0  0  0  0  0  0  0  0  0  0  0  0
  -28.8889  -27.4339   22.5348 C   0  0  0  0  0  0  0  0  0  0  0  0
  -30.2976  -25.3811   22.1939 C   0  0  0  0  0  0  0  0  0  0  0  0
  -29.3227  -28.0556   21.2149 C   0  0  0  0  0  0  0  0  0  1  0  0
  -27.9359  -23.1727   14.1169 C   0  0  1  0  0  0  0  0  0  0  0  0
  -30.0863  -20.2932   15.3225 C   0  0  2  0  0  0  0  0  0  0  0  0
  -26.6809  -22.9134   13.2366 C   0  0  0  0  0  0  0  0  0  0  0  0
  -25.7890  -11.4717   20.3471 N   0  0  0  0  0  0  0  0  0  0  0  0
  -26.1998  -12.7378   20.1623 N   0  0  0  0  0  0  0  0  0  0  0  0
  -28.9590  -25.4000   14.4579 N   0  0  0  0  0  0  0  0  0  0  0  0
  -29.9417  -13.4511   20.4324 N   0  0  0  0  0  0  0  0  0  0  0  0
  -25.4804  -14.9920   20.2713 N   0  0  0  0  0  0  0  0  0  0  0  0
  -21.8064  -12.6657   21.4904 N   0  0  0  0  0  0  0  0  0  0  0  0
  -30.0724  -15.5832   21.4321 N   0  0  0  0  0  0  0  0  0  0  0  0
  -28.8041  -28.3298   12.4274 N   0  0  0  0  0  0  0  0  0  0  0  0
  -28.8278  -22.0247   14.2388 N   0  0  0  0  0  0  0  0  0  0  0  0
  -30.2488  -23.9025   22.0943 N   0  3  0  0  0  0  0  0  0  0  0  0
  -31.3911  -20.5839   15.9813 N   0  3  0  0  0  0  0  0  0  0  0  0
  -22.6403  -14.7696   21.1205 O   0  0  0  0  0  0  0  0  0  0  0  0
  -27.4292  -27.5366   14.1312 O   0  0  0  0  0  0  0  0  0  0  0  0
  -29.2692  -24.2307   12.4647 O   0  0  0  0  0  0  0  0  0  0  0  0
  -28.7379  -21.8772   16.5512 O   0  0  0  0  0  0  0  0  0  0  0  0
  -31.8643  -14.7199   20.2382 O   0  0  0  0  0  0  0  0  0  0  0  0
  -21.3973   -7.1237   21.8825 O   0  0  0  0  0  0  0  0  0  0  0  0
  -28.4313  -27.6252   20.1870 O   0  0  0  0  0  0  0  0  0  1  0  0
  -23.6537   -3.1729   24.9977 F   0  0  0  0  0  0  0  0  0  0  0  0
  -20.2662   -6.4046   24.3004 F   0  0  0  0  0  0  0  0  0  0  0  0
  -28.3774  -17.2848   23.3077 Cl  0  0  0  0  0  0  0  0  0  0  0  0
  -32.6214  -19.4377   19.2668 Cl  0  0  0  0  0  0  0  0  0  0  0  0
  1  2  1  0  0  0  0
  1  5  2  0  0  0  0
  2  6  2  0  0  0  0
  3  8  2  0  0  0  0
  3 17  1  0  0  0  0
  4  9  1  0  0  0  0
  4 17  2  0  0  0  0
  5 19  1  0  0  0  0
  6 21  1  0  0  0  0
  7 10  2  0  0  0  0
  7 20  1  0  0  0  0
  8 25  1  0  0  0  0
  9 25  2  0  0  0  0
 10 26  1  0  0  0  0
 11 12  2  0  0  0  0
 11 27  1  0  0  0  0
 12 28  1  0  0  0  0
 13 22  1  0  0  0  0
 13 26  2  0  0  0  0
 14 23  1  0  0  0  0
 14 30  2  0  0  0  0
 15 24  2  0  0  0  0
 15 31  1  0  0  0  0
 16 28  2  0  0  0  0
 16 29  1  0  0  0  0
 17 32  1  0  0  0  0
 18 32  1  0  0  0  0
 18 33  2  0  0  0  0
 18 34  1  0  0  0  0
 19 21  2  0  0  0  0
 19 39  1  0  0  0  0
 20 22  2  0  0  0  0
 20 40  1  0  0  0  0
 21 53  1  0  0  0  0
 22 41  1  0  0  0  0
 23 31  2  0  0  0  0
 23 52  1  0  0  0  0
 24 30  1  0  0  0  0
 24 74  1  0  0  0  0
 25 84  1  0  0  0  0
 26 85  1  0  0  0  0
 27 29  2  0  0  0  0
 27 84  1  0  0  0  0
 28 86  1  0  0  0  0
 29 87  1  0  0  0  0
 30 88  1  0  0  0  0
 31 89  1  0  0  0  0
 32 68  2  0  0  0  0
 33 69  1  0  0  0  0
 33 72  1  0  0  0  0
 34 73  1  0  0  0  0
 34 79  2  0  0  0  0
 35 54  1  0  0  0  0
 35 75  1  0  0  0  0
 35 80  2  0  0  0  0
 36 65  1  0  0  0  0
 36 70  1  0  0  0  0
 36 81  2  0  0  0  0
 37 66  1  0  0  0  0
 37 76  1  0  0  0  0
 37 82  2  0  0  0  0
 38 71  1  0  0  0  0
 38 74  1  0  0  0  0
 38 83  2  0  0  0  0
 39 42  1  0  0  0  0
 40 54  1  0  0  0  0
 41 70  1  0  0  0  0
 42 44  1  0  0  0  0
 43 45  1  0  0  0  0
 43 48  1  0  0  0  0
 44 53  1  0  0  0  0
 45 55  1  0  0  0  0
 46 50  1  0  0  0  0
 46 52  1  0  0  0  0
 47 51  1  0  0  0  0
 47 52  1  0  0  0  0
 48 71  1  0  0  0  0
 49 55  1  0  0  0  0
 49 71  1  0  0  0  0
 50 77  1  0  0  0  0
 51 77  1  0  0  0  0
 53 75  1  0  0  0  0
 54 70  1  0  0  0  0
 55 69  1  0  0  0  0
 56 66  1  0  0  0  0
 57 67  1  0  0  0  0
 58 67  1  0  0  0  0
 59 67  1  0  0  0  0
 60 78  1  0  0  0  0
 61 62  1  0  0  0  0
 61 63  1  0  0  0  0
 62 64  1  0  0  0  0
 63 77  1  0  0  0  0
 64 85  1  0  0  0  0
 65 67  1  0  0  0  0
 65 76  1  0  0  0  0
 66 78  1  0  0  0  0
 68 69  1  0  0  0  0
M  CHG  2  77   1  78   1
M  ISO  4  38 100  64 101  74 100  85 101
M  END
> <Batch ID>
0027

> <Smiles>
CNC(C)C(=O)NC(C(=O)N1Cc2cc([101O:1][101CH2:1]CCCN3CCC(c4cc(Cl)c([100NH:0][100C:0](=O)N5CCCC(n6nc(-c7ccc(Oc8ccc(F)cc8F)cc7)c(C(N)=O)c6N)C5)cc4Cl)CC3)ccc2CC1C(=O)NC1CCCc2ccccc21)C(C)(C)C

> <Shape>
0.225

> <Color>
0.203

> <Negative vol penalty>
0.000

$$$$

  -OEChem-04052316303D

 84 92  0     1  0  0  0  0  0999 V2000
  -30.2622  -20.4859   16.6155 C   0  0  0  0  0  0  0  0  0  0  0  0
  -29.3415  -20.7064   17.6336 C   0  0  0  0  0  0  0  0  0  0  0  0
  -27.3214  -13.8000   19.4724 C   0  0  0  0  0  0  0  0  0  0  0  0
  -26.7107  -13.7208   21.8086 C   0  0  0  0  0  0  0  0  0  0  0  0
  -30.9889  -21.5545   16.0947 C   0  0  0  0  0  0  0  0  0  0  0  0
  -29.1386  -21.9972   18.1231 C   0  0  0  0  0  0  0  0  0  0  0  0
  -25.4715  -22.6152   21.3440 C   0  0  0  0  0  0  0  0  0  0  0  0
  -30.9373  -21.3967   27.9772 C   0  0  0  0  0  0  0  0  0  0  0  0
  -31.8079  -20.4571   27.4252 C   0  0  0  0  0  0  0  0  0  0  0  0
  -26.8627  -12.4930   19.3082 C   0  0  0  0  0  0  0  0  0  0  0  0
  -26.2519  -12.4138   21.6444 C   0  0  0  0  0  0  0  0  0  0  0  0
  -25.5347  -22.1495   22.6565 C   0  0  0  0  0  0  0  0  0  0  0  0
  -24.5885   -9.1830   21.7584 C   0  0  0  0  0  0  0  0  0  0  0  0
  -23.3606   -8.8492   22.3297 C   0  0  0  0  0  0  0  0  0  0  0  0
  -25.9642  -24.3949   23.4263 C   0  0  0  0  0  0  0  0  0  0  0  0
  -22.2762  -10.5394   20.9863 C   0  0  0  0  0  0  0  0  0  0  0  0
  -27.2454  -14.4139   20.7227 C   0  0  0  0  0  0  0  0  0  0  0  0
  -26.9785  -16.9508   20.7398 C   0  0  0  0  0  0  0  0  0  0  0  0
  -30.8032  -22.8567   16.5872 C   0  0  0  0  0  0  0  0  0  0  0  0
  -25.6654  -23.9750   21.0611 C   0  0  0  0  0  0  0  0  0  0  0  0
  -29.8450  -23.0924   17.5940 C   0  0  0  0  0  0  0  0  0  0  0  0
  -25.9005  -24.8758   22.1096 C   0  0  0  0  0  0  0  0  0  0  0  0
  -29.6539  -21.0138   28.3673 C   0  0  0  0  0  0  0  0  0  0  0  0
  -31.3951  -19.1346   27.2632 C   0  0  0  0  0  0  0  0  0  0  0  0
  -26.3280  -11.7999   20.3942 C   0  0  0  0  0  0  0  0  0  0  0  0
  -25.7840  -23.0389   23.6977 C   0  0  0  0  0  0  0  0  0  0  0  0
  -24.6603  -10.1950   20.8011 C   0  0  0  0  0  0  0  0  0  0  0  0
  -22.2044   -9.5274   21.9437 C   0  0  0  0  0  0  0  0  0  0  0  0
  -23.5042  -10.8732   20.4150 C   0  0  0  0  0  0  0  0  0  0  0  0
  -29.2412  -19.6913   28.2053 C   0  0  0  0  0  0  0  0  0  0  0  0
  -30.1118  -18.7517   27.6532 C   0  0  0  0  0  0  0  0  0  0  0  0
  -27.7196  -15.7638   20.8931 C   0  0  0  0  0  0  0  0  0  0  0  0
  -27.8772  -17.9539   21.0096 C   0  0  0  0  0  0  0  0  0  0  0  0
  -25.6009  -17.1307   20.3853 C   0  0  0  0  0  0  0  0  0  0  0  0
  -27.7847  -25.6345   19.3705 C   0  0  0  0  0  0  0  0  0  0  0  0
  -25.8260  -28.1196   20.0846 C   0  0  0  0  0  0  0  0  0  0  0  0
  -23.4714  -29.4468   22.1681 C   0  0  0  0  0  0  0  0  0  0  0  0
  -32.9108  -18.1571   24.2457 C   0  0  0  0  0  0  0  0  0  0  0  0
  -31.6107  -23.9777   15.9818 C   0  0  0  0  0  0  0  0  0  0  0  0
  -25.5675  -24.4657   19.6427 C   0  0  0  0  0  0  0  0  0  0  0  0
  -26.0954  -26.3485   21.8611 C   0  0  0  0  0  0  0  0  0  0  0  0
  -31.6506  -25.2236   16.8608 C   0  0  0  0  0  0  0  0  0  0  0  0
  -32.5515  -18.9515   20.7937 C   0  0  0  0  0  0  0  0  0  0  0  0
  -30.2424  -25.5942   17.3013 C   0  0  0  0  0  0  0  0  0  0  0  0
  -31.2055  -18.3317   20.4139 C   0  0  0  0  0  0  0  0  0  0  0  0
  -33.3064  -18.0874   21.8013 C   0  0  0  0  0  0  0  0  0  0  0  0
  -31.1977  -17.1226   22.6358 C   0  0  0  0  0  0  0  0  0  0  0  0
  -29.6295  -24.4831   18.1631 C   0  0  1  0  0  0  0  0  0  0  0  0
  -26.2909  -25.7898   19.4173 C   0  0  1  0  0  0  0  0  0  0  0  0
  -30.3747  -17.9858   21.6642 C   0  0  2  0  0  0  0  0  0  0  0  0
  -22.0875  -31.5111   22.5158 C   0  0  0  0  0  0  0  0  0  0  0  0
  -28.2775  -29.5778   21.1680 C   0  0  0  0  0  0  0  0  0  0  0  0
  -26.7317  -31.1665   22.3320 C   0  0  0  0  0  0  0  0  0  0  0  0
  -26.7132  -31.0097   19.8424 C   0  0  0  0  0  0  0  0  0  0  0  0
  -20.9410  -27.9403   21.8749 C   0  0  0  0  0  0  0  0  0  0  0  0
  -28.7513  -22.0671   28.9588 C   0  0  0  0  0  0  0  0  0  0  0  0
  -32.3655  -18.1655   26.6668 C   0  0  0  0  0  0  0  0  0  0  0  0
  -28.1539  -23.0242   27.9214 C   0  0  0  0  0  0  0  0  0  0  0  0
  -27.2416  -22.3221   26.9145 C   0  0  0  0  0  0  0  0  0  0  0  0
  -26.6993  -23.2963   25.8775 C   0  0  0  0  0  0  0  0  0  1  0  0
  -25.7367  -29.1212   21.2106 C   0  0  1  0  0  0  0  0  0  0  0  0
  -22.1450  -30.1286   21.8848 C   0  0  2  0  0  0  0  0  0  0  0  0
  -26.8631  -30.1908   21.1431 C   0  0  0  0  0  0  0  0  0  0  0  0
  -28.9911  -15.9901   21.2337 N   0  0  0  0  0  0  0  0  0  0  0  0
  -29.0560  -17.3310   21.2965 N   0  0  0  0  0  0  0  0  0  0  0  0
  -25.9968  -26.7786   20.4565 N   0  0  0  0  0  0  0  0  0  0  0  0
  -32.4637  -17.7968   22.9637 N   0  0  0  0  0  0  0  0  0  0  0  0
  -27.7661  -19.2992   21.0269 N   0  0  0  0  0  0  0  0  0  0  0  0
  -24.8197  -15.9929   20.1417 N   0  0  0  0  0  0  0  0  0  0  0  0
  -28.2304  -24.7749   18.3846 N   0  0  0  0  0  0  0  0  0  0  0  0
  -24.3864  -29.6714   21.1614 N   0  0  0  0  0  0  0  0  0  0  0  0
  -32.0484  -17.8514   25.2914 N   0  0  0  0  0  0  0  0  0  0  0  0
  -21.0191  -29.3170   22.4275 N   0  3  0  0  0  0  0  0  0  0  0  0
  -25.0825  -18.2673   20.2714 O   0  0  0  0  0  0  0  0  0  0  0  0
  -28.4814  -26.2501   20.1689 O   0  0  0  0  0  0  0  0  0  0  0  0
  -25.7400  -28.5118   18.9182 O   0  0  0  0  0  0  0  0  0  0  0  0
  -23.6766  -28.7847   23.1830 O   0  0  0  0  0  0  0  0  0  0  0  0
  -33.9956  -18.7149   24.4431 O   0  0  0  0  0  0  0  0  0  0  0  0
  -25.8801  -10.5246   20.2342 O   0  0  0  0  0  0  0  0  0  0  0  0
  -25.8468  -22.5868   24.9797 O   0  0  0  0  0  0  0  0  0  1  0  0
  -21.0251   -9.2058   22.4912 F   0  0  0  0  0  0  0  0  0  0  0  0
  -23.5667  -11.8455   19.4950 F   0  0  0  0  0  0  0  0  0  0  0  0
  -27.6378  -19.2478   28.7009 Cl  0  0  0  0  0  0  0  0  0  0  0  0
  -29.6296  -17.0981   27.4380 Cl  0  0  0  0  0  0  0  0  0  0  0  0
  1  2  1  0  0  0  0
  1  5  2  0  0  0  0
  2  6  2  0  0  0  0
  3 10  2  0  0  0  0
  3 17  1  0  0  0  0
  4 11  1  0  0  0  0
  4 17  2  0  0  0  0
  5 19  1  0  0  0  0
  6 21  1  0  0  0  0
  7 12  2  0  0  0  0
  7 20  1  0  0  0  0
  8  9  2  0  0  0  0
  8 23  1  0  0  0  0
  9 24  1  0  0  0  0
 10 25  1  0  0  0  0
 11 25  2  0  0  0  0
 12 26  1  0  0  0  0
 13 14  2  0  0  0  0
 13 27  1  0  0  0  0
 14 28  1  0  0  0  0
 15 22  1  0  0  0  0
 15 26  2  0  0  0  0
 16 28  2  0  0  0  0
 16 29  1  0  0  0  0
 17 32  1  0  0  0  0
 18 32  1  0  0  0  0
 18 33  2  0  0  0  0
 18 34  1  0  0  0  0
 19 21  2  0  0  0  0
 19 39  1  0  0  0  0
 20 22  2  0  0  0  0
 20 40  1  0  0  0  0
 21 48  1  0  0  0  0
 22 41  1  0  0  0  0
 23 30  2  0  0  0  0
 23 56  1  0  0  0  0
 24 31  2  0  0  0  0
 24 57  1  0  0  0  0
 25 79  1  0  0  0  0
 26 80  1  0  0  0  0
 27 29  2  0  0  0  0
 27 79  1  0  0  0  0
 28 81  1  0  0  0  0
 29 82  1  0  0  0  0
 30 31  1  0  0  0  0
 30 83  1  0  0  0  0
 31 84  1  0  0  0  0
 32 64  2  0  0  0  0
 33 65  1  0  0  0  0
 33 68  1  0  0  0  0
 34 69  1  0  0  0  0
 34 74  2  0  0  0  0
 35 49  1  0  0  0  0
 35 70  1  0  0  0  0
 35 75  2  0  0  0  0
 36 61  1  0  0  0  0
 36 66  1  0  0  0  0
 36 76  2  0  0  0  0
 37 62  1  0  0  0  0
 37 71  1  0  0  0  0
 37 77  2  0  0  0  0
 38 67  1  0  0  0  0
 38 72  1  0  0  0  0
 38 78  2  0  0  0  0
 39 42  1  0  0  0  0
 40 49  1  0  0  0  0
 41 66  1  0  0  0  0
 42 44  1  0  0  0  0
 43 45  1  0  0  0  0
 43 46  1  0  0  0  0
 44 48  1  0  0  0  0
 45 50  1  0  0  0  0
 46 67  1  0  0  0  0
 47 50  1  0  0  0  0
 47 67  1  0  0  0  0
 48 70  1  0  0  0  0
 49 66  1  0  0  0  0
 50 65  1  0  0  0  0
 51 62  1  0  0  0  0
 52 63  1  0  0  0  0
 53 63  1  0  0  0  0
 54 63  1  0  0  0  0
 55 73  1  0  0  0  0
 56 58  1  0  0  0  0
 57 72  1  0  0  0  0
 58 59  1  0  0  0  0
 59 60  1  0  0  0  0
 60 80  1  0  0  0  0
 61 63  1  0  0  0  0
 61 71  1  0  0  0  0
 62 73  1  0  0  0  0
 64 65  1  0  0  0  0
M  CHG  1  73   1
M  ISO  4  38 100  60 101  72 100  80 101
M  END
> <Batch ID>
0027

> <Smiles>
CNC(C)C(=O)NC(C(=O)N1Cc2cc([101O:1][101CH2:1]CCCc3ccc(C[100NH:0][100C:0](=O)N4CCCC(n5nc(-c6ccc(Oc7ccc(F)cc7F)cc6)c(C(N)=O)c5N)C4)c(Cl)c3Cl)ccc2CC1C(=O)NC1CCCc2ccccc21)C(C)(C)C

> <Shape>
0.219

> <Color>
0.076

> <Negative vol penalty>
0.000

$$$$

  -OEChem-04052316303D

 93102  0     1  0  0  0  0  0999 V2000
  -16.7015  -26.3359   25.5064 C   0  0  0  0  0  0  0  0  0  0  0  0
  -17.4223  -25.5641   24.6008 C   0  0  0  0  0  0  0  0  0  0  0  0
  -25.8396  -15.9168   22.3225 C   0  0  0  0  0  0  0  0  0  0  0  0
  -25.0458  -17.7963   21.0284 C   0  0  0  0  0  0  0  0  0  0  0  0
  -16.7007  -27.7254   25.3907 C   0  0  0  0  0  0  0  0  0  0  0  0
  -18.1419  -26.1813   23.5782 C   0  0  0  0  0  0  0  0  0  0  0  0
  -24.1144  -25.4050   19.6997 C   0  0  0  0  0  0  0  0  0  0  0  0
  -24.7270  -15.1745   21.9268 C   0  0  0  0  0  0  0  0  0  0  0  0
  -23.9332  -17.0539   20.6327 C   0  0  0  0  0  0  0  0  0  0  0  0
  -24.5403  -25.3733   18.3725 C   0  0  0  0  0  0  0  0  0  0  0  0
  -23.7267  -13.4483   19.1969 C   0  0  0  0  0  0  0  0  0  0  0  0
  -23.9385  -12.1329   18.7841 C   0  0  0  0  0  0  0  0  0  0  0  0
  -24.5301  -27.7850   18.3180 C   0  0  0  0  0  0  0  0  0  0  0  0
  -30.6083  -26.1263   21.0858 C   0  0  0  0  0  0  0  0  0  0  0  0
  -27.8273  -25.9275   20.9906 C   0  0  0  0  0  0  0  0  0  0  0  0
  -22.4926  -11.3453   20.5523 C   0  0  0  0  0  0  0  0  0  0  0  0
  -25.9990  -17.2278   21.8733 C   0  0  0  0  0  0  0  0  0  0  0  0
  -28.3936  -18.0734   21.6310 C   0  0  0  0  0  0  0  0  0  0  0  0
  -17.4285  -28.3604   24.3720 C   0  0  0  0  0  0  0  0  0  0  0  0
  -23.8823  -26.6289   20.3437 C   0  0  0  0  0  0  0  0  0  0  0  0
  -18.1497  -27.5804   23.4479 C   0  0  0  0  0  0  0  0  0  0  0  0
  -24.1038  -27.8295   19.6542 C   0  0  0  0  0  0  0  0  0  0  0  0
  -29.8684  -26.1246   22.2682 C   0  0  0  0  0  0  0  0  0  0  0  0
  -28.5673  -25.9293   19.8082 C   0  0  0  0  0  0  0  0  0  0  0  0
  -23.7738  -15.7430   21.0819 C   0  0  0  0  0  0  0  0  0  0  0  0
  -24.7454  -26.5633   17.6806 C   0  0  0  0  0  0  0  0  0  0  0  0
  -22.8980  -13.7123   20.2874 C   0  0  0  0  0  0  0  0  0  0  0  0
  -23.3215  -11.0814   19.4618 C   0  0  0  0  0  0  0  0  0  0  0  0
  -22.2809  -12.6608   20.9651 C   0  0  0  0  0  0  0  0  0  0  0  0
  -28.4779  -26.0252   22.2206 C   0  0  0  0  0  0  0  0  0  0  0  0
  -29.9578  -26.0287   19.8558 C   0  0  0  0  0  0  0  0  0  0  0  0
  -27.1479  -17.9953   22.2821 C   0  0  0  0  0  0  0  0  0  0  0  0
  -29.1361  -18.9255   22.4115 C   0  0  0  0  0  0  0  0  0  0  0  0
  -28.8396  -17.4331   20.4283 C   0  0  0  0  0  0  0  0  0  0  0  0
  -21.3461  -28.0308   21.6499 C   0  0  0  0  0  0  0  0  0  0  0  0
  -23.5281  -30.2534   22.5562 C   0  0  0  0  0  0  0  0  0  0  0  0
  -26.5533  -31.7351   22.0088 C   0  0  0  0  0  0  0  0  0  0  0  0
  -29.6244  -23.6262   25.3797 C   0  0  0  0  0  0  0  0  0  0  0  0
  -17.3591  -29.8627   24.2585 C   0  0  0  0  0  0  0  0  0  0  0  0
  -23.4489  -26.6464   21.7839 C   0  0  0  0  0  0  0  0  0  0  0  0
  -23.8885  -29.1699   20.3064 C   0  0  0  0  0  0  0  0  0  0  0  0
  -18.4506  -30.4577   23.3727 C   0  0  0  0  0  0  0  0  0  0  0  0
  -28.2347  -20.7914   27.0258 C   0  0  0  0  0  0  0  0  0  0  0  0
  -18.5690  -29.6717   22.0707 C   0  0  0  0  0  0  0  0  0  0  0  0
  -27.9253  -19.8210   25.8846 C   0  0  0  0  0  0  0  0  0  0  0  0
  -25.7147  -22.8253   13.7892 C   0  0  0  0  0  0  0  0  0  0  0  0
  -27.9849  -22.2414   26.6170 C   0  0  0  0  0  0  0  0  0  0  0  0
  -28.3677  -21.6953   24.2445 C   0  0  0  0  0  0  0  0  0  0  0  0
  -18.9627  -28.2143   22.3400 C   0  0  1  0  0  0  0  0  0  0  0  0
  -22.7487  -27.9422   22.1815 C   0  0  1  0  0  0  0  0  0  0  0  0
  -26.1736  -22.6138   15.2081 C   0  0  1  0  0  0  0  0  0  0  0  0
  -25.5216  -23.9135   14.8126 C   0  0  1  0  0  0  0  0  0  0  0  0
  -28.6578  -20.2249   24.5909 C   0  0  2  0  0  0  0  0  0  0  0  0
  -25.4537  -21.6556   16.0926 C   0  0  0  0  0  0  0  0  0  0  0  0
  -28.0474  -33.5479   22.8915 C   0  0  0  0  0  0  0  0  0  0  0  0
  -25.8180  -26.0883   13.6379 C   0  0  0  0  0  0  0  0  0  0  0  0
  -28.8776  -26.4955   15.6946 C   0  0  0  0  0  0  0  0  0  0  0  0
  -21.7405  -32.3566   21.2559 C   0  0  0  0  0  0  0  0  0  0  0  0
  -23.6775  -33.9416   21.3196 C   0  0  0  0  0  0  0  0  0  0  0  0
  -22.7340  -33.0418   23.4463 C   0  0  0  0  0  0  0  0  0  0  0  0
  -28.7146  -29.8112   22.6300 C   0  0  0  0  0  0  0  0  0  0  0  0
  -26.7418  -28.0580   18.3597 C   0  0  0  0  0  0  0  0  0  0  0  0
  -30.6036  -26.2305   23.5652 C   0  0  0  0  0  0  0  0  0  0  0  0
  -27.8305  -25.8233   18.5056 C   0  0  0  0  0  0  0  0  0  0  0  0
  -31.2466  -24.9137   24.0123 C   0  0  0  0  0  0  0  0  0  0  0  0
  -24.0828  -31.5180   21.9461 C   0  0  1  0  0  0  0  0  0  0  0  0
  -27.6963  -32.0693   22.9503 C   0  0  2  0  0  0  0  0  0  0  0  0
  -26.3538  -25.2005   14.7363 C   0  0  1  0  0  0  0  0  0  0  0  0
  -27.5450  -26.9268   16.2916 C   0  0  1  0  0  0  0  0  0  0  0  0
  -26.4104  -25.9010   16.1169 C   0  0  1  0  0  0  0  0  0  1  0  0
  -23.0610  -32.6894   21.9788 C   0  0  0  0  0  0  0  0  0  0  0  0
  -27.0981  -18.7384   23.3909 N   0  0  0  0  0  0  0  0  0  0  0  0
  -28.3219  -19.2914   23.4426 N   0  0  0  0  0  0  0  0  0  0  0  0
  -23.4586  -29.1346   21.7140 N   0  0  0  0  0  0  0  0  0  0  0  0
  -28.7090  -22.5608   25.3843 N   0  0  0  0  0  0  0  0  0  0  0  0
  -30.3996  -19.3898   22.3095 N   0  0  0  0  0  0  0  0  0  0  0  0
  -27.9489  -16.5894   19.7507 N   0  0  0  0  0  0  0  0  0  0  0  0
  -20.3771  -28.1184   22.6311 N   0  0  0  0  0  0  0  0  0  0  0  0
  -25.3322  -31.7951   22.6465 N   0  0  0  0  0  0  0  0  0  0  0  0
  -30.2724  -23.8573   24.1725 N   0  0  0  0  0  0  0  0  0  0  0  0
  -28.9103  -31.2833   22.5906 N   0  3  0  0  0  0  0  0  0  0  0  0
  -27.7596  -27.1275   17.7610 N   0  3  1  0  0  0  0  0  0  0  0  0
  -29.9993  -17.5911   19.9769 O   0  0  0  0  0  0  0  0  0  0  0  0
  -21.1572  -28.0220   20.4391 O   0  0  0  0  0  0  0  0  0  0  0  0
  -23.1763  -30.2562   23.7385 O   0  0  0  0  0  0  0  0  0  0  0  0
  -26.7260  -31.4530   20.8251 O   0  0  0  0  0  0  0  0  0  0  0  0
  -29.8516  -24.3166   26.3790 O   0  0  0  0  0  0  0  0  0  0  0  0
  -22.6881  -15.0188   20.6954 O   0  0  0  0  0  0  0  0  0  0  0  0
  -25.1605  -26.5352   16.3849 O   0  0  0  0  0  0  0  0  0  1  0  0
  -23.5237   -9.8183   19.0644 F   0  0  0  0  0  0  0  0  0  0  0  0
  -21.4827  -12.9082   22.0127 F   0  0  0  0  0  0  0  0  0  0  0  0
  -27.5302  -26.0185   23.6632 Cl  0  0  0  0  0  0  0  0  0  0  0  0
  -30.9059  -26.0340   18.4134 Cl  0  0  0  0  0  0  0  0  0  0  0  0
  1  2  1  0  0  0  0
  1  5  2  0  0  0  0
  2  6  2  0  0  0  0
  3  8  2  0  0  0  0
  3 17  1  0  0  0  0
  4  9  1  0  0  0  0
  4 17  2  0  0  0  0
  5 19  1  0  0  0  0
  6 21  1  0  0  0  0
  7 10  2  0  0  0  0
  7 20  1  0  0  0  0
  8 25  1  0  0  0  0
  9 25  2  0  0  0  0
 10 26  1  0  0  0  0
 11 12  2  0  0  0  0
 11 27  1  0  0  0  0
 12 28  1  0  0  0  0
 13 22  1  0  0  0  0
 13 26  2  0  0  0  0
 14 23  2  0  0  0  0
 14 31  1  0  0  0  0
 15 24  1  0  0  0  0
 15 30  2  0  0  0  0
 16 28  2  0  0  0  0
 16 29  1  0  0  0  0
 17 32  1  0  0  0  0
 18 32  1  0  0  0  0
 18 33  2  0  0  0  0
 18 34  1  0  0  0  0
 19 21  2  0  0  0  0
 19 39  1  0  0  0  0
 20 22  2  0  0  0  0
 20 40  1  0  0  0  0
 21 49  1  0  0  0  0
 22 41  1  0  0  0  0
 23 30  1  0  0  0  0
 23 63  1  0  0  0  0
 24 31  2  0  0  0  0
 24 64  1  0  0  0  0
 25 88  1  0  0  0  0
 26 89  1  0  0  0  0
 27 29  2  0  0  0  0
 27 88  1  0  0  0  0
 28 90  1  0  0  0  0
 29 91  1  0  0  0  0
 30 92  1  0  0  0  0
 31 93  1  0  0  0  0
 32 72  2  0  0  0  0
 33 73  1  0  0  0  0
 33 76  1  0  0  0  0
 34 77  1  0  0  0  0
 34 83  2  0  0  0  0
 35 50  1  0  0  0  0
 35 78  1  0  0  0  0
 35 84  2  0  0  0  0
 36 66  1  0  0  0  0
 36 74  1  0  0  0  0
 36 85  2  0  0  0  0
 37 67  1  0  0  0  0
 37 79  1  0  0  0  0
 37 86  2  0  0  0  0
 38 75  1  0  0  0  0
 38 80  1  0  0  0  0
 38 87  2  0  0  0  0
 39 42  1  0  0  0  0
 40 50  1  0  0  0  0
 41 74  1  0  0  0  0
 42 44  1  0  0  0  0
 43 45  1  0  0  0  0
 43 47  1  0  0  0  0
 44 49  1  0  0  0  0
 45 53  1  0  0  0  0
 46 51  1  0  0  0  0
 46 52  1  0  0  0  0
 47 75  1  0  0  0  0
 48 53  1  0  0  0  0
 48 75  1  0  0  0  0
 49 78  1  0  0  0  0
 50 74  1  0  0  0  0
 51 52  1  0  0  0  0
 51 54  1  0  0  0  0
 52 68  1  0  0  0  0
 53 73  1  0  0  0  0
 55 67  1  0  0  0  0
 56 68  1  0  0  0  0
 57 69  1  0  0  0  0
 58 71  1  0  0  0  0
 59 71  1  0  0  0  0
 60 71  1  0  0  0  0
 61 81  1  0  0  0  0
 62 82  1  0  0  0  0
 63 65  1  0  0  0  0
 64 82  1  0  0  0  0
 65 80  1  0  0  0  0
 66 71  1  0  0  0  0
 66 79  1  0  0  0  0
 67 81  1  0  0  0  0
 68 70  1  0  0  0  0
 69 70  1  0  0  0  0
 69 82  1  0  0  0  0
 70 89  1  0  0  0  0
 72 73  1  0  0  0  0
M  CHG  2  81   1  82   1
M  ISO  4  38 100  70 101  80 100  89 101
M  END
> <Batch ID>
0027

> <Smiles>
CNC(C)C(=O)NC(C(=O)N1Cc2cc([101O:1][101CH:1](C(C)C3CC3C)C(C)N(C)Cc3cc(Cl)c(CC[100NH:0][100C:0](=O)N4CCCC(n5nc(-c6ccc(Oc7ccc(F)cc7F)cc6)c(C(N)=O)c5N)C4)cc3Cl)ccc2CC1C(=O)NC1CCCc2ccccc21)C(C)(C)C

> <Shape>
0.204

> <Color>
0.048

> <Negative vol penalty>
0.000

$$$$

  -OEChem-04052316303D

 92101  0     1  0  0  0  0  0999 V2000
  -25.7925  -20.9429   14.1062 C   0  0  0  0  0  0  0  0  0  0  0  0
  -25.9209  -22.3266   14.1464 C   0  0  0  0  0  0  0  0  0  0  0  0
  -27.3022  -16.6455   18.9905 C   0  0  0  0  0  0  0  0  0  0  0  0
  -27.2235  -17.0291   21.3746 C   0  0  0  0  0  0  0  0  0  0  0  0
  -25.6689  -20.2234   15.2930 C   0  0  0  0  0  0  0  0  0  0  0  0
  -25.9377  -22.9903   15.3737 C   0  0  0  0  0  0  0  0  0  0  0  0
  -25.8801  -29.4294   18.5271 C   0  0  0  0  0  0  0  0  0  0  0  0
  -28.6224  -17.0948   18.9618 C   0  0  0  0  0  0  0  0  0  0  0  0
  -28.5437  -17.4784   21.3459 C   0  0  0  0  0  0  0  0  0  0  0  0
  -25.1944  -30.2520   19.4198 C   0  0  0  0  0  0  0  0  0  0  0  0
  -31.8979  -18.4803   18.2034 C   0  0  0  0  0  0  0  0  0  0  0  0
  -32.2616  -19.3647   17.1880 C   0  0  0  0  0  0  0  0  0  0  0  0
  -26.1365  -29.0212   21.2683 C   0  0  0  0  0  0  0  0  0  0  0  0
  -30.6116  -20.9451   17.9734 C   0  0  0  0  0  0  0  0  0  0  0  0
  -26.6027  -16.6127   20.1969 C   0  0  0  0  0  0  0  0  0  0  0  0
  -24.7939  -14.8284   20.4252 C   0  0  0  0  0  0  0  0  0  0  0  0
  -25.6718  -20.8805   16.5344 C   0  0  0  0  0  0  0  0  0  0  0  0
  -26.6920  -28.3879   18.9989 C   0  0  0  0  0  0  0  0  0  0  0  0
  -25.8383  -22.2796   16.5835 C   0  0  0  0  0  0  0  0  0  0  0  0
  -26.8336  -28.1885   20.3796 C   0  0  0  0  0  0  0  0  0  0  0  0
  -19.7464  -25.7973   23.9982 C   0  0  0  0  0  0  0  0  0  0  0  0
  -19.2651  -24.4981   24.2948 C   0  0  0  0  0  0  0  0  0  0  0  0
  -29.2432  -17.5112   20.1395 C   0  0  0  0  0  0  0  0  0  0  0  0
  -25.3202  -30.0462   20.7905 C   0  0  0  0  0  0  0  0  0  0  0  0
  -30.8909  -18.8282   19.1038 C   0  0  0  0  0  0  0  0  0  0  0  0
  -31.6185  -20.5971   17.0729 C   0  0  0  0  0  0  0  0  0  0  0  0
  -30.2478  -20.0606   18.9888 C   0  0  0  0  0  0  0  0  0  0  0  0
  -25.2387  -16.1493   20.2272 C   0  0  0  0  0  0  0  0  0  0  0  0
  -20.3563  -25.7384   22.7576 C   0  0  0  0  0  0  0  0  0  0  0  0
  -19.5849  -23.6889   23.2264 C   0  0  0  0  0  0  0  0  0  0  0  0
  -23.4244  -14.9150   20.3669 C   0  0  0  0  0  0  0  0  0  0  0  0
  -25.5510  -13.6304   20.6425 C   0  0  0  0  0  0  0  0  0  0  0  0
  -26.6784  -25.2231   18.7031 C   0  0  0  0  0  0  0  0  0  0  0  0
  -29.5055  -25.4538   20.2768 C   0  0  0  0  0  0  0  0  0  0  0  0
  -31.5150  -27.2428   22.3765 C   0  0  0  0  0  0  0  0  0  0  0  0
  -19.7129  -19.3658   21.4941 C   0  0  0  0  0  0  0  0  0  0  0  0
  -25.5426  -20.0520   17.7883 C   0  0  0  0  0  0  0  0  0  0  0  0
  -27.4462  -27.5263   18.0236 C   0  0  0  0  0  0  0  0  0  0  0  0
  -19.6748  -27.0398   24.8126 C   0  0  0  0  0  0  0  0  0  0  0  0
  -27.7087  -27.0971   20.9376 C   0  0  0  0  0  0  0  0  0  0  0  0
  -25.1264  -20.8741   19.0037 C   0  0  0  0  0  0  0  0  0  0  0  0
  -19.9776  -28.2854   23.9617 C   0  0  0  0  0  0  0  0  0  0  0  0
  -19.9164  -17.5065   18.3958 C   0  0  0  0  0  0  0  0  0  0  0  0
  -26.0069  -22.1091   19.1222 C   0  0  0  0  0  0  0  0  0  0  0  0
  -21.2753  -16.8194   18.5421 C   0  0  0  0  0  0  0  0  0  0  0  0
  -19.9448  -18.9172   18.9766 C   0  0  0  0  0  0  0  0  0  0  0  0
  -21.7419  -18.3032   20.5473 C   0  0  0  0  0  0  0  0  0  0  0  0
  -25.8284  -23.0258   17.9054 C   0  0  1  0  0  0  0  0  0  0  0  0
  -27.8398  -26.1712   18.6035 C   0  0  1  0  0  0  0  0  0  0  0  0
  -21.7722  -16.8648   19.9993 C   0  0  2  0  0  0  0  0  0  0  0  0
  -21.1955  -28.0571   23.0414 C   0  0  1  0  0  0  0  0  0  0  0  0
  -20.9936  -26.8892   22.0069 C   0  0  0  0  0  0  0  0  0  0  0  0
  -18.5530  -24.0855   25.5214 C   0  0  0  0  0  0  0  0  0  0  0  0
  -20.0650  -27.2841   20.8388 C   0  0  0  0  0  0  0  0  0  0  0  0
  -22.3609  -26.4670   21.4330 C   0  0  0  0  0  0  0  0  0  0  0  0
  -21.9703  -23.1500   21.1163 C   0  0  0  0  0  0  0  0  0  0  0  0
  -33.7522  -27.1573   23.5100 C   0  0  0  0  0  0  0  0  0  0  0  0
  -28.4056  -23.4428   22.2907 C   0  0  0  0  0  0  0  0  0  0  0  0
  -30.2408  -24.1124   23.8566 C   0  0  0  0  0  0  0  0  0  0  0  0
  -30.7969  -23.0805   21.6546 C   0  0  0  0  0  0  0  0  0  0  0  0
  -32.4359  -29.6954   20.9997 C   0  0  0  0  0  0  0  0  0  0  0  0
  -19.3128  -22.2505   23.0132 C   0  0  0  0  0  0  0  0  0  0  0  0
  -17.8734  -21.9224   22.5527 C   0  0  0  0  0  0  0  0  0  0  0  0
  -22.5044  -31.6036   22.4320 C   0  0  0  0  0  0  0  0  0  0  0  0
  -20.6748  -23.9365   21.0138 C   0  0  0  0  0  0  0  0  0  0  0  0
  -17.6235  -20.4379   22.2953 C   0  0  0  0  0  0  0  0  0  0  0  0
  -22.2176  -30.3283   23.2101 C   0  0  0  0  0  0  0  0  0  0  0  0
  -23.4099  -31.3946   21.2245 C   0  0  0  0  0  0  0  0  0  1  0  0
  -29.9250  -25.4526   21.7270 C   0  0  1  0  0  0  0  0  0  0  0  0
  -32.9814  -27.6244   22.2851 C   0  0  2  0  0  0  0  0  0  0  0  0
  -29.8240  -24.0415   22.3720 C   0  0  0  0  0  0  0  0  0  0  0  0
  -24.2333  -17.0117   20.0557 N   0  0  0  0  0  0  0  0  0  0  0  0
  -20.2435  -24.4517   22.2963 N   0  0  0  0  0  0  0  0  0  0  0  0
  -23.1431  -16.2311   20.1458 N   0  0  0  0  0  0  0  0  0  0  0  0
  -28.4207  -26.2771   19.9435 N   0  0  0  0  0  0  0  0  0  0  0  0
  -20.4086  -18.8884   20.3709 N   0  0  0  0  0  0  0  0  0  0  0  0
  -22.4454  -13.9929   20.4837 N   0  0  0  0  0  0  0  0  0  0  0  0
  -26.9493  -13.7200   20.6735 N   0  0  0  0  0  0  0  0  0  0  0  0
  -26.8257  -24.0723   17.9524 N   0  0  0  0  0  0  0  0  0  0  0  0
  -31.2631  -26.0327   21.7653 N   0  0  0  0  0  0  0  0  0  0  0  0
  -18.4603  -19.9111   21.2402 N   0  0  0  0  0  0  0  0  0  0  0  0
  -21.5033  -29.3448   22.3572 N   0  3  0  0  0  0  0  0  0  0  0  0
  -33.1258  -29.1035   22.1748 N   0  3  0  0  0  0  0  0  0  0  0  0
  -25.0042  -12.5108   20.7881 O   0  0  0  0  0  0  0  0  0  0  0  0
  -25.7204  -25.5133   19.4099 O   0  0  0  0  0  0  0  0  0  0  0  0
  -30.1223  -24.7556   19.4683 O   0  0  0  0  0  0  0  0  0  0  0  0
  -30.6774  -27.9459   22.9374 O   0  0  0  0  0  0  0  0  0  0  0  0
  -20.1719  -19.3056   22.6399 O   0  0  0  0  0  0  0  0  0  0  0  0
  -30.5315  -17.9494   20.1118 O   0  0  0  0  0  0  0  0  0  0  0  0
  -24.6468  -30.8528   21.6701 O   0  0  0  0  0  0  0  0  0  1  0  0
  -31.9690  -21.4469   16.0987 F   0  0  0  0  0  0  0  0  0  0  0  0
  -29.2805  -20.4010   19.8515 F   0  0  0  0  0  0  0  0  0  0  0  0
  1  2  1  0  0  0  0
  1  5  2  0  0  0  0
  2  6  2  0  0  0  0
  3  8  2  0  0  0  0
  3 15  1  0  0  0  0
  4  9  1  0  0  0  0
  4 15  2  0  0  0  0
  5 17  1  0  0  0  0
  6 19  1  0  0  0  0
  7 10  2  0  0  0  0
  7 18  1  0  0  0  0
  8 23  1  0  0  0  0
  9 23  2  0  0  0  0
 10 24  1  0  0  0  0
 11 12  2  0  0  0  0
 11 25  1  0  0  0  0
 12 26  1  0  0  0  0
 13 20  1  0  0  0  0
 13 24  2  0  0  0  0
 14 26  2  0  0  0  0
 14 27  1  0  0  0  0
 15 28  1  0  0  0  0
 16 28  1  0  0  0  0
 16 31  2  0  0  0  0
 16 32  1  0  0  0  0
 17 19  2  0  0  0  0
 17 37  1  0  0  0  0
 18 20  2  0  0  0  0
 18 38  1  0  0  0  0
 19 48  1  0  0  0  0
 20 40  1  0  0  0  0
 21 22  1  0  0  0  0
 21 29  2  0  0  0  0
 21 39  1  0  0  0  0
 22 30  2  0  0  0  0
 22 53  1  0  0  0  0
 23 89  1  0  0  0  0
 24 90  1  0  0  0  0
 25 27  2  0  0  0  0
 25 89  1  0  0  0  0
 26 91  1  0  0  0  0
 27 92  1  0  0  0  0
 28 72  2  0  0  0  0
 29 52  1  0  0  0  0
 29 73  1  0  0  0  0
 30 62  1  0  0  0  0
 30 73  1  0  0  0  0
 31 74  1  0  0  0  0
 31 77  1  0  0  0  0
 32 78  1  0  0  0  0
 32 84  2  0  0  0  0
 33 49  1  0  0  0  0
 33 79  1  0  0  0  0
 33 85  2  0  0  0  0
 34 69  1  0  0  0  0
 34 75  1  0  0  0  0
 34 86  2  0  0  0  0
 35 70  1  0  0  0  0
 35 80  1  0  0  0  0
 35 87  2  0  0  0  0
 36 76  1  0  0  0  0
 36 81  1  0  0  0  0
 36 88  2  0  0  0  0
 37 41  1  0  0  0  0
 38 49  1  0  0  0  0
 39 42  1  0  0  0  0
 40 75  1  0  0  0  0
 41 44  1  0  0  0  0
 42 51  1  0  0  0  0
 43 45  1  0  0  0  0
 43 46  1  0  0  0  0
 44 48  1  0  0  0  0
 45 50  1  0  0  0  0
 46 76  1  0  0  0  0
 47 50  1  0  0  0  0
 47 76  1  0  0  0  0
 48 79  1  0  0  0  0
 49 75  1  0  0  0  0
 50 74  1  0  0  0  0
 51 52  1  0  0  0  0
 51 82  1  0  0  0  0
 52 54  1  0  0  0  0
 52 55  1  0  0  0  0
 56 65  1  0  0  0  0
 57 70  1  0  0  0  0
 58 71  1  0  0  0  0
 59 71  1  0  0  0  0
 60 71  1  0  0  0  0
 61 83  1  0  0  0  0
 62 63  1  0  0  0  0
 63 66  1  0  0  0  0
 64 67  1  0  0  0  0
 64 68  1  0  0  0  0
 65 73  1  0  0  0  0
 66 81  1  0  0  0  0
 67 82  1  0  0  0  0
 68 90  1  0  0  0  0
 69 71  1  0  0  0  0
 69 80  1  0  0  0  0
 70 83  1  0  0  0  0
 72 74  1  0  0  0  0
M  CHG  2  82   1  83   1
M  ISO  4  36 100  68 101  81 100  90 101
M  END
> <Batch ID>
0027

> <Smiles>
CCn1c(CCC[100NH:0][100C:0](=O)N2CCCC(n3nc(-c4ccc(Oc5ccc(F)cc5F)cc4)c(C(N)=O)c3N)C2)c(C)c2c1C(C)(C)C(NCC[101CH2:1][101O:1]c1ccc3c(c1)CN(C(=O)C(NC(=O)C(C)NC)C(C)(C)C)C(C(=O)NC1CCCc4ccccc41)C3)CC2

> <Shape>
0.191

> <Color>
0.071

> <Negative vol penalty>
0.000

$$$$

  -OEChem-04052316303D

 93102  0     1  0  0  0  0  0999 V2000
  -28.5218  -36.0048   22.0833 C   0  0  0  0  0  0  0  0  0  0  0  0
  -28.7262  -34.6319   21.9895 C   0  0  0  0  0  0  0  0  0  0  0  0
  -25.4147  -13.6758   20.0709 C   0  0  0  0  0  0  0  0  0  0  0  0
  -23.3991  -14.7900   19.3409 C   0  0  0  0  0  0  0  0  0  0  0  0
  -27.3782  -36.4968   22.7111 C   0  0  0  0  0  0  0  0  0  0  0  0
  -27.7877  -33.7502   22.5244 C   0  0  0  0  0  0  0  0  0  0  0  0
  -26.7331  -29.9056   19.4016 C   0  0  0  0  0  0  0  0  0  0  0  0
  -24.7996  -12.4384   19.8808 C   0  0  0  0  0  0  0  0  0  0  0  0
  -22.7839  -13.5526   19.1508 C   0  0  0  0  0  0  0  0  0  0  0  0
  -27.6604  -28.8667   19.3349 C   0  0  0  0  0  0  0  0  0  0  0  0
  -22.5871  -10.4790   21.5210 C   0  0  0  0  0  0  0  0  0  0  0  0
  -22.7406   -9.5193   22.5215 C   0  0  0  0  0  0  0  0  0  0  0  0
  -26.2860  -27.5527   20.8193 C   0  0  0  0  0  0  0  0  0  0  0  0
  -23.7922   -8.0324   20.9339 C   0  0  0  0  0  0  0  0  0  0  0  0
  -24.7144  -14.8516   19.8010 C   0  0  0  0  0  0  0  0  0  0  0  0
  -26.0952  -16.8627   19.0552 C   0  0  0  0  0  0  0  0  0  0  0  0
  -26.4205  -35.6206   23.2455 C   0  0  0  0  0  0  0  0  0  0  0  0
  -25.5786  -29.7799   20.1876 C   0  0  0  0  0  0  0  0  0  0  0  0
  -26.6309  -34.2310   23.1612 C   0  0  0  0  0  0  0  0  0  0  0  0
  -25.3443  -28.5905   20.8922 C   0  0  0  0  0  0  0  0  0  0  0  0
  -23.4842  -12.3768   19.4207 C   0  0  0  0  0  0  0  0  0  0  0  0
  -27.4384  -27.6911   20.0461 C   0  0  0  0  0  0  0  0  0  0  0  0
  -23.0361  -10.2154   20.2269 C   0  0  0  0  0  0  0  0  0  0  0  0
  -23.3432   -8.2960   22.2280 C   0  0  0  0  0  0  0  0  0  0  0  0
  -23.6387   -8.9921   19.9334 C   0  0  0  0  0  0  0  0  0  0  0  0
  -25.3491  -16.1301   19.9977 C   0  0  0  0  0  0  0  0  0  0  0  0
  -26.4780  -17.9976   19.7276 C   0  0  0  0  0  0  0  0  0  0  0  0
  -26.4137  -16.5459   17.6936 C   0  0  0  0  0  0  0  0  0  0  0  0
  -24.4021  -31.3190   22.7077 C   0  0  0  0  0  0  0  0  0  0  0  0
  -21.8402  -29.3962   22.1962 C   0  0  0  0  0  0  0  0  0  0  0  0
  -20.6129  -26.4901   20.8941 C   0  0  0  0  0  0  0  0  0  0  0  0
  -28.7039  -20.0462   24.5390 C   0  0  0  0  0  0  0  0  0  0  0  0
  -25.2233  -36.1999   23.9568 C   0  0  0  0  0  0  0  0  0  0  0  0
  -24.5749  -30.8994   20.2277 C   0  0  0  0  0  0  0  0  0  0  0  0
  -24.1106  -28.3976   21.7345 C   0  0  0  0  0  0  0  0  0  0  0  0
  -24.0940  -35.1944   24.1664 C   0  0  0  0  0  0  0  0  0  0  0  0
  -25.0201  -19.8588   24.1881 C   0  0  0  0  0  0  0  0  0  0  0  0
  -24.6449  -33.8769   24.7027 C   0  0  0  0  0  0  0  0  0  0  0  0
  -24.8486  -18.8699   23.0362 C   0  0  0  0  0  0  0  0  0  0  0  0
  -31.7721  -25.3765   22.2249 C   0  0  0  0  0  0  0  0  0  0  0  0
  -26.3119  -19.6101   24.9603 C   0  0  0  0  0  0  0  0  0  0  0  0
  -30.8643  -21.1280   24.0125 C   0  0  0  0  0  0  0  0  0  0  0  0
  -27.3608  -18.6163   22.9518 C   0  0  0  0  0  0  0  0  0  0  0  0
  -29.1708  -20.9998   22.2362 C   0  0  0  0  0  0  0  0  0  0  0  0
  -25.6237  -33.2423   23.7073 C   0  0  1  0  0  0  0  0  0  0  0  0
  -23.6871  -30.8617   21.4678 C   0  0  1  0  0  0  0  0  0  0  0  0
  -30.4608  -23.1750   22.5611 C   0  0  2  0  0  0  0  0  0  0  0  0
  -31.0108  -26.3676   21.3083 C   0  0  2  0  0  0  0  0  0  0  0  0
  -30.8944  -22.6615   23.9647 C   0  0  2  0  0  0  0  0  0  0  0  0
  -29.8786  -25.3034   21.2045 C   0  0  1  0  0  0  0  0  0  0  0  0
  -26.0896  -18.8683   22.1269 C   0  0  1  0  0  0  0  0  0  0  0  0
  -30.4067  -24.7111   22.5580 C   0  0  2  0  0  0  0  0  0  0  0  0
  -29.1022  -22.5449   22.0907 C   0  0  0  0  0  0  0  0  0  0  0  0
  -27.8938  -23.0727   22.8956 C   0  0  0  0  0  0  0  0  0  0  0  0
  -28.8495  -22.8484   20.5974 C   0  0  0  0  0  0  0  0  0  0  0  0
  -32.9212  -27.5846   20.2509 C   0  0  0  0  0  0  0  0  0  0  0  0
  -34.3864  -22.8112   27.5955 C   0  0  0  0  0  0  0  0  0  0  0  0
  -18.4865  -25.1772   20.6655 C   0  0  0  0  0  0  0  0  0  0  0  0
  -22.0582  -28.5392   25.1165 C   0  0  0  0  0  0  0  0  0  0  0  0
  -20.5803  -26.5901   24.5823 C   0  0  0  0  0  0  0  0  0  0  0  0
  -19.7205  -28.9161   24.3116 C   0  0  0  0  0  0  0  0  0  0  0  0
  -20.7144  -26.6192   17.9392 C   0  0  0  0  0  0  0  0  0  0  0  0
  -31.7009  -26.7494   20.0134 C   0  0  0  0  0  0  0  0  0  0  0  0
  -32.3004  -23.1352   24.3543 C   0  0  0  0  0  0  0  0  0  0  0  0
  -28.4592  -25.8353   21.1276 C   0  0  0  0  0  0  0  0  0  1  0  0
  -34.0377  -23.2044   26.1689 C   0  0  0  0  0  0  0  0  0  0  0  0
  -32.6485  -22.7044   25.7737 C   0  0  0  0  0  0  0  0  0  0  0  0
  -21.4219  -28.0244   22.6678 C   0  0  1  0  0  0  0  0  0  0  0  0
  -19.4013  -26.2088   20.0239 C   0  0  2  0  0  0  0  0  0  0  0  0
  -29.7750  -25.2286   23.8480 C   0  0  0  0  0  0  0  0  0  0  0  0
  -20.9695  -28.0215   24.1553 C   0  0  0  0  0  0  0  0  0  0  0  0
  -25.2620  -16.7475   21.1789 N   0  0  0  0  0  0  0  0  0  0  0  0
  -25.9585  -17.8801   20.9831 N   0  0  0  0  0  0  0  0  0  0  0  0
  -23.1621  -29.5235   21.7466 N   0  0  0  0  0  0  0  0  0  0  0  0
  -27.4707  -19.5668   24.0688 N   0  0  0  0  0  0  0  0  0  0  0  0
  -29.5726  -20.6033   23.5886 N   0  0  0  0  0  0  0  0  0  0  0  0
  -27.2051  -19.0745   19.3614 N   0  0  0  0  0  0  0  0  0  0  0  0
  -25.9407  -15.3392   17.1603 N   0  0  0  0  0  0  0  0  0  0  0  0
  -24.9029  -32.6043   22.6266 N   0  0  0  0  0  0  0  0  0  0  0  0
  -20.4015  -27.5646   21.7320 N   0  0  0  0  0  0  0  0  0  0  0  0
  -19.8284  -25.6944   18.6920 N   0  3  0  0  0  0  0  0  0  0  0  0
  -27.1113  -17.3025   16.9764 O   0  0  0  0  0  0  0  0  0  0  0  0
  -24.4915  -30.5622   23.6674 O   0  0  0  0  0  0  0  0  0  0  0  0
  -21.0219  -30.3190   22.2190 O   0  0  0  0  0  0  0  0  0  0  0  0
  -21.6424  -25.8211   20.8391 O   0  0  0  0  0  0  0  0  0  0  0  0
  -29.0059  -19.9872   25.7376 O   0  0  0  0  0  0  0  0  0  0  0  0
  -22.8837  -11.1695   19.2349 O   0  0  0  0  0  0  0  0  0  0  0  0
  -28.3492  -26.6679   19.9829 O   0  0  0  0  0  0  0  0  0  1  0  0
  -23.4919   -7.3751   23.1892 F   0  0  0  0  0  0  0  0  0  0  0  0
  -24.0731   -8.7336   18.6923 F   0  0  0  0  0  0  0  0  0  0  0  0
  -29.5576  -26.5495   23.7564 F   0  0  0  0  0  0  0  0  0  0  0  0
  -28.6047  -24.6101   24.0678 F   0  0  0  0  0  0  0  0  0  0  0  0
  -30.5917  -24.9942   24.8866 F   0  0  0  0  0  0  0  0  0  0  0  0
  1  2  1  0  0  0  0
  1  5  2  0  0  0  0
  2  6  2  0  0  0  0
  3  8  2  0  0  0  0
  3 15  1  0  0  0  0
  4  9  1  0  0  0  0
  4 15  2  0  0  0  0
  5 17  1  0  0  0  0
  6 19  1  0  0  0  0
  7 10  2  0  0  0  0
  7 18  1  0  0  0  0
  8 21  1  0  0  0  0
  9 21  2  0  0  0  0
 10 22  1  0  0  0  0
 11 12  2  0  0  0  0
 11 23  1  0  0  0  0
 12 24  1  0  0  0  0
 13 20  1  0  0  0  0
 13 22  2  0  0  0  0
 14 24  2  0  0  0  0
 14 25  1  0  0  0  0
 15 26  1  0  0  0  0
 16 26  1  0  0  0  0
 16 27  2  0  0  0  0
 16 28  1  0  0  0  0
 17 19  2  0  0  0  0
 17 33  1  0  0  0  0
 18 20  2  0  0  0  0
 18 34  1  0  0  0  0
 19 45  1  0  0  0  0
 20 35  1  0  0  0  0
 21 87  1  0  0  0  0
 22 88  1  0  0  0  0
 23 25  2  0  0  0  0
 23 87  1  0  0  0  0
 24 89  1  0  0  0  0
 25 90  1  0  0  0  0
 26 72  2  0  0  0  0
 27 73  1  0  0  0  0
 27 77  1  0  0  0  0
 28 78  1  0  0  0  0
 28 82  2  0  0  0  0
 29 46  1  0  0  0  0
 29 79  1  0  0  0  0
 29 83  2  0  0  0  0
 30 68  1  0  0  0  0
 30 74  1  0  0  0  0
 30 84  2  0  0  0  0
 31 69  1  0  0  0  0
 31 80  1  0  0  0  0
 31 85  2  0  0  0  0
 32 75  1  0  0  0  0
 32 76  1  0  0  0  0
 32 86  2  0  0  0  0
 33 36  1  0  0  0  0
 34 46  1  0  0  0  0
 35 74  1  0  0  0  0
 36 38  1  0  0  0  0
 37 39  1  0  0  0  0
 37 41  1  0  0  0  0
 38 45  1  0  0  0  0
 39 51  1  0  0  0  0
 40 48  1  0  0  0  0
 40 52  1  0  0  0  0
 41 75  1  0  0  0  0
 42 49  1  0  0  0  0
 42 76  1  0  0  0  0
 43 51  1  0  0  0  0
 43 75  1  0  0  0  0
 44 53  1  0  0  0  0
 44 76  1  0  0  0  0
 45 79  1  0  0  0  0
 46 74  1  0  0  0  0
 47 49  1  0  0  0  0
 47 52  1  0  0  0  0
 47 53  1  0  0  0  0
 48 50  1  0  0  0  0
 48 63  1  0  0  0  0
 49 64  1  0  0  0  0
 50 52  1  0  0  0  0
 50 65  1  0  0  0  0
 51 73  1  0  0  0  0
 52 70  1  0  0  0  0
 53 54  1  0  0  0  0
 53 55  1  0  0  0  0
 56 63  1  0  0  0  0
 57 66  1  0  0  0  0
 58 69  1  0  0  0  0
 59 71  1  0  0  0  0
 60 71  1  0  0  0  0
 61 71  1  0  0  0  0
 62 81  1  0  0  0  0
 64 67  1  0  0  0  0
 65 88  1  0  0  0  0
 66 67  1  0  0  0  0
 68 71  1  0  0  0  0
 68 80  1  0  0  0  0
 69 81  1  0  0  0  0
 70 91  1  0  0  0  0
 70 92  1  0  0  0  0
 70 93  1  0  0  0  0
 72 73  1  0  0  0  0
M  CHG  1  81   1
M  ISO  4  32 100  65 101  76 100  88 101
M  END
> <Batch ID>
0027

> <Smiles>
CCCCC1C[100N:0]([100C:0](=O)N2CCCC(n3nc(-c4ccc(Oc5ccc(F)cc5F)cc4)c(C(N)=O)c3N)C2)CC(C)(C)C1C1(C(F)(F)F)CC(CC)C1[101CH2:1][101O:1]c1ccc2c(c1)CN(C(=O)C(NC(=O)C(C)NC)C(C)(C)C)C(C(=O)NC1CCCc3ccccc31)C2

> <Shape>
0.246

> <Color>
0.066

> <Negative vol penalty>
0.000

$$$$

  -OEChem-04052316303D

 84 92  0     1  0  0  0  0  0999 V2000
  -22.4799  -11.1193   18.5234 C   0  0  0  0  0  0  0  0  0  0  0  0
  -22.0248  -12.4221   18.6997 C   0  0  0  0  0  0  0  0  0  0  0  0
  -28.9290  -27.4986   18.0627 C   0  0  0  0  0  0  0  0  0  0  0  0
  -28.0582  -26.0166   19.7605 C   0  0  0  0  0  0  0  0  0  0  0  0
  -23.6601  -10.7051   19.1394 C   0  0  0  0  0  0  0  0  0  0  0  0
  -22.7490  -13.3111   19.4931 C   0  0  0  0  0  0  0  0  0  0  0  0
  -23.3775  -19.3418   18.6319 C   0  0  0  0  0  0  0  0  0  0  0  0
  -30.1995  -26.9494   18.2349 C   0  0  0  0  0  0  0  0  0  0  0  0
  -29.3288  -25.4673   19.9327 C   0  0  0  0  0  0  0  0  0  0  0  0
  -22.7326  -20.4420   19.1952 C   0  0  0  0  0  0  0  0  0  0  0  0
  -32.7575  -27.2290   20.4263 C   0  0  0  0  0  0  0  0  0  0  0  0
  -33.8375  -28.1082   20.5054 C   0  0  0  0  0  0  0  0  0  0  0  0
  -24.5256  -20.6673   20.7932 C   0  0  0  0  0  0  0  0  0  0  0  0
  -20.3325  -27.1172   23.9545 C   0  0  0  0  0  0  0  0  0  0  0  0
  -18.7232  -27.5171   22.1976 C   0  0  0  0  0  0  0  0  0  0  0  0
  -34.8271  -27.0672   18.5627 C   0  0  0  0  0  0  0  0  0  0  0  0
  -27.8583  -27.0323   18.8256 C   0  0  0  0  0  0  0  0  0  0  0  0
  -25.5454  -27.1666   17.7579 C   0  0  0  0  0  0  0  0  0  0  0  0
  -24.4043  -11.5924   19.9329 C   0  0  0  0  0  0  0  0  0  0  0  0
  -24.5981  -18.8886   19.1527 C   0  0  0  0  0  0  0  0  0  0  0  0
  -23.9396  -12.9080   20.1214 C   0  0  0  0  0  0  0  0  0  0  0  0
  -25.1853  -19.5627   20.2330 C   0  0  0  0  0  0  0  0  0  0  0  0
  -19.7055  -27.9915   23.0669 C   0  0  0  0  0  0  0  0  0  0  0  0
  -18.9951  -25.2940   23.1035 C   0  0  0  0  0  0  0  0  0  0  0  0
  -30.3994  -25.9337   19.1698 C   0  0  0  0  0  0  0  0  0  0  0  0
  -23.3052  -21.1031   20.2779 C   0  0  0  0  0  0  0  0  0  0  0  0
  -32.7123  -26.2689   19.4155 C   0  0  0  0  0  0  0  0  0  0  0  0
  -34.8723  -28.0273   19.5736 C   0  0  0  0  0  0  0  0  0  0  0  0
  -33.7471  -26.1880   18.4836 C   0  0  0  0  0  0  0  0  0  0  0  0
  -19.9774  -25.7684   23.9728 C   0  0  0  0  0  0  0  0  0  0  0  0
  -18.3680  -26.1683   22.2159 C   0  0  0  0  0  0  0  0  0  0  0  0
  -26.5457  -27.5997   18.6487 C   0  0  0  0  0  0  0  0  0  0  0  0
  -24.4974  -28.0278   17.9734 C   0  0  0  0  0  0  0  0  0  0  0  0
  -25.5620  -26.0826   16.8196 C   0  0  0  0  0  0  0  0  0  0  0  0
  -25.5983  -16.1882   20.4984 C   0  0  0  0  0  0  0  0  0  0  0  0
  -28.4927  -17.6457   20.3548 C   0  0  0  0  0  0  0  0  0  0  0  0
  -30.2653  -20.5573   20.1910 C   0  0  0  0  0  0  0  0  0  0  0  0
  -21.9047  -30.9277   22.2609 C   0  0  0  0  0  0  0  0  0  0  0  0
  -25.6491  -11.0851   20.6169 C   0  0  0  0  0  0  0  0  0  0  0  0
  -25.2943  -17.7168   18.5167 C   0  0  0  0  0  0  0  0  0  0  0  0
  -26.5042  -19.1283   20.8164 C   0  0  0  0  0  0  0  0  0  0  0  0
  -26.5547  -12.1983   21.1375 C   0  0  0  0  0  0  0  0  0  0  0  0
  -24.0471  -32.5483   19.9241 C   0  0  0  0  0  0  0  0  0  0  0  0
  -25.7361  -13.2477   21.8829 C   0  0  0  0  0  0  0  0  0  0  0  0
  -24.8168  -31.3971   19.2742 C   0  0  0  0  0  0  0  0  0  0  0  0
  -23.7898  -32.2891   21.4069 C   0  0  0  0  0  0  0  0  0  0  0  0
  -23.9016  -29.8522   21.0559 C   0  0  0  0  0  0  0  0  0  0  0  0
  -24.7104  -13.9090   20.9544 C   0  0  1  0  0  0  0  0  0  0  0  0
  -26.2801  -17.0266   19.4544 C   0  0  1  0  0  0  0  0  0  0  0  0
  -24.1360  -30.0425   19.5475 C   0  0  2  0  0  0  0  0  0  0  0  0
  -32.6169  -21.4309   20.1253 C   0  0  0  0  0  0  0  0  0  0  0  0
  -28.7769  -17.0982   23.3430 C   0  0  0  0  0  0  0  0  0  0  0  0
  -30.6301  -18.7806   23.4040 C   0  0  0  0  0  0  0  0  0  0  0  0
  -30.8603  -16.7240   22.0110 C   0  0  0  0  0  0  0  0  0  0  0  0
  -29.8488  -21.8118   17.5430 C   0  0  0  0  0  0  0  0  0  0  0  0
  -18.6116  -23.8357   23.1229 C   0  0  0  0  0  0  0  0  0  0  0  0
  -20.0857  -29.4335   23.0468 C   0  0  0  0  0  0  0  0  0  0  0  0
  -19.1876  -23.0285   21.9542 C   0  0  0  0  0  0  0  0  0  0  0  0
  -20.7161  -22.9773   21.9578 C   0  0  0  0  0  0  0  0  0  0  0  0
  -21.2523  -22.2018   20.7621 C   0  0  0  0  0  0  0  0  0  1  0  0
  -29.2795  -18.5526   21.2698 C   0  0  1  0  0  0  0  0  0  0  0  0
  -31.4185  -20.9859   19.3016 C   0  0  2  0  0  0  0  0  0  0  0  0
  -29.8609  -17.7961   22.4974 C   0  0  0  0  0  0  0  0  0  0  0  0
  -26.1673  -28.6543   19.3758 N   0  0  0  0  0  0  0  0  0  0  0  0
  -24.9175  -28.8911   18.9422 N   0  0  0  0  0  0  0  0  0  0  0  0
  -27.1429  -17.9735   20.1638 N   0  0  0  0  0  0  0  0  0  0  0  0
  -23.1412  -30.9895   21.5973 N   0  0  0  0  0  0  0  0  0  0  0  0
  -23.2668  -28.1234   17.4267 N   0  0  0  0  0  0  0  0  0  0  0  0
  -26.7191  -25.2972   16.7264 N   0  0  0  0  0  0  0  0  0  0  0  0
  -25.3550  -14.8864   20.1037 N   0  0  0  0  0  0  0  0  0  0  0  0
  -30.2860  -19.2005   20.4357 N   0  0  0  0  0  0  0  0  0  0  0  0
  -21.3559  -29.6581   22.3934 N   0  0  0  0  0  0  0  0  0  0  0  0
  -31.0040  -22.1180   18.4255 N   0  3  0  0  0  0  0  0  0  0  0  0
  -24.5858  -25.8285   16.0739 O   0  0  0  0  0  0  0  0  0  0  0  0
  -25.3154  -16.6850   21.5822 O   0  0  0  0  0  0  0  0  0  0  0  0
  -29.0567  -16.6860   19.8232 O   0  0  0  0  0  0  0  0  0  0  0  0
  -29.4319  -21.3478   20.6282 O   0  0  0  0  0  0  0  0  0  0  0  0
  -21.3296  -31.9304   22.6977 O   0  0  0  0  0  0  0  0  0  0  0  0
  -31.6390  -25.3973   19.3378 O   0  0  0  0  0  0  0  0  0  0  0  0
  -22.6774  -22.1769   20.8301 O   0  0  0  0  0  0  0  0  0  1  0  0
  -35.9087  -28.8726   19.6487 F   0  0  0  0  0  0  0  0  0  0  0  0
  -33.7086  -25.2685   17.5095 F   0  0  0  0  0  0  0  0  0  0  0  0
  -20.7793  -24.7208   25.0873 Cl  0  0  0  0  0  0  0  0  0  0  0  0
  -17.1477  -25.6232   21.1221 Cl  0  0  0  0  0  0  0  0  0  0  0  0
  1  2  1  0  0  0  0
  1  5  2  0  0  0  0
  2  6  2  0  0  0  0
  3  8  2  0  0  0  0
  3 17  1  0  0  0  0
  4  9  1  0  0  0  0
  4 17  2  0  0  0  0
  5 19  1  0  0  0  0
  6 21  1  0  0  0  0
  7 10  2  0  0  0  0
  7 20  1  0  0  0  0
  8 25  1  0  0  0  0
  9 25  2  0  0  0  0
 10 26  1  0  0  0  0
 11 12  2  0  0  0  0
 11 27  1  0  0  0  0
 12 28  1  0  0  0  0
 13 22  1  0  0  0  0
 13 26  2  0  0  0  0
 14 23  1  0  0  0  0
 14 30  2  0  0  0  0
 15 23  2  0  0  0  0
 15 31  1  0  0  0  0
 16 28  2  0  0  0  0
 16 29  1  0  0  0  0
 17 32  1  0  0  0  0
 18 32  1  0  0  0  0
 18 33  2  0  0  0  0
 18 34  1  0  0  0  0
 19 21  2  0  0  0  0
 19 39  1  0  0  0  0
 20 22  2  0  0  0  0
 20 40  1  0  0  0  0
 21 48  1  0  0  0  0
 22 41  1  0  0  0  0
 23 57  1  0  0  0  0
 24 30  1  0  0  0  0
 24 31  2  0  0  0  0
 24 56  1  0  0  0  0
 25 79  1  0  0  0  0
 26 80  1  0  0  0  0
 27 29  2  0  0  0  0
 27 79  1  0  0  0  0
 28 81  1  0  0  0  0
 29 82  1  0  0  0  0
 30 83  1  0  0  0  0
 31 84  1  0  0  0  0
 32 64  2  0  0  0  0
 33 65  1  0  0  0  0
 33 68  1  0  0  0  0
 34 69  1  0  0  0  0
 34 74  2  0  0  0  0
 35 49  1  0  0  0  0
 35 70  1  0  0  0  0
 35 75  2  0  0  0  0
 36 61  1  0  0  0  0
 36 66  1  0  0  0  0
 36 76  2  0  0  0  0
 37 62  1  0  0  0  0
 37 71  1  0  0  0  0
 37 77  2  0  0  0  0
 38 67  1  0  0  0  0
 38 72  1  0  0  0  0
 38 78  2  0  0  0  0
 39 42  1  0  0  0  0
 40 49  1  0  0  0  0
 41 66  1  0  0  0  0
 42 44  1  0  0  0  0
 43 45  1  0  0  0  0
 43 46  1  0  0  0  0
 44 48  1  0  0  0  0
 45 50  1  0  0  0  0
 46 67  1  0  0  0  0
 47 50  1  0  0  0  0
 47 67  1  0  0  0  0
 48 70  1  0  0  0  0
 49 66  1  0  0  0  0
 50 65  1  0  0  0  0
 51 62  1  0  0  0  0
 52 63  1  0  0  0  0
 53 63  1  0  0  0  0
 54 63  1  0  0  0  0
 55 73  1  0  0  0  0
 56 58  1  0  0  0  0
 57 72  1  0  0  0  0
 58 59  1  0  0  0  0
 59 60  1  0  0  0  0
 60 80  1  0  0  0  0
 61 63  1  0  0  0  0
 61 71  1  0  0  0  0
 62 73  1  0  0  0  0
 64 65  1  0  0  0  0
M  CHG  1  73   1
M  ISO  4  38 100  60 101  72 100  80 101
M  END
> <Batch ID>
0027

> <Smiles>
CNC(C)C(=O)NC(C(=O)N1Cc2cc([101O:1][101CH2:1]CCCc3c(Cl)cc(C[100NH:0][100C:0](=O)N4CCCC(n5nc(-c6ccc(Oc7ccc(F)cc7F)cc6)c(C(N)=O)c5N)C4)cc3Cl)ccc2CC1C(=O)NC1CCCc2ccccc21)C(C)(C)C

> <Shape>
0.217

> <Color>
0.080

> <Negative vol penalty>
0.000

$$$$

  -OEChem-04052316303D

 83 91  0     1  0  0  0  0  0999 V2000
  -17.6955  -30.6359   22.9900 C   0  0  0  0  0  0  0  0  0  0  0  0
  -19.0554  -30.8496   22.7891 C   0  0  0  0  0  0  0  0  0  0  0  0
  -25.4360  -15.8549   21.6589 C   0  0  0  0  0  0  0  0  0  0  0  0
  -25.0196  -16.6270   19.4077 C   0  0  0  0  0  0  0  0  0  0  0  0
  -17.2240  -29.3497   23.2492 C   0  0  0  0  0  0  0  0  0  0  0  0
  -19.9448  -29.7773   22.8485 C   0  0  0  0  0  0  0  0  0  0  0  0
  -25.0266  -29.0203   19.5156 C   0  0  0  0  0  0  0  0  0  0  0  0
  -24.2129  -15.1842   21.6550 C   0  0  0  0  0  0  0  0  0  0  0  0
  -23.7966  -15.9563   19.4039 C   0  0  0  0  0  0  0  0  0  0  0  0
  -26.3726  -29.2585   19.7902 C   0  0  0  0  0  0  0  0  0  0  0  0
  -21.3642  -12.9713   22.1057 C   0  0  0  0  0  0  0  0  0  0  0  0
  -21.3377  -11.6680   22.6019 C   0  0  0  0  0  0  0  0  0  0  0  0
  -30.7941  -24.1196   24.1728 C   0  0  0  0  0  0  0  0  0  0  0  0
  -26.6503  -26.9429   20.4068 C   0  0  0  0  0  0  0  0  0  0  0  0
  -29.0006  -26.0739   25.0368 C   0  0  0  0  0  0  0  0  0  0  0  0
  -22.9311  -10.9936   20.9157 C   0  0  0  0  0  0  0  0  0  0  0  0
  -25.8393  -16.5763   20.5352 C   0  0  0  0  0  0  0  0  0  0  0  0
  -29.4431  -23.8079   24.3252 C   0  0  0  0  0  0  0  0  0  0  0  0
  -28.3516  -16.7629   20.1336 C   0  0  0  0  0  0  0  0  0  0  0  0
  -18.1068  -28.2596   23.3022 C   0  0  0  0  0  0  0  0  0  0  0  0
  -24.4789  -27.7419   19.6953 C   0  0  0  0  0  0  0  0  0  0  0  0
  -19.4848  -28.4755   23.1100 C   0  0  0  0  0  0  0  0  0  0  0  0
  -25.2977  -26.6905   20.1313 C   0  0  0  0  0  0  0  0  0  0  0  0
  -30.3516  -26.3856   24.8844 C   0  0  0  0  0  0  0  0  0  0  0  0
  -23.3933  -15.2349   20.5276 C   0  0  0  0  0  0  0  0  0  0  0  0
  -27.1840  -28.2204   20.2387 C   0  0  0  0  0  0  0  0  0  0  0  0
  -22.1741  -13.2858   21.0144 C   0  0  0  0  0  0  0  0  0  0  0  0
  -22.1212  -10.6792   22.0069 C   0  0  0  0  0  0  0  0  0  0  0  0
  -31.2483  -25.4085   24.4524 C   0  0  0  0  0  0  0  0  0  0  0  0
  -22.9576  -12.2970   20.4194 C   0  0  0  0  0  0  0  0  0  0  0  0
  -28.5464  -24.7851   24.7572 C   0  0  0  0  0  0  0  0  0  0  0  0
  -27.1023  -17.2698   20.5388 C   0  0  0  0  0  0  0  0  0  0  0  0
  -29.2247  -17.8050   20.3287 C   0  0  0  0  0  0  0  0  0  0  0  0
  -29.0118  -22.4385   24.0188 C   0  0  0  0  0  0  0  0  0  0  0  0
  -28.6924  -15.4659   19.6262 C   0  0  0  0  0  0  0  0  0  0  0  0
  -22.1961  -26.5184   21.5379 C   0  0  0  0  0  0  0  0  0  0  0  0
  -22.7690  -23.8403   19.7995 C   0  0  0  0  0  0  0  0  0  0  0  0
  -24.9414  -22.0453   17.8745 C   0  0  0  0  0  0  0  0  0  0  0  0
  -17.5562  -26.8949   23.6324 C   0  0  0  0  0  0  0  0  0  0  0  0
  -23.0314  -27.4953   19.3691 C   0  0  0  0  0  0  0  0  0  0  0  0
  -24.7631  -25.2953   20.3210 C   0  0  0  0  0  0  0  0  0  0  0  0
  -18.5181  -25.7550   23.3074 C   0  0  0  0  0  0  0  0  0  0  0  0
  -29.4038  -22.5825   20.4143 C   0  0  0  0  0  0  0  0  0  0  0  0
  -19.9189  -26.0765   23.8185 C   0  0  0  0  0  0  0  0  0  0  0  0
  -28.9511  -21.1809   20.0033 C   0  0  0  0  0  0  0  0  0  0  0  0
  -28.5920  -23.1047   21.5959 C   0  0  0  0  0  0  0  0  0  0  0  0
  -28.1502  -20.8014   22.3789 C   0  0  0  0  0  0  0  0  0  0  0  0
  -20.4778  -27.3340   23.1420 C   0  0  1  0  0  0  0  0  0  0  0  0
  -22.4589  -26.2724   20.0791 C   0  0  1  0  0  0  0  0  0  0  0  0
  -28.9569  -20.2188   21.2055 C   0  0  1  0  0  0  0  0  0  0  0  0
  -25.1393  -19.8765   16.6278 C   0  0  0  0  0  0  0  0  0  0  0  0
  -23.1592  -22.3611   22.4395 C   0  0  0  0  0  0  0  0  0  0  0  0
  -24.2601  -20.5117   21.1604 C   0  0  0  0  0  0  0  0  0  0  0  0
  -21.8753  -21.0891   20.7109 C   0  0  0  0  0  0  0  0  0  0  0  0
  -25.3396  -23.4330   15.2909 C   0  0  0  0  0  0  0  0  0  0  0  0
  -30.8399  -27.7799   25.1872 C   0  0  0  0  0  0  0  0  0  0  0  0
  -31.0651  -28.6420   23.9399 C   0  0  0  0  0  0  0  0  0  0  0  0
  -29.8138  -28.7693   23.0653 C   0  0  0  0  0  0  0  0  0  0  0  0
  -30.0751  -29.6601   21.8520 C   0  0  0  0  0  0  0  0  0  0  0  0
  -28.8502  -29.7593   20.9539 C   0  0  0  0  0  0  0  0  0  1  0  0
  -23.6984  -22.6581   19.9321 C   0  0  1  0  0  0  0  0  0  0  0  0
  -24.7630  -21.3473   16.5383 C   0  0  2  0  0  0  0  0  0  0  0  0
  -23.2582  -21.6816   21.0591 C   0  0  0  0  0  0  0  0  0  0  0  0
  -27.1714  -18.5355   20.9596 N   0  0  0  0  0  0  0  0  0  0  0  0
  -28.4745  -18.8327   20.8201 N   0  0  0  0  0  0  0  0  0  0  0  0
  -28.6220  -22.1477   22.7092 N   0  0  0  0  0  0  0  0  0  0  0  0
  -23.3400  -25.1058   19.9947 N   0  0  0  0  0  0  0  0  0  0  0  0
  -30.5532  -17.9335   20.1263 N   0  0  0  0  0  0  0  0  0  0  0  0
  -27.6735  -14.5134   19.4887 N   0  0  0  0  0  0  0  0  0  0  0  0
  -20.9391  -27.0262   21.8052 N   0  0  0  0  0  0  0  0  0  0  0  0
  -23.7745  -22.0482   18.6090 N   0  0  0  0  0  0  0  0  0  0  0  0
  -25.6185  -21.9890   15.5004 N   0  3  0  0  0  0  0  0  0  0  0  0
  -29.0382  -21.6395   24.9538 O   0  0  0  0  0  0  0  0  0  0  0  0
  -29.8685  -15.1554   19.3197 O   0  0  0  0  0  0  0  0  0  0  0  0
  -23.0685  -26.2647   22.3602 O   0  0  0  0  0  0  0  0  0  0  0  0
  -21.5817  -23.6483   19.5255 O   0  0  0  0  0  0  0  0  0  0  0  0
  -26.0101  -22.5356   18.2325 O   0  0  0  0  0  0  0  0  0  0  0  0
  -22.1999  -14.5804   20.5234 O   0  0  0  0  0  0  0  0  0  0  0  0
  -28.4979  -28.4503   20.5081 O   0  0  0  0  0  0  0  0  0  1  0  0
  -22.0968   -9.4280   22.4845 F   0  0  0  0  0  0  0  0  0  0  0  0
  -32.5486  -25.6982   24.3032 F   0  0  0  0  0  0  0  0  0  0  0  0
  -23.7385  -12.5933   19.3715 F   0  0  0  0  0  0  0  0  0  0  0  0
  -26.8661  -24.4402   24.9589 Cl  0  0  0  0  0  0  0  0  0  0  0  0
  1  2  1  0  0  0  0
  1  5  2  0  0  0  0
  2  6  2  0  0  0  0
  3  8  2  0  0  0  0
  3 17  1  0  0  0  0
  4  9  1  0  0  0  0
  4 17  2  0  0  0  0
  5 20  1  0  0  0  0
  6 22  1  0  0  0  0
  7 10  2  0  0  0  0
  7 21  1  0  0  0  0
  8 25  1  0  0  0  0
  9 25  2  0  0  0  0
 10 26  1  0  0  0  0
 11 12  2  0  0  0  0
 11 27  1  0  0  0  0
 12 28  1  0  0  0  0
 13 18  2  0  0  0  0
 13 29  1  0  0  0  0
 14 23  1  0  0  0  0
 14 26  2  0  0  0  0
 15 24  1  0  0  0  0
 15 31  2  0  0  0  0
 16 28  2  0  0  0  0
 16 30  1  0  0  0  0
 17 32  1  0  0  0  0
 18 31  1  0  0  0  0
 18 34  1  0  0  0  0
 19 32  1  0  0  0  0
 19 33  2  0  0  0  0
 19 35  1  0  0  0  0
 20 22  2  0  0  0  0
 20 39  1  0  0  0  0
 21 23  2  0  0  0  0
 21 40  1  0  0  0  0
 22 48  1  0  0  0  0
 23 41  1  0  0  0  0
 24 29  2  0  0  0  0
 24 56  1  0  0  0  0
 25 78  1  0  0  0  0
 26 79  1  0  0  0  0
 27 30  2  0  0  0  0
 27 78  1  0  0  0  0
 28 80  1  0  0  0  0
 29 81  1  0  0  0  0
 30 82  1  0  0  0  0
 31 83  1  0  0  0  0
 32 64  2  0  0  0  0
 33 65  1  0  0  0  0
 33 68  1  0  0  0  0
 34 66  1  0  0  0  0
 34 73  2  0  0  0  0
 35 69  1  0  0  0  0
 35 74  2  0  0  0  0
 36 49  1  0  0  0  0
 36 70  1  0  0  0  0
 36 75  2  0  0  0  0
 37 61  1  0  0  0  0
 37 67  1  0  0  0  0
 37 76  2  0  0  0  0
 38 62  1  0  0  0  0
 38 71  1  0  0  0  0
 38 77  2  0  0  0  0
 39 42  1  0  0  0  0
 40 49  1  0  0  0  0
 41 67  1  0  0  0  0
 42 44  1  0  0  0  0
 43 45  1  0  0  0  0
 43 46  1  0  0  0  0
 44 48  1  0  0  0  0
 45 50  1  0  0  0  0
 46 66  1  0  0  0  0
 47 50  1  0  0  0  0
 47 66  1  0  0  0  0
 48 70  1  0  0  0  0
 49 67  1  0  0  0  0
 50 65  1  0  0  0  0
 51 62  1  0  0  0  0
 52 63  1  0  0  0  0
 53 63  1  0  0  0  0
 54 63  1  0  0  0  0
 55 72  1  0  0  0  0
 56 57  1  0  0  0  0
 57 58  1  0  0  0  0
 58 59  1  0  0  0  0
 59 60  1  0  0  0  0
 60 79  1  0  0  0  0
 61 63  1  0  0  0  0
 61 71  1  0  0  0  0
 62 72  1  0  0  0  0
 64 65  1  0  0  0  0
M  CHG  1  72   1
M  ISO  4  18 100  34 100  60 101  79 101
M  END
> <Batch ID>
0027

> <Smiles>
CNC(C)C(=O)NC(C(=O)N1Cc2cc([101O:1][101CH2:1]CCCCc3cc(Cl)[100c:0]([100C:0](=O)N4CCCC(n5nc(-c6ccc(Oc7ccc(F)cc7F)cc6)c(C(N)=O)c5N)C4)cc3F)ccc2CC1C(=O)NC1CCCc2ccccc21)C(C)(C)C

> <Shape>
0.204

> <Color>
0.071

> <Negative vol penalty>
0.000

$$$$

  -OEChem-04052316303D

 92100  0     1  0  0  0  0  0999 V2000
  -16.4476  -30.1058   23.7622 C   0  0  0  0  0  0  0  0  0  0  0  0
  -17.0650  -29.1619   24.5767 C   0  0  0  0  0  0  0  0  0  0  0  0
  -21.1309  -17.6025   21.4759 C   0  0  0  0  0  0  0  0  0  0  0  0
  -23.3404  -17.9886   20.5781 C   0  0  0  0  0  0  0  0  0  0  0  0
  -17.0677  -30.5209   22.5845 C   0  0  0  0  0  0  0  0  0  0  0  0
  -18.3024  -28.6317   24.2132 C   0  0  0  0  0  0  0  0  0  0  0  0
  -24.3861  -26.1760   27.0897 C   0  0  0  0  0  0  0  0  0  0  0  0
  -21.2569  -16.2409   21.2005 C   0  0  0  0  0  0  0  0  0  0  0  0
  -23.4665  -16.6270   20.3027 C   0  0  0  0  0  0  0  0  0  0  0  0
  -25.2256  -25.0637   27.0470 C   0  0  0  0  0  0  0  0  0  0  0  0
  -24.1678  -13.7966   22.0107 C   0  0  0  0  0  0  0  0  0  0  0  0
  -25.3697  -13.1765   22.3520 C   0  0  0  0  0  0  0  0  0  0  0  0
  -26.2395  -25.9140   25.0300 C   0  0  0  0  0  0  0  0  0  0  0  0
  -25.7187  -12.5791   20.0372 C   0  0  0  0  0  0  0  0  0  0  0  0
  -22.1726  -18.4764   21.1646 C   0  0  0  0  0  0  0  0  0  0  0  0
  -21.8360  -20.4811   22.7058 C   0  0  0  0  0  0  0  0  0  0  0  0
  -18.3178  -30.0027   22.2113 C   0  0  0  0  0  0  0  0  0  0  0  0
  -24.4597  -27.1619   26.0952 C   0  0  0  0  0  0  0  0  0  0  0  0
  -18.9392  -29.0392   23.0287 C   0  0  0  0  0  0  0  0  0  0  0  0
  -25.4017  -27.0391   25.0638 C   0  0  0  0  0  0  0  0  0  0  0  0
  -27.6243  -24.8444   19.0257 C   0  0  0  0  0  0  0  0  0  0  0  0
  -29.3067  -23.1191   19.1981 C   0  0  0  0  0  0  0  0  0  0  0  0
  -22.4247  -15.7531   20.6140 C   0  0  0  0  0  0  0  0  0  0  0  0
  -26.1505  -24.9311   26.0155 C   0  0  0  0  0  0  0  0  0  0  0  0
  -23.7412  -13.8078   20.6827 C   0  0  0  0  0  0  0  0  0  0  0  0
  -26.1452  -12.5678   21.3652 C   0  0  0  0  0  0  0  0  0  0  0  0
  -24.5167  -13.1991   19.6959 C   0  0  0  0  0  0  0  0  0  0  0  0
  -28.0998  -25.4256   20.2011 C   0  0  0  0  0  0  0  0  0  0  0  0
  -28.2277  -23.6911   18.5242 C   0  0  0  0  0  0  0  0  0  0  0  0
  -29.7823  -23.7003   20.3736 C   0  0  0  0  0  0  0  0  0  0  0  0
  -29.1788  -24.8536   20.8750 C   0  0  0  0  0  0  0  0  0  0  0  0
  -22.0428  -19.8830   21.4483 C   0  0  0  0  0  0  0  0  0  0  0  0
  -21.7834  -21.8278   22.4410 C   0  0  0  0  0  0  0  0  0  0  0  0
  -21.7035  -19.8737   23.9977 C   0  0  0  0  0  0  0  0  0  0  0  0
  -22.4501  -28.2987   23.9105 C   0  0  0  0  0  0  0  0  0  0  0  0
  -24.8385  -30.4306   23.3878 C   0  0  0  0  0  0  0  0  0  0  0  0
  -28.1649  -31.1639   23.5979 C   0  0  0  0  0  0  0  0  0  0  0  0
  -24.0186  -25.2069   18.0323 C   0  0  0  0  0  0  0  0  0  0  0  0
  -18.9272  -30.4468   20.9051 C   0  0  0  0  0  0  0  0  0  0  0  0
  -23.5655  -28.3691   26.1704 C   0  0  0  0  0  0  0  0  0  0  0  0
  -25.5345  -28.0797   23.9831 C   0  0  0  0  0  0  0  0  0  0  0  0
  -20.4119  -30.1140   20.7813 C   0  0  0  0  0  0  0  0  0  0  0  0
  -20.6009  -24.9217   18.9884 C   0  0  0  0  0  0  0  0  0  0  0  0
  -20.6739  -28.6741   21.2112 C   0  0  0  0  0  0  0  0  0  0  0  0
  -20.5642  -23.6520   19.8407 C   0  0  0  0  0  0  0  0  0  0  0  0
  -21.5847  -24.7939   17.8275 C   0  0  0  0  0  0  0  0  0  0  0  0
  -22.9157  -23.1312   19.0675 C   0  0  0  0  0  0  0  0  0  0  0  0
  -20.2930  -28.4592   22.6810 C   0  0  1  0  0  0  0  0  0  0  0  0
  -23.3743  -29.0559   24.8217 C   0  0  1  0  0  0  0  0  0  0  0  0
  -21.9790  -23.2328   20.2834 C   0  0  2  0  0  0  0  0  0  0  0  0
  -30.2596  -32.5388   23.4582 C   0  0  0  0  0  0  0  0  0  0  0  0
  -24.7221  -29.6488   20.4408 C   0  0  0  0  0  0  0  0  0  0  0  0
  -26.9602  -30.7292   20.1376 C   0  0  0  0  0  0  0  0  0  0  0  0
  -25.0040  -32.0982   20.8600 C   0  0  0  0  0  0  0  0  0  0  0  0
  -27.8280  -32.1689   26.3611 C   0  0  0  0  0  0  0  0  0  0  0  0
  -29.9566  -21.8720   18.6528 C   0  0  0  0  0  0  0  0  0  0  0  0
  -26.4657  -25.4893   18.3344 C   0  0  0  0  0  0  0  0  0  0  0  0
  -29.5157  -20.5823   19.3551 C   0  0  0  0  0  0  0  0  0  0  0  0
  -28.0268  -20.2392   19.2225 C   0  0  0  0  0  0  0  0  0  0  0  0
  -27.5626  -18.9801   19.9610 C   0  0  0  0  0  0  0  0  0  0  0  0
  -27.8671  -19.0043   21.4600 C   0  0  0  0  0  0  0  0  0  0  0  0
  -27.1618  -20.1748   22.1491 C   0  0  0  0  0  0  0  0  0  0  0  0
  -27.4906  -20.2214   23.6423 C   0  0  0  0  0  0  0  0  0  0  0  0
  -26.8127  -21.4112   24.3245 C   0  0  0  0  0  0  0  0  0  0  0  0
  -27.1107  -21.4340   25.8266 C   0  0  0  0  0  0  0  0  0  0  0  0
  -26.4730  -22.6301   26.5228 C   0  0  0  0  0  0  0  0  0  1  0  0
  -26.0529  -30.4773   22.4923 C   0  0  1  0  0  0  0  0  0  0  0  0
  -28.8954  -32.3905   24.1138 C   0  0  2  0  0  0  0  0  0  0  0  0
  -25.6812  -30.7176   21.0018 C   0  0  0  0  0  0  0  0  0  0  0  0
  -22.1163  -20.7765   20.4582 N   0  0  0  0  0  0  0  0  0  0  0  0
  -21.9548  -21.9497   21.0934 N   0  0  0  0  0  0  0  0  0  0  0  0
  -24.6335  -29.2385   24.0969 N   0  0  0  0  0  0  0  0  0  0  0  0
  -22.9074  -24.3956   18.3151 N   0  0  0  0  0  0  0  0  0  0  0  0
  -21.6076  -22.9078   23.2317 N   0  0  0  0  0  0  0  0  0  0  0  0
  -22.8604  -19.6703   24.7623 N   0  0  0  0  0  0  0  0  0  0  0  0
  -21.3145  -28.9997   23.5521 N   0  0  0  0  0  0  0  0  0  0  0  0
  -26.9386  -31.4892   23.0579 N   0  0  0  0  0  0  0  0  0  0  0  0
  -25.2337  -24.7599   18.5368 N   0  0  0  0  0  0  0  0  0  0  0  0
  -29.0904  -32.2953   25.5882 N   0  3  0  0  0  0  0  0  0  0  0  0
  -20.5939  -19.5067   24.4536 O   0  0  0  0  0  0  0  0  0  0  0  0
  -22.7462  -27.1632   23.5575 O   0  0  0  0  0  0  0  0  0  0  0  0
  -24.1029  -31.4181   23.4612 O   0  0  0  0  0  0  0  0  0  0  0  0
  -28.6367  -30.0309   23.6636 O   0  0  0  0  0  0  0  0  0  0  0  0
  -23.9333  -26.2548   17.3831 O   0  0  0  0  0  0  0  0  0  0  0  0
  -22.5481  -14.4245   20.3454 O   0  0  0  0  0  0  0  0  0  0  0  0
  -26.9768  -23.8379   25.9707 O   0  0  0  0  0  0  0  0  0  1  0  0
  -27.3001  -11.9737   21.6928 F   0  0  0  0  0  0  0  0  0  0  0  0
  -24.1127  -13.2078   18.4182 F   0  0  0  0  0  0  0  0  0  0  0  0
  -27.5136  -26.5352   20.6770 F   0  0  0  0  0  0  0  0  0  0  0  0
  -27.6312  -22.9745   17.0631 Cl  0  0  0  0  0  0  0  0  0  0  0  0
  -31.1265  -22.9739   21.1986 Cl  0  0  0  0  0  0  0  0  0  0  0  0
  -29.7219  -25.6220   22.3277 Cl  0  0  0  0  0  0  0  0  0  0  0  0
  1  2  1  0  0  0  0
  1  5  2  0  0  0  0
  2  6  2  0  0  0  0
  3  8  2  0  0  0  0
  3 15  1  0  0  0  0
  4  9  1  0  0  0  0
  4 15  2  0  0  0  0
  5 17  1  0  0  0  0
  6 19  1  0  0  0  0
  7 10  2  0  0  0  0
  7 18  1  0  0  0  0
  8 23  1  0  0  0  0
  9 23  2  0  0  0  0
 10 24  1  0  0  0  0
 11 12  2  0  0  0  0
 11 25  1  0  0  0  0
 12 26  1  0  0  0  0
 13 20  1  0  0  0  0
 13 24  2  0  0  0  0
 14 26  2  0  0  0  0
 14 27  1  0  0  0  0
 15 32  1  0  0  0  0
 16 32  1  0  0  0  0
 16 33  2  0  0  0  0
 16 34  1  0  0  0  0
 17 19  2  0  0  0  0
 17 39  1  0  0  0  0
 18 20  2  0  0  0  0
 18 40  1  0  0  0  0
 19 48  1  0  0  0  0
 20 41  1  0  0  0  0
 21 28  2  0  0  0  0
 21 29  1  0  0  0  0
 21 57  1  0  0  0  0
 22 29  2  0  0  0  0
 22 30  1  0  0  0  0
 22 56  1  0  0  0  0
 23 85  1  0  0  0  0
 24 86  1  0  0  0  0
 25 27  2  0  0  0  0
 25 85  1  0  0  0  0
 26 87  1  0  0  0  0
 27 88  1  0  0  0  0
 28 31  1  0  0  0  0
 28 89  1  0  0  0  0
 29 90  1  0  0  0  0
 30 31  2  0  0  0  0
 30 91  1  0  0  0  0
 31 92  1  0  0  0  0
 32 70  2  0  0  0  0
 33 71  1  0  0  0  0
 33 74  1  0  0  0  0
 34 75  1  0  0  0  0
 34 80  2  0  0  0  0
 35 49  1  0  0  0  0
 35 76  1  0  0  0  0
 35 81  2  0  0  0  0
 36 67  1  0  0  0  0
 36 72  1  0  0  0  0
 36 82  2  0  0  0  0
 37 68  1  0  0  0  0
 37 77  1  0  0  0  0
 37 83  2  0  0  0  0
 38 73  1  0  0  0  0
 38 78  1  0  0  0  0
 38 84  2  0  0  0  0
 39 42  1  0  0  0  0
 40 49  1  0  0  0  0
 41 72  1  0  0  0  0
 42 44  1  0  0  0  0
 43 45  1  0  0  0  0
 43 46  1  0  0  0  0
 44 48  1  0  0  0  0
 45 50  1  0  0  0  0
 46 73  1  0  0  0  0
 47 50  1  0  0  0  0
 47 73  1  0  0  0  0
 48 76  1  0  0  0  0
 49 72  1  0  0  0  0
 50 71  1  0  0  0  0
 51 68  1  0  0  0  0
 52 69  1  0  0  0  0
 53 69  1  0  0  0  0
 54 69  1  0  0  0  0
 55 79  1  0  0  0  0
 56 58  1  0  0  0  0
 57 78  1  0  0  0  0
 58 59  1  0  0  0  0
 59 60  1  0  0  0  0
 60 61  1  0  0  0  0
 61 62  1  0  0  0  0
 62 63  1  0  0  0  0
 63 64  1  0  0  0  0
 64 65  1  0  0  0  0
 65 66  1  0  0  0  0
 66 86  1  0  0  0  0
 67 69  1  0  0  0  0
 67 77  1  0  0  0  0
 68 79  1  0  0  0  0
 70 71  1  0  0  0  0
M  CHG  1  79   1
M  ISO  4  38 100  66 101  78 100  86 101
M  END
> <Batch ID>
0027

> <Smiles>
CNC(C)C(=O)NC(C(=O)N1Cc2cc([101O:1][101CH2:1]CCCCCCCCCc3c(Cl)c(Cl)c(F)c(C[100NH:0][100C:0](=O)N4CCCC(n5nc(-c6ccc(Oc7ccc(F)cc7F)cc6)c(C(N)=O)c5N)C4)c3Cl)ccc2CC1C(=O)NC1CCCc2ccccc21)C(C)(C)C

> <Shape>
0.194

> <Color>
0.060

> <Negative vol penalty>
0.000

$$$$

  -OEChem-04052316303D

 87 96  0     1  0  0  0  0  0999 V2000
  -18.4147  -32.2690   15.9741 C   0  0  0  0  0  0  0  0  0  0  0  0
  -19.0910  -31.0756   16.2056 C   0  0  0  0  0  0  0  0  0  0  0  0
  -23.1567   -9.7931   19.8946 C   0  0  0  0  0  0  0  0  0  0  0  0
  -23.9247   -9.7774   22.1852 C   0  0  0  0  0  0  0  0  0  0  0  0
  -18.3756  -33.2501   16.9640 C   0  0  0  0  0  0  0  0  0  0  0  0
  -19.7297  -30.8629   17.4268 C   0  0  0  0  0  0  0  0  0  0  0  0
  -20.2921  -25.5444   20.4104 C   0  0  0  0  0  0  0  0  0  0  0  0
  -22.4727   -8.5978   20.1157 C   0  0  0  0  0  0  0  0  0  0  0  0
  -23.2406   -8.5821   22.4064 C   0  0  0  0  0  0  0  0  0  0  0  0
  -21.3317  -24.6189   20.4900 C   0  0  0  0  0  0  0  0  0  0  0  0
  -20.0591   -7.6073   22.9963 C   0  0  0  0  0  0  0  0  0  0  0  0
  -19.3099   -7.4983   24.1678 C   0  0  0  0  0  0  0  0  0  0  0  0
  -29.0006  -18.8609   21.0630 C   0  0  0  0  0  0  0  0  0  0  0  0
  -22.0765  -25.6414   22.5441 C   0  0  0  0  0  0  0  0  0  0  0  0
  -20.6500   -5.6069   24.8489 C   0  0  0  0  0  0  0  0  0  0  0  0
  -23.8828  -10.3829   20.9293 C   0  0  0  0  0  0  0  0  0  0  0  0
  -24.0970  -12.9243   20.8758 C   0  0  0  0  0  0  0  0  0  0  0  0
  -19.0059  -33.0455   18.2015 C   0  0  0  0  0  0  0  0  0  0  0  0
  -20.1431  -26.5337   21.3930 C   0  0  0  0  0  0  0  0  0  0  0  0
  -19.7001  -31.8428   18.4336 C   0  0  0  0  0  0  0  0  0  0  0  0
  -28.7223  -19.9196   20.1850 C   0  0  0  0  0  0  0  0  0  0  0  0
  -21.0326  -26.5766   22.4760 C   0  0  0  0  0  0  0  0  0  0  0  0
  -29.7194  -20.3587   19.2956 C   0  0  0  0  0  0  0  0  0  0  0  0
  -30.2597  -18.2618   21.0776 C   0  0  0  0  0  0  0  0  0  0  0  0
  -22.5146   -7.9923   21.3716 C   0  0  0  0  0  0  0  0  0  0  0  0
  -22.2259  -24.6691   21.5554 C   0  0  0  0  0  0  0  0  0  0  0  0
  -21.1037   -6.7160   22.7510 C   0  0  0  0  0  0  0  0  0  0  0  0
  -19.6053   -6.4981   25.0941 C   0  0  0  0  0  0  0  0  0  0  0  0
  -21.3991   -5.7158   23.6773 C   0  0  0  0  0  0  0  0  0  0  0  0
  -31.2526  -18.7099   20.2117 C   0  0  0  0  0  0  0  0  0  0  0  0
  -30.9855  -19.7546   19.3274 C   0  0  0  0  0  0  0  0  0  0  0  0
  -24.5901  -11.6173   20.7014 C   0  0  0  0  0  0  0  0  0  0  0  0
  -25.1486  -13.7371   20.5297 C   0  0  0  0  0  0  0  0  0  0  0  0
  -22.8039  -13.3643   21.3119 C   0  0  0  0  0  0  0  0  0  0  0  0
  -20.2216  -29.7114   21.4065 C   0  0  0  0  0  0  0  0  0  0  0  0
  -19.3164  -29.3322   24.4983 C   0  0  0  0  0  0  0  0  0  0  0  0
  -19.2212  -27.3369   27.2654 C   0  0  0  0  0  0  0  0  0  0  0  0
  -30.5751  -15.0252   20.7300 C   0  0  0  0  0  0  0  0  0  0  0  0
  -18.9764  -34.1544   19.2233 C   0  0  0  0  0  0  0  0  0  0  0  0
  -19.0004  -27.5081   21.3067 C   0  0  0  0  0  0  0  0  0  0  0  0
  -27.3371  -20.5183   20.1769 C   0  0  0  0  0  0  0  0  0  0  0  0
  -29.4804  -21.5068   18.3484 C   0  0  0  0  0  0  0  0  0  0  0  0
  -20.9041  -27.6064   23.5675 C   0  0  0  0  0  0  0  0  0  0  0  0
  -19.3612  -33.6983   20.6284 C   0  0  0  0  0  0  0  0  0  0  0  0
  -27.9995  -21.8182   18.1361 C   0  0  0  0  0  0  0  0  0  0  0  0
  -29.5488  -12.6507   18.2836 C   0  0  0  0  0  0  0  0  0  0  0  0
  -20.6171  -32.8337   20.5838 C   0  0  0  0  0  0  0  0  0  0  0  0
  -28.1297  -12.2737   18.7125 C   0  0  0  0  0  0  0  0  0  0  0  0
  -30.4586  -12.8854   19.4874 C   0  0  0  0  0  0  0  0  0  0  0  0
  -28.5283  -13.4829   20.8983 C   0  0  0  0  0  0  0  0  0  0  0  0
  -20.3842  -31.5649   19.7546 C   0  0  1  0  0  0  0  0  0  0  0  0
  -19.2498  -28.7924   22.0913 C   0  0  1  0  0  0  0  0  0  0  0  0
  -27.2666  -21.8848   19.4791 C   0  0  1  0  0  0  0  0  0  0  0  0
  -27.5593  -13.2909   19.7191 C   0  0  2  0  0  0  0  0  0  0  0  0
  -18.4496  -27.3159   29.6532 C   0  0  0  0  0  0  0  0  0  0  0  0
  -21.6854  -31.0904   25.2768 C   0  0  0  0  0  0  0  0  0  0  0  0
  -21.4354  -30.2661   27.6276 C   0  0  0  0  0  0  0  0  0  0  0  0
  -19.5838  -31.5467   26.5532 C   0  0  0  0  0  0  0  0  0  0  0  0
  -17.3882  -25.0658   26.7745 C   0  0  0  0  0  0  0  0  0  0  0  0
  -30.5380  -17.1428   22.0237 C   0  0  0  0  0  0  0  0  0  0  0  0
  -25.8144  -22.3175   19.2883 C   0  0  0  0  0  0  0  0  0  0  0  0
  -25.2205  -22.8695   20.5812 C   0  0  0  0  0  0  0  0  0  0  0  0
  -23.7593  -23.2613   20.4053 C   0  0  0  0  0  0  0  0  0  1  0  0
  -20.0415  -29.1730   25.8128 C   0  0  1  0  0  0  0  0  0  0  0  0
  -18.0898  -26.9830   28.2136 C   0  0  2  0  0  0  0  0  0  0  0  0
  -20.6904  -30.5007   26.2962 C   0  0  0  0  0  0  0  0  0  0  0  0
  -25.8564  -11.5963   20.2772 N   0  0  0  0  0  0  0  0  0  0  0  0
  -26.1679  -12.9002   20.1821 N   0  0  0  0  0  0  0  0  0  0  0  0
  -19.7743  -28.5411   23.4352 N   0  0  0  0  0  0  0  0  0  0  0  0
  -29.8607  -13.8611   20.4020 N   0  0  0  0  0  0  0  0  0  0  0  0
  -25.2917  -15.0790   20.4916 N   0  0  0  0  0  0  0  0  0  0  0  0
  -21.8403  -12.3968   21.6276 N   0  0  0  0  0  0  0  0  0  0  0  0
  -19.6333  -30.5923   20.5192 N   0  0  0  0  0  0  0  0  0  0  0  0
  -19.0745  -28.6059   26.7464 N   0  0  0  0  0  0  0  0  0  0  0  0
  -29.9335  -15.9001   21.5982 N   0  0  0  0  0  0  0  0  0  0  0  0
  -17.7808  -25.5274   28.1309 N   0  3  0  0  0  0  0  0  0  0  0  0
  -22.5065  -14.5795   21.4027 O   0  0  0  0  0  0  0  0  0  0  0  0
  -21.4166  -29.6284   21.6653 O   0  0  0  0  0  0  0  0  0  0  0  0
  -18.3737  -30.1238   24.4197 O   0  0  0  0  0  0  0  0  0  0  0  0
  -20.1448  -26.5662   27.0134 O   0  0  0  0  0  0  0  0  0  0  0  0
  -31.6989  -15.2695   20.2781 O   0  0  0  0  0  0  0  0  0  0  0  0
  -21.8470   -6.8260   21.5878 O   0  0  0  0  0  0  0  0  0  0  0  0
  -23.2420  -23.7674   21.6352 O   0  0  0  0  0  0  0  0  0  1  0  0
  -18.8868   -6.3946   26.2198 F   0  0  0  0  0  0  0  0  0  0  0  0
  -22.4023   -4.8574   23.4477 F   0  0  0  0  0  0  0  0  0  0  0  0
  -32.4639  -18.1329   20.2387 F   0  0  0  0  0  0  0  0  0  0  0  0
  -32.2838  -20.2761   18.3042 Cl  0  0  0  0  0  0  0  0  0  0  0  0
  1  2  1  0  0  0  0
  1  5  2  0  0  0  0
  2  6  2  0  0  0  0
  3  8  2  0  0  0  0
  3 16  1  0  0  0  0
  4  9  1  0  0  0  0
  4 16  2  0  0  0  0
  5 18  1  0  0  0  0
  6 20  1  0  0  0  0
  7 10  2  0  0  0  0
  7 19  1  0  0  0  0
  8 25  1  0  0  0  0
  9 25  2  0  0  0  0
 10 26  1  0  0  0  0
 11 12  2  0  0  0  0
 11 27  1  0  0  0  0
 12 28  1  0  0  0  0
 13 21  2  0  0  0  0
 13 24  1  0  0  0  0
 14 22  1  0  0  0  0
 14 26  2  0  0  0  0
 15 28  2  0  0  0  0
 15 29  1  0  0  0  0
 16 32  1  0  0  0  0
 17 32  1  0  0  0  0
 17 33  2  0  0  0  0
 17 34  1  0  0  0  0
 18 20  2  0  0  0  0
 18 39  1  0  0  0  0
 19 22  2  0  0  0  0
 19 40  1  0  0  0  0
 20 51  1  0  0  0  0
 21 23  1  0  0  0  0
 21 41  1  0  0  0  0
 22 43  1  0  0  0  0
 23 31  2  0  0  0  0
 23 42  1  0  0  0  0
 24 30  2  0  0  0  0
 24 60  1  0  0  0  0
 25 82  1  0  0  0  0
 26 83  1  0  0  0  0
 27 29  2  0  0  0  0
 27 82  1  0  0  0  0
 28 84  1  0  0  0  0
 29 85  1  0  0  0  0
 30 31  1  0  0  0  0
 30 86  1  0  0  0  0
 31 87  1  0  0  0  0
 32 67  2  0  0  0  0
 33 68  1  0  0  0  0
 33 71  1  0  0  0  0
 34 72  1  0  0  0  0
 34 77  2  0  0  0  0
 35 52  1  0  0  0  0
 35 73  1  0  0  0  0
 35 78  2  0  0  0  0
 36 64  1  0  0  0  0
 36 69  1  0  0  0  0
 36 79  2  0  0  0  0
 37 65  1  0  0  0  0
 37 74  1  0  0  0  0
 37 80  2  0  0  0  0
 38 70  1  0  0  0  0
 38 75  1  0  0  0  0
 38 81  2  0  0  0  0
 39 44  1  0  0  0  0
 40 52  1  0  0  0  0
 41 53  1  0  0  0  0
 42 45  1  0  0  0  0
 43 69  1  0  0  0  0
 44 47  1  0  0  0  0
 45 53  1  0  0  0  0
 46 48  1  0  0  0  0
 46 49  1  0  0  0  0
 47 51  1  0  0  0  0
 48 54  1  0  0  0  0
 49 70  1  0  0  0  0
 50 54  1  0  0  0  0
 50 70  1  0  0  0  0
 51 73  1  0  0  0  0
 52 69  1  0  0  0  0
 53 61  1  0  0  0  0
 54 68  1  0  0  0  0
 55 65  1  0  0  0  0
 56 66  1  0  0  0  0
 57 66  1  0  0  0  0
 58 66  1  0  0  0  0
 59 76  1  0  0  0  0
 60 75  1  0  0  0  0
 61 62  1  0  0  0  0
 62 63  1  0  0  0  0
 63 83  1  0  0  0  0
 64 66  1  0  0  0  0
 64 74  1  0  0  0  0
 65 76  1  0  0  0  0
 67 68  1  0  0  0  0
M  CHG  1  76   1
M  ISO  4  38 100  63 101  75 100  83 101
M  END
> <Batch ID>
0027

> <Smiles>
CNC(C)C(=O)NC(C(=O)N1Cc2cc([101O:1][101CH2:1]CCC3CCc4c(cc(C[100NH:0][100C:0](=O)N5CCCC(n6nc(-c7ccc(Oc8ccc(F)cc8F)cc7)c(C(N)=O)c6N)C5)c(F)c4Cl)C3)ccc2CC1C(=O)NC1CCCc2ccccc21)C(C)(C)C

> <Shape>
0.276

> <Color>
0.201

> <Negative vol penalty>
0.000

$$$$

  -OEChem-04052316303D

 86 95  0     1  0  0  0  0  0999 V2000
  -26.1717  -29.6299   17.7216 C   0  0  0  0  0  0  0  0  0  0  0  0
  -25.6577  -28.3596   17.9615 C   0  0  0  0  0  0  0  0  0  0  0  0
  -30.4548  -20.9434   20.4953 C   0  0  0  0  0  0  0  0  0  0  0  0
  -28.2809  -20.1534   19.7972 C   0  0  0  0  0  0  0  0  0  0  0  0
  -26.0895  -30.6116   18.7082 C   0  0  0  0  0  0  0  0  0  0  0  0
  -25.0622  -28.0699   19.1886 C   0  0  0  0  0  0  0  0  0  0  0  0
  -20.3062  -24.3423   20.1842 C   0  0  0  0  0  0  0  0  0  0  0  0
  -30.2634  -22.1159   19.7645 C   0  0  0  0  0  0  0  0  0  0  0  0
  -28.0895  -21.3260   19.0664 C   0  0  0  0  0  0  0  0  0  0  0  0
  -20.2260  -23.0182   20.6134 C   0  0  0  0  0  0  0  0  0  0  0  0
  -28.5896  -25.0315   20.1264 C   0  0  0  0  0  0  0  0  0  0  0  0
  -28.9227  -26.2392   20.7397 C   0  0  0  0  0  0  0  0  0  0  0  0
  -19.8697  -23.7791   22.8746 C   0  0  0  0  0  0  0  0  0  0  0  0
  -25.4145  -15.0017   22.8086 C   0  0  0  0  0  0  0  0  0  0  0  0
  -30.5282  -26.6848   18.9901 C   0  0  0  0  0  0  0  0  0  0  0  0
  -24.6781  -16.1578   20.4526 C   0  0  0  0  0  0  0  0  0  0  0  0
  -29.4636  -19.9621   20.5116 C   0  0  0  0  0  0  0  0  0  0  0  0
  -29.8799  -18.6380   22.6520 C   0  0  0  0  0  0  0  0  0  0  0  0
  -25.4841  -30.3367   19.9445 C   0  0  0  0  0  0  0  0  0  0  0  0
  -20.1795  -25.3964   21.1003 C   0  0  0  0  0  0  0  0  0  0  0  0
  -24.9731  -29.0485   20.1932 C   0  0  0  0  0  0  0  0  0  0  0  0
  -19.9462  -25.1157   22.4541 C   0  0  0  0  0  0  0  0  0  0  0  0
  -24.5915  -16.1311   22.8408 C   0  0  0  0  0  0  0  0  0  0  0  0
  -24.1941  -16.7196   21.6315 C   0  0  0  0  0  0  0  0  0  0  0  0
  -29.0808  -22.3072   19.0501 C   0  0  0  0  0  0  0  0  0  0  0  0
  -20.0106  -22.7364   21.9592 C   0  0  0  0  0  0  0  0  0  0  0  0
  -29.2259  -24.6503   18.9450 C   0  0  0  0  0  0  0  0  0  0  0  0
  -29.8920  -27.0659   20.1715 C   0  0  0  0  0  0  0  0  0  0  0  0
  -30.1952  -25.4770   18.3769 C   0  0  0  0  0  0  0  0  0  0  0  0
  -29.6609  -18.7504   21.2659 C   0  0  0  0  0  0  0  0  0  0  0  0
  -25.8279  -14.5207   21.5768 C   0  0  0  0  0  0  0  0  0  0  0  0
  -30.0050  -17.2879   22.8715 C   0  0  0  0  0  0  0  0  0  0  0  0
  -29.9628  -19.6624   23.6517 C   0  0  0  0  0  0  0  0  0  0  0  0
  -22.0693  -27.7575   22.0785 C   0  0  0  0  0  0  0  0  0  0  0  0
  -19.4110  -28.6982   23.6820 C   0  0  0  0  0  0  0  0  0  0  0  0
  -16.4153  -27.8456   25.0769 C   0  0  0  0  0  0  0  0  0  0  0  0
  -27.9537  -12.6627   19.4164 C   0  0  0  0  0  0  0  0  0  0  0  0
  -25.4609  -31.4162   20.9975 C   0  0  0  0  0  0  0  0  0  0  0  0
  -20.2417  -26.8194   20.6171 C   0  0  0  0  0  0  0  0  0  0  0  0
  -24.1013  -16.6511   24.1688 C   0  0  0  0  0  0  0  0  0  0  0  0
  -23.3318  -17.9526   21.5856 C   0  0  0  0  0  0  0  0  0  0  0  0
  -19.7830  -26.2114   23.4745 C   0  0  0  0  0  0  0  0  0  0  0  0
  -24.4794  -31.1384   22.1332 C   0  0  0  0  0  0  0  0  0  0  0  0
  -23.5353  -18.0704   24.0910 C   0  0  0  0  0  0  0  0  0  0  0  0
  -31.3682  -13.2433   20.7226 C   0  0  0  0  0  0  0  0  0  0  0  0
  -24.6213  -29.7003   22.6216 C   0  0  0  0  0  0  0  0  0  0  0  0
  -31.3474  -14.7336   21.0584 C   0  0  0  0  0  0  0  0  0  0  0  0
  -30.4039  -12.9036   19.5901 C   0  0  0  0  0  0  0  0  0  0  0  0
  -28.9858  -14.8448   20.1689 C   0  0  0  0  0  0  0  0  0  0  0  0
  -24.2976  -28.7031   21.5026 C   0  0  1  0  0  0  0  0  0  0  0  0
  -20.6115  -27.8086   21.7181 C   0  0  1  0  0  0  0  0  0  0  0  0
  -29.9123  -15.2130   21.3375 C   0  0  2  0  0  0  0  0  0  0  0  0
  -22.5894  -18.1888   22.9009 C   0  0  1  0  0  0  0  0  0  0  0  0
  -14.4857  -28.8225   26.3494 C   0  0  0  0  0  0  0  0  0  0  0  0
  -21.1073  -28.7393   26.2179 C   0  0  0  0  0  0  0  0  0  0  0  0
  -18.9885  -28.7786   27.5511 C   0  0  0  0  0  0  0  0  0  0  0  0
  -19.5165  -30.6561   25.9958 C   0  0  0  0  0  0  0  0  0  0  0  0
  -25.6102  -11.9793   19.7634 C   0  0  0  0  0  0  0  0  0  0  0  0
  -14.4981  -27.1482   22.9329 C   0  0  0  0  0  0  0  0  0  0  0  0
  -26.7094  -13.3179   21.5199 C   0  0  0  0  0  0  0  0  0  0  0  0
  -20.8517  -19.7376   23.8031 C   0  0  0  0  0  0  0  0  0  0  0  0
  -20.3626  -21.1696   23.7134 C   0  0  0  0  0  0  0  0  0  1  0  0
  -18.8295  -28.4159   25.0462 C   0  0  1  0  0  0  0  0  0  0  0  0
  -15.0400  -28.4800   24.9753 C   0  0  2  0  0  0  0  0  0  0  0  0
  -19.6154  -29.1266   26.1841 C   0  0  0  0  0  0  0  0  0  0  0  0
  -25.4822  -15.0728   20.3949 N   0  0  0  0  0  0  0  0  0  0  0  0
  -29.6472  -17.5661   20.6483 N   0  0  0  0  0  0  0  0  0  0  0  0
  -29.8593  -16.6968   21.6510 N   0  0  0  0  0  0  0  0  0  0  0  0
  -19.8581  -27.5865   22.9539 N   0  0  0  0  0  0  0  0  0  0  0  0
  -29.0576  -13.4084   19.8616 N   0  0  0  0  0  0  0  0  0  0  0  0
  -30.2243  -16.5607   23.9875 N   0  0  0  0  0  0  0  0  0  0  0  0
  -28.7862  -20.0572   24.3029 N   0  0  0  0  0  0  0  0  0  0  0  0
  -22.8659  -28.5947   21.3208 N   0  0  0  0  0  0  0  0  0  0  0  0
  -17.4198  -28.7845   24.9732 N   0  0  0  0  0  0  0  0  0  0  0  0
  -26.7782  -12.7434   20.1781 N   0  0  0  0  0  0  0  0  0  0  0  0
  -22.0005  -19.5534   22.8809 N   0  3  0  0  0  0  0  0  0  0  0  0
  -14.0889  -27.5500   24.3033 N   0  3  0  0  0  0  0  0  0  0  0  0
  -31.0455  -20.2228   23.9468 O   0  0  0  0  0  0  0  0  0  0  0  0
  -22.4435  -27.0147   22.9785 O   0  0  0  0  0  0  0  0  0  0  0  0
  -19.4601  -29.8614   23.2744 O   0  0  0  0  0  0  0  0  0  0  0  0
  -16.5819  -26.6383   25.2362 O   0  0  0  0  0  0  0  0  0  0  0  0
  -28.0184  -11.9571   18.4016 O   0  0  0  0  0  0  0  0  0  0  0  0
  -28.8935  -23.4514   18.3370 O   0  0  0  0  0  0  0  0  0  0  0  0
  -19.9326  -21.4449   22.3809 O   0  0  0  0  0  0  0  0  0  1  0  0
  -30.2106  -28.2263   20.7597 F   0  0  0  0  0  0  0  0  0  0  0  0
  -30.8090  -25.1168   17.2414 F   0  0  0  0  0  0  0  0  0  0  0  0
  1  2  1  0  0  0  0
  1  5  2  0  0  0  0
  2  6  2  0  0  0  0
  3  8  2  0  0  0  0
  3 17  1  0  0  0  0
  4  9  1  0  0  0  0
  4 17  2  0  0  0  0
  5 19  1  0  0  0  0
  6 21  1  0  0  0  0
  7 10  2  0  0  0  0
  7 20  1  0  0  0  0
  8 25  1  0  0  0  0
  9 25  2  0  0  0  0
 10 26  1  0  0  0  0
 11 12  2  0  0  0  0
 11 27  1  0  0  0  0
 12 28  1  0  0  0  0
 13 22  1  0  0  0  0
 13 26  2  0  0  0  0
 14 23  1  0  0  0  0
 14 31  2  0  0  0  0
 15 28  2  0  0  0  0
 15 29  1  0  0  0  0
 16 24  1  0  0  0  0
 16 66  2  0  0  0  0
 17 30  1  0  0  0  0
 18 30  1  0  0  0  0
 18 32  2  0  0  0  0
 18 33  1  0  0  0  0
 19 21  2  0  0  0  0
 19 38  1  0  0  0  0
 20 22  2  0  0  0  0
 20 39  1  0  0  0  0
 21 50  1  0  0  0  0
 22 42  1  0  0  0  0
 23 24  2  0  0  0  0
 23 40  1  0  0  0  0
 24 41  1  0  0  0  0
 25 83  1  0  0  0  0
 26 84  1  0  0  0  0
 27 29  2  0  0  0  0
 27 83  1  0  0  0  0
 28 85  1  0  0  0  0
 29 86  1  0  0  0  0
 30 67  2  0  0  0  0
 31 60  1  0  0  0  0
 31 66  1  0  0  0  0
 32 68  1  0  0  0  0
 32 71  1  0  0  0  0
 33 72  1  0  0  0  0
 33 78  2  0  0  0  0
 34 51  1  0  0  0  0
 34 73  1  0  0  0  0
 34 79  2  0  0  0  0
 35 63  1  0  0  0  0
 35 69  1  0  0  0  0
 35 80  2  0  0  0  0
 36 64  1  0  0  0  0
 36 74  1  0  0  0  0
 36 81  2  0  0  0  0
 37 70  1  0  0  0  0
 37 75  1  0  0  0  0
 37 82  2  0  0  0  0
 38 43  1  0  0  0  0
 39 51  1  0  0  0  0
 40 44  1  0  0  0  0
 41 53  1  0  0  0  0
 42 69  1  0  0  0  0
 43 46  1  0  0  0  0
 44 53  1  0  0  0  0
 45 47  1  0  0  0  0
 45 48  1  0  0  0  0
 46 50  1  0  0  0  0
 47 52  1  0  0  0  0
 48 70  1  0  0  0  0
 49 52  1  0  0  0  0
 49 70  1  0  0  0  0
 50 73  1  0  0  0  0
 51 69  1  0  0  0  0
 52 68  1  0  0  0  0
 53 76  1  0  0  0  0
 54 64  1  0  0  0  0
 55 65  1  0  0  0  0
 56 65  1  0  0  0  0
 57 65  1  0  0  0  0
 58 75  1  0  0  0  0
 59 77  1  0  0  0  0
 60 75  1  0  0  0  0
 61 62  1  0  0  0  0
 61 76  1  0  0  0  0
 62 84  1  0  0  0  0
 63 65  1  0  0  0  0
 63 74  1  0  0  0  0
 64 77  1  0  0  0  0
 67 68  1  0  0  0  0
M  CHG  2  76   1  77   1
M  ISO  4  37 100  62 101  75 100  84 101
M  END
> <Batch ID>
0027

> <Smiles>
CNC(C)C(=O)NC(C(=O)N1Cc2cc([101O:1][101CH2:1]CNC3CCc4cc(C[100N:0](C)[100C:0](=O)N5CCCC(n6nc(-c7ccc(Oc8ccc(F)cc8F)cc7)c(C(N)=O)c6N)C5)ncc4C3)ccc2CC1C(=O)NC1CCCc2ccccc21)C(C)(C)C

> <Shape>
0.285

> <Color>
0.058

> <Negative vol penalty>
0.000

$$$$

  -OEChem-04052316303D

 91101  0     1  0  0  0  0  0999 V2000
  -26.9928  -32.6945   12.0341 C   0  0  0  0  0  0  0  0  0  0  0  0
  -27.9493  -31.6868   12.1063 C   0  0  0  0  0  0  0  0  0  0  0  0
  -22.9036  -10.1056   20.0681 C   0  0  0  0  0  0  0  0  0  0  0  0
  -24.4629   -9.5437   21.8259 C   0  0  0  0  0  0  0  0  0  0  0  0
  -26.6969  -33.4554   13.1643 C   0  0  0  0  0  0  0  0  0  0  0  0
  -28.6112  -31.4402   13.3086 C   0  0  0  0  0  0  0  0  0  0  0  0
  -28.2984  -24.9672   16.4540 C   0  0  0  0  0  0  0  0  0  0  0  0
  -22.2796   -8.8682   20.2260 C   0  0  0  0  0  0  0  0  0  0  0  0
  -23.8389   -8.3063   21.9839 C   0  0  0  0  0  0  0  0  0  0  0  0
  -28.4602  -23.6977   17.0093 C   0  0  0  0  0  0  0  0  0  0  0  0
  -21.0496   -7.0953   23.4584 C   0  0  0  0  0  0  0  0  0  0  0  0
  -20.7825   -6.6672   24.7587 C   0  0  0  0  0  0  0  0  0  0  0  0
  -30.3009  -18.2173   26.9086 C   0  0  0  0  0  0  0  0  0  0  0  0
  -29.7586  -24.6426   18.8175 C   0  0  0  0  0  0  0  0  0  0  0  0
  -30.1087  -17.7981   24.1158 C   0  0  0  0  0  0  0  0  0  0  0  0
  -22.1632   -4.7173   24.4005 C   0  0  0  0  0  0  0  0  0  0  0  0
  -29.9262  -21.3073   24.9924 C   0  0  0  0  0  0  0  0  0  0  0  0
  -30.1526  -19.3177   26.0411 C   0  0  0  0  0  0  0  0  0  0  0  0
  -23.9953  -10.4434   20.8680 C   0  0  0  0  0  0  0  0  0  0  0  0
  -24.0580  -12.9936   20.8577 C   0  0  0  0  0  0  0  0  0  0  0  0
  -27.3485  -33.2116   14.3836 C   0  0  0  0  0  0  0  0  0  0  0  0
  -28.8537  -26.0825   17.0874 C   0  0  0  0  0  0  0  0  0  0  0  0
  -28.3246  -32.1995   14.4559 C   0  0  0  0  0  0  0  0  0  0  0  0
  -29.5892  -25.9182   18.2726 C   0  0  0  0  0  0  0  0  0  0  0  0
  -30.2563  -16.7220   24.9956 C   0  0  0  0  0  0  0  0  0  0  0  0
  -30.0664  -20.7253   26.2312 C   0  0  0  0  0  0  0  0  0  0  0  0
  -30.0601  -19.0832   24.6676 C   0  0  0  0  0  0  0  0  0  0  0  0
  -22.7472   -7.9685   21.1839 C   0  0  0  0  0  0  0  0  0  0  0  0
  -29.1888  -23.5358   18.1880 C   0  0  0  0  0  0  0  0  0  0  0  0
  -21.8735   -6.3343   22.6290 C   0  0  0  0  0  0  0  0  0  0  0  0
  -21.3392   -5.4782   25.2298 C   0  0  0  0  0  0  0  0  0  0  0  0
  -30.3511  -16.9260   26.3708 C   0  0  0  0  0  0  0  0  0  0  0  0
  -22.4303   -5.1453   23.1001 C   0  0  0  0  0  0  0  0  0  0  0  0
  -24.6407  -11.7213   20.7049 C   0  0  0  0  0  0  0  0  0  0  0  0
  -25.0802  -13.8730   20.5969 C   0  0  0  0  0  0  0  0  0  0  0  0
  -22.7129  -13.3488   21.2044 C   0  0  0  0  0  0  0  0  0  0  0  0
  -29.3484  -29.8015   17.0739 C   0  0  0  0  0  0  0  0  0  0  0  0
  -28.8199  -28.9833   19.9829 C   0  0  0  0  0  0  0  0  0  0  0  0
  -27.7880  -27.7296   22.9829 C   0  0  0  0  0  0  0  0  0  0  0  0
  -31.0393  -13.4252   20.9715 C   0  0  0  0  0  0  0  0  0  0  0  0
  -27.0291  -34.0915   15.5661 C   0  0  0  0  0  0  0  0  0  0  0  0
  -28.7568  -27.4609   16.4921 C   0  0  0  0  0  0  0  0  0  0  0  0
  -30.1979  -27.1421   18.9006 C   0  0  0  0  0  0  0  0  0  0  0  0
  -27.5061  -33.5186   16.8982 C   0  0  0  0  0  0  0  0  0  0  0  0
  -29.1328  -14.2651   18.0842 C   0  0  0  0  0  0  0  0  0  0  0  0
  -28.9412  -33.0154   16.7796 C   0  0  0  0  0  0  0  0  0  0  0  0
  -27.7128  -13.8232   18.4422 C   0  0  0  0  0  0  0  0  0  0  0  0
  -28.4361  -21.1813   22.2015 C   0  0  0  0  0  0  0  0  0  0  0  0
  -30.9593  -21.3632   22.0001 C   0  0  0  0  0  0  0  0  0  0  0  0
  -28.3072  -21.3992   20.6962 C   0  0  0  0  0  0  0  0  0  0  0  0
  -30.8169  -21.5816   20.4960 C   0  0  0  0  0  0  0  0  0  0  0  0
  -30.1809  -13.3098   18.6506 C   0  0  0  0  0  0  0  0  0  0  0  0
  -28.6545  -12.6212   20.4589 C   0  0  0  0  0  0  0  0  0  0  0  0
  -29.0462  -31.8853   15.7484 C   0  0  1  0  0  0  0  0  0  0  0  0
  -28.6385  -28.5695   17.5534 C   0  0  1  0  0  0  0  0  0  0  0  0
  -29.7874  -20.5383   22.5615 C   0  0  0  0  0  0  0  0  0  0  0  0
  -27.5650  -13.5842   19.9569 C   0  0  2  0  0  0  0  0  0  0  0  0
  -29.4726  -22.2153   20.1422 C   0  0  0  0  0  0  0  0  0  1  0  0
  -30.1182  -21.4428   27.5212 C   0  0  0  0  0  0  0  0  0  0  0  0
  -27.3047  -28.4223   25.3460 C   0  0  0  0  0  0  0  0  0  0  0  0
  -31.8137  -29.1347   20.5468 C   0  0  0  0  0  0  0  0  0  0  0  0
  -31.2962  -28.8723   22.9823 C   0  0  0  0  0  0  0  0  0  0  0  0
  -30.4400  -30.8548   21.7336 C   0  0  0  0  0  0  0  0  0  0  0  0
  -24.9586  -26.8870   22.7741 C   0  0  0  0  0  0  0  0  0  0  0  0
  -30.3116  -15.3341   24.4471 C   0  0  0  0  0  0  0  0  0  0  0  0
  -31.6798  -14.9356   23.8615 C   0  0  0  0  0  0  0  0  0  0  0  0
  -31.7500  -13.4990   23.3482 C   0  0  0  0  0  0  0  0  0  0  0  0
  -29.4099  -28.5847   21.3119 C   0  0  1  0  0  0  0  0  0  0  0  0
  -26.7237  -28.1987   23.9585 C   0  0  2  0  0  0  0  0  0  0  0  0
  -30.7312  -29.3422   21.6248 C   0  0  0  0  0  0  0  0  0  0  0  0
  -25.9329  -11.7825   20.3726 N   0  0  0  0  0  0  0  0  0  0  0  0
  -29.9232  -20.3089   24.0557 N   0  0  0  0  0  0  0  0  0  0  0  0
  -26.1706  -13.1040   20.3144 N   0  0  0  0  0  0  0  0  0  0  0  0
  -29.2385  -28.2568   18.8615 N   0  0  0  0  0  0  0  0  0  0  0  0
  -29.9861  -13.1273   20.0910 N   0  0  0  0  0  0  0  0  0  0  0  0
  -25.1438  -15.2214   20.5839 N   0  0  0  0  0  0  0  0  0  0  0  0
  -21.7898  -12.3206   21.4395 N   0  0  0  0  0  0  0  0  0  0  0  0
  -28.5620  -30.6424   16.3097 N   0  0  0  0  0  0  0  0  0  0  0  0
  -28.3575  -28.7848   22.3022 N   0  0  0  0  0  0  0  0  0  0  0  0
  -30.7689  -13.2304   22.3204 N   0  0  0  0  0  0  0  0  0  0  0  0
  -25.6344  -27.1869   24.0627 N   0  3  0  0  0  0  0  0  0  0  0  0
  -22.3364  -14.5425   21.2869 O   0  0  0  0  0  0  0  0  0  0  0  0
  -30.5228  -29.9781   17.3758 O   0  0  0  0  0  0  0  0  0  0  0  0
  -28.0139  -29.9169   19.9364 O   0  0  0  0  0  0  0  0  0  0  0  0
  -28.0870  -26.5459   22.8418 O   0  0  0  0  0  0  0  0  0  0  0  0
  -32.1373  -13.8394   20.5845 O   0  0  0  0  0  0  0  0  0  0  0  0
  -22.1384   -6.7610   21.3385 O   0  0  0  0  0  0  0  0  0  0  0  0
  -29.3391  -22.2943   18.7272 O   0  0  0  0  0  0  0  0  0  1  0  0
  -21.0839   -5.0681   26.4791 F   0  0  0  0  0  0  0  0  0  0  0  0
  -30.4900  -15.8799   27.1984 F   0  0  0  0  0  0  0  0  0  0  0  0
  -23.2235   -4.4106   22.3083 F   0  0  0  0  0  0  0  0  0  0  0  0
  1  2  1  0  0  0  0
  1  5  2  0  0  0  0
  2  6  2  0  0  0  0
  3  8  2  0  0  0  0
  3 19  1  0  0  0  0
  4  9  1  0  0  0  0
  4 19  2  0  0  0  0
  5 21  1  0  0  0  0
  6 23  1  0  0  0  0
  7 10  2  0  0  0  0
  7 22  1  0  0  0  0
  8 28  1  0  0  0  0
  9 28  2  0  0  0  0
 10 29  1  0  0  0  0
 11 12  2  0  0  0  0
 11 30  1  0  0  0  0
 12 31  1  0  0  0  0
 13 18  1  0  0  0  0
 13 32  2  0  0  0  0
 14 24  1  0  0  0  0
 14 29  2  0  0  0  0
 15 25  2  0  0  0  0
 15 27  1  0  0  0  0
 16 31  2  0  0  0  0
 16 33  1  0  0  0  0
 17 26  2  0  0  0  0
 17 72  1  0  0  0  0
 18 26  1  0  0  0  0
 18 27  2  0  0  0  0
 19 34  1  0  0  0  0
 20 34  1  0  0  0  0
 20 35  2  0  0  0  0
 20 36  1  0  0  0  0
 21 23  2  0  0  0  0
 21 41  1  0  0  0  0
 22 24  2  0  0  0  0
 22 42  1  0  0  0  0
 23 54  1  0  0  0  0
 24 43  1  0  0  0  0
 25 32  1  0  0  0  0
 25 65  1  0  0  0  0
 26 59  1  0  0  0  0
 27 72  1  0  0  0  0
 28 87  1  0  0  0  0
 29 88  1  0  0  0  0
 30 33  2  0  0  0  0
 30 87  1  0  0  0  0
 31 89  1  0  0  0  0
 32 90  1  0  0  0  0
 33 91  1  0  0  0  0
 34 71  2  0  0  0  0
 35 73  1  0  0  0  0
 35 76  1  0  0  0  0
 36 77  1  0  0  0  0
 36 82  2  0  0  0  0
 37 55  1  0  0  0  0
 37 78  1  0  0  0  0
 37 83  2  0  0  0  0
 38 68  1  0  0  0  0
 38 74  1  0  0  0  0
 38 84  2  0  0  0  0
 39 69  1  0  0  0  0
 39 79  1  0  0  0  0
 39 85  2  0  0  0  0
 40 75  1  0  0  0  0
 40 80  1  0  0  0  0
 40 86  2  0  0  0  0
 41 44  1  0  0  0  0
 42 55  1  0  0  0  0
 43 74  1  0  0  0  0
 44 46  1  0  0  0  0
 45 47  1  0  0  0  0
 45 52  1  0  0  0  0
 46 54  1  0  0  0  0
 47 57  1  0  0  0  0
 48 50  1  0  0  0  0
 48 56  1  0  0  0  0
 49 51  1  0  0  0  0
 49 56  1  0  0  0  0
 50 58  1  0  0  0  0
 51 58  1  0  0  0  0
 52 75  1  0  0  0  0
 53 57  1  0  0  0  0
 53 75  1  0  0  0  0
 54 78  1  0  0  0  0
 55 74  1  0  0  0  0
 56 72  1  0  0  0  0
 57 73  1  0  0  0  0
 58 88  1  0  0  0  0
 60 69  1  0  0  0  0
 61 70  1  0  0  0  0
 62 70  1  0  0  0  0
 63 70  1  0  0  0  0
 64 81  1  0  0  0  0
 65 66  1  0  0  0  0
 66 67  1  0  0  0  0
 67 80  1  0  0  0  0
 68 70  1  0  0  0  0
 68 79  1  0  0  0  0
 69 81  1  0  0  0  0
 71 73  1  0  0  0  0
M  CHG  1  81   1
M  ISO  4  40 100  58 101  80 100  88 101
M  END
> <Batch ID>
0027

> <Smiles>
CNC(C)C(=O)NC(C(=O)N1Cc2cc([101O:1][101CH:1]3CCC(n4cc(C)c5cc(F)c(CCC[100NH:0][100C:0](=O)N6CCCC(n7nc(-c8ccc(Oc9ccc(F)cc9F)cc8)c(C(N)=O)c7N)C6)cc54)CC3)ccc2CC1C(=O)NC1CCCc2ccccc21)C(C)(C)C

> <Shape>
0.237

> <Color>
0.182

> <Negative vol penalty>
0.000

$$$$

  -OEChem-04052316303D

 87 95  0     1  0  0  0  0  0999 V2000
  -31.3368  -29.3745   19.5808 C   0  0  0  0  0  0  0  0  0  0  0  0
  -30.6224  -28.2600   19.1532 C   0  0  0  0  0  0  0  0  0  0  0  0
  -30.2946  -19.4403   20.0095 C   0  0  0  0  0  0  0  0  0  0  0  0
  -27.9331  -19.4758   20.5186 C   0  0  0  0  0  0  0  0  0  0  0  0
  -31.1110  -29.9001   20.8523 C   0  0  0  0  0  0  0  0  0  0  0  0
  -29.6825  -27.6697   19.9974 C   0  0  0  0  0  0  0  0  0  0  0  0
  -24.4090  -25.0233   18.3566 C   0  0  0  0  0  0  0  0  0  0  0  0
  -30.2012  -20.7299   19.4863 C   0  0  0  0  0  0  0  0  0  0  0  0
  -27.8397  -20.7654   19.9955 C   0  0  0  0  0  0  0  0  0  0  0  0
  -24.0498  -23.6906   18.1596 C   0  0  0  0  0  0  0  0  0  0  0  0
  -29.1489  -22.1857   16.6231 C   0  0  0  0  0  0  0  0  0  0  0  0
  -29.7836  -22.4385   15.4071 C   0  0  0  0  0  0  0  0  0  0  0  0
  -23.1862  -23.5970   20.4101 C   0  0  0  0  0  0  0  0  0  0  0  0
  -22.9066  -12.1358   21.3385 C   0  0  0  0  0  0  0  0  0  0  0  0
  -31.1463  -24.1272   16.4693 C   0  0  0  0  0  0  0  0  0  0  0  0
  -29.1606  -18.8132   20.5256 C   0  0  0  0  0  0  0  0  0  0  0  0
  -29.5379  -17.1215   22.3974 C   0  0  0  0  0  0  0  0  0  0  0  0
  -30.1610  -29.3218   21.7089 C   0  0  0  0  0  0  0  0  0  0  0  0
  -24.1690  -25.6506   19.5876 C   0  0  0  0  0  0  0  0  0  0  0  0
  -29.4448  -28.1872   21.2821 C   0  0  0  0  0  0  0  0  0  0  0  0
  -23.5410  -24.9384   20.6194 C   0  0  0  0  0  0  0  0  0  0  0  0
  -23.3080  -12.4600   20.0427 C   0  0  0  0  0  0  0  0  0  0  0  0
  -21.3104  -13.9489   21.2979 C   0  0  0  0  0  0  0  0  0  0  0  0
  -21.7118  -14.2732   20.0020 C   0  0  0  0  0  0  0  0  0  0  0  0
  -28.9738  -21.3925   19.4793 C   0  0  0  0  0  0  0  0  0  0  0  0
  -23.4409  -22.9764   19.1874 C   0  0  0  0  0  0  0  0  0  0  0  0
  -29.5128  -22.9037   17.7623 C   0  0  0  0  0  0  0  0  0  0  0  0
  -30.7823  -23.4092   15.3302 C   0  0  0  0  0  0  0  0  0  0  0  0
  -30.5115  -23.8744   17.6854 C   0  0  0  0  0  0  0  0  0  0  0  0
  -21.9078  -12.8802   21.9661 C   0  0  0  0  0  0  0  0  0  0  0  0
  -22.7106  -13.5288   19.3744 C   0  0  0  0  0  0  0  0  0  0  0  0
  -29.2563  -17.4808   21.0657 C   0  0  0  0  0  0  0  0  0  0  0  0
  -29.5158  -15.7482   22.3945 C   0  0  0  0  0  0  0  0  0  0  0  0
  -29.7961  -17.9547   23.5353 C   0  0  0  0  0  0  0  0  0  0  0  0
  -25.9985  -26.9711   21.8266 C   0  0  0  0  0  0  0  0  0  0  0  0
  -23.1419  -27.8088   23.1154 C   0  0  0  0  0  0  0  0  0  0  0  0
  -19.7968  -27.1927   23.3937 C   0  0  0  0  0  0  0  0  0  0  0  0
  -26.8066  -11.7212   18.8883 C   0  0  0  0  0  0  0  0  0  0  0  0
  -29.9856  -29.8966   23.0921 C   0  0  0  0  0  0  0  0  0  0  0  0
  -24.5383  -27.0966   19.7753 C   0  0  0  0  0  0  0  0  0  0  0  0
  -23.2430  -25.5718   21.9529 C   0  0  0  0  0  0  0  0  0  0  0  0
  -28.7041  -29.4390   23.7839 C   0  0  0  0  0  0  0  0  0  0  0  0
  -30.2978  -11.9967   19.5300 C   0  0  0  0  0  0  0  0  0  0  0  0
  -28.5262  -27.9313   23.6350 C   0  0  0  0  0  0  0  0  0  0  0  0
  -30.4522  -13.4011   20.1165 C   0  0  0  0  0  0  0  0  0  0  0  0
  -29.2312  -11.9553   18.4379 C   0  0  0  0  0  0  0  0  0  0  0  0
  -28.0695  -13.8925   19.4236 C   0  0  0  0  0  0  0  0  0  0  0  0
  -28.3992  -27.5338   22.1595 C   0  0  1  0  0  0  0  0  0  0  0  0
  -24.7132  -27.4833   21.2406 C   0  0  1  0  0  0  0  0  0  0  0  0
  -29.0946  -13.9726   20.5678 C   0  0  2  0  0  0  0  0  0  0  0  0
  -20.2360  -14.7544   21.9608 C   0  0  0  0  0  0  0  0  0  0  0  0
  -17.7303  -28.0236   24.5497 C   0  0  0  0  0  0  0  0  0  0  0  0
  -24.0709  -26.5009   25.7108 C   0  0  0  0  0  0  0  0  0  0  0  0
  -21.6903  -26.5102   26.4860 C   0  0  0  0  0  0  0  0  0  0  0  0
  -22.8538  -28.6650   26.0106 C   0  0  0  0  0  0  0  0  0  0  0  0
  -18.4679  -27.8132   20.8231 C   0  0  0  0  0  0  0  0  0  0  0  0
  -24.3817  -11.6341   19.4096 C   0  0  0  0  0  0  0  0  0  0  0  0
  -21.0591  -15.4260   19.2976 C   0  0  0  0  0  0  0  0  0  0  0  0
  -22.3288  -18.9225   18.4592 C   0  0  0  0  0  0  0  0  0  0  0  0
  -21.7445  -20.1366   17.7409 C   0  0  0  0  0  0  0  0  0  0  0  0
  -21.3344  -17.7713   18.4837 C   0  0  0  0  0  0  0  0  0  0  0  0
  -22.7436  -21.2827   17.6704 C   0  0  0  0  0  0  0  0  0  1  0  0
  -22.1788  -27.1701   24.0866 C   0  0  1  0  0  0  0  0  0  0  0  0
  -18.5921  -28.1116   23.2998 C   0  0  2  0  0  0  0  0  0  0  0  0
  -22.7057  -27.1987   25.5491 C   0  0  0  0  0  0  0  0  0  0  0  0
  -29.0693  -16.4212   20.2743 N   0  0  0  0  0  0  0  0  0  0  0  0
  -29.2337  -15.3826   21.1112 N   0  0  0  0  0  0  0  0  0  0  0  0
  -23.6287  -26.9861   22.0897 N   0  0  0  0  0  0  0  0  0  0  0  0
  -27.9681  -12.5099   18.9308 N   0  0  0  0  0  0  0  0  0  0  0  0
  -29.7104  -14.8298   23.3646 N   0  0  0  0  0  0  0  0  0  0  0  0
  -29.7805  -19.3454   23.3624 N   0  0  0  0  0  0  0  0  0  0  0  0
  -27.0700  -27.8293   21.6691 N   0  0  0  0  0  0  0  0  0  0  0  0
  -20.9003  -27.8473   23.8987 N   0  0  0  0  0  0  0  0  0  0  0  0
  -25.6539  -12.3208   19.3807 N   0  0  0  0  0  0  0  0  0  0  0  0
  -17.7529  -27.7469   22.1235 N   0  3  0  0  0  0  0  0  0  0  0  0
  -21.9265  -16.6339   19.2283 N   0  3  0  0  0  0  0  0  0  0  0  0
  -30.0500  -17.4797   24.6682 O   0  0  0  0  0  0  0  0  0  0  0  0
  -26.0163  -25.8789   22.3819 O   0  0  0  0  0  0  0  0  0  0  0  0
  -23.4455  -28.9960   23.2572 O   0  0  0  0  0  0  0  0  0  0  0  0
  -19.7614  -26.0114   23.0565 O   0  0  0  0  0  0  0  0  0  0  0  0
  -26.7986  -10.5661   18.4492 O   0  0  0  0  0  0  0  0  0  0  0  0
  -28.8823  -22.6510   18.9691 O   0  0  0  0  0  0  0  0  0  0  0  0
  -23.0898  -21.6754   18.9979 O   0  0  0  0  0  0  0  0  0  1  0  0
  -31.3928  -23.6507   14.1626 F   0  0  0  0  0  0  0  0  0  0  0  0
  -30.8663  -24.5666   18.7767 F   0  0  0  0  0  0  0  0  0  0  0  0
  -21.4384  -12.4446   23.5697 Cl  0  0  0  0  0  0  0  0  0  0  0  0
  -23.2130  -13.9288   17.7652 Cl  0  0  0  0  0  0  0  0  0  0  0  0
  1  2  1  0  0  0  0
  1  5  2  0  0  0  0
  2  6  2  0  0  0  0
  3  8  2  0  0  0  0
  3 16  1  0  0  0  0
  4  9  1  0  0  0  0
  4 16  2  0  0  0  0
  5 18  1  0  0  0  0
  6 20  1  0  0  0  0
  7 10  2  0  0  0  0
  7 19  1  0  0  0  0
  8 25  1  0  0  0  0
  9 25  2  0  0  0  0
 10 26  1  0  0  0  0
 11 12  2  0  0  0  0
 11 27  1  0  0  0  0
 12 28  1  0  0  0  0
 13 21  1  0  0  0  0
 13 26  2  0  0  0  0
 14 22  2  0  0  0  0
 14 30  1  0  0  0  0
 15 28  2  0  0  0  0
 15 29  1  0  0  0  0
 16 32  1  0  0  0  0
 17 32  1  0  0  0  0
 17 33  2  0  0  0  0
 17 34  1  0  0  0  0
 18 20  2  0  0  0  0
 18 39  1  0  0  0  0
 19 21  2  0  0  0  0
 19 40  1  0  0  0  0
 20 48  1  0  0  0  0
 21 41  1  0  0  0  0
 22 31  1  0  0  0  0
 22 57  1  0  0  0  0
 23 24  1  0  0  0  0
 23 30  2  0  0  0  0
 23 51  1  0  0  0  0
 24 31  2  0  0  0  0
 24 58  1  0  0  0  0
 25 82  1  0  0  0  0
 26 83  1  0  0  0  0
 27 29  2  0  0  0  0
 27 82  1  0  0  0  0
 28 84  1  0  0  0  0
 29 85  1  0  0  0  0
 30 86  1  0  0  0  0
 31 87  1  0  0  0  0
 32 66  2  0  0  0  0
 33 67  1  0  0  0  0
 33 70  1  0  0  0  0
 34 71  1  0  0  0  0
 34 77  2  0  0  0  0
 35 49  1  0  0  0  0
 35 72  1  0  0  0  0
 35 78  2  0  0  0  0
 36 63  1  0  0  0  0
 36 68  1  0  0  0  0
 36 79  2  0  0  0  0
 37 64  1  0  0  0  0
 37 73  1  0  0  0  0
 37 80  2  0  0  0  0
 38 69  1  0  0  0  0
 38 74  1  0  0  0  0
 38 81  2  0  0  0  0
 39 42  1  0  0  0  0
 40 49  1  0  0  0  0
 41 68  1  0  0  0  0
 42 44  1  0  0  0  0
 43 45  1  0  0  0  0
 43 46  1  0  0  0  0
 44 48  1  0  0  0  0
 45 50  1  0  0  0  0
 46 69  1  0  0  0  0
 47 50  1  0  0  0  0
 47 69  1  0  0  0  0
 48 72  1  0  0  0  0
 49 68  1  0  0  0  0
 50 67  1  0  0  0  0
 52 64  1  0  0  0  0
 53 65  1  0  0  0  0
 54 65  1  0  0  0  0
 55 65  1  0  0  0  0
 56 75  1  0  0  0  0
 57 74  1  0  0  0  0
 58 76  1  0  0  0  0
 59 60  1  0  0  0  0
 59 61  1  0  0  0  0
 60 62  1  0  0  0  0
 61 76  1  0  0  0  0
 62 83  1  0  0  0  0
 63 65  1  0  0  0  0
 63 73  1  0  0  0  0
 64 75  1  0  0  0  0
 66 67  1  0  0  0  0
M  CHG  2  75   1  76   1
M  ISO  4  38 100  62 101  74 100  83 101
M  END
> <Batch ID>
0027

> <Smiles>
CNC(C)C(=O)NC(C(=O)N1Cc2cc([101O:1][101CH2:1]CCCNCc3c(C)c(Cl)cc(C[100NH:0][100C:0](=O)N4CCCC(n5nc(-c6ccc(Oc7ccc(F)cc7F)cc6)c(C(N)=O)c5N)C4)c3Cl)ccc2CC1C(=O)NC1CCCc2ccccc21)C(C)(C)C

> <Shape>
0.237

> <Color>
0.053

> <Negative vol penalty>
0.000

$$$$

  -OEChem-04052316303D

 85 93  0     1  0  0  0  0  0999 V2000
  -23.0711  -11.4836   17.8116 C   0  0  0  0  0  0  0  0  0  0  0  0
  -22.6071  -12.7870   17.9570 C   0  0  0  0  0  0  0  0  0  0  0  0
  -29.7240  -28.0039   18.9972 C   0  0  0  0  0  0  0  0  0  0  0  0
  -29.3310  -26.9251   21.1230 C   0  0  0  0  0  0  0  0  0  0  0  0
  -24.0543  -10.9949   18.6708 C   0  0  0  0  0  0  0  0  0  0  0  0
  -23.1253  -13.6023   18.9626 C   0  0  0  0  0  0  0  0  0  0  0  0
  -24.0439  -19.6511   18.6903 C   0  0  0  0  0  0  0  0  0  0  0  0
  -31.0824  -27.7030   19.0956 C   0  0  0  0  0  0  0  0  0  0  0  0
  -30.6894  -26.6241   21.2214 C   0  0  0  0  0  0  0  0  0  0  0  0
  -23.2966  -20.7349   19.1494 C   0  0  0  0  0  0  0  0  0  0  0  0
  -34.1100  -25.8870   22.2044 C   0  0  0  0  0  0  0  0  0  0  0  0
  -34.7372  -26.1137   23.4295 C   0  0  0  0  0  0  0  0  0  0  0  0
  -24.6394  -20.8045   21.1522 C   0  0  0  0  0  0  0  0  0  0  0  0
  -19.5248  -25.8207   23.4528 C   0  0  0  0  0  0  0  0  0  0  0  0
  -34.1714  -28.4581   23.2853 C   0  0  0  0  0  0  0  0  0  0  0  0
  -28.8482  -27.6150   20.0110 C   0  0  0  0  0  0  0  0  0  0  0  0
  -26.4390  -27.1354   19.3231 C   0  0  0  0  0  0  0  0  0  0  0  0
  -24.5918  -11.8077   19.6813 C   0  0  0  0  0  0  0  0  0  0  0  0
  -25.0892  -19.1281   19.4649 C   0  0  0  0  0  0  0  0  0  0  0  0
  -24.1158  -13.1236   19.8370 C   0  0  0  0  0  0  0  0  0  0  0  0
  -25.4001  -19.7157   20.6995 C   0  0  0  0  0  0  0  0  0  0  0  0
  -18.7823  -25.4562   22.3297 C   0  0  0  0  0  0  0  0  0  0  0  0
  -18.4209  -26.4210   21.3894 C   0  0  0  0  0  0  0  0  0  0  0  0
  -18.8020  -27.7504   21.5722 C   0  0  0  0  0  0  0  0  0  0  0  0
  -19.5446  -28.1148   22.6953 C   0  0  0  0  0  0  0  0  0  0  0  0
  -31.5651  -27.0131   20.2077 C   0  0  0  0  0  0  0  0  0  0  0  0
  -23.5925  -21.3100   20.3818 C   0  0  0  0  0  0  0  0  0  0  0  0
  -33.5136  -26.9459   21.5197 C   0  0  0  0  0  0  0  0  0  0  0  0
  -34.7679  -27.3992   23.9700 C   0  0  0  0  0  0  0  0  0  0  0  0
  -33.5442  -28.2314   22.0602 C   0  0  0  0  0  0  0  0  0  0  0  0
  -19.9060  -27.1500   23.6357 C   0  0  0  0  0  0  0  0  0  0  0  0
  -27.4450  -27.9261   19.9102 C   0  0  0  0  0  0  0  0  0  0  0  0
  -25.2887  -27.8685   19.4835 C   0  0  0  0  0  0  0  0  0  0  0  0
  -26.5357  -25.8528   18.6896 C   0  0  0  0  0  0  0  0  0  0  0  0
  -25.6805  -16.3198   20.8315 C   0  0  0  0  0  0  0  0  0  0  0  0
  -28.5424  -17.6899   21.5057 C   0  0  0  0  0  0  0  0  0  0  0  0
  -30.3461  -20.5478   21.9809 C   0  0  0  0  0  0  0  0  0  0  0  0
  -21.9261  -31.0220   22.6290 C   0  0  0  0  0  0  0  0  0  0  0  0
  -25.6192  -11.2200   20.6160 C   0  0  0  0  0  0  0  0  0  0  0  0
  -25.9030  -17.9756   18.9435 C   0  0  0  0  0  0  0  0  0  0  0  0
  -26.5254  -19.2045   21.5602 C   0  0  0  0  0  0  0  0  0  0  0  0
  -26.3845  -12.2698   21.4177 C   0  0  0  0  0  0  0  0  0  0  0  0
  -24.6167  -32.6575   20.9670 C   0  0  0  0  0  0  0  0  0  0  0  0
  -25.4230  -13.2973   22.0065 C   0  0  0  0  0  0  0  0  0  0  0  0
  -25.5119  -31.5078   20.5013 C   0  0  0  0  0  0  0  0  0  0  0  0
  -23.9849  -32.3658   22.3263 C   0  0  0  0  0  0  0  0  0  0  0  0
  -24.1506  -29.9370   21.9429 C   0  0  0  0  0  0  0  0  0  0  0  0
  -24.6710  -14.0467   20.8999 C   0  0  1  0  0  0  0  0  0  0  0  0
  -26.6136  -17.1982   20.0471 C   0  0  1  0  0  0  0  0  0  0  0  0
  -24.7660  -30.1608   20.5509 C   0  0  2  0  0  0  0  0  0  0  0  0
  -17.6241  -26.0269   20.1860 C   0  0  0  0  0  0  0  0  0  0  0  0
  -18.4137  -28.7841   20.5621 C   0  0  0  0  0  0  0  0  0  0  0  0
  -32.6538  -21.3479   22.5571 C   0  0  0  0  0  0  0  0  0  0  0  0
  -28.0660  -16.9520   24.4278 C   0  0  0  0  0  0  0  0  0  0  0  0
  -29.8723  -18.5672   25.0577 C   0  0  0  0  0  0  0  0  0  0  0  0
  -30.4089  -16.5933   23.6299 C   0  0  0  0  0  0  0  0  0  0  0  0
  -30.6210  -21.9744   19.4025 C   0  0  0  0  0  0  0  0  0  0  0  0
  -18.3829  -24.0126   22.1557 C   0  0  0  0  0  0  0  0  0  0  0  0
  -19.9469  -29.5456   22.8789 C   0  0  0  0  0  0  0  0  0  0  0  0
  -19.2185  -23.2602   21.1142 C   0  0  0  0  0  0  0  0  0  0  0  0
  -20.6971  -23.1600   21.4918 C   0  0  0  0  0  0  0  0  0  0  0  0
  -21.5014  -22.4422   20.4164 C   0  0  0  0  0  0  0  0  0  1  0  0
  -29.0913  -18.5135   22.6456 C   0  0  1  0  0  0  0  0  0  0  0  0
  -31.6909  -20.9927   21.4349 C   0  0  2  0  0  0  0  0  0  0  0  0
  -29.3371  -17.6652   23.9251 C   0  0  0  0  0  0  0  0  0  0  0  0
  -26.9750  -29.0737   20.4063 N   0  0  0  0  0  0  0  0  0  0  0  0
  -25.6611  -29.0095   20.1313 N   0  0  0  0  0  0  0  0  0  0  0  0
  -27.2879  -18.0718   21.0096 N   0  0  0  0  0  0  0  0  0  0  0  0
  -23.2920  -31.0754   22.3057 N   0  0  0  0  0  0  0  0  0  0  0  0
  -24.0050  -27.6421   19.1321 N   0  0  0  0  0  0  0  0  0  0  0  0
  -27.7936  -25.2399   18.6103 N   0  0  0  0  0  0  0  0  0  0  0  0
  -25.5223  -15.0531   20.3025 N   0  0  0  0  0  0  0  0  0  0  0  0
  -30.2837  -19.1786   22.1314 N   0  0  0  0  0  0  0  0  0  0  0  0
  -21.3449  -29.7608   22.5789 N   0  0  0  0  0  0  0  0  0  0  0  0
  -31.5252  -22.1889   20.5616 N   0  3  0  0  0  0  0  0  0  0  0  0
  -25.5389  -25.2750   18.1935 O   0  0  0  0  0  0  0  0  0  0  0  0
  -25.1449  -16.7583   21.8427 O   0  0  0  0  0  0  0  0  0  0  0  0
  -29.2056  -16.7469   21.0668 O   0  0  0  0  0  0  0  0  0  0  0  0
  -29.4428  -21.3363   22.2507 O   0  0  0  0  0  0  0  0  0  0  0  0
  -21.2717  -32.0247   22.9342 O   0  0  0  0  0  0  0  0  0  0  0  0
  -32.8906  -26.7191   20.3039 O   0  0  0  0  0  0  0  0  0  0  0  0
  -22.8643  -22.3675   20.8326 O   0  0  0  0  0  0  0  0  0  1  0  0
  -35.3688  -27.6164   25.1472 F   0  0  0  0  0  0  0  0  0  0  0  0
  -32.9720  -29.2524   21.4077 F   0  0  0  0  0  0  0  0  0  0  0  0
  -20.8253  -27.5597   25.0387 Cl  0  0  0  0  0  0  0  0  0  0  0  0
  1  2  1  0  0  0  0
  1  5  2  0  0  0  0
  2  6  2  0  0  0  0
  3  8  2  0  0  0  0
  3 16  1  0  0  0  0
  4  9  1  0  0  0  0
  4 16  2  0  0  0  0
  5 18  1  0  0  0  0
  6 20  1  0  0  0  0
  7 10  2  0  0  0  0
  7 19  1  0  0  0  0
  8 26  1  0  0  0  0
  9 26  2  0  0  0  0
 10 27  1  0  0  0  0
 11 12  2  0  0  0  0
 11 28  1  0  0  0  0
 12 29  1  0  0  0  0
 13 21  1  0  0  0  0
 13 27  2  0  0  0  0
 14 22  1  0  0  0  0
 14 31  2  0  0  0  0
 15 29  2  0  0  0  0
 15 30  1  0  0  0  0
 16 32  1  0  0  0  0
 17 32  1  0  0  0  0
 17 33  2  0  0  0  0
 17 34  1  0  0  0  0
 18 20  2  0  0  0  0
 18 39  1  0  0  0  0
 19 21  2  0  0  0  0
 19 40  1  0  0  0  0
 20 48  1  0  0  0  0
 21 41  1  0  0  0  0
 22 23  2  0  0  0  0
 22 58  1  0  0  0  0
 23 24  1  0  0  0  0
 23 51  1  0  0  0  0
 24 25  2  0  0  0  0
 24 52  1  0  0  0  0
 25 31  1  0  0  0  0
 25 59  1  0  0  0  0
 26 81  1  0  0  0  0
 27 82  1  0  0  0  0
 28 30  2  0  0  0  0
 28 81  1  0  0  0  0
 29 83  1  0  0  0  0
 30 84  1  0  0  0  0
 31 85  1  0  0  0  0
 32 66  2  0  0  0  0
 33 67  1  0  0  0  0
 33 70  1  0  0  0  0
 34 71  1  0  0  0  0
 34 76  2  0  0  0  0
 35 49  1  0  0  0  0
 35 72  1  0  0  0  0
 35 77  2  0  0  0  0
 36 63  1  0  0  0  0
 36 68  1  0  0  0  0
 36 78  2  0  0  0  0
 37 64  1  0  0  0  0
 37 73  1  0  0  0  0
 37 79  2  0  0  0  0
 38 69  1  0  0  0  0
 38 74  1  0  0  0  0
 38 80  2  0  0  0  0
 39 42  1  0  0  0  0
 40 49  1  0  0  0  0
 41 68  1  0  0  0  0
 42 44  1  0  0  0  0
 43 45  1  0  0  0  0
 43 46  1  0  0  0  0
 44 48  1  0  0  0  0
 45 50  1  0  0  0  0
 46 69  1  0  0  0  0
 47 50  1  0  0  0  0
 47 69  1  0  0  0  0
 48 72  1  0  0  0  0
 49 68  1  0  0  0  0
 50 67  1  0  0  0  0
 53 64  1  0  0  0  0
 54 65  1  0  0  0  0
 55 65  1  0  0  0  0
 56 65  1  0  0  0  0
 57 75  1  0  0  0  0
 58 60  1  0  0  0  0
 59 74  1  0  0  0  0
 60 61  1  0  0  0  0
 61 62  1  0  0  0  0
 62 82  1  0  0  0  0
 63 65  1  0  0  0  0
 63 73  1  0  0  0  0
 64 75  1  0  0  0  0
 66 67  1  0  0  0  0
M  CHG  1  75   1
M  ISO  4  38 100  62 101  74 100  82 101
M  END
> <Batch ID>
0027

> <Smiles>
CNC(C)C(=O)NC(C(=O)N1Cc2cc([101O:1][101CH2:1]CCCc3cc(Cl)c(C[100NH:0][100C:0](=O)N4CCCC(n5nc(-c6ccc(Oc7ccc(F)cc7F)cc6)c(C(N)=O)c5N)C4)c(C)c3C)ccc2CC1C(=O)NC1CCCc2ccccc21)C(C)(C)C

> <Shape>
0.218

> <Color>
0.086

> <Negative vol penalty>
0.000

$$$$

  -OEChem-04052316303D

 85 93  0     1  0  0  0  0  0999 V2000
  -28.1252  -34.6037   18.8497 C   0  0  0  0  0  0  0  0  0  0  0  0
  -28.3022  -33.2891   19.2690 C   0  0  0  0  0  0  0  0  0  0  0  0
  -23.1863  -10.5035   21.2092 C   0  0  0  0  0  0  0  0  0  0  0  0
  -24.7852   -8.8643   21.9795 C   0  0  0  0  0  0  0  0  0  0  0  0
  -27.0968  -35.3743   19.3906 C   0  0  0  0  0  0  0  0  0  0  0  0
  -27.4515  -32.7446   20.2305 C   0  0  0  0  0  0  0  0  0  0  0  0
  -25.8956  -28.0778   19.0284 C   0  0  0  0  0  0  0  0  0  0  0  0
  -22.2155   -9.5074   21.1043 C   0  0  0  0  0  0  0  0  0  0  0  0
  -23.8144   -7.8681   21.8746 C   0  0  0  0  0  0  0  0  0  0  0  0
  -26.7935  -27.0327   19.2414 C   0  0  0  0  0  0  0  0  0  0  0  0
  -21.1623   -6.7788   23.6635 C   0  0  0  0  0  0  0  0  0  0  0  0
  -21.0464   -5.8751   24.7196 C   0  0  0  0  0  0  0  0  0  0  0  0
  -25.6564  -26.4826   21.2966 C   0  0  0  0  0  0  0  0  0  0  0  0
  -28.4441  -20.5557   18.8554 C   0  0  0  0  0  0  0  0  0  0  0  0
  -21.5404   -4.0517   23.2135 C   0  0  0  0  0  0  0  0  0  0  0  0
  -24.4711  -10.1819   21.6468 C   0  0  0  0  0  0  0  0  0  0  0  0
  -25.7539  -12.0107   22.8788 C   0  0  0  0  0  0  0  0  0  0  0  0
  -26.2271  -34.8359   20.3521 C   0  0  0  0  0  0  0  0  0  0  0  0
  -24.8764  -28.3404   19.9550 C   0  0  0  0  0  0  0  0  0  0  0  0
  -26.4114  -33.5091   20.7857 C   0  0  0  0  0  0  0  0  0  0  0  0
  -24.7454  -27.5300   21.0918 C   0  0  0  0  0  0  0  0  0  0  0  0
  -29.5194  -20.9664   19.6431 C   0  0  0  0  0  0  0  0  0  0  0  0
  -22.5296   -8.1897   21.4370 C   0  0  0  0  0  0  0  0  0  0  0  0
  -26.6758  -26.2367   20.3771 C   0  0  0  0  0  0  0  0  0  0  0  0
  -21.4671   -6.3190   22.3823 C   0  0  0  0  0  0  0  0  0  0  0  0
  -28.7613  -18.2819   19.6079 C   0  0  0  0  0  0  0  0  0  0  0  0
  -21.2356   -4.5115   24.4947 C   0  0  0  0  0  0  0  0  0  0  0  0
  -21.6562   -4.9554   22.1574 C   0  0  0  0  0  0  0  0  0  0  0  0
  -28.0650  -19.2134   18.8378 C   0  0  0  0  0  0  0  0  0  0  0  0
  -30.2157  -20.0349   20.4132 C   0  0  0  0  0  0  0  0  0  0  0  0
  -29.8367  -18.6926   20.3956 C   0  0  0  0  0  0  0  0  0  0  0  0
  -25.4745  -11.2104   21.7548 C   0  0  0  0  0  0  0  0  0  0  0  0
  -26.7840  -12.8239   22.4737 C   0  0  0  0  0  0  0  0  0  0  0  0
  -25.1374  -12.0184   24.1732 C   0  0  0  0  0  0  0  0  0  0  0  0
  -24.1172  -30.8023   21.8168 C   0  0  0  0  0  0  0  0  0  0  0  0
  -21.4925  -29.0072   22.4575 C   0  0  0  0  0  0  0  0  0  0  0  0
  -20.0559  -25.9137   22.5731 C   0  0  0  0  0  0  0  0  0  0  0  0
  -29.0125  -16.1766   18.6011 C   0  0  0  0  0  0  0  0  0  0  0  0
  -25.1593  -35.7224   20.9425 C   0  0  0  0  0  0  0  0  0  0  0  0
  -23.8995  -29.4548   19.6972 C   0  0  0  0  0  0  0  0  0  0  0  0
  -23.6561  -27.7577   22.1067 C   0  0  0  0  0  0  0  0  0  0  0  0
  -24.0687  -34.9522   21.6825 C   0  0  0  0  0  0  0  0  0  0  0  0
  -29.7073  -12.6529   18.3587 C   0  0  0  0  0  0  0  0  0  0  0  0
  -24.6863  -33.9066   22.6056 C   0  0  0  0  0  0  0  0  0  0  0  0
  -28.6644  -12.0283   19.2852 C   0  0  0  0  0  0  0  0  0  0  0  0
  -29.1589  -13.8882   17.6516 C   0  0  0  0  0  0  0  0  0  0  0  0
  -27.5743  -14.3048   19.5138 C   0  0  0  0  0  0  0  0  0  0  0  0
  -25.4938  -32.8750   21.8085 C   0  0  1  0  0  0  0  0  0  0  0  0
  -23.2148  -29.9545   20.9657 C   0  0  1  0  0  0  0  0  0  0  0  0
  -28.1021  -13.0717   20.2672 C   0  0  1  0  0  0  0  0  0  0  0  0
  -17.9100  -24.7595   23.1733 C   0  0  0  0  0  0  0  0  0  0  0  0
  -29.9025  -25.0246   22.3457 C   0  0  0  0  0  0  0  0  0  0  0  0
  -22.1550  -29.3208   25.4194 C   0  0  0  0  0  0  0  0  0  0  0  0
  -20.5974  -27.4199   25.8976 C   0  0  0  0  0  0  0  0  0  0  0  0
  -19.7236  -29.5172   24.8677 C   0  0  0  0  0  0  0  0  0  0  0  0
  -19.6982  -24.8946   19.8177 C   0  0  0  0  0  0  0  0  0  0  0  0
  -29.8872  -22.4209   19.6295 C   0  0  0  0  0  0  0  0  0  0  0  0
  -28.8701  -25.3740   20.0661 C   0  0  0  0  0  0  0  0  0  1  0  0
  -21.1422  -27.9519   23.4787 C   0  0  1  0  0  0  0  0  0  0  0  0
  -18.7218  -25.4028   22.0598 C   0  0  2  0  0  0  0  0  0  0  0  0
  -29.8699  -24.5748   20.8941 C   0  0  2  0  0  0  0  0  0  0  0  0
  -20.9264  -28.5491   24.8979 C   0  0  0  0  0  0  0  0  0  0  0  0
  -26.2633  -11.4899   20.7139 N   0  0  0  0  0  0  0  0  0  0  0  0
  -27.0485  -12.4750   21.1820 N   0  0  0  0  0  0  0  0  0  0  0  0
  -22.7295  -28.8635   21.8132 N   0  0  0  0  0  0  0  0  0  0  0  0
  -28.6003  -14.8401   18.6108 N   0  0  0  0  0  0  0  0  0  0  0  0
  -27.4803  -13.7962   23.0999 N   0  0  0  0  0  0  0  0  0  0  0  0
  -24.0930  -11.1173   24.4212 N   0  0  0  0  0  0  0  0  0  0  0  0
  -24.6090  -31.9219   21.1733 N   0  0  0  0  0  0  0  0  0  0  0  0
  -19.9854  -27.2387   22.9482 N   0  0  0  0  0  0  0  0  0  0  0  0
  -18.9330  -24.3903   20.9869 N   0  3  0  0  0  0  0  0  0  0  0  0
  -29.4704  -23.1380   20.8613 N   0  3  0  0  0  0  0  0  0  0  0  0
  -25.4910  -12.8123   25.0777 O   0  0  0  0  0  0  0  0  0  0  0  0
  -24.3489  -30.4665   22.9724 O   0  0  0  0  0  0  0  0  0  0  0  0
  -20.6947  -29.9212   22.2344 O   0  0  0  0  0  0  0  0  0  0  0  0
  -21.0593  -25.2069   22.6386 O   0  0  0  0  0  0  0  0  0  0  0  0
  -29.8421  -16.6392   17.8191 O   0  0  0  0  0  0  0  0  0  0  0  0
  -21.5825   -7.2175   21.3350 O   0  0  0  0  0  0  0  0  0  0  0  0
  -28.3755  -16.9378   19.5851 O   0  0  0  0  0  0  0  0  0  0  0  0
  -27.5512  -25.2164   20.5877 O   0  0  0  0  0  0  0  0  0  1  0  0
  -21.1258   -3.6440   25.5093 F   0  0  0  0  0  0  0  0  0  0  0  0
  -21.9504   -4.5078   20.9290 F   0  0  0  0  0  0  0  0  0  0  0  0
  -26.7300  -18.7380   17.8530 Cl  0  0  0  0  0  0  0  0  0  0  0  0
  -31.5483  -20.5774   21.3844 Cl  0  0  0  0  0  0  0  0  0  0  0  0
  -30.6792  -17.5057   21.3408 Cl  0  0  0  0  0  0  0  0  0  0  0  0
  1  2  1  0  0  0  0
  1  5  2  0  0  0  0
  2  6  2  0  0  0  0
  3  8  2  0  0  0  0
  3 16  1  0  0  0  0
  4  9  1  0  0  0  0
  4 16  2  0  0  0  0
  5 18  1  0  0  0  0
  6 20  1  0  0  0  0
  7 10  2  0  0  0  0
  7 19  1  0  0  0  0
  8 23  1  0  0  0  0
  9 23  2  0  0  0  0
 10 24  1  0  0  0  0
 11 12  2  0  0  0  0
 11 25  1  0  0  0  0
 12 27  1  0  0  0  0
 13 21  1  0  0  0  0
 13 24  2  0  0  0  0
 14 22  1  0  0  0  0
 14 29  2  0  0  0  0
 15 27  2  0  0  0  0
 15 28  1  0  0  0  0
 16 32  1  0  0  0  0
 17 32  1  0  0  0  0
 17 33  2  0  0  0  0
 17 34  1  0  0  0  0
 18 20  2  0  0  0  0
 18 39  1  0  0  0  0
 19 21  2  0  0  0  0
 19 40  1  0  0  0  0
 20 48  1  0  0  0  0
 21 41  1  0  0  0  0
 22 30  2  0  0  0  0
 22 57  1  0  0  0  0
 23 78  1  0  0  0  0
 24 80  1  0  0  0  0
 25 28  2  0  0  0  0
 25 78  1  0  0  0  0
 26 29  1  0  0  0  0
 26 31  2  0  0  0  0
 26 79  1  0  0  0  0
 27 81  1  0  0  0  0
 28 82  1  0  0  0  0
 29 83  1  0  0  0  0
 30 31  1  0  0  0  0
 30 84  1  0  0  0  0
 31 85  1  0  0  0  0
 32 63  2  0  0  0  0
 33 64  1  0  0  0  0
 33 67  1  0  0  0  0
 34 68  1  0  0  0  0
 34 73  2  0  0  0  0
 35 49  1  0  0  0  0
 35 69  1  0  0  0  0
 35 74  2  0  0  0  0
 36 59  1  0  0  0  0
 36 65  1  0  0  0  0
 36 75  2  0  0  0  0
 37 60  1  0  0  0  0
 37 70  1  0  0  0  0
 37 76  2  0  0  0  0
 38 66  1  0  0  0  0
 38 77  2  0  0  0  0
 38 79  1  0  0  0  0
 39 42  1  0  0  0  0
 40 49  1  0  0  0  0
 41 65  1  0  0  0  0
 42 44  1  0  0  0  0
 43 45  1  0  0  0  0
 43 46  1  0  0  0  0
 44 48  1  0  0  0  0
 45 50  1  0  0  0  0
 46 66  1  0  0  0  0
 47 50  1  0  0  0  0
 47 66  1  0  0  0  0
 48 69  1  0  0  0  0
 49 65  1  0  0  0  0
 50 64  1  0  0  0  0
 51 60  1  0  0  0  0
 52 61  1  0  0  0  0
 53 62  1  0  0  0  0
 54 62  1  0  0  0  0
 55 62  1  0  0  0  0
 56 71  1  0  0  0  0
 57 72  1  0  0  0  0
 58 61  1  0  0  0  0
 58 80  1  0  0  0  0
 59 62  1  0  0  0  0
 59 70  1  0  0  0  0
 60 71  1  0  0  0  0
 61 72  1  0  0  0  0
 63 64  1  0  0  0  0
M  CHG  2  71   1  72   1
M  ISO  4  38 100  58 101  79 100  80 101
M  END
> <Batch ID>
0027

> <Smiles>
CNC(C)C(=O)NC(C(=O)N1Cc2cc([101O:1][101CH2:1]C(C)NCc3cc(Cl)c([100O:0][100C:0](=O)N4CCCC(n5nc(-c6ccc(Oc7ccc(F)cc7F)cc6)c(C(N)=O)c5N)C4)c(Cl)c3Cl)ccc2CC1C(=O)NC1CCCc2ccccc21)C(C)(C)C

> <Shape>
0.329

> <Color>
0.085

> <Negative vol penalty>
0.000

$$$$

  -OEChem-04052316303D

 87 95  0     1  0  0  0  0  0999 V2000
  -28.6547  -24.1036   16.8022 C   0  0  0  0  0  0  0  0  0  0  0  0
  -27.4679  -24.2224   17.5183 C   0  0  0  0  0  0  0  0  0  0  0  0
  -24.3695   -9.3393   21.2270 C   0  0  0  0  0  0  0  0  0  0  0  0
  -22.3969  -10.7318   21.1457 C   0  0  0  0  0  0  0  0  0  0  0  0
  -29.8110  -24.7321   17.2623 C   0  0  0  0  0  0  0  0  0  0  0  0
  -27.4370  -24.9690   18.6956 C   0  0  0  0  0  0  0  0  0  0  0  0
  -23.3917  -28.0033   18.9666 C   0  0  0  0  0  0  0  0  0  0  0  0
  -23.5647   -8.2058   21.3408 C   0  0  0  0  0  0  0  0  0  0  0  0
  -21.5920   -9.5983   21.2596 C   0  0  0  0  0  0  0  0  0  0  0  0
  -22.1769  -27.4151   19.3162 C   0  0  0  0  0  0  0  0  0  0  0  0
  -21.8072   -6.6323   23.7616 C   0  0  0  0  0  0  0  0  0  0  0  0
  -22.1637   -5.6784   24.7147 C   0  0  0  0  0  0  0  0  0  0  0  0
  -22.4557  -28.1996   21.5803 C   0  0  0  0  0  0  0  0  0  0  0  0
  -23.9766  -20.1512   22.2151 C   0  0  0  0  0  0  0  0  0  0  0  0
  -22.3929   -4.0218   22.9711 C   0  0  0  0  0  0  0  0  0  0  0  0
  -23.7856  -10.6024   21.1294 C   0  0  0  0  0  0  0  0  0  0  0  0
  -25.0850  -12.3685   19.8255 C   0  0  0  0  0  0  0  0  0  0  0  0
  -29.7921  -25.4947   18.4408 C   0  0  0  0  0  0  0  0  0  0  0  0
  -24.1541  -28.6858   19.9254 C   0  0  0  0  0  0  0  0  0  0  0  0
  -28.5945  -25.6072   19.1727 C   0  0  0  0  0  0  0  0  0  0  0  0
  -23.6785  -28.7976   21.2397 C   0  0  0  0  0  0  0  0  0  0  0  0
  -25.2739  -20.6601   22.2733 C   0  0  0  0  0  0  0  0  0  0  0  0
  -24.4039  -22.7954   22.9950 C   0  0  0  0  0  0  0  0  0  0  0  0
  -23.1065  -22.2864   22.9368 C   0  0  0  0  0  0  0  0  0  0  0  0
  -22.1759   -8.3353   21.3571 C   0  0  0  0  0  0  0  0  0  0  0  0
  -21.7101  -27.5107   20.6239 C   0  0  0  0  0  0  0  0  0  0  0  0
  -21.7435   -6.2810   22.4132 C   0  0  0  0  0  0  0  0  0  0  0  0
  -22.4566   -4.3731   24.3195 C   0  0  0  0  0  0  0  0  0  0  0  0
  -22.0364   -4.9758   22.0179 C   0  0  0  0  0  0  0  0  0  0  0  0
  -22.8928  -20.9644   22.5468 C   0  0  0  0  0  0  0  0  0  0  0  0
  -25.4876  -21.9822   22.6633 C   0  0  0  0  0  0  0  0  0  0  0  0
  -24.6165  -11.7737   21.0124 C   0  0  0  0  0  0  0  0  0  0  0  0
  -25.8259  -13.4443   20.2499 C   0  0  0  0  0  0  0  0  0  0  0  0
  -24.8696  -11.9830   18.4615 C   0  0  0  0  0  0  0  0  0  0  0  0
  -27.0518  -28.3027   21.1745 C   0  0  0  0  0  0  0  0  0  0  0  0
  -26.3797  -31.1313   22.6131 C   0  0  0  0  0  0  0  0  0  0  0  0
  -24.0149  -33.3284   23.7211 C   0  0  0  0  0  0  0  0  0  0  0  0
  -26.4961  -17.8939   23.5509 C   0  0  0  0  0  0  0  0  0  0  0  0
  -31.0784  -26.1166   18.9238 C   0  0  0  0  0  0  0  0  0  0  0  0
  -25.4495  -29.3375   19.5259 C   0  0  0  0  0  0  0  0  0  0  0  0
  -24.4494  -29.5368   22.3017 C   0  0  0  0  0  0  0  0  0  0  0  0
  -30.8725  -27.1985   19.9808 C   0  0  0  0  0  0  0  0  0  0  0  0
  -27.4240  -14.7222   24.8758 C   0  0  0  0  0  0  0  0  0  0  0  0
  -29.8924  -26.7224   21.0482 C   0  0  0  0  0  0  0  0  0  0  0  0
  -26.8098  -13.7221   23.8947 C   0  0  0  0  0  0  0  0  0  0  0  0
  -26.5262  -15.9413   25.0750 C   0  0  0  0  0  0  0  0  0  0  0  0
  -25.5137  -15.6267   22.8502 C   0  0  0  0  0  0  0  0  0  0  0  0
  -28.5152  -26.4288   20.4411 C   0  0  1  0  0  0  0  0  0  0  0  0
  -26.3909  -29.5675   20.7042 C   0  0  1  0  0  0  0  0  0  0  0  0
  -26.4086  -14.4064   22.5741 C   0  0  2  0  0  0  0  0  0  0  0  0
  -24.6157  -24.2173   23.4162 C   0  0  0  0  0  0  0  0  0  0  0  0
  -26.7579  -19.8156   20.4169 C   0  0  0  0  0  0  0  0  0  0  0  0
  -23.7703  -35.5358   24.8893 C   0  0  0  0  0  0  0  0  0  0  0  0
  -27.0527  -29.7956   25.2726 C   0  0  0  0  0  0  0  0  0  0  0  0
  -25.9020  -31.6906   26.4359 C   0  0  0  0  0  0  0  0  0  0  0  0
  -27.9152  -32.1305   25.0301 C   0  0  0  0  0  0  0  0  0  0  0  0
  -22.6329  -34.5355   21.3990 C   0  0  0  0  0  0  0  0  0  0  0  0
  -21.9487  -23.1711   23.2944 C   0  0  0  0  0  0  0  0  0  0  0  0
  -19.2808  -24.8951   21.1563 C   0  0  0  0  0  0  0  0  0  0  0  0
  -19.9912  -24.4585   22.4287 C   0  0  0  0  0  0  0  0  0  0  0  0
  -20.1350  -25.7694   20.2464 C   0  0  0  0  0  0  0  0  0  1  0  0
  -26.4046  -19.7522   21.9084 C   0  0  2  0  0  0  0  0  0  0  0  0
  -25.7261  -31.5422   23.9104 C   0  0  1  0  0  0  0  0  0  0  0  0
  -23.8744  -34.8298   23.5464 C   0  0  2  0  0  0  0  0  0  0  0  0
  -26.6352  -31.2741   25.1429 C   0  0  0  0  0  0  0  0  0  0  0  0
  -25.0256  -12.4181   22.1084 N   0  0  0  0  0  0  0  0  0  0  0  0
  -25.7591  -13.4289   21.6120 N   0  0  0  0  0  0  0  0  0  0  0  0
  -25.7133  -30.1516   21.8634 N   0  0  0  0  0  0  0  0  0  0  0  0
  -26.1836  -16.5446   23.7848 N   0  0  0  0  0  0  0  0  0  0  0  0
  -26.5217  -14.3924   19.5870 N   0  0  0  0  0  0  0  0  0  0  0  0
  -24.0829  -10.8522   18.2030 N   0  0  0  0  0  0  0  0  0  0  0  0
  -27.7951  -27.6612   20.2021 N   0  0  0  0  0  0  0  0  0  0  0  0
  -25.3374  -32.9388   23.7472 N   0  0  0  0  0  0  0  0  0  0  0  0
  -26.1429  -18.3851   22.3000 N   0  0  0  0  0  0  0  0  0  0  0  0
  -22.6534  -35.1469   22.7529 N   0  3  0  0  0  0  0  0  0  0  0  0
  -21.1795  -23.6341   22.1064 N   0  3  0  0  0  0  0  0  0  0  0  0
  -25.3737  -12.6128   17.5009 O   0  0  0  0  0  0  0  0  0  0  0  0
  -26.9000  -27.9367   22.3341 O   0  0  0  0  0  0  0  0  0  0  0  0
  -27.4387  -31.6651   22.2738 O   0  0  0  0  0  0  0  0  0  0  0  0
  -23.0484  -32.5768   23.8277 O   0  0  0  0  0  0  0  0  0  0  0  0
  -27.0537  -18.6066   24.3924 O   0  0  0  0  0  0  0  0  0  0  0  0
  -21.3902   -7.2294   21.4680 O   0  0  0  0  0  0  0  0  0  0  0  0
  -20.5251  -26.9371   20.9680 O   0  0  0  0  0  0  0  0  0  1  0  0
  -22.8004   -3.4576   25.2348 F   0  0  0  0  0  0  0  0  0  0  0  0
  -21.9781   -4.6326   20.7238 F   0  0  0  0  0  0  0  0  0  0  0  0
  -21.3029  -20.2965   22.4595 Cl  0  0  0  0  0  0  0  0  0  0  0  0
  -27.1009  -22.6100   22.7353 Cl  0  0  0  0  0  0  0  0  0  0  0  0
  1  2  1  0  0  0  0
  1  5  2  0  0  0  0
  2  6  2  0  0  0  0
  3  8  2  0  0  0  0
  3 16  1  0  0  0  0
  4  9  1  0  0  0  0
  4 16  2  0  0  0  0
  5 18  1  0  0  0  0
  6 20  1  0  0  0  0
  7 10  2  0  0  0  0
  7 19  1  0  0  0  0
  8 25  1  0  0  0  0
  9 25  2  0  0  0  0
 10 26  1  0  0  0  0
 11 12  2  0  0  0  0
 11 27  1  0  0  0  0
 12 28  1  0  0  0  0
 13 21  1  0  0  0  0
 13 26  2  0  0  0  0
 14 22  1  0  0  0  0
 14 30  2  0  0  0  0
 15 28  2  0  0  0  0
 15 29  1  0  0  0  0
 16 32  1  0  0  0  0
 17 32  1  0  0  0  0
 17 33  2  0  0  0  0
 17 34  1  0  0  0  0
 18 20  2  0  0  0  0
 18 39  1  0  0  0  0
 19 21  2  0  0  0  0
 19 40  1  0  0  0  0
 20 48  1  0  0  0  0
 21 41  1  0  0  0  0
 22 31  2  0  0  0  0
 22 62  1  0  0  0  0
 23 24  2  0  0  0  0
 23 31  1  0  0  0  0
 23 51  1  0  0  0  0
 24 30  1  0  0  0  0
 24 58  1  0  0  0  0
 25 82  1  0  0  0  0
 26 83  1  0  0  0  0
 27 29  2  0  0  0  0
 27 82  1  0  0  0  0
 28 84  1  0  0  0  0
 29 85  1  0  0  0  0
 30 86  1  0  0  0  0
 31 87  1  0  0  0  0
 32 66  2  0  0  0  0
 33 67  1  0  0  0  0
 33 70  1  0  0  0  0
 34 71  1  0  0  0  0
 34 77  2  0  0  0  0
 35 49  1  0  0  0  0
 35 72  1  0  0  0  0
 35 78  2  0  0  0  0
 36 63  1  0  0  0  0
 36 68  1  0  0  0  0
 36 79  2  0  0  0  0
 37 64  1  0  0  0  0
 37 73  1  0  0  0  0
 37 80  2  0  0  0  0
 38 69  1  0  0  0  0
 38 74  1  0  0  0  0
 38 81  2  0  0  0  0
 39 42  1  0  0  0  0
 40 49  1  0  0  0  0
 41 68  1  0  0  0  0
 42 44  1  0  0  0  0
 43 45  1  0  0  0  0
 43 46  1  0  0  0  0
 44 48  1  0  0  0  0
 45 50  1  0  0  0  0
 46 69  1  0  0  0  0
 47 50  1  0  0  0  0
 47 69  1  0  0  0  0
 48 72  1  0  0  0  0
 49 68  1  0  0  0  0
 50 67  1  0  0  0  0
 52 62  1  0  0  0  0
 53 64  1  0  0  0  0
 54 65  1  0  0  0  0
 55 65  1  0  0  0  0
 56 65  1  0  0  0  0
 57 75  1  0  0  0  0
 58 76  1  0  0  0  0
 59 60  1  0  0  0  0
 59 61  1  0  0  0  0
 60 76  1  0  0  0  0
 61 83  1  0  0  0  0
 62 74  1  0  0  0  0
 63 65  1  0  0  0  0
 63 73  1  0  0  0  0
 64 75  1  0  0  0  0
 66 67  1  0  0  0  0
M  CHG  2  75   1  76   1
M  ISO  4  38 100  61 101  74 100  83 101
M  END
> <Batch ID>
0027

> <Smiles>
CNC(C)C(=O)NC(C(=O)N1Cc2cc([101O:1][101CH2:1]CCNCc3c(Cl)cc(C(C)[100NH:0][100C:0](=O)N4CCCC(n5nc(-c6ccc(Oc7ccc(F)cc7F)cc6)c(C(N)=O)c5N)C4)c(Cl)c3C)ccc2CC1C(=O)NC1CCCc2ccccc21)C(C)(C)C

> <Shape>
0.286

> <Color>
0.120

> <Negative vol penalty>
0.000

$$$$

  -OEChem-04052316303D

 85 93  0     1  0  0  0  0  0999 V2000
  -26.1453  -36.2554   23.2196 C   0  0  0  0  0  0  0  0  0  0  0  0
  -26.8747  -35.5545   22.2645 C   0  0  0  0  0  0  0  0  0  0  0  0
  -23.9076   -9.8297   22.0871 C   0  0  0  0  0  0  0  0  0  0  0  0
  -22.3520  -10.2340   20.2833 C   0  0  0  0  0  0  0  0  0  0  0  0
  -25.7405  -35.6182   24.3918 C   0  0  0  0  0  0  0  0  0  0  0  0
  -27.2007  -34.2162   22.4816 C   0  0  0  0  0  0  0  0  0  0  0  0
  -28.1984  -28.0683   18.9427 C   0  0  0  0  0  0  0  0  0  0  0  0
  -23.4925   -8.4995   22.1471 C   0  0  0  0  0  0  0  0  0  0  0  0
  -21.9369   -8.9036   20.3432 C   0  0  0  0  0  0  0  0  0  0  0  0
  -29.1356  -27.0455   18.8035 C   0  0  0  0  0  0  0  0  0  0  0  0
  -20.8839   -6.7591   23.4084 C   0  0  0  0  0  0  0  0  0  0  0  0
  -20.6370   -6.2142   24.6684 C   0  0  0  0  0  0  0  0  0  0  0  0
  -28.3149  -26.0259   20.8299 C   0  0  0  0  0  0  0  0  0  0  0  0
  -26.2313  -18.6816   19.0790 C   0  0  0  0  0  0  0  0  0  0  0  0
  -24.5951  -19.7522   21.0688 C   0  0  0  0  0  0  0  0  0  0  0  0
  -22.3372   -4.5425   24.2787 C   0  0  0  0  0  0  0  0  0  0  0  0
  -23.3373  -10.6970   21.1553 C   0  0  0  0  0  0  0  0  0  0  0  0
  -24.8091  -12.6024   20.3119 C   0  0  0  0  0  0  0  0  0  0  0  0
  -26.0534  -34.2687   24.6190 C   0  0  0  0  0  0  0  0  0  0  0  0
  -27.3182  -28.0834   20.0343 C   0  0  0  0  0  0  0  0  0  0  0  0
  -26.8009  -33.5608   23.6585 C   0  0  0  0  0  0  0  0  0  0  0  0
  -27.3658  -27.0486   20.9792 C   0  0  0  0  0  0  0  0  0  0  0  0
  -26.7915  -19.4268   20.1164 C   0  0  0  0  0  0  0  0  0  0  0  0
  -24.0348  -19.0070   20.0313 C   0  0  0  0  0  0  0  0  0  0  0  0
  -22.5072   -8.0364   21.2751 C   0  0  0  0  0  0  0  0  0  0  0  0
  -29.1959  -26.0257   19.7487 C   0  0  0  0  0  0  0  0  0  0  0  0
  -21.8575   -6.1957   22.5835 C   0  0  0  0  0  0  0  0  0  0  0  0
  -21.3636   -5.1059   25.1036 C   0  0  0  0  0  0  0  0  0  0  0  0
  -22.5841   -5.0874   23.0186 C   0  0  0  0  0  0  0  0  0  0  0  0
  -25.9734  -19.9621   21.1113 C   0  0  0  0  0  0  0  0  0  0  0  0
  -24.8529  -18.4717   19.0363 C   0  0  0  0  0  0  0  0  0  0  0  0
  -23.7653  -12.0715   21.0933 C   0  0  0  0  0  0  0  0  0  0  0  0
  -24.8122  -13.9434   20.6086 C   0  0  0  0  0  0  0  0  0  0  0  0
  -25.6964  -11.9423   19.3994 C   0  0  0  0  0  0  0  0  0  0  0  0
  -26.7912  -30.0643   22.4636 C   0  0  0  0  0  0  0  0  0  0  0  0
  -21.9969  -18.7087   21.4188 C   0  0  0  0  0  0  0  0  0  0  0  0
  -24.3173  -28.0526   23.0594 C   0  0  0  0  0  0  0  0  0  0  0  0
  -22.9663  -24.9384   22.7083 C   0  0  0  0  0  0  0  0  0  0  0  0
  -25.6349  -33.6360   25.9225 C   0  0  0  0  0  0  0  0  0  0  0  0
  -26.2952  -29.1794   20.1557 C   0  0  0  0  0  0  0  0  0  0  0  0
  -26.4296  -27.0078   22.1584 C   0  0  0  0  0  0  0  0  0  0  0  0
  -25.6987  -32.1109   25.9074 C   0  0  0  0  0  0  0  0  0  0  0  0
  -22.4229  -16.5285   24.2304 C   0  0  0  0  0  0  0  0  0  0  0  0
  -27.0164  -31.6376   25.3020 C   0  0  0  0  0  0  0  0  0  0  0  0
  -22.8665  -15.2099   23.5982 C   0  0  0  0  0  0  0  0  0  0  0  0
  -21.4244  -17.2651   23.3430 C   0  0  0  0  0  0  0  0  0  0  0  0
  -22.3570  -16.1924   21.3178 C   0  0  0  0  0  0  0  0  0  0  0  0
  -27.1526  -32.1009   23.8465 C   0  0  1  0  0  0  0  0  0  0  0  0
  -25.7910  -29.3707   21.5827 C   0  0  1  0  0  0  0  0  0  0  0  0
  -23.3896  -15.4310   22.1678 C   0  0  2  0  0  0  0  0  0  0  0  0
  -21.8007  -19.8979   19.2521 C   0  0  0  0  0  0  0  0  0  0  0  0
  -20.9491  -23.5840   23.3360 C   0  0  0  0  0  0  0  0  0  0  0  0
  -25.3923  -27.7731   25.9012 C   0  0  0  0  0  0  0  0  0  0  0  0
  -23.9528  -25.7426   26.1715 C   0  0  0  0  0  0  0  0  0  0  0  0
  -22.9039  -27.9646   25.7413 C   0  0  0  0  0  0  0  0  0  0  0  0
  -22.2347  -24.5003   19.8743 C   0  0  0  0  0  0  0  0  0  0  0  0
  -28.2781  -19.6289   20.1257 C   0  0  0  0  0  0  0  0  0  0  0  0
  -30.4588  -22.6717   19.3212 C   0  0  0  0  0  0  0  0  0  0  0  0
  -30.1418  -21.2540   19.7727 C   0  0  0  0  0  0  0  0  0  0  0  0
  -29.7554  -23.7475   20.1396 C   0  0  0  0  0  0  0  0  0  1  0  0
  -22.5537  -18.8051   20.0207 C   0  0  1  0  0  0  0  0  0  0  0  0
  -24.1356  -26.7923   23.8703 C   0  0  1  0  0  0  0  0  0  0  0  0
  -21.5814  -24.4831   22.2850 C   0  0  2  0  0  0  0  0  0  0  0  0
  -24.1152  -27.0697   25.4000 C   0  0  0  0  0  0  0  0  0  0  0  0
  -23.1501  -12.9995   21.8310 N   0  0  0  0  0  0  0  0  0  0  0  0
  -23.8094  -14.1270   21.5146 N   0  0  0  0  0  0  0  0  0  0  0  0
  -25.4513  -28.1052   22.2366 N   0  0  0  0  0  0  0  0  0  0  0  0
  -21.9493  -17.4356   21.9870 N   0  0  0  0  0  0  0  0  0  0  0  0
  -25.5749  -14.9717   20.1803 N   0  0  0  0  0  0  0  0  0  0  0  0
  -25.5556  -10.5605   19.2122 N   0  0  0  0  0  0  0  0  0  0  0  0
  -26.3503  -31.2702   22.9745 N   0  0  0  0  0  0  0  0  0  0  0  0
  -22.9272  -26.1512   23.3631 N   0  0  0  0  0  0  0  0  0  0  0  0
  -21.6540  -23.7276   21.0024 N   0  3  0  0  0  0  0  0  0  0  0  0
  -28.6830  -21.0014   19.7135 N   0  3  0  0  0  0  0  0  0  0  0  0
  -26.5984  -12.5569   18.7811 O   0  0  0  0  0  0  0  0  0  0  0  0
  -27.8818  -29.5433   22.6662 O   0  0  0  0  0  0  0  0  0  0  0  0
  -21.6189  -19.7358   21.9884 O   0  0  0  0  0  0  0  0  0  0  0  0
  -23.4799  -28.9542   23.1472 O   0  0  0  0  0  0  0  0  0  0  0  0
  -23.9808  -24.2819   22.4841 O   0  0  0  0  0  0  0  0  0  0  0  0
  -22.1020   -6.7383   21.3331 O   0  0  0  0  0  0  0  0  0  0  0  0
  -30.1102  -25.0265   19.6156 O   0  0  0  0  0  0  0  0  0  1  0  0
  -21.1274   -4.5837   26.3143 F   0  0  0  0  0  0  0  0  0  0  0  0
  -23.5215   -4.5425   22.2311 F   0  0  0  0  0  0  0  0  0  0  0  0
  -26.6318  -20.8880   22.4107 Cl  0  0  0  0  0  0  0  0  0  0  0  0
  -24.1950  -17.5446   17.7375 Cl  0  0  0  0  0  0  0  0  0  0  0  0
  1  2  1  0  0  0  0
  1  5  2  0  0  0  0
  2  6  2  0  0  0  0
  3  8  2  0  0  0  0
  3 17  1  0  0  0  0
  4  9  1  0  0  0  0
  4 17  2  0  0  0  0
  5 19  1  0  0  0  0
  6 21  1  0  0  0  0
  7 10  2  0  0  0  0
  7 20  1  0  0  0  0
  8 25  1  0  0  0  0
  9 25  2  0  0  0  0
 10 26  1  0  0  0  0
 11 12  2  0  0  0  0
 11 27  1  0  0  0  0
 12 28  1  0  0  0  0
 13 22  1  0  0  0  0
 13 26  2  0  0  0  0
 14 23  1  0  0  0  0
 14 31  2  0  0  0  0
 15 24  2  0  0  0  0
 15 30  1  0  0  0  0
 16 28  2  0  0  0  0
 16 29  1  0  0  0  0
 17 32  1  0  0  0  0
 18 32  1  0  0  0  0
 18 33  2  0  0  0  0
 18 34  1  0  0  0  0
 19 21  2  0  0  0  0
 19 39  1  0  0  0  0
 20 22  2  0  0  0  0
 20 40  1  0  0  0  0
 21 48  1  0  0  0  0
 22 41  1  0  0  0  0
 23 30  2  0  0  0  0
 23 57  1  0  0  0  0
 24 31  1  0  0  0  0
 24 61  1  0  0  0  0
 25 80  1  0  0  0  0
 26 81  1  0  0  0  0
 27 29  2  0  0  0  0
 27 80  1  0  0  0  0
 28 82  1  0  0  0  0
 29 83  1  0  0  0  0
 30 84  1  0  0  0  0
 31 85  1  0  0  0  0
 32 65  2  0  0  0  0
 33 66  1  0  0  0  0
 33 69  1  0  0  0  0
 34 70  1  0  0  0  0
 34 75  2  0  0  0  0
 35 49  1  0  0  0  0
 35 71  1  0  0  0  0
 35 76  2  0  0  0  0
 36 61  1  0  0  0  0
 36 68  1  0  0  0  0
 36 77  2  0  0  0  0
 37 62  1  0  0  0  0
 37 67  1  0  0  0  0
 37 78  2  0  0  0  0
 38 63  1  0  0  0  0
 38 72  1  0  0  0  0
 38 79  2  0  0  0  0
 39 42  1  0  0  0  0
 40 49  1  0  0  0  0
 41 67  1  0  0  0  0
 42 44  1  0  0  0  0
 43 45  1  0  0  0  0
 43 46  1  0  0  0  0
 44 48  1  0  0  0  0
 45 50  1  0  0  0  0
 46 68  1  0  0  0  0
 47 50  1  0  0  0  0
 47 68  1  0  0  0  0
 48 71  1  0  0  0  0
 49 67  1  0  0  0  0
 50 66  1  0  0  0  0
 51 61  1  0  0  0  0
 52 63  1  0  0  0  0
 53 64  1  0  0  0  0
 54 64  1  0  0  0  0
 55 64  1  0  0  0  0
 56 73  1  0  0  0  0
 57 74  1  0  0  0  0
 58 59  1  0  0  0  0
 58 60  1  0  0  0  0
 59 74  1  0  0  0  0
 60 81  1  0  0  0  0
 62 64  1  0  0  0  0
 62 72  1  0  0  0  0
 63 73  1  0  0  0  0
 65 66  1  0  0  0  0
M  CHG  2  73   1  74   1
M  ISO  4  36 100  60 101  61 100  81 101
M  END
> <Batch ID>
0027

> <Smiles>
CNC(C)C(=O)NC(C(=O)N1Cc2cc([101O:1][101CH2:1]CCNCc3cc(Cl)c([100CH:0](C)[100C:0](=O)N4CCCC(n5nc(-c6ccc(Oc7ccc(F)cc7F)cc6)c(C(N)=O)c5N)C4)cc3Cl)ccc2CC1C(=O)NC1CCCc2ccccc21)C(C)(C)C

> <Shape>
0.274

> <Color>
0.125

> <Negative vol penalty>
0.000

$$$$

  -OEChem-04052316303D

 82 90  0     1  0  0  0  0  0999 V2000
  -26.4518  -25.8301   24.3271 C   0  0  0  0  0  0  0  0  0  0  0  0
  -25.1721  -25.4978   23.8943 C   0  0  0  0  0  0  0  0  0  0  0  0
  -25.7329  -28.4713   21.5710 C   0  0  0  0  0  0  0  0  0  0  0  0
  -25.0836  -27.9821   19.2959 C   0  0  0  0  0  0  0  0  0  0  0  0
  -27.5589  -25.1652   23.8015 C   0  0  0  0  0  0  0  0  0  0  0  0
  -24.9988  -24.5010   22.9347 C   0  0  0  0  0  0  0  0  0  0  0  0
  -20.3628  -20.5168   22.5610 C   0  0  0  0  0  0  0  0  0  0  0  0
  -26.9782  -27.8864   21.3414 C   0  0  0  0  0  0  0  0  0  0  0  0
  -26.3289  -27.3973   19.0662 C   0  0  0  0  0  0  0  0  0  0  0  0
  -19.2008  -20.4993   21.7907 C   0  0  0  0  0  0  0  0  0  0  0  0
  -29.4687  -26.0977   17.7735 C   0  0  0  0  0  0  0  0  0  0  0  0
  -30.1288  -26.4203   16.5879 C   0  0  0  0  0  0  0  0  0  0  0  0
  -20.3026  -19.0908   20.1717 C   0  0  0  0  0  0  0  0  0  0  0  0
  -17.9944  -22.5792   17.7151 C   0  0  0  0  0  0  0  0  0  0  0  0
  -15.6795  -23.6759   18.8200 C   0  0  0  0  0  0  0  0  0  0  0  0
  -30.1438  -28.7494   17.2300 C   0  0  0  0  0  0  0  0  0  0  0  0
  -24.7856  -28.5191   20.5483 C   0  0  0  0  0  0  0  0  0  0  0  0
  -23.1449  -30.4720   20.5957 C   0  0  0  0  0  0  0  0  0  0  0  0
  -27.3984  -24.1531   22.8421 C   0  0  0  0  0  0  0  0  0  0  0  0
  -21.5087  -19.8292   22.1363 C   0  0  0  0  0  0  0  0  0  0  0  0
  -26.1048  -23.8228   22.3948 C   0  0  0  0  0  0  0  0  0  0  0  0
  -21.4770  -19.0990   20.9397 C   0  0  0  0  0  0  0  0  0  0  0  0
  -16.9052  -21.7587   18.0082 C   0  0  0  0  0  0  0  0  0  0  0  0
  -16.7688  -24.4964   18.5270 C   0  0  0  0  0  0  0  0  0  0  0  0
  -27.2762  -27.3495   20.0890 C   0  0  0  0  0  0  0  0  0  0  0  0
  -19.1715  -19.7886   20.5944 C   0  0  0  0  0  0  0  0  0  0  0  0
  -29.1460  -27.1009   18.6874 C   0  0  0  0  0  0  0  0  0  0  0  0
  -30.4663  -27.7461   16.3161 C   0  0  0  0  0  0  0  0  0  0  0  0
  -29.4836  -28.4267   18.4157 C   0  0  0  0  0  0  0  0  0  0  0  0
  -15.7477  -22.3070   18.5607 C   0  0  0  0  0  0  0  0  0  0  0  0
  -17.9262  -23.9481   17.9745 C   0  0  0  0  0  0  0  0  0  0  0  0
  -23.4988  -29.1227   20.7850 C   0  0  0  0  0  0  0  0  0  0  0  0
  -21.8218  -30.5342   20.9591 C   0  0  0  0  0  0  0  0  0  0  0  0
  -23.9410  -31.5709   20.1327 C   0  0  0  0  0  0  0  0  0  0  0  0
  -24.4722  -20.6747   21.3572 C   0  0  0  0  0  0  0  0  0  0  0  0
  -24.9270  -17.4672   21.1907 C   0  0  0  0  0  0  0  0  0  0  0  0
  -23.5680  -14.3670   20.7564 C   0  0  0  0  0  0  0  0  0  0  0  0
  -17.4419  -26.4549   21.1215 C   0  0  0  0  0  0  0  0  0  0  0  0
  -28.6282  -23.4951   22.2684 C   0  0  0  0  0  0  0  0  0  0  0  0
  -22.7458  -19.8360   22.9919 C   0  0  0  0  0  0  0  0  0  0  0  0
  -22.6741  -18.3275   20.4494 C   0  0  0  0  0  0  0  0  0  0  0  0
  -28.3335  -22.1919   21.5301 C   0  0  0  0  0  0  0  0  0  0  0  0
  -18.6256  -28.4344   23.8340 C   0  0  0  0  0  0  0  0  0  0  0  0
  -27.1431  -22.3670   20.5925 C   0  0  0  0  0  0  0  0  0  0  0  0
  -19.9768  -28.9570   23.3431 C   0  0  0  0  0  0  0  0  0  0  0  0
  -18.3633  -27.0088   23.3532 C   0  0  0  0  0  0  0  0  0  0  0  0
  -19.8373  -27.3367   21.4055 C   0  0  0  0  0  0  0  0  0  0  0  0
  -25.8744  -22.7300   21.3737 C   0  0  1  0  0  0  0  0  0  0  0  0
  -24.0164  -19.5229   22.2077 C   0  0  1  0  0  0  0  0  0  0  0  0
  -20.1218  -28.7910   21.8184 C   0  0  2  0  0  0  0  0  0  0  0  0
  -24.1960  -11.9405   20.6337 C   0  0  0  0  0  0  0  0  0  0  0  0
  -26.0161  -17.8941   18.3726 C   0  0  0  0  0  0  0  0  0  0  0  0
  -25.7292  -15.4405   17.9652 C   0  0  0  0  0  0  0  0  0  0  0  0
  -27.2893  -16.2339   19.7427 C   0  0  0  0  0  0  0  0  0  0  0  0
  -21.8897  -13.6947   23.0995 C   0  0  0  0  0  0  0  0  0  0  0  0
  -17.0196  -20.2831   17.7119 C   0  0  0  0  0  0  0  0  0  0  0  0
  -16.6568  -25.9580   18.8202 C   0  0  0  0  0  0  0  0  0  0  0  0
  -18.2005  -19.6376   18.4287 C   0  0  0  0  0  0  0  0  0  1  0  0
  -24.7948  -16.4235   20.1081 C   0  0  1  0  0  0  0  0  0  0  0  0
  -23.7363  -13.0753   21.5358 C   0  0  2  0  0  0  0  0  0  0  0  0
  -25.9352  -16.5140   19.0551 C   0  0  0  0  0  0  0  0  0  0  0  0
  -22.4826  -28.3812   21.2340 N   0  0  0  0  0  0  0  0  0  0  0  0
  -21.4772  -29.2678   21.3298 N   0  0  0  0  0  0  0  0  0  0  0  0
  -23.8619  -18.3701   21.3182 N   0  0  0  0  0  0  0  0  0  0  0  0
  -18.5154  -26.9198   21.8990 N   0  0  0  0  0  0  0  0  0  0  0  0
  -20.9313  -31.5482   20.9945 N   0  0  0  0  0  0  0  0  0  0  0  0
  -25.2819  -31.3320   19.8022 N   0  0  0  0  0  0  0  0  0  0  0  0
  -25.3170  -21.5542   22.0070 N   0  0  0  0  0  0  0  0  0  0  0  0
  -24.7118  -15.1364   20.7899 N   0  0  0  0  0  0  0  0  0  0  0  0
  -17.6676  -26.4078   19.7513 N   0  0  0  0  0  0  0  0  0  0  0  0
  -22.4460  -12.6799   22.1680 N   0  3  0  0  0  0  0  0  0  0  0  0
  -23.4815  -32.7337   20.0312 O   0  0  0  0  0  0  0  0  0  0  0  0
  -24.0872  -20.7584   20.1969 O   0  0  0  0  0  0  0  0  0  0  0  0
  -25.9349  -17.4765   21.9019 O   0  0  0  0  0  0  0  0  0  0  0  0
  -22.5274  -14.6622   20.1729 O   0  0  0  0  0  0  0  0  0  0  0  0
  -16.3604  -26.1127   21.6117 O   0  0  0  0  0  0  0  0  0  0  0  0
  -28.4914  -26.7789   19.8645 O   0  0  0  0  0  0  0  0  0  0  0  0
  -18.0389  -19.7704   19.8403 O   0  0  0  0  0  0  0  0  0  1  0  0
  -31.1016  -28.0556   15.1782 F   0  0  0  0  0  0  0  0  0  0  0  0
  -29.1774  -29.3947   19.2904 F   0  0  0  0  0  0  0  0  0  0  0  0
  -14.3802  -21.3227   18.9349 Cl  0  0  0  0  0  0  0  0  0  0  0  0
  -19.2936  -24.9324   17.5989 Cl  0  0  0  0  0  0  0  0  0  0  0  0
  1  2  1  0  0  0  0
  1  5  2  0  0  0  0
  2  6  2  0  0  0  0
  3  8  2  0  0  0  0
  3 17  1  0  0  0  0
  4  9  1  0  0  0  0
  4 17  2  0  0  0  0
  5 19  1  0  0  0  0
  6 21  1  0  0  0  0
  7 10  2  0  0  0  0
  7 20  1  0  0  0  0
  8 25  1  0  0  0  0
  9 25  2  0  0  0  0
 10 26  1  0  0  0  0
 11 12  2  0  0  0  0
 11 27  1  0  0  0  0
 12 28  1  0  0  0  0
 13 22  1  0  0  0  0
 13 26  2  0  0  0  0
 14 23  1  0  0  0  0
 14 31  2  0  0  0  0
 15 24  2  0  0  0  0
 15 30  1  0  0  0  0
 16 28  2  0  0  0  0
 16 29  1  0  0  0  0
 17 32  1  0  0  0  0
 18 32  1  0  0  0  0
 18 33  2  0  0  0  0
 18 34  1  0  0  0  0
 19 21  2  0  0  0  0
 19 39  1  0  0  0  0
 20 22  2  0  0  0  0
 20 40  1  0  0  0  0
 21 48  1  0  0  0  0
 22 41  1  0  0  0  0
 23 30  2  0  0  0  0
 23 56  1  0  0  0  0
 24 31  1  0  0  0  0
 24 57  1  0  0  0  0
 25 77  1  0  0  0  0
 26 78  1  0  0  0  0
 27 29  2  0  0  0  0
 27 77  1  0  0  0  0
 28 79  1  0  0  0  0
 29 80  1  0  0  0  0
 30 81  1  0  0  0  0
 31 82  1  0  0  0  0
 32 62  2  0  0  0  0
 33 63  1  0  0  0  0
 33 66  1  0  0  0  0
 34 67  1  0  0  0  0
 34 72  2  0  0  0  0
 35 49  1  0  0  0  0
 35 68  1  0  0  0  0
 35 73  2  0  0  0  0
 36 59  1  0  0  0  0
 36 64  1  0  0  0  0
 36 74  2  0  0  0  0
 37 60  1  0  0  0  0
 37 69  1  0  0  0  0
 37 75  2  0  0  0  0
 38 65  1  0  0  0  0
 38 70  1  0  0  0  0
 38 76  2  0  0  0  0
 39 42  1  0  0  0  0
 40 49  1  0  0  0  0
 41 64  1  0  0  0  0
 42 44  1  0  0  0  0
 43 45  1  0  0  0  0
 43 46  1  0  0  0  0
 44 48  1  0  0  0  0
 45 50  1  0  0  0  0
 46 65  1  0  0  0  0
 47 50  1  0  0  0  0
 47 65  1  0  0  0  0
 48 68  1  0  0  0  0
 49 64  1  0  0  0  0
 50 63  1  0  0  0  0
 51 60  1  0  0  0  0
 52 61  1  0  0  0  0
 53 61  1  0  0  0  0
 54 61  1  0  0  0  0
 55 71  1  0  0  0  0
 56 58  1  0  0  0  0
 57 70  1  0  0  0  0
 58 78  1  0  0  0  0
 59 61  1  0  0  0  0
 59 69  1  0  0  0  0
 60 71  1  0  0  0  0
 62 63  1  0  0  0  0
M  CHG  1  71   1
M  ISO  4  38 100  58 101  70 100  78 101
M  END
> <Batch ID>
0027

> <Smiles>
CNC(C)C(=O)NC(C(=O)N1Cc2cc([101O:1][101CH2:1]Cc3cc(Cl)c(C[100NH:0][100C:0](=O)N4CCCC(n5nc(-c6ccc(Oc7ccc(F)cc7F)cc6)c(C(N)=O)c5N)C4)cc3Cl)ccc2CC1C(=O)NC1CCCc2ccccc21)C(C)(C)C

> <Shape>
0.162

> <Color>
0.100

> <Negative vol penalty>
0.000

$$$$

  -OEChem-04052316303D

 90 98  0     1  0  0  0  0  0999 V2000
  -31.3831  -22.7351   22.6545 C   0  0  0  0  0  0  0  0  0  0  0  0
  -30.2563  -23.2004   21.9844 C   0  0  0  0  0  0  0  0  0  0  0  0
  -23.0332   -9.9079   19.8850 C   0  0  0  0  0  0  0  0  0  0  0  0
  -24.0696   -9.5394   22.0361 C   0  0  0  0  0  0  0  0  0  0  0  0
  -31.5250  -22.9674   24.0219 C   0  0  0  0  0  0  0  0  0  0  0  0
  -29.2701  -23.8974   22.6816 C   0  0  0  0  0  0  0  0  0  0  0  0
  -27.6926  -28.0256   20.2088 C   0  0  0  0  0  0  0  0  0  0  0  0
  -22.3433   -8.7022   20.0108 C   0  0  0  0  0  0  0  0  0  0  0  0
  -23.3796   -8.3337   22.1619 C   0  0  0  0  0  0  0  0  0  0  0  0
  -26.8014  -27.8342   19.1539 C   0  0  0  0  0  0  0  0  0  0  0  0
  -20.2627   -7.3241   22.9901 C   0  0  0  0  0  0  0  0  0  0  0  0
  -19.6564   -7.0511   24.2162 C   0  0  0  0  0  0  0  0  0  0  0  0
  -24.9697  -28.4509   20.5974 C   0  0  0  0  0  0  0  0  0  0  0  0
  -23.8616  -24.5737   19.7665 C   0  0  0  0  0  0  0  0  0  0  0  0
  -21.0081   -5.0613   24.4415 C   0  0  0  0  0  0  0  0  0  0  0  0
  -23.8965  -10.3265   20.8976 C   0  0  0  0  0  0  0  0  0  0  0  0
  -24.1828  -12.8442   21.1920 C   0  0  0  0  0  0  0  0  0  0  0  0
  -30.5447  -23.6760   24.7343 C   0  0  0  0  0  0  0  0  0  0  0  0
  -27.2270  -28.4212   21.4710 C   0  0  0  0  0  0  0  0  0  0  0  0
  -29.3984  -24.1382   24.0601 C   0  0  0  0  0  0  0  0  0  0  0  0
  -25.8573  -28.6491   21.6660 C   0  0  0  0  0  0  0  0  0  0  0  0
  -23.3644  -24.4380   18.4704 C   0  0  0  0  0  0  0  0  0  0  0  0
  -24.4453  -23.4809   20.4075 C   0  0  0  0  0  0  0  0  0  0  0  0
  -23.4509  -23.2097   17.8152 C   0  0  0  0  0  0  0  0  0  0  0  0
  -24.0345  -22.1169   18.4562 C   0  0  0  0  0  0  0  0  0  0  0  0
  -22.5165   -7.9151   21.1493 C   0  0  0  0  0  0  0  0  0  0  0  0
  -25.4394  -28.0441   19.3488 C   0  0  0  0  0  0  0  0  0  0  0  0
  -21.2416   -6.4657   22.4896 C   0  0  0  0  0  0  0  0  0  0  0  0
  -24.5318  -22.2525   19.7524 C   0  0  0  0  0  0  0  0  0  0  0  0
  -20.0291   -5.9197   24.9420 C   0  0  0  0  0  0  0  0  0  0  0  0
  -21.6144   -5.3344   23.2153 C   0  0  0  0  0  0  0  0  0  0  0  0
  -24.6099  -11.5716   20.7680 C   0  0  0  0  0  0  0  0  0  0  0  0
  -25.2104  -13.6856   20.8419 C   0  0  0  0  0  0  0  0  0  0  0  0
  -22.9659  -13.2312   21.8440 C   0  0  0  0  0  0  0  0  0  0  0  0
  -27.2665  -27.1393   24.3794 C   0  0  0  0  0  0  0  0  0  0  0  0
  -26.0213  -30.0092   25.2369 C   0  0  0  0  0  0  0  0  0  0  0  0
  -24.2932  -32.8068   24.3239 C   0  0  0  0  0  0  0  0  0  0  0  0
  -30.6596  -14.8566   20.5585 C   0  0  0  0  0  0  0  0  0  0  0  0
  -30.7195  -23.8615   26.2208 C   0  0  0  0  0  0  0  0  0  0  0  0
  -28.2042  -28.6492   22.5915 C   0  0  0  0  0  0  0  0  0  0  0  0
  -25.3089  -29.0940   22.9963 C   0  0  0  0  0  0  0  0  0  0  0  0
  -29.8079  -24.9337   26.8122 C   0  0  0  0  0  0  0  0  0  0  0  0
  -29.2728  -12.8888   17.9353 C   0  0  0  0  0  0  0  0  0  0  0  0
  -28.3810  -24.7627   26.3008 C   0  0  0  0  0  0  0  0  0  0  0  0
  -27.9043  -12.4709   18.4759 C   0  0  0  0  0  0  0  0  0  0  0  0
  -30.3274  -12.9286   19.0391 C   0  0  0  0  0  0  0  0  0  0  0  0
  -28.6001  -13.3340   20.7496 C   0  0  0  0  0  0  0  0  0  0  0  0
  -28.3187  -24.9198   24.7767 C   0  0  1  0  0  0  0  0  0  0  0  0
  -27.5626  -28.5550   23.9724 C   0  0  1  0  0  0  0  0  0  0  0  0
  -27.4911  -13.3335   19.6836 C   0  0  2  0  0  0  0  0  0  0  0  0
  -24.9721  -23.6460   21.7949 C   0  0  0  0  0  0  0  0  0  0  0  0
  -22.9180  -23.0663   16.4248 C   0  0  0  0  0  0  0  0  0  0  0  0
  -24.1309  -20.7973   17.7589 C   0  0  0  0  0  0  0  0  0  0  0  0
  -23.3972  -34.9593   25.2521 C   0  0  0  0  0  0  0  0  0  0  0  0
  -23.7493  -28.4804   26.5826 C   0  0  0  0  0  0  0  0  0  0  0  0
  -22.4428  -30.6152   26.6448 C   0  0  0  0  0  0  0  0  0  0  0  0
  -24.6017  -30.4396   27.8823 C   0  0  0  0  0  0  0  0  0  0  0  0
  -25.9499  -34.4256   22.4818 C   0  0  0  0  0  0  0  0  0  0  0  0
  -22.7383  -25.6349   17.8002 C   0  0  0  0  0  0  0  0  0  0  0  0
  -23.6384  -26.2959   16.7540 C   0  0  0  0  0  0  0  0  0  0  0  0
  -28.9157  -18.2815   21.5875 C   0  0  0  0  0  0  0  0  0  0  0  0
  -28.4788  -19.5445   20.8427 C   0  0  0  0  0  0  0  0  0  0  0  0
  -30.4167  -18.0357   21.4336 C   0  0  0  0  0  0  0  0  0  0  0  0
  -26.9700  -19.7723   20.9735 C   0  0  0  0  0  0  0  0  0  0  0  0
  -30.8448  -16.7571   22.1438 C   0  0  0  0  0  0  0  0  0  0  0  0
  -24.9176  -26.8809   17.3411 C   0  0  0  0  0  0  0  0  0  1  0  0
  -26.5054  -21.0077   20.2117 C   0  0  0  0  0  0  0  0  0  0  0  0
  -24.6276  -30.5767   25.3579 C   0  0  1  0  0  0  0  0  0  0  0  0
  -24.5679  -34.2815   24.5573 C   0  0  2  0  0  0  0  0  0  0  0  0
  -23.8652  -30.0177   26.5922 C   0  0  0  0  0  0  0  0  0  0  0  0
  -25.8149  -11.5974   20.1924 N   0  0  0  0  0  0  0  0  0  0  0  0
  -26.1537  -12.8965   20.2522 N   0  0  0  0  0  0  0  0  0  0  0  0
  -26.3036  -29.2974   24.0624 N   0  0  0  0  0  0  0  0  0  0  0  0
  -29.8747  -13.7643   20.1537 N   0  0  0  0  0  0  0  0  0  0  0  0
  -25.3901  -15.0159   20.9841 N   0  0  0  0  0  0  0  0  0  0  0  0
  -22.0171  -12.2403   22.1306 N   0  0  0  0  0  0  0  0  0  0  0  0
  -28.3778  -26.3186   24.4100 N   0  0  0  0  0  0  0  0  0  0  0  0
  -24.7761  -32.0280   25.3542 N   0  0  0  0  0  0  0  0  0  0  0  0
  -30.1548  -15.6002   21.6182 N   0  0  0  0  0  0  0  0  0  0  0  0
  -24.8103  -34.9748   23.2606 N   0  3  0  0  0  0  0  0  0  0  0  0
  -22.7200  -14.4230   22.1483 O   0  0  0  0  0  0  0  0  0  0  0  0
  -26.1153  -26.8159   24.6474 O   0  0  0  0  0  0  0  0  0  0  0  0
  -26.8318  -30.1968   26.1477 O   0  0  0  0  0  0  0  0  0  0  0  0
  -23.7054  -32.3881   23.3291 O   0  0  0  0  0  0  0  0  0  0  0  0
  -31.7283  -15.1508   20.0123 O   0  0  0  0  0  0  0  0  0  0  0  0
  -21.8432   -6.7386   21.2725 O   0  0  0  0  0  0  0  0  0  0  0  0
  -24.5673  -27.8573   18.3210 O   0  0  0  0  0  0  0  0  0  1  0  0
  -25.1012  -21.1844   20.3814 O   0  0  0  0  0  0  0  0  0  0  0  0
  -19.4479   -5.6585   26.1202 F   0  0  0  0  0  0  0  0  0  0  0  0
  -22.5551   -4.5067   22.7402 F   0  0  0  0  0  0  0  0  0  0  0  0
  1  2  1  0  0  0  0
  1  5  2  0  0  0  0
  2  6  2  0  0  0  0
  3  8  2  0  0  0  0
  3 16  1  0  0  0  0
  4  9  1  0  0  0  0
  4 16  2  0  0  0  0
  5 18  1  0  0  0  0
  6 20  1  0  0  0  0
  7 10  2  0  0  0  0
  7 19  1  0  0  0  0
  8 26  1  0  0  0  0
  9 26  2  0  0  0  0
 10 27  1  0  0  0  0
 11 12  2  0  0  0  0
 11 28  1  0  0  0  0
 12 30  1  0  0  0  0
 13 21  1  0  0  0  0
 13 27  2  0  0  0  0
 14 22  1  0  0  0  0
 14 23  2  0  0  0  0
 15 30  2  0  0  0  0
 15 31  1  0  0  0  0
 16 32  1  0  0  0  0
 17 32  1  0  0  0  0
 17 33  2  0  0  0  0
 17 34  1  0  0  0  0
 18 20  2  0  0  0  0
 18 39  1  0  0  0  0
 19 21  2  0  0  0  0
 19 40  1  0  0  0  0
 20 48  1  0  0  0  0
 21 41  1  0  0  0  0
 22 24  2  0  0  0  0
 22 59  1  0  0  0  0
 23 29  1  0  0  0  0
 23 51  1  0  0  0  0
 24 25  1  0  0  0  0
 24 52  1  0  0  0  0
 25 29  2  0  0  0  0
 25 53  1  0  0  0  0
 26 86  1  0  0  0  0
 27 87  1  0  0  0  0
 28 31  2  0  0  0  0
 28 86  1  0  0  0  0
 29 88  1  0  0  0  0
 30 89  1  0  0  0  0
 31 90  1  0  0  0  0
 32 71  2  0  0  0  0
 33 72  1  0  0  0  0
 33 75  1  0  0  0  0
 34 76  1  0  0  0  0
 34 81  2  0  0  0  0
 35 49  1  0  0  0  0
 35 77  1  0  0  0  0
 35 82  2  0  0  0  0
 36 68  1  0  0  0  0
 36 73  1  0  0  0  0
 36 83  2  0  0  0  0
 37 69  1  0  0  0  0
 37 78  1  0  0  0  0
 37 84  2  0  0  0  0
 38 74  1  0  0  0  0
 38 79  1  0  0  0  0
 38 85  2  0  0  0  0
 39 42  1  0  0  0  0
 40 49  1  0  0  0  0
 41 73  1  0  0  0  0
 42 44  1  0  0  0  0
 43 45  1  0  0  0  0
 43 46  1  0  0  0  0
 44 48  1  0  0  0  0
 45 50  1  0  0  0  0
 46 74  1  0  0  0  0
 47 50  1  0  0  0  0
 47 74  1  0  0  0  0
 48 77  1  0  0  0  0
 49 73  1  0  0  0  0
 50 72  1  0  0  0  0
 54 69  1  0  0  0  0
 55 70  1  0  0  0  0
 56 70  1  0  0  0  0
 57 70  1  0  0  0  0
 58 80  1  0  0  0  0
 59 60  1  0  0  0  0
 60 66  1  0  0  0  0
 61 62  1  0  0  0  0
 61 63  1  0  0  0  0
 62 64  1  0  0  0  0
 63 65  1  0  0  0  0
 64 67  1  0  0  0  0
 65 79  1  0  0  0  0
 66 87  1  0  0  0  0
 67 88  1  0  0  0  0
 68 70  1  0  0  0  0
 68 78  1  0  0  0  0
 69 80  1  0  0  0  0
 71 72  1  0  0  0  0
M  CHG  1  80   1
M  ISO  4  38 100  66 101  79 100  87 101
M  END
> <Batch ID>
0027

> <Smiles>
CNC(C)C(=O)NC(C(=O)N1Cc2cc([101O:1][101CH2:1]CCc3cc(C)c(OCCCCCC[100NH:0][100C:0](=O)N4CCCC(n5nc(-c6ccc(Oc7ccc(F)cc7F)cc6)c(C(N)=O)c5N)C4)c(C)c3C)ccc2CC1C(=O)NC1CCCc2ccccc21)C(C)(C)C

> <Shape>
0.296

> <Color>
0.200

> <Negative vol penalty>
0.000

$$$$

  -OEChem-04052316303D

 86 95  0     1  0  0  0  0  0999 V2000
  -28.6236  -23.1561   27.1837 C   0  0  0  0  0  0  0  0  0  0  0  0
  -27.4685  -23.0777   26.4122 C   0  0  0  0  0  0  0  0  0  0  0  0
  -28.7143  -27.4057   18.5970 C   0  0  0  0  0  0  0  0  0  0  0  0
  -28.2767  -26.2036   20.6465 C   0  0  0  0  0  0  0  0  0  0  0  0
  -29.7364  -22.3849   26.8510 C   0  0  0  0  0  0  0  0  0  0  0  0
  -27.4261  -22.2287   25.3068 C   0  0  0  0  0  0  0  0  0  0  0  0
  -23.1283  -19.5607   25.0704 C   0  0  0  0  0  0  0  0  0  0  0  0
  -30.0110  -26.8925   18.5728 C   0  0  0  0  0  0  0  0  0  0  0  0
  -29.5735  -25.6902   20.6223 C   0  0  0  0  0  0  0  0  0  0  0  0
  -21.9945  -20.2204   24.5982 C   0  0  0  0  0  0  0  0  0  0  0  0
  -32.6518  -23.7769   20.9076 C   0  0  0  0  0  0  0  0  0  0  0  0
  -32.8173  -22.4182   21.1760 C   0  0  0  0  0  0  0  0  0  0  0  0
  -19.0663  -27.4009   22.4850 C   0  0  0  0  0  0  0  0  0  0  0  0
  -22.3111  -19.2028   22.4341 C   0  0  0  0  0  0  0  0  0  0  0  0
  -16.4594  -28.0558   23.3723 C   0  0  0  0  0  0  0  0  0  0  0  0
  -31.4167  -21.8739   19.2841 C   0  0  0  0  0  0  0  0  0  0  0  0
  -18.7452  -30.8515   23.6473 C   0  0  0  0  0  0  0  0  0  0  0  0
  -18.7913  -28.6978   22.9624 C   0  0  0  0  0  0  0  0  0  0  0  0
  -27.8471  -27.0613   19.6339 C   0  0  0  0  0  0  0  0  0  0  0  0
  -25.3570  -27.0234   19.0811 C   0  0  0  0  0  0  0  0  0  0  0  0
  -29.7042  -21.5188   25.7467 C   0  0  0  0  0  0  0  0  0  0  0  0
  -23.8696  -18.7242   24.2235 C   0  0  0  0  0  0  0  0  0  0  0  0
  -28.5400  -21.4462   24.9583 C   0  0  0  0  0  0  0  0  0  0  0  0
  -23.4525  -18.5316   22.8987 C   0  0  0  0  0  0  0  0  0  0  0  0
  -18.0384  -26.4514   22.4573 C   0  0  0  0  0  0  0  0  0  0  0  0
  -17.4968  -28.9947   23.3942 C   0  0  0  0  0  0  0  0  0  0  0  0
  -19.5679  -29.8787   23.1281 C   0  0  0  0  0  0  0  0  0  0  0  0
  -30.4406  -26.0347   19.5854 C   0  0  0  0  0  0  0  0  0  0  0  0
  -21.5874  -20.0438   23.2791 C   0  0  0  0  0  0  0  0  0  0  0  0
  -31.8686  -24.1842   19.8275 C   0  0  0  0  0  0  0  0  0  0  0  0
  -32.1998  -21.4667   20.3643 C   0  0  0  0  0  0  0  0  0  0  0  0
  -16.7558  -26.7760   22.8946 C   0  0  0  0  0  0  0  0  0  0  0  0
  -31.2511  -23.2326   19.0158 C   0  0  0  0  0  0  0  0  0  0  0  0
  -26.5076  -27.5917   19.6598 C   0  0  0  0  0  0  0  0  0  0  0  0
  -24.3488  -27.9055   19.3843 C   0  0  0  0  0  0  0  0  0  0  0  0
  -25.2124  -25.8070   18.3361 C   0  0  0  0  0  0  0  0  0  0  0  0
  -26.8500  -18.7235   23.1187 C   0  0  0  0  0  0  0  0  0  0  0  0
  -25.9844  -15.8436   21.9024 C   0  0  0  0  0  0  0  0  0  0  0  0
  -23.4797  -13.7742   20.8581 C   0  0  0  0  0  0  0  0  0  0  0  0
  -21.6960  -31.2195   22.9874 C   0  0  0  0  0  0  0  0  0  0  0  0
  -30.9480  -20.7401   25.3983 C   0  0  0  0  0  0  0  0  0  0  0  0
  -25.0749  -17.9988   24.7557 C   0  0  0  0  0  0  0  0  0  0  0  0
  -24.2019  -17.6284   21.9547 C   0  0  0  0  0  0  0  0  0  0  0  0
  -30.6935  -19.5859   24.4323 C   0  0  0  0  0  0  0  0  0  0  0  0
  -24.5325  -32.5793   21.3193 C   0  0  0  0  0  0  0  0  0  0  0  0
  -29.8185  -20.0454   23.2704 C   0  0  0  0  0  0  0  0  0  0  0  0
  -25.2046  -31.3562   20.6913 C   0  0  0  0  0  0  0  0  0  0  0  0
  -23.9338  -32.2574   22.6874 C   0  0  0  0  0  0  0  0  0  0  0  0
  -23.6976  -29.8807   22.0838 C   0  0  0  0  0  0  0  0  0  0  0  0
  -28.4467  -20.5185   23.7662 C   0  0  1  0  0  0  0  0  0  0  0  0
  -26.0484  -17.5740   23.6606 C   0  0  1  0  0  0  0  0  0  0  0  0
  -24.2588  -30.1392   20.6760 C   0  0  2  0  0  0  0  0  0  0  0  0
  -23.0847  -11.4971   19.8802 C   0  0  0  0  0  0  0  0  0  0  0  0
  -26.9154  -16.8547   19.1782 C   0  0  0  0  0  0  0  0  0  0  0  0
  -25.6492  -14.9698   18.1236 C   0  0  0  0  0  0  0  0  0  0  0  0
  -27.5376  -14.4850   19.6798 C   0  0  0  0  0  0  0  0  0  0  0  0
  -16.3562  -31.0271   24.3283 C   0  0  0  0  0  0  0  0  0  0  0  0
  -21.8732  -12.9226   23.1932 C   0  0  0  0  0  0  0  0  0  0  0  0
  -18.3278  -25.0626   21.9460 C   0  0  0  0  0  0  0  0  0  0  0  0
  -19.0935  -24.1836   22.9411 C   0  0  0  0  0  0  0  0  0  0  0  0
  -19.4448  -22.8064   22.3763 C   0  0  0  0  0  0  0  0  0  0  0  0
  -20.1687  -21.9484   23.4050 C   0  0  0  0  0  0  0  0  0  1  0  0
  -25.3609  -15.3723   20.6108 C   0  0  1  0  0  0  0  0  0  0  0  0
  -23.1877  -12.3150   21.1581 C   0  0  2  0  0  0  0  0  0  0  0  0
  -26.3526  -15.4391   19.4151 C   0  0  0  0  0  0  0  0  0  0  0  0
  -26.2550  -28.7456   20.2833 N   0  0  0  0  0  0  0  0  0  0  0  0
  -17.4981  -30.3088   23.8045 N   0  0  0  0  0  0  0  0  0  0  0  0
  -24.9341  -28.9096   20.0980 N   0  0  0  0  0  0  0  0  0  0  0  0
  -25.3775  -16.9462   22.5204 N   0  0  0  0  0  0  0  0  0  0  0  0
  -23.0457  -31.0966   22.5948 N   0  0  0  0  0  0  0  0  0  0  0  0
  -23.0276  -27.9126   19.1071 N   0  0  0  0  0  0  0  0  0  0  0  0
  -26.3504  -25.0190   18.1160 N   0  0  0  0  0  0  0  0  0  0  0  0
  -20.9401  -30.0591   22.8242 N   0  0  0  0  0  0  0  0  0  0  0  0
  -27.6011  -19.3845   24.0718 N   0  0  0  0  0  0  0  0  0  0  0  0
  -24.8329  -14.0383   20.8754 N   0  0  0  0  0  0  0  0  0  0  0  0
  -21.9035  -12.1863   21.9033 N   0  3  0  0  0  0  0  0  0  0  0  0
  -24.1099  -25.4381   17.8652 O   0  0  0  0  0  0  0  0  0  0  0  0
  -26.7926  -18.9901   21.9239 O   0  0  0  0  0  0  0  0  0  0  0  0
  -26.9691  -15.2508   22.3502 O   0  0  0  0  0  0  0  0  0  0  0  0
  -22.5959  -14.5966   20.6275 O   0  0  0  0  0  0  0  0  0  0  0  0
  -21.2374  -32.2840   23.4099 O   0  0  0  0  0  0  0  0  0  0  0  0
  -31.7058  -25.5335   19.5619 O   0  0  0  0  0  0  0  0  0  0  0  0
  -20.4814  -20.6870   22.8154 O   0  0  0  0  0  0  0  0  0  1  0  0
  -32.3601  -20.1619   20.6212 F   0  0  0  0  0  0  0  0  0  0  0  0
  -15.7826  -25.8535   22.8604 F   0  0  0  0  0  0  0  0  0  0  0  0
  -30.4985  -23.6177   17.9760 F   0  0  0  0  0  0  0  0  0  0  0  0
  1  2  1  0  0  0  0
  1  5  2  0  0  0  0
  2  6  2  0  0  0  0
  3  8  2  0  0  0  0
  3 19  1  0  0  0  0
  4  9  1  0  0  0  0
  4 19  2  0  0  0  0
  5 21  1  0  0  0  0
  6 23  1  0  0  0  0
  7 10  2  0  0  0  0
  7 22  1  0  0  0  0
  8 28  1  0  0  0  0
  9 28  2  0  0  0  0
 10 29  1  0  0  0  0
 11 12  2  0  0  0  0
 11 30  1  0  0  0  0
 12 31  1  0  0  0  0
 13 18  2  0  0  0  0
 13 25  1  0  0  0  0
 14 24  1  0  0  0  0
 14 29  2  0  0  0  0
 15 26  2  0  0  0  0
 15 32  1  0  0  0  0
 16 31  2  0  0  0  0
 16 33  1  0  0  0  0
 17 27  2  0  0  0  0
 17 67  1  0  0  0  0
 18 26  1  0  0  0  0
 18 27  1  0  0  0  0
 19 34  1  0  0  0  0
 20 34  1  0  0  0  0
 20 35  2  0  0  0  0
 20 36  1  0  0  0  0
 21 23  2  0  0  0  0
 21 41  1  0  0  0  0
 22 24  2  0  0  0  0
 22 42  1  0  0  0  0
 23 50  1  0  0  0  0
 24 43  1  0  0  0  0
 25 32  2  0  0  0  0
 25 59  1  0  0  0  0
 26 67  1  0  0  0  0
 27 73  1  0  0  0  0
 28 82  1  0  0  0  0
 29 83  1  0  0  0  0
 30 33  2  0  0  0  0
 30 82  1  0  0  0  0
 31 84  1  0  0  0  0
 32 85  1  0  0  0  0
 33 86  1  0  0  0  0
 34 66  2  0  0  0  0
 35 68  1  0  0  0  0
 35 71  1  0  0  0  0
 36 72  1  0  0  0  0
 36 77  2  0  0  0  0
 37 51  1  0  0  0  0
 37 74  1  0  0  0  0
 37 78  2  0  0  0  0
 38 63  1  0  0  0  0
 38 69  1  0  0  0  0
 38 79  2  0  0  0  0
 39 64  1  0  0  0  0
 39 75  1  0  0  0  0
 39 80  2  0  0  0  0
 40 70  1  0  0  0  0
 40 73  1  0  0  0  0
 40 81  2  0  0  0  0
 41 44  1  0  0  0  0
 42 51  1  0  0  0  0
 43 69  1  0  0  0  0
 44 46  1  0  0  0  0
 45 47  1  0  0  0  0
 45 48  1  0  0  0  0
 46 50  1  0  0  0  0
 47 52  1  0  0  0  0
 48 70  1  0  0  0  0
 49 52  1  0  0  0  0
 49 70  1  0  0  0  0
 50 74  1  0  0  0  0
 51 69  1  0  0  0  0
 52 68  1  0  0  0  0
 53 64  1  0  0  0  0
 54 65  1  0  0  0  0
 55 65  1  0  0  0  0
 56 65  1  0  0  0  0
 57 67  1  0  0  0  0
 58 76  1  0  0  0  0
 59 60  1  0  0  0  0
 60 61  1  0  0  0  0
 61 62  1  0  0  0  0
 62 83  1  0  0  0  0
 63 65  1  0  0  0  0
 63 75  1  0  0  0  0
 64 76  1  0  0  0  0
 66 68  1  0  0  0  0
M  CHG  1  76   1
M  ISO  4  40 100  62 101  73 100  83 101
M  END
> <Batch ID>
0027

> <Smiles>
CNC(C)C(=O)NC(C(=O)N1Cc2cc([101O:1][101CH2:1]CCCc3cc4c([100NH:0][100C:0](=O)N5CCCC(n6nc(-c7ccc(Oc8ccc(F)cc8F)cc7)c(C(N)=O)c6N)C5)cn(C)c4cc3F)ccc2CC1C(=O)NC1CCCc2ccccc21)C(C)(C)C

> <Shape>
0.225

> <Color>
0.079

> <Negative vol penalty>
0.000

$$$$

  -OEChem-04052316303D

 83 91  0     1  0  0  0  0  0999 V2000
  -21.5545  -12.3549   19.5833 C   0  0  0  0  0  0  0  0  0  0  0  0
  -21.4925  -13.5196   20.3416 C   0  0  0  0  0  0  0  0  0  0  0  0
  -29.1325  -28.2658   18.5380 C   0  0  0  0  0  0  0  0  0  0  0  0
  -29.0313  -26.3109   19.9540 C   0  0  0  0  0  0  0  0  0  0  0  0
  -22.7794  -11.7203   19.3814 C   0  0  0  0  0  0  0  0  0  0  0  0
  -22.6553  -14.0498   20.8994 C   0  0  0  0  0  0  0  0  0  0  0  0
  -23.9886  -19.9744   21.6918 C   0  0  0  0  0  0  0  0  0  0  0  0
  -30.4577  -27.9677   18.2210 C   0  0  0  0  0  0  0  0  0  0  0  0
  -30.3565  -26.0127   19.6370 C   0  0  0  0  0  0  0  0  0  0  0  0
  -23.8973  -20.8164   22.7992 C   0  0  0  0  0  0  0  0  0  0  0  0
  -33.4352  -27.0688   20.5521 C   0  0  0  0  0  0  0  0  0  0  0  0
  -34.2847  -26.7033   21.5962 C   0  0  0  0  0  0  0  0  0  0  0  0
  -26.2248  -20.4143   23.2893 C   0  0  0  0  0  0  0  0  0  0  0  0
  -23.3490  -25.4029   26.7881 C   0  0  0  0  0  0  0  0  0  0  0  0
  -34.6760  -24.5703   20.5311 C   0  0  0  0  0  0  0  0  0  0  0  0
  -28.4192  -27.4374   19.4045 C   0  0  0  0  0  0  0  0  0  0  0  0
  -25.8955  -27.3129   19.0537 C   0  0  0  0  0  0  0  0  0  0  0  0
  -23.9593  -12.2483   19.9289 C   0  0  0  0  0  0  0  0  0  0  0  0
  -25.1979  -19.3363   21.3806 C   0  0  0  0  0  0  0  0  0  0  0  0
  -23.8970  -13.4210   20.7057 C   0  0  0  0  0  0  0  0  0  0  0  0
  -26.3295  -19.5667   22.1759 C   0  0  0  0  0  0  0  0  0  0  0  0
  -23.5948  -24.0303   26.8203 C   0  0  0  0  0  0  0  0  0  0  0  0
  -24.3966  -26.3038   26.9797 C   0  0  0  0  0  0  0  0  0  0  0  0
  -24.8882  -23.5585   27.0442 C   0  0  0  0  0  0  0  0  0  0  0  0
  -25.9359  -24.4593   27.2359 C   0  0  0  0  0  0  0  0  0  0  0  0
  -31.0697  -26.8411   18.7705 C   0  0  0  0  0  0  0  0  0  0  0  0
  -25.0147  -21.0342   23.5998 C   0  0  0  0  0  0  0  0  0  0  0  0
  -33.2059  -26.1851   19.4975 C   0  0  0  0  0  0  0  0  0  0  0  0
  -34.9052  -25.4541   21.5857 C   0  0  0  0  0  0  0  0  0  0  0  0
  -33.8263  -24.9358   19.4870 C   0  0  0  0  0  0  0  0  0  0  0  0
  -25.6900  -25.8320   27.2036 C   0  0  0  0  0  0  0  0  0  0  0  0
  -27.0504  -27.7452   19.7327 C   0  0  0  0  0  0  0  0  0  0  0  0
  -24.8554  -27.8731   19.7542 C   0  0  0  0  0  0  0  0  0  0  0  0
  -25.7739  -26.4793   17.8935 C   0  0  0  0  0  0  0  0  0  0  0  0
  -26.1507  -16.3106   21.1790 C   0  0  0  0  0  0  0  0  0  0  0  0
  -28.8880  -17.6541   20.0725 C   0  0  0  0  0  0  0  0  0  0  0  0
  -30.9240  -20.3896   19.9373 C   0  0  0  0  0  0  0  0  0  0  0  0
  -24.2827  -29.7206   25.4207 C   0  0  0  0  0  0  0  0  0  0  0  0
  -25.2530  -11.5010   19.7229 C   0  0  0  0  0  0  0  0  0  0  0  0
  -25.2869  -18.4521   20.1671 C   0  0  0  0  0  0  0  0  0  0  0  0
  -27.6564  -18.9216   21.8730 C   0  0  0  0  0  0  0  0  0  0  0  0
  -26.4937  -12.3336   20.0356 C   0  0  0  0  0  0  0  0  0  0  0  0
  -23.7831  -31.6589   22.4762 C   0  0  0  0  0  0  0  0  0  0  0  0
  -26.3239  -13.0673   21.3620 C   0  0  0  0  0  0  0  0  0  0  0  0
  -24.4597  -30.8366   21.3779 C   0  0  0  0  0  0  0  0  0  0  0  0
  -24.5455  -31.5725   23.7965 C   0  0  0  0  0  0  0  0  0  0  0  0
  -25.4813  -29.3789   23.1751 C   0  0  0  0  0  0  0  0  0  0  0  0
  -25.1401  -14.0405   21.3065 C   0  0  1  0  0  0  0  0  0  0  0  0
  -26.4346  -17.4497   20.2411 C   0  0  1  0  0  0  0  0  0  0  0  0
  -24.7183  -29.3898   21.8394 C   0  0  2  0  0  0  0  0  0  0  0  0
  -22.4557  -23.0871   26.6124 C   0  0  0  0  0  0  0  0  0  0  0  0
  -27.3176  -23.9332   27.4738 C   0  0  0  0  0  0  0  0  0  0  0  0
  -33.1105  -21.1729   18.9870 C   0  0  0  0  0  0  0  0  0  0  0  0
  -30.3818  -16.0705   22.2104 C   0  0  0  0  0  0  0  0  0  0  0  0
  -32.3498  -17.5758   21.8513 C   0  0  0  0  0  0  0  0  0  0  0  0
  -31.5180  -16.1463   19.9839 C   0  0  0  0  0  0  0  0  0  0  0  0
  -29.6071  -22.5153   18.3543 C   0  0  0  0  0  0  0  0  0  0  0  0
  -25.1491  -22.0721   27.0768 C   0  0  0  0  0  0  0  0  0  0  0  0
  -24.0859  -27.7657   26.9369 C   0  0  0  0  0  0  0  0  0  0  0  0
  -25.7845  -21.5666   25.7861 C   0  0  0  0  0  0  0  0  0  1  0  0
  -30.1638  -18.1561   20.7042 C   0  0  1  0  0  0  0  0  0  0  0  0
  -31.6080  -21.0796   18.7709 C   0  0  2  0  0  0  0  0  0  0  0  0
  -31.0780  -16.9980   21.1945 C   0  0  0  0  0  0  0  0  0  0  0  0
  -26.7707  -28.5204   20.7838 N   0  0  0  0  0  0  0  0  0  0  0  0
  -25.4282  -28.5797   20.7705 N   0  0  0  0  0  0  0  0  0  0  0  0
  -27.6912  -18.0605   20.6793 N   0  0  0  0  0  0  0  0  0  0  0  0
  -24.7565  -30.1741   24.1786 N   0  0  0  0  0  0  0  0  0  0  0  0
  -23.5158  -27.8253   19.5938 N   0  0  0  0  0  0  0  0  0  0  0  0
  -26.9437  -25.9883   17.2979 N   0  0  0  0  0  0  0  0  0  0  0  0
  -25.5063  -15.2413   20.5866 N   0  0  0  0  0  0  0  0  0  0  0  0
  -30.7880  -19.0347   19.7209 N   0  0  0  0  0  0  0  0  0  0  0  0
  -24.5187  -28.3805   25.7018 N   0  0  0  0  0  0  0  0  0  0  0  0
  -31.0715  -22.4591   18.5981 N   0  3  0  0  0  0  0  0  0  0  0  0
  -24.6614  -26.1923   17.3898 O   0  0  0  0  0  0  0  0  0  0  0  0
  -26.4923  -16.3949   22.3528 O   0  0  0  0  0  0  0  0  0  0  0  0
  -28.9507  -16.9339   19.0730 O   0  0  0  0  0  0  0  0  0  0  0  0
  -30.5512  -20.9918   20.9418 O   0  0  0  0  0  0  0  0  0  0  0  0
  -23.6883  -30.4544   26.2178 O   0  0  0  0  0  0  0  0  0  0  0  0
  -32.3628  -26.5498   18.4613 O   0  0  0  0  0  0  0  0  0  0  0  0
  -24.9281  -21.8551   24.6817 O   0  0  0  0  0  0  0  0  0  1  0  0
  -35.7222  -25.1038   22.5877 F   0  0  0  0  0  0  0  0  0  0  0  0
  -33.6109  -24.0831   18.4760 F   0  0  0  0  0  0  0  0  0  0  0  0
  -26.9884  -26.9538   27.4421 Cl  0  0  0  0  0  0  0  0  0  0  0  0
  1  2  1  0  0  0  0
  1  5  2  0  0  0  0
  2  6  2  0  0  0  0
  3  8  2  0  0  0  0
  3 16  1  0  0  0  0
  4  9  1  0  0  0  0
  4 16  2  0  0  0  0
  5 18  1  0  0  0  0
  6 20  1  0  0  0  0
  7 10  2  0  0  0  0
  7 19  1  0  0  0  0
  8 26  1  0  0  0  0
  9 26  2  0  0  0  0
 10 27  1  0  0  0  0
 11 12  2  0  0  0  0
 11 28  1  0  0  0  0
 12 29  1  0  0  0  0
 13 21  1  0  0  0  0
 13 27  2  0  0  0  0
 14 22  2  0  0  0  0
 14 23  1  0  0  0  0
 15 29  2  0  0  0  0
 15 30  1  0  0  0  0
 16 32  1  0  0  0  0
 17 32  1  0  0  0  0
 17 33  2  0  0  0  0
 17 34  1  0  0  0  0
 18 20  2  0  0  0  0
 18 39  1  0  0  0  0
 19 21  2  0  0  0  0
 19 40  1  0  0  0  0
 20 48  1  0  0  0  0
 21 41  1  0  0  0  0
 22 24  1  0  0  0  0
 22 51  1  0  0  0  0
 23 31  2  0  0  0  0
 23 59  1  0  0  0  0
 24 25  2  0  0  0  0
 24 58  1  0  0  0  0
 25 31  1  0  0  0  0
 25 52  1  0  0  0  0
 26 79  1  0  0  0  0
 27 80  1  0  0  0  0
 28 30  2  0  0  0  0
 28 79  1  0  0  0  0
 29 81  1  0  0  0  0
 30 82  1  0  0  0  0
 31 83  1  0  0  0  0
 32 64  2  0  0  0  0
 33 65  1  0  0  0  0
 33 68  1  0  0  0  0
 34 69  1  0  0  0  0
 34 74  2  0  0  0  0
 35 49  1  0  0  0  0
 35 70  1  0  0  0  0
 35 75  2  0  0  0  0
 36 61  1  0  0  0  0
 36 66  1  0  0  0  0
 36 76  2  0  0  0  0
 37 62  1  0  0  0  0
 37 71  1  0  0  0  0
 37 77  2  0  0  0  0
 38 67  1  0  0  0  0
 38 72  1  0  0  0  0
 38 78  2  0  0  0  0
 39 42  1  0  0  0  0
 40 49  1  0  0  0  0
 41 66  1  0  0  0  0
 42 44  1  0  0  0  0
 43 45  1  0  0  0  0
 43 46  1  0  0  0  0
 44 48  1  0  0  0  0
 45 50  1  0  0  0  0
 46 67  1  0  0  0  0
 47 50  1  0  0  0  0
 47 67  1  0  0  0  0
 48 70  1  0  0  0  0
 49 66  1  0  0  0  0
 50 65  1  0  0  0  0
 53 62  1  0  0  0  0
 54 63  1  0  0  0  0
 55 63  1  0  0  0  0
 56 63  1  0  0  0  0
 57 73  1  0  0  0  0
 58 60  1  0  0  0  0
 59 72  1  0  0  0  0
 60 80  1  0  0  0  0
 61 63  1  0  0  0  0
 61 71  1  0  0  0  0
 62 73  1  0  0  0  0
 64 65  1  0  0  0  0
M  CHG  1  73   1
M  ISO  4  38 100  60 101  72 100  80 101
M  END
> <Batch ID>
0027

> <Smiles>
CNC(C)C(=O)NC(C(=O)N1Cc2cc([101O:1][101CH2:1]Cc3c(C)cc(C[100NH:0][100C:0](=O)N4CCCC(n5nc(-c6ccc(Oc7ccc(F)cc7F)cc6)c(C(N)=O)c5N)C4)c(Cl)c3C)ccc2CC1C(=O)NC1CCCc2ccccc21)C(C)(C)C

> <Shape>
0.197

> <Color>
0.059

> <Negative vol penalty>
0.000

$$$$

  -OEChem-04052316303D

 82 90  0     1  0  0  0  0  0999 V2000
  -24.9307  -15.8897   12.7135 C   0  0  0  0  0  0  0  0  0  0  0  0
  -24.6629  -17.1636   13.2043 C   0  0  0  0  0  0  0  0  0  0  0  0
  -29.0229  -25.3710   19.6787 C   0  0  0  0  0  0  0  0  0  0  0  0
  -27.1421  -24.0726   20.4622 C   0  0  0  0  0  0  0  0  0  0  0  0
  -24.4749  -14.7677   13.4043 C   0  0  0  0  0  0  0  0  0  0  0  0
  -23.9381  -17.3163   14.3858 C   0  0  0  0  0  0  0  0  0  0  0  0
  -23.4061  -21.6123   20.0935 C   0  0  0  0  0  0  0  0  0  0  0  0
  -29.8941  -24.3742   20.1179 C   0  0  0  0  0  0  0  0  0  0  0  0
  -28.0133  -23.0757   20.9013 C   0  0  0  0  0  0  0  0  0  0  0  0
  -22.4564  -22.3409   20.8083 C   0  0  0  0  0  0  0  0  0  0  0  0
  -29.7189  -20.0255   21.9038 C   0  0  0  0  0  0  0  0  0  0  0  0
  -29.3897  -18.7015   21.6137 C   0  0  0  0  0  0  0  0  0  0  0  0
  -21.7876  -20.3288   21.9588 C   0  0  0  0  0  0  0  0  0  0  0  0
  -29.4455  -19.2054   19.2514 C   0  0  0  0  0  0  0  0  0  0  0  0
  -18.1310  -27.5369   21.6570 C   0  0  0  0  0  0  0  0  0  0  0  0
  -27.6469  -25.2203   19.8509 C   0  0  0  0  0  0  0  0  0  0  0  0
  -26.1450  -26.3557   18.1297 C   0  0  0  0  0  0  0  0  0  0  0  0
  -23.7525  -14.9065   14.6000 C   0  0  0  0  0  0  0  0  0  0  0  0
  -23.5464  -20.2321   20.2984 C   0  0  0  0  0  0  0  0  0  0  0  0
  -23.4711  -16.1951   15.0926 C   0  0  0  0  0  0  0  0  0  0  0  0
  -22.7416  -19.5855   21.2472 C   0  0  0  0  0  0  0  0  0  0  0  0
  -19.9869  -28.1658   23.0049 C   0  0  0  0  0  0  0  0  0  0  0  0
  -29.3893  -23.2265   20.7291 C   0  0  0  0  0  0  0  0  0  0  0  0
  -21.6450  -21.6987   21.7391 C   0  0  0  0  0  0  0  0  0  0  0  0
  -29.9114  -20.9395   20.8678 C   0  0  0  0  0  0  0  0  0  0  0  0
  -29.2530  -18.2914   20.2875 C   0  0  0  0  0  0  0  0  0  0  0  0
  -29.7747  -20.5294   19.5416 C   0  0  0  0  0  0  0  0  0  0  0  0
  -18.9365  -28.5389   22.1737 C   0  0  0  0  0  0  0  0  0  0  0  0
  -20.1966  -26.8211   23.2900 C   0  0  0  0  0  0  0  0  0  0  0  0
  -26.7465  -26.2500   19.3980 C   0  0  0  0  0  0  0  0  0  0  0  0
  -19.3345  -25.8961   22.7234 C   0  0  0  0  0  0  0  0  0  0  0  0
  -25.3861  -27.4981   18.2037 C   0  0  0  0  0  0  0  0  0  0  0  0
  -26.2617  -25.4978   16.9868 C   0  0  0  0  0  0  0  0  0  0  0  0
  -23.2041  -17.6480   18.4794 C   0  0  0  0  0  0  0  0  0  0  0  0
  -24.3709  -16.1284   21.0970 C   0  0  0  0  0  0  0  0  0  0  0  0
  -24.8431  -16.1285   24.4769 C   0  0  0  0  0  0  0  0  0  0  0  0
  -22.8831  -30.4412   22.7780 C   0  0  0  0  0  0  0  0  0  0  0  0
  -23.2398  -13.6653   15.2865 C   0  0  0  0  0  0  0  0  0  0  0  0
  -24.5939  -19.4653   19.5386 C   0  0  0  0  0  0  0  0  0  0  0  0
  -22.8665  -18.1094   21.5191 C   0  0  0  0  0  0  0  0  0  0  0  0
  -22.8013  -13.9042   16.7291 C   0  0  0  0  0  0  0  0  0  0  0  0
  -25.2073  -31.7381   20.4131 C   0  0  0  0  0  0  0  0  0  0  0  0
  -21.9320  -15.1542   16.8227 C   0  0  0  0  0  0  0  0  0  0  0  0
  -25.8110  -30.4882   19.7703 C   0  0  0  0  0  0  0  0  0  0  0  0
  -24.9279  -31.5293   21.8998 C   0  0  0  0  0  0  0  0  0  0  0  0
  -24.7092  -29.0964   21.5725 C   0  0  0  0  0  0  0  0  0  0  0  0
  -22.7094  -16.4010   16.3839 C   0  0  1  0  0  0  0  0  0  0  0  0
  -24.2986  -17.9708   19.4569 C   0  0  1  0  0  0  0  0  0  0  0  0
  -24.9566  -29.2397   20.0610 C   0  0  2  0  0  0  0  0  0  0  0  0
  -25.7935  -14.7327   26.3332 C   0  0  0  0  0  0  0  0  0  0  0  0
  -21.9296  -14.3025   20.9707 C   0  0  0  0  0  0  0  0  0  0  0  0
  -22.4261  -13.5922   23.3196 C   0  0  0  0  0  0  0  0  0  0  0  0
  -24.0770  -13.1376   21.5056 C   0  0  0  0  0  0  0  0  0  0  0  0
  -26.8165  -18.2150   25.1916 C   0  0  0  0  0  0  0  0  0  0  0  0
  -20.8856  -29.2119   23.5891 C   0  0  0  0  0  0  0  0  0  0  0  0
  -19.4958  -24.4181   22.9837 C   0  0  0  0  0  0  0  0  0  0  0  0
  -20.6283  -23.8056   22.1668 C   0  0  0  0  0  0  0  0  0  1  0  0
  -23.7639  -15.5066   22.3314 C   0  0  1  0  0  0  0  0  0  0  0  0
  -26.0691  -15.8353   25.3227 C   0  0  2  0  0  0  0  0  0  0  0  0
  -23.0452  -14.1622   22.0255 C   0  0  0  0  0  0  0  0  0  0  0  0
  -18.3036  -26.2204   21.9113 N   0  0  0  0  0  0  0  0  0  0  0  0
  -26.3998  -27.2459   20.2178 N   0  0  0  0  0  0  0  0  0  0  0  0
  -25.5722  -27.9883   19.4627 N   0  0  0  0  0  0  0  0  0  0  0  0
  -23.9009  -17.4020   20.7463 N   0  0  0  0  0  0  0  0  0  0  0  0
  -24.1121  -30.3304   22.1069 N   0  0  0  0  0  0  0  0  0  0  0  0
  -24.5844  -28.1211   17.3139 N   0  0  0  0  0  0  0  0  0  0  0  0
  -27.0833  -24.3664   17.0818 N   0  0  0  0  0  0  0  0  0  0  0  0
  -23.6036  -16.8352   17.4357 N   0  0  0  0  0  0  0  0  0  0  0  0
  -24.8432  -15.3987   23.3070 N   0  0  0  0  0  0  0  0  0  0  0  0
  -22.1698  -29.2580   22.9263 N   0  0  0  0  0  0  0  0  0  0  0  0
  -26.4913  -17.0573   26.0639 N   0  3  0  0  0  0  0  0  0  0  0  0
  -25.6682  -25.7368   15.9078 O   0  0  0  0  0  0  0  0  0  0  0  0
  -22.0800  -18.1015   18.6595 O   0  0  0  0  0  0  0  0  0  0  0  0
  -25.2355  -15.5101   20.4711 O   0  0  0  0  0  0  0  0  0  0  0  0
  -23.9705  -16.9225   24.8214 O   0  0  0  0  0  0  0  0  0  0  0  0
  -22.4508  -31.5160   23.2081 O   0  0  0  0  0  0  0  0  0  0  0  0
  -30.2391  -22.2534   21.1575 O   0  0  0  0  0  0  0  0  0  0  0  0
  -20.7169  -22.4074   22.4377 O   0  0  0  0  0  0  0  0  0  1  0  0
  -28.9383  -17.0196   20.0089 F   0  0  0  0  0  0  0  0  0  0  0  0
  -29.9596  -21.4026   18.5421 F   0  0  0  0  0  0  0  0  0  0  0  0
  -18.6123  -30.1801   21.7728 Cl  0  0  0  0  0  0  0  0  0  0  0  0
  -21.4888  -26.3176   24.3184 Cl  0  0  0  0  0  0  0  0  0  0  0  0
  1  2  1  0  0  0  0
  1  5  2  0  0  0  0
  2  6  2  0  0  0  0
  3  8  2  0  0  0  0
  3 16  1  0  0  0  0
  4  9  1  0  0  0  0
  4 16  2  0  0  0  0
  5 18  1  0  0  0  0
  6 20  1  0  0  0  0
  7 10  2  0  0  0  0
  7 19  1  0  0  0  0
  8 23  1  0  0  0  0
  9 23  2  0  0  0  0
 10 24  1  0  0  0  0
 11 12  2  0  0  0  0
 11 25  1  0  0  0  0
 12 26  1  0  0  0  0
 13 21  1  0  0  0  0
 13 24  2  0  0  0  0
 14 26  2  0  0  0  0
 14 27  1  0  0  0  0
 15 28  1  0  0  0  0
 15 61  2  0  0  0  0
 16 30  1  0  0  0  0
 17 30  1  0  0  0  0
 17 32  2  0  0  0  0
 17 33  1  0  0  0  0
 18 20  2  0  0  0  0
 18 38  1  0  0  0  0
 19 21  2  0  0  0  0
 19 39  1  0  0  0  0
 20 47  1  0  0  0  0
 21 40  1  0  0  0  0
 22 28  2  0  0  0  0
 22 29  1  0  0  0  0
 22 55  1  0  0  0  0
 23 77  1  0  0  0  0
 24 78  1  0  0  0  0
 25 27  2  0  0  0  0
 25 77  1  0  0  0  0
 26 79  1  0  0  0  0
 27 80  1  0  0  0  0
 28 81  1  0  0  0  0
 29 31  2  0  0  0  0
 29 82  1  0  0  0  0
 30 62  2  0  0  0  0
 31 56  1  0  0  0  0
 31 61  1  0  0  0  0
 32 63  1  0  0  0  0
 32 66  1  0  0  0  0
 33 67  1  0  0  0  0
 33 72  2  0  0  0  0
 34 48  1  0  0  0  0
 34 68  1  0  0  0  0
 34 73  2  0  0  0  0
 35 58  1  0  0  0  0
 35 64  1  0  0  0  0
 35 74  2  0  0  0  0
 36 59  1  0  0  0  0
 36 69  1  0  0  0  0
 36 75  2  0  0  0  0
 37 65  1  0  0  0  0
 37 70  1  0  0  0  0
 37 76  2  0  0  0  0
 38 41  1  0  0  0  0
 39 48  1  0  0  0  0
 40 64  1  0  0  0  0
 41 43  1  0  0  0  0
 42 44  1  0  0  0  0
 42 45  1  0  0  0  0
 43 47  1  0  0  0  0
 44 49  1  0  0  0  0
 45 65  1  0  0  0  0
 46 49  1  0  0  0  0
 46 65  1  0  0  0  0
 47 68  1  0  0  0  0
 48 64  1  0  0  0  0
 49 63  1  0  0  0  0
 50 59  1  0  0  0  0
 51 60  1  0  0  0  0
 52 60  1  0  0  0  0
 53 60  1  0  0  0  0
 54 71  1  0  0  0  0
 55 70  1  0  0  0  0
 56 57  1  0  0  0  0
 57 78  1  0  0  0  0
 58 60  1  0  0  0  0
 58 69  1  0  0  0  0
 59 71  1  0  0  0  0
 62 63  1  0  0  0  0
M  CHG  1  71   1
M  ISO  4  37 100  57 101  70 100  78 101
M  END
> <Batch ID>
0027

> <Smiles>
CNC(C)C(=O)NC(C(=O)N1Cc2cc([101O:1][101CH2:1]Cc3ncc(Cl)c(C[100NH:0][100C:0](=O)N4CCCC(n5nc(-c6ccc(Oc7ccc(F)cc7F)cc6)c(C(N)=O)c5N)C4)c3Cl)ccc2CC1C(=O)NC1CCCc2ccccc21)C(C)(C)C

> <Shape>
0.191

> <Color>
0.062

> <Negative vol penalty>
0.000

$$$$

  -OEChem-04052316303D

 85 93  0     1  0  0  0  0  0999 V2000
  -17.3463  -31.9265   22.2480 C   0  0  0  0  0  0  0  0  0  0  0  0
  -18.5507  -32.1703   21.5957 C   0  0  0  0  0  0  0  0  0  0  0  0
  -29.1228  -17.8436   18.1751 C   0  0  0  0  0  0  0  0  0  0  0  0
  -31.1397  -18.4778   19.3444 C   0  0  0  0  0  0  0  0  0  0  0  0
  -17.2966  -31.0108   23.2982 C   0  0  0  0  0  0  0  0  0  0  0  0
  -19.7063  -31.4992   21.9940 C   0  0  0  0  0  0  0  0  0  0  0  0
  -25.8023  -28.8254   19.3472 C   0  0  0  0  0  0  0  0  0  0  0  0
  -29.4896  -16.5013   18.2703 C   0  0  0  0  0  0  0  0  0  0  0  0
  -31.5065  -17.1354   19.4397 C   0  0  0  0  0  0  0  0  0  0  0  0
  -27.1798  -28.8723   19.5573 C   0  0  0  0  0  0  0  0  0  0  0  0
  -29.7187  -12.8821   18.5236 C   0  0  0  0  0  0  0  0  0  0  0  0
  -28.7375  -11.9672   18.9056 C   0  0  0  0  0  0  0  0  0  0  0  0
  -26.9581  -27.2536   21.3321 C   0  0  0  0  0  0  0  0  0  0  0  0
  -33.7458  -28.4099   16.4691 C   0  0  0  0  0  0  0  0  0  0  0  0
  -28.4506  -13.1470   20.9943 C   0  0  0  0  0  0  0  0  0  0  0  0
  -29.9479  -18.8319   18.7121 C   0  0  0  0  0  0  0  0  0  0  0  0
  -28.8036  -20.9585   19.5341 C   0  0  0  0  0  0  0  0  0  0  0  0
  -18.4502  -30.3210   23.7033 C   0  0  0  0  0  0  0  0  0  0  0  0
  -24.9896  -27.9990   20.1365 C   0  0  0  0  0  0  0  0  0  0  0  0
  -19.6722  -30.5744   23.0515 C   0  0  0  0  0  0  0  0  0  0  0  0
  -25.5709  -27.1961   21.1283 C   0  0  0  0  0  0  0  0  0  0  0  0
  -33.9487  -27.1872   17.1089 C   0  0  0  0  0  0  0  0  0  0  0  0
  -33.5238  -28.2341   19.2444 C   0  0  0  0  0  0  0  0  0  0  0  0
  -33.3211  -29.4569   18.6046 C   0  0  0  0  0  0  0  0  0  0  0  0
  -30.6815  -16.1471   18.9027 C   0  0  0  0  0  0  0  0  0  0  0  0
  -27.7575  -28.0885   20.5517 C   0  0  0  0  0  0  0  0  0  0  0  0
  -30.0659  -13.9294   19.3770 C   0  0  0  0  0  0  0  0  0  0  0  0
  -28.1035  -12.0997   20.1409 C   0  0  0  0  0  0  0  0  0  0  0  0
  -29.4318  -14.0619   20.6124 C   0  0  0  0  0  0  0  0  0  0  0  0
  -33.8376  -27.0992   18.4965 C   0  0  0  0  0  0  0  0  0  0  0  0
  -33.4321  -29.5448   17.2170 C   0  0  0  0  0  0  0  0  0  0  0  0
  -29.5697  -20.2188   18.6135 C   0  0  0  0  0  0  0  0  0  0  0  0
  -28.7273  -22.2155   18.9857 C   0  0  0  0  0  0  0  0  0  0  0  0
  -28.2137  -20.5464   20.7742 C   0  0  0  0  0  0  0  0  0  0  0  0
  -22.5892  -28.4880   22.1620 C   0  0  0  0  0  0  0  0  0  0  0  0
  -22.4487  -25.2473   22.1686 C   0  0  0  0  0  0  0  0  0  0  0  0
  -24.0540  -22.2767   21.6729 C   0  0  0  0  0  0  0  0  0  0  0  0
  -32.2213  -25.2123   15.1565 C   0  0  0  0  0  0  0  0  0  0  0  0
  -18.3570  -29.3756   24.8746 C   0  0  0  0  0  0  0  0  0  0  0  0
  -23.5088  -27.9398   19.8795 C   0  0  0  0  0  0  0  0  0  0  0  0
  -24.7450  -26.2769   21.9894 C   0  0  0  0  0  0  0  0  0  0  0  0
  -19.5490  -28.4289   24.9896 C   0  0  0  0  0  0  0  0  0  0  0  0
  -28.7618  -24.4674   14.7645 C   0  0  0  0  0  0  0  0  0  0  0  0
  -20.8574  -29.1953   24.8233 C   0  0  0  0  0  0  0  0  0  0  0  0
  -28.5075  -23.3608   15.7895 C   0  0  0  0  0  0  0  0  0  0  0  0
  -30.1438  -24.3398   14.1274 C   0  0  0  0  0  0  0  0  0  0  0  0
  -31.0085  -23.1590   16.1103 C   0  0  0  0  0  0  0  0  0  0  0  0
  -20.9422  -29.8479   23.4382 C   0  0  1  0  0  0  0  0  0  0  0  0
  -22.7125  -27.4482   21.0843 C   0  0  1  0  0  0  0  0  0  0  0  0
  -29.6492  -23.2783   16.8205 C   0  0  2  0  0  0  0  0  0  0  0  0
  -32.9851  -30.6654   19.4218 C   0  0  0  0  0  0  0  0  0  0  0  0
  -23.6899  -19.7967   21.7931 C   0  0  0  0  0  0  0  0  0  0  0  0
  -22.6321  -25.3703   25.2118 C   0  0  0  0  0  0  0  0  0  0  0  0
  -23.2170  -22.9359   25.2054 C   0  0  0  0  0  0  0  0  0  0  0  0
  -21.0046  -23.6877   24.3320 C   0  0  0  0  0  0  0  0  0  0  0  0
  -24.6196  -21.9369   18.7879 C   0  0  0  0  0  0  0  0  0  0  0  0
  -33.4093  -28.1139   20.7432 C   0  0  0  0  0  0  0  0  0  0  0  0
  -34.2840  -25.9756   16.3062 C   0  0  0  0  0  0  0  0  0  0  0  0
  -31.9646  -28.1034   21.2549 C   0  0  0  0  0  0  0  0  0  0  0  0
  -31.1615  -26.9014   20.7559 C   0  0  0  0  0  0  0  0  0  0  0  0
  -29.7224  -26.9459   21.2515 C   0  0  0  0  0  0  0  0  0  1  0  0
  -23.0920  -24.1509   22.9830 C   0  0  1  0  0  0  0  0  0  0  0  0
  -23.6522  -21.0305   20.9048 C   0  0  2  0  0  0  0  0  0  0  0  0
  -22.5020  -24.0549   24.4183 C   0  0  0  0  0  0  0  0  0  0  0  0
  -29.9527  -20.9452   17.5600 N   0  0  0  0  0  0  0  0  0  0  0  0
  -29.4249  -22.1545   17.8153 N   0  0  0  0  0  0  0  0  0  0  0  0
  -23.3009  -26.2590   21.7038 N   0  0  0  0  0  0  0  0  0  0  0  0
  -31.1815  -24.2679   15.1589 N   0  0  0  0  0  0  0  0  0  0  0  0
  -28.1322  -23.3559   19.3952 N   0  0  0  0  0  0  0  0  0  0  0  0
  -28.3895  -19.2193   21.1893 N   0  0  0  0  0  0  0  0  0  0  0  0
  -21.2877  -28.8630   22.4357 N   0  0  0  0  0  0  0  0  0  0  0  0
  -22.9583  -22.9280   22.1989 N   0  0  0  0  0  0  0  0  0  0  0  0
  -33.1596  -25.0764   16.1724 N   0  0  0  0  0  0  0  0  0  0  0  0
  -24.5750  -20.8105   19.7554 N   0  3  0  0  0  0  0  0  0  0  0  0
  -27.5366  -21.3273   21.4849 O   0  0  0  0  0  0  0  0  0  0  0  0
  -23.6000  -28.9172   22.7059 O   0  0  0  0  0  0  0  0  0  0  0  0
  -21.2360  -25.2037   21.9468 O   0  0  0  0  0  0  0  0  0  0  0  0
  -25.2232  -22.6345   21.7973 O   0  0  0  0  0  0  0  0  0  0  0  0
  -32.3042  -26.1132   14.3148 O   0  0  0  0  0  0  0  0  0  0  0  0
  -31.0396  -14.8373   18.9960 O   0  0  0  0  0  0  0  0  0  0  0  0
  -29.1017  -28.1328   20.7593 O   0  0  0  0  0  0  0  0  0  1  0  0
  -27.1602  -11.2219   20.5070 F   0  0  0  0  0  0  0  0  0  0  0  0
  -29.7603  -15.0667   21.4360 F   0  0  0  0  0  0  0  0  0  0  0  0
  -34.0328  -25.9228   19.1107 F   0  0  0  0  0  0  0  0  0  0  0  0
  -33.1888  -31.0394   16.3873 Cl  0  0  0  0  0  0  0  0  0  0  0  0
  1  2  1  0  0  0  0
  1  5  2  0  0  0  0
  2  6  2  0  0  0  0
  3  8  2  0  0  0  0
  3 16  1  0  0  0  0
  4  9  1  0  0  0  0
  4 16  2  0  0  0  0
  5 18  1  0  0  0  0
  6 20  1  0  0  0  0
  7 10  2  0  0  0  0
  7 19  1  0  0  0  0
  8 25  1  0  0  0  0
  9 25  2  0  0  0  0
 10 26  1  0  0  0  0
 11 12  2  0  0  0  0
 11 27  1  0  0  0  0
 12 28  1  0  0  0  0
 13 21  1  0  0  0  0
 13 26  2  0  0  0  0
 14 22  2  0  0  0  0
 14 31  1  0  0  0  0
 15 28  2  0  0  0  0
 15 29  1  0  0  0  0
 16 32  1  0  0  0  0
 17 32  1  0  0  0  0
 17 33  2  0  0  0  0
 17 34  1  0  0  0  0
 18 20  2  0  0  0  0
 18 39  1  0  0  0  0
 19 21  2  0  0  0  0
 19 40  1  0  0  0  0
 20 48  1  0  0  0  0
 21 41  1  0  0  0  0
 22 30  1  0  0  0  0
 22 58  1  0  0  0  0
 23 24  1  0  0  0  0
 23 30  2  0  0  0  0
 23 57  1  0  0  0  0
 24 31  2  0  0  0  0
 24 51  1  0  0  0  0
 25 80  1  0  0  0  0
 26 81  1  0  0  0  0
 27 29  2  0  0  0  0
 27 80  1  0  0  0  0
 28 82  1  0  0  0  0
 29 83  1  0  0  0  0
 30 84  1  0  0  0  0
 31 85  1  0  0  0  0
 32 65  2  0  0  0  0
 33 66  1  0  0  0  0
 33 69  1  0  0  0  0
 34 70  1  0  0  0  0
 34 75  2  0  0  0  0
 35 49  1  0  0  0  0
 35 71  1  0  0  0  0
 35 76  2  0  0  0  0
 36 62  1  0  0  0  0
 36 67  1  0  0  0  0
 36 77  2  0  0  0  0
 37 63  1  0  0  0  0
 37 72  1  0  0  0  0
 37 78  2  0  0  0  0
 38 68  1  0  0  0  0
 38 73  1  0  0  0  0
 38 79  2  0  0  0  0
 39 42  1  0  0  0  0
 40 49  1  0  0  0  0
 41 67  1  0  0  0  0
 42 44  1  0  0  0  0
 43 45  1  0  0  0  0
 43 46  1  0  0  0  0
 44 48  1  0  0  0  0
 45 50  1  0  0  0  0
 46 68  1  0  0  0  0
 47 50  1  0  0  0  0
 47 68  1  0  0  0  0
 48 71  1  0  0  0  0
 49 67  1  0  0  0  0
 50 66  1  0  0  0  0
 52 63  1  0  0  0  0
 53 64  1  0  0  0  0
 54 64  1  0  0  0  0
 55 64  1  0  0  0  0
 56 74  1  0  0  0  0
 57 59  1  0  0  0  0
 58 73  1  0  0  0  0
 59 60  1  0  0  0  0
 60 61  1  0  0  0  0
 61 81  1  0  0  0  0
 62 64  1  0  0  0  0
 62 72  1  0  0  0  0
 63 74  1  0  0  0  0
 65 66  1  0  0  0  0
M  CHG  1  74   1
M  ISO  4  38 100  61 101  73 100  81 101
M  END
> <Batch ID>
0027

> <Smiles>
CNC(C)C(=O)NC(C(=O)N1Cc2cc([101O:1][101CH2:1]CCCc3c(C)c(Cl)cc(C[100NH:0][100C:0](=O)N4CCCC(n5nc(-c6ccc(Oc7ccc(F)cc7F)cc6)c(C(N)=O)c5N)C4)c3F)ccc2CC1C(=O)NC1CCCc2ccccc21)C(C)(C)C

> <Shape>
0.200

> <Color>
0.075

> <Negative vol penalty>
0.000

$$$$

  -OEChem-04052316303D

 92101  0     1  0  0  0  0  0999 V2000
  -20.6026  -32.6779   19.7636 C   0  0  0  0  0  0  0  0  0  0  0  0
  -21.8968  -32.1786   19.8703 C   0  0  0  0  0  0  0  0  0  0  0  0
  -24.4602   -9.9232   21.8293 C   0  0  0  0  0  0  0  0  0  0  0  0
  -24.4433  -11.0503   23.9662 C   0  0  0  0  0  0  0  0  0  0  0  0
  -19.6177  -32.2545   20.6550 C   0  0  0  0  0  0  0  0  0  0  0  0
  -22.2070  -31.2565   20.8692 C   0  0  0  0  0  0  0  0  0  0  0  0
  -24.9977  -27.3961   19.1505 C   0  0  0  0  0  0  0  0  0  0  0  0
  -23.9956   -8.7583   22.4400 C   0  0  0  0  0  0  0  0  0  0  0  0
  -23.9787   -9.8855   24.5769 C   0  0  0  0  0  0  0  0  0  0  0  0
  -26.3580  -27.6312   18.9551 C   0  0  0  0  0  0  0  0  0  0  0  0
  -21.0487   -7.5409   23.5655 C   0  0  0  0  0  0  0  0  0  0  0  0
  -20.0140   -6.8479   22.9372 C   0  0  0  0  0  0  0  0  0  0  0  0
  -26.8398  -26.5584   21.0613 C   0  0  0  0  0  0  0  0  0  0  0  0
  -21.4323   -4.9011   22.7489 C   0  0  0  0  0  0  0  0  0  0  0  0
  -24.6841  -11.0691   22.5924 C   0  0  0  0  0  0  0  0  0  0  0  0
  -24.3901  -13.3099   21.4091 C   0  0  0  0  0  0  0  0  0  0  0  0
  -19.9137  -31.3194   21.6593 C   0  0  0  0  0  0  0  0  0  0  0  0
  -24.5466  -26.7490   20.3099 C   0  0  0  0  0  0  0  0  0  0  0  0
  -21.2255  -30.8212   21.7757 C   0  0  0  0  0  0  0  0  0  0  0  0
  -25.4735  -26.3140   21.2678 C   0  0  0  0  0  0  0  0  0  0  0  0
  -32.2360  -22.2495   21.3086 C   0  0  0  0  0  0  0  0  0  0  0  0
  -32.1262  -23.5452   20.7664 C   0  0  0  0  0  0  0  0  0  0  0  0
  -32.1770  -23.7755   19.3962 C   0  0  0  0  0  0  0  0  0  0  0  0
  -23.7548   -8.7395   23.8138 C   0  0  0  0  0  0  0  0  0  0  0  0
  -27.2790  -27.2149   19.9119 C   0  0  0  0  0  0  0  0  0  0  0  0
  -22.2753   -6.9140   23.7854 C   0  0  0  0  0  0  0  0  0  0  0  0
  -20.2058   -5.5280   22.5289 C   0  0  0  0  0  0  0  0  0  0  0  0
  -22.4670   -5.5941   23.3772 C   0  0  0  0  0  0  0  0  0  0  0  0
  -25.1645  -12.2725   21.9622 C   0  0  0  0  0  0  0  0  0  0  0  0
  -32.3919  -21.2080   20.3783 C   0  0  0  0  0  0  0  0  0  0  0  0
  -32.3405  -22.6873   18.5746 C   0  0  0  0  0  0  0  0  0  0  0  0
  -25.3118  -14.2140   20.9405 C   0  0  0  0  0  0  0  0  0  0  0  0
  -22.9651  -13.4444   21.3265 C   0  0  0  0  0  0  0  0  0  0  0  0
  -22.6551  -27.5519   22.7350 C   0  0  0  0  0  0  0  0  0  0  0  0
  -29.8873  -17.1598   21.7559 C   0  0  0  0  0  0  0  0  0  0  0  0
  -23.0594  -24.4436   23.5704 C   0  0  0  0  0  0  0  0  0  0  0  0
  -24.9684  -21.6204   23.3921 C   0  0  0  0  0  0  0  0  0  0  0  0
  -18.8273  -30.9274   22.6293 C   0  0  0  0  0  0  0  0  0  0  0  0
  -23.0783  -26.4791   20.4931 C   0  0  0  0  0  0  0  0  0  0  0  0
  -25.0424  -25.5970   22.5202 C   0  0  0  0  0  0  0  0  0  0  0  0
  -19.1476  -29.6645   23.4248 C   0  0  0  0  0  0  0  0  0  0  0  0
  -30.3136  -13.8298   20.3574 C   0  0  0  0  0  0  0  0  0  0  0  0
  -20.5712  -29.7234   23.9695 C   0  0  0  0  0  0  0  0  0  0  0  0
  -31.2578  -19.6199   23.0125 C   0  0  0  0  0  0  0  0  0  0  0  0
  -28.9476  -13.2041   20.6359 C   0  0  0  0  0  0  0  0  0  0  0  0
  -31.0312  -21.1136   23.2346 C   0  0  0  0  0  0  0  0  0  0  0  0
  -30.7345  -14.7796   21.4758 C   0  0  0  0  0  0  0  0  0  0  0  0
  -28.3677  -15.2285   22.0425 C   0  0  0  0  0  0  0  0  0  0  0  0
  -21.5950  -29.8008   22.8304 C   0  0  1  0  0  0  0  0  0  0  0  0
  -32.4954  -19.7446   20.7323 C   0  0  2  0  0  0  0  0  0  0  0  0
  -22.6869  -26.2694   21.9527 C   0  0  1  0  0  0  0  0  0  0  0  0
  -31.3095  -19.1848   21.5443 C   0  0  1  0  0  0  0  0  0  0  0  0
  -27.8928  -14.2870   20.9231 C   0  0  2  0  0  0  0  0  0  0  0  0
  -32.2029  -22.0225   22.8171 C   0  0  2  0  0  0  0  0  0  0  0  0
  -31.9105  -24.7873   21.5761 C   0  0  0  0  0  0  0  0  0  0  0  0
  -32.4072  -22.8492   17.0922 C   0  0  0  0  0  0  0  0  0  0  0  0
  -32.1733  -23.2305   23.7698 C   0  0  0  0  0  0  0  0  0  0  0  0
  -25.0599  -19.2494   24.2091 C   0  0  0  0  0  0  0  0  0  0  0  0
  -23.9443  -25.4277   26.3197 C   0  0  0  0  0  0  0  0  0  0  0  0
  -24.9056  -23.1558   26.7465 C   0  0  0  0  0  0  0  0  0  0  0  0
  -22.4553  -23.4189   26.3603 C   0  0  0  0  0  0  0  0  0  0  0  0
  -24.8739  -20.5448   20.6365 C   0  0  0  0  0  0  0  0  0  0  0  0
  -32.0575  -25.1483   18.8202 C   0  0  0  0  0  0  0  0  0  0  0  0
  -30.5345  -27.0663   18.3298 C   0  0  0  0  0  0  0  0  0  0  0  0
  -29.0771  -27.4809   18.3782 C   0  0  0  0  0  0  0  0  0  1  0  0
  -31.2870  -17.6482   21.4799 C   0  0  1  0  0  0  0  0  0  0  0  0
  -24.0518  -23.6848   24.4180 C   0  0  1  0  0  0  0  0  0  0  0  0
  -24.6064  -20.1769   23.0925 C   0  0  2  0  0  0  0  0  0  0  0  0
  -23.8475  -23.9370   25.9385 C   0  0  0  0  0  0  0  0  0  0  0  0
  -26.4771  -12.4957   21.8555 N   0  0  0  0  0  0  0  0  0  0  0  0
  -32.4469  -21.4259   19.0309 N   0  0  0  0  0  0  0  0  0  0  0  0
  -26.5346  -13.6837   21.2298 N   0  0  0  0  0  0  0  0  0  0  0  0
  -23.5954  -25.3622   22.6567 N   0  0  0  0  0  0  0  0  0  0  0  0
  -29.6915  -15.7787   21.7375 N   0  0  0  0  0  0  0  0  0  0  0  0
  -25.1874  -15.4029   20.3132 N   0  0  0  0  0  0  0  0  0  0  0  0
  -22.1657  -12.4232   21.8580 N   0  0  0  0  0  0  0  0  0  0  0  0
  -21.7829  -28.4973   22.2303 N   0  0  0  0  0  0  0  0  0  0  0  0
  -23.9385  -22.2846   24.0240 N   0  0  0  0  0  0  0  0  0  0  0  0
  -25.2499  -19.7342   21.8233 N   0  3  0  0  0  0  0  0  0  0  0  0
  -30.6673  -25.6787   18.8462 N   0  3  0  0  0  0  0  0  0  0  0  0
  -22.4170  -14.4328   20.7823 O   0  0  0  0  0  0  0  0  0  0  0  0
  -23.3680  -27.6739   23.7242 O   0  0  0  0  0  0  0  0  0  0  0  0
  -28.9955  -17.9829   21.9784 O   0  0  0  0  0  0  0  0  0  0  0  0
  -21.8535  -24.2242   23.7088 O   0  0  0  0  0  0  0  0  0  0  0  0
  -26.0574  -22.1087   23.0984 O   0  0  0  0  0  0  0  0  0  0  0  0
  -23.3012   -7.6031   24.4100 O   0  0  0  0  0  0  0  0  0  0  0  0
  -28.6168  -27.4454   19.7226 O   0  0  0  0  0  0  0  0  0  1  0  0
  -19.2116   -4.8621   21.9269 F   0  0  0  0  0  0  0  0  0  0  0  0
  -23.6427   -4.9862   23.5868 F   0  0  0  0  0  0  0  0  0  0  0  0
  -33.3592  -21.3805   23.2104 F   0  0  0  0  0  0  0  0  0  0  0  0
  -32.1618  -17.1879   22.4031 F   0  0  0  0  0  0  0  0  0  0  0  0
  -34.1075  -19.3467   21.3875 Cl  0  0  0  0  0  0  0  0  0  0  0  0
  1  2  1  0  0  0  0
  1  5  2  0  0  0  0
  2  6  2  0  0  0  0
  3  8  2  0  0  0  0
  3 15  1  0  0  0  0
  4  9  1  0  0  0  0
  4 15  2  0  0  0  0
  5 17  1  0  0  0  0
  6 19  1  0  0  0  0
  7 10  2  0  0  0  0
  7 18  1  0  0  0  0
  8 24  1  0  0  0  0
  9 24  2  0  0  0  0
 10 25  1  0  0  0  0
 11 12  2  0  0  0  0
 11 26  1  0  0  0  0
 12 27  1  0  0  0  0
 13 20  1  0  0  0  0
 13 25  2  0  0  0  0
 14 27  2  0  0  0  0
 14 28  1  0  0  0  0
 15 29  1  0  0  0  0
 16 29  1  0  0  0  0
 16 32  2  0  0  0  0
 16 33  1  0  0  0  0
 17 19  2  0  0  0  0
 17 38  1  0  0  0  0
 18 20  2  0  0  0  0
 18 39  1  0  0  0  0
 19 49  1  0  0  0  0
 20 40  1  0  0  0  0
 21 22  1  0  0  0  0
 21 30  2  0  0  0  0
 21 54  1  0  0  0  0
 22 23  2  0  0  0  0
 22 55  1  0  0  0  0
 23 31  1  0  0  0  0
 23 63  1  0  0  0  0
 24 86  1  0  0  0  0
 25 87  1  0  0  0  0
 26 28  2  0  0  0  0
 26 86  1  0  0  0  0
 27 88  1  0  0  0  0
 28 89  1  0  0  0  0
 29 70  2  0  0  0  0
 30 50  1  0  0  0  0
 30 71  1  0  0  0  0
 31 56  1  0  0  0  0
 31 71  2  0  0  0  0
 32 72  1  0  0  0  0
 32 75  1  0  0  0  0
 33 76  1  0  0  0  0
 33 81  2  0  0  0  0
 34 51  1  0  0  0  0
 34 77  1  0  0  0  0
 34 82  2  0  0  0  0
 35 66  1  0  0  0  0
 35 74  1  0  0  0  0
 35 83  2  0  0  0  0
 36 67  1  0  0  0  0
 36 73  1  0  0  0  0
 36 84  2  0  0  0  0
 37 68  1  0  0  0  0
 37 78  1  0  0  0  0
 37 85  2  0  0  0  0
 38 41  1  0  0  0  0
 39 51  1  0  0  0  0
 40 73  1  0  0  0  0
 41 43  1  0  0  0  0
 42 45  1  0  0  0  0
 42 47  1  0  0  0  0
 43 49  1  0  0  0  0
 44 46  1  0  0  0  0
 44 52  1  0  0  0  0
 45 53  1  0  0  0  0
 46 54  1  0  0  0  0
 47 74  1  0  0  0  0
 48 53  1  0  0  0  0
 48 74  1  0  0  0  0
 49 77  1  0  0  0  0
 50 52  1  0  0  0  0
 50 92  1  0  0  0  0
 51 73  1  0  0  0  0
 52 66  1  0  0  0  0
 53 72  1  0  0  0  0
 54 57  1  0  0  0  0
 54 90  1  0  0  0  0
 58 68  1  0  0  0  0
 59 69  1  0  0  0  0
 60 69  1  0  0  0  0
 61 69  1  0  0  0  0
 62 79  1  0  0  0  0
 63 80  1  0  0  0  0
 64 65  1  0  0  0  0
 64 80  1  0  0  0  0
 65 87  1  0  0  0  0
 66 91  1  0  0  0  0
 67 69  1  0  0  0  0
 67 78  1  0  0  0  0
 68 79  1  0  0  0  0
 70 72  1  0  0  0  0
M  CHG  2  79   1  80   1
M  ISO  4  35 100  65 101  66 100  87 101
M  END
> <Batch ID>
0027

> <Smiles>
CNC(C)C(=O)NC(C(=O)N1Cc2cc([101O:1][101CH2:1]CNCc3c(C)nc4c(c3C)C(C)(F)CCC([100CH:0](F)[100C:0](=O)N3CCCC(n5nc(-c6ccc(Oc7ccc(F)cc7F)cc6)c(C(N)=O)c5N)C3)C4Cl)ccc2CC1C(=O)NC1CCCc2ccccc21)C(C)(C)C

> <Shape>
0.216

> <Color>
0.110

> <Negative vol penalty>
0.000

$$$$

  -OEChem-04052316303D

 95105  0     1  0  0  0  0  0999 V2000
  -16.7516  -28.9282   23.7100 C   0  0  0  0  0  0  0  0  0  0  0  0
  -17.1246  -28.7321   22.3842 C   0  0  0  0  0  0  0  0  0  0  0  0
  -23.6422  -10.0773   22.1335 C   0  0  0  0  0  0  0  0  0  0  0  0
  -23.3906   -9.9017   19.7370 C   0  0  0  0  0  0  0  0  0  0  0  0
  -17.6656  -29.4601   24.6187 C   0  0  0  0  0  0  0  0  0  0  0  0
  -18.4116  -29.0688   21.9660 C   0  0  0  0  0  0  0  0  0  0  0  0
  -20.5001  -25.5004   19.0420 C   0  0  0  0  0  0  0  0  0  0  0  0
  -22.9736   -8.8636   22.2927 C   0  0  0  0  0  0  0  0  0  0  0  0
  -22.7220   -8.6879   19.8962 C   0  0  0  0  0  0  0  0  0  0  0  0
  -20.0892  -25.4472   17.7108 C   0  0  0  0  0  0  0  0  0  0  0  0
  -19.7803   -7.7564   22.2589 C   0  0  0  0  0  0  0  0  0  0  0  0
  -18.7990   -7.6827   23.2474 C   0  0  0  0  0  0  0  0  0  0  0  0
  -26.3399  -17.0964   15.9043 C   0  0  0  0  0  0  0  0  0  0  0  0
  -22.0856  -26.6312   17.0536 C   0  0  0  0  0  0  0  0  0  0  0  0
  -20.0319   -5.9153   24.3397 C   0  0  0  0  0  0  0  0  0  0  0  0
  -23.8507  -10.5964   20.8556 C   0  0  0  0  0  0  0  0  0  0  0  0
  -27.3922  -16.8615   16.8236 C   0  0  0  0  0  0  0  0  0  0  0  0
  -24.1594  -13.1046   21.2037 C   0  0  0  0  0  0  0  0  0  0  0  0
  -18.9674  -29.7945   24.2137 C   0  0  0  0  0  0  0  0  0  0  0  0
  -21.7035  -26.1301   19.3909 C   0  0  0  0  0  0  0  0  0  0  0  0
  -19.3434  -29.6069   22.8698 C   0  0  0  0  0  0  0  0  0  0  0  0
  -22.5107  -26.6888   18.3897 C   0  0  0  0  0  0  0  0  0  0  0  0
  -22.5135   -8.1688   21.1741 C   0  0  0  0  0  0  0  0  0  0  0  0
  -20.8806  -26.0152   16.7167 C   0  0  0  0  0  0  0  0  0  0  0  0
  -20.8874   -6.9094   22.3107 C   0  0  0  0  0  0  0  0  0  0  0  0
  -18.9248   -6.7622   24.2878 C   0  0  0  0  0  0  0  0  0  0  0  0
  -21.0132   -5.9889   23.3512 C   0  0  0  0  0  0  0  0  0  0  0  0
  -24.5408  -11.8504   20.6906 C   0  0  0  0  0  0  0  0  0  0  0  0
  -25.5777  -18.1281   16.4064 C   0  0  0  0  0  0  0  0  0  0  0  0
  -27.2410  -17.7571   17.8593 C   0  0  0  0  0  0  0  0  0  0  0  0
  -25.1386  -13.9650   20.7706 C   0  0  0  0  0  0  0  0  0  0  0  0
  -28.4615  -15.8599   16.7238 C   0  0  0  0  0  0  0  0  0  0  0  0
  -23.0218  -13.4601   22.0007 C   0  0  0  0  0  0  0  0  0  0  0  0
  -22.4880  -28.6261   21.1959 C   0  0  0  0  0  0  0  0  0  0  0  0
  -25.5125  -27.6406   20.5604 C   0  0  0  0  0  0  0  0  0  0  0  0
  -27.3315  -26.3981   17.7030 C   0  0  0  0  0  0  0  0  0  0  0  0
  -19.9054  -30.4106   25.2212 C   0  0  0  0  0  0  0  0  0  0  0  0
  -22.1456  -26.1556   20.8283 C   0  0  0  0  0  0  0  0  0  0  0  0
  -23.8213  -27.3586   18.7095 C   0  0  0  0  0  0  0  0  0  0  0  0
  -21.3676  -30.3917   24.7832 C   0  0  0  0  0  0  0  0  0  0  0  0
  -25.6076  -21.3614   20.8238 C   0  0  0  0  0  0  0  0  0  0  0  0
  -26.0578  -21.8797   19.4607 C   0  0  0  0  0  0  0  0  0  0  0  0
  -24.6116  -20.2125   20.6908 C   0  0  0  0  0  0  0  0  0  0  0  0
  -29.6178  -13.0558   18.6057 C   0  0  0  0  0  0  0  0  0  0  0  0
  -21.4984  -30.8645   23.3389 C   0  0  0  0  0  0  0  0  0  0  0  0
  -26.6232  -20.7593   18.5897 C   0  0  0  0  0  0  0  0  0  0  0  0
  -25.1674  -19.0811   19.8280 C   0  0  0  0  0  0  0  0  0  0  0  0
  -28.3655  -12.5805   19.3446 C   0  0  0  0  0  0  0  0  0  0  0  0
  -23.8269  -21.7608   13.4093 C   0  0  0  0  0  0  0  0  0  0  0  0
  -22.5194  -21.1026   15.4593 C   0  0  0  0  0  0  0  0  0  0  0  0
  -29.2844  -13.5806   17.2115 C   0  0  0  0  0  0  0  0  0  0  0  0
  -26.9905  -14.1592   17.9242 C   0  0  0  0  0  0  0  0  0  0  0  0
  -22.5938  -22.4617   12.8557 C   0  0  0  0  0  0  0  0  0  0  0  0
  -21.2929  -21.8066   14.8950 C   0  0  0  0  0  0  0  0  0  0  0  0
  -20.7380  -29.9366   22.3837 C   0  0  1  0  0  0  0  0  0  0  0  0
  -23.1392  -27.2737   21.1282 C   0  0  1  0  0  0  0  0  0  0  0  0
  -23.4521  -20.6078   14.3476 C   0  0  0  0  0  0  0  0  0  0  0  0
  -25.6239  -19.5984   18.4537 C   0  0  0  0  0  0  0  0  0  0  0  0
  -27.2761  -13.6694   19.3533 C   0  0  1  0  0  0  0  0  0  0  0  0
  -29.3427  -24.9029   17.5735 C   0  0  0  0  0  0  0  0  0  0  0  0
  -27.0874  -30.2520   20.4607 C   0  0  0  0  0  0  0  0  0  0  0  0
  -28.6283  -29.1784   18.8050 C   0  0  0  0  0  0  0  0  0  0  0  0
  -28.4328  -28.2466   21.1107 C   0  0  0  0  0  0  0  0  0  0  0  0
  -25.9358  -24.4802   15.9332 C   0  0  0  0  0  0  0  0  0  0  0  0
  -24.3426  -18.7813   15.8393 C   0  0  0  0  0  0  0  0  0  0  0  0
  -24.7032  -19.9607   14.9377 C   0  0  0  0  0  0  0  0  0  0  0  0
  -20.9834  -25.1758   13.2079 C   0  0  0  0  0  0  0  0  0  0  0  0
  -20.5603  -23.7463   13.5108 C   0  0  0  0  0  0  0  0  0  0  0  0
  -21.5060  -25.9312   14.4237 C   0  0  0  0  0  0  0  0  0  1  0  0
  -28.0535  -17.9529   19.0797 C   0  0  0  0  0  0  0  0  0  0  0  0
  -26.5266  -27.9304   19.4803 C   0  0  1  0  0  0  0  0  0  0  0  0
  -27.8263  -24.9792   17.4874 C   0  0  2  0  0  0  0  0  0  0  0  0
  -27.6408  -28.9033   19.9591 C   0  0  0  0  0  0  0  0  0  0  0  0
  -25.6738  -11.9048   19.9852 N   0  0  0  0  0  0  0  0  0  0  0  0
  -26.1348  -18.5219   17.5951 N   0  0  0  0  0  0  0  0  0  0  0  0
  -26.0127  -13.2035   20.0520 N   0  0  0  0  0  0  0  0  0  0  0  0
  -28.2359  -14.5979   17.2786 N   0  0  0  0  0  0  0  0  0  0  0  0
  -24.2071  -27.3634   20.1303 N   0  0  0  0  0  0  0  0  0  0  0  0
  -25.3284  -15.2910   20.9381 N   0  0  0  0  0  0  0  0  0  0  0  0
  -22.1145  -12.4531   22.3568 N   0  0  0  0  0  0  0  0  0  0  0  0
  -21.4927  -28.7242   22.1494 N   0  0  0  0  0  0  0  0  0  0  0  0
  -27.0195  -26.6349   19.0251 N   0  0  0  0  0  0  0  0  0  0  0  0
  -21.7318  -22.9394   13.9990 N   0  3  0  0  0  0  0  0  0  0  0  0
  -27.4059  -24.4821   16.1469 N   0  3  0  0  0  0  0  0  0  0  0  0
  -29.4937  -16.2211   16.1604 O   0  0  0  0  0  0  0  0  0  0  0  0
  -22.8074  -14.6390   22.3720 O   0  0  0  0  0  0  0  0  0  0  0  0
  -22.8620  -29.5153   20.4401 O   0  0  0  0  0  0  0  0  0  0  0  0
  -25.8672  -27.6525   21.7418 O   0  0  0  0  0  0  0  0  0  0  0  0
  -27.2353  -27.2158   16.7905 O   0  0  0  0  0  0  0  0  0  0  0  0
  -21.8612   -6.9843   21.3290 O   0  0  0  0  0  0  0  0  0  0  0  0
  -20.4816  -25.9652   15.4166 O   0  0  0  0  0  0  0  0  0  1  0  0
  -17.9831   -6.6926   25.2379 F   0  0  0  0  0  0  0  0  0  0  0  0
  -22.0752   -5.1735   23.4069 F   0  0  0  0  0  0  0  0  0  0  0  0
  -29.3473  -18.2524   18.7714 F   0  0  0  0  0  0  0  0  0  0  0  0
  -28.1004  -16.8163   19.8311 F   0  0  0  0  0  0  0  0  0  0  0  0
  1  2  1  0  0  0  0
  1  5  2  0  0  0  0
  2  6  2  0  0  0  0
  3  8  2  0  0  0  0
  3 16  1  0  0  0  0
  4  9  1  0  0  0  0
  4 16  2  0  0  0  0
  5 19  1  0  0  0  0
  6 21  1  0  0  0  0
  7 10  2  0  0  0  0
  7 20  1  0  0  0  0
  8 23  1  0  0  0  0
  9 23  2  0  0  0  0
 10 24  1  0  0  0  0
 11 12  2  0  0  0  0
 11 25  1  0  0  0  0
 12 26  1  0  0  0  0
 13 17  1  0  0  0  0
 13 29  2  0  0  0  0
 14 22  1  0  0  0  0
 14 24  2  0  0  0  0
 15 26  2  0  0  0  0
 15 27  1  0  0  0  0
 16 28  1  0  0  0  0
 17 30  2  0  0  0  0
 17 32  1  0  0  0  0
 18 28  1  0  0  0  0
 18 31  2  0  0  0  0
 18 33  1  0  0  0  0
 19 21  2  0  0  0  0
 19 37  1  0  0  0  0
 20 22  2  0  0  0  0
 20 38  1  0  0  0  0
 21 55  1  0  0  0  0
 22 39  1  0  0  0  0
 23 90  1  0  0  0  0
 24 91  1  0  0  0  0
 25 27  2  0  0  0  0
 25 90  1  0  0  0  0
 26 92  1  0  0  0  0
 27 93  1  0  0  0  0
 28 74  2  0  0  0  0
 29 65  1  0  0  0  0
 29 75  1  0  0  0  0
 30 70  1  0  0  0  0
 30 75  1  0  0  0  0
 31 76  1  0  0  0  0
 31 79  1  0  0  0  0
 32 77  1  0  0  0  0
 32 85  2  0  0  0  0
 33 80  1  0  0  0  0
 33 86  2  0  0  0  0
 34 56  1  0  0  0  0
 34 81  1  0  0  0  0
 34 87  2  0  0  0  0
 35 71  1  0  0  0  0
 35 78  1  0  0  0  0
 35 88  2  0  0  0  0
 36 72  1  0  0  0  0
 36 82  1  0  0  0  0
 36 89  2  0  0  0  0
 37 40  1  0  0  0  0
 38 56  1  0  0  0  0
 39 78  1  0  0  0  0
 40 45  1  0  0  0  0
 41 42  1  0  0  0  0
 41 43  1  0  0  0  0
 42 46  1  0  0  0  0
 43 47  1  0  0  0  0
 44 48  1  0  0  0  0
 44 51  1  0  0  0  0
 45 55  1  0  0  0  0
 46 58  1  0  0  0  0
 47 58  1  0  0  0  0
 48 59  1  0  0  0  0
 49 53  1  0  0  0  0
 49 57  1  0  0  0  0
 50 54  1  0  0  0  0
 50 57  1  0  0  0  0
 51 77  1  0  0  0  0
 52 59  1  0  0  0  0
 52 77  1  0  0  0  0
 53 83  1  0  0  0  0
 54 83  1  0  0  0  0
 55 81  1  0  0  0  0
 56 78  1  0  0  0  0
 57 66  1  0  0  0  0
 58 75  1  0  0  0  0
 59 76  1  0  0  0  0
 60 72  1  0  0  0  0
 61 73  1  0  0  0  0
 62 73  1  0  0  0  0
 63 73  1  0  0  0  0
 64 84  1  0  0  0  0
 65 66  1  0  0  0  0
 67 68  1  0  0  0  0
 67 69  1  0  0  0  0
 68 83  1  0  0  0  0
 69 91  1  0  0  0  0
 70 94  1  0  0  0  0
 70 95  1  0  0  0  0
 71 73  1  0  0  0  0
 71 82  1  0  0  0  0
 72 84  1  0  0  0  0
 74 76  1  0  0  0  0
M  CHG  2  83   1  84   1
M  ISO  4  17 100  32 100  69 101  91 101
M  END
> <Batch ID>
0027

> <Smiles>
CNC(C)C(=O)NC(C(=O)N1Cc2cc([101O:1][101CH2:1]CCN3CCC(CCc4c[100c:0]([100C:0](=O)N5CCCC(n6nc(-c7ccc(Oc8ccc(F)cc8F)cc7)c(C(N)=O)c6N)C5)c(C(F)F)n4C4CCCCC4)CC3)ccc2CC1C(=O)NC1CCCc2ccccc21)C(C)(C)C

> <Shape>
0.242

> <Color>
0.149

> <Negative vol penalty>
0.000

$$$$

  -OEChem-04052316303D

 85 93  0     1  0  0  0  0  0999 V2000
  -17.6091  -26.5040   20.8305 C   0  0  0  0  0  0  0  0  0  0  0  0
  -18.9032  -26.4742   20.3210 C   0  0  0  0  0  0  0  0  0  0  0  0
  -24.0307   -9.6914   22.1083 C   0  0  0  0  0  0  0  0  0  0  0  0
  -24.6259  -11.2184   23.8834 C   0  0  0  0  0  0  0  0  0  0  0  0
  -17.3033  -27.3378   21.9053 C   0  0  0  0  0  0  0  0  0  0  0  0
  -19.8922  -27.2791   20.8853 C   0  0  0  0  0  0  0  0  0  0  0  0
  -24.2501  -24.7973   21.5882 C   0  0  0  0  0  0  0  0  0  0  0  0
  -23.6305   -8.7476   23.0542 C   0  0  0  0  0  0  0  0  0  0  0  0
  -24.2257  -10.2747   24.8294 C   0  0  0  0  0  0  0  0  0  0  0  0
  -25.0585  -24.6007   20.4695 C   0  0  0  0  0  0  0  0  0  0  0  0
  -20.9506   -8.1928   25.0399 C   0  0  0  0  0  0  0  0  0  0  0  0
  -19.7399   -7.5338   24.8262 C   0  0  0  0  0  0  0  0  0  0  0  0
  -26.4370  -26.4611   21.1463 C   0  0  0  0  0  0  0  0  0  0  0  0
  -28.2582  -20.1703   17.5868 C   0  0  0  0  0  0  0  0  0  0  0  0
  -20.9007   -5.4154   24.7830 C   0  0  0  0  0  0  0  0  0  0  0  0
  -24.5285  -10.9267   22.5228 C   0  0  0  0  0  0  0  0  0  0  0  0
  -24.1481  -12.9012   20.9530 C   0  0  0  0  0  0  0  0  0  0  0  0
  -18.2913  -28.1461   22.4893 C   0  0  0  0  0  0  0  0  0  0  0  0
  -24.5231  -25.8358   22.4901 C   0  0  0  0  0  0  0  0  0  0  0  0
  -19.5991  -28.1255   21.9681 C   0  0  0  0  0  0  0  0  0  0  0  0
  -25.6320  -26.6671   22.2771 C   0  0  0  0  0  0  0  0  0  0  0  0
  -28.1557  -18.8339   17.9731 C   0  0  0  0  0  0  0  0  0  0  0  0
  -29.3130  -20.9530   18.0564 C   0  0  0  0  0  0  0  0  0  0  0  0
  -30.1626  -19.0630   19.2986 C   0  0  0  0  0  0  0  0  0  0  0  0
  -29.1078  -18.2803   18.8290 C   0  0  0  0  0  0  0  0  0  0  0  0
  -23.7280   -9.0393   24.4148 C   0  0  0  0  0  0  0  0  0  0  0  0
  -26.1505  -25.4345   20.2469 C   0  0  0  0  0  0  0  0  0  0  0  0
  -22.1363   -7.4631   25.1251 C   0  0  0  0  0  0  0  0  0  0  0  0
  -19.7150   -6.1451   24.6977 C   0  0  0  0  0  0  0  0  0  0  0  0
  -22.1114   -6.0744   24.9967 C   0  0  0  0  0  0  0  0  0  0  0  0
  -30.2651  -20.3994   18.9123 C   0  0  0  0  0  0  0  0  0  0  0  0
  -24.9425  -11.9018   21.5461 C   0  0  0  0  0  0  0  0  0  0  0  0
  -25.0024  -13.5588   20.1020 C   0  0  0  0  0  0  0  0  0  0  0  0
  -22.7620  -13.2078   21.1534 C   0  0  0  0  0  0  0  0  0  0  0  0
  -22.9645  -28.4296   23.4629 C   0  0  0  0  0  0  0  0  0  0  0  0
  -25.4549  -28.6763   25.5268 C   0  0  0  0  0  0  0  0  0  0  0  0
  -28.7050  -27.9260   26.2482 C   0  0  0  0  0  0  0  0  0  0  0  0
  -29.9303  -15.9054   19.0008 C   0  0  0  0  0  0  0  0  0  0  0  0
  -17.9021  -29.0663   23.6192 C   0  0  0  0  0  0  0  0  0  0  0  0
  -23.6571  -26.0178   23.7064 C   0  0  0  0  0  0  0  0  0  0  0  0
  -25.9800  -27.7837   23.2261 C   0  0  0  0  0  0  0  0  0  0  0  0
  -19.0954  -29.6095   24.4010 C   0  0  0  0  0  0  0  0  0  0  0  0
  -29.6809  -12.3797   18.5711 C   0  0  0  0  0  0  0  0  0  0  0  0
  -20.1770  -30.1065   23.4471 C   0  0  0  0  0  0  0  0  0  0  0  0
  -28.3606  -12.0233   19.2580 C   0  0  0  0  0  0  0  0  0  0  0  0
  -30.4240  -13.4899   19.3120 C   0  0  0  0  0  0  0  0  0  0  0  0
  -28.3147  -14.3453   20.2544 C   0  0  0  0  0  0  0  0  0  0  0  0
  -20.7051  -28.9655   22.5691 C   0  0  1  0  0  0  0  0  0  0  0  0
  -23.7267  -27.4281   24.2838 C   0  0  1  0  0  0  0  0  0  0  0  0
  -27.4992  -13.2767   19.5083 C   0  0  2  0  0  0  0  0  0  0  0  0
  -27.0143  -18.0204   17.4539 C   0  0  0  0  0  0  0  0  0  0  0  0
  -31.1966  -18.4946   20.2160 C   0  0  0  0  0  0  0  0  0  0  0  0
  -30.4728  -28.2983   27.9900 C   0  0  0  0  0  0  0  0  0  0  0  0
  -30.6472  -25.1408   18.4266 C   0  0  0  0  0  0  0  0  0  0  0  0
  -25.8522  -31.5258   24.5108 C   0  0  0  0  0  0  0  0  0  0  0  0
  -28.1319  -31.5025   25.5455 C   0  0  0  0  0  0  0  0  0  0  0  0
  -26.1089  -31.2546   26.9837 C   0  0  0  0  0  0  0  0  0  0  0  0
  -28.9452  -25.0265   26.7908 C   0  0  0  0  0  0  0  0  0  0  0  0
  -29.4205  -22.3898   17.6379 C   0  0  0  0  0  0  0  0  0  0  0  0
  -28.3147  -25.6114   19.2769 C   0  0  0  0  0  0  0  0  0  1  0  0
  -26.8111  -29.3383   25.4914 C   0  0  1  0  0  0  0  0  0  0  0  0
  -29.3581  -27.3836   27.5067 C   0  0  2  0  0  0  0  0  0  0  0  0
  -29.1745  -24.7755   18.3355 C   0  0  2  0  0  0  0  0  0  0  0  0
  -26.7186  -30.8856   25.6138 C   0  0  0  0  0  0  0  0  0  0  0  0
  -26.2045  -11.9190   21.1088 N   0  0  0  0  0  0  0  0  0  0  0  0
  -26.2095  -12.9373   20.2318 N   0  0  0  0  0  0  0  0  0  0  0  0
  -25.0993  -27.9253   24.3974 N   0  0  0  0  0  0  0  0  0  0  0  0
  -29.5473  -14.6463   19.5095 N   0  0  0  0  0  0  0  0  0  0  0  0
  -24.8313  -14.6023   19.2627 N   0  0  0  0  0  0  0  0  0  0  0  0
  -22.0311  -12.4328   22.0642 N   0  0  0  0  0  0  0  0  0  0  0  0
  -29.0023  -16.9227   19.2207 N   0  0  0  0  0  0  0  0  0  0  0  0
  -21.6224  -28.1341   23.3186 N   0  0  0  0  0  0  0  0  0  0  0  0
  -27.6032  -28.7024   26.5387 N   0  0  0  0  0  0  0  0  0  0  0  0
  -29.9357  -26.0340   27.2501 N   0  3  0  0  0  0  0  0  0  0  0  0
  -29.0275  -23.3391   18.7101 N   0  3  0  0  0  0  0  0  0  0  0  0
  -22.1843  -14.1310   20.5308 O   0  0  0  0  0  0  0  0  0  0  0  0
  -23.5504  -29.3995   22.9962 O   0  0  0  0  0  0  0  0  0  0  0  0
  -24.7403  -28.8142   26.5228 O   0  0  0  0  0  0  0  0  0  0  0  0
  -29.1319  -27.6879   25.1206 O   0  0  0  0  0  0  0  0  0  0  0  0
  -30.9902  -16.0632   18.3895 O   0  0  0  0  0  0  0  0  0  0  0  0
  -23.3373   -8.1188   25.3381 O   0  0  0  0  0  0  0  0  0  0  0  0
  -26.9408  -25.2453   19.1553 O   0  0  0  0  0  0  0  0  0  1  0  0
  -18.5522   -5.5123   24.4940 F   0  0  0  0  0  0  0  0  0  0  0  0
  -23.2471   -5.3679   25.0788 F   0  0  0  0  0  0  0  0  0  0  0  0
  -31.2796  -21.1528   19.3626 F   0  0  0  0  0  0  0  0  0  0  0  0
  1  2  1  0  0  0  0
  1  5  2  0  0  0  0
  2  6  2  0  0  0  0
  3  8  2  0  0  0  0
  3 16  1  0  0  0  0
  4  9  1  0  0  0  0
  4 16  2  0  0  0  0
  5 18  1  0  0  0  0
  6 20  1  0  0  0  0
  7 10  2  0  0  0  0
  7 19  1  0  0  0  0
  8 26  1  0  0  0  0
  9 26  2  0  0  0  0
 10 27  1  0  0  0  0
 11 12  2  0  0  0  0
 11 28  1  0  0  0  0
 12 29  1  0  0  0  0
 13 21  1  0  0  0  0
 13 27  2  0  0  0  0
 14 22  2  0  0  0  0
 14 23  1  0  0  0  0
 15 29  2  0  0  0  0
 15 30  1  0  0  0  0
 16 32  1  0  0  0  0
 17 32  1  0  0  0  0
 17 33  2  0  0  0  0
 17 34  1  0  0  0  0
 18 20  2  0  0  0  0
 18 39  1  0  0  0  0
 19 21  2  0  0  0  0
 19 40  1  0  0  0  0
 20 48  1  0  0  0  0
 21 41  1  0  0  0  0
 22 25  1  0  0  0  0
 22 51  1  0  0  0  0
 23 31  2  0  0  0  0
 23 59  1  0  0  0  0
 24 25  2  0  0  0  0
 24 31  1  0  0  0  0
 24 52  1  0  0  0  0
 25 71  1  0  0  0  0
 26 81  1  0  0  0  0
 27 82  1  0  0  0  0
 28 30  2  0  0  0  0
 28 81  1  0  0  0  0
 29 83  1  0  0  0  0
 30 84  1  0  0  0  0
 31 85  1  0  0  0  0
 32 65  2  0  0  0  0
 33 66  1  0  0  0  0
 33 69  1  0  0  0  0
 34 70  1  0  0  0  0
 34 76  2  0  0  0  0
 35 49  1  0  0  0  0
 35 72  1  0  0  0  0
 35 77  2  0  0  0  0
 36 61  1  0  0  0  0
 36 67  1  0  0  0  0
 36 78  2  0  0  0  0
 37 62  1  0  0  0  0
 37 73  1  0  0  0  0
 37 79  2  0  0  0  0
 38 68  1  0  0  0  0
 38 71  1  0  0  0  0
 38 80  2  0  0  0  0
 39 42  1  0  0  0  0
 40 49  1  0  0  0  0
 41 67  1  0  0  0  0
 42 44  1  0  0  0  0
 43 45  1  0  0  0  0
 43 46  1  0  0  0  0
 44 48  1  0  0  0  0
 45 50  1  0  0  0  0
 46 68  1  0  0  0  0
 47 50  1  0  0  0  0
 47 68  1  0  0  0  0
 48 72  1  0  0  0  0
 49 67  1  0  0  0  0
 50 66  1  0  0  0  0
 53 62  1  0  0  0  0
 54 63  1  0  0  0  0
 55 64  1  0  0  0  0
 56 64  1  0  0  0  0
 57 64  1  0  0  0  0
 58 74  1  0  0  0  0
 59 75  1  0  0  0  0
 60 63  1  0  0  0  0
 60 82  1  0  0  0  0
 61 64  1  0  0  0  0
 61 73  1  0  0  0  0
 62 74  1  0  0  0  0
 63 75  1  0  0  0  0
 65 66  1  0  0  0  0
M  CHG  2  74   1  75   1
M  ISO  4  38 100  60 101  71 100  82 101
M  END
> <Batch ID>
0027

> <Smiles>
CNC(C)C(=O)NC(C(=O)N1Cc2cc([101O:1][101CH2:1]C(C)NCc3cc(C)c([100NH:0][100C:0](=O)N4CCCC(n5nc(-c6ccc(Oc7ccc(F)cc7F)cc6)c(C(N)=O)c5N)C4)c(C)c3F)ccc2CC1C(=O)NC1CCCc2ccccc21)C(C)(C)C

> <Shape>
0.285

> <Color>
0.125

> <Negative vol penalty>
0.000

$$$$

  -OEChem-04052316303D

 84 92  0     1  0  0  0  0  0999 V2000
  -27.3119  -19.2241   38.7742 C   0  0  0  0  0  0  0  0  0  0  0  0
  -27.8312  -18.8577   37.5366 C   0  0  0  0  0  0  0  0  0  0  0  0
  -23.0754   -9.8679   19.9404 C   0  0  0  0  0  0  0  0  0  0  0  0
  -23.8346   -9.8748   22.2341 C   0  0  0  0  0  0  0  0  0  0  0  0
  -26.4819  -20.3395   38.8780 C   0  0  0  0  0  0  0  0  0  0  0  0
  -27.5199  -19.6060   36.4019 C   0  0  0  0  0  0  0  0  0  0  0  0
  -31.1672  -20.7163   31.6092 C   0  0  0  0  0  0  0  0  0  0  0  0
  -22.3312   -8.7150   20.1902 C   0  0  0  0  0  0  0  0  0  0  0  0
  -23.0903   -8.7218   22.4838 C   0  0  0  0  0  0  0  0  0  0  0  0
  -31.2661  -20.1273   30.3494 C   0  0  0  0  0  0  0  0  0  0  0  0
  -19.8618   -7.9247   23.0853 C   0  0  0  0  0  0  0  0  0  0  0  0
  -19.1044   -7.8849   24.2559 C   0  0  0  0  0  0  0  0  0  0  0  0
  -29.8476  -21.8527   29.4382 C   0  0  0  0  0  0  0  0  0  0  0  0
  -32.2347  -18.2111   23.1512 C   0  0  0  0  0  0  0  0  0  0  0  0
  -20.3452   -5.9472   24.9928 C   0  0  0  0  0  0  0  0  0  0  0  0
  -23.8272  -10.4478   20.9624 C   0  0  0  0  0  0  0  0  0  0  0  0
  -24.1696  -12.9729   20.8425 C   0  0  0  0  0  0  0  0  0  0  0  0
  -26.1680  -21.1075   37.7456 C   0  0  0  0  0  0  0  0  0  0  0  0
  -30.3977  -21.8737   31.7955 C   0  0  0  0  0  0  0  0  0  0  0  0
  -26.6838  -20.7320   36.4905 C   0  0  0  0  0  0  0  0  0  0  0  0
  -29.7427  -22.4559   30.7008 C   0  0  0  0  0  0  0  0  0  0  0  0
  -31.5653  -19.3898   22.8222 C   0  0  0  0  0  0  0  0  0  0  0  0
  -29.9162  -18.1128   21.6027 C   0  0  0  0  0  0  0  0  0  0  0  0
  -30.5857  -16.9342   21.9316 C   0  0  0  0  0  0  0  0  0  0  0  0
  -22.3386   -8.1419   21.4618 C   0  0  0  0  0  0  0  0  0  0  0  0
  -30.6039  -20.6939   29.2642 C   0  0  0  0  0  0  0  0  0  0  0  0
  -20.8608   -6.9757   22.8683 C   0  0  0  0  0  0  0  0  0  0  0  0
  -19.3461   -6.8962   25.2097 C   0  0  0  0  0  0  0  0  0  0  0  0
  -21.1025   -5.9870   23.8221 C   0  0  0  0  0  0  0  0  0  0  0  0
  -31.7450  -16.9833   22.7058 C   0  0  0  0  0  0  0  0  0  0  0  0
  -30.4060  -19.3407   22.0480 C   0  0  0  0  0  0  0  0  0  0  0  0
  -24.5966  -11.6385   20.7049 C   0  0  0  0  0  0  0  0  0  0  0  0
  -25.2621  -13.7221   20.4796 C   0  0  0  0  0  0  0  0  0  0  0  0
  -22.8991  -13.4890   21.2610 C   0  0  0  0  0  0  0  0  0  0  0  0
  -27.8301  -22.6068   33.5200 C   0  0  0  0  0  0  0  0  0  0  0  0
  -28.4411  -25.6039   32.4398 C   0  0  0  0  0  0  0  0  0  0  0  0
  -29.8681  -27.5912   30.0606 C   0  0  0  0  0  0  0  0  0  0  0  0
  -30.7285  -14.7664   20.6561 C   0  0  0  0  0  0  0  0  0  0  0  0
  -25.2284  -22.2772   37.8995 C   0  0  0  0  0  0  0  0  0  0  0  0
  -30.3229  -22.5120   33.1554 C   0  0  0  0  0  0  0  0  0  0  0  0
  -28.9204  -23.7096   30.8438 C   0  0  0  0  0  0  0  0  0  0  0  0
  -25.2495  -23.2358   36.7116 C   0  0  0  0  0  0  0  0  0  0  0  0
  -29.6143  -12.3529   18.2874 C   0  0  0  0  0  0  0  0  0  0  0  0
  -25.1789  -22.4613   35.3993 C   0  0  0  0  0  0  0  0  0  0  0  0
  -28.1744  -12.0616   18.7165 C   0  0  0  0  0  0  0  0  0  0  0  0
  -30.5290  -12.5815   19.4894 C   0  0  0  0  0  0  0  0  0  0  0  0
  -28.6218  -13.3064   20.8700 C   0  0  0  0  0  0  0  0  0  0  0  0
  -26.3891  -21.5330   35.2408 C   0  0  1  0  0  0  0  0  0  0  0  0
  -29.0937  -23.3980   33.3329 C   0  0  1  0  0  0  0  0  0  0  0  0
  -27.6493  -13.1334   19.6919 C   0  0  2  0  0  0  0  0  0  0  0  0
  -28.6716  -18.0461   20.7701 C   0  0  0  0  0  0  0  0  0  0  0  0
  -30.1683  -30.0010   29.4280 C   0  0  0  0  0  0  0  0  0  0  0  0
  -25.5549  -25.7023   31.4548 C   0  0  0  0  0  0  0  0  0  0  0  0
  -26.1794  -27.6688   30.0366 C   0  0  0  0  0  0  0  0  0  0  0  0
  -26.3663  -27.8145   32.5198 C   0  0  0  0  0  0  0  0  0  0  0  0
  -32.8146  -27.3965   30.2582 C   0  0  0  0  0  0  0  0  0  0  0  0
  -32.1312  -20.6934   23.3264 C   0  0  0  0  0  0  0  0  0  0  0  0
  -31.3647  -21.2823   24.5160 C   0  0  0  0  0  0  0  0  0  0  0  0
  -31.4094  -20.3904   25.7575 C   0  0  0  0  0  0  0  0  0  0  0  0
  -30.6054  -20.9880   26.9043 C   0  0  0  0  0  0  0  0  0  1  0  0
  -28.0279  -26.4100   31.2322 C   0  0  1  0  0  0  0  0  0  0  0  0
  -30.7602  -28.8144   30.1726 C   0  0  2  0  0  0  0  0  0  0  0  0
  -26.5459  -26.8742   31.3082 C   0  0  0  0  0  0  0  0  0  0  0  0
  -25.8616  -11.5424   20.2870 N   0  0  0  0  0  0  0  0  0  0  0  0
  -26.2388  -12.8259   20.1588 N   0  0  0  0  0  0  0  0  0  0  0  0
  -28.8728  -24.2926   32.1949 N   0  0  0  0  0  0  0  0  0  0  0  0
  -29.9700  -13.6124   20.3666 N   0  0  0  0  0  0  0  0  0  0  0  0
  -25.4728  -15.0535   20.4066 N   0  0  0  0  0  0  0  0  0  0  0  0
  -21.8869  -12.5801   21.5979 N   0  0  0  0  0  0  0  0  0  0  0  0
  -30.0810  -15.6916   21.4743 N   0  0  0  0  0  0  0  0  0  0  0  0
  -27.5557  -22.2880   34.8362 N   0  0  0  0  0  0  0  0  0  0  0  0
  -28.9906  -27.5004   31.1203 N   0  0  0  0  0  0  0  0  0  0  0  0
  -32.1072  -28.5269   29.6036 N   0  3  0  0  0  0  0  0  0  0  0  0
  -22.6631  -14.7197   21.3182 O   0  0  0  0  0  0  0  0  0  0  0  0
  -27.1534  -22.3090   32.5427 O   0  0  0  0  0  0  0  0  0  0  0  0
  -28.3896  -26.1210   33.5586 O   0  0  0  0  0  0  0  0  0  0  0  0
  -29.9398  -26.7979   29.1247 O   0  0  0  0  0  0  0  0  0  0  0  0
  -31.8577  -14.9349   20.1888 O   0  0  0  0  0  0  0  0  0  0  0  0
  -21.6123   -7.0169   21.7059 O   0  0  0  0  0  0  0  0  0  0  0  0
  -30.6981  -20.1206   28.0336 O   0  0  0  0  0  0  0  0  0  1  0  0
  -18.6198   -6.8591   26.3345 F   0  0  0  0  0  0  0  0  0  0  0  0
  -22.0617   -5.0733   23.6198 F   0  0  0  0  0  0  0  0  0  0  0  0
  -32.6081  -15.5500   23.1385 Cl  0  0  0  0  0  0  0  0  0  0  0  0
  -29.5781  -20.8078   21.6421 Cl  0  0  0  0  0  0  0  0  0  0  0  0
  1  2  1  0  0  0  0
  1  5  2  0  0  0  0
  2  6  2  0  0  0  0
  3  8  2  0  0  0  0
  3 16  1  0  0  0  0
  4  9  1  0  0  0  0
  4 16  2  0  0  0  0
  5 18  1  0  0  0  0
  6 20  1  0  0  0  0
  7 10  2  0  0  0  0
  7 19  1  0  0  0  0
  8 25  1  0  0  0  0
  9 25  2  0  0  0  0
 10 26  1  0  0  0  0
 11 12  2  0  0  0  0
 11 27  1  0  0  0  0
 12 28  1  0  0  0  0
 13 21  1  0  0  0  0
 13 26  2  0  0  0  0
 14 22  1  0  0  0  0
 14 30  2  0  0  0  0
 15 28  2  0  0  0  0
 15 29  1  0  0  0  0
 16 32  1  0  0  0  0
 17 32  1  0  0  0  0
 17 33  2  0  0  0  0
 17 34  1  0  0  0  0
 18 20  2  0  0  0  0
 18 39  1  0  0  0  0
 19 21  2  0  0  0  0
 19 40  1  0  0  0  0
 20 48  1  0  0  0  0
 21 41  1  0  0  0  0
 22 31  2  0  0  0  0
 22 57  1  0  0  0  0
 23 24  2  0  0  0  0
 23 31  1  0  0  0  0
 23 51  1  0  0  0  0
 24 30  1  0  0  0  0
 24 70  1  0  0  0  0
 25 79  1  0  0  0  0
 26 80  1  0  0  0  0
 27 29  2  0  0  0  0
 27 79  1  0  0  0  0
 28 81  1  0  0  0  0
 29 82  1  0  0  0  0
 30 83  1  0  0  0  0
 31 84  1  0  0  0  0
 32 64  2  0  0  0  0
 33 65  1  0  0  0  0
 33 68  1  0  0  0  0
 34 69  1  0  0  0  0
 34 74  2  0  0  0  0
 35 49  1  0  0  0  0
 35 71  1  0  0  0  0
 35 75  2  0  0  0  0
 36 61  1  0  0  0  0
 36 66  1  0  0  0  0
 36 76  2  0  0  0  0
 37 62  1  0  0  0  0
 37 72  1  0  0  0  0
 37 77  2  0  0  0  0
 38 67  1  0  0  0  0
 38 70  1  0  0  0  0
 38 78  2  0  0  0  0
 39 42  1  0  0  0  0
 40 49  1  0  0  0  0
 41 66  1  0  0  0  0
 42 44  1  0  0  0  0
 43 45  1  0  0  0  0
 43 46  1  0  0  0  0
 44 48  1  0  0  0  0
 45 50  1  0  0  0  0
 46 67  1  0  0  0  0
 47 50  1  0  0  0  0
 47 67  1  0  0  0  0
 48 71  1  0  0  0  0
 49 66  1  0  0  0  0
 50 65  1  0  0  0  0
 52 62  1  0  0  0  0
 53 63  1  0  0  0  0
 54 63  1  0  0  0  0
 55 63  1  0  0  0  0
 56 73  1  0  0  0  0
 57 58  1  0  0  0  0
 58 59  1  0  0  0  0
 59 60  1  0  0  0  0
 60 80  1  0  0  0  0
 61 63  1  0  0  0  0
 61 72  1  0  0  0  0
 62 73  1  0  0  0  0
 64 65  1  0  0  0  0
M  CHG  1  73   1
M  ISO  4  38 100  60 101  70 100  80 101
M  END
> <Batch ID>
0027

> <Smiles>
CNC(C)C(=O)NC(C(=O)N1Cc2cc([101O:1][101CH2:1]CCCc3cc(Cl)c([100NH:0][100C:0](=O)N4CCCC(n5nc(-c6ccc(Oc7ccc(F)cc7F)cc6)c(C(N)=O)c5N)C4)c(C)c3Cl)ccc2CC1C(=O)NC1CCCc2ccccc21)C(C)(C)C

> <Shape>
0.184

> <Color>
0.200

> <Negative vol penalty>
0.000

$$$$

  -OEChem-04052316303D

 86 94  0     1  0  0  0  0  0999 V2000
  -27.7615  -27.5171   36.0539 C   0  0  0  0  0  0  0  0  0  0  0  0
  -27.2737  -27.3073   34.7681 C   0  0  0  0  0  0  0  0  0  0  0  0
  -23.1177   -9.8534   20.1209 C   0  0  0  0  0  0  0  0  0  0  0  0
  -23.8654  -10.0192   22.4123 C   0  0  0  0  0  0  0  0  0  0  0  0
  -29.1337  -27.4627   36.2952 C   0  0  0  0  0  0  0  0  0  0  0  0
  -28.1579  -27.0441   33.7225 C   0  0  0  0  0  0  0  0  0  0  0  0
  -27.1903  -23.3696   28.9196 C   0  0  0  0  0  0  0  0  0  0  0  0
  -22.3830   -8.7123   20.4432 C   0  0  0  0  0  0  0  0  0  0  0  0
  -23.1307   -8.8782   22.7346 C   0  0  0  0  0  0  0  0  0  0  0  0
  -26.7974  -23.6258   27.6067 C   0  0  0  0  0  0  0  0  0  0  0  0
  -19.9069   -8.0916   23.3737 C   0  0  0  0  0  0  0  0  0  0  0  0
  -19.1442   -8.1221   24.5411 C   0  0  0  0  0  0  0  0  0  0  0  0
  -29.1095  -23.6140   26.9189 C   0  0  0  0  0  0  0  0  0  0  0  0
  -20.3993   -6.2494   25.4100 C   0  0  0  0  0  0  0  0  0  0  0  0
  -23.8589  -10.5068   21.1054 C   0  0  0  0  0  0  0  0  0  0  0  0
  -24.1784  -13.0216   20.8200 C   0  0  0  0  0  0  0  0  0  0  0  0
  -30.0344  -27.1891   35.2539 C   0  0  0  0  0  0  0  0  0  0  0  0
  -28.5487  -23.2443   29.2445 C   0  0  0  0  0  0  0  0  0  0  0  0
  -29.5435  -26.9873   33.9498 C   0  0  0  0  0  0  0  0  0  0  0  0
  -29.5169  -23.3537   28.2362 C   0  0  0  0  0  0  0  0  0  0  0  0
  -31.4923  -19.6322   22.3971 C   0  0  0  0  0  0  0  0  0  0  0  0
  -30.3386  -19.5139   21.6221 C   0  0  0  0  0  0  0  0  0  0  0  0
  -29.8684  -18.2518   21.2596 C   0  0  0  0  0  0  0  0  0  0  0  0
  -32.1759  -18.4884   22.8094 C   0  0  0  0  0  0  0  0  0  0  0  0
  -30.5519  -17.1079   21.6720 C   0  0  0  0  0  0  0  0  0  0  0  0
  -22.3895   -8.2247   21.7500 C   0  0  0  0  0  0  0  0  0  0  0  0
  -27.7572  -23.7509   26.6066 C   0  0  0  0  0  0  0  0  0  0  0  0
  -20.9157   -7.1400   23.2243 C   0  0  0  0  0  0  0  0  0  0  0  0
  -19.3904   -7.2010   25.5593 C   0  0  0  0  0  0  0  0  0  0  0  0
  -21.1619   -6.2189   24.2425 C   0  0  0  0  0  0  0  0  0  0  0  0
  -31.7056  -17.2262   22.4469 C   0  0  0  0  0  0  0  0  0  0  0  0
  -24.6185  -11.6852   20.7730 C   0  0  0  0  0  0  0  0  0  0  0  0
  -25.2656  -13.7556   20.4130 C   0  0  0  0  0  0  0  0  0  0  0  0
  -22.9011  -13.5520   21.1980 C   0  0  0  0  0  0  0  0  0  0  0  0
  -30.5598  -24.8283   31.1287 C   0  0  0  0  0  0  0  0  0  0  0  0
  -32.5930  -22.4352   30.3153 C   0  0  0  0  0  0  0  0  0  0  0  0
  -33.4616  -20.0050   28.0823 C   0  0  0  0  0  0  0  0  0  0  0  0
  -30.7211  -14.8620   20.5434 C   0  0  0  0  0  0  0  0  0  0  0  0
  -31.5124  -27.1872   35.5543 C   0  0  0  0  0  0  0  0  0  0  0  0
  -28.9546  -22.9413   30.6608 C   0  0  0  0  0  0  0  0  0  0  0  0
  -30.9870  -23.2075   28.5293 C   0  0  0  0  0  0  0  0  0  0  0  0
  -32.3549  -26.5319   34.4629 C   0  0  0  0  0  0  0  0  0  0  0  0
  -29.6411  -12.2863   18.3350 C   0  0  0  0  0  0  0  0  0  0  0  0
  -31.9307  -27.0348   33.0867 C   0  0  0  0  0  0  0  0  0  0  0  0
  -28.2019  -12.0103   18.7763 C   0  0  0  0  0  0  0  0  0  0  0  0
  -30.5478  -12.6028   19.5231 C   0  0  0  0  0  0  0  0  0  0  0  0
  -28.6271  -13.3990   20.8445 C   0  0  0  0  0  0  0  0  0  0  0  0
  -30.4691  -26.6746   32.7941 C   0  0  1  0  0  0  0  0  0  0  0  0
  -30.3936  -23.3435   30.9689 C   0  0  1  0  0  0  0  0  0  0  0  0
  -27.6621  -13.1391   19.6763 C   0  0  2  0  0  0  0  0  0  0  0  0
  -31.9961  -20.9867   22.7858 C   0  0  0  0  0  0  0  0  0  0  0  0
  -28.6293  -18.1326   20.4270 C   0  0  0  0  0  0  0  0  0  0  0  0
  -33.4130  -18.6368   23.6407 C   0  0  0  0  0  0  0  0  0  0  0  0
  -35.1934  -18.2362   27.6703 C   0  0  0  0  0  0  0  0  0  0  0  0
  -34.5806  -24.5849   29.4562 C   0  0  0  0  0  0  0  0  0  0  0  0
  -35.8437  -22.8199   28.2082 C   0  0  0  0  0  0  0  0  0  0  0  0
  -35.5950  -22.6574   30.6850 C   0  0  0  0  0  0  0  0  0  0  0  0
  -31.4389  -17.8455   28.1466 C   0  0  0  0  0  0  0  0  0  0  0  0
  -29.6045  -20.7452   21.1793 C   0  0  0  0  0  0  0  0  0  0  0  0
  -27.3559  -23.2076   23.0612 C   0  0  0  0  0  0  0  0  0  0  0  0
  -28.1368  -22.6386   21.8862 C   0  0  0  0  0  0  0  0  0  0  0  0
  -28.2145  -23.4939   24.2870 C   0  0  0  0  0  0  0  0  0  1  0  0
  -33.5930  -22.2125   29.2065 C   0  0  1  0  0  0  0  0  0  0  0  0
  -33.8330  -18.5458   28.2754 C   0  0  2  0  0  0  0  0  0  0  0  0
  -34.8756  -23.0734   29.3834 C   0  0  0  0  0  0  0  0  0  0  0  0
  -25.8864  -11.5738   20.3678 N   0  0  0  0  0  0  0  0  0  0  0  0
  -26.2522  -12.8496   20.1565 N   0  0  0  0  0  0  0  0  0  0  0  0
  -31.3342  -22.9179   29.9304 N   0  0  0  0  0  0  0  0  0  0  0  0
  -29.9748  -13.6841   20.3277 N   0  0  0  0  0  0  0  0  0  0  0  0
  -25.4643  -15.0813   20.2530 N   0  0  0  0  0  0  0  0  0  0  0  0
  -21.8958  -12.6576   21.5900 N   0  0  0  0  0  0  0  0  0  0  0  0
  -30.0610  -15.8330   21.2958 N   0  0  0  0  0  0  0  0  0  0  0  0
  -30.3574  -25.2815   32.4183 N   0  0  0  0  0  0  0  0  0  0  0  0
  -33.8395  -20.7753   29.1617 N   0  0  0  0  0  0  0  0  0  0  0  0
  -32.8199  -17.6637   27.6301 N   0  3  0  0  0  0  0  0  0  0  0  0
  -28.8232  -21.3841   22.2742 N   0  3  0  0  0  0  0  0  0  0  0  0
  -22.6534  -14.7814   21.1726 O   0  0  0  0  0  0  0  0  0  0  0  0
  -30.8515  -25.5119   30.1544 O   0  0  0  0  0  0  0  0  0  0  0  0
  -32.9145  -22.1832   31.4792 O   0  0  0  0  0  0  0  0  0  0  0  0
  -32.8964  -20.4206   27.0732 O   0  0  0  0  0  0  0  0  0  0  0  0
  -31.8510  -15.0100   20.0709 O   0  0  0  0  0  0  0  0  0  0  0  0
  -21.6726   -7.1115   22.0650 O   0  0  0  0  0  0  0  0  0  0  0  0
  -27.3765  -24.0017   25.3244 O   0  0  0  0  0  0  0  0  0  1  0  0
  -18.6589   -7.2314   26.6810 F   0  0  0  0  0  0  0  0  0  0  0  0
  -22.1306   -5.3031   24.1052 F   0  0  0  0  0  0  0  0  0  0  0  0
  -32.5605  -15.8072   22.9629 Cl  0  0  0  0  0  0  0  0  0  0  0  0
  1  2  1  0  0  0  0
  1  5  2  0  0  0  0
  2  6  2  0  0  0  0
  3  8  2  0  0  0  0
  3 15  1  0  0  0  0
  4  9  1  0  0  0  0
  4 15  2  0  0  0  0
  5 17  1  0  0  0  0
  6 19  1  0  0  0  0
  7 10  2  0  0  0  0
  7 18  1  0  0  0  0
  8 26  1  0  0  0  0
  9 26  2  0  0  0  0
 10 27  1  0  0  0  0
 11 12  2  0  0  0  0
 11 28  1  0  0  0  0
 12 29  1  0  0  0  0
 13 20  1  0  0  0  0
 13 27  2  0  0  0  0
 14 29  2  0  0  0  0
 14 30  1  0  0  0  0
 15 32  1  0  0  0  0
 16 32  1  0  0  0  0
 16 33  2  0  0  0  0
 16 34  1  0  0  0  0
 17 19  2  0  0  0  0
 17 39  1  0  0  0  0
 18 20  2  0  0  0  0
 18 40  1  0  0  0  0
 19 48  1  0  0  0  0
 20 41  1  0  0  0  0
 21 22  1  0  0  0  0
 21 24  2  0  0  0  0
 21 51  1  0  0  0  0
 22 23  2  0  0  0  0
 22 59  1  0  0  0  0
 23 25  1  0  0  0  0
 23 52  1  0  0  0  0
 24 31  1  0  0  0  0
 24 53  1  0  0  0  0
 25 31  2  0  0  0  0
 25 72  1  0  0  0  0
 26 82  1  0  0  0  0
 27 83  1  0  0  0  0
 28 30  2  0  0  0  0
 28 82  1  0  0  0  0
 29 84  1  0  0  0  0
 30 85  1  0  0  0  0
 31 86  1  0  0  0  0
 32 66  2  0  0  0  0
 33 67  1  0  0  0  0
 33 70  1  0  0  0  0
 34 71  1  0  0  0  0
 34 77  2  0  0  0  0
 35 49  1  0  0  0  0
 35 73  1  0  0  0  0
 35 78  2  0  0  0  0
 36 63  1  0  0  0  0
 36 68  1  0  0  0  0
 36 79  2  0  0  0  0
 37 64  1  0  0  0  0
 37 74  1  0  0  0  0
 37 80  2  0  0  0  0
 38 69  1  0  0  0  0
 38 72  1  0  0  0  0
 38 81  2  0  0  0  0
 39 42  1  0  0  0  0
 40 49  1  0  0  0  0
 41 68  1  0  0  0  0
 42 44  1  0  0  0  0
 43 45  1  0  0  0  0
 43 46  1  0  0  0  0
 44 48  1  0  0  0  0
 45 50  1  0  0  0  0
 46 69  1  0  0  0  0
 47 50  1  0  0  0  0
 47 69  1  0  0  0  0
 48 73  1  0  0  0  0
 49 68  1  0  0  0  0
 50 67  1  0  0  0  0
 54 64  1  0  0  0  0
 55 65  1  0  0  0  0
 56 65  1  0  0  0  0
 57 65  1  0  0  0  0
 58 75  1  0  0  0  0
 59 76  1  0  0  0  0
 60 61  1  0  0  0  0
 60 62  1  0  0  0  0
 61 76  1  0  0  0  0
 62 83  1  0  0  0  0
 63 65  1  0  0  0  0
 63 74  1  0  0  0  0
 64 75  1  0  0  0  0
 66 67  1  0  0  0  0
M  CHG  2  75   1  76   1
M  ISO  4  38 100  62 101  72 100  83 101
M  END
> <Batch ID>
0027

> <Smiles>
CNC(C)C(=O)NC(C(=O)N1Cc2cc([101O:1][101CH2:1]CCNCc3c(C)c(C)c(Cl)c([100NH:0][100C:0](=O)N4CCCC(n5nc(-c6ccc(Oc7ccc(F)cc7F)cc6)c(C(N)=O)c5N)C4)c3C)ccc2CC1C(=O)NC1CCCc2ccccc21)C(C)(C)C

> <Shape>
0.190

> <Color>
0.186

> <Negative vol penalty>
0.000

$$$$

  -OEChem-04052316303D

 86 94  0     1  0  0  0  0  0999 V2000
  -27.3405  -36.4573   19.9014 C   0  0  0  0  0  0  0  0  0  0  0  0
  -27.7265  -35.2450   20.4643 C   0  0  0  0  0  0  0  0  0  0  0  0
  -23.8970   -9.9267   22.2404 C   0  0  0  0  0  0  0  0  0  0  0  0
  -23.0359  -10.1172   19.9912 C   0  0  0  0  0  0  0  0  0  0  0  0
  -26.0262  -36.9016   20.0395 C   0  0  0  0  0  0  0  0  0  0  0  0
  -26.7986  -34.4769   21.1667 C   0  0  0  0  0  0  0  0  0  0  0  0
  -27.0241  -29.5661   19.9507 C   0  0  0  0  0  0  0  0  0  0  0  0
  -23.0867   -8.8121   22.4563 C   0  0  0  0  0  0  0  0  0  0  0  0
  -22.2255   -9.0025   20.2071 C   0  0  0  0  0  0  0  0  0  0  0  0
  -28.0578  -28.8179   20.5123 C   0  0  0  0  0  0  0  0  0  0  0  0
  -23.1204   -5.5206   21.6834 C   0  0  0  0  0  0  0  0  0  0  0  0
  -23.6947   -4.4124   22.3061 C   0  0  0  0  0  0  0  0  0  0  0  0
  -26.5280  -27.9579   22.1674 C   0  0  0  0  0  0  0  0  0  0  0  0
  -28.0272  -24.8409   19.7425 C   0  0  0  0  0  0  0  0  0  0  0  0
  -28.9026  -22.6983   20.4348 C   0  0  0  0  0  0  0  0  0  0  0  0
  -22.0876   -4.5884   24.1015 C   0  0  0  0  0  0  0  0  0  0  0  0
  -23.8716  -10.5793   21.0079 C   0  0  0  0  0  0  0  0  0  0  0  0
  -26.0229  -11.7421   20.2817 C   0  0  0  0  0  0  0  0  0  0  0  0
  -25.0793  -36.1339   20.7357 C   0  0  0  0  0  0  0  0  0  0  0  0
  -25.7349  -29.5242   20.5008 C   0  0  0  0  0  0  0  0  0  0  0  0
  -25.4707  -34.9120   21.3154 C   0  0  0  0  0  0  0  0  0  0  0  0
  -25.4791  -28.7045   21.6094 C   0  0  0  0  0  0  0  0  0  0  0  0
  -28.9613  -24.0917   20.4577 C   0  0  0  0  0  0  0  0  0  0  0  0
  -26.9755  -22.8033   18.9815 C   0  0  0  0  0  0  0  0  0  0  0  0
  -22.2509   -8.3500   21.4397 C   0  0  0  0  0  0  0  0  0  0  0  0
  -27.8105  -28.0159   21.6226 C   0  0  0  0  0  0  0  0  0  0  0  0
  -22.0298   -6.1627   22.2698 C   0  0  0  0  0  0  0  0  0  0  0  0
  -23.1783   -3.9463   23.5151 C   0  0  0  0  0  0  0  0  0  0  0  0
  -21.5133   -5.6966   23.4788 C   0  0  0  0  0  0  0  0  0  0  0  0
  -27.0342  -24.1967   19.0044 C   0  0  0  0  0  0  0  0  0  0  0  0
  -27.9097  -22.0540   19.6967 C   0  0  0  0  0  0  0  0  0  0  0  0
  -24.7080  -11.7310   20.7844 C   0  0  0  0  0  0  0  0  0  0  0  0
  -26.3711  -13.0705   20.2600 C   0  0  0  0  0  0  0  0  0  0  0  0
  -26.8552  -10.6492   19.8710 C   0  0  0  0  0  0  0  0  0  0  0  0
  -23.7933  -31.6604   21.8315 C   0  0  0  0  0  0  0  0  0  0  0  0
  -21.6902  -29.1909   21.7998 C   0  0  0  0  0  0  0  0  0  0  0  0
  -21.1849  -25.8163   21.7380 C   0  0  0  0  0  0  0  0  0  0  0  0
  -23.1222  -17.9817   19.8361 C   0  0  0  0  0  0  0  0  0  0  0  0
  -23.6822  -36.6780   20.8993 C   0  0  0  0  0  0  0  0  0  0  0  0
  -24.6245  -30.3166   19.8670 C   0  0  0  0  0  0  0  0  0  0  0  0
  -24.1079  -28.6088   22.2253 C   0  0  0  0  0  0  0  0  0  0  0  0
  -22.6665  -35.6263   21.3381 C   0  0  0  0  0  0  0  0  0  0  0  0
  -25.4715  -17.2143   22.4798 C   0  0  0  0  0  0  0  0  0  0  0  0
  -23.2227  -34.7946   22.4895 C   0  0  0  0  0  0  0  0  0  0  0  0
  -25.6635  -15.7087   22.2884 C   0  0  0  0  0  0  0  0  0  0  0  0
  -24.0267  -17.6256   22.2126 C   0  0  0  0  0  0  0  0  0  0  0  0
  -23.7017  -15.7242   20.6788 C   0  0  0  0  0  0  0  0  0  0  0  0
  -24.4870  -34.0386   22.0635 C   0  0  1  0  0  0  0  0  0  0  0  0
  -23.4685  -30.5953   20.8226 C   0  0  1  0  0  0  0  0  0  0  0  0
  -25.1471  -15.2484   20.9124 C   0  0  2  0  0  0  0  0  0  0  0  0
  -19.3566  -24.0976   21.7581 C   0  0  0  0  0  0  0  0  0  0  0  0
  -21.2801  -29.6657   24.7859 C   0  0  0  0  0  0  0  0  0  0  0  0
  -20.2279  -27.3985   24.9309 C   0  0  0  0  0  0  0  0  0  0  0  0
  -19.1868  -29.1663   23.5118 C   0  0  0  0  0  0  0  0  0  0  0  0
  -21.9989  -24.7508   19.0996 C   0  0  0  0  0  0  0  0  0  0  0  0
  -30.0343  -24.7881   21.2561 C   0  0  0  0  0  0  0  0  0  0  0  0
  -25.9085  -22.1113   18.1893 C   0  0  0  0  0  0  0  0  0  0  0  0
  -29.6293  -25.0897   22.7006 C   0  0  0  0  0  0  0  0  0  0  0  0
  -24.7796  -21.5834   19.0839 C   0  0  0  0  0  0  0  0  0  0  0  0
  -23.7137  -20.8475   18.2664 C   0  0  0  0  0  0  0  0  0  0  0  0
  -22.5844  -20.2998   19.1331 C   0  0  0  0  0  0  0  0  0  0  0  0
  -28.4583  -26.0594   22.8094 C   0  0  0  0  0  0  0  0  0  1  0  0
  -21.3374  -28.0748   22.7532 C   0  0  1  0  0  0  0  0  0  0  0  0
  -20.2700  -24.9502   20.8912 C   0  0  2  0  0  0  0  0  0  0  0  0
  -20.5344  -28.5794   23.9852 C   0  0  0  0  0  0  0  0  0  0  0  0
  -24.2519  -12.9553   21.0622 N   0  0  0  0  0  0  0  0  0  0  0  0
  -25.2860  -13.7480   20.7329 N   0  0  0  0  0  0  0  0  0  0  0  0
  -23.0568  -29.4074   21.5734 N   0  0  0  0  0  0  0  0  0  0  0  0
  -23.6030  -17.1737   20.8798 N   0  0  0  0  0  0  0  0  0  0  0  0
  -27.4966  -13.7135   19.8828 N   0  0  0  0  0  0  0  0  0  0  0  0
  -26.3411   -9.3483   19.9585 N   0  0  0  0  0  0  0  0  0  0  0  0
  -24.1391  -32.8766   21.2740 N   0  0  0  0  0  0  0  0  0  0  0  0
  -20.6441  -27.0650   21.9608 N   0  0  0  0  0  0  0  0  0  0  0  0
  -23.0531  -19.3422   20.1100 N   0  0  0  0  0  0  0  0  0  0  0  0
  -21.0728  -24.0444   20.0217 N   0  3  0  0  0  0  0  0  0  0  0  0
  -28.0261  -10.8199   19.4547 O   0  0  0  0  0  0  0  0  0  0  0  0
  -23.7331  -31.3986   23.0271 O   0  0  0  0  0  0  0  0  0  0  0  0
  -20.7863  -29.8419   21.2699 O   0  0  0  0  0  0  0  0  0  0  0  0
  -22.2692  -25.4232   22.1627 O   0  0  0  0  0  0  0  0  0  0  0  0
  -22.7842  -17.5250   18.7387 O   0  0  0  0  0  0  0  0  0  0  0  0
  -21.4602   -7.2623   21.6499 O   0  0  0  0  0  0  0  0  0  0  0  0
  -28.8178  -27.2851   22.1731 O   0  0  0  0  0  0  0  0  0  1  0  0
  -23.7289   -2.8812   24.1122 F   0  0  0  0  0  0  0  0  0  0  0  0
  -20.4649   -6.3087   24.0463 F   0  0  0  0  0  0  0  0  0  0  0  0
  -25.8976  -25.1628   18.1341 Cl  0  0  0  0  0  0  0  0  0  0  0  0
  -27.8731  -20.3274   19.6967 Cl  0  0  0  0  0  0  0  0  0  0  0  0
  1  2  1  0  0  0  0
  1  5  2  0  0  0  0
  2  6  2  0  0  0  0
  3  8  2  0  0  0  0
  3 17  1  0  0  0  0
  4  9  1  0  0  0  0
  4 17  2  0  0  0  0
  5 19  1  0  0  0  0
  6 21  1  0  0  0  0
  7 10  2  0  0  0  0
  7 20  1  0  0  0  0
  8 25  1  0  0  0  0
  9 25  2  0  0  0  0
 10 26  1  0  0  0  0
 11 12  2  0  0  0  0
 11 27  1  0  0  0  0
 12 28  1  0  0  0  0
 13 22  1  0  0  0  0
 13 26  2  0  0  0  0
 14 23  1  0  0  0  0
 14 30  2  0  0  0  0
 15 23  2  0  0  0  0
 15 31  1  0  0  0  0
 16 28  2  0  0  0  0
 16 29  1  0  0  0  0
 17 32  1  0  0  0  0
 18 32  1  0  0  0  0
 18 33  2  0  0  0  0
 18 34  1  0  0  0  0
 19 21  2  0  0  0  0
 19 39  1  0  0  0  0
 20 22  2  0  0  0  0
 20 40  1  0  0  0  0
 21 48  1  0  0  0  0
 22 41  1  0  0  0  0
 23 56  1  0  0  0  0
 24 30  1  0  0  0  0
 24 31  2  0  0  0  0
 24 57  1  0  0  0  0
 25 81  1  0  0  0  0
 26 82  1  0  0  0  0
 27 29  2  0  0  0  0
 27 81  1  0  0  0  0
 28 83  1  0  0  0  0
 29 84  1  0  0  0  0
 30 85  1  0  0  0  0
 31 86  1  0  0  0  0
 32 66  2  0  0  0  0
 33 67  1  0  0  0  0
 33 70  1  0  0  0  0
 34 71  1  0  0  0  0
 34 76  2  0  0  0  0
 35 49  1  0  0  0  0
 35 72  1  0  0  0  0
 35 77  2  0  0  0  0
 36 63  1  0  0  0  0
 36 68  1  0  0  0  0
 36 78  2  0  0  0  0
 37 64  1  0  0  0  0
 37 73  1  0  0  0  0
 37 79  2  0  0  0  0
 38 69  1  0  0  0  0
 38 74  1  0  0  0  0
 38 80  2  0  0  0  0
 39 42  1  0  0  0  0
 40 49  1  0  0  0  0
 41 68  1  0  0  0  0
 42 44  1  0  0  0  0
 43 45  1  0  0  0  0
 43 46  1  0  0  0  0
 44 48  1  0  0  0  0
 45 50  1  0  0  0  0
 46 69  1  0  0  0  0
 47 50  1  0  0  0  0
 47 69  1  0  0  0  0
 48 72  1  0  0  0  0
 49 68  1  0  0  0  0
 50 67  1  0  0  0  0
 51 64  1  0  0  0  0
 52 65  1  0  0  0  0
 53 65  1  0  0  0  0
 54 65  1  0  0  0  0
 55 75  1  0  0  0  0
 56 58  1  0  0  0  0
 57 59  1  0  0  0  0
 58 62  1  0  0  0  0
 59 60  1  0  0  0  0
 60 61  1  0  0  0  0
 61 74  1  0  0  0  0
 62 82  1  0  0  0  0
 63 65  1  0  0  0  0
 63 73  1  0  0  0  0
 64 75  1  0  0  0  0
 66 67  1  0  0  0  0
M  CHG  1  75   1
M  ISO  4  38 100  62 101  74 100  82 101
M  END
> <Batch ID>
0027

> <Smiles>
CNC(C)C(=O)NC(C(=O)N1Cc2cc([101O:1][101CH2:1]CCc3cc(Cl)c(CCCC[100NH:0][100C:0](=O)N4CCCC(n5nc(-c6ccc(Oc7ccc(F)cc7F)cc6)c(C(N)=O)c5N)C4)c(Cl)c3)ccc2CC1C(=O)NC1CCCc2ccccc21)C(C)(C)C

> <Shape>
0.267

> <Color>
0.083

> <Negative vol penalty>
0.000

$$$$

  -OEChem-04052316303D

 85 93  0     1  0  0  0  0  0999 V2000
  -19.9102  -23.4775   26.6606 C   0  0  0  0  0  0  0  0  0  0  0  0
  -20.5843  -23.4212   25.4449 C   0  0  0  0  0  0  0  0  0  0  0  0
  -23.1828   -9.8234   19.9423 C   0  0  0  0  0  0  0  0  0  0  0  0
  -23.8566   -9.9241   22.2602 C   0  0  0  0  0  0  0  0  0  0  0  0
  -20.5746  -23.1465   27.8407 C   0  0  0  0  0  0  0  0  0  0  0  0
  -21.9236  -23.0348   25.4088 C   0  0  0  0  0  0  0  0  0  0  0  0
  -26.6281  -19.5820   21.2541 C   0  0  0  0  0  0  0  0  0  0  0  0
  -22.4722   -8.6511   20.1997 C   0  0  0  0  0  0  0  0  0  0  0  0
  -23.1459   -8.7518   22.5177 C   0  0  0  0  0  0  0  0  0  0  0  0
  -27.8892  -19.7514   20.6842 C   0  0  0  0  0  0  0  0  0  0  0  0
  -19.9285   -7.8524   23.0274 C   0  0  0  0  0  0  0  0  0  0  0  0
  -19.1307   -7.8179   24.1710 C   0  0  0  0  0  0  0  0  0  0  0  0
  -28.9125  -19.1256   22.7771 C   0  0  0  0  0  0  0  0  0  0  0  0
  -20.4129   -5.9496   25.0092 C   0  0  0  0  0  0  0  0  0  0  0  0
  -23.8751  -10.4599   20.9725 C   0  0  0  0  0  0  0  0  0  0  0  0
  -24.1300  -12.9915   20.7894 C   0  0  0  0  0  0  0  0  0  0  0  0
  -21.9201  -22.7465   27.8181 C   0  0  0  0  0  0  0  0  0  0  0  0
  -26.4995  -19.1930   22.5952 C   0  0  0  0  0  0  0  0  0  0  0  0
  -22.6071  -22.6994   26.5900 C   0  0  0  0  0  0  0  0  0  0  0  0
  -27.6487  -18.9495   23.3609 C   0  0  0  0  0  0  0  0  0  0  0  0
  -34.2510  -19.0947   19.3073 C   0  0  0  0  0  0  0  0  0  0  0  0
  -33.0806  -18.8009   19.9981 C   0  0  0  0  0  0  0  0  0  0  0  0
  -34.9422  -20.2678   19.5891 C   0  0  0  0  0  0  0  0  0  0  0  0
  -22.4537   -8.1153   21.4874 C   0  0  0  0  0  0  0  0  0  0  0  0
  -29.0316  -19.5260   21.4465 C   0  0  0  0  0  0  0  0  0  0  0  0
  -20.9685   -6.9354   22.8746 C   0  0  0  0  0  0  0  0  0  0  0  0
  -19.3729   -6.8665   25.1619 C   0  0  0  0  0  0  0  0  0  0  0  0
  -21.2107   -5.9841   23.8656 C   0  0  0  0  0  0  0  0  0  0  0  0
  -24.6098  -11.6706   20.7071 C   0  0  0  0  0  0  0  0  0  0  0  0
  -32.6471  -19.7057   20.9537 C   0  0  0  0  0  0  0  0  0  0  0  0
  -34.4252  -21.1070   20.5629 C   0  0  0  0  0  0  0  0  0  0  0  0
  -25.2071  -13.7703   20.4433 C   0  0  0  0  0  0  0  0  0  0  0  0
  -22.8271  -13.4716   21.1468 C   0  0  0  0  0  0  0  0  0  0  0  0
  -25.2340  -20.5042   25.1996 C   0  0  0  0  0  0  0  0  0  0  0  0
  -25.9440  -17.6273   26.5192 C   0  0  0  0  0  0  0  0  0  0  0  0
  -27.8521  -14.7987   26.4476 C   0  0  0  0  0  0  0  0  0  0  0  0
  -30.5127  -15.0278   20.9086 C   0  0  0  0  0  0  0  0  0  0  0  0
  -22.6095  -22.4438   29.1249 C   0  0  0  0  0  0  0  0  0  0  0  0
  -25.1321  -18.9887   23.1874 C   0  0  0  0  0  0  0  0  0  0  0  0
  -27.5648  -18.5108   24.7994 C   0  0  0  0  0  0  0  0  0  0  0  0
  -23.9227  -21.6833   28.9588 C   0  0  0  0  0  0  0  0  0  0  0  0
  -29.6812  -12.5065   18.4492 C   0  0  0  0  0  0  0  0  0  0  0  0
  -24.7713  -22.3167   27.8610 C   0  0  0  0  0  0  0  0  0  0  0  0
  -28.2375  -12.1741   18.8305 C   0  0  0  0  0  0  0  0  0  0  0  0
  -30.5334  -12.7694   19.6873 C   0  0  0  0  0  0  0  0  0  0  0  0
  -28.5599  -13.5029   20.9683 C   0  0  0  0  0  0  0  0  0  0  0  0
  -24.0531  -22.2611   26.5072 C   0  0  1  0  0  0  0  0  0  0  0  0
  -25.1193  -19.0884   24.7097 C   0  0  1  0  0  0  0  0  0  0  0  0
  -27.6416  -13.2487   19.7591 C   0  0  2  0  0  0  0  0  0  0  0  0
  -34.4751  -18.6439   16.8511 C   0  0  0  0  0  0  0  0  0  0  0  0
  -35.9823  -21.6623   17.7835 C   0  0  0  0  0  0  0  0  0  0  0  0
  -28.6355  -12.5016   27.0857 C   0  0  0  0  0  0  0  0  0  0  0  0
  -27.4409  -19.1401   28.7057 C   0  0  0  0  0  0  0  0  0  0  0  0
  -28.5597  -16.9894   29.3310 C   0  0  0  0  0  0  0  0  0  0  0  0
  -26.0816  -17.2050   29.5194 C   0  0  0  0  0  0  0  0  0  0  0  0
  -25.9699  -13.5072   24.5639 C   0  0  0  0  0  0  0  0  0  0  0  0
  -34.7633  -18.1520   18.2654 C   0  0  0  0  0  0  0  0  0  0  0  0
  -32.3163  -17.5504   19.7187 C   0  0  0  0  0  0  0  0  0  0  0  0
  -36.2005  -20.6016   18.8587 C   0  0  0  0  0  0  0  0  0  0  0  0
  -31.3912  -19.4432   21.7316 C   0  0  0  0  0  0  0  0  0  1  0  0
  -32.5422  -16.4477   20.7596 C   0  0  0  0  0  0  0  0  0  0  0  0
  -27.1412  -17.0431   27.2296 C   0  0  1  0  0  0  0  0  0  0  0  0
  -27.4804  -13.3301   26.5453 C   0  0  2  0  0  0  0  0  0  0  0  0
  -27.3078  -17.6046   28.6699 C   0  0  0  0  0  0  0  0  0  0  0  0
  -25.8919  -11.6098   20.3376 N   0  0  0  0  0  0  0  0  0  0  0  0
  -33.2915  -20.8553   21.2550 N   0  0  0  0  0  0  0  0  0  0  0  0
  -26.2268  -12.9023   20.1846 N   0  0  0  0  0  0  0  0  0  0  0  0
  -26.2053  -18.3309   25.3349 N   0  0  0  0  0  0  0  0  0  0  0  0
  -29.9207  -13.8150   20.5188 N   0  0  0  0  0  0  0  0  0  0  0  0
  -25.3720  -15.1060   20.3381 N   0  0  0  0  0  0  0  0  0  0  0  0
  -21.8368  -12.5356   21.4745 N   0  0  0  0  0  0  0  0  0  0  0  0
  -24.1483  -20.9336   25.9388 N   0  0  0  0  0  0  0  0  0  0  0  0
  -26.9857  -15.5939   27.1674 N   0  0  0  0  0  0  0  0  0  0  0  0
  -31.8052  -15.2435   20.4466 N   0  0  0  0  0  0  0  0  0  0  0  0
  -27.1089  -12.7994   25.2032 N   0  3  0  0  0  0  0  0  0  0  0  0
  -22.5447  -14.6938   21.1587 O   0  0  0  0  0  0  0  0  0  0  0  0
  -26.2343  -21.1582   24.9284 O   0  0  0  0  0  0  0  0  0  0  0  0
  -24.8179  -17.4592   26.9937 O   0  0  0  0  0  0  0  0  0  0  0  0
  -28.8171  -15.2000   25.8007 O   0  0  0  0  0  0  0  0  0  0  0  0
  -29.9302  -15.8601   21.6123 O   0  0  0  0  0  0  0  0  0  0  0  0
  -21.7602   -6.9715   21.7391 O   0  0  0  0  0  0  0  0  0  0  0  0
  -30.2637  -19.6913   20.8929 O   0  0  0  0  0  0  0  0  0  1  0  0
  -18.6076   -6.8345   26.2608 F   0  0  0  0  0  0  0  0  0  0  0  0
  -22.2092   -5.1014   23.7250 F   0  0  0  0  0  0  0  0  0  0  0  0
  -35.1855  -22.5863   21.0031 Cl  0  0  0  0  0  0  0  0  0  0  0  0
  1  2  1  0  0  0  0
  1  5  2  0  0  0  0
  2  6  2  0  0  0  0
  3  8  2  0  0  0  0
  3 15  1  0  0  0  0
  4  9  1  0  0  0  0
  4 15  2  0  0  0  0
  5 17  1  0  0  0  0
  6 19  1  0  0  0  0
  7 10  2  0  0  0  0
  7 18  1  0  0  0  0
  8 24  1  0  0  0  0
  9 24  2  0  0  0  0
 10 25  1  0  0  0  0
 11 12  2  0  0  0  0
 11 26  1  0  0  0  0
 12 27  1  0  0  0  0
 13 20  1  0  0  0  0
 13 25  2  0  0  0  0
 14 27  2  0  0  0  0
 14 28  1  0  0  0  0
 15 29  1  0  0  0  0
 16 29  1  0  0  0  0
 16 32  2  0  0  0  0
 16 33  1  0  0  0  0
 17 19  2  0  0  0  0
 17 38  1  0  0  0  0
 18 20  2  0  0  0  0
 18 39  1  0  0  0  0
 19 47  1  0  0  0  0
 20 40  1  0  0  0  0
 21 22  1  0  0  0  0
 21 23  2  0  0  0  0
 21 57  1  0  0  0  0
 22 30  2  0  0  0  0
 22 58  1  0  0  0  0
 23 31  1  0  0  0  0
 23 59  1  0  0  0  0
 24 81  1  0  0  0  0
 25 82  1  0  0  0  0
 26 28  2  0  0  0  0
 26 81  1  0  0  0  0
 27 83  1  0  0  0  0
 28 84  1  0  0  0  0
 29 65  2  0  0  0  0
 30 60  1  0  0  0  0
 30 66  1  0  0  0  0
 31 66  2  0  0  0  0
 31 85  1  0  0  0  0
 32 67  1  0  0  0  0
 32 70  1  0  0  0  0
 33 71  1  0  0  0  0
 33 76  2  0  0  0  0
 34 48  1  0  0  0  0
 34 72  1  0  0  0  0
 34 77  2  0  0  0  0
 35 62  1  0  0  0  0
 35 68  1  0  0  0  0
 35 78  2  0  0  0  0
 36 63  1  0  0  0  0
 36 73  1  0  0  0  0
 36 79  2  0  0  0  0
 37 69  1  0  0  0  0
 37 74  1  0  0  0  0
 37 80  2  0  0  0  0
 38 41  1  0  0  0  0
 39 48  1  0  0  0  0
 40 68  1  0  0  0  0
 41 43  1  0  0  0  0
 42 44  1  0  0  0  0
 42 45  1  0  0  0  0
 43 47  1  0  0  0  0
 44 49  1  0  0  0  0
 45 69  1  0  0  0  0
 46 49  1  0  0  0  0
 46 69  1  0  0  0  0
 47 72  1  0  0  0  0
 48 68  1  0  0  0  0
 49 67  1  0  0  0  0
 50 57  1  0  0  0  0
 51 59  1  0  0  0  0
 52 63  1  0  0  0  0
 53 64  1  0  0  0  0
 54 64  1  0  0  0  0
 55 64  1  0  0  0  0
 56 75  1  0  0  0  0
 58 61  1  0  0  0  0
 60 82  1  0  0  0  0
 61 74  1  0  0  0  0
 62 64  1  0  0  0  0
 62 73  1  0  0  0  0
 63 75  1  0  0  0  0
 65 67  1  0  0  0  0
M  CHG  1  75   1
M  ISO  4  37 100  60 101  74 100  82 101
M  END
> <Batch ID>
0027

> <Smiles>
CCc1c(Cl)nc([101CH2:1][101O:1]c2ccc3c(c2)CN(C(=O)C(NC(=O)C(C)NC)C(C)(C)C)C(C(=O)NC2CCCc4ccccc42)C3)c(CC[100NH:0][100C:0](=O)N2CCCC(n3nc(-c4ccc(Oc5ccc(F)cc5F)cc4)c(C(N)=O)c3N)C2)c1CC

> <Shape>
0.171

> <Color>
0.169

> <Negative vol penalty>
0.000

$$$$

  -OEChem-04052316303D

 85 93  0     1  0  0  0  0  0999 V2000
  -23.8519  -23.5359   17.1743 C   0  0  0  0  0  0  0  0  0  0  0  0
  -24.6221  -22.3906   17.0072 C   0  0  0  0  0  0  0  0  0  0  0  0
  -26.0047  -27.6969   18.9413 C   0  0  0  0  0  0  0  0  0  0  0  0
  -26.4515  -27.8508   21.3106 C   0  0  0  0  0  0  0  0  0  0  0  0
  -23.0015  -23.6453   18.2725 C   0  0  0  0  0  0  0  0  0  0  0  0
  -24.5333  -21.3493   17.9317 C   0  0  0  0  0  0  0  0  0  0  0  0
  -26.9447  -17.1973   16.8596 C   0  0  0  0  0  0  0  0  0  0  0  0
  -24.9686  -28.6209   19.0766 C   0  0  0  0  0  0  0  0  0  0  0  0
  -25.4155  -28.7750   21.4459 C   0  0  0  0  0  0  0  0  0  0  0  0
  -28.3344  -17.0978   16.9118 C   0  0  0  0  0  0  0  0  0  0  0  0
  -22.0399  -28.7240   21.6299 C   0  0  0  0  0  0  0  0  0  0  0  0
  -21.1570  -28.5562   22.6966 C   0  0  0  0  0  0  0  0  0  0  0  0
  -28.1647  -15.9073   19.0029 C   0  0  0  0  0  0  0  0  0  0  0  0
  -31.0189  -17.8897   23.6713 C   0  0  0  0  0  0  0  0  0  0  0  0
  -21.7697  -30.7334   23.5462 C   0  0  0  0  0  0  0  0  0  0  0  0
  -26.7461  -27.3118   20.0583 C   0  0  0  0  0  0  0  0  0  0  0  0
  -29.1697  -26.6306   19.6464 C   0  0  0  0  0  0  0  0  0  0  0  0
  -22.9121  -22.6095   19.2171 C   0  0  0  0  0  0  0  0  0  0  0  0
  -26.1537  -16.6611   17.8859 C   0  0  0  0  0  0  0  0  0  0  0  0
  -23.6630  -21.4306   19.0337 C   0  0  0  0  0  0  0  0  0  0  0  0
  -26.7651  -15.9990   18.9602 C   0  0  0  0  0  0  0  0  0  0  0  0
  -31.6442  -17.1369   22.6774 C   0  0  0  0  0  0  0  0  0  0  0  0
  -31.1039  -19.2818   23.6492 C   0  0  0  0  0  0  0  0  0  0  0  0
  -32.3548  -17.7762   21.6615 C   0  0  0  0  0  0  0  0  0  0  0  0
  -32.4399  -19.1683   21.6394 C   0  0  0  0  0  0  0  0  0  0  0  0
  -24.6741  -29.1600   20.3289 C   0  0  0  0  0  0  0  0  0  0  0  0
  -28.9447  -16.4553   17.9850 C   0  0  0  0  0  0  0  0  0  0  0  0
  -22.7878  -29.8965   21.5213 C   0  0  0  0  0  0  0  0  0  0  0  0
  -21.0219  -29.5609   23.6548 C   0  0  0  0  0  0  0  0  0  0  0  0
  -22.6527  -30.9011   22.4795 C   0  0  0  0  0  0  0  0  0  0  0  0
  -31.8144  -19.9211   22.6333 C   0  0  0  0  0  0  0  0  0  0  0  0
  -27.8161  -26.3568   19.9193 C   0  0  0  0  0  0  0  0  0  0  0  0
  -29.7701  -25.3957   19.6143 C   0  0  0  0  0  0  0  0  0  0  0  0
  -29.8258  -27.8887   19.4405 C   0  0  0  0  0  0  0  0  0  0  0  0
  -24.1037  -17.8614   19.9979 C   0  0  0  0  0  0  0  0  0  0  0  0
  -23.6058  -14.7355   20.7069 C   0  0  0  0  0  0  0  0  0  0  0  0
  -24.7935  -11.5361   20.6903 C   0  0  0  0  0  0  0  0  0  0  0  0
  -28.3933  -20.1267   22.1030 C   0  0  0  0  0  0  0  0  0  0  0  0
  -21.9696  -22.7771   20.3828 C   0  0  0  0  0  0  0  0  0  0  0  0
  -24.6548  -16.7533   17.8015 C   0  0  0  0  0  0  0  0  0  0  0  0
  -25.9600  -15.3887   20.0773 C   0  0  0  0  0  0  0  0  0  0  0  0
  -22.2726  -21.8238   21.5341 C   0  0  0  0  0  0  0  0  0  0  0  0
  -28.8417  -20.8051   18.6367 C   0  0  0  0  0  0  0  0  0  0  0  0
  -22.4185  -20.4036   21.0084 C   0  0  0  0  0  0  0  0  0  0  0  0
  -28.7518  -22.3296   18.5477 C   0  0  0  0  0  0  0  0  0  0  0  0
  -27.8809  -20.2432   19.6822 C   0  0  0  0  0  0  0  0  0  0  0  0
  -27.9185  -22.3647   20.9358 C   0  0  0  0  0  0  0  0  0  0  0  0
  -23.6058  -20.2980   20.0428 C   0  0  1  0  0  0  0  0  0  0  0  0
  -23.9707  -16.6222   19.1587 C   0  0  1  0  0  0  0  0  0  0  0  0
  -28.9091  -22.9824   19.9342 C   0  0  2  0  0  0  0  0  0  0  0  0
  -31.5380  -15.6480   22.7242 C   0  0  0  0  0  0  0  0  0  0  0  0
  -33.2063  -19.8362   20.5397 C   0  0  0  0  0  0  0  0  0  0  0  0
  -24.1745   -9.2015   21.3712 C   0  0  0  0  0  0  0  0  0  0  0  0
  -24.1924  -15.4318   23.6191 C   0  0  0  0  0  0  0  0  0  0  0  0
  -24.4972  -12.9880   24.0693 C   0  0  0  0  0  0  0  0  0  0  0  0
  -22.2881  -13.8446   23.2892 C   0  0  0  0  0  0  0  0  0  0  0  0
  -24.9413  -10.5590   17.9006 C   0  0  0  0  0  0  0  0  0  0  0  0
  -30.4180  -20.0473   24.7351 C   0  0  0  0  0  0  0  0  0  0  0  0
  -33.0278  -16.9579   20.5886 C   0  0  0  0  0  0  0  0  0  0  0  0
  -32.2806  -16.9592   19.2532 C   0  0  0  0  0  0  0  0  0  0  0  0
  -28.9050  -20.1734   24.5310 C   0  0  0  0  0  0  0  0  0  0  0  0
  -30.8987  -16.3210   19.3339 C   0  0  0  0  0  0  0  0  0  1  0  0
  -24.2228  -13.7450   21.6646 C   0  0  1  0  0  0  0  0  0  0  0  0
  -24.1601  -10.2287   20.2499 C   0  0  2  0  0  0  0  0  0  0  0  0
  -23.8157  -14.0155   23.1406 C   0  0  0  0  0  0  0  0  0  0  0  0
  -27.5706  -25.0505   20.0510 N   0  0  0  0  0  0  0  0  0  0  0  0
  -28.7781  -24.4924   19.8600 N   0  0  0  0  0  0  0  0  0  0  0  0
  -24.4981  -15.5104   19.9525 N   0  0  0  0  0  0  0  0  0  0  0  0
  -28.0828  -20.9031   20.9744 N   0  0  0  0  0  0  0  0  0  0  0  0
  -31.0444  -25.0051   19.4001 N   0  0  0  0  0  0  0  0  0  0  0  0
  -29.0600  -29.0605   19.5080 N   0  0  0  0  0  0  0  0  0  0  0  0
  -23.5843  -18.9983   19.4087 N   0  0  0  0  0  0  0  0  0  0  0  0
  -23.8540  -12.4207   21.1761 N   0  0  0  0  0  0  0  0  0  0  0  0
  -28.5750  -20.8316   23.2866 N   0  0  0  0  0  0  0  0  0  0  0  0
  -24.8968   -9.6628   19.0846 N   0  3  0  0  0  0  0  0  0  0  0  0
  -31.0517  -27.9702   19.1874 O   0  0  0  0  0  0  0  0  0  0  0  0
  -24.6367  -17.7911   21.0991 O   0  0  0  0  0  0  0  0  0  0  0  0
  -22.3774  -14.8135   20.6257 O   0  0  0  0  0  0  0  0  0  0  0  0
  -26.0015  -11.7497   20.6146 O   0  0  0  0  0  0  0  0  0  0  0  0
  -28.5059  -18.8970   22.0581 O   0  0  0  0  0  0  0  0  0  0  0  0
  -23.6633  -30.0619   20.4613 O   0  0  0  0  0  0  0  0  0  0  0  0
  -30.3009  -16.3574   18.0387 O   0  0  0  0  0  0  0  0  0  1  0  0
  -20.1729  -29.4002   24.6783 F   0  0  0  0  0  0  0  0  0  0  0  0
  -23.3676  -32.0302   22.3799 F   0  0  0  0  0  0  0  0  0  0  0  0
  -31.9187  -21.6502   22.6097 Cl  0  0  0  0  0  0  0  0  0  0  0  0
  1  2  1  0  0  0  0
  1  5  2  0  0  0  0
  2  6  2  0  0  0  0
  3  8  2  0  0  0  0
  3 16  1  0  0  0  0
  4  9  1  0  0  0  0
  4 16  2  0  0  0  0
  5 18  1  0  0  0  0
  6 20  1  0  0  0  0
  7 10  2  0  0  0  0
  7 19  1  0  0  0  0
  8 26  1  0  0  0  0
  9 26  2  0  0  0  0
 10 27  1  0  0  0  0
 11 12  2  0  0  0  0
 11 28  1  0  0  0  0
 12 29  1  0  0  0  0
 13 21  1  0  0  0  0
 13 27  2  0  0  0  0
 14 22  2  0  0  0  0
 14 23  1  0  0  0  0
 15 29  2  0  0  0  0
 15 30  1  0  0  0  0
 16 32  1  0  0  0  0
 17 32  1  0  0  0  0
 17 33  2  0  0  0  0
 17 34  1  0  0  0  0
 18 20  2  0  0  0  0
 18 39  1  0  0  0  0
 19 21  2  0  0  0  0
 19 40  1  0  0  0  0
 20 48  1  0  0  0  0
 21 41  1  0  0  0  0
 22 24  1  0  0  0  0
 22 51  1  0  0  0  0
 23 31  2  0  0  0  0
 23 58  1  0  0  0  0
 24 25  2  0  0  0  0
 24 59  1  0  0  0  0
 25 31  1  0  0  0  0
 25 52  1  0  0  0  0
 26 81  1  0  0  0  0
 27 82  1  0  0  0  0
 28 30  2  0  0  0  0
 28 81  1  0  0  0  0
 29 83  1  0  0  0  0
 30 84  1  0  0  0  0
 31 85  1  0  0  0  0
 32 66  2  0  0  0  0
 33 67  1  0  0  0  0
 33 70  1  0  0  0  0
 34 71  1  0  0  0  0
 34 76  2  0  0  0  0
 35 49  1  0  0  0  0
 35 72  1  0  0  0  0
 35 77  2  0  0  0  0
 36 63  1  0  0  0  0
 36 68  1  0  0  0  0
 36 78  2  0  0  0  0
 37 64  1  0  0  0  0
 37 73  1  0  0  0  0
 37 79  2  0  0  0  0
 38 69  1  0  0  0  0
 38 74  1  0  0  0  0
 38 80  2  0  0  0  0
 39 42  1  0  0  0  0
 40 49  1  0  0  0  0
 41 68  1  0  0  0  0
 42 44  1  0  0  0  0
 43 45  1  0  0  0  0
 43 46  1  0  0  0  0
 44 48  1  0  0  0  0
 45 50  1  0  0  0  0
 46 69  1  0  0  0  0
 47 50  1  0  0  0  0
 47 69  1  0  0  0  0
 48 72  1  0  0  0  0
 49 68  1  0  0  0  0
 50 67  1  0  0  0  0
 53 64  1  0  0  0  0
 54 65  1  0  0  0  0
 55 65  1  0  0  0  0
 56 65  1  0  0  0  0
 57 75  1  0  0  0  0
 58 61  1  0  0  0  0
 59 60  1  0  0  0  0
 60 62  1  0  0  0  0
 61 74  1  0  0  0  0
 62 82  1  0  0  0  0
 63 65  1  0  0  0  0
 63 73  1  0  0  0  0
 64 75  1  0  0  0  0
 66 67  1  0  0  0  0
M  CHG  1  75   1
M  ISO  4  38 100  62 101  74 100  82 101
M  END
> <Batch ID>
0027

> <Smiles>
CNC(C)C(=O)NC(C(=O)N1Cc2cc([101O:1][101CH2:1]CCc3c(C)cc(CC[100NH:0][100C:0](=O)N4CCCC(n5nc(-c6ccc(Oc7ccc(F)cc7F)cc6)c(C(N)=O)c5N)C4)c(Cl)c3C)ccc2CC1C(=O)NC1CCCc2ccccc21)C(C)(C)C

> <Shape>
0.216

> <Color>
0.074

> <Negative vol penalty>
0.000

$$$$

  -OEChem-04052316303D

 86 94  0     1  0  0  0  0  0999 V2000
  -39.2012  -25.1640   28.5511 C   0  0  0  0  0  0  0  0  0  0  0  0
  -38.1928  -24.2209   28.7214 C   0  0  0  0  0  0  0  0  0  0  0  0
  -23.0964   -9.8613   19.9332 C   0  0  0  0  0  0  0  0  0  0  0  0
  -23.8581   -9.8691   22.2260 C   0  0  0  0  0  0  0  0  0  0  0  0
  -38.9748  -26.2897   27.7601 C   0  0  0  0  0  0  0  0  0  0  0  0
  -36.9570  -24.4034   28.1017 C   0  0  0  0  0  0  0  0  0  0  0  0
  -31.5864  -20.6897   25.1553 C   0  0  0  0  0  0  0  0  0  0  0  0
  -22.3655   -8.6992   20.1800 C   0  0  0  0  0  0  0  0  0  0  0  0
  -23.1272   -8.7070   22.4728 C   0  0  0  0  0  0  0  0  0  0  0  0
  -30.2002  -20.5591   25.2280 C   0  0  0  0  0  0  0  0  0  0  0  0
  -19.9086   -7.8715   23.0753 C   0  0  0  0  0  0  0  0  0  0  0  0
  -19.1532   -7.8194   24.2467 C   0  0  0  0  0  0  0  0  0  0  0  0
  -29.9494  -22.5020   23.8204 C   0  0  0  0  0  0  0  0  0  0  0  0
  -28.3187  -18.7948   22.0282 C   0  0  0  0  0  0  0  0  0  0  0  0
  -20.4166   -5.8934   24.9757 C   0  0  0  0  0  0  0  0  0  0  0  0
  -23.8427  -10.4463   20.9562 C   0  0  0  0  0  0  0  0  0  0  0  0
  -24.1565  -12.9754   20.8443 C   0  0  0  0  0  0  0  0  0  0  0  0
  -37.7389  -26.4813   27.1226 C   0  0  0  0  0  0  0  0  0  0  0  0
  -32.1653  -21.7357   24.4223 C   0  0  0  0  0  0  0  0  0  0  0  0
  -36.7135  -25.5334   27.3026 C   0  0  0  0  0  0  0  0  0  0  0  0
  -31.3431  -22.6422   23.7379 C   0  0  0  0  0  0  0  0  0  0  0  0
  -26.9627  -19.1170   21.9729 C   0  0  0  0  0  0  0  0  0  0  0  0
  -29.0036  -18.4577   20.8608 C   0  0  0  0  0  0  0  0  0  0  0  0
  -26.2916  -19.1020   20.7502 C   0  0  0  0  0  0  0  0  0  0  0  0
  -28.3325  -18.4427   19.6381 C   0  0  0  0  0  0  0  0  0  0  0  0
  -22.3809   -8.1220   21.4498 C   0  0  0  0  0  0  0  0  0  0  0  0
  -29.3814  -21.4670   24.5629 C   0  0  0  0  0  0  0  0  0  0  0  0
  -20.9180   -6.9346   22.8541 C   0  0  0  0  0  0  0  0  0  0  0  0
  -19.4072   -6.8303   25.1969 C   0  0  0  0  0  0  0  0  0  0  0  0
  -21.1720   -5.9455   23.8043 C   0  0  0  0  0  0  0  0  0  0  0  0
  -26.9765  -18.7649   19.5828 C   0  0  0  0  0  0  0  0  0  0  0  0
  -24.5984  -11.6464   20.7018 C   0  0  0  0  0  0  0  0  0  0  0  0
  -25.2400  -13.7381   20.4826 C   0  0  0  0  0  0  0  0  0  0  0  0
  -22.8807  -13.4758   21.2659 C   0  0  0  0  0  0  0  0  0  0  0  0
  -34.0314  -24.2086   25.1337 C   0  0  0  0  0  0  0  0  0  0  0  0
  -34.0736  -24.6038   21.9143 C   0  0  0  0  0  0  0  0  0  0  0  0
  -32.5468  -24.0686   18.9094 C   0  0  0  0  0  0  0  0  0  0  0  0
  -30.7123  -14.8172   20.6697 C   0  0  0  0  0  0  0  0  0  0  0  0
  -37.5253  -27.7375   26.3158 C   0  0  0  0  0  0  0  0  0  0  0  0
  -33.6625  -21.8471   24.3319 C   0  0  0  0  0  0  0  0  0  0  0  0
  -31.9152  -23.7708   22.9208 C   0  0  0  0  0  0  0  0  0  0  0  0
  -36.3133  -27.6682   25.3902 C   0  0  0  0  0  0  0  0  0  0  0  0
  -29.5991  -12.4281   18.2761 C   0  0  0  0  0  0  0  0  0  0  0  0
  -35.1039  -27.1119   26.1350 C   0  0  0  0  0  0  0  0  0  0  0  0
  -28.1653  -12.1171   18.7092 C   0  0  0  0  0  0  0  0  0  0  0  0
  -30.5147  -12.6551   19.4769 C   0  0  0  0  0  0  0  0  0  0  0  0
  -28.6062  -13.3605   20.8675 C   0  0  0  0  0  0  0  0  0  0  0  0
  -35.3679  -25.6836   26.6267 C   0  0  1  0  0  0  0  0  0  0  0  0
  -34.1369  -23.2533   23.9787 C   0  0  1  0  0  0  0  0  0  0  0  0
  -27.6330  -13.1791   19.6901 C   0  0  2  0  0  0  0  0  0  0  0  0
  -24.8358  -19.4513   20.7144 C   0  0  0  0  0  0  0  0  0  0  0  0
  -29.9639  -19.2218   17.9008 C   0  0  0  0  0  0  0  0  0  0  0  0
  -32.2470  -24.0647   16.4179 C   0  0  0  0  0  0  0  0  0  0  0  0
  -33.1790  -27.4833   22.3816 C   0  0  0  0  0  0  0  0  0  0  0  0
  -32.5429  -27.6046   19.9631 C   0  0  0  0  0  0  0  0  0  0  0  0
  -34.9197  -27.2065   20.6074 C   0  0  0  0  0  0  0  0  0  0  0  0
  -33.8762  -21.4384   18.6371 C   0  0  0  0  0  0  0  0  0  0  0  0
  -26.2480  -19.4775   23.2508 C   0  0  0  0  0  0  0  0  0  0  0  0
  -30.4555  -18.1172   20.9498 C   0  0  0  0  0  0  0  0  0  0  0  0
  -29.0877  -18.0778   18.3974 C   0  0  0  0  0  0  0  0  0  0  0  0
  -25.9947  -20.9779   23.4126 C   0  0  0  0  0  0  0  0  0  0  0  0
  -30.7554  -16.9643   21.9137 C   0  0  0  0  0  0  0  0  0  0  0  0
  -27.2750  -21.7993   23.5101 C   0  0  0  0  0  0  0  0  0  1  0  0
  -33.2248  -25.3565   20.9184 C   0  0  1  0  0  0  0  0  0  0  0  0
  -33.0831  -23.5597   17.5835 C   0  0  2  0  0  0  0  0  0  0  0  0
  -33.4555  -26.8927   20.9845 C   0  0  0  0  0  0  0  0  0  0  0  0
  -25.8638  -11.5660   20.2821 N   0  0  0  0  0  0  0  0  0  0  0  0
  -26.2264  -12.8541   20.1577 N   0  0  0  0  0  0  0  0  0  0  0  0
  -33.3849  -23.8413   22.8683 N   0  0  0  0  0  0  0  0  0  0  0  0
  -29.9536  -13.6746   20.3667 N   0  0  0  0  0  0  0  0  0  0  0  0
  -25.4356  -15.0721   20.4138 N   0  0  0  0  0  0  0  0  0  0  0  0
  -21.8792  -12.5543   21.6011 N   0  0  0  0  0  0  0  0  0  0  0  0
  -35.2413  -24.7418   25.5351 N   0  0  0  0  0  0  0  0  0  0  0  0
  -33.5051  -24.7658   19.6142 N   0  0  0  0  0  0  0  0  0  0  0  0
  -30.1036  -15.7365   21.5154 N   0  0  0  0  0  0  0  0  0  0  0  0
  -33.0732  -22.0697   17.5583 N   0  3  0  0  0  0  0  0  0  0  0  0
  -22.6309  -14.7035   21.3276 O   0  0  0  0  0  0  0  0  0  0  0  0
  -32.9333  -24.4456   25.6234 O   0  0  0  0  0  0  0  0  0  0  0  0
  -35.3025  -24.6835   21.8439 O   0  0  0  0  0  0  0  0  0  0  0  0
  -31.3921  -23.8708   19.2809 O   0  0  0  0  0  0  0  0  0  0  0  0
  -31.8458  -15.0067   20.2158 O   0  0  0  0  0  0  0  0  0  0  0  0
  -21.6677   -6.9882   21.6910 O   0  0  0  0  0  0  0  0  0  0  0  0
  -28.0281  -21.3422   24.6327 O   0  0  0  0  0  0  0  0  0  1  0  0
  -18.6827   -6.7813   26.3225 F   0  0  0  0  0  0  0  0  0  0  0  0
  -22.1412   -5.0434   23.5979 F   0  0  0  0  0  0  0  0  0  0  0  0
  -26.1427  -18.7463   18.0636 Cl  0  0  0  0  0  0  0  0  0  0  0  0
  1  2  1  0  0  0  0
  1  5  2  0  0  0  0
  2  6  2  0  0  0  0
  3  8  2  0  0  0  0
  3 16  1  0  0  0  0
  4  9  1  0  0  0  0
  4 16  2  0  0  0  0
  5 18  1  0  0  0  0
  6 20  1  0  0  0  0
  7 10  2  0  0  0  0
  7 19  1  0  0  0  0
  8 26  1  0  0  0  0
  9 26  2  0  0  0  0
 10 27  1  0  0  0  0
 11 12  2  0  0  0  0
 11 28  1  0  0  0  0
 12 29  1  0  0  0  0
 13 21  1  0  0  0  0
 13 27  2  0  0  0  0
 14 22  1  0  0  0  0
 14 23  2  0  0  0  0
 15 29  2  0  0  0  0
 15 30  1  0  0  0  0
 16 32  1  0  0  0  0
 17 32  1  0  0  0  0
 17 33  2  0  0  0  0
 17 34  1  0  0  0  0
 18 20  2  0  0  0  0
 18 39  1  0  0  0  0
 19 21  2  0  0  0  0
 19 40  1  0  0  0  0
 20 48  1  0  0  0  0
 21 41  1  0  0  0  0
 22 24  2  0  0  0  0
 22 58  1  0  0  0  0
 23 25  1  0  0  0  0
 23 59  1  0  0  0  0
 24 31  1  0  0  0  0
 24 51  1  0  0  0  0
 25 31  2  0  0  0  0
 25 60  1  0  0  0  0
 26 82  1  0  0  0  0
 27 83  1  0  0  0  0
 28 30  2  0  0  0  0
 28 82  1  0  0  0  0
 29 84  1  0  0  0  0
 30 85  1  0  0  0  0
 31 86  1  0  0  0  0
 32 67  2  0  0  0  0
 33 68  1  0  0  0  0
 33 71  1  0  0  0  0
 34 72  1  0  0  0  0
 34 77  2  0  0  0  0
 35 49  1  0  0  0  0
 35 73  1  0  0  0  0
 35 78  2  0  0  0  0
 36 64  1  0  0  0  0
 36 69  1  0  0  0  0
 36 79  2  0  0  0  0
 37 65  1  0  0  0  0
 37 74  1  0  0  0  0
 37 80  2  0  0  0  0
 38 70  1  0  0  0  0
 38 75  1  0  0  0  0
 38 81  2  0  0  0  0
 39 42  1  0  0  0  0
 40 49  1  0  0  0  0
 41 69  1  0  0  0  0
 42 44  1  0  0  0  0
 43 45  1  0  0  0  0
 43 46  1  0  0  0  0
 44 48  1  0  0  0  0
 45 50  1  0  0  0  0
 46 70  1  0  0  0  0
 47 50  1  0  0  0  0
 47 70  1  0  0  0  0
 48 73  1  0  0  0  0
 49 69  1  0  0  0  0
 50 68  1  0  0  0  0
 52 60  1  0  0  0  0
 53 65  1  0  0  0  0
 54 66  1  0  0  0  0
 55 66  1  0  0  0  0
 56 66  1  0  0  0  0
 57 76  1  0  0  0  0
 58 61  1  0  0  0  0
 59 62  1  0  0  0  0
 61 63  1  0  0  0  0
 62 75  1  0  0  0  0
 63 83  1  0  0  0  0
 64 66  1  0  0  0  0
 64 74  1  0  0  0  0
 65 76  1  0  0  0  0
 67 68  1  0  0  0  0
M  CHG  1  76   1
M  ISO  4  38 100  63 101  75 100  83 101
M  END
> <Batch ID>
0027

> <Smiles>
CCc1c(CC[100NH:0][100C:0](=O)N2CCCC(n3nc(-c4ccc(Oc5ccc(F)cc5F)cc4)c(C(N)=O)c3N)C2)cc(CC[101CH2:1][101O:1]c2ccc3c(c2)CN(C(=O)C(NC(=O)C(C)NC)C(C)(C)C)C(C(=O)NC2CCCc4ccccc42)C3)c(C)c1Cl

> <Shape>
0.206

> <Color>
0.197

> <Negative vol penalty>
0.000

$$$$

  -OEChem-04052316303D

 82 90  0     1  0  0  0  0  0999 V2000
  -26.4518  -25.8301   24.3271 C   0  0  0  0  0  0  0  0  0  0  0  0
  -25.1721  -25.4978   23.8943 C   0  0  0  0  0  0  0  0  0  0  0  0
  -25.7329  -28.4713   21.5710 C   0  0  0  0  0  0  0  0  0  0  0  0
  -25.0836  -27.9821   19.2959 C   0  0  0  0  0  0  0  0  0  0  0  0
  -27.5589  -25.1652   23.8015 C   0  0  0  0  0  0  0  0  0  0  0  0
  -24.9988  -24.5010   22.9347 C   0  0  0  0  0  0  0  0  0  0  0  0
  -20.3628  -20.5168   22.5610 C   0  0  0  0  0  0  0  0  0  0  0  0
  -26.9782  -27.8864   21.3414 C   0  0  0  0  0  0  0  0  0  0  0  0
  -26.3289  -27.3973   19.0662 C   0  0  0  0  0  0  0  0  0  0  0  0
  -19.2008  -20.4993   21.7907 C   0  0  0  0  0  0  0  0  0  0  0  0
  -29.4687  -26.0977   17.7735 C   0  0  0  0  0  0  0  0  0  0  0  0
  -30.1288  -26.4203   16.5879 C   0  0  0  0  0  0  0  0  0  0  0  0
  -20.3026  -19.0908   20.1717 C   0  0  0  0  0  0  0  0  0  0  0  0
  -17.9944  -22.5792   17.7151 C   0  0  0  0  0  0  0  0  0  0  0  0
  -15.6795  -23.6759   18.8200 C   0  0  0  0  0  0  0  0  0  0  0  0
  -30.1438  -28.7494   17.2300 C   0  0  0  0  0  0  0  0  0  0  0  0
  -24.7856  -28.5191   20.5483 C   0  0  0  0  0  0  0  0  0  0  0  0
  -23.1449  -30.4720   20.5957 C   0  0  0  0  0  0  0  0  0  0  0  0
  -27.3984  -24.1531   22.8421 C   0  0  0  0  0  0  0  0  0  0  0  0
  -21.5087  -19.8292   22.1363 C   0  0  0  0  0  0  0  0  0  0  0  0
  -26.1048  -23.8228   22.3948 C   0  0  0  0  0  0  0  0  0  0  0  0
  -21.4770  -19.0990   20.9397 C   0  0  0  0  0  0  0  0  0  0  0  0
  -16.9052  -21.7587   18.0082 C   0  0  0  0  0  0  0  0  0  0  0  0
  -16.7688  -24.4964   18.5270 C   0  0  0  0  0  0  0  0  0  0  0  0
  -27.2762  -27.3495   20.0890 C   0  0  0  0  0  0  0  0  0  0  0  0
  -19.1715  -19.7886   20.5944 C   0  0  0  0  0  0  0  0  0  0  0  0
  -29.1460  -27.1009   18.6874 C   0  0  0  0  0  0  0  0  0  0  0  0
  -30.4663  -27.7461   16.3161 C   0  0  0  0  0  0  0  0  0  0  0  0
  -29.4836  -28.4267   18.4157 C   0  0  0  0  0  0  0  0  0  0  0  0
  -15.7477  -22.3070   18.5607 C   0  0  0  0  0  0  0  0  0  0  0  0
  -17.9262  -23.9481   17.9745 C   0  0  0  0  0  0  0  0  0  0  0  0
  -23.4988  -29.1227   20.7850 C   0  0  0  0  0  0  0  0  0  0  0  0
  -21.8218  -30.5342   20.9591 C   0  0  0  0  0  0  0  0  0  0  0  0
  -23.9410  -31.5709   20.1327 C   0  0  0  0  0  0  0  0  0  0  0  0
  -24.4722  -20.6747   21.3572 C   0  0  0  0  0  0  0  0  0  0  0  0
  -24.9270  -17.4672   21.1907 C   0  0  0  0  0  0  0  0  0  0  0  0
  -23.5680  -14.3670   20.7564 C   0  0  0  0  0  0  0  0  0  0  0  0
  -17.4419  -26.4549   21.1215 C   0  0  0  0  0  0  0  0  0  0  0  0
  -28.6282  -23.4951   22.2684 C   0  0  0  0  0  0  0  0  0  0  0  0
  -22.7458  -19.8360   22.9919 C   0  0  0  0  0  0  0  0  0  0  0  0
  -22.6741  -18.3275   20.4494 C   0  0  0  0  0  0  0  0  0  0  0  0
  -28.3335  -22.1919   21.5301 C   0  0  0  0  0  0  0  0  0  0  0  0
  -18.6256  -28.4344   23.8340 C   0  0  0  0  0  0  0  0  0  0  0  0
  -27.1431  -22.3670   20.5925 C   0  0  0  0  0  0  0  0  0  0  0  0
  -19.9768  -28.9570   23.3431 C   0  0  0  0  0  0  0  0  0  0  0  0
  -18.3633  -27.0088   23.3532 C   0  0  0  0  0  0  0  0  0  0  0  0
  -19.8373  -27.3367   21.4055 C   0  0  0  0  0  0  0  0  0  0  0  0
  -25.8744  -22.7300   21.3737 C   0  0  1  0  0  0  0  0  0  0  0  0
  -24.0164  -19.5229   22.2077 C   0  0  1  0  0  0  0  0  0  0  0  0
  -20.1218  -28.7910   21.8184 C   0  0  2  0  0  0  0  0  0  0  0  0
  -24.1960  -11.9405   20.6337 C   0  0  0  0  0  0  0  0  0  0  0  0
  -26.0161  -17.8941   18.3726 C   0  0  0  0  0  0  0  0  0  0  0  0
  -25.7292  -15.4405   17.9652 C   0  0  0  0  0  0  0  0  0  0  0  0
  -27.2893  -16.2339   19.7427 C   0  0  0  0  0  0  0  0  0  0  0  0
  -21.8897  -13.6947   23.0995 C   0  0  0  0  0  0  0  0  0  0  0  0
  -17.0196  -20.2831   17.7119 C   0  0  0  0  0  0  0  0  0  0  0  0
  -16.6568  -25.9580   18.8202 C   0  0  0  0  0  0  0  0  0  0  0  0
  -18.2005  -19.6376   18.4287 C   0  0  0  0  0  0  0  0  0  1  0  0
  -24.7948  -16.4235   20.1081 C   0  0  1  0  0  0  0  0  0  0  0  0
  -23.7363  -13.0753   21.5358 C   0  0  2  0  0  0  0  0  0  0  0  0
  -25.9352  -16.5140   19.0551 C   0  0  0  0  0  0  0  0  0  0  0  0
  -22.4826  -28.3812   21.2340 N   0  0  0  0  0  0  0  0  0  0  0  0
  -21.4772  -29.2678   21.3298 N   0  0  0  0  0  0  0  0  0  0  0  0
  -23.8619  -18.3701   21.3182 N   0  0  0  0  0  0  0  0  0  0  0  0
  -18.5154  -26.9198   21.8990 N   0  0  0  0  0  0  0  0  0  0  0  0
  -20.9313  -31.5482   20.9945 N   0  0  0  0  0  0  0  0  0  0  0  0
  -25.2819  -31.3320   19.8022 N   0  0  0  0  0  0  0  0  0  0  0  0
  -25.3170  -21.5542   22.0070 N   0  0  0  0  0  0  0  0  0  0  0  0
  -24.7118  -15.1364   20.7899 N   0  0  0  0  0  0  0  0  0  0  0  0
  -17.6676  -26.4078   19.7513 N   0  0  0  0  0  0  0  0  0  0  0  0
  -22.4460  -12.6799   22.1680 N   0  3  0  0  0  0  0  0  0  0  0  0
  -23.4815  -32.7337   20.0312 O   0  0  0  0  0  0  0  0  0  0  0  0
  -24.0872  -20.7584   20.1969 O   0  0  0  0  0  0  0  0  0  0  0  0
  -25.9349  -17.4765   21.9019 O   0  0  0  0  0  0  0  0  0  0  0  0
  -22.5274  -14.6622   20.1729 O   0  0  0  0  0  0  0  0  0  0  0  0
  -16.3604  -26.1127   21.6117 O   0  0  0  0  0  0  0  0  0  0  0  0
  -28.4914  -26.7789   19.8645 O   0  0  0  0  0  0  0  0  0  0  0  0
  -18.0389  -19.7704   19.8403 O   0  0  0  0  0  0  0  0  0  1  0  0
  -31.1016  -28.0556   15.1782 F   0  0  0  0  0  0  0  0  0  0  0  0
  -29.1774  -29.3947   19.2904 F   0  0  0  0  0  0  0  0  0  0  0  0
  -14.3802  -21.3227   18.9349 Cl  0  0  0  0  0  0  0  0  0  0  0  0
  -19.2936  -24.9324   17.5989 Cl  0  0  0  0  0  0  0  0  0  0  0  0
  1  2  1  0  0  0  0
  1  5  2  0  0  0  0
  2  6  2  0  0  0  0
  3  8  2  0  0  0  0
  3 17  1  0  0  0  0
  4  9  1  0  0  0  0
  4 17  2  0  0  0  0
  5 19  1  0  0  0  0
  6 21  1  0  0  0  0
  7 10  2  0  0  0  0
  7 20  1  0  0  0  0
  8 25  1  0  0  0  0
  9 25  2  0  0  0  0
 10 26  1  0  0  0  0
 11 12  2  0  0  0  0
 11 27  1  0  0  0  0
 12 28  1  0  0  0  0
 13 22  1  0  0  0  0
 13 26  2  0  0  0  0
 14 23  1  0  0  0  0
 14 31  2  0  0  0  0
 15 24  2  0  0  0  0
 15 30  1  0  0  0  0
 16 28  2  0  0  0  0
 16 29  1  0  0  0  0
 17 32  1  0  0  0  0
 18 32  1  0  0  0  0
 18 33  2  0  0  0  0
 18 34  1  0  0  0  0
 19 21  2  0  0  0  0
 19 39  1  0  0  0  0
 20 22  2  0  0  0  0
 20 40  1  0  0  0  0
 21 48  1  0  0  0  0
 22 41  1  0  0  0  0
 23 30  2  0  0  0  0
 23 56  1  0  0  0  0
 24 31  1  0  0  0  0
 24 57  1  0  0  0  0
 25 77  1  0  0  0  0
 26 78  1  0  0  0  0
 27 29  2  0  0  0  0
 27 77  1  0  0  0  0
 28 79  1  0  0  0  0
 29 80  1  0  0  0  0
 30 81  1  0  0  0  0
 31 82  1  0  0  0  0
 32 62  2  0  0  0  0
 33 63  1  0  0  0  0
 33 66  1  0  0  0  0
 34 67  1  0  0  0  0
 34 72  2  0  0  0  0
 35 49  1  0  0  0  0
 35 68  1  0  0  0  0
 35 73  2  0  0  0  0
 36 59  1  0  0  0  0
 36 64  1  0  0  0  0
 36 74  2  0  0  0  0
 37 60  1  0  0  0  0
 37 69  1  0  0  0  0
 37 75  2  0  0  0  0
 38 65  1  0  0  0  0
 38 70  1  0  0  0  0
 38 76  2  0  0  0  0
 39 42  1  0  0  0  0
 40 49  1  0  0  0  0
 41 64  1  0  0  0  0
 42 44  1  0  0  0  0
 43 45  1  0  0  0  0
 43 46  1  0  0  0  0
 44 48  1  0  0  0  0
 45 50  1  0  0  0  0
 46 65  1  0  0  0  0
 47 50  1  0  0  0  0
 47 65  1  0  0  0  0
 48 68  1  0  0  0  0
 49 64  1  0  0  0  0
 50 63  1  0  0  0  0
 51 60  1  0  0  0  0
 52 61  1  0  0  0  0
 53 61  1  0  0  0  0
 54 61  1  0  0  0  0
 55 71  1  0  0  0  0
 56 58  1  0  0  0  0
 57 70  1  0  0  0  0
 58 78  1  0  0  0  0
 59 61  1  0  0  0  0
 59 69  1  0  0  0  0
 60 71  1  0  0  0  0
 62 63  1  0  0  0  0
M  CHG  1  71   1
M  ISO  4  38 100  58 101  70 100  78 101
M  END
> <Batch ID>
0027

> <Smiles>
CNC(C)C(=O)NC(C(=O)N1Cc2cc([101O:1][101CH2:1]Cc3cc(Cl)c(C[100NH:0][100C:0](=O)N4CCCC(n5nc(-c6ccc(Oc7ccc(F)cc7F)cc6)c(C(N)=O)c5N)C4)cc3Cl)ccc2CC1C(=O)NC1CCCc2ccccc21)C(C)(C)C

> <Shape>
0.162

> <Color>
0.100

> <Negative vol penalty>
0.000

$$$$

  -OEChem-04052316303D

 84 92  0     1  0  0  0  0  0999 V2000
  -18.1982  -30.5005   23.6348 C   0  0  0  0  0  0  0  0  0  0  0  0
  -19.2834  -29.7129   24.0056 C   0  0  0  0  0  0  0  0  0  0  0  0
  -28.9289  -17.6089   19.2850 C   0  0  0  0  0  0  0  0  0  0  0  0
  -29.8940  -18.0510   21.4554 C   0  0  0  0  0  0  0  0  0  0  0  0
  -17.0854  -29.9135   23.0339 C   0  0  0  0  0  0  0  0  0  0  0  0
  -19.2560  -28.3377   23.7766 C   0  0  0  0  0  0  0  0  0  0  0  0
  -23.5986  -26.6053   21.8309 C   0  0  0  0  0  0  0  0  0  0  0  0
  -29.5238  -16.3473   19.2775 C   0  0  0  0  0  0  0  0  0  0  0  0
  -30.4889  -16.7894   21.4478 C   0  0  0  0  0  0  0  0  0  0  0  0
  -24.6656  -26.4302   22.7110 C   0  0  0  0  0  0  0  0  0  0  0  0
  -28.9457  -13.3124   20.6515 C   0  0  0  0  0  0  0  0  0  0  0  0
  -28.1640  -12.2295   20.2492 C   0  0  0  0  0  0  0  0  0  0  0  0
  -24.1936  -24.0663   22.8034 C   0  0  0  0  0  0  0  0  0  0  0  0
  -30.4262  -26.7329   24.0193 C   0  0  0  0  0  0  0  0  0  0  0  0
  -29.7086  -11.7847   18.4455 C   0  0  0  0  0  0  0  0  0  0  0  0
  -30.0908  -29.4014   23.2779 C   0  0  0  0  0  0  0  0  0  0  0  0
  -29.1140  -18.4608   20.3740 C   0  0  0  0  0  0  0  0  0  0  0  0
  -27.2272  -20.1015   20.8797 C   0  0  0  0  0  0  0  0  0  0  0  0
  -17.0484  -28.5318   22.7886 C   0  0  0  0  0  0  0  0  0  0  0  0
  -22.8130  -25.5121   21.4383 C   0  0  0  0  0  0  0  0  0  0  0  0
  -18.1411  -27.7315   23.1730 C   0  0  0  0  0  0  0  0  0  0  0  0
  -23.1188  -24.2298   21.9162 C   0  0  0  0  0  0  0  0  0  0  0  0
  -31.1683  -27.2619   22.9634 C   0  0  0  0  0  0  0  0  0  0  0  0
  -29.5163  -27.5381   24.7045 C   0  0  0  0  0  0  0  0  0  0  0  0
  -30.3038  -15.9375   20.3588 C   0  0  0  0  0  0  0  0  0  0  0  0
  -24.9615  -25.1611   23.1997 C   0  0  0  0  0  0  0  0  0  0  0  0
  -30.1088  -13.6315   19.9508 C   0  0  0  0  0  0  0  0  0  0  0  0
  -28.5454  -11.4656   19.1462 C   0  0  0  0  0  0  0  0  0  0  0  0
  -30.4903  -12.8676   18.8478 C   0  0  0  0  0  0  0  0  0  0  0  0
  -31.0007  -28.5961   22.5927 C   0  0  0  0  0  0  0  0  0  0  0  0
  -29.3487  -28.8723   24.3338 C   0  0  0  0  0  0  0  0  0  0  0  0
  -28.5002  -19.7644   20.3821 C   0  0  0  0  0  0  0  0  0  0  0  0
  -27.1171  -21.4519   20.6546 C   0  0  0  0  0  0  0  0  0  0  0  0
  -26.2332  -19.2684   21.4909 C   0  0  0  0  0  0  0  0  0  0  0  0
  -19.7491  -24.7250   21.7489 C   0  0  0  0  0  0  0  0  0  0  0  0
  -20.5955  -22.2440   19.8382 C   0  0  0  0  0  0  0  0  0  0  0  0
  -23.0635  -20.1944   18.6743 C   0  0  0  0  0  0  0  0  0  0  0  0
  -31.1597  -25.8238   20.0260 C   0  0  0  0  0  0  0  0  0  0  0  0
  -15.8040  -27.9358   22.1795 C   0  0  0  0  0  0  0  0  0  0  0  0
  -21.6821  -25.7134   20.4673 C   0  0  0  0  0  0  0  0  0  0  0  0
  -22.3187  -23.0203   21.5095 C   0  0  0  0  0  0  0  0  0  0  0  0
  -16.0096  -26.5261   21.6309 C   0  0  0  0  0  0  0  0  0  0  0  0
  -28.6356  -24.8905   17.6947 C   0  0  0  0  0  0  0  0  0  0  0  0
  -16.7650  -25.6659   22.6390 C   0  0  0  0  0  0  0  0  0  0  0  0
  -28.1998  -23.5014   18.1640 C   0  0  0  0  0  0  0  0  0  0  0  0
  -30.1349  -25.1068   17.8877 C   0  0  0  0  0  0  0  0  0  0  0  0
  -30.1905  -23.4645   19.7244 C   0  0  0  0  0  0  0  0  0  0  0  0
  -18.1592  -26.2398   22.9187 C   0  0  1  0  0  0  0  0  0  0  0  0
  -20.6306  -24.6103   20.5376 C   0  0  1  0  0  0  0  0  0  0  0  0
  -28.6767  -23.2200   19.6016 C   0  0  2  0  0  0  0  0  0  0  0  0
  -29.6699  -26.4862   26.9761 C   0  0  0  0  0  0  0  0  0  0  0  0
  -23.4431  -18.2364   17.1512 C   0  0  0  0  0  0  0  0  0  0  0  0
  -19.3991  -20.3816   21.9382 C   0  0  0  0  0  0  0  0  0  0  0  0
  -20.6272  -18.4868   20.8565 C   0  0  0  0  0  0  0  0  0  0  0  0
  -18.8979  -19.7449   19.5722 C   0  0  0  0  0  0  0  0  0  0  0  0
  -24.8935  -21.7477   16.9431 C   0  0  0  0  0  0  0  0  0  0  0  0
  -32.1405  -26.3987   22.2320 C   0  0  0  0  0  0  0  0  0  0  0  0
  -27.8401  -25.7443   25.4047 C   0  0  0  0  0  0  0  0  0  0  0  0
  -26.7485  -26.1494   24.4186 C   0  0  0  0  0  0  0  0  0  1  0  0
  -28.7277  -26.9233   25.8479 C   0  0  2  0  0  0  0  0  0  0  0  0
  -21.1184  -20.8468   20.0691 C   0  0  1  0  0  0  0  0  0  0  0  0
  -23.4263  -19.7526   17.2680 C   0  0  2  0  0  0  0  0  0  0  0  0
  -20.0247  -19.8879   20.6184 C   0  0  0  0  0  0  0  0  0  0  0  0
  -29.1521  -20.8158   19.8786 N   0  0  0  0  0  0  0  0  0  0  0  0
  -28.2852  -21.8269   20.0587 N   0  0  0  0  0  0  0  0  0  0  0  0
  -21.2189  -23.2696   20.5630 N   0  0  0  0  0  0  0  0  0  0  0  0
  -30.5218  -24.8249   19.2722 N   0  0  0  0  0  0  0  0  0  0  0  0
  -26.1360  -22.3432   20.9100 N   0  0  0  0  0  0  0  0  0  0  0  0
  -26.5089  -17.9030   21.6456 N   0  0  0  0  0  0  0  0  0  0  0  0
  -19.0636  -25.9217   21.8345 N   0  0  0  0  0  0  0  0  0  0  0  0
  -21.7093  -20.4182   18.8059 N   0  0  0  0  0  0  0  0  0  0  0  0
  -31.4866  -25.4760   21.3310 N   0  0  0  0  0  0  0  0  0  0  0  0
  -24.7740  -20.2677   16.8947 N   0  3  0  0  0  0  0  0  0  0  0  0
  -25.1264  -19.7184   21.8732 O   0  0  0  0  0  0  0  0  0  0  0  0
  -19.6937  -23.7959   22.5460 O   0  0  0  0  0  0  0  0  0  0  0  0
  -19.6728  -22.4199   19.0387 O   0  0  0  0  0  0  0  0  0  0  0  0
  -23.8975  -20.3240   19.5677 O   0  0  0  0  0  0  0  0  0  0  0  0
  -31.4139  -26.9444   19.5716 O   0  0  0  0  0  0  0  0  0  0  0  0
  -30.8842  -14.7064   20.3519 O   0  0  0  0  0  0  0  0  0  0  0  0
  -26.0020  -24.9875   24.0594 O   0  0  0  0  0  0  0  0  0  1  0  0
  -27.7955  -10.4248   18.7609 F   0  0  0  0  0  0  0  0  0  0  0  0
  -31.6073  -13.1686   18.1714 F   0  0  0  0  0  0  0  0  0  0  0  0
  -31.7103  -29.1130   21.5799 F   0  0  0  0  0  0  0  0  0  0  0  0
  -28.2313  -29.8977   25.1578 Cl  0  0  0  0  0  0  0  0  0  0  0  0
  1  2  1  0  0  0  0
  1  5  2  0  0  0  0
  2  6  2  0  0  0  0
  3  8  2  0  0  0  0
  3 17  1  0  0  0  0
  4  9  1  0  0  0  0
  4 17  2  0  0  0  0
  5 19  1  0  0  0  0
  6 21  1  0  0  0  0
  7 10  2  0  0  0  0
  7 20  1  0  0  0  0
  8 25  1  0  0  0  0
  9 25  2  0  0  0  0
 10 26  1  0  0  0  0
 11 12  2  0  0  0  0
 11 27  1  0  0  0  0
 12 28  1  0  0  0  0
 13 22  1  0  0  0  0
 13 26  2  0  0  0  0
 14 23  2  0  0  0  0
 14 24  1  0  0  0  0
 15 28  2  0  0  0  0
 15 29  1  0  0  0  0
 16 30  2  0  0  0  0
 16 31  1  0  0  0  0
 17 32  1  0  0  0  0
 18 32  1  0  0  0  0
 18 33  2  0  0  0  0
 18 34  1  0  0  0  0
 19 21  2  0  0  0  0
 19 39  1  0  0  0  0
 20 22  2  0  0  0  0
 20 40  1  0  0  0  0
 21 48  1  0  0  0  0
 22 41  1  0  0  0  0
 23 30  1  0  0  0  0
 23 57  1  0  0  0  0
 24 31  2  0  0  0  0
 24 60  1  0  0  0  0
 25 79  1  0  0  0  0
 26 80  1  0  0  0  0
 27 29  2  0  0  0  0
 27 79  1  0  0  0  0
 28 81  1  0  0  0  0
 29 82  1  0  0  0  0
 30 83  1  0  0  0  0
 31 84  1  0  0  0  0
 32 64  2  0  0  0  0
 33 65  1  0  0  0  0
 33 68  1  0  0  0  0
 34 69  1  0  0  0  0
 34 74  2  0  0  0  0
 35 49  1  0  0  0  0
 35 70  1  0  0  0  0
 35 75  2  0  0  0  0
 36 61  1  0  0  0  0
 36 66  1  0  0  0  0
 36 76  2  0  0  0  0
 37 62  1  0  0  0  0
 37 71  1  0  0  0  0
 37 77  2  0  0  0  0
 38 67  1  0  0  0  0
 38 72  1  0  0  0  0
 38 78  2  0  0  0  0
 39 42  1  0  0  0  0
 40 49  1  0  0  0  0
 41 66  1  0  0  0  0
 42 44  1  0  0  0  0
 43 45  1  0  0  0  0
 43 46  1  0  0  0  0
 44 48  1  0  0  0  0
 45 50  1  0  0  0  0
 46 67  1  0  0  0  0
 47 50  1  0  0  0  0
 47 67  1  0  0  0  0
 48 70  1  0  0  0  0
 49 66  1  0  0  0  0
 50 65  1  0  0  0  0
 51 60  1  0  0  0  0
 52 62  1  0  0  0  0
 53 63  1  0  0  0  0
 54 63  1  0  0  0  0
 55 63  1  0  0  0  0
 56 73  1  0  0  0  0
 57 72  1  0  0  0  0
 58 59  1  0  0  0  0
 58 60  1  0  0  0  0
 59 80  1  0  0  0  0
 61 63  1  0  0  0  0
 61 71  1  0  0  0  0
 62 73  1  0  0  0  0
 64 65  1  0  0  0  0
M  CHG  1  73   1
M  ISO  4  38 100  59 101  72 100  80 101
M  END
> <Batch ID>
0027

> <Smiles>
CNC(C)C(=O)NC(C(=O)N1Cc2cc([101O:1][101CH2:1]CC(C)c3cc(C[100NH:0][100C:0](=O)N4CCCC(n5nc(-c6ccc(Oc7ccc(F)cc7F)cc6)c(C(N)=O)c5N)C4)c(F)cc3Cl)ccc2CC1C(=O)NC1CCCc2ccccc21)C(C)(C)C

> <Shape>
0.211

> <Color>
0.058

> <Negative vol penalty>
0.000

$$$$

  -OEChem-04052316303D

 88 97  0     1  0  0  0  0  0999 V2000
  -16.9157  -25.5473   24.3904 C   0  0  0  0  0  0  0  0  0  0  0  0
  -18.2656  -25.2852   24.1797 C   0  0  0  0  0  0  0  0  0  0  0  0
  -22.8826  -10.2104   19.9656 C   0  0  0  0  0  0  0  0  0  0  0  0
  -23.8817   -9.8281   22.1319 C   0  0  0  0  0  0  0  0  0  0  0  0
  -16.3820  -26.7834   24.0285 C   0  0  0  0  0  0  0  0  0  0  0  0
  -19.0825  -26.2588   23.6060 C   0  0  0  0  0  0  0  0  0  0  0  0
  -23.5167  -26.7348   26.0053 C   0  0  0  0  0  0  0  0  0  0  0  0
  -22.0830   -9.0801   20.1348 C   0  0  0  0  0  0  0  0  0  0  0  0
  -23.0820   -8.6978   22.3011 C   0  0  0  0  0  0  0  0  0  0  0  0
  -24.4902  -25.7725   25.7409 C   0  0  0  0  0  0  0  0  0  0  0  0
  -19.8849   -8.0162   23.1582 C   0  0  0  0  0  0  0  0  0  0  0  0
  -19.2567   -7.8476   24.3921 C   0  0  0  0  0  0  0  0  0  0  0  0
  -25.5729  -27.2957   24.2154 C   0  0  0  0  0  0  0  0  0  0  0  0
  -20.4165   -5.7500   24.6959 C   0  0  0  0  0  0  0  0  0  0  0  0
  -23.7820  -10.5844   20.9641 C   0  0  0  0  0  0  0  0  0  0  0  0
  -24.3029  -13.0736   21.1641 C   0  0  0  0  0  0  0  0  0  0  0  0
  -17.1948  -27.7762   23.4589 C   0  0  0  0  0  0  0  0  0  0  0  0
  -23.5578  -27.9830   25.3674 C   0  0  0  0  0  0  0  0  0  0  0  0
  -18.5589  -27.5089   23.2349 C   0  0  0  0  0  0  0  0  0  0  0  0
  -24.6001  -28.2730   24.4754 C   0  0  0  0  0  0  0  0  0  0  0  0
  -29.4165  -19.0854   23.7838 C   0  0  0  0  0  0  0  0  0  0  0  0
  -30.0402  -18.4030   22.7590 C   0  0  0  0  0  0  0  0  0  0  0  0
  -30.6004  -17.1607   23.0473 C   0  0  0  0  0  0  0  0  0  0  0  0
  -22.1826   -8.3238   21.3026 C   0  0  0  0  0  0  0  0  0  0  0  0
  -25.5169  -26.0518   24.8436 C   0  0  0  0  0  0  0  0  0  0  0  0
  -20.7789   -7.0517   22.6931 C   0  0  0  0  0  0  0  0  0  0  0  0
  -19.5225   -6.7145   25.1609 C   0  0  0  0  0  0  0  0  0  0  0  0
  -21.0447   -5.9187   23.4619 C   0  0  0  0  0  0  0  0  0  0  0  0
  -24.6087  -11.7515   20.7896 C   0  0  0  0  0  0  0  0  0  0  0  0
  -29.3606  -18.5057   25.0459 C   0  0  0  0  0  0  0  0  0  0  0  0
  -30.4945  -16.6650   24.3468 C   0  0  0  0  0  0  0  0  0  0  0  0
  -25.4045  -13.8013   20.7855 C   0  0  0  0  0  0  0  0  0  0  0  0
  -23.1281  -13.5971   21.7978 C   0  0  0  0  0  0  0  0  0  0  0  0
  -21.6341  -29.5521   23.3824 C   0  0  0  0  0  0  0  0  0  0  0  0
  -23.7722  -31.9505   23.8277 C   0  0  0  0  0  0  0  0  0  0  0  0
  -26.9450  -32.8841   24.6697 C   0  0  0  0  0  0  0  0  0  0  0  0
  -30.9391  -14.4460   20.4732 C   0  0  0  0  0  0  0  0  0  0  0  0
  -16.5628  -29.0801   23.0405 C   0  0  0  0  0  0  0  0  0  0  0  0
  -22.5152  -29.0199   25.6837 C   0  0  0  0  0  0  0  0  0  0  0  0
  -28.7130  -20.4007   23.7532 C   0  0  0  0  0  0  0  0  0  0  0  0
  -24.7009  -29.6051   23.7798 C   0  0  0  0  0  0  0  0  0  0  0  0
  -28.5988  -19.3785   26.0018 C   0  0  0  0  0  0  0  0  0  0  0  0
  -17.5755  -30.1928   22.7827 C   0  0  0  0  0  0  0  0  0  0  0  0
  -29.3722  -12.5189   17.9221 C   0  0  0  0  0  0  0  0  0  0  0  0
  -18.7279  -29.6779   21.9262 C   0  0  0  0  0  0  0  0  0  0  0  0
  -27.9710  -12.2515   18.4743 C   0  0  0  0  0  0  0  0  0  0  0  0
  -30.4268  -12.5015   19.0265 C   0  0  0  0  0  0  0  0  0  0  0  0
  -28.7463  -13.1310   20.7157 C   0  0  0  0  0  0  0  0  0  0  0  0
  -19.4825  -28.5485   22.6378 C   0  0  1  0  0  0  0  0  0  0  0  0
  -22.3658  -30.0707   24.5879 C   0  0  1  0  0  0  0  0  0  0  0  0
  -28.6307  -20.7324   25.2605 C   0  0  2  0  0  0  0  0  0  0  0  0
  -27.6413  -13.1940   19.6475 C   0  0  2  0  0  0  0  0  0  0  0  0
  -30.1105  -18.9866   21.3892 C   0  0  0  0  0  0  0  0  0  0  0  0
  -32.9959  -14.1321   25.8411 C   0  0  0  0  0  0  0  0  0  0  0  0
  -28.4046  -34.9117   24.9059 C   0  0  0  0  0  0  0  0  0  0  0  0
  -24.0318  -32.1143   20.7920 C   0  0  0  0  0  0  0  0  0  0  0  0
  -26.1340  -33.4357   21.1128 C   0  0  0  0  0  0  0  0  0  0  0  0
  -23.9615  -34.3277   21.9539 C   0  0  0  0  0  0  0  0  0  0  0  0
  -27.3853  -32.3745   27.5516 C   0  0  0  0  0  0  0  0  0  0  0  0
  -31.3026  -16.3793   21.9862 C   0  0  0  0  0  0  0  0  0  0  0  0
  -31.0897  -15.3378   24.6913 C   0  0  0  0  0  0  0  0  0  0  0  0
  -27.4405  -21.6149   25.6018 C   0  0  0  0  0  0  0  0  0  0  0  0
  -32.4090  -15.4827   25.4625 C   0  0  0  0  0  0  0  0  0  0  0  0
  -27.5211  -22.9628   24.8906 C   0  0  0  0  0  0  0  0  0  0  0  0
  -26.3529  -23.8655   25.2646 C   0  0  0  0  0  0  0  0  0  1  0  0
  -25.0495  -32.3838   23.1495 C   0  0  1  0  0  0  0  0  0  0  0  0
  -27.4631  -33.9517   25.6164 C   0  0  2  0  0  0  0  0  0  0  0  0
  -24.7915  -33.0395   21.7635 C   0  0  0  0  0  0  0  0  0  0  0  0
  -25.8104  -11.6427   20.2167 N   0  0  0  0  0  0  0  0  0  0  0  0
  -29.8777  -17.3082   25.3672 N   0  0  0  0  0  0  0  0  0  0  0  0
  -26.2693  -12.9058   20.2285 N   0  0  0  0  0  0  0  0  0  0  0  0
  -23.6541  -30.5838   24.1174 N   0  0  0  0  0  0  0  0  0  0  0  0
  -30.0551  -13.4174   20.1077 N   0  0  0  0  0  0  0  0  0  0  0  0
  -25.7080  -15.1135   20.8779 N   0  0  0  0  0  0  0  0  0  0  0  0
  -22.0909  -12.7108   22.1189 N   0  0  0  0  0  0  0  0  0  0  0  0
  -20.3607  -29.0889   23.6533 N   0  0  0  0  0  0  0  0  0  0  0  0
  -25.7434  -33.2470   24.0991 N   0  0  0  0  0  0  0  0  0  0  0  0
  -30.5069  -15.2730   21.5027 N   0  0  0  0  0  0  0  0  0  0  0  0
  -28.1989  -33.3252   26.7508 N   0  3  0  0  0  0  0  0  0  0  0  0
  -22.9950  -14.8173   22.0563 O   0  0  0  0  0  0  0  0  0  0  0  0
  -22.1835  -29.5723   22.2872 O   0  0  0  0  0  0  0  0  0  0  0  0
  -22.9142  -32.7947   24.0973 O   0  0  0  0  0  0  0  0  0  0  0  0
  -27.5479  -31.8349   24.4548 O   0  0  0  0  0  0  0  0  0  0  0  0
  -32.0302  -14.6181   19.9192 O   0  0  0  0  0  0  0  0  0  0  0  0
  -21.4023   -7.2210   21.4682 O   0  0  0  0  0  0  0  0  0  0  0  0
  -26.4681  -25.1141   24.5832 O   0  0  0  0  0  0  0  0  0  1  0  0
  -18.9203   -6.5534   26.3465 F   0  0  0  0  0  0  0  0  0  0  0  0
  -21.9035   -4.9893   23.0209 F   0  0  0  0  0  0  0  0  0  0  0  0
  1  2  1  0  0  0  0
  1  5  2  0  0  0  0
  2  6  2  0  0  0  0
  3  8  2  0  0  0  0
  3 15  1  0  0  0  0
  4  9  1  0  0  0  0
  4 15  2  0  0  0  0
  5 17  1  0  0  0  0
  6 19  1  0  0  0  0
  7 10  2  0  0  0  0
  7 18  1  0  0  0  0
  8 24  1  0  0  0  0
  9 24  2  0  0  0  0
 10 25  1  0  0  0  0
 11 12  2  0  0  0  0
 11 26  1  0  0  0  0
 12 27  1  0  0  0  0
 13 20  1  0  0  0  0
 13 25  2  0  0  0  0
 14 27  2  0  0  0  0
 14 28  1  0  0  0  0
 15 29  1  0  0  0  0
 16 29  1  0  0  0  0
 16 32  2  0  0  0  0
 16 33  1  0  0  0  0
 17 19  2  0  0  0  0
 17 38  1  0  0  0  0
 18 20  2  0  0  0  0
 18 39  1  0  0  0  0
 19 49  1  0  0  0  0
 20 41  1  0  0  0  0
 21 22  2  0  0  0  0
 21 30  1  0  0  0  0
 21 40  1  0  0  0  0
 22 23  1  0  0  0  0
 22 53  1  0  0  0  0
 23 31  2  0  0  0  0
 23 60  1  0  0  0  0
 24 85  1  0  0  0  0
 25 86  1  0  0  0  0
 26 28  2  0  0  0  0
 26 85  1  0  0  0  0
 27 87  1  0  0  0  0
 28 88  1  0  0  0  0
 29 69  2  0  0  0  0
 30 42  1  0  0  0  0
 30 70  2  0  0  0  0
 31 61  1  0  0  0  0
 31 70  1  0  0  0  0
 32 71  1  0  0  0  0
 32 74  1  0  0  0  0
 33 75  1  0  0  0  0
 33 80  2  0  0  0  0
 34 50  1  0  0  0  0
 34 76  1  0  0  0  0
 34 81  2  0  0  0  0
 35 66  1  0  0  0  0
 35 72  1  0  0  0  0
 35 82  2  0  0  0  0
 36 67  1  0  0  0  0
 36 77  1  0  0  0  0
 36 83  2  0  0  0  0
 37 73  1  0  0  0  0
 37 78  1  0  0  0  0
 37 84  2  0  0  0  0
 38 43  1  0  0  0  0
 39 50  1  0  0  0  0
 40 51  1  0  0  0  0
 41 72  1  0  0  0  0
 42 51  1  0  0  0  0
 43 45  1  0  0  0  0
 44 46  1  0  0  0  0
 44 47  1  0  0  0  0
 45 49  1  0  0  0  0
 46 52  1  0  0  0  0
 47 73  1  0  0  0  0
 48 52  1  0  0  0  0
 48 73  1  0  0  0  0
 49 76  1  0  0  0  0
 50 72  1  0  0  0  0
 51 62  1  0  0  0  0
 52 71  1  0  0  0  0
 54 63  1  0  0  0  0
 55 67  1  0  0  0  0
 56 68  1  0  0  0  0
 57 68  1  0  0  0  0
 58 68  1  0  0  0  0
 59 79  1  0  0  0  0
 60 78  1  0  0  0  0
 61 63  1  0  0  0  0
 62 64  1  0  0  0  0
 64 65  1  0  0  0  0
 65 86  1  0  0  0  0
 66 68  1  0  0  0  0
 66 77  1  0  0  0  0
 67 79  1  0  0  0  0
 69 71  1  0  0  0  0
M  CHG  1  79   1
M  ISO  4  37 100  65 101  78 100  86 101
M  END
> <Batch ID>
0027

> <Smiles>
CCCc1nc2c(c(C)c1C[100NH:0][100C:0](=O)N1CCCC(n3nc(-c4ccc(Oc5ccc(F)cc5F)cc4)c(C(N)=O)c3N)C1)CC(CC[101CH2:1][101O:1]c1ccc3c(c1)CN(C(=O)C(NC(=O)C(C)NC)C(C)(C)C)C(C(=O)NC1CCCc4ccccc41)C3)C2

> <Shape>
0.305

> <Color>
0.204

> <Negative vol penalty>
0.000

$$$$

  -OEChem-04052316303D

 83 91  0     1  0  0  0  0  0999 V2000
  -16.2429  -24.9492   15.7125 C   0  0  0  0  0  0  0  0  0  0  0  0
  -17.1332  -24.1657   16.4397 C   0  0  0  0  0  0  0  0  0  0  0  0
  -23.2883   -9.7952   19.9076 C   0  0  0  0  0  0  0  0  0  0  0  0
  -23.7155   -9.9372   22.2813 C   0  0  0  0  0  0  0  0  0  0  0  0
  -15.4078  -24.3573   14.7658 C   0  0  0  0  0  0  0  0  0  0  0  0
  -17.1882  -22.7896   16.2215 C   0  0  0  0  0  0  0  0  0  0  0  0
  -21.9376  -21.0604   15.9084 C   0  0  0  0  0  0  0  0  0  0  0  0
  -22.5548   -8.6261   20.1095 C   0  0  0  0  0  0  0  0  0  0  0  0
  -22.9820   -8.7681   22.4832 C   0  0  0  0  0  0  0  0  0  0  0  0
  -22.6337  -20.8912   17.1045 C   0  0  0  0  0  0  0  0  0  0  0  0
  -19.7290   -7.8712   22.6687 C   0  0  0  0  0  0  0  0  0  0  0  0
  -18.8158   -7.8549   23.7228 C   0  0  0  0  0  0  0  0  0  0  0  0
  -22.1613  -18.5266   17.0379 C   0  0  0  0  0  0  0  0  0  0  0  0
  -20.0035   -6.0039   24.7231 C   0  0  0  0  0  0  0  0  0  0  0  0
  -27.4810  -16.4027   15.3549 C   0  0  0  0  0  0  0  0  0  0  0  0
  -23.8687  -10.4507   20.9934 C   0  0  0  0  0  0  0  0  0  0  0  0
  -28.9187  -15.6927   17.1115 C   0  0  0  0  0  0  0  0  0  0  0  0
  -24.1409  -12.9793   20.7940 C   0  0  0  0  0  0  0  0  0  0  0  0
  -15.4594  -22.9746   14.5289 C   0  0  0  0  0  0  0  0  0  0  0  0
  -21.3378  -19.9638   15.2727 C   0  0  0  0  0  0  0  0  0  0  0  0
  -16.3521  -22.1784   15.2717 C   0  0  0  0  0  0  0  0  0  0  0  0
  -21.4603  -18.6841   15.8326 C   0  0  0  0  0  0  0  0  0  0  0  0
  -22.4016   -8.1125   21.3973 C   0  0  0  0  0  0  0  0  0  0  0  0
  -22.7432  -19.6247   17.6709 C   0  0  0  0  0  0  0  0  0  0  0  0
  -20.7795   -6.9539   22.6416 C   0  0  0  0  0  0  0  0  0  0  0  0
  -18.9530   -6.9213   24.7500 C   0  0  0  0  0  0  0  0  0  0  0  0
  -20.9167   -6.0203   23.6688 C   0  0  0  0  0  0  0  0  0  0  0  0
  -28.4089  -15.4918   15.8335 C   0  0  0  0  0  0  0  0  0  0  0  0
  -28.4909  -16.7828   17.8612 C   0  0  0  0  0  0  0  0  0  0  0  0
  -24.6269  -11.6582   20.7854 C   0  0  0  0  0  0  0  0  0  0  0  0
  -27.5593  -17.6361   17.2919 C   0  0  0  0  0  0  0  0  0  0  0  0
  -25.2482  -13.7542   20.5493 C   0  0  0  0  0  0  0  0  0  0  0  0
  -29.9041  -14.7533   17.6623 C   0  0  0  0  0  0  0  0  0  0  0  0
  -22.8077  -13.4630   21.0046 C   0  0  0  0  0  0  0  0  0  0  0  0
  -18.3568  -19.1705   14.5060 C   0  0  0  0  0  0  0  0  0  0  0  0
  -19.8152  -16.6844   13.0178 C   0  0  0  0  0  0  0  0  0  0  0  0
  -22.5356  -14.6364   12.7900 C   0  0  0  0  0  0  0  0  0  0  0  0
  -14.5038  -22.3732   13.5290 C   0  0  0  0  0  0  0  0  0  0  0  0
  -20.6131  -20.1588   13.9692 C   0  0  0  0  0  0  0  0  0  0  0  0
  -20.8518  -17.4711   15.1792 C   0  0  0  0  0  0  0  0  0  0  0  0
  -14.8880  -20.9620   13.0918 C   0  0  0  0  0  0  0  0  0  0  0  0
  -30.1634  -12.5659   20.4712 C   0  0  0  0  0  0  0  0  0  0  0  0
  -15.2482  -20.1074   14.3030 C   0  0  0  0  0  0  0  0  0  0  0  0
  -28.7075  -12.2256   20.7945 C   0  0  0  0  0  0  0  0  0  0  0  0
  -30.3878  -12.7111   18.9681 C   0  0  0  0  0  0  0  0  0  0  0  0
  -28.0208  -13.3307   18.6248 C   0  0  0  0  0  0  0  0  0  0  0  0
  -16.4586  -20.6858   15.0459 C   0  0  1  0  0  0  0  0  0  0  0  0
  -19.6035  -19.0533   13.6756 C   0  0  1  0  0  0  0  0  0  0  0  0
  -27.7407  -13.2257   20.1330 C   0  0  1  0  0  0  0  0  0  0  0  0
  -23.4213  -12.6737   11.5014 C   0  0  0  0  0  0  0  0  0  0  0  0
  -25.0973  -19.1500   21.2374 C   0  0  0  0  0  0  0  0  0  0  0  0
  -17.9672  -14.8269   14.5813 C   0  0  0  0  0  0  0  0  0  0  0  0
  -19.4958  -12.9311   14.0004 C   0  0  0  0  0  0  0  0  0  0  0  0
  -18.3173  -14.1801   12.1910 C   0  0  0  0  0  0  0  0  0  0  0  0
  -24.8506  -16.1876   11.7933 C   0  0  0  0  0  0  0  0  0  0  0  0
  -27.0490  -18.8348   18.0359 C   0  0  0  0  0  0  0  0  0  0  0  0
  -24.4989  -20.3557   19.0989 C   0  0  0  0  0  0  0  0  0  1  0  0
  -20.2271  -15.2893   13.4217 C   0  0  1  0  0  0  0  0  0  0  0  0
  -23.3636  -14.1902   11.5984 C   0  0  2  0  0  0  0  0  0  0  0  0
  -25.5961  -19.6569   19.8939 C   0  0  2  0  0  0  0  0  0  0  0  0
  -19.0118  -14.3298   13.5622 C   0  0  0  0  0  0  0  0  0  0  0  0
  -27.0415  -17.4735   16.0536 N   0  0  0  0  0  0  0  0  0  0  0  0
  -25.9407  -11.5936   20.5534 N   0  0  0  0  0  0  0  0  0  0  0  0
  -26.2896  -12.8839   20.4138 N   0  0  0  0  0  0  0  0  0  0  0  0
  -29.4344  -13.6585   18.3918 N   0  0  0  0  0  0  0  0  0  0  0  0
  -20.1479  -17.7142   13.9092 N   0  0  0  0  0  0  0  0  0  0  0  0
  -25.4230  -15.0882   20.4387 N   0  0  0  0  0  0  0  0  0  0  0  0
  -21.7886  -12.5307   21.2430 N   0  0  0  0  0  0  0  0  0  0  0  0
  -17.6829  -20.3659   14.3436 N   0  0  0  0  0  0  0  0  0  0  0  0
  -21.2195  -14.8574   12.4434 N   0  0  0  0  0  0  0  0  0  0  0  0
  -24.7566  -14.7072   11.7130 N   0  3  0  0  0  0  0  0  0  0  0  0
  -26.0795  -18.4865   19.1056 N   0  3  0  0  0  0  0  0  0  0  0  0
  -31.0860  -15.0157   17.4444 O   0  0  0  0  0  0  0  0  0  0  0  0
  -22.5254  -14.6846   20.9657 O   0  0  0  0  0  0  0  0  0  0  0  0
  -18.0295  -18.2442   15.2386 O   0  0  0  0  0  0  0  0  0  0  0  0
  -19.2265  -16.8550   11.9473 O   0  0  0  0  0  0  0  0  0  0  0  0
  -23.0082  -14.7714   13.9165 O   0  0  0  0  0  0  0  0  0  0  0  0
  -21.6858   -6.9719   21.5947 O   0  0  0  0  0  0  0  0  0  0  0  0
  -23.4216  -19.4568   18.8386 O   0  0  0  0  0  0  0  0  0  1  0  0
  -18.0768   -6.9067   25.7631 F   0  0  0  0  0  0  0  0  0  0  0  0
  -21.9245   -5.1373   23.6490 F   0  0  0  0  0  0  0  0  0  0  0  0
  -28.8848  -14.1696   14.8389 Cl  0  0  0  0  0  0  0  0  0  0  0  0
  -29.0971  -17.0714   19.4534 Cl  0  0  0  0  0  0  0  0  0  0  0  0
  1  2  1  0  0  0  0
  1  5  2  0  0  0  0
  2  6  2  0  0  0  0
  3  8  2  0  0  0  0
  3 16  1  0  0  0  0
  4  9  1  0  0  0  0
  4 16  2  0  0  0  0
  5 19  1  0  0  0  0
  6 21  1  0  0  0  0
  7 10  2  0  0  0  0
  7 20  1  0  0  0  0
  8 23  1  0  0  0  0
  9 23  2  0  0  0  0
 10 24  1  0  0  0  0
 11 12  2  0  0  0  0
 11 25  1  0  0  0  0
 12 26  1  0  0  0  0
 13 22  1  0  0  0  0
 13 24  2  0  0  0  0
 14 26  2  0  0  0  0
 14 27  1  0  0  0  0
 15 28  1  0  0  0  0
 15 62  2  0  0  0  0
 16 30  1  0  0  0  0
 17 28  2  0  0  0  0
 17 29  1  0  0  0  0
 17 33  1  0  0  0  0
 18 30  1  0  0  0  0
 18 32  2  0  0  0  0
 18 34  1  0  0  0  0
 19 21  2  0  0  0  0
 19 38  1  0  0  0  0
 20 22  2  0  0  0  0
 20 39  1  0  0  0  0
 21 47  1  0  0  0  0
 22 40  1  0  0  0  0
 23 78  1  0  0  0  0
 24 79  1  0  0  0  0
 25 27  2  0  0  0  0
 25 78  1  0  0  0  0
 26 80  1  0  0  0  0
 27 81  1  0  0  0  0
 28 82  1  0  0  0  0
 29 31  2  0  0  0  0
 29 83  1  0  0  0  0
 30 63  2  0  0  0  0
 31 56  1  0  0  0  0
 31 62  1  0  0  0  0
 32 64  1  0  0  0  0
 32 67  1  0  0  0  0
 33 65  1  0  0  0  0
 33 73  2  0  0  0  0
 34 68  1  0  0  0  0
 34 74  2  0  0  0  0
 35 48  1  0  0  0  0
 35 69  1  0  0  0  0
 35 75  2  0  0  0  0
 36 58  1  0  0  0  0
 36 66  1  0  0  0  0
 36 76  2  0  0  0  0
 37 59  1  0  0  0  0
 37 70  1  0  0  0  0
 37 77  2  0  0  0  0
 38 41  1  0  0  0  0
 39 48  1  0  0  0  0
 40 66  1  0  0  0  0
 41 43  1  0  0  0  0
 42 44  1  0  0  0  0
 42 45  1  0  0  0  0
 43 47  1  0  0  0  0
 44 49  1  0  0  0  0
 45 65  1  0  0  0  0
 46 49  1  0  0  0  0
 46 65  1  0  0  0  0
 47 69  1  0  0  0  0
 48 66  1  0  0  0  0
 49 64  1  0  0  0  0
 50 59  1  0  0  0  0
 51 60  1  0  0  0  0
 52 61  1  0  0  0  0
 53 61  1  0  0  0  0
 54 61  1  0  0  0  0
 55 71  1  0  0  0  0
 56 72  1  0  0  0  0
 57 60  1  0  0  0  0
 57 79  1  0  0  0  0
 58 61  1  0  0  0  0
 58 70  1  0  0  0  0
 59 71  1  0  0  0  0
 60 72  1  0  0  0  0
 63 64  1  0  0  0  0
M  CHG  2  71   1  72   1
M  ISO  4  17 100  33 100  57 101  79 101
M  END
> <Batch ID>
0027

> <Smiles>
CNC(C)C(=O)NC(C(=O)N1Cc2cc([101O:1][101CH2:1]C(C)NCc3ncc(Cl)[100c:0]([100C:0](=O)N4CCCC(n5nc(-c6ccc(Oc7ccc(F)cc7F)cc6)c(C(N)=O)c5N)C4)c3Cl)ccc2CC1C(=O)NC1CCCc2ccccc21)C(C)(C)C

> <Shape>
0.141

> <Color>
0.173

> <Negative vol penalty>
0.000

$$$$

  -OEChem-04052316303D

 81 89  0     1  0  0  0  0  0999 V2000
  -20.1291  -31.0475   21.7687 C   0  0  0  0  0  0  0  0  0  0  0  0
  -21.4073  -30.5014   21.8270 C   0  0  0  0  0  0  0  0  0  0  0  0
  -26.7228  -13.0853   20.2555 C   0  0  0  0  0  0  0  0  0  0  0  0
  -25.2204  -14.9761   20.3253 C   0  0  0  0  0  0  0  0  0  0  0  0
  -19.0145  -30.2323   21.9612 C   0  0  0  0  0  0  0  0  0  0  0  0
  -21.5717  -29.1398   22.0788 C   0  0  0  0  0  0  0  0  0  0  0  0
  -24.9852  -26.9955   19.0137 C   0  0  0  0  0  0  0  0  0  0  0  0
  -25.6350  -12.2267   20.0975 C   0  0  0  0  0  0  0  0  0  0  0  0
  -24.1325  -14.1174   20.1672 C   0  0  0  0  0  0  0  0  0  0  0  0
  -26.3305  -27.2059   19.3128 C   0  0  0  0  0  0  0  0  0  0  0  0
  -23.2262   -9.5032   20.0364 C   0  0  0  0  0  0  0  0  0  0  0  0
  -23.2006   -8.3385   20.8034 C   0  0  0  0  0  0  0  0  0  0  0  0
  -26.4355  -25.0279   20.3447 C   0  0  0  0  0  0  0  0  0  0  0  0
  -31.1993  -22.6786   21.5858 C   0  0  0  0  0  0  0  0  0  0  0  0
  -23.2296   -9.6668   22.8214 C   0  0  0  0  0  0  0  0  0  0  0  0
  -32.7282  -23.8739   23.5039 C   0  0  0  0  0  0  0  0  0  0  0  0
  -26.5155  -14.4600   20.3694 C   0  0  0  0  0  0  0  0  0  0  0  0
  -28.3815  -15.9755   19.5155 C   0  0  0  0  0  0  0  0  0  0  0  0
  -19.1650  -28.8582   22.2059 C   0  0  0  0  0  0  0  0  0  0  0  0
  -24.3510  -25.8022   19.3882 C   0  0  0  0  0  0  0  0  0  0  0  0
  -20.4581  -28.3057   22.2761 C   0  0  0  0  0  0  0  0  0  0  0  0
  -25.0827  -24.8038   20.0469 C   0  0  0  0  0  0  0  0  0  0  0  0
  -31.8145  -23.8942   21.3082 C   0  0  0  0  0  0  0  0  0  0  0  0
  -24.3399  -12.7427   20.0533 C   0  0  0  0  0  0  0  0  0  0  0  0
  -27.0552  -26.2232   19.9810 C   0  0  0  0  0  0  0  0  0  0  0  0
  -23.2536  -10.7498   20.6618 C   0  0  0  0  0  0  0  0  0  0  0  0
  -23.2023   -8.4203   22.1959 C   0  0  0  0  0  0  0  0  0  0  0  0
  -23.2553  -10.8315   22.0543 C   0  0  0  0  0  0  0  0  0  0  0  0
  -32.5952  -24.5099   22.2801 C   0  0  0  0  0  0  0  0  0  0  0  0
  -27.6388  -15.3475   20.5332 C   0  0  0  0  0  0  0  0  0  0  0  0
  -31.3949  -22.1245   22.8406 C   0  0  0  0  0  0  0  0  0  0  0  0
  -29.3317  -16.7069   20.1853 C   0  0  0  0  0  0  0  0  0  0  0  0
  -28.2263  -15.9041   18.0919 C   0  0  0  0  0  0  0  0  0  0  0  0
  -21.9193  -25.0568   21.2947 C   0  0  0  0  0  0  0  0  0  0  0  0
  -22.3960  -22.0820   20.0926 C   0  0  0  0  0  0  0  0  0  0  0  0
  -24.5312  -19.8540   18.6352 C   0  0  0  0  0  0  0  0  0  0  0  0
  -30.8215  -20.1516   24.2984 C   0  0  0  0  0  0  0  0  0  0  0  0
  -17.9321  -28.0259   22.4546 C   0  0  0  0  0  0  0  0  0  0  0  0
  -22.9060  -25.5796   19.0344 C   0  0  0  0  0  0  0  0  0  0  0  0
  -24.4537  -23.4968   20.4526 C   0  0  0  0  0  0  0  0  0  0  0  0
  -18.1791  -26.5235   22.3446 C   0  0  0  0  0  0  0  0  0  0  0  0
  -30.6754  -16.6778   25.0654 C   0  0  0  0  0  0  0  0  0  0  0  0
  -19.4413  -26.1328   23.1070 C   0  0  0  0  0  0  0  0  0  0  0  0
  -29.9335  -16.0736   23.8709 C   0  0  0  0  0  0  0  0  0  0  0  0
  -30.1270  -18.0545   25.4364 C   0  0  0  0  0  0  0  0  0  0  0  0
  -29.3245  -18.4134   23.1350 C   0  0  0  0  0  0  0  0  0  0  0  0
  -20.6765  -26.8286   22.5224 C   0  0  1  0  0  0  0  0  0  0  0  0
  -22.2280  -24.5378   19.9189 C   0  0  1  0  0  0  0  0  0  0  0  0
  -29.8844  -17.0547   22.6832 C   0  0  2  0  0  0  0  0  0  0  0  0
  -24.6451  -17.4883   17.8057 C   0  0  0  0  0  0  0  0  0  0  0  0
  -22.5796  -21.0844   22.9703 C   0  0  0  0  0  0  0  0  0  0  0  0
  -23.6154  -18.9776   22.1003 C   0  0  0  0  0  0  0  0  0  0  0  0
  -21.2930  -19.5930   21.4292 C   0  0  0  0  0  0  0  0  0  0  0  0
  -25.1255  -20.7291   15.8711 C   0  0  0  0  0  0  0  0  0  0  0  0
  -31.6125  -24.5114   19.9474 C   0  0  0  0  0  0  0  0  0  0  0  0
  -30.6238  -25.6794   19.9414 C   0  0  0  0  0  0  0  0  0  0  0  0
  -29.2072  -25.2733   20.3308 C   0  0  0  0  0  0  0  0  0  1  0  0
  -23.2428  -20.8944   20.4823 C   0  0  1  0  0  0  0  0  0  0  0  0
  -24.3663  -18.9370   17.4367 C   0  0  2  0  0  0  0  0  0  0  0  0
  -22.6943  -20.1627   21.7397 C   0  0  0  0  0  0  0  0  0  0  0  0
  -32.1460  -22.6929   23.8103 N   0  0  0  0  0  0  0  0  0  0  0  0
  -28.0794  -15.6531   21.7565 N   0  0  0  0  0  0  0  0  0  0  0  0
  -29.1093  -16.4810   21.5118 N   0  0  0  0  0  0  0  0  0  0  0  0
  -23.0367  -23.3291   20.0900 N   0  0  0  0  0  0  0  0  0  0  0  0
  -30.1144  -18.9311   24.2632 N   0  0  0  0  0  0  0  0  0  0  0  0
  -30.3275  -17.5147   19.7631 N   0  0  0  0  0  0  0  0  0  0  0  0
  -27.1988  -15.1059   17.5710 N   0  0  0  0  0  0  0  0  0  0  0  0
  -30.7640  -20.8856   23.1141 N   0  0  0  0  0  0  0  0  0  0  0  0
  -21.0995  -26.1692   21.3056 N   0  0  0  0  0  0  0  0  0  0  0  0
  -23.3365  -20.0526   19.2945 N   0  0  0  0  0  0  0  0  0  0  0  0
  -25.3039  -19.3335   16.3482 N   0  3  0  0  0  0  0  0  0  0  0  0
  -28.9869  -16.5167   17.3047 O   0  0  0  0  0  0  0  0  0  0  0  0
  -22.3887  -24.4892   22.2741 O   0  0  0  0  0  0  0  0  0  0  0  0
  -21.2118  -21.9084   19.7943 O   0  0  0  0  0  0  0  0  0  0  0  0
  -25.6124  -20.3420   18.9567 O   0  0  0  0  0  0  0  0  0  0  0  0
  -31.4555  -20.5058   25.2957 O   0  0  0  0  0  0  0  0  0  0  0  0
  -23.2782  -11.9052   19.8989 O   0  0  0  0  0  0  0  0  0  0  0  0
  -28.3683  -26.4263   20.2748 O   0  0  0  0  0  0  0  0  0  1  0  0
  -23.1762   -7.3017   22.9323 F   0  0  0  0  0  0  0  0  0  0  0  0
  -23.2803  -12.0262   22.6608 F   0  0  0  0  0  0  0  0  0  0  0  0
  -33.3855  -26.0126   22.0077 Cl  0  0  0  0  0  0  0  0  0  0  0  0
  1  2  1  0  0  0  0
  1  5  2  0  0  0  0
  2  6  2  0  0  0  0
  3  8  2  0  0  0  0
  3 17  1  0  0  0  0
  4  9  1  0  0  0  0
  4 17  2  0  0  0  0
  5 19  1  0  0  0  0
  6 21  1  0  0  0  0
  7 10  2  0  0  0  0
  7 20  1  0  0  0  0
  8 24  1  0  0  0  0
  9 24  2  0  0  0  0
 10 25  1  0  0  0  0
 11 12  2  0  0  0  0
 11 26  1  0  0  0  0
 12 27  1  0  0  0  0
 13 22  1  0  0  0  0
 13 25  2  0  0  0  0
 14 23  1  0  0  0  0
 14 31  2  0  0  0  0
 15 27  2  0  0  0  0
 15 28  1  0  0  0  0
 16 29  1  0  0  0  0
 16 61  2  0  0  0  0
 17 30  1  0  0  0  0
 18 30  1  0  0  0  0
 18 32  2  0  0  0  0
 18 33  1  0  0  0  0
 19 21  2  0  0  0  0
 19 38  1  0  0  0  0
 20 22  2  0  0  0  0
 20 39  1  0  0  0  0
 21 47  1  0  0  0  0
 22 40  1  0  0  0  0
 23 29  2  0  0  0  0
 23 55  1  0  0  0  0
 24 77  1  0  0  0  0
 25 78  1  0  0  0  0
 26 28  2  0  0  0  0
 26 77  1  0  0  0  0
 27 79  1  0  0  0  0
 28 80  1  0  0  0  0
 29 81  1  0  0  0  0
 30 62  2  0  0  0  0
 31 61  1  0  0  0  0
 31 68  1  0  0  0  0
 32 63  1  0  0  0  0
 32 66  1  0  0  0  0
 33 67  1  0  0  0  0
 33 72  2  0  0  0  0
 34 48  1  0  0  0  0
 34 69  1  0  0  0  0
 34 73  2  0  0  0  0
 35 58  1  0  0  0  0
 35 64  1  0  0  0  0
 35 74  2  0  0  0  0
 36 59  1  0  0  0  0
 36 70  1  0  0  0  0
 36 75  2  0  0  0  0
 37 65  1  0  0  0  0
 37 68  1  0  0  0  0
 37 76  2  0  0  0  0
 38 41  1  0  0  0  0
 39 48  1  0  0  0  0
 40 64  1  0  0  0  0
 41 43  1  0  0  0  0
 42 44  1  0  0  0  0
 42 45  1  0  0  0  0
 43 47  1  0  0  0  0
 44 49  1  0  0  0  0
 45 65  1  0  0  0  0
 46 49  1  0  0  0  0
 46 65  1  0  0  0  0
 47 69  1  0  0  0  0
 48 64  1  0  0  0  0
 49 63  1  0  0  0  0
 50 59  1  0  0  0  0
 51 60  1  0  0  0  0
 52 60  1  0  0  0  0
 53 60  1  0  0  0  0
 54 71  1  0  0  0  0
 55 56  1  0  0  0  0
 56 57  1  0  0  0  0
 57 78  1  0  0  0  0
 58 60  1  0  0  0  0
 58 70  1  0  0  0  0
 59 71  1  0  0  0  0
 62 63  1  0  0  0  0
M  CHG  1  71   1
M  ISO  4  37 100  57 101  68 100  78 101
M  END
> <Batch ID>
0027

> <Smiles>
CNC(C)C(=O)NC(C(=O)N1Cc2cc([101O:1][101CH2:1]CCc3cc([100NH:0][100C:0](=O)N4CCCC(n5nc(-c6ccc(Oc7ccc(F)cc7F)cc6)c(C(N)=O)c5N)C4)ncc3Cl)ccc2CC1C(=O)NC1CCCc2ccccc21)C(C)(C)C

> <Shape>
0.193

> <Color>
0.076

> <Negative vol penalty>
0.000

$$$$

  -OEChem-04052316303D

 85 93  0     1  0  0  0  0  0999 V2000
  -31.0473  -24.0730   16.7357 C   0  0  0  0  0  0  0  0  0  0  0  0
  -29.7904  -23.9602   17.3215 C   0  0  0  0  0  0  0  0  0  0  0  0
  -29.0452  -12.1873   20.4591 C   0  0  0  0  0  0  0  0  0  0  0  0
  -28.1115  -14.3536   20.9811 C   0  0  0  0  0  0  0  0  0  0  0  0
  -32.0093  -24.9048   17.3071 C   0  0  0  0  0  0  0  0  0  0  0  0
  -29.4953  -24.6785   18.4797 C   0  0  0  0  0  0  0  0  0  0  0  0
  -24.9451  -26.8928   18.2859 C   0  0  0  0  0  0  0  0  0  0  0  0
  -30.2729  -12.7850   20.1744 C   0  0  0  0  0  0  0  0  0  0  0  0
  -29.3393  -14.9513   20.6964 C   0  0  0  0  0  0  0  0  0  0  0  0
  -23.8329  -26.0834   18.5131 C   0  0  0  0  0  0  0  0  0  0  0  0
  -32.3279  -17.0075   20.4551 C   0  0  0  0  0  0  0  0  0  0  0  0
  -32.8020  -17.9721   21.3441 C   0  0  0  0  0  0  0  0  0  0  0  0
  -23.7182  -26.8889   20.7841 C   0  0  0  0  0  0  0  0  0  0  0  0
  -17.9335  -16.7802   18.8080 C   0  0  0  0  0  0  0  0  0  0  0  0
  -32.7962  -16.3364   23.1221 C   0  0  0  0  0  0  0  0  0  0  0  0
  -27.9645  -12.9716   20.8624 C   0  0  0  0  0  0  0  0  0  0  0  0
  -26.2562  -11.8657   22.4007 C   0  0  0  0  0  0  0  0  0  0  0  0
  -31.7226  -25.6411   18.4674 C   0  0  0  0  0  0  0  0  0  0  0  0
  -25.4597  -27.6995   19.3110 C   0  0  0  0  0  0  0  0  0  0  0  0
  -30.4549  -25.5200   19.0679 C   0  0  0  0  0  0  0  0  0  0  0  0
  -24.8354  -27.7096   20.5666 C   0  0  0  0  0  0  0  0  0  0  0  0
  -19.1372  -17.0289   19.4582 C   0  0  0  0  0  0  0  0  0  0  0  0
  -30.4200  -14.1670   20.2931 C   0  0  0  0  0  0  0  0  0  0  0  0
  -23.2210  -26.0792   19.7632 C   0  0  0  0  0  0  0  0  0  0  0  0
  -32.0879  -15.7073   20.8996 C   0  0  0  0  0  0  0  0  0  0  0  0
  -33.0362  -17.6366   22.6776 C   0  0  0  0  0  0  0  0  0  0  0  0
  -32.3220  -15.3717   22.2331 C   0  0  0  0  0  0  0  0  0  0  0  0
  -20.1494  -16.0762   19.4236 C   0  0  0  0  0  0  0  0  0  0  0  0
  -26.6958  -12.3548   21.1560 C   0  0  0  0  0  0  0  0  0  0  0  0
  -17.7932  -15.5730   18.1426 C   0  0  0  0  0  0  0  0  0  0  0  0
  -19.9097  -14.9004   18.7308 C   0  0  0  0  0  0  0  0  0  0  0  0
  -24.9946  -11.3824   22.1536 C   0  0  0  0  0  0  0  0  0  0  0  0
  -26.9283  -11.8497   23.6671 C   0  0  0  0  0  0  0  0  0  0  0  0
  -28.2292  -27.8605   20.8626 C   0  0  0  0  0  0  0  0  0  0  0  0
  -26.8880  -30.5004   22.1873 C   0  0  0  0  0  0  0  0  0  0  0  0
  -24.0481  -32.2033   23.0130 C   0  0  0  0  0  0  0  0  0  0  0  0
  -20.8625  -12.6745   18.0351 C   0  0  0  0  0  0  0  0  0  0  0  0
  -32.8103  -26.4908   19.0752 C   0  0  0  0  0  0  0  0  0  0  0  0
  -26.6439  -28.5871   19.0420 C   0  0  0  0  0  0  0  0  0  0  0  0
  -25.3366  -28.5728   21.6945 C   0  0  0  0  0  0  0  0  0  0  0  0
  -32.2939  -27.5063   20.0913 C   0  0  0  0  0  0  0  0  0  0  0  0
  -22.3285   -9.4895   18.6545 C   0  0  0  0  0  0  0  0  0  0  0  0
  -31.3138  -26.8456   21.0555 C   0  0  0  0  0  0  0  0  0  0  0  0
  -23.5715   -9.8178   19.4847 C   0  0  0  0  0  0  0  0  0  0  0  0
  -22.0656  -10.5475   17.5843 C   0  0  0  0  0  0  0  0  0  0  0  0
  -23.2451  -12.2569   18.9093 C   0  0  0  0  0  0  0  0  0  0  0  0
  -30.0886  -26.3021   20.3106 C   0  0  1  0  0  0  0  0  0  0  0  0
  -27.3952  -28.9815   20.3098 C   0  0  1  0  0  0  0  0  0  0  0  0
  -23.5135  -11.2534   20.0427 C   0  0  2  0  0  0  0  0  0  0  0  0
  -16.5144  -15.2725   17.4341 C   0  0  0  0  0  0  0  0  0  0  0  0
  -23.2699  -34.3159   24.1215 C   0  0  0  0  0  0  0  0  0  0  0  0
  -27.5159  -29.2953   24.9193 C   0  0  0  0  0  0  0  0  0  0  0  0
  -25.9124  -30.9302   25.9314 C   0  0  0  0  0  0  0  0  0  0  0  0
  -27.9437  -31.7528   24.7398 C   0  0  0  0  0  0  0  0  0  0  0  0
  -22.7165  -33.1458   20.5437 C   0  0  0  0  0  0  0  0  0  0  0  0
  -19.2995  -18.3398   20.1855 C   0  0  0  0  0  0  0  0  0  0  0  0
  -20.1210  -19.3789   19.4137 C   0  0  0  0  0  0  0  0  0  0  0  0
  -20.2859  -20.6988   20.1753 C   0  0  0  0  0  0  0  0  0  0  0  0
  -21.1366  -21.6925   19.3800 C   0  0  0  0  0  0  0  0  0  0  0  0
  -21.2756  -23.0528   20.0643 C   0  0  0  0  0  0  0  0  0  0  0  0
  -22.0511  -24.0748   19.2439 C   0  0  0  0  0  0  0  0  0  1  0  0
  -26.0354  -30.7706   23.4035 C   0  0  1  0  0  0  0  0  0  0  0  0
  -23.6464  -33.6525   22.8058 C   0  0  2  0  0  0  0  0  0  0  0  0
  -26.8434  -30.6694   24.7280 C   0  0  0  0  0  0  0  0  0  0  0  0
  -25.7873  -12.1966   20.1898 N   0  0  0  0  0  0  0  0  0  0  0  0
  -18.7537  -14.6233   18.0870 N   0  0  0  0  0  0  0  0  0  0  0  0
  -24.7643  -11.6025   20.8274 N   0  0  0  0  0  0  0  0  0  0  0  0
  -26.5011  -29.4184   21.3839 N   0  0  0  0  0  0  0  0  0  0  0  0
  -22.0196  -11.8815   18.1869 N   0  0  0  0  0  0  0  0  0  0  0  0
  -24.0708  -10.7947   22.9434 N   0  0  0  0  0  0  0  0  0  0  0  0
  -28.2204  -12.3870   23.7447 N   0  0  0  0  0  0  0  0  0  0  0  0
  -20.9218  -13.9101   18.6789 N   0  0  0  0  0  0  0  0  0  0  0  0
  -29.1785  -27.3783   19.9819 N   0  0  0  0  0  0  0  0  0  0  0  0
  -25.4099  -32.0701   23.1829 N   0  0  0  0  0  0  0  0  0  0  0  0
  -22.4783  -33.7396   21.8844 N   0  3  0  0  0  0  0  0  0  0  0  0
  -26.4050  -11.3581   24.6958 O   0  0  0  0  0  0  0  0  0  0  0  0
  -28.0274  -27.4636   22.0043 O   0  0  0  0  0  0  0  0  0  0  0  0
  -27.8573  -31.2271   21.9547 O   0  0  0  0  0  0  0  0  0  0  0  0
  -23.2347  -31.2820   23.0267 O   0  0  0  0  0  0  0  0  0  0  0  0
  -19.8800  -12.2750   17.4051 O   0  0  0  0  0  0  0  0  0  0  0  0
  -31.6179  -14.7505   20.0157 O   0  0  0  0  0  0  0  0  0  0  0  0
  -22.1357  -25.2896   19.9879 O   0  0  0  0  0  0  0  0  0  1  0  0
  -33.4930  -18.5626   23.5308 F   0  0  0  0  0  0  0  0  0  0  0  0
  -32.0944  -14.1240   22.6658 F   0  0  0  0  0  0  0  0  0  0  0  0
  -21.6536  -16.3678   20.2240 Cl  0  0  0  0  0  0  0  0  0  0  0  0
  1  2  1  0  0  0  0
  1  5  2  0  0  0  0
  2  6  2  0  0  0  0
  3  8  2  0  0  0  0
  3 16  1  0  0  0  0
  4  9  1  0  0  0  0
  4 16  2  0  0  0  0
  5 18  1  0  0  0  0
  6 20  1  0  0  0  0
  7 10  2  0  0  0  0
  7 19  1  0  0  0  0
  8 23  1  0  0  0  0
  9 23  2  0  0  0  0
 10 24  1  0  0  0  0
 11 12  2  0  0  0  0
 11 25  1  0  0  0  0
 12 26  1  0  0  0  0
 13 21  1  0  0  0  0
 13 24  2  0  0  0  0
 14 22  1  0  0  0  0
 14 30  2  0  0  0  0
 15 26  2  0  0  0  0
 15 27  1  0  0  0  0
 16 29  1  0  0  0  0
 17 29  1  0  0  0  0
 17 32  2  0  0  0  0
 17 33  1  0  0  0  0
 18 20  2  0  0  0  0
 18 38  1  0  0  0  0
 19 21  2  0  0  0  0
 19 39  1  0  0  0  0
 20 47  1  0  0  0  0
 21 40  1  0  0  0  0
 22 28  2  0  0  0  0
 22 56  1  0  0  0  0
 23 81  1  0  0  0  0
 24 82  1  0  0  0  0
 25 27  2  0  0  0  0
 25 81  1  0  0  0  0
 26 83  1  0  0  0  0
 27 84  1  0  0  0  0
 28 31  1  0  0  0  0
 28 85  1  0  0  0  0
 29 65  2  0  0  0  0
 30 50  1  0  0  0  0
 30 66  1  0  0  0  0
 31 66  2  0  0  0  0
 31 72  1  0  0  0  0
 32 67  1  0  0  0  0
 32 70  1  0  0  0  0
 33 71  1  0  0  0  0
 33 76  2  0  0  0  0
 34 48  1  0  0  0  0
 34 73  1  0  0  0  0
 34 77  2  0  0  0  0
 35 62  1  0  0  0  0
 35 68  1  0  0  0  0
 35 78  2  0  0  0  0
 36 63  1  0  0  0  0
 36 74  1  0  0  0  0
 36 79  2  0  0  0  0
 37 69  1  0  0  0  0
 37 72  1  0  0  0  0
 37 80  2  0  0  0  0
 38 41  1  0  0  0  0
 39 48  1  0  0  0  0
 40 68  1  0  0  0  0
 41 43  1  0  0  0  0
 42 44  1  0  0  0  0
 42 45  1  0  0  0  0
 43 47  1  0  0  0  0
 44 49  1  0  0  0  0
 45 69  1  0  0  0  0
 46 49  1  0  0  0  0
 46 69  1  0  0  0  0
 47 73  1  0  0  0  0
 48 68  1  0  0  0  0
 49 67  1  0  0  0  0
 51 63  1  0  0  0  0
 52 64  1  0  0  0  0
 53 64  1  0  0  0  0
 54 64  1  0  0  0  0
 55 75  1  0  0  0  0
 56 57  1  0  0  0  0
 57 58  1  0  0  0  0
 58 59  1  0  0  0  0
 59 60  1  0  0  0  0
 60 61  1  0  0  0  0
 61 82  1  0  0  0  0
 62 64  1  0  0  0  0
 62 74  1  0  0  0  0
 63 75  1  0  0  0  0
 65 67  1  0  0  0  0
M  CHG  1  75   1
M  ISO  4  37 100  61 101  72 100  82 101
M  END
> <Batch ID>
0027

> <Smiles>
CNC(C)C(=O)NC(C(=O)N1Cc2cc([101O:1][101CH2:1]CCCCCc3cc(C)nc([100NH:0][100C:0](=O)N4CCCC(n5nc(-c6ccc(Oc7ccc(F)cc7F)cc6)c(C(N)=O)c5N)C4)c3Cl)ccc2CC1C(=O)NC1CCCc2ccccc21)C(C)(C)C

> <Shape>
0.232

> <Color>
0.070

> <Negative vol penalty>
0.000

$$$$

  -OEChem-04052316303D

 82 90  0     1  0  0  0  0  0999 V2000
  -21.7168  -11.6512   19.7002 C   0  0  0  0  0  0  0  0  0  0  0  0
  -21.5958  -12.7511   20.5435 C   0  0  0  0  0  0  0  0  0  0  0  0
  -26.1172  -29.6419   21.3004 C   0  0  0  0  0  0  0  0  0  0  0  0
  -24.9039  -27.7799   20.3526 C   0  0  0  0  0  0  0  0  0  0  0  0
  -22.9800  -11.1569   19.3781 C   0  0  0  0  0  0  0  0  0  0  0  0
  -22.7381  -13.3566   21.0659 C   0  0  0  0  0  0  0  0  0  0  0  0
  -22.5527  -18.4103   20.7989 C   0  0  0  0  0  0  0  0  0  0  0  0
  -27.2665  -29.2390   20.6205 C   0  0  0  0  0  0  0  0  0  0  0  0
  -26.0533  -27.3771   19.6727 C   0  0  0  0  0  0  0  0  0  0  0  0
  -21.7764  -19.0701   21.7505 C   0  0  0  0  0  0  0  0  0  0  0  0
  -30.6160  -28.4933   19.4168 C   0  0  0  0  0  0  0  0  0  0  0  0
  -31.8189  -28.4835   20.1228 C   0  0  0  0  0  0  0  0  0  0  0  0
  -23.7678  -19.5791   23.0133 C   0  0  0  0  0  0  0  0  0  0  0  0
  -19.4570  -22.6844   27.5355 C   0  0  0  0  0  0  0  0  0  0  0  0
  -30.8888  -26.8930   21.6856 C   0  0  0  0  0  0  0  0  0  0  0  0
  -24.9358  -28.9123   21.1665 C   0  0  0  0  0  0  0  0  0  0  0  0
  -22.7531  -30.2103   21.4083 C   0  0  0  0  0  0  0  0  0  0  0  0
  -24.1387  -11.7627   19.8891 C   0  0  0  0  0  0  0  0  0  0  0  0
  -23.9436  -18.3203   20.9531 C   0  0  0  0  0  0  0  0  0  0  0  0
  -24.0179  -12.8691   20.7514 C   0  0  0  0  0  0  0  0  0  0  0  0
  -24.5598  -18.9198   22.0609 C   0  0  0  0  0  0  0  0  0  0  0  0
  -20.0485  -21.4689   27.8792 C   0  0  0  0  0  0  0  0  0  0  0  0
  -19.7945  -23.3096   26.3351 C   0  0  0  0  0  0  0  0  0  0  0  0
  -21.3152  -21.5037   25.8221 C   0  0  0  0  0  0  0  0  0  0  0  0
  -27.2346  -28.1067   19.8067 C   0  0  0  0  0  0  0  0  0  0  0  0
  -22.3836  -19.6522   22.8594 C   0  0  0  0  0  0  0  0  0  0  0  0
  -29.5493  -27.7031   19.8453 C   0  0  0  0  0  0  0  0  0  0  0  0
  -31.9554  -27.6833   21.2571 C   0  0  0  0  0  0  0  0  0  0  0  0
  -29.6858  -26.9029   20.9797 C   0  0  0  0  0  0  0  0  0  0  0  0
  -20.9776  -20.8785   27.0225 C   0  0  0  0  0  0  0  0  0  0  0  0
  -20.7236  -22.7193   25.4785 C   0  0  0  0  0  0  0  0  0  0  0  0
  -23.7483  -29.3276   21.8689 C   0  0  0  0  0  0  0  0  0  0  0  0
  -21.8475  -30.2747   22.4390 C   0  0  0  0  0  0  0  0  0  0  0  0
  -22.6559  -30.9095   20.1604 C   0  0  0  0  0  0  0  0  0  0  0  0
  -26.0128  -15.9316   21.2941 C   0  0  0  0  0  0  0  0  0  0  0  0
  -28.2032  -18.3135   21.0679 C   0  0  0  0  0  0  0  0  0  0  0  0
  -28.9239  -21.6302   21.4239 C   0  0  0  0  0  0  0  0  0  0  0  0
  -20.4586  -26.5149   26.8871 C   0  0  0  0  0  0  0  0  0  0  0  0
  -25.4808  -11.1636   19.5505 C   0  0  0  0  0  0  0  0  0  0  0  0
  -24.7698  -17.6282   19.9039 C   0  0  0  0  0  0  0  0  0  0  0  0
  -26.0515  -18.8688   22.2625 C   0  0  0  0  0  0  0  0  0  0  0  0
  -26.6549  -12.0933   19.8461 C   0  0  0  0  0  0  0  0  0  0  0  0
  -21.5582  -29.8869   27.1989 C   0  0  0  0  0  0  0  0  0  0  0  0
  -26.5066  -12.7169   21.2303 C   0  0  0  0  0  0  0  0  0  0  0  0
  -22.1544  -30.2056   25.8267 C   0  0  0  0  0  0  0  0  0  0  0  0
  -21.8342  -28.4431   27.6127 C   0  0  0  0  0  0  0  0  0  0  0  0
  -22.0149  -27.7452   25.2560 C   0  0  0  0  0  0  0  0  0  0  0  0
  -25.2343  -13.5685   21.3182 C   0  0  1  0  0  0  0  0  0  0  0  0
  -26.1222  -17.1530   20.4258 C   0  0  1  0  0  0  0  0  0  0  0  0
  -21.7144  -29.1737   24.7708 C   0  0  2  0  0  0  0  0  0  0  0  0
  -19.6545  -20.8347   29.1746 C   0  0  0  0  0  0  0  0  0  0  0  0
  -30.8092  -23.2714   21.2011 C   0  0  0  0  0  0  0  0  0  0  0  0
  -29.3939  -17.2975   23.6871 C   0  0  0  0  0  0  0  0  0  0  0  0
  -30.6124  -19.4745   23.8968 C   0  0  0  0  0  0  0  0  0  0  0  0
  -31.0795  -17.9667   21.9651 C   0  0  0  0  0  0  0  0  0  0  0  0
  -27.4882  -23.1744   19.3470 C   0  0  0  0  0  0  0  0  0  0  0  0
  -19.1329  -24.6100   26.0079 C   0  0  0  0  0  0  0  0  0  0  0  0
  -22.3159  -20.8697   24.9012 C   0  0  0  0  0  0  0  0  0  1  0  0
  -28.8912  -19.2301   22.0505 C   0  0  1  0  0  0  0  0  0  0  0  0
  -29.6285  -22.6121   20.5053 C   0  0  2  0  0  0  0  0  0  0  0  0
  -29.9659  -18.4917   22.8974 C   0  0  0  0  0  0  0  0  0  0  0  0
  -23.4988  -28.8646   23.0967 N   0  0  0  0  0  0  0  0  0  0  0  0
  -22.3365  -29.4587   23.4164 N   0  0  0  0  0  0  0  0  0  0  0  0
  -26.8155  -18.1753   21.2123 N   0  0  0  0  0  0  0  0  0  0  0  0
  -21.3922  -27.5150   26.5690 N   0  0  0  0  0  0  0  0  0  0  0  0
  -20.6887  -30.9492   22.5956 N   0  0  0  0  0  0  0  0  0  0  0  0
  -23.6729  -30.7300   19.2129 N   0  0  0  0  0  0  0  0  0  0  0  0
  -25.4345  -14.8450   20.6663 N   0  0  0  0  0  0  0  0  0  0  0  0
  -29.4098  -20.3489   21.2709 N   0  0  0  0  0  0  0  0  0  0  0  0
  -20.0886  -25.6818   25.8384 N   0  0  0  0  0  0  0  0  0  0  0  0
  -28.6855  -23.6796   20.0669 N   0  3  0  0  0  0  0  0  0  0  0  0
  -21.7038  -31.6836   19.8999 O   0  0  0  0  0  0  0  0  0  0  0  0
  -26.4240  -15.9717   22.4478 O   0  0  0  0  0  0  0  0  0  0  0  0
  -28.8715  -17.7467   20.1997 O   0  0  0  0  0  0  0  0  0  0  0  0
  -28.0342  -21.9669   22.2021 O   0  0  0  0  0  0  0  0  0  0  0  0
  -19.9856  -26.3781   28.0205 O   0  0  0  0  0  0  0  0  0  0  0  0
  -28.3559  -27.7134   19.1429 O   0  0  0  0  0  0  0  0  0  0  0  0
  -21.6281  -20.2963   23.7902 O   0  0  0  0  0  0  0  0  0  1  0  0
  -33.1111  -27.6728   21.9340 F   0  0  0  0  0  0  0  0  0  0  0  0
  -28.6650  -26.1408   21.3955 F   0  0  0  0  0  0  0  0  0  0  0  0
  -21.7079  -19.3681   27.4563 Cl  0  0  0  0  0  0  0  0  0  0  0  0
  -21.1385  -23.5019   23.9886 Cl  0  0  0  0  0  0  0  0  0  0  0  0
  1  2  1  0  0  0  0
  1  5  2  0  0  0  0
  2  6  2  0  0  0  0
  3  8  2  0  0  0  0
  3 16  1  0  0  0  0
  4  9  1  0  0  0  0
  4 16  2  0  0  0  0
  5 18  1  0  0  0  0
  6 20  1  0  0  0  0
  7 10  2  0  0  0  0
  7 19  1  0  0  0  0
  8 25  1  0  0  0  0
  9 25  2  0  0  0  0
 10 26  1  0  0  0  0
 11 12  2  0  0  0  0
 11 27  1  0  0  0  0
 12 28  1  0  0  0  0
 13 21  1  0  0  0  0
 13 26  2  0  0  0  0
 14 22  1  0  0  0  0
 14 23  2  0  0  0  0
 15 28  2  0  0  0  0
 15 29  1  0  0  0  0
 16 32  1  0  0  0  0
 17 32  1  0  0  0  0
 17 33  2  0  0  0  0
 17 34  1  0  0  0  0
 18 20  2  0  0  0  0
 18 39  1  0  0  0  0
 19 21  2  0  0  0  0
 19 40  1  0  0  0  0
 20 48  1  0  0  0  0
 21 41  1  0  0  0  0
 22 30  2  0  0  0  0
 22 51  1  0  0  0  0
 23 31  1  0  0  0  0
 23 57  1  0  0  0  0
 24 30  1  0  0  0  0
 24 31  2  0  0  0  0
 24 58  1  0  0  0  0
 25 77  1  0  0  0  0
 26 78  1  0  0  0  0
 27 29  2  0  0  0  0
 27 77  1  0  0  0  0
 28 79  1  0  0  0  0
 29 80  1  0  0  0  0
 30 81  1  0  0  0  0
 31 82  1  0  0  0  0
 32 62  2  0  0  0  0
 33 63  1  0  0  0  0
 33 66  1  0  0  0  0
 34 67  1  0  0  0  0
 34 72  2  0  0  0  0
 35 49  1  0  0  0  0
 35 68  1  0  0  0  0
 35 73  2  0  0  0  0
 36 59  1  0  0  0  0
 36 64  1  0  0  0  0
 36 74  2  0  0  0  0
 37 60  1  0  0  0  0
 37 69  1  0  0  0  0
 37 75  2  0  0  0  0
 38 65  1  0  0  0  0
 38 70  1  0  0  0  0
 38 76  2  0  0  0  0
 39 42  1  0  0  0  0
 40 49  1  0  0  0  0
 41 64  1  0  0  0  0
 42 44  1  0  0  0  0
 43 45  1  0  0  0  0
 43 46  1  0  0  0  0
 44 48  1  0  0  0  0
 45 50  1  0  0  0  0
 46 65  1  0  0  0  0
 47 50  1  0  0  0  0
 47 65  1  0  0  0  0
 48 68  1  0  0  0  0
 49 64  1  0  0  0  0
 50 63  1  0  0  0  0
 52 60  1  0  0  0  0
 53 61  1  0  0  0  0
 54 61  1  0  0  0  0
 55 61  1  0  0  0  0
 56 71  1  0  0  0  0
 57 70  1  0  0  0  0
 58 78  1  0  0  0  0
 59 61  1  0  0  0  0
 59 69  1  0  0  0  0
 60 71  1  0  0  0  0
 62 63  1  0  0  0  0
M  CHG  1  71   1
M  ISO  4  38 100  58 101  70 100  78 101
M  END
> <Batch ID>
0027

> <Smiles>
CNC(C)C(=O)NC(C(=O)N1Cc2cc([101O:1][101CH2:1]c3c(Cl)c(C)cc(C[100NH:0][100C:0](=O)N4CCCC(n5nc(-c6ccc(Oc7ccc(F)cc7F)cc6)c(C(N)=O)c5N)C4)c3Cl)ccc2CC1C(=O)NC1CCCc2ccccc21)C(C)(C)C

> <Shape>
0.204

> <Color>
0.076

> <Negative vol penalty>
0.000

$$$$

  -OEChem-04052316303D

 95103  0     1  0  0  0  0  0999 V2000
  -28.9733  -19.9350   26.2344 C   0  0  0  0  0  0  0  0  0  0  0  0
  -28.5073  -20.7854   25.2368 C   0  0  0  0  0  0  0  0  0  0  0  0
  -22.9440  -10.0359   19.9153 C   0  0  0  0  0  0  0  0  0  0  0  0
  -23.8425   -9.7636   22.1414 C   0  0  0  0  0  0  0  0  0  0  0  0
  -30.1608  -20.2308   26.9024 C   0  0  0  0  0  0  0  0  0  0  0  0
  -29.2280  -21.9327   24.9074 C   0  0  0  0  0  0  0  0  0  0  0  0
  -29.7964  -24.4562   19.3563 C   0  0  0  0  0  0  0  0  0  0  0  0
  -22.1663   -8.8911   20.0892 C   0  0  0  0  0  0  0  0  0  0  0  0
  -23.0647   -8.6188   22.3153 C   0  0  0  0  0  0  0  0  0  0  0  0
  -29.1448  -25.5236   18.7400 C   0  0  0  0  0  0  0  0  0  0  0  0
  -23.1728   -5.3691   21.3889 C   0  0  0  0  0  0  0  0  0  0  0  0
  -23.7848   -4.2490   21.9513 C   0  0  0  0  0  0  0  0  0  0  0  0
  -30.9450  -26.9911   19.3916 C   0  0  0  0  0  0  0  0  0  0  0  0
  -26.1521  -28.4381   18.4198 C   0  0  0  0  0  0  0  0  0  0  0  0
  -22.2006   -4.2989   23.7747 C   0  0  0  0  0  0  0  0  0  0  0  0
  -23.7822  -10.4721   20.9414 C   0  0  0  0  0  0  0  0  0  0  0  0
  -24.2281  -12.9806   21.0693 C   0  0  0  0  0  0  0  0  0  0  0  0
  -30.9015  -21.3773   26.5744 C   0  0  0  0  0  0  0  0  0  0  0  0
  -31.0241  -24.6509   20.0055 C   0  0  0  0  0  0  0  0  0  0  0  0
  -30.4259  -22.2449   25.5726 C   0  0  0  0  0  0  0  0  0  0  0  0
  -31.6114  -25.9241   20.0132 C   0  0  0  0  0  0  0  0  0  0  0  0
  -26.8220  -29.4896   19.0353 C   0  0  0  0  0  0  0  0  0  0  0  0
  -24.9792  -27.9452   18.9806 C   0  0  0  0  0  0  0  0  0  0  0  0
  -22.2266   -8.1826   21.2892 C   0  0  0  0  0  0  0  0  0  0  0  0
  -29.7176  -26.7918   18.7601 C   0  0  0  0  0  0  0  0  0  0  0  0
  -22.0746   -5.9542   22.0194 C   0  0  0  0  0  0  0  0  0  0  0  0
  -23.2988   -3.7139   23.1442 C   0  0  0  0  0  0  0  0  0  0  0  0
  -21.5885   -5.4191   23.2123 C   0  0  0  0  0  0  0  0  0  0  0  0
  -24.5863  -11.6542   20.7622 C   0  0  0  0  0  0  0  0  0  0  0  0
  -26.2819  -30.0092   20.2007 C   0  0  0  0  0  0  0  0  0  0  0  0
  -24.5216  -28.5337   20.1486 C   0  0  0  0  0  0  0  0  0  0  0  0
  -25.3282  -13.7236   20.7171 C   0  0  0  0  0  0  0  0  0  0  0  0
  -23.0099  -13.4949   21.6234 C   0  0  0  0  0  0  0  0  0  0  0  0
  -32.0568  -24.3297   22.9945 C   0  0  0  0  0  0  0  0  0  0  0  0
  -34.9368  -24.9939   21.6579 C   0  0  0  0  0  0  0  0  0  0  0  0
  -36.6819  -26.4246   19.0977 C   0  0  0  0  0  0  0  0  0  0  0  0
  -30.8531  -14.5089   20.6523 C   0  0  0  0  0  0  0  0  0  0  0  0
  -32.1548  -21.6803   27.3567 C   0  0  0  0  0  0  0  0  0  0  0  0
  -31.7272  -23.4837   20.6425 C   0  0  0  0  0  0  0  0  0  0  0  0
  -32.9376  -26.1816   20.6791 C   0  0  0  0  0  0  0  0  0  0  0  0
  -33.0532  -22.7186   26.6895 C   0  0  0  0  0  0  0  0  0  0  0  0
  -29.4665  -12.4440   18.1047 C   0  0  0  0  0  0  0  0  0  0  0  0
  -32.2295  -23.9119   26.2159 C   0  0  0  0  0  0  0  0  0  0  0  0
  -28.0466  -12.1591   18.5974 C   0  0  0  0  0  0  0  0  0  0  0  0
  -30.4644  -12.4976   19.2594 C   0  0  0  0  0  0  0  0  0  0  0  0
  -28.6856  -13.1438   20.8381 C   0  0  0  0  0  0  0  0  0  0  0  0
  -31.1924  -23.4860   25.1697 C   0  0  1  0  0  0  0  0  0  0  0  0
  -32.7247  -23.9019   21.7184 C   0  0  1  0  0  0  0  0  0  0  0  0
  -27.6343  -13.1357   19.7151 C   0  0  2  0  0  0  0  0  0  0  0  0
  -27.1135  -32.4814   23.0471 C   0  0  0  0  0  0  0  0  0  0  0  0
  -39.0250  -26.8398   18.3010 C   0  0  0  0  0  0  0  0  0  0  0  0
  -35.2435  -27.2164   23.7258 C   0  0  0  0  0  0  0  0  0  0  0  0
  -37.0816  -28.1742   22.3214 C   0  0  0  0  0  0  0  0  0  0  0  0
  -37.3224  -25.8927   23.3010 C   0  0  0  0  0  0  0  0  0  0  0  0
  -36.2384  -24.8696   16.6189 C   0  0  0  0  0  0  0  0  0  0  0  0
  -28.0794  -30.0217   18.4396 C   0  0  0  0  0  0  0  0  0  0  0  0
  -24.2599  -26.8103   18.3130 C   0  0  0  0  0  0  0  0  0  0  0  0
  -26.9594  -31.1387   20.9055 C   0  0  0  0  0  0  0  0  0  0  0  0
  -26.3999  -31.3532   22.3191 C   0  0  0  0  0  0  0  0  0  0  0  0
  -27.5250  -19.7836   20.5662 C   0  0  0  0  0  0  0  0  0  0  0  0
  -27.2403  -21.0938   19.8285 C   0  0  0  0  0  0  0  0  0  0  0  0
  -28.9995  -19.3718   20.5302 C   0  0  0  0  0  0  0  0  0  0  0  0
  -25.7588  -21.4676   19.9163 C   0  0  0  0  0  0  0  0  0  0  0  0
  -29.2967  -18.1011   21.3294 C   0  0  0  0  0  0  0  0  0  0  0  0
  -25.4645  -22.7597   19.1521 C   0  0  0  0  0  0  0  0  0  0  0  0
  -30.7846  -17.7503   21.2781 C   0  0  0  0  0  0  0  0  0  0  0  0
  -23.9783  -23.1152   19.2116 C   0  0  0  0  0  0  0  0  0  0  0  0
  -31.0903  -16.5074   22.1045 C   0  0  0  0  0  0  0  0  0  0  0  0
  -23.6873  -24.3814   18.4198 C   0  0  0  0  0  0  0  0  0  0  0  0
  -29.2965  -29.1320   18.7146 C   0  0  0  0  0  0  0  0  0  1  0  0
  -35.7207  -26.2534   21.3783 C   0  0  1  0  0  0  0  0  0  0  0  0
  -37.8259  -25.9062   18.2450 C   0  0  2  0  0  0  0  0  0  0  0  0
  -36.3161  -26.8801   22.6707 C   0  0  0  0  0  0  0  0  0  0  0  0
  -25.8177  -11.5571   20.2539 N   0  0  0  0  0  0  0  0  0  0  0  0
  -25.1449  -29.5567   20.7753 N   0  0  0  0  0  0  0  0  0  0  0  0
  -26.2428  -12.8319   20.2388 N   0  0  0  0  0  0  0  0  0  0  0  0
  -33.5830  -25.0096   21.2935 N   0  0  0  0  0  0  0  0  0  0  0  0
  -30.0154  -13.4431   20.2843 N   0  0  0  0  0  0  0  0  0  0  0  0
  -25.5928  -15.0462   20.7728 N   0  0  0  0  0  0  0  0  0  0  0  0
  -21.9811  -12.5931   21.9275 N   0  0  0  0  0  0  0  0  0  0  0  0
  -31.8230  -23.2959   23.8811 N   0  0  0  0  0  0  0  0  0  0  0  0
  -36.7163  -25.8997   20.3723 N   0  0  0  0  0  0  0  0  0  0  0  0
  -30.3486  -15.3620   21.6262 N   0  0  0  0  0  0  0  0  0  0  0  0
  -37.3959  -25.7780   16.8239 N   0  3  0  0  0  0  0  0  0  0  0  0
  -24.4365  -25.5118   19.0194 N   0  3  0  0  0  0  0  0  0  0  0  0
  -22.8326  -14.7199   21.8271 O   0  0  0  0  0  0  0  0  0  0  0  0
  -31.7757  -25.5105   23.1629 O   0  0  0  0  0  0  0  0  0  0  0  0
  -35.5065  -24.0291   22.1739 O   0  0  0  0  0  0  0  0  0  0  0  0
  -35.8439  -27.2188   18.6764 O   0  0  0  0  0  0  0  0  0  0  0  0
  -31.9659  -14.6900   20.1463 O   0  0  0  0  0  0  0  0  0  0  0  0
  -21.4676   -7.0657   21.4593 O   0  0  0  0  0  0  0  0  0  0  0  0
  -29.0789  -27.8429   18.1556 O   0  0  0  0  0  0  0  0  0  1  0  0
  -23.8857   -2.6373   23.6835 F   0  0  0  0  0  0  0  0  0  0  0  0
  -20.5332   -5.9761   23.8220 F   0  0  0  0  0  0  0  0  0  0  0  0
  -23.0849  -28.0128   20.9378 Cl  0  0  0  0  0  0  0  0  0  0  0  0
  1  2  1  0  0  0  0
  1  5  2  0  0  0  0
  2  6  2  0  0  0  0
  3  8  2  0  0  0  0
  3 16  1  0  0  0  0
  4  9  1  0  0  0  0
  4 16  2  0  0  0  0
  5 18  1  0  0  0  0
  6 20  1  0  0  0  0
  7 10  2  0  0  0  0
  7 19  1  0  0  0  0
  8 24  1  0  0  0  0
  9 24  2  0  0  0  0
 10 25  1  0  0  0  0
 11 12  2  0  0  0  0
 11 26  1  0  0  0  0
 12 27  1  0  0  0  0
 13 21  1  0  0  0  0
 13 25  2  0  0  0  0
 14 22  1  0  0  0  0
 14 23  2  0  0  0  0
 15 27  2  0  0  0  0
 15 28  1  0  0  0  0
 16 29  1  0  0  0  0
 17 29  1  0  0  0  0
 17 32  2  0  0  0  0
 17 33  1  0  0  0  0
 18 20  2  0  0  0  0
 18 38  1  0  0  0  0
 19 21  2  0  0  0  0
 19 39  1  0  0  0  0
 20 47  1  0  0  0  0
 21 40  1  0  0  0  0
 22 30  2  0  0  0  0
 22 56  1  0  0  0  0
 23 31  1  0  0  0  0
 23 57  1  0  0  0  0
 24 91  1  0  0  0  0
 25 92  1  0  0  0  0
 26 28  2  0  0  0  0
 26 91  1  0  0  0  0
 27 93  1  0  0  0  0
 28 94  1  0  0  0  0
 29 74  2  0  0  0  0
 30 58  1  0  0  0  0
 30 75  1  0  0  0  0
 31 75  2  0  0  0  0
 31 95  1  0  0  0  0
 32 76  1  0  0  0  0
 32 79  1  0  0  0  0
 33 80  1  0  0  0  0
 33 86  2  0  0  0  0
 34 48  1  0  0  0  0
 34 81  1  0  0  0  0
 34 87  2  0  0  0  0
 35 71  1  0  0  0  0
 35 77  1  0  0  0  0
 35 88  2  0  0  0  0
 36 72  1  0  0  0  0
 36 82  1  0  0  0  0
 36 89  2  0  0  0  0
 37 78  1  0  0  0  0
 37 83  1  0  0  0  0
 37 90  2  0  0  0  0
 38 41  1  0  0  0  0
 39 48  1  0  0  0  0
 40 77  1  0  0  0  0
 41 43  1  0  0  0  0
 42 44  1  0  0  0  0
 42 45  1  0  0  0  0
 43 47  1  0  0  0  0
 44 49  1  0  0  0  0
 45 78  1  0  0  0  0
 46 49  1  0  0  0  0
 46 78  1  0  0  0  0
 47 81  1  0  0  0  0
 48 77  1  0  0  0  0
 49 76  1  0  0  0  0
 50 59  1  0  0  0  0
 51 72  1  0  0  0  0
 52 73  1  0  0  0  0
 53 73  1  0  0  0  0
 54 73  1  0  0  0  0
 55 84  1  0  0  0  0
 56 70  1  0  0  0  0
 57 85  1  0  0  0  0
 58 59  1  0  0  0  0
 60 61  1  0  0  0  0
 60 62  1  0  0  0  0
 61 63  1  0  0  0  0
 62 64  1  0  0  0  0
 63 65  1  0  0  0  0
 64 66  1  0  0  0  0
 65 67  1  0  0  0  0
 66 68  1  0  0  0  0
 67 69  1  0  0  0  0
 68 83  1  0  0  0  0
 69 85  1  0  0  0  0
 70 92  1  0  0  0  0
 71 73  1  0  0  0  0
 71 82  1  0  0  0  0
 72 84  1  0  0  0  0
 74 76  1  0  0  0  0
M  CHG  2  84   1  85   1
M  ISO  4  37 100  70 101  83 100  92 101
M  END
> <Batch ID>
0027

> <Smiles>
CCCc1nc(Cl)c(CNCCCCCCCCCC[100NH:0][100C:0](=O)N2CCCC(n3nc(-c4ccc(Oc5ccc(F)cc5F)cc4)c(C(N)=O)c3N)C2)cc1C[101CH2:1][101O:1]c1ccc2c(c1)CN(C(=O)C(NC(=O)C(C)NC)C(C)(C)C)C(C(=O)NC1CCCc3ccccc31)C2

> <Shape>
0.283

> <Color>
0.184

> <Negative vol penalty>
0.000

$$$$

  -OEChem-04052316303D

 85 93  0     1  0  0  0  0  0999 V2000
  -15.9882  -26.8638   24.6482 C   0  0  0  0  0  0  0  0  0  0  0  0
  -16.6685  -25.7886   24.0855 C   0  0  0  0  0  0  0  0  0  0  0  0
  -25.8635  -13.0707   20.4147 C   0  0  0  0  0  0  0  0  0  0  0  0
  -23.9447  -14.5180   20.6611 C   0  0  0  0  0  0  0  0  0  0  0  0
  -16.3263  -28.1673   24.2870 C   0  0  0  0  0  0  0  0  0  0  0  0
  -17.6865  -26.0163   23.1602 C   0  0  0  0  0  0  0  0  0  0  0  0
  -23.9356  -23.2971   20.9532 C   0  0  0  0  0  0  0  0  0  0  0  0
  -25.1892  -12.0601   21.0998 C   0  0  0  0  0  0  0  0  0  0  0  0
  -23.2704  -13.5074   21.3462 C   0  0  0  0  0  0  0  0  0  0  0  0
  -24.5811  -22.8901   19.7864 C   0  0  0  0  0  0  0  0  0  0  0  0
  -22.8036   -9.7595   20.4296 C   0  0  0  0  0  0  0  0  0  0  0  0
  -22.8604   -8.4694   19.9023 C   0  0  0  0  0  0  0  0  0  0  0  0
  -25.1325  -25.1870   19.2974 C   0  0  0  0  0  0  0  0  0  0  0  0
  -32.1574  -25.3236   20.0198 C   0  0  0  0  0  0  0  0  0  0  0  0
  -31.3321  -23.7492   18.3835 C   0  0  0  0  0  0  0  0  0  0  0  0
  -23.8943   -7.6825   21.9392 C   0  0  0  0  0  0  0  0  0  0  0  0
  -25.2413  -14.2997   20.1953 C   0  0  0  0  0  0  0  0  0  0  0  0
  -25.9356  -15.5784   18.0999 C   0  0  0  0  0  0  0  0  0  0  0  0
  -17.3556  -28.4114   23.3641 C   0  0  0  0  0  0  0  0  0  0  0  0
  -23.8742  -24.6555   21.2958 C   0  0  0  0  0  0  0  0  0  0  0  0
  -18.0378  -27.3243   22.7852 C   0  0  0  0  0  0  0  0  0  0  0  0
  -24.4879  -25.6084   20.4704 C   0  0  0  0  0  0  0  0  0  0  0  0
  -32.3521  -24.5724   18.8607 C   0  0  0  0  0  0  0  0  0  0  0  0
  -30.9427  -25.2516   20.7017 C   0  0  0  0  0  0  0  0  0  0  0  0
  -29.9227  -24.4285   20.2245 C   0  0  0  0  0  0  0  0  0  0  0  0
  -23.8926  -12.2784   21.5656 C   0  0  0  0  0  0  0  0  0  0  0  0
  -25.1771  -23.8353   18.9568 C   0  0  0  0  0  0  0  0  0  0  0  0
  -23.2921  -10.0111   21.7117 C   0  0  0  0  0  0  0  0  0  0  0  0
  -30.1174  -23.6773   19.0654 C   0  0  0  0  0  0  0  0  0  0  0  0
  -23.4058   -7.4309   20.6571 C   0  0  0  0  0  0  0  0  0  0  0  0
  -23.8374   -8.9726   22.4665 C   0  0  0  0  0  0  0  0  0  0  0  0
  -25.9376  -15.3443   19.4881 C   0  0  0  0  0  0  0  0  0  0  0  0
  -26.7426  -16.6776   17.9360 C   0  0  0  0  0  0  0  0  0  0  0  0
  -25.2642  -14.8660   17.0524 C   0  0  0  0  0  0  0  0  0  0  0  0
  -21.5286  -26.7596   21.7138 C   0  0  0  0  0  0  0  0  0  0  0  0
  -23.9542  -28.6852   22.6787 C   0  0  0  0  0  0  0  0  0  0  0  0
  -27.2854  -29.4197   22.5789 C   0  0  0  0  0  0  0  0  0  0  0  0
  -28.1199  -21.1231   21.5685 C   0  0  0  0  0  0  0  0  0  0  0  0
  -17.6535  -29.8361   22.9690 C   0  0  0  0  0  0  0  0  0  0  0  0
  -23.1973  -25.0757   22.5716 C   0  0  0  0  0  0  0  0  0  0  0  0
  -24.4676  -27.0771   20.8037 C   0  0  0  0  0  0  0  0  0  0  0  0
  -18.9967  -30.0044   22.2635 C   0  0  0  0  0  0  0  0  0  0  0  0
  -30.4737  -18.9151   19.9310 C   0  0  0  0  0  0  0  0  0  0  0  0
  -19.1712  -28.9383   21.1865 C   0  0  0  0  0  0  0  0  0  0  0  0
  -29.5621  -17.7650   19.4992 C   0  0  0  0  0  0  0  0  0  0  0  0
  -30.0615  -19.4657   21.2930 C   0  0  0  0  0  0  0  0  0  0  0  0
  -27.7270  -18.7570   20.9443 C   0  0  0  0  0  0  0  0  0  0  0  0
  -19.1647  -27.5315   21.7967 C   0  0  1  0  0  0  0  0  0  0  0  0
  -22.7506  -26.5343   22.5586 C   0  0  1  0  0  0  0  0  0  0  0  0
  -28.0780  -18.1717   19.5643 C   0  0  2  0  0  0  0  0  0  0  0  0
  -33.6514  -24.6486   18.1326 C   0  0  0  0  0  0  0  0  0  0  0  0
  -30.7596  -26.0649   21.9411 C   0  0  0  0  0  0  0  0  0  0  0  0
  -29.4315  -30.5841   23.1584 C   0  0  0  0  0  0  0  0  0  0  0  0
  -22.9668  -30.7368   20.6474 C   0  0  0  0  0  0  0  0  0  0  0  0
  -25.1685  -31.9088   20.8652 C   0  0  0  0  0  0  0  0  0  0  0  0
  -23.6674  -31.6999   22.8465 C   0  0  0  0  0  0  0  0  0  0  0  0
  -27.8203  -27.5660   24.8231 C   0  0  0  0  0  0  0  0  0  0  0  0
  -28.6181  -24.3482   20.9512 C   0  0  0  0  0  0  0  0  0  0  0  0
  -27.5954  -22.1217   16.8766 C   0  0  0  0  0  0  0  0  0  0  0  0
  -28.6678  -23.4599   22.1981 C   0  0  0  0  0  0  0  0  0  0  0  0
  -26.4026  -22.1439   17.8195 C   0  0  0  0  0  0  0  0  0  1  0  0
  -28.6513  -23.1425   17.2709 C   0  0  0  0  0  0  0  0  0  0  0  0
  -24.8861  -29.6554   21.9938 C   0  0  1  0  0  0  0  0  0  0  0  0
  -28.2800  -29.7389   23.6804 C   0  0  2  0  0  0  0  0  0  0  0  0
  -24.1711  -30.9728   21.5807 C   0  0  0  0  0  0  0  0  0  0  0  0
  -26.6866  -16.2240   20.1583 N   0  0  0  0  0  0  0  0  0  0  0  0
  -27.1629  -17.0215   19.1871 N   0  0  0  0  0  0  0  0  0  0  0  0
  -23.7880  -27.4387   22.0587 N   0  0  0  0  0  0  0  0  0  0  0  0
  -28.6433  -19.8513   21.2823 N   0  0  0  0  0  0  0  0  0  0  0  0
  -27.1268  -17.3738   16.8450 N   0  0  0  0  0  0  0  0  0  0  0  0
  -24.4750  -13.7599   17.3960 N   0  0  0  0  0  0  0  0  0  0  0  0
  -20.4408  -27.2430   22.4154 N   0  0  0  0  0  0  0  0  0  0  0  0
  -26.0140  -29.8464   22.8993 N   0  0  0  0  0  0  0  0  0  0  0  0
  -29.0539  -22.1018   21.8860 N   0  0  0  0  0  0  0  0  0  0  0  0
  -28.8409  -28.4821   24.2520 N   0  3  0  0  0  0  0  0  0  0  0  0
  -25.3745  -15.1904   15.8457 O   0  0  0  0  0  0  0  0  0  0  0  0
  -21.5702  -26.5145   20.5138 O   0  0  0  0  0  0  0  0  0  0  0  0
  -23.3997  -29.0184   23.7291 O   0  0  0  0  0  0  0  0  0  0  0  0
  -27.6052  -28.8522   21.5367 O   0  0  0  0  0  0  0  0  0  0  0  0
  -26.9094  -21.3700   21.5382 O   0  0  0  0  0  0  0  0  0  0  0  0
  -23.2342  -11.2923   22.2340 O   0  0  0  0  0  0  0  0  0  0  0  0
  -25.8073  -23.4408   17.8169 O   0  0  0  0  0  0  0  0  0  1  0  0
  -29.1263  -22.8638   18.5810 O   0  0  0  0  0  0  0  0  0  0  0  0
  -23.4589   -6.1918   20.1512 F   0  0  0  0  0  0  0  0  0  0  0  0
  -24.3073   -9.2080   23.6992 F   0  0  0  0  0  0  0  0  0  0  0  0
  1  2  1  0  0  0  0
  1  5  2  0  0  0  0
  2  6  2  0  0  0  0
  3  8  2  0  0  0  0
  3 17  1  0  0  0  0
  4  9  1  0  0  0  0
  4 17  2  0  0  0  0
  5 19  1  0  0  0  0
  6 21  1  0  0  0  0
  7 10  2  0  0  0  0
  7 20  1  0  0  0  0
  8 26  1  0  0  0  0
  9 26  2  0  0  0  0
 10 27  1  0  0  0  0
 11 12  2  0  0  0  0
 11 28  1  0  0  0  0
 12 30  1  0  0  0  0
 13 22  1  0  0  0  0
 13 27  2  0  0  0  0
 14 23  1  0  0  0  0
 14 24  2  0  0  0  0
 15 23  2  0  0  0  0
 15 29  1  0  0  0  0
 16 30  2  0  0  0  0
 16 31  1  0  0  0  0
 17 32  1  0  0  0  0
 18 32  1  0  0  0  0
 18 33  2  0  0  0  0
 18 34  1  0  0  0  0
 19 21  2  0  0  0  0
 19 39  1  0  0  0  0
 20 22  2  0  0  0  0
 20 40  1  0  0  0  0
 21 48  1  0  0  0  0
 22 41  1  0  0  0  0
 23 51  1  0  0  0  0
 24 25  1  0  0  0  0
 24 52  1  0  0  0  0
 25 29  2  0  0  0  0
 25 58  1  0  0  0  0
 26 81  1  0  0  0  0
 27 82  1  0  0  0  0
 28 31  2  0  0  0  0
 28 81  1  0  0  0  0
 29 83  1  0  0  0  0
 30 84  1  0  0  0  0
 31 85  1  0  0  0  0
 32 66  2  0  0  0  0
 33 67  1  0  0  0  0
 33 70  1  0  0  0  0
 34 71  1  0  0  0  0
 34 76  2  0  0  0  0
 35 49  1  0  0  0  0
 35 72  1  0  0  0  0
 35 77  2  0  0  0  0
 36 63  1  0  0  0  0
 36 68  1  0  0  0  0
 36 78  2  0  0  0  0
 37 64  1  0  0  0  0
 37 73  1  0  0  0  0
 37 79  2  0  0  0  0
 38 69  1  0  0  0  0
 38 74  1  0  0  0  0
 38 80  2  0  0  0  0
 39 42  1  0  0  0  0
 40 49  1  0  0  0  0
 41 68  1  0  0  0  0
 42 44  1  0  0  0  0
 43 45  1  0  0  0  0
 43 46  1  0  0  0  0
 44 48  1  0  0  0  0
 45 50  1  0  0  0  0
 46 69  1  0  0  0  0
 47 50  1  0  0  0  0
 47 69  1  0  0  0  0
 48 72  1  0  0  0  0
 49 68  1  0  0  0  0
 50 67  1  0  0  0  0
 53 64  1  0  0  0  0
 54 65  1  0  0  0  0
 55 65  1  0  0  0  0
 56 65  1  0  0  0  0
 57 75  1  0  0  0  0
 58 60  1  0  0  0  0
 59 61  1  0  0  0  0
 59 62  1  0  0  0  0
 60 74  1  0  0  0  0
 61 82  1  0  0  0  0
 62 83  1  0  0  0  0
 63 65  1  0  0  0  0
 63 73  1  0  0  0  0
 64 75  1  0  0  0  0
 66 67  1  0  0  0  0
M  CHG  1  75   1
M  ISO  4  38 100  61 101  74 100  82 101
M  END
> <Batch ID>
0027

> <Smiles>
CNC(C)C(=O)NC(C(=O)N1Cc2cc([101O:1][101CH2:1]CCOc3cc(C)cc(C)c3CC[100NH:0][100C:0](=O)N3CCCC(n4nc(-c5ccc(Oc6ccc(F)cc6F)cc5)c(C(N)=O)c4N)C3)ccc2CC1C(=O)NC1CCCc2ccccc21)C(C)(C)C

> <Shape>
0.267

> <Color>
0.061

> <Negative vol penalty>
0.000

$$$$

  -OEChem-04052316303D

 85 93  0     1  0  0  0  0  0999 V2000
  -22.9660  -30.7648   24.2386 C   0  0  0  0  0  0  0  0  0  0  0  0
  -22.9658  -29.3761   24.1546 C   0  0  0  0  0  0  0  0  0  0  0  0
  -28.5652  -17.7725   24.4605 C   0  0  0  0  0  0  0  0  0  0  0  0
  -30.9601  -17.8734   24.1587 C   0  0  0  0  0  0  0  0  0  0  0  0
  -23.5822  -31.5221   23.2432 C   0  0  0  0  0  0  0  0  0  0  0  0
  -23.5807  -28.7440   23.0744 C   0  0  0  0  0  0  0  0  0  0  0  0
  -26.4242  -24.8009   24.4930 C   0  0  0  0  0  0  0  0  0  0  0  0
  -28.7164  -18.1626   25.7911 C   0  0  0  0  0  0  0  0  0  0  0  0
  -31.1113  -18.2636   25.4893 C   0  0  0  0  0  0  0  0  0  0  0  0
  -25.7596  -23.6143   24.7997 C   0  0  0  0  0  0  0  0  0  0  0  0
  -29.2629  -21.0287   27.4998 C   0  0  0  0  0  0  0  0  0  0  0  0
  -28.4036  -22.0127   27.9885 C   0  0  0  0  0  0  0  0  0  0  0  0
  -25.8446  -11.5794   21.4295 C   0  0  0  0  0  0  0  0  0  0  0  0
  -26.3070  -22.7500   22.6151 C   0  0  0  0  0  0  0  0  0  0  0  0
  -24.2418  -13.2466   19.8693 C   0  0  0  0  0  0  0  0  0  0  0  0
  -27.5846  -20.4690   29.6568 C   0  0  0  0  0  0  0  0  0  0  0  0
  -29.6871  -17.6278   23.6443 C   0  0  0  0  0  0  0  0  0  0  0  0
  -26.2699  -11.9658   20.1585 C   0  0  0  0  0  0  0  0  0  0  0  0
  -29.3556  -18.0624   21.1525 C   0  0  0  0  0  0  0  0  0  0  0  0
  -24.2134  -30.8986   22.1553 C   0  0  0  0  0  0  0  0  0  0  0  0
  -27.0268  -24.9755   23.2388 C   0  0  0  0  0  0  0  0  0  0  0  0
  -24.2047  -29.4937   22.0629 C   0  0  0  0  0  0  0  0  0  0  0  0
  -26.9808  -23.9388   22.2959 C   0  0  0  0  0  0  0  0  0  0  0  0
  -23.8166  -12.8601   21.1403 C   0  0  0  0  0  0  0  0  0  0  0  0
  -29.9894  -18.4082   26.3055 C   0  0  0  0  0  0  0  0  0  0  0  0
  -25.6985  -22.5898   23.8597 C   0  0  0  0  0  0  0  0  0  0  0  0
  -29.2831  -19.7648   28.0896 C   0  0  0  0  0  0  0  0  0  0  0  0
  -27.5644  -21.7329   29.0670 C   0  0  0  0  0  0  0  0  0  0  0  0
  -28.4439  -19.4850   29.1681 C   0  0  0  0  0  0  0  0  0  0  0  0
  -24.6180  -12.0266   21.9204 C   0  0  0  0  0  0  0  0  0  0  0  0
  -25.4685  -12.7993   19.3784 C   0  0  0  0  0  0  0  0  0  0  0  0
  -29.5316  -17.2243   22.2699 C   0  0  0  0  0  0  0  0  0  0  0  0
  -29.2587  -17.1997   20.0881 C   0  0  0  0  0  0  0  0  0  0  0  0
  -27.5700  -11.4737   19.6848 C   0  0  0  0  0  0  0  0  0  0  0  0
  -29.2862  -19.4928   21.0829 C   0  0  0  0  0  0  0  0  0  0  0  0
  -26.6149  -26.9875   20.8128 C   0  0  0  0  0  0  0  0  0  0  0  0
  -29.2482  -25.4996   19.6404 C   0  0  0  0  0  0  0  0  0  0  0  0
  -31.2684  -23.1211   20.0547 C   0  0  0  0  0  0  0  0  0  0  0  0
  -24.8251  -31.7607   21.0795 C   0  0  0  0  0  0  0  0  0  0  0  0
  -27.7628  -26.2511   22.9332 C   0  0  0  0  0  0  0  0  0  0  0  0
  -27.6290  -24.0684   20.9425 C   0  0  0  0  0  0  0  0  0  0  0  0
  -25.7800  -31.0025   20.1610 C   0  0  0  0  0  0  0  0  0  0  0  0
  -30.6787  -12.8702   18.6232 C   0  0  0  0  0  0  0  0  0  0  0  0
  -25.1583  -29.6820   19.7175 C   0  0  0  0  0  0  0  0  0  0  0  0
  -30.7317  -14.2164   19.3479 C   0  0  0  0  0  0  0  0  0  0  0  0
  -30.0120  -11.7956   19.4784 C   0  0  0  0  0  0  0  0  0  0  0  0
  -28.7198  -13.5057   20.7074 C   0  0  0  0  0  0  0  0  0  0  0  0
  -24.8828  -28.7706   20.9195 C   0  0  1  0  0  0  0  0  0  0  0  0
  -27.8986  -26.5189   21.4374 C   0  0  1  0  0  0  0  0  0  0  0  0
  -29.3389  -14.6294   19.8599 C   0  0  1  0  0  0  0  0  0  0  0  0
  -33.1028  -21.5687   19.3319 C   0  0  0  0  0  0  0  0  0  0  0  0
  -27.6606  -24.9723   17.0887 C   0  0  0  0  0  0  0  0  0  0  0  0
  -29.3787  -23.2649   16.4556 C   0  0  0  0  0  0  0  0  0  0  0  0
  -30.0370  -25.6568   16.7162 C   0  0  0  0  0  0  0  0  0  0  0  0
  -33.0286  -23.9815   22.2728 C   0  0  0  0  0  0  0  0  0  0  0  0
  -22.4839  -13.3642   21.6341 C   0  0  0  0  0  0  0  0  0  0  0  0
  -22.5915  -14.4995   22.6585 C   0  0  0  0  0  0  0  0  0  0  0  0
  -23.3229  -15.7306   22.1140 C   0  0  0  0  0  0  0  0  0  0  0  0
  -23.4342  -16.8251   23.1788 C   0  0  0  0  0  0  0  0  0  0  0  0
  -24.1930  -18.0417   22.6444 C   0  0  0  0  0  0  0  0  0  0  0  0
  -24.2633  -19.2009   23.6449 C   0  0  0  0  0  0  0  0  0  0  0  0
  -25.0261  -20.4230   23.1464 C   0  0  0  0  0  0  0  0  0  1  0  0
  -29.4949  -24.2894   18.7724 C   0  0  1  0  0  0  0  0  0  0  0  0
  -32.7643  -22.8629   20.0553 C   0  0  2  0  0  0  0  0  0  0  0  0
  -29.1288  -24.5438   17.2829 C   0  0  0  0  0  0  0  0  0  0  0  0
  -29.5458  -15.9287   21.9455 N   0  0  0  0  0  0  0  0  0  0  0  0
  -29.3775  -15.9462   20.6123 N   0  0  0  0  0  0  0  0  0  0  0  0
  -28.7029  -12.2471   19.9487 N   0  0  0  0  0  0  0  0  0  0  0  0
  -28.3313  -25.3372   20.6887 N   0  0  0  0  0  0  0  0  0  0  0  0
  -29.0842  -17.3987   18.7644 N   0  0  0  0  0  0  0  0  0  0  0  0
  -29.4043  -20.2260   22.2715 N   0  0  0  0  0  0  0  0  0  0  0  0
  -26.1075  -28.1454   21.3708 N   0  0  0  0  0  0  0  0  0  0  0  0
  -30.8864  -23.9084   18.9891 N   0  0  0  0  0  0  0  0  0  0  0  0
  -33.2729  -22.7671   21.4528 N   0  3  0  0  0  0  0  0  0  0  0  0
  -27.5569  -10.4071   19.0721 O   0  0  0  0  0  0  0  0  0  0  0  0
  -29.1077  -20.1019   20.0010 O   0  0  0  0  0  0  0  0  0  0  0  0
  -26.1221  -26.3469   19.8917 O   0  0  0  0  0  0  0  0  0  0  0  0
  -29.8522  -26.5483   19.4017 O   0  0  0  0  0  0  0  0  0  0  0  0
  -30.5136  -22.6664   20.9115 O   0  0  0  0  0  0  0  0  0  0  0  0
  -30.1373  -18.7892   27.6038 O   0  0  0  0  0  0  0  0  0  0  0  0
  -25.0499  -21.4308   24.1564 O   0  0  0  0  0  0  0  0  0  1  0  0
  -26.7403  -22.6785   29.5371 F   0  0  0  0  0  0  0  0  0  0  0  0
  -28.4597  -18.2730   29.7396 F   0  0  0  0  0  0  0  0  0  0  0  0
  -24.1237  -11.5284   23.4975 Cl  0  0  0  0  0  0  0  0  0  0  0  0
  -25.9597  -13.3022   17.8012 Cl  0  0  0  0  0  0  0  0  0  0  0  0
  1  2  1  0  0  0  0
  1  5  2  0  0  0  0
  2  6  2  0  0  0  0
  3  8  2  0  0  0  0
  3 17  1  0  0  0  0
  4  9  1  0  0  0  0
  4 17  2  0  0  0  0
  5 20  1  0  0  0  0
  6 22  1  0  0  0  0
  7 10  2  0  0  0  0
  7 21  1  0  0  0  0
  8 25  1  0  0  0  0
  9 25  2  0  0  0  0
 10 26  1  0  0  0  0
 11 12  2  0  0  0  0
 11 27  1  0  0  0  0
 12 28  1  0  0  0  0
 13 18  2  0  0  0  0
 13 30  1  0  0  0  0
 14 23  1  0  0  0  0
 14 26  2  0  0  0  0
 15 24  1  0  0  0  0
 15 31  2  0  0  0  0
 16 28  2  0  0  0  0
 16 29  1  0  0  0  0
 17 32  1  0  0  0  0
 18 31  1  0  0  0  0
 18 34  1  0  0  0  0
 19 32  1  0  0  0  0
 19 33  2  0  0  0  0
 19 35  1  0  0  0  0
 20 22  2  0  0  0  0
 20 39  1  0  0  0  0
 21 23  2  0  0  0  0
 21 40  1  0  0  0  0
 22 48  1  0  0  0  0
 23 41  1  0  0  0  0
 24 30  2  0  0  0  0
 24 56  1  0  0  0  0
 25 80  1  0  0  0  0
 26 81  1  0  0  0  0
 27 29  2  0  0  0  0
 27 80  1  0  0  0  0
 28 82  1  0  0  0  0
 29 83  1  0  0  0  0
 30 84  1  0  0  0  0
 31 85  1  0  0  0  0
 32 66  2  0  0  0  0
 33 67  1  0  0  0  0
 33 70  1  0  0  0  0
 34 68  1  0  0  0  0
 34 75  2  0  0  0  0
 35 71  1  0  0  0  0
 35 76  2  0  0  0  0
 36 49  1  0  0  0  0
 36 72  1  0  0  0  0
 36 77  2  0  0  0  0
 37 63  1  0  0  0  0
 37 69  1  0  0  0  0
 37 78  2  0  0  0  0
 38 64  1  0  0  0  0
 38 73  1  0  0  0  0
 38 79  2  0  0  0  0
 39 42  1  0  0  0  0
 40 49  1  0  0  0  0
 41 69  1  0  0  0  0
 42 44  1  0  0  0  0
 43 45  1  0  0  0  0
 43 46  1  0  0  0  0
 44 48  1  0  0  0  0
 45 50  1  0  0  0  0
 46 68  1  0  0  0  0
 47 50  1  0  0  0  0
 47 68  1  0  0  0  0
 48 72  1  0  0  0  0
 49 69  1  0  0  0  0
 50 67  1  0  0  0  0
 51 64  1  0  0  0  0
 52 65  1  0  0  0  0
 53 65  1  0  0  0  0
 54 65  1  0  0  0  0
 55 74  1  0  0  0  0
 56 57  1  0  0  0  0
 57 58  1  0  0  0  0
 58 59  1  0  0  0  0
 59 60  1  0  0  0  0
 60 61  1  0  0  0  0
 61 62  1  0  0  0  0
 62 81  1  0  0  0  0
 63 65  1  0  0  0  0
 63 73  1  0  0  0  0
 64 74  1  0  0  0  0
 66 67  1  0  0  0  0
M  CHG  1  74   1
M  ISO  4  18 100  34 100  62 101  81 101
M  END
> <Batch ID>
0027

> <Smiles>
CNC(C)C(=O)NC(C(=O)N1Cc2cc([101O:1][101CH2:1]CCCCCCc3cc(Cl)[100c:0]([100C:0](=O)N4CCCC(n5nc(-c6ccc(Oc7ccc(F)cc7F)cc6)c(C(N)=O)c5N)C4)cc3Cl)ccc2CC1C(=O)NC1CCCc2ccccc21)C(C)(C)C

> <Shape>
0.225

> <Color>
0.068

> <Negative vol penalty>
0.000

$$$$

  -OEChem-04052316303D

 87 95  0     1  0  0  0  0  0999 V2000
  -25.8710  -32.2412   18.1245 C   0  0  0  0  0  0  0  0  0  0  0  0
  -26.2656  -31.3553   19.1219 C   0  0  0  0  0  0  0  0  0  0  0  0
  -23.0661   -9.8872   19.9054 C   0  0  0  0  0  0  0  0  0  0  0  0
  -23.8420   -9.8447   22.1931 C   0  0  0  0  0  0  0  0  0  0  0  0
  -24.5951  -32.1427   17.5711 C   0  0  0  0  0  0  0  0  0  0  0  0
  -25.3840  -30.3709   19.5673 C   0  0  0  0  0  0  0  0  0  0  0  0
  -27.6038  -25.8436   20.0372 C   0  0  0  0  0  0  0  0  0  0  0  0
  -22.3221   -8.7302   20.1363 C   0  0  0  0  0  0  0  0  0  0  0  0
  -23.0980   -8.6877   22.4239 C   0  0  0  0  0  0  0  0  0  0  0  0
  -28.3945  -25.6363   21.1666 C   0  0  0  0  0  0  0  0  0  0  0  0
  -19.8728   -7.8823   23.0322 C   0  0  0  0  0  0  0  0  0  0  0  0
  -19.1239   -7.8188   24.2072 C   0  0  0  0  0  0  0  0  0  0  0  0
  -26.5778  -24.4419   22.2118 C   0  0  0  0  0  0  0  0  0  0  0  0
  -20.3672   -5.8644   24.8940 C   0  0  0  0  0  0  0  0  0  0  0  0
  -23.8261  -10.4445   20.9338 C   0  0  0  0  0  0  0  0  0  0  0  0
  -24.1713  -12.9711   20.8646 C   0  0  0  0  0  0  0  0  0  0  0  0
  -23.7009  -31.1505   18.0031 C   0  0  0  0  0  0  0  0  0  0  0  0
  -26.2883  -25.3603   19.9908 C   0  0  0  0  0  0  0  0  0  0  0  0
  -24.0945  -30.2599   19.0200 C   0  0  0  0  0  0  0  0  0  0  0  0
  -25.7734  -24.6422   21.0795 C   0  0  0  0  0  0  0  0  0  0  0  0
  -30.2932  -18.8978   23.2441 C   0  0  0  0  0  0  0  0  0  0  0  0
  -31.5566  -19.3120   22.8373 C   0  0  0  0  0  0  0  0  0  0  0  0
  -29.7927  -17.6773   22.8045 C   0  0  0  0  0  0  0  0  0  0  0  0
  -22.3380   -8.1304   21.3955 C   0  0  0  0  0  0  0  0  0  0  0  0
  -27.8806  -24.9379   22.2553 C   0  0  0  0  0  0  0  0  0  0  0  0
  -20.8688   -6.9367   22.7879 C   0  0  0  0  0  0  0  0  0  0  0  0
  -19.3712   -6.8099   25.1382 C   0  0  0  0  0  0  0  0  0  0  0  0
  -21.1160   -5.9278   23.7188 C   0  0  0  0  0  0  0  0  0  0  0  0
  -24.5954  -11.6394   20.6958 C   0  0  0  0  0  0  0  0  0  0  0  0
  -32.2740  -18.4757   21.9972 C   0  0  0  0  0  0  0  0  0  0  0  0
  -30.5890  -16.9143   21.9657 C   0  0  0  0  0  0  0  0  0  0  0  0
  -25.2621  -13.7264   20.5095 C   0  0  0  0  0  0  0  0  0  0  0  0
  -22.9047  -13.4799   21.3032 C   0  0  0  0  0  0  0  0  0  0  0  0
  -23.4166  -26.6949   19.7156 C   0  0  0  0  0  0  0  0  0  0  0  0
  -22.4300  -23.6100   19.5354 C   0  0  0  0  0  0  0  0  0  0  0  0
  -23.0335  -20.3286   20.2530 C   0  0  0  0  0  0  0  0  0  0  0  0
  -30.7312  -14.7598   20.6678 C   0  0  0  0  0  0  0  0  0  0  0  0
  -22.3154  -31.1131   17.4083 C   0  0  0  0  0  0  0  0  0  0  0  0
  -25.4574  -25.5691   18.7545 C   0  0  0  0  0  0  0  0  0  0  0  0
  -24.3741  -24.0851   21.0717 C   0  0  0  0  0  0  0  0  0  0  0  0
  -21.5744  -29.8049   17.6722 C   0  0  0  0  0  0  0  0  0  0  0  0
  -29.5962  -12.3981   18.2571 C   0  0  0  0  0  0  0  0  0  0  0  0
  -21.7079  -29.4019   19.1373 C   0  0  0  0  0  0  0  0  0  0  0  0
  -28.1591  -12.0997   18.6906 C   0  0  0  0  0  0  0  0  0  0  0  0
  -30.5201  -12.6002   19.4569 C   0  0  0  0  0  0  0  0  0  0  0  0
  -28.6240  -13.2982   20.8665 C   0  0  0  0  0  0  0  0  0  0  0  0
  -23.1755  -29.1629   19.5122 C   0  0  1  0  0  0  0  0  0  0  0  0
  -23.9579  -25.4780   19.0200 C   0  0  1  0  0  0  0  0  0  0  0  0
  -27.6427  -13.1513   19.6921 C   0  0  2  0  0  0  0  0  0  0  0  0
  -29.4766  -19.7623   24.1510 C   0  0  0  0  0  0  0  0  0  0  0  0
  -28.4383  -17.2132   23.2294 C   0  0  0  0  0  0  0  0  0  0  0  0
  -33.6368  -18.8670   21.5268 C   0  0  0  0  0  0  0  0  0  0  0  0
  -22.0271  -18.0423   20.0132 C   0  0  0  0  0  0  0  0  0  0  0  0
  -34.1537  -23.0127   22.5096 C   0  0  0  0  0  0  0  0  0  0  0  0
  -20.4866  -24.2301   21.8046 C   0  0  0  0  0  0  0  0  0  0  0  0
  -20.2159  -21.7656   22.1528 C   0  0  0  0  0  0  0  0  0  0  0  0
  -19.5424  -22.7985   19.9844 C   0  0  0  0  0  0  0  0  0  0  0  0
  -25.3101  -19.3706   18.6225 C   0  0  0  0  0  0  0  0  0  0  0  0
  -32.1277  -20.6301   23.2966 C   0  0  0  0  0  0  0  0  0  0  0  0
  -32.0358  -21.6956   22.1995 C   0  0  0  0  0  0  0  0  0  0  0  0
  -30.6633  -23.6896   24.1906 C   0  0  0  0  0  0  0  0  0  0  0  0
  -32.1757  -23.5551   24.0047 C   0  0  0  0  0  0  0  0  0  0  0  0
  -30.0595  -24.6362   23.1594 C   0  0  0  0  0  0  0  0  0  1  0  0
  -21.9986  -22.5653   20.5362 C   0  0  1  0  0  0  0  0  0  0  0  0
  -22.9529  -19.0786   19.3953 C   0  0  2  0  0  0  0  0  0  0  0  0
  -32.6253  -23.0579   22.6151 C   0  0  1  0  0  0  0  0  0  0  0  0
  -20.5866  -22.8519   21.1207 C   0  0  0  0  0  0  0  0  0  0  0  0
  -25.8571  -11.5504   20.2667 N   0  0  0  0  0  0  0  0  0  0  0  0
  -31.8211  -17.2832   21.5493 N   0  0  0  0  0  0  0  0  0  0  0  0
  -26.2352  -12.8359   20.1628 N   0  0  0  0  0  0  0  0  0  0  0  0
  -23.5988  -24.3209   19.8425 N   0  0  0  0  0  0  0  0  0  0  0  0
  -29.9690  -13.6131   20.3597 N   0  0  0  0  0  0  0  0  0  0  0  0
  -25.4742  -15.0588   20.4631 N   0  0  0  0  0  0  0  0  0  0  0  0
  -21.8936  -12.5653   21.6284 N   0  0  0  0  0  0  0  0  0  0  0  0
  -30.0911  -15.6684   21.5101 N   0  0  0  0  0  0  0  0  0  0  0  0
  -23.6183  -27.8743   19.0245 N   0  0  0  0  0  0  0  0  0  0  0  0
  -22.1150  -21.2785   19.8589 N   0  0  0  0  0  0  0  0  0  0  0  0
  -24.3039  -18.4689   19.2401 N   0  3  0  0  0  0  0  0  0  0  0  0
  -22.6708  -14.7094   21.3881 O   0  0  0  0  0  0  0  0  0  0  0  0
  -22.8560  -26.5726   20.7984 O   0  0  0  0  0  0  0  0  0  0  0  0
  -21.7586  -23.7837   18.5153 O   0  0  0  0  0  0  0  0  0  0  0  0
  -23.8290  -20.4487   21.1821 O   0  0  0  0  0  0  0  0  0  0  0  0
  -31.8572  -14.9366   20.1960 O   0  0  0  0  0  0  0  0  0  0  0  0
  -21.6119   -7.0015   21.6212 O   0  0  0  0  0  0  0  0  0  0  0  0
  -28.6500  -24.7347   23.3592 O   0  0  0  0  0  0  0  0  0  1  0  0
  -18.6531   -6.7500   26.2673 F   0  0  0  0  0  0  0  0  0  0  0  0
  -22.0724   -5.0174   23.4903 F   0  0  0  0  0  0  0  0  0  0  0  0
  1  2  1  0  0  0  0
  1  5  2  0  0  0  0
  2  6  2  0  0  0  0
  3  8  2  0  0  0  0
  3 15  1  0  0  0  0
  4  9  1  0  0  0  0
  4 15  2  0  0  0  0
  5 17  1  0  0  0  0
  6 19  1  0  0  0  0
  7 10  2  0  0  0  0
  7 18  1  0  0  0  0
  8 24  1  0  0  0  0
  9 24  2  0  0  0  0
 10 25  1  0  0  0  0
 11 12  2  0  0  0  0
 11 26  1  0  0  0  0
 12 27  1  0  0  0  0
 13 20  1  0  0  0  0
 13 25  2  0  0  0  0
 14 27  2  0  0  0  0
 14 28  1  0  0  0  0
 15 29  1  0  0  0  0
 16 29  1  0  0  0  0
 16 32  2  0  0  0  0
 16 33  1  0  0  0  0
 17 19  2  0  0  0  0
 17 38  1  0  0  0  0
 18 20  2  0  0  0  0
 18 39  1  0  0  0  0
 19 47  1  0  0  0  0
 20 40  1  0  0  0  0
 21 22  2  0  0  0  0
 21 23  1  0  0  0  0
 21 50  1  0  0  0  0
 22 30  1  0  0  0  0
 22 59  1  0  0  0  0
 23 31  2  0  0  0  0
 23 51  1  0  0  0  0
 24 84  1  0  0  0  0
 25 85  1  0  0  0  0
 26 28  2  0  0  0  0
 26 84  1  0  0  0  0
 27 86  1  0  0  0  0
 28 87  1  0  0  0  0
 29 68  2  0  0  0  0
 30 52  1  0  0  0  0
 30 69  2  0  0  0  0
 31 69  1  0  0  0  0
 31 75  1  0  0  0  0
 32 70  1  0  0  0  0
 32 73  1  0  0  0  0
 33 74  1  0  0  0  0
 33 79  2  0  0  0  0
 34 48  1  0  0  0  0
 34 76  1  0  0  0  0
 34 80  2  0  0  0  0
 35 64  1  0  0  0  0
 35 71  1  0  0  0  0
 35 81  2  0  0  0  0
 36 65  1  0  0  0  0
 36 77  1  0  0  0  0
 36 82  2  0  0  0  0
 37 72  1  0  0  0  0
 37 75  1  0  0  0  0
 37 83  2  0  0  0  0
 38 41  1  0  0  0  0
 39 48  1  0  0  0  0
 40 71  1  0  0  0  0
 41 43  1  0  0  0  0
 42 44  1  0  0  0  0
 42 45  1  0  0  0  0
 43 47  1  0  0  0  0
 44 49  1  0  0  0  0
 45 72  1  0  0  0  0
 46 49  1  0  0  0  0
 46 72  1  0  0  0  0
 47 76  1  0  0  0  0
 48 71  1  0  0  0  0
 49 70  1  0  0  0  0
 53 65  1  0  0  0  0
 54 66  1  0  0  0  0
 55 67  1  0  0  0  0
 56 67  1  0  0  0  0
 57 67  1  0  0  0  0
 58 78  1  0  0  0  0
 59 60  1  0  0  0  0
 60 66  1  0  0  0  0
 61 62  1  0  0  0  0
 61 63  1  0  0  0  0
 62 66  1  0  0  0  0
 63 85  1  0  0  0  0
 64 67  1  0  0  0  0
 64 77  1  0  0  0  0
 65 78  1  0  0  0  0
 68 70  1  0  0  0  0
M  CHG  1  78   1
M  ISO  4  37 100  63 101  75 100  85 101
M  END
> <Batch ID>
0027

> <Smiles>
CNC(C)C(=O)NC(C(=O)N1Cc2cc([101O:1][101CH2:1]CCC(C)CCc3c(C)nc([100NH:0][100C:0](=O)N4CCCC(n5nc(-c6ccc(Oc7ccc(F)cc7F)cc6)c(C(N)=O)c5N)C4)c(C)c3C)ccc2CC1C(=O)NC1CCCc2ccccc21)C(C)(C)C

> <Shape>
0.214

> <Color>
0.187

> <Negative vol penalty>
0.000

$$$$

  -OEChem-04052316303D

 89 98  0     1  0  0  0  0  0999 V2000
  -17.6933  -33.0448   21.5664 C   0  0  0  0  0  0  0  0  0  0  0  0
  -19.0415  -33.1880   21.8783 C   0  0  0  0  0  0  0  0  0  0  0  0
  -22.8139  -13.7024   22.2241 C   0  0  0  0  0  0  0  0  0  0  0  0
  -23.3896  -12.8391   20.0423 C   0  0  0  0  0  0  0  0  0  0  0  0
  -17.0227  -31.8690   21.9006 C   0  0  0  0  0  0  0  0  0  0  0  0
  -19.7197  -32.1558   22.5256 C   0  0  0  0  0  0  0  0  0  0  0  0
  -25.5187  -29.0895   19.5489 C   0  0  0  0  0  0  0  0  0  0  0  0
  -30.6521  -22.2972   20.0413 C   0  0  0  0  0  0  0  0  0  0  0  0
  -30.4853  -23.2162   19.0054 C   0  0  0  0  0  0  0  0  0  0  0  0
  -22.1389  -12.5170   22.5150 C   0  0  0  0  0  0  0  0  0  0  0  0
  -22.7146  -11.6536   20.3333 C   0  0  0  0  0  0  0  0  0  0  0  0
  -26.7585  -28.5955   19.1428 C   0  0  0  0  0  0  0  0  0  0  0  0
  -23.2917   -8.8291   22.0967 C   0  0  0  0  0  0  0  0  0  0  0  0
  -23.9233   -7.6288   21.7713 C   0  0  0  0  0  0  0  0  0  0  0  0
  -26.7918  -27.0921   21.0367 C   0  0  0  0  0  0  0  0  0  0  0  0
  -22.0846   -7.0567   20.3122 C   0  0  0  0  0  0  0  0  0  0  0  0
  -23.4392  -13.8635   20.9876 C   0  0  0  0  0  0  0  0  0  0  0  0
  -23.5953  -16.3873   20.6501 C   0  0  0  0  0  0  0  0  0  0  0  0
  -17.6954  -30.8180   22.5437 C   0  0  0  0  0  0  0  0  0  0  0  0
  -24.9028  -28.5752   20.6933 C   0  0  0  0  0  0  0  0  0  0  0  0
  -19.0571  -30.9653   22.8700 C   0  0  0  0  0  0  0  0  0  0  0  0
  -25.5442  -27.5743   21.4414 C   0  0  0  0  0  0  0  0  0  0  0  0
  -29.5640  -21.9375   20.8365 C   0  0  0  0  0  0  0  0  0  0  0  0
  -28.3091  -22.4970   20.5959 C   0  0  0  0  0  0  0  0  0  0  0  0
  -29.2304  -23.7757   18.7647 C   0  0  0  0  0  0  0  0  0  0  0  0
  -22.0893  -11.4926   21.5697 C   0  0  0  0  0  0  0  0  0  0  0  0
  -27.3935  -27.5994   19.8850 C   0  0  0  0  0  0  0  0  0  0  0  0
  -22.0564   -9.1432   21.5299 C   0  0  0  0  0  0  0  0  0  0  0  0
  -23.3198   -6.7426   20.8791 C   0  0  0  0  0  0  0  0  0  0  0  0
  -21.4529   -8.2570   20.6377 C   0  0  0  0  0  0  0  0  0  0  0  0
  -28.1423  -23.4161   19.5600 C   0  0  0  0  0  0  0  0  0  0  0  0
  -24.1362  -15.0881   20.6862 C   0  0  0  0  0  0  0  0  0  0  0  0
  -24.6575  -17.1923   20.3183 C   0  0  0  0  0  0  0  0  0  0  0  0
  -22.2527  -16.8271   20.8946 C   0  0  0  0  0  0  0  0  0  0  0  0
  -21.9348  -28.6505   22.9870 C   0  0  0  0  0  0  0  0  0  0  0  0
  -22.7198  -25.7052   22.6421 C   0  0  0  0  0  0  0  0  0  0  0  0
  -22.7691  -22.3041   22.3821 C   0  0  0  0  0  0  0  0  0  0  0  0
  -29.9984  -18.6957   20.9183 C   0  0  0  0  0  0  0  0  0  0  0  0
  -16.9167  -29.5847   22.9275 C   0  0  0  0  0  0  0  0  0  0  0  0
  -23.5962  -29.1207   21.2022 C   0  0  0  0  0  0  0  0  0  0  0  0
  -24.8602  -27.0753   22.6849 C   0  0  0  0  0  0  0  0  0  0  0  0
  -17.8008  -28.3903   23.2767 C   0  0  0  0  0  0  0  0  0  0  0  0
  -29.2972  -16.0138   18.6839 C   0  0  0  0  0  0  0  0  0  0  0  0
  -18.9266  -28.8154   24.2141 C   0  0  0  0  0  0  0  0  0  0  0  0
  -29.6227  -25.9477   15.1871 C   0  0  0  0  0  0  0  0  0  0  0  0
  -27.8502  -15.6373   19.0071 C   0  0  0  0  0  0  0  0  0  0  0  0
  -30.5277  -26.1846   16.3944 C   0  0  0  0  0  0  0  0  0  0  0  0
  -30.0676  -16.4219   19.9377 C   0  0  0  0  0  0  0  0  0  0  0  0
  -28.1869  -24.4377   16.6034 C   0  0  0  0  0  0  0  0  0  0  0  0
  -27.9839  -17.1089   21.0602 C   0  0  0  0  0  0  0  0  0  0  0  0
  -19.8335  -29.8583   23.5496 C   0  0  1  0  0  0  0  0  0  0  0  0
  -22.7049  -28.0459   21.8500 C   0  0  1  0  0  0  0  0  0  0  0  0
  -28.9358  -24.5795   15.2730 C   0  0  1  0  0  0  0  0  0  0  0  0
  -27.1510  -16.7438   19.8195 C   0  0  2  0  0  0  0  0  0  0  0  0
  -29.8174  -25.9764   17.7434 C   0  0  1  0  0  0  0  0  0  0  0  0
  -27.1555  -22.0975   21.4632 C   0  0  0  0  0  0  0  0  0  0  0  0
  -27.3272  -23.0419   14.1349 C   0  0  0  0  0  0  0  0  0  0  0  0
  -22.1163  -20.2239   23.6247 C   0  0  0  0  0  0  0  0  0  0  0  0
  -25.1156  -26.0649   24.4954 C   0  0  0  0  0  0  0  0  0  0  0  0
  -24.9854  -23.6207   25.0218 C   0  0  0  0  0  0  0  0  0  0  0  0
  -23.0774  -25.1216   25.5957 C   0  0  0  0  0  0  0  0  0  0  0  0
  -20.9242  -21.4572   20.2284 C   0  0  0  0  0  0  0  0  0  0  0  0
  -29.7717  -20.9477   21.9362 C   0  0  0  0  0  0  0  0  0  0  0  0
  -27.9840  -24.3823   14.0943 C   0  0  0  0  0  0  0  0  0  0  0  0
  -28.8667  -27.1275   18.0782 C   0  0  0  0  0  0  0  0  0  1  0  0
  -23.5086  -24.5356   23.1744 C   0  0  1  0  0  0  0  0  0  0  0  0
  -21.6874  -21.2613   22.5987 C   0  0  2  0  0  0  0  0  0  0  0  0
  -24.1746  -24.8446   24.5449 C   0  0  0  0  0  0  0  0  0  0  0  0
  -25.4406  -15.0645   20.4001 N   0  0  0  0  0  0  0  0  0  0  0  0
  -25.7283  -16.3588   20.1809 N   0  0  0  0  0  0  0  0  0  0  0  0
  -29.1001  -24.6905   17.7237 N   0  0  3  0  0  0  0  0  0  0  0  0
  -23.4220  -26.8979   22.4304 N   0  0  0  0  0  0  0  0  0  0  0  0
  -29.3519  -17.4754   20.6616 N   0  0  0  0  0  0  0  0  0  0  0  0
  -24.7707  -18.5248   20.1335 N   0  0  0  0  0  0  0  0  0  0  0  0
  -21.3625  -16.8886   19.8138 N   0  0  0  0  0  0  0  0  0  0  0  0
  -20.7336  -29.2215   22.6122 N   0  0  0  0  0  0  0  0  0  0  0  0
  -22.5914  -23.4014   23.1979 N   0  0  0  0  0  0  0  0  0  0  0  0
  -29.2467  -19.6420   21.6040 N   0  0  0  0  0  0  0  0  0  0  0  0
  -21.3812  -20.5593   21.3202 N   0  3  0  0  0  0  0  0  0  0  0  0
  -21.8589  -17.1715   22.0347 O   0  0  0  0  0  0  0  0  0  0  0  0
  -22.3948  -28.6019   24.1218 O   0  0  0  0  0  0  0  0  0  0  0  0
  -21.5126  -25.5694   22.4244 O   0  0  0  0  0  0  0  0  0  0  0  0
  -23.6826  -22.1581   21.5729 O   0  0  0  0  0  0  0  0  0  0  0  0
  -31.1576  -18.9268   20.5581 O   0  0  0  0  0  0  0  0  0  0  0  0
  -21.4309  -10.3356   21.8534 O   0  0  0  0  0  0  0  0  0  0  0  0
  -28.6017  -27.1185   19.4804 O   0  0  0  0  0  0  0  0  0  1  0  0
  -23.9273   -5.5907   20.5655 F   0  0  0  0  0  0  0  0  0  0  0  0
  -20.2668   -8.5538   20.0891 F   0  0  0  0  0  0  0  0  0  0  0  0
  -26.5824  -24.1134   19.2637 Cl  0  0  0  0  0  0  0  0  0  0  0  0
  1  2  1  0  0  0  0
  1  5  2  0  0  0  0
  2  6  2  0  0  0  0
  3 10  2  0  0  0  0
  3 17  1  0  0  0  0
  4 11  1  0  0  0  0
  4 17  2  0  0  0  0
  5 19  1  0  0  0  0
  6 21  1  0  0  0  0
  7 12  2  0  0  0  0
  7 20  1  0  0  0  0
  8  9  2  0  0  0  0
  8 23  1  0  0  0  0
  9 25  1  0  0  0  0
 10 26  1  0  0  0  0
 11 26  2  0  0  0  0
 12 27  1  0  0  0  0
 13 14  2  0  0  0  0
 13 28  1  0  0  0  0
 14 29  1  0  0  0  0
 15 22  1  0  0  0  0
 15 27  2  0  0  0  0
 16 29  2  0  0  0  0
 16 30  1  0  0  0  0
 17 32  1  0  0  0  0
 18 32  1  0  0  0  0
 18 33  2  0  0  0  0
 18 34  1  0  0  0  0
 19 21  2  0  0  0  0
 19 39  1  0  0  0  0
 20 22  2  0  0  0  0
 20 40  1  0  0  0  0
 21 51  1  0  0  0  0
 22 41  1  0  0  0  0
 23 24  2  0  0  0  0
 23 63  1  0  0  0  0
 24 31  1  0  0  0  0
 24 56  1  0  0  0  0
 25 31  2  0  0  0  0
 25 71  1  0  0  0  0
 26 85  1  0  0  0  0
 27 86  1  0  0  0  0
 28 30  2  0  0  0  0
 28 85  1  0  0  0  0
 29 87  1  0  0  0  0
 30 88  1  0  0  0  0
 31 89  1  0  0  0  0
 32 69  2  0  0  0  0
 33 70  1  0  0  0  0
 33 74  1  0  0  0  0
 34 75  1  0  0  0  0
 34 80  2  0  0  0  0
 35 52  1  0  0  0  0
 35 76  1  0  0  0  0
 35 81  2  0  0  0  0
 36 66  1  0  0  0  0
 36 72  1  0  0  0  0
 36 82  2  0  0  0  0
 37 67  1  0  0  0  0
 37 77  1  0  0  0  0
 37 83  2  0  0  0  0
 38 73  1  0  0  0  0
 38 78  1  0  0  0  0
 38 84  2  0  0  0  0
 39 42  1  0  0  0  0
 40 52  1  0  0  0  0
 41 72  1  0  0  0  0
 42 44  1  0  0  0  0
 43 46  1  0  0  0  0
 43 48  1  0  0  0  0
 44 51  1  0  0  0  0
 45 47  1  0  0  0  0
 45 53  1  0  0  0  0
 46 54  1  0  0  0  0
 47 55  1  0  0  0  0
 48 73  1  0  0  0  0
 49 53  1  0  0  0  0
 49 71  1  0  0  0  0
 50 54  1  0  0  0  0
 50 73  1  0  0  0  0
 51 76  1  0  0  0  0
 52 72  1  0  0  0  0
 53 64  1  0  0  0  0
 54 70  1  0  0  0  0
 55 65  1  0  0  0  0
 55 71  1  0  0  0  0
 57 64  1  0  0  0  0
 58 67  1  0  0  0  0
 59 68  1  0  0  0  0
 60 68  1  0  0  0  0
 61 68  1  0  0  0  0
 62 79  1  0  0  0  0
 63 78  1  0  0  0  0
 65 86  1  0  0  0  0
 66 68  1  0  0  0  0
 66 77  1  0  0  0  0
 67 79  1  0  0  0  0
 69 70  1  0  0  0  0
M  CHG  1  79   1
M  ISO  4  38 100  65 101  78 100  86 101
M  END
> <Batch ID>
0027

> <Smiles>
CCC1CCC([101CH2:1][101O:1]c2ccc3c(c2)CN(C(=O)C(NC(=O)C(C)NC)C(C)(C)C)C(C(=O)NC2CCCc4ccccc42)C3)N(c2ccc(C[100NH:0][100C:0](=O)N3CCCC(n4nc(-c5ccc(Oc6ccc(F)cc6F)cc5)c(C(N)=O)c4N)C3)c(C)c2Cl)C1

> <Shape>
0.238

> <Color>
0.081

> <Negative vol penalty>
0.000

$$$$

  -OEChem-04052316303D

 90 99  0     1  0  0  0  0  0999 V2000
  -27.1053  -17.7717   26.7679 C   0  0  0  0  0  0  0  0  0  0  0  0
  -28.0097  -18.7238   26.3112 C   0  0  0  0  0  0  0  0  0  0  0  0
  -23.1119   -9.8225   19.9005 C   0  0  0  0  0  0  0  0  0  0  0  0
  -23.8742   -9.8010   22.1930 C   0  0  0  0  0  0  0  0  0  0  0  0
  -25.7610  -17.8668   26.4144 C   0  0  0  0  0  0  0  0  0  0  0  0
  -27.5680  -19.7779   25.5107 C   0  0  0  0  0  0  0  0  0  0  0  0
  -30.6818  -24.2252   22.7443 C   0  0  0  0  0  0  0  0  0  0  0  0
  -31.2040  -19.5877   19.3047 C   0  0  0  0  0  0  0  0  0  0  0  0
  -31.4080  -18.5452   20.2086 C   0  0  0  0  0  0  0  0  0  0  0  0
  -22.4031   -8.6423   20.1251 C   0  0  0  0  0  0  0  0  0  0  0  0
  -23.1654   -8.6208   22.4176 C   0  0  0  0  0  0  0  0  0  0  0  0
  -31.2791  -24.4454   21.5040 C   0  0  0  0  0  0  0  0  0  0  0  0
  -19.4819   -7.7257   21.5600 C   0  0  0  0  0  0  0  0  0  0  0  0
  -18.1764   -7.6512   21.0746 C   0  0  0  0  0  0  0  0  0  0  0  0
  -29.3032  -25.6170   20.7673 C   0  0  0  0  0  0  0  0  0  0  0  0
  -28.9402  -19.8425   20.1092 C   0  0  0  0  0  0  0  0  0  0  0  0
  -18.7922   -5.7558   19.7090 C   0  0  0  0  0  0  0  0  0  0  0  0
  -23.8475  -10.4018   20.9344 C   0  0  0  0  0  0  0  0  0  0  0  0
  -24.1135  -12.9381   20.8706 C   0  0  0  0  0  0  0  0  0  0  0  0
  -25.3057  -18.9159   25.5989 C   0  0  0  0  0  0  0  0  0  0  0  0
  -29.3844  -24.6906   23.0023 C   0  0  0  0  0  0  0  0  0  0  0  0
  -26.2110  -19.9046   25.1627 C   0  0  0  0  0  0  0  0  0  0  0  0
  -28.6927  -25.4037   22.0127 C   0  0  0  0  0  0  0  0  0  0  0  0
  -29.9702  -20.2365   19.2550 C   0  0  0  0  0  0  0  0  0  0  0  0
  -30.3780  -18.1512   21.0628 C   0  0  0  0  0  0  0  0  0  0  0  0
  -30.1448  -26.1514   17.2637 C   0  0  0  0  0  0  0  0  0  0  0  0
  -22.4299   -8.0415   21.3836 C   0  0  0  0  0  0  0  0  0  0  0  0
  -30.5887  -25.1389   20.5142 C   0  0  0  0  0  0  0  0  0  0  0  0
  -20.4427   -6.8153   21.1198 C   0  0  0  0  0  0  0  0  0  0  0  0
  -30.4016  -25.1301   18.1717 C   0  0  0  0  0  0  0  0  0  1  0  0
  -17.8315   -6.6663   20.1491 C   0  0  0  0  0  0  0  0  0  0  0  0
  -20.0978   -5.8303   20.1943 C   0  0  0  0  0  0  0  0  0  0  0  0
  -29.1441  -18.7999   21.0131 C   0  0  0  0  0  0  0  0  0  0  0  0
  -29.3700  -25.8947   16.1380 C   0  0  0  0  0  0  0  0  0  0  0  0
  -24.5803  -11.6206   20.7029 C   0  0  0  0  0  0  0  0  0  0  0  0
  -29.8646  -23.8798   17.9103 C   0  0  0  0  0  0  0  0  0  0  0  0
  -28.8791  -24.6103   15.9677 C   0  0  0  0  0  0  0  0  0  0  0  0
  -25.1823  -13.7279   20.5235 C   0  0  0  0  0  0  0  0  0  0  0  0
  -22.8287  -13.4062   21.3018 C   0  0  0  0  0  0  0  0  0  0  0  0
  -26.6112  -23.3166   23.7272 C   0  0  0  0  0  0  0  0  0  0  0  0
  -25.6258  -26.3874   24.0752 C   0  0  0  0  0  0  0  0  0  0  0  0
  -26.0639  -29.6781   23.2839 C   0  0  0  0  0  0  0  0  0  0  0  0
  -30.6334  -14.9060   20.7313 C   0  0  0  0  0  0  0  0  0  0  0  0
  -23.8386  -18.9749   25.2533 C   0  0  0  0  0  0  0  0  0  0  0  0
  -28.7645  -24.4681   24.3545 C   0  0  0  0  0  0  0  0  0  0  0  0
  -27.3055  -25.9417   22.2463 C   0  0  0  0  0  0  0  0  0  0  0  0
  -23.5469  -19.8641   24.0489 C   0  0  0  0  0  0  0  0  0  0  0  0
  -29.5645  -12.5424   18.2925 C   0  0  0  0  0  0  0  0  0  0  0  0
  -24.2349  -21.2105   24.2181 C   0  0  0  0  0  0  0  0  0  0  0  0
  -28.1370  -12.1962   18.7196 C   0  0  0  0  0  0  0  0  0  0  0  0
  -30.4762  -12.7637   19.4975 C   0  0  0  0  0  0  0  0  0  0  0  0
  -28.5552  -13.4065   20.9012 C   0  0  0  0  0  0  0  0  0  0  0  0
  -25.7589  -21.0428   24.2658 C   0  0  1  0  0  0  0  0  0  0  0  0
  -27.2407  -24.5394   24.3323 C   0  0  1  0  0  0  0  0  0  0  0  0
  -27.5852  -13.2291   19.7206 C   0  0  2  0  0  0  0  0  0  0  0  0
  -30.7128  -27.5119   17.5212 C   0  0  0  0  0  0  0  0  0  0  0  0
  -25.0789  -31.9501   23.6906 C   0  0  0  0  0  0  0  0  0  0  0  0
  -23.3531  -25.7454   22.1431 C   0  0  0  0  0  0  0  0  0  0  0  0
  -22.9979  -28.2066   21.8527 C   0  0  0  0  0  0  0  0  0  0  0  0
  -22.6932  -27.1606   24.0967 C   0  0  0  0  0  0  0  0  0  0  0  0
  -28.5590  -30.6638   24.5337 C   0  0  0  0  0  0  0  0  0  0  0  0
  -29.7494  -21.3645   18.2768 C   0  0  0  0  0  0  0  0  0  0  0  0
  -30.6365  -17.0295   22.0159 C   0  0  0  0  0  0  0  0  0  0  0  0
  -30.1095  -22.7474   18.8527 C   0  0  0  0  0  0  0  0  0  0  0  0
  -25.0264  -27.4281   23.1604 C   0  0  1  0  0  0  0  0  0  0  0  0
  -26.1050  -30.9252   24.1484 C   0  0  2  0  0  0  0  0  0  0  0  0
  -23.5430  -27.1235   22.8078 C   0  0  0  0  0  0  0  0  0  0  0  0
  -25.8469  -11.5720   20.2818 N   0  0  0  0  0  0  0  0  0  0  0  0
  -29.1074  -23.5926   16.8279 N   0  0  0  0  0  0  0  0  0  0  0  0
  -26.1851  -12.8689   20.1819 N   0  0  0  0  0  0  0  0  0  0  0  0
  -26.7397  -25.6931   23.5825 N   0  0  0  0  0  0  0  0  0  0  0  0
  -29.8962  -13.7553   20.4065 N   0  0  0  0  0  0  0  0  0  0  0  0
  -25.3527  -15.0663   20.4802 N   0  0  0  0  0  0  0  0  0  0  0  0
  -21.8448  -12.4599   21.6193 N   0  0  0  0  0  0  0  0  0  0  0  0
  -26.3614  -22.3049   24.6346 N   0  0  0  0  0  0  0  0  0  0  0  0
  -25.2327  -28.7151   23.8157 N   0  0  0  0  0  0  0  0  0  0  0  0
  -30.0078  -15.7975   21.5942 N   0  0  0  0  0  0  0  0  0  0  0  0
  -27.4553  -31.5529   24.0883 N   0  3  0  0  0  0  0  0  0  0  0  0
  -22.5558  -14.6277   21.3867 O   0  0  0  0  0  0  0  0  0  0  0  0
  -26.3687  -23.2934   22.5262 O   0  0  0  0  0  0  0  0  0  0  0  0
  -25.1284  -26.2027   25.1888 O   0  0  0  0  0  0  0  0  0  0  0  0
  -26.7022  -29.5706   22.2391 O   0  0  0  0  0  0  0  0  0  0  0  0
  -31.7630  -15.1255   20.2810 O   0  0  0  0  0  0  0  0  0  0  0  0
  -21.7382   -6.8900   21.6032 O   0  0  0  0  0  0  0  0  0  0  0  0
  -31.1691  -25.3546   19.3024 O   0  0  0  0  0  0  0  0  0  1  0  0
  -16.5774   -6.5939   19.6843 F   0  0  0  0  0  0  0  0  0  0  0  0
  -21.0161   -4.9521   19.7686 F   0  0  0  0  0  0  0  0  0  0  0  0
  -27.8466  -18.3388   22.0539 Cl  0  0  0  0  0  0  0  0  0  0  0  0
  -29.0403  -27.1510   14.9979 Cl  0  0  0  0  0  0  0  0  0  0  0  0
  -27.9048  -24.1406   14.6269 Cl  0  0  0  0  0  0  0  0  0  0  0  0
  1  2  1  0  0  0  0
  1  5  2  0  0  0  0
  2  6  2  0  0  0  0
  3 10  2  0  0  0  0
  3 18  1  0  0  0  0
  4 11  1  0  0  0  0
  4 18  2  0  0  0  0
  5 20  1  0  0  0  0
  6 22  1  0  0  0  0
  7 12  2  0  0  0  0
  7 21  1  0  0  0  0
  8  9  2  0  0  0  0
  8 24  1  0  0  0  0
  9 25  1  0  0  0  0
 10 27  1  0  0  0  0
 11 27  2  0  0  0  0
 12 28  1  0  0  0  0
 13 14  2  0  0  0  0
 13 29  1  0  0  0  0
 14 31  1  0  0  0  0
 15 23  1  0  0  0  0
 15 28  2  0  0  0  0
 16 24  2  0  0  0  0
 16 33  1  0  0  0  0
 17 31  2  0  0  0  0
 17 32  1  0  0  0  0
 18 35  1  0  0  0  0
 19 35  1  0  0  0  0
 19 38  2  0  0  0  0
 19 39  1  0  0  0  0
 20 22  2  0  0  0  0
 20 44  1  0  0  0  0
 21 23  2  0  0  0  0
 21 45  1  0  0  0  0
 22 53  1  0  0  0  0
 23 46  1  0  0  0  0
 24 62  1  0  0  0  0
 25 33  2  0  0  0  0
 25 63  1  0  0  0  0
 26 30  2  0  0  0  0
 26 34  1  0  0  0  0
 26 56  1  0  0  0  0
 27 84  1  0  0  0  0
 28 85  1  0  0  0  0
 29 32  2  0  0  0  0
 29 84  1  0  0  0  0
 30 36  1  0  0  0  0
 30 85  1  0  0  0  0
 31 86  1  0  0  0  0
 32 87  1  0  0  0  0
 33 88  1  0  0  0  0
 34 37  2  0  0  0  0
 34 89  1  0  0  0  0
 35 68  2  0  0  0  0
 36 64  1  0  0  0  0
 36 69  2  0  0  0  0
 37 69  1  0  0  0  0
 37 90  1  0  0  0  0
 38 70  1  0  0  0  0
 38 73  1  0  0  0  0
 39 74  1  0  0  0  0
 39 79  2  0  0  0  0
 40 54  1  0  0  0  0
 40 75  1  0  0  0  0
 40 80  2  0  0  0  0
 41 65  1  0  0  0  0
 41 71  1  0  0  0  0
 41 81  2  0  0  0  0
 42 66  1  0  0  0  0
 42 76  1  0  0  0  0
 42 82  2  0  0  0  0
 43 72  1  0  0  0  0
 43 77  1  0  0  0  0
 43 83  2  0  0  0  0
 44 47  1  0  0  0  0
 45 54  1  0  0  0  0
 46 71  1  0  0  0  0
 47 49  1  0  0  0  0
 48 50  1  0  0  0  0
 48 51  1  0  0  0  0
 49 53  1  0  0  0  0
 50 55  1  0  0  0  0
 51 72  1  0  0  0  0
 52 55  1  0  0  0  0
 52 72  1  0  0  0  0
 53 75  1  0  0  0  0
 54 71  1  0  0  0  0
 55 70  1  0  0  0  0
 57 66  1  0  0  0  0
 58 67  1  0  0  0  0
 59 67  1  0  0  0  0
 60 67  1  0  0  0  0
 61 78  1  0  0  0  0
 62 64  1  0  0  0  0
 63 77  1  0  0  0  0
 65 67  1  0  0  0  0
 65 76  1  0  0  0  0
 66 78  1  0  0  0  0
 68 70  1  0  0  0  0
M  CHG  1  78   1
M  ISO  4  30 101  43 100  77 100  85 101
M  END
> <Batch ID>
0027

> <Smiles>
CNC(C)C(=O)NC(C(=O)N1Cc2cc([101O:1][101c:1]3c(CCc4ccc(C[100NH:0][100C:0](=O)N5CCCC(n6nc(-c7ccc(Oc8ccc(F)cc8F)cc7)c(C(N)=O)c6N)C5)c(Cl)c4)nc(Cl)c(Cl)c3C)ccc2CC1C(=O)NC1CCCc2ccccc21)C(C)(C)C

> <Shape>
0.267

> <Color>
0.209

> <Negative vol penalty>
0.000

$$$$

  -OEChem-04052316303D

 82 90  0     1  0  0  0  0  0999 V2000
  -26.4518  -25.8301   24.3271 C   0  0  0  0  0  0  0  0  0  0  0  0
  -25.1721  -25.4978   23.8943 C   0  0  0  0  0  0  0  0  0  0  0  0
  -25.7329  -28.4713   21.5710 C   0  0  0  0  0  0  0  0  0  0  0  0
  -25.0836  -27.9821   19.2959 C   0  0  0  0  0  0  0  0  0  0  0  0
  -27.5589  -25.1652   23.8015 C   0  0  0  0  0  0  0  0  0  0  0  0
  -24.9988  -24.5010   22.9347 C   0  0  0  0  0  0  0  0  0  0  0  0
  -20.3628  -20.5168   22.5610 C   0  0  0  0  0  0  0  0  0  0  0  0
  -26.9782  -27.8864   21.3414 C   0  0  0  0  0  0  0  0  0  0  0  0
  -26.3289  -27.3973   19.0662 C   0  0  0  0  0  0  0  0  0  0  0  0
  -19.2008  -20.4993   21.7907 C   0  0  0  0  0  0  0  0  0  0  0  0
  -29.4687  -26.0977   17.7735 C   0  0  0  0  0  0  0  0  0  0  0  0
  -30.1288  -26.4203   16.5879 C   0  0  0  0  0  0  0  0  0  0  0  0
  -20.3026  -19.0908   20.1717 C   0  0  0  0  0  0  0  0  0  0  0  0
  -17.9944  -22.5792   17.7151 C   0  0  0  0  0  0  0  0  0  0  0  0
  -15.6795  -23.6759   18.8200 C   0  0  0  0  0  0  0  0  0  0  0  0
  -30.1438  -28.7494   17.2300 C   0  0  0  0  0  0  0  0  0  0  0  0
  -24.7856  -28.5191   20.5483 C   0  0  0  0  0  0  0  0  0  0  0  0
  -23.1449  -30.4720   20.5957 C   0  0  0  0  0  0  0  0  0  0  0  0
  -27.3984  -24.1531   22.8421 C   0  0  0  0  0  0  0  0  0  0  0  0
  -21.5087  -19.8292   22.1363 C   0  0  0  0  0  0  0  0  0  0  0  0
  -26.1048  -23.8228   22.3948 C   0  0  0  0  0  0  0  0  0  0  0  0
  -21.4770  -19.0990   20.9397 C   0  0  0  0  0  0  0  0  0  0  0  0
  -16.9052  -21.7587   18.0082 C   0  0  0  0  0  0  0  0  0  0  0  0
  -16.7688  -24.4964   18.5270 C   0  0  0  0  0  0  0  0  0  0  0  0
  -27.2762  -27.3495   20.0890 C   0  0  0  0  0  0  0  0  0  0  0  0
  -19.1715  -19.7886   20.5944 C   0  0  0  0  0  0  0  0  0  0  0  0
  -29.1460  -27.1009   18.6874 C   0  0  0  0  0  0  0  0  0  0  0  0
  -30.4663  -27.7461   16.3161 C   0  0  0  0  0  0  0  0  0  0  0  0
  -29.4836  -28.4267   18.4157 C   0  0  0  0  0  0  0  0  0  0  0  0
  -15.7477  -22.3070   18.5607 C   0  0  0  0  0  0  0  0  0  0  0  0
  -17.9262  -23.9481   17.9745 C   0  0  0  0  0  0  0  0  0  0  0  0
  -23.4988  -29.1227   20.7850 C   0  0  0  0  0  0  0  0  0  0  0  0
  -21.8218  -30.5342   20.9591 C   0  0  0  0  0  0  0  0  0  0  0  0
  -23.9410  -31.5709   20.1327 C   0  0  0  0  0  0  0  0  0  0  0  0
  -24.4722  -20.6747   21.3572 C   0  0  0  0  0  0  0  0  0  0  0  0
  -24.9270  -17.4672   21.1907 C   0  0  0  0  0  0  0  0  0  0  0  0
  -23.5680  -14.3670   20.7564 C   0  0  0  0  0  0  0  0  0  0  0  0
  -17.4419  -26.4549   21.1215 C   0  0  0  0  0  0  0  0  0  0  0  0
  -28.6282  -23.4951   22.2684 C   0  0  0  0  0  0  0  0  0  0  0  0
  -22.7458  -19.8360   22.9919 C   0  0  0  0  0  0  0  0  0  0  0  0
  -22.6741  -18.3275   20.4494 C   0  0  0  0  0  0  0  0  0  0  0  0
  -28.3335  -22.1919   21.5301 C   0  0  0  0  0  0  0  0  0  0  0  0
  -18.6256  -28.4344   23.8340 C   0  0  0  0  0  0  0  0  0  0  0  0
  -27.1431  -22.3670   20.5925 C   0  0  0  0  0  0  0  0  0  0  0  0
  -19.9768  -28.9570   23.3431 C   0  0  0  0  0  0  0  0  0  0  0  0
  -18.3633  -27.0088   23.3532 C   0  0  0  0  0  0  0  0  0  0  0  0
  -19.8373  -27.3367   21.4055 C   0  0  0  0  0  0  0  0  0  0  0  0
  -25.8744  -22.7300   21.3737 C   0  0  1  0  0  0  0  0  0  0  0  0
  -24.0164  -19.5229   22.2077 C   0  0  1  0  0  0  0  0  0  0  0  0
  -20.1218  -28.7910   21.8184 C   0  0  2  0  0  0  0  0  0  0  0  0
  -24.1960  -11.9405   20.6337 C   0  0  0  0  0  0  0  0  0  0  0  0
  -26.0161  -17.8941   18.3726 C   0  0  0  0  0  0  0  0  0  0  0  0
  -25.7292  -15.4405   17.9652 C   0  0  0  0  0  0  0  0  0  0  0  0
  -27.2893  -16.2339   19.7427 C   0  0  0  0  0  0  0  0  0  0  0  0
  -21.8897  -13.6947   23.0995 C   0  0  0  0  0  0  0  0  0  0  0  0
  -17.0196  -20.2831   17.7119 C   0  0  0  0  0  0  0  0  0  0  0  0
  -16.6568  -25.9580   18.8202 C   0  0  0  0  0  0  0  0  0  0  0  0
  -18.2005  -19.6376   18.4287 C   0  0  0  0  0  0  0  0  0  1  0  0
  -24.7948  -16.4235   20.1081 C   0  0  1  0  0  0  0  0  0  0  0  0
  -23.7363  -13.0753   21.5358 C   0  0  2  0  0  0  0  0  0  0  0  0
  -25.9352  -16.5140   19.0551 C   0  0  0  0  0  0  0  0  0  0  0  0
  -22.4826  -28.3812   21.2340 N   0  0  0  0  0  0  0  0  0  0  0  0
  -21.4772  -29.2678   21.3298 N   0  0  0  0  0  0  0  0  0  0  0  0
  -23.8619  -18.3701   21.3182 N   0  0  0  0  0  0  0  0  0  0  0  0
  -18.5154  -26.9198   21.8990 N   0  0  0  0  0  0  0  0  0  0  0  0
  -20.9313  -31.5482   20.9945 N   0  0  0  0  0  0  0  0  0  0  0  0
  -25.2819  -31.3320   19.8022 N   0  0  0  0  0  0  0  0  0  0  0  0
  -25.3170  -21.5542   22.0070 N   0  0  0  0  0  0  0  0  0  0  0  0
  -24.7118  -15.1364   20.7899 N   0  0  0  0  0  0  0  0  0  0  0  0
  -17.6676  -26.4078   19.7513 N   0  0  0  0  0  0  0  0  0  0  0  0
  -22.4460  -12.6799   22.1680 N   0  3  0  0  0  0  0  0  0  0  0  0
  -23.4815  -32.7337   20.0312 O   0  0  0  0  0  0  0  0  0  0  0  0
  -24.0872  -20.7584   20.1969 O   0  0  0  0  0  0  0  0  0  0  0  0
  -25.9349  -17.4765   21.9019 O   0  0  0  0  0  0  0  0  0  0  0  0
  -22.5274  -14.6622   20.1729 O   0  0  0  0  0  0  0  0  0  0  0  0
  -16.3604  -26.1127   21.6117 O   0  0  0  0  0  0  0  0  0  0  0  0
  -28.4914  -26.7789   19.8645 O   0  0  0  0  0  0  0  0  0  0  0  0
  -18.0389  -19.7704   19.8403 O   0  0  0  0  0  0  0  0  0  1  0  0
  -31.1016  -28.0556   15.1782 F   0  0  0  0  0  0  0  0  0  0  0  0
  -29.1774  -29.3947   19.2904 F   0  0  0  0  0  0  0  0  0  0  0  0
  -14.3802  -21.3227   18.9349 Cl  0  0  0  0  0  0  0  0  0  0  0  0
  -19.2936  -24.9324   17.5989 Cl  0  0  0  0  0  0  0  0  0  0  0  0
  1  2  1  0  0  0  0
  1  5  2  0  0  0  0
  2  6  2  0  0  0  0
  3  8  2  0  0  0  0
  3 17  1  0  0  0  0
  4  9  1  0  0  0  0
  4 17  2  0  0  0  0
  5 19  1  0  0  0  0
  6 21  1  0  0  0  0
  7 10  2  0  0  0  0
  7 20  1  0  0  0  0
  8 25  1  0  0  0  0
  9 25  2  0  0  0  0
 10 26  1  0  0  0  0
 11 12  2  0  0  0  0
 11 27  1  0  0  0  0
 12 28  1  0  0  0  0
 13 22  1  0  0  0  0
 13 26  2  0  0  0  0
 14 23  1  0  0  0  0
 14 31  2  0  0  0  0
 15 24  2  0  0  0  0
 15 30  1  0  0  0  0
 16 28  2  0  0  0  0
 16 29  1  0  0  0  0
 17 32  1  0  0  0  0
 18 32  1  0  0  0  0
 18 33  2  0  0  0  0
 18 34  1  0  0  0  0
 19 21  2  0  0  0  0
 19 39  1  0  0  0  0
 20 22  2  0  0  0  0
 20 40  1  0  0  0  0
 21 48  1  0  0  0  0
 22 41  1  0  0  0  0
 23 30  2  0  0  0  0
 23 56  1  0  0  0  0
 24 31  1  0  0  0  0
 24 57  1  0  0  0  0
 25 77  1  0  0  0  0
 26 78  1  0  0  0  0
 27 29  2  0  0  0  0
 27 77  1  0  0  0  0
 28 79  1  0  0  0  0
 29 80  1  0  0  0  0
 30 81  1  0  0  0  0
 31 82  1  0  0  0  0
 32 62  2  0  0  0  0
 33 63  1  0  0  0  0
 33 66  1  0  0  0  0
 34 67  1  0  0  0  0
 34 72  2  0  0  0  0
 35 49  1  0  0  0  0
 35 68  1  0  0  0  0
 35 73  2  0  0  0  0
 36 59  1  0  0  0  0
 36 64  1  0  0  0  0
 36 74  2  0  0  0  0
 37 60  1  0  0  0  0
 37 69  1  0  0  0  0
 37 75  2  0  0  0  0
 38 65  1  0  0  0  0
 38 70  1  0  0  0  0
 38 76  2  0  0  0  0
 39 42  1  0  0  0  0
 40 49  1  0  0  0  0
 41 64  1  0  0  0  0
 42 44  1  0  0  0  0
 43 45  1  0  0  0  0
 43 46  1  0  0  0  0
 44 48  1  0  0  0  0
 45 50  1  0  0  0  0
 46 65  1  0  0  0  0
 47 50  1  0  0  0  0
 47 65  1  0  0  0  0
 48 68  1  0  0  0  0
 49 64  1  0  0  0  0
 50 63  1  0  0  0  0
 51 60  1  0  0  0  0
 52 61  1  0  0  0  0
 53 61  1  0  0  0  0
 54 61  1  0  0  0  0
 55 71  1  0  0  0  0
 56 58  1  0  0  0  0
 57 70  1  0  0  0  0
 58 78  1  0  0  0  0
 59 61  1  0  0  0  0
 59 69  1  0  0  0  0
 60 71  1  0  0  0  0
 62 63  1  0  0  0  0
M  CHG  1  71   1
M  ISO  4  38 100  58 101  70 100  78 101
M  END
> <Batch ID>
0027

> <Smiles>
CNC(C)C(=O)NC(C(=O)N1Cc2cc([101O:1][101CH2:1]Cc3cc(Cl)c(C[100NH:0][100C:0](=O)N4CCCC(n5nc(-c6ccc(Oc7ccc(F)cc7F)cc6)c(C(N)=O)c5N)C4)cc3Cl)ccc2CC1C(=O)NC1CCCc2ccccc21)C(C)(C)C

> <Shape>
0.162

> <Color>
0.100

> <Negative vol penalty>
0.000

$$$$

  -OEChem-04052316303D

 87 96  0     1  0  0  0  0  0999 V2000
  -30.7979  -19.1806   21.9805 C   0  0  0  0  0  0  0  0  0  0  0  0
  -29.5079  -19.5197   21.5851 C   0  0  0  0  0  0  0  0  0  0  0  0
  -29.5482  -29.1274   20.3512 C   0  0  0  0  0  0  0  0  0  0  0  0
  -27.7855  -27.4915   20.5834 C   0  0  0  0  0  0  0  0  0  0  0  0
  -31.2016  -17.8461   21.9676 C   0  0  0  0  0  0  0  0  0  0  0  0
  -28.6211  -18.5246   21.1756 C   0  0  0  0  0  0  0  0  0  0  0  0
  -24.0047  -19.0918   23.1786 C   0  0  0  0  0  0  0  0  0  0  0  0
  -30.4250  -28.1241   19.9387 C   0  0  0  0  0  0  0  0  0  0  0  0
  -28.6623  -26.4882   20.1708 C   0  0  0  0  0  0  0  0  0  0  0  0
  -23.1762  -20.0558   22.6058 C   0  0  0  0  0  0  0  0  0  0  0  0
  -29.9481  -25.3479   17.2610 C   0  0  0  0  0  0  0  0  0  0  0  0
  -29.4818  -24.4275   16.3225 C   0  0  0  0  0  0  0  0  0  0  0  0
  -22.0262  -18.3281   21.3762 C   0  0  0  0  0  0  0  0  0  0  0  0
  -19.2795  -26.5713   21.2949 C   0  0  0  0  0  0  0  0  0  0  0  0
  -20.5625  -26.6115   23.3416 C   0  0  0  0  0  0  0  0  0  0  0  0
  -29.8695  -22.6314   17.8912 C   0  0  0  0  0  0  0  0  0  0  0  0
  -28.2284  -28.8111   20.6737 C   0  0  0  0  0  0  0  0  0  0  0  0
  -26.9352  -30.9896   20.3750 C   0  0  0  0  0  0  0  0  0  0  0  0
  -30.3162  -16.8331   21.5669 C   0  0  0  0  0  0  0  0  0  0  0  0
  -23.8571  -17.7377   22.8456 C   0  0  0  0  0  0  0  0  0  0  0  0
  -29.0137  -17.1754   21.1561 C   0  0  0  0  0  0  0  0  0  0  0  0
  -22.8525  -17.3486   21.9481 C   0  0  0  0  0  0  0  0  0  0  0  0
  -18.8451  -27.8736   21.5415 C   0  0  0  0  0  0  0  0  0  0  0  0
  -20.1282  -27.9139   23.5883 C   0  0  0  0  0  0  0  0  0  0  0  0
  -20.1382  -25.9402   22.1949 C   0  0  0  0  0  0  0  0  0  0  0  0
  -29.9820  -26.8045   19.8484 C   0  0  0  0  0  0  0  0  0  0  0  0
  -22.1887  -19.6743   21.7023 C   0  0  0  0  0  0  0  0  0  0  0  0
  -30.3753  -24.9101   18.5147 C   0  0  0  0  0  0  0  0  0  0  0  0
  -29.4425  -23.0692   16.6375 C   0  0  0  0  0  0  0  0  0  0  0  0
  -30.3359  -23.5519   18.8297 C   0  0  0  0  0  0  0  0  0  0  0  0
  -19.2694  -28.5449   22.6882 C   0  0  0  0  0  0  0  0  0  0  0  0
  -27.3224  -29.8470   21.1005 C   0  0  0  0  0  0  0  0  0  0  0  0
  -26.0686  -31.6499   21.2114 C   0  0  0  0  0  0  0  0  0  0  0  0
  -27.3239  -31.4159   19.0625 C   0  0  0  0  0  0  0  0  0  0  0  0
  -25.7105  -15.5503   21.4731 C   0  0  0  0  0  0  0  0  0  0  0  0
  -23.2710  -13.5590   22.2515 C   0  0  0  0  0  0  0  0  0  0  0  0
  -20.3043  -12.0785   23.0601 C   0  0  0  0  0  0  0  0  0  0  0  0
  -22.5622  -29.8304   25.7110 C   0  0  0  0  0  0  0  0  0  0  0  0
  -30.8130  -15.4097   21.5246 C   0  0  0  0  0  0  0  0  0  0  0  0
  -24.7414  -16.7072   23.4926 C   0  0  0  0  0  0  0  0  0  0  0  0
  -22.6397  -15.9056   21.5729 C   0  0  0  0  0  0  0  0  0  0  0  0
  -29.6932  -14.3762   21.4341 C   0  0  0  0  0  0  0  0  0  0  0  0
  -25.1155  -32.3078   25.8536 C   0  0  0  0  0  0  0  0  0  0  0  0
  -28.6748  -14.7839   20.3741 C   0  0  0  0  0  0  0  0  0  0  0  0
  -25.9357  -32.0611   24.5861 C   0  0  0  0  0  0  0  0  0  0  0  0
  -21.2272  -22.8710   20.3533 C   0  0  0  0  0  0  0  0  0  0  0  0
  -20.7419  -22.3042   22.7387 C   0  0  0  0  0  0  0  0  0  0  0  0
  -24.6116  -31.0013   26.4629 C   0  0  0  0  0  0  0  0  0  0  0  0
  -21.3316  -24.3481   20.7228 C   0  0  0  0  0  0  0  0  0  0  0  0
  -20.8506  -23.7794   23.1116 C   0  0  0  0  0  0  0  0  0  0  0  0
  -24.6854  -29.8855   24.2667 C   0  0  0  0  0  0  0  0  0  0  0  0
  -28.0149  -16.1219   20.7289 C   0  0  1  0  0  0  0  0  0  0  0  0
  -24.8385  -15.4140   22.6891 C   0  0  1  0  0  0  0  0  0  0  0  0
  -25.1682  -31.1771   23.5848 C   0  0  2  0  0  0  0  0  0  0  0  0
  -21.5962  -21.9665   21.5222 C   0  0  0  0  0  0  0  0  0  1  0  0
  -16.4836  -28.5747   21.0743 C   0  0  0  0  0  0  0  0  0  0  0  0
  -19.1105   -9.8736   22.9570 C   0  0  0  0  0  0  0  0  0  0  0  0
  -22.7880  -13.9629   19.2659 C   0  0  0  0  0  0  0  0  0  0  0  0
  -20.8839  -12.3452   19.4260 C   0  0  0  0  0  0  0  0  0  0  0  0
  -23.2049  -11.5920   19.9439 C   0  0  0  0  0  0  0  0  0  0  0  0
  -20.0423  -11.9511   26.0053 C   0  0  0  0  0  0  0  0  0  0  0  0
  -17.9266  -28.5453   20.5773 C   0  0  0  0  0  0  0  0  0  0  0  0
  -20.5841  -28.6289   24.8153 C   0  0  0  0  0  0  0  0  0  0  0  0
  -22.0013  -13.1070   21.5712 C   0  0  1  0  0  0  0  0  0  0  0  0
  -19.9900  -10.7881   23.7954 C   0  0  2  0  0  0  0  0  0  0  0  0
  -22.2202  -12.7750   20.0681 C   0  0  0  0  0  0  0  0  0  0  0  0
  -26.7490  -29.7821   22.3051 N   0  0  0  0  0  0  0  0  0  0  0  0
  -25.9927  -30.8924   22.3430 N   0  0  0  0  0  0  0  0  0  0  0  0
  -20.5744  -24.6325   21.9470 N   0  0  0  0  0  0  0  0  0  0  0  0
  -23.5336  -14.9361   22.2274 N   0  0  0  0  0  0  0  0  0  0  0  0
  -23.8914  -30.2106   25.4620 N   0  0  0  0  0  0  0  0  0  0  0  0
  -25.3718  -32.7989   21.0820 N   0  0  0  0  0  0  0  0  0  0  0  0
  -26.5609  -30.9878   17.9676 N   0  0  0  0  0  0  0  0  0  0  0  0
  -27.0086  -15.9336   21.7517 N   0  0  0  0  0  0  0  0  0  0  0  0
  -21.4897  -11.9922   22.3610 N   0  0  0  0  0  0  0  0  0  0  0  0
  -21.9510  -29.0880   24.7080 N   0  0  0  0  0  0  0  0  0  0  0  0
  -19.2811  -11.0798   25.0734 N   0  3  0  0  0  0  0  0  0  0  0  0
  -28.3281  -32.1412   18.8649 O   0  0  0  0  0  0  0  0  0  0  0  0
  -25.2409  -15.3230   20.3643 O   0  0  0  0  0  0  0  0  0  0  0  0
  -23.9991  -12.7220   22.7907 O   0  0  0  0  0  0  0  0  0  0  0  0
  -19.5698  -13.0631   23.0988 O   0  0  0  0  0  0  0  0  0  0  0  0
  -21.9628  -30.1350   26.7477 O   0  0  0  0  0  0  0  0  0  0  0  0
  -30.8373  -25.8252   19.4456 O   0  0  0  0  0  0  0  0  0  0  0  0
  -21.3790  -20.6133   21.1412 O   0  0  0  0  0  0  0  0  0  1  0  0
  -28.9931  -22.1856   15.7367 F   0  0  0  0  0  0  0  0  0  0  0  0
  -30.7438  -23.1254   20.0329 F   0  0  0  0  0  0  0  0  0  0  0  0
  -18.8515  -29.7972   22.9256 F   0  0  0  0  0  0  0  0  0  0  0  0
  1  2  1  0  0  0  0
  1  5  2  0  0  0  0
  2  6  2  0  0  0  0
  3  8  2  0  0  0  0
  3 17  1  0  0  0  0
  4  9  1  0  0  0  0
  4 17  2  0  0  0  0
  5 19  1  0  0  0  0
  6 21  1  0  0  0  0
  7 10  2  0  0  0  0
  7 20  1  0  0  0  0
  8 26  1  0  0  0  0
  9 26  2  0  0  0  0
 10 27  1  0  0  0  0
 11 12  2  0  0  0  0
 11 28  1  0  0  0  0
 12 29  1  0  0  0  0
 13 22  1  0  0  0  0
 13 27  2  0  0  0  0
 14 23  1  0  0  0  0
 14 25  2  0  0  0  0
 15 24  2  0  0  0  0
 15 25  1  0  0  0  0
 16 29  2  0  0  0  0
 16 30  1  0  0  0  0
 17 32  1  0  0  0  0
 18 32  1  0  0  0  0
 18 33  2  0  0  0  0
 18 34  1  0  0  0  0
 19 21  2  0  0  0  0
 19 39  1  0  0  0  0
 20 22  2  0  0  0  0
 20 40  1  0  0  0  0
 21 52  1  0  0  0  0
 22 41  1  0  0  0  0
 23 31  2  0  0  0  0
 23 62  1  0  0  0  0
 24 31  1  0  0  0  0
 24 63  1  0  0  0  0
 25 69  1  0  0  0  0
 26 83  1  0  0  0  0
 27 84  1  0  0  0  0
 28 30  2  0  0  0  0
 28 83  1  0  0  0  0
 29 85  1  0  0  0  0
 30 86  1  0  0  0  0
 31 87  1  0  0  0  0
 32 67  2  0  0  0  0
 33 68  1  0  0  0  0
 33 72  1  0  0  0  0
 34 73  1  0  0  0  0
 34 78  2  0  0  0  0
 35 53  1  0  0  0  0
 35 74  1  0  0  0  0
 35 79  2  0  0  0  0
 36 64  1  0  0  0  0
 36 70  1  0  0  0  0
 36 80  2  0  0  0  0
 37 65  1  0  0  0  0
 37 75  1  0  0  0  0
 37 81  2  0  0  0  0
 38 71  1  0  0  0  0
 38 76  1  0  0  0  0
 38 82  2  0  0  0  0
 39 42  1  0  0  0  0
 40 53  1  0  0  0  0
 41 70  1  0  0  0  0
 42 44  1  0  0  0  0
 43 45  1  0  0  0  0
 43 48  1  0  0  0  0
 44 52  1  0  0  0  0
 45 54  1  0  0  0  0
 46 49  1  0  0  0  0
 46 55  1  0  0  0  0
 47 50  1  0  0  0  0
 47 55  1  0  0  0  0
 48 71  1  0  0  0  0
 49 69  1  0  0  0  0
 50 69  1  0  0  0  0
 51 54  1  0  0  0  0
 51 71  1  0  0  0  0
 52 74  1  0  0  0  0
 53 70  1  0  0  0  0
 54 68  1  0  0  0  0
 55 84  1  0  0  0  0
 56 62  1  0  0  0  0
 57 65  1  0  0  0  0
 58 66  1  0  0  0  0
 59 66  1  0  0  0  0
 60 66  1  0  0  0  0
 61 77  1  0  0  0  0
 63 76  1  0  0  0  0
 64 66  1  0  0  0  0
 64 75  1  0  0  0  0
 65 77  1  0  0  0  0
 67 68  1  0  0  0  0
M  CHG  1  77   1
M  ISO  4  38 100  55 101  76 100  84 101
M  END
> <Batch ID>
0027

> <Smiles>
CCc1cc(N2CC[101CH:1]([101O:1]c3ccc4c(c3)CN(C(=O)C(NC(=O)C(C)NC)C(C)(C)C)C(C(=O)NC3CCCc5ccccc53)C4)CC2)cc(C[100NH:0][100C:0](=O)N2CCCC(n3nc(-c4ccc(Oc5ccc(F)cc5F)cc4)c(C(N)=O)c3N)C2)c1F

> <Shape>
0.267

> <Color>
0.053

> <Negative vol penalty>
0.000

$$$$

  -OEChem-04052316303D

 85 93  0     1  0  0  0  0  0999 V2000
  -16.7038  -30.2281   23.3783 C   0  0  0  0  0  0  0  0  0  0  0  0
  -17.8356  -30.9382   23.7660 C   0  0  0  0  0  0  0  0  0  0  0  0
  -28.4543  -21.9492   23.6258 C   0  0  0  0  0  0  0  0  0  0  0  0
  -30.3081  -22.3682   25.1174 C   0  0  0  0  0  0  0  0  0  0  0  0
  -16.8247  -28.9082   22.9458 C   0  0  0  0  0  0  0  0  0  0  0  0
  -19.0888  -30.3283   23.7223 C   0  0  0  0  0  0  0  0  0  0  0  0
  -24.4347  -32.9931   22.3708 C   0  0  0  0  0  0  0  0  0  0  0  0
  -28.1551  -20.7805   24.3259 C   0  0  0  0  0  0  0  0  0  0  0  0
  -30.0089  -21.1995   25.8176 C   0  0  0  0  0  0  0  0  0  0  0  0
  -25.4662  -33.4847   23.1696 C   0  0  0  0  0  0  0  0  0  0  0  0
  -30.4860  -17.8744   25.4344 C   0  0  0  0  0  0  0  0  0  0  0  0
  -31.5448  -17.0300   25.7684 C   0  0  0  0  0  0  0  0  0  0  0  0
  -26.6495  -31.3980   22.9154 C   0  0  0  0  0  0  0  0  0  0  0  0
  -33.0685  -31.2554   24.9074 C   0  0  0  0  0  0  0  0  0  0  0  0
  -32.1778  -33.7043   23.9113 C   0  0  0  0  0  0  0  0  0  0  0  0
  -31.0150  -17.2923   28.1110 C   0  0  0  0  0  0  0  0  0  0  0  0
  -29.5309  -22.7430   24.0215 C   0  0  0  0  0  0  0  0  0  0  0  0
  -29.3454  -25.2434   23.5509 C   0  0  0  0  0  0  0  0  0  0  0  0
  -18.0812  -28.2849   22.8876 C   0  0  0  0  0  0  0  0  0  0  0  0
  -24.4980  -31.6941   21.8463 C   0  0  0  0  0  0  0  0  0  0  0  0
  -19.2264  -28.9984   23.2899 C   0  0  0  0  0  0  0  0  0  0  0  0
  -25.6188  -30.8932   22.1081 C   0  0  0  0  0  0  0  0  0  0  0  0
  -31.7561  -31.6668   25.1393 C   0  0  0  0  0  0  0  0  0  0  0  0
  -33.9356  -32.0684   24.1775 C   0  0  0  0  0  0  0  0  0  0  0  0
  -31.3107  -32.8913   24.6413 C   0  0  0  0  0  0  0  0  0  0  0  0
  -28.9324  -20.4056   25.4218 C   0  0  0  0  0  0  0  0  0  0  0  0
  -26.5724  -32.6861   23.4445 C   0  0  0  0  0  0  0  0  0  0  0  0
  -29.6918  -18.4279   26.4387 C   0  0  0  0  0  0  0  0  0  0  0  0
  -31.8093  -16.7389   27.1066 C   0  0  0  0  0  0  0  0  0  0  0  0
  -29.9563  -18.1368   27.7769 C   0  0  0  0  0  0  0  0  0  0  0  0
  -33.4903  -33.2928   23.6794 C   0  0  0  0  0  0  0  0  0  0  0  0
  -29.8408  -23.9501   23.2983 C   0  0  0  0  0  0  0  0  0  0  0  0
  -29.9381  -26.0310   22.5944 C   0  0  0  0  0  0  0  0  0  0  0  0
  -28.4314  -25.6926   24.5600 C   0  0  0  0  0  0  0  0  0  0  0  0
  -22.7423  -29.0624   22.1552 C   0  0  0  0  0  0  0  0  0  0  0  0
  -34.5080  -27.5336   19.7400 C   0  0  0  0  0  0  0  0  0  0  0  0
  -24.7295  -27.9354   19.8523 C   0  0  0  0  0  0  0  0  0  0  0  0
  -27.7562  -28.1303   18.2877 C   0  0  0  0  0  0  0  0  0  0  0  0
  -18.1562  -26.8411   22.4581 C   0  0  0  0  0  0  0  0  0  0  0  0
  -23.3895  -31.1882   20.9644 C   0  0  0  0  0  0  0  0  0  0  0  0
  -25.7444  -29.4989   21.5524 C   0  0  0  0  0  0  0  0  0  0  0  0
  -19.5658  -26.3890   22.0855 C   0  0  0  0  0  0  0  0  0  0  0  0
  -32.5795  -24.7929   18.4715 C   0  0  0  0  0  0  0  0  0  0  0  0
  -20.5698  -26.8494   23.1376 C   0  0  0  0  0  0  0  0  0  0  0  0
  -31.6759  -24.4163   19.6449 C   0  0  0  0  0  0  0  0  0  0  0  0
  -33.9515  -25.2576   18.9500 C   0  0  0  0  0  0  0  0  0  0  0  0
  -33.0002  -26.0077   21.1073 C   0  0  0  0  0  0  0  0  0  0  0  0
  -20.6062  -28.3795   23.2330 C   0  0  1  0  0  0  0  0  0  0  0  0
  -23.3201  -29.6653   20.9061 C   0  0  1  0  0  0  0  0  0  0  0  0
  -31.5939  -25.5618   20.6693 C   0  0  2  0  0  0  0  0  0  0  0  0
  -30.8455  -30.7816   25.9253 C   0  0  0  0  0  0  0  0  0  0  0  0
  -29.1055  -27.0526   16.4669 C   0  0  0  0  0  0  0  0  0  0  0  0
  -25.3083  -25.5667   21.6865 C   0  0  0  0  0  0  0  0  0  0  0  0
  -27.3131  -25.0546   20.2770 C   0  0  0  0  0  0  0  0  0  0  0  0
  -25.0311  -24.9737   19.2728 C   0  0  0  0  0  0  0  0  0  0  0  0
  -27.9021  -30.6513   16.7443 C   0  0  0  0  0  0  0  0  0  0  0  0
  -35.3339  -31.5914   23.9510 C   0  0  0  0  0  0  0  0  0  0  0  0
  -29.8958  -33.3586   24.8821 C   0  0  0  0  0  0  0  0  0  0  0  0
  -34.3309  -28.5925   20.7990 C   0  0  0  0  0  0  0  0  0  0  0  0
  -35.4642  -30.5008   22.8740 C   0  0  0  0  0  0  0  0  0  0  0  0
  -35.1251  -29.8488   20.4550 C   0  0  0  0  0  0  0  0  0  0  0  0
  -34.9559  -30.9552   21.5016 C   0  0  0  0  0  0  0  0  0  0  0  0
  -28.8926  -32.6655   23.9665 C   0  0  0  0  0  0  0  0  0  1  0  0
  -26.0553  -27.2135   19.8437 C   0  0  1  0  0  0  0  0  0  0  0  0
  -28.1293  -28.1650   16.8166 C   0  0  2  0  0  0  0  0  0  0  0  0
  -25.9240  -25.7276   20.2822 C   0  0  0  0  0  0  0  0  0  0  0  0
  -30.6831  -23.9138   22.2624 N   0  0  0  0  0  0  0  0  0  0  0  0
  -30.7216  -25.1941   21.8556 N   0  0  0  0  0  0  0  0  0  0  0  0
  -24.6316  -29.0472   20.7008 N   0  0  0  0  0  0  0  0  0  0  0  0
  -33.8299  -26.3308   19.9383 N   0  0  0  0  0  0  0  0  0  0  0  0
  -29.8602  -27.3508   22.3216 N   0  0  0  0  0  0  0  0  0  0  0  0
  -27.9170  -24.7516   25.4624 N   0  0  0  0  0  0  0  0  0  0  0  0
  -21.3664  -28.9364   22.1346 N   0  0  0  0  0  0  0  0  0  0  0  0
  -26.6103  -27.3952   18.5068 N   0  0  0  0  0  0  0  0  0  0  0  0
  -28.7613  -29.4701   16.4732 N   0  3  0  0  0  0  0  0  0  0  0  0
  -28.0683  -26.8901   24.6484 O   0  0  0  0  0  0  0  0  0  0  0  0
  -23.4896  -28.7343   23.0693 O   0  0  0  0  0  0  0  0  0  0  0  0
  -35.2257  -27.7714   18.7650 O   0  0  0  0  0  0  0  0  0  0  0  0
  -23.8166  -27.5319   19.1273 O   0  0  0  0  0  0  0  0  0  0  0  0
  -28.4173  -28.6954   19.1561 O   0  0  0  0  0  0  0  0  0  0  0  0
  -28.6406  -19.2654   26.1054 O   0  0  0  0  0  0  0  0  0  0  0  0
  -27.5803  -33.1633   24.2245 O   0  0  0  0  0  0  0  0  0  1  0  0
  -32.8251  -15.9268   27.4272 F   0  0  0  0  0  0  0  0  0  0  0  0
  -29.1960  -18.6646   28.7461 F   0  0  0  0  0  0  0  0  0  0  0  0
  -34.5345  -34.3253   22.7723 Cl  0  0  0  0  0  0  0  0  0  0  0  0
  1  2  1  0  0  0  0
  1  5  2  0  0  0  0
  2  6  2  0  0  0  0
  3  8  2  0  0  0  0
  3 17  1  0  0  0  0
  4  9  1  0  0  0  0
  4 17  2  0  0  0  0
  5 19  1  0  0  0  0
  6 21  1  0  0  0  0
  7 10  2  0  0  0  0
  7 20  1  0  0  0  0
  8 26  1  0  0  0  0
  9 26  2  0  0  0  0
 10 27  1  0  0  0  0
 11 12  2  0  0  0  0
 11 28  1  0  0  0  0
 12 29  1  0  0  0  0
 13 22  1  0  0  0  0
 13 27  2  0  0  0  0
 14 23  1  0  0  0  0
 14 24  2  0  0  0  0
 15 25  1  0  0  0  0
 15 31  2  0  0  0  0
 16 29  2  0  0  0  0
 16 30  1  0  0  0  0
 17 32  1  0  0  0  0
 18 32  1  0  0  0  0
 18 33  2  0  0  0  0
 18 34  1  0  0  0  0
 19 21  2  0  0  0  0
 19 39  1  0  0  0  0
 20 22  2  0  0  0  0
 20 40  1  0  0  0  0
 21 48  1  0  0  0  0
 22 41  1  0  0  0  0
 23 25  2  0  0  0  0
 23 51  1  0  0  0  0
 24 31  1  0  0  0  0
 24 57  1  0  0  0  0
 25 58  1  0  0  0  0
 26 81  1  0  0  0  0
 27 82  1  0  0  0  0
 28 30  2  0  0  0  0
 28 81  1  0  0  0  0
 29 83  1  0  0  0  0
 30 84  1  0  0  0  0
 31 85  1  0  0  0  0
 32 67  2  0  0  0  0
 33 68  1  0  0  0  0
 33 71  1  0  0  0  0
 34 72  1  0  0  0  0
 34 76  2  0  0  0  0
 35 49  1  0  0  0  0
 35 73  1  0  0  0  0
 35 77  2  0  0  0  0
 36 59  1  0  0  0  0
 36 70  1  0  0  0  0
 36 78  2  0  0  0  0
 37 64  1  0  0  0  0
 37 69  1  0  0  0  0
 37 79  2  0  0  0  0
 38 65  1  0  0  0  0
 38 74  1  0  0  0  0
 38 80  2  0  0  0  0
 39 42  1  0  0  0  0
 40 49  1  0  0  0  0
 41 69  1  0  0  0  0
 42 44  1  0  0  0  0
 43 45  1  0  0  0  0
 43 46  1  0  0  0  0
 44 48  1  0  0  0  0
 45 50  1  0  0  0  0
 46 70  1  0  0  0  0
 47 50  1  0  0  0  0
 47 70  1  0  0  0  0
 48 73  1  0  0  0  0
 49 69  1  0  0  0  0
 50 68  1  0  0  0  0
 52 65  1  0  0  0  0
 53 66  1  0  0  0  0
 54 66  1  0  0  0  0
 55 66  1  0  0  0  0
 56 75  1  0  0  0  0
 57 60  1  0  0  0  0
 58 63  1  0  0  0  0
 59 61  1  0  0  0  0
 60 62  1  0  0  0  0
 61 62  1  0  0  0  0
 63 82  1  0  0  0  0
 64 66  1  0  0  0  0
 64 74  1  0  0  0  0
 65 75  1  0  0  0  0
 67 68  1  0  0  0  0
M  CHG  1  75   1
M  ISO  4  36 100  59 100  63 101  82 101
M  END
> <Batch ID>
0027

> <Smiles>
CNC(C)C(=O)NC(C(=O)N1Cc2cc([101O:1][101CH2:1]Cc3cc(Cl)c(CCCC[100CH2:0][100C:0](=O)N4CCCC(n5nc(-c6ccc(Oc7ccc(F)cc7F)cc6)c(C(N)=O)c5N)C4)cc3C)ccc2CC1C(=O)NC1CCCc2ccccc21)C(C)(C)C

> <Shape>
0.172

> <Color>
0.089

> <Negative vol penalty>
0.000

$$$$

  -OEChem-04052316303D

 87 95  0     1  0  0  0  0  0999 V2000
  -28.0260  -33.5181   26.2896 C   0  0  0  0  0  0  0  0  0  0  0  0
  -28.1724  -32.3151   25.6062 C   0  0  0  0  0  0  0  0  0  0  0  0
  -21.8335  -14.5372   21.4365 C   0  0  0  0  0  0  0  0  0  0  0  0
  -22.0490  -14.6652   19.0335 C   0  0  0  0  0  0  0  0  0  0  0  0
  -26.7528  -33.9804   26.6199 C   0  0  0  0  0  0  0  0  0  0  0  0
  -27.0456  -31.5732   25.2538 C   0  0  0  0  0  0  0  0  0  0  0  0
  -27.2641  -29.8499   20.4970 C   0  0  0  0  0  0  0  0  0  0  0  0
  -20.5104  -14.9683   21.3408 C   0  0  0  0  0  0  0  0  0  0  0  0
  -20.7259  -15.0962   18.9378 C   0  0  0  0  0  0  0  0  0  0  0  0
  -28.0645  -28.7331   20.2605 C   0  0  0  0  0  0  0  0  0  0  0  0
  -17.5065  -13.6326   20.5498 C   0  0  0  0  0  0  0  0  0  0  0  0
  -16.5482  -12.9560   21.3043 C   0  0  0  0  0  0  0  0  0  0  0  0
  -26.1029  -27.3292   20.2868 C   0  0  0  0  0  0  0  0  0  0  0  0
  -16.0049  -15.0095   22.4556 C   0  0  0  0  0  0  0  0  0  0  0  0
  -31.5321  -22.4795   17.9149 C   0  0  0  0  0  0  0  0  0  0  0  0
  -22.6029  -14.3857   20.2828 C   0  0  0  0  0  0  0  0  0  0  0  0
  -24.4360  -12.6130   20.3520 C   0  0  0  0  0  0  0  0  0  0  0  0
  -25.6094  -33.2485   26.2628 C   0  0  0  0  0  0  0  0  0  0  0  0
  -25.8759  -29.7130   20.6412 C   0  0  0  0  0  0  0  0  0  0  0  0
  -25.7560  -32.0255   25.5808 C   0  0  0  0  0  0  0  0  0  0  0  0
  -25.2868  -28.4461   20.5225 C   0  0  0  0  0  0  0  0  0  0  0  0
  -30.2672  -21.9317   17.7744 C   0  0  0  0  0  0  0  0  0  0  0  0
  -30.9527  -20.1960   19.2917 C   0  0  0  0  0  0  0  0  0  0  0  0
  -19.9566  -15.2477   20.0915 C   0  0  0  0  0  0  0  0  0  0  0  0
  -27.4843  -27.4721   20.1582 C   0  0  0  0  0  0  0  0  0  0  0  0
  -17.7141  -14.9977   20.7482 C   0  0  0  0  0  0  0  0  0  0  0  0
  -15.7973  -13.6444   22.2572 C   0  0  0  0  0  0  0  0  0  0  0  0
  -16.9633  -15.6861   21.7010 C   0  0  0  0  0  0  0  0  0  0  0  0
  -29.9800  -20.7681   18.4793 C   0  0  0  0  0  0  0  0  0  0  0  0
  -23.9699  -13.9411   20.3811 C   0  0  0  0  0  0  0  0  0  0  0  0
  -32.1869  -20.8215   19.3641 C   0  0  0  0  0  0  0  0  0  0  0  0
  -25.7990  -12.7247   20.4793 C   0  0  0  0  0  0  0  0  0  0  0  0
  -23.7025  -11.3880   20.2214 C   0  0  0  0  0  0  0  0  0  0  0  0
  -23.7959  -30.2872   22.9752 C   0  0  0  0  0  0  0  0  0  0  0  0
  -21.6196  -29.5182   20.6960 C   0  0  0  0  0  0  0  0  0  0  0  0
  -20.9315  -27.8800   17.7823 C   0  0  0  0  0  0  0  0  0  0  0  0
  -29.6140  -16.8656   19.0988 C   0  0  0  0  0  0  0  0  0  0  0  0
  -24.2562  -33.7651   26.6832 C   0  0  0  0  0  0  0  0  0  0  0  0
  -25.0235  -30.9311   20.8694 C   0  0  0  0  0  0  0  0  0  0  0  0
  -23.7992  -28.2483   20.6494 C   0  0  0  0  0  0  0  0  0  0  0  0
  -23.0955  -33.1047   25.9438 C   0  0  0  0  0  0  0  0  0  0  0  0
  -29.1771  -15.5401   22.3429 C   0  0  0  0  0  0  0  0  0  0  0  0
  -23.2764  -31.5905   25.9101 C   0  0  0  0  0  0  0  0  0  0  0  0
  -27.8203  -14.8503   22.2078 C   0  0  0  0  0  0  0  0  0  0  0  0
  -29.2165  -16.8799   21.6055 C   0  0  0  0  0  0  0  0  0  0  0  0
  -27.4581  -16.1019   20.0481 C   0  0  0  0  0  0  0  0  0  0  0  0
  -24.5566  -31.2044   25.1594 C   0  0  1  0  0  0  0  0  0  0  0  0
  -23.6782  -30.6071   21.5118 C   0  0  1  0  0  0  0  0  0  0  0  0
  -27.4113  -14.7258   20.7298 C   0  0  2  0  0  0  0  0  0  0  0  0
  -33.1383  -16.0545   19.6353 C   0  0  0  0  0  0  0  0  0  0  0  0
  -19.0547  -27.4036   16.1861 C   0  0  0  0  0  0  0  0  0  0  0  0
  -20.4743  -27.4786   22.6552 C   0  0  0  0  0  0  0  0  0  0  0  0
  -19.2769  -26.4093   20.7340 C   0  0  0  0  0  0  0  0  0  0  0  0
  -18.7594  -28.7658   21.3681 C   0  0  0  0  0  0  0  0  0  0  0  0
  -22.3367  -29.2196   15.5485 C   0  0  0  0  0  0  0  0  0  0  0  0
  -29.2659  -22.6107   16.8744 C   0  0  0  0  0  0  0  0  0  0  0  0
  -30.6822  -18.9467   20.0647 C   0  0  0  0  0  0  0  0  0  0  0  0
  -33.1206  -17.3915   18.9076 C   0  0  0  0  0  0  0  0  0  0  0  0
  -28.1910  -23.4009   17.6291 C   0  0  0  0  0  0  0  0  0  0  0  0
  -28.7623  -24.5648   18.4400 C   0  0  0  0  0  0  0  0  0  0  0  0
  -31.7781  -17.6861   18.2492 C   0  0  0  0  0  0  0  0  0  0  0  0
  -27.6716  -25.3008   19.2064 C   0  0  0  0  0  0  0  0  0  1  0  0
  -20.9586  -28.2411   20.2365 C   0  0  1  0  0  0  0  0  0  0  0  0
  -20.2160  -28.3269   16.5202 C   0  0  2  0  0  0  0  0  0  0  0  0
  -19.8956  -27.7268   21.2479 C   0  0  0  0  0  0  0  0  0  0  0  0
  -32.5028  -21.9525   18.6944 N   0  0  0  0  0  0  0  0  0  0  0  0
  -24.9566  -14.8310   20.5165 N   0  0  0  0  0  0  0  0  0  0  0  0
  -26.0564  -14.0607   20.5736 N   0  0  0  0  0  0  0  0  0  0  0  0
  -23.0089  -29.4692   20.8784 N   0  0  0  0  0  0  0  0  0  0  0  0
  -28.7738  -16.7245   20.2131 N   0  0  0  0  0  0  0  0  0  0  0  0
  -26.7905  -11.8093   20.5188 N   0  0  0  0  0  0  0  0  0  0  0  0
  -22.3077  -11.4541   20.1005 N   0  0  0  0  0  0  0  0  0  0  0  0
  -24.3531  -31.3018   23.7299 N   0  0  0  0  0  0  0  0  0  0  0  0
  -20.4329  -28.5106   18.9026 N   0  0  0  0  0  0  0  0  0  0  0  0
  -30.6909  -17.7573   19.2153 N   0  0  0  0  0  0  0  0  0  0  0  0
  -21.1581  -28.3339   15.3655 N   0  3  0  0  0  0  0  0  0  0  0  0
  -24.2657  -10.2672   20.2286 O   0  0  0  0  0  0  0  0  0  0  0  0
  -23.4084  -29.2009   23.3892 O   0  0  0  0  0  0  0  0  0  0  0  0
  -20.9296  -30.5242   20.8793 O   0  0  0  0  0  0  0  0  0  0  0  0
  -21.8393  -27.0515   17.7755 O   0  0  0  0  0  0  0  0  0  0  0  0
  -29.4095  -16.2358   18.0530 O   0  0  0  0  0  0  0  0  0  0  0  0
  -18.6654  -15.6681   19.9977 O   0  0  0  0  0  0  0  0  0  0  0  0
  -28.2633  -26.3803   19.9281 O   0  0  0  0  0  0  0  0  0  1  0  0
  -14.8759  -12.9949   22.9806 F   0  0  0  0  0  0  0  0  0  0  0  0
  -17.1574  -16.9977   21.8953 F   0  0  0  0  0  0  0  0  0  0  0  0
  -28.4156  -20.0400   18.3438 Cl  0  0  0  0  0  0  0  0  0  0  0  0
  -33.4742  -20.2157   20.3326 Cl  0  0  0  0  0  0  0  0  0  0  0  0
  1  2  1  0  0  0  0
  1  5  2  0  0  0  0
  2  6  2  0  0  0  0
  3  8  2  0  0  0  0
  3 16  1  0  0  0  0
  4  9  1  0  0  0  0
  4 16  2  0  0  0  0
  5 18  1  0  0  0  0
  6 20  1  0  0  0  0
  7 10  2  0  0  0  0
  7 19  1  0  0  0  0
  8 24  1  0  0  0  0
  9 24  2  0  0  0  0
 10 25  1  0  0  0  0
 11 12  2  0  0  0  0
 11 26  1  0  0  0  0
 12 27  1  0  0  0  0
 13 21  1  0  0  0  0
 13 25  2  0  0  0  0
 14 27  2  0  0  0  0
 14 28  1  0  0  0  0
 15 22  2  0  0  0  0
 15 66  1  0  0  0  0
 16 30  1  0  0  0  0
 17 30  1  0  0  0  0
 17 32  2  0  0  0  0
 17 33  1  0  0  0  0
 18 20  2  0  0  0  0
 18 38  1  0  0  0  0
 19 21  2  0  0  0  0
 19 39  1  0  0  0  0
 20 47  1  0  0  0  0
 21 40  1  0  0  0  0
 22 29  1  0  0  0  0
 22 56  1  0  0  0  0
 23 29  2  0  0  0  0
 23 31  1  0  0  0  0
 23 57  1  0  0  0  0
 24 82  1  0  0  0  0
 25 83  1  0  0  0  0
 26 28  2  0  0  0  0
 26 82  1  0  0  0  0
 27 84  1  0  0  0  0
 28 85  1  0  0  0  0
 29 86  1  0  0  0  0
 30 67  2  0  0  0  0
 31 66  2  0  0  0  0
 31 87  1  0  0  0  0
 32 68  1  0  0  0  0
 32 71  1  0  0  0  0
 33 72  1  0  0  0  0
 33 77  2  0  0  0  0
 34 48  1  0  0  0  0
 34 73  1  0  0  0  0
 34 78  2  0  0  0  0
 35 63  1  0  0  0  0
 35 69  1  0  0  0  0
 35 79  2  0  0  0  0
 36 64  1  0  0  0  0
 36 74  1  0  0  0  0
 36 80  2  0  0  0  0
 37 70  1  0  0  0  0
 37 75  1  0  0  0  0
 37 81  2  0  0  0  0
 38 41  1  0  0  0  0
 39 48  1  0  0  0  0
 40 69  1  0  0  0  0
 41 43  1  0  0  0  0
 42 44  1  0  0  0  0
 42 45  1  0  0  0  0
 43 47  1  0  0  0  0
 44 49  1  0  0  0  0
 45 70  1  0  0  0  0
 46 49  1  0  0  0  0
 46 70  1  0  0  0  0
 47 73  1  0  0  0  0
 48 69  1  0  0  0  0
 49 68  1  0  0  0  0
 50 58  1  0  0  0  0
 51 64  1  0  0  0  0
 52 65  1  0  0  0  0
 53 65  1  0  0  0  0
 54 65  1  0  0  0  0
 55 76  1  0  0  0  0
 56 59  1  0  0  0  0
 57 75  1  0  0  0  0
 58 61  1  0  0  0  0
 59 60  1  0  0  0  0
 60 62  1  0  0  0  0
 61 75  1  0  0  0  0
 62 83  1  0  0  0  0
 63 65  1  0  0  0  0
 63 74  1  0  0  0  0
 64 76  1  0  0  0  0
 67 68  1  0  0  0  0
M  CHG  1  76   1
M  ISO  4  37 100  62 101  75 100  83 101
M  END
> <Batch ID>
0027

> <Smiles>
CCC[100N:0](Cc1c(Cl)ncc(CCC[101CH2:1][101O:1]c2ccc3c(c2)CN(C(=O)C(NC(=O)C(C)NC)C(C)(C)C)C(C(=O)NC2CCCc4ccccc42)C3)c1Cl)[100C:0](=O)N1CCCC(n2nc(-c3ccc(Oc4ccc(F)cc4F)cc3)c(C(N)=O)c2N)C1

> <Shape>
0.260

> <Color>
0.088

> <Negative vol penalty>
0.000

$$$$

  -OEChem-04052316303D

 93101  0     1  0  0  0  0  0999 V2000
  -28.8949  -25.2092   16.7024 C   0  0  0  0  0  0  0  0  0  0  0  0
  -27.7200  -25.2332   17.4471 C   0  0  0  0  0  0  0  0  0  0  0  0
  -27.1864  -16.7920   19.8863 C   0  0  0  0  0  0  0  0  0  0  0  0
  -26.2334  -16.4553   22.0807 C   0  0  0  0  0  0  0  0  0  0  0  0
  -30.0215  -25.8928   17.1577 C   0  0  0  0  0  0  0  0  0  0  0  0
  -27.6715  -25.9400   18.6481 C   0  0  0  0  0  0  0  0  0  0  0  0
  -23.4575  -28.7116   19.1024 C   0  0  0  0  0  0  0  0  0  0  0  0
  -27.1902  -15.4131   19.6763 C   0  0  0  0  0  0  0  0  0  0  0  0
  -26.2371  -15.0763   21.8707 C   0  0  0  0  0  0  0  0  0  0  0  0
  -22.2890  -28.0398   19.4588 C   0  0  0  0  0  0  0  0  0  0  0  0
  -29.0801  -12.7612   20.5818 C   0  0  0  0  0  0  0  0  0  0  0  0
  -30.2296  -12.1931   20.0328 C   0  0  0  0  0  0  0  0  0  0  0  0
  -22.5723  -28.7699   21.7404 C   0  0  0  0  0  0  0  0  0  0  0  0
  -17.9927  -23.8245   23.4330 C   0  0  0  0  0  0  0  0  0  0  0  0
  -28.9370  -11.3916   18.1556 C   0  0  0  0  0  0  0  0  0  0  0  0
  -26.7081  -17.3131   21.0886 C   0  0  0  0  0  0  0  0  0  0  0  0
  -25.6714  -19.6422   20.9967 C   0  0  0  0  0  0  0  0  0  0  0  0
  -29.9839  -26.6163   18.3602 C   0  0  0  0  0  0  0  0  0  0  0  0
  -24.1994  -29.4096   20.0661 C   0  0  0  0  0  0  0  0  0  0  0  0
  -28.7991  -26.6328   19.1206 C   0  0  0  0  0  0  0  0  0  0  0  0
  -23.7486  -29.4518   21.3932 C   0  0  0  0  0  0  0  0  0  0  0  0
  -18.1839  -25.1040   23.9546 C   0  0  0  0  0  0  0  0  0  0  0  0
  -18.2906  -26.1982   23.0962 C   0  0  0  0  0  0  0  0  0  0  0  0
  -18.2061  -26.0131   21.7162 C   0  0  0  0  0  0  0  0  0  0  0  0
  -18.0149  -24.7335   21.1947 C   0  0  0  0  0  0  0  0  0  0  0  0
  -26.7155  -14.5552   20.6684 C   0  0  0  0  0  0  0  0  0  0  0  0
  -21.8477  -28.0665   20.7785 C   0  0  0  0  0  0  0  0  0  0  0  0
  -27.8589  -12.6444   19.9178 C   0  0  0  0  0  0  0  0  0  0  0  0
  -30.1581  -11.5083   18.8197 C   0  0  0  0  0  0  0  0  0  0  0  0
  -27.7874  -11.9596   18.7047 C   0  0  0  0  0  0  0  0  0  0  0  0
  -17.9083  -23.6393   22.0531 C   0  0  0  0  0  0  0  0  0  0  0  0
  -26.7046  -18.7374   21.3063 C   0  0  0  0  0  0  0  0  0  0  0  0
  -26.1547  -20.8646   21.3951 C   0  0  0  0  0  0  0  0  0  0  0  0
  -24.3895  -19.3993   20.4022 C   0  0  0  0  0  0  0  0  0  0  0  0
  -27.1432  -29.1662   21.2403 C   0  0  0  0  0  0  0  0  0  0  0  0
  -26.3349  -31.9028   22.7829 C   0  0  0  0  0  0  0  0  0  0  0  0
  -23.8681  -33.9162   24.0109 C   0  0  0  0  0  0  0  0  0  0  0  0
  -30.2351  -22.5093   25.4566 C   0  0  0  0  0  0  0  0  0  0  0  0
  -31.2411  -27.3005   18.8353 C   0  0  0  0  0  0  0  0  0  0  0  0
  -25.4434  -30.1513   19.6603 C   0  0  0  0  0  0  0  0  0  0  0  0
  -24.4978  -30.2037   22.4617 C   0  0  0  0  0  0  0  0  0  0  0  0
  -30.9949  -28.3348   19.9307 C   0  0  0  0  0  0  0  0  0  0  0  0
  -30.2542  -23.2617   21.9766 C   0  0  0  0  0  0  0  0  0  0  0  0
  -30.0703  -27.7671   21.0029 C   0  0  0  0  0  0  0  0  0  0  0  0
  -29.2535  -22.2691   21.3823 C   0  0  0  0  0  0  0  0  0  0  0  0
  -31.0519  -22.6415   23.1217 C   0  0  0  0  0  0  0  0  0  0  0  0
  -29.2333  -21.0478   23.5973 C   0  0  0  0  0  0  0  0  0  0  0  0
  -28.6997  -27.4086   20.4161 C   0  0  1  0  0  0  0  0  0  0  0  0
  -26.3963  -30.4021   20.8250 C   0  0  1  0  0  0  0  0  0  0  0  0
  -28.3660  -21.6449   22.4759 C   0  0  2  0  0  0  0  0  0  0  0  0
  -18.4958  -27.5693   23.6588 C   0  0  0  0  0  0  0  0  0  0  0  0
  -17.9261  -24.5493   19.7111 C   0  0  0  0  0  0  0  0  0  0  0  0
  -23.5178  -36.0676   25.2543 C   0  0  0  0  0  0  0  0  0  0  0  0
  -27.1490  -30.5297   25.3833 C   0  0  0  0  0  0  0  0  0  0  0  0
  -25.9132  -32.3142   26.6310 C   0  0  0  0  0  0  0  0  0  0  0  0
  -27.8630  -32.9193   25.1975 C   0  0  0  0  0  0  0  0  0  0  0  0
  -22.3622  -35.1074   21.7588 C   0  0  0  0  0  0  0  0  0  0  0  0
  -18.3203  -27.1883   20.7968 C   0  0  0  0  0  0  0  0  0  0  0  0
  -18.2714  -25.2761   25.4424 C   0  0  0  0  0  0  0  0  0  0  0  0
  -24.5411  -24.0049   27.4772 C   0  0  0  0  0  0  0  0  0  0  0  0
  -25.9723  -24.2910   27.9348 C   0  0  0  0  0  0  0  0  0  0  0  0
  -23.6037  -25.1627   27.8245 C   0  0  0  0  0  0  0  0  0  0  0  0
  -26.9030  -23.1185   27.6172 C   0  0  0  0  0  0  0  0  0  0  0  0
  -22.1653  -24.8617   27.3966 C   0  0  0  0  0  0  0  0  0  0  0  0
  -28.3437  -23.4242   28.0375 C   0  0  0  0  0  0  0  0  0  0  0  0
  -21.2237  -26.0093   27.7729 C   0  0  0  0  0  0  0  0  0  0  0  0
  -29.3015  -22.2733   27.7439 C   0  0  0  0  0  0  0  0  0  0  0  0
  -19.7735  -25.7574   27.3791 C   0  0  0  0  0  0  0  0  0  0  0  0
  -19.6946  -27.2899   20.1327 C   0  0  0  0  0  0  0  0  0  1  0  0
  -25.6880  -32.2330   24.1064 C   0  0  1  0  0  0  0  0  0  0  0  0
  -23.6331  -35.4109   23.8875 C   0  0  2  0  0  0  0  0  0  0  0  0
  -26.6400  -31.9832   25.3100 C   0  0  0  0  0  0  0  0  0  0  0  0
  -27.7642  -19.3342   21.8586 N   0  0  0  0  0  0  0  0  0  0  0  0
  -27.3995  -20.6270   21.8991 N   0  0  0  0  0  0  0  0  0  0  0  0
  -25.7117  -30.9078   22.0166 N   0  0  0  0  0  0  0  0  0  0  0  0
  -30.1515  -22.0690   24.1253 N   0  0  0  0  0  0  0  0  0  0  0  0
  -25.6320  -22.1087   21.3598 N   0  0  0  0  0  0  0  0  0  0  0  0
  -24.0531  -18.0842   20.0535 N   0  0  0  0  0  0  0  0  0  0  0  0
  -27.9011  -28.6015   20.2322 N   0  0  0  0  0  0  0  0  0  0  0  0
  -25.2119  -33.6076   23.9963 N   0  0  0  0  0  0  0  0  0  0  0  0
  -29.3413  -21.9199   26.3423 N   0  0  0  0  0  0  0  0  0  0  0  0
  -22.3771  -35.6770   23.1308 N   0  3  0  0  0  0  0  0  0  0  0  0
  -19.6603  -25.5199   25.9209 N   0  3  0  0  0  0  0  0  0  0  0  0
  -23.5733  -20.3235   20.1716 O   0  0  0  0  0  0  0  0  0  0  0  0
  -27.0407  -28.7562   22.3905 O   0  0  0  0  0  0  0  0  0  0  0  0
  -27.3516  -32.5106   22.4384 O   0  0  0  0  0  0  0  0  0  0  0  0
  -22.9515  -33.1040   24.1139 O   0  0  0  0  0  0  0  0  0  0  0  0
  -31.0426  -23.3681   25.8272 O   0  0  0  0  0  0  0  0  0  0  0  0
  -26.7187  -13.2096   20.4637 O   0  0  0  0  0  0  0  0  0  0  0  0
  -20.6998  -27.4066   21.1316 O   0  0  0  0  0  0  0  0  0  1  0  0
  -31.2623  -10.9642   18.2918 F   0  0  0  0  0  0  0  0  0  0  0  0
  -26.6173  -11.8452   18.0615 F   0  0  0  0  0  0  0  0  0  0  0  0
  -17.6704  -22.0397   21.4479 Cl  0  0  0  0  0  0  0  0  0  0  0  0
  1  2  1  0  0  0  0
  1  5  2  0  0  0  0
  2  6  2  0  0  0  0
  3  8  2  0  0  0  0
  3 16  1  0  0  0  0
  4  9  1  0  0  0  0
  4 16  2  0  0  0  0
  5 18  1  0  0  0  0
  6 20  1  0  0  0  0
  7 10  2  0  0  0  0
  7 19  1  0  0  0  0
  8 26  1  0  0  0  0
  9 26  2  0  0  0  0
 10 27  1  0  0  0  0
 11 12  2  0  0  0  0
 11 28  1  0  0  0  0
 12 29  1  0  0  0  0
 13 21  1  0  0  0  0
 13 27  2  0  0  0  0
 14 22  2  0  0  0  0
 14 31  1  0  0  0  0
 15 29  2  0  0  0  0
 15 30  1  0  0  0  0
 16 32  1  0  0  0  0
 17 32  1  0  0  0  0
 17 33  2  0  0  0  0
 17 34  1  0  0  0  0
 18 20  2  0  0  0  0
 18 39  1  0  0  0  0
 19 21  2  0  0  0  0
 19 40  1  0  0  0  0
 20 48  1  0  0  0  0
 21 41  1  0  0  0  0
 22 23  1  0  0  0  0
 22 59  1  0  0  0  0
 23 24  2  0  0  0  0
 23 51  1  0  0  0  0
 24 25  1  0  0  0  0
 24 58  1  0  0  0  0
 25 31  2  0  0  0  0
 25 52  1  0  0  0  0
 26 89  1  0  0  0  0
 27 90  1  0  0  0  0
 28 30  2  0  0  0  0
 28 89  1  0  0  0  0
 29 91  1  0  0  0  0
 30 92  1  0  0  0  0
 31 93  1  0  0  0  0
 32 73  2  0  0  0  0
 33 74  1  0  0  0  0
 33 77  1  0  0  0  0
 34 78  1  0  0  0  0
 34 84  2  0  0  0  0
 35 49  1  0  0  0  0
 35 79  1  0  0  0  0
 35 85  2  0  0  0  0
 36 70  1  0  0  0  0
 36 75  1  0  0  0  0
 36 86  2  0  0  0  0
 37 71  1  0  0  0  0
 37 80  1  0  0  0  0
 37 87  2  0  0  0  0
 38 76  1  0  0  0  0
 38 81  1  0  0  0  0
 38 88  2  0  0  0  0
 39 42  1  0  0  0  0
 40 49  1  0  0  0  0
 41 75  1  0  0  0  0
 42 44  1  0  0  0  0
 43 45  1  0  0  0  0
 43 46  1  0  0  0  0
 44 48  1  0  0  0  0
 45 50  1  0  0  0  0
 46 76  1  0  0  0  0
 47 50  1  0  0  0  0
 47 76  1  0  0  0  0
 48 79  1  0  0  0  0
 49 75  1  0  0  0  0
 50 74  1  0  0  0  0
 53 71  1  0  0  0  0
 54 72  1  0  0  0  0
 55 72  1  0  0  0  0
 56 72  1  0  0  0  0
 57 82  1  0  0  0  0
 58 69  1  0  0  0  0
 59 83  1  0  0  0  0
 60 61  1  0  0  0  0
 60 62  1  0  0  0  0
 61 63  1  0  0  0  0
 62 64  1  0  0  0  0
 63 65  1  0  0  0  0
 64 66  1  0  0  0  0
 65 67  1  0  0  0  0
 66 68  1  0  0  0  0
 67 81  1  0  0  0  0
 68 83  1  0  0  0  0
 69 90  1  0  0  0  0
 70 72  1  0  0  0  0
 70 80  1  0  0  0  0
 71 82  1  0  0  0  0
 73 74  1  0  0  0  0
M  CHG  2  82   1  83   1
M  ISO  4  38 100  69 101  81 100  90 101
M  END
> <Batch ID>
0027

> <Smiles>
CNC(C)C(=O)NC(C(=O)N1Cc2cc([101O:1][101CH2:1]Cc3c(C)c(Cl)cc(CNCCCCCCCCC[100NH:0][100C:0](=O)N4CCCC(n5nc(-c6ccc(Oc7ccc(F)cc7F)cc6)c(C(N)=O)c5N)C4)c3C)ccc2CC1C(=O)NC1CCCc2ccccc21)C(C)(C)C

> <Shape>
0.273

> <Color>
0.062

> <Negative vol penalty>
0.000

$$$$

  -OEChem-04052316303D

 91 99  0     1  0  0  0  0  0999 V2000
  -29.0342  -33.2094   24.7237 C   0  0  0  0  0  0  0  0  0  0  0  0
  -28.9170  -31.9073   24.2482 C   0  0  0  0  0  0  0  0  0  0  0  0
  -22.6955  -10.1245   23.2777 C   0  0  0  0  0  0  0  0  0  0  0  0
  -23.8595  -10.1414   21.1606 C   0  0  0  0  0  0  0  0  0  0  0  0
  -27.9027  -33.8929   25.1669 C   0  0  0  0  0  0  0  0  0  0  0  0
  -27.6682  -31.2875   24.2165 C   0  0  0  0  0  0  0  0  0  0  0  0
  -26.8238  -28.8402   19.8642 C   0  0  0  0  0  0  0  0  0  0  0  0
  -22.0886   -8.9165   22.9344 C   0  0  0  0  0  0  0  0  0  0  0  0
  -23.2525   -8.9333   20.8173 C   0  0  0  0  0  0  0  0  0  0  0  0
  -27.4362  -27.5981   19.7030 C   0  0  0  0  0  0  0  0  0  0  0  0
  -20.5100   -5.6462   22.7666 C   0  0  0  0  0  0  0  0  0  0  0  0
  -20.4700   -4.6425   23.7343 C   0  0  0  0  0  0  0  0  0  0  0  0
  -25.3658  -26.5078   20.2891 C   0  0  0  0  0  0  0  0  0  0  0  0
  -22.8842   -4.6364   23.8278 C   0  0  0  0  0  0  0  0  0  0  0  0
  -27.7460  -14.3456   19.9345 C   0  0  0  0  0  0  0  0  0  0  0  0
  -23.5810  -10.7370   22.3907 C   0  0  0  0  0  0  0  0  0  0  0  0
  -25.4313  -12.1611   23.4183 C   0  0  0  0  0  0  0  0  0  0  0  0
  -26.6380  -33.2847   25.1316 C   0  0  0  0  0  0  0  0  0  0  0  0
  -25.4784  -28.9256   20.2504 C   0  0  0  0  0  0  0  0  0  0  0  0
  -26.5190  -31.9631   24.6609 C   0  0  0  0  0  0  0  0  0  0  0  0
  -24.7379  -27.7521   20.4521 C   0  0  0  0  0  0  0  0  0  0  0  0
  -29.6472  -15.5499   19.8631 C   0  0  0  0  0  0  0  0  0  0  0  0
  -22.3671   -8.3209   21.7042 C   0  0  0  0  0  0  0  0  0  0  0  0
  -26.7080  -26.4317   19.9182 C   0  0  0  0  0  0  0  0  0  0  0  0
  -21.7372   -6.1449   22.3293 C   0  0  0  0  0  0  0  0  0  0  0  0
  -21.6571   -4.1376   24.2650 C   0  0  0  0  0  0  0  0  0  0  0  0
  -22.9242   -5.6400   22.8600 C   0  0  0  0  0  0  0  0  0  0  0  0
  -29.0703  -14.3367   20.3131 C   0  0  0  0  0  0  0  0  0  0  0  0
  -24.2078  -11.9852   22.7445 C   0  0  0  0  0  0  0  0  0  0  0  0
  -28.6577  -16.2634   19.2233 C   0  0  0  0  0  0  0  0  0  0  0  0
  -25.5800  -13.5234   23.5100 C   0  0  0  0  0  0  0  0  0  0  0  0
  -26.3511  -11.1807   23.9167 C   0  0  0  0  0  0  0  0  0  0  0  0
  -23.9348  -30.1411   22.7491 C   0  0  0  0  0  0  0  0  0  0  0  0
  -21.3083  -29.3477   21.0185 C   0  0  0  0  0  0  0  0  0  0  0  0
  -23.3568  -18.0330   20.2186 C   0  0  0  0  0  0  0  0  0  0  0  0
  -19.9223  -27.3956   18.5865 C   0  0  0  0  0  0  0  0  0  0  0  0
  -25.4509  -34.0466   25.6655 C   0  0  0  0  0  0  0  0  0  0  0  0
  -24.8251  -30.2728   20.3941 C   0  0  0  0  0  0  0  0  0  0  0  0
  -23.2852  -27.7893   20.8481 C   0  0  0  0  0  0  0  0  0  0  0  0
  -24.1081  -33.4520   25.2490 C   0  0  0  0  0  0  0  0  0  0  0  0
  -23.0476  -17.5662   23.7578 C   0  0  0  0  0  0  0  0  0  0  0  0
  -24.1072  -31.9404   25.4537 C   0  0  0  0  0  0  0  0  0  0  0  0
  -23.3935  -16.0911   23.9570 C   0  0  0  0  0  0  0  0  0  0  0  0
  -22.3062  -17.7934   22.4442 C   0  0  0  0  0  0  0  0  0  0  0  0
  -23.3746  -15.8010   21.4389 C   0  0  0  0  0  0  0  0  0  0  0  0
  -25.1779  -31.2657   24.5877 C   0  0  1  0  0  0  0  0  0  0  0  0
  -23.5907  -30.2457   21.2902 C   0  0  1  0  0  0  0  0  0  0  0  0
  -24.1514  -15.5319   22.7399 C   0  0  2  0  0  0  0  0  0  0  0  0
  -31.3409  -16.4854   21.4577 C   0  0  0  0  0  0  0  0  0  0  0  0
  -29.6661  -17.5943   17.3519 C   0  0  0  0  0  0  0  0  0  0  0  0
  -17.7454  -26.9508   17.4199 C   0  0  0  0  0  0  0  0  0  0  0  0
  -23.3044  -16.2125   18.5427 C   0  0  0  0  0  0  0  0  0  0  0  0
  -24.3044  -18.4447   18.0038 C   0  0  0  0  0  0  0  0  0  0  0  0
  -20.3137  -27.8169   23.4634 C   0  0  0  0  0  0  0  0  0  0  0  0
  -18.6745  -26.6460   21.9769 C   0  0  0  0  0  0  0  0  0  0  0  0
  -18.5509  -29.1212   22.2610 C   0  0  0  0  0  0  0  0  0  0  0  0
  -21.0417  -28.1627   15.9564 C   0  0  0  0  0  0  0  0  0  0  0  0
  -31.0499  -15.9813   20.0411 C   0  0  0  0  0  0  0  0  0  0  0  0
  -29.0678  -21.2461   19.9998 C   0  0  0  0  0  0  0  0  0  0  0  0
  -28.6997  -22.6562   19.5277 C   0  0  0  0  0  0  0  0  0  0  0  0
  -28.6768  -20.1495   19.0058 C   0  0  0  0  0  0  0  0  0  0  0  0
  -29.0626  -23.7502   20.5375 C   0  0  0  0  0  0  0  0  0  0  0  0
  -29.0967  -18.7646   19.5164 C   0  0  0  0  0  0  0  0  0  0  0  0
  -25.5152  -16.9358   19.6065 C   0  0  0  0  0  0  0  0  0  0  0  0
  -26.2265  -15.9046   18.7187 C   0  0  0  0  0  0  0  0  0  0  0  0
  -28.7032  -25.1423   20.0297 C   0  0  0  0  0  0  0  0  0  1  0  0
  -28.7097  -17.6243   18.5504 C   0  0  2  0  0  0  0  0  0  0  0  0
  -20.4346  -28.1221   20.9025 C   0  0  1  0  0  0  0  0  0  0  0  0
  -19.0451  -27.7401   17.3964 C   0  0  2  0  0  0  0  0  0  0  0  0
  -24.1255  -17.3813   19.0967 C   0  0  0  0  0  0  0  0  0  0  0  0
  -19.5213  -27.9255   22.1454 C   0  0  0  0  0  0  0  0  0  0  0  0
  -23.6209  -13.1432   22.4305 N   0  0  0  0  0  0  0  0  0  0  0  0
  -27.5064  -15.5218   19.2731 N   0  0  0  0  0  0  0  0  0  0  0  0
  -24.4793  -14.0598   22.9092 N   0  0  0  0  0  0  0  0  0  0  0  0
  -22.6930  -29.1306   20.9822 N   0  0  0  0  0  0  0  0  0  0  0  0
  -23.0477  -17.2283   21.3154 N   0  0  0  0  0  0  0  0  0  0  0  0
  -26.5436  -14.3029   24.0451 N   0  0  0  0  0  0  0  0  0  0  0  0
  -26.0442   -9.8249   23.7381 N   0  0  0  0  0  0  0  0  0  0  0  0
  -24.7309  -31.1701   23.2146 N   0  0  0  0  0  0  0  0  0  0  0  0
  -19.7098  -28.2552   19.6434 N   0  0  0  0  0  0  0  0  0  0  0  0
  -19.7568  -27.4358   16.1229 N   0  3  0  0  0  0  0  0  0  0  0  0
  -27.4056  -11.4975   24.5177 O   0  0  0  0  0  0  0  0  0  0  0  0
  -23.5082  -29.1974   23.4043 O   0  0  0  0  0  0  0  0  0  0  0  0
  -20.7816  -30.4575   21.1299 O   0  0  0  0  0  0  0  0  0  0  0  0
  -23.0440  -19.2226   20.1224 O   0  0  0  0  0  0  0  0  0  0  0  0
  -20.7139  -26.4555   18.5804 O   0  0  0  0  0  0  0  0  0  0  0  0
  -21.7752   -7.1419   21.3690 O   0  0  0  0  0  0  0  0  0  0  0  0
  -27.3036  -25.2181   19.7622 O   0  0  0  0  0  0  0  0  0  1  0  0
  -21.6184   -3.1748   25.1955 F   0  0  0  0  0  0  0  0  0  0  0  0
  -24.1061   -6.1161   22.4448 F   0  0  0  0  0  0  0  0  0  0  0  0
  -29.8746  -13.1047   21.1623 Cl  0  0  0  0  0  0  0  0  0  0  0  0
  1  2  1  0  0  0  0
  1  5  2  0  0  0  0
  2  6  2  0  0  0  0
  3  8  2  0  0  0  0
  3 16  1  0  0  0  0
  4  9  1  0  0  0  0
  4 16  2  0  0  0  0
  5 18  1  0  0  0  0
  6 20  1  0  0  0  0
  7 10  2  0  0  0  0
  7 19  1  0  0  0  0
  8 23  1  0  0  0  0
  9 23  2  0  0  0  0
 10 24  1  0  0  0  0
 11 12  2  0  0  0  0
 11 25  1  0  0  0  0
 12 26  1  0  0  0  0
 13 21  1  0  0  0  0
 13 24  2  0  0  0  0
 14 26  2  0  0  0  0
 14 27  1  0  0  0  0
 15 28  2  0  0  0  0
 15 73  1  0  0  0  0
 16 29  1  0  0  0  0
 17 29  1  0  0  0  0
 17 31  2  0  0  0  0
 17 32  1  0  0  0  0
 18 20  2  0  0  0  0
 18 37  1  0  0  0  0
 19 21  2  0  0  0  0
 19 38  1  0  0  0  0
 20 46  1  0  0  0  0
 21 39  1  0  0  0  0
 22 28  1  0  0  0  0
 22 30  2  0  0  0  0
 22 58  1  0  0  0  0
 23 87  1  0  0  0  0
 24 88  1  0  0  0  0
 25 27  2  0  0  0  0
 25 87  1  0  0  0  0
 26 89  1  0  0  0  0
 27 90  1  0  0  0  0
 28 91  1  0  0  0  0
 29 72  2  0  0  0  0
 30 67  1  0  0  0  0
 30 73  1  0  0  0  0
 31 74  1  0  0  0  0
 31 77  1  0  0  0  0
 32 78  1  0  0  0  0
 32 82  2  0  0  0  0
 33 47  1  0  0  0  0
 33 79  1  0  0  0  0
 33 83  2  0  0  0  0
 34 68  1  0  0  0  0
 34 75  1  0  0  0  0
 34 84  2  0  0  0  0
 35 70  1  0  0  0  0
 35 76  1  0  0  0  0
 35 85  2  0  0  0  0
 36 69  1  0  0  0  0
 36 80  1  0  0  0  0
 36 86  2  0  0  0  0
 37 40  1  0  0  0  0
 38 47  1  0  0  0  0
 39 75  1  0  0  0  0
 40 42  1  0  0  0  0
 41 43  1  0  0  0  0
 41 44  1  0  0  0  0
 42 46  1  0  0  0  0
 43 48  1  0  0  0  0
 44 76  1  0  0  0  0
 45 48  1  0  0  0  0
 45 76  1  0  0  0  0
 46 79  1  0  0  0  0
 47 75  1  0  0  0  0
 48 74  1  0  0  0  0
 49 58  1  0  0  0  0
 50 67  1  0  0  0  0
 51 69  1  0  0  0  0
 52 70  1  0  0  0  0
 53 70  1  0  0  0  0
 54 71  1  0  0  0  0
 55 71  1  0  0  0  0
 56 71  1  0  0  0  0
 57 81  1  0  0  0  0
 59 60  1  0  0  0  0
 59 61  1  0  0  0  0
 60 62  1  0  0  0  0
 61 63  1  0  0  0  0
 62 66  1  0  0  0  0
 63 67  1  0  0  0  0
 64 65  1  0  0  0  0
 64 70  1  0  0  0  0
 65 73  1  0  0  0  0
 66 88  1  0  0  0  0
 68 71  1  0  0  0  0
 68 80  1  0  0  0  0
 69 81  1  0  0  0  0
 72 74  1  0  0  0  0
M  CHG  1  81   1
M  ISO  4  35 100  66 101  70 100  88 101
M  END
> <Batch ID>
0027

> <Smiles>
CCc1c(Cl)cn(CC[100C:0](C)(C)[100C:0](=O)N2CCCC(n3nc(-c4ccc(Oc5ccc(F)cc5F)cc4)c(C(N)=O)c3N)C2)c1C(C)CCCCC[101CH2:1][101O:1]c1ccc2c(c1)CN(C(=O)C(NC(=O)C(C)NC)C(C)(C)C)C(C(=O)NC1CCCc3ccccc31)C2

> <Shape>
0.300

> <Color>
0.075

> <Negative vol penalty>
0.000

$$$$

  -OEChem-04052316303D

 86 94  0     1  0  0  0  0  0999 V2000
  -46.9756  -10.4379   33.6004 C   0  0  0  0  0  0  0  0  0  0  0  0
  -45.6538  -10.7913   33.8522 C   0  0  0  0  0  0  0  0  0  0  0  0
  -23.1963   -9.8540   19.9553 C   0  0  0  0  0  0  0  0  0  0  0  0
  -23.9049   -9.9353   22.2637 C   0  0  0  0  0  0  0  0  0  0  0  0
  -47.5110  -10.6097   32.3245 C   0  0  0  0  0  0  0  0  0  0  0  0
  -44.8669  -11.3178   32.8284 C   0  0  0  0  0  0  0  0  0  0  0  0
  -38.8628  -10.4545   31.9849 C   0  0  0  0  0  0  0  0  0  0  0  0
  -22.5022   -8.6713   20.2101 C   0  0  0  0  0  0  0  0  0  0  0  0
  -23.2108   -8.7526   22.5184 C   0  0  0  0  0  0  0  0  0  0  0  0
  -37.7496  -11.2308   32.3041 C   0  0  0  0  0  0  0  0  0  0  0  0
  -19.5637   -7.7603   21.6131 C   0  0  0  0  0  0  0  0  0  0  0  0
  -18.2714   -7.6442   21.1015 C   0  0  0  0  0  0  0  0  0  0  0  0
  -37.7485  -12.1376   30.0687 C   0  0  0  0  0  0  0  0  0  0  0  0
  -31.3932  -15.7239   25.5937 C   0  0  0  0  0  0  0  0  0  0  0  0
  -32.6163  -14.7297   23.2918 C   0  0  0  0  0  0  0  0  0  0  0  0
  -18.9504   -5.7079   19.8260 C   0  0  0  0  0  0  0  0  0  0  0  0
  -23.8978  -10.4860   20.9821 C   0  0  0  0  0  0  0  0  0  0  0  0
  -24.1231  -13.0222   20.8245 C   0  0  0  0  0  0  0  0  0  0  0  0
  -46.7274  -11.1296   31.2822 C   0  0  0  0  0  0  0  0  0  0  0  0
  -39.4349  -10.5222   30.7064 C   0  0  0  0  0  0  0  0  0  0  0  0
  -45.3927  -11.4980   31.5378 C   0  0  0  0  0  0  0  0  0  0  0  0
  -38.8674  -11.3592   29.7350 C   0  0  0  0  0  0  0  0  0  0  0  0
  -32.7760  -15.5440   25.5609 C   0  0  0  0  0  0  0  0  0  0  0  0
  -30.6219  -15.4066   24.4756 C   0  0  0  0  0  0  0  0  0  0  0  0
  -33.3875  -15.0470   24.4100 C   0  0  0  0  0  0  0  0  0  0  0  0
  -31.2334  -14.9095   23.3247 C   0  0  0  0  0  0  0  0  0  0  0  0
  -22.5094   -8.1206   21.4916 C   0  0  0  0  0  0  0  0  0  0  0  0
  -37.1941  -12.0747   31.3468 C   0  0  0  0  0  0  0  0  0  0  0  0
  -20.5495   -6.8504   21.2311 C   0  0  0  0  0  0  0  0  0  0  0  0
  -17.9647   -6.6179   20.2079 C   0  0  0  0  0  0  0  0  0  0  0  0
  -20.2428   -5.8242   20.3376 C   0  0  0  0  0  0  0  0  0  0  0  0
  -24.6155  -11.7075   20.7195 C   0  0  0  0  0  0  0  0  0  0  0  0
  -25.1865  -13.8163   20.4710 C   0  0  0  0  0  0  0  0  0  0  0  0
  -22.8210  -13.4842   21.2075 C   0  0  0  0  0  0  0  0  0  0  0  0
  -42.2730  -11.3812   29.5614 C   0  0  0  0  0  0  0  0  0  0  0  0
  -41.0327  -10.3105   26.7618 C   0  0  0  0  0  0  0  0  0  0  0  0
  -38.2588   -9.6365   24.8915 C   0  0  0  0  0  0  0  0  0  0  0  0
  -30.9351  -14.0791   20.9651 C   0  0  0  0  0  0  0  0  0  0  0  0
  -47.3640  -11.3413   29.9315 C   0  0  0  0  0  0  0  0  0  0  0  0
  -40.6193   -9.6584   30.3697 C   0  0  0  0  0  0  0  0  0  0  0  0
  -39.4315  -11.4531   28.3417 C   0  0  0  0  0  0  0  0  0  0  0  0
  -46.3527  -11.5559   28.8083 C   0  0  0  0  0  0  0  0  0  0  0  0
  -29.3665  -13.1103   17.9191 C   0  0  0  0  0  0  0  0  0  0  0  0
  -45.2869  -12.5606   29.2344 C   0  0  0  0  0  0  0  0  0  0  0  0
  -27.9329  -12.7780   18.3392 C   0  0  0  0  0  0  0  0  0  0  0  0
  -30.3808  -12.6894   18.9810 C   0  0  0  0  0  0  0  0  0  0  0  0
  -28.6779  -12.8645   20.7527 C   0  0  0  0  0  0  0  0  0  0  0  0
  -44.5000  -12.0492   30.4472 C   0  0  1  0  0  0  0  0  0  0  0  0
  -41.4324  -10.1911   29.1939 C   0  0  1  0  0  0  0  0  0  0  0  0
  -27.6152  -13.3287   19.7433 C   0  0  2  0  0  0  0  0  0  0  0  0
  -29.1427  -15.6094   24.5387 C   0  0  0  0  0  0  0  0  0  0  0  0
  -34.8663  -14.8459   24.3518 C   0  0  0  0  0  0  0  0  0  0  0  0
  -37.5632   -8.8064   22.6278 C   0  0  0  0  0  0  0  0  0  0  0  0
  -41.7632  -13.0133   25.5489 C   0  0  0  0  0  0  0  0  0  0  0  0
  -40.2316  -12.4915   23.6383 C   0  0  0  0  0  0  0  0  0  0  0  0
  -42.2201  -11.0487   24.0704 C   0  0  0  0  0  0  0  0  0  0  0  0
  -35.2382  -15.0420   31.9136 C   0  0  0  0  0  0  0  0  0  0  0  0
  -37.3908  -14.5859   30.7060 C   0  0  0  0  0  0  0  0  0  0  0  0
  -36.8330   -7.3171   26.0519 C   0  0  0  0  0  0  0  0  0  0  0  0
  -33.5890  -15.8937   26.7819 C   0  0  0  0  0  0  0  0  0  0  0  0
  -33.9978  -14.6789   27.6228 C   0  0  0  0  0  0  0  0  0  0  0  0
  -34.8337  -15.0552   28.8525 C   0  0  0  0  0  0  0  0  0  0  0  0
  -35.1902  -13.8129   29.6746 C   0  0  0  0  0  0  0  0  0  0  0  0
  -40.2394  -10.9309   25.6372 C   0  0  1  0  0  0  0  0  0  0  0  0
  -37.8704   -8.4226   24.0669 C   0  0  2  0  0  0  0  0  0  0  0  0
  -41.1039  -11.8710   24.7505 C   0  0  0  0  0  0  0  0  0  0  0  0
  -35.9728  -14.0814   30.9763 C   0  0  0  0  0  0  0  0  0  1  0  0
  -25.8922  -11.6647   20.3296 N   0  0  0  0  0  0  0  0  0  0  0  0
  -26.2111  -12.9623   20.1864 N   0  0  0  0  0  0  0  0  0  0  0  0
  -40.5938  -10.5935   28.0630 N   0  0  0  0  0  0  0  0  0  0  0  0
  -30.0178  -13.2514   20.2838 N   0  0  0  0  0  0  0  0  0  0  0  0
  -25.3356  -15.1549   20.3788 N   0  0  0  0  0  0  0  0  0  0  0  0
  -21.8458  -12.5339   21.5396 N   0  0  0  0  0  0  0  0  0  0  0  0
  -30.4672  -14.5816   22.1788 N   0  0  0  0  0  0  0  0  0  0  0  0
  -43.5290  -11.0573   30.0378 N   0  0  0  0  0  0  0  0  0  0  0  0
  -39.6246   -9.8242   24.9122 N   0  0  0  0  0  0  0  0  0  0  0  0
  -36.6639   -7.7672   24.6463 N   0  3  0  0  0  0  0  0  0  0  0  0
  -22.5259  -14.7030   21.2381 O   0  0  0  0  0  0  0  0  0  0  0  0
  -41.8164  -12.5097   29.4214 O   0  0  0  0  0  0  0  0  0  0  0  0
  -42.0016   -9.5951   26.4953 O   0  0  0  0  0  0  0  0  0  0  0  0
  -37.4328  -10.3494   25.4573 O   0  0  0  0  0  0  0  0  0  0  0  0
  -32.0432  -14.3460   20.4928 O   0  0  0  0  0  0  0  0  0  0  0  0
  -21.8320   -6.9666   21.7406 O   0  0  0  0  0  0  0  0  0  0  0  0
  -36.1079  -12.8339   31.6559 O   0  0  0  0  0  0  0  0  0  1  0  0
  -16.7231   -6.5056   19.7179 F   0  0  0  0  0  0  0  0  0  0  0  0
  -21.1854   -4.9462   19.9678 F   0  0  0  0  0  0  0  0  0  0  0  0
  1  2  1  0  0  0  0
  1  5  2  0  0  0  0
  2  6  2  0  0  0  0
  3  8  2  0  0  0  0
  3 17  1  0  0  0  0
  4  9  1  0  0  0  0
  4 17  2  0  0  0  0
  5 19  1  0  0  0  0
  6 21  1  0  0  0  0
  7 10  2  0  0  0  0
  7 20  1  0  0  0  0
  8 27  1  0  0  0  0
  9 27  2  0  0  0  0
 10 28  1  0  0  0  0
 11 12  2  0  0  0  0
 11 29  1  0  0  0  0
 12 30  1  0  0  0  0
 13 22  1  0  0  0  0
 13 28  2  0  0  0  0
 14 23  1  0  0  0  0
 14 24  2  0  0  0  0
 15 25  1  0  0  0  0
 15 26  2  0  0  0  0
 16 30  2  0  0  0  0
 16 31  1  0  0  0  0
 17 32  1  0  0  0  0
 18 32  1  0  0  0  0
 18 33  2  0  0  0  0
 18 34  1  0  0  0  0
 19 21  2  0  0  0  0
 19 39  1  0  0  0  0
 20 22  2  0  0  0  0
 20 40  1  0  0  0  0
 21 48  1  0  0  0  0
 22 41  1  0  0  0  0
 23 25  2  0  0  0  0
 23 60  1  0  0  0  0
 24 26  1  0  0  0  0
 24 51  1  0  0  0  0
 25 52  1  0  0  0  0
 26 74  1  0  0  0  0
 27 83  1  0  0  0  0
 28 84  1  0  0  0  0
 29 31  2  0  0  0  0
 29 83  1  0  0  0  0
 30 85  1  0  0  0  0
 31 86  1  0  0  0  0
 32 68  2  0  0  0  0
 33 69  1  0  0  0  0
 33 72  1  0  0  0  0
 34 73  1  0  0  0  0
 34 78  2  0  0  0  0
 35 49  1  0  0  0  0
 35 75  1  0  0  0  0
 35 79  2  0  0  0  0
 36 64  1  0  0  0  0
 36 70  1  0  0  0  0
 36 80  2  0  0  0  0
 37 65  1  0  0  0  0
 37 76  1  0  0  0  0
 37 81  2  0  0  0  0
 38 71  1  0  0  0  0
 38 74  1  0  0  0  0
 38 82  2  0  0  0  0
 39 42  1  0  0  0  0
 40 49  1  0  0  0  0
 41 70  1  0  0  0  0
 42 44  1  0  0  0  0
 43 45  1  0  0  0  0
 43 46  1  0  0  0  0
 44 48  1  0  0  0  0
 45 50  1  0  0  0  0
 46 71  1  0  0  0  0
 47 50  1  0  0  0  0
 47 71  1  0  0  0  0
 48 75  1  0  0  0  0
 49 70  1  0  0  0  0
 50 69  1  0  0  0  0
 53 65  1  0  0  0  0
 54 66  1  0  0  0  0
 55 66  1  0  0  0  0
 56 66  1  0  0  0  0
 57 67  1  0  0  0  0
 58 67  1  0  0  0  0
 59 77  1  0  0  0  0
 60 61  1  0  0  0  0
 61 62  1  0  0  0  0
 62 63  1  0  0  0  0
 63 67  1  0  0  0  0
 64 66  1  0  0  0  0
 64 76  1  0  0  0  0
 65 77  1  0  0  0  0
 67 84  1  0  0  0  0
 68 69  1  0  0  0  0
M  CHG  1  77   1
M  ISO  4  38 100  67 101  74 100  84 101
M  END
> <Batch ID>
0027

> <Smiles>
CNC(C)C(=O)NC(C(=O)N1Cc2cc([101O:1][101C:1](C)(C)CCCCc3cc(C)c([100NH:0][100C:0](=O)N4CCCC(n5nc(-c6ccc(Oc7ccc(F)cc7F)cc6)c(C(N)=O)c5N)C4)cc3C)ccc2CC1C(=O)NC1CCCc2ccccc21)C(C)(C)C

> <Shape>
0.132

> <Color>
0.185

> <Negative vol penalty>
0.000

$$$$

  -OEChem-04052316303D

 84 93  0     1  0  0  0  0  0999 V2000
  -27.0932  -27.3231    8.3705 C   0  0  0  0  0  0  0  0  0  0  0  0
  -26.7362  -26.3030    9.2464 C   0  0  0  0  0  0  0  0  0  0  0  0
  -23.1328  -10.1838   22.0993 C   0  0  0  0  0  0  0  0  0  0  0  0
  -23.7880   -9.4661   19.8874 C   0  0  0  0  0  0  0  0  0  0  0  0
  -27.9369  -28.3463    8.8007 C   0  0  0  0  0  0  0  0  0  0  0  0
  -27.2236  -26.3049   10.5529 C   0  0  0  0  0  0  0  0  0  0  0  0
  -23.6372  -25.2409   13.9661 C   0  0  0  0  0  0  0  0  0  0  0  0
  -22.3902   -9.0138   22.2590 C   0  0  0  0  0  0  0  0  0  0  0  0
  -23.0455   -8.2961   20.0470 C   0  0  0  0  0  0  0  0  0  0  0  0
  -23.2734  -23.9029   14.1115 C   0  0  0  0  0  0  0  0  0  0  0  0
  -22.9837   -5.7682   22.9984 C   0  0  0  0  0  0  0  0  0  0  0  0
  -23.1037   -5.0843   24.2081 C   0  0  0  0  0  0  0  0  0  0  0  0
  -28.4424  -15.5602   15.9472 C   0  0  0  0  0  0  0  0  0  0  0  0
  -24.6678  -23.7432   16.0735 C   0  0  0  0  0  0  0  0  0  0  0  0
  -27.6027  -17.7190   17.5020 C   0  0  0  0  0  0  0  0  0  0  0  0
  -20.7363   -5.3637   24.6009 C   0  0  0  0  0  0  0  0  0  0  0  0
  -23.8316  -10.4099   20.9135 C   0  0  0  0  0  0  0  0  0  0  0  0
  -28.9502  -15.7315   17.2350 C   0  0  0  0  0  0  0  0  0  0  0  0
  -24.1192  -12.9416   20.7888 C   0  0  0  0  0  0  0  0  0  0  0  0
  -28.4272  -28.3660   10.1159 C   0  0  0  0  0  0  0  0  0  0  0  0
  -24.5290  -25.8382   14.8686 C   0  0  0  0  0  0  0  0  0  0  0  0
  -28.0758  -27.3286   11.0007 C   0  0  0  0  0  0  0  0  0  0  0  0
  -25.0393  -25.0897   15.9389 C   0  0  0  0  0  0  0  0  0  0  0  0
  -27.0949  -17.5477   16.2142 C   0  0  0  0  0  0  0  0  0  0  0  0
  -22.3466   -8.0700   21.2328 C   0  0  0  0  0  0  0  0  0  0  0  0
  -23.7910  -23.1530   15.1636 C   0  0  0  0  0  0  0  0  0  0  0  0
  -21.7400   -6.2500   22.5900 C   0  0  0  0  0  0  0  0  0  0  0  0
  -21.9800   -4.8819   25.0093 C   0  0  0  0  0  0  0  0  0  0  0  0
  -28.5304  -16.8109   18.0123 C   0  0  0  0  0  0  0  0  0  0  0  0
  -20.6163   -6.0477   23.3912 C   0  0  0  0  0  0  0  0  0  0  0  0
  -27.5148  -16.4683   15.4368 C   0  0  0  0  0  0  0  0  0  0  0  0
  -24.5984  -11.6185   20.7478 C   0  0  0  0  0  0  0  0  0  0  0  0
  -25.2332  -13.7169   20.5777 C   0  0  0  0  0  0  0  0  0  0  0  0
  -29.9247  -14.7715   17.7692 C   0  0  0  0  0  0  0  0  0  0  0  0
  -22.7864  -13.4265   20.9989 C   0  0  0  0  0  0  0  0  0  0  0  0
  -27.4073  -27.1659   14.6311 C   0  0  0  0  0  0  0  0  0  0  0  0
  -26.8969  -27.9006   17.7491 C   0  0  0  0  0  0  0  0  0  0  0  0
  -25.2740  -27.1879   20.6654 C   0  0  0  0  0  0  0  0  0  0  0  0
  -29.3744  -29.4675   10.5212 C   0  0  0  0  0  0  0  0  0  0  0  0
  -24.8906  -27.2899   14.7135 C   0  0  0  0  0  0  0  0  0  0  0  0
  -25.9843  -25.6895   16.9466 C   0  0  0  0  0  0  0  0  0  0  0  0
  -29.5467  -29.5972   12.0324 C   0  0  0  0  0  0  0  0  0  0  0  0
  -30.1426  -12.5041   20.5175 C   0  0  0  0  0  0  0  0  0  0  0  0
  -26.6939  -19.9713   15.6009 C   0  0  0  0  0  0  0  0  0  0  0  0
  -24.7992  -18.5655   16.5351 C   0  0  0  0  0  0  0  0  0  0  0  0
  -29.7708  -28.2268   12.6638 C   0  0  0  0  0  0  0  0  0  0  0  0
  -28.6816  -12.1628   20.8158 C   0  0  0  0  0  0  0  0  0  0  0  0
  -25.6766  -20.9786   15.0710 C   0  0  0  0  0  0  0  0  0  0  0  0
  -23.7918  -19.5797   15.9998 C   0  0  0  0  0  0  0  0  0  0  0  0
  -30.3838  -12.6905   19.0216 C   0  0  0  0  0  0  0  0  0  0  0  0
  -28.0238  -13.3327   18.6712 C   0  0  0  0  0  0  0  0  0  0  0  0
  -26.0891  -18.5592   15.6956 C   0  0  0  0  0  0  0  0  0  0  0  0
  -28.5642  -27.3091   12.4329 C   0  0  1  0  0  0  0  0  0  0  0  0
  -26.2073  -27.6536   15.3926 C   0  0  1  0  0  0  0  0  0  0  0  0
  -27.7272  -13.1865   20.1727 C   0  0  1  0  0  0  0  0  0  0  0  0
  -24.3959  -20.9786   15.9038 C   0  0  0  0  0  0  0  0  0  1  0  0
  -25.0910  -27.9399   23.0526 C   0  0  0  0  0  0  0  0  0  0  0  0
  -29.5714  -26.5700   18.3707 C   0  0  0  0  0  0  0  0  0  0  0  0
  -28.8970  -26.4994   20.7808 C   0  0  0  0  0  0  0  0  0  0  0  0
  -29.1473  -28.6938   19.6212 C   0  0  0  0  0  0  0  0  0  0  0  0
  -22.3981  -27.8200   20.3674 C   0  0  0  0  0  0  0  0  0  0  0  0
  -27.1711  -27.2175   19.0671 C   0  0  1  0  0  0  0  0  0  0  0  0
  -24.5285  -28.0750   21.6461 C   0  0  2  0  0  0  0  0  0  0  0  0
  -28.6804  -27.2330   19.4400 C   0  0  0  0  0  0  0  0  0  0  0  0
  -25.9142  -11.5532   20.5278 N   0  0  0  0  0  0  0  0  0  0  0  0
  -26.2713  -12.8450   20.4285 N   0  0  0  0  0  0  0  0  0  0  0  0
  -29.4415  -13.6591   18.4624 N   0  0  0  0  0  0  0  0  0  0  0  0
  -26.3127  -27.1109   16.7486 N   0  0  0  0  0  0  0  0  0  0  0  0
  -25.4161  -15.0525   20.5069 N   0  0  0  0  0  0  0  0  0  0  0  0
  -21.7600  -12.4935   21.2001 N   0  0  0  0  0  0  0  0  0  0  0  0
  -27.4889  -27.6503   13.3395 N   0  0  0  0  0  0  0  0  0  0  0  0
  -26.3063  -27.8629   20.0490 N   0  0  0  0  0  0  0  0  0  0  0  0
  -23.0841  -27.7097   21.6805 N   0  3  0  0  0  0  0  0  0  0  0  0
  -31.1102  -15.0334   17.5712 O   0  0  0  0  0  0  0  0  0  0  0  0
  -22.5110  -14.6502   20.9918 O   0  0  0  0  0  0  0  0  0  0  0  0
  -28.2011  -26.4075   15.1755 O   0  0  0  0  0  0  0  0  0  0  0  0
  -27.1837  -29.0927   17.6146 O   0  0  0  0  0  0  0  0  0  0  0  0
  -24.9731  -26.0126   20.4688 O   0  0  0  0  0  0  0  0  0  0  0  0
  -21.6223   -6.9282   21.3883 O   0  0  0  0  0  0  0  0  0  0  0  0
  -23.4381  -21.8466   15.3074 O   0  0  0  0  0  0  0  0  0  1  0  0
  -22.0951   -4.2238   26.1702 F   0  0  0  0  0  0  0  0  0  0  0  0
  -29.0104  -16.9841   19.2521 F   0  0  0  0  0  0  0  0  0  0  0  0
  -19.4186   -6.5071   23.0036 F   0  0  0  0  0  0  0  0  0  0  0  0
  -26.9103  -16.2261   13.8383 Cl  0  0  0  0  0  0  0  0  0  0  0  0
  1  2  1  0  0  0  0
  1  5  2  0  0  0  0
  2  6  2  0  0  0  0
  3  8  2  0  0  0  0
  3 17  1  0  0  0  0
  4  9  1  0  0  0  0
  4 17  2  0  0  0  0
  5 20  1  0  0  0  0
  6 22  1  0  0  0  0
  7 10  2  0  0  0  0
  7 21  1  0  0  0  0
  8 25  1  0  0  0  0
  9 25  2  0  0  0  0
 10 26  1  0  0  0  0
 11 12  2  0  0  0  0
 11 27  1  0  0  0  0
 12 28  1  0  0  0  0
 13 18  2  0  0  0  0
 13 31  1  0  0  0  0
 14 23  1  0  0  0  0
 14 26  2  0  0  0  0
 15 24  1  0  0  0  0
 15 29  2  0  0  0  0
 16 28  2  0  0  0  0
 16 30  1  0  0  0  0
 17 32  1  0  0  0  0
 18 29  1  0  0  0  0
 18 34  1  0  0  0  0
 19 32  1  0  0  0  0
 19 33  2  0  0  0  0
 19 35  1  0  0  0  0
 20 22  2  0  0  0  0
 20 39  1  0  0  0  0
 21 23  2  0  0  0  0
 21 40  1  0  0  0  0
 22 53  1  0  0  0  0
 23 41  1  0  0  0  0
 24 31  2  0  0  0  0
 24 52  1  0  0  0  0
 25 79  1  0  0  0  0
 26 80  1  0  0  0  0
 27 30  2  0  0  0  0
 27 79  1  0  0  0  0
 28 81  1  0  0  0  0
 29 82  1  0  0  0  0
 30 83  1  0  0  0  0
 31 84  1  0  0  0  0
 32 65  2  0  0  0  0
 33 66  1  0  0  0  0
 33 69  1  0  0  0  0
 34 67  1  0  0  0  0
 34 74  2  0  0  0  0
 35 70  1  0  0  0  0
 35 75  2  0  0  0  0
 36 54  1  0  0  0  0
 36 71  1  0  0  0  0
 36 76  2  0  0  0  0
 37 62  1  0  0  0  0
 37 68  1  0  0  0  0
 37 77  2  0  0  0  0
 38 63  1  0  0  0  0
 38 72  1  0  0  0  0
 38 78  2  0  0  0  0
 39 42  1  0  0  0  0
 40 54  1  0  0  0  0
 41 68  1  0  0  0  0
 42 46  1  0  0  0  0
 43 47  1  0  0  0  0
 43 50  1  0  0  0  0
 44 48  1  0  0  0  0
 44 52  1  0  0  0  0
 45 49  1  0  0  0  0
 45 52  1  0  0  0  0
 46 53  1  0  0  0  0
 47 55  1  0  0  0  0
 48 56  1  0  0  0  0
 49 56  1  0  0  0  0
 50 67  1  0  0  0  0
 51 55  1  0  0  0  0
 51 67  1  0  0  0  0
 53 71  1  0  0  0  0
 54 68  1  0  0  0  0
 55 66  1  0  0  0  0
 56 80  1  0  0  0  0
 57 63  1  0  0  0  0
 58 64  1  0  0  0  0
 59 64  1  0  0  0  0
 60 64  1  0  0  0  0
 61 73  1  0  0  0  0
 62 64  1  0  0  0  0
 62 72  1  0  0  0  0
 63 73  1  0  0  0  0
 65 66  1  0  0  0  0
M  CHG  1  73   1
M  ISO  4  18 100  34 100  56 101  80 101
M  END
> <Batch ID>
0027

> <Smiles>
CNC(C)C(=O)NC(C(=O)N1Cc2cc([101O:1][101CH:1]3CCC(c4cc(F)[100c:0]([100C:0](=O)N5CCCC(n6nc(-c7ccc(Oc8ccc(F)cc8F)cc7)c(C(N)=O)c6N)C5)cc4Cl)CC3)ccc2CC1C(=O)NC1CCCc2ccccc21)C(C)(C)C

> <Shape>
0.190

> <Color>
0.199

> <Negative vol penalty>
0.000

$$$$

  -OEChem-04052316303D

 85 93  0     1  0  0  0  0  0999 V2000
  -27.6547  -22.9185   15.7817 C   0  0  0  0  0  0  0  0  0  0  0  0
  -27.4174  -22.5650   17.1062 C   0  0  0  0  0  0  0  0  0  0  0  0
  -23.0024   -9.8885   19.9868 C   0  0  0  0  0  0  0  0  0  0  0  0
  -23.7247   -9.9537   22.2913 C   0  0  0  0  0  0  0  0  0  0  0  0
  -28.6426  -23.8541   15.4775 C   0  0  0  0  0  0  0  0  0  0  0  0
  -28.1687  -23.1460   18.1271 C   0  0  0  0  0  0  0  0  0  0  0  0
  -25.3167  -24.6047   22.0492 C   0  0  0  0  0  0  0  0  0  0  0  0
  -22.2372   -8.7544   20.2586 C   0  0  0  0  0  0  0  0  0  0  0  0
  -22.9595   -8.8196   22.5632 C   0  0  0  0  0  0  0  0  0  0  0  0
  -24.8953  -23.6129   22.9337 C   0  0  0  0  0  0  0  0  0  0  0  0
  -23.2093   -5.4784   22.1105 C   0  0  0  0  0  0  0  0  0  0  0  0
  -23.7974   -4.4663   22.8691 C   0  0  0  0  0  0  0  0  0  0  0  0
  -26.6573  -24.2336   24.4599 C   0  0  0  0  0  0  0  0  0  0  0  0
  -27.5626  -17.8127   22.5680 C   0  0  0  0  0  0  0  0  0  0  0  0
  -27.8395  -20.3732   23.6403 C   0  0  0  0  0  0  0  0  0  0  0  0
  -22.0711   -4.7162   24.5408 C   0  0  0  0  0  0  0  0  0  0  0  0
  -23.7462  -10.4881   21.0031 C   0  0  0  0  0  0  0  0  0  0  0  0
  -24.1280  -13.0033   20.8133 C   0  0  0  0  0  0  0  0  0  0  0  0
  -29.3999  -24.4541   16.4959 C   0  0  0  0  0  0  0  0  0  0  0  0
  -26.4203  -25.4126   22.3591 C   0  0  0  0  0  0  0  0  0  0  0  0
  -29.1687  -24.0895   17.8361 C   0  0  0  0  0  0  0  0  0  0  0  0
  -27.0892  -25.2367   23.5788 C   0  0  0  0  0  0  0  0  0  0  0  0
  -26.8896  -18.1540   23.7411 C   0  0  0  0  0  0  0  0  0  0  0  0
  -28.3741  -18.7515   21.9311 C   0  0  0  0  0  0  0  0  0  0  0  0
  -27.0280  -19.4343   24.2773 C   0  0  0  0  0  0  0  0  0  0  0  0
  -22.2157   -8.2199   21.5468 C   0  0  0  0  0  0  0  0  0  0  0  0
  -25.5674  -23.4252   24.1380 C   0  0  0  0  0  0  0  0  0  0  0  0
  -22.0521   -6.1094   22.5671 C   0  0  0  0  0  0  0  0  0  0  0  0
  -23.2284   -4.0852   24.0842 C   0  0  0  0  0  0  0  0  0  0  0  0
  -21.4830   -5.7283   23.7823 C   0  0  0  0  0  0  0  0  0  0  0  0
  -28.5125  -20.0318   22.4673 C   0  0  0  0  0  0  0  0  0  0  0  0
  -24.5372  -11.6593   20.7228 C   0  0  0  0  0  0  0  0  0  0  0  0
  -25.2371  -13.7254   20.4462 C   0  0  0  0  0  0  0  0  0  0  0  0
  -22.8587  -13.5500   21.1952 C   0  0  0  0  0  0  0  0  0  0  0  0
  -29.2724  -25.9131   21.0480 C   0  0  0  0  0  0  0  0  0  0  0  0
  -29.4874  -28.2059   23.3326 C   0  0  0  0  0  0  0  0  0  0  0  0
  -28.4699  -29.3681   26.3757 C   0  0  0  0  0  0  0  0  0  0  0  0
  -30.7318  -14.6696   20.6961 C   0  0  0  0  0  0  0  0  0  0  0  0
  -30.4891  -25.4251   16.1146 C   0  0  0  0  0  0  0  0  0  0  0  0
  -26.8458  -26.4958   21.4062 C   0  0  0  0  0  0  0  0  0  0  0  0
  -28.2671  -26.0910   23.9676 C   0  0  0  0  0  0  0  0  0  0  0  0
  -30.9859  -26.2727   17.2829 C   0  0  0  0  0  0  0  0  0  0  0  0
  -29.5975  -12.2310   18.3630 C   0  0  0  0  0  0  0  0  0  0  0  0
  -31.2378  -25.3987   18.5074 C   0  0  0  0  0  0  0  0  0  0  0  0
  -28.1489  -11.9714   18.7803 C   0  0  0  0  0  0  0  0  0  0  0  0
  -30.4981  -12.4745   19.5720 C   0  0  0  0  0  0  0  0  0  0  0  0
  -28.5852  -13.2748   20.9039 C   0  0  0  0  0  0  0  0  0  0  0  0
  -29.9459  -24.7163   18.9732 C   0  0  1  0  0  0  0  0  0  0  0  0
  -28.2993  -26.9195   21.5938 C   0  0  1  0  0  0  0  0  0  0  0  0
  -27.6279  -13.0790   19.7158 C   0  0  2  0  0  0  0  0  0  0  0  0
  -26.0278  -17.1324   24.4076 C   0  0  0  0  0  0  0  0  0  0  0  0
  -28.8509  -31.2473   27.9946 C   0  0  0  0  0  0  0  0  0  0  0  0
  -32.1286  -26.9357   24.1817 C   0  0  0  0  0  0  0  0  0  0  0  0
  -31.9754  -28.2179   26.3267 C   0  0  0  0  0  0  0  0  0  0  0  0
  -32.1344  -29.4364   24.1559 C   0  0  0  0  0  0  0  0  0  0  0  0
  -25.6500  -30.2484   26.1967 C   0  0  0  0  0  0  0  0  0  0  0  0
  -29.0782  -18.3463   20.6765 C   0  0  0  0  0  0  0  0  0  0  0  0
  -26.3124  -19.8250   25.5457 C   0  0  0  0  0  0  0  0  0  0  0  0
  -30.5625  -17.9839   20.8702 C   0  0  0  0  0  0  0  0  0  0  0  0
  -24.8213  -20.1074   25.3497 C   0  0  0  0  0  0  0  0  0  0  0  0
  -30.8098  -16.8553   21.8689 C   0  0  0  0  0  0  0  0  0  0  0  0
  -24.5470  -21.2982   24.4384 C   0  0  0  0  0  0  0  0  0  1  0  0
  -29.9834  -28.2519   24.7577 C   0  0  1  0  0  0  0  0  0  0  0  0
  -28.0153  -30.7441   26.8278 C   0  0  2  0  0  0  0  0  0  0  0  0
  -31.5345  -28.1929   24.8476 C   0  0  0  0  0  0  0  0  0  0  0  0
  -25.8072  -11.5325   20.3289 N   0  0  0  0  0  0  0  0  0  0  0  0
  -26.2055  -12.8060   20.1685 N   0  0  0  0  0  0  0  0  0  0  0  0
  -28.6490  -27.1326   22.9998 N   0  0  0  0  0  0  0  0  0  0  0  0
  -29.9487  -13.5372   20.4174 N   0  0  0  0  0  0  0  0  0  0  0  0
  -25.4687  -15.0509   20.3369 N   0  0  0  0  0  0  0  0  0  0  0  0
  -21.8278  -12.6662   21.5425 N   0  0  0  0  0  0  0  0  0  0  0  0
  -29.1144  -25.6512   19.7005 N   0  0  0  0  0  0  0  0  0  0  0  0
  -29.3951  -29.4453   25.3562 N   0  0  0  0  0  0  0  0  0  0  0  0
  -30.1330  -15.6320   21.4997 N   0  0  0  0  0  0  0  0  0  0  0  0
  -26.5881  -30.7037   27.2548 N   0  3  0  0  0  0  0  0  0  0  0  0
  -22.6402  -14.7851   21.2117 O   0  0  0  0  0  0  0  0  0  0  0  0
  -30.1058  -25.4124   21.7939 O   0  0  0  0  0  0  0  0  0  0  0  0
  -29.8256  -29.0936   22.5456 O   0  0  0  0  0  0  0  0  0  0  0  0
  -28.0493  -28.3288   26.8793 O   0  0  0  0  0  0  0  0  0  0  0  0
  -31.8775  -14.8147   20.2565 O   0  0  0  0  0  0  0  0  0  0  0  0
  -21.4690   -7.1134   21.8125 O   0  0  0  0  0  0  0  0  0  0  0  0
  -25.1585  -22.4574   25.0028 O   0  0  0  0  0  0  0  0  0  1  0  0
  -23.7924   -3.1122   24.8119 F   0  0  0  0  0  0  0  0  0  0  0  0
  -20.3707   -6.3300   24.2255 F   0  0  0  0  0  0  0  0  0  0  0  0
  -29.5080  -21.2196   21.7073 Cl  0  0  0  0  0  0  0  0  0  0  0  0
  1  2  1  0  0  0  0
  1  5  2  0  0  0  0
  2  6  2  0  0  0  0
  3  8  2  0  0  0  0
  3 17  1  0  0  0  0
  4  9  1  0  0  0  0
  4 17  2  0  0  0  0
  5 19  1  0  0  0  0
  6 21  1  0  0  0  0
  7 10  2  0  0  0  0
  7 20  1  0  0  0  0
  8 26  1  0  0  0  0
  9 26  2  0  0  0  0
 10 27  1  0  0  0  0
 11 12  2  0  0  0  0
 11 28  1  0  0  0  0
 12 29  1  0  0  0  0
 13 22  1  0  0  0  0
 13 27  2  0  0  0  0
 14 23  1  0  0  0  0
 14 24  2  0  0  0  0
 15 25  1  0  0  0  0
 15 31  2  0  0  0  0
 16 29  2  0  0  0  0
 16 30  1  0  0  0  0
 17 32  1  0  0  0  0
 18 32  1  0  0  0  0
 18 33  2  0  0  0  0
 18 34  1  0  0  0  0
 19 21  2  0  0  0  0
 19 39  1  0  0  0  0
 20 22  2  0  0  0  0
 20 40  1  0  0  0  0
 21 48  1  0  0  0  0
 22 41  1  0  0  0  0
 23 25  2  0  0  0  0
 23 51  1  0  0  0  0
 24 31  1  0  0  0  0
 24 57  1  0  0  0  0
 25 58  1  0  0  0  0
 26 81  1  0  0  0  0
 27 82  1  0  0  0  0
 28 30  2  0  0  0  0
 28 81  1  0  0  0  0
 29 83  1  0  0  0  0
 30 84  1  0  0  0  0
 31 85  1  0  0  0  0
 32 66  2  0  0  0  0
 33 67  1  0  0  0  0
 33 70  1  0  0  0  0
 34 71  1  0  0  0  0
 34 76  2  0  0  0  0
 35 49  1  0  0  0  0
 35 72  1  0  0  0  0
 35 77  2  0  0  0  0
 36 63  1  0  0  0  0
 36 68  1  0  0  0  0
 36 78  2  0  0  0  0
 37 64  1  0  0  0  0
 37 73  1  0  0  0  0
 37 79  2  0  0  0  0
 38 69  1  0  0  0  0
 38 74  1  0  0  0  0
 38 80  2  0  0  0  0
 39 42  1  0  0  0  0
 40 49  1  0  0  0  0
 41 68  1  0  0  0  0
 42 44  1  0  0  0  0
 43 45  1  0  0  0  0
 43 46  1  0  0  0  0
 44 48  1  0  0  0  0
 45 50  1  0  0  0  0
 46 69  1  0  0  0  0
 47 50  1  0  0  0  0
 47 69  1  0  0  0  0
 48 72  1  0  0  0  0
 49 68  1  0  0  0  0
 50 67  1  0  0  0  0
 52 64  1  0  0  0  0
 53 65  1  0  0  0  0
 54 65  1  0  0  0  0
 55 65  1  0  0  0  0
 56 75  1  0  0  0  0
 57 59  1  0  0  0  0
 58 60  1  0  0  0  0
 59 61  1  0  0  0  0
 60 62  1  0  0  0  0
 61 74  1  0  0  0  0
 62 82  1  0  0  0  0
 63 65  1  0  0  0  0
 63 73  1  0  0  0  0
 64 75  1  0  0  0  0
 66 67  1  0  0  0  0
M  CHG  1  75   1
M  ISO  4  38 100  62 101  74 100  82 101
M  END
> <Batch ID>
0027

> <Smiles>
CNC(C)C(=O)NC(C(=O)N1Cc2cc([101O:1][101CH2:1]CCc3cc(Cl)c(CCC[100NH:0][100C:0](=O)N4CCCC(n5nc(-c6ccc(Oc7ccc(F)cc7F)cc6)c(C(N)=O)c5N)C4)cc3C)ccc2CC1C(=O)NC1CCCc2ccccc21)C(C)(C)C

> <Shape>
0.261

> <Color>
0.206

> <Negative vol penalty>
0.000

$$$$

  -OEChem-04052316303D

 86 94  0     1  0  0  0  0  0999 V2000
  -16.7603  -29.8467   24.2791 C   0  0  0  0  0  0  0  0  0  0  0  0
  -17.9314  -30.3245   24.8585 C   0  0  0  0  0  0  0  0  0  0  0  0
  -25.4849  -17.6354   22.3335 C   0  0  0  0  0  0  0  0  0  0  0  0
  -27.7043  -17.5018   21.3883 C   0  0  0  0  0  0  0  0  0  0  0  0
  -16.8238  -28.8751   23.2811 C   0  0  0  0  0  0  0  0  0  0  0  0
  -19.1666  -29.8301   24.4411 C   0  0  0  0  0  0  0  0  0  0  0  0
  -25.9749  -31.8631   23.5303 C   0  0  0  0  0  0  0  0  0  0  0  0
  -25.1429  -16.4410   21.6994 C   0  0  0  0  0  0  0  0  0  0  0  0
  -27.3623  -16.3074   20.7541 C   0  0  0  0  0  0  0  0  0  0  0  0
  -27.2694  -31.4788   23.8773 C   0  0  0  0  0  0  0  0  0  0  0  0
  -27.1869  -13.0360   19.1777 C   0  0  0  0  0  0  0  0  0  0  0  0
  -28.1007  -11.9839   19.2384 C   0  0  0  0  0  0  0  0  0  0  0  0
  -27.2612  -29.8589   22.0898 C   0  0  0  0  0  0  0  0  0  0  0  0
  -31.6332  -27.3737   20.5919 C   0  0  0  0  0  0  0  0  0  0  0  0
  -33.3640  -27.1929   22.2676 C   0  0  0  0  0  0  0  0  0  0  0  0
  -27.9524  -11.9944   21.6499 C   0  0  0  0  0  0  0  0  0  0  0  0
  -26.7656  -18.1658   22.1779 C   0  0  0  0  0  0  0  0  0  0  0  0
  -27.6756  -19.5520   24.1165 C   0  0  0  0  0  0  0  0  0  0  0  0
  -18.0609  -28.3756   22.8445 C   0  0  0  0  0  0  0  0  0  0  0  0
  -25.3087  -31.2396   22.4655 C   0  0  0  0  0  0  0  0  0  0  0  0
  -19.2466  -28.8499   23.4373 C   0  0  0  0  0  0  0  0  0  0  0  0
  -25.9593  -30.2389   21.7297 C   0  0  0  0  0  0  0  0  0  0  0  0
  -32.4835  -27.9747   21.5200 C   0  0  0  0  0  0  0  0  0  0  0  0
  -31.6633  -25.9909   20.4115 C   0  0  0  0  0  0  0  0  0  0  0  0
  -33.3942  -25.8100   22.0872 C   0  0  0  0  0  0  0  0  0  0  0  0
  -26.0816  -15.7770   20.9097 C   0  0  0  0  0  0  0  0  0  0  0  0
  -27.9116  -30.4745   23.1589 C   0  0  0  0  0  0  0  0  0  0  0  0
  -26.6560  -13.5674   20.3530 C   0  0  0  0  0  0  0  0  0  0  0  0
  -28.4834  -11.4630   20.4745 C   0  0  0  0  0  0  0  0  0  0  0  0
  -27.0387  -13.0465   21.5891 C   0  0  0  0  0  0  0  0  0  0  0  0
  -32.5438  -25.2090   21.1591 C   0  0  0  0  0  0  0  0  0  0  0  0
  -27.1193  -19.3998   22.8323 C   0  0  0  0  0  0  0  0  0  0  0  0
  -27.8228  -20.9091   24.2682 C   0  0  0  0  0  0  0  0  0  0  0  0
  -28.0279  -18.5557   25.0855 C   0  0  0  0  0  0  0  0  0  0  0  0
  -22.6607  -29.5039   22.1847 C   0  0  0  0  0  0  0  0  0  0  0  0
  -23.3126  -29.7330   19.0153 C   0  0  0  0  0  0  0  0  0  0  0  0
  -25.6353  -30.2216   16.5632 C   0  0  0  0  0  0  0  0  0  0  0  0
  -28.4441  -25.4051   20.3630 C   0  0  0  0  0  0  0  0  0  0  0  0
  -18.0768  -27.2915   21.7960 C   0  0  0  0  0  0  0  0  0  0  0  0
  -23.9226  -31.6842   22.0868 C   0  0  0  0  0  0  0  0  0  0  0  0
  -25.2953  -29.5524   20.5651 C   0  0  0  0  0  0  0  0  0  0  0  0
  -19.4441  -27.0915   21.1474 C   0  0  0  0  0  0  0  0  0  0  0  0
  -25.9200  -25.0637   22.8507 C   0  0  0  0  0  0  0  0  0  0  0  0
  -20.5368  -27.0400   22.2105 C   0  0  0  0  0  0  0  0  0  0  0  0
  -25.9913  -23.5872   23.2439 C   0  0  0  0  0  0  0  0  0  0  0  0
  -26.1806  -25.2638   21.3593 C   0  0  0  0  0  0  0  0  0  0  0  0
  -27.5052  -23.1881   21.2570 C   0  0  0  0  0  0  0  0  0  0  0  0
  -20.6067  -28.3563   22.9941 C   0  0  1  0  0  0  0  0  0  0  0  0
  -23.1466  -30.6250   21.3102 C   0  0  1  0  0  0  0  0  0  0  0  0
  -27.3043  -22.9414   22.7621 C   0  0  2  0  0  0  0  0  0  0  0  0
  -25.8746  -30.3153   14.0669 C   0  0  0  0  0  0  0  0  0  0  0  0
  -23.1370  -26.6896   18.8867 C   0  0  0  0  0  0  0  0  0  0  0  0
  -24.2936  -26.7862   16.6683 C   0  0  0  0  0  0  0  0  0  0  0  0
  -22.0702  -27.8783   16.9623 C   0  0  0  0  0  0  0  0  0  0  0  0
  -26.5691  -33.0289   16.6418 C   0  0  0  0  0  0  0  0  0  0  0  0
  -32.4509  -29.4695   21.7149 C   0  0  0  0  0  0  0  0  0  0  0  0
  -30.7340  -25.3902   19.4061 C   0  0  0  0  0  0  0  0  0  0  0  0
  -31.4609  -29.9294   22.7873 C   0  0  0  0  0  0  0  0  0  0  0  0
  -30.0098  -29.6117   22.4454 C   0  0  0  0  0  0  0  0  0  1  0  0
  -24.1132  -28.9198   18.0270 C   0  0  1  0  0  0  0  0  0  0  0  0
  -25.6324  -31.1163   15.3368 C   0  0  2  0  0  0  0  0  0  0  0  0
  -34.3538  -25.0119   22.9103 C   0  0  0  0  0  0  0  0  0  0  0  0
  -23.4156  -27.5799   17.6592 C   0  0  0  0  0  0  0  0  0  0  0  0
  -26.9261  -20.5671   22.2124 N   0  0  0  0  0  0  0  0  0  0  0  0
  -27.3633  -21.4657   23.1110 N   0  0  0  0  0  0  0  0  0  0  0  0
  -23.9375  -30.0179   20.2377 N   0  0  0  0  0  0  0  0  0  0  0  0
  -27.4413  -24.6292   20.9674 N   0  0  0  0  0  0  0  0  0  0  0  0
  -28.2992  -21.6688   25.2774 N   0  0  0  0  0  0  0  0  0  0  0  0
  -27.8105  -17.2081   24.7675 N   0  0  0  0  0  0  0  0  0  0  0  0
  -21.2856  -29.3713   22.2174 N   0  0  0  0  0  0  0  0  0  0  0  0
  -24.3648  -29.7950   16.8872 N   0  0  0  0  0  0  0  0  0  0  0  0
  -29.6099  -24.7270   20.0286 N   0  0  0  0  0  0  0  0  0  0  0  0
  -26.6974  -32.1526   15.4490 N   0  3  0  0  0  0  0  0  0  0  0  0
  -28.5055  -18.8526   26.2067 O   0  0  0  0  0  0  0  0  0  0  0  0
  -23.4732  -28.8095   22.7841 O   0  0  0  0  0  0  0  0  0  0  0  0
  -22.1775  -30.1080   18.7111 O   0  0  0  0  0  0  0  0  0  0  0  0
  -26.6625  -29.9274   17.1706 O   0  0  0  0  0  0  0  0  0  0  0  0
  -28.3125  -26.6139   20.1428 O   0  0  0  0  0  0  0  0  0  0  0  0
  -25.7483  -14.6114   20.2910 O   0  0  0  0  0  0  0  0  0  0  0  0
  -29.1749  -30.0970   23.4960 O   0  0  0  0  0  0  0  0  0  1  0  0
  -29.3597  -10.4516   20.5326 F   0  0  0  0  0  0  0  0  0  0  0  0
  -26.5311  -13.5521   22.7216 F   0  0  0  0  0  0  0  0  0  0  0  0
  -35.1020  -25.7712   23.7621 F   0  0  0  0  0  0  0  0  0  0  0  0
  -33.7469  -24.0790   23.6997 F   0  0  0  0  0  0  0  0  0  0  0  0
  -35.2490  -24.3234   22.1463 F   0  0  0  0  0  0  0  0  0  0  0  0
  -32.5811  -23.4922   20.9353 Cl  0  0  0  0  0  0  0  0  0  0  0  0
  1  2  1  0  0  0  0
  1  5  2  0  0  0  0
  2  6  2  0  0  0  0
  3  8  2  0  0  0  0
  3 17  1  0  0  0  0
  4  9  1  0  0  0  0
  4 17  2  0  0  0  0
  5 19  1  0  0  0  0
  6 21  1  0  0  0  0
  7 10  2  0  0  0  0
  7 20  1  0  0  0  0
  8 26  1  0  0  0  0
  9 26  2  0  0  0  0
 10 27  1  0  0  0  0
 11 12  2  0  0  0  0
 11 28  1  0  0  0  0
 12 29  1  0  0  0  0
 13 22  1  0  0  0  0
 13 27  2  0  0  0  0
 14 23  1  0  0  0  0
 14 24  2  0  0  0  0
 15 23  2  0  0  0  0
 15 25  1  0  0  0  0
 16 29  2  0  0  0  0
 16 30  1  0  0  0  0
 17 32  1  0  0  0  0
 18 32  1  0  0  0  0
 18 33  2  0  0  0  0
 18 34  1  0  0  0  0
 19 21  2  0  0  0  0
 19 39  1  0  0  0  0
 20 22  2  0  0  0  0
 20 40  1  0  0  0  0
 21 48  1  0  0  0  0
 22 41  1  0  0  0  0
 23 56  1  0  0  0  0
 24 31  1  0  0  0  0
 24 57  1  0  0  0  0
 25 31  2  0  0  0  0
 25 62  1  0  0  0  0
 26 79  1  0  0  0  0
 27 80  1  0  0  0  0
 28 30  2  0  0  0  0
 28 79  1  0  0  0  0
 29 81  1  0  0  0  0
 30 82  1  0  0  0  0
 31 86  1  0  0  0  0
 32 64  2  0  0  0  0
 33 65  1  0  0  0  0
 33 68  1  0  0  0  0
 34 69  1  0  0  0  0
 34 74  2  0  0  0  0
 35 49  1  0  0  0  0
 35 70  1  0  0  0  0
 35 75  2  0  0  0  0
 36 60  1  0  0  0  0
 36 66  1  0  0  0  0
 36 76  2  0  0  0  0
 37 61  1  0  0  0  0
 37 71  1  0  0  0  0
 37 77  2  0  0  0  0
 38 67  1  0  0  0  0
 38 72  1  0  0  0  0
 38 78  2  0  0  0  0
 39 42  1  0  0  0  0
 40 49  1  0  0  0  0
 41 66  1  0  0  0  0
 42 44  1  0  0  0  0
 43 45  1  0  0  0  0
 43 46  1  0  0  0  0
 44 48  1  0  0  0  0
 45 50  1  0  0  0  0
 46 67  1  0  0  0  0
 47 50  1  0  0  0  0
 47 67  1  0  0  0  0
 48 70  1  0  0  0  0
 49 66  1  0  0  0  0
 50 65  1  0  0  0  0
 51 61  1  0  0  0  0
 52 63  1  0  0  0  0
 53 63  1  0  0  0  0
 54 63  1  0  0  0  0
 55 73  1  0  0  0  0
 56 58  1  0  0  0  0
 57 72  1  0  0  0  0
 58 59  1  0  0  0  0
 59 80  1  0  0  0  0
 60 63  1  0  0  0  0
 60 71  1  0  0  0  0
 61 73  1  0  0  0  0
 62 83  1  0  0  0  0
 62 84  1  0  0  0  0
 62 85  1  0  0  0  0
 64 65  1  0  0  0  0
M  CHG  1  73   1
M  ISO  4  38 100  59 101  72 100  80 101
M  END
> <Batch ID>
0027

> <Smiles>
CNC(C)C(=O)NC(C(=O)N1Cc2cc([101O:1][101CH2:1]CCc3cc(C[100NH:0][100C:0](=O)N4CCCC(n5nc(-c6ccc(Oc7ccc(F)cc7F)cc6)c(C(N)=O)c5N)C4)c(Cl)c(C(F)(F)F)c3)ccc2CC1C(=O)NC1CCCc2ccccc21)C(C)(C)C

> <Shape>
0.229

> <Color>
0.121

> <Negative vol penalty>
0.000

$$$$

  -OEChem-04052316303D

 91100  0     1  0  0  0  0  0999 V2000
  -20.3168  -24.9389   19.4130 C   0  0  0  0  0  0  0  0  0  0  0  0
  -21.2717  -24.8059   20.4159 C   0  0  0  0  0  0  0  0  0  0  0  0
  -22.5463  -10.3130   20.7371 C   0  0  0  0  0  0  0  0  0  0  0  0
  -24.4343   -9.0878   21.6156 C   0  0  0  0  0  0  0  0  0  0  0  0
  -20.2250  -26.1293   18.6930 C   0  0  0  0  0  0  0  0  0  0  0  0
  -22.1362  -25.8629   20.6986 C   0  0  0  0  0  0  0  0  0  0  0  0
  -22.6379  -26.6859   25.6701 C   0  0  0  0  0  0  0  0  0  0  0  0
  -21.7835   -9.1453   20.7481 C   0  0  0  0  0  0  0  0  0  0  0  0
  -23.6714   -7.9201   21.6266 C   0  0  0  0  0  0  0  0  0  0  0  0
  -23.4737  -25.8227   26.3772 C   0  0  0  0  0  0  0  0  0  0  0  0
  -21.2884   -6.5220   23.5725 C   0  0  0  0  0  0  0  0  0  0  0  0
  -21.3545   -5.7172   24.7098 C   0  0  0  0  0  0  0  0  0  0  0  0
  -25.2317  -27.4728   26.3020 C   0  0  0  0  0  0  0  0  0  0  0  0
  -22.1785   -3.8861   23.3662 C   0  0  0  0  0  0  0  0  0  0  0  0
  -23.8718  -10.2843   21.1708 C   0  0  0  0  0  0  0  0  0  0  0  0
  -24.3958  -12.6858   21.8534 C   0  0  0  0  0  0  0  0  0  0  0  0
  -21.0824  -27.2048   18.9735 C   0  0  0  0  0  0  0  0  0  0  0  0
  -23.0971  -27.9469   25.2634 C   0  0  0  0  0  0  0  0  0  0  0  0
  -22.0566  -27.0683   19.9807 C   0  0  0  0  0  0  0  0  0  0  0  0
  -24.3989  -28.3512   25.5920 C   0  0  0  0  0  0  0  0  0  0  0  0
  -29.7322  -18.1870   25.0758 C   0  0  0  0  0  0  0  0  0  0  0  0
  -30.2530  -17.7348   23.8686 C   0  0  0  0  0  0  0  0  0  0  0  0
  -30.8533  -16.4823   23.8024 C   0  0  0  0  0  0  0  0  0  0  0  0
  -22.3460   -7.9489   21.1928 C   0  0  0  0  0  0  0  0  0  0  0  0
  -24.7717  -26.2149   26.6908 C   0  0  0  0  0  0  0  0  0  0  0  0
  -21.6672   -6.0088   22.3320 C   0  0  0  0  0  0  0  0  0  0  0  0
  -21.7995   -4.3993   24.6067 C   0  0  0  0  0  0  0  0  0  0  0  0
  -22.1123   -4.6909   22.2289 C   0  0  0  0  0  0  0  0  0  0  0  0
  -24.6605  -11.4900   21.1592 C   0  0  0  0  0  0  0  0  0  0  0  0
  -29.8360  -17.3553   26.1791 C   0  0  0  0  0  0  0  0  0  0  0  0
  -30.9071  -15.7270   24.9628 C   0  0  0  0  0  0  0  0  0  0  0  0
  -25.4340  -13.5178   21.5125 C   0  0  0  0  0  0  0  0  0  0  0  0
  -23.3086  -13.0149   22.7282 C   0  0  0  0  0  0  0  0  0  0  0  0
  -23.5296  -29.3794   22.4590 C   0  0  0  0  0  0  0  0  0  0  0  0
  -24.2029  -31.9518   24.3169 C   0  0  0  0  0  0  0  0  0  0  0  0
  -26.0264  -32.5952   27.3629 C   0  0  0  0  0  0  0  0  0  0  0  0
  -30.8775  -14.4129   20.6679 C   0  0  0  0  0  0  0  0  0  0  0  0
  -20.9766  -28.4550   18.1364 C   0  0  0  0  0  0  0  0  0  0  0  0
  -22.1742  -28.8769   24.5246 C   0  0  0  0  0  0  0  0  0  0  0  0
  -24.9332  -29.7026   25.1961 C   0  0  0  0  0  0  0  0  0  0  0  0
  -21.6823  -29.6610   18.7509 C   0  0  0  0  0  0  0  0  0  0  0  0
  -29.0093  -13.0384   17.9665 C   0  0  0  0  0  0  0  0  0  0  0  0
  -27.5847  -19.4338   25.5647 C   0  0  0  0  0  0  0  0  0  0  0  0
  -29.8312  -20.4800   26.1421 C   0  0  0  0  0  0  0  0  0  0  0  0
  -23.0742  -29.2731   19.2398 C   0  0  0  0  0  0  0  0  0  0  0  0
  -27.6928  -12.6063   18.6147 C   0  0  0  0  0  0  0  0  0  0  0  0
  -26.9234  -20.8107   25.6697 C   0  0  0  0  0  0  0  0  0  0  0  0
  -29.1593  -21.8520   26.2440 C   0  0  0  0  0  0  0  0  0  0  0  0
  -30.1974  -12.8166   18.8999 C   0  0  0  0  0  0  0  0  0  0  0  0
  -28.7439  -12.9991   20.8818 C   0  0  0  0  0  0  0  0  0  0  0  0
  -29.0707  -19.5493   25.1810 C   0  0  0  0  0  0  0  0  0  0  0  0
  -22.9959  -28.2011   20.3335 C   0  0  1  0  0  0  0  0  0  0  0  0
  -22.9160  -29.9346   23.7131 C   0  0  1  0  0  0  0  0  0  0  0  0
  -27.5101  -13.2556   19.9997 C   0  0  2  0  0  0  0  0  0  0  0  0
  -27.6748  -21.7485   26.6275 C   0  0  0  0  0  0  0  0  0  0  0  0
  -30.1673  -18.5929   22.6467 C   0  0  0  0  0  0  0  0  0  0  0  0
  -29.2948  -17.7866   27.5030 C   0  0  0  0  0  0  0  0  0  0  0  0
  -27.4852  -21.3462   28.0952 C   0  0  0  0  0  0  0  0  0  0  0  0
  -25.7371  -34.3939   29.0887 C   0  0  0  0  0  0  0  0  0  0  0  0
  -26.3226  -33.4387   22.7027 C   0  0  0  0  0  0  0  0  0  0  0  0
  -27.2913  -34.2584   24.8609 C   0  0  0  0  0  0  0  0  0  0  0  0
  -24.9630  -34.8863   24.2226 C   0  0  0  0  0  0  0  0  0  0  0  0
  -25.7615  -30.6171   29.5484 C   0  0  0  0  0  0  0  0  0  0  0  0
  -31.4185  -15.9784   22.5160 C   0  0  0  0  0  0  0  0  0  0  0  0
  -27.6534  -24.1394   27.3900 C   0  0  0  0  0  0  0  0  0  0  0  0
  -26.9902  -25.4768   27.1259 C   0  0  0  0  0  0  0  0  0  1  0  0
  -25.4518  -32.5151   24.9509 C   0  0  1  0  0  0  0  0  0  0  0  0
  -25.4380  -32.9500   28.7166 C   0  0  2  0  0  0  0  0  0  0  0  0
  -26.0042  -33.7468   24.1794 C   0  0  0  0  0  0  0  0  0  0  0  0
  -25.7792  -11.5528   20.4321 N   0  0  0  0  0  0  0  0  0  0  0  0
  -30.4121  -16.1326   26.1536 N   0  0  0  0  0  0  0  0  0  0  0  0
  -26.2265  -12.7980   20.6675 N   0  0  0  0  0  0  0  0  0  0  0  0
  -23.9947  -30.5737   24.4696 N   0  0  0  0  0  0  0  0  0  0  0  0
  -29.9614  -13.4587   20.1952 N   0  0  0  0  0  0  0  0  0  0  0  0
  -25.7373  -14.7876   21.8561 N   0  0  0  0  0  0  0  0  0  0  0  0
  -22.3279  -12.0432   22.9701 N   0  0  0  0  0  0  0  0  0  0  0  0
  -22.6198  -28.7959   21.5981 N   0  0  0  0  0  0  0  0  0  0  0  0
  -25.1160  -32.7846   26.3448 N   0  0  0  0  0  0  0  0  0  0  0  0
  -30.5754  -14.9776   21.9010 N   0  0  0  0  0  0  0  0  0  0  0  0
  -27.0747  -23.1176   26.4814 N   0  3  0  0  0  0  0  0  0  0  0  0
  -26.0027  -32.0654   29.7747 N   0  3  0  0  0  0  0  0  0  0  0  0
  -23.2009  -14.1430   23.2661 O   0  0  0  0  0  0  0  0  0  0  0  0
  -24.7388  -29.4746   22.2846 O   0  0  0  0  0  0  0  0  0  0  0  0
  -23.4366  -32.7079   23.7147 O   0  0  0  0  0  0  0  0  0  0  0  0
  -27.1795  -32.1939   27.2223 O   0  0  0  0  0  0  0  0  0  0  0  0
  -31.8868  -14.7414   20.0352 O   0  0  0  0  0  0  0  0  0  0  0  0
  -21.6018   -6.8093   21.2039 O   0  0  0  0  0  0  0  0  0  0  0  0
  -25.5899  -25.3740   27.3803 O   0  0  0  0  0  0  0  0  0  1  0  0
  -21.8644   -3.6270   25.6992 F   0  0  0  0  0  0  0  0  0  0  0  0
  -22.4788   -4.1927   21.0400 F   0  0  0  0  0  0  0  0  0  0  0  0
  -31.6229  -14.1632   25.0123 Cl  0  0  0  0  0  0  0  0  0  0  0  0
  1  2  1  0  0  0  0
  1  5  2  0  0  0  0
  2  6  2  0  0  0  0
  3  8  2  0  0  0  0
  3 15  1  0  0  0  0
  4  9  1  0  0  0  0
  4 15  2  0  0  0  0
  5 17  1  0  0  0  0
  6 19  1  0  0  0  0
  7 10  2  0  0  0  0
  7 18  1  0  0  0  0
  8 24  1  0  0  0  0
  9 24  2  0  0  0  0
 10 25  1  0  0  0  0
 11 12  2  0  0  0  0
 11 26  1  0  0  0  0
 12 27  1  0  0  0  0
 13 20  1  0  0  0  0
 13 25  2  0  0  0  0
 14 27  2  0  0  0  0
 14 28  1  0  0  0  0
 15 29  1  0  0  0  0
 16 29  1  0  0  0  0
 16 32  2  0  0  0  0
 16 33  1  0  0  0  0
 17 19  2  0  0  0  0
 17 38  1  0  0  0  0
 18 20  2  0  0  0  0
 18 39  1  0  0  0  0
 19 52  1  0  0  0  0
 20 40  1  0  0  0  0
 21 22  2  0  0  0  0
 21 30  1  0  0  0  0
 21 51  1  0  0  0  0
 22 23  1  0  0  0  0
 22 56  1  0  0  0  0
 23 31  2  0  0  0  0
 23 64  1  0  0  0  0
 24 87  1  0  0  0  0
 25 88  1  0  0  0  0
 26 28  2  0  0  0  0
 26 87  1  0  0  0  0
 27 89  1  0  0  0  0
 28 90  1  0  0  0  0
 29 70  2  0  0  0  0
 30 57  1  0  0  0  0
 30 71  2  0  0  0  0
 31 71  1  0  0  0  0
 31 91  1  0  0  0  0
 32 72  1  0  0  0  0
 32 75  1  0  0  0  0
 33 76  1  0  0  0  0
 33 82  2  0  0  0  0
 34 53  1  0  0  0  0
 34 77  1  0  0  0  0
 34 83  2  0  0  0  0
 35 67  1  0  0  0  0
 35 73  1  0  0  0  0
 35 84  2  0  0  0  0
 36 68  1  0  0  0  0
 36 78  1  0  0  0  0
 36 85  2  0  0  0  0
 37 74  1  0  0  0  0
 37 79  1  0  0  0  0
 37 86  2  0  0  0  0
 38 41  1  0  0  0  0
 39 53  1  0  0  0  0
 40 73  1  0  0  0  0
 41 45  1  0  0  0  0
 42 46  1  0  0  0  0
 42 49  1  0  0  0  0
 43 47  1  0  0  0  0
 43 51  1  0  0  0  0
 44 48  1  0  0  0  0
 44 51  1  0  0  0  0
 45 52  1  0  0  0  0
 46 54  1  0  0  0  0
 47 55  1  0  0  0  0
 48 55  1  0  0  0  0
 49 74  1  0  0  0  0
 50 54  1  0  0  0  0
 50 74  1  0  0  0  0
 52 77  1  0  0  0  0
 53 73  1  0  0  0  0
 54 72  1  0  0  0  0
 55 58  1  0  0  0  0
 55 80  1  0  0  0  0
 59 68  1  0  0  0  0
 60 69  1  0  0  0  0
 61 69  1  0  0  0  0
 62 69  1  0  0  0  0
 63 81  1  0  0  0  0
 64 79  1  0  0  0  0
 65 66  1  0  0  0  0
 65 80  1  0  0  0  0
 66 88  1  0  0  0  0
 67 69  1  0  0  0  0
 67 78  1  0  0  0  0
 68 81  1  0  0  0  0
 70 72  1  0  0  0  0
M  CHG  2  80   1  81   1
M  ISO  4  37 100  66 101  79 100  88 101
M  END
> <Batch ID>
0027

> <Smiles>
CNC(C)C(=O)NC(C(=O)N1Cc2cc([101O:1][101CH2:1]CNC3(C)CCC(c4c(C)nc(Cl)c(C[100NH:0][100C:0](=O)N5CCCC(n6nc(-c7ccc(Oc8ccc(F)cc8F)cc7)c(C(N)=O)c6N)C5)c4C)CC3)ccc2CC1C(=O)NC1CCCc2ccccc21)C(C)(C)C

> <Shape>
0.265

> <Color>
0.153

> <Negative vol penalty>
0.000

$$$$

  -OEChem-04052316303D

 85 93  0     1  0  0  0  0  0999 V2000
  -22.8196  -30.8488   20.2451 C   0  0  0  0  0  0  0  0  0  0  0  0
  -24.0370  -30.2231   20.4942 C   0  0  0  0  0  0  0  0  0  0  0  0
  -23.0606   -9.8811   19.9581 C   0  0  0  0  0  0  0  0  0  0  0  0
  -23.8140   -9.9043   22.2535 C   0  0  0  0  0  0  0  0  0  0  0  0
  -21.9057  -31.0308   21.2821 C   0  0  0  0  0  0  0  0  0  0  0  0
  -24.3416  -29.7801   21.7808 C   0  0  0  0  0  0  0  0  0  0  0  0
  -26.3443  -25.1289   21.8107 C   0  0  0  0  0  0  0  0  0  0  0  0
  -22.3048   -8.7380   20.2177 C   0  0  0  0  0  0  0  0  0  0  0  0
  -23.0581   -8.7612   22.5131 C   0  0  0  0  0  0  0  0  0  0  0  0
  -27.6887  -25.0123   21.4601 C   0  0  0  0  0  0  0  0  0  0  0  0
  -19.8206   -8.0012   23.1143 C   0  0  0  0  0  0  0  0  0  0  0  0
  -19.0599   -7.9808   24.2832 C   0  0  0  0  0  0  0  0  0  0  0  0
  -28.2800  -24.8808   23.7951 C   0  0  0  0  0  0  0  0  0  0  0  0
  -32.1085  -16.5355   22.5004 C   0  0  0  0  0  0  0  0  0  0  0  0
  -30.5826  -18.3289   23.9964 C   0  0  0  0  0  0  0  0  0  0  0  0
  -20.2801   -6.0390   25.0433 C   0  0  0  0  0  0  0  0  0  0  0  0
  -23.8153  -10.4643   20.9760 C   0  0  0  0  0  0  0  0  0  0  0  0
  -24.1823  -12.9846   20.8310 C   0  0  0  0  0  0  0  0  0  0  0  0
  -22.1952  -30.5812   22.5801 C   0  0  0  0  0  0  0  0  0  0  0  0
  -25.9581  -25.1334   23.1588 C   0  0  0  0  0  0  0  0  0  0  0  0
  -23.4312  -29.9575   22.8365 C   0  0  0  0  0  0  0  0  0  0  0  0
  -26.9299  -24.9950   24.1601 C   0  0  0  0  0  0  0  0  0  0  0  0
  -32.7334  -17.4128   23.3866 C   0  0  0  0  0  0  0  0  0  0  0  0
  -31.9705  -18.3094   24.1347 C   0  0  0  0  0  0  0  0  0  0  0  0
  -30.7206  -16.5550   22.3621 C   0  0  0  0  0  0  0  0  0  0  0  0
  -22.3035   -8.1780   21.4952 C   0  0  0  0  0  0  0  0  0  0  0  0
  -28.6570  -24.8911   22.4525 C   0  0  0  0  0  0  0  0  0  0  0  0
  -20.8110   -7.0405   22.9097 C   0  0  0  0  0  0  0  0  0  0  0  0
  -19.2897   -6.9997   25.2478 C   0  0  0  0  0  0  0  0  0  0  0  0
  -21.0408   -6.0594   23.8742 C   0  0  0  0  0  0  0  0  0  0  0  0
  -29.9576  -17.4516   23.1101 C   0  0  0  0  0  0  0  0  0  0  0  0
  -24.5968  -11.6449   20.7083 C   0  0  0  0  0  0  0  0  0  0  0  0
  -25.2827  -13.7196   20.4633 C   0  0  0  0  0  0  0  0  0  0  0  0
  -22.9157  -13.5171   21.2409 C   0  0  0  0  0  0  0  0  0  0  0  0
  -24.5119  -27.2204   25.0710 C   0  0  0  0  0  0  0  0  0  0  0  0
  -24.5912  -24.7544   27.1769 C   0  0  0  0  0  0  0  0  0  0  0  0
  -26.0612  -21.8392   28.1706 C   0  0  0  0  0  0  0  0  0  0  0  0
  -30.7584  -14.7134   20.6434 C   0  0  0  0  0  0  0  0  0  0  0  0
  -21.1956  -30.8428   23.6788 C   0  0  0  0  0  0  0  0  0  0  0  0
  -24.5013  -25.2331   23.5196 C   0  0  0  0  0  0  0  0  0  0  0  0
  -26.5654  -24.9739   25.6213 C   0  0  0  0  0  0  0  0  0  0  0  0
  -21.4383  -30.0089   24.9342 C   0  0  0  0  0  0  0  0  0  0  0  0
  -29.6272  -12.2863   18.2968 C   0  0  0  0  0  0  0  0  0  0  0  0
  -22.9136  -30.0426   25.3205 C   0  0  0  0  0  0  0  0  0  0  0  0
  -28.1835  -12.0133   18.7251 C   0  0  0  0  0  0  0  0  0  0  0  0
  -30.5410  -12.5185   19.4988 C   0  0  0  0  0  0  0  0  0  0  0  0
  -28.6373  -13.2758   20.8668 C   0  0  0  0  0  0  0  0  0  0  0  0
  -23.7876  -29.4410   24.2135 C   0  0  1  0  0  0  0  0  0  0  0  0
  -24.2709  -25.7432   24.9388 C   0  0  1  0  0  0  0  0  0  0  0  0
  -27.6662  -13.1000   19.6880 C   0  0  2  0  0  0  0  0  0  0  0  0
  -34.2210  -17.3759   23.5149 C   0  0  0  0  0  0  0  0  0  0  0  0
  -25.9310  -20.0737   29.9492 C   0  0  0  0  0  0  0  0  0  0  0  0
  -25.9387  -26.6491   29.1528 C   0  0  0  0  0  0  0  0  0  0  0  0
  -26.6280  -24.6498   30.4928 C   0  0  0  0  0  0  0  0  0  0  0  0
  -24.2073  -25.1512   30.1591 C   0  0  0  0  0  0  0  0  0  0  0  0
  -25.4772  -19.7207   26.1882 C   0  0  0  0  0  0  0  0  0  0  0  0
  -32.6237  -19.2674   25.0987 C   0  0  0  0  0  0  0  0  0  0  0  0
  -33.2521  -20.4925   24.4246 C   0  0  0  0  0  0  0  0  0  0  0  0
  -32.2337  -21.3426   23.6569 C   0  0  0  0  0  0  0  0  0  0  0  0
  -32.9007  -22.5683   23.0271 C   0  0  0  0  0  0  0  0  0  0  0  0
  -31.9416  -23.4157   22.1904 C   0  0  0  0  0  0  0  0  0  0  0  0
  -30.8074  -24.0338   22.9970 C   0  0  0  0  0  0  0  0  0  1  0  0
  -25.5694  -24.2702   28.2199 C   0  0  1  0  0  0  0  0  0  0  0  0
  -25.4717  -20.4963   28.5624 C   0  0  2  0  0  0  0  0  0  0  0  0
  -25.5933  -25.1824   29.4788 C   0  0  0  0  0  0  0  0  0  0  0  0
  -25.8618  -11.5324   20.2948 N   0  0  0  0  0  0  0  0  0  0  0  0
  -26.2517  -12.8108   20.1544 N   0  0  0  0  0  0  0  0  0  0  0  0
  -25.1285  -25.0808   25.9237 N   0  0  0  0  0  0  0  0  0  0  0  0
  -29.9897  -13.5638   20.3638 N   0  0  0  0  0  0  0  0  0  0  0  0
  -25.5064  -15.0481   20.3772 N   0  0  0  0  0  0  0  0  0  0  0  0
  -21.8939  -12.6214   21.5845 N   0  0  0  0  0  0  0  0  0  0  0  0
  -30.1178  -15.6531   21.4504 N   0  0  0  0  0  0  0  0  0  0  0  0
  -23.7200  -27.9957   24.2456 N   0  0  0  0  0  0  0  0  0  0  0  0
  -25.2184  -22.8812   28.4950 N   0  0  0  0  0  0  0  0  0  0  0  0
  -25.8851  -19.4454   27.5899 N   0  3  0  0  0  0  0  0  0  0  0  0
  -22.6914  -14.7505   21.2848 O   0  0  0  0  0  0  0  0  0  0  0  0
  -25.3529  -27.6267   25.8642 O   0  0  0  0  0  0  0  0  0  0  0  0
  -23.3935  -24.8331   27.4615 O   0  0  0  0  0  0  0  0  0  0  0  0
  -27.1610  -21.9527   27.6339 O   0  0  0  0  0  0  0  0  0  0  0  0
  -31.8904  -14.8662   20.1775 O   0  0  0  0  0  0  0  0  0  0  0  0
  -21.5658   -7.0626   21.7489 O   0  0  0  0  0  0  0  0  0  0  0  0
  -29.9700  -24.7778   22.1130 O   0  0  0  0  0  0  0  0  0  1  0  0
  -18.5602   -6.9811   26.3710 F   0  0  0  0  0  0  0  0  0  0  0  0
  -21.9917   -5.1345   23.6838 F   0  0  0  0  0  0  0  0  0  0  0  0
  -28.2364  -17.5088   22.9702 Cl  0  0  0  0  0  0  0  0  0  0  0  0
  1  2  1  0  0  0  0
  1  5  2  0  0  0  0
  2  6  2  0  0  0  0
  3  8  2  0  0  0  0
  3 17  1  0  0  0  0
  4  9  1  0  0  0  0
  4 17  2  0  0  0  0
  5 19  1  0  0  0  0
  6 21  1  0  0  0  0
  7 10  2  0  0  0  0
  7 20  1  0  0  0  0
  8 26  1  0  0  0  0
  9 26  2  0  0  0  0
 10 27  1  0  0  0  0
 11 12  2  0  0  0  0
 11 28  1  0  0  0  0
 12 29  1  0  0  0  0
 13 22  1  0  0  0  0
 13 27  2  0  0  0  0
 14 23  1  0  0  0  0
 14 25  2  0  0  0  0
 15 24  1  0  0  0  0
 15 31  2  0  0  0  0
 16 29  2  0  0  0  0
 16 30  1  0  0  0  0
 17 32  1  0  0  0  0
 18 32  1  0  0  0  0
 18 33  2  0  0  0  0
 18 34  1  0  0  0  0
 19 21  2  0  0  0  0
 19 39  1  0  0  0  0
 20 22  2  0  0  0  0
 20 40  1  0  0  0  0
 21 48  1  0  0  0  0
 22 41  1  0  0  0  0
 23 24  2  0  0  0  0
 23 51  1  0  0  0  0
 24 57  1  0  0  0  0
 25 31  1  0  0  0  0
 25 72  1  0  0  0  0
 26 81  1  0  0  0  0
 27 82  1  0  0  0  0
 28 30  2  0  0  0  0
 28 81  1  0  0  0  0
 29 83  1  0  0  0  0
 30 84  1  0  0  0  0
 31 85  1  0  0  0  0
 32 66  2  0  0  0  0
 33 67  1  0  0  0  0
 33 70  1  0  0  0  0
 34 71  1  0  0  0  0
 34 76  2  0  0  0  0
 35 49  1  0  0  0  0
 35 73  1  0  0  0  0
 35 77  2  0  0  0  0
 36 63  1  0  0  0  0
 36 68  1  0  0  0  0
 36 78  2  0  0  0  0
 37 64  1  0  0  0  0
 37 74  1  0  0  0  0
 37 79  2  0  0  0  0
 38 69  1  0  0  0  0
 38 72  1  0  0  0  0
 38 80  2  0  0  0  0
 39 42  1  0  0  0  0
 40 49  1  0  0  0  0
 41 68  1  0  0  0  0
 42 44  1  0  0  0  0
 43 45  1  0  0  0  0
 43 46  1  0  0  0  0
 44 48  1  0  0  0  0
 45 50  1  0  0  0  0
 46 69  1  0  0  0  0
 47 50  1  0  0  0  0
 47 69  1  0  0  0  0
 48 73  1  0  0  0  0
 49 68  1  0  0  0  0
 50 67  1  0  0  0  0
 52 64  1  0  0  0  0
 53 65  1  0  0  0  0
 54 65  1  0  0  0  0
 55 65  1  0  0  0  0
 56 75  1  0  0  0  0
 57 58  1  0  0  0  0
 58 59  1  0  0  0  0
 59 60  1  0  0  0  0
 60 61  1  0  0  0  0
 61 62  1  0  0  0  0
 62 82  1  0  0  0  0
 63 65  1  0  0  0  0
 63 74  1  0  0  0  0
 64 75  1  0  0  0  0
 66 67  1  0  0  0  0
M  CHG  1  75   1
M  ISO  4  38 100  62 101  72 100  82 101
M  END
> <Batch ID>
0027

> <Smiles>
CNC(C)C(=O)NC(C(=O)N1Cc2cc([101O:1][101CH2:1]CCCCCc3cc(Cl)c([100NH:0][100C:0](=O)N4CCCC(n5nc(-c6ccc(Oc7ccc(F)cc7F)cc6)c(C(N)=O)c5N)C4)cc3C)ccc2CC1C(=O)NC1CCCc2ccccc21)C(C)(C)C

> <Shape>
0.216

> <Color>
0.196

> <Negative vol penalty>
0.000

$$$$

  -OEChem-04052316303D

 86 94  0     1  0  0  0  0  0999 V2000
  -30.2869  -12.7044   19.9963 C   0  0  0  0  0  0  0  0  0  0  0  0
  -30.0572  -13.9302   20.6128 C   0  0  0  0  0  0  0  0  0  0  0  0
  -29.1804  -24.1217   21.8512 C   0  0  0  0  0  0  0  0  0  0  0  0
  -27.6139  -24.3714   20.0290 C   0  0  0  0  0  0  0  0  0  0  0  0
  -29.3677  -12.2063   19.0738 C   0  0  0  0  0  0  0  0  0  0  0  0
  -28.9086  -14.6591   20.3065 C   0  0  0  0  0  0  0  0  0  0  0  0
  -25.6610  -18.1860   24.1170 C   0  0  0  0  0  0  0  0  0  0  0  0
  -29.0612  -22.7347   21.7637 C   0  0  0  0  0  0  0  0  0  0  0  0
  -27.4947  -22.9844   19.9414 C   0  0  0  0  0  0  0  0  0  0  0  0
  -25.6428  -19.5630   24.3344 C   0  0  0  0  0  0  0  0  0  0  0  0
  -29.4452  -19.1199   21.7818 C   0  0  0  0  0  0  0  0  0  0  0  0
  -30.6164  -18.3640   21.8306 C   0  0  0  0  0  0  0  0  0  0  0  0
  -23.7649  -19.7691   22.8344 C   0  0  0  0  0  0  0  0  0  0  0  0
  -21.8909  -25.9460   20.9971 C   0  0  0  0  0  0  0  0  0  0  0  0
  -21.5852  -25.1503   23.6534 C   0  0  0  0  0  0  0  0  0  0  0  0
  -31.4275  -19.4933   19.8548 C   0  0  0  0  0  0  0  0  0  0  0  0
  -28.4567  -24.9401   20.9839 C   0  0  0  0  0  0  0  0  0  0  0  0
  -29.5001  -27.1920   20.3943 C   0  0  0  0  0  0  0  0  0  0  0  0
  -28.2025  -12.9249   18.7632 C   0  0  0  0  0  0  0  0  0  0  0  0
  -24.7367  -17.5906   23.2466 C   0  0  0  0  0  0  0  0  0  0  0  0
  -27.9736  -14.1707   19.3780 C   0  0  0  0  0  0  0  0  0  0  0  0
  -23.7719  -18.3840   22.6095 C   0  0  0  0  0  0  0  0  0  0  0  0
  -22.8698  -25.1617   21.6072 C   0  0  0  0  0  0  0  0  0  0  0  0
  -20.7593  -26.3326   21.7151 C   0  0  0  0  0  0  0  0  0  0  0  0
  -22.7169  -24.7638   22.9353 C   0  0  0  0  0  0  0  0  0  0  0  0
  -28.2184  -22.1661   20.8088 C   0  0  0  0  0  0  0  0  0  0  0  0
  -24.6965  -20.3552   23.6909 C   0  0  0  0  0  0  0  0  0  0  0  0
  -29.2650  -20.0624   20.7695 C   0  0  0  0  0  0  0  0  0  0  0  0
  -31.6076  -18.5507   20.8671 C   0  0  0  0  0  0  0  0  0  0  0  0
  -30.2562  -20.2492   19.8060 C   0  0  0  0  0  0  0  0  0  0  0  0
  -20.6064  -25.9347   23.0432 C   0  0  0  0  0  0  0  0  0  0  0  0
  -28.5789  -26.3729   21.0742 C   0  0  0  0  0  0  0  0  0  0  0  0
  -29.2070  -28.4647   20.8196 C   0  0  0  0  0  0  0  0  0  0  0  0
  -30.5287  -26.8345   19.4617 C   0  0  0  0  0  0  0  0  0  0  0  0
  -24.9465  -15.9462   20.5345 C   0  0  0  0  0  0  0  0  0  0  0  0
  -21.7509  -15.5869   20.9601 C   0  0  0  0  0  0  0  0  0  0  0  0
  -18.8639  -16.7578   22.3533 C   0  0  0  0  0  0  0  0  0  0  0  0
  -24.2327  -30.9945   22.9894 C   0  0  0  0  0  0  0  0  0  0  0  0
  -27.2614  -12.3681   17.7245 C   0  0  0  0  0  0  0  0  0  0  0  0
  -24.7525  -16.1004   23.0434 C   0  0  0  0  0  0  0  0  0  0  0  0
  -22.7447  -17.7909   21.6813 C   0  0  0  0  0  0  0  0  0  0  0  0
  -25.8842  -13.0265   17.7349 C   0  0  0  0  0  0  0  0  0  0  0  0
  -27.4206  -30.8419   24.5677 C   0  0  0  0  0  0  0  0  0  0  0  0
  -26.0187  -14.5445   17.8018 C   0  0  0  0  0  0  0  0  0  0  0  0
  -28.1620  -29.7532   23.7900 C   0  0  0  0  0  0  0  0  0  0  0  0
  -25.9370  -30.5144   24.7218 C   0  0  0  0  0  0  0  0  0  0  0  0
  -25.9746  -29.1323   22.6817 C   0  0  0  0  0  0  0  0  0  0  0  0
  -26.7271  -14.9793   19.0904 C   0  0  1  0  0  0  0  0  0  0  0  0
  -24.0913  -15.6683   21.7382 C   0  0  1  0  0  0  0  0  0  0  0  0
  -27.4631  -29.4450   22.4521 C   0  0  2  0  0  0  0  0  0  0  0  0
  -24.0744  -24.7612   20.8204 C   0  0  0  0  0  0  0  0  0  0  0  0
  -16.4056  -16.2730   22.4921 C   0  0  0  0  0  0  0  0  0  0  0  0
  -21.3784  -16.6801   18.1359 C   0  0  0  0  0  0  0  0  0  0  0  0
  -18.9644  -17.0637   18.6778 C   0  0  0  0  0  0  0  0  0  0  0  0
  -19.8959  -14.7499   18.7114 C   0  0  0  0  0  0  0  0  0  0  0  0
  -18.9803  -16.4095   25.2900 C   0  0  0  0  0  0  0  0  0  0  0  0
  -19.7338  -27.1730   21.0252 C   0  0  0  0  0  0  0  0  0  0  0  0
  -23.7642  -23.9173   23.6173 C   0  0  0  0  0  0  0  0  0  0  0  0
  -19.8211  -28.6484   21.4398 C   0  0  0  0  0  0  0  0  0  0  0  0
  -21.1741  -29.2602   21.0706 C   0  0  0  0  0  0  0  0  0  0  0  0
  -21.2654  -30.7203   21.5235 C   0  0  0  0  0  0  0  0  0  0  0  0
  -22.5987  -31.3647   21.1585 C   0  0  0  0  0  0  0  0  0  0  0  0
  -23.6802  -22.4506   23.2090 C   0  0  0  0  0  0  0  0  0  1  0  0
  -20.5238  -16.3656   20.5518 C   0  0  1  0  0  0  0  0  0  0  0  0
  -17.7668  -16.0582   23.1353 C   0  0  2  0  0  0  0  0  0  0  0  0
  -20.2111  -16.2266   19.0351 C   0  0  0  0  0  0  0  0  0  0  0  0
  -27.7619  -27.0669   21.8710 N   0  0  0  0  0  0  0  0  0  0  0  0
  -28.1687  -28.3355   21.6945 N   0  0  0  0  0  0  0  0  0  0  0  0
  -22.8051  -16.3299   21.5101 N   0  0  0  0  0  0  0  0  0  0  0  0
  -25.3335  -30.2338   23.4169 N   0  0  0  0  0  0  0  0  0  0  0  0
  -29.7387  -29.6705   20.5267 N   0  0  0  0  0  0  0  0  0  0  0  0
  -30.6938  -25.4815   19.1354 N   0  0  0  0  0  0  0  0  0  0  0  0
  -25.8154  -14.9209   20.2128 N   0  0  0  0  0  0  0  0  0  0  0  0
  -19.4462  -15.9181   21.4276 N   0  0  0  0  0  0  0  0  0  0  0  0
  -23.7254  -30.6677   21.7378 N   0  0  0  0  0  0  0  0  0  0  0  0
  -17.7142  -16.5772   24.5313 N   0  3  0  0  0  0  0  0  0  0  0  0
  -31.2899  -27.6877   18.9459 O   0  0  0  0  0  0  0  0  0  0  0  0
  -24.8260  -17.0113   19.9407 O   0  0  0  0  0  0  0  0  0  0  0  0
  -21.7706  -14.3635   20.8036 O   0  0  0  0  0  0  0  0  0  0  0  0
  -19.1709  -17.9328   22.5421 O   0  0  0  0  0  0  0  0  0  0  0  0
  -23.7420  -31.9015   23.6702 O   0  0  0  0  0  0  0  0  0  0  0  0
  -28.1020  -20.8127   20.7229 O   0  0  0  0  0  0  0  0  0  0  0  0
  -24.6770  -21.6995   23.9009 O   0  0  0  0  0  0  0  0  0  1  0  0
  -32.7329  -17.8258   20.9150 F   0  0  0  0  0  0  0  0  0  0  0  0
  -30.0894  -21.1540   18.8317 F   0  0  0  0  0  0  0  0  0  0  0  0
  -19.2199  -26.3938   23.9632 Cl  0  0  0  0  0  0  0  0  0  0  0  0
  1  2  1  0  0  0  0
  1  5  2  0  0  0  0
  2  6  2  0  0  0  0
  3  8  2  0  0  0  0
  3 17  1  0  0  0  0
  4  9  1  0  0  0  0
  4 17  2  0  0  0  0
  5 19  1  0  0  0  0
  6 21  1  0  0  0  0
  7 10  2  0  0  0  0
  7 20  1  0  0  0  0
  8 26  1  0  0  0  0
  9 26  2  0  0  0  0
 10 27  1  0  0  0  0
 11 12  2  0  0  0  0
 11 28  1  0  0  0  0
 12 29  1  0  0  0  0
 13 22  1  0  0  0  0
 13 27  2  0  0  0  0
 14 23  1  0  0  0  0
 14 24  2  0  0  0  0
 15 25  1  0  0  0  0
 15 31  2  0  0  0  0
 16 29  2  0  0  0  0
 16 30  1  0  0  0  0
 17 32  1  0  0  0  0
 18 32  1  0  0  0  0
 18 33  2  0  0  0  0
 18 34  1  0  0  0  0
 19 21  2  0  0  0  0
 19 39  1  0  0  0  0
 20 22  2  0  0  0  0
 20 40  1  0  0  0  0
 21 48  1  0  0  0  0
 22 41  1  0  0  0  0
 23 25  2  0  0  0  0
 23 51  1  0  0  0  0
 24 31  1  0  0  0  0
 24 57  1  0  0  0  0
 25 58  1  0  0  0  0
 26 82  1  0  0  0  0
 27 83  1  0  0  0  0
 28 30  2  0  0  0  0
 28 82  1  0  0  0  0
 29 84  1  0  0  0  0
 30 85  1  0  0  0  0
 31 86  1  0  0  0  0
 32 67  2  0  0  0  0
 33 68  1  0  0  0  0
 33 71  1  0  0  0  0
 34 72  1  0  0  0  0
 34 77  2  0  0  0  0
 35 49  1  0  0  0  0
 35 73  1  0  0  0  0
 35 78  2  0  0  0  0
 36 64  1  0  0  0  0
 36 69  1  0  0  0  0
 36 79  2  0  0  0  0
 37 65  1  0  0  0  0
 37 74  1  0  0  0  0
 37 80  2  0  0  0  0
 38 70  1  0  0  0  0
 38 75  1  0  0  0  0
 38 81  2  0  0  0  0
 39 42  1  0  0  0  0
 40 49  1  0  0  0  0
 41 69  1  0  0  0  0
 42 44  1  0  0  0  0
 43 45  1  0  0  0  0
 43 46  1  0  0  0  0
 44 48  1  0  0  0  0
 45 50  1  0  0  0  0
 46 70  1  0  0  0  0
 47 50  1  0  0  0  0
 47 70  1  0  0  0  0
 48 73  1  0  0  0  0
 49 69  1  0  0  0  0
 50 68  1  0  0  0  0
 52 65  1  0  0  0  0
 53 66  1  0  0  0  0
 54 66  1  0  0  0  0
 55 66  1  0  0  0  0
 56 76  1  0  0  0  0
 57 59  1  0  0  0  0
 58 63  1  0  0  0  0
 59 60  1  0  0  0  0
 60 61  1  0  0  0  0
 61 62  1  0  0  0  0
 62 75  1  0  0  0  0
 63 83  1  0  0  0  0
 64 66  1  0  0  0  0
 64 74  1  0  0  0  0
 65 76  1  0  0  0  0
 67 68  1  0  0  0  0
M  CHG  1  76   1
M  ISO  4  38 100  63 101  75 100  83 101
M  END
> <Batch ID>
0027

> <Smiles>
CNC(C)C(=O)NC(C(=O)N1Cc2cc([101O:1][101CH2:1]Cc3cc(Cl)c(CCCCC[100NH:0][100C:0](=O)N4CCCC(n5nc(-c6ccc(Oc7ccc(F)cc7F)cc6)c(C(N)=O)c5N)C4)cc3C)ccc2CC1C(=O)NC1CCCc2ccccc21)C(C)(C)C

> <Shape>
0.233

> <Color>
0.059

> <Negative vol penalty>
0.000

$$$$

  -OEChem-04052316303D

 81 89  0     1  0  0  0  0  0999 V2000
  -24.1850  -30.0655   26.7020 C   0  0  0  0  0  0  0  0  0  0  0  0
  -25.2707  -29.1957   26.6916 C   0  0  0  0  0  0  0  0  0  0  0  0
  -22.9990   -9.8920   19.9847 C   0  0  0  0  0  0  0  0  0  0  0  0
  -23.7219   -9.9506   22.2893 C   0  0  0  0  0  0  0  0  0  0  0  0
  -23.2649  -30.0426   25.6548 C   0  0  0  0  0  0  0  0  0  0  0  0
  -25.4363  -28.3017   25.6343 C   0  0  0  0  0  0  0  0  0  0  0  0
  -30.7315  -26.4115   23.2066 C   0  0  0  0  0  0  0  0  0  0  0  0
  -22.2322   -8.7584   20.2540 C   0  0  0  0  0  0  0  0  0  0  0  0
  -22.9551   -8.8169   22.5586 C   0  0  0  0  0  0  0  0  0  0  0  0
  -31.4909  -25.2575   23.3952 C   0  0  0  0  0  0  0  0  0  0  0  0
  -23.2001   -5.4765   22.0979 C   0  0  0  0  0  0  0  0  0  0  0  0
  -23.7870   -4.4618   22.8539 C   0  0  0  0  0  0  0  0  0  0  0  0
  -30.4567  -24.2670   21.4538 C   0  0  0  0  0  0  0  0  0  0  0  0
  -29.7589  -17.7012   22.6580 C   0  0  0  0  0  0  0  0  0  0  0  0
  -22.0615   -4.7101   24.5266 C   0  0  0  0  0  0  0  0  0  0  0  0
  -23.7438  -10.4881   21.0023 C   0  0  0  0  0  0  0  0  0  0  0  0
  -24.1292  -13.0031   20.8185 C   0  0  0  0  0  0  0  0  0  0  0  0
  -23.4246  -29.1546   24.5793 C   0  0  0  0  0  0  0  0  0  0  0  0
  -29.8196  -26.4978   22.1448 C   0  0  0  0  0  0  0  0  0  0  0  0
  -24.5167  -28.2661   24.5723 C   0  0  0  0  0  0  0  0  0  0  0  0
  -29.6889  -25.4242   21.2525 C   0  0  0  0  0  0  0  0  0  0  0  0
  -30.2470  -18.9390   23.0617 C   0  0  0  0  0  0  0  0  0  0  0  0
  -31.5229  -19.3359   22.6775 C   0  0  0  0  0  0  0  0  0  0  0  0
  -22.2103   -8.2208   21.5410 C   0  0  0  0  0  0  0  0  0  0  0  0
  -31.3514  -24.1840   22.5204 C   0  0  0  0  0  0  0  0  0  0  0  0
  -22.0439   -6.1081   22.5563 C   0  0  0  0  0  0  0  0  0  0  0  0
  -23.2177   -4.0786   24.0682 C   0  0  0  0  0  0  0  0  0  0  0  0
  -21.4746   -5.7248   23.7706 C   0  0  0  0  0  0  0  0  0  0  0  0
  -24.5365  -11.6589   20.7246 C   0  0  0  0  0  0  0  0  0  0  0  0
  -32.2650  -18.4654   21.8956 C   0  0  0  0  0  0  0  0  0  0  0  0
  -30.5798  -16.9040   21.8768 C   0  0  0  0  0  0  0  0  0  0  0  0
  -25.2393  -13.7246   20.4528 C   0  0  0  0  0  0  0  0  0  0  0  0
  -22.8608  -13.5507   21.2020 C   0  0  0  0  0  0  0  0  0  0  0  0
  -26.6705  -26.8651   21.9169 C   0  0  0  0  0  0  0  0  0  0  0  0
  -27.3159  -27.0696   18.7445 C   0  0  0  0  0  0  0  0  0  0  0  0
  -29.4199  -26.3269   16.1622 C   0  0  0  0  0  0  0  0  0  0  0  0
  -30.7185  -14.6868   20.6889 C   0  0  0  0  0  0  0  0  0  0  0  0
  -22.3781  -29.1340   23.4934 C   0  0  0  0  0  0  0  0  0  0  0  0
  -29.0274  -27.7598   21.9394 C   0  0  0  0  0  0  0  0  0  0  0  0
  -28.7386  -25.4745   20.0850 C   0  0  0  0  0  0  0  0  0  0  0  0
  -22.8307  -28.4151   22.2250 C   0  0  0  0  0  0  0  0  0  0  0  0
  -29.6026  -12.2262   18.3700 C   0  0  0  0  0  0  0  0  0  0  0  0
  -23.4918  -27.0850   22.5723 C   0  0  0  0  0  0  0  0  0  0  0  0
  -28.1516  -11.9698   18.7835 C   0  0  0  0  0  0  0  0  0  0  0  0
  -30.5019  -12.4736   19.5798 C   0  0  0  0  0  0  0  0  0  0  0  0
  -28.5852  -13.2667   20.9089 C   0  0  0  0  0  0  0  0  0  0  0  0
  -24.7442  -27.2989   23.4308 C   0  0  1  0  0  0  0  0  0  0  0  0
  -27.7550  -27.5410   21.1266 C   0  0  1  0  0  0  0  0  0  0  0  0
  -27.6287  -13.0764   19.7204 C   0  0  2  0  0  0  0  0  0  0  0  0
  -29.3858  -19.8204   23.9047 C   0  0  0  0  0  0  0  0  0  0  0  0
  -33.6428  -18.8375   21.4535 C   0  0  0  0  0  0  0  0  0  0  0  0
  -29.6610  -26.5932   13.6786 C   0  0  0  0  0  0  0  0  0  0  0  0
  -25.2534  -24.8633   18.3101 C   0  0  0  0  0  0  0  0  0  0  0  0
  -26.2068  -24.5187   16.0209 C   0  0  0  0  0  0  0  0  0  0  0  0
  -25.1772  -26.7092   16.6245 C   0  0  0  0  0  0  0  0  0  0  0  0
  -31.9198  -27.8837   16.4550 C   0  0  0  0  0  0  0  0  0  0  0  0
  -32.0794  -20.6741   23.0994 C   0  0  0  0  0  0  0  0  0  0  0  0
  -31.5126  -21.8241   22.2739 C   0  0  0  0  0  0  0  0  0  1  0  0
  -27.4196  -26.0805   17.6087 C   0  0  1  0  0  0  0  0  0  0  0  0
  -29.9822  -27.1841   15.0426 C   0  0  2  0  0  0  0  0  0  0  0  0
  -26.0308  -25.5409   17.1641 C   0  0  0  0  0  0  0  0  0  0  0  0
  -25.8062  -11.5311   20.3301 N   0  0  0  0  0  0  0  0  0  0  0  0
  -31.8248  -17.2554   21.4839 N   0  0  0  0  0  0  0  0  0  0  0  0
  -26.2062  -12.8044   20.1727 N   0  0  0  0  0  0  0  0  0  0  0  0
  -27.9816  -26.7277   19.9301 N   0  0  0  0  0  0  0  0  0  0  0  0
  -29.9460  -13.5373   20.4191 N   0  0  0  0  0  0  0  0  0  0  0  0
  -25.4728  -15.0500   20.3466 N   0  0  0  0  0  0  0  0  0  0  0  0
  -21.8288  -12.6677   21.5474 N   0  0  0  0  0  0  0  0  0  0  0  0
  -30.0734  -15.6445   21.4707 N   0  0  0  0  0  0  0  0  0  0  0  0
  -25.8517  -27.7371   22.6087 N   0  0  0  0  0  0  0  0  0  0  0  0
  -28.1667  -26.7513   16.5503 N   0  0  0  0  0  0  0  0  0  0  0  0
  -31.4629  -27.2958   15.1695 N   0  3  0  0  0  0  0  0  0  0  0  0
  -22.6440  -14.7861   21.2215 O   0  0  0  0  0  0  0  0  0  0  0  0
  -26.5820  -25.6430   21.8990 O   0  0  0  0  0  0  0  0  0  0  0  0
  -26.6740  -28.1105   18.5832 O   0  0  0  0  0  0  0  0  0  0  0  0
  -30.0298  -25.3737   16.6418 O   0  0  0  0  0  0  0  0  0  0  0  0
  -31.8576  -14.8243   20.2356 O   0  0  0  0  0  0  0  0  0  0  0  0
  -21.4620   -7.1148   21.8042 O   0  0  0  0  0  0  0  0  0  0  0  0
  -32.0909  -23.0562   22.7026 O   0  0  0  0  0  0  0  0  0  1  0  0
  -23.7805   -3.1031   24.7934 F   0  0  0  0  0  0  0  0  0  0  0  0
  -20.3633   -6.3271   24.2156 F   0  0  0  0  0  0  0  0  0  0  0  0
  1  2  1  0  0  0  0
  1  5  2  0  0  0  0
  2  6  2  0  0  0  0
  3  8  2  0  0  0  0
  3 16  1  0  0  0  0
  4  9  1  0  0  0  0
  4 16  2  0  0  0  0
  5 18  1  0  0  0  0
  6 20  1  0  0  0  0
  7 10  2  0  0  0  0
  7 19  1  0  0  0  0
  8 24  1  0  0  0  0
  9 24  2  0  0  0  0
 10 25  1  0  0  0  0
 11 12  2  0  0  0  0
 11 26  1  0  0  0  0
 12 27  1  0  0  0  0
 13 21  1  0  0  0  0
 13 25  2  0  0  0  0
 14 22  2  0  0  0  0
 14 31  1  0  0  0  0
 15 27  2  0  0  0  0
 15 28  1  0  0  0  0
 16 29  1  0  0  0  0
 17 29  1  0  0  0  0
 17 32  2  0  0  0  0
 17 33  1  0  0  0  0
 18 20  2  0  0  0  0
 18 38  1  0  0  0  0
 19 21  2  0  0  0  0
 19 39  1  0  0  0  0
 20 47  1  0  0  0  0
 21 40  1  0  0  0  0
 22 23  1  0  0  0  0
 22 50  1  0  0  0  0
 23 30  2  0  0  0  0
 23 57  1  0  0  0  0
 24 78  1  0  0  0  0
 25 79  1  0  0  0  0
 26 28  2  0  0  0  0
 26 78  1  0  0  0  0
 27 80  1  0  0  0  0
 28 81  1  0  0  0  0
 29 62  2  0  0  0  0
 30 51  1  0  0  0  0
 30 63  1  0  0  0  0
 31 63  2  0  0  0  0
 31 69  1  0  0  0  0
 32 64  1  0  0  0  0
 32 67  1  0  0  0  0
 33 68  1  0  0  0  0
 33 73  2  0  0  0  0
 34 48  1  0  0  0  0
 34 70  1  0  0  0  0
 34 74  2  0  0  0  0
 35 59  1  0  0  0  0
 35 65  1  0  0  0  0
 35 75  2  0  0  0  0
 36 60  1  0  0  0  0
 36 71  1  0  0  0  0
 36 76  2  0  0  0  0
 37 66  1  0  0  0  0
 37 69  1  0  0  0  0
 37 77  2  0  0  0  0
 38 41  1  0  0  0  0
 39 48  1  0  0  0  0
 40 65  1  0  0  0  0
 41 43  1  0  0  0  0
 42 44  1  0  0  0  0
 42 45  1  0  0  0  0
 43 47  1  0  0  0  0
 44 49  1  0  0  0  0
 45 66  1  0  0  0  0
 46 49  1  0  0  0  0
 46 66  1  0  0  0  0
 47 70  1  0  0  0  0
 48 65  1  0  0  0  0
 49 64  1  0  0  0  0
 52 60  1  0  0  0  0
 53 61  1  0  0  0  0
 54 61  1  0  0  0  0
 55 61  1  0  0  0  0
 56 72  1  0  0  0  0
 57 58  1  0  0  0  0
 58 79  1  0  0  0  0
 59 61  1  0  0  0  0
 59 71  1  0  0  0  0
 60 72  1  0  0  0  0
 62 64  1  0  0  0  0
M  CHG  1  72   1
M  ISO  4  37 100  58 101  69 100  79 101
M  END
> <Batch ID>
0027

> <Smiles>
CNC(C)C(=O)NC(C(=O)N1Cc2cc([101O:1][101CH2:1]Cc3c(C)cc([100NH:0][100C:0](=O)N4CCCC(n5nc(-c6ccc(Oc7ccc(F)cc7F)cc6)c(C(N)=O)c5N)C4)nc3C)ccc2CC1C(=O)NC1CCCc2ccccc21)C(C)(C)C

> <Shape>
0.252

> <Color>
0.202

> <Negative vol penalty>
0.000

$$$$

  -OEChem-04052316303D

 93101  0     1  0  0  0  0  0999 V2000
  -30.9777  -25.7236   14.0551 C   0  0  0  0  0  0  0  0  0  0  0  0
  -29.6435  -25.6307   14.4382 C   0  0  0  0  0  0  0  0  0  0  0  0
  -28.9012  -17.6797   19.0695 C   0  0  0  0  0  0  0  0  0  0  0  0
  -27.3348  -18.7861   20.5390 C   0  0  0  0  0  0  0  0  0  0  0  0
  -31.9716  -25.8622   15.0229 C   0  0  0  0  0  0  0  0  0  0  0  0
  -29.3026  -25.6753   15.7895 C   0  0  0  0  0  0  0  0  0  0  0  0
  -24.2715  -28.1663   18.2368 C   0  0  0  0  0  0  0  0  0  0  0  0
  -29.0829  -18.8705   18.3664 C   0  0  0  0  0  0  0  0  0  0  0  0
  -27.5165  -19.9770   19.8359 C   0  0  0  0  0  0  0  0  0  0  0  0
  -23.0622  -27.6154   18.6588 C   0  0  0  0  0  0  0  0  0  0  0  0
  -30.2325  -21.7094   16.4083 C   0  0  0  0  0  0  0  0  0  0  0  0
  -31.5380  -22.0786   16.0844 C   0  0  0  0  0  0  0  0  0  0  0  0
  -23.8982  -27.5278   20.9199 C   0  0  0  0  0  0  0  0  0  0  0  0
  -32.1068  -22.1266   18.4320 C   0  0  0  0  0  0  0  0  0  0  0  0
  -28.0271  -17.6374   20.1558 C   0  0  0  0  0  0  0  0  0  0  0  0
  -28.5692  -15.9590   21.9988 C   0  0  0  0  0  0  0  0  0  0  0  0
  -31.6419  -25.9183   16.3863 C   0  0  0  0  0  0  0  0  0  0  0  0
  -25.3088  -28.3923   19.1528 C   0  0  0  0  0  0  0  0  0  0  0  0
  -30.2932  -25.8135   16.7766 C   0  0  0  0  0  0  0  0  0  0  0  0
  -25.1187  -28.0840   20.5074 C   0  0  0  0  0  0  0  0  0  0  0  0
  -18.2541  -24.1955   21.0523 C   0  0  0  0  0  0  0  0  0  0  0  0
  -19.4234  -24.6618   20.4619 C   0  0  0  0  0  0  0  0  0  0  0  0
  -17.1769  -25.0577   21.2241 C   0  0  0  0  0  0  0  0  0  0  0  0
  -28.3906  -20.0192   18.7496 C   0  0  0  0  0  0  0  0  0  0  0  0
  -22.8765  -27.2934   20.0000 C   0  0  0  0  0  0  0  0  0  0  0  0
  -29.8641  -21.5489   17.7440 C   0  0  0  0  0  0  0  0  0  0  0  0
  -32.4751  -22.2872   17.0962 C   0  0  0  0  0  0  0  0  0  0  0  0
  -30.8012  -21.7575   18.7559 C   0  0  0  0  0  0  0  0  0  0  0  0
  -27.8386  -16.4074   20.8821 C   0  0  0  0  0  0  0  0  0  0  0  0
  -19.4645  -25.9883   20.0638 C   0  0  0  0  0  0  0  0  0  0  0  0
  -17.3186  -26.3665   20.7920 C   0  0  0  0  0  0  0  0  0  0  0  0
  -28.0061  -14.7463   22.3131 C   0  0  0  0  0  0  0  0  0  0  0  0
  -29.6593  -16.5829   22.6902 C   0  0  0  0  0  0  0  0  0  0  0  0
  -28.2803  -27.3142   19.4876 C   0  0  0  0  0  0  0  0  0  0  0  0
  -28.3944  -29.5132   21.8695 C   0  0  0  0  0  0  0  0  0  0  0  0
  -26.7006  -31.4056   24.1492 C   0  0  0  0  0  0  0  0  0  0  0  0
  -22.5850  -12.3949   21.3469 C   0  0  0  0  0  0  0  0  0  0  0  0
  -32.7550  -26.0214   17.3987 C   0  0  0  0  0  0  0  0  0  0  0  0
  -26.5975  -29.0119   18.6863 C   0  0  0  0  0  0  0  0  0  0  0  0
  -26.1937  -28.3259   21.5343 C   0  0  0  0  0  0  0  0  0  0  0  0
  -32.2782  -26.4371   18.7880 C   0  0  0  0  0  0  0  0  0  0  0  0
  -25.7165  -11.0507   20.3153 C   0  0  0  0  0  0  0  0  0  0  0  0
  -31.0484  -25.6309   19.1937 C   0  0  0  0  0  0  0  0  0  0  0  0
  -26.6814  -12.2307   20.4444 C   0  0  0  0  0  0  0  0  0  0  0  0
  -24.3362  -11.4997   19.8407 C   0  0  0  0  0  0  0  0  0  0  0  0
  -24.6884  -13.7531   20.7744 C   0  0  0  0  0  0  0  0  0  0  0  0
  -29.8815  -25.8829   18.2312 C   0  0  1  0  0  0  0  0  0  0  0  0
  -27.7712  -28.7220   19.6167 C   0  0  1  0  0  0  0  0  0  0  0  0
  -26.0774  -13.3575   21.3039 C   0  0  2  0  0  0  0  0  0  0  0  0
  -20.5965  -23.7615   20.2637 C   0  0  0  0  0  0  0  0  0  0  0  0
  -14.4782  -24.5820   23.9436 C   0  0  0  0  0  0  0  0  0  0  0  0
  -27.0688  -33.0783   25.9833 C   0  0  0  0  0  0  0  0  0  0  0  0
  -29.3194  -27.2732   23.7234 C   0  0  0  0  0  0  0  0  0  0  0  0
  -28.7569  -28.7455   25.6687 C   0  0  0  0  0  0  0  0  0  0  0  0
  -30.5111  -29.4488   24.0406 C   0  0  0  0  0  0  0  0  0  0  0  0
  -25.1325  -33.4776   22.7326 C   0  0  0  0  0  0  0  0  0  0  0  0
  -15.9127  -24.5767   21.8556 C   0  0  0  0  0  0  0  0  0  0  0  0
  -18.1562  -22.7674   21.5018 C   0  0  0  0  0  0  0  0  0  0  0  0
  -20.6935  -26.5464   19.4236 C   0  0  0  0  0  0  0  0  0  1  0  0
  -15.7820  -25.0443   23.3127 C   0  0  0  0  0  0  0  0  0  0  0  0
  -18.7491  -15.9937   20.9312 C   0  0  0  0  0  0  0  0  0  0  0  0
  -18.9339  -17.4707   20.5749 C   0  0  0  0  0  0  0  0  0  0  0  0
  -19.9630  -15.4470   21.6855 C   0  0  0  0  0  0  0  0  0  0  0  0
  -17.7025  -18.0249   19.8550 C   0  0  0  0  0  0  0  0  0  0  0  0
  -19.7595  -13.9802   22.0758 C   0  0  0  0  0  0  0  0  0  0  0  0
  -17.8072  -19.5189   19.5371 C   0  0  0  0  0  0  0  0  0  0  0  0
  -20.9270  -13.4211   22.8821 C   0  0  0  0  0  0  0  0  0  0  0  0
  -17.9461  -20.3851   20.7812 C   0  0  0  0  0  0  0  0  0  0  0  0
  -28.0808  -29.5070   23.3462 C   0  0  1  0  0  0  0  0  0  0  0  0
  -26.7916  -32.8794   24.5013 C   0  0  2  0  0  0  0  0  0  0  0  0
  -29.1473  -28.7371   24.1753 C   0  0  0  0  0  0  0  0  0  0  0  0
  -26.8844  -15.5493   20.5118 N   0  0  0  0  0  0  0  0  0  0  0  0
  -18.4386  -26.8558   20.2141 N   0  0  0  0  0  0  0  0  0  0  0  0
  -27.0115  -14.5495   21.4009 N   0  0  0  0  0  0  0  0  0  0  0  0
  -27.4381  -28.9278   21.0277 N   0  0  0  0  0  0  0  0  0  0  0  0
  -23.8192  -12.5684   20.6989 N   0  0  0  0  0  0  0  0  0  0  0  0
  -28.2698  -13.8397   23.2780 N   0  0  0  0  0  0  0  0  0  0  0  0
  -30.1136  -17.8284   22.2355 N   0  0  0  0  0  0  0  0  0  0  0  0
  -29.2538  -27.1546   18.5199 N   0  0  0  0  0  0  0  0  0  0  0  0
  -27.9160  -30.9036   23.7344 N   0  0  0  0  0  0  0  0  0  0  0  0
  -22.1714  -13.4534   22.1464 N   0  0  0  0  0  0  0  0  0  0  0  0
  -25.5157  -33.5721   24.1648 N   0  3  0  0  0  0  0  0  0  0  0  0
  -17.9853  -21.8116   20.3740 N   0  3  0  0  0  0  0  0  0  0  0  0
  -30.2248  -16.0442   23.6718 O   0  0  0  0  0  0  0  0  0  0  0  0
  -27.8247  -26.4381   20.2132 O   0  0  0  0  0  0  0  0  0  0  0  0
  -29.4457  -30.0252   21.4767 O   0  0  0  0  0  0  0  0  0  0  0  0
  -25.6567  -30.7629   24.2371 O   0  0  0  0  0  0  0  0  0  0  0  0
  -21.9050  -11.3702   21.2264 O   0  0  0  0  0  0  0  0  0  0  0  0
  -28.5678  -21.1816   18.0639 O   0  0  0  0  0  0  0  0  0  0  0  0
  -21.6890  -26.7512   20.4175 O   0  0  0  0  0  0  0  0  0  1  0  0
  -33.7292  -22.6402   16.7849 F   0  0  0  0  0  0  0  0  0  0  0  0
  -30.4536  -21.6036   20.0409 F   0  0  0  0  0  0  0  0  0  0  0  0
  -16.0607  -27.5300   20.9477 Cl  0  0  0  0  0  0  0  0  0  0  0  0
  1  2  1  0  0  0  0
  1  5  2  0  0  0  0
  2  6  2  0  0  0  0
  3  8  2  0  0  0  0
  3 15  1  0  0  0  0
  4  9  1  0  0  0  0
  4 15  2  0  0  0  0
  5 17  1  0  0  0  0
  6 19  1  0  0  0  0
  7 10  2  0  0  0  0
  7 18  1  0  0  0  0
  8 24  1  0  0  0  0
  9 24  2  0  0  0  0
 10 25  1  0  0  0  0
 11 12  2  0  0  0  0
 11 26  1  0  0  0  0
 12 27  1  0  0  0  0
 13 20  1  0  0  0  0
 13 25  2  0  0  0  0
 14 27  2  0  0  0  0
 14 28  1  0  0  0  0
 15 29  1  0  0  0  0
 16 29  1  0  0  0  0
 16 32  2  0  0  0  0
 16 33  1  0  0  0  0
 17 19  2  0  0  0  0
 17 38  1  0  0  0  0
 18 20  2  0  0  0  0
 18 39  1  0  0  0  0
 19 47  1  0  0  0  0
 20 40  1  0  0  0  0
 21 22  1  0  0  0  0
 21 23  2  0  0  0  0
 21 58  1  0  0  0  0
 22 30  2  0  0  0  0
 22 50  1  0  0  0  0
 23 31  1  0  0  0  0
 23 57  1  0  0  0  0
 24 89  1  0  0  0  0
 25 90  1  0  0  0  0
 26 28  2  0  0  0  0
 26 89  1  0  0  0  0
 27 91  1  0  0  0  0
 28 92  1  0  0  0  0
 29 72  2  0  0  0  0
 30 59  1  0  0  0  0
 30 73  1  0  0  0  0
 31 73  2  0  0  0  0
 31 93  1  0  0  0  0
 32 74  1  0  0  0  0
 32 77  1  0  0  0  0
 33 78  1  0  0  0  0
 33 84  2  0  0  0  0
 34 48  1  0  0  0  0
 34 79  1  0  0  0  0
 34 85  2  0  0  0  0
 35 69  1  0  0  0  0
 35 75  1  0  0  0  0
 35 86  2  0  0  0  0
 36 70  1  0  0  0  0
 36 80  1  0  0  0  0
 36 87  2  0  0  0  0
 37 76  1  0  0  0  0
 37 81  1  0  0  0  0
 37 88  2  0  0  0  0
 38 41  1  0  0  0  0
 39 48  1  0  0  0  0
 40 75  1  0  0  0  0
 41 43  1  0  0  0  0
 42 44  1  0  0  0  0
 42 45  1  0  0  0  0
 43 47  1  0  0  0  0
 44 49  1  0  0  0  0
 45 76  1  0  0  0  0
 46 49  1  0  0  0  0
 46 76  1  0  0  0  0
 47 79  1  0  0  0  0
 48 75  1  0  0  0  0
 49 74  1  0  0  0  0
 51 60  1  0  0  0  0
 52 70  1  0  0  0  0
 53 71  1  0  0  0  0
 54 71  1  0  0  0  0
 55 71  1  0  0  0  0
 56 82  1  0  0  0  0
 57 60  1  0  0  0  0
 58 83  1  0  0  0  0
 59 90  1  0  0  0  0
 61 62  1  0  0  0  0
 61 63  1  0  0  0  0
 62 64  1  0  0  0  0
 63 65  1  0  0  0  0
 64 66  1  0  0  0  0
 65 67  1  0  0  0  0
 66 68  1  0  0  0  0
 67 81  1  0  0  0  0
 68 83  1  0  0  0  0
 69 71  1  0  0  0  0
 69 80  1  0  0  0  0
 70 82  1  0  0  0  0
 72 74  1  0  0  0  0
M  CHG  2  82   1  83   1
M  ISO  4  37 100  59 101  81 100  90 101
M  END
> <Batch ID>
0027

> <Smiles>
CCCc1c(Cl)nc([101CH2:1][101O:1]c2ccc3c(c2)CN(C(=O)C(NC(=O)C(C)NC)C(C)(C)C)C(C(=O)NC2CCCc4ccccc42)C3)c(C)c1CNCCCCCCCC[100NH:0][100C:0](=O)N1CCCC(n2nc(-c3ccc(Oc4ccc(F)cc4F)cc3)c(C(N)=O)c2N)C1

> <Shape>
0.244

> <Color>
0.072

> <Negative vol penalty>
0.000

$$$$

  -OEChem-04052316303D

 87 96  0     1  0  0  0  0  0999 V2000
  -29.8960  -39.2525   24.4221 C   0  0  0  0  0  0  0  0  0  0  0  0
  -30.1060  -38.0401   23.7730 C   0  0  0  0  0  0  0  0  0  0  0  0
  -22.6300  -10.2947   20.6406 C   0  0  0  0  0  0  0  0  0  0  0  0
  -24.1668   -8.5137   20.0899 C   0  0  0  0  0  0  0  0  0  0  0  0
  -28.7605  -39.4320   25.2110 C   0  0  0  0  0  0  0  0  0  0  0  0
  -29.1812  -37.0060   23.9133 C   0  0  0  0  0  0  0  0  0  0  0  0
  -30.0835  -19.5656   20.3631 C   0  0  0  0  0  0  0  0  0  0  0  0
  -26.3505  -31.5170   20.2837 C   0  0  0  0  0  0  0  0  0  0  0  0
  -30.0334  -18.1779   20.2382 C   0  0  0  0  0  0  0  0  0  0  0  0
  -21.7830   -9.3735   21.2566 C   0  0  0  0  0  0  0  0  0  0  0  0
  -23.3198   -7.5924   20.7059 C   0  0  0  0  0  0  0  0  0  0  0  0
  -26.1234  -30.1470   20.4069 C   0  0  0  0  0  0  0  0  0  0  0  0
  -22.5923   -6.5964   23.8522 C   0  0  0  0  0  0  0  0  0  0  0  0
  -23.1717   -5.6502   24.6976 C   0  0  0  0  0  0  0  0  0  0  0  0
  -24.1584  -30.5979   21.7315 C   0  0  0  0  0  0  0  0  0  0  0  0
  -22.3179   -3.8762   23.2972 C   0  0  0  0  0  0  0  0  0  0  0  0
  -23.8218   -9.8649   20.0572 C   0  0  0  0  0  0  0  0  0  0  0  0
  -24.3936  -11.6520   18.3290 C   0  0  0  0  0  0  0  0  0  0  0  0
  -27.8164  -38.4029   25.3533 C   0  0  0  0  0  0  0  0  0  0  0  0
  -29.1000  -20.3785   19.7747 C   0  0  0  0  0  0  0  0  0  0  0  0
  -25.4879  -32.4391   20.8936 C   0  0  0  0  0  0  0  0  0  0  0  0
  -28.0327  -37.1714   24.7060 C   0  0  0  0  0  0  0  0  0  0  0  0
  -24.3753  -31.9792   21.6124 C   0  0  0  0  0  0  0  0  0  0  0  0
  -28.0559  -19.7777   19.0492 C   0  0  0  0  0  0  0  0  0  0  0  0
  -29.0014  -17.5840   19.5211 C   0  0  0  0  0  0  0  0  0  0  0  0
  -22.1279   -8.0223   21.2893 C   0  0  0  0  0  0  0  0  0  0  0  0
  -25.0289  -29.6872   21.1334 C   0  0  0  0  0  0  0  0  0  0  0  0
  -21.8757   -6.1825   22.7293 C   0  0  0  0  0  0  0  0  0  0  0  0
  -23.0345   -4.2901   24.4201 C   0  0  0  0  0  0  0  0  0  0  0  0
  -21.7385   -4.8224   22.4518 C   0  0  0  0  0  0  0  0  0  0  0  0
  -28.0200  -18.3782   18.9292 C   0  0  0  0  0  0  0  0  0  0  0  0
  -24.6969  -10.8160   19.4202 C   0  0  0  0  0  0  0  0  0  0  0  0
  -25.5499  -12.3590   18.1063 C   0  0  0  0  0  0  0  0  0  0  0  0
  -23.1755  -11.7783   17.5833 C   0  0  0  0  0  0  0  0  0  0  0  0
  -25.8118  -34.6729   23.1317 C   0  0  0  0  0  0  0  0  0  0  0  0
  -22.7430  -35.3612   22.3375 C   0  0  0  0  0  0  0  0  0  0  0  0
  -19.7852  -34.2957   21.0097 C   0  0  0  0  0  0  0  0  0  0  0  0
  -29.9100  -15.2777   19.9701 C   0  0  0  0  0  0  0  0  0  0  0  0
  -26.6282  -38.6274   26.2548 C   0  0  0  0  0  0  0  0  0  0  0  0
  -29.1927  -21.8761   19.9252 C   0  0  0  0  0  0  0  0  0  0  0  0
  -25.7316  -33.9142   20.7288 C   0  0  0  0  0  0  0  0  0  0  0  0
  -26.9807  -20.6033   18.3885 C   0  0  0  0  0  0  0  0  0  0  0  0
  -23.4078  -32.9284   22.2693 C   0  0  0  0  0  0  0  0  0  0  0  0
  -25.5078  -37.6109   26.0501 C   0  0  0  0  0  0  0  0  0  0  0  0
  -30.2087  -11.7298   19.9828 C   0  0  0  0  0  0  0  0  0  0  0  0
  -26.0745  -36.1958   25.9942 C   0  0  0  0  0  0  0  0  0  0  0  0
  -28.7764  -11.2445   19.7478 C   0  0  0  0  0  0  0  0  0  0  0  0
  -30.2471  -12.9813   20.8579 C   0  0  0  0  0  0  0  0  0  0  0  0
  -27.9673  -13.6028   20.1610 C   0  0  0  0  0  0  0  0  0  0  0  0
  -28.0220  -22.4746   20.6971 C   0  0  0  0  0  0  0  0  0  0  0  0
  -26.1299  -21.3857   19.3828 C   0  0  0  0  0  0  0  0  0  0  0  0
  -27.0399  -36.0344   24.8137 C   0  0  1  0  0  0  0  0  0  0  0  0
  -25.0787  -34.7536   21.8227 C   0  0  1  0  0  0  0  0  0  0  0  0
  -27.8736  -12.3820   19.2313 C   0  0  2  0  0  0  0  0  0  0  0  0
  -17.4477  -35.0725   20.5302 C   0  0  0  0  0  0  0  0  0  0  0  0
  -22.0477  -35.0873   25.2958 C   0  0  0  0  0  0  0  0  0  0  0  0
  -19.6363  -34.9245   24.6423 C   0  0  0  0  0  0  0  0  0  0  0  0
  -20.9274  -36.9973   24.1334 C   0  0  0  0  0  0  0  0  0  0  0  0
  -20.1147  -33.8647   18.1003 C   0  0  0  0  0  0  0  0  0  0  0  0
  -26.2694  -25.0436   20.2090 C   0  0  0  0  0  0  0  0  0  0  0  0
  -25.3223  -26.0326   20.8844 C   0  0  0  0  0  0  0  0  0  0  0  0
  -25.8246  -23.6089   20.4508 C   0  0  0  0  0  0  0  0  0  0  0  0
  -25.7298  -27.4743   20.6158 C   0  0  0  0  0  0  0  0  0  1  0  0
  -21.3866  -34.8942   22.8075 C   0  0  1  0  0  0  0  0  0  0  0  0
  -18.8585  -34.9213   19.9829 C   0  0  2  0  0  0  0  0  0  0  0  0
  -21.0186  -35.4576   24.2091 C   0  0  0  0  0  0  0  0  0  0  0  0
  -25.9479  -10.9757   19.8601 N   0  0  0  0  0  0  0  0  0  0  0  0
  -26.4409  -11.9203   19.0410 N   0  0  0  0  0  0  0  0  0  0  0  0
  -23.6925  -34.3610   22.0848 N   0  0  0  0  0  0  0  0  0  0  0  0
  -29.3718  -14.0171   20.3048 N   0  0  0  0  0  0  0  0  0  0  0  0
  -25.8813  -13.3069   17.2040 N   0  0  0  0  0  0  0  0  0  0  0  0
  -22.9930  -10.9623   16.4585 N   0  0  0  0  0  0  0  0  0  0  0  0
  -28.9896  -16.1705   19.4222 N   0  0  0  0  0  0  0  0  0  0  0  0
  -26.3045  -35.8850   23.5762 N   0  0  0  0  0  0  0  0  0  0  0  0
  -20.4437  -35.2521   21.7533 N   0  0  0  0  0  0  0  0  0  0  0  0
  -26.8147  -22.6683   19.8046 N   0  3  1  0  0  0  0  0  0  0  0  0
  -18.7989  -34.0769   18.7564 N   0  3  0  0  0  0  0  0  0  0  0  0
  -22.2826  -12.6023   17.8954 O   0  0  0  0  0  0  0  0  0  0  0  0
  -25.9212  -33.5913   23.6973 O   0  0  0  0  0  0  0  0  0  0  0  0
  -22.9502  -36.5686   22.1928 O   0  0  0  0  0  0  0  0  0  0  0  0
  -19.9095  -33.0801   21.1417 O   0  0  0  0  0  0  0  0  0  0  0  0
  -31.1056  -15.5362   20.1306 O   0  0  0  0  0  0  0  0  0  0  0  0
  -21.3018   -7.1231   21.8906 O   0  0  0  0  0  0  0  0  0  0  0  0
  -24.8036  -28.3406   21.2567 O   0  0  0  0  0  0  0  0  0  1  0  0
  -23.5922   -3.3816   25.2312 F   0  0  0  0  0  0  0  0  0  0  0  0
  -21.0522   -4.4187   21.3739 F   0  0  0  0  0  0  0  0  0  0  0  0
  -26.7504  -17.5552   18.0613 Cl  0  0  0  0  0  0  0  0  0  0  0  0
  1  2  1  0  0  0  0
  1  5  2  0  0  0  0
  2  6  2  0  0  0  0
  3 10  2  0  0  0  0
  3 17  1  0  0  0  0
  4 11  1  0  0  0  0
  4 17  2  0  0  0  0
  5 19  1  0  0  0  0
  6 22  1  0  0  0  0
  7  9  2  0  0  0  0
  7 20  1  0  0  0  0
  8 12  2  0  0  0  0
  8 21  1  0  0  0  0
  9 25  1  0  0  0  0
 10 26  1  0  0  0  0
 11 26  2  0  0  0  0
 12 27  1  0  0  0  0
 13 14  2  0  0  0  0
 13 28  1  0  0  0  0
 14 29  1  0  0  0  0
 15 23  1  0  0  0  0
 15 27  2  0  0  0  0
 16 29  2  0  0  0  0
 16 30  1  0  0  0  0
 17 32  1  0  0  0  0
 18 32  1  0  0  0  0
 18 33  2  0  0  0  0
 18 34  1  0  0  0  0
 19 22  2  0  0  0  0
 19 39  1  0  0  0  0
 20 24  2  0  0  0  0
 20 40  1  0  0  0  0
 21 23  2  0  0  0  0
 21 41  1  0  0  0  0
 22 52  1  0  0  0  0
 23 43  1  0  0  0  0
 24 31  1  0  0  0  0
 24 42  1  0  0  0  0
 25 31  2  0  0  0  0
 25 73  1  0  0  0  0
 26 83  1  0  0  0  0
 27 84  1  0  0  0  0
 28 30  2  0  0  0  0
 28 83  1  0  0  0  0
 29 85  1  0  0  0  0
 30 86  1  0  0  0  0
 31 87  1  0  0  0  0
 32 67  2  0  0  0  0
 33 68  1  0  0  0  0
 33 71  1  0  0  0  0
 34 72  1  0  0  0  0
 34 78  2  0  0  0  0
 35 53  1  0  0  0  0
 35 74  1  0  0  0  0
 35 79  2  0  0  0  0
 36 64  1  0  0  0  0
 36 69  1  0  0  0  0
 36 80  2  0  0  0  0
 37 65  1  0  0  0  0
 37 75  1  0  0  0  0
 37 81  2  0  0  0  0
 38 70  1  0  0  0  0
 38 73  1  0  0  0  0
 38 82  2  0  0  0  0
 39 44  1  0  0  0  0
 40 50  1  0  0  0  0
 41 53  1  0  0  0  0
 42 51  1  0  0  0  0
 43 69  1  0  0  0  0
 44 46  1  0  0  0  0
 45 47  1  0  0  0  0
 45 48  1  0  0  0  0
 46 52  1  0  0  0  0
 47 54  1  0  0  0  0
 48 70  1  0  0  0  0
 49 54  1  0  0  0  0
 49 70  1  0  0  0  0
 50 76  1  0  0  0  0
 51 76  1  0  0  0  0
 52 74  1  0  0  0  0
 53 69  1  0  0  0  0
 54 68  1  0  0  0  0
 55 65  1  0  0  0  0
 56 66  1  0  0  0  0
 57 66  1  0  0  0  0
 58 66  1  0  0  0  0
 59 77  1  0  0  0  0
 60 61  1  0  0  0  0
 60 62  1  0  0  0  0
 61 63  1  0  0  0  0
 62 76  1  0  0  0  0
 63 84  1  0  0  0  0
 64 66  1  0  0  0  0
 64 75  1  0  0  0  0
 65 77  1  0  0  0  0
 67 68  1  0  0  0  0
M  CHG  2  76   1  77   1
M  ISO  4  38 100  63 101  73 100  84 101
M  END
> <Batch ID>
0027

> <Smiles>
CNC(C)C(=O)NC(C(=O)N1Cc2cc([101O:1][101CH2:1]CCCN3CCc4ccc([100NH:0][100C:0](=O)N5CCCC(n6nc(-c7ccc(Oc8ccc(F)cc8F)cc7)c(C(N)=O)c6N)C5)c(Cl)c4CC3)ccc2CC1C(=O)NC1CCCc2ccccc21)C(C)(C)C

> <Shape>
0.260

> <Color>
0.072

> <Negative vol penalty>
0.000

$$$$

  -OEChem-04052316303D

 82 90  0     1  0  0  0  0  0999 V2000
  -20.5430  -25.4941   24.9880 C   0  0  0  0  0  0  0  0  0  0  0  0
  -21.8562  -25.1288   24.7097 C   0  0  0  0  0  0  0  0  0  0  0  0
  -24.7617  -10.5455   23.0361 C   0  0  0  0  0  0  0  0  0  0  0  0
  -24.5830  -12.2419   24.7470 C   0  0  0  0  0  0  0  0  0  0  0  0
  -19.7434  -26.0360   23.9825 C   0  0  0  0  0  0  0  0  0  0  0  0
  -22.3703  -25.3042   23.4254 C   0  0  0  0  0  0  0  0  0  0  0  0
  -28.1190  -26.7984   21.9334 C   0  0  0  0  0  0  0  0  0  0  0  0
  -24.3718   -9.5743   23.9583 C   0  0  0  0  0  0  0  0  0  0  0  0
  -24.1930  -11.2708   25.6692 C   0  0  0  0  0  0  0  0  0  0  0  0
  -29.2094  -26.0345   21.5197 C   0  0  0  0  0  0  0  0  0  0  0  0
  -21.4959   -8.4889   25.3668 C   0  0  0  0  0  0  0  0  0  0  0  0
  -20.5417   -7.5558   24.9612 C   0  0  0  0  0  0  0  0  0  0  0  0
  -28.6765  -26.5304   19.2198 C   0  0  0  0  0  0  0  0  0  0  0  0
  -22.1170   -5.7692   25.3657 C   0  0  0  0  0  0  0  0  0  0  0  0
  -24.8674  -11.8793   23.4305 C   0  0  0  0  0  0  0  0  0  0  0  0
  -24.4347  -13.6423   21.6383 C   0  0  0  0  0  0  0  0  0  0  0  0
  -20.2510  -26.2270   22.6877 C   0  0  0  0  0  0  0  0  0  0  0  0
  -27.2913  -27.4262   20.9914 C   0  0  0  0  0  0  0  0  0  0  0  0
  -21.5764  -25.8478   22.4013 C   0  0  0  0  0  0  0  0  0  0  0  0
  -27.5777  -27.3038   19.6242 C   0  0  0  0  0  0  0  0  0  0  0  0
  -27.2013  -20.5391   20.1128 C   0  0  0  0  0  0  0  0  0  0  0  0
  -24.0874   -9.9370   25.2748 C   0  0  0  0  0  0  0  0  0  0  0  0
  -29.4867  -25.8980   20.1626 C   0  0  0  0  0  0  0  0  0  0  0  0
  -22.7606   -8.0621   25.7718 C   0  0  0  0  0  0  0  0  0  0  0  0
  -20.8522   -6.1960   24.9607 C   0  0  0  0  0  0  0  0  0  0  0  0
  -23.0712   -6.7023   25.7713 C   0  0  0  0  0  0  0  0  0  0  0  0
  -25.2707  -12.8828   22.4785 C   0  0  0  0  0  0  0  0  0  0  0  0
  -28.4403  -19.9314   20.1053 C   0  0  0  0  0  0  0  0  0  0  0  0
  -27.1610  -21.8190   19.5987 C   0  0  0  0  0  0  0  0  0  0  0  0
  -25.2961  -14.4461   20.9324 C   0  0  0  0  0  0  0  0  0  0  0  0
  -29.3908  -21.7670   19.1597 C   0  0  0  0  0  0  0  0  0  0  0  0
  -23.0070  -13.6230   21.5076 C   0  0  0  0  0  0  0  0  0  0  0  0
  -24.2191  -27.2075   20.2058 C   0  0  0  0  0  0  0  0  0  0  0  0
  -24.9338  -29.7199   18.2824 C   0  0  0  0  0  0  0  0  0  0  0  0
  -27.3051  -31.4640   16.5556 C   0  0  0  0  0  0  0  0  0  0  0  0
  -29.7071  -17.8361   20.6980 C   0  0  0  0  0  0  0  0  0  0  0  0
  -19.3340  -26.7725   21.6217 C   0  0  0  0  0  0  0  0  0  0  0  0
  -26.1347  -28.2686   21.4549 C   0  0  0  0  0  0  0  0  0  0  0  0
  -26.7320  -27.9743   18.5737 C   0  0  0  0  0  0  0  0  0  0  0  0
  -20.0710  -27.2732   20.3822 C   0  0  0  0  0  0  0  0  0  0  0  0
  -30.3427  -14.3357   20.5560 C   0  0  0  0  0  0  0  0  0  0  0  0
  -21.1193  -26.2580   19.9379 C   0  0  0  0  0  0  0  0  0  0  0  0
  -29.0110  -13.7081   20.9744 C   0  0  0  0  0  0  0  0  0  0  0  0
  -30.6334  -15.6191   21.3319 C   0  0  0  0  0  0  0  0  0  0  0  0
  -28.2291  -15.9939   21.7166 C   0  0  0  0  0  0  0  0  0  0  0  0
  -22.1778  -26.0456   21.0268 C   0  0  1  0  0  0  0  0  0  0  0  0
  -25.0565  -28.4414   20.3895 C   0  0  1  0  0  0  0  0  0  0  0  0
  -27.8619  -14.7336   20.9163 C   0  0  2  0  0  0  0  0  0  0  0  0
  -25.9872  -19.8572   20.6424 C   0  0  0  0  0  0  0  0  0  0  0  0
  -27.5805  -33.4502   15.0468 C   0  0  0  0  0  0  0  0  0  0  0  0
  -23.7574  -28.1201   15.9658 C   0  0  0  0  0  0  0  0  0  0  0  0
  -24.8969  -29.6968   14.3897 C   0  0  0  0  0  0  0  0  0  0  0  0
  -23.1608  -30.5487   15.9655 C   0  0  0  0  0  0  0  0  0  0  0  0
  -29.1183  -32.8112   18.4677 C   0  0  0  0  0  0  0  0  0  0  0  0
  -30.6205  -22.4561   18.6244 C   0  0  0  0  0  0  0  0  0  0  0  0
  -31.5591  -22.9762   19.7154 C   0  0  0  0  0  0  0  0  0  0  0  0
  -30.9310  -24.0571   20.5874 C   0  0  0  0  0  0  0  0  0  1  0  0
  -25.4258  -29.8740   16.8636 C   0  0  1  0  0  0  0  0  0  0  0  0
  -27.6089  -32.9496   16.4825 C   0  0  2  0  0  0  0  0  0  0  0  0
  -24.3252  -29.5455   15.8156 C   0  0  0  0  0  0  0  0  0  0  0  0
  -26.5640  -13.1776   22.3219 N   0  0  0  0  0  0  0  0  0  0  0  0
  -29.5602  -20.5183   19.6346 N   0  0  0  0  0  0  0  0  0  0  0  0
  -28.2405  -22.4658   19.1120 N   0  0  0  0  0  0  0  0  0  0  0  0
  -26.5471  -14.1312   21.3752 N   0  0  0  0  0  0  0  0  0  0  0  0
  -25.6086  -28.7821   19.0768 N   0  0  0  0  0  0  0  0  0  0  0  0
  -29.5031  -16.5445   21.2282 N   0  0  0  0  0  0  0  0  0  0  0  0
  -25.0980  -15.3845   19.9823 N   0  0  0  0  0  0  0  0  0  0  0  0
  -22.2747  -12.7366   22.3090 N   0  0  0  0  0  0  0  0  0  0  0  0
  -28.5534  -18.6153   20.6181 N   0  0  0  0  0  0  0  0  0  0  0  0
  -23.1183  -27.1455   21.0389 N   0  0  0  0  0  0  0  0  0  0  0  0
  -25.9626  -31.2268   16.7624 N   0  0  0  0  0  0  0  0  0  0  0  0
  -28.9570  -33.2312   17.0519 N   0  3  0  0  0  0  0  0  0  0  0  0
  -22.4000  -14.3581   20.6923 O   0  0  0  0  0  0  0  0  0  0  0  0
  -24.5464  -26.3742   19.3691 O   0  0  0  0  0  0  0  0  0  0  0  0
  -23.9902  -30.4113   18.6737 O   0  0  0  0  0  0  0  0  0  0  0  0
  -28.1714  -30.6003   16.4372 O   0  0  0  0  0  0  0  0  0  0  0  0
  -30.8180  -18.2127   20.3160 O   0  0  0  0  0  0  0  0  0  0  0  0
  -23.7066   -8.9897   26.1749 O   0  0  0  0  0  0  0  0  0  0  0  0
  -30.5500  -25.1525   19.7560 O   0  0  0  0  0  0  0  0  0  1  0  0
  -19.9353   -5.2999   24.5727 F   0  0  0  0  0  0  0  0  0  0  0  0
  -24.2841   -6.2862   26.1604 F   0  0  0  0  0  0  0  0  0  0  0  0
  -25.7107  -22.7392   19.5233 Cl  0  0  0  0  0  0  0  0  0  0  0  0
  1  2  1  0  0  0  0
  1  5  2  0  0  0  0
  2  6  2  0  0  0  0
  3  8  2  0  0  0  0
  3 15  1  0  0  0  0
  4  9  1  0  0  0  0
  4 15  2  0  0  0  0
  5 17  1  0  0  0  0
  6 19  1  0  0  0  0
  7 10  2  0  0  0  0
  7 18  1  0  0  0  0
  8 22  1  0  0  0  0
  9 22  2  0  0  0  0
 10 23  1  0  0  0  0
 11 12  2  0  0  0  0
 11 24  1  0  0  0  0
 12 25  1  0  0  0  0
 13 20  1  0  0  0  0
 13 23  2  0  0  0  0
 14 25  2  0  0  0  0
 14 26  1  0  0  0  0
 15 27  1  0  0  0  0
 16 27  1  0  0  0  0
 16 30  2  0  0  0  0
 16 32  1  0  0  0  0
 17 19  2  0  0  0  0
 17 37  1  0  0  0  0
 18 20  2  0  0  0  0
 18 38  1  0  0  0  0
 19 46  1  0  0  0  0
 20 39  1  0  0  0  0
 21 28  2  0  0  0  0
 21 29  1  0  0  0  0
 21 49  1  0  0  0  0
 22 78  1  0  0  0  0
 23 79  1  0  0  0  0
 24 26  2  0  0  0  0
 24 78  1  0  0  0  0
 25 80  1  0  0  0  0
 26 81  1  0  0  0  0
 27 61  2  0  0  0  0
 28 62  1  0  0  0  0
 28 69  1  0  0  0  0
 29 63  2  0  0  0  0
 29 82  1  0  0  0  0
 30 64  1  0  0  0  0
 30 67  1  0  0  0  0
 31 55  1  0  0  0  0
 31 62  2  0  0  0  0
 31 63  1  0  0  0  0
 32 68  1  0  0  0  0
 32 73  2  0  0  0  0
 33 47  1  0  0  0  0
 33 70  1  0  0  0  0
 33 74  2  0  0  0  0
 34 58  1  0  0  0  0
 34 65  1  0  0  0  0
 34 75  2  0  0  0  0
 35 59  1  0  0  0  0
 35 71  1  0  0  0  0
 35 76  2  0  0  0  0
 36 66  1  0  0  0  0
 36 69  1  0  0  0  0
 36 77  2  0  0  0  0
 37 40  1  0  0  0  0
 38 47  1  0  0  0  0
 39 65  1  0  0  0  0
 40 42  1  0  0  0  0
 41 43  1  0  0  0  0
 41 44  1  0  0  0  0
 42 46  1  0  0  0  0
 43 48  1  0  0  0  0
 44 66  1  0  0  0  0
 45 48  1  0  0  0  0
 45 66  1  0  0  0  0
 46 70  1  0  0  0  0
 47 65  1  0  0  0  0
 48 64  1  0  0  0  0
 50 59  1  0  0  0  0
 51 60  1  0  0  0  0
 52 60  1  0  0  0  0
 53 60  1  0  0  0  0
 54 72  1  0  0  0  0
 55 56  1  0  0  0  0
 56 57  1  0  0  0  0
 57 79  1  0  0  0  0
 58 60  1  0  0  0  0
 58 71  1  0  0  0  0
 59 72  1  0  0  0  0
 61 64  1  0  0  0  0
M  CHG  1  72   1
M  ISO  4  36 100  57 101  69 100  79 101
M  END
> <Batch ID>
0027

> <Smiles>
CNC(C)C(=O)NC(C(=O)N1Cc2cc([101O:1][101CH2:1]CCc3nc(Cl)c(C)c([100NH:0][100C:0](=O)N4CCCC(n5nc(-c6ccc(Oc7ccc(F)cc7F)cc6)c(C(N)=O)c5N)C4)n3)ccc2CC1C(=O)NC1CCCc2ccccc21)C(C)(C)C

> <Shape>
0.227

> <Color>
0.140

> <Negative vol penalty>
0.000

$$$$

  -OEChem-04052316303D

 93102  0     1  0  0  0  0  0999 V2000
  -19.7035  -27.7441   26.8812 C   0  0  0  0  0  0  0  0  0  0  0  0
  -20.8947  -27.3120   26.3071 C   0  0  0  0  0  0  0  0  0  0  0  0
  -24.7909   -8.2314   22.3620 C   0  0  0  0  0  0  0  0  0  0  0  0
  -23.6191   -9.9647   21.1538 C   0  0  0  0  0  0  0  0  0  0  0  0
  -18.7288  -28.3498   26.0894 C   0  0  0  0  0  0  0  0  0  0  0  0
  -21.1114  -27.4842   24.9404 C   0  0  0  0  0  0  0  0  0  0  0  0
  -26.4452  -28.6859   22.1813 C   0  0  0  0  0  0  0  0  0  0  0  0
  -23.7248   -7.3587   22.1439 C   0  0  0  0  0  0  0  0  0  0  0  0
  -22.5531   -9.0919   20.9357 C   0  0  0  0  0  0  0  0  0  0  0  0
  -27.3655  -27.8710   21.5235 C   0  0  0  0  0  0  0  0  0  0  0  0
  -20.6523   -6.8076   23.4402 C   0  0  0  0  0  0  0  0  0  0  0  0
  -20.2093   -6.0443   24.5202 C   0  0  0  0  0  0  0  0  0  0  0  0
  -26.3518  -28.4419   19.4104 C   0  0  0  0  0  0  0  0  0  0  0  0
  -28.3654  -17.6807   15.9017 C   0  0  0  0  0  0  0  0  0  0  0  0
  -20.7126   -4.0222   23.2976 C   0  0  0  0  0  0  0  0  0  0  0  0
  -24.7380   -9.5344   21.8670 C   0  0  0  0  0  0  0  0  0  0  0  0
  -26.3468  -10.8641   23.3337 C   0  0  0  0  0  0  0  0  0  0  0  0
  -18.9376  -28.5383   24.7141 C   0  0  0  0  0  0  0  0  0  0  0  0
  -25.4627  -29.3776   21.4583 C   0  0  0  0  0  0  0  0  0  0  0  0
  -20.1380  -28.0918   24.1292 C   0  0  0  0  0  0  0  0  0  0  0  0
  -25.4217  -29.2670   20.0611 C   0  0  0  0  0  0  0  0  0  0  0  0
  -28.2405  -17.6037   13.4901 C   0  0  0  0  0  0  0  0  0  0  0  0
  -28.6872  -16.3237   15.9284 C   0  0  0  0  0  0  0  0  0  0  0  0
  -22.6060   -7.7889   21.4308 C   0  0  0  0  0  0  0  0  0  0  0  0
  -27.3171  -27.7466   20.1382 C   0  0  0  0  0  0  0  0  0  0  0  0
  -21.1254   -6.1783   22.2887 C   0  0  0  0  0  0  0  0  0  0  0  0
  -20.2395   -4.6516   24.4490 C   0  0  0  0  0  0  0  0  0  0  0  0
  -28.1420  -18.3207   14.6826 C   0  0  0  0  0  0  0  0  0  0  0  0
  -21.1556   -4.7856   22.2175 C   0  0  0  0  0  0  0  0  0  0  0  0
  -28.5623  -16.2467   13.5168 C   0  0  0  0  0  0  0  0  0  0  0  0
  -28.7857  -15.6067   14.7359 C   0  0  0  0  0  0  0  0  0  0  0  0
  -25.8386  -10.4365   22.0924 C   0  0  0  0  0  0  0  0  0  0  0  0
  -27.3817  -11.7069   23.0091 C   0  0  0  0  0  0  0  0  0  0  0  0
  -25.9216  -10.5293   24.6613 C   0  0  0  0  0  0  0  0  0  0  0  0
  -22.2848  -29.3461   21.3959 C   0  0  0  0  0  0  0  0  0  0  0  0
  -22.6880  -31.8530   19.3772 C   0  0  0  0  0  0  0  0  0  0  0  0
  -24.8830  -32.7062   16.6438 C   0  0  0  0  0  0  0  0  0  0  0  0
  -28.1200  -14.6106   17.6424 C   0  0  0  0  0  0  0  0  0  0  0  0
  -17.8352  -29.1553   23.8903 C   0  0  0  0  0  0  0  0  0  0  0  0
  -24.4940  -30.2736   22.1802 C   0  0  0  0  0  0  0  0  0  0  0  0
  -24.3994  -30.0045   19.2369 C   0  0  0  0  0  0  0  0  0  0  0  0
  -18.2979  -29.6390   22.5184 C   0  0  0  0  0  0  0  0  0  0  0  0
  -30.4125  -12.1448   19.2443 C   0  0  0  0  0  0  0  0  0  0  0  0
  -19.1554  -28.5762   21.8388 C   0  0  0  0  0  0  0  0  0  0  0  0
  -31.8884  -17.7628   18.3527 C   0  0  0  0  0  0  0  0  0  0  0  0
  -30.0165  -17.9755   20.0375 C   0  0  0  0  0  0  0  0  0  0  0  0
  -29.6986  -11.7313   20.5324 C   0  0  0  0  0  0  0  0  0  0  0  0
  -30.9413  -17.0496   17.3872 C   0  0  0  0  0  0  0  0  0  0  0  0
  -29.0663  -17.2619   19.0752 C   0  0  0  0  0  0  0  0  0  0  0  0
  -30.1123  -13.5865   18.8515 C   0  0  0  0  0  0  0  0  0  0  0  0
  -27.7606  -12.9718   19.4548 C   0  0  0  0  0  0  0  0  0  0  0  0
  -20.4203  -28.2833   22.6548 C   0  0  1  0  0  0  0  0  0  0  0  0
  -23.2132  -30.5275   21.3913 C   0  0  1  0  0  0  0  0  0  0  0  0
  -31.1623  -18.7060   19.3226 C   0  0  0  0  0  0  0  0  0  0  0  0
  -28.3944  -12.5136   20.7751 C   0  0  1  0  0  0  0  0  0  0  0  0
  -29.8231  -16.3212   18.1359 C   0  0  0  0  0  0  0  0  0  0  0  0
  -28.0003  -18.2887   12.1870 C   0  0  0  0  0  0  0  0  0  0  0  0
  -25.6291  -34.9442   15.7881 C   0  0  0  0  0  0  0  0  0  0  0  0
  -20.3454  -31.5706   17.4426 C   0  0  0  0  0  0  0  0  0  0  0  0
  -21.7731  -32.6150   15.6708 C   0  0  0  0  0  0  0  0  0  0  0  0
  -21.1906  -33.9075   17.7234 C   0  0  0  0  0  0  0  0  0  0  0  0
  -27.7409  -31.9894   16.9220 C   0  0  0  0  0  0  0  0  0  0  0  0
  -30.6723  -19.9741   18.6183 C   0  0  0  0  0  0  0  0  0  0  0  0
  -30.3684  -21.0886   19.6193 C   0  0  0  0  0  0  0  0  0  0  0  0
  -29.8471  -22.3424   18.9152 C   0  0  0  0  0  0  0  0  0  0  0  0
  -29.5747  -23.4685   19.9138 C   0  0  0  0  0  0  0  0  0  0  0  0
  -29.0227  -24.7094   19.2155 C   0  0  0  0  0  0  0  0  0  0  0  0
  -28.7095  -25.8199   20.2082 C   0  0  0  0  0  0  0  0  0  1  0  0
  -22.8513  -32.0080   17.8844 C   0  0  1  0  0  0  0  0  0  0  0  0
  -25.9872  -33.7479   16.6561 C   0  0  2  0  0  0  0  0  0  0  0  0
  -21.5487  -32.5018   17.1938 C   0  0  0  0  0  0  0  0  0  0  0  0
  -26.4963  -10.9643   21.0566 N   0  0  0  0  0  0  0  0  0  0  0  0
  -27.4283  -11.7322   21.6462 N   0  0  0  0  0  0  0  0  0  0  0  0
  -23.4700  -30.8633   19.9894 N   0  0  0  0  0  0  0  0  0  0  0  0
  -28.6693  -13.8112   18.6666 N   0  0  0  0  0  0  0  0  0  0  0  0
  -28.2470  -12.4215   23.7594 N   0  0  0  0  0  0  0  0  0  0  0  0
  -24.8423   -9.6484   24.8151 N   0  0  0  0  0  0  0  0  0  0  0  0
  -21.4017  -29.3287   22.4586 N   0  0  0  0  0  0  0  0  0  0  0  0
  -24.0008  -32.8847   17.6884 N   0  0  0  0  0  0  0  0  0  0  0  0
  -28.9128  -15.6941   17.2085 N   0  0  0  0  0  0  0  0  0  0  0  0
  -27.2586  -33.1611   16.1464 N   0  3  0  0  0  0  0  0  0  0  0  0
  -26.4715  -11.0103   25.6810 O   0  0  0  0  0  0  0  0  0  0  0  0
  -22.3630  -28.5128   20.5008 O   0  0  0  0  0  0  0  0  0  0  0  0
  -21.9009  -32.5879   19.9789 O   0  0  0  0  0  0  0  0  0  0  0  0
  -24.8083  -31.8249   15.7905 O   0  0  0  0  0  0  0  0  0  0  0  0
  -27.0032  -14.3761   17.1651 O   0  0  0  0  0  0  0  0  0  0  0  0
  -21.5656   -6.9375   21.2176 O   0  0  0  0  0  0  0  0  0  0  0  0
  -28.2138  -26.9513   19.4937 O   0  0  0  0  0  0  0  0  0  1  0  0
  -19.8154   -3.9186   25.4869 F   0  0  0  0  0  0  0  0  0  0  0  0
  -27.8327  -19.6249   14.6671 F   0  0  0  0  0  0  0  0  0  0  0  0
  -21.6102   -4.1753   21.1144 F   0  0  0  0  0  0  0  0  0  0  0  0
  -28.6542  -15.5640   12.3655 F   0  0  0  0  0  0  0  0  0  0  0  0
  -29.1827  -13.9243   14.7309 Cl  0  0  0  0  0  0  0  0  0  0  0  0
  1  2  1  0  0  0  0
  1  5  2  0  0  0  0
  2  6  2  0  0  0  0
  3  8  2  0  0  0  0
  3 16  1  0  0  0  0
  4  9  1  0  0  0  0
  4 16  2  0  0  0  0
  5 18  1  0  0  0  0
  6 20  1  0  0  0  0
  7 10  2  0  0  0  0
  7 19  1  0  0  0  0
  8 24  1  0  0  0  0
  9 24  2  0  0  0  0
 10 25  1  0  0  0  0
 11 12  2  0  0  0  0
 11 26  1  0  0  0  0
 12 27  1  0  0  0  0
 13 21  1  0  0  0  0
 13 25  2  0  0  0  0
 14 23  1  0  0  0  0
 14 28  2  0  0  0  0
 15 27  2  0  0  0  0
 15 29  1  0  0  0  0
 16 32  1  0  0  0  0
 17 32  1  0  0  0  0
 17 33  2  0  0  0  0
 17 34  1  0  0  0  0
 18 20  2  0  0  0  0
 18 39  1  0  0  0  0
 19 21  2  0  0  0  0
 19 40  1  0  0  0  0
 20 52  1  0  0  0  0
 21 41  1  0  0  0  0
 22 28  1  0  0  0  0
 22 30  2  0  0  0  0
 22 57  1  0  0  0  0
 23 31  2  0  0  0  0
 23 80  1  0  0  0  0
 24 87  1  0  0  0  0
 25 88  1  0  0  0  0
 26 29  2  0  0  0  0
 26 87  1  0  0  0  0
 27 89  1  0  0  0  0
 28 90  1  0  0  0  0
 29 91  1  0  0  0  0
 30 31  1  0  0  0  0
 30 92  1  0  0  0  0
 31 93  1  0  0  0  0
 32 72  2  0  0  0  0
 33 73  1  0  0  0  0
 33 76  1  0  0  0  0
 34 77  1  0  0  0  0
 34 82  2  0  0  0  0
 35 53  1  0  0  0  0
 35 78  1  0  0  0  0
 35 83  2  0  0  0  0
 36 69  1  0  0  0  0
 36 74  1  0  0  0  0
 36 84  2  0  0  0  0
 37 70  1  0  0  0  0
 37 79  1  0  0  0  0
 37 85  2  0  0  0  0
 38 75  1  0  0  0  0
 38 80  1  0  0  0  0
 38 86  2  0  0  0  0
 39 42  1  0  0  0  0
 40 53  1  0  0  0  0
 41 74  1  0  0  0  0
 42 44  1  0  0  0  0
 43 47  1  0  0  0  0
 43 50  1  0  0  0  0
 44 52  1  0  0  0  0
 45 48  1  0  0  0  0
 45 54  1  0  0  0  0
 46 49  1  0  0  0  0
 46 54  1  0  0  0  0
 47 55  1  0  0  0  0
 48 56  1  0  0  0  0
 49 56  1  0  0  0  0
 50 75  1  0  0  0  0
 51 55  1  0  0  0  0
 51 75  1  0  0  0  0
 52 78  1  0  0  0  0
 53 74  1  0  0  0  0
 54 63  1  0  0  0  0
 55 73  1  0  0  0  0
 56 80  1  0  0  0  0
 58 70  1  0  0  0  0
 59 71  1  0  0  0  0
 60 71  1  0  0  0  0
 61 71  1  0  0  0  0
 62 81  1  0  0  0  0
 63 64  1  0  0  0  0
 64 65  1  0  0  0  0
 65 66  1  0  0  0  0
 66 67  1  0  0  0  0
 67 68  1  0  0  0  0
 68 88  1  0  0  0  0
 69 71  1  0  0  0  0
 69 79  1  0  0  0  0
 70 81  1  0  0  0  0
 72 73  1  0  0  0  0
M  CHG  1  81   1
M  ISO  4  38 100  68 101  80 100  88 101
M  END
> <Batch ID>
0027

> <Smiles>
CNC(C)C(=O)NC(C(=O)N1Cc2cc([101O:1][101CH2:1]CCCCCC3CCC([100N:0](c4cc(F)c(C)c(F)c4Cl)[100C:0](=O)N4CCCC(n5nc(-c6ccc(Oc7ccc(F)cc7F)cc6)c(C(N)=O)c5N)C4)CC3)ccc2CC1C(=O)NC1CCCc2ccccc21)C(C)(C)C

> <Shape>
0.252

> <Color>
0.132

> <Negative vol penalty>
0.000

$$$$

  -OEChem-04052316303D

 85 93  0     1  0  0  0  0  0999 V2000
  -22.7595   -9.5239   20.0219 C   0  0  0  0  0  0  0  0  0  0  0  0
  -21.9673  -10.6090   20.3832 C   0  0  0  0  0  0  0  0  0  0  0  0
  -27.2063  -26.7001   19.5243 C   0  0  0  0  0  0  0  0  0  0  0  0
  -28.6033  -28.5637   20.1666 C   0  0  0  0  0  0  0  0  0  0  0  0
  -24.1474   -9.6536   19.9957 C   0  0  0  0  0  0  0  0  0  0  0  0
  -22.5627  -11.8242   20.7194 C   0  0  0  0  0  0  0  0  0  0  0  0
  -20.3700  -17.4321   19.6021 C   0  0  0  0  0  0  0  0  0  0  0  0
  -28.3349  -25.8856   19.4327 C   0  0  0  0  0  0  0  0  0  0  0  0
  -29.7320  -27.7492   20.0750 C   0  0  0  0  0  0  0  0  0  0  0  0
  -19.6732  -18.3422   20.3959 C   0  0  0  0  0  0  0  0  0  0  0  0
  -30.8879  -23.4077   18.6804 C   0  0  0  0  0  0  0  0  0  0  0  0
  -31.0000  -22.5751   17.5670 C   0  0  0  0  0  0  0  0  0  0  0  0
  -21.7458  -19.4563   20.9273 C   0  0  0  0  0  0  0  0  0  0  0  0
  -19.8691  -29.0658   22.7814 C   0  0  0  0  0  0  0  0  0  0  0  0
  -19.1234  -27.0376   23.8617 C   0  0  0  0  0  0  0  0  0  0  0  0
  -30.9558  -24.5075   16.1175 C   0  0  0  0  0  0  0  0  0  0  0  0
  -27.3405  -28.0392   19.8913 C   0  0  0  0  0  0  0  0  0  0  0  0
  -25.2649  -29.1912   18.9574 C   0  0  0  0  0  0  0  0  0  0  0  0
  -24.7597  -10.8738   20.3225 C   0  0  0  0  0  0  0  0  0  0  0  0
  -21.7635  -17.5209   19.4734 C   0  0  0  0  0  0  0  0  0  0  0  0
  -23.9603  -11.9700   20.6988 C   0  0  0  0  0  0  0  0  0  0  0  0
  -22.4576  -18.5477   20.1292 C   0  0  0  0  0  0  0  0  0  0  0  0
  -19.5652  -28.3581   23.9443 C   0  0  0  0  0  0  0  0  0  0  0  0
  -19.7311  -28.4532   21.5358 C   0  0  0  0  0  0  0  0  0  0  0  0
  -18.9854  -26.4249   22.6161 C   0  0  0  0  0  0  0  0  0  0  0  0
  -29.5977  -26.4101   19.7080 C   0  0  0  0  0  0  0  0  0  0  0  0
  -20.3614  -19.3527   21.0610 C   0  0  0  0  0  0  0  0  0  0  0  0
  -30.8097  -24.7902   18.5124 C   0  0  0  0  0  0  0  0  0  0  0  0
  -31.0339  -23.1249   16.2855 C   0  0  0  0  0  0  0  0  0  0  0  0
  -30.8437  -25.3401   17.2310 C   0  0  0  0  0  0  0  0  0  0  0  0
  -19.2893  -27.1327   21.4532 C   0  0  0  0  0  0  0  0  0  0  0  0
  -26.1751  -28.8812   19.9856 C   0  0  0  0  0  0  0  0  0  0  0  0
  -24.3447  -30.0198   19.5517 C   0  0  0  0  0  0  0  0  0  0  0  0
  -25.2522  -28.7680   17.5876 C   0  0  0  0  0  0  0  0  0  0  0  0
  -24.2083  -15.6221   20.1956 C   0  0  0  0  0  0  0  0  0  0  0  0
  -25.9285  -17.9022   18.6581 C   0  0  0  0  0  0  0  0  0  0  0  0
  -26.1715  -21.1474   17.6300 C   0  0  0  0  0  0  0  0  0  0  0  0
  -22.5580  -30.7270   25.2225 C   0  0  0  0  0  0  0  0  0  0  0  0
  -26.2659  -10.9523   20.3255 C   0  0  0  0  0  0  0  0  0  0  0  0
  -22.4972  -16.5477   18.5920 C   0  0  0  0  0  0  0  0  0  0  0  0
  -23.9512  -18.6986   20.0076 C   0  0  0  0  0  0  0  0  0  0  0  0
  -26.8013  -12.3819   20.3331 C   0  0  0  0  0  0  0  0  0  0  0  0
  -23.9191  -33.2234   23.0797 C   0  0  0  0  0  0  0  0  0  0  0  0
  -26.0639  -13.2225   21.3706 C   0  0  0  0  0  0  0  0  0  0  0  0
  -24.5695  -32.4216   21.9509 C   0  0  0  0  0  0  0  0  0  0  0  0
  -24.0683  -32.5227   24.4283 C   0  0  0  0  0  0  0  0  0  0  0  0
  -24.2445  -30.3246   23.3277 C   0  0  0  0  0  0  0  0  0  0  0  0
  -24.5678  -13.3117   21.0462 C   0  0  1  0  0  0  0  0  0  0  0  0
  -23.9762  -16.4204   18.9440 C   0  0  1  0  0  0  0  0  0  0  0  0
  -24.0712  -30.9639   21.9394 C   0  0  2  0  0  0  0  0  0  0  0  0
  -20.0680  -29.2500   20.3165 C   0  0  0  0  0  0  0  0  0  0  0  0
  -27.1185  -23.1536   16.4572 C   0  0  0  0  0  0  0  0  0  0  0  0
  -27.6911  -18.0708   21.1430 C   0  0  0  0  0  0  0  0  0  0  0  0
  -28.5719  -20.2517   20.2851 C   0  0  0  0  0  0  0  0  0  0  0  0
  -28.9338  -18.1603   18.9746 C   0  0  0  0  0  0  0  0  0  0  0  0
  -24.7021  -20.5281   15.1368 C   0  0  0  0  0  0  0  0  0  0  0  0
  -19.7128  -29.0131   25.2759 C   0  0  0  0  0  0  0  0  0  0  0  0
  -18.5046  -24.9963   22.5752 C   0  0  0  0  0  0  0  0  0  0  0  0
  -19.6152  -23.9769   22.2985 C   0  0  0  0  0  0  0  0  0  0  0  0
  -19.0966  -22.5427   22.1843 C   0  0  0  0  0  0  0  0  0  0  0  0
  -21.1028  -28.8336   25.8981 C   0  0  0  0  0  0  0  0  0  0  0  0
  -20.2313  -21.5549   21.9493 C   0  0  0  0  0  0  0  0  0  1  0  0
  -26.6216  -19.1784   19.0705 C   0  0  1  0  0  0  0  0  0  0  0  0
  -26.5474  -21.7541   16.2902 C   0  0  2  0  0  0  0  0  0  0  0  0
  -27.9267  -18.9115   19.8724 C   0  0  0  0  0  0  0  0  0  0  0  0
  -25.8617  -29.4654   21.1451 N   0  0  0  0  0  0  0  0  0  0  0  0
  -24.7444  -30.1509   20.8491 N   0  0  0  0  0  0  0  0  0  0  0  0
  -24.6245  -17.7188   19.1393 N   0  0  0  0  0  0  0  0  0  0  0  0
  -23.5762  -31.1452   24.3499 N   0  0  0  0  0  0  0  0  0  0  0  0
  -23.2409  -30.6419   19.0858 N   0  0  0  0  0  0  0  0  0  0  0  0
  -25.9283  -29.5493   16.6406 N   0  0  0  0  0  0  0  0  0  0  0  0
  -24.3376  -14.2633   19.9805 N   0  0  0  0  0  0  0  0  0  0  0  0
  -26.8187  -19.9494   17.8478 N   0  0  0  0  0  0  0  0  0  0  0  0
  -22.1454  -29.4081   25.0774 N   0  0  0  0  0  0  0  0  0  0  0  0
  -25.3512  -21.8371   15.4053 N   0  3  0  0  0  0  0  0  0  0  0  0
  -24.6451  -27.7366   17.2118 O   0  0  0  0  0  0  0  0  0  0  0  0
  -24.2672  -16.1967   21.2764 O   0  0  0  0  0  0  0  0  0  0  0  0
  -26.5197  -17.1012   17.9298 O   0  0  0  0  0  0  0  0  0  0  0  0
  -25.3856  -21.6844   18.4074 O   0  0  0  0  0  0  0  0  0  0  0  0
  -22.0504  -31.4752   26.0648 O   0  0  0  0  0  0  0  0  0  0  0  0
  -30.6992  -25.6155   19.6189 O   0  0  0  0  0  0  0  0  0  0  0  0
  -19.6839  -20.2419   21.8369 O   0  0  0  0  0  0  0  0  0  1  0  0
  -31.1431  -22.3253   15.2165 F   0  0  0  0  0  0  0  0  0  0  0  0
  -30.7701  -26.6676   17.0634 F   0  0  0  0  0  0  0  0  0  0  0  0
  -19.1178  -26.3722   19.9069 Cl  0  0  0  0  0  0  0  0  0  0  0  0
  1  2  1  0  0  0  0
  1  5  2  0  0  0  0
  2  6  2  0  0  0  0
  3  8  2  0  0  0  0
  3 17  1  0  0  0  0
  4  9  1  0  0  0  0
  4 17  2  0  0  0  0
  5 19  1  0  0  0  0
  6 21  1  0  0  0  0
  7 10  2  0  0  0  0
  7 20  1  0  0  0  0
  8 26  1  0  0  0  0
  9 26  2  0  0  0  0
 10 27  1  0  0  0  0
 11 12  2  0  0  0  0
 11 28  1  0  0  0  0
 12 29  1  0  0  0  0
 13 22  1  0  0  0  0
 13 27  2  0  0  0  0
 14 23  1  0  0  0  0
 14 24  2  0  0  0  0
 15 23  2  0  0  0  0
 15 25  1  0  0  0  0
 16 29  2  0  0  0  0
 16 30  1  0  0  0  0
 17 32  1  0  0  0  0
 18 32  1  0  0  0  0
 18 33  2  0  0  0  0
 18 34  1  0  0  0  0
 19 21  2  0  0  0  0
 19 39  1  0  0  0  0
 20 22  2  0  0  0  0
 20 40  1  0  0  0  0
 21 48  1  0  0  0  0
 22 41  1  0  0  0  0
 23 57  1  0  0  0  0
 24 31  1  0  0  0  0
 24 51  1  0  0  0  0
 25 31  2  0  0  0  0
 25 58  1  0  0  0  0
 26 81  1  0  0  0  0
 27 82  1  0  0  0  0
 28 30  2  0  0  0  0
 28 81  1  0  0  0  0
 29 83  1  0  0  0  0
 30 84  1  0  0  0  0
 31 85  1  0  0  0  0
 32 66  2  0  0  0  0
 33 67  1  0  0  0  0
 33 70  1  0  0  0  0
 34 71  1  0  0  0  0
 34 76  2  0  0  0  0
 35 49  1  0  0  0  0
 35 72  1  0  0  0  0
 35 77  2  0  0  0  0
 36 63  1  0  0  0  0
 36 68  1  0  0  0  0
 36 78  2  0  0  0  0
 37 64  1  0  0  0  0
 37 73  1  0  0  0  0
 37 79  2  0  0  0  0
 38 69  1  0  0  0  0
 38 74  1  0  0  0  0
 38 80  2  0  0  0  0
 39 42  1  0  0  0  0
 40 49  1  0  0  0  0
 41 68  1  0  0  0  0
 42 44  1  0  0  0  0
 43 45  1  0  0  0  0
 43 46  1  0  0  0  0
 44 48  1  0  0  0  0
 45 50  1  0  0  0  0
 46 69  1  0  0  0  0
 47 50  1  0  0  0  0
 47 69  1  0  0  0  0
 48 72  1  0  0  0  0
 49 68  1  0  0  0  0
 50 67  1  0  0  0  0
 52 64  1  0  0  0  0
 53 65  1  0  0  0  0
 54 65  1  0  0  0  0
 55 65  1  0  0  0  0
 56 75  1  0  0  0  0
 57 61  1  0  0  0  0
 58 59  1  0  0  0  0
 59 60  1  0  0  0  0
 60 62  1  0  0  0  0
 61 74  1  0  0  0  0
 62 82  1  0  0  0  0
 63 65  1  0  0  0  0
 63 73  1  0  0  0  0
 64 75  1  0  0  0  0
 66 67  1  0  0  0  0
M  CHG  1  75   1
M  ISO  4  38 100  62 101  74 100  82 101
M  END
> <Batch ID>
0027

> <Smiles>
CNC(C)C(=O)NC(C(=O)N1Cc2cc([101O:1][101CH2:1]CCCc3cc(CC[100NH:0][100C:0](=O)N4CCCC(n5nc(-c6ccc(Oc7ccc(F)cc7F)cc6)c(C(N)=O)c5N)C4)cc(C)c3Cl)ccc2CC1C(=O)NC1CCCc2ccccc21)C(C)(C)C

> <Shape>
0.249

> <Color>
0.062

> <Negative vol penalty>
0.000

$$$$

  -OEChem-04052316303D

 82 90  0     1  0  0  0  0  0999 V2000
  -30.7510  -21.9488   20.8955 C   0  0  0  0  0  0  0  0  0  0  0  0
  -29.4795  -22.2272   20.4045 C   0  0  0  0  0  0  0  0  0  0  0  0
  -25.5408  -14.1555   22.4215 C   0  0  0  0  0  0  0  0  0  0  0  0
  -26.8505  -14.4327   20.4103 C   0  0  0  0  0  0  0  0  0  0  0  0
  -20.2139  -22.3375   20.7521 C   0  0  0  0  0  0  0  0  0  0  0  0
  -31.2344  -22.6384   22.0067 C   0  0  0  0  0  0  0  0  0  0  0  0
  -28.6901  -23.1947   21.0251 C   0  0  0  0  0  0  0  0  0  0  0  0
  -24.7356  -27.0092   18.3199 C   0  0  0  0  0  0  0  0  0  0  0  0
  -19.5466  -23.5070   20.3881 C   0  0  0  0  0  0  0  0  0  0  0  0
  -25.3793  -12.8011   22.1296 C   0  0  0  0  0  0  0  0  0  0  0  0
  -26.6891  -13.0784   20.1184 C   0  0  0  0  0  0  0  0  0  0  0  0
  -23.3507  -26.9691   18.1643 C   0  0  0  0  0  0  0  0  0  0  0  0
  -23.4677  -10.9046   20.0868 C   0  0  0  0  0  0  0  0  0  0  0  0
  -22.1918  -10.3593   20.2293 C   0  0  0  0  0  0  0  0  0  0  0  0
  -23.0978  -28.3759   20.1076 C   0  0  0  0  0  0  0  0  0  0  0  0
  -23.0409   -8.8011   21.8689 C   0  0  0  0  0  0  0  0  0  0  0  0
  -26.2764  -14.9713   21.5618 C   0  0  0  0  0  0  0  0  0  0  0  0
  -21.3347  -22.4028   21.5799 C   0  0  0  0  0  0  0  0  0  0  0  0
  -27.4753  -16.9611   22.6159 C   0  0  0  0  0  0  0  0  0  0  0  0
  -30.4542  -23.6217   22.6354 C   0  0  0  0  0  0  0  0  0  0  0  0
  -25.3125  -27.7252   19.3786 C   0  0  0  0  0  0  0  0  0  0  0  0
  -29.1629  -23.8972   22.1465 C   0  0  0  0  0  0  0  0  0  0  0  0
  -24.4904  -28.4256   20.2729 C   0  0  0  0  0  0  0  0  0  0  0  0
  -20.0001  -24.7419   20.8519 C   0  0  0  0  0  0  0  0  0  0  0  0
  -25.9534  -12.2625   20.9781 C   0  0  0  0  0  0  0  0  0  0  0  0
  -22.5315  -27.6501   19.0599 C   0  0  0  0  0  0  0  0  0  0  0  0
  -24.5302  -10.3980   20.8352 C   0  0  0  0  0  0  0  0  0  0  0  0
  -21.9783   -9.3076   21.1204 C   0  0  0  0  0  0  0  0  0  0  0  0
  -24.3168   -9.3463   21.7263 C   0  0  0  0  0  0  0  0  0  0  0  0
  -21.7881  -23.6376   22.0437 C   0  0  0  0  0  0  0  0  0  0  0  0
  -21.1208  -24.8072   21.6797 C   0  0  0  0  0  0  0  0  0  0  0  0
  -26.4431  -16.3706   21.8625 C   0  0  0  0  0  0  0  0  0  0  0  0
  -27.1815  -18.3027   22.6085 C   0  0  0  0  0  0  0  0  0  0  0  0
  -22.0344  -21.1692   21.9591 C   0  0  0  0  0  0  0  0  0  0  0  0
  -28.5994  -16.3513   23.2643 C   0  0  0  0  0  0  0  0  0  0  0  0
  -27.1172  -26.9628   21.8818 C   0  0  0  0  0  0  0  0  0  0  0  0
  -27.2268  -30.1791   22.2893 C   0  0  0  0  0  0  0  0  0  0  0  0
  -25.7798  -33.2203   21.7379 C   0  0  0  0  0  0  0  0  0  0  0  0
  -31.0010  -24.3074   23.8624 C   0  0  0  0  0  0  0  0  0  0  0  0
  -26.8093  -27.7805   19.5169 C   0  0  0  0  0  0  0  0  0  0  0  0
  -25.0610  -29.2255   21.4143 C   0  0  0  0  0  0  0  0  0  0  0  0
  -30.2479  -25.5821   24.2342 C   0  0  0  0  0  0  0  0  0  0  0  0
  -25.0278  -21.6566   19.9670 C   0  0  0  0  0  0  0  0  0  0  0  0
  -28.7418  -25.3448   24.1893 C   0  0  0  0  0  0  0  0  0  0  0  0
  -25.8184  -20.3884   20.2913 C   0  0  0  0  0  0  0  0  0  0  0  0
  -23.5292  -21.3771   19.9065 C   0  0  0  0  0  0  0  0  0  0  0  0
  -23.7666  -19.4750   21.4681 C   0  0  0  0  0  0  0  0  0  0  0  0
  -28.2862  -24.9573   22.7773 C   0  0  1  0  0  0  0  0  0  0  0  0
  -27.2664  -28.1181   20.9327 C   0  0  1  0  0  0  0  0  0  0  0  0
  -25.2840  -19.7096   21.5660 C   0  0  1  0  0  0  0  0  0  0  0  0
  -17.8108  -25.9593   20.9754 C   0  0  0  0  0  0  0  0  0  0  0  0
  -26.0822  -35.6632   22.2258 C   0  0  0  0  0  0  0  0  0  0  0  0
  -26.2703  -29.7234   25.1507 C   0  0  0  0  0  0  0  0  0  0  0  0
  -25.6883  -32.1556   25.2694 C   0  0  0  0  0  0  0  0  0  0  0  0
  -28.0563  -31.4576   24.9114 C   0  0  0  0  0  0  0  0  0  0  0  0
  -25.9701  -33.8900   18.8614 C   0  0  0  0  0  0  0  0  0  0  0  0
  -19.2338  -26.2063   18.9062 C   0  0  0  0  0  0  0  0  0  0  0  0
  -20.6238  -26.4376   18.3207 C   0  0  0  0  0  0  0  0  0  1  0  0
  -19.2444  -25.9908   20.4319 C   0  0  2  0  0  0  0  0  0  0  0  0
  -26.3879  -31.1920   23.0304 C   0  0  1  0  0  0  0  0  0  0  0  0
  -26.3556  -34.5350   21.2435 C   0  0  2  0  0  0  0  0  0  0  0  0
  -26.5896  -31.1156   24.5702 C   0  0  0  0  0  0  0  0  0  0  0  0
  -25.5594  -17.2639   21.4095 N   0  0  0  0  0  0  0  0  0  0  0  0
  -26.0356  -18.4293   21.8798 N   0  0  0  0  0  0  0  0  0  0  0  0
  -23.0735  -20.7222   21.1392 N   0  0  0  0  0  0  0  0  0  0  0  0
  -26.5299  -29.2438   21.5112 N   0  0  0  0  0  0  0  0  0  0  0  0
  -27.7941  -19.3747   23.1543 N   0  0  0  0  0  0  0  0  0  0  0  0
  -28.7506  -14.9610   23.1721 N   0  0  0  0  0  0  0  0  0  0  0  0
  -28.2174  -26.1280   21.9293 N   0  0  0  0  0  0  0  0  0  0  0  0
  -26.7089  -32.4912   22.4495 N   0  0  0  0  0  0  0  0  0  0  0  0
  -25.7567  -34.9010   19.9288 N   0  3  0  0  0  0  0  0  0  0  0  0
  -21.6500  -20.6232   22.9922 O   0  0  0  0  0  0  0  0  0  0  0  0
  -29.4355  -17.0177   23.9203 O   0  0  0  0  0  0  0  0  0  0  0  0
  -26.0812  -26.8388   22.5245 O   0  0  0  0  0  0  0  0  0  0  0  0
  -28.4554  -30.2207   22.3911 O   0  0  0  0  0  0  0  0  0  0  0  0
  -24.6205  -32.8763   21.5182 O   0  0  0  0  0  0  0  0  0  0  0  0
  -25.7962  -10.9409   20.6931 O   0  0  0  0  0  0  0  0  0  0  0  0
  -21.1794  -27.6121   18.9108 O   0  0  0  0  0  0  0  0  0  1  0  0
  -20.7527   -8.7851   21.2583 F   0  0  0  0  0  0  0  0  0  0  0  0
  -25.3334   -8.8563   22.4489 F   0  0  0  0  0  0  0  0  0  0  0  0
  -22.8669  -23.6938   22.8401 F   0  0  0  0  0  0  0  0  0  0  0  0
  -21.7048  -26.3212   22.2697 Cl  0  0  0  0  0  0  0  0  0  0  0  0
  1  2  1  0  0  0  0
  1  6  2  0  0  0  0
  2  7  2  0  0  0  0
  3 10  2  0  0  0  0
  3 17  1  0  0  0  0
  4 11  1  0  0  0  0
  4 17  2  0  0  0  0
  5  9  2  0  0  0  0
  5 18  1  0  0  0  0
  6 20  1  0  0  0  0
  7 22  1  0  0  0  0
  8 12  2  0  0  0  0
  8 21  1  0  0  0  0
  9 24  1  0  0  0  0
 10 25  1  0  0  0  0
 11 25  2  0  0  0  0
 12 26  1  0  0  0  0
 13 14  2  0  0  0  0
 13 27  1  0  0  0  0
 14 28  1  0  0  0  0
 15 23  1  0  0  0  0
 15 26  2  0  0  0  0
 16 28  2  0  0  0  0
 16 29  1  0  0  0  0
 17 32  1  0  0  0  0
 18 30  2  0  0  0  0
 18 34  1  0  0  0  0
 19 32  1  0  0  0  0
 19 33  2  0  0  0  0
 19 35  1  0  0  0  0
 20 22  2  0  0  0  0
 20 39  1  0  0  0  0
 21 23  2  0  0  0  0
 21 40  1  0  0  0  0
 22 48  1  0  0  0  0
 23 41  1  0  0  0  0
 24 31  2  0  0  0  0
 24 59  1  0  0  0  0
 25 77  1  0  0  0  0
 26 78  1  0  0  0  0
 27 29  2  0  0  0  0
 27 77  1  0  0  0  0
 28 79  1  0  0  0  0
 29 80  1  0  0  0  0
 30 31  1  0  0  0  0
 30 81  1  0  0  0  0
 31 82  1  0  0  0  0
 32 63  2  0  0  0  0
 33 64  1  0  0  0  0
 33 67  1  0  0  0  0
 34 65  1  0  0  0  0
 34 72  2  0  0  0  0
 35 68  1  0  0  0  0
 35 73  2  0  0  0  0
 36 49  1  0  0  0  0
 36 69  1  0  0  0  0
 36 74  2  0  0  0  0
 37 60  1  0  0  0  0
 37 66  1  0  0  0  0
 37 75  2  0  0  0  0
 38 61  1  0  0  0  0
 38 70  1  0  0  0  0
 38 76  2  0  0  0  0
 39 42  1  0  0  0  0
 40 49  1  0  0  0  0
 41 66  1  0  0  0  0
 42 44  1  0  0  0  0
 43 45  1  0  0  0  0
 43 46  1  0  0  0  0
 44 48  1  0  0  0  0
 45 50  1  0  0  0  0
 46 65  1  0  0  0  0
 47 50  1  0  0  0  0
 47 65  1  0  0  0  0
 48 69  1  0  0  0  0
 49 66  1  0  0  0  0
 50 64  1  0  0  0  0
 51 59  1  0  0  0  0
 52 61  1  0  0  0  0
 53 62  1  0  0  0  0
 54 62  1  0  0  0  0
 55 62  1  0  0  0  0
 56 71  1  0  0  0  0
 57 58  1  0  0  0  0
 57 59  1  0  0  0  0
 58 78  1  0  0  0  0
 60 62  1  0  0  0  0
 60 70  1  0  0  0  0
 61 71  1  0  0  0  0
 63 64  1  0  0  0  0
M  CHG  1  71   1
M  ISO  4  18 100  34 100  58 101  78 101
M  END
> <Batch ID>
0027

> <Smiles>
CNC(C)C(=O)NC(C(=O)N1Cc2cc([101O:1][101CH2:1]CC(C)c3cc[100c:0]([100C:0](=O)N4CCCC(n5nc(-c6ccc(Oc7ccc(F)cc7F)cc6)c(C(N)=O)c5N)C4)c(F)c3Cl)ccc2CC1C(=O)NC1CCCc2ccccc21)C(C)(C)C

> <Shape>
0.204

> <Color>
0.058

> <Negative vol penalty>
0.000

$$$$

  -OEChem-04052316303D

 82 90  0     1  0  0  0  0  0999 V2000
  -22.8977  -23.6509   19.2210 C   0  0  0  0  0  0  0  0  0  0  0  0
  -24.1204  -23.0514   18.9365 C   0  0  0  0  0  0  0  0  0  0  0  0
  -22.4730  -28.0070   19.5710 C   0  0  0  0  0  0  0  0  0  0  0  0
  -22.8095  -27.8185   21.9560 C   0  0  0  0  0  0  0  0  0  0  0  0
  -22.0793  -23.1231   20.2187 C   0  0  0  0  0  0  0  0  0  0  0  0
  -24.5260  -21.9244   19.6504 C   0  0  0  0  0  0  0  0  0  0  0  0
  -27.7773  -17.1911   17.5220 C   0  0  0  0  0  0  0  0  0  0  0  0
  -33.4353  -19.0795   21.1984 C   0  0  0  0  0  0  0  0  0  0  0  0
  -33.0029  -20.3489   21.5818 C   0  0  0  0  0  0  0  0  0  0  0  0
  -21.0928  -27.9370   19.7602 C   0  0  0  0  0  0  0  0  0  0  0  0
  -21.4293  -27.7486   22.1452 C   0  0  0  0  0  0  0  0  0  0  0  0
  -29.1334  -16.8758   17.5958 C   0  0  0  0  0  0  0  0  0  0  0  0
  -18.8170  -29.8907   22.2316 C   0  0  0  0  0  0  0  0  0  0  0  0
  -18.2648  -30.6610   23.2550 C   0  0  0  0  0  0  0  0  0  0  0  0
  -28.6982  -15.4798   19.5144 C   0  0  0  0  0  0  0  0  0  0  0  0
  -31.1385  -18.3536   21.0113 C   0  0  0  0  0  0  0  0  0  0  0  0
  -17.4284  -28.6563   24.3126 C   0  0  0  0  0  0  0  0  0  0  0  0
  -23.3314  -27.9476   20.6689 C   0  0  0  0  0  0  0  0  0  0  0  0
  -25.5552  -29.1789   20.4533 C   0  0  0  0  0  0  0  0  0  0  0  0
  -22.4706  -21.9833   20.9387 C   0  0  0  0  0  0  0  0  0  0  0  0
  -26.8717  -16.6608   18.4520 C   0  0  0  0  0  0  0  0  0  0  0  0
  -23.7126  -21.3817   20.6597 C   0  0  0  0  0  0  0  0  0  0  0  0
  -27.3308  -15.7879   19.4486 C   0  0  0  0  0  0  0  0  0  0  0  0
  -32.5031  -18.0818   20.9131 C   0  0  0  0  0  0  0  0  0  0  0  0
  -31.6383  -20.6207   21.6801 C   0  0  0  0  0  0  0  0  0  0  0  0
  -20.5710  -27.8078   21.0472 C   0  0  0  0  0  0  0  0  0  0  0  0
  -29.5945  -16.0223   18.5938 C   0  0  0  0  0  0  0  0  0  0  0  0
  -18.6748  -28.5032   22.2486 C   0  0  0  0  0  0  0  0  0  0  0  0
  -17.5705  -30.0438   24.2955 C   0  0  0  0  0  0  0  0  0  0  0  0
  -17.9805  -27.8860   23.2891 C   0  0  0  0  0  0  0  0  0  0  0  0
  -30.7061  -19.6231   21.3949 C   0  0  0  0  0  0  0  0  0  0  0  0
  -24.7572  -28.0193   20.4741 C   0  0  0  0  0  0  0  0  0  0  0  0
  -26.8297  -28.7147   20.2377 C   0  0  0  0  0  0  0  0  0  0  0  0
  -25.1780  -30.5527   20.6147 C   0  0  0  0  0  0  0  0  0  0  0  0
  -24.9312  -17.8934   20.6473 C   0  0  0  0  0  0  0  0  0  0  0  0
  -23.9461  -14.8169   20.9418 C   0  0  0  0  0  0  0  0  0  0  0  0
  -24.6474  -11.5001   20.5496 C   0  0  0  0  0  0  0  0  0  0  0  0
  -29.3814  -23.5266   21.4328 C   0  0  0  0  0  0  0  0  0  0  0  0
  -21.5736  -21.4772   22.0404 C   0  0  0  0  0  0  0  0  0  0  0  0
  -25.4080  -16.9895   18.3426 C   0  0  0  0  0  0  0  0  0  0  0  0
  -26.3963  -15.1760   20.4590 C   0  0  0  0  0  0  0  0  0  0  0  0
  -21.9078  -20.0586   22.4946 C   0  0  0  0  0  0  0  0  0  0  0  0
  -29.2017  -25.1027   18.1799 C   0  0  0  0  0  0  0  0  0  0  0  0
  -23.4111  -19.9049   22.7028 C   0  0  0  0  0  0  0  0  0  0  0  0
  -28.1069  -26.1465   18.4077 C   0  0  0  0  0  0  0  0  0  0  0  0
  -28.8954  -23.8082   18.9273 C   0  0  0  0  0  0  0  0  0  0  0  0
  -27.5796  -25.0223   20.6209 C   0  0  0  0  0  0  0  0  0  0  0  0
  -24.1763  -20.1431   21.3954 C   0  0  1  0  0  0  0  0  0  0  0  0
  -24.6533  -16.8001   19.6548 C   0  0  1  0  0  0  0  0  0  0  0  0
  -27.8421  -26.3622   19.9096 C   0  0  2  0  0  0  0  0  0  0  0  0
  -23.6608   -9.2216   20.9135 C   0  0  0  0  0  0  0  0  0  0  0  0
  -24.5013  -15.0568   23.9325 C   0  0  0  0  0  0  0  0  0  0  0  0
  -24.4215  -12.5586   24.0769 C   0  0  0  0  0  0  0  0  0  0  0  0
  -22.3995  -13.8298   23.3567 C   0  0  0  0  0  0  0  0  0  0  0  0
  -24.7710  -10.8582   17.6631 C   0  0  0  0  0  0  0  0  0  0  0  0
  -32.9705  -16.7094   20.4987 C   0  0  0  0  0  0  0  0  0  0  0  0
  -31.2161  -21.9930   22.0950 C   0  0  0  0  0  0  0  0  0  0  0  0
  -33.1443  -16.5483   18.9869 C   0  0  0  0  0  0  0  0  0  0  0  0
  -31.8417  -16.6995   18.2099 C   0  0  0  0  0  0  0  0  0  1  0  0
  -24.3674  -13.6351   21.7815 C   0  0  1  0  0  0  0  0  0  0  0  0
  -23.8475  -10.3676   19.9314 C   0  0  2  0  0  0  0  0  0  0  0  0
  -23.9406  -13.7830   23.2692 C   0  0  0  0  0  0  0  0  0  0  0  0
  -25.4655  -26.9025   20.2864 N   0  0  0  0  0  0  0  0  0  0  0  0
  -26.7219  -27.3583   20.1456 N   0  0  0  0  0  0  0  0  0  0  0  0
  -24.9753  -15.5329   20.3142 N   0  0  0  0  0  0  0  0  0  0  0  0
  -28.6720  -24.0806   20.3542 N   0  0  0  0  0  0  0  0  0  0  0  0
  -28.0210  -29.3387   20.1196 N   0  0  0  0  0  0  0  0  0  0  0  0
  -23.8259  -30.8537   20.8284 N   0  0  0  0  0  0  0  0  0  0  0  0
  -24.0857  -18.9809   20.5378 N   0  0  0  0  0  0  0  0  0  0  0  0
  -23.8287  -12.4517   21.1200 N   0  0  0  0  0  0  0  0  0  0  0  0
  -30.3954  -22.6388   21.0949 N   0  0  0  0  0  0  0  0  0  0  0  0
  -24.5427   -9.8421   18.7226 N   0  3  0  0  0  0  0  0  0  0  0  0
  -26.0128  -31.4870   20.5542 O   0  0  0  0  0  0  0  0  0  0  0  0
  -25.8442  -17.7597   21.4537 O   0  0  0  0  0  0  0  0  0  0  0  0
  -22.7475  -15.0901   20.8405 O   0  0  0  0  0  0  0  0  0  0  0  0
  -25.8758  -11.5350   20.5317 O   0  0  0  0  0  0  0  0  0  0  0  0
  -29.1330  -23.8068   22.6105 O   0  0  0  0  0  0  0  0  0  0  0  0
  -19.2242  -27.7398   21.2322 O   0  0  0  0  0  0  0  0  0  0  0  0
  -30.9177  -15.7134   18.6685 O   0  0  0  0  0  0  0  0  0  1  0  0
  -17.0417  -30.7835   25.2790 F   0  0  0  0  0  0  0  0  0  0  0  0
  -17.8416  -26.5533   23.3115 F   0  0  0  0  0  0  0  0  0  0  0  0
  -29.0099  -19.9228   21.5068 Cl  0  0  0  0  0  0  0  0  0  0  0  0
  1  2  1  0  0  0  0
  1  5  2  0  0  0  0
  2  6  2  0  0  0  0
  3 10  2  0  0  0  0
  3 18  1  0  0  0  0
  4 11  1  0  0  0  0
  4 18  2  0  0  0  0
  5 20  1  0  0  0  0
  6 22  1  0  0  0  0
  7 12  2  0  0  0  0
  7 21  1  0  0  0  0
  8  9  2  0  0  0  0
  8 24  1  0  0  0  0
  9 25  1  0  0  0  0
 10 26  1  0  0  0  0
 11 26  2  0  0  0  0
 12 27  1  0  0  0  0
 13 14  2  0  0  0  0
 13 28  1  0  0  0  0
 14 29  1  0  0  0  0
 15 23  1  0  0  0  0
 15 27  2  0  0  0  0
 16 24  2  0  0  0  0
 16 31  1  0  0  0  0
 17 29  2  0  0  0  0
 17 30  1  0  0  0  0
 18 32  1  0  0  0  0
 19 32  1  0  0  0  0
 19 33  2  0  0  0  0
 19 34  1  0  0  0  0
 20 22  2  0  0  0  0
 20 39  1  0  0  0  0
 21 23  2  0  0  0  0
 21 40  1  0  0  0  0
 22 48  1  0  0  0  0
 23 41  1  0  0  0  0
 24 56  1  0  0  0  0
 25 31  2  0  0  0  0
 25 57  1  0  0  0  0
 26 78  1  0  0  0  0
 27 79  1  0  0  0  0
 28 30  2  0  0  0  0
 28 78  1  0  0  0  0
 29 80  1  0  0  0  0
 30 81  1  0  0  0  0
 31 82  1  0  0  0  0
 32 63  2  0  0  0  0
 33 64  1  0  0  0  0
 33 67  1  0  0  0  0
 34 68  1  0  0  0  0
 34 73  2  0  0  0  0
 35 49  1  0  0  0  0
 35 69  1  0  0  0  0
 35 74  2  0  0  0  0
 36 60  1  0  0  0  0
 36 65  1  0  0  0  0
 36 75  2  0  0  0  0
 37 61  1  0  0  0  0
 37 70  1  0  0  0  0
 37 76  2  0  0  0  0
 38 66  1  0  0  0  0
 38 71  1  0  0  0  0
 38 77  2  0  0  0  0
 39 42  1  0  0  0  0
 40 49  1  0  0  0  0
 41 65  1  0  0  0  0
 42 44  1  0  0  0  0
 43 45  1  0  0  0  0
 43 46  1  0  0  0  0
 44 48  1  0  0  0  0
 45 50  1  0  0  0  0
 46 66  1  0  0  0  0
 47 50  1  0  0  0  0
 47 66  1  0  0  0  0
 48 69  1  0  0  0  0
 49 65  1  0  0  0  0
 50 64  1  0  0  0  0
 51 61  1  0  0  0  0
 52 62  1  0  0  0  0
 53 62  1  0  0  0  0
 54 62  1  0  0  0  0
 55 72  1  0  0  0  0
 56 58  1  0  0  0  0
 57 71  1  0  0  0  0
 58 59  1  0  0  0  0
 59 79  1  0  0  0  0
 60 62  1  0  0  0  0
 60 70  1  0  0  0  0
 61 72  1  0  0  0  0
 63 64  1  0  0  0  0
M  CHG  1  72   1
M  ISO  4  38 100  59 101  71 100  79 101
M  END
> <Batch ID>
0027

> <Smiles>
CNC(C)C(=O)NC(C(=O)N1Cc2cc([101O:1][101CH2:1]CCc3ccc(C[100NH:0][100C:0](=O)N4CCCC(n5nc(-c6ccc(Oc7ccc(F)cc7F)cc6)c(C(N)=O)c5N)C4)c(Cl)c3)ccc2CC1C(=O)NC1CCCc2ccccc21)C(C)(C)C

> <Shape>
0.213

> <Color>
0.068

> <Negative vol penalty>
0.000

$$$$

  -OEChem-04052316303D

 81 89  0     1  0  0  0  0  0999 V2000
  -20.2483  -26.2995   26.0250 C   0  0  0  0  0  0  0  0  0  0  0  0
  -21.4718  -26.1707   25.3753 C   0  0  0  0  0  0  0  0  0  0  0  0
  -24.4060  -12.8509   21.4205 C   0  0  0  0  0  0  0  0  0  0  0  0
  -26.4705  -13.1815   20.2099 C   0  0  0  0  0  0  0  0  0  0  0  0
  -19.1735  -26.9014   25.3719 C   0  0  0  0  0  0  0  0  0  0  0  0
  -21.6208  -26.6428   24.0717 C   0  0  0  0  0  0  0  0  0  0  0  0
  -25.9258  -29.2293   23.4226 C   0  0  0  0  0  0  0  0  0  0  0  0
  -24.5176  -11.4730   21.2347 C   0  0  0  0  0  0  0  0  0  0  0  0
  -26.5822  -11.8036   20.0241 C   0  0  0  0  0  0  0  0  0  0  0  0
  -27.0984  -28.4887   23.2807 C   0  0  0  0  0  0  0  0  0  0  0  0
  -26.2506   -8.9084   22.5957 C   0  0  0  0  0  0  0  0  0  0  0  0
  -26.0065   -8.0843   23.6942 C   0  0  0  0  0  0  0  0  0  0  0  0
  -26.9912  -28.7883   20.8895 C   0  0  0  0  0  0  0  0  0  0  0  0
  -24.2034   -7.0161   22.4922 C   0  0  0  0  0  0  0  0  0  0  0  0
  -25.3824  -13.7052   20.9080 C   0  0  0  0  0  0  0  0  0  0  0  0
  -25.7751  -15.8862   22.1715 C   0  0  0  0  0  0  0  0  0  0  0  0
  -19.3122  -27.3898   24.0632 C   0  0  0  0  0  0  0  0  0  0  0  0
  -25.2701  -29.7467   22.2963 C   0  0  0  0  0  0  0  0  0  0  0  0
  -20.5465  -27.2506   23.4001 C   0  0  0  0  0  0  0  0  0  0  0  0
  -25.8119  -29.5374   21.0200 C   0  0  0  0  0  0  0  0  0  0  0  0
  -28.7450  -24.1049   19.1269 C   0  0  0  0  0  0  0  0  0  0  0  0
  -28.0377  -22.9992   19.6812 C   0  0  0  0  0  0  0  0  0  0  0  0
  -25.6057  -10.9493   20.5365 C   0  0  0  0  0  0  0  0  0  0  0  0
  -27.6298  -28.2656   22.0138 C   0  0  0  0  0  0  0  0  0  0  0  0
  -25.4711   -8.7864   21.4454 C   0  0  0  0  0  0  0  0  0  0  0  0
  -24.9829   -7.1381   23.6425 C   0  0  0  0  0  0  0  0  0  0  0  0
  -24.4475   -7.8403   21.3937 C   0  0  0  0  0  0  0  0  0  0  0  0
  -25.2673  -15.1287   21.0991 C   0  0  0  0  0  0  0  0  0  0  0  0
  -28.1433  -24.5835   17.9839 C   0  0  0  0  0  0  0  0  0  0  0  0
  -25.4024  -17.1772   21.8868 C   0  0  0  0  0  0  0  0  0  0  0  0
  -26.9220  -22.6750   18.9408 C   0  0  0  0  0  0  0  0  0  0  0  0
  -26.5173  -15.4610   23.3222 C   0  0  0  0  0  0  0  0  0  0  0  0
  -22.4086  -29.3279   20.9772 C   0  0  0  0  0  0  0  0  0  0  0  0
  -23.3909  -31.7222   19.0215 C   0  0  0  0  0  0  0  0  0  0  0  0
  -25.9871  -33.4428   17.6267 C   0  0  0  0  0  0  0  0  0  0  0  0
  -24.8378  -21.4078   18.3110 C   0  0  0  0  0  0  0  0  0  0  0  0
  -18.1086  -27.9903   23.3811 C   0  0  0  0  0  0  0  0  0  0  0  0
  -24.0206  -30.5663   22.4683 C   0  0  0  0  0  0  0  0  0  0  0  0
  -25.1573  -30.0885   19.7805 C   0  0  0  0  0  0  0  0  0  0  0  0
  -18.4559  -28.8014   22.1354 C   0  0  0  0  0  0  0  0  0  0  0  0
  -22.2226  -18.9930   18.3920 C   0  0  0  0  0  0  0  0  0  0  0  0
  -19.4370  -28.0338   21.2550 C   0  0  0  0  0  0  0  0  0  0  0  0
  -22.8234  -17.8347   19.1917 C   0  0  0  0  0  0  0  0  0  0  0  0
  -23.2635  -19.6653   17.4985 C   0  0  0  0  0  0  0  0  0  0  0  0
  -25.0875  -18.9386   18.9866 C   0  0  0  0  0  0  0  0  0  0  0  0
  -20.7545  -27.7726   21.9950 C   0  0  1  0  0  0  0  0  0  0  0  0
  -23.1567  -30.6097   21.2117 C   0  0  1  0  0  0  0  0  0  0  0  0
  -24.0921  -18.2716   19.9499 C   0  0  2  0  0  0  0  0  0  0  0  0
  -28.4510  -22.2824   20.9136 C   0  0  0  0  0  0  0  0  0  0  0  0
  -28.5583  -25.7087   17.1162 C   0  0  0  0  0  0  0  0  0  0  0  0
  -26.4772  -35.3230   16.0386 C   0  0  0  0  0  0  0  0  0  0  0  0
  -22.7222  -29.9029   16.6650 C   0  0  0  0  0  0  0  0  0  0  0  0
  -24.0862  -31.4105   15.2039 C   0  0  0  0  0  0  0  0  0  0  0  0
  -22.0588  -32.2945   16.3576 C   0  0  0  0  0  0  0  0  0  0  0  0
  -27.3651  -35.0103   19.7250 C   0  0  0  0  0  0  0  0  0  0  0  0
  -30.0030  -24.6855   19.7218 C   0  0  0  0  0  0  0  0  0  0  0  0
  -29.7562  -25.5541   20.9571 C   0  0  0  0  0  0  0  0  0  0  0  0
  -28.9273  -26.7992   20.6640 C   0  0  0  0  0  0  0  0  0  1  0  0
  -24.1354  -31.7941   17.7102 C   0  0  1  0  0  0  0  0  0  0  0  0
  -26.2515  -34.9315   17.4906 C   0  0  2  0  0  0  0  0  0  0  0  0
  -23.2622  -31.3383   16.5072 C   0  0  0  0  0  0  0  0  0  0  0  0
  -24.6211  -15.8760   20.2003 N   0  0  0  0  0  0  0  0  0  0  0  0
  -24.7203  -17.1167   20.7073 N   0  0  0  0  0  0  0  0  0  0  0  0
  -23.9342  -30.8780   20.0002 N   0  0  0  0  0  0  0  0  0  0  0  0
  -24.4351  -20.0558   18.2858 N   0  0  0  0  0  0  0  0  0  0  0  0
  -25.5948  -18.3468   22.5329 N   0  0  0  0  0  0  0  0  0  0  0  0
  -26.8150  -14.0983   23.4591 N   0  0  0  0  0  0  0  0  0  0  0  0
  -25.9447  -21.6647   19.1193 N   0  0  0  0  0  0  0  0  0  0  0  0
  -21.5690  -28.9687   22.0143 N   0  0  0  0  0  0  0  0  0  0  0  0
  -24.6380  -33.1592   17.6005 N   0  0  0  0  0  0  0  0  0  0  0  0
  -27.4591  -35.3168   18.2744 N   0  3  0  0  0  0  0  0  0  0  0  0
  -26.8910  -16.2634   24.2111 O   0  0  0  0  0  0  0  0  0  0  0  0
  -22.5792  -28.7113   19.9320 O   0  0  0  0  0  0  0  0  0  0  0  0
  -22.3689  -32.3959   19.1744 O   0  0  0  0  0  0  0  0  0  0  0  0
  -26.8875  -32.6141   17.7407 O   0  0  0  0  0  0  0  0  0  0  0  0
  -24.2279  -22.2784   17.6849 O   0  0  0  0  0  0  0  0  0  0  0  0
  -25.7151   -9.6048   20.3553 O   0  0  0  0  0  0  0  0  0  0  0  0
  -28.7738  -27.5424   21.8725 O   0  0  0  0  0  0  0  0  0  1  0  0
  -24.7497   -6.3457   24.6970 F   0  0  0  0  0  0  0  0  0  0  0  0
  -23.6960   -7.7176   20.2909 F   0  0  0  0  0  0  0  0  0  0  0  0
  -26.7313  -23.7013   17.5834 S   0  0  0  0  0  0  0  0  0  0  0  0
  1  2  1  0  0  0  0
  1  5  2  0  0  0  0
  2  6  2  0  0  0  0
  3  8  2  0  0  0  0
  3 15  1  0  0  0  0
  4  9  1  0  0  0  0
  4 15  2  0  0  0  0
  5 17  1  0  0  0  0
  6 19  1  0  0  0  0
  7 10  2  0  0  0  0
  7 18  1  0  0  0  0
  8 23  1  0  0  0  0
  9 23  2  0  0  0  0
 10 24  1  0  0  0  0
 11 12  2  0  0  0  0
 11 25  1  0  0  0  0
 12 26  1  0  0  0  0
 13 20  1  0  0  0  0
 13 24  2  0  0  0  0
 14 26  2  0  0  0  0
 14 27  1  0  0  0  0
 15 28  1  0  0  0  0
 16 28  1  0  0  0  0
 16 30  2  0  0  0  0
 16 32  1  0  0  0  0
 17 19  2  0  0  0  0
 17 37  1  0  0  0  0
 18 20  2  0  0  0  0
 18 38  1  0  0  0  0
 19 46  1  0  0  0  0
 20 39  1  0  0  0  0
 21 22  1  0  0  0  0
 21 29  2  0  0  0  0
 21 56  1  0  0  0  0
 22 31  2  0  0  0  0
 22 49  1  0  0  0  0
 23 77  1  0  0  0  0
 24 78  1  0  0  0  0
 25 27  2  0  0  0  0
 25 77  1  0  0  0  0
 26 79  1  0  0  0  0
 27 80  1  0  0  0  0
 28 62  2  0  0  0  0
 29 50  1  0  0  0  0
 29 81  1  0  0  0  0
 30 63  1  0  0  0  0
 30 66  1  0  0  0  0
 31 68  1  0  0  0  0
 31 81  1  0  0  0  0
 32 67  1  0  0  0  0
 32 72  2  0  0  0  0
 33 47  1  0  0  0  0
 33 69  1  0  0  0  0
 33 73  2  0  0  0  0
 34 59  1  0  0  0  0
 34 64  1  0  0  0  0
 34 74  2  0  0  0  0
 35 60  1  0  0  0  0
 35 70  1  0  0  0  0
 35 75  2  0  0  0  0
 36 65  1  0  0  0  0
 36 68  1  0  0  0  0
 36 76  2  0  0  0  0
 37 40  1  0  0  0  0
 38 47  1  0  0  0  0
 39 64  1  0  0  0  0
 40 42  1  0  0  0  0
 41 43  1  0  0  0  0
 41 44  1  0  0  0  0
 42 46  1  0  0  0  0
 43 48  1  0  0  0  0
 44 65  1  0  0  0  0
 45 48  1  0  0  0  0
 45 65  1  0  0  0  0
 46 69  1  0  0  0  0
 47 64  1  0  0  0  0
 48 63  1  0  0  0  0
 51 60  1  0  0  0  0
 52 61  1  0  0  0  0
 53 61  1  0  0  0  0
 54 61  1  0  0  0  0
 55 71  1  0  0  0  0
 56 57  1  0  0  0  0
 57 58  1  0  0  0  0
 58 78  1  0  0  0  0
 59 61  1  0  0  0  0
 59 70  1  0  0  0  0
 60 71  1  0  0  0  0
 62 63  1  0  0  0  0
M  CHG  1  71   1
M  ISO  4  36 100  58 101  68 100  78 101
M  END
> <Batch ID>
0027

> <Smiles>
CNC(C)C(=O)NC(C(=O)N1Cc2cc([101O:1][101CH2:1]CCc3c(C)sc([100NH:0][100C:0](=O)N4CCCC(n5nc(-c6ccc(Oc7ccc(F)cc7F)cc6)c(C(N)=O)c5N)C4)c3C)ccc2CC1C(=O)NC1CCCc2ccccc21)C(C)(C)C

> <Shape>
0.195

> <Color>
0.076

> <Negative vol penalty>
0.000

$$$$

  -OEChem-04052316303D

 92100  0     1  0  0  0  0  0999 V2000
  -29.5113  -18.0525   18.3529 C   0  0  0  0  0  0  0  0  0  0  0  0
  -28.6462  -19.0423   18.8082 C   0  0  0  0  0  0  0  0  0  0  0  0
  -23.7025   -9.8114   21.4165 C   0  0  0  0  0  0  0  0  0  0  0  0
  -24.3411  -10.8006   23.5262 C   0  0  0  0  0  0  0  0  0  0  0  0
  -30.8738  -18.3216   18.2302 C   0  0  0  0  0  0  0  0  0  0  0  0
  -29.1433  -20.3015   19.1422 C   0  0  0  0  0  0  0  0  0  0  0  0
  -26.2929  -24.0644   17.3089 C   0  0  0  0  0  0  0  0  0  0  0  0
  -23.1444   -8.7272   22.0938 C   0  0  0  0  0  0  0  0  0  0  0  0
  -23.7829   -9.7165   24.2035 C   0  0  0  0  0  0  0  0  0  0  0  0
  -25.1119  -24.3581   17.9892 C   0  0  0  0  0  0  0  0  0  0  0  0
  -20.2985   -8.0459   23.7878 C   0  0  0  0  0  0  0  0  0  0  0  0
  -19.0410   -7.6031   23.3777 C   0  0  0  0  0  0  0  0  0  0  0  0
  -26.2065  -26.2127   19.0762 C   0  0  0  0  0  0  0  0  0  0  0  0
  -24.9402  -23.4138   22.6201 C   0  0  0  0  0  0  0  0  0  0  0  0
  -19.9706   -5.4310   22.8726 C   0  0  0  0  0  0  0  0  0  0  0  0
  -24.3010  -10.8480   22.1327 C   0  0  0  0  0  0  0  0  0  0  0  0
  -24.2343  -13.1650   21.0674 C   0  0  0  0  0  0  0  0  0  0  0  0
  -31.3865  -19.5878   18.5537 C   0  0  0  0  0  0  0  0  0  0  0  0
  -27.4445  -24.8372   17.5157 C   0  0  0  0  0  0  0  0  0  0  0  0
  -30.5142  -20.5875   19.0251 C   0  0  0  0  0  0  0  0  0  0  0  0
  -27.4001  -25.9283   18.3954 C   0  0  0  0  0  0  0  0  0  0  0  0
  -25.6848  -22.7802   23.6150 C   0  0  0  0  0  0  0  0  0  0  0  0
  -23.7908  -22.9021   25.1100 C   0  0  0  0  0  0  0  0  0  0  0  0
  -23.6209  -23.7916   22.8702 C   0  0  0  0  0  0  0  0  0  0  0  0
  -23.1845   -8.6798   23.4873 C   0  0  0  0  0  0  0  0  0  0  0  0
  -25.0694  -25.4306   18.8752 C   0  0  0  0  0  0  0  0  0  0  0  0
  -21.3921   -7.1813   23.7403 C   0  0  0  0  0  0  0  0  0  0  0  0
  -18.8770   -6.2957   22.9201 C   0  0  0  0  0  0  0  0  0  0  0  0
  -21.2281   -5.8739   23.2827 C   0  0  0  0  0  0  0  0  0  0  0  0
  -25.1101  -22.5243   24.8599 C   0  0  0  0  0  0  0  0  0  0  0  0
  -23.0462  -23.5357   24.1151 C   0  0  0  0  0  0  0  0  0  0  0  0
  -24.8783  -11.9679   21.4336 C   0  0  0  0  0  0  0  0  0  0  0  0
  -25.2066  -13.8970   20.4308 C   0  0  0  0  0  0  0  0  0  0  0  0
  -22.8786  -13.5784   21.2835 C   0  0  0  0  0  0  0  0  0  0  0  0
  -30.3638  -24.2584   18.6322 C   0  0  0  0  0  0  0  0  0  0  0  0
  -30.8962  -27.3271   17.7257 C   0  0  0  0  0  0  0  0  0  0  0  0
  -29.6062  -30.4128   17.0466 C   0  0  0  0  0  0  0  0  0  0  0  0
  -31.1858  -13.8810   20.7473 C   0  0  0  0  0  0  0  0  0  0  0  0
  -32.8736  -19.8171   18.4499 C   0  0  0  0  0  0  0  0  0  0  0  0
  -28.7031  -24.5237   16.7540 C   0  0  0  0  0  0  0  0  0  0  0  0
  -28.6032  -26.8014   18.6374 C   0  0  0  0  0  0  0  0  0  0  0  0
  -33.2651  -21.2924   18.4681 C   0  0  0  0  0  0  0  0  0  0  0  0
  -29.1945  -13.3728   17.8399 C   0  0  0  0  0  0  0  0  0  0  0  0
  -32.5297  -22.0261   19.5851 C   0  0  0  0  0  0  0  0  0  0  0  0
  -27.8044  -13.0631   18.3982 C   0  0  0  0  0  0  0  0  0  0  0  0
  -30.2983  -12.7804   18.7133 C   0  0  0  0  0  0  0  0  0  0  0  0
  -28.8370  -12.8431   20.6969 C   0  0  0  0  0  0  0  0  0  0  0  0
  -31.0118  -21.9734   19.3737 C   0  0  1  0  0  0  0  0  0  0  0  0
  -29.9602  -25.0632   17.4292 C   0  0  1  0  0  0  0  0  0  0  0  0
  -27.6926  -13.4676   19.8805 C   0  0  2  0  0  0  0  0  0  0  0  0
  -23.2137  -22.6104   26.4585 C   0  0  0  0  0  0  0  0  0  0  0  0
  -30.2927  -32.7290   16.3671 C   0  0  0  0  0  0  0  0  0  0  0  0
  -31.8995  -27.8580   20.5579 C   0  0  0  0  0  0  0  0  0  0  0  0
  -31.6650  -30.3094   20.1067 C   0  0  0  0  0  0  0  0  0  0  0  0
  -33.2505  -28.9399   18.7527 C   0  0  0  0  0  0  0  0  0  0  0  0
  -22.1238  -23.6324   20.8969 C   0  0  0  0  0  0  0  0  0  0  0  0
  -28.0079  -30.2821   14.5592 C   0  0  0  0  0  0  0  0  0  0  0  0
  -27.0953  -22.3782   23.3444 C   0  0  0  0  0  0  0  0  0  0  0  0
  -30.4117  -16.9773   23.1652 C   0  0  0  0  0  0  0  0  0  0  0  0
  -30.2360  -18.4903   23.0020 C   0  0  0  0  0  0  0  0  0  0  0  0
  -31.7924  -16.4759   22.7293 C   0  0  0  0  0  0  0  0  0  0  0  0
  -28.8341  -18.9827   23.3666 C   0  0  0  0  0  0  0  0  0  0  0  0
  -31.9288  -14.9611   22.8546 C   0  0  0  0  0  0  0  0  0  0  0  0
  -22.8958  -25.8650   21.7145 C   0  0  0  0  0  0  0  0  0  0  0  0
  -28.7154  -20.4862   23.1592 C   0  0  0  0  0  0  0  0  0  0  0  0
  -24.0459  -26.3172   20.8303 C   0  0  0  0  0  0  0  0  0  1  0  0
  -30.7624  -28.6765   18.3893 C   0  0  1  0  0  0  0  0  0  0  0  0
  -29.8280  -31.3638   15.8843 C   0  0  2  0  0  0  0  0  0  0  0  0
  -31.8720  -28.9285   19.4488 C   0  0  0  0  0  0  0  0  0  0  0  0
  -26.1604  -11.9371   21.0606 N   0  0  0  0  0  0  0  0  0  0  0  0
  -26.3300  -13.1239   20.4533 N   0  0  0  0  0  0  0  0  0  0  0  0
  -29.8120  -26.4505   17.8737 N   0  0  0  0  0  0  0  0  0  0  0  0
  -30.1355  -13.2036   20.1062 N   0  0  0  0  0  0  0  0  0  0  0  0
  -25.2017  -15.1202   19.8596 N   0  0  0  0  0  0  0  0  0  0  0  0
  -22.0125  -12.7044   21.9546 N   0  0  0  0  0  0  0  0  0  0  0  0
  -30.6091  -22.9258   18.3611 N   0  0  0  0  0  0  0  0  0  0  0  0
  -30.7304  -29.6598   17.3120 N   0  0  0  0  0  0  0  0  0  0  0  0
  -30.9467  -14.2523   22.0648 N   0  0  0  0  0  0  0  0  0  0  0  0
  -22.9018  -24.4262   21.8486 N   0  0  3  0  0  0  0  0  0  0  0  0
  -28.5653  -31.5428   15.1133 N   0  3  0  0  0  0  0  0  0  0  0  0
  -27.3288  -20.9139   23.4803 N   0  3  0  0  0  0  0  0  0  0  0  0
  -22.4435  -14.6830   20.8785 O   0  0  0  0  0  0  0  0  0  0  0  0
  -30.4479  -24.8063   19.7251 O   0  0  0  0  0  0  0  0  0  0  0  0
  -31.9218  -27.0634   17.0931 O   0  0  0  0  0  0  0  0  0  0  0  0
  -28.5434  -30.3474   17.6603 O   0  0  0  0  0  0  0  0  0  0  0  0
  -32.2553  -14.1408   20.1854 O   0  0  0  0  0  0  0  0  0  0  0  0
  -22.6397   -7.6222   24.1485 O   0  0  0  0  0  0  0  0  0  0  0  0
  -23.9181  -25.7191   19.5410 O   0  0  0  0  0  0  0  0  0  1  0  0
  -17.6691   -5.8701   22.5277 F   0  0  0  0  0  0  0  0  0  0  0  0
  -22.2747   -5.0383   23.2359 F   0  0  0  0  0  0  0  0  0  0  0  0
  -25.8281  -21.9152   25.8155 F   0  0  0  0  0  0  0  0  0  0  0  0
  -21.4072  -24.0032   24.4318 Cl  0  0  0  0  0  0  0  0  0  0  0  0
  1  2  1  0  0  0  0
  1  5  2  0  0  0  0
  2  6  2  0  0  0  0
  3  8  2  0  0  0  0
  3 16  1  0  0  0  0
  4  9  1  0  0  0  0
  4 16  2  0  0  0  0
  5 18  1  0  0  0  0
  6 20  1  0  0  0  0
  7 10  2  0  0  0  0
  7 19  1  0  0  0  0
  8 25  1  0  0  0  0
  9 25  2  0  0  0  0
 10 26  1  0  0  0  0
 11 12  2  0  0  0  0
 11 27  1  0  0  0  0
 12 28  1  0  0  0  0
 13 21  1  0  0  0  0
 13 26  2  0  0  0  0
 14 22  2  0  0  0  0
 14 24  1  0  0  0  0
 15 28  2  0  0  0  0
 15 29  1  0  0  0  0
 16 32  1  0  0  0  0
 17 32  1  0  0  0  0
 17 33  2  0  0  0  0
 17 34  1  0  0  0  0
 18 20  2  0  0  0  0
 18 39  1  0  0  0  0
 19 21  2  0  0  0  0
 19 40  1  0  0  0  0
 20 48  1  0  0  0  0
 21 41  1  0  0  0  0
 22 30  1  0  0  0  0
 22 58  1  0  0  0  0
 23 30  2  0  0  0  0
 23 31  1  0  0  0  0
 23 51  1  0  0  0  0
 24 31  2  0  0  0  0
 24 79  1  0  0  0  0
 25 87  1  0  0  0  0
 26 88  1  0  0  0  0
 27 29  2  0  0  0  0
 27 87  1  0  0  0  0
 28 89  1  0  0  0  0
 29 90  1  0  0  0  0
 30 91  1  0  0  0  0
 31 92  1  0  0  0  0
 32 70  2  0  0  0  0
 33 71  1  0  0  0  0
 33 74  1  0  0  0  0
 34 75  1  0  0  0  0
 34 82  2  0  0  0  0
 35 49  1  0  0  0  0
 35 76  1  0  0  0  0
 35 83  2  0  0  0  0
 36 67  1  0  0  0  0
 36 72  1  0  0  0  0
 36 84  2  0  0  0  0
 37 68  1  0  0  0  0
 37 77  1  0  0  0  0
 37 85  2  0  0  0  0
 38 73  1  0  0  0  0
 38 78  1  0  0  0  0
 38 86  2  0  0  0  0
 39 42  1  0  0  0  0
 40 49  1  0  0  0  0
 41 72  1  0  0  0  0
 42 44  1  0  0  0  0
 43 45  1  0  0  0  0
 43 46  1  0  0  0  0
 44 48  1  0  0  0  0
 45 50  1  0  0  0  0
 46 73  1  0  0  0  0
 47 50  1  0  0  0  0
 47 73  1  0  0  0  0
 48 76  1  0  0  0  0
 49 72  1  0  0  0  0
 50 71  1  0  0  0  0
 52 68  1  0  0  0  0
 53 69  1  0  0  0  0
 54 69  1  0  0  0  0
 55 69  1  0  0  0  0
 56 79  1  0  0  0  0
 57 80  1  0  0  0  0
 58 81  1  0  0  0  0
 59 60  1  0  0  0  0
 59 61  1  0  0  0  0
 60 62  1  0  0  0  0
 61 63  1  0  0  0  0
 62 65  1  0  0  0  0
 63 78  1  0  0  0  0
 64 66  1  0  0  0  0
 64 79  1  0  0  0  0
 65 81  1  0  0  0  0
 66 88  1  0  0  0  0
 67 69  1  0  0  0  0
 67 77  1  0  0  0  0
 68 80  1  0  0  0  0
 70 71  1  0  0  0  0
M  CHG  2  80   1  81   1
M  ISO  4  38 100  66 101  78 100  88 101
M  END
> <Batch ID>
0027

> <Smiles>
CNC(C)C(=O)NC(C(=O)N1Cc2cc([101O:1][101CH2:1]CN(C)c3cc(CNCCCCCC[100NH:0][100C:0](=O)N4CCCC(n5nc(-c6ccc(Oc7ccc(F)cc7F)cc6)c(C(N)=O)c5N)C4)c(F)c(C)c3Cl)ccc2CC1C(=O)NC1CCCc2ccccc21)C(C)(C)C

> <Shape>
0.225

> <Color>
0.140

> <Negative vol penalty>
0.000

$$$$

  -OEChem-04052316303D

 83 91  0     1  0  0  0  0  0999 V2000
  -30.6540  -34.6892   21.8133 C   0  0  0  0  0  0  0  0  0  0  0  0
  -30.9130  -33.3260   21.7131 C   0  0  0  0  0  0  0  0  0  0  0  0
  -24.1375   -9.6545   22.5381 C   0  0  0  0  0  0  0  0  0  0  0  0
  -24.1201  -11.6283   23.9313 C   0  0  0  0  0  0  0  0  0  0  0  0
  -29.4001  -35.1302   22.2342 C   0  0  0  0  0  0  0  0  0  0  0  0
  -29.9186  -32.4030   22.0348 C   0  0  0  0  0  0  0  0  0  0  0  0
  -28.9410  -26.9700   19.3828 C   0  0  0  0  0  0  0  0  0  0  0  0
  -23.6964   -8.8888   23.6173 C   0  0  0  0  0  0  0  0  0  0  0  0
  -23.6789  -10.8626   25.0105 C   0  0  0  0  0  0  0  0  0  0  0  0
  -29.2994  -25.6720   19.7439 C   0  0  0  0  0  0  0  0  0  0  0  0
  -20.7681   -9.5286   26.0912 C   0  0  0  0  0  0  0  0  0  0  0  0
  -19.7276  -10.0418   26.8656 C   0  0  0  0  0  0  0  0  0  0  0  0
  -27.1328  -25.3624   20.7583 C   0  0  0  0  0  0  0  0  0  0  0  0
  -29.6662  -17.7182   22.8382 C   0  0  0  0  0  0  0  0  0  0  0  0
  -31.6364  -17.5014   21.4567 C   0  0  0  0  0  0  0  0  0  0  0  0
  -21.1590  -10.0076   28.8116 C   0  0  0  0  0  0  0  0  0  0  0  0
  -24.3495  -11.0242   22.6951 C   0  0  0  0  0  0  0  0  0  0  0  0
  -24.0106  -12.4810   20.6285 C   0  0  0  0  0  0  0  0  0  0  0  0
  -28.3867  -34.2122   22.5520 C   0  0  0  0  0  0  0  0  0  0  0  0
  -27.6777  -27.4786   19.7169 C   0  0  0  0  0  0  0  0  0  0  0  0
  -28.6504  -32.8321   22.4617 C   0  0  0  0  0  0  0  0  0  0  0  0
  -26.7599  -26.6664   20.3981 C   0  0  0  0  0  0  0  0  0  0  0  0
  -31.3576  -19.4433   22.8668 C   0  0  0  0  0  0  0  0  0  0  0  0
  -30.4159  -16.9987   21.9077 C   0  0  0  0  0  0  0  0  0  0  0  0
  -23.4670   -9.4929   24.8535 C   0  0  0  0  0  0  0  0  0  0  0  0
  -28.3963  -24.8689   20.4343 C   0  0  0  0  0  0  0  0  0  0  0  0
  -22.0040   -9.2548   26.6771 C   0  0  0  0  0  0  0  0  0  0  0  0
  -19.9231  -10.2813   28.2258 C   0  0  0  0  0  0  0  0  0  0  0  0
  -22.1995   -9.4944   28.0372 C   0  0  0  0  0  0  0  0  0  0  0  0
  -30.1371  -18.9406   23.3177 C   0  0  0  0  0  0  0  0  0  0  0  0
  -32.1072  -18.7237   21.9363 C   0  0  0  0  0  0  0  0  0  0  0  0
  -24.8058  -11.8156   21.5808 C   0  0  0  0  0  0  0  0  0  0  0  0
  -24.9141  -13.0835   19.7876 C   0  0  0  0  0  0  0  0  0  0  0  0
  -22.5830  -12.5484   20.5144 C   0  0  0  0  0  0  0  0  0  0  0  0
  -26.6313  -29.8890   21.5054 C   0  0  0  0  0  0  0  0  0  0  0  0
  -23.7484  -29.0221   20.2971 C   0  0  0  0  0  0  0  0  0  0  0  0
  -21.8008  -26.5841   18.9153 C   0  0  0  0  0  0  0  0  0  0  0  0
  -30.5570  -14.9167   20.4963 C   0  0  0  0  0  0  0  0  0  0  0  0
  -27.0621  -34.7360   23.0478 C   0  0  0  0  0  0  0  0  0  0  0  0
  -27.2967  -28.8717   19.2967 C   0  0  0  0  0  0  0  0  0  0  0  0
  -25.3837  -27.1581   20.7626 C   0  0  0  0  0  0  0  0  0  0  0  0
  -25.9440  -33.6974   23.0106 C   0  0  0  0  0  0  0  0  0  0  0  0
  -29.3637  -12.5790   18.0904 C   0  0  0  0  0  0  0  0  0  0  0  0
  -26.4255  -32.3734   23.5953 C   0  0  0  0  0  0  0  0  0  0  0  0
  -27.9846  -12.1831   18.6226 C   0  0  0  0  0  0  0  0  0  0  0  0
  -30.3683  -12.7921   19.2214 C   0  0  0  0  0  0  0  0  0  0  0  0
  -28.5559  -13.3298   20.8011 C   0  0  0  0  0  0  0  0  0  0  0  0
  -27.5896  -31.8002   22.7781 C   0  0  1  0  0  0  0  0  0  0  0  0
  -26.1713  -29.4634   20.1398 C   0  0  1  0  0  0  0  0  0  0  0  0
  -27.4932  -13.1675   19.7020 C   0  0  2  0  0  0  0  0  0  0  0  0
  -19.4761  -26.1634   18.0690 C   0  0  0  0  0  0  0  0  0  0  0  0
  -22.7361  -28.8502   23.1704 C   0  0  0  0  0  0  0  0  0  0  0  0
  -20.7746  -27.5426   22.3273 C   0  0  0  0  0  0  0  0  0  0  0  0
  -21.1303  -29.8890   21.5589 C   0  0  0  0  0  0  0  0  0  0  0  0
  -22.7787  -25.9748   16.1892 C   0  0  0  0  0  0  0  0  0  0  0  0
  -31.8662  -20.7649   23.3851 C   0  0  0  0  0  0  0  0  0  0  0  0
  -31.7055  -21.9222   22.3931 C   0  0  0  0  0  0  0  0  0  0  0  0
  -30.2442  -22.2277   22.0612 C   0  0  0  0  0  0  0  0  0  0  0  0
  -30.1258  -23.3547   21.0442 C   0  0  0  0  0  0  0  0  0  1  0  0
  -22.6599  -28.0624   20.7128 C   0  0  1  0  0  0  0  0  0  0  0  0
  -20.8888  -26.5905   17.7018 C   0  0  2  0  0  0  0  0  0  0  0  0
  -21.8518  -28.5771   21.9373 C   0  0  0  0  0  0  0  0  0  0  0  0
  -26.1137  -11.9796   21.3656 N   0  0  0  0  0  0  0  0  0  0  0  0
  -26.1474  -12.7549   20.2684 N   0  0  0  0  0  0  0  0  0  0  0  0
  -25.0605  -28.5294   20.3353 N   0  0  0  0  0  0  0  0  0  0  0  0
  -29.8366  -13.7394   20.2036 N   0  0  0  0  0  0  0  0  0  0  0  0
  -24.7659  -13.8570   18.6912 N   0  0  0  0  0  0  0  0  0  0  0  0
  -21.8042  -11.8713   21.4627 N   0  0  0  0  0  0  0  0  0  0  0  0
  -29.9376  -15.7568   21.4211 N   0  0  0  0  0  0  0  0  0  0  0  0
  -27.0999  -31.1878   21.5618 N   0  0  0  0  0  0  0  0  0  0  0  0
  -21.8519  -27.8211   19.5223 N   0  0  0  0  0  0  0  0  0  0  0  0
  -21.4058  -25.6583   16.6603 N   0  3  0  0  0  0  0  0  0  0  0  0
  -22.0150  -13.1766   19.5890 O   0  0  0  0  0  0  0  0  0  0  0  0
  -26.5645  -29.0983   22.4392 O   0  0  0  0  0  0  0  0  0  0  0  0
  -23.4451  -30.1646   19.9444 O   0  0  0  0  0  0  0  0  0  0  0  0
  -22.4044  -25.5811   19.2896 O   0  0  0  0  0  0  0  0  0  0  0  0
  -31.6302  -15.1747   19.9453 O   0  0  0  0  0  0  0  0  0  0  0  0
  -23.0363   -8.7461   25.9068 O   0  0  0  0  0  0  0  0  0  0  0  0
  -28.7438  -23.6018   20.7885 O   0  0  0  0  0  0  0  0  0  1  0  0
  -18.9243  -10.7756   28.9689 F   0  0  0  0  0  0  0  0  0  0  0  0
  -23.3850   -9.2345   28.6054 F   0  0  0  0  0  0  0  0  0  0  0  0
  -29.1759  -19.7995   24.4671 Cl  0  0  0  0  0  0  0  0  0  0  0  0
  -33.6231  -19.3092   21.3514 Cl  0  0  0  0  0  0  0  0  0  0  0  0
  1  2  1  0  0  0  0
  1  5  2  0  0  0  0
  2  6  2  0  0  0  0
  3  8  2  0  0  0  0
  3 17  1  0  0  0  0
  4  9  1  0  0  0  0
  4 17  2  0  0  0  0
  5 19  1  0  0  0  0
  6 21  1  0  0  0  0
  7 10  2  0  0  0  0
  7 20  1  0  0  0  0
  8 25  1  0  0  0  0
  9 25  2  0  0  0  0
 10 26  1  0  0  0  0
 11 12  2  0  0  0  0
 11 27  1  0  0  0  0
 12 28  1  0  0  0  0
 13 22  1  0  0  0  0
 13 26  2  0  0  0  0
 14 24  1  0  0  0  0
 14 30  2  0  0  0  0
 15 24  2  0  0  0  0
 15 31  1  0  0  0  0
 16 28  2  0  0  0  0
 16 29  1  0  0  0  0
 17 32  1  0  0  0  0
 18 32  1  0  0  0  0
 18 33  2  0  0  0  0
 18 34  1  0  0  0  0
 19 21  2  0  0  0  0
 19 39  1  0  0  0  0
 20 22  2  0  0  0  0
 20 40  1  0  0  0  0
 21 48  1  0  0  0  0
 22 41  1  0  0  0  0
 23 30  1  0  0  0  0
 23 31  2  0  0  0  0
 23 56  1  0  0  0  0
 24 69  1  0  0  0  0
 25 78  1  0  0  0  0
 26 79  1  0  0  0  0
 27 29  2  0  0  0  0
 27 78  1  0  0  0  0
 28 80  1  0  0  0  0
 29 81  1  0  0  0  0
 30 82  1  0  0  0  0
 31 83  1  0  0  0  0
 32 63  2  0  0  0  0
 33 64  1  0  0  0  0
 33 67  1  0  0  0  0
 34 68  1  0  0  0  0
 34 73  2  0  0  0  0
 35 49  1  0  0  0  0
 35 70  1  0  0  0  0
 35 74  2  0  0  0  0
 36 60  1  0  0  0  0
 36 65  1  0  0  0  0
 36 75  2  0  0  0  0
 37 61  1  0  0  0  0
 37 71  1  0  0  0  0
 37 76  2  0  0  0  0
 38 66  1  0  0  0  0
 38 69  1  0  0  0  0
 38 77  2  0  0  0  0
 39 42  1  0  0  0  0
 40 49  1  0  0  0  0
 41 65  1  0  0  0  0
 42 44  1  0  0  0  0
 43 45  1  0  0  0  0
 43 46  1  0  0  0  0
 44 48  1  0  0  0  0
 45 50  1  0  0  0  0
 46 66  1  0  0  0  0
 47 50  1  0  0  0  0
 47 66  1  0  0  0  0
 48 70  1  0  0  0  0
 49 65  1  0  0  0  0
 50 64  1  0  0  0  0
 51 61  1  0  0  0  0
 52 62  1  0  0  0  0
 53 62  1  0  0  0  0
 54 62  1  0  0  0  0
 55 72  1  0  0  0  0
 56 57  1  0  0  0  0
 57 58  1  0  0  0  0
 58 59  1  0  0  0  0
 59 79  1  0  0  0  0
 60 62  1  0  0  0  0
 60 71  1  0  0  0  0
 61 72  1  0  0  0  0
 63 64  1  0  0  0  0
M  CHG  1  72   1
M  ISO  4  38 100  59 101  69 100  79 101
M  END
> <Batch ID>
0027

> <Smiles>
CNC(C)C(=O)NC(C(=O)N1Cc2cc([101O:1][101CH2:1]CCCc3c(Cl)cc([100NH:0][100C:0](=O)N4CCCC(n5nc(-c6ccc(Oc7ccc(F)cc7F)cc6)c(C(N)=O)c5N)C4)cc3Cl)ccc2CC1C(=O)NC1CCCc2ccccc21)C(C)(C)C

> <Shape>
0.248

> <Color>
0.087

> <Negative vol penalty>
0.000

$$$$

  -OEChem-04052316303D

 88 96  0     1  0  0  0  0  0999 V2000
  -26.9748  -31.2688   28.2677 C   0  0  0  0  0  0  0  0  0  0  0  0
  -27.2653  -30.3677   27.2484 C   0  0  0  0  0  0  0  0  0  0  0  0
  -24.8420  -15.2111   20.9151 C   0  0  0  0  0  0  0  0  0  0  0  0
  -25.7829  -13.6039   19.3761 C   0  0  0  0  0  0  0  0  0  0  0  0
  -25.6652  -31.7085   28.4556 C   0  0  0  0  0  0  0  0  0  0  0  0
  -26.2459  -29.9049   26.4170 C   0  0  0  0  0  0  0  0  0  0  0  0
  -27.5693  -29.9175   21.5289 C   0  0  0  0  0  0  0  0  0  0  0  0
  -23.8155  -14.3176   21.2207 C   0  0  0  0  0  0  0  0  0  0  0  0
  -24.7565  -12.7103   19.6818 C   0  0  0  0  0  0  0  0  0  0  0  0
  -28.3896  -28.8797   21.0887 C   0  0  0  0  0  0  0  0  0  0  0  0
  -23.9928  -10.5525   22.1680 C   0  0  0  0  0  0  0  0  0  0  0  0
  -24.3415   -9.2220   22.3997 C   0  0  0  0  0  0  0  0  0  0  0  0
  -26.4616  -27.7484   20.1821 C   0  0  0  0  0  0  0  0  0  0  0  0
  -22.9368   -8.5331   20.5587 C   0  0  0  0  0  0  0  0  0  0  0  0
  -25.8257  -14.8543   19.9927 C   0  0  0  0  0  0  0  0  0  0  0  0
  -28.1333  -15.8918   20.3188 C   0  0  0  0  0  0  0  0  0  0  0  0
  -24.6309  -31.2584   27.6200 C   0  0  0  0  0  0  0  0  0  0  0  0
  -26.1852  -29.8732   21.3082 C   0  0  0  0  0  0  0  0  0  0  0  0
  -24.9209  -30.3380   26.5948 C   0  0  0  0  0  0  0  0  0  0  0  0
  -25.6262  -28.7881   20.6182 C   0  0  0  0  0  0  0  0  0  0  0  0
  -23.7727  -13.0671   20.6041 C   0  0  0  0  0  0  0  0  0  0  0  0
  -27.8354  -27.7935   20.4177 C   0  0  0  0  0  0  0  0  0  0  0  0
  -23.1160  -10.8733   21.1316 C   0  0  0  0  0  0  0  0  0  0  0  0
  -23.8135   -8.2123   21.5951 C   0  0  0  0  0  0  0  0  0  0  0  0
  -22.5880   -9.8637   20.3270 C   0  0  0  0  0  0  0  0  0  0  0  0
  -26.8860  -15.7772   19.6762 C   0  0  0  0  0  0  0  0  0  0  0  0
  -28.7727  -16.9062   19.6490 C   0  0  0  0  0  0  0  0  0  0  0  0
  -28.6663  -15.1478   21.4224 C   0  0  0  0  0  0  0  0  0  0  0  0
  -23.6165  -29.8031   23.1793 C   0  0  0  0  0  0  0  0  0  0  0  0
  -22.0359  -30.0810   20.3603 C   0  0  0  0  0  0  0  0  0  0  0  0
  -22.0415  -29.6239   16.9783 C   0  0  0  0  0  0  0  0  0  0  0  0
  -30.2220  -19.4423   14.8936 C   0  0  0  0  0  0  0  0  0  0  0  0
  -23.2228  -31.7255   27.8918 C   0  0  0  0  0  0  0  0  0  0  0  0
  -25.3175  -31.0134   21.7659 C   0  0  0  0  0  0  0  0  0  0  0  0
  -24.1488  -28.7024   20.3383 C   0  0  0  0  0  0  0  0  0  0  0  0
  -22.2635  -31.4757   26.7309 C   0  0  0  0  0  0  0  0  0  0  0  0
  -27.0252  -20.2230   16.2531 C   0  0  0  0  0  0  0  0  0  0  0  0
  -22.4293  -30.0563   26.1973 C   0  0  0  0  0  0  0  0  0  0  0  0
  -26.8046  -19.1422   17.3128 C   0  0  0  0  0  0  0  0  0  0  0  0
  -32.0431  -21.2085   20.1812 C   0  0  0  0  0  0  0  0  0  0  0  0
  -33.0717  -19.5545   21.6749 C   0  0  0  0  0  0  0  0  0  0  0  0
  -27.7595  -19.6742   15.0317 C   0  0  0  0  0  0  0  0  0  0  0  0
  -28.8090  -17.9056   16.3898 C   0  0  0  0  0  0  0  0  0  0  0  0
  -23.8466  -29.8322   25.6566 C   0  0  1  0  0  0  0  0  0  0  0  0
  -23.8542  -30.6183   21.9397 C   0  0  1  0  0  0  0  0  0  0  0  0
  -32.9659  -19.9817   20.1956 C   0  0  2  0  0  0  0  0  0  0  0  0
  -28.1216  -18.4244   17.6644 C   0  0  2  0  0  0  0  0  0  0  0  0
  -31.1831  -20.9973   21.4160 C   0  0  1  0  0  0  0  0  0  0  0  0
  -32.1880  -20.5273   22.4496 C   0  0  2  0  0  0  0  0  0  0  0  0
  -20.5928  -29.9104   14.9494 C   0  0  0  0  0  0  0  0  0  0  0  0
  -28.1673  -21.7771   21.4612 C   0  0  0  0  0  0  0  0  0  0  0  0
  -20.4333  -27.6104   21.1587 C   0  0  0  0  0  0  0  0  0  0  0  0
  -19.7147  -27.3905   18.7705 C   0  0  0  0  0  0  0  0  0  0  0  0
  -19.0893  -29.4212   20.0774 C   0  0  0  0  0  0  0  0  0  0  0  0
  -23.9536  -31.5108   15.7365 C   0  0  0  0  0  0  0  0  0  0  0  0
  -34.3187  -20.2625   19.5590 C   0  0  0  0  0  0  0  0  0  0  0  0
  -34.1669  -20.7244   18.1092 C   0  0  0  0  0  0  0  0  0  0  0  0
  -33.4829  -19.6902   17.2097 C   0  0  0  0  0  0  0  0  0  0  0  0
  -33.3522  -20.1454   15.7525 C   0  0  0  0  0  0  0  0  0  0  0  0
  -30.1710  -25.0336   20.6489 C   0  0  0  0  0  0  0  0  0  0  0  0
  -29.0432  -24.1299   21.1645 C   0  0  0  0  0  0  0  0  0  0  0  0
  -32.6794  -19.0961   14.8722 C   0  0  0  0  0  0  0  0  0  0  0  0
  -29.8116  -26.5123   20.7477 C   0  0  0  0  0  0  0  0  0  1  0  0
  -21.4881  -29.1109   19.3416 C   0  0  1  0  0  0  0  0  0  0  0  0
  -21.6521  -30.5455   15.8367 C   0  0  2  0  0  0  0  0  0  0  0  0
  -29.3415  -22.6344   21.0070 C   0  0  1  0  0  0  0  0  0  0  0  0
  -20.2090  -28.3836   19.8439 C   0  0  0  0  0  0  0  0  0  0  0  0
  -26.7396  -16.6493   18.6752 N   0  0  0  0  0  0  0  0  0  0  0  0
  -27.9032  -17.3216   18.6837 N   0  0  0  0  0  0  0  0  0  0  0  0
  -23.3413  -29.8389   20.8112 N   0  0  0  0  0  0  0  0  0  0  0  0
  -29.0004  -19.0074   15.4337 N   0  0  0  0  0  0  0  0  0  0  0  0
  -29.9881  -17.4746   19.7975 N   0  0  0  0  0  0  0  0  0  0  0  0
  -27.8764  -14.1403   21.9927 N   0  0  0  0  0  0  0  0  0  0  0  0
  -23.9902  -30.4362   24.3493 N   0  0  0  0  0  0  0  0  0  0  0  0
  -21.2982  -29.8736   18.1125 N   0  0  0  0  0  0  0  0  0  0  0  0
  -31.3504  -18.7605   15.3325 N   0  0  0  0  0  0  0  0  0  0  0  0
  -30.5257  -22.2636   21.8311 N   0  3  0  0  0  0  0  0  0  0  0  0
  -22.8419  -30.8603   14.9963 N   0  3  0  0  0  0  0  0  0  0  0  0
  -29.8028  -15.3808   21.8995 O   0  0  0  0  0  0  0  0  0  0  0  0
  -23.1287  -28.6832   23.0816 O   0  0  0  0  0  0  0  0  0  0  0  0
  -21.3342  -31.0232   20.7366 O   0  0  0  0  0  0  0  0  0  0  0  0
  -22.9149  -28.7656   16.8733 O   0  0  0  0  0  0  0  0  0  0  0  0
  -30.3017  -20.3730   14.0847 O   0  0  0  0  0  0  0  0  0  0  0  0
  -22.7714  -12.1948   20.9023 O   0  0  0  0  0  0  0  0  0  0  0  0
  -28.6338  -26.7789   19.9875 O   0  0  0  0  0  0  0  0  0  1  0  0
  -24.1497   -6.9348   21.8168 F   0  0  0  0  0  0  0  0  0  0  0  0
  -21.7462  -10.1658   19.3291 F   0  0  0  0  0  0  0  0  0  0  0  0
  -32.9614  -21.5777   22.8420 F   0  0  0  0  0  0  0  0  0  0  0  0
  1  2  1  0  0  0  0
  1  5  2  0  0  0  0
  2  6  2  0  0  0  0
  3  8  2  0  0  0  0
  3 15  1  0  0  0  0
  4  9  1  0  0  0  0
  4 15  2  0  0  0  0
  5 17  1  0  0  0  0
  6 19  1  0  0  0  0
  7 10  2  0  0  0  0
  7 18  1  0  0  0  0
  8 21  1  0  0  0  0
  9 21  2  0  0  0  0
 10 22  1  0  0  0  0
 11 12  2  0  0  0  0
 11 23  1  0  0  0  0
 12 24  1  0  0  0  0
 13 20  1  0  0  0  0
 13 22  2  0  0  0  0
 14 24  2  0  0  0  0
 14 25  1  0  0  0  0
 15 26  1  0  0  0  0
 16 26  1  0  0  0  0
 16 27  2  0  0  0  0
 16 28  1  0  0  0  0
 17 19  2  0  0  0  0
 17 33  1  0  0  0  0
 18 20  2  0  0  0  0
 18 34  1  0  0  0  0
 19 44  1  0  0  0  0
 20 35  1  0  0  0  0
 21 84  1  0  0  0  0
 22 85  1  0  0  0  0
 23 25  2  0  0  0  0
 23 84  1  0  0  0  0
 24 86  1  0  0  0  0
 25 87  1  0  0  0  0
 26 68  2  0  0  0  0
 27 69  1  0  0  0  0
 27 72  1  0  0  0  0
 28 73  1  0  0  0  0
 28 79  2  0  0  0  0
 29 45  1  0  0  0  0
 29 74  1  0  0  0  0
 29 80  2  0  0  0  0
 30 64  1  0  0  0  0
 30 70  1  0  0  0  0
 30 81  2  0  0  0  0
 31 65  1  0  0  0  0
 31 75  1  0  0  0  0
 31 82  2  0  0  0  0
 32 71  1  0  0  0  0
 32 76  1  0  0  0  0
 32 83  2  0  0  0  0
 33 36  1  0  0  0  0
 34 45  1  0  0  0  0
 35 70  1  0  0  0  0
 36 38  1  0  0  0  0
 37 39  1  0  0  0  0
 37 42  1  0  0  0  0
 38 44  1  0  0  0  0
 39 47  1  0  0  0  0
 40 46  1  0  0  0  0
 40 48  1  0  0  0  0
 41 46  1  0  0  0  0
 41 49  1  0  0  0  0
 42 71  1  0  0  0  0
 43 47  1  0  0  0  0
 43 71  1  0  0  0  0
 44 74  1  0  0  0  0
 45 70  1  0  0  0  0
 46 56  1  0  0  0  0
 47 69  1  0  0  0  0
 48 49  1  0  0  0  0
 48 77  1  0  0  0  0
 49 88  1  0  0  0  0
 50 65  1  0  0  0  0
 51 66  1  0  0  0  0
 52 67  1  0  0  0  0
 53 67  1  0  0  0  0
 54 67  1  0  0  0  0
 55 78  1  0  0  0  0
 56 57  1  0  0  0  0
 57 58  1  0  0  0  0
 58 59  1  0  0  0  0
 59 62  1  0  0  0  0
 60 61  1  0  0  0  0
 60 63  1  0  0  0  0
 61 66  1  0  0  0  0
 62 76  1  0  0  0  0
 63 85  1  0  0  0  0
 64 67  1  0  0  0  0
 64 75  1  0  0  0  0
 65 78  1  0  0  0  0
 66 77  1  0  0  0  0
 68 69  1  0  0  0  0
M  CHG  2  77   1  78   1
M  ISO  4  32 100  63 101  76 100  85 101
M  END
> <Batch ID>
0027

> <Smiles>
CNC(C)C(=O)NC(C(=O)N1Cc2cc([101O:1][101CH2:1]CCC(C)NC3CC(CCCCC[100NH:0][100C:0](=O)N4CCCC(n5nc(-c6ccc(Oc7ccc(F)cc7F)cc6)c(C(N)=O)c5N)C4)CC3F)ccc2CC1C(=O)NC1CCCc2ccccc21)C(C)(C)C

> <Shape>
0.239

> <Color>
0.088

> <Negative vol penalty>
0.000

$$$$

  -OEChem-04052316303D

 85 93  0     1  0  0  0  0  0999 V2000
  -14.5874  -25.7215   18.0762 C   0  0  0  0  0  0  0  0  0  0  0  0
  -15.9119  -25.9094   18.4581 C   0  0  0  0  0  0  0  0  0  0  0  0
  -23.0719   -9.8710   19.9445 C   0  0  0  0  0  0  0  0  0  0  0  0
  -23.8377   -9.8757   22.2359 C   0  0  0  0  0  0  0  0  0  0  0  0
  -13.9259  -24.5420   18.4155 C   0  0  0  0  0  0  0  0  0  0  0  0
  -16.5754  -24.9182   19.1805 C   0  0  0  0  0  0  0  0  0  0  0  0
  -23.0844  -22.0566   20.0525 C   0  0  0  0  0  0  0  0  0  0  0  0
  -22.3286   -8.7177   20.1952 C   0  0  0  0  0  0  0  0  0  0  0  0
  -23.0943   -8.7223   22.4867 C   0  0  0  0  0  0  0  0  0  0  0  0
  -23.9966  -21.7419   21.0588 C   0  0  0  0  0  0  0  0  0  0  0  0
  -19.9435   -5.9774   20.3270 C   0  0  0  0  0  0  0  0  0  0  0  0
  -18.6366   -5.9300   19.8420 C   0  0  0  0  0  0  0  0  0  0  0  0
  -22.7778  -19.7119   21.5204 C   0  0  0  0  0  0  0  0  0  0  0  0
  -29.4128  -18.3826   25.6602 C   0  0  0  0  0  0  0  0  0  0  0  0
  -29.4771  -18.4852   23.2473 C   0  0  0  0  0  0  0  0  0  0  0  0
  -18.0750   -7.8717   21.1655 C   0  0  0  0  0  0  0  0  0  0  0  0
  -23.8265  -10.4500   20.9648 C   0  0  0  0  0  0  0  0  0  0  0  0
  -24.1683  -12.9752   20.8464 C   0  0  0  0  0  0  0  0  0  0  0  0
  -14.5846  -23.5318   19.1341 C   0  0  0  0  0  0  0  0  0  0  0  0
  -22.0040  -21.2053   19.7795 C   0  0  0  0  0  0  0  0  0  0  0  0
  -15.9216  -23.7247   19.5309 C   0  0  0  0  0  0  0  0  0  0  0  0
  -21.8548  -20.0168   20.5084 C   0  0  0  0  0  0  0  0  0  0  0  0
  -29.0130  -18.9814   24.4656 C   0  0  0  0  0  0  0  0  0  0  0  0
  -30.2768  -17.2878   25.6367 C   0  0  0  0  0  0  0  0  0  0  0  0
  -30.3410  -17.3903   23.2237 C   0  0  0  0  0  0  0  0  0  0  0  0
  -22.3397   -8.1434   21.4663 C   0  0  0  0  0  0  0  0  0  0  0  0
  -23.8418  -20.5709   21.7949 C   0  0  0  0  0  0  0  0  0  0  0  0
  -20.3162   -6.9719   21.2314 C   0  0  0  0  0  0  0  0  0  0  0  0
  -17.7023   -6.8772   20.2612 C   0  0  0  0  0  0  0  0  0  0  0  0
  -19.3819   -7.9190   21.6506 C   0  0  0  0  0  0  0  0  0  0  0  0
  -30.7409  -16.7916   24.4184 C   0  0  0  0  0  0  0  0  0  0  0  0
  -24.5951  -11.6410   20.7063 C   0  0  0  0  0  0  0  0  0  0  0  0
  -25.2596  -13.7250   20.4811 C   0  0  0  0  0  0  0  0  0  0  0  0
  -22.8989  -13.4907   21.2691 C   0  0  0  0  0  0  0  0  0  0  0  0
  -18.8401  -21.4881   19.8958 C   0  0  0  0  0  0  0  0  0  0  0  0
  -18.9169  -18.5330   18.5601 C   0  0  0  0  0  0  0  0  0  0  0  0
  -20.6329  -15.6272   18.0515 C   0  0  0  0  0  0  0  0  0  0  0  0
  -30.7439  -14.7433   20.6565 C   0  0  0  0  0  0  0  0  0  0  0  0
  -13.8136  -22.2940   19.5188 C   0  0  0  0  0  0  0  0  0  0  0  0
  -21.0440  -21.5457   18.6728 C   0  0  0  0  0  0  0  0  0  0  0  0
  -20.7236  -19.0591   20.2408 C   0  0  0  0  0  0  0  0  0  0  0  0
  -14.7034  -21.1352   19.9614 C   0  0  0  0  0  0  0  0  0  0  0  0
  -29.6000  -12.3612   18.2703 C   0  0  0  0  0  0  0  0  0  0  0  0
  -15.7636  -21.6216   20.9443 C   0  0  0  0  0  0  0  0  0  0  0  0
  -28.1636  -12.0672   18.7066 C   0  0  0  0  0  0  0  0  0  0  0  0
  -30.5202  -12.5808   19.4691 C   0  0  0  0  0  0  0  0  0  0  0  0
  -28.6221  -13.3107   20.8612 C   0  0  0  0  0  0  0  0  0  0  0  0
  -16.6829  -22.6624   20.2938 C   0  0  1  0  0  0  0  0  0  0  0  0
  -19.6889  -20.8618   18.8258 C   0  0  1  0  0  0  0  0  0  0  0  0
  -27.6449  -13.1374   19.6859 C   0  0  2  0  0  0  0  0  0  0  0  0
  -30.6789  -16.6782   26.9412 C   0  0  0  0  0  0  0  0  0  0  0  0
  -20.4217  -13.3815   16.9516 C   0  0  0  0  0  0  0  0  0  0  0  0
  -24.5403  -20.5259   25.7022 C   0  0  0  0  0  0  0  0  0  0  0  0
  -17.0886  -17.6016   20.8184 C   0  0  0  0  0  0  0  0  0  0  0  0
  -17.6800  -15.2411   20.2299 C   0  0  0  0  0  0  0  0  0  0  0  0
  -16.5123  -16.6848   18.5641 C   0  0  0  0  0  0  0  0  0  0  0  0
  -22.9430  -16.1500   16.2769 C   0  0  0  0  0  0  0  0  0  0  0  0
  -30.8131  -16.8926   21.8953 C   0  0  0  0  0  0  0  0  0  0  0  0
  -28.0837  -20.1590   24.4909 C   0  0  0  0  0  0  0  0  0  0  0  0
  -25.3534  -21.3514   23.4567 C   0  0  0  0  0  0  0  0  0  1  0  0
  -18.9463  -17.1202   19.0912 C   0  0  1  0  0  0  0  0  0  0  0  0
  -20.8938  -14.8185   16.7935 C   0  0  2  0  0  0  0  0  0  0  0  0
  -25.7436  -20.9444   24.8731 C   0  0  2  0  0  0  0  0  0  0  0  0
  -17.5771  -16.6807   19.6825 C   0  0  0  0  0  0  0  0  0  0  0  0
  -25.8589  -11.5455   20.2847 N   0  0  0  0  0  0  0  0  0  0  0  0
  -26.2356  -12.8292   20.1567 N   0  0  0  0  0  0  0  0  0  0  0  0
  -19.8075  -19.4394   19.1528 N   0  0  0  0  0  0  0  0  0  0  0  0
  -29.9720  -13.6085   20.3575 N   0  0  0  0  0  0  0  0  0  0  0  0
  -25.4700  -15.0565   20.4089 N   0  0  0  0  0  0  0  0  0  0  0  0
  -21.8878  -12.5813   21.6080 N   0  0  0  0  0  0  0  0  0  0  0  0
  -17.6496  -22.0151   19.4329 N   0  0  0  0  0  0  0  0  0  0  0  0
  -19.4207  -16.2820   17.9954 N   0  0  0  0  0  0  0  0  0  0  0  0
  -30.1470  -15.6714   21.5010 N   0  0  0  0  0  0  0  0  0  0  0  0
  -22.3508  -14.8029   16.4808 N   0  3  0  0  0  0  0  0  0  0  0  0
  -26.6784  -19.7848   24.7918 N   0  3  0  0  0  0  0  0  0  0  0  0
  -22.6630  -14.7213   21.3282 O   0  0  0  0  0  0  0  0  0  0  0  0
  -19.2354  -21.4916   21.0557 O   0  0  0  0  0  0  0  0  0  0  0  0
  -18.1377  -18.8201   17.6480 O   0  0  0  0  0  0  0  0  0  0  0  0
  -21.4235  -15.6706   18.9914 O   0  0  0  0  0  0  0  0  0  0  0  0
  -31.8787  -14.9191   20.2002 O   0  0  0  0  0  0  0  0  0  0  0  0
  -21.6143   -7.0181   21.7114 O   0  0  0  0  0  0  0  0  0  0  0  0
  -24.7303  -20.2616   22.7781 O   0  0  0  0  0  0  0  0  0  1  0  0
  -16.4477   -6.8324   19.7941 F   0  0  0  0  0  0  0  0  0  0  0  0
  -19.7344   -8.8775   22.5183 F   0  0  0  0  0  0  0  0  0  0  0  0
  -31.8137  -15.4325   24.3892 Cl  0  0  0  0  0  0  0  0  0  0  0  0
  1  2  1  0  0  0  0
  1  5  2  0  0  0  0
  2  6  2  0  0  0  0
  3  8  2  0  0  0  0
  3 17  1  0  0  0  0
  4  9  1  0  0  0  0
  4 17  2  0  0  0  0
  5 19  1  0  0  0  0
  6 21  1  0  0  0  0
  7 10  2  0  0  0  0
  7 20  1  0  0  0  0
  8 26  1  0  0  0  0
  9 26  2  0  0  0  0
 10 27  1  0  0  0  0
 11 12  2  0  0  0  0
 11 28  1  0  0  0  0
 12 29  1  0  0  0  0
 13 22  1  0  0  0  0
 13 27  2  0  0  0  0
 14 23  1  0  0  0  0
 14 24  2  0  0  0  0
 15 23  2  0  0  0  0
 15 25  1  0  0  0  0
 16 29  2  0  0  0  0
 16 30  1  0  0  0  0
 17 32  1  0  0  0  0
 18 32  1  0  0  0  0
 18 33  2  0  0  0  0
 18 34  1  0  0  0  0
 19 21  2  0  0  0  0
 19 39  1  0  0  0  0
 20 22  2  0  0  0  0
 20 40  1  0  0  0  0
 21 48  1  0  0  0  0
 22 41  1  0  0  0  0
 23 59  1  0  0  0  0
 24 31  1  0  0  0  0
 24 51  1  0  0  0  0
 25 31  2  0  0  0  0
 25 58  1  0  0  0  0
 26 81  1  0  0  0  0
 27 82  1  0  0  0  0
 28 30  2  0  0  0  0
 28 81  1  0  0  0  0
 29 83  1  0  0  0  0
 30 84  1  0  0  0  0
 31 85  1  0  0  0  0
 32 65  2  0  0  0  0
 33 66  1  0  0  0  0
 33 69  1  0  0  0  0
 34 70  1  0  0  0  0
 34 76  2  0  0  0  0
 35 49  1  0  0  0  0
 35 71  1  0  0  0  0
 35 77  2  0  0  0  0
 36 61  1  0  0  0  0
 36 67  1  0  0  0  0
 36 78  2  0  0  0  0
 37 62  1  0  0  0  0
 37 72  1  0  0  0  0
 37 79  2  0  0  0  0
 38 68  1  0  0  0  0
 38 73  1  0  0  0  0
 38 80  2  0  0  0  0
 39 42  1  0  0  0  0
 40 49  1  0  0  0  0
 41 67  1  0  0  0  0
 42 44  1  0  0  0  0
 43 45  1  0  0  0  0
 43 46  1  0  0  0  0
 44 48  1  0  0  0  0
 45 50  1  0  0  0  0
 46 68  1  0  0  0  0
 47 50  1  0  0  0  0
 47 68  1  0  0  0  0
 48 71  1  0  0  0  0
 49 67  1  0  0  0  0
 50 66  1  0  0  0  0
 52 62  1  0  0  0  0
 53 63  1  0  0  0  0
 54 64  1  0  0  0  0
 55 64  1  0  0  0  0
 56 64  1  0  0  0  0
 57 74  1  0  0  0  0
 58 73  1  0  0  0  0
 59 75  1  0  0  0  0
 60 63  1  0  0  0  0
 60 82  1  0  0  0  0
 61 64  1  0  0  0  0
 61 72  1  0  0  0  0
 62 74  1  0  0  0  0
 63 75  1  0  0  0  0
 65 66  1  0  0  0  0
M  CHG  2  74   1  75   1
M  ISO  4  38 100  60 101  73 100  82 101
M  END
> <Batch ID>
0027

> <Smiles>
CNC(C)C(=O)NC(C(=O)N1Cc2cc([101O:1][101CH2:1]C(C)NCc3cc(C)c(Cl)c(C[100NH:0][100C:0](=O)N4CCCC(n5nc(-c6ccc(Oc7ccc(F)cc7F)cc6)c(C(N)=O)c5N)C4)c3)ccc2CC1C(=O)NC1CCCc2ccccc21)C(C)(C)C

> <Shape>
0.145

> <Color>
0.192

> <Negative vol penalty>
0.000

$$$$

  -OEChem-04052316303D

 88 96  0     1  0  0  0  0  0999 V2000
  -34.4554  -28.2059   18.0917 C   0  0  0  0  0  0  0  0  0  0  0  0
  -33.0759  -28.2411   18.2683 C   0  0  0  0  0  0  0  0  0  0  0  0
  -23.8583  -14.7756   18.9415 C   0  0  0  0  0  0  0  0  0  0  0  0
  -23.2776  -14.7519   21.2866 C   0  0  0  0  0  0  0  0  0  0  0  0
  -35.0811  -27.0122   17.7346 C   0  0  0  0  0  0  0  0  0  0  0  0
  -32.3211  -27.0827   18.0869 C   0  0  0  0  0  0  0  0  0  0  0  0
  -28.8906  -26.4057   21.7499 C   0  0  0  0  0  0  0  0  0  0  0  0
  -24.8248  -13.7965   19.1709 C   0  0  0  0  0  0  0  0  0  0  0  0
  -24.2442  -13.7726   21.5160 C   0  0  0  0  0  0  0  0  0  0  0  0
  -27.7251  -27.1675   21.6795 C   0  0  0  0  0  0  0  0  0  0  0  0
  -27.9667  -13.6398   20.4073 C   0  0  0  0  0  0  0  0  0  0  0  0
  -29.2194  -13.8167   19.8200 C   0  0  0  0  0  0  0  0  0  0  0  0
  -26.5539  -25.2780   20.7428 C   0  0  0  0  0  0  0  0  0  0  0  0
  -28.9478  -11.7400   18.6155 C   0  0  0  0  0  0  0  0  0  0  0  0
  -23.0847  -15.2534   19.9994 C   0  0  0  0  0  0  0  0  0  0  0  0
  -20.7346  -16.0635   19.4266 C   0  0  0  0  0  0  0  0  0  0  0  0
  -34.3348  -25.8364   17.5582 C   0  0  0  0  0  0  0  0  0  0  0  0
  -28.8993  -25.0754   21.3065 C   0  0  0  0  0  0  0  0  0  0  0  0
  -32.9373  -25.8725   17.7258 C   0  0  0  0  0  0  0  0  0  0  0  0
  -27.7202  -24.5007   20.8111 C   0  0  0  0  0  0  0  0  0  0  0  0
  -19.1115  -27.2580   24.1641 C   0  0  0  0  0  0  0  0  0  0  0  0
  -18.9544  -25.9279   22.1533 C   0  0  0  0  0  0  0  0  0  0  0  0
  -19.8947  -28.1515   22.0604 C   0  0  0  0  0  0  0  0  0  0  0  0
  -25.0178  -13.2950   20.4581 C   0  0  0  0  0  0  0  0  0  0  0  0
  -26.5572  -26.6046   21.1731 C   0  0  0  0  0  0  0  0  0  0  0  0
  -27.2045  -12.5130   20.0989 C   0  0  0  0  0  0  0  0  0  0  0  0
  -29.7099  -12.8668   18.9240 C   0  0  0  0  0  0  0  0  0  0  0  0
  -27.6950  -11.5631   19.2029 C   0  0  0  0  0  0  0  0  0  0  0  0
  -18.7457  -26.0735   23.5248 C   0  0  0  0  0  0  0  0  0  0  0  0
  -19.6860  -28.2971   23.4318 C   0  0  0  0  0  0  0  0  0  0  0  0
  -19.5289  -26.9669   21.4211 C   0  0  0  0  0  0  0  0  0  0  0  0
  -22.0865  -16.2653   19.7632 C   0  0  0  0  0  0  0  0  0  0  0  0
  -20.2165  -17.3304   19.3121 C   0  0  0  0  0  0  0  0  0  0  0  0
  -20.0116  -14.8403   19.2348 C   0  0  0  0  0  0  0  0  0  0  0  0
  -30.4452  -23.4785   19.0340 C   0  0  0  0  0  0  0  0  0  0  0  0
  -28.9839  -20.9162   20.3837 C   0  0  0  0  0  0  0  0  0  0  0  0
  -26.3929  -19.7076   22.2472 C   0  0  0  0  0  0  0  0  0  0  0  0
  -19.6019  -22.4113   21.2496 C   0  0  0  0  0  0  0  0  0  0  0  0
  -35.0497  -24.5807   17.1260 C   0  0  0  0  0  0  0  0  0  0  0  0
  -30.1579  -24.2589   21.4141 C   0  0  0  0  0  0  0  0  0  0  0  0
  -27.6717  -23.0706   20.3409 C   0  0  0  0  0  0  0  0  0  0  0  0
  -34.2231  -23.3120   17.3190 C   0  0  0  0  0  0  0  0  0  0  0  0
  -22.5196  -21.8328   19.1881 C   0  0  0  0  0  0  0  0  0  0  0  0
  -32.8048  -23.5141   16.7951 C   0  0  0  0  0  0  0  0  0  0  0  0
  -22.5516  -20.3046   19.1283 C   0  0  0  0  0  0  0  0  0  0  0  0
  -22.0744  -22.3231   20.5627 C   0  0  0  0  0  0  0  0  0  0  0  0
  -20.7902  -20.2564   20.9545 C   0  0  0  0  0  0  0  0  0  0  0  0
  -32.0872  -24.6312   17.5623 C   0  0  1  0  0  0  0  0  0  0  0  0
  -30.1835  -23.0715   20.4565 C   0  0  1  0  0  0  0  0  0  0  0  0
  -21.2110  -19.6978   19.5830 C   0  0  2  0  0  0  0  0  0  0  0  0
  -18.8685  -27.3726   25.6352 C   0  0  0  0  0  0  0  0  0  0  0  0
  -25.4469  -17.5660   23.1505 C   0  0  0  0  0  0  0  0  0  0  0  0
  -21.8682  -31.1224   21.0229 C   0  0  0  0  0  0  0  0  0  0  0  0
  -27.9243  -20.2169   17.6091 C   0  0  0  0  0  0  0  0  0  0  0  0
  -26.2683  -18.6904   18.7027 C   0  0  0  0  0  0  0  0  0  0  0  0
  -28.7127  -18.2579   18.9491 C   0  0  0  0  0  0  0  0  0  0  0  0
  -26.6871  -20.6228   25.0462 C   0  0  0  0  0  0  0  0  0  0  0  0
  -18.5469  -24.6423   21.5078 C   0  0  0  0  0  0  0  0  0  0  0  0
  -23.1271  -27.5568   21.8472 C   0  0  0  0  0  0  0  0  0  0  0  0
  -22.8616  -28.8053   20.9945 C   0  0  0  0  0  0  0  0  0  0  0  0
  -24.1799  -26.6476   21.2235 C   0  0  0  0  0  0  0  0  0  1  0  0
  -27.6684  -20.2048   20.1783 C   0  0  1  0  0  0  0  0  0  0  0  0
  -26.3597  -18.7509   23.4253 C   0  0  2  0  0  0  0  0  0  0  0  0
  -21.7853  -29.7144   21.6039 C   0  0  2  0  0  0  0  0  0  0  0  0
  -27.6445  -19.3700   18.8668 C   0  0  0  0  0  0  0  0  0  0  0  0
  -22.4073  -17.5585   19.8563 N   0  0  0  0  0  0  0  0  0  0  0  0
  -21.2495  -18.1809   19.5764 N   0  0  0  0  0  0  0  0  0  0  0  0
  -28.9296  -22.3151   20.4605 N   0  0  0  0  0  0  0  0  0  0  0  0
  -20.7834  -21.7229   20.9277 N   0  0  0  0  0  0  0  0  0  0  0  0
  -18.9827  -17.7888   19.0120 N   0  0  0  0  0  0  0  0  0  0  0  0
  -20.6967  -13.6277   19.3913 N   0  0  0  0  0  0  0  0  0  0  0  0
  -20.4663  -29.1810   21.3344 N   0  0  0  0  0  0  0  0  0  0  0  0
  -31.6384  -24.1511   18.8517 N   0  0  0  0  0  0  0  0  0  0  0  0
  -27.4333  -19.4239   21.3880 N   0  0  0  0  0  0  0  0  0  0  0  0
  -19.6816  -23.7978   21.2074 N   0  0  0  0  0  0  0  0  0  0  0  0
  -25.8681  -19.4496   24.6463 N   0  3  0  0  0  0  0  0  0  0  0  0
  -18.7982  -14.8233   18.9173 O   0  0  0  0  0  0  0  0  0  0  0  0
  -29.6258  -23.2016   18.1659 O   0  0  0  0  0  0  0  0  0  0  0  0
  -30.0206  -20.2546   20.4799 O   0  0  0  0  0  0  0  0  0  0  0  0
  -25.5752  -20.6135   22.1016 O   0  0  0  0  0  0  0  0  0  0  0  0
  -18.5514  -21.8327   21.5476 O   0  0  0  0  0  0  0  0  0  0  0  0
  -25.9606  -12.3393   20.6822 O   0  0  0  0  0  0  0  0  0  0  0  0
  -25.4184  -27.3462   21.1026 O   0  0  0  0  0  0  0  0  0  1  0  0
  -30.9123  -13.0375   18.3589 F   0  0  0  0  0  0  0  0  0  0  0  0
  -26.9669  -10.4792   18.9018 F   0  0  0  0  0  0  0  0  0  0  0  0
  -18.1930  -25.0741   24.2290 F   0  0  0  0  0  0  0  0  0  0  0  0
  -20.1382  -29.7649   24.2383 Cl  0  0  0  0  0  0  0  0  0  0  0  0
  -19.7848  -26.7738   19.7164 Cl  0  0  0  0  0  0  0  0  0  0  0  0
  1  2  1  0  0  0  0
  1  5  2  0  0  0  0
  2  6  2  0  0  0  0
  3  8  2  0  0  0  0
  3 15  1  0  0  0  0
  4  9  1  0  0  0  0
  4 15  2  0  0  0  0
  5 17  1  0  0  0  0
  6 19  1  0  0  0  0
  7 10  2  0  0  0  0
  7 18  1  0  0  0  0
  8 24  1  0  0  0  0
  9 24  2  0  0  0  0
 10 25  1  0  0  0  0
 11 12  2  0  0  0  0
 11 26  1  0  0  0  0
 12 27  1  0  0  0  0
 13 20  1  0  0  0  0
 13 25  2  0  0  0  0
 14 27  2  0  0  0  0
 14 28  1  0  0  0  0
 15 32  1  0  0  0  0
 16 32  1  0  0  0  0
 16 33  2  0  0  0  0
 16 34  1  0  0  0  0
 17 19  2  0  0  0  0
 17 39  1  0  0  0  0
 18 20  2  0  0  0  0
 18 40  1  0  0  0  0
 19 48  1  0  0  0  0
 20 41  1  0  0  0  0
 21 29  1  0  0  0  0
 21 30  2  0  0  0  0
 21 51  1  0  0  0  0
 22 29  2  0  0  0  0
 22 31  1  0  0  0  0
 22 58  1  0  0  0  0
 23 30  1  0  0  0  0
 23 31  2  0  0  0  0
 23 72  1  0  0  0  0
 24 82  1  0  0  0  0
 25 83  1  0  0  0  0
 26 28  2  0  0  0  0
 26 82  1  0  0  0  0
 27 84  1  0  0  0  0
 28 85  1  0  0  0  0
 29 86  1  0  0  0  0
 30 87  1  0  0  0  0
 31 88  1  0  0  0  0
 32 66  2  0  0  0  0
 33 67  1  0  0  0  0
 33 70  1  0  0  0  0
 34 71  1  0  0  0  0
 34 77  2  0  0  0  0
 35 49  1  0  0  0  0
 35 73  1  0  0  0  0
 35 78  2  0  0  0  0
 36 62  1  0  0  0  0
 36 68  1  0  0  0  0
 36 79  2  0  0  0  0
 37 63  1  0  0  0  0
 37 74  1  0  0  0  0
 37 80  2  0  0  0  0
 38 69  1  0  0  0  0
 38 75  1  0  0  0  0
 38 81  2  0  0  0  0
 39 42  1  0  0  0  0
 40 49  1  0  0  0  0
 41 68  1  0  0  0  0
 42 44  1  0  0  0  0
 43 45  1  0  0  0  0
 43 46  1  0  0  0  0
 44 48  1  0  0  0  0
 45 50  1  0  0  0  0
 46 69  1  0  0  0  0
 47 50  1  0  0  0  0
 47 69  1  0  0  0  0
 48 73  1  0  0  0  0
 49 68  1  0  0  0  0
 50 67  1  0  0  0  0
 52 63  1  0  0  0  0
 53 64  1  0  0  0  0
 54 65  1  0  0  0  0
 55 65  1  0  0  0  0
 56 65  1  0  0  0  0
 57 76  1  0  0  0  0
 58 75  1  0  0  0  0
 59 60  1  0  0  0  0
 59 61  1  0  0  0  0
 60 64  1  0  0  0  0
 61 83  1  0  0  0  0
 62 65  1  0  0  0  0
 62 74  1  0  0  0  0
 63 76  1  0  0  0  0
 64 72  1  0  0  0  0
 66 67  1  0  0  0  0
M  CHG  1  76   1
M  ISO  4  38 100  61 101  75 100  83 101
M  END
> <Batch ID>
0027

> <Smiles>
CNC(C)C(=O)NC(C(=O)N1Cc2cc([101O:1][101CH2:1]CCC(C)Nc3c(Cl)c(C)c(F)c(C[100NH:0][100C:0](=O)N4CCCC(n5nc(-c6ccc(Oc7ccc(F)cc7F)cc6)c(C(N)=O)c5N)C4)c3Cl)ccc2CC1C(=O)NC1CCCc2ccccc21)C(C)(C)C

> <Shape>
0.214

> <Color>
0.059

> <Negative vol penalty>
0.000

$$$$

  -OEChem-04052316303D

 92101  0     1  0  0  0  0  0999 V2000
  -29.9037  -24.8439   18.0595 C   0  0  0  0  0  0  0  0  0  0  0  0
  -28.5173  -24.9036   18.1591 C   0  0  0  0  0  0  0  0  0  0  0  0
  -25.7856  -15.0118   19.8745 C   0  0  0  0  0  0  0  0  0  0  0  0
  -24.9607  -14.4491   22.0744 C   0  0  0  0  0  0  0  0  0  0  0  0
  -30.6979  -25.3890   19.0675 C   0  0  0  0  0  0  0  0  0  0  0  0
  -27.9244  -25.5075   19.2674 C   0  0  0  0  0  0  0  0  0  0  0  0
  -22.7186  -28.7320   19.3575 C   0  0  0  0  0  0  0  0  0  0  0  0
  -26.3725  -25.0435   24.6417 C   0  0  0  0  0  0  0  0  0  0  0  0
  -25.3588  -25.2881   23.7154 C   0  0  0  0  0  0  0  0  0  0  0  0
  -26.0199  -13.6611   19.6168 C   0  0  0  0  0  0  0  0  0  0  0  0
  -25.1948  -13.0984   21.8168 C   0  0  0  0  0  0  0  0  0  0  0  0
  -21.4119  -28.3941   19.7070 C   0  0  0  0  0  0  0  0  0  0  0  0
  -23.6917  -10.5905   20.1222 C   0  0  0  0  0  0  0  0  0  0  0  0
  -22.6933   -9.6824   20.4746 C   0  0  0  0  0  0  0  0  0  0  0  0
  -21.7828  -29.2750   21.9218 C   0  0  0  0  0  0  0  0  0  0  0  0
  -24.7834  -25.2868   26.4452 C   0  0  0  0  0  0  0  0  0  0  0  0
  -24.2366   -8.5606   21.9568 C   0  0  0  0  0  0  0  0  0  0  0  0
  -25.2561  -15.4058   21.1033 C   0  0  0  0  0  0  0  0  0  0  0  0
  -23.8342  -17.5238   21.1128 C   0  0  0  0  0  0  0  0  0  0  0  0
  -30.1145  -26.0084   20.1840 C   0  0  0  0  0  0  0  0  0  0  0  0
  -23.5721  -29.3351   20.2925 C   0  0  0  0  0  0  0  0  0  0  0  0
  -28.7117  -26.0602   20.2919 C   0  0  0  0  0  0  0  0  0  0  0  0
  -23.0991  -29.6219   21.5810 C   0  0  0  0  0  0  0  0  0  0  0  0
  -26.0848  -25.0428   26.0066 C   0  0  0  0  0  0  0  0  0  0  0  0
  -24.0574  -25.5322   24.1539 C   0  0  0  0  0  0  0  0  0  0  0  0
  -25.7244  -12.7044   20.5879 C   0  0  0  0  0  0  0  0  0  0  0  0
  -20.9447  -28.6630   20.9902 C   0  0  0  0  0  0  0  0  0  0  0  0
  -24.9627  -10.4836   20.6870 C   0  0  0  0  0  0  0  0  0  0  0  0
  -22.9657   -8.6676   21.3919 C   0  0  0  0  0  0  0  0  0  0  0  0
  -25.2351   -9.4687   21.6043 C   0  0  0  0  0  0  0  0  0  0  0  0
  -23.7696  -25.5315   25.5188 C   0  0  0  0  0  0  0  0  0  0  0  0
  -25.0144  -16.8010   21.3703 C   0  0  0  0  0  0  0  0  0  0  0  0
  -24.1111  -18.7982   21.5435 C   0  0  0  0  0  0  0  0  0  0  0  0
  -22.5979  -17.0826   20.5359 C   0  0  0  0  0  0  0  0  0  0  0  0
  -26.3305  -28.5352   21.6547 C   0  0  0  0  0  0  0  0  0  0  0  0
  -26.1466  -31.5326   22.8810 C   0  0  0  0  0  0  0  0  0  0  0  0
  -24.1913  -34.1859   23.7662 C   0  0  0  0  0  0  0  0  0  0  0  0
  -26.8828  -21.4560   25.7466 C   0  0  0  0  0  0  0  0  0  0  0  0
  -31.0140  -26.5414   21.2710 C   0  0  0  0  0  0  0  0  0  0  0  0
  -24.9705  -29.7177   19.8917 C   0  0  0  0  0  0  0  0  0  0  0  0
  -23.9690  -30.2865   22.6154 C   0  0  0  0  0  0  0  0  0  0  0  0
  -30.3091  -27.4961   22.2312 C   0  0  0  0  0  0  0  0  0  0  0  0
  -17.9222  -25.7880   23.9853 C   0  0  0  0  0  0  0  0  0  0  0  0
  -28.2498  -21.3667   22.3969 C   0  0  0  0  0  0  0  0  0  0  0  0
  -28.9660  -26.9194   22.6673 C   0  0  0  0  0  0  0  0  0  0  0  0
  -19.2559  -25.0657   23.7970 C   0  0  0  0  0  0  0  0  0  0  0  0
  -17.7237  -26.6583   22.7448 C   0  0  0  0  0  0  0  0  0  0  0  0
  -27.4303  -20.2407   21.7638 C   0  0  0  0  0  0  0  0  0  0  0  0
  -28.5747  -21.0609   23.8560 C   0  0  0  0  0  0  0  0  0  0  0  0
  -26.5634  -19.6538   24.0755 C   0  0  0  0  0  0  0  0  0  0  0  0
  -28.0313  -26.7289   21.4666 C   0  0  1  0  0  0  0  0  0  0  0  0
  -25.9151  -29.8604   21.0812 C   0  0  1  0  0  0  0  0  0  0  0  0
  -19.9416  -25.7818   22.6325 C   0  0  2  0  0  0  0  0  0  0  0  0
  -18.7585  -26.1612   21.7343 C   0  0  2  0  0  0  0  0  0  0  0  0
  -26.1832  -19.9133   22.6064 C   0  0  2  0  0  0  0  0  0  0  0  0
  -24.3223  -36.4788   24.7775 C   0  0  0  0  0  0  0  0  0  0  0  0
  -20.4074  -23.5959   21.4581 C   0  0  0  0  0  0  0  0  0  0  0  0
  -17.8512  -27.6462   19.9176 C   0  0  0  0  0  0  0  0  0  0  0  0
  -26.5194  -30.2906   25.6430 C   0  0  0  0  0  0  0  0  0  0  0  0
  -25.7034  -32.4366   26.6415 C   0  0  0  0  0  0  0  0  0  0  0  0
  -27.7893  -32.4131   25.2737 C   0  0  0  0  0  0  0  0  0  0  0  0
  -23.0917  -35.4510   21.3271 C   0  0  0  0  0  0  0  0  0  0  0  0
  -22.8336  -23.3679   22.5786 C   0  0  0  0  0  0  0  0  0  0  0  0
  -27.1687  -24.7814   26.9972 C   0  0  0  0  0  0  0  0  0  0  0  0
  -22.9960  -25.7918   23.1257 C   0  0  0  0  0  0  0  0  0  0  0  0
  -27.3372  -23.2978   27.3461 C   0  0  0  0  0  0  0  0  0  0  0  0
  -25.5522  -32.1433   24.1271 C   0  0  1  0  0  0  0  0  0  0  0  0
  -24.3243  -35.6723   23.4882 C   0  0  2  0  0  0  0  0  0  0  0  0
  -20.9858  -24.9136   21.9475 C   0  0  2  0  0  0  0  0  0  0  0  0
  -19.0916  -27.2051   20.6795 C   0  0  1  0  0  0  0  0  0  1  0  0
  -26.3750  -31.8066   25.4026 C   0  0  0  0  0  0  0  0  0  0  0  0
  -25.9701  -17.5537   21.9217 N   0  0  0  0  0  0  0  0  0  0  0  0
  -25.3907  -18.7628   22.0142 N   0  0  0  0  0  0  0  0  0  0  0  0
  -25.3305  -30.6357   22.1773 N   0  0  0  0  0  0  0  0  0  0  0  0
  -27.3435  -20.7765   24.6067 N   0  0  0  0  0  0  0  0  0  0  0  0
  -23.3825  -19.9345   21.5617 N   0  0  0  0  0  0  0  0  0  0  0  0
  -22.4827  -15.7405   20.1486 N   0  0  0  0  0  0  0  0  0  0  0  0
  -27.4585  -27.9962   21.0660 N   0  0  0  0  0  0  0  0  0  0  0  0
  -25.4222  -33.5716   23.8596 N   0  0  0  0  0  0  0  0  0  0  0  0
  -27.6832  -22.5020   26.1894 N   0  0  0  0  0  0  0  0  0  0  0  0
  -23.1950  -36.1433   22.6374 N   0  3  0  0  0  0  0  0  0  0  0  0
  -22.0693  -24.6201   22.9247 N   0  3  1  0  0  0  0  0  0  0  0  0
  -21.6300  -17.8594   20.3537 O   0  0  0  0  0  0  0  0  0  0  0  0
  -25.6769  -28.0392   22.5649 O   0  0  0  0  0  0  0  0  0  0  0  0
  -27.2903  -31.8455   22.5406 O   0  0  0  0  0  0  0  0  0  0  0  0
  -23.1042  -33.6264   23.8919 O   0  0  0  0  0  0  0  0  0  0  0  0
  -25.8325  -21.1561   26.3245 O   0  0  0  0  0  0  0  0  0  0  0  0
  -25.9526  -11.3863   20.3368 O   0  0  0  0  0  0  0  0  0  0  0  0
  -19.6699  -28.3336   21.3341 O   0  0  0  0  0  0  0  0  0  1  0  0
  -22.0064   -7.7966   21.7313 F   0  0  0  0  0  0  0  0  0  0  0  0
  -26.4538   -9.3616   22.1512 F   0  0  0  0  0  0  0  0  0  0  0  0
  -22.1713  -25.8305   26.0980 Cl  0  0  0  0  0  0  0  0  0  0  0  0
  1  2  1  0  0  0  0
  1  5  2  0  0  0  0
  2  6  2  0  0  0  0
  3 10  2  0  0  0  0
  3 18  1  0  0  0  0
  4 11  1  0  0  0  0
  4 18  2  0  0  0  0
  5 20  1  0  0  0  0
  6 22  1  0  0  0  0
  7 12  2  0  0  0  0
  7 21  1  0  0  0  0
  8  9  2  0  0  0  0
  8 24  1  0  0  0  0
  9 25  1  0  0  0  0
 10 26  1  0  0  0  0
 11 26  2  0  0  0  0
 12 27  1  0  0  0  0
 13 14  2  0  0  0  0
 13 28  1  0  0  0  0
 14 29  1  0  0  0  0
 15 23  1  0  0  0  0
 15 27  2  0  0  0  0
 16 24  2  0  0  0  0
 16 31  1  0  0  0  0
 17 29  2  0  0  0  0
 17 30  1  0  0  0  0
 18 32  1  0  0  0  0
 19 32  1  0  0  0  0
 19 33  2  0  0  0  0
 19 34  1  0  0  0  0
 20 22  2  0  0  0  0
 20 39  1  0  0  0  0
 21 23  2  0  0  0  0
 21 40  1  0  0  0  0
 22 51  1  0  0  0  0
 23 41  1  0  0  0  0
 24 64  1  0  0  0  0
 25 31  2  0  0  0  0
 25 65  1  0  0  0  0
 26 88  1  0  0  0  0
 27 89  1  0  0  0  0
 28 30  2  0  0  0  0
 28 88  1  0  0  0  0
 29 90  1  0  0  0  0
 30 91  1  0  0  0  0
 31 92  1  0  0  0  0
 32 72  2  0  0  0  0
 33 73  1  0  0  0  0
 33 76  1  0  0  0  0
 34 77  1  0  0  0  0
 34 83  2  0  0  0  0
 35 52  1  0  0  0  0
 35 78  1  0  0  0  0
 35 84  2  0  0  0  0
 36 67  1  0  0  0  0
 36 74  1  0  0  0  0
 36 85  2  0  0  0  0
 37 68  1  0  0  0  0
 37 79  1  0  0  0  0
 37 86  2  0  0  0  0
 38 75  1  0  0  0  0
 38 80  1  0  0  0  0
 38 87  2  0  0  0  0
 39 42  1  0  0  0  0
 40 52  1  0  0  0  0
 41 74  1  0  0  0  0
 42 45  1  0  0  0  0
 43 46  1  0  0  0  0
 43 47  1  0  0  0  0
 44 48  1  0  0  0  0
 44 49  1  0  0  0  0
 45 51  1  0  0  0  0
 46 53  1  0  0  0  0
 47 54  1  0  0  0  0
 48 55  1  0  0  0  0
 49 75  1  0  0  0  0
 50 55  1  0  0  0  0
 50 75  1  0  0  0  0
 51 78  1  0  0  0  0
 52 74  1  0  0  0  0
 53 54  1  0  0  0  0
 53 69  1  0  0  0  0
 54 70  1  0  0  0  0
 55 73  1  0  0  0  0
 56 68  1  0  0  0  0
 57 69  1  0  0  0  0
 58 70  1  0  0  0  0
 59 71  1  0  0  0  0
 60 71  1  0  0  0  0
 61 71  1  0  0  0  0
 62 81  1  0  0  0  0
 63 82  1  0  0  0  0
 64 66  1  0  0  0  0
 65 82  1  0  0  0  0
 66 80  1  0  0  0  0
 67 71  1  0  0  0  0
 67 79  1  0  0  0  0
 68 81  1  0  0  0  0
 69 82  1  0  0  0  0
 70 89  1  0  0  0  0
 72 73  1  0  0  0  0
M  CHG  2  81   1  82   1
M  ISO  4  38 100  70 101  80 100  89 101
M  END
> <Batch ID>
0027

> <Smiles>
CNC(C)C(=O)NC(C(=O)N1Cc2cc([101O:1][101CH:1](C)C3CCCC3C(C)N(C)Cc3ccc(CC[100NH:0][100C:0](=O)N4CCCC(n5nc(-c6ccc(Oc7ccc(F)cc7F)cc6)c(C(N)=O)c5N)C4)cc3Cl)ccc2CC1C(=O)NC1CCCc2ccccc21)C(C)(C)C

> <Shape>
0.286

> <Color>
0.075

> <Negative vol penalty>
0.000

$$$$

  -OEChem-04052316303D

 95103  0     1  0  0  0  0  0999 V2000
  -18.6597  -32.2138   24.0303 C   0  0  0  0  0  0  0  0  0  0  0  0
  -19.1029  -31.3853   23.0044 C   0  0  0  0  0  0  0  0  0  0  0  0
  -23.0758   -9.8154   19.9925 C   0  0  0  0  0  0  0  0  0  0  0  0
  -23.6997  -10.0066   22.3187 C   0  0  0  0  0  0  0  0  0  0  0  0
  -19.4351  -32.3765   25.1776 C   0  0  0  0  0  0  0  0  0  0  0  0
  -20.3223  -30.7197   23.1247 C   0  0  0  0  0  0  0  0  0  0  0  0
  -20.0369  -25.8690   21.6987 C   0  0  0  0  0  0  0  0  0  0  0  0
  -22.3301   -8.6739   20.2863 C   0  0  0  0  0  0  0  0  0  0  0  0
  -22.9539   -8.8650   22.6126 C   0  0  0  0  0  0  0  0  0  0  0  0
  -20.0372  -25.6068   20.3294 C   0  0  0  0  0  0  0  0  0  0  0  0
  -21.5079   -5.7953   23.9149 C   0  0  0  0  0  0  0  0  0  0  0  0
  -22.0887   -4.8377   24.7462 C   0  0  0  0  0  0  0  0  0  0  0  0
  -22.3818  -25.0510   20.4424 C   0  0  0  0  0  0  0  0  0  0  0  0
  -23.8914   -4.5562   23.1625 C   0  0  0  0  0  0  0  0  0  0  0  0
  -19.3969  -23.4870   14.5987 C   0  0  0  0  0  0  0  0  0  0  0  0
  -23.7607  -10.4818   21.0087 C   0  0  0  0  0  0  0  0  0  0  0  0
  -24.0837  -12.9953   20.7165 C   0  0  0  0  0  0  0  0  0  0  0  0
  -20.6600  -31.7050   25.3162 C   0  0  0  0  0  0  0  0  0  0  0  0
  -21.2137  -25.7344   22.4494 C   0  0  0  0  0  0  0  0  0  0  0  0
  -21.1154  -30.8746   24.2744 C   0  0  0  0  0  0  0  0  0  0  0  0
  -22.3933  -25.3096   21.8215 C   0  0  0  0  0  0  0  0  0  0  0  0
  -21.3926  -24.4241   15.4908 C   0  0  0  0  0  0  0  0  0  0  0  0
  -22.0790  -23.2933   15.0624 C   0  0  0  0  0  0  0  0  0  0  0  0
  -22.2691   -8.1987   21.5963 C   0  0  0  0  0  0  0  0  0  0  0  0
  -21.2104  -25.2005   19.7005 C   0  0  0  0  0  0  0  0  0  0  0  0
  -22.1188   -6.1334   22.7073 C   0  0  0  0  0  0  0  0  0  0  0  0
  -23.2805   -4.2181   24.3701 C   0  0  0  0  0  0  0  0  0  0  0  0
  -23.3105   -5.5138   22.3311 C   0  0  0  0  0  0  0  0  0  0  0  0
  -20.0259  -24.5306   15.2584 C   0  0  0  0  0  0  0  0  0  0  0  0
  -24.5316  -11.6607   20.7058 C   0  0  0  0  0  0  0  0  0  0  0  0
  -21.3581  -22.3050   14.4117 C   0  0  0  0  0  0  0  0  0  0  0  0
  -25.1878  -13.7308   20.3608 C   0  0  0  0  0  0  0  0  0  0  0  0
  -22.7858  -13.5229   21.0208 C   0  0  0  0  0  0  0  0  0  0  0  0
  -23.0227  -27.7121   24.1583 C   0  0  0  0  0  0  0  0  0  0  0  0
  -24.5938  -24.9818   24.9326 C   0  0  0  0  0  0  0  0  0  0  0  0
  -25.3953  -21.7678   24.1110 C   0  0  0  0  0  0  0  0  0  0  0  0
  -30.6406  -14.8401   20.7873 C   0  0  0  0  0  0  0  0  0  0  0  0
  -21.4856  -31.9491   26.5546 C   0  0  0  0  0  0  0  0  0  0  0  0
  -21.1905  -25.9953   23.9306 C   0  0  0  0  0  0  0  0  0  0  0  0
  -23.6784  -25.1304   22.5862 C   0  0  0  0  0  0  0  0  0  0  0  0
  -22.5886  -30.9150   26.7649 C   0  0  0  0  0  0  0  0  0  0  0  0
  -29.6689  -12.2659   18.5276 C   0  0  0  0  0  0  0  0  0  0  0  0
  -23.3488  -30.6733   25.4648 C   0  0  0  0  0  0  0  0  0  0  0  0
  -28.2115  -11.9851   18.8979 C   0  0  0  0  0  0  0  0  0  0  0  0
  -30.5117  -12.5900   19.7591 C   0  0  0  0  0  0  0  0  0  0  0  0
  -28.5247  -13.3963   20.9738 C   0  0  0  0  0  0  0  0  0  0  0  0
  -22.4208  -30.1162   24.3785 C   0  0  1  0  0  0  0  0  0  0  0  0
  -22.5671  -26.3219   24.5013 C   0  0  1  0  0  0  0  0  0  0  0  0
  -27.6231  -13.1192   19.7586 C   0  0  2  0  0  0  0  0  0  0  0  0
  -24.0251  -17.2208   13.5900 C   0  0  0  0  0  0  0  0  0  0  0  0
  -26.7277  -19.8014   24.9206 C   0  0  0  0  0  0  0  0  0  0  0  0
  -27.1632  -26.3484   24.0157 C   0  0  0  0  0  0  0  0  0  0  0  0
  -28.2531  -24.0956   23.9433 C   0  0  0  0  0  0  0  0  0  0  0  0
  -27.3908  -24.9931   26.1052 C   0  0  0  0  0  0  0  0  0  0  0  0
  -22.9801  -20.0703   24.3210 C   0  0  0  0  0  0  0  0  0  0  0  0
  -22.1329  -25.5154   16.1985 C   0  0  0  0  0  0  0  0  0  0  0  0
  -23.5536  -23.1566   15.3023 C   0  0  0  0  0  0  0  0  0  0  0  0
  -23.1037  -18.3416   14.0456 C   0  0  0  0  0  0  0  0  0  0  0  0
  -28.6865  -19.4702   19.4626 C   0  0  0  0  0  0  0  0  0  0  0  0
  -27.1997  -19.7278   19.2068 C   0  0  0  0  0  0  0  0  0  0  0  0
  -28.8894  -18.4361   20.5720 C   0  0  0  0  0  0  0  0  0  0  0  0
  -26.9994  -20.7333   18.0707 C   0  0  0  0  0  0  0  0  0  0  0  0
  -22.3805  -18.9866   12.8611 C   0  0  0  0  0  0  0  0  0  0  0  0
  -30.3767  -18.1504   20.7993 C   0  0  0  0  0  0  0  0  0  0  0  0
  -25.5271  -20.9745   17.7270 C   0  0  0  0  0  0  0  0  0  0  0  0
  -21.4035  -20.0750   13.2933 C   0  0  0  0  0  0  0  0  0  0  0  0
  -30.6123  -17.0786   21.8584 C   0  0  0  0  0  0  0  0  0  0  0  0
  -25.3338  -21.9972   16.6160 C   0  0  0  0  0  0  0  0  0  0  0  0
  -22.4320  -25.1774   17.6601 C   0  0  0  0  0  0  0  0  0  1  0  0
  -25.7520  -24.2116   24.3457 C   0  0  1  0  0  0  0  0  0  0  0  0
  -25.3690  -20.4845   24.9215 C   0  0  2  0  0  0  0  0  0  0  0  0
  -27.1162  -24.9173   24.5874 C   0  0  0  0  0  0  0  0  0  0  0  0
  -20.0301  -22.3730   14.1678 N   0  0  0  0  0  0  0  0  0  0  0  0
  -25.8197  -11.5518   20.3698 N   0  0  0  0  0  0  0  0  0  0  0  0
  -26.1907  -12.8273   20.1659 N   0  0  0  0  0  0  0  0  0  0  0  0
  -23.6064  -25.4038   24.0311 N   0  0  0  0  0  0  0  0  0  0  0  0
  -29.8999  -13.6745   20.5308 N   0  0  0  0  0  0  0  0  0  0  0  0
  -25.3888  -15.0559   20.1987 N   0  0  0  0  0  0  0  0  0  0  0  0
  -21.7649  -12.6273   21.3674 N   0  0  0  0  0  0  0  0  0  0  0  0
  -22.0512  -21.1493   13.9723 N   0  0  0  0  0  0  0  0  0  0  0  0
  -22.1723  -28.7078   24.5996 N   0  0  0  0  0  0  0  0  0  0  0  0
  -25.6694  -22.8648   24.9002 N   0  0  0  0  0  0  0  0  0  0  0  0
  -29.9838  -15.8211   21.5201 N   0  0  0  0  0  0  0  0  0  0  0  0
  -24.3661  -19.5368   24.3584 N   0  3  0  0  0  0  0  0  0  0  0  0
  -23.8805  -22.2004   16.3949 N   0  3  0  0  0  0  0  0  0  0  0  0
  -22.5343  -14.7508   20.9704 O   0  0  0  0  0  0  0  0  0  0  0  0
  -24.0691  -27.8697   23.5403 O   0  0  0  0  0  0  0  0  0  0  0  0
  -24.5627  -25.1947   26.1472 O   0  0  0  0  0  0  0  0  0  0  0  0
  -25.1965  -21.7941   22.8985 O   0  0  0  0  0  0  0  0  0  0  0  0
  -31.7994  -14.9971   20.3880 O   0  0  0  0  0  0  0  0  0  0  0  0
  -21.5413   -7.0849   21.8834 O   0  0  0  0  0  0  0  0  0  0  0  0
  -21.2136  -24.9428   18.3545 O   0  0  0  0  0  0  0  0  0  1  0  0
  -23.8389   -3.2996   25.1692 F   0  0  0  0  0  0  0  0  0  0  0  0
  -23.9027   -5.8353   21.1728 F   0  0  0  0  0  0  0  0  0  0  0  0
  -19.1089  -25.8975   15.7578 Cl  0  0  0  0  0  0  0  0  0  0  0  0
  1  2  1  0  0  0  0
  1  5  2  0  0  0  0
  2  6  2  0  0  0  0
  3  8  2  0  0  0  0
  3 16  1  0  0  0  0
  4  9  1  0  0  0  0
  4 16  2  0  0  0  0
  5 18  1  0  0  0  0
  6 20  1  0  0  0  0
  7 10  2  0  0  0  0
  7 19  1  0  0  0  0
  8 24  1  0  0  0  0
  9 24  2  0  0  0  0
 10 25  1  0  0  0  0
 11 12  2  0  0  0  0
 11 26  1  0  0  0  0
 12 27  1  0  0  0  0
 13 21  1  0  0  0  0
 13 25  2  0  0  0  0
 14 27  2  0  0  0  0
 14 28  1  0  0  0  0
 15 29  1  0  0  0  0
 15 73  2  0  0  0  0
 16 30  1  0  0  0  0
 17 30  1  0  0  0  0
 17 32  2  0  0  0  0
 17 33  1  0  0  0  0
 18 20  2  0  0  0  0
 18 38  1  0  0  0  0
 19 21  2  0  0  0  0
 19 39  1  0  0  0  0
 20 47  1  0  0  0  0
 21 40  1  0  0  0  0
 22 23  1  0  0  0  0
 22 29  2  0  0  0  0
 22 56  1  0  0  0  0
 23 31  2  0  0  0  0
 23 57  1  0  0  0  0
 24 91  1  0  0  0  0
 25 92  1  0  0  0  0
 26 28  2  0  0  0  0
 26 91  1  0  0  0  0
 27 93  1  0  0  0  0
 28 94  1  0  0  0  0
 29 95  1  0  0  0  0
 30 74  2  0  0  0  0
 31 73  1  0  0  0  0
 31 80  1  0  0  0  0
 32 75  1  0  0  0  0
 32 78  1  0  0  0  0
 33 79  1  0  0  0  0
 33 86  2  0  0  0  0
 34 48  1  0  0  0  0
 34 81  1  0  0  0  0
 34 87  2  0  0  0  0
 35 70  1  0  0  0  0
 35 76  1  0  0  0  0
 35 88  2  0  0  0  0
 36 71  1  0  0  0  0
 36 82  1  0  0  0  0
 36 89  2  0  0  0  0
 37 77  1  0  0  0  0
 37 83  1  0  0  0  0
 37 90  2  0  0  0  0
 38 41  1  0  0  0  0
 39 48  1  0  0  0  0
 40 76  1  0  0  0  0
 41 43  1  0  0  0  0
 42 44  1  0  0  0  0
 42 45  1  0  0  0  0
 43 47  1  0  0  0  0
 44 49  1  0  0  0  0
 45 77  1  0  0  0  0
 46 49  1  0  0  0  0
 46 77  1  0  0  0  0
 47 81  1  0  0  0  0
 48 76  1  0  0  0  0
 49 75  1  0  0  0  0
 50 58  1  0  0  0  0
 51 71  1  0  0  0  0
 52 72  1  0  0  0  0
 53 72  1  0  0  0  0
 54 72  1  0  0  0  0
 55 84  1  0  0  0  0
 56 69  1  0  0  0  0
 57 85  1  0  0  0  0
 58 63  1  0  0  0  0
 59 60  1  0  0  0  0
 59 61  1  0  0  0  0
 60 62  1  0  0  0  0
 61 64  1  0  0  0  0
 62 65  1  0  0  0  0
 63 66  1  0  0  0  0
 64 67  1  0  0  0  0
 65 68  1  0  0  0  0
 66 80  1  0  0  0  0
 67 83  1  0  0  0  0
 68 85  1  0  0  0  0
 69 92  1  0  0  0  0
 70 72  1  0  0  0  0
 70 82  1  0  0  0  0
 71 84  1  0  0  0  0
 74 75  1  0  0  0  0
M  CHG  2  84   1  85   1
M  ISO  4  37 100  69 101  83 100  92 101
M  END
> <Batch ID>
0027

> <Smiles>
CCCCNc1ncc(Cl)c(C[101CH2:1][101O:1]c2ccc3c(c2)CN(C(=O)C(NC(=O)C(C)NC)C(C)(C)C)C(C(=O)NC2CCCc4ccccc42)C3)c1CNCCCCCCCC[100NH:0][100C:0](=O)N1CCCC(n2nc(-c3ccc(Oc4ccc(F)cc4F)cc3)c(C(N)=O)c2N)C1

> <Shape>
0.221

> <Color>
0.180

> <Negative vol penalty>
0.000

$$$$

  -OEChem-04052316303D

 85 93  0     1  0  0  0  0  0999 V2000
  -17.4124  -25.9369   25.3493 C   0  0  0  0  0  0  0  0  0  0  0  0
  -17.7964  -24.8086   24.6316 C   0  0  0  0  0  0  0  0  0  0  0  0
  -24.2964  -15.5628   20.3016 C   0  0  0  0  0  0  0  0  0  0  0  0
  -26.0648  -13.9641   19.9090 C   0  0  0  0  0  0  0  0  0  0  0  0
  -17.8283  -27.2010   24.9335 C   0  0  0  0  0  0  0  0  0  0  0  0
  -18.5956  -24.9440   23.4970 C   0  0  0  0  0  0  0  0  0  0  0  0
  -23.7530  -21.5502   19.8638 C   0  0  0  0  0  0  0  0  0  0  0  0
  -23.3491  -14.5477   20.1685 C   0  0  0  0  0  0  0  0  0  0  0  0
  -25.1175  -12.9490   19.7759 C   0  0  0  0  0  0  0  0  0  0  0  0
  -24.0532  -21.1137   18.5742 C   0  0  0  0  0  0  0  0  0  0  0  0
  -23.2244  -11.0283   21.8126 C   0  0  0  0  0  0  0  0  0  0  0  0
  -23.4727   -9.8223   22.4679 C   0  0  0  0  0  0  0  0  0  0  0  0
  -24.7772  -23.3407   17.9953 C   0  0  0  0  0  0  0  0  0  0  0  0
  -23.4349   -8.6629   20.3486 C   0  0  0  0  0  0  0  0  0  0  0  0
  -25.6543  -15.2710   20.1718 C   0  0  0  0  0  0  0  0  0  0  0  0
  -27.2729  -16.7361   21.4914 C   0  0  0  0  0  0  0  0  0  0  0  0
  -18.6410  -27.3511   23.7987 C   0  0  0  0  0  0  0  0  0  0  0  0
  -23.9527  -22.8901   20.2262 C   0  0  0  0  0  0  0  0  0  0  0  0
  -19.0216  -26.2114   23.0648 C   0  0  0  0  0  0  0  0  0  0  0  0
  -24.4811  -23.7912   19.2909 C   0  0  0  0  0  0  0  0  0  0  0  0
  -23.7596  -13.2408   19.9057 C   0  0  0  0  0  0  0  0  0  0  0  0
  -24.5627  -22.0096   17.6389 C   0  0  0  0  0  0  0  0  0  0  0  0
  -23.0812  -11.0517   20.4252 C   0  0  0  0  0  0  0  0  0  0  0  0
  -23.5779   -8.6396   21.7359 C   0  0  0  0  0  0  0  0  0  0  0  0
  -23.1865   -9.8690   19.6932 C   0  0  0  0  0  0  0  0  0  0  0  0
  -26.6333  -16.3193   20.3086 C   0  0  0  0  0  0  0  0  0  0  0  0
  -28.1049  -17.7532   21.0918 C   0  0  0  0  0  0  0  0  0  0  0  0
  -27.1280  -16.2474   22.8315 C   0  0  0  0  0  0  0  0  0  0  0  0
  -22.0663  -25.2548   21.2027 C   0  0  0  0  0  0  0  0  0  0  0  0
  -24.8820  -26.8165   21.5964 C   0  0  0  0  0  0  0  0  0  0  0  0
  -28.6837  -22.9488   13.2528 C   0  0  0  0  0  0  0  0  0  0  0  0
  -28.1684  -27.1273   20.7305 C   0  0  0  0  0  0  0  0  0  0  0  0
  -29.1945  -22.2413   18.3565 C   0  0  0  0  0  0  0  0  0  0  0  0
  -19.0265  -28.7419   23.3607 C   0  0  0  0  0  0  0  0  0  0  0  0
  -23.6489  -23.3392   21.6292 C   0  0  0  0  0  0  0  0  0  0  0  0
  -24.7330  -25.2355   19.6359 C   0  0  0  0  0  0  0  0  0  0  0  0
  -20.1818  -28.7681   22.3633 C   0  0  0  0  0  0  0  0  0  0  0  0
  -29.4635  -19.2891   16.4751 C   0  0  0  0  0  0  0  0  0  0  0  0
  -19.9613  -27.7341   21.2637 C   0  0  0  0  0  0  0  0  0  0  0  0
  -28.7974  -18.2752   17.4048 C   0  0  0  0  0  0  0  0  0  0  0  0
  -30.3370  -25.3417   17.3319 C   0  0  0  0  0  0  0  0  0  0  0  0
  -28.7220  -20.6270   16.4608 C   0  0  0  0  0  0  0  0  0  0  0  0
  -30.8284  -24.0681   18.0056 C   0  0  0  0  0  0  0  0  0  0  0  0
  -30.1468  -22.7081   16.0526 C   0  0  0  0  0  0  0  0  0  0  0  0
  -27.8468  -20.1977   18.7342 C   0  0  0  0  0  0  0  0  0  0  0  0
  -19.9085  -26.3153   21.8431 C   0  0  1  0  0  0  0  0  0  0  0  0
  -23.4087  -24.8419   21.7368 C   0  0  1  0  0  0  0  0  0  0  0  0
  -29.6600  -23.9701   15.3211 C   0  0  1  0  0  0  0  0  0  0  0  0
  -28.6028  -18.8624   18.8141 C   0  0  1  0  0  0  0  0  0  0  0  0
  -30.4054  -25.2150   15.8144 C   0  0  1  0  0  0  0  0  0  0  0  0
  -31.1791  -23.2104   13.4749 C   0  0  0  0  0  0  0  0  0  0  0  0
  -30.5252  -27.9859   20.8063 C   0  0  0  0  0  0  0  0  0  0  0  0
  -23.7355  -29.0590   19.8740 C   0  0  0  0  0  0  0  0  0  0  0  0
  -26.0638  -29.9330   19.5851 C   0  0  0  0  0  0  0  0  0  0  0  0
  -25.0440  -29.8336   21.8595 C   0  0  0  0  0  0  0  0  0  0  0  0
  -28.9539  -25.1293   22.7676 C   0  0  0  0  0  0  0  0  0  0  0  0
  -25.6621  -21.8839   14.1341 C   0  0  0  0  0  0  0  0  0  0  0  0
  -26.2053  -22.8503   13.0902 C   0  0  0  0  0  0  0  0  0  0  0  0
  -25.3747  -22.5557   15.4713 C   0  0  0  0  0  0  0  0  0  1  0  0
  -25.7520  -27.6886   20.7237 C   0  0  1  0  0  0  0  0  0  0  0  0
  -29.8156  -23.8102   13.8091 C   0  0  1  0  0  0  0  0  0  0  0  0
  -29.4228  -27.2722   21.5731 C   0  0  2  0  0  0  0  0  0  0  0  0
  -25.1424  -29.1019   20.5032 C   0  0  0  0  0  0  0  0  0  0  0  0
  -27.0252  -17.0150   19.2378 N   0  0  0  0  0  0  0  0  0  0  0  0
  -27.9200  -17.8792   19.7464 N   0  0  0  0  0  0  0  0  0  0  0  0
  -24.4140  -25.6278   21.0186 N   0  0  0  0  0  0  0  0  0  0  0  0
  -28.5249  -21.1273   17.8285 N   0  0  0  0  0  0  0  0  0  0  0  0
  -30.0999  -22.8994   17.5107 N   0  0  0  0  0  0  0  0  0  0  0  0
  -28.9692  -18.5432   21.7635 N   0  0  0  0  0  0  0  0  0  0  0  0
  -26.2299  -15.1974   23.0663 N   0  0  0  0  0  0  0  0  0  0  0  0
  -21.2428  -25.8424   22.1440 N   0  0  0  0  0  0  0  0  0  0  0  0
  -27.4314  -23.4854   13.5144 N   0  0  0  0  0  0  0  0  0  0  0  0
  -27.0728  -27.6976   21.3433 N   0  0  0  0  0  0  0  0  0  0  0  0
  -29.9282  -25.9319   21.9844 N   0  3  0  0  0  0  0  0  0  0  0  0
  -27.7637  -16.7386   23.7949 O   0  0  0  0  0  0  0  0  0  0  0  0
  -21.7981  -25.0564   20.0235 O   0  0  0  0  0  0  0  0  0  0  0  0
  -24.6329  -27.1732   22.7507 O   0  0  0  0  0  0  0  0  0  0  0  0
  -28.8832  -21.8988   12.6458 O   0  0  0  0  0  0  0  0  0  0  0  0
  -28.1620  -26.5676   19.6363 O   0  0  0  0  0  0  0  0  0  0  0  0
  -28.9953  -22.6257   19.5157 O   0  0  0  0  0  0  0  0  0  0  0  0
  -22.8355  -12.2499   19.7760 O   0  0  0  0  0  0  0  0  0  0  0  0
  -24.8582  -21.5832   16.3703 O   0  0  0  0  0  0  0  0  0  1  0  0
  -23.8179   -7.4818   22.3652 F   0  0  0  0  0  0  0  0  0  0  0  0
  -23.0511   -9.8853   18.3601 F   0  0  0  0  0  0  0  0  0  0  0  0
  -29.8331  -26.3214   15.2656 F   0  0  0  0  0  0  0  0  0  0  0  0
  1  2  1  0  0  0  0
  1  5  2  0  0  0  0
  2  6  2  0  0  0  0
  3  8  2  0  0  0  0
  3 15  1  0  0  0  0
  4  9  1  0  0  0  0
  4 15  2  0  0  0  0
  5 17  1  0  0  0  0
  6 19  1  0  0  0  0
  7 10  2  0  0  0  0
  7 18  1  0  0  0  0
  8 21  1  0  0  0  0
  9 21  2  0  0  0  0
 10 22  1  0  0  0  0
 11 12  2  0  0  0  0
 11 23  1  0  0  0  0
 12 24  1  0  0  0  0
 13 20  1  0  0  0  0
 13 22  2  0  0  0  0
 14 24  2  0  0  0  0
 14 25  1  0  0  0  0
 15 26  1  0  0  0  0
 16 26  1  0  0  0  0
 16 27  2  0  0  0  0
 16 28  1  0  0  0  0
 17 19  2  0  0  0  0
 17 34  1  0  0  0  0
 18 20  2  0  0  0  0
 18 35  1  0  0  0  0
 19 46  1  0  0  0  0
 20 36  1  0  0  0  0
 21 81  1  0  0  0  0
 22 82  1  0  0  0  0
 23 25  2  0  0  0  0
 23 81  1  0  0  0  0
 24 83  1  0  0  0  0
 25 84  1  0  0  0  0
 26 64  2  0  0  0  0
 27 65  1  0  0  0  0
 27 69  1  0  0  0  0
 28 70  1  0  0  0  0
 28 75  2  0  0  0  0
 29 47  1  0  0  0  0
 29 71  1  0  0  0  0
 29 76  2  0  0  0  0
 30 60  1  0  0  0  0
 30 66  1  0  0  0  0
 30 77  2  0  0  0  0
 31 61  1  0  0  0  0
 31 72  1  0  0  0  0
 31 78  2  0  0  0  0
 32 62  1  0  0  0  0
 32 73  1  0  0  0  0
 32 79  2  0  0  0  0
 33 67  1  0  0  0  0
 33 68  1  0  0  0  0
 33 80  2  0  0  0  0
 34 37  1  0  0  0  0
 35 47  1  0  0  0  0
 36 66  1  0  0  0  0
 37 39  1  0  0  0  0
 38 40  1  0  0  0  0
 38 42  1  0  0  0  0
 39 46  1  0  0  0  0
 40 49  1  0  0  0  0
 41 43  1  0  0  0  0
 41 50  1  0  0  0  0
 42 67  1  0  0  0  0
 43 68  1  0  0  0  0
 44 48  1  0  0  0  0
 44 68  1  0  0  0  0
 45 49  1  0  0  0  0
 45 67  1  0  0  0  0
 46 71  1  0  0  0  0
 47 66  1  0  0  0  0
 48 50  1  0  0  0  0
 48 61  1  0  0  0  0
 49 65  1  0  0  0  0
 50 85  1  0  0  0  0
 51 61  1  0  0  0  0
 52 62  1  0  0  0  0
 53 63  1  0  0  0  0
 54 63  1  0  0  0  0
 55 63  1  0  0  0  0
 56 74  1  0  0  0  0
 57 58  1  0  0  0  0
 57 59  1  0  0  0  0
 58 72  1  0  0  0  0
 59 82  1  0  0  0  0
 60 63  1  0  0  0  0
 60 73  1  0  0  0  0
 62 74  1  0  0  0  0
 64 65  1  0  0  0  0
M  CHG  1  74   1
M  ISO  4  33 100  59 101  68 100  82 101
M  END
> <Batch ID>
0027

> <Smiles>
CNC(C)C(=O)NC(C(=O)N1Cc2cc([101O:1][101CH2:1]CCNC(=O)C(C)C3C[100N:0]([100C:0](=O)N4CCCC(n5nc(-c6ccc(Oc7ccc(F)cc7F)cc6)c(C(N)=O)c5N)C4)CCC3F)ccc2CC1C(=O)NC1CCCc2ccccc21)C(C)(C)C

> <Shape>
0.222

> <Color>
0.058

> <Negative vol penalty>
0.000

$$$$

  -OEChem-04052316303D

 91 99  0     1  0  0  0  0  0999 V2000
  -27.3855  -25.4587   13.0121 C   0  0  0  0  0  0  0  0  0  0  0  0
  -26.4820  -25.3692   14.0662 C   0  0  0  0  0  0  0  0  0  0  0  0
  -29.3465  -17.3758   20.8632 C   0  0  0  0  0  0  0  0  0  0  0  0
  -27.5952  -18.2690   22.2675 C   0  0  0  0  0  0  0  0  0  0  0  0
  -28.7335  -25.7042   13.2699 C   0  0  0  0  0  0  0  0  0  0  0  0
  -26.9263  -25.5240   15.3789 C   0  0  0  0  0  0  0  0  0  0  0  0
  -23.8947  -28.5181   18.1155 C   0  0  0  0  0  0  0  0  0  0  0  0
  -29.6751  -18.6673   20.4515 C   0  0  0  0  0  0  0  0  0  0  0  0
  -27.9238  -19.5606   21.8558 C   0  0  0  0  0  0  0  0  0  0  0  0
  -22.7086  -27.9600   18.5904 C   0  0  0  0  0  0  0  0  0  0  0  0
  -27.3839  -21.5295   19.1608 C   0  0  0  0  0  0  0  0  0  0  0  0
  -26.3382  -22.3847   18.8133 C   0  0  0  0  0  0  0  0  0  0  0  0
  -23.7308  -27.6422   20.7522 C   0  0  0  0  0  0  0  0  0  0  0  0
  -17.6173  -24.8620   22.6459 C   0  0  0  0  0  0  0  0  0  0  0  0
  -27.0172  -23.9208   20.5501 C   0  0  0  0  0  0  0  0  0  0  0  0
  -28.3065  -17.1766   21.7712 C   0  0  0  0  0  0  0  0  0  0  0  0
  -28.4918  -15.1416   23.2982 C   0  0  0  0  0  0  0  0  0  0  0  0
  -29.1929  -25.8717   14.5858 C   0  0  0  0  0  0  0  0  0  0  0  0
  -25.0130  -28.6327   18.9537 C   0  0  0  0  0  0  0  0  0  0  0  0
  -28.2820  -25.7706   15.6546 C   0  0  0  0  0  0  0  0  0  0  0  0
  -24.9290  -28.2045   20.2863 C   0  0  0  0  0  0  0  0  0  0  0  0
  -18.7152  -24.0216   22.4619 C   0  0  0  0  0  0  0  0  0  0  0  0
  -19.0206  -26.7853   22.2347 C   0  0  0  0  0  0  0  0  0  0  0  0
  -20.1185  -25.9448   22.0508 C   0  0  0  0  0  0  0  0  0  0  0  0
  -28.9638  -19.7598   20.9478 C   0  0  0  0  0  0  0  0  0  0  0  0
  -22.6274  -27.5193   19.9081 C   0  0  0  0  0  0  0  0  0  0  0  0
  -28.2462  -21.8699   20.2031 C   0  0  0  0  0  0  0  0  0  0  0  0
  -26.1549  -23.5803   19.5078 C   0  0  0  0  0  0  0  0  0  0  0  0
  -28.0629  -23.0655   20.8977 C   0  0  0  0  0  0  0  0  0  0  0  0
  -17.7700  -26.2439   22.5323 C   0  0  0  0  0  0  0  0  0  0  0  0
  -19.9658  -24.5629   22.1644 C   0  0  0  0  0  0  0  0  0  0  0  0
  -27.9662  -15.8427   22.1964 C   0  0  0  0  0  0  0  0  0  0  0  0
  -27.8497  -13.9277   23.2709 C   0  0  0  0  0  0  0  0  0  0  0  0
  -29.4728  -15.5510   24.2604 C   0  0  0  0  0  0  0  0  0  0  0  0
  -27.9658  -27.4561   18.9275 C   0  0  0  0  0  0  0  0  0  0  0  0
  -28.3533  -29.4207   21.4795 C   0  0  0  0  0  0  0  0  0  0  0  0
  -26.9217  -31.1336   24.0608 C   0  0  0  0  0  0  0  0  0  0  0  0
  -22.5912  -12.1463   21.0290 C   0  0  0  0  0  0  0  0  0  0  0  0
  -30.6673  -26.0884   14.8179 C   0  0  0  0  0  0  0  0  0  0  0  0
  -26.2767  -29.2614   18.4339 C   0  0  0  0  0  0  0  0  0  0  0  0
  -26.0948  -28.3236   21.2325 C   0  0  0  0  0  0  0  0  0  0  0  0
  -30.9935  -26.6129   16.2139 C   0  0  0  0  0  0  0  0  0  0  0  0
  -25.8078  -10.8392   20.2406 C   0  0  0  0  0  0  0  0  0  0  0  0
  -30.2374  -25.8174   17.2732 C   0  0  0  0  0  0  0  0  0  0  0  0
  -26.7732  -11.9100   20.7519 C   0  0  0  0  0  0  0  0  0  0  0  0
  -24.5370  -11.4558   19.6602 C   0  0  0  0  0  0  0  0  0  0  0  0
  -24.7987  -13.4584   21.0725 C   0  0  0  0  0  0  0  0  0  0  0  0
  -28.7213  -25.9575   17.0906 C   0  0  1  0  0  0  0  0  0  0  0  0
  -27.5153  -28.8578   19.2277 C   0  0  1  0  0  0  0  0  0  0  0  0
  -26.0708  -12.8829   21.7181 C   0  0  2  0  0  0  0  0  0  0  0  0
  -19.1965  -28.2671   22.1087 C   0  0  0  0  0  0  0  0  0  0  0  0
  -27.4986  -32.6190   25.9994 C   0  0  0  0  0  0  0  0  0  0  0  0
  -29.3598  -26.9961   23.0347 C   0  0  0  0  0  0  0  0  0  0  0  0
  -29.0129  -28.2944   25.1471 C   0  0  0  0  0  0  0  0  0  0  0  0
  -30.6440  -29.1032   23.4417 C   0  0  0  0  0  0  0  0  0  0  0  0
  -25.3065  -33.3659   22.9806 C   0  0  0  0  0  0  0  0  0  0  0  0
  -18.5035  -22.5421   22.5933 C   0  0  0  0  0  0  0  0  0  0  0  0
  -21.4546  -26.5427   21.7320 C   0  0  0  0  0  0  0  0  0  1  0  0
  -18.9817  -15.9856   20.7647 C   0  0  0  0  0  0  0  0  0  0  0  0
  -19.2654  -17.4895   20.7466 C   0  0  0  0  0  0  0  0  0  0  0  0
  -20.0400  -15.2292   21.5702 C   0  0  0  0  0  0  0  0  0  0  0  0
  -18.1844  -18.2477   19.9731 C   0  0  0  0  0  0  0  0  0  0  0  0
  -19.7326  -13.7297   21.6203 C   0  0  0  0  0  0  0  0  0  0  0  0
  -18.3833  -19.7657   19.9833 C   0  0  0  0  0  0  0  0  0  0  0  0
  -20.7364  -12.9538   22.4666 C   0  0  0  0  0  0  0  0  0  0  0  0
  -18.3434  -20.3631   21.3830 C   0  0  0  0  0  0  0  0  0  0  0  0
  -28.1665  -29.2848   22.9713 C   0  0  1  0  0  0  0  0  0  0  0  0
  -27.0900  -32.5657   24.5355 C   0  0  2  0  0  0  0  0  0  0  0  0
  -29.2743  -28.4155   23.6306 C   0  0  0  0  0  0  0  0  0  0  0  0
  -27.0601  -15.1332   21.5184 N   0  0  0  0  0  0  0  0  0  0  0  0
  -27.0114  -13.9736   22.1960 N   0  0  0  0  0  0  0  0  0  0  0  0
  -27.3104  -28.9395   20.6753 N   0  0  0  0  0  0  0  0  0  0  0  0
  -23.9189  -12.3666   20.6268 N   0  0  0  0  0  0  0  0  0  0  0  0
  -27.9261  -12.8363   24.0616 N   0  0  0  0  0  0  0  0  0  0  0  0
  -30.0315  -16.8309   24.1418 N   0  0  0  0  0  0  0  0  0  0  0  0
  -28.2671  -27.2348   17.5972 N   0  0  0  0  0  0  0  0  0  0  0  0
  -28.0806  -30.6429   23.4973 N   0  0  0  0  0  0  0  0  0  0  0  0
  -22.0843  -13.0523   21.9526 N   0  0  0  0  0  0  0  0  0  0  0  0
  -25.8131  -33.3175   24.3764 N   0  3  0  0  0  0  0  0  0  0  0  0
  -18.4903  -21.8363   21.2832 N   0  3  0  0  0  0  0  0  0  0  0  0
  -29.8549  -14.7978   25.1879 O   0  0  0  0  0  0  0  0  0  0  0  0
  -28.0363  -26.6365   19.8358 O   0  0  0  0  0  0  0  0  0  0  0  0
  -29.3833  -29.9412   21.0439 O   0  0  0  0  0  0  0  0  0  0  0  0
  -25.8689  -30.5112   24.1815 O   0  0  0  0  0  0  0  0  0  0  0  0
  -21.9100  -11.2084   20.6011 O   0  0  0  0  0  0  0  0  0  0  0  0
  -29.2844  -21.0202   20.5464 O   0  0  0  0  0  0  0  0  0  0  0  0
  -21.4623  -26.9695   20.3776 O   0  0  0  0  0  0  0  0  0  1  0  0
  -25.1516  -24.4022   19.1730 F   0  0  0  0  0  0  0  0  0  0  0  0
  -28.8888  -23.3985   21.8991 F   0  0  0  0  0  0  0  0  0  0  0  0
  -16.3854  -27.2490   22.7652 Cl  0  0  0  0  0  0  0  0  0  0  0  0
  -21.3271  -23.5154   21.9376 Cl  0  0  0  0  0  0  0  0  0  0  0  0
  1  2  1  0  0  0  0
  1  5  2  0  0  0  0
  2  6  2  0  0  0  0
  3  8  2  0  0  0  0
  3 16  1  0  0  0  0
  4  9  1  0  0  0  0
  4 16  2  0  0  0  0
  5 18  1  0  0  0  0
  6 20  1  0  0  0  0
  7 10  2  0  0  0  0
  7 19  1  0  0  0  0
  8 25  1  0  0  0  0
  9 25  2  0  0  0  0
 10 26  1  0  0  0  0
 11 12  2  0  0  0  0
 11 27  1  0  0  0  0
 12 28  1  0  0  0  0
 13 21  1  0  0  0  0
 13 26  2  0  0  0  0
 14 22  2  0  0  0  0
 14 30  1  0  0  0  0
 15 28  2  0  0  0  0
 15 29  1  0  0  0  0
 16 32  1  0  0  0  0
 17 32  1  0  0  0  0
 17 33  2  0  0  0  0
 17 34  1  0  0  0  0
 18 20  2  0  0  0  0
 18 39  1  0  0  0  0
 19 21  2  0  0  0  0
 19 40  1  0  0  0  0
 20 48  1  0  0  0  0
 21 41  1  0  0  0  0
 22 31  1  0  0  0  0
 22 57  1  0  0  0  0
 23 24  1  0  0  0  0
 23 30  2  0  0  0  0
 23 51  1  0  0  0  0
 24 31  2  0  0  0  0
 24 58  1  0  0  0  0
 25 86  1  0  0  0  0
 26 87  1  0  0  0  0
 27 29  2  0  0  0  0
 27 86  1  0  0  0  0
 28 88  1  0  0  0  0
 29 89  1  0  0  0  0
 30 90  1  0  0  0  0
 31 91  1  0  0  0  0
 32 70  2  0  0  0  0
 33 71  1  0  0  0  0
 33 74  1  0  0  0  0
 34 75  1  0  0  0  0
 34 81  2  0  0  0  0
 35 49  1  0  0  0  0
 35 76  1  0  0  0  0
 35 82  2  0  0  0  0
 36 67  1  0  0  0  0
 36 72  1  0  0  0  0
 36 83  2  0  0  0  0
 37 68  1  0  0  0  0
 37 77  1  0  0  0  0
 37 84  2  0  0  0  0
 38 73  1  0  0  0  0
 38 78  1  0  0  0  0
 38 85  2  0  0  0  0
 39 42  1  0  0  0  0
 40 49  1  0  0  0  0
 41 72  1  0  0  0  0
 42 44  1  0  0  0  0
 43 45  1  0  0  0  0
 43 46  1  0  0  0  0
 44 48  1  0  0  0  0
 45 50  1  0  0  0  0
 46 73  1  0  0  0  0
 47 50  1  0  0  0  0
 47 73  1  0  0  0  0
 48 76  1  0  0  0  0
 49 72  1  0  0  0  0
 50 71  1  0  0  0  0
 52 68  1  0  0  0  0
 53 69  1  0  0  0  0
 54 69  1  0  0  0  0
 55 69  1  0  0  0  0
 56 79  1  0  0  0  0
 57 80  1  0  0  0  0
 58 87  1  0  0  0  0
 59 60  1  0  0  0  0
 59 61  1  0  0  0  0
 60 62  1  0  0  0  0
 61 63  1  0  0  0  0
 62 64  1  0  0  0  0
 63 65  1  0  0  0  0
 64 66  1  0  0  0  0
 65 78  1  0  0  0  0
 66 80  1  0  0  0  0
 67 69  1  0  0  0  0
 67 77  1  0  0  0  0
 68 79  1  0  0  0  0
 70 71  1  0  0  0  0
M  CHG  2  79   1  80   1
M  ISO  4  38 100  58 101  78 100  87 101
M  END
> <Batch ID>
0027

> <Smiles>
CNC(C)C(=O)NC(C(=O)N1Cc2cc([101O:1][101CH2:1]c3c(C)c(Cl)cc(CNCCCCCCCC[100NH:0][100C:0](=O)N4CCCC(n5nc(-c6ccc(Oc7ccc(F)cc7F)cc6)c(C(N)=O)c5N)C4)c3Cl)ccc2CC1C(=O)NC1CCCc2ccccc21)C(C)(C)C

> <Shape>
0.236

> <Color>
0.083

> <Negative vol penalty>
0.000

$$$$
