
  -OEChem-04052316333D

 84 92  0     1  0  0  0  0  0999 V2000
  -19.0357  -23.9763   23.7653 C   0  0  0  0  0  0  0  0  0  0  0  0
  -20.3718  -24.0304   23.3815 C   0  0  0  0  0  0  0  0  0  0  0  0
  -23.1848  -10.5138   21.5549 C   0  0  0  0  0  0  0  0  0  0  0  0
  -22.6931  -12.7961   20.9334 C   0  0  0  0  0  0  0  0  0  0  0  0
  -18.2313  -25.1090   23.6475 C   0  0  0  0  0  0  0  0  0  0  0  0
  -20.9040  -25.2171   22.8785 C   0  0  0  0  0  0  0  0  0  0  0  0
  -25.4367  -26.3056   24.8572 C   0  0  0  0  0  0  0  0  0  0  0  0
  -22.1042  -10.5210   22.4368 C   0  0  0  0  0  0  0  0  0  0  0  0
  -21.6124  -12.8034   21.8153 C   0  0  0  0  0  0  0  0  0  0  0  0
  -26.5347  -25.6087   24.3549 C   0  0  0  0  0  0  0  0  0  0  0  0
  -18.4326  -11.6601   21.8651 C   0  0  0  0  0  0  0  0  0  0  0  0
  -17.2305  -12.2016   21.4100 C   0  0  0  0  0  0  0  0  0  0  0  0
  -27.0959  -27.5027   22.9703 C   0  0  0  0  0  0  0  0  0  0  0  0
  -30.7258  -17.8018   20.4911 C   0  0  0  0  0  0  0  0  0  0  0  0
  -17.3016  -13.8459   23.1787 C   0  0  0  0  0  0  0  0  0  0  0  0
  -23.4794  -11.6513   20.8033 C   0  0  0  0  0  0  0  0  0  0  0  0
  -24.5834  -11.2724   18.5350 C   0  0  0  0  0  0  0  0  0  0  0  0
  -18.7564  -26.3128   23.1518 C   0  0  0  0  0  0  0  0  0  0  0  0
  -25.1533  -27.6045   24.4110 C   0  0  0  0  0  0  0  0  0  0  0  0
  -20.1056  -26.3666   22.7527 C   0  0  0  0  0  0  0  0  0  0  0  0
  -25.9951  -28.2150   23.4705 C   0  0  0  0  0  0  0  0  0  0  0  0
  -30.8584  -19.1765   20.6865 C   0  0  0  0  0  0  0  0  0  0  0  0
  -29.8660  -20.0446   20.2314 C   0  0  0  0  0  0  0  0  0  0  0  0
  -29.6008  -17.2952   19.8404 C   0  0  0  0  0  0  0  0  0  0  0  0
  -21.3179  -11.6658   22.5669 C   0  0  0  0  0  0  0  0  0  0  0  0
  -27.3629  -26.2061   23.4092 C   0  0  0  0  0  0  0  0  0  0  0  0
  -19.0693  -12.2114   22.9770 C   0  0  0  0  0  0  0  0  0  0  0  0
  -16.6649  -13.2945   22.0668 C   0  0  0  0  0  0  0  0  0  0  0  0
  -18.5038  -13.3044   23.6338 C   0  0  0  0  0  0  0  0  0  0  0  0
  -28.7409  -19.5380   19.5807 C   0  0  0  0  0  0  0  0  0  0  0  0
  -28.6084  -18.1632   19.3852 C   0  0  0  0  0  0  0  0  0  0  0  0
  -24.5959  -11.6446   19.8926 C   0  0  0  0  0  0  0  0  0  0  0  0
  -25.8822  -11.4404   18.1209 C   0  0  0  0  0  0  0  0  0  0  0  0
  -23.4950  -10.8158   17.7209 C   0  0  0  0  0  0  0  0  0  0  0  0
  -22.7218  -28.9724   22.8878 C   0  0  0  0  0  0  0  0  0  0  0  0
  -24.3969  -31.6897   23.4642 C   0  0  0  0  0  0  0  0  0  0  0  0
  -27.4121  -33.1530   24.1076 C   0  0  0  0  0  0  0  0  0  0  0  0
  -30.3616  -14.9014   20.0343 C   0  0  0  0  0  0  0  0  0  0  0  0
  -17.8360  -27.4977   22.9985 C   0  0  0  0  0  0  0  0  0  0  0  0
  -23.9804  -28.3529   24.9825 C   0  0  0  0  0  0  0  0  0  0  0  0
  -25.7460  -29.6149   22.9739 C   0  0  0  0  0  0  0  0  0  0  0  0
  -18.5730  -28.8207   22.8070 C   0  0  0  0  0  0  0  0  0  0  0  0
  -30.3786  -11.3511   19.7667 C   0  0  0  0  0  0  0  0  0  0  0  0
  -19.6818  -28.6690   21.7704 C   0  0  0  0  0  0  0  0  0  0  0  0
  -28.8969  -10.9900   19.6389 C   0  0  0  0  0  0  0  0  0  0  0  0
  -30.5962  -12.5246   20.7202 C   0  0  0  0  0  0  0  0  0  0  0  0
  -28.3183  -13.3611   20.2950 C   0  0  0  0  0  0  0  0  0  0  0  0
  -20.7259  -27.6424   22.2257 C   0  0  1  0  0  0  0  0  0  0  0  0
  -23.4901  -29.4777   24.0760 C   0  0  1  0  0  0  0  0  0  0  0  0
  -28.0432  -12.2263   19.2948 C   0  0  2  0  0  0  0  0  0  0  0  0
  -32.0716  -19.6957   21.3862 C   0  0  0  0  0  0  0  0  0  0  0  0
  -28.4716  -35.3951   24.4924 C   0  0  0  0  0  0  0  0  0  0  0  0
  -24.2233  -32.2818   20.4760 C   0  0  0  0  0  0  0  0  0  0  0  0
  -26.0548  -33.9627   20.7736 C   0  0  0  0  0  0  0  0  0  0  0  0
  -23.8792  -34.2690   21.9550 C   0  0  0  0  0  0  0  0  0  0  0  0
  -28.3131  -32.3909   26.8217 C   0  0  0  0  0  0  0  0  0  0  0  0
  -29.9902  -21.5338   20.4329 C   0  0  0  0  0  0  0  0  0  0  0  0
  -29.1065  -22.0821   21.5588 C   0  0  0  0  0  0  0  0  0  0  0  0
  -29.1879  -23.6030   21.6971 C   0  0  0  0  0  0  0  0  0  0  0  0
  -28.3290  -24.1063   22.8493 C   0  0  0  0  0  0  0  0  0  1  0  0
  -25.4674  -32.4615   22.7312 C   0  0  1  0  0  0  0  0  0  0  0  0
  -27.8332  -34.1785   25.1446 C   0  0  2  0  0  0  0  0  0  0  0  0
  -24.9101  -33.2166   21.4917 C   0  0  0  0  0  0  0  0  0  0  0  0
  -25.8067  -12.0205   20.3131 N   0  0  0  0  0  0  0  0  0  0  0  0
  -26.5671  -11.8853   19.2132 N   0  0  0  0  0  0  0  0  0  0  0  0
  -24.5831  -30.3032   23.5581 N   0  0  0  0  0  0  0  0  0  0  0  0
  -29.7584  -13.6606   20.3298 N   0  0  0  0  0  0  0  0  0  0  0  0
  -26.4938  -11.2493   16.9327 N   0  0  0  0  0  0  0  0  0  0  0  0
  -22.2262  -10.7007   18.3051 N   0  0  0  0  0  0  0  0  0  0  0  0
  -29.4682  -15.8983   19.6434 N   0  0  0  0  0  0  0  0  0  0  0  0
  -21.6078  -28.2232   23.2153 N   0  0  0  0  0  0  0  0  0  0  0  0
  -26.0993  -33.3252   23.7228 N   0  0  0  0  0  0  0  0  0  0  0  0
  -28.8171  -33.5830   26.0924 N   0  3  0  0  0  0  0  0  0  0  0  0
  -23.6467  -10.5030   16.5157 O   0  0  0  0  0  0  0  0  0  0  0  0
  -23.1099  -29.2434   21.7575 O   0  0  0  0  0  0  0  0  0  0  0  0
  -23.4346  -32.2957   23.9423 O   0  0  0  0  0  0  0  0  0  0  0  0
  -28.1729  -32.2881   23.6789 O   0  0  0  0  0  0  0  0  0  0  0  0
  -31.5835  -15.0599   20.0952 O   0  0  0  0  0  0  0  0  0  0  0  0
  -20.2632  -11.6732   23.4272 O   0  0  0  0  0  0  0  0  0  0  0  0
  -28.4349  -25.5278   22.9167 O   0  0  0  0  0  0  0  0  0  1  0  0
  -15.5113  -13.8154   21.6287 F   0  0  0  0  0  0  0  0  0  0  0  0
  -19.1114  -13.8391   24.7018 F   0  0  0  0  0  0  0  0  0  0  0  0
  -27.7816  -20.3638   19.1396 F   0  0  0  0  0  0  0  0  0  0  0  0
  -27.5230  -17.6875   18.7589 F   0  0  0  0  0  0  0  0  0  0  0  0
  1  2  1  0  0  0  0
  1  5  2  0  0  0  0
  2  6  2  0  0  0  0
  3  8  2  0  0  0  0
  3 16  1  0  0  0  0
  4  9  1  0  0  0  0
  4 16  2  0  0  0  0
  5 18  1  0  0  0  0
  6 20  1  0  0  0  0
  7 10  2  0  0  0  0
  7 19  1  0  0  0  0
  8 25  1  0  0  0  0
  9 25  2  0  0  0  0
 10 26  1  0  0  0  0
 11 12  2  0  0  0  0
 11 27  1  0  0  0  0
 12 28  1  0  0  0  0
 13 21  1  0  0  0  0
 13 26  2  0  0  0  0
 14 22  2  0  0  0  0
 14 24  1  0  0  0  0
 15 28  2  0  0  0  0
 15 29  1  0  0  0  0
 16 32  1  0  0  0  0
 17 32  1  0  0  0  0
 17 33  2  0  0  0  0
 17 34  1  0  0  0  0
 18 20  2  0  0  0  0
 18 39  1  0  0  0  0
 19 21  2  0  0  0  0
 19 40  1  0  0  0  0
 20 48  1  0  0  0  0
 21 41  1  0  0  0  0
 22 23  1  0  0  0  0
 22 51  1  0  0  0  0
 23 30  2  0  0  0  0
 23 57  1  0  0  0  0
 24 31  2  0  0  0  0
 24 70  1  0  0  0  0
 25 79  1  0  0  0  0
 26 80  1  0  0  0  0
 27 29  2  0  0  0  0
 27 79  1  0  0  0  0
 28 81  1  0  0  0  0
 29 82  1  0  0  0  0
 30 31  1  0  0  0  0
 30 83  1  0  0  0  0
 31 84  1  0  0  0  0
 32 64  2  0  0  0  0
 33 65  1  0  0  0  0
 33 68  1  0  0  0  0
 34 69  1  0  0  0  0
 34 74  2  0  0  0  0
 35 49  1  0  0  0  0
 35 71  1  0  0  0  0
 35 75  2  0  0  0  0
 36 61  1  0  0  0  0
 36 66  1  0  0  0  0
 36 76  2  0  0  0  0
 37 62  1  0  0  0  0
 37 72  1  0  0  0  0
 37 77  2  0  0  0  0
 38 67  1  0  0  0  0
 38 70  1  0  0  0  0
 38 78  2  0  0  0  0
 39 42  1  0  0  0  0
 40 49  1  0  0  0  0
 41 66  1  0  0  0  0
 42 44  1  0  0  0  0
 43 45  1  0  0  0  0
 43 46  1  0  0  0  0
 44 48  1  0  0  0  0
 45 50  1  0  0  0  0
 46 67  1  0  0  0  0
 47 50  1  0  0  0  0
 47 67  1  0  0  0  0
 48 71  1  0  0  0  0
 49 66  1  0  0  0  0
 50 65  1  0  0  0  0
 52 62  1  0  0  0  0
 53 63  1  0  0  0  0
 54 63  1  0  0  0  0
 55 63  1  0  0  0  0
 56 73  1  0  0  0  0
 57 58  1  0  0  0  0
 58 59  1  0  0  0  0
 59 60  1  0  0  0  0
 60 80  1  0  0  0  0
 61 63  1  0  0  0  0
 61 72  1  0  0  0  0
 62 73  1  0  0  0  0
 64 65  1  0  0  0  0
M  CHG  1  73   1
M  ISO  4  38 100  60 101  70 100  80 101
M  END
> <Batch ID>
0028

> <Smiles>
CNC(C)C(=O)NC(C(=O)N1Cc2cc([101O:1][101CH2:1]CCCc3c(C)cc([100NH:0][100C:0](=O)N4CCCC(n5nc(-c6ccc(Oc7ccc(F)cc7F)cc6)c(C(N)=O)c5N)C4)c(F)c3F)ccc2CC1C(=O)NC1CCCc2ccccc21)C(C)(C)C

> <Shape>
0.263

> <Color>
0.100

> <Negative vol penalty>
0.000

$$$$

  -OEChem-04052316333D

 85 93  0     1  0  0  0  0  0999 V2000
  -28.6271   -8.8477   28.1883 C   0  0  0  0  0  0  0  0  0  0  0  0
  -29.2219   -9.9163   28.8495 C   0  0  0  0  0  0  0  0  0  0  0  0
  -23.0004   -9.8944   19.9813 C   0  0  0  0  0  0  0  0  0  0  0  0
  -23.7260   -9.9448   22.2852 C   0  0  0  0  0  0  0  0  0  0  0  0
  -27.5026   -9.0631   27.3943 C   0  0  0  0  0  0  0  0  0  0  0  0
  -28.6855  -11.1985   28.7266 C   0  0  0  0  0  0  0  0  0  0  0  0
  -30.6625  -16.5430   30.8843 C   0  0  0  0  0  0  0  0  0  0  0  0
  -22.2337   -8.7601   20.2475 C   0  0  0  0  0  0  0  0  0  0  0  0
  -22.9593   -8.8104   22.5515 C   0  0  0  0  0  0  0  0  0  0  0  0
  -31.4741  -17.5907   30.4516 C   0  0  0  0  0  0  0  0  0  0  0  0
  -23.2028   -5.4715   22.0789 C   0  0  0  0  0  0  0  0  0  0  0  0
  -23.7903   -4.4541   22.8307 C   0  0  0  0  0  0  0  0  0  0  0  0
  -29.5155  -18.8069   29.7417 C   0  0  0  0  0  0  0  0  0  0  0  0
  -32.0620  -16.5201   22.5376 C   0  0  0  0  0  0  0  0  0  0  0  0
  -22.0668   -4.6971   24.5063 C   0  0  0  0  0  0  0  0  0  0  0  0
  -23.7466  -10.4868   21.0001 C   0  0  0  0  0  0  0  0  0  0  0  0
  -24.1324  -13.0024   20.8245 C   0  0  0  0  0  0  0  0  0  0  0  0
  -26.9602  -10.3510   27.2522 C   0  0  0  0  0  0  0  0  0  0  0  0
  -29.2696  -16.6148   30.7388 C   0  0  0  0  0  0  0  0  0  0  0  0
  -27.5369  -11.4323   27.9490 C   0  0  0  0  0  0  0  0  0  0  0  0
  -28.6882  -17.7599   30.1758 C   0  0  0  0  0  0  0  0  0  0  0  0
  -30.5377  -18.3428   23.9993 C   0  0  0  0  0  0  0  0  0  0  0  0
  -31.9239  -18.3125   24.1517 C   0  0  0  0  0  0  0  0  0  0  0  0
  -30.6758  -16.5504   22.3853 C   0  0  0  0  0  0  0  0  0  0  0  0
  -22.2131   -8.2181   21.5326 C   0  0  0  0  0  0  0  0  0  0  0  0
  -30.9009  -18.7216   29.8776 C   0  0  0  0  0  0  0  0  0  0  0  0
  -22.0473   -6.1018   22.5408 C   0  0  0  0  0  0  0  0  0  0  0  0
  -23.2223   -4.0668   24.0444 C   0  0  0  0  0  0  0  0  0  0  0  0
  -21.4793   -5.7146   23.7545 C   0  0  0  0  0  0  0  0  0  0  0  0
  -32.6860  -17.4011   23.4208 C   0  0  0  0  0  0  0  0  0  0  0  0
  -29.9136  -17.4617   23.1161 C   0  0  0  0  0  0  0  0  0  0  0  0
  -24.5393  -11.6583   20.7255 C   0  0  0  0  0  0  0  0  0  0  0  0
  -25.2423  -13.7248   20.4600 C   0  0  0  0  0  0  0  0  0  0  0  0
  -22.8646  -13.5490   21.2113 C   0  0  0  0  0  0  0  0  0  0  0  0
  -27.0890  -14.9244   29.1605 C   0  0  0  0  0  0  0  0  0  0  0  0
  -25.0152  -16.8549   30.7399 C   0  0  0  0  0  0  0  0  0  0  0  0
  -24.4572  -19.8223   32.3305 C   0  0  0  0  0  0  0  0  0  0  0  0
  -30.7220  -14.6847   20.6931 C   0  0  0  0  0  0  0  0  0  0  0  0
  -25.7374  -10.5261   26.3865 C   0  0  0  0  0  0  0  0  0  0  0  0
  -28.4061  -15.4876   31.2351 C   0  0  0  0  0  0  0  0  0  0  0  0
  -27.1967  -17.8948   30.0155 C   0  0  0  0  0  0  0  0  0  0  0  0
  -25.5103  -11.9740   25.9642 C   0  0  0  0  0  0  0  0  0  0  0  0
  -29.6027  -12.2325   18.3669 C   0  0  0  0  0  0  0  0  0  0  0  0
  -25.5904  -12.8880   27.1778 C   0  0  0  0  0  0  0  0  0  0  0  0
  -28.1522  -11.9751   18.7813 C   0  0  0  0  0  0  0  0  0  0  0  0
  -30.5035  -12.4755   19.5766 C   0  0  0  0  0  0  0  0  0  0  0  0
  -28.5886  -13.2645   20.9106 C   0  0  0  0  0  0  0  0  0  0  0  0
  -26.9892  -12.8408   27.8057 C   0  0  1  0  0  0  0  0  0  0  0  0
  -27.0347  -15.4472   30.5681 C   0  0  1  0  0  0  0  0  0  0  0  0
  -27.6307  -13.0785   19.7226 C   0  0  2  0  0  0  0  0  0  0  0  0
  -29.7355  -19.3285   24.7926 C   0  0  0  0  0  0  0  0  0  0  0  0
  -22.6524  -21.1308   33.4828 C   0  0  0  0  0  0  0  0  0  0  0  0
  -34.0218  -20.1140   29.8903 C   0  0  0  0  0  0  0  0  0  0  0  0
  -23.7889  -17.5435   28.0321 C   0  0  0  0  0  0  0  0  0  0  0  0
  -22.6779  -19.5094   29.1134 C   0  0  0  0  0  0  0  0  0  0  0  0
  -22.1297  -17.1968   29.8709 C   0  0  0  0  0  0  0  0  0  0  0  0
  -25.9563  -19.8647   34.8820 C   0  0  0  0  0  0  0  0  0  0  0  0
  -32.5872  -19.2686   25.1107 C   0  0  0  0  0  0  0  0  0  0  0  0
  -32.4827  -18.8432   26.5801 C   0  0  0  0  0  0  0  0  0  0  0  0
  -33.1557  -19.8343   27.5397 C   0  0  0  0  0  0  0  0  0  0  0  0
  -24.3768  -18.1941   30.4605 C   0  0  1  0  0  0  0  0  0  0  0  0
  -23.7966  -20.1446   33.6587 C   0  0  2  0  0  0  0  0  0  0  0  0
  -33.0030  -19.4101   29.0039 C   0  0  2  0  0  0  0  0  0  1  0  0
  -23.2716  -18.1079   29.3703 C   0  0  0  0  0  0  0  0  0  0  0  0
  -25.8084  -11.5316   20.3291 N   0  0  0  0  0  0  0  0  0  0  0  0
  -26.2087  -12.8053   20.1756 N   0  0  0  0  0  0  0  0  0  0  0  0
  -26.3953  -16.7633   30.5103 N   0  0  0  0  0  0  0  0  0  0  0  0
  -29.9489  -13.5364   20.4202 N   0  0  0  0  0  0  0  0  0  0  0  0
  -25.4760  -15.0505   20.3581 N   0  0  0  0  0  0  0  0  0  0  0  0
  -21.8327  -12.6650   21.5549 N   0  0  0  0  0  0  0  0  0  0  0  0
  -30.0780  -15.6399   21.4790 N   0  0  0  0  0  0  0  0  0  0  0  0
  -26.9655  -13.5514   29.0652 N   0  0  0  0  0  0  0  0  0  0  0  0
  -23.9093  -18.6997   31.7467 N   0  0  0  0  0  0  0  0  0  0  0  0
  -24.7881  -20.7381   34.5998 N   0  3  0  0  0  0  0  0  0  0  0  0
  -22.6482  -14.7843   21.2354 O   0  0  0  0  0  0  0  0  0  0  0  0
  -27.2309  -15.7087   28.2297 O   0  0  0  0  0  0  0  0  0  0  0  0
  -24.3164  -15.9264   31.1536 O   0  0  0  0  0  0  0  0  0  0  0  0
  -25.3657  -20.5009   31.8564 O   0  0  0  0  0  0  0  0  0  0  0  0
  -31.8606  -14.8235   20.2389 O   0  0  0  0  0  0  0  0  0  0  0  0
  -21.4648   -7.1113   21.7929 O   0  0  0  0  0  0  0  0  0  0  0  0
  -31.6909  -19.7454   29.4537 O   0  0  0  0  0  0  0  0  0  1  0  0
  -23.7856   -3.0887   24.7655 F   0  0  0  0  0  0  0  0  0  0  0  0
  -20.3686   -6.3156   24.2028 F   0  0  0  0  0  0  0  0  0  0  0  0
  -34.4034  -17.3277   23.5843 Cl  0  0  0  0  0  0  0  0  0  0  0  0
  -28.1898  -17.5005   22.9283 Cl  0  0  0  0  0  0  0  0  0  0  0  0
  1  2  1  0  0  0  0
  1  5  2  0  0  0  0
  2  6  2  0  0  0  0
  3  8  2  0  0  0  0
  3 16  1  0  0  0  0
  4  9  1  0  0  0  0
  4 16  2  0  0  0  0
  5 18  1  0  0  0  0
  6 20  1  0  0  0  0
  7 10  2  0  0  0  0
  7 19  1  0  0  0  0
  8 25  1  0  0  0  0
  9 25  2  0  0  0  0
 10 26  1  0  0  0  0
 11 12  2  0  0  0  0
 11 27  1  0  0  0  0
 12 28  1  0  0  0  0
 13 21  1  0  0  0  0
 13 26  2  0  0  0  0
 14 24  1  0  0  0  0
 14 30  2  0  0  0  0
 15 28  2  0  0  0  0
 15 29  1  0  0  0  0
 16 32  1  0  0  0  0
 17 32  1  0  0  0  0
 17 33  2  0  0  0  0
 17 34  1  0  0  0  0
 18 20  2  0  0  0  0
 18 39  1  0  0  0  0
 19 21  2  0  0  0  0
 19 40  1  0  0  0  0
 20 48  1  0  0  0  0
 21 41  1  0  0  0  0
 22 23  2  0  0  0  0
 22 31  1  0  0  0  0
 22 51  1  0  0  0  0
 23 30  1  0  0  0  0
 23 58  1  0  0  0  0
 24 31  2  0  0  0  0
 24 71  1  0  0  0  0
 25 80  1  0  0  0  0
 26 81  1  0  0  0  0
 27 29  2  0  0  0  0
 27 80  1  0  0  0  0
 28 82  1  0  0  0  0
 29 83  1  0  0  0  0
 30 84  1  0  0  0  0
 31 85  1  0  0  0  0
 32 65  2  0  0  0  0
 33 66  1  0  0  0  0
 33 69  1  0  0  0  0
 34 70  1  0  0  0  0
 34 75  2  0  0  0  0
 35 49  1  0  0  0  0
 35 72  1  0  0  0  0
 35 76  2  0  0  0  0
 36 61  1  0  0  0  0
 36 67  1  0  0  0  0
 36 77  2  0  0  0  0
 37 62  1  0  0  0  0
 37 73  1  0  0  0  0
 37 78  2  0  0  0  0
 38 68  1  0  0  0  0
 38 71  1  0  0  0  0
 38 79  2  0  0  0  0
 39 42  1  0  0  0  0
 40 49  1  0  0  0  0
 41 67  1  0  0  0  0
 42 44  1  0  0  0  0
 43 45  1  0  0  0  0
 43 46  1  0  0  0  0
 44 48  1  0  0  0  0
 45 50  1  0  0  0  0
 46 68  1  0  0  0  0
 47 50  1  0  0  0  0
 47 68  1  0  0  0  0
 48 72  1  0  0  0  0
 49 67  1  0  0  0  0
 50 66  1  0  0  0  0
 52 62  1  0  0  0  0
 53 63  1  0  0  0  0
 54 64  1  0  0  0  0
 55 64  1  0  0  0  0
 56 64  1  0  0  0  0
 57 74  1  0  0  0  0
 58 59  1  0  0  0  0
 59 60  1  0  0  0  0
 60 63  1  0  0  0  0
 61 64  1  0  0  0  0
 61 73  1  0  0  0  0
 62 74  1  0  0  0  0
 63 81  1  0  0  0  0
 65 66  1  0  0  0  0
M  CHG  1  74   1
M  ISO  4  38 100  63 101  71 100  81 101
M  END
> <Batch ID>
0028

> <Smiles>
CNC(C)C(=O)NC(C(=O)N1Cc2cc([101O:1][101CH:1](C)CCCc3c(Cl)cc([100NH:0][100C:0](=O)N4CCCC(n5nc(-c6ccc(Oc7ccc(F)cc7F)cc6)c(C(N)=O)c5N)C4)c(Cl)c3C)ccc2CC1C(=O)NC1CCCc2ccccc21)C(C)(C)C

> <Shape>
0.173

> <Color>
0.206

> <Negative vol penalty>
0.000

$$$$

  -OEChem-04052316333D

 83 91  0     1  0  0  0  0  0999 V2000
  -30.3504  -24.1059   16.2236 C   0  0  0  0  0  0  0  0  0  0  0  0
  -29.1042  -24.0725   16.8410 C   0  0  0  0  0  0  0  0  0  0  0  0
  -26.4942  -13.0316   20.5874 C   0  0  0  0  0  0  0  0  0  0  0  0
  -24.1886  -13.7200   20.3690 C   0  0  0  0  0  0  0  0  0  0  0  0
  -31.4080  -24.7851   16.8269 C   0  0  0  0  0  0  0  0  0  0  0  0
  -28.9152  -24.7174   18.0628 C   0  0  0  0  0  0  0  0  0  0  0  0
  -24.6161  -27.3901   18.2043 C   0  0  0  0  0  0  0  0  0  0  0  0
  -26.0778  -11.7854   21.0553 C   0  0  0  0  0  0  0  0  0  0  0  0
  -23.7722  -12.4737   20.8368 C   0  0  0  0  0  0  0  0  0  0  0  0
  -23.4321  -26.6814   18.4034 C   0  0  0  0  0  0  0  0  0  0  0  0
  -24.8734   -8.9091   19.7478 C   0  0  0  0  0  0  0  0  0  0  0  0
  -25.4988   -7.7779   19.2237 C   0  0  0  0  0  0  0  0  0  0  0  0
  -23.4602  -27.3014   20.7346 C   0  0  0  0  0  0  0  0  0  0  0  0
  -26.2419   -7.1625   21.4387 C   0  0  0  0  0  0  0  0  0  0  0  0
  -25.5496  -13.9990   20.2443 C   0  0  0  0  0  0  0  0  0  0  0  0
  -26.2163  -15.6575   18.4243 C   0  0  0  0  0  0  0  0  0  0  0  0
  -31.2293  -25.4468   18.0520 C   0  0  0  0  0  0  0  0  0  0  0  0
  -25.2379  -28.0518   19.2729 C   0  0  0  0  0  0  0  0  0  0  0  0
  -29.9718  -25.4050   18.6838 C   0  0  0  0  0  0  0  0  0  0  0  0
  -24.6507  -28.0198   20.5458 C   0  0  0  0  0  0  0  0  0  0  0  0
  -21.0238  -23.7731   22.2862 C   0  0  0  0  0  0  0  0  0  0  0  0
  -21.4313  -23.2916   21.0422 C   0  0  0  0  0  0  0  0  0  0  0  0
  -22.7598  -22.4775   23.3562 C   0  0  0  0  0  0  0  0  0  0  0  0
  -23.1672  -21.9960   22.1121 C   0  0  0  0  0  0  0  0  0  0  0  0
  -24.7168  -11.5063   21.1800 C   0  0  0  0  0  0  0  0  0  0  0  0
  -22.8555  -26.6346   19.6693 C   0  0  0  0  0  0  0  0  0  0  0  0
  -24.9322   -9.1671   21.1173 C   0  0  0  0  0  0  0  0  0  0  0  0
  -26.1831   -6.9046   20.0691 C   0  0  0  0  0  0  0  0  0  0  0  0
  -25.6165   -8.2938   21.9628 C   0  0  0  0  0  0  0  0  0  0  0  0
  -21.6881  -23.3660   23.4433 C   0  0  0  0  0  0  0  0  0  0  0  0
  -22.5029  -22.4031   20.9551 C   0  0  0  0  0  0  0  0  0  0  0  0
  -25.9792  -15.2869   19.7615 C   0  0  0  0  0  0  0  0  0  0  0  0
  -26.6017  -16.9739   18.4960 C   0  0  0  0  0  0  0  0  0  0  0  0
  -26.0987  -14.8814   17.2245 C   0  0  0  0  0  0  0  0  0  0  0  0
  -28.0483  -27.8005   20.7367 C   0  0  0  0  0  0  0  0  0  0  0  0
  -27.0232  -30.4425   22.3152 C   0  0  0  0  0  0  0  0  0  0  0  0
  -24.3977  -32.3493   23.3724 C   0  0  0  0  0  0  0  0  0  0  0  0
  -25.5680  -21.3194   22.4651 C   0  0  0  0  0  0  0  0  0  0  0  0
  -32.4148  -26.1280   18.6887 C   0  0  0  0  0  0  0  0  0  0  0  0
  -26.5006  -28.8341   19.0360 C   0  0  0  0  0  0  0  0  0  0  0  0
  -25.2677  -28.7302   21.7219 C   0  0  0  0  0  0  0  0  0  0  0  0
  -32.0329  -27.1019   19.8005 C   0  0  0  0  0  0  0  0  0  0  0  0
  -28.7463  -20.0934   21.4293 C   0  0  0  0  0  0  0  0  0  0  0  0
  -31.0147  -26.4655   20.7413 C   0  0  0  0  0  0  0  0  0  0  0  0
  -28.4183  -18.7583   20.7569 C   0  0  0  0  0  0  0  0  0  0  0  0
  -27.8512  -20.3540   22.6395 C   0  0  0  0  0  0  0  0  0  0  0  0
  -26.0816  -18.9159   21.7068 C   0  0  0  0  0  0  0  0  0  0  0  0
  -29.7209  -26.1134   19.9973 C   0  0  1  0  0  0  0  0  0  0  0  0
  -27.3213  -29.0426   20.3049 C   0  0  1  0  0  0  0  0  0  0  0  0
  -26.9138  -18.6395   20.4439 C   0  0  2  0  0  0  0  0  0  0  0  0
  -19.8778  -24.7238   22.4063 C   0  0  0  0  0  0  0  0  0  0  0  0
  -23.4524  -22.0578   24.6126 C   0  0  0  0  0  0  0  0  0  0  0  0
  -23.8720  -34.4296   24.6737 C   0  0  0  0  0  0  0  0  0  0  0  0
  -27.5927  -28.9553   24.9179 C   0  0  0  0  0  0  0  0  0  0  0  0
  -26.1943  -30.6538   26.1129 C   0  0  0  0  0  0  0  0  0  0  0  0
  -28.2687  -31.3631   24.9227 C   0  0  0  0  0  0  0  0  0  0  0  0
  -23.1081  -33.6256   21.0342 C   0  0  0  0  0  0  0  0  0  0  0  0
  -20.6982  -23.7467   19.8037 C   0  0  0  0  0  0  0  0  0  0  0  0
  -21.4707  -24.8098   19.0303 C   0  0  0  0  0  0  0  0  0  1  0  0
  -26.2349  -30.6949   23.5777 C   0  0  1  0  0  0  0  0  0  0  0  0
  -24.1435  -33.8440   23.2967 C   0  0  2  0  0  0  0  0  0  0  0  0
  -27.0618  -30.4017   24.8613 C   0  0  0  0  0  0  0  0  0  0  0  0
  -26.1959  -16.2869   20.6200 N   0  0  0  0  0  0  0  0  0  0  0  0
  -26.5734  -17.2989   19.8203 N   0  0  0  0  0  0  0  0  0  0  0  0
  -26.5054  -29.4764   21.4409 N   0  0  0  0  0  0  0  0  0  0  0  0
  -26.4405  -20.2284   22.2665 N   0  0  0  0  0  0  0  0  0  0  0  0
  -26.9587  -17.8735   17.5549 N   0  0  0  0  0  0  0  0  0  0  0  0
  -25.6904  -13.5448   17.3307 N   0  0  0  0  0  0  0  0  0  0  0  0
  -24.2582  -21.0945   22.0428 N   0  0  0  0  0  0  0  0  0  0  0  0
  -28.9193  -27.3000   19.7879 N   0  0  0  0  0  0  0  0  0  0  0  0
  -25.7423  -32.0650   23.4842 N   0  0  0  0  0  0  0  0  0  0  0  0
  -22.9674  -34.1260   22.4259 N   0  3  0  0  0  0  0  0  0  0  0  0
  -26.3641  -15.3542   16.0933 O   0  0  0  0  0  0  0  0  0  0  0  0
  -27.8359  -27.3319   21.8488 O   0  0  0  0  0  0  0  0  0  0  0  0
  -28.0564  -31.0840   22.1089 O   0  0  0  0  0  0  0  0  0  0  0  0
  -23.4937  -31.5174   23.3396 O   0  0  0  0  0  0  0  0  0  0  0  0
  -25.9606  -22.3848   22.9475 O   0  0  0  0  0  0  0  0  0  0  0  0
  -24.3101  -10.2902   21.6362 O   0  0  0  0  0  0  0  0  0  0  0  0
  -21.7002  -25.9431   19.8666 O   0  0  0  0  0  0  0  0  0  1  0  0
  -26.7824   -5.8175   19.5659 F   0  0  0  0  0  0  0  0  0  0  0  0
  -25.6755   -8.5358   23.2795 F   0  0  0  0  0  0  0  0  0  0  0  0
  -21.2944  -23.8272   24.6400 F   0  0  0  0  0  0  0  0  0  0  0  0
  -23.0044  -21.8055   19.4055 Cl  0  0  0  0  0  0  0  0  0  0  0  0
  1  2  1  0  0  0  0
  1  5  2  0  0  0  0
  2  6  2  0  0  0  0
  3  8  2  0  0  0  0
  3 15  1  0  0  0  0
  4  9  1  0  0  0  0
  4 15  2  0  0  0  0
  5 17  1  0  0  0  0
  6 19  1  0  0  0  0
  7 10  2  0  0  0  0
  7 18  1  0  0  0  0
  8 25  1  0  0  0  0
  9 25  2  0  0  0  0
 10 26  1  0  0  0  0
 11 12  2  0  0  0  0
 11 27  1  0  0  0  0
 12 28  1  0  0  0  0
 13 20  1  0  0  0  0
 13 26  2  0  0  0  0
 14 28  2  0  0  0  0
 14 29  1  0  0  0  0
 15 32  1  0  0  0  0
 16 32  1  0  0  0  0
 16 33  2  0  0  0  0
 16 34  1  0  0  0  0
 17 19  2  0  0  0  0
 17 39  1  0  0  0  0
 18 20  2  0  0  0  0
 18 40  1  0  0  0  0
 19 48  1  0  0  0  0
 20 41  1  0  0  0  0
 21 22  1  0  0  0  0
 21 30  2  0  0  0  0
 21 51  1  0  0  0  0
 22 31  2  0  0  0  0
 22 58  1  0  0  0  0
 23 24  2  0  0  0  0
 23 30  1  0  0  0  0
 23 52  1  0  0  0  0
 24 31  1  0  0  0  0
 24 69  1  0  0  0  0
 25 78  1  0  0  0  0
 26 79  1  0  0  0  0
 27 29  2  0  0  0  0
 27 78  1  0  0  0  0
 28 80  1  0  0  0  0
 29 81  1  0  0  0  0
 30 82  1  0  0  0  0
 31 83  1  0  0  0  0
 32 63  2  0  0  0  0
 33 64  1  0  0  0  0
 33 67  1  0  0  0  0
 34 68  1  0  0  0  0
 34 73  2  0  0  0  0
 35 49  1  0  0  0  0
 35 70  1  0  0  0  0
 35 74  2  0  0  0  0
 36 60  1  0  0  0  0
 36 65  1  0  0  0  0
 36 75  2  0  0  0  0
 37 61  1  0  0  0  0
 37 71  1  0  0  0  0
 37 76  2  0  0  0  0
 38 66  1  0  0  0  0
 38 69  1  0  0  0  0
 38 77  2  0  0  0  0
 39 42  1  0  0  0  0
 40 49  1  0  0  0  0
 41 65  1  0  0  0  0
 42 44  1  0  0  0  0
 43 45  1  0  0  0  0
 43 46  1  0  0  0  0
 44 48  1  0  0  0  0
 45 50  1  0  0  0  0
 46 66  1  0  0  0  0
 47 50  1  0  0  0  0
 47 66  1  0  0  0  0
 48 70  1  0  0  0  0
 49 65  1  0  0  0  0
 50 64  1  0  0  0  0
 53 61  1  0  0  0  0
 54 62  1  0  0  0  0
 55 62  1  0  0  0  0
 56 62  1  0  0  0  0
 57 72  1  0  0  0  0
 58 59  1  0  0  0  0
 59 79  1  0  0  0  0
 60 62  1  0  0  0  0
 60 71  1  0  0  0  0
 61 72  1  0  0  0  0
 63 64  1  0  0  0  0
M  CHG  1  72   1
M  ISO  4  38 100  59 101  69 100  79 101
M  END
> <Batch ID>
0028

> <Smiles>
CNC(C)C(=O)NC(C(=O)N1Cc2cc([101O:1][101CH2:1]Cc3c(C)c(F)c(C)c([100NH:0][100C:0](=O)N4CCCC(n5nc(-c6ccc(Oc7ccc(F)cc7F)cc6)c(C(N)=O)c5N)C4)c3Cl)ccc2CC1C(=O)NC1CCCc2ccccc21)C(C)(C)C

> <Shape>
0.224

> <Color>
0.053

> <Negative vol penalty>
0.000

$$$$

  -OEChem-04052316333D

 82 90  0     1  0  0  0  0  0999 V2000
  -26.9773  -33.0832   17.8235 C   0  0  0  0  0  0  0  0  0  0  0  0
  -27.5208  -31.9281   18.3764 C   0  0  0  0  0  0  0  0  0  0  0  0
  -23.0829   -9.8591   19.9354 C   0  0  0  0  0  0  0  0  0  0  0  0
  -23.8511   -9.8593   22.2260 C   0  0  0  0  0  0  0  0  0  0  0  0
  -26.1431  -32.9958   16.7098 C   0  0  0  0  0  0  0  0  0  0  0  0
  -27.2296  -30.6847   17.8165 C   0  0  0  0  0  0  0  0  0  0  0  0
  -30.9651  -25.8454   17.4515 C   0  0  0  0  0  0  0  0  0  0  0  0
  -22.3494   -8.6985   20.1815 C   0  0  0  0  0  0  0  0  0  0  0  0
  -23.1175   -8.6987   22.4722 C   0  0  0  0  0  0  0  0  0  0  0  0
  -31.0892  -24.6955   18.2299 C   0  0  0  0  0  0  0  0  0  0  0  0
  -19.8982   -7.8712   23.0818 C   0  0  0  0  0  0  0  0  0  0  0  0
  -19.1459   -7.8184   24.2552 C   0  0  0  0  0  0  0  0  0  0  0  0
  -29.6846  -23.4992   16.6757 C   0  0  0  0  0  0  0  0  0  0  0  0
  -31.5533  -18.4262   20.0666 C   0  0  0  0  0  0  0  0  0  0  0  0
  -20.4057   -5.8870   24.9761 C   0  0  0  0  0  0  0  0  0  0  0  0
  -23.8338  -10.4394   20.9577 C   0  0  0  0  0  0  0  0  0  0  0  0
  -24.1547  -12.9679   20.8508 C   0  0  0  0  0  0  0  0  0  0  0  0
  -25.8492  -31.7515   16.1301 C   0  0  0  0  0  0  0  0  0  0  0  0
  -30.1897  -25.8339   16.2832 C   0  0  0  0  0  0  0  0  0  0  0  0
  -26.3896  -30.5804   16.6948 C   0  0  0  0  0  0  0  0  0  0  0  0
  -29.5544  -24.6497   15.8829 C   0  0  0  0  0  0  0  0  0  0  0  0
  -30.5362  -18.0447   20.9415 C   0  0  0  0  0  0  0  0  0  0  0  0
  -30.1086  -20.1183   19.1249 C   0  0  0  0  0  0  0  0  0  0  0  0
  -22.3667   -8.1183   21.4499 C   0  0  0  0  0  0  0  0  0  0  0  0
  -30.4465  -23.5229   17.8437 C   0  0  0  0  0  0  0  0  0  0  0  0
  -20.9043   -6.9318   22.8555 C   0  0  0  0  0  0  0  0  0  0  0  0
  -19.3997   -6.8264   25.2023 C   0  0  0  0  0  0  0  0  0  0  0  0
  -21.1580   -5.9398   23.8027 C   0  0  0  0  0  0  0  0  0  0  0  0
  -29.3052  -18.6999   20.9081 C   0  0  0  0  0  0  0  0  0  0  0  0
  -31.3395  -19.4631   19.1583 C   0  0  0  0  0  0  0  0  0  0  0  0
  -29.0914  -19.7367   19.9998 C   0  0  0  0  0  0  0  0  0  0  0  0
  -24.5923  -11.6380   20.7040 C   0  0  0  0  0  0  0  0  0  0  0  0
  -25.2393  -13.7283   20.4878 C   0  0  0  0  0  0  0  0  0  0  0  0
  -22.8816  -13.4710   21.2772 C   0  0  0  0  0  0  0  0  0  0  0  0
  -27.5882  -27.3746   15.3023 C   0  0  0  0  0  0  0  0  0  0  0  0
  -28.2132  -25.8499   12.5082 C   0  0  0  0  0  0  0  0  0  0  0  0
  -29.6811  -23.2156   10.9105 C   0  0  0  0  0  0  0  0  0  0  0  0
  -30.7153  -14.7910   20.6622 C   0  0  0  0  0  0  0  0  0  0  0  0
  -24.9043  -31.7029   14.9555 C   0  0  0  0  0  0  0  0  0  0  0  0
  -30.0877  -27.0755   15.4403 C   0  0  0  0  0  0  0  0  0  0  0  0
  -28.7269  -24.5794   14.6265 C   0  0  0  0  0  0  0  0  0  0  0  0
  -24.9460  -30.3802   14.1946 C   0  0  0  0  0  0  0  0  0  0  0  0
  -29.5884  -12.4109   18.2660 C   0  0  0  0  0  0  0  0  0  0  0  0
  -24.9020  -29.2043   15.1653 C   0  0  0  0  0  0  0  0  0  0  0  0
  -28.1550  -12.1030   18.7025 C   0  0  0  0  0  0  0  0  0  0  0  0
  -30.5081  -12.6324   19.4648 C   0  0  0  0  0  0  0  0  0  0  0  0
  -28.6055  -13.3400   20.8624 C   0  0  0  0  0  0  0  0  0  0  0  0
  -26.1170  -29.2155   16.1008 C   0  0  1  0  0  0  0  0  0  0  0  0
  -28.8535  -27.0893   14.5437 C   0  0  1  0  0  0  0  0  0  0  0  0
  -27.6285  -13.1642   19.6873 C   0  0  2  0  0  0  0  0  0  0  0  0
  -29.9881  -22.2191    8.6279 C   0  0  0  0  0  0  0  0  0  0  0  0
  -25.3461  -24.8085   12.5799 C   0  0  0  0  0  0  0  0  0  0  0  0
  -25.9933  -23.1116   10.8564 C   0  0  0  0  0  0  0  0  0  0  0  0
  -26.1325  -25.5444   10.3228 C   0  0  0  0  0  0  0  0  0  0  0  0
  -32.6237  -23.4957   11.0569 C   0  0  0  0  0  0  0  0  0  0  0  0
  -30.7681  -16.9350   21.9110 C   0  0  0  0  0  0  0  0  0  0  0  0
  -29.8802  -21.2331   18.1469 C   0  0  0  0  0  0  0  0  0  1  0  0
  -27.8214  -24.5235   11.9032 C   0  0  1  0  0  0  0  0  0  0  0  0
  -30.5682  -23.1511    9.6803 C   0  0  2  0  0  0  0  0  0  0  0  0
  -26.3373  -24.4985   11.4403 C   0  0  0  0  0  0  0  0  0  0  0  0
  -25.8563  -11.5549   20.2806 N   0  0  0  0  0  0  0  0  0  0  0  0
  -26.2223  -12.8422   20.1582 N   0  0  0  0  0  0  0  0  0  0  0  0
  -28.6523  -25.8213   13.8394 N   0  0  0  0  0  0  0  0  0  0  0  0
  -29.9524  -13.6513   20.3586 N   0  0  0  0  0  0  0  0  0  0  0  0
  -25.4386  -15.0619   20.4216 N   0  0  0  0  0  0  0  0  0  0  0  0
  -21.8783  -12.5517   21.6130 N   0  0  0  0  0  0  0  0  0  0  0  0
  -27.2894  -28.7192   15.4126 N   0  0  0  0  0  0  0  0  0  0  0  0
  -28.7837  -24.2601   10.8388 N   0  0  0  0  0  0  0  0  0  0  0  0
  -30.1116  -15.7102   21.5117 N   0  0  0  0  0  0  0  0  0  0  0  0
  -31.9265  -22.6591   10.0465 N   0  3  0  0  0  0  0  0  0  0  0  0
  -22.6355  -14.6993   21.3424 O   0  0  0  0  0  0  0  0  0  0  0  0
  -26.9309  -26.4437   15.7528 O   0  0  0  0  0  0  0  0  0  0  0  0
  -28.1394  -26.8727   11.8225 O   0  0  0  0  0  0  0  0  0  0  0  0
  -29.7723  -22.4169   11.8401 O   0  0  0  0  0  0  0  0  0  0  0  0
  -31.8481  -14.9783   20.2055 O   0  0  0  0  0  0  0  0  0  0  0  0
  -21.6508   -6.9859   21.6904 O   0  0  0  0  0  0  0  0  0  0  0  0
  -30.5654  -22.3992   18.6019 O   0  0  0  0  0  0  0  0  0  1  0  0
  -18.6782   -6.7768   26.3298 F   0  0  0  0  0  0  0  0  0  0  0  0
  -22.1240   -5.0353   23.5914 F   0  0  0  0  0  0  0  0  0  0  0  0
  -28.3320  -18.3264   21.7531 F   0  0  0  0  0  0  0  0  0  0  0  0
  -32.6266  -19.9043   18.0945 Cl  0  0  0  0  0  0  0  0  0  0  0  0
  -27.5542  -20.5253   19.9858 Cl  0  0  0  0  0  0  0  0  0  0  0  0
  1  2  1  0  0  0  0
  1  5  2  0  0  0  0
  2  6  2  0  0  0  0
  3  8  2  0  0  0  0
  3 16  1  0  0  0  0
  4  9  1  0  0  0  0
  4 16  2  0  0  0  0
  5 18  1  0  0  0  0
  6 20  1  0  0  0  0
  7 10  2  0  0  0  0
  7 19  1  0  0  0  0
  8 24  1  0  0  0  0
  9 24  2  0  0  0  0
 10 25  1  0  0  0  0
 11 12  2  0  0  0  0
 11 26  1  0  0  0  0
 12 27  1  0  0  0  0
 13 21  1  0  0  0  0
 13 25  2  0  0  0  0
 14 22  1  0  0  0  0
 14 30  2  0  0  0  0
 15 27  2  0  0  0  0
 15 28  1  0  0  0  0
 16 32  1  0  0  0  0
 17 32  1  0  0  0  0
 17 33  2  0  0  0  0
 17 34  1  0  0  0  0
 18 20  2  0  0  0  0
 18 39  1  0  0  0  0
 19 21  2  0  0  0  0
 19 40  1  0  0  0  0
 20 48  1  0  0  0  0
 21 41  1  0  0  0  0
 22 29  2  0  0  0  0
 22 56  1  0  0  0  0
 23 30  1  0  0  0  0
 23 31  2  0  0  0  0
 23 57  1  0  0  0  0
 24 76  1  0  0  0  0
 25 77  1  0  0  0  0
 26 28  2  0  0  0  0
 26 76  1  0  0  0  0
 27 78  1  0  0  0  0
 28 79  1  0  0  0  0
 29 31  1  0  0  0  0
 29 80  1  0  0  0  0
 30 81  1  0  0  0  0
 31 82  1  0  0  0  0
 32 61  2  0  0  0  0
 33 62  1  0  0  0  0
 33 65  1  0  0  0  0
 34 66  1  0  0  0  0
 34 71  2  0  0  0  0
 35 49  1  0  0  0  0
 35 67  1  0  0  0  0
 35 72  2  0  0  0  0
 36 58  1  0  0  0  0
 36 63  1  0  0  0  0
 36 73  2  0  0  0  0
 37 59  1  0  0  0  0
 37 68  1  0  0  0  0
 37 74  2  0  0  0  0
 38 64  1  0  0  0  0
 38 69  1  0  0  0  0
 38 75  2  0  0  0  0
 39 42  1  0  0  0  0
 40 49  1  0  0  0  0
 41 63  1  0  0  0  0
 42 44  1  0  0  0  0
 43 45  1  0  0  0  0
 43 46  1  0  0  0  0
 44 48  1  0  0  0  0
 45 50  1  0  0  0  0
 46 64  1  0  0  0  0
 47 50  1  0  0  0  0
 47 64  1  0  0  0  0
 48 67  1  0  0  0  0
 49 63  1  0  0  0  0
 50 62  1  0  0  0  0
 51 59  1  0  0  0  0
 52 60  1  0  0  0  0
 53 60  1  0  0  0  0
 54 60  1  0  0  0  0
 55 70  1  0  0  0  0
 56 69  1  0  0  0  0
 57 77  1  0  0  0  0
 58 60  1  0  0  0  0
 58 68  1  0  0  0  0
 59 70  1  0  0  0  0
 61 62  1  0  0  0  0
M  CHG  1  70   1
M  ISO  4  38 100  57 101  69 100  77 101
M  END
> <Batch ID>
0028

> <Smiles>
CNC(C)C(=O)NC(C(=O)N1Cc2cc([101O:1][101CH2:1]c3c(Cl)cc(C[100NH:0][100C:0](=O)N4CCCC(n5nc(-c6ccc(Oc7ccc(F)cc7F)cc6)c(C(N)=O)c5N)C4)c(F)c3Cl)ccc2CC1C(=O)NC1CCCc2ccccc21)C(C)(C)C

> <Shape>
0.231

> <Color>
0.201

> <Negative vol penalty>
0.000

$$$$

  -OEChem-04052316333D

 88 97  0     1  0  0  0  0  0999 V2000
  -30.9818  -22.6370   16.4159 C   0  0  0  0  0  0  0  0  0  0  0  0
  -30.1454  -23.6440   15.9450 C   0  0  0  0  0  0  0  0  0  0  0  0
  -25.5617  -13.5051   21.4354 C   0  0  0  0  0  0  0  0  0  0  0  0
  -25.0193  -14.0097   19.1358 C   0  0  0  0  0  0  0  0  0  0  0  0
  -30.7776  -22.0999   17.6862 C   0  0  0  0  0  0  0  0  0  0  0  0
  -29.1034  -24.1136   16.7437 C   0  0  0  0  0  0  0  0  0  0  0  0
  -25.4301  -30.0933   18.1818 C   0  0  0  0  0  0  0  0  0  0  0  0
  -25.3498  -12.1489   21.1878 C   0  0  0  0  0  0  0  0  0  0  0  0
  -24.8075  -12.6535   18.8881 C   0  0  0  0  0  0  0  0  0  0  0  0
  -24.1185  -30.5604   18.2544 C   0  0  0  0  0  0  0  0  0  0  0  0
  -24.6015   -8.5908   21.2507 C   0  0  0  0  0  0  0  0  0  0  0  0
  -23.8596   -7.8677   22.1846 C   0  0  0  0  0  0  0  0  0  0  0  0
  -23.9098  -29.6132   20.4631 C   0  0  0  0  0  0  0  0  0  0  0  0
  -20.4431  -26.0322   20.5521 C   0  0  0  0  0  0  0  0  0  0  0  0
  -21.9714   -9.3292   21.8163 C   0  0  0  0  0  0  0  0  0  0  0  0
  -25.3964  -14.4355   20.4094 C   0  0  0  0  0  0  0  0  0  0  0  0
  -26.8235  -16.5463   20.5351 C   0  0  0  0  0  0  0  0  0  0  0  0
  -29.7385  -22.5700   18.5048 C   0  0  0  0  0  0  0  0  0  0  0  0
  -25.9887  -29.3719   19.2467 C   0  0  0  0  0  0  0  0  0  0  0  0
  -28.8842  -23.5814   18.0257 C   0  0  0  0  0  0  0  0  0  0  0  0
  -25.2295  -29.1402   20.4026 C   0  0  0  0  0  0  0  0  0  0  0  0
  -21.5085  -25.4471   21.2766 C   0  0  0  0  0  0  0  0  0  0  0  0
  -24.9727  -11.7230   19.9142 C   0  0  0  0  0  0  0  0  0  0  0  0
  -23.3572  -30.3179   19.3940 C   0  0  0  0  0  0  0  0  0  0  0  0
  -24.0284   -9.6832   20.5996 C   0  0  0  0  0  0  0  0  0  0  0  0
  -22.5445   -8.2368   22.4674 C   0  0  0  0  0  0  0  0  0  0  0  0
  -22.7134  -10.0524   20.8824 C   0  0  0  0  0  0  0  0  0  0  0  0
  -25.6146  -15.8367   20.6647 C   0  0  0  0  0  0  0  0  0  0  0  0
  -19.6856  -26.7659   21.4433 C   0  0  0  0  0  0  0  0  0  0  0  0
  -21.3781  -25.8352   22.5916 C   0  0  0  0  0  0  0  0  0  0  0  0
  -26.5058  -17.8340   20.8917 C   0  0  0  0  0  0  0  0  0  0  0  0
  -18.0215  -28.1612   22.4394 C   0  0  0  0  0  0  0  0  0  0  0  0
  -19.7598  -27.2547   23.8418 C   0  0  0  0  0  0  0  0  0  0  0  0
  -18.4996  -27.5718   21.3169 C   0  0  0  0  0  0  0  0  0  0  0  0
  -18.6530  -28.0120   23.7483 C   0  0  0  0  0  0  0  0  0  0  0  0
  -28.1180  -16.0828   20.1286 C   0  0  0  0  0  0  0  0  0  0  0  0
  -27.1400  -26.4308   19.6043 C   0  0  0  0  0  0  0  0  0  0  0  0
  -27.9558  -27.5273   22.5462 C   0  0  0  0  0  0  0  0  0  0  0  0
  -27.3892  -29.7574   25.0666 C   0  0  0  0  0  0  0  0  0  0  0  0
  -23.2119  -22.1904   20.5460 C   0  0  0  0  0  0  0  0  0  0  0  0
  -29.5277  -21.9257   19.8520 C   0  0  0  0  0  0  0  0  0  0  0  0
  -27.4138  -28.8979   19.1637 C   0  0  0  0  0  0  0  0  0  0  0  0
  -25.7893  -28.3884   21.5816 C   0  0  0  0  0  0  0  0  0  0  0  0
  -28.6326  -22.7396   20.7830 C   0  0  0  0  0  0  0  0  0  0  0  0
  -22.3356  -19.7229   23.0442 C   0  0  0  0  0  0  0  0  0  0  0  0
  -27.3869  -23.2170   20.0434 C   0  0  0  0  0  0  0  0  0  0  0  0
  -23.2188  -18.5443   22.6305 C   0  0  0  0  0  0  0  0  0  0  0  0
  -21.8010  -20.4679   21.8246 C   0  0  0  0  0  0  0  0  0  0  0  0
  -23.7375  -19.7696   20.4695 C   0  0  0  0  0  0  0  0  0  0  0  0
  -27.7583  -24.1346   18.8722 C   0  0  1  0  0  0  0  0  0  0  0  0
  -27.7104  -27.7298   20.0990 C   0  0  1  0  0  0  0  0  0  0  0  0
  -24.3274  -18.9891   21.6582 C   0  0  2  0  0  0  0  0  0  0  0  0
  -22.2306  -25.4964   23.7541 C   0  0  0  0  0  0  0  0  0  0  0  0
  -18.0277  -28.7139   24.9111 C   0  0  0  0  0  0  0  0  0  0  0  0
  -28.1907  -30.3825   27.3610 C   0  0  0  0  0  0  0  0  0  0  0  0
  -26.4802  -25.1252   23.7133 C   0  0  0  0  0  0  0  0  0  0  0  0
  -26.4900  -26.2852   25.9319 C   0  0  0  0  0  0  0  0  0  0  0  0
  -28.6461  -25.6673   24.8400 C   0  0  0  0  0  0  0  0  0  0  0  0
  -28.1849  -32.4658   24.1773 C   0  0  0  0  0  0  0  0  0  0  0  0
  -22.5637  -24.5795   20.7165 C   0  0  0  0  0  0  0  0  0  0  0  0
  -17.7902  -27.7789   20.0211 C   0  0  0  0  0  0  0  0  0  0  0  0
  -18.0836  -29.1555   19.4246 C   0  0  0  0  0  0  0  0  0  0  0  0
  -19.5749  -29.3247   19.1270 C   0  0  0  0  0  0  0  0  0  0  0  0
  -19.8658  -30.6864   18.4999 C   0  0  0  0  0  0  0  0  0  0  0  0
  -21.3542  -30.8791   18.2411 C   0  0  0  0  0  0  0  0  0  1  0  0
  -27.2799  -27.5733   23.8953 C   0  0  1  0  0  0  0  0  0  0  0  0
  -28.3351  -30.6334   25.8680 C   0  0  2  0  0  0  0  0  0  0  0  0
  -27.2126  -26.1753   24.5723 C   0  0  0  0  0  0  0  0  0  0  0  0
  -24.6042  -16.6096   21.0720 N   0  0  0  0  0  0  0  0  0  0  0  0
  -20.2669  -26.6406   22.7000 N   0  0  0  0  0  0  0  0  0  0  0  0
  -25.1777  -17.8181   21.2015 N   0  0  0  0  0  0  0  0  0  0  0  0
  -27.1853  -27.9399   21.4497 N   0  0  0  0  0  0  0  0  0  0  0  0
  -22.9077  -20.8797   20.9495 N   0  0  0  0  0  0  0  0  0  0  0  0
  -27.2357  -18.9671   20.9674 N   0  0  0  0  0  0  0  0  0  0  0  0
  -28.2693  -14.7295   19.7967 N   0  0  0  0  0  0  0  0  0  0  0  0
  -28.0895  -25.4588   19.3530 N   0  0  0  0  0  0  0  0  0  0  0  0
  -27.9916  -28.5808   24.6742 N   0  0  0  0  0  0  0  0  0  0  0  0
  -22.3736  -23.1828   21.0389 N   0  0  0  0  0  0  0  0  0  0  0  0
  -28.0563  -32.0734   25.6044 N   0  3  0  0  0  0  0  0  0  0  0  0
  -29.1148  -16.8426   20.0774 O   0  0  0  0  0  0  0  0  0  0  0  0
  -25.9280  -26.3181   19.4626 O   0  0  0  0  0  0  0  0  0  0  0  0
  -29.1265  -27.1465   22.4689 O   0  0  0  0  0  0  0  0  0  0  0  0
  -26.2306  -30.0827   24.8169 O   0  0  0  0  0  0  0  0  0  0  0  0
  -24.1641  -22.4575   19.8049 O   0  0  0  0  0  0  0  0  0  0  0  0
  -24.7661  -10.3997   19.6721 O   0  0  0  0  0  0  0  0  0  0  0  0
  -22.0765  -30.7722   19.4672 O   0  0  0  0  0  0  0  0  0  1  0  0
  -21.8317   -7.5414   23.3631 F   0  0  0  0  0  0  0  0  0  0  0  0
  -22.1570  -11.1002   20.2592 F   0  0  0  0  0  0  0  0  0  0  0  0
  1  2  1  0  0  0  0
  1  5  2  0  0  0  0
  2  6  2  0  0  0  0
  3  8  2  0  0  0  0
  3 16  1  0  0  0  0
  4  9  1  0  0  0  0
  4 16  2  0  0  0  0
  5 18  1  0  0  0  0
  6 20  1  0  0  0  0
  7 10  2  0  0  0  0
  7 19  1  0  0  0  0
  8 23  1  0  0  0  0
  9 23  2  0  0  0  0
 10 24  1  0  0  0  0
 11 12  2  0  0  0  0
 11 25  1  0  0  0  0
 12 26  1  0  0  0  0
 13 21  1  0  0  0  0
 13 24  2  0  0  0  0
 14 22  1  0  0  0  0
 14 29  2  0  0  0  0
 15 26  2  0  0  0  0
 15 27  1  0  0  0  0
 16 28  1  0  0  0  0
 17 28  1  0  0  0  0
 17 31  2  0  0  0  0
 17 36  1  0  0  0  0
 18 20  2  0  0  0  0
 18 41  1  0  0  0  0
 19 21  2  0  0  0  0
 19 42  1  0  0  0  0
 20 50  1  0  0  0  0
 21 43  1  0  0  0  0
 22 30  2  0  0  0  0
 22 60  1  0  0  0  0
 23 85  1  0  0  0  0
 24 86  1  0  0  0  0
 25 27  2  0  0  0  0
 25 85  1  0  0  0  0
 26 87  1  0  0  0  0
 27 88  1  0  0  0  0
 28 69  2  0  0  0  0
 29 34  1  0  0  0  0
 29 70  1  0  0  0  0
 30 53  1  0  0  0  0
 30 70  1  0  0  0  0
 31 71  1  0  0  0  0
 31 74  1  0  0  0  0
 32 34  2  0  0  0  0
 32 35  1  0  0  0  0
 33 35  2  0  0  0  0
 33 70  1  0  0  0  0
 34 61  1  0  0  0  0
 35 54  1  0  0  0  0
 36 75  1  0  0  0  0
 36 80  2  0  0  0  0
 37 51  1  0  0  0  0
 37 76  1  0  0  0  0
 37 81  2  0  0  0  0
 38 66  1  0  0  0  0
 38 72  1  0  0  0  0
 38 82  2  0  0  0  0
 39 67  1  0  0  0  0
 39 77  1  0  0  0  0
 39 83  2  0  0  0  0
 40 73  1  0  0  0  0
 40 78  1  0  0  0  0
 40 84  2  0  0  0  0
 41 44  1  0  0  0  0
 42 51  1  0  0  0  0
 43 72  1  0  0  0  0
 44 46  1  0  0  0  0
 45 47  1  0  0  0  0
 45 48  1  0  0  0  0
 46 50  1  0  0  0  0
 47 52  1  0  0  0  0
 48 73  1  0  0  0  0
 49 52  1  0  0  0  0
 49 73  1  0  0  0  0
 50 76  1  0  0  0  0
 51 72  1  0  0  0  0
 52 71  1  0  0  0  0
 55 67  1  0  0  0  0
 56 68  1  0  0  0  0
 57 68  1  0  0  0  0
 58 68  1  0  0  0  0
 59 79  1  0  0  0  0
 60 78  1  0  0  0  0
 61 62  1  0  0  0  0
 62 63  1  0  0  0  0
 63 64  1  0  0  0  0
 64 65  1  0  0  0  0
 65 86  1  0  0  0  0
 66 68  1  0  0  0  0
 66 77  1  0  0  0  0
 67 79  1  0  0  0  0
 69 71  1  0  0  0  0
M  CHG  1  79   1
M  ISO  4  40 100  65 101  78 100  86 101
M  END
> <Batch ID>
0028

> <Smiles>
CNC(C)C(=O)NC(C(=O)N1Cc2cc([101O:1][101CH2:1]CCCCc3cc(C)cn4c(C)c(C[100NH:0][100C:0](=O)N5CCCC(n6nc(-c7ccc(Oc8ccc(F)cc8F)cc7)c(C(N)=O)c6N)C5)cc34)ccc2CC1C(=O)NC1CCCc2ccccc21)C(C)(C)C

> <Shape>
0.258

> <Color>
0.062

> <Negative vol penalty>
0.000

$$$$

  -OEChem-04052316333D

 84 92  0     1  0  0  0  0  0999 V2000
  -30.1401  -24.4393   18.6741 C   0  0  0  0  0  0  0  0  0  0  0  0
  -28.7531  -24.5227   18.7411 C   0  0  0  0  0  0  0  0  0  0  0  0
  -27.3142  -16.2326   18.8865 C   0  0  0  0  0  0  0  0  0  0  0  0
  -26.8612  -17.4725   20.9100 C   0  0  0  0  0  0  0  0  0  0  0  0
  -30.9222  -25.0518   19.6524 C   0  0  0  0  0  0  0  0  0  0  0  0
  -28.1472  -25.2177   19.7872 C   0  0  0  0  0  0  0  0  0  0  0  0
  -22.9833  -28.4996   19.5233 C   0  0  0  0  0  0  0  0  0  0  0  0
  -28.6355  -16.6791   18.9087 C   0  0  0  0  0  0  0  0  0  0  0  0
  -28.1824  -17.9190   20.9323 C   0  0  0  0  0  0  0  0  0  0  0  0
  -21.6659  -28.2050   19.8718 C   0  0  0  0  0  0  0  0  0  0  0  0
  -31.2066  -16.7018   21.8231 C   0  0  0  0  0  0  0  0  0  0  0  0
  -31.8826  -16.6604   23.0424 C   0  0  0  0  0  0  0  0  0  0  0  0
  -22.0063  -29.2512   22.0186 C   0  0  0  0  0  0  0  0  0  0  0  0
  -18.5319  -21.9258   20.1496 C   0  0  0  0  0  0  0  0  0  0  0  0
  -19.7379  -21.2077   22.1161 C   0  0  0  0  0  0  0  0  0  0  0  0
  -32.2072  -19.0525   22.9436 C   0  0  0  0  0  0  0  0  0  0  0  0
  -26.4270  -16.6293   19.8871 C   0  0  0  0  0  0  0  0  0  0  0  0
  -24.5478  -15.0034   20.4637 C   0  0  0  0  0  0  0  0  0  0  0  0
  -30.3259  -25.7629   20.7056 C   0  0  0  0  0  0  0  0  0  0  0  0
  -23.8268  -29.1636   20.4256 C   0  0  0  0  0  0  0  0  0  0  0  0
  -28.9221  -25.8392   20.7812 C   0  0  0  0  0  0  0  0  0  0  0  0
  -23.3332  -29.5553   21.6782 C   0  0  0  0  0  0  0  0  0  0  0  0
  -18.1565  -23.0970   20.8075 C   0  0  0  0  0  0  0  0  0  0  0  0
  -19.3625  -22.3790   22.7740 C   0  0  0  0  0  0  0  0  0  0  0  0
  -18.5718  -23.3237   22.1197 C   0  0  0  0  0  0  0  0  0  0  0  0
  -19.3226  -20.9811   20.8039 C   0  0  0  0  0  0  0  0  0  0  0  0
  -29.0696  -17.5223   19.9316 C   0  0  0  0  0  0  0  0  0  0  0  0
  -21.1781  -28.5783   21.1207 C   0  0  0  0  0  0  0  0  0  0  0  0
  -31.0309  -17.9185   21.1639 C   0  0  0  0  0  0  0  0  0  0  0  0
  -32.3829  -17.8357   23.6027 C   0  0  0  0  0  0  0  0  0  0  0  0
  -31.5312  -19.0938   21.7242 C   0  0  0  0  0  0  0  0  0  0  0  0
  -25.0619  -16.1689   19.8644 C   0  0  0  0  0  0  0  0  0  0  0  0
  -23.2096  -15.0201   20.1548 C   0  0  0  0  0  0  0  0  0  0  0  0
  -25.2198  -13.9957   21.2310 C   0  0  0  0  0  0  0  0  0  0  0  0
  -26.5481  -28.4401   21.9003 C   0  0  0  0  0  0  0  0  0  0  0  0
  -26.3803  -31.5258   22.8867 C   0  0  0  0  0  0  0  0  0  0  0  0
  -24.4435  -34.2624   23.5244 C   0  0  0  0  0  0  0  0  0  0  0  0
  -19.3797  -19.4124   18.8336 C   0  0  0  0  0  0  0  0  0  0  0  0
  -31.2115  -26.3684   21.7658 C   0  0  0  0  0  0  0  0  0  0  0  0
  -25.2374  -29.4977   20.0242 C   0  0  0  0  0  0  0  0  0  0  0  0
  -24.1920  -30.2881   22.6751 C   0  0  0  0  0  0  0  0  0  0  0  0
  -30.5011  -27.4030   22.6348 C   0  0  0  0  0  0  0  0  0  0  0  0
  -20.1570  -16.5855   16.8133 C   0  0  0  0  0  0  0  0  0  0  0  0
  -29.1425  -26.8776   23.0875 C   0  0  0  0  0  0  0  0  0  0  0  0
  -21.4530  -16.0482   17.4247 C   0  0  0  0  0  0  0  0  0  0  0  0
  -20.1055  -18.1120   16.8443 C   0  0  0  0  0  0  0  0  0  0  0  0
  -21.6350  -18.1770   18.7745 C   0  0  0  0  0  0  0  0  0  0  0  0
  -28.2284  -26.6052   21.8868 C   0  0  1  0  0  0  0  0  0  0  0  0
  -26.1610  -29.7215   21.2176 C   0  0  1  0  0  0  0  0  0  0  0  0
  -21.7041  -16.6420   18.8247 C   0  0  2  0  0  0  0  0  0  0  0  0
  -17.3089  -24.0924   20.0849 C   0  0  0  0  0  0  0  0  0  0  0  0
  -19.8205  -22.5975   24.1788 C   0  0  0  0  0  0  0  0  0  0  0  0
  -24.5854  -36.6253   24.3573 C   0  0  0  0  0  0  0  0  0  0  0  0
  -17.2060  -27.5099   22.3729 C   0  0  0  0  0  0  0  0  0  0  0  0
  -26.6843  -30.4980   25.7435 C   0  0  0  0  0  0  0  0  0  0  0  0
  -25.8777  -32.7245   26.5562 C   0  0  0  0  0  0  0  0  0  0  0  0
  -27.9887  -32.5706   25.2361 C   0  0  0  0  0  0  0  0  0  0  0  0
  -23.4070  -35.3466   20.9731 C   0  0  0  0  0  0  0  0  0  0  0  0
  -18.1683  -24.5838   22.8270 C   0  0  0  0  0  0  0  0  0  0  0  0
  -19.6233  -28.0724   22.8477 C   0  0  0  0  0  0  0  0  0  1  0  0
  -25.7704  -32.2384   24.0696 C   0  0  1  0  0  0  0  0  0  0  0  0
  -24.6013  -35.7210   23.1347 C   0  0  2  0  0  0  0  0  0  0  0  0
  -18.5039  -27.0515   23.0179 C   0  0  2  0  0  0  0  0  0  0  0  0
  -26.5644  -31.9924   25.3835 C   0  0  0  0  0  0  0  0  0  0  0  0
  -24.1266  -16.8746   19.2232 N   0  0  0  0  0  0  0  0  0  0  0  0
  -23.0113  -16.1504   19.4177 N   0  0  0  0  0  0  0  0  0  0  0  0
  -25.5660  -30.5863   22.2385 N   0  0  0  0  0  0  0  0  0  0  0  0
  -20.3478  -18.6026   18.2028 N   0  0  0  0  0  0  0  0  0  0  0  0
  -22.1949  -14.1781   20.4444 N   0  0  0  0  0  0  0  0  0  0  0  0
  -26.5966  -14.1332   21.4542 N   0  0  0  0  0  0  0  0  0  0  0  0
  -19.7050  -19.7917   20.1355 N   0  0  0  0  0  0  0  0  0  0  0  0
  -27.6799  -27.8439   21.3778 N   0  0  0  0  0  0  0  0  0  0  0  0
  -25.6643  -33.6429   23.6896 N   0  0  0  0  0  0  0  0  0  0  0  0
  -23.4945  -36.1374   22.2276 N   0  3  0  0  0  0  0  0  0  0  0  0
  -18.9225  -25.7770   22.3657 N   0  3  0  0  0  0  0  0  0  0  0  0
  -24.6202  -12.9944   21.6908 O   0  0  0  0  0  0  0  0  0  0  0  0
  -25.8709  -28.0240   22.8330 O   0  0  0  0  0  0  0  0  0  0  0  0
  -27.5342  -31.7980   22.5459 O   0  0  0  0  0  0  0  0  0  0  0  0
  -23.3470  -33.7270   23.6714 O   0  0  0  0  0  0  0  0  0  0  0  0
  -18.3265  -19.7223   18.2709 O   0  0  0  0  0  0  0  0  0  0  0  0
  -30.3589  -17.9580   19.9537 O   0  0  0  0  0  0  0  0  0  0  0  0
  -19.8928  -28.2914   21.4636 O   0  0  0  0  0  0  0  0  0  1  0  0
  -33.0307  -17.7961   24.7745 F   0  0  0  0  0  0  0  0  0  0  0  0
  -31.3645  -20.2658   21.0962 F   0  0  0  0  0  0  0  0  0  0  0  0
  1  2  1  0  0  0  0
  1  5  2  0  0  0  0
  2  6  2  0  0  0  0
  3  8  2  0  0  0  0
  3 17  1  0  0  0  0
  4  9  1  0  0  0  0
  4 17  2  0  0  0  0
  5 19  1  0  0  0  0
  6 21  1  0  0  0  0
  7 10  2  0  0  0  0
  7 20  1  0  0  0  0
  8 27  1  0  0  0  0
  9 27  2  0  0  0  0
 10 28  1  0  0  0  0
 11 12  2  0  0  0  0
 11 29  1  0  0  0  0
 12 30  1  0  0  0  0
 13 22  1  0  0  0  0
 13 28  2  0  0  0  0
 14 23  2  0  0  0  0
 14 26  1  0  0  0  0
 15 24  1  0  0  0  0
 15 26  2  0  0  0  0
 16 30  2  0  0  0  0
 16 31  1  0  0  0  0
 17 32  1  0  0  0  0
 18 32  1  0  0  0  0
 18 33  2  0  0  0  0
 18 34  1  0  0  0  0
 19 21  2  0  0  0  0
 19 39  1  0  0  0  0
 20 22  2  0  0  0  0
 20 40  1  0  0  0  0
 21 48  1  0  0  0  0
 22 41  1  0  0  0  0
 23 25  1  0  0  0  0
 23 51  1  0  0  0  0
 24 25  2  0  0  0  0
 24 52  1  0  0  0  0
 25 59  1  0  0  0  0
 26 71  1  0  0  0  0
 27 81  1  0  0  0  0
 28 82  1  0  0  0  0
 29 31  2  0  0  0  0
 29 81  1  0  0  0  0
 30 83  1  0  0  0  0
 31 84  1  0  0  0  0
 32 65  2  0  0  0  0
 33 66  1  0  0  0  0
 33 69  1  0  0  0  0
 34 70  1  0  0  0  0
 34 76  2  0  0  0  0
 35 49  1  0  0  0  0
 35 72  1  0  0  0  0
 35 77  2  0  0  0  0
 36 61  1  0  0  0  0
 36 67  1  0  0  0  0
 36 78  2  0  0  0  0
 37 62  1  0  0  0  0
 37 73  1  0  0  0  0
 37 79  2  0  0  0  0
 38 68  1  0  0  0  0
 38 71  1  0  0  0  0
 38 80  2  0  0  0  0
 39 42  1  0  0  0  0
 40 49  1  0  0  0  0
 41 67  1  0  0  0  0
 42 44  1  0  0  0  0
 43 45  1  0  0  0  0
 43 46  1  0  0  0  0
 44 48  1  0  0  0  0
 45 50  1  0  0  0  0
 46 68  1  0  0  0  0
 47 50  1  0  0  0  0
 47 68  1  0  0  0  0
 48 72  1  0  0  0  0
 49 67  1  0  0  0  0
 50 66  1  0  0  0  0
 53 62  1  0  0  0  0
 54 63  1  0  0  0  0
 55 64  1  0  0  0  0
 56 64  1  0  0  0  0
 57 64  1  0  0  0  0
 58 74  1  0  0  0  0
 59 75  1  0  0  0  0
 60 63  1  0  0  0  0
 60 82  1  0  0  0  0
 61 64  1  0  0  0  0
 61 73  1  0  0  0  0
 62 74  1  0  0  0  0
 63 75  1  0  0  0  0
 65 66  1  0  0  0  0
M  CHG  2  74   1  75   1
M  ISO  4  38 100  60 101  71 100  82 101
M  END
> <Batch ID>
0028

> <Smiles>
CNC(C)C(=O)NC(C(=O)N1Cc2cc([101O:1][101CH2:1]C(C)NCc3c(C)cc([100NH:0][100C:0](=O)N4CCCC(n5nc(-c6ccc(Oc7ccc(F)cc7F)cc6)c(C(N)=O)c5N)C4)cc3C)ccc2CC1C(=O)NC1CCCc2ccccc21)C(C)(C)C

> <Shape>
0.270

> <Color>
0.077

> <Negative vol penalty>
0.000

$$$$

  -OEChem-04052316333D

 82 90  0     1  0  0  0  0  0999 V2000
  -27.9238  -35.9642   21.2476 C   0  0  0  0  0  0  0  0  0  0  0  0
  -28.2148  -34.6040   21.2709 C   0  0  0  0  0  0  0  0  0  0  0  0
  -26.4156  -12.5359   20.0418 C   0  0  0  0  0  0  0  0  0  0  0  0
  -26.0010  -13.5773   17.9016 C   0  0  0  0  0  0  0  0  0  0  0  0
  -26.7730  -36.4405   21.8743 C   0  0  0  0  0  0  0  0  0  0  0  0
  -27.3558  -33.7194   21.9220 C   0  0  0  0  0  0  0  0  0  0  0  0
  -26.4480  -29.5413   19.2084 C   0  0  0  0  0  0  0  0  0  0  0  0
  -26.2091  -11.2801   19.4709 C   0  0  0  0  0  0  0  0  0  0  0  0
  -25.7946  -12.3215   17.3306 C   0  0  0  0  0  0  0  0  0  0  0  0
  -27.4389  -28.5605   19.1987 C   0  0  0  0  0  0  0  0  0  0  0  0
  -23.5809   -9.3671   18.5451 C   0  0  0  0  0  0  0  0  0  0  0  0
  -22.7832   -8.4613   19.2443 C   0  0  0  0  0  0  0  0  0  0  0  0
  -26.2069  -27.3080   20.8518 C   0  0  0  0  0  0  0  0  0  0  0  0
  -24.6366   -6.9155   19.3560 C   0  0  0  0  0  0  0  0  0  0  0  0
  -26.1955  -21.8027   20.5977 C   0  0  0  0  0  0  0  0  0  0  0  0
  -26.3116  -13.6845   19.2572 C   0  0  0  0  0  0  0  0  0  0  0  0
  -27.7427  -15.6795   19.9497 C   0  0  0  0  0  0  0  0  0  0  0  0
  -25.8944  -35.5601   22.5252 C   0  0  0  0  0  0  0  0  0  0  0  0
  -25.3326  -29.4178   20.0493 C   0  0  0  0  0  0  0  0  0  0  0  0
  -26.1929  -34.1846   22.5592 C   0  0  0  0  0  0  0  0  0  0  0  0
  -25.2020  -28.2873   20.8684 C   0  0  0  0  0  0  0  0  0  0  0  0
  -26.9899  -22.4037   19.6469 C   0  0  0  0  0  0  0  0  0  0  0  0
  -26.1591  -22.7451   18.5610 C   0  0  0  0  0  0  0  0  0  0  0  0
  -25.8986  -11.1729   18.1152 C   0  0  0  0  0  0  0  0  0  0  0  0
  -27.3199  -27.4451   20.0226 C   0  0  0  0  0  0  0  0  0  0  0  0
  -24.9064   -9.0470   18.2513 C   0  0  0  0  0  0  0  0  0  0  0  0
  -23.3111   -7.2355   19.6498 C   0  0  0  0  0  0  0  0  0  0  0  0
  -25.4342   -7.8212   18.6568 C   0  0  0  0  0  0  0  0  0  0  0  0
  -26.5242  -14.9820   19.8466 C   0  0  0  0  0  0  0  0  0  0  0  0
  -24.8829  -22.3426   18.8823 C   0  0  0  0  0  0  0  0  0  0  0  0
  -27.4141  -16.8529   20.5834 C   0  0  0  0  0  0  0  0  0  0  0  0
  -29.0543  -15.3006   19.5118 C   0  0  0  0  0  0  0  0  0  0  0  0
  -24.1463  -31.1096   22.4647 C   0  0  0  0  0  0  0  0  0  0  0  0
  -21.7003  -28.9913   22.2361 C   0  0  0  0  0  0  0  0  0  0  0  0
  -20.6223  -25.9053   21.2557 C   0  0  0  0  0  0  0  0  0  0  0  0
  -23.7544  -21.2125   20.7589 C   0  0  0  0  0  0  0  0  0  0  0  0
  -24.6874  -36.1276   23.2292 C   0  0  0  0  0  0  0  0  0  0  0  0
  -24.2593  -30.4714   20.0284 C   0  0  0  0  0  0  0  0  0  0  0  0
  -24.0140  -28.0975   21.7746 C   0  0  0  0  0  0  0  0  0  0  0  0
  -23.6348  -35.0777   23.5757 C   0  0  0  0  0  0  0  0  0  0  0  0
  -23.1683  -18.2785   22.9160 C   0  0  0  0  0  0  0  0  0  0  0  0
  -24.2898  -33.8531   24.2067 C   0  0  0  0  0  0  0  0  0  0  0  0
  -24.0380  -17.2027   22.2671 C   0  0  0  0  0  0  0  0  0  0  0  0
  -22.7064  -19.3209   21.9025 C   0  0  0  0  0  0  0  0  0  0  0  0
  -24.6807  -18.8751   20.4866 C   0  0  0  0  0  0  0  0  0  0  0  0
  -25.2728  -33.1905   23.2340 C   0  0  1  0  0  0  0  0  0  0  0  0
  -23.4199  -30.4946   21.3021 C   0  0  1  0  0  0  0  0  0  0  0  0
  -25.2047  -17.8355   21.4887 C   0  0  2  0  0  0  0  0  0  0  0  0
  -26.5758  -23.4221   17.3155 C   0  0  0  0  0  0  0  0  0  0  0  0
  -23.6564  -22.4786   18.0598 C   0  0  0  0  0  0  0  0  0  0  0  0
  -18.5803  -24.4467   21.2351 C   0  0  0  0  0  0  0  0  0  0  0  0
  -29.1087  -22.2019   21.1167 C   0  0  0  0  0  0  0  0  0  0  0  0
  -29.2329  -21.8847   18.6613 C   0  0  0  0  0  0  0  0  0  0  0  0
  -22.0766  -28.4267   25.2109 C   0  0  0  0  0  0  0  0  0  0  0  0
  -20.7126  -26.3478   24.9177 C   0  0  0  0  0  0  0  0  0  0  0  0
  -19.6924  -28.5800   24.4716 C   0  0  0  0  0  0  0  0  0  0  0  0
  -20.6114  -25.7635   18.2996 C   0  0  0  0  0  0  0  0  0  0  0  0
  -28.8199  -24.1878   19.5854 C   0  0  0  0  0  0  0  0  0  0  0  0
  -27.8775  -25.1507   20.3062 C   0  0  0  0  0  0  0  0  0  1  0  0
  -21.3902  -27.6463   22.8475 C   0  0  1  0  0  0  0  0  0  0  0  0
  -19.4021  -25.4688   20.4651 C   0  0  2  0  0  0  0  0  0  0  0  0
  -28.5000  -22.6743   19.7745 C   0  0  0  0  0  0  0  0  0  0  0  0
  -20.9914  -27.7544   24.3464 C   0  0  0  0  0  0  0  0  0  0  0  0
  -25.4981  -15.6560   20.3727 N   0  0  0  0  0  0  0  0  0  0  0  0
  -24.9011  -21.7110   20.1159 N   0  0  0  0  0  0  0  0  0  0  0  0
  -26.0711  -16.7893   20.8127 N   0  0  0  0  0  0  0  0  0  0  0  0
  -22.9944  -29.1582   21.7230 N   0  0  0  0  0  0  0  0  0  0  0  0
  -23.8324  -19.8769   21.1540 N   0  0  0  0  0  0  0  0  0  0  0  0
  -28.1457  -17.9226   20.9613 N   0  0  0  0  0  0  0  0  0  0  0  0
  -29.2150  -14.0607   18.8782 N   0  0  0  0  0  0  0  0  0  0  0  0
  -24.5582  -32.4105   22.2465 N   0  0  0  0  0  0  0  0  0  0  0  0
  -20.3700  -27.0383   22.0001 N   0  0  0  0  0  0  0  0  0  0  0  0
  -19.8152  -24.8597   19.1693 N   0  3  0  0  0  0  0  0  0  0  0  0
  -30.0570  -16.0324   19.6920 O   0  0  0  0  0  0  0  0  0  0  0  0
  -24.3190  -30.4530   23.4849 O   0  0  0  0  0  0  0  0  0  0  0  0
  -20.8243  -29.8594   22.2083 O   0  0  0  0  0  0  0  0  0  0  0  0
  -21.6910  -25.2996   21.2197 O   0  0  0  0  0  0  0  0  0  0  0  0
  -22.8341  -21.9934   20.9689 O   0  0  0  0  0  0  0  0  0  0  0  0
  -25.6973   -9.9477   17.5577 O   0  0  0  0  0  0  0  0  0  0  0  0
  -28.2859  -26.4867   20.0155 O   0  0  0  0  0  0  0  0  0  1  0  0
  -22.5454   -6.3664   20.3226 F   0  0  0  0  0  0  0  0  0  0  0  0
  -26.7073   -7.5087   18.3784 F   0  0  0  0  0  0  0  0  0  0  0  0
  1  2  1  0  0  0  0
  1  5  2  0  0  0  0
  2  6  2  0  0  0  0
  3  8  2  0  0  0  0
  3 16  1  0  0  0  0
  4  9  1  0  0  0  0
  4 16  2  0  0  0  0
  5 18  1  0  0  0  0
  6 20  1  0  0  0  0
  7 10  2  0  0  0  0
  7 19  1  0  0  0  0
  8 24  1  0  0  0  0
  9 24  2  0  0  0  0
 10 25  1  0  0  0  0
 11 12  2  0  0  0  0
 11 26  1  0  0  0  0
 12 27  1  0  0  0  0
 13 21  1  0  0  0  0
 13 25  2  0  0  0  0
 14 27  2  0  0  0  0
 14 28  1  0  0  0  0
 15 22  2  0  0  0  0
 15 65  1  0  0  0  0
 16 29  1  0  0  0  0
 17 29  1  0  0  0  0
 17 31  2  0  0  0  0
 17 32  1  0  0  0  0
 18 20  2  0  0  0  0
 18 37  1  0  0  0  0
 19 21  2  0  0  0  0
 19 38  1  0  0  0  0
 20 46  1  0  0  0  0
 21 39  1  0  0  0  0
 22 23  1  0  0  0  0
 22 62  1  0  0  0  0
 23 30  2  0  0  0  0
 23 49  1  0  0  0  0
 24 79  1  0  0  0  0
 25 80  1  0  0  0  0
 26 28  2  0  0  0  0
 26 79  1  0  0  0  0
 27 81  1  0  0  0  0
 28 82  1  0  0  0  0
 29 64  2  0  0  0  0
 30 50  1  0  0  0  0
 30 65  1  0  0  0  0
 31 66  1  0  0  0  0
 31 69  1  0  0  0  0
 32 70  1  0  0  0  0
 32 74  2  0  0  0  0
 33 47  1  0  0  0  0
 33 71  1  0  0  0  0
 33 75  2  0  0  0  0
 34 60  1  0  0  0  0
 34 67  1  0  0  0  0
 34 76  2  0  0  0  0
 35 61  1  0  0  0  0
 35 72  1  0  0  0  0
 35 77  2  0  0  0  0
 36 65  1  0  0  0  0
 36 68  1  0  0  0  0
 36 78  2  0  0  0  0
 37 40  1  0  0  0  0
 38 47  1  0  0  0  0
 39 67  1  0  0  0  0
 40 42  1  0  0  0  0
 41 43  1  0  0  0  0
 41 44  1  0  0  0  0
 42 46  1  0  0  0  0
 43 48  1  0  0  0  0
 44 68  1  0  0  0  0
 45 48  1  0  0  0  0
 45 68  1  0  0  0  0
 46 71  1  0  0  0  0
 47 67  1  0  0  0  0
 48 66  1  0  0  0  0
 51 61  1  0  0  0  0
 52 62  1  0  0  0  0
 53 62  1  0  0  0  0
 54 63  1  0  0  0  0
 55 63  1  0  0  0  0
 56 63  1  0  0  0  0
 57 73  1  0  0  0  0
 58 59  1  0  0  0  0
 58 62  1  0  0  0  0
 59 80  1  0  0  0  0
 60 63  1  0  0  0  0
 60 72  1  0  0  0  0
 61 73  1  0  0  0  0
 64 66  1  0  0  0  0
M  CHG  1  73   1
M  ISO  4  36 100  59 101  65 100  80 101
M  END
> <Batch ID>
0028

> <Smiles>
CNC(C)C(=O)NC(C(=O)N1Cc2cc([101O:1][101CH2:1]CC(C)(C)c3c[100n:0]([100C:0](=O)N4CCCC(n5nc(-c6ccc(Oc7ccc(F)cc7F)cc6)c(C(N)=O)c5N)C4)c(C)c3C)ccc2CC1C(=O)NC1CCCc2ccccc21)C(C)(C)C

> <Shape>
0.221

> <Color>
0.062

> <Negative vol penalty>
0.000

$$$$

  -OEChem-04052316333D

 84 92  0     1  0  0  0  0  0999 V2000
  -30.1401  -24.4393   18.6741 C   0  0  0  0  0  0  0  0  0  0  0  0
  -28.7531  -24.5227   18.7411 C   0  0  0  0  0  0  0  0  0  0  0  0
  -27.3142  -16.2326   18.8865 C   0  0  0  0  0  0  0  0  0  0  0  0
  -26.8612  -17.4725   20.9100 C   0  0  0  0  0  0  0  0  0  0  0  0
  -30.9222  -25.0518   19.6524 C   0  0  0  0  0  0  0  0  0  0  0  0
  -28.1472  -25.2177   19.7872 C   0  0  0  0  0  0  0  0  0  0  0  0
  -22.9833  -28.4996   19.5233 C   0  0  0  0  0  0  0  0  0  0  0  0
  -28.6355  -16.6791   18.9087 C   0  0  0  0  0  0  0  0  0  0  0  0
  -28.1824  -17.9190   20.9323 C   0  0  0  0  0  0  0  0  0  0  0  0
  -21.6659  -28.2050   19.8718 C   0  0  0  0  0  0  0  0  0  0  0  0
  -31.2066  -16.7018   21.8231 C   0  0  0  0  0  0  0  0  0  0  0  0
  -31.8826  -16.6604   23.0424 C   0  0  0  0  0  0  0  0  0  0  0  0
  -22.0063  -29.2512   22.0186 C   0  0  0  0  0  0  0  0  0  0  0  0
  -18.5319  -21.9258   20.1496 C   0  0  0  0  0  0  0  0  0  0  0  0
  -19.7379  -21.2077   22.1161 C   0  0  0  0  0  0  0  0  0  0  0  0
  -32.2072  -19.0525   22.9436 C   0  0  0  0  0  0  0  0  0  0  0  0
  -26.4270  -16.6293   19.8871 C   0  0  0  0  0  0  0  0  0  0  0  0
  -24.5478  -15.0034   20.4637 C   0  0  0  0  0  0  0  0  0  0  0  0
  -30.3259  -25.7629   20.7056 C   0  0  0  0  0  0  0  0  0  0  0  0
  -23.8268  -29.1636   20.4256 C   0  0  0  0  0  0  0  0  0  0  0  0
  -28.9221  -25.8392   20.7812 C   0  0  0  0  0  0  0  0  0  0  0  0
  -23.3332  -29.5553   21.6782 C   0  0  0  0  0  0  0  0  0  0  0  0
  -18.1565  -23.0970   20.8075 C   0  0  0  0  0  0  0  0  0  0  0  0
  -19.3625  -22.3790   22.7740 C   0  0  0  0  0  0  0  0  0  0  0  0
  -18.5718  -23.3237   22.1197 C   0  0  0  0  0  0  0  0  0  0  0  0
  -19.3226  -20.9811   20.8039 C   0  0  0  0  0  0  0  0  0  0  0  0
  -29.0696  -17.5223   19.9316 C   0  0  0  0  0  0  0  0  0  0  0  0
  -21.1781  -28.5783   21.1207 C   0  0  0  0  0  0  0  0  0  0  0  0
  -31.0309  -17.9185   21.1639 C   0  0  0  0  0  0  0  0  0  0  0  0
  -32.3829  -17.8357   23.6027 C   0  0  0  0  0  0  0  0  0  0  0  0
  -31.5312  -19.0938   21.7242 C   0  0  0  0  0  0  0  0  0  0  0  0
  -25.0619  -16.1689   19.8644 C   0  0  0  0  0  0  0  0  0  0  0  0
  -23.2096  -15.0201   20.1548 C   0  0  0  0  0  0  0  0  0  0  0  0
  -25.2198  -13.9957   21.2310 C   0  0  0  0  0  0  0  0  0  0  0  0
  -26.5481  -28.4401   21.9003 C   0  0  0  0  0  0  0  0  0  0  0  0
  -26.3803  -31.5258   22.8867 C   0  0  0  0  0  0  0  0  0  0  0  0
  -24.4435  -34.2624   23.5244 C   0  0  0  0  0  0  0  0  0  0  0  0
  -19.3797  -19.4124   18.8336 C   0  0  0  0  0  0  0  0  0  0  0  0
  -31.2115  -26.3684   21.7658 C   0  0  0  0  0  0  0  0  0  0  0  0
  -25.2374  -29.4977   20.0242 C   0  0  0  0  0  0  0  0  0  0  0  0
  -24.1920  -30.2881   22.6751 C   0  0  0  0  0  0  0  0  0  0  0  0
  -30.5011  -27.4030   22.6348 C   0  0  0  0  0  0  0  0  0  0  0  0
  -20.1570  -16.5855   16.8133 C   0  0  0  0  0  0  0  0  0  0  0  0
  -29.1425  -26.8776   23.0875 C   0  0  0  0  0  0  0  0  0  0  0  0
  -21.4530  -16.0482   17.4247 C   0  0  0  0  0  0  0  0  0  0  0  0
  -20.1055  -18.1120   16.8443 C   0  0  0  0  0  0  0  0  0  0  0  0
  -21.6350  -18.1770   18.7745 C   0  0  0  0  0  0  0  0  0  0  0  0
  -28.2284  -26.6052   21.8868 C   0  0  1  0  0  0  0  0  0  0  0  0
  -26.1610  -29.7215   21.2176 C   0  0  1  0  0  0  0  0  0  0  0  0
  -21.7041  -16.6420   18.8247 C   0  0  2  0  0  0  0  0  0  0  0  0
  -17.3089  -24.0924   20.0849 C   0  0  0  0  0  0  0  0  0  0  0  0
  -19.8205  -22.5975   24.1788 C   0  0  0  0  0  0  0  0  0  0  0  0
  -24.5854  -36.6253   24.3573 C   0  0  0  0  0  0  0  0  0  0  0  0
  -17.2060  -27.5099   22.3729 C   0  0  0  0  0  0  0  0  0  0  0  0
  -26.6843  -30.4980   25.7435 C   0  0  0  0  0  0  0  0  0  0  0  0
  -25.8777  -32.7245   26.5562 C   0  0  0  0  0  0  0  0  0  0  0  0
  -27.9887  -32.5706   25.2361 C   0  0  0  0  0  0  0  0  0  0  0  0
  -23.4070  -35.3466   20.9731 C   0  0  0  0  0  0  0  0  0  0  0  0
  -18.1683  -24.5838   22.8270 C   0  0  0  0  0  0  0  0  0  0  0  0
  -19.6233  -28.0724   22.8477 C   0  0  0  0  0  0  0  0  0  1  0  0
  -25.7704  -32.2384   24.0696 C   0  0  1  0  0  0  0  0  0  0  0  0
  -24.6013  -35.7210   23.1347 C   0  0  2  0  0  0  0  0  0  0  0  0
  -18.5039  -27.0515   23.0179 C   0  0  2  0  0  0  0  0  0  0  0  0
  -26.5644  -31.9924   25.3835 C   0  0  0  0  0  0  0  0  0  0  0  0
  -24.1266  -16.8746   19.2232 N   0  0  0  0  0  0  0  0  0  0  0  0
  -23.0113  -16.1504   19.4177 N   0  0  0  0  0  0  0  0  0  0  0  0
  -25.5660  -30.5863   22.2385 N   0  0  0  0  0  0  0  0  0  0  0  0
  -20.3478  -18.6026   18.2028 N   0  0  0  0  0  0  0  0  0  0  0  0
  -22.1949  -14.1781   20.4444 N   0  0  0  0  0  0  0  0  0  0  0  0
  -26.5966  -14.1332   21.4542 N   0  0  0  0  0  0  0  0  0  0  0  0
  -19.7050  -19.7917   20.1355 N   0  0  0  0  0  0  0  0  0  0  0  0
  -27.6799  -27.8439   21.3778 N   0  0  0  0  0  0  0  0  0  0  0  0
  -25.6643  -33.6429   23.6896 N   0  0  0  0  0  0  0  0  0  0  0  0
  -23.4945  -36.1374   22.2276 N   0  3  0  0  0  0  0  0  0  0  0  0
  -18.9225  -25.7770   22.3657 N   0  3  0  0  0  0  0  0  0  0  0  0
  -24.6202  -12.9944   21.6908 O   0  0  0  0  0  0  0  0  0  0  0  0
  -25.8709  -28.0240   22.8330 O   0  0  0  0  0  0  0  0  0  0  0  0
  -27.5342  -31.7980   22.5459 O   0  0  0  0  0  0  0  0  0  0  0  0
  -23.3470  -33.7270   23.6714 O   0  0  0  0  0  0  0  0  0  0  0  0
  -18.3265  -19.7223   18.2709 O   0  0  0  0  0  0  0  0  0  0  0  0
  -30.3589  -17.9580   19.9537 O   0  0  0  0  0  0  0  0  0  0  0  0
  -19.8928  -28.2914   21.4636 O   0  0  0  0  0  0  0  0  0  1  0  0
  -33.0307  -17.7961   24.7745 F   0  0  0  0  0  0  0  0  0  0  0  0
  -31.3645  -20.2658   21.0962 F   0  0  0  0  0  0  0  0  0  0  0  0
  1  2  1  0  0  0  0
  1  5  2  0  0  0  0
  2  6  2  0  0  0  0
  3  8  2  0  0  0  0
  3 17  1  0  0  0  0
  4  9  1  0  0  0  0
  4 17  2  0  0  0  0
  5 19  1  0  0  0  0
  6 21  1  0  0  0  0
  7 10  2  0  0  0  0
  7 20  1  0  0  0  0
  8 27  1  0  0  0  0
  9 27  2  0  0  0  0
 10 28  1  0  0  0  0
 11 12  2  0  0  0  0
 11 29  1  0  0  0  0
 12 30  1  0  0  0  0
 13 22  1  0  0  0  0
 13 28  2  0  0  0  0
 14 23  2  0  0  0  0
 14 26  1  0  0  0  0
 15 24  1  0  0  0  0
 15 26  2  0  0  0  0
 16 30  2  0  0  0  0
 16 31  1  0  0  0  0
 17 32  1  0  0  0  0
 18 32  1  0  0  0  0
 18 33  2  0  0  0  0
 18 34  1  0  0  0  0
 19 21  2  0  0  0  0
 19 39  1  0  0  0  0
 20 22  2  0  0  0  0
 20 40  1  0  0  0  0
 21 48  1  0  0  0  0
 22 41  1  0  0  0  0
 23 25  1  0  0  0  0
 23 51  1  0  0  0  0
 24 25  2  0  0  0  0
 24 52  1  0  0  0  0
 25 59  1  0  0  0  0
 26 71  1  0  0  0  0
 27 81  1  0  0  0  0
 28 82  1  0  0  0  0
 29 31  2  0  0  0  0
 29 81  1  0  0  0  0
 30 83  1  0  0  0  0
 31 84  1  0  0  0  0
 32 65  2  0  0  0  0
 33 66  1  0  0  0  0
 33 69  1  0  0  0  0
 34 70  1  0  0  0  0
 34 76  2  0  0  0  0
 35 49  1  0  0  0  0
 35 72  1  0  0  0  0
 35 77  2  0  0  0  0
 36 61  1  0  0  0  0
 36 67  1  0  0  0  0
 36 78  2  0  0  0  0
 37 62  1  0  0  0  0
 37 73  1  0  0  0  0
 37 79  2  0  0  0  0
 38 68  1  0  0  0  0
 38 71  1  0  0  0  0
 38 80  2  0  0  0  0
 39 42  1  0  0  0  0
 40 49  1  0  0  0  0
 41 67  1  0  0  0  0
 42 44  1  0  0  0  0
 43 45  1  0  0  0  0
 43 46  1  0  0  0  0
 44 48  1  0  0  0  0
 45 50  1  0  0  0  0
 46 68  1  0  0  0  0
 47 50  1  0  0  0  0
 47 68  1  0  0  0  0
 48 72  1  0  0  0  0
 49 67  1  0  0  0  0
 50 66  1  0  0  0  0
 53 62  1  0  0  0  0
 54 63  1  0  0  0  0
 55 64  1  0  0  0  0
 56 64  1  0  0  0  0
 57 64  1  0  0  0  0
 58 74  1  0  0  0  0
 59 75  1  0  0  0  0
 60 63  1  0  0  0  0
 60 82  1  0  0  0  0
 61 64  1  0  0  0  0
 61 73  1  0  0  0  0
 62 74  1  0  0  0  0
 63 75  1  0  0  0  0
 65 66  1  0  0  0  0
M  CHG  2  74   1  75   1
M  ISO  4  38 100  60 101  71 100  82 101
M  END
> <Batch ID>
0028

> <Smiles>
CNC(C)C(=O)NC(C(=O)N1Cc2cc([101O:1][101CH2:1]C(C)NCc3c(C)cc([100NH:0][100C:0](=O)N4CCCC(n5nc(-c6ccc(Oc7ccc(F)cc7F)cc6)c(C(N)=O)c5N)C4)cc3C)ccc2CC1C(=O)NC1CCCc2ccccc21)C(C)(C)C

> <Shape>
0.270

> <Color>
0.077

> <Negative vol penalty>
0.000

$$$$

  -OEChem-04052316333D

 81 89  0     1  0  0  0  0  0999 V2000
  -29.8529  -29.9742   19.5846 C   0  0  0  0  0  0  0  0  0  0  0  0
  -30.7523  -29.2160   20.3273 C   0  0  0  0  0  0  0  0  0  0  0  0
  -23.0783   -9.8660   19.9401 C   0  0  0  0  0  0  0  0  0  0  0  0
  -23.8385   -9.8729   22.2333 C   0  0  0  0  0  0  0  0  0  0  0  0
  -28.9119  -29.3409   18.7740 C   0  0  0  0  0  0  0  0  0  0  0  0
  -30.7104  -27.8238   20.2606 C   0  0  0  0  0  0  0  0  0  0  0  0
  -34.9937  -22.0892   20.5512 C   0  0  0  0  0  0  0  0  0  0  0  0
  -22.3361   -8.7117   20.1895 C   0  0  0  0  0  0  0  0  0  0  0  0
  -23.0963   -8.7185   22.4828 C   0  0  0  0  0  0  0  0  0  0  0  0
  -35.1206  -20.8724   21.2198 C   0  0  0  0  0  0  0  0  0  0  0  0
  -21.1154   -5.9779   23.8182 C   0  0  0  0  0  0  0  0  0  0  0  0
  -20.3593   -5.9326   24.9895 C   0  0  0  0  0  0  0  0  0  0  0  0
  -33.5034  -19.8889   19.7242 C   0  0  0  0  0  0  0  0  0  0  0  0
  -30.4923  -18.3490   24.0497 C   0  0  0  0  0  0  0  0  0  0  0  0
  -32.0579  -16.6042   22.5373 C   0  0  0  0  0  0  0  0  0  0  0  0
  -19.1119   -7.8685   24.2591 C   0  0  0  0  0  0  0  0  0  0  0  0
  -23.8296  -10.4466   20.9620 C   0  0  0  0  0  0  0  0  0  0  0  0
  -24.1678  -12.9723   20.8432 C   0  0  0  0  0  0  0  0  0  0  0  0
  -28.8647  -27.9404   18.6898 C   0  0  0  0  0  0  0  0  0  0  0  0
  -34.1111  -22.2181   19.4691 C   0  0  0  0  0  0  0  0  0  0  0  0
  -29.7669  -27.1711   19.4490 C   0  0  0  0  0  0  0  0  0  0  0  0
  -33.3691  -21.1077   19.0419 C   0  0  0  0  0  0  0  0  0  0  0  0
  -31.8796  -18.3541   24.1936 C   0  0  0  0  0  0  0  0  0  0  0  0
  -29.8876  -17.4714   23.1496 C   0  0  0  0  0  0  0  0  0  0  0  0
  -32.6625  -17.4817   23.4374 C   0  0  0  0  0  0  0  0  0  0  0  0
  -30.6705  -16.5991   22.3934 C   0  0  0  0  0  0  0  0  0  0  0  0
  -22.3451   -8.1380   21.4609 C   0  0  0  0  0  0  0  0  0  0  0  0
  -34.3733  -19.7728   20.8082 C   0  0  0  0  0  0  0  0  0  0  0  0
  -20.8698   -6.9686   22.8674 C   0  0  0  0  0  0  0  0  0  0  0  0
  -19.3576   -6.8779   25.2099 C   0  0  0  0  0  0  0  0  0  0  0  0
  -19.8680   -7.9138   23.0878 C   0  0  0  0  0  0  0  0  0  0  0  0
  -24.5969  -11.6387   20.7048 C   0  0  0  0  0  0  0  0  0  0  0  0
  -25.2589  -13.7235   20.4802 C   0  0  0  0  0  0  0  0  0  0  0  0
  -22.8967  -13.4861   21.2626 C   0  0  0  0  0  0  0  0  0  0  0  0
  -31.5275  -23.9730   18.8785 C   0  0  0  0  0  0  0  0  0  0  0  0
  -31.7884  -22.6595   15.9240 C   0  0  0  0  0  0  0  0  0  0  0  0
  -32.9327  -20.0955   13.9840 C   0  0  0  0  0  0  0  0  0  0  0  0
  -30.7236  -14.7768   20.6548 C   0  0  0  0  0  0  0  0  0  0  0  0
  -27.7989  -27.3000   17.8363 C   0  0  0  0  0  0  0  0  0  0  0  0
  -34.0056  -23.5303   18.7415 C   0  0  0  0  0  0  0  0  0  0  0  0
  -32.4227  -21.1884   17.8731 C   0  0  0  0  0  0  0  0  0  0  0  0
  -28.0650  -25.8279   17.5323 C   0  0  0  0  0  0  0  0  0  0  0  0
  -29.6123  -12.3626   18.2854 C   0  0  0  0  0  0  0  0  0  0  0  0
  -28.4717  -25.0857   18.8014 C   0  0  0  0  0  0  0  0  0  0  0  0
  -28.1731  -12.0688   18.7150 C   0  0  0  0  0  0  0  0  0  0  0  0
  -30.5272  -12.5921   19.4871 C   0  0  0  0  0  0  0  0  0  0  0  0
  -28.6194  -13.3131   20.8690 C   0  0  0  0  0  0  0  0  0  0  0  0
  -29.7691  -25.6592   19.3840 C   0  0  1  0  0  0  0  0  0  0  0  0
  -32.6947  -23.6859   17.9769 C   0  0  1  0  0  0  0  0  0  0  0  0
  -27.6467  -13.1391   19.6912 C   0  0  2  0  0  0  0  0  0  0  0  0
  -32.5046  -19.3021   25.1637 C   0  0  0  0  0  0  0  0  0  0  0  0
  -28.3994  -17.4877   23.0159 C   0  0  0  0  0  0  0  0  0  0  0  0
  -32.9588  -19.2810   11.6105 C   0  0  0  0  0  0  0  0  0  0  0  0
  -28.8827  -21.7701   16.1997 C   0  0  0  0  0  0  0  0  0  0  0  0
  -29.2571  -20.1933   14.2913 C   0  0  0  0  0  0  0  0  0  0  0  0
  -29.4940  -22.6517   13.9406 C   0  0  0  0  0  0  0  0  0  0  0  0
  -35.8875  -20.2047   13.8569 C   0  0  0  0  0  0  0  0  0  0  0  0
  -34.1654  -17.4690   23.5762 C   0  0  0  0  0  0  0  0  0  0  0  0
  -34.8249  -18.6344   22.8469 C   0  0  0  0  0  0  0  0  0  1  0  0
  -31.2599  -21.4119   15.2582 C   0  0  1  0  0  0  0  0  0  0  0  0
  -33.6928  -20.0882   12.6700 C   0  0  2  0  0  0  0  0  0  0  0  0
  -29.7397  -21.5054   14.9457 C   0  0  0  0  0  0  0  0  0  0  0  0
  -25.8619  -11.5449   20.2863 N   0  0  0  0  0  0  0  0  0  0  0  0
  -26.2370  -12.8291   20.1586 N   0  0  0  0  0  0  0  0  0  0  0  0
  -32.3499  -22.4948   17.1981 N   0  0  0  0  0  0  0  0  0  0  0  0
  -29.9669  -13.6216   20.3651 N   0  0  0  0  0  0  0  0  0  0  0  0
  -25.4674  -15.0553   20.4079 N   0  0  0  0  0  0  0  0  0  0  0  0
  -21.8861  -12.5753   21.5995 N   0  0  0  0  0  0  0  0  0  0  0  0
  -30.0750  -15.7004   21.4738 N   0  0  0  0  0  0  0  0  0  0  0  0
  -30.9125  -25.1860   18.6337 N   0  0  0  0  0  0  0  0  0  0  0  0
  -32.0984  -21.1887   14.0854 N   0  0  0  0  0  0  0  0  0  0  0  0
  -35.0470  -19.4952   12.8583 N   0  3  0  0  0  0  0  0  0  0  0  0
  -22.6587  -14.7163   21.3206 O   0  0  0  0  0  0  0  0  0  0  0  0
  -31.2075  -23.1539   19.7319 O   0  0  0  0  0  0  0  0  0  0  0  0
  -31.7124  -23.7391   15.3323 O   0  0  0  0  0  0  0  0  0  0  0  0
  -33.0629  -19.2172   14.8338 O   0  0  0  0  0  0  0  0  0  0  0  0
  -31.8524  -14.9473   20.1872 O   0  0  0  0  0  0  0  0  0  0  0  0
  -21.6207   -7.0117   21.7047 O   0  0  0  0  0  0  0  0  0  0  0  0
  -34.4947  -18.5841   21.4595 O   0  0  0  0  0  0  0  0  0  1  0  0
  -18.6306   -6.8334   26.3340 F   0  0  0  0  0  0  0  0  0  0  0  0
  -19.6267   -8.8672   22.1775 F   0  0  0  0  0  0  0  0  0  0  0  0
  1  2  1  0  0  0  0
  1  5  2  0  0  0  0
  2  6  2  0  0  0  0
  3  8  2  0  0  0  0
  3 17  1  0  0  0  0
  4  9  1  0  0  0  0
  4 17  2  0  0  0  0
  5 19  1  0  0  0  0
  6 21  1  0  0  0  0
  7 10  2  0  0  0  0
  7 20  1  0  0  0  0
  8 27  1  0  0  0  0
  9 27  2  0  0  0  0
 10 28  1  0  0  0  0
 11 12  2  0  0  0  0
 11 29  1  0  0  0  0
 12 30  1  0  0  0  0
 13 22  1  0  0  0  0
 13 28  2  0  0  0  0
 14 23  1  0  0  0  0
 14 24  2  0  0  0  0
 15 25  1  0  0  0  0
 15 26  2  0  0  0  0
 16 30  2  0  0  0  0
 16 31  1  0  0  0  0
 17 32  1  0  0  0  0
 18 32  1  0  0  0  0
 18 33  2  0  0  0  0
 18 34  1  0  0  0  0
 19 21  2  0  0  0  0
 19 39  1  0  0  0  0
 20 22  2  0  0  0  0
 20 40  1  0  0  0  0
 21 48  1  0  0  0  0
 22 41  1  0  0  0  0
 23 25  2  0  0  0  0
 23 51  1  0  0  0  0
 24 26  1  0  0  0  0
 24 52  1  0  0  0  0
 25 58  1  0  0  0  0
 26 69  1  0  0  0  0
 27 78  1  0  0  0  0
 28 79  1  0  0  0  0
 29 31  2  0  0  0  0
 29 78  1  0  0  0  0
 30 80  1  0  0  0  0
 31 81  1  0  0  0  0
 32 63  2  0  0  0  0
 33 64  1  0  0  0  0
 33 67  1  0  0  0  0
 34 68  1  0  0  0  0
 34 73  2  0  0  0  0
 35 49  1  0  0  0  0
 35 70  1  0  0  0  0
 35 74  2  0  0  0  0
 36 60  1  0  0  0  0
 36 65  1  0  0  0  0
 36 75  2  0  0  0  0
 37 61  1  0  0  0  0
 37 71  1  0  0  0  0
 37 76  2  0  0  0  0
 38 66  1  0  0  0  0
 38 69  1  0  0  0  0
 38 77  2  0  0  0  0
 39 42  1  0  0  0  0
 40 49  1  0  0  0  0
 41 65  1  0  0  0  0
 42 44  1  0  0  0  0
 43 45  1  0  0  0  0
 43 46  1  0  0  0  0
 44 48  1  0  0  0  0
 45 50  1  0  0  0  0
 46 66  1  0  0  0  0
 47 50  1  0  0  0  0
 47 66  1  0  0  0  0
 48 70  1  0  0  0  0
 49 65  1  0  0  0  0
 50 64  1  0  0  0  0
 53 61  1  0  0  0  0
 54 62  1  0  0  0  0
 55 62  1  0  0  0  0
 56 62  1  0  0  0  0
 57 72  1  0  0  0  0
 58 59  1  0  0  0  0
 59 79  1  0  0  0  0
 60 62  1  0  0  0  0
 60 71  1  0  0  0  0
 61 72  1  0  0  0  0
 63 64  1  0  0  0  0
M  CHG  1  72   1
M  ISO  4  38 100  59 101  69 100  79 101
M  END
> <Batch ID>
0028

> <Smiles>
CNC(C)C(=O)NC(C(=O)N1Cc2cc([101O:1][101CH2:1]Cc3cc([100NH:0][100C:0](=O)N4CCCC(n5nc(-c6ccc(Oc7ccc(F)cc7F)cc6)c(C(N)=O)c5N)C4)c(C)cc3C)ccc2CC1C(=O)NC1CCCc2ccccc21)C(C)(C)C

> <Shape>
0.214

> <Color>
0.200

> <Negative vol penalty>
0.000

$$$$

  -OEChem-04052316333D

 84 93  0     1  0  0  0  0  0999 V2000
  -23.7702  -36.3422   21.6792 C   0  0  0  0  0  0  0  0  0  0  0  0
  -24.1626  -35.3181   20.8232 C   0  0  0  0  0  0  0  0  0  0  0  0
  -22.5588  -10.4656   20.5692 C   0  0  0  0  0  0  0  0  0  0  0  0
  -24.4157   -8.9211   20.6292 C   0  0  0  0  0  0  0  0  0  0  0  0
  -24.1823  -36.3323   23.0111 C   0  0  0  0  0  0  0  0  0  0  0  0
  -24.9683  -34.2840   21.2985 C   0  0  0  0  0  0  0  0  0  0  0  0
  -24.8032  -28.4056   19.5889 C   0  0  0  0  0  0  0  0  0  0  0  0
  -21.7030   -9.4537   21.0043 C   0  0  0  0  0  0  0  0  0  0  0  0
  -23.5599   -7.9092   21.0645 C   0  0  0  0  0  0  0  0  0  0  0  0
  -25.5742  -27.6676   18.6918 C   0  0  0  0  0  0  0  0  0  0  0  0
  -22.0970   -6.9601   23.9592 C   0  0  0  0  0  0  0  0  0  0  0  0
  -22.5302   -6.1559   25.0133 C   0  0  0  0  0  0  0  0  0  0  0  0
  -26.9596  -26.9097   20.5153 C   0  0  0  0  0  0  0  0  0  0  0  0
  -22.3657   -4.2075   23.5943 C   0  0  0  0  0  0  0  0  0  0  0  0
  -23.9151  -10.1993   20.3816 C   0  0  0  0  0  0  0  0  0  0  0  0
  -24.7138  -11.9709   18.7290 C   0  0  0  0  0  0  0  0  0  0  0  0
  -24.9854  -35.2924   23.5054 C   0  0  0  0  0  0  0  0  0  0  0  0
  -25.1118  -28.4098   20.9568 C   0  0  0  0  0  0  0  0  0  0  0  0
  -25.3926  -34.2608   22.6379 C   0  0  0  0  0  0  0  0  0  0  0  0
  -26.1894  -27.6465   21.4280 C   0  0  0  0  0  0  0  0  0  0  0  0
  -22.2036   -8.1755   21.2520 C   0  0  0  0  0  0  0  0  0  0  0  0
  -26.6543  -26.9218   19.1545 C   0  0  0  0  0  0  0  0  0  0  0  0
  -21.7981   -6.3880   22.7226 C   0  0  0  0  0  0  0  0  0  0  0  0
  -22.6646   -4.7796   24.8309 C   0  0  0  0  0  0  0  0  0  0  0  0
  -21.9325   -5.0117   22.5402 C   0  0  0  0  0  0  0  0  0  0  0  0
  -26.9817  -23.7993   18.9224 C   0  0  0  0  0  0  0  0  0  0  0  0
  -24.7995  -11.2440   19.9315 C   0  0  0  0  0  0  0  0  0  0  0  0
  -27.9198  -22.7904   19.2122 C   0  0  0  0  0  0  0  0  0  0  0  0
  -25.7782  -12.8377   18.7752 C   0  0  0  0  0  0  0  0  0  0  0  0
  -27.7443  -24.9054   18.6365 C   0  0  0  0  0  0  0  0  0  1  0  0
  -23.7575  -11.8716   17.6654 C   0  0  0  0  0  0  0  0  0  0  0  0
  -25.9764  -30.6361   23.0544 C   0  0  0  0  0  0  0  0  0  0  0  0
  -25.6691  -28.2019   25.1763 C   0  0  0  0  0  0  0  0  0  0  0  0
  -25.6602  -24.8366   25.7434 C   0  0  0  0  0  0  0  0  0  0  0  0
  -28.9708  -16.4810   21.5464 C   0  0  0  0  0  0  0  0  0  0  0  0
  -25.4450  -35.3496   24.9407 C   0  0  0  0  0  0  0  0  0  0  0  0
  -24.2541  -29.1898   21.9151 C   0  0  0  0  0  0  0  0  0  0  0  0
  -26.5501  -27.6013   22.8897 C   0  0  0  0  0  0  0  0  0  0  0  0
  -25.9883  -34.0208   25.4597 C   0  0  0  0  0  0  0  0  0  0  0  0
  -29.7383  -13.0241   21.9168 C   0  0  0  0  0  0  0  0  0  0  0  0
  -26.9531  -33.4076   24.4497 C   0  0  0  0  0  0  0  0  0  0  0  0
  -28.1799  -21.0261   21.0087 C   0  0  0  0  0  0  0  0  0  0  0  0
  -28.2214  -20.3624   18.5628 C   0  0  0  0  0  0  0  0  0  0  0  0
  -28.5126  -12.3134   21.3401 C   0  0  0  0  0  0  0  0  0  0  0  0
  -27.8944  -19.5745   21.3950 C   0  0  0  0  0  0  0  0  0  0  0  0
  -27.9370  -18.9118   18.9543 C   0  0  0  0  0  0  0  0  0  0  0  0
  -29.3526  -14.3013   22.6597 C   0  0  0  0  0  0  0  0  0  0  0  0
  -27.3090  -14.5380   21.3027 C   0  0  0  0  0  0  0  0  0  0  0  0
  -26.2458  -33.1087   23.1224 C   0  0  1  0  0  0  0  0  0  0  0  0
  -27.6536  -21.3471   19.5994 C   0  0  0  0  0  0  0  0  0  0  0  0
  -24.9716  -29.5309   23.2175 C   0  0  1  0  0  0  0  0  0  0  0  0
  -27.6529  -13.2739   20.4965 C   0  0  2  0  0  0  0  0  0  0  0  0
  -28.4574  -18.5988   20.3588 C   0  0  0  0  0  0  0  0  0  0  0  0
  -25.4217  -23.1501   27.5863 C   0  0  0  0  0  0  0  0  0  0  0  0
  -28.5084  -28.8206   26.1066 C   0  0  0  0  0  0  0  0  0  0  0  0
  -28.5565  -26.5797   27.2222 C   0  0  0  0  0  0  0  0  0  0  0  0
  -26.8984  -28.2965   27.9472 C   0  0  0  0  0  0  0  0  0  0  0  0
  -30.2215  -25.3159   18.5624 C   0  0  0  0  0  0  0  0  0  0  0  0
  -23.2609  -23.6374   24.4929 C   0  0  0  0  0  0  0  0  0  0  0  0
  -26.5893  -27.1368   25.7220 C   0  0  1  0  0  0  0  0  0  0  0  0
  -24.6992  -23.9470   26.5113 C   0  0  2  0  0  0  0  0  0  0  0  0
  -27.6328  -27.7106   26.7217 C   0  0  0  0  0  0  0  0  0  0  0  0
  -25.8365  -11.6164   20.6864 N   0  0  0  0  0  0  0  0  0  0  0  0
  -29.1818  -23.2175   19.1190 N   0  0  0  0  0  0  0  0  0  0  0  0
  -26.4123  -12.5868   19.9564 N   0  0  0  0  0  0  0  0  0  0  0  0
  -29.0423  -24.5072   18.7674 N   0  0  0  0  0  0  0  0  0  0  0  0
  -25.6851  -28.3857   23.7864 N   0  0  0  0  0  0  0  0  0  0  0  0
  -28.5399  -15.1692   21.8039 N   0  0  0  0  0  0  0  0  0  0  0  0
  -26.2243  -13.7824   17.9203 N   0  0  0  0  0  0  0  0  0  0  0  0
  -24.0199  -10.9855   16.6116 N   0  0  0  0  0  0  0  0  0  0  0  0
  -25.4534  -31.9027   23.2323 N   0  0  0  0  0  0  0  0  0  0  0  0
  -25.7280  -26.1027   26.2853 N   0  0  0  0  0  0  0  0  0  0  0  0
  -28.1452  -17.2341   20.7205 N   0  0  0  0  0  0  0  0  0  0  0  0
  -24.0290  -22.9893   25.5869 N   0  3  0  0  0  0  0  0  0  0  0  0
  -22.7095  -12.5605   17.6417 O   0  0  0  0  0  0  0  0  0  0  0  0
  -27.1403  -30.3601   22.7883 O   0  0  0  0  0  0  0  0  0  0  0  0
  -24.9569  -28.8421   25.9538 O   0  0  0  0  0  0  0  0  0  0  0  0
  -26.2908  -24.4461   24.7634 O   0  0  0  0  0  0  0  0  0  0  0  0
  -30.0167  -16.9449   22.0131 O   0  0  0  0  0  0  0  0  0  0  0  0
  -21.3689   -7.1879   21.6769 O   0  0  0  0  0  0  0  0  0  0  0  0
  -27.4089  -26.2011   18.2810 O   0  0  0  0  0  0  0  0  0  1  0  0
  -23.0821   -4.0076   25.8427 F   0  0  0  0  0  0  0  0  0  0  0  0
  -21.6480   -4.4565   21.3542 F   0  0  0  0  0  0  0  0  0  0  0  0
  -25.2956  -23.6571   18.9330 Cl  0  0  0  0  0  0  0  0  0  0  0  0
  1  2  1  0  0  0  0
  1  5  2  0  0  0  0
  2  6  2  0  0  0  0
  3  8  2  0  0  0  0
  3 15  1  0  0  0  0
  4  9  1  0  0  0  0
  4 15  2  0  0  0  0
  5 17  1  0  0  0  0
  6 19  1  0  0  0  0
  7 10  2  0  0  0  0
  7 18  1  0  0  0  0
  8 21  1  0  0  0  0
  9 21  2  0  0  0  0
 10 22  1  0  0  0  0
 11 12  2  0  0  0  0
 11 23  1  0  0  0  0
 12 24  1  0  0  0  0
 13 20  1  0  0  0  0
 13 22  2  0  0  0  0
 14 24  2  0  0  0  0
 14 25  1  0  0  0  0
 15 27  1  0  0  0  0
 16 27  1  0  0  0  0
 16 29  2  0  0  0  0
 16 31  1  0  0  0  0
 17 19  2  0  0  0  0
 17 36  1  0  0  0  0
 18 20  2  0  0  0  0
 18 37  1  0  0  0  0
 19 49  1  0  0  0  0
 20 38  1  0  0  0  0
 21 80  1  0  0  0  0
 22 81  1  0  0  0  0
 23 25  2  0  0  0  0
 23 80  1  0  0  0  0
 24 82  1  0  0  0  0
 25 83  1  0  0  0  0
 26 28  1  0  0  0  0
 26 30  2  0  0  0  0
 26 84  1  0  0  0  0
 27 63  2  0  0  0  0
 28 50  1  0  0  0  0
 28 64  2  0  0  0  0
 29 65  1  0  0  0  0
 29 69  1  0  0  0  0
 30 66  1  0  0  0  0
 30 81  1  0  0  0  0
 31 70  1  0  0  0  0
 31 75  2  0  0  0  0
 32 51  1  0  0  0  0
 32 71  1  0  0  0  0
 32 76  2  0  0  0  0
 33 60  1  0  0  0  0
 33 67  1  0  0  0  0
 33 77  2  0  0  0  0
 34 61  1  0  0  0  0
 34 72  1  0  0  0  0
 34 78  2  0  0  0  0
 35 68  1  0  0  0  0
 35 73  1  0  0  0  0
 35 79  2  0  0  0  0
 36 39  1  0  0  0  0
 37 51  1  0  0  0  0
 38 67  1  0  0  0  0
 39 41  1  0  0  0  0
 40 44  1  0  0  0  0
 40 47  1  0  0  0  0
 41 49  1  0  0  0  0
 42 45  1  0  0  0  0
 42 50  1  0  0  0  0
 43 46  1  0  0  0  0
 43 50  1  0  0  0  0
 44 52  1  0  0  0  0
 45 53  1  0  0  0  0
 46 53  1  0  0  0  0
 47 68  1  0  0  0  0
 48 52  1  0  0  0  0
 48 68  1  0  0  0  0
 49 71  1  0  0  0  0
 51 67  1  0  0  0  0
 52 65  1  0  0  0  0
 53 73  1  0  0  0  0
 54 61  1  0  0  0  0
 55 62  1  0  0  0  0
 56 62  1  0  0  0  0
 57 62  1  0  0  0  0
 58 66  1  0  0  0  0
 59 74  1  0  0  0  0
 60 62  1  0  0  0  0
 60 72  1  0  0  0  0
 61 74  1  0  0  0  0
 63 65  1  0  0  0  0
 64 66  1  0  0  0  0
M  CHG  1  74   1
M  ISO  4  30 101  35 100  73 100  81 101
M  END
> <Batch ID>
0028

> <Smiles>
CNC(C)C(=O)NC(C(=O)N1Cc2cc([101O:1][101c:1]3c(Cl)c(C4CCC([100NH:0][100C:0](=O)N5CCCC(n6nc(-c7ccc(Oc8ccc(F)cc8F)cc7)c(C(N)=O)c6N)C5)CC4)nn3C)ccc2CC1C(=O)NC1CCCc2ccccc21)C(C)(C)C

> <Shape>
0.287

> <Color>
0.099

> <Negative vol penalty>
0.000

$$$$

  -OEChem-04052316333D

 85 94  0     1  0  0  0  0  0999 V2000
  -16.9266  -30.3574   22.8790 C   0  0  0  0  0  0  0  0  0  0  0  0
  -18.1491  -29.9391   22.3633 C   0  0  0  0  0  0  0  0  0  0  0  0
  -25.8028  -14.1786   21.5567 C   0  0  0  0  0  0  0  0  0  0  0  0
  -25.0179  -15.0492   19.4441 C   0  0  0  0  0  0  0  0  0  0  0  0
  -16.4071  -29.7473   24.0200 C   0  0  0  0  0  0  0  0  0  0  0  0
  -18.8534  -28.9111   22.9890 C   0  0  0  0  0  0  0  0  0  0  0  0
  -20.6882  -25.5291   19.6966 C   0  0  0  0  0  0  0  0  0  0  0  0
  -24.7476  -13.2665   21.5729 C   0  0  0  0  0  0  0  0  0  0  0  0
  -23.9627  -14.1370   19.4602 C   0  0  0  0  0  0  0  0  0  0  0  0
  -21.8408  -25.8827   18.9963 C   0  0  0  0  0  0  0  0  0  0  0  0
  -22.4677  -10.4666   21.9938 C   0  0  0  0  0  0  0  0  0  0  0  0
  -22.7562   -9.1473   22.3429 C   0  0  0  0  0  0  0  0  0  0  0  0
  -23.1650  -24.5642   20.5219 C   0  0  0  0  0  0  0  0  0  0  0  0
  -24.2791   -8.9859   20.4743 C   0  0  0  0  0  0  0  0  0  0  0  0
  -25.9379  -15.0700   20.4923 C   0  0  0  0  0  0  0  0  0  0  0  0
  -28.3075  -15.8228   19.9212 C   0  0  0  0  0  0  0  0  0  0  0  0
  -17.1008  -28.7047   24.6544 C   0  0  0  0  0  0  0  0  0  0  0  0
  -20.7668  -24.6978   20.8232 C   0  0  0  0  0  0  0  0  0  0  0  0
  -18.3434  -28.2873   24.1403 C   0  0  0  0  0  0  0  0  0  0  0  0
  -22.0117  -24.1995   21.2332 C   0  0  0  0  0  0  0  0  0  0  0  0
  -27.6079  -26.1869   18.6637 C   0  0  0  0  0  0  0  0  0  0  0  0
  -23.8276  -13.2457   20.5247 C   0  0  0  0  0  0  0  0  0  0  0  0
  -23.0797  -25.4026   19.4106 C   0  0  0  0  0  0  0  0  0  0  0  0
  -23.0849  -11.0455   20.8849 C   0  0  0  0  0  0  0  0  0  0  0  0
  -23.6619   -8.4070   21.5832 C   0  0  0  0  0  0  0  0  0  0  0  0
  -23.9906  -10.3052   20.1252 C   0  0  0  0  0  0  0  0  0  0  0  0
  -27.0273  -16.0128   20.4753 C   0  0  0  0  0  0  0  0  0  0  0  0
  -28.4236  -26.6538   19.6678 C   0  0  0  0  0  0  0  0  0  0  0  0
  -26.6979  -27.2264   18.4349 C   0  0  0  0  0  0  0  0  0  0  0  0
  -28.9650  -17.0042   20.1627 C   0  0  0  0  0  0  0  0  0  0  0  0
  -30.1206  -26.8722   21.3261 C   0  0  0  0  0  0  0  0  0  0  0  0
  -29.6420  -28.2016   21.6522 C   0  0  0  0  0  0  0  0  0  0  0  0
  -29.5496  -26.1038   20.3711 C   0  0  0  0  0  0  0  0  0  0  0  0
  -28.5879  -28.7182   20.9946 C   0  0  0  0  0  0  0  0  0  0  0  0
  -28.8533  -14.6805   19.2482 C   0  0  0  0  0  0  0  0  0  0  0  0
  -20.0595  -25.0235   23.9049 C   0  0  0  0  0  0  0  0  0  0  0  0
  -20.7917  -21.8651   24.0064 C   0  0  0  0  0  0  0  0  0  0  0  0
  -22.4650  -19.2330   22.6211 C   0  0  0  0  0  0  0  0  0  0  0  0
  -29.0920  -22.4748   20.1073 C   0  0  0  0  0  0  0  0  0  0  0  0
  -16.5219  -28.1077   25.9126 C   0  0  0  0  0  0  0  0  0  0  0  0
  -19.5112  -24.3040   21.5517 C   0  0  0  0  0  0  0  0  0  0  0  0
  -22.1476  -23.2876   22.4241 C   0  0  0  0  0  0  0  0  0  0  0  0
  -17.1519  -26.7719   26.2988 C   0  0  0  0  0  0  0  0  0  0  0  0
  -27.7013  -20.9421   23.0761 C   0  0  0  0  0  0  0  0  0  0  0  0
  -18.6725  -26.8532   26.2094 C   0  0  0  0  0  0  0  0  0  0  0  0
  -27.5081  -19.4977   22.6107 C   0  0  0  0  0  0  0  0  0  0  0  0
  -27.3940  -21.9300   21.9547 C   0  0  0  0  0  0  0  0  0  0  0  0
  -27.9823  -20.2626   20.2379 C   0  0  0  0  0  0  0  0  0  0  0  0
  -19.1253  -27.1586   24.7765 C   0  0  1  0  0  0  0  0  0  0  0  0
  -19.7674  -23.8673   22.9909 C   0  0  1  0  0  0  0  0  0  0  0  0
  -28.2993  -19.2143   21.3200 C   0  0  2  0  0  0  0  0  0  0  0  0
  -27.6623  -24.8862   17.9709 C   0  0  0  0  0  0  0  0  0  0  0  0
  -28.0459  -30.0848   21.2833 C   0  0  0  0  0  0  0  0  0  0  0  0
  -22.9018  -16.7837   22.9494 C   0  0  0  0  0  0  0  0  0  0  0  0
  -22.7408  -22.5173   26.2615 C   0  0  0  0  0  0  0  0  0  0  0  0
  -23.8038  -20.2803   25.8959 C   0  0  0  0  0  0  0  0  0  0  0  0
  -21.4153  -20.4240   26.6011 C   0  0  0  0  0  0  0  0  0  0  0  0
  -21.2316  -18.5460   20.0200 C   0  0  0  0  0  0  0  0  0  0  0  0
  -25.5692  -27.2617   17.4333 C   0  0  0  0  0  0  0  0  0  0  0  0
  -30.1206  -24.7329   20.1042 C   0  0  0  0  0  0  0  0  0  0  0  0
  -24.2108  -27.0184   18.0818 C   0  0  0  0  0  0  0  0  0  1  0  0
  -22.0514  -21.0666   24.2401 C   0  0  1  0  0  0  0  0  0  0  0  0
  -22.0180  -17.8234   22.2779 C   0  0  2  0  0  0  0  0  0  0  0  0
  -22.5008  -21.0908   25.7283 C   0  0  0  0  0  0  0  0  0  0  0  0
  -26.8785  -17.2199   21.0274 N   0  0  0  0  0  0  0  0  0  0  0  0
  -26.9021  -28.2815   19.2218 N   0  0  0  0  0  0  0  0  0  0  0  0
  -27.9730  -27.9397   19.9946 N   0  0  0  0  0  0  0  0  0  0  0  0
  -28.0736  -17.7990   20.8215 N   0  0  0  0  0  0  0  0  0  0  0  0
  -20.8917  -22.9363   23.1074 N   0  0  0  0  0  0  0  0  0  0  0  0
  -28.1931  -21.6163   20.7617 N   0  0  0  0  0  0  0  0  0  0  0  0
  -30.2129  -17.4303   19.8739 N   0  0  0  0  0  0  0  0  0  0  0  0
  -28.0412  -13.5500   19.0849 N   0  0  0  0  0  0  0  0  0  0  0  0
  -19.0514  -25.9671   23.9583 N   0  0  0  0  0  0  0  0  0  0  0  0
  -21.7907  -19.7302   23.7162 N   0  0  0  0  0  0  0  0  0  0  0  0
  -29.2287  -23.7412   20.6627 N   0  0  0  0  0  0  0  0  0  0  0  0
  -22.0737  -17.6066   20.8045 N   0  3  0  0  0  0  0  0  0  0  0  0
  -30.0319  -14.6569   18.8193 O   0  0  0  0  0  0  0  0  0  0  0  0
  -21.1203  -25.0564   24.5176 O   0  0  0  0  0  0  0  0  0  0  0  0
  -19.7554  -21.5455   24.5942 O   0  0  0  0  0  0  0  0  0  0  0  0
  -23.3288  -19.8316   21.9838 O   0  0  0  0  0  0  0  0  0  0  0  0
  -29.7301  -22.1361   19.1047 O   0  0  0  0  0  0  0  0  0  0  0  0
  -22.7980  -12.3556   20.5400 O   0  0  0  0  0  0  0  0  0  0  0  0
  -24.2063  -25.7468   18.7293 O   0  0  0  0  0  0  0  0  0  1  0  0
  -23.9400   -7.1406   21.9194 F   0  0  0  0  0  0  0  0  0  0  0  0
  -24.5875  -10.8563   19.0595 F   0  0  0  0  0  0  0  0  0  0  0  0
  1  2  1  0  0  0  0
  1  5  2  0  0  0  0
  2  6  2  0  0  0  0
  3  8  2  0  0  0  0
  3 15  1  0  0  0  0
  4  9  1  0  0  0  0
  4 15  2  0  0  0  0
  5 17  1  0  0  0  0
  6 19  1  0  0  0  0
  7 10  2  0  0  0  0
  7 18  1  0  0  0  0
  8 22  1  0  0  0  0
  9 22  2  0  0  0  0
 10 23  1  0  0  0  0
 11 12  2  0  0  0  0
 11 24  1  0  0  0  0
 12 25  1  0  0  0  0
 13 20  1  0  0  0  0
 13 23  2  0  0  0  0
 14 25  2  0  0  0  0
 14 26  1  0  0  0  0
 15 27  1  0  0  0  0
 16 27  1  0  0  0  0
 16 30  2  0  0  0  0
 16 35  1  0  0  0  0
 17 19  2  0  0  0  0
 17 40  1  0  0  0  0
 18 20  2  0  0  0  0
 18 41  1  0  0  0  0
 19 49  1  0  0  0  0
 20 42  1  0  0  0  0
 21 28  2  0  0  0  0
 21 29  1  0  0  0  0
 21 52  1  0  0  0  0
 22 82  1  0  0  0  0
 23 83  1  0  0  0  0
 24 26  2  0  0  0  0
 24 82  1  0  0  0  0
 25 84  1  0  0  0  0
 26 85  1  0  0  0  0
 27 65  2  0  0  0  0
 28 33  1  0  0  0  0
 28 67  1  0  0  0  0
 29 59  1  0  0  0  0
 29 66  2  0  0  0  0
 30 68  1  0  0  0  0
 30 71  1  0  0  0  0
 31 32  1  0  0  0  0
 31 33  2  0  0  0  0
 32 34  2  0  0  0  0
 33 60  1  0  0  0  0
 34 53  1  0  0  0  0
 34 67  1  0  0  0  0
 35 72  1  0  0  0  0
 35 77  2  0  0  0  0
 36 50  1  0  0  0  0
 36 73  1  0  0  0  0
 36 78  2  0  0  0  0
 37 62  1  0  0  0  0
 37 69  1  0  0  0  0
 37 79  2  0  0  0  0
 38 63  1  0  0  0  0
 38 74  1  0  0  0  0
 38 80  2  0  0  0  0
 39 70  1  0  0  0  0
 39 75  1  0  0  0  0
 39 81  2  0  0  0  0
 40 43  1  0  0  0  0
 41 50  1  0  0  0  0
 42 69  1  0  0  0  0
 43 45  1  0  0  0  0
 44 46  1  0  0  0  0
 44 47  1  0  0  0  0
 45 49  1  0  0  0  0
 46 51  1  0  0  0  0
 47 70  1  0  0  0  0
 48 51  1  0  0  0  0
 48 70  1  0  0  0  0
 49 73  1  0  0  0  0
 50 69  1  0  0  0  0
 51 68  1  0  0  0  0
 54 63  1  0  0  0  0
 55 64  1  0  0  0  0
 56 64  1  0  0  0  0
 57 64  1  0  0  0  0
 58 76  1  0  0  0  0
 59 61  1  0  0  0  0
 60 75  1  0  0  0  0
 61 83  1  0  0  0  0
 62 64  1  0  0  0  0
 62 74  1  0  0  0  0
 63 76  1  0  0  0  0
 65 68  1  0  0  0  0
 66 67  1  0  0  0  0
M  CHG  1  76   1
M  ISO  4  39 100  61 101  75 100  83 101
M  END
> <Batch ID>
0028

> <Smiles>
CNC(C)C(=O)NC(C(=O)N1Cc2cc([101O:1][101CH2:1]Cc3nn4c(C)ccc(C[100NH:0][100C:0](=O)N5CCCC(n6nc(-c7ccc(Oc8ccc(F)cc8F)cc7)c(C(N)=O)c6N)C5)c4c3C)ccc2CC1C(=O)NC1CCCc2ccccc21)C(C)(C)C

> <Shape>
0.215

> <Color>
0.057

> <Negative vol penalty>
0.000

$$$$

  -OEChem-04052316333D

 86 94  0     1  0  0  0  0  0999 V2000
  -22.3313  -31.0046   18.3171 C   0  0  0  0  0  0  0  0  0  0  0  0
  -22.4024  -29.6521   17.9996 C   0  0  0  0  0  0  0  0  0  0  0  0
  -28.5321  -19.3385   21.6786 C   0  0  0  0  0  0  0  0  0  0  0  0
  -29.4523  -19.0450   19.4640 C   0  0  0  0  0  0  0  0  0  0  0  0
  -23.0709  -31.5083   19.3864 C   0  0  0  0  0  0  0  0  0  0  0  0
  -23.2141  -28.8024   18.7504 C   0  0  0  0  0  0  0  0  0  0  0  0
  -22.1221  -22.9364   20.1301 C   0  0  0  0  0  0  0  0  0  0  0  0
  -28.0963  -20.6164   21.3282 C   0  0  0  0  0  0  0  0  0  0  0  0
  -29.0164  -20.3229   19.1136 C   0  0  0  0  0  0  0  0  0  0  0  0
  -22.5709  -21.7417   19.5690 C   0  0  0  0  0  0  0  0  0  0  0  0
  -28.4634  -23.6453   17.7478 C   0  0  0  0  0  0  0  0  0  0  0  0
  -29.3527  -24.4662   17.0543 C   0  0  0  0  0  0  0  0  0  0  0  0
  -24.3117  -21.6202   21.2346 C   0  0  0  0  0  0  0  0  0  0  0  0
  -23.4189  -13.2503   19.6394 C   0  0  0  0  0  0  0  0  0  0  0  0
  -30.9089  -24.3378   18.8979 C   0  0  0  0  0  0  0  0  0  0  0  0
  -29.2102  -18.5529   20.7465 C   0  0  0  0  0  0  0  0  0  0  0  0
  -30.5593  -16.8939   22.1376 C   0  0  0  0  0  0  0  0  0  0  0  0
  -23.8846  -30.6626   20.1568 C   0  0  0  0  0  0  0  0  0  0  0  0
  -22.7726  -23.4887   21.2429 C   0  0  0  0  0  0  0  0  0  0  0  0
  -23.9663  -29.2955   19.8302 C   0  0  0  0  0  0  0  0  0  0  0  0
  -23.8676  -22.8208   21.8095 C   0  0  0  0  0  0  0  0  0  0  0  0
  -23.2607  -12.4789   20.7854 C   0  0  0  0  0  0  0  0  0  0  0  0
  -28.3384  -21.1086   20.0457 C   0  0  0  0  0  0  0  0  0  0  0  0
  -23.6676  -21.0849   20.1194 C   0  0  0  0  0  0  0  0  0  0  0  0
  -28.7968  -23.1708   19.0164 C   0  0  0  0  0  0  0  0  0  0  0  0
  -30.5754  -24.8124   17.6293 C   0  0  0  0  0  0  0  0  0  0  0  0
  -30.0195  -23.5170   19.5915 C   0  0  0  0  0  0  0  0  0  0  0  0
  -22.6217  -13.0176   21.8966 C   0  0  0  0  0  0  0  0  0  0  0  0
  -29.6611  -17.2330   21.1080 C   0  0  0  0  0  0  0  0  0  0  0  0
  -22.1627  -14.3222   21.8117 C   0  0  0  0  0  0  0  0  0  0  0  0
  -22.9241  -14.5444   19.6555 C   0  0  0  0  0  0  0  0  0  0  0  0
  -30.6576  -15.5255   22.0706 C   0  0  0  0  0  0  0  0  0  0  0  0
  -31.2435  -17.7401   23.0712 C   0  0  0  0  0  0  0  0  0  0  0  0
  -24.3325  -26.1990   21.8128 C   0  0  0  0  0  0  0  0  0  0  0  0
  -24.3809  -25.0761   24.8556 C   0  0  0  0  0  0  0  0  0  0  0  0
  -24.2373  -22.3892   26.9549 C   0  0  0  0  0  0  0  0  0  0  0  0
  -26.9899  -11.2707   19.9980 C   0  0  0  0  0  0  0  0  0  0  0  0
  -24.7022  -31.2616   21.2736 C   0  0  0  0  0  0  0  0  0  0  0  0
  -22.2597  -24.7644   21.8528 C   0  0  0  0  0  0  0  0  0  0  0  0
  -24.5883  -23.3614   23.0165 C   0  0  0  0  0  0  0  0  0  0  0  0
  -25.2480  -30.2252   22.2525 C   0  0  0  0  0  0  0  0  0  0  0  0
  -30.3407  -11.8961   18.9694 C   0  0  0  0  0  0  0  0  0  0  0  0
  -25.8645  -29.0514   21.4983 C   0  0  0  0  0  0  0  0  0  0  0  0
  -30.6275  -13.3042   19.4938 C   0  0  0  0  0  0  0  0  0  0  0  0
  -28.8968  -11.7546   18.4927 C   0  0  0  0  0  0  0  0  0  0  0  0
  -28.1633  -13.5554   20.0070 C   0  0  0  0  0  0  0  0  0  0  0  0
  -24.8162  -28.3375   20.6365 C   0  0  1  0  0  0  0  0  0  0  0  0
  -23.3151  -25.5020   22.6711 C   0  0  1  0  0  0  0  0  0  0  0  0
  -29.5914  -13.7306   20.5511 C   0  0  2  0  0  0  0  0  0  0  0  0
  -21.4722  -14.9357   22.9838 C   0  0  0  0  0  0  0  0  0  0  0  0
  -24.3424  -21.7821   29.3875 C   0  0  0  0  0  0  0  0  0  0  0  0
  -27.4056  -25.4763   24.8223 C   0  0  0  0  0  0  0  0  0  0  0  0
  -27.5525  -24.0050   26.8427 C   0  0  0  0  0  0  0  0  0  0  0  0
  -26.2873  -26.1519   26.9548 C   0  0  0  0  0  0  0  0  0  0  0  0
  -23.7671  -14.7339   17.3288 C   0  0  0  0  0  0  0  0  0  0  0  0
  -21.5049  -21.2532   26.9087 C   0  0  0  0  0  0  0  0  0  0  0  0
  -23.7766  -11.0805   20.8190 C   0  0  0  0  0  0  0  0  0  0  0  0
  -23.5840  -17.6381   19.0418 C   0  0  0  0  0  0  0  0  0  0  0  0
  -25.1030  -10.9326   21.5743 C   0  0  0  0  0  0  0  0  0  0  0  0
  -22.5995  -16.6641   18.4057 C   0  0  0  0  0  0  0  0  0  0  0  0
  -23.1349  -19.0908   18.9378 C   0  0  0  0  0  0  0  0  0  1  0  0
  -25.3183  -24.2084   25.6602 C   0  0  1  0  0  0  0  0  0  0  0  0
  -23.4362  -22.1412   28.2202 C   0  0  2  0  0  0  0  0  0  0  0  0
  -26.6287  -24.9510   26.0461 C   0  0  0  0  0  0  0  0  0  0  0  0
  -29.2204  -16.1661   20.4361 N   0  0  0  0  0  0  0  0  0  0  0  0
  -22.2979  -15.1023   20.7159 N   0  0  0  0  0  0  0  0  0  0  0  0
  -29.8443  -15.1432   21.0447 N   0  0  0  0  0  0  0  0  0  0  0  0
  -24.0529  -24.6150   23.5728 N   0  0  0  0  0  0  0  0  0  0  0  0
  -27.9647  -12.1735   19.5423 N   0  0  0  0  0  0  0  0  0  0  0  0
  -31.3596  -14.6242   22.7897 N   0  0  0  0  0  0  0  0  0  0  0  0
  -32.5044  -18.2407   22.7194 N   0  0  0  0  0  0  0  0  0  0  0  0
  -23.9809  -27.4873   21.4574 N   0  0  0  0  0  0  0  0  0  0  0  0
  -24.5483  -23.7236   26.8005 N   0  0  0  0  0  0  0  0  0  0  0  0
  -26.1511  -11.7457   20.9988 N   0  0  0  0  0  0  0  0  0  0  0  0
  -23.0918  -15.3105   18.4930 N   0  0  3  0  0  0  0  0  0  0  0  0
  -22.4724  -21.0237   28.0125 N   0  3  0  0  0  0  0  0  0  0  0  0
  -30.7585  -18.0299   24.1911 O   0  0  0  0  0  0  0  0  0  0  0  0
  -25.3609  -25.6120   21.4975 O   0  0  0  0  0  0  0  0  0  0  0  0
  -23.9497  -26.1207   25.3499 O   0  0  0  0  0  0  0  0  0  0  0  0
  -24.5585  -21.4886   26.1827 O   0  0  0  0  0  0  0  0  0  0  0  0
  -26.8789  -10.1244   19.5502 O   0  0  0  0  0  0  0  0  0  0  0  0
  -27.9131  -22.3553   19.7034 O   0  0  0  0  0  0  0  0  0  0  0  0
  -24.1080  -19.9188   19.5733 O   0  0  0  0  0  0  0  0  0  1  0  0
  -31.4300  -25.5994   16.9626 F   0  0  0  0  0  0  0  0  0  0  0  0
  -30.3459  -23.0632   20.8094 F   0  0  0  0  0  0  0  0  0  0  0  0
  -22.4580  -12.2973   23.0140 F   0  0  0  0  0  0  0  0  0  0  0  0
  1  2  1  0  0  0  0
  1  5  2  0  0  0  0
  2  6  2  0  0  0  0
  3  8  2  0  0  0  0
  3 16  1  0  0  0  0
  4  9  1  0  0  0  0
  4 16  2  0  0  0  0
  5 18  1  0  0  0  0
  6 20  1  0  0  0  0
  7 10  2  0  0  0  0
  7 19  1  0  0  0  0
  8 23  1  0  0  0  0
  9 23  2  0  0  0  0
 10 24  1  0  0  0  0
 11 12  2  0  0  0  0
 11 25  1  0  0  0  0
 12 26  1  0  0  0  0
 13 21  1  0  0  0  0
 13 24  2  0  0  0  0
 14 22  2  0  0  0  0
 14 31  1  0  0  0  0
 15 26  2  0  0  0  0
 15 27  1  0  0  0  0
 16 29  1  0  0  0  0
 17 29  1  0  0  0  0
 17 32  2  0  0  0  0
 17 33  1  0  0  0  0
 18 20  2  0  0  0  0
 18 38  1  0  0  0  0
 19 21  2  0  0  0  0
 19 39  1  0  0  0  0
 20 47  1  0  0  0  0
 21 40  1  0  0  0  0
 22 28  1  0  0  0  0
 22 57  1  0  0  0  0
 23 82  1  0  0  0  0
 24 83  1  0  0  0  0
 25 27  2  0  0  0  0
 25 82  1  0  0  0  0
 26 84  1  0  0  0  0
 27 85  1  0  0  0  0
 28 30  2  0  0  0  0
 28 86  1  0  0  0  0
 29 65  2  0  0  0  0
 30 50  1  0  0  0  0
 30 66  1  0  0  0  0
 31 66  2  0  0  0  0
 31 75  1  0  0  0  0
 32 67  1  0  0  0  0
 32 70  1  0  0  0  0
 33 71  1  0  0  0  0
 33 77  2  0  0  0  0
 34 48  1  0  0  0  0
 34 72  1  0  0  0  0
 34 78  2  0  0  0  0
 35 62  1  0  0  0  0
 35 68  1  0  0  0  0
 35 79  2  0  0  0  0
 36 63  1  0  0  0  0
 36 73  1  0  0  0  0
 36 80  2  0  0  0  0
 37 69  1  0  0  0  0
 37 74  1  0  0  0  0
 37 81  2  0  0  0  0
 38 41  1  0  0  0  0
 39 48  1  0  0  0  0
 40 68  1  0  0  0  0
 41 43  1  0  0  0  0
 42 44  1  0  0  0  0
 42 45  1  0  0  0  0
 43 47  1  0  0  0  0
 44 49  1  0  0  0  0
 45 69  1  0  0  0  0
 46 49  1  0  0  0  0
 46 69  1  0  0  0  0
 47 72  1  0  0  0  0
 48 68  1  0  0  0  0
 49 67  1  0  0  0  0
 51 63  1  0  0  0  0
 52 64  1  0  0  0  0
 53 64  1  0  0  0  0
 54 64  1  0  0  0  0
 55 75  1  0  0  0  0
 56 76  1  0  0  0  0
 57 59  1  0  0  0  0
 58 60  1  0  0  0  0
 58 61  1  0  0  0  0
 59 74  1  0  0  0  0
 60 75  1  0  0  0  0
 61 83  1  0  0  0  0
 62 64  1  0  0  0  0
 62 73  1  0  0  0  0
 63 76  1  0  0  0  0
 65 67  1  0  0  0  0
M  CHG  1  76   1
M  ISO  4  37 100  61 101  74 100  83 101
M  END
> <Batch ID>
0028

> <Smiles>
CNC(C)C(=O)NC(C(=O)N1Cc2cc([101O:1][101CH2:1]CCN(C)c3cc(CC[100NH:0][100C:0](=O)N4CCCC(n5nc(-c6ccc(Oc7ccc(F)cc7F)cc6)c(C(N)=O)c5N)C4)c(F)c(C)n3)ccc2CC1C(=O)NC1CCCc2ccccc21)C(C)(C)C

> <Shape>
0.233

> <Color>
0.052

> <Negative vol penalty>
0.000

$$$$

  -OEChem-04052316333D

 88 97  0     1  0  0  0  0  0999 V2000
  -19.4398  -24.0970   22.0969 C   0  0  0  0  0  0  0  0  0  0  0  0
  -20.6431  -24.4432   21.4906 C   0  0  0  0  0  0  0  0  0  0  0  0
  -22.3378  -14.1117   24.2138 C   0  0  0  0  0  0  0  0  0  0  0  0
  -24.5568  -13.5184   23.4647 C   0  0  0  0  0  0  0  0  0  0  0  0
  -18.5780  -25.0937   22.5528 C   0  0  0  0  0  0  0  0  0  0  0  0
  -20.9848  -25.7866   21.3389 C   0  0  0  0  0  0  0  0  0  0  0  0
  -25.8006  -26.7200   22.5965 C   0  0  0  0  0  0  0  0  0  0  0  0
  -21.9383  -12.7816   24.0839 C   0  0  0  0  0  0  0  0  0  0  0  0
  -24.1573  -12.1882   23.3349 C   0  0  0  0  0  0  0  0  0  0  0  0
  -26.7801  -26.3733   21.6669 C   0  0  0  0  0  0  0  0  0  0  0  0
  -22.4217  -10.3131   21.1208 C   0  0  0  0  0  0  0  0  0  0  0  0
  -22.7985   -9.6334   19.9625 C   0  0  0  0  0  0  0  0  0  0  0  0
  -26.9082  -28.6739   20.9528 C   0  0  0  0  0  0  0  0  0  0  0  0
  -24.0004   -8.0200   21.3004 C   0  0  0  0  0  0  0  0  0  0  0  0
  -31.4682  -21.1884   17.4300 C   0  0  0  0  0  0  0  0  0  0  0  0
  -23.6471  -14.4801   23.9042 C   0  0  0  0  0  0  0  0  0  0  0  0
  -24.0537  -16.6336   25.2097 C   0  0  0  0  0  0  0  0  0  0  0  0
  -18.9138  -26.4498   22.4153 C   0  0  0  0  0  0  0  0  0  0  0  0
  -25.3590  -28.0466   22.7039 C   0  0  0  0  0  0  0  0  0  0  0  0
  -20.1262  -26.8024   21.7922 C   0  0  0  0  0  0  0  0  0  0  0  0
  -25.9248  -29.0353   21.8863 C   0  0  0  0  0  0  0  0  0  0  0  0
  -22.8480  -11.8199   23.6445 C   0  0  0  0  0  0  0  0  0  0  0  0
  -27.3320  -27.3498   20.8429 C   0  0  0  0  0  0  0  0  0  0  0  0
  -22.8342   -9.8463   22.3688 C   0  0  0  0  0  0  0  0  0  0  0  0
  -23.5879   -8.4868   20.0523 C   0  0  0  0  0  0  0  0  0  0  0  0
  -23.6235   -8.6998   22.4586 C   0  0  0  0  0  0  0  0  0  0  0  0
  -24.0602  -15.8540   24.0376 C   0  0  0  0  0  0  0  0  0  0  0  0
  -31.9555  -20.2172   18.2585 C   0  0  0  0  0  0  0  0  0  0  0  0
  -24.5353  -17.8567   24.8112 C   0  0  0  0  0  0  0  0  0  0  0  0
  -29.7799  -20.3995   18.6248 C   0  0  0  0  0  0  0  0  0  0  0  0
  -23.6487  -16.2836   26.5398 C   0  0  0  0  0  0  0  0  0  0  0  0
  -22.5746  -29.5239   22.2936 C   0  0  0  0  0  0  0  0  0  0  0  0
  -24.2090  -32.0848   23.4307 C   0  0  0  0  0  0  0  0  0  0  0  0
  -27.2187  -33.6198   23.9126 C   0  0  0  0  0  0  0  0  0  0  0  0
  -28.0837  -19.2377   20.1869 C   0  0  0  0  0  0  0  0  0  0  0  0
  -17.9286  -27.4924   22.8811 C   0  0  0  0  0  0  0  0  0  0  0  0
  -24.3208  -28.4090   23.7302 C   0  0  0  0  0  0  0  0  0  0  0  0
  -25.4998  -30.4774   21.9762 C   0  0  0  0  0  0  0  0  0  0  0  0
  -18.5364  -28.8859   23.0197 C   0  0  0  0  0  0  0  0  0  0  0  0
  -24.8046  -20.7419   21.0332 C   0  0  0  0  0  0  0  0  0  0  0  0
  -19.3743  -29.2274   21.7916 C   0  0  0  0  0  0  0  0  0  0  0  0
  -24.2198  -19.6734   21.9505 C   0  0  0  0  0  0  0  0  0  0  0  0
  -29.5229  -24.9514   19.7398 C   0  0  0  0  0  0  0  0  0  0  0  0
  -28.0271  -25.7954   17.8880 C   0  0  0  0  0  0  0  0  0  0  0  0
  -29.5750  -23.5772   19.0752 C   0  0  0  0  0  0  0  0  0  0  0  0
  -28.0750  -24.4229   17.2196 C   0  0  0  0  0  0  0  0  0  0  0  0
  -25.7116  -20.1463   19.9573 C   0  0  0  0  0  0  0  0  0  0  0  0
  -26.2080  -18.2096   21.4349 C   0  0  0  0  0  0  0  0  0  0  0  0
  -20.5435  -28.2482   21.6318 C   0  0  1  0  0  0  0  0  0  0  0  0
  -23.5777  -29.6994   23.3984 C   0  0  1  0  0  0  0  0  0  0  0  0
  -25.3388  -18.8093   22.5496 C   0  0  2  0  0  0  0  0  0  0  0  0
  -28.2359  -25.6970   19.3961 C   0  0  0  0  0  0  0  0  0  1  0  0
  -29.3605  -23.6281   17.5449 C   0  0  0  0  0  0  0  0  0  0  0  0
  -30.5798  -24.2643   16.8495 C   0  0  0  0  0  0  0  0  0  0  0  0
  -28.2326  -35.7222   24.8343 C   0  0  0  0  0  0  0  0  0  0  0  0
  -34.3246  -20.7985   18.8869 C   0  0  0  0  0  0  0  0  0  0  0  0
  -33.8827  -19.0667   17.1144 C   0  0  0  0  0  0  0  0  0  0  0  0
  -33.4766  -18.5463   19.5114 C   0  0  0  0  0  0  0  0  0  0  0  0
  -23.3058  -33.6070   20.9454 C   0  0  0  0  0  0  0  0  0  0  0  0
  -25.0746  -35.3109   21.4314 C   0  0  0  0  0  0  0  0  0  0  0  0
  -23.2284  -34.9314   23.0654 C   0  0  0  0  0  0  0  0  0  0  0  0
  -28.7710  -32.1212   25.9383 C   0  0  0  0  0  0  0  0  0  0  0  0
  -29.2085  -22.1907   17.0129 C   0  0  0  0  0  0  0  0  0  0  0  0
  -25.0383  -33.1843   22.8124 C   0  0  1  0  0  0  0  0  0  0  0  0
  -27.8246  -34.2881   25.1336 C   0  0  2  0  0  0  0  0  0  0  0  0
  -33.3102  -19.6880   18.4376 C   0  0  0  0  0  0  0  0  0  0  0  0
  -24.1686  -34.2310   22.0604 C   0  0  0  0  0  0  0  0  0  0  0  0
  -24.5101  -16.5254   22.9742 N   0  0  0  0  0  0  0  0  0  0  0  0
  -30.1197  -21.2797   17.6776 N   0  0  0  0  0  0  0  0  0  0  0  0
  -24.7907  -17.7399   23.4766 N   0  0  0  0  0  0  0  0  0  0  0  0
  -30.8892  -19.7467   18.9864 N   0  3  0  0  0  0  0  0  0  0  0  0
  -24.4771  -30.7808   22.9908 N   0  0  0  0  0  0  0  0  0  0  0  0
  -26.7194  -19.2411   20.5250 N   0  0  0  0  0  0  0  0  0  0  0  0
  -24.7609  -19.0099   25.4758 N   0  0  0  0  0  0  0  0  0  0  0  0
  -24.6078  -15.7508   27.4119 N   0  0  0  0  0  0  0  0  0  0  0  0
  -28.4689  -20.1828   19.1651 N   0  0  0  0  0  0  0  0  0  0  0  0
  -21.6062  -28.5745   22.5584 N   0  0  0  0  0  0  0  0  0  0  0  0
  -25.8455  -33.7429   23.8917 N   0  0  0  0  0  0  0  0  0  0  0  0
  -29.0316  -33.5411   25.5875 N   0  3  0  0  0  0  0  0  0  0  0  0
  -22.4673  -16.4234   26.9378 O   0  0  0  0  0  0  0  0  0  0  0  0
  -22.6712  -30.2010   21.2767 O   0  0  0  0  0  0  0  0  0  0  0  0
  -23.3598  -32.3716   24.2782 O   0  0  0  0  0  0  0  0  0  0  0  0
  -27.8962  -33.0492   23.0606 O   0  0  0  0  0  0  0  0  0  0  0  0
  -28.8898  -18.4582   20.6911 O   0  0  0  0  0  0  0  0  0  0  0  0
  -22.4586  -10.5218   23.5179 O   0  0  0  0  0  0  0  0  0  0  0  0
  -28.2877  -27.0139   19.9343 O   0  0  0  0  0  0  0  0  0  1  0  0
  -23.9484   -7.8333   18.9400 F   0  0  0  0  0  0  0  0  0  0  0  0
  -24.0219   -8.2459   23.6549 F   0  0  0  0  0  0  0  0  0  0  0  0
  1  2  1  0  0  0  0
  1  5  2  0  0  0  0
  2  6  2  0  0  0  0
  3  8  2  0  0  0  0
  3 16  1  0  0  0  0
  4  9  1  0  0  0  0
  4 16  2  0  0  0  0
  5 18  1  0  0  0  0
  6 20  1  0  0  0  0
  7 10  2  0  0  0  0
  7 19  1  0  0  0  0
  8 22  1  0  0  0  0
  9 22  2  0  0  0  0
 10 23  1  0  0  0  0
 11 12  2  0  0  0  0
 11 24  1  0  0  0  0
 12 25  1  0  0  0  0
 13 21  1  0  0  0  0
 13 23  2  0  0  0  0
 14 25  2  0  0  0  0
 14 26  1  0  0  0  0
 15 28  2  0  0  0  0
 15 69  1  0  0  0  0
 16 27  1  0  0  0  0
 17 27  1  0  0  0  0
 17 29  2  0  0  0  0
 17 31  1  0  0  0  0
 18 20  2  0  0  0  0
 18 36  1  0  0  0  0
 19 21  2  0  0  0  0
 19 37  1  0  0  0  0
 20 49  1  0  0  0  0
 21 38  1  0  0  0  0
 22 85  1  0  0  0  0
 23 86  1  0  0  0  0
 24 26  2  0  0  0  0
 24 85  1  0  0  0  0
 25 87  1  0  0  0  0
 26 88  1  0  0  0  0
 27 68  2  0  0  0  0
 28 66  1  0  0  0  0
 28 71  1  0  0  0  0
 29 70  1  0  0  0  0
 29 74  1  0  0  0  0
 30 69  1  0  0  0  0
 30 71  2  0  0  0  0
 30 76  1  0  0  0  0
 31 75  1  0  0  0  0
 31 80  2  0  0  0  0
 32 50  1  0  0  0  0
 32 77  1  0  0  0  0
 32 81  2  0  0  0  0
 33 64  1  0  0  0  0
 33 72  1  0  0  0  0
 33 82  2  0  0  0  0
 34 65  1  0  0  0  0
 34 78  1  0  0  0  0
 34 83  2  0  0  0  0
 35 73  1  0  0  0  0
 35 76  1  0  0  0  0
 35 84  2  0  0  0  0
 36 39  1  0  0  0  0
 37 50  1  0  0  0  0
 38 72  1  0  0  0  0
 39 41  1  0  0  0  0
 40 42  1  0  0  0  0
 40 47  1  0  0  0  0
 41 49  1  0  0  0  0
 42 51  1  0  0  0  0
 43 45  1  0  0  0  0
 43 52  1  0  0  0  0
 44 46  1  0  0  0  0
 44 52  1  0  0  0  0
 45 53  1  0  0  0  0
 46 53  1  0  0  0  0
 47 73  1  0  0  0  0
 48 51  1  0  0  0  0
 48 73  1  0  0  0  0
 49 77  1  0  0  0  0
 50 72  1  0  0  0  0
 51 70  1  0  0  0  0
 52 86  1  0  0  0  0
 53 54  1  0  0  0  0
 53 63  1  0  0  0  0
 55 65  1  0  0  0  0
 56 66  1  0  0  0  0
 57 66  1  0  0  0  0
 58 66  1  0  0  0  0
 59 67  1  0  0  0  0
 60 67  1  0  0  0  0
 61 67  1  0  0  0  0
 62 79  1  0  0  0  0
 63 69  1  0  0  0  0
 64 67  1  0  0  0  0
 64 78  1  0  0  0  0
 65 79  1  0  0  0  0
 68 70  1  0  0  0  0
M  CHG  2  71   1  79   1
M  ISO  4  35 100  52 101  76 100  86 101
M  END
> <Batch ID>
0028

> <Smiles>
CNC(C)C(=O)NC(C(=O)N1Cc2cc([101O:1][101CH:1]3CCC(C)(Cn4cc(C(C)(C)C)nc4[100NH:0][100C:0](=O)N4CCCC(n5nc(-c6ccc(Oc7ccc(F)cc7F)cc6)c(C(N)=O)c5N)C4)CC3)ccc2CC1C(=O)NC1CCCc2ccccc21)C(C)(C)C

> <Shape>
0.232

> <Color>
0.093

> <Negative vol penalty>
0.000

$$$$

  -OEChem-04052316333D

 92101  0     1  0  0  0  0  0999 V2000
  -24.3182  -15.4644   17.0858 C   0  0  0  0  0  0  0  0  0  0  0  0
  -25.1220  -16.5730   17.3312 C   0  0  0  0  0  0  0  0  0  0  0  0
  -22.7860  -10.1883   20.1619 C   0  0  0  0  0  0  0  0  0  0  0  0
  -24.2368   -9.5923   21.9995 C   0  0  0  0  0  0  0  0  0  0  0  0
  -23.0837  -15.6251   16.4579 C   0  0  0  0  0  0  0  0  0  0  0  0
  -24.6922  -17.8430   16.9480 C   0  0  0  0  0  0  0  0  0  0  0  0
  -25.4579  -21.3216   20.5477 C   0  0  0  0  0  0  0  0  0  0  0  0
  -22.0478   -9.0227   20.3666 C   0  0  0  0  0  0  0  0  0  0  0  0
  -23.4986   -8.4267   22.2044 C   0  0  0  0  0  0  0  0  0  0  0  0
  -26.7547  -21.8123   20.6934 C   0  0  0  0  0  0  0  0  0  0  0  0
  -20.5697   -7.5568   23.6486 C   0  0  0  0  0  0  0  0  0  0  0  0
  -20.2277   -7.2303   24.9608 C   0  0  0  0  0  0  0  0  0  0  0  0
  -32.7852  -20.1541   23.1408 C   0  0  0  0  0  0  0  0  0  0  0  0
  -26.1443  -23.7806   19.4395 C   0  0  0  0  0  0  0  0  0  0  0  0
  -21.4350   -5.1474   24.7573 C   0  0  0  0  0  0  0  0  0  0  0  0
  -23.8806  -10.4731   20.9783 C   0  0  0  0  0  0  0  0  0  0  0  0
  -24.1752  -13.0027   20.8296 C   0  0  0  0  0  0  0  0  0  0  0  0
  -22.6343  -16.8988   16.0755 C   0  0  0  0  0  0  0  0  0  0  0  0
  -24.4959  -22.0529   19.8363 C   0  0  0  0  0  0  0  0  0  0  0  0
  -23.4511  -18.0207   16.3132 C   0  0  0  0  0  0  0  0  0  0  0  0
  -33.1631  -21.0144   22.1099 C   0  0  0  0  0  0  0  0  0  0  0  0
  -24.8352  -23.2981   19.2884 C   0  0  0  0  0  0  0  0  0  0  0  0
  -33.7477  -19.3868   23.7970 C   0  0  0  0  0  0  0  0  0  0  0  0
  -22.4040   -8.1419   21.3879 C   0  0  0  0  0  0  0  0  0  0  0  0
  -27.0989  -23.0406   20.1368 C   0  0  0  0  0  0  0  0  0  0  0  0
  -21.3443   -6.6786   22.8906 C   0  0  0  0  0  0  0  0  0  0  0  0
  -20.6604   -6.0256   25.5152 C   0  0  0  0  0  0  0  0  0  0  0  0
  -21.7770   -5.4739   23.4450 C   0  0  0  0  0  0  0  0  0  0  0  0
  -34.5034  -21.1075   21.7352 C   0  0  0  0  0  0  0  0  0  0  0  0
  -35.0881  -19.4799   23.4222 C   0  0  0  0  0  0  0  0  0  0  0  0
  -35.4660  -20.3402   22.3913 C   0  0  0  0  0  0  0  0  0  0  0  0
  -24.6439  -11.6767   20.7668 C   0  0  0  0  0  0  0  0  0  0  0  0
  -25.2802  -13.7708   20.5553 C   0  0  0  0  0  0  0  0  0  0  0  0
  -22.8586  -13.4959   21.1107 C   0  0  0  0  0  0  0  0  0  0  0  0
  -22.7803  -21.5420   17.2096 C   0  0  0  0  0  0  0  0  0  0  0  0
  -21.3632  -24.3326   18.0623 C   0  0  0  0  0  0  0  0  0  0  0  0
  -21.5718  -27.2896   19.7533 C   0  0  0  0  0  0  0  0  0  0  0  0
  -31.1607  -12.8158   21.1544 C   0  0  0  0  0  0  0  0  0  0  0  0
  -21.3135  -17.0172   15.3571 C   0  0  0  0  0  0  0  0  0  0  0  0
  -23.0941  -21.5221   19.7110 C   0  0  0  0  0  0  0  0  0  0  0  0
  -23.8338  -24.1316   18.5328 C   0  0  0  0  0  0  0  0  0  0  0  0
  -20.7658  -18.4416   15.3200 C   0  0  0  0  0  0  0  0  0  0  0  0
  -29.4218  -13.6537   18.1627 C   0  0  0  0  0  0  0  0  0  0  0  0
  -31.3880  -22.7956   22.4058 C   0  0  0  0  0  0  0  0  0  0  0  0
  -31.0474  -20.9278   20.7222 C   0  0  0  0  0  0  0  0  0  0  0  0
  -21.8609  -19.4243   14.9179 C   0  0  0  0  0  0  0  0  0  0  0  0
  -27.9578  -13.3617   18.4965 C   0  0  0  0  0  0  0  0  0  0  0  0
  -30.3040  -23.6134   21.7082 C   0  0  0  0  0  0  0  0  0  0  0  0
  -29.9657  -21.7556   20.0331 C   0  0  0  0  0  0  0  0  0  0  0  0
  -30.3620  -12.6431   18.8159 C   0  0  0  0  0  0  0  0  0  0  0  0
  -28.7283  -12.1993   20.6069 C   0  0  0  0  0  0  0  0  0  0  0  0
  -32.0776  -21.8273   21.4283 C   0  0  0  0  0  0  0  0  0  0  0  0
  -23.0087  -19.4176   15.9347 C   0  0  1  0  0  0  0  0  0  0  0  0
  -22.3353  -22.1124   18.5265 C   0  0  1  0  0  0  0  0  0  0  0  0
  -27.7457  -13.2249   20.0162 C   0  0  2  0  0  0  0  0  0  0  0  0
  -29.2861  -22.7175   21.0047 C   0  0  0  0  0  0  0  0  0  1  0  0
  -20.2697  -29.3804   20.2333 C   0  0  0  0  0  0  0  0  0  0  0  0
  -21.9822  -25.3593   15.2564 C   0  0  0  0  0  0  0  0  0  0  0  0
  -21.5428  -27.6808   16.0845 C   0  0  0  0  0  0  0  0  0  0  0  0
  -19.7182  -25.9802   16.1187 C   0  0  0  0  0  0  0  0  0  0  0  0
  -21.5673  -26.7572   22.6645 C   0  0  0  0  0  0  0  0  0  0  0  0
  -33.2910  -18.4804   24.8955 C   0  0  0  0  0  0  0  0  0  0  0  0
  -31.8514  -14.4272   23.9749 C   0  0  0  0  0  0  0  0  0  0  0  0
  -32.8615  -14.6773   25.1009 C   0  0  0  0  0  0  0  0  0  0  0  0
  -31.8069  -12.9634   23.5460 C   0  0  0  0  0  0  0  0  0  0  0  0
  -32.8715  -16.1194   25.5944 C   0  0  0  0  0  0  0  0  0  0  0  0
  -21.6186  -25.7926   17.7756 C   0  0  1  0  0  0  0  0  0  0  0  0
  -20.6090  -27.9753   20.7058 C   0  0  2  0  0  0  0  0  0  0  0  0
  -21.2351  -26.1869   16.3213 C   0  0  0  0  0  0  0  0  0  0  0  0
  -25.9453  -11.6031   20.4754 N   0  0  0  0  0  0  0  0  0  0  0  0
  -26.3037  -12.8925   20.3525 N   0  0  0  0  0  0  0  0  0  0  0  0
  -22.4779  -23.5667   18.4320 N   0  0  0  0  0  0  0  0  0  0  0  0
  -30.1104  -12.5625   20.2568 N   0  0  0  0  0  0  0  0  0  0  0  0
  -25.4665  -15.1052   20.4701 N   0  0  0  0  0  0  0  0  0  0  0  0
  -21.8395  -12.5695   21.3708 N   0  0  0  0  0  0  0  0  0  0  0  0
  -22.6425  -20.1703   17.1153 N   0  0  0  0  0  0  0  0  0  0  0  0
  -20.9063  -26.5414   18.8053 N   0  0  0  0  0  0  0  0  0  0  0  0
  -30.8353  -12.7244   22.5022 N   0  0  0  0  0  0  0  0  0  0  0  0
  -21.2065  -28.0690   22.0678 N   0  3  0  0  0  0  0  0  0  0  0  0
  -33.2678  -17.0464   24.5015 N   0  3  0  0  0  0  0  0  0  0  0  0
  -22.5900  -14.7212   21.1145 O   0  0  0  0  0  0  0  0  0  0  0  0
  -23.2151  -22.2911   16.3427 O   0  0  0  0  0  0  0  0  0  0  0  0
  -20.2158  -23.8896   17.9688 O   0  0  0  0  0  0  0  0  0  0  0  0
  -22.7920  -27.4089   19.8391 O   0  0  0  0  0  0  0  0  0  0  0  0
  -32.3024  -13.1073   20.7824 O   0  0  0  0  0  0  0  0  0  0  0  0
  -21.6837   -7.0045   21.5882 O   0  0  0  0  0  0  0  0  0  0  0  0
  -28.3641  -23.5216   20.2769 O   0  0  0  0  0  0  0  0  0  1  0  0
  -20.3332   -5.7129   26.7759 F   0  0  0  0  0  0  0  0  0  0  0  0
  -22.5224   -4.6268   22.7221 F   0  0  0  0  0  0  0  0  0  0  0  0
  -34.9338  -22.1905   20.4468 Cl  0  0  0  0  0  0  0  0  0  0  0  0
  -36.2568  -18.5089   24.2645 Cl  0  0  0  0  0  0  0  0  0  0  0  0
  -37.1385  -20.4555   21.9223 Cl  0  0  0  0  0  0  0  0  0  0  0  0
  1  2  1  0  0  0  0
  1  5  2  0  0  0  0
  2  6  2  0  0  0  0
  3  8  2  0  0  0  0
  3 16  1  0  0  0  0
  4  9  1  0  0  0  0
  4 16  2  0  0  0  0
  5 18  1  0  0  0  0
  6 20  1  0  0  0  0
  7 10  2  0  0  0  0
  7 19  1  0  0  0  0
  8 24  1  0  0  0  0
  9 24  2  0  0  0  0
 10 25  1  0  0  0  0
 11 12  2  0  0  0  0
 11 26  1  0  0  0  0
 12 27  1  0  0  0  0
 13 21  1  0  0  0  0
 13 23  2  0  0  0  0
 14 22  1  0  0  0  0
 14 25  2  0  0  0  0
 15 27  2  0  0  0  0
 15 28  1  0  0  0  0
 16 32  1  0  0  0  0
 17 32  1  0  0  0  0
 17 33  2  0  0  0  0
 17 34  1  0  0  0  0
 18 20  2  0  0  0  0
 18 39  1  0  0  0  0
 19 22  2  0  0  0  0
 19 40  1  0  0  0  0
 20 53  1  0  0  0  0
 21 29  2  0  0  0  0
 21 52  1  0  0  0  0
 22 41  1  0  0  0  0
 23 30  1  0  0  0  0
 23 62  1  0  0  0  0
 24 86  1  0  0  0  0
 25 87  1  0  0  0  0
 26 28  2  0  0  0  0
 26 86  1  0  0  0  0
 27 88  1  0  0  0  0
 28 89  1  0  0  0  0
 29 31  1  0  0  0  0
 29 90  1  0  0  0  0
 30 31  2  0  0  0  0
 30 91  1  0  0  0  0
 31 92  1  0  0  0  0
 32 70  2  0  0  0  0
 33 71  1  0  0  0  0
 33 74  1  0  0  0  0
 34 75  1  0  0  0  0
 34 81  2  0  0  0  0
 35 54  1  0  0  0  0
 35 76  1  0  0  0  0
 35 82  2  0  0  0  0
 36 67  1  0  0  0  0
 36 72  1  0  0  0  0
 36 83  2  0  0  0  0
 37 68  1  0  0  0  0
 37 77  1  0  0  0  0
 37 84  2  0  0  0  0
 38 73  1  0  0  0  0
 38 78  1  0  0  0  0
 38 85  2  0  0  0  0
 39 42  1  0  0  0  0
 40 54  1  0  0  0  0
 41 72  1  0  0  0  0
 42 46  1  0  0  0  0
 43 47  1  0  0  0  0
 43 50  1  0  0  0  0
 44 48  1  0  0  0  0
 44 52  1  0  0  0  0
 45 49  1  0  0  0  0
 45 52  1  0  0  0  0
 46 53  1  0  0  0  0
 47 55  1  0  0  0  0
 48 56  1  0  0  0  0
 49 56  1  0  0  0  0
 50 73  1  0  0  0  0
 51 55  1  0  0  0  0
 51 73  1  0  0  0  0
 53 76  1  0  0  0  0
 54 72  1  0  0  0  0
 55 71  1  0  0  0  0
 56 87  1  0  0  0  0
 57 68  1  0  0  0  0
 58 69  1  0  0  0  0
 59 69  1  0  0  0  0
 60 69  1  0  0  0  0
 61 79  1  0  0  0  0
 62 80  1  0  0  0  0
 63 64  1  0  0  0  0
 63 65  1  0  0  0  0
 64 66  1  0  0  0  0
 65 78  1  0  0  0  0
 66 80  1  0  0  0  0
 67 69  1  0  0  0  0
 67 77  1  0  0  0  0
 68 79  1  0  0  0  0
 70 71  1  0  0  0  0
M  CHG  2  79   1  80   1
M  ISO  4  38 100  56 101  78 100  87 101
M  END
> <Batch ID>
0028

> <Smiles>
CNC(C)C(=O)NC(C(=O)N1Cc2cc([101O:1][101CH:1]3CCC(c4cc(CNCCCC[100NH:0][100C:0](=O)N5CCCC(n6nc(-c7ccc(Oc8ccc(F)cc8F)cc7)c(C(N)=O)c6N)C5)c(Cl)c(Cl)c4Cl)CC3)ccc2CC1C(=O)NC1CCCc2ccccc21)C(C)(C)C

> <Shape>
0.196

> <Color>
0.178

> <Negative vol penalty>
0.000

$$$$

  -OEChem-04052316333D

 81 89  0     1  0  0  0  0  0999 V2000
  -27.5271  -24.1121   17.1406 C   0  0  0  0  0  0  0  0  0  0  0  0
  -26.3468  -24.4688   17.7847 C   0  0  0  0  0  0  0  0  0  0  0  0
  -25.3211  -13.6787   19.1577 C   0  0  0  0  0  0  0  0  0  0  0  0
  -24.4733  -13.8227   21.4155 C   0  0  0  0  0  0  0  0  0  0  0  0
  -28.7553  -24.5074   17.6692 C   0  0  0  0  0  0  0  0  0  0  0  0
  -26.3939  -25.2202   18.9585 C   0  0  0  0  0  0  0  0  0  0  0  0
  -23.0127  -28.9900   18.9891 C   0  0  0  0  0  0  0  0  0  0  0  0
  -25.8087  -12.3990   19.4223 C   0  0  0  0  0  0  0  0  0  0  0  0
  -24.9608  -12.5428   21.6801 C   0  0  0  0  0  0  0  0  0  0  0  0
  -21.6879  -28.6549   19.2653 C   0  0  0  0  0  0  0  0  0  0  0  0
  -25.6656   -9.1703   22.8409 C   0  0  0  0  0  0  0  0  0  0  0  0
  -24.8283   -8.2837   23.5180 C   0  0  0  0  0  0  0  0  0  0  0  0
  -21.9819  -29.3950   21.5424 C   0  0  0  0  0  0  0  0  0  0  0  0
  -19.4350  -23.7882   21.9997 C   0  0  0  0  0  0  0  0  0  0  0  0
  -23.2021   -8.4616   21.7400 C   0  0  0  0  0  0  0  0  0  0  0  0
  -21.1689  -25.4157   21.9629 C   0  0  0  0  0  0  0  0  0  0  0  0
  -24.6535  -14.3906   20.1543 C   0  0  0  0  0  0  0  0  0  0  0  0
  -22.8783  -16.0522   19.3827 C   0  0  0  0  0  0  0  0  0  0  0  0
  -28.8171  -25.2721   18.8448 C   0  0  0  0  0  0  0  0  0  0  0  0
  -23.8366  -29.5209   19.9920 C   0  0  0  0  0  0  0  0  0  0  0  0
  -27.6240  -25.6249   19.5040 C   0  0  0  0  0  0  0  0  0  0  0  0
  -23.3161  -29.7384   21.2756 C   0  0  0  0  0  0  0  0  0  0  0  0
  -19.8185  -25.1230   22.0663 C   0  0  0  0  0  0  0  0  0  0  0  0
  -25.6285  -11.8310   20.6835 C   0  0  0  0  0  0  0  0  0  0  0  0
  -21.1731  -28.8547   20.5429 C   0  0  0  0  0  0  0  0  0  0  0  0
  -25.2712   -9.7026   21.6134 C   0  0  0  0  0  0  0  0  0  0  0  0
  -23.5966   -7.9293   22.9676 C   0  0  0  0  0  0  0  0  0  0  0  0
  -24.0395   -9.3483   21.0630 C   0  0  0  0  0  0  0  0  0  0  0  0
  -20.3998  -22.8008   21.8340 C   0  0  0  0  0  0  0  0  0  0  0  0
  -24.1501  -15.7129   19.8817 C   0  0  0  0  0  0  0  0  0  0  0  0
  -21.7241  -23.1975   21.7408 C   0  0  0  0  0  0  0  0  0  0  0  0
  -22.8954  -17.4233   19.3027 C   0  0  0  0  0  0  0  0  0  0  0  0
  -21.7796  -15.2039   19.0237 C   0  0  0  0  0  0  0  0  0  0  0  0
  -26.5249  -28.5924   21.4115 C   0  0  0  0  0  0  0  0  0  0  0  0
  -26.3369  -31.5138   22.8088 C   0  0  0  0  0  0  0  0  0  0  0  0
  -24.3878  -34.1434   23.7748 C   0  0  0  0  0  0  0  0  0  0  0  0
  -24.1015  -22.4136   21.4579 C   0  0  0  0  0  0  0  0  0  0  0  0
  -30.1698  -25.6358   19.4039 C   0  0  0  0  0  0  0  0  0  0  0  0
  -25.2558  -29.9022   19.6708 C   0  0  0  0  0  0  0  0  0  0  0  0
  -24.1532  -30.3244   22.3821 C   0  0  0  0  0  0  0  0  0  0  0  0
  -30.1184  -26.7488   20.4474 C   0  0  0  0  0  0  0  0  0  0  0  0
  -26.7240  -20.7022   19.7636 C   0  0  0  0  0  0  0  0  0  0  0  0
  -29.0031  -26.4856   21.4542 C   0  0  0  0  0  0  0  0  0  0  0  0
  -26.1835  -19.2795   19.6023 C   0  0  0  0  0  0  0  0  0  0  0  0
  -26.3037  -21.3209   21.0957 C   0  0  0  0  0  0  0  0  0  0  0  0
  -24.3208  -19.8632   21.2074 C   0  0  0  0  0  0  0  0  0  0  0  0
  -27.6331  -26.4603   20.7658 C   0  0  1  0  0  0  0  0  0  0  0  0
  -26.1533  -29.9567   20.9032 C   0  0  1  0  0  0  0  0  0  0  0  0
  -24.6638  -19.2222   19.8528 C   0  0  2  0  0  0  0  0  0  0  0  0
  -24.5125  -36.3690   24.9274 C   0  0  0  0  0  0  0  0  0  0  0  0
  -26.5782  -30.1022   25.5031 C   0  0  0  0  0  0  0  0  0  0  0  0
  -25.7550  -32.1986   26.5966 C   0  0  0  0  0  0  0  0  0  0  0  0
  -27.8942  -32.2204   25.3136 C   0  0  0  0  0  0  0  0  0  0  0  0
  -23.4076  -35.5714   21.3751 C   0  0  0  0  0  0  0  0  0  0  0  0
  -18.7970  -26.2176   22.2453 C   0  0  0  0  0  0  0  0  0  0  0  0
  -18.2502  -26.7712   20.9278 C   0  0  0  0  0  0  0  0  0  0  0  0
  -19.3122  -27.4509   20.0713 C   0  0  0  0  0  0  0  0  0  1  0  0
  -25.7017  -32.0592   24.0650 C   0  0  1  0  0  0  0  0  0  0  0  0
  -24.5546  -35.6412   23.5928 C   0  0  2  0  0  0  0  0  0  0  0  0
  -26.4668  -31.6322   25.3495 C   0  0  0  0  0  0  0  0  0  0  0  0
  -22.1350  -24.4840   21.8013 N   0  0  0  0  0  0  0  0  0  0  0  0
  -24.9193  -16.7822   20.1030 N   0  0  0  0  0  0  0  0  0  0  0  0
  -24.1286  -17.8069   19.7412 N   0  0  0  0  0  0  0  0  0  0  0  0
  -25.5366  -30.6751   22.0203 N   0  0  0  0  0  0  0  0  0  0  0  0
  -24.8512  -21.2345   21.2620 N   0  0  0  0  0  0  0  0  0  0  0  0
  -21.9758  -18.3261   18.9006 N   0  0  0  0  0  0  0  0  0  0  0  0
  -21.9306  -13.8180   19.1680 N   0  0  0  0  0  0  0  0  0  0  0  0
  -22.7265  -22.2105   21.5708 N   0  0  0  0  0  0  0  0  0  0  0  0
  -27.1837  -27.8070   20.4849 N   0  0  0  0  0  0  0  0  0  0  0  0
  -25.6044  -33.5030   23.8796 N   0  0  0  0  0  0  0  0  0  0  0  0
  -23.4681  -36.1821   22.7280 N   0  3  0  0  0  0  0  0  0  0  0  0
  -20.7018  -15.6604   18.5725 O   0  0  0  0  0  0  0  0  0  0  0  0
  -26.2366  -28.2763   22.5598 O   0  0  0  0  0  0  0  0  0  0  0  0
  -27.4981  -31.8263   22.5336 O   0  0  0  0  0  0  0  0  0  0  0  0
  -23.2881  -33.5966   23.8232 O   0  0  0  0  0  0  0  0  0  0  0  0
  -24.6368  -23.5245   21.4937 O   0  0  0  0  0  0  0  0  0  0  0  0
  -26.1039  -10.5821   20.9420 O   0  0  0  0  0  0  0  0  0  0  0  0
  -19.8806  -28.5278   20.8154 O   0  0  0  0  0  0  0  0  0  1  0  0
  -22.7933   -7.0768   23.6172 F   0  0  0  0  0  0  0  0  0  0  0  0
  -23.6556   -9.8555   19.8835 F   0  0  0  0  0  0  0  0  0  0  0  0
  -19.9079  -21.1514   21.7537 Cl  0  0  0  0  0  0  0  0  0  0  0  0
  1  2  1  0  0  0  0
  1  5  2  0  0  0  0
  2  6  2  0  0  0  0
  3  8  2  0  0  0  0
  3 17  1  0  0  0  0
  4  9  1  0  0  0  0
  4 17  2  0  0  0  0
  5 19  1  0  0  0  0
  6 21  1  0  0  0  0
  7 10  2  0  0  0  0
  7 20  1  0  0  0  0
  8 24  1  0  0  0  0
  9 24  2  0  0  0  0
 10 25  1  0  0  0  0
 11 12  2  0  0  0  0
 11 26  1  0  0  0  0
 12 27  1  0  0  0  0
 13 22  1  0  0  0  0
 13 25  2  0  0  0  0
 14 23  2  0  0  0  0
 14 29  1  0  0  0  0
 15 27  2  0  0  0  0
 15 28  1  0  0  0  0
 16 23  1  0  0  0  0
 16 61  2  0  0  0  0
 17 30  1  0  0  0  0
 18 30  1  0  0  0  0
 18 32  2  0  0  0  0
 18 33  1  0  0  0  0
 19 21  2  0  0  0  0
 19 38  1  0  0  0  0
 20 22  2  0  0  0  0
 20 39  1  0  0  0  0
 21 47  1  0  0  0  0
 22 40  1  0  0  0  0
 23 55  1  0  0  0  0
 24 77  1  0  0  0  0
 25 78  1  0  0  0  0
 26 28  2  0  0  0  0
 26 77  1  0  0  0  0
 27 79  1  0  0  0  0
 28 80  1  0  0  0  0
 29 31  2  0  0  0  0
 29 81  1  0  0  0  0
 30 62  2  0  0  0  0
 31 61  1  0  0  0  0
 31 68  1  0  0  0  0
 32 63  1  0  0  0  0
 32 66  1  0  0  0  0
 33 67  1  0  0  0  0
 33 72  2  0  0  0  0
 34 48  1  0  0  0  0
 34 69  1  0  0  0  0
 34 73  2  0  0  0  0
 35 58  1  0  0  0  0
 35 64  1  0  0  0  0
 35 74  2  0  0  0  0
 36 59  1  0  0  0  0
 36 70  1  0  0  0  0
 36 75  2  0  0  0  0
 37 65  1  0  0  0  0
 37 68  1  0  0  0  0
 37 76  2  0  0  0  0
 38 41  1  0  0  0  0
 39 48  1  0  0  0  0
 40 64  1  0  0  0  0
 41 43  1  0  0  0  0
 42 44  1  0  0  0  0
 42 45  1  0  0  0  0
 43 47  1  0  0  0  0
 44 49  1  0  0  0  0
 45 65  1  0  0  0  0
 46 49  1  0  0  0  0
 46 65  1  0  0  0  0
 47 69  1  0  0  0  0
 48 64  1  0  0  0  0
 49 63  1  0  0  0  0
 50 59  1  0  0  0  0
 51 60  1  0  0  0  0
 52 60  1  0  0  0  0
 53 60  1  0  0  0  0
 54 71  1  0  0  0  0
 55 56  1  0  0  0  0
 56 57  1  0  0  0  0
 57 78  1  0  0  0  0
 58 60  1  0  0  0  0
 58 70  1  0  0  0  0
 59 71  1  0  0  0  0
 62 63  1  0  0  0  0
M  CHG  1  71   1
M  ISO  4  37 100  57 101  68 100  78 101
M  END
> <Batch ID>
0028

> <Smiles>
CNC(C)C(=O)NC(C(=O)N1Cc2cc([101O:1][101CH2:1]CCc3cnc([100NH:0][100C:0](=O)N4CCCC(n5nc(-c6ccc(Oc7ccc(F)cc7F)cc6)c(C(N)=O)c5N)C4)c(Cl)c3)ccc2CC1C(=O)NC1CCCc2ccccc21)C(C)(C)C

> <Shape>
0.279

> <Color>
0.076

> <Negative vol penalty>
0.000

$$$$

  -OEChem-04052316333D

 82 90  0     1  0  0  0  0  0999 V2000
  -18.8159  -25.1397   19.8058 C   0  0  0  0  0  0  0  0  0  0  0  0
  -20.1512  -25.4529   19.5726 C   0  0  0  0  0  0  0  0  0  0  0  0
  -24.1469  -14.1673   20.8492 C   0  0  0  0  0  0  0  0  0  0  0  0
  -26.5599  -14.0534   20.8901 C   0  0  0  0  0  0  0  0  0  0  0  0
  -18.1286  -25.7564   20.8503 C   0  0  0  0  0  0  0  0  0  0  0  0
  -20.7996  -26.3839   20.3833 C   0  0  0  0  0  0  0  0  0  0  0  0
  -25.4160  -24.8515   21.7926 C   0  0  0  0  0  0  0  0  0  0  0  0
  -24.0896  -12.8226   20.4831 C   0  0  0  0  0  0  0  0  0  0  0  0
  -26.5026  -12.7086   20.5241 C   0  0  0  0  0  0  0  0  0  0  0  0
  -26.4396  -24.9673   20.8532 C   0  0  0  0  0  0  0  0  0  0  0  0
  -23.2975   -9.3247   19.8896 C   0  0  0  0  0  0  0  0  0  0  0  0
  -22.3726   -8.5127   20.5460 C   0  0  0  0  0  0  0  0  0  0  0  0
  -27.1883  -26.9932   21.9276 C   0  0  0  0  0  0  0  0  0  0  0  0
  -30.4330  -23.7978   18.9946 C   0  0  0  0  0  0  0  0  0  0  0  0
  -31.4675  -22.8527   21.4070 C   0  0  0  0  0  0  0  0  0  0  0  0
  -23.4423   -9.0006   22.6567 C   0  0  0  0  0  0  0  0  0  0  0  0
  -25.3820  -14.7828   21.0526 C   0  0  0  0  0  0  0  0  0  0  0  0
  -25.4448  -16.6987   22.7357 C   0  0  0  0  0  0  0  0  0  0  0  0
  -18.7716  -26.6883   21.6802 C   0  0  0  0  0  0  0  0  0  0  0  0
  -25.2639  -25.8132   22.8017 C   0  0  0  0  0  0  0  0  0  0  0  0
  -20.1198  -27.0147   21.4391 C   0  0  0  0  0  0  0  0  0  0  0  0
  -26.1634  -26.8859   22.8801 C   0  0  0  0  0  0  0  0  0  0  0  0
  -30.8457  -24.6981   19.9769 C   0  0  0  0  0  0  0  0  0  0  0  0
  -30.5374  -22.4250   19.2186 C   0  0  0  0  0  0  0  0  0  0  0  0
  -31.3630  -24.2255   21.1830 C   0  0  0  0  0  0  0  0  0  0  0  0
  -25.2674  -12.0932   20.3206 C   0  0  0  0  0  0  0  0  0  0  0  0
  -27.3242  -26.0398   20.9189 C   0  0  0  0  0  0  0  0  0  0  0  0
  -24.2949   -9.9746   20.6167 C   0  0  0  0  0  0  0  0  0  0  0  0
  -22.4450   -8.3507   21.9296 C   0  0  0  0  0  0  0  0  0  0  0  0
  -24.3672   -9.8126   22.0002 C   0  0  0  0  0  0  0  0  0  0  0  0
  -31.0547  -21.9524   20.4247 C   0  0  0  0  0  0  0  0  0  0  0  0
  -25.4419  -16.1720   21.4302 C   0  0  0  0  0  0  0  0  0  0  0  0
  -25.5129  -18.0588   22.5570 C   0  0  0  0  0  0  0  0  0  0  0  0
  -25.3909  -16.0193   23.9971 C   0  0  0  0  0  0  0  0  0  0  0  0
  -22.9825  -27.8729   23.6120 C   0  0  0  0  0  0  0  0  0  0  0  0
  -24.9194  -28.4183   26.1562 C   0  0  0  0  0  0  0  0  0  0  0  0
  -28.0648  -28.3191   27.4767 C   0  0  0  0  0  0  0  0  0  0  0  0
  -27.6025  -21.4883   18.1159 C   0  0  0  0  0  0  0  0  0  0  0  0
  -17.9740  -27.3641   22.7673 C   0  0  0  0  0  0  0  0  0  0  0  0
  -24.1708  -25.6595   23.8234 C   0  0  0  0  0  0  0  0  0  0  0  0
  -26.0556  -27.9342   23.9562 C   0  0  0  0  0  0  0  0  0  0  0  0
  -18.8394  -28.0611   23.8140 C   0  0  0  0  0  0  0  0  0  0  0  0
  -24.3028  -21.4929   19.4532 C   0  0  0  0  0  0  0  0  0  0  0  0
  -19.9286  -28.8896   23.1403 C   0  0  0  0  0  0  0  0  0  0  0  0
  -24.2208  -20.1773   20.2293 C   0  0  0  0  0  0  0  0  0  0  0  0
  -25.1302  -21.3454   18.1782 C   0  0  0  0  0  0  0  0  0  0  0  0
  -26.3985  -19.4708   19.1536 C   0  0  0  0  0  0  0  0  0  0  0  0
  -20.8647  -28.0011   22.3121 C   0  0  1  0  0  0  0  0  0  0  0  0
  -23.7961  -26.9745   24.5000 C   0  0  1  0  0  0  0  0  0  0  0  0
  -25.6208  -19.5836   20.4760 C   0  0  2  0  0  0  0  0  0  0  0  0
  -31.8086  -25.1707   22.2502 C   0  0  0  0  0  0  0  0  0  0  0  0
  -29.3419  -28.8654   29.5667 C   0  0  0  0  0  0  0  0  0  0  0  0
  -24.8091  -31.3836   25.4457 C   0  0  0  0  0  0  0  0  0  0  0  0
  -26.7986  -31.7402   26.9231 C   0  0  0  0  0  0  0  0  0  0  0  0
  -24.6631  -30.8912   27.8933 C   0  0  0  0  0  0  0  0  0  0  0  0
  -28.8823  -25.4997   27.8529 C   0  0  0  0  0  0  0  0  0  0  0  0
  -30.7214  -26.1792   19.7140 C   0  0  0  0  0  0  0  0  0  0  0  0
  -30.0842  -21.4936   18.1411 C   0  0  0  0  0  0  0  0  0  0  0  0
  -29.5251  -26.7968   20.4298 C   0  0  0  0  0  0  0  0  0  1  0  0
  -26.0624  -29.3606   26.4471 C   0  0  1  0  0  0  0  0  0  0  0  0
  -28.5848  -27.7911   28.8016 C   0  0  2  0  0  0  0  0  0  0  0  0
  -25.5844  -30.8254   26.6557 C   0  0  0  0  0  0  0  0  0  0  0  0
  -25.5031  -17.1202   20.4915 N   0  0  0  0  0  0  0  0  0  0  0  0
  -25.5450  -18.2564   21.2079 N   0  0  0  0  0  0  0  0  0  0  0  0
  -24.9664  -27.7434   24.9281 N   0  0  0  0  0  0  0  0  0  0  0  0
  -26.4467  -20.7788   18.4815 N   0  0  0  0  0  0  0  0  0  0  0  0
  -25.5477  -19.0931   23.4239 N   0  0  0  0  0  0  0  0  0  0  0  0
  -25.3240  -14.6194   23.9997 N   0  0  0  0  0  0  0  0  0  0  0  0
  -21.7990  -27.3096   23.1743 N   0  0  0  0  0  0  0  0  0  0  0  0
  -26.7761  -28.7968   27.5878 N   0  0  0  0  0  0  0  0  0  0  0  0
  -28.8092  -20.8835   18.4460 N   0  0  0  0  0  0  0  0  0  0  0  0
  -29.5034  -26.6395   28.5755 N   0  3  0  0  0  0  0  0  0  0  0  0
  -25.3852  -16.6362   25.0893 O   0  0  0  0  0  0  0  0  0  0  0  0
  -23.3970  -28.9948   23.3449 O   0  0  0  0  0  0  0  0  0  0  0  0
  -24.0218  -28.2805   26.9910 O   0  0  0  0  0  0  0  0  0  0  0  0
  -28.7360  -28.3122   26.4472 O   0  0  0  0  0  0  0  0  0  0  0  0
  -27.5621  -22.5824   17.5429 O   0  0  0  0  0  0  0  0  0  0  0  0
  -25.2119  -10.7810   19.9637 O   0  0  0  0  0  0  0  0  0  0  0  0
  -28.3239  -26.1555   20.0028 O   0  0  0  0  0  0  0  0  0  1  0  0
  -21.5558   -7.5722   22.5600 F   0  0  0  0  0  0  0  0  0  0  0  0
  -25.3224  -10.4353   22.7043 F   0  0  0  0  0  0  0  0  0  0  0  0
  -31.1988  -20.2611   20.7375 Cl  0  0  0  0  0  0  0  0  0  0  0  0
  1  2  1  0  0  0  0
  1  5  2  0  0  0  0
  2  6  2  0  0  0  0
  3  8  2  0  0  0  0
  3 17  1  0  0  0  0
  4  9  1  0  0  0  0
  4 17  2  0  0  0  0
  5 19  1  0  0  0  0
  6 21  1  0  0  0  0
  7 10  2  0  0  0  0
  7 20  1  0  0  0  0
  8 26  1  0  0  0  0
  9 26  2  0  0  0  0
 10 27  1  0  0  0  0
 11 12  2  0  0  0  0
 11 28  1  0  0  0  0
 12 29  1  0  0  0  0
 13 22  1  0  0  0  0
 13 27  2  0  0  0  0
 14 23  1  0  0  0  0
 14 24  2  0  0  0  0
 15 25  1  0  0  0  0
 15 31  2  0  0  0  0
 16 29  2  0  0  0  0
 16 30  1  0  0  0  0
 17 32  1  0  0  0  0
 18 32  1  0  0  0  0
 18 33  2  0  0  0  0
 18 34  1  0  0  0  0
 19 21  2  0  0  0  0
 19 39  1  0  0  0  0
 20 22  2  0  0  0  0
 20 40  1  0  0  0  0
 21 48  1  0  0  0  0
 22 41  1  0  0  0  0
 23 25  2  0  0  0  0
 23 57  1  0  0  0  0
 24 31  1  0  0  0  0
 24 58  1  0  0  0  0
 25 51  1  0  0  0  0
 26 78  1  0  0  0  0
 27 79  1  0  0  0  0
 28 30  2  0  0  0  0
 28 78  1  0  0  0  0
 29 80  1  0  0  0  0
 30 81  1  0  0  0  0
 31 82  1  0  0  0  0
 32 63  2  0  0  0  0
 33 64  1  0  0  0  0
 33 67  1  0  0  0  0
 34 68  1  0  0  0  0
 34 73  2  0  0  0  0
 35 49  1  0  0  0  0
 35 69  1  0  0  0  0
 35 74  2  0  0  0  0
 36 60  1  0  0  0  0
 36 65  1  0  0  0  0
 36 75  2  0  0  0  0
 37 61  1  0  0  0  0
 37 70  1  0  0  0  0
 37 76  2  0  0  0  0
 38 66  1  0  0  0  0
 38 71  1  0  0  0  0
 38 77  2  0  0  0  0
 39 42  1  0  0  0  0
 40 49  1  0  0  0  0
 41 65  1  0  0  0  0
 42 44  1  0  0  0  0
 43 45  1  0  0  0  0
 43 46  1  0  0  0  0
 44 48  1  0  0  0  0
 45 50  1  0  0  0  0
 46 66  1  0  0  0  0
 47 50  1  0  0  0  0
 47 66  1  0  0  0  0
 48 69  1  0  0  0  0
 49 65  1  0  0  0  0
 50 64  1  0  0  0  0
 52 61  1  0  0  0  0
 53 62  1  0  0  0  0
 54 62  1  0  0  0  0
 55 62  1  0  0  0  0
 56 72  1  0  0  0  0
 57 59  1  0  0  0  0
 58 71  1  0  0  0  0
 59 79  1  0  0  0  0
 60 62  1  0  0  0  0
 60 70  1  0  0  0  0
 61 72  1  0  0  0  0
 63 64  1  0  0  0  0
M  CHG  1  72   1
M  ISO  4  38 100  59 101  71 100  79 101
M  END
> <Batch ID>
0028

> <Smiles>
CNC(C)C(=O)NC(C(=O)N1Cc2cc([101O:1][101CH2:1]Cc3cc(C[100NH:0][100C:0](=O)N4CCCC(n5nc(-c6ccc(Oc7ccc(F)cc7F)cc6)c(C(N)=O)c5N)C4)c(Cl)cc3C)ccc2CC1C(=O)NC1CCCc2ccccc21)C(C)(C)C

> <Shape>
0.209

> <Color>
0.089

> <Negative vol penalty>
0.000

$$$$

  -OEChem-04052316333D

 86 94  0     1  0  0  0  0  0999 V2000
  -29.2942  -23.2173   14.3606 C   0  0  0  0  0  0  0  0  0  0  0  0
  -28.5354  -22.9894   15.5042 C   0  0  0  0  0  0  0  0  0  0  0  0
  -29.2488  -16.9176   19.9270 C   0  0  0  0  0  0  0  0  0  0  0  0
  -27.8957  -17.7169   21.7620 C   0  0  0  0  0  0  0  0  0  0  0  0
  -30.1739  -24.2979   14.3129 C   0  0  0  0  0  0  0  0  0  0  0  0
  -28.6568  -23.8415   16.6013 C   0  0  0  0  0  0  0  0  0  0  0  0
  -24.1707  -25.1313   18.5650 C   0  0  0  0  0  0  0  0  0  0  0  0
  -29.5673  -18.2328   19.5889 C   0  0  0  0  0  0  0  0  0  0  0  0
  -28.2143  -19.0322   21.4240 C   0  0  0  0  0  0  0  0  0  0  0  0
  -23.5360  -24.1906   19.3750 C   0  0  0  0  0  0  0  0  0  0  0  0
  -30.8177  -21.1472   21.8356 C   0  0  0  0  0  0  0  0  0  0  0  0
  -31.1727  -22.0128   22.8702 C   0  0  0  0  0  0  0  0  0  0  0  0
  -24.3147  -25.3617   21.3349 C   0  0  0  0  0  0  0  0  0  0  0  0
  -19.5769  -20.2711   21.7843 C   0  0  0  0  0  0  0  0  0  0  0  0
  -29.3177  -23.4526   22.3022 C   0  0  0  0  0  0  0  0  0  0  0  0
  -17.4677  -21.6728   20.7684 C   0  0  0  0  0  0  0  0  0  0  0  0
  -28.4129  -16.6596   21.0135 C   0  0  0  0  0  0  0  0  0  0  0  0
  -28.7820  -14.4570   22.2462 C   0  0  0  0  0  0  0  0  0  0  0  0
  -30.2990  -25.1693   15.4064 C   0  0  0  0  0  0  0  0  0  0  0  0
  -24.8925  -26.1899   19.1349 C   0  0  0  0  0  0  0  0  0  0  0  0
  -29.5400  -24.9340   16.5687 C   0  0  0  0  0  0  0  0  0  0  0  0
  -24.9555  -26.3159   20.5299 C   0  0  0  0  0  0  0  0  0  0  0  0
  -19.6534  -21.6572   21.7058 C   0  0  0  0  0  0  0  0  0  0  0  0
  -29.0501  -19.2901   20.3375 C   0  0  0  0  0  0  0  0  0  0  0  0
  -23.6104  -24.3040   20.7601 C   0  0  0  0  0  0  0  0  0  0  0  0
  -29.7126  -21.4344   21.0343 C   0  0  0  0  0  0  0  0  0  0  0  0
  -30.4227  -23.1654   23.1035 C   0  0  0  0  0  0  0  0  0  0  0  0
  -28.9626  -22.5871   21.2676 C   0  0  0  0  0  0  0  0  0  0  0  0
  -18.5830  -22.3789   21.1894 C   0  0  0  0  0  0  0  0  0  0  0  0
  -28.0830  -15.3012   21.3628 C   0  0  0  0  0  0  0  0  0  0  0  0
  -18.4170  -19.6594   21.3368 C   0  0  0  0  0  0  0  0  0  0  0  0
  -28.0702  -13.2824   22.2341 C   0  0  0  0  0  0  0  0  0  0  0  0
  -29.9686  -14.7117   23.0096 C   0  0  0  0  0  0  0  0  0  0  0  0
  -27.9300  -27.1242   19.0715 C   0  0  0  0  0  0  0  0  0  0  0  0
  -26.7726  -29.6769   20.7045 C   0  0  0  0  0  0  0  0  0  0  0  0
  -24.3414  -30.9642   22.7241 C   0  0  0  0  0  0  0  0  0  0  0  0
  -22.3516  -11.9927   21.0151 C   0  0  0  0  0  0  0  0  0  0  0  0
  -31.2979  -26.2964   15.3258 C   0  0  0  0  0  0  0  0  0  0  0  0
  -25.5490  -27.2114   18.2473 C   0  0  0  0  0  0  0  0  0  0  0  0
  -25.7007  -27.4454   21.1913 C   0  0  0  0  0  0  0  0  0  0  0  0
  -31.0916  -27.3703   16.3909 C   0  0  0  0  0  0  0  0  0  0  0  0
  -25.2365  -10.6503   19.4175 C   0  0  0  0  0  0  0  0  0  0  0  0
  -30.8808  -26.7311   17.7598 C   0  0  0  0  0  0  0  0  0  0  0  0
  -26.3562  -11.6139   19.8146 C   0  0  0  0  0  0  0  0  0  0  0  0
  -23.9152  -11.3823   19.1932 C   0  0  0  0  0  0  0  0  0  0  0  0
  -24.6000  -13.1970   20.7135 C   0  0  0  0  0  0  0  0  0  0  0  0
  -29.6254  -25.8505   17.7699 C   0  0  1  0  0  0  0  0  0  0  0  0
  -26.6874  -27.9580   18.9360 C   0  0  1  0  0  0  0  0  0  0  0  0
  -25.9390  -12.4982   21.0050 C   0  0  2  0  0  0  0  0  0  0  0  0
  -23.6878  -33.0688   23.9245 C   0  0  0  0  0  0  0  0  0  0  0  0
  -28.8920  -29.1210   22.8279 C   0  0  0  0  0  0  0  0  0  0  0  0
  -27.6119  -30.5982   24.3925 C   0  0  0  0  0  0  0  0  0  0  0  0
  -28.5650  -31.5411   22.2888 C   0  0  0  0  0  0  0  0  0  0  0  0
  -21.8154  -31.1878   21.1983 C   0  0  0  0  0  0  0  0  0  0  0  0
  -20.9111  -22.3390   22.1873 C   0  0  0  0  0  0  0  0  0  0  0  0
  -20.1782  -15.0967   22.4126 C   0  0  0  0  0  0  0  0  0  0  0  0
  -19.0522  -15.9794   21.8720 C   0  0  0  0  0  0  0  0  0  0  0  0
  -19.7898  -13.6158   22.3749 C   0  0  0  0  0  0  0  0  0  0  0  0
  -19.4212  -17.4576   21.9445 C   0  0  0  0  0  0  0  0  0  0  0  0
  -20.8990  -12.7075   22.8961 C   0  0  0  0  0  0  0  0  0  0  0  0
  -21.8133  -22.7711   21.0364 C   0  0  0  0  0  0  0  0  0  1  0  0
  -26.5598  -30.0064   22.1622 C   0  0  1  0  0  0  0  0  0  0  0  0
  -23.5473  -32.2557   22.6470 C   0  0  2  0  0  0  0  0  0  0  0  0
  -27.8947  -30.2942   22.9057 C   0  0  0  0  0  0  0  0  0  0  0  0
  -17.3567  -20.3269   20.8290 N   0  0  0  0  0  0  0  0  0  0  0  0
  -27.0096  -14.7130   20.8282 N   0  0  0  0  0  0  0  0  0  0  0  0
  -27.0289  -13.4865   21.3772 N   0  0  0  0  0  0  0  0  0  0  0  0
  -26.3313  -28.4153   20.2807 N   0  0  0  0  0  0  0  0  0  0  0  0
  -23.5761  -12.2016   20.3593 N   0  0  0  0  0  0  0  0  0  0  0  0
  -28.2397  -12.1052   22.8728 N   0  0  0  0  0  0  0  0  0  0  0  0
  -30.5726  -15.9721   22.9051 N   0  0  0  0  0  0  0  0  0  0  0  0
  -18.3529  -18.2465   21.4233 N   0  0  0  0  0  0  0  0  0  0  0  0
  -28.4354  -26.6680   17.8690 N   0  0  0  0  0  0  0  0  0  0  0  0
  -25.6068  -31.1105   22.1963 N   0  0  0  0  0  0  0  0  0  0  0  0
  -22.1116  -12.8074   22.1148 N   0  0  0  0  0  0  0  0  0  0  0  0
  -22.1018  -31.9629   22.4329 N   0  3  0  0  0  0  0  0  0  0  0  0
  -30.4874  -13.8418   23.7496 O   0  0  0  0  0  0  0  0  0  0  0  0
  -28.3967  -26.9118   20.1845 O   0  0  0  0  0  0  0  0  0  0  0  0
  -27.3041  -30.5110   19.9672 O   0  0  0  0  0  0  0  0  0  0  0  0
  -23.8861  -29.9302   23.2077 O   0  0  0  0  0  0  0  0  0  0  0  0
  -21.5353  -11.1395   20.6509 O   0  0  0  0  0  0  0  0  0  0  0  0
  -29.3609  -20.5737   20.0080 O   0  0  0  0  0  0  0  0  0  0  0  0
  -22.9924  -23.3869   21.5530 O   0  0  0  0  0  0  0  0  0  1  0  0
  -30.7629  -23.9957   24.0980 F   0  0  0  0  0  0  0  0  0  0  0  0
  -27.8993  -22.8676   20.5019 F   0  0  0  0  0  0  0  0  0  0  0  0
  -18.6085  -24.0937   21.0615 Cl  0  0  0  0  0  0  0  0  0  0  0  0
  1  2  1  0  0  0  0
  1  5  2  0  0  0  0
  2  6  2  0  0  0  0
  3  8  2  0  0  0  0
  3 17  1  0  0  0  0
  4  9  1  0  0  0  0
  4 17  2  0  0  0  0
  5 19  1  0  0  0  0
  6 21  1  0  0  0  0
  7 10  2  0  0  0  0
  7 20  1  0  0  0  0
  8 24  1  0  0  0  0
  9 24  2  0  0  0  0
 10 25  1  0  0  0  0
 11 12  2  0  0  0  0
 11 26  1  0  0  0  0
 12 27  1  0  0  0  0
 13 22  1  0  0  0  0
 13 25  2  0  0  0  0
 14 23  1  0  0  0  0
 14 31  2  0  0  0  0
 15 27  2  0  0  0  0
 15 28  1  0  0  0  0
 16 29  1  0  0  0  0
 16 65  2  0  0  0  0
 17 30  1  0  0  0  0
 18 30  1  0  0  0  0
 18 32  2  0  0  0  0
 18 33  1  0  0  0  0
 19 21  2  0  0  0  0
 19 38  1  0  0  0  0
 20 22  2  0  0  0  0
 20 39  1  0  0  0  0
 21 47  1  0  0  0  0
 22 40  1  0  0  0  0
 23 29  2  0  0  0  0
 23 55  1  0  0  0  0
 24 82  1  0  0  0  0
 25 83  1  0  0  0  0
 26 28  2  0  0  0  0
 26 82  1  0  0  0  0
 27 84  1  0  0  0  0
 28 85  1  0  0  0  0
 29 86  1  0  0  0  0
 30 66  2  0  0  0  0
 31 65  1  0  0  0  0
 31 72  1  0  0  0  0
 32 67  1  0  0  0  0
 32 70  1  0  0  0  0
 33 71  1  0  0  0  0
 33 77  2  0  0  0  0
 34 48  1  0  0  0  0
 34 73  1  0  0  0  0
 34 78  2  0  0  0  0
 35 62  1  0  0  0  0
 35 68  1  0  0  0  0
 35 79  2  0  0  0  0
 36 63  1  0  0  0  0
 36 74  1  0  0  0  0
 36 80  2  0  0  0  0
 37 69  1  0  0  0  0
 37 75  1  0  0  0  0
 37 81  2  0  0  0  0
 38 41  1  0  0  0  0
 39 48  1  0  0  0  0
 40 68  1  0  0  0  0
 41 43  1  0  0  0  0
 42 44  1  0  0  0  0
 42 45  1  0  0  0  0
 43 47  1  0  0  0  0
 44 49  1  0  0  0  0
 45 69  1  0  0  0  0
 46 49  1  0  0  0  0
 46 69  1  0  0  0  0
 47 73  1  0  0  0  0
 48 68  1  0  0  0  0
 49 67  1  0  0  0  0
 50 63  1  0  0  0  0
 51 64  1  0  0  0  0
 52 64  1  0  0  0  0
 53 64  1  0  0  0  0
 54 76  1  0  0  0  0
 55 61  1  0  0  0  0
 56 57  1  0  0  0  0
 56 58  1  0  0  0  0
 57 59  1  0  0  0  0
 58 60  1  0  0  0  0
 59 72  1  0  0  0  0
 60 75  1  0  0  0  0
 61 83  1  0  0  0  0
 62 64  1  0  0  0  0
 62 74  1  0  0  0  0
 63 76  1  0  0  0  0
 66 67  1  0  0  0  0
M  CHG  1  76   1
M  ISO  4  37 100  61 101  75 100  83 101
M  END
> <Batch ID>
0028

> <Smiles>
CNC(C)C(=O)NC(C(=O)N1Cc2cc([101O:1][101CH2:1]Cc3cc(NCCCCC[100NH:0][100C:0](=O)N4CCCC(n5nc(-c6ccc(Oc7ccc(F)cc7F)cc6)c(C(N)=O)c5N)C4)ncc3Cl)ccc2CC1C(=O)NC1CCCc2ccccc21)C(C)(C)C

> <Shape>
0.220

> <Color>
0.074

> <Negative vol penalty>
0.000

$$$$

  -OEChem-04052316333D

 83 91  0     1  0  0  0  0  0999 V2000
  -18.1336  -32.6311   21.1868 C   0  0  0  0  0  0  0  0  0  0  0  0
  -19.5086  -32.6851   20.9822 C   0  0  0  0  0  0  0  0  0  0  0  0
  -25.9683  -14.0624   21.8142 C   0  0  0  0  0  0  0  0  0  0  0  0
  -25.7934  -14.2364   19.4108 C   0  0  0  0  0  0  0  0  0  0  0  0
  -17.5962  -31.6833   22.0568 C   0  0  0  0  0  0  0  0  0  0  0  0
  -20.3471  -31.7921   21.6483 C   0  0  0  0  0  0  0  0  0  0  0  0
  -25.5222  -29.3096   19.5124 C   0  0  0  0  0  0  0  0  0  0  0  0
  -24.6512  -13.6076   21.8771 C   0  0  0  0  0  0  0  0  0  0  0  0
  -24.4763  -13.7815   19.4737 C   0  0  0  0  0  0  0  0  0  0  0  0
  -26.8650  -29.6357   19.6974 C   0  0  0  0  0  0  0  0  0  0  0  0
  -21.5476  -14.9401   21.7505 C   0  0  0  0  0  0  0  0  0  0  0  0
  -20.7187  -15.4903   22.7281 C   0  0  0  0  0  0  0  0  0  0  0  0
  -27.0160  -27.9910   21.4555 C   0  0  0  0  0  0  0  0  0  0  0  0
  -31.4906  -27.0652   22.2763 C   0  0  0  0  0  0  0  0  0  0  0  0
  -29.9605  -27.3277   19.9586 C   0  0  0  0  0  0  0  0  0  0  0  0
  -20.3874  -13.2957   23.6824 C   0  0  0  0  0  0  0  0  0  0  0  0
  -26.5394  -14.3769   20.5810 C   0  0  0  0  0  0  0  0  0  0  0  0
  -29.0631  -14.0674   20.3741 C   0  0  0  0  0  0  0  0  0  0  0  0
  -18.4277  -30.7719   22.7265 C   0  0  0  0  0  0  0  0  0  0  0  0
  -24.9123  -28.3277   20.3063 C   0  0  0  0  0  0  0  0  0  0  0  0
  -19.8205  -30.8321   22.5291 C   0  0  0  0  0  0  0  0  0  0  0  0
  -25.6660  -27.6524   21.2769 C   0  0  0  0  0  0  0  0  0  0  0  0
  -30.5883  -28.1217   22.1522 C   0  0  0  0  0  0  0  0  0  0  0  0
  -31.6278  -26.1400   21.2416 C   0  0  0  0  0  0  0  0  0  0  0  0
  -23.9052  -13.4670   20.7069 C   0  0  0  0  0  0  0  0  0  0  0  0
  -27.6114  -28.9784   20.6710 C   0  0  0  0  0  0  0  0  0  0  0  0
  -21.7963  -13.5676   21.7387 C   0  0  0  0  0  0  0  0  0  0  0  0
  -29.8232  -28.2529   20.9933 C   0  0  0  0  0  0  0  0  0  1  0  0
  -30.8628  -26.2713   20.0827 C   0  0  0  0  0  0  0  0  0  0  0  0
  -20.1387  -14.6681   23.6941 C   0  0  0  0  0  0  0  0  0  0  0  0
  -21.2163  -12.7454   22.7047 C   0  0  0  0  0  0  0  0  0  0  0  0
  -27.8997  -14.8474   20.5154 C   0  0  0  0  0  0  0  0  0  0  0  0
  -30.0894  -14.9801   20.3646 C   0  0  0  0  0  0  0  0  0  0  0  0
  -29.2035  -12.6450   20.2614 C   0  0  0  0  0  0  0  0  0  0  0  0
  -22.5052  -28.2977   22.3821 C   0  0  0  0  0  0  0  0  0  0  0  0
  -23.0307  -25.0969   22.3506 C   0  0  0  0  0  0  0  0  0  0  0  0
  -25.1990  -22.5222   21.7879 C   0  0  0  0  0  0  0  0  0  0  0  0
  -30.2756  -20.6734   18.8131 C   0  0  0  0  0  0  0  0  0  0  0  0
  -17.8050  -29.7962   23.6935 C   0  0  0  0  0  0  0  0  0  0  0  0
  -23.4699  -27.9687   20.0762 C   0  0  0  0  0  0  0  0  0  0  0  0
  -25.0637  -26.5763   22.1416 C   0  0  0  0  0  0  0  0  0  0  0  0
  -18.7286  -28.6417   24.0733 C   0  0  0  0  0  0  0  0  0  0  0  0
  -31.2605  -19.3156   22.0199 C   0  0  0  0  0  0  0  0  0  0  0  0
  -20.1202  -29.1626   24.4182 C   0  0  0  0  0  0  0  0  0  0  0  0
  -30.6121  -17.9307   21.9759 C   0  0  0  0  0  0  0  0  0  0  0  0
  -30.3697  -20.3642   21.3603 C   0  0  0  0  0  0  0  0  0  0  0  0
  -29.3305  -18.6628   19.9115 C   0  0  0  0  0  0  0  0  0  0  0  0
  -20.7606  -29.8643   23.2144 C   0  0  1  0  0  0  0  0  0  0  0  0
  -22.8161  -27.3143   21.2894 C   0  0  1  0  0  0  0  0  0  0  0  0
  -30.1920  -17.5540   20.5428 C   0  0  2  0  0  0  0  0  0  0  0  0
  -30.4550  -29.1032   23.2694 C   0  0  0  0  0  0  0  0  0  0  0  0
  -32.5977  -25.0148   21.3918 C   0  0  0  0  0  0  0  0  0  0  0  0
  -25.3524  -20.0193   21.8837 C   0  0  0  0  0  0  0  0  0  0  0  0
  -23.2484  -25.2290   25.3912 C   0  0  0  0  0  0  0  0  0  0  0  0
  -24.3185  -22.9661   25.3433 C   0  0  0  0  0  0  0  0  0  0  0  0
  -21.9814  -23.2563   24.5208 C   0  0  0  0  0  0  0  0  0  0  0  0
  -25.7620  -22.3298   18.8888 C   0  0  0  0  0  0  0  0  0  0  0  0
  -30.1536  -23.7299   17.5284 C   0  0  0  0  0  0  0  0  0  0  0  0
  -31.2626  -22.7393   17.8564 C   0  0  0  0  0  0  0  0  0  0  0  0
  -29.8144  -24.6482   18.6962 C   0  0  0  0  0  0  0  0  0  0  0  0
  -23.9015  -24.1486   23.1391 C   0  0  1  0  0  0  0  0  0  0  0  0
  -25.0447  -21.2267   21.0118 C   0  0  2  0  0  0  0  0  0  0  0  0
  -23.3736  -23.9216   24.5838 C   0  0  0  0  0  0  0  0  0  0  0  0
  -28.1616  -16.1550   20.5905 N   0  0  0  0  0  0  0  0  0  0  0  0
  -29.5013  -16.2037   20.4961 N   0  0  0  0  0  0  0  0  0  0  0  0
  -23.6481  -26.2655   21.8828 N   0  0  0  0  0  0  0  0  0  0  0  0
  -30.0214  -19.9540   19.9926 N   0  0  0  0  0  0  0  0  0  0  0  0
  -31.4285  -14.8475   20.2569 N   0  0  0  0  0  0  0  0  0  0  0  0
  -28.0461  -11.8550   20.2892 N   0  0  0  0  0  0  0  0  0  0  0  0
  -21.2618  -28.8897   22.2692 N   0  0  0  0  0  0  0  0  0  0  0  0
  -24.0045  -22.9308   22.3423 N   0  0  0  0  0  0  0  0  0  0  0  0
  -30.9275  -21.8895   18.9774 N   0  0  0  0  0  0  0  0  0  0  0  0
  -25.9688  -21.2100   19.8428 N   0  3  0  0  0  0  0  0  0  0  0  0
  -30.3234  -12.0897   20.1561 O   0  0  0  0  0  0  0  0  0  0  0  0
  -23.3317  -28.5029   23.2633 O   0  0  0  0  0  0  0  0  0  0  0  0
  -21.8483  -24.8078   22.1510 O   0  0  0  0  0  0  0  0  0  0  0  0
  -26.2726  -23.1107   21.8949 O   0  0  0  0  0  0  0  0  0  0  0  0
  -29.9505  -20.2599   17.6948 O   0  0  0  0  0  0  0  0  0  0  0  0
  -22.6201  -13.0230   20.7679 O   0  0  0  0  0  0  0  0  0  0  0  0
  -28.9221  -29.2953   20.8541 O   0  0  0  0  0  0  0  0  0  1  0  0
  -30.9845  -25.3766   19.0622 O   0  0  0  0  0  0  0  0  0  0  0  0
  -19.3440  -15.1969   24.6338 F   0  0  0  0  0  0  0  0  0  0  0  0
  -21.4525  -11.4263   22.6993 F   0  0  0  0  0  0  0  0  0  0  0  0
  1  2  1  0  0  0  0
  1  5  2  0  0  0  0
  2  6  2  0  0  0  0
  3  8  2  0  0  0  0
  3 17  1  0  0  0  0
  4  9  1  0  0  0  0
  4 17  2  0  0  0  0
  5 19  1  0  0  0  0
  6 21  1  0  0  0  0
  7 10  2  0  0  0  0
  7 20  1  0  0  0  0
  8 25  1  0  0  0  0
  9 25  2  0  0  0  0
 10 26  1  0  0  0  0
 11 12  2  0  0  0  0
 11 27  1  0  0  0  0
 12 30  1  0  0  0  0
 13 22  1  0  0  0  0
 13 26  2  0  0  0  0
 14 23  1  0  0  0  0
 14 24  2  0  0  0  0
 15 28  1  0  0  0  0
 15 29  2  0  0  0  0
 16 30  2  0  0  0  0
 16 31  1  0  0  0  0
 17 32  1  0  0  0  0
 18 32  1  0  0  0  0
 18 33  2  0  0  0  0
 18 34  1  0  0  0  0
 19 21  2  0  0  0  0
 19 39  1  0  0  0  0
 20 22  2  0  0  0  0
 20 40  1  0  0  0  0
 21 48  1  0  0  0  0
 22 41  1  0  0  0  0
 23 28  2  0  0  0  0
 23 51  1  0  0  0  0
 24 29  1  0  0  0  0
 24 52  1  0  0  0  0
 25 79  1  0  0  0  0
 26 80  1  0  0  0  0
 27 31  2  0  0  0  0
 27 79  1  0  0  0  0
 28 80  1  0  0  0  0
 29 81  1  0  0  0  0
 30 82  1  0  0  0  0
 31 83  1  0  0  0  0
 32 64  2  0  0  0  0
 33 65  1  0  0  0  0
 33 68  1  0  0  0  0
 34 69  1  0  0  0  0
 34 74  2  0  0  0  0
 35 49  1  0  0  0  0
 35 70  1  0  0  0  0
 35 75  2  0  0  0  0
 36 61  1  0  0  0  0
 36 66  1  0  0  0  0
 36 76  2  0  0  0  0
 37 62  1  0  0  0  0
 37 71  1  0  0  0  0
 37 77  2  0  0  0  0
 38 67  1  0  0  0  0
 38 72  1  0  0  0  0
 38 78  2  0  0  0  0
 39 42  1  0  0  0  0
 40 49  1  0  0  0  0
 41 66  1  0  0  0  0
 42 44  1  0  0  0  0
 43 45  1  0  0  0  0
 43 46  1  0  0  0  0
 44 48  1  0  0  0  0
 45 50  1  0  0  0  0
 46 67  1  0  0  0  0
 47 50  1  0  0  0  0
 47 67  1  0  0  0  0
 48 70  1  0  0  0  0
 49 66  1  0  0  0  0
 50 65  1  0  0  0  0
 53 62  1  0  0  0  0
 54 63  1  0  0  0  0
 55 63  1  0  0  0  0
 56 63  1  0  0  0  0
 57 73  1  0  0  0  0
 58 59  1  0  0  0  0
 58 60  1  0  0  0  0
 59 72  1  0  0  0  0
 60 81  1  0  0  0  0
 61 63  1  0  0  0  0
 61 71  1  0  0  0  0
 62 73  1  0  0  0  0
 64 65  1  0  0  0  0
M  CHG  1  73   1
M  ISO  4  28 101  38 100  72 100  80 101
M  END
> <Batch ID>
0028

> <Smiles>
CNC(C)C(=O)NC(C(=O)N1Cc2cc([101O:1][101c:1]3cc(OCCC[100NH:0][100C:0](=O)N4CCCC(n5nc(-c6ccc(Oc7ccc(F)cc7F)cc6)c(C(N)=O)c5N)C4)c(C)cc3C)ccc2CC1C(=O)NC1CCCc2ccccc21)C(C)(C)C

> <Shape>
0.248

> <Color>
0.088

> <Negative vol penalty>
0.000

$$$$

  -OEChem-04052316333D

 85 93  0     1  0  0  0  0  0999 V2000
  -18.1390  -27.5023   22.4401 C   0  0  0  0  0  0  0  0  0  0  0  0
  -19.0582  -26.6734   21.8050 C   0  0  0  0  0  0  0  0  0  0  0  0
  -31.9341  -20.2780   18.9840 C   0  0  0  0  0  0  0  0  0  0  0  0
  -29.6470  -21.0020   19.2707 C   0  0  0  0  0  0  0  0  0  0  0  0
  -18.5833  -28.6046   23.1691 C   0  0  0  0  0  0  0  0  0  0  0  0
  -20.4224  -26.9470   21.8977 C   0  0  0  0  0  0  0  0  0  0  0  0
  -23.1739  -22.8046   22.8540 C   0  0  0  0  0  0  0  0  0  0  0  0
  -32.1484  -21.3145   18.0756 C   0  0  0  0  0  0  0  0  0  0  0  0
  -29.8613  -22.0386   18.3622 C   0  0  0  0  0  0  0  0  0  0  0  0
  -23.4260  -21.9467   21.7843 C   0  0  0  0  0  0  0  0  0  0  0  0
  -31.3008  -25.0961   18.3686 C   0  0  0  0  0  0  0  0  0  0  0  0
  -30.8213  -26.3615   18.7067 C   0  0  0  0  0  0  0  0  0  0  0  0
  -25.6275  -22.9031   21.5438 C   0  0  0  0  0  0  0  0  0  0  0  0
  -29.4287  -26.3612   16.7324 C   0  0  0  0  0  0  0  0  0  0  0  0
  -30.6834  -20.1217   19.5815 C   0  0  0  0  0  0  0  0  0  0  0  0
  -30.6483  -19.0899   21.9143 C   0  0  0  0  0  0  0  0  0  0  0  0
  -19.9542  -28.8863   23.2788 C   0  0  0  0  0  0  0  0  0  0  0  0
  -24.1444  -23.7273   23.2703 C   0  0  0  0  0  0  0  0  0  0  0  0
  -20.8854  -28.0548   22.6277 C   0  0  0  0  0  0  0  0  0  0  0  0
  -25.3862  -23.7698   22.6207 C   0  0  0  0  0  0  0  0  0  0  0  0
  -23.5945  -15.5501   20.7506 C   0  0  0  0  0  0  0  0  0  0  0  0
  -31.1120  -22.1948   17.7647 C   0  0  0  0  0  0  0  0  0  0  0  0
  -24.6518  -21.9978   21.1272 C   0  0  0  0  0  0  0  0  0  0  0  0
  -30.8444  -24.4632   17.2123 C   0  0  0  0  0  0  0  0  0  0  0  0
  -29.8852  -26.9941   17.8886 C   0  0  0  0  0  0  0  0  0  0  0  0
  -29.9083  -25.0958   16.3943 C   0  0  0  0  0  0  0  0  0  0  0  0
  -30.4613  -19.0508   20.5196 C   0  0  0  0  0  0  0  0  0  0  0  0
  -22.2493  -15.3139   20.9480 C   0  0  0  0  0  0  0  0  0  0  0  0
  -24.3738  -14.4296   20.5471 C   0  0  0  0  0  0  0  0  0  0  0  0
  -30.3027  -17.8315   22.3425 C   0  0  0  0  0  0  0  0  0  0  0  0
  -22.5608  -13.0720   20.7392 C   0  0  0  0  0  0  0  0  0  0  0  0
  -31.0944  -20.1675   22.7482 C   0  0  0  0  0  0  0  0  0  0  0  0
  -24.3002  -26.8978   23.4361 C   0  0  0  0  0  0  0  0  0  0  0  0
  -27.1263  -26.2926   24.9090 C   0  0  0  0  0  0  0  0  0  0  0  0
  -29.7347  -24.1483   25.4037 C   0  0  0  0  0  0  0  0  0  0  0  0
  -26.7145  -13.6039   20.1160 C   0  0  0  0  0  0  0  0  0  0  0  0
  -20.3841  -30.1163   24.0384 C   0  0  0  0  0  0  0  0  0  0  0  0
  -23.8669  -24.6274   24.4430 C   0  0  0  0  0  0  0  0  0  0  0  0
  -26.4691  -24.7282   23.0418 C   0  0  0  0  0  0  0  0  0  0  0  0
  -21.8674  -30.1221   24.3988 C   0  0  0  0  0  0  0  0  0  0  0  0
  -30.1792  -13.2767   20.8684 C   0  0  0  0  0  0  0  0  0  0  0  0
  -22.7116  -29.7260   23.1917 C   0  0  0  0  0  0  0  0  0  0  0  0
  -30.6604  -14.7237   20.9972 C   0  0  0  0  0  0  0  0  0  0  0  0
  -29.1281  -13.1242   19.7703 C   0  0  0  0  0  0  0  0  0  0  0  0
  -28.4648  -15.4853   20.0041 C   0  0  0  0  0  0  0  0  0  0  0  0
  -22.3748  -28.3045   22.7255 C   0  0  1  0  0  0  0  0  0  0  0  0
  -24.7363  -25.8810   24.4528 C   0  0  1  0  0  0  0  0  0  0  0  0
  -29.4769  -15.7005   21.1412 C   0  0  2  0  0  0  0  0  0  0  0  0
  -21.9868  -11.6958   20.7328 C   0  0  0  0  0  0  0  0  0  0  0  0
  -20.4706  -18.1762   22.8319 C   0  0  0  0  0  0  0  0  0  0  0  0
  -31.9134  -23.9470   26.6326 C   0  0  0  0  0  0  0  0  0  0  0  0
  -28.4388  -28.1583   22.8826 C   0  0  0  0  0  0  0  0  0  0  0  0
  -30.6552  -27.1930   23.5339 C   0  0  0  0  0  0  0  0  0  0  0  0
  -29.2792  -28.4052   25.2250 C   0  0  0  0  0  0  0  0  0  0  0  0
  -28.7919  -21.7913   26.9252 C   0  0  0  0  0  0  0  0  0  0  0  0
  -24.1656  -16.9457   20.7587 C   0  0  0  0  0  0  0  0  0  0  0  0
  -21.3070  -16.4493   21.1786 C   0  0  0  0  0  0  0  0  0  0  0  0
  -21.4064  -16.9987   22.6091 C   0  0  0  0  0  0  0  0  0  0  0  0
  -24.4894  -17.4903   19.3630 C   0  0  0  0  0  0  0  0  0  0  0  0
  -25.1384  -18.8747   19.3963 C   0  0  0  0  0  0  0  0  0  0  0  0
  -24.2488  -19.8924   20.0972 C   0  0  0  0  0  0  0  0  0  1  0  0
  -28.5531  -26.1105   24.4509 C   0  0  1  0  0  0  0  0  0  0  0  0
  -30.4187  -23.6697   26.6717 C   0  0  2  0  0  0  0  0  0  0  0  0
  -29.2107  -27.4499   24.0137 C   0  0  0  0  0  0  0  0  0  0  0  0
  -30.0305  -17.8616   20.0902 N   0  0  0  0  0  0  0  0  0  0  0  0
  -21.6965  -14.0832   20.9486 N   0  0  0  0  0  0  0  0  0  0  0  0
  -23.8883  -13.1708   20.5352 N   0  0  0  0  0  0  0  0  0  0  0  0
  -29.9440  -17.1418   21.2218 N   0  0  0  0  0  0  0  0  0  0  0  0
  -26.1475  -25.5922   24.1897 N   0  0  0  0  0  0  0  0  0  0  0  0
  -28.0358  -14.0782   19.9744 N   0  0  0  0  0  0  0  0  0  0  0  0
  -30.2738  -17.2586   23.5645 N   0  0  0  0  0  0  0  0  0  0  0  0
  -31.4077  -21.3934   22.1454 N   0  0  0  0  0  0  0  0  0  0  0  0
  -25.7648  -14.6006   20.3378 N   0  0  0  0  0  0  0  0  0  0  0  0
  -22.9963  -27.3273   23.5935 N   0  0  0  0  0  0  0  0  0  0  0  0
  -29.2477  -25.4312   25.5392 N   0  0  0  0  0  0  0  0  0  0  0  0
  -30.2171  -22.2036   26.8472 N   0  3  0  0  0  0  0  0  0  0  0  0
  -31.2275  -20.0419   23.9892 O   0  0  0  0  0  0  0  0  0  0  0  0
  -25.0888  -27.2664   22.5736 O   0  0  0  0  0  0  0  0  0  0  0  0
  -26.8896  -27.0235   25.8741 O   0  0  0  0  0  0  0  0  0  0  0  0
  -29.6450  -23.4550   24.3929 O   0  0  0  0  0  0  0  0  0  0  0  0
  -26.4491  -12.3999   20.0728 O   0  0  0  0  0  0  0  0  0  0  0  0
  -31.3208  -23.2066   16.8785 O   0  0  0  0  0  0  0  0  0  0  0  0
  -24.9002  -21.1620   20.0824 O   0  0  0  0  0  0  0  0  0  1  0  0
  -29.4236  -28.2086   18.2142 F   0  0  0  0  0  0  0  0  0  0  0  0
  -29.4651  -24.4923   15.2829 F   0  0  0  0  0  0  0  0  0  0  0  0
  1  2  1  0  0  0  0
  1  5  2  0  0  0  0
  2  6  2  0  0  0  0
  3  8  2  0  0  0  0
  3 15  1  0  0  0  0
  4  9  1  0  0  0  0
  4 15  2  0  0  0  0
  5 17  1  0  0  0  0
  6 19  1  0  0  0  0
  7 10  2  0  0  0  0
  7 18  1  0  0  0  0
  8 22  1  0  0  0  0
  9 22  2  0  0  0  0
 10 23  1  0  0  0  0
 11 12  2  0  0  0  0
 11 24  1  0  0  0  0
 12 25  1  0  0  0  0
 13 20  1  0  0  0  0
 13 23  2  0  0  0  0
 14 25  2  0  0  0  0
 14 26  1  0  0  0  0
 15 27  1  0  0  0  0
 16 27  1  0  0  0  0
 16 30  2  0  0  0  0
 16 32  1  0  0  0  0
 17 19  2  0  0  0  0
 17 37  1  0  0  0  0
 18 20  2  0  0  0  0
 18 38  1  0  0  0  0
 19 46  1  0  0  0  0
 20 39  1  0  0  0  0
 21 28  2  0  0  0  0
 21 29  1  0  0  0  0
 21 56  1  0  0  0  0
 22 82  1  0  0  0  0
 23 83  1  0  0  0  0
 24 26  2  0  0  0  0
 24 82  1  0  0  0  0
 25 84  1  0  0  0  0
 26 85  1  0  0  0  0
 27 65  2  0  0  0  0
 28 57  1  0  0  0  0
 28 66  1  0  0  0  0
 29 67  2  0  0  0  0
 29 73  1  0  0  0  0
 30 68  1  0  0  0  0
 30 71  1  0  0  0  0
 31 49  1  0  0  0  0
 31 66  2  0  0  0  0
 31 67  1  0  0  0  0
 32 72  1  0  0  0  0
 32 77  2  0  0  0  0
 33 47  1  0  0  0  0
 33 74  1  0  0  0  0
 33 78  2  0  0  0  0
 34 62  1  0  0  0  0
 34 69  1  0  0  0  0
 34 79  2  0  0  0  0
 35 63  1  0  0  0  0
 35 75  1  0  0  0  0
 35 80  2  0  0  0  0
 36 70  1  0  0  0  0
 36 73  1  0  0  0  0
 36 81  2  0  0  0  0
 37 40  1  0  0  0  0
 38 47  1  0  0  0  0
 39 69  1  0  0  0  0
 40 42  1  0  0  0  0
 41 43  1  0  0  0  0
 41 44  1  0  0  0  0
 42 46  1  0  0  0  0
 43 48  1  0  0  0  0
 44 70  1  0  0  0  0
 45 48  1  0  0  0  0
 45 70  1  0  0  0  0
 46 74  1  0  0  0  0
 47 69  1  0  0  0  0
 48 68  1  0  0  0  0
 50 58  1  0  0  0  0
 51 63  1  0  0  0  0
 52 64  1  0  0  0  0
 53 64  1  0  0  0  0
 54 64  1  0  0  0  0
 55 76  1  0  0  0  0
 56 59  1  0  0  0  0
 57 58  1  0  0  0  0
 59 60  1  0  0  0  0
 60 61  1  0  0  0  0
 61 83  1  0  0  0  0
 62 64  1  0  0  0  0
 62 75  1  0  0  0  0
 63 76  1  0  0  0  0
 65 68  1  0  0  0  0
M  CHG  1  76   1
M  ISO  4  36 100  61 101  73 100  83 101
M  END
> <Batch ID>
0028

> <Smiles>
CCCc1nc(C)nc([100NH:0][100C:0](=O)N2CCCC(n3nc(-c4ccc(Oc5ccc(F)cc5F)cc4)c(C(N)=O)c3N)C2)c1CCC[101CH2:1][101O:1]c1ccc2c(c1)CN(C(=O)C(NC(=O)C(C)NC)C(C)(C)C)C(C(=O)NC1CCCc3ccccc31)C2

> <Shape>
0.202

> <Color>
0.061

> <Negative vol penalty>
0.000

$$$$

  -OEChem-04052316333D

 84 92  0     1  0  0  0  0  0999 V2000
  -18.9306  -24.6764   21.2459 C   0  0  0  0  0  0  0  0  0  0  0  0
  -19.9402  -25.1772   20.4302 C   0  0  0  0  0  0  0  0  0  0  0  0
  -30.9180  -14.4147   19.3362 C   0  0  0  0  0  0  0  0  0  0  0  0
  -32.9057  -15.6571   18.7506 C   0  0  0  0  0  0  0  0  0  0  0  0
  -18.2876  -25.5173   22.1533 C   0  0  0  0  0  0  0  0  0  0  0  0
  -20.3066  -26.5196   20.5206 C   0  0  0  0  0  0  0  0  0  0  0  0
  -25.3293  -27.1635   20.5667 C   0  0  0  0  0  0  0  0  0  0  0  0
  -31.2926  -13.4002   18.4552 C   0  0  0  0  0  0  0  0  0  0  0  0
  -33.2803  -14.6426   17.8697 C   0  0  0  0  0  0  0  0  0  0  0  0
  -25.9943  -27.0718   19.3447 C   0  0  0  0  0  0  0  0  0  0  0  0
  -34.7053  -11.5840   18.0566 C   0  0  0  0  0  0  0  0  0  0  0  0
  -36.0356  -11.1653   18.0807 C   0  0  0  0  0  0  0  0  0  0  0  0
  -26.0584  -29.4792   19.2058 C   0  0  0  0  0  0  0  0  0  0  0  0
  -32.7358  -25.6882   16.6166 C   0  0  0  0  0  0  0  0  0  0  0  0
  -30.7045  -24.7887   17.5662 C   0  0  0  0  0  0  0  0  0  0  0  0
  -36.2759  -11.7952   15.7606 C   0  0  0  0  0  0  0  0  0  0  0  0
  -31.7246  -15.5432   19.4839 C   0  0  0  0  0  0  0  0  0  0  0  0
  -31.6718  -16.7006   21.7566 C   0  0  0  0  0  0  0  0  0  0  0  0
  -18.6530  -26.8684   22.2617 C   0  0  0  0  0  0  0  0  0  0  0  0
  -25.0137  -28.4158   21.1131 C   0  0  0  0  0  0  0  0  0  0  0  0
  -19.6670  -27.3797   21.4294 C   0  0  0  0  0  0  0  0  0  0  0  0
  -25.3917  -29.5841   20.4361 C   0  0  0  0  0  0  0  0  0  0  0  0
  -31.3476  -25.7182   16.7488 C   0  0  0  0  0  0  0  0  0  0  0  0
  -33.4810  -24.7286   17.3019 C   0  0  0  0  0  0  0  0  0  0  0  0
  -31.4497  -23.8291   18.2515 C   0  0  0  0  0  0  0  0  0  0  0  0
  -32.4737  -13.5141   17.7220 C   0  0  0  0  0  0  0  0  0  0  0  0
  -26.3563  -28.2297   18.6627 C   0  0  0  0  0  0  0  0  0  0  0  0
  -34.1602  -12.1083   16.8845 C   0  0  0  0  0  0  0  0  0  0  0  0
  -36.8209  -11.2709   16.9327 C   0  0  0  0  0  0  0  0  0  0  0  0
  -34.9455  -12.2139   15.7366 C   0  0  0  0  0  0  0  0  0  0  0  0
  -32.8380  -23.7991   18.1193 C   0  0  0  0  0  0  0  0  0  0  0  0
  -31.3379  -16.5918   20.3933 C   0  0  0  0  0  0  0  0  0  0  0  0
  -31.0667  -17.8635   22.1665 C   0  0  0  0  0  0  0  0  0  0  0  0
  -32.4586  -15.8285   22.5789 C   0  0  0  0  0  0  0  0  0  0  0  0
  -22.3165  -29.9169   21.8716 C   0  0  0  0  0  0  0  0  0  0  0  0
  -24.3492  -32.1300   23.0932 C   0  0  0  0  0  0  0  0  0  0  0  0
  -27.4616  -33.5299   23.0713 C   0  0  0  0  0  0  0  0  0  0  0  0
  -29.3864  -22.8244   19.2905 C   0  0  0  0  0  0  0  0  0  0  0  0
  -17.8969  -27.7499   23.2240 C   0  0  0  0  0  0  0  0  0  0  0  0
  -24.3199  -28.4979   22.4451 C   0  0  0  0  0  0  0  0  0  0  0  0
  -25.0941  -30.9529   20.9896 C   0  0  0  0  0  0  0  0  0  0  0  0
  -18.6012  -29.0712   23.5217 C   0  0  0  0  0  0  0  0  0  0  0  0
  -27.3033  -20.6659   21.2085 C   0  0  0  0  0  0  0  0  0  0  0  0
  -19.0893  -29.7188   22.2298 C   0  0  0  0  0  0  0  0  0  0  0  0
  -28.1344  -19.3883   21.3464 C   0  0  0  0  0  0  0  0  0  0  0  0
  -27.4881  -21.3177   19.8393 C   0  0  0  0  0  0  0  0  0  0  0  0
  -29.7139  -20.2911   19.5922 C   0  0  0  0  0  0  0  0  0  0  0  0
  -20.1097  -28.8242   21.5155 C   0  0  1  0  0  0  0  0  0  0  0  0
  -23.5925  -29.8217   22.6593 C   0  0  1  0  0  0  0  0  0  0  0  0
  -29.6108  -19.6339   20.9782 C   0  0  2  0  0  0  0  0  0  0  0  0
  -34.9662  -24.7343   17.1294 C   0  0  0  0  0  0  0  0  0  0  0  0
  -28.8123  -35.3461   24.1549 C   0  0  0  0  0  0  0  0  0  0  0  0
  -29.9722  -29.8055   15.8233 C   0  0  0  0  0  0  0  0  0  0  0  0
  -22.8919  -34.2155   21.4089 C   0  0  0  0  0  0  0  0  0  0  0  0
  -24.8243  -35.7637   21.7795 C   0  0  0  0  0  0  0  0  0  0  0  0
  -23.4772  -34.9660   23.7216 C   0  0  0  0  0  0  0  0  0  0  0  0
  -29.4174  -31.5898   24.1527 C   0  0  0  0  0  0  0  0  0  0  0  0
  -30.5467  -26.7512   16.0122 C   0  0  0  0  0  0  0  0  0  0  0  0
  -27.9001  -29.2038   17.1382 C   0  0  0  0  0  0  0  0  0  1  0  0
  -25.0413  -33.3588   22.5544 C   0  0  1  0  0  0  0  0  0  0  0  0
  -28.4174  -33.8781   24.1981 C   0  0  2  0  0  0  0  0  0  0  0  0
  -29.0001  -28.7026   16.2093 C   0  0  2  0  0  0  0  0  0  0  0  0
  -24.0627  -34.5504   22.3545 C   0  0  0  0  0  0  0  0  0  0  0  0
  -30.5795  -17.6046   19.9657 N   0  0  0  0  0  0  0  0  0  0  0  0
  -30.4317  -18.3610   21.0668 N   0  0  0  0  0  0  0  0  0  0  0  0
  -24.4084  -30.9808   22.2921 N   0  0  0  0  0  0  0  0  0  0  0  0
  -28.9110  -21.5237   19.5607 N   0  0  0  0  0  0  0  0  0  0  0  0
  -31.0211  -18.4988   23.3568 N   0  0  0  0  0  0  0  0  0  0  0  0
  -33.0065  -14.6767   21.9980 N   0  0  0  0  0  0  0  0  0  0  0  0
  -30.7616  -22.9019   19.0728 N   0  0  0  0  0  0  0  0  0  0  0  0
  -21.4030  -28.9203   22.1577 N   0  0  0  0  0  0  0  0  0  0  0  0
  -26.1450  -33.6386   23.4664 N   0  0  0  0  0  0  0  0  0  0  0  0
  -29.6559  -33.0551   24.0996 N   0  3  0  0  0  0  0  0  0  0  0  0
  -29.7652  -27.6342   16.9150 N   0  3  0  0  0  0  0  0  0  0  0  0
  -32.6558  -16.0552   23.7968 O   0  0  0  0  0  0  0  0  0  0  0  0
  -22.1709  -30.8280   21.0651 O   0  0  0  0  0  0  0  0  0  0  0  0
  -23.7833  -32.1858   24.1878 O   0  0  0  0  0  0  0  0  0  0  0  0
  -27.8445  -33.1986   21.9514 O   0  0  0  0  0  0  0  0  0  0  0  0
  -28.6336  -23.8017   19.2817 O   0  0  0  0  0  0  0  0  0  0  0  0
  -32.8396  -12.5243   16.8624 O   0  0  0  0  0  0  0  0  0  0  0  0
  -27.0048  -28.1430   17.4694 O   0  0  0  0  0  0  0  0  0  1  0  0
  -38.0988  -10.8702   16.9564 F   0  0  0  0  0  0  0  0  0  0  0  0
  -34.4278  -12.7179   14.6079 F   0  0  0  0  0  0  0  0  0  0  0  0
  -33.7698  -22.6087   18.9678 Cl  0  0  0  0  0  0  0  0  0  0  0  0
  1  2  1  0  0  0  0
  1  5  2  0  0  0  0
  2  6  2  0  0  0  0
  3  8  2  0  0  0  0
  3 17  1  0  0  0  0
  4  9  1  0  0  0  0
  4 17  2  0  0  0  0
  5 19  1  0  0  0  0
  6 21  1  0  0  0  0
  7 10  2  0  0  0  0
  7 20  1  0  0  0  0
  8 26  1  0  0  0  0
  9 26  2  0  0  0  0
 10 27  1  0  0  0  0
 11 12  2  0  0  0  0
 11 28  1  0  0  0  0
 12 29  1  0  0  0  0
 13 22  1  0  0  0  0
 13 27  2  0  0  0  0
 14 23  1  0  0  0  0
 14 24  2  0  0  0  0
 15 23  2  0  0  0  0
 15 25  1  0  0  0  0
 16 29  2  0  0  0  0
 16 30  1  0  0  0  0
 17 32  1  0  0  0  0
 18 32  1  0  0  0  0
 18 33  2  0  0  0  0
 18 34  1  0  0  0  0
 19 21  2  0  0  0  0
 19 39  1  0  0  0  0
 20 22  2  0  0  0  0
 20 40  1  0  0  0  0
 21 48  1  0  0  0  0
 22 41  1  0  0  0  0
 23 58  1  0  0  0  0
 24 31  1  0  0  0  0
 24 51  1  0  0  0  0
 25 31  2  0  0  0  0
 25 70  1  0  0  0  0
 26 80  1  0  0  0  0
 27 81  1  0  0  0  0
 28 30  2  0  0  0  0
 28 80  1  0  0  0  0
 29 82  1  0  0  0  0
 30 83  1  0  0  0  0
 31 84  1  0  0  0  0
 32 64  2  0  0  0  0
 33 65  1  0  0  0  0
 33 68  1  0  0  0  0
 34 69  1  0  0  0  0
 34 75  2  0  0  0  0
 35 49  1  0  0  0  0
 35 71  1  0  0  0  0
 35 76  2  0  0  0  0
 36 60  1  0  0  0  0
 36 66  1  0  0  0  0
 36 77  2  0  0  0  0
 37 61  1  0  0  0  0
 37 72  1  0  0  0  0
 37 78  2  0  0  0  0
 38 67  1  0  0  0  0
 38 70  1  0  0  0  0
 38 79  2  0  0  0  0
 39 42  1  0  0  0  0
 40 49  1  0  0  0  0
 41 66  1  0  0  0  0
 42 44  1  0  0  0  0
 43 45  1  0  0  0  0
 43 46  1  0  0  0  0
 44 48  1  0  0  0  0
 45 50  1  0  0  0  0
 46 67  1  0  0  0  0
 47 50  1  0  0  0  0
 47 67  1  0  0  0  0
 48 71  1  0  0  0  0
 49 66  1  0  0  0  0
 50 65  1  0  0  0  0
 52 61  1  0  0  0  0
 53 62  1  0  0  0  0
 54 63  1  0  0  0  0
 55 63  1  0  0  0  0
 56 63  1  0  0  0  0
 57 73  1  0  0  0  0
 58 74  1  0  0  0  0
 59 62  1  0  0  0  0
 59 81  1  0  0  0  0
 60 63  1  0  0  0  0
 60 72  1  0  0  0  0
 61 73  1  0  0  0  0
 62 74  1  0  0  0  0
 64 65  1  0  0  0  0
M  CHG  2  73   1  74   1
M  ISO  4  38 100  59 101  70 100  81 101
M  END
> <Batch ID>
0028

> <Smiles>
CNC(C)C(=O)NC(C(=O)N1Cc2cc([101O:1][101CH2:1]C(C)NCc3cc(C)c(Cl)c([100NH:0][100C:0](=O)N4CCCC(n5nc(-c6ccc(Oc7ccc(F)cc7F)cc6)c(C(N)=O)c5N)C4)c3)ccc2CC1C(=O)NC1CCCc2ccccc21)C(C)(C)C

> <Shape>
0.240

> <Color>
0.104

> <Negative vol penalty>
0.000

$$$$

  -OEChem-04052316333D

 83 91  0     1  0  0  0  0  0999 V2000
  -22.8316  -31.0067   29.6747 C   0  0  0  0  0  0  0  0  0  0  0  0
  -23.3102  -29.7617   29.2790 C   0  0  0  0  0  0  0  0  0  0  0  0
  -23.1689   -9.7906   19.9879 C   0  0  0  0  0  0  0  0  0  0  0  0
  -23.8141   -9.9687   22.3094 C   0  0  0  0  0  0  0  0  0  0  0  0
  -22.3059  -31.8836   28.7268 C   0  0  0  0  0  0  0  0  0  0  0  0
  -23.2623  -29.3925   27.9352 C   0  0  0  0  0  0  0  0  0  0  0  0
  -27.3350  -25.9595   24.9130 C   0  0  0  0  0  0  0  0  0  0  0  0
  -22.4513   -8.6298   20.2764 C   0  0  0  0  0  0  0  0  0  0  0  0
  -23.0964   -8.8079   22.5979 C   0  0  0  0  0  0  0  0  0  0  0  0
  -27.3523  -24.6081   24.5708 C   0  0  0  0  0  0  0  0  0  0  0  0
  -19.8700   -7.9356   23.0976 C   0  0  0  0  0  0  0  0  0  0  0  0
  -19.0579   -7.9426   24.2316 C   0  0  0  0  0  0  0  0  0  0  0  0
  -26.4693  -25.1544   22.3934 C   0  0  0  0  0  0  0  0  0  0  0  0
  -27.2528  -18.0298   22.4349 C   0  0  0  0  0  0  0  0  0  0  0  0
  -20.3235   -6.1005   25.1493 C   0  0  0  0  0  0  0  0  0  0  0  0
  -23.8503  -10.4601   21.0044 C   0  0  0  0  0  0  0  0  0  0  0  0
  -24.1158  -12.9832   20.7380 C   0  0  0  0  0  0  0  0  0  0  0  0
  -22.2604  -31.5288   27.3693 C   0  0  0  0  0  0  0  0  0  0  0  0
  -26.8736  -26.9190   24.0003 C   0  0  0  0  0  0  0  0  0  0  0  0
  -22.7342  -30.2650   26.9684 C   0  0  0  0  0  0  0  0  0  0  0  0
  -26.4495  -26.5176   22.7255 C   0  0  0  0  0  0  0  0  0  0  0  0
  -28.0406  -18.9687   21.7783 C   0  0  0  0  0  0  0  0  0  0  0  0
  -28.1077  -20.2710   22.2608 C   0  0  0  0  0  0  0  0  0  0  0  0
  -22.4151   -8.1385   21.5813 C   0  0  0  0  0  0  0  0  0  0  0  0
  -26.9168  -24.2050   23.3119 C   0  0  0  0  0  0  0  0  0  0  0  0
  -20.9088   -7.0111   22.9893 C   0  0  0  0  0  0  0  0  0  0  0  0
  -19.2846   -7.0251   25.2574 C   0  0  0  0  0  0  0  0  0  0  0  0
  -21.1356   -6.0936   24.0152 C   0  0  0  0  0  0  0  0  0  0  0  0
  -24.5923  -11.6589   20.7070 C   0  0  0  0  0  0  0  0  0  0  0  0
  -27.3739  -20.5813   23.3944 C   0  0  0  0  0  0  0  0  0  0  0  0
  -26.5574  -18.4403   23.5608 C   0  0  0  0  0  0  0  0  0  0  0  0
  -25.1997  -13.7466   20.3791 C   0  0  0  0  0  0  0  0  0  0  0  0
  -22.8101  -13.4790   21.0623 C   0  0  0  0  0  0  0  0  0  0  0  0
  -24.4820  -29.0124   23.9635 C   0  0  0  0  0  0  0  0  0  0  0  0
  -25.8901  -29.9831   21.2072 C   0  0  0  0  0  0  0  0  0  0  0  0
  -27.9043  -29.2235   18.5590 C   0  0  0  0  0  0  0  0  0  0  0  0
  -30.6316  -14.9692   20.7599 C   0  0  0  0  0  0  0  0  0  0  0  0
  -21.6398  -32.4912   26.3879 C   0  0  0  0  0  0  0  0  0  0  0  0
  -26.8863  -28.3756   24.3752 C   0  0  0  0  0  0  0  0  0  0  0  0
  -25.9640  -27.5103   21.7022 C   0  0  0  0  0  0  0  0  0  0  0  0
  -21.9691  -32.1731   24.9316 C   0  0  0  0  0  0  0  0  0  0  0  0
  -29.6910  -12.4005   18.4809 C   0  0  0  0  0  0  0  0  0  0  0  0
  -21.7789  -30.6853   24.6540 C   0  0  0  0  0  0  0  0  0  0  0  0
  -28.2442  -12.0838   18.8636 C   0  0  0  0  0  0  0  0  0  0  0  0
  -30.5401  -12.7288   19.7070 C   0  0  0  0  0  0  0  0  0  0  0  0
  -28.5495  -13.4777   20.9522 C   0  0  0  0  0  0  0  0  0  0  0  0
  -22.7222  -29.8381   25.5166 C   0  0  1  0  0  0  0  0  0  0  0  0
  -25.9130  -29.2131   23.5516 C   0  0  1  0  0  0  0  0  0  0  0  0
  -27.6408  -13.1950   19.7437 C   0  0  2  0  0  0  0  0  0  0  0  0
  -28.9431  -21.3001   21.5757 C   0  0  0  0  0  0  0  0  0  0  0  0
  -28.8387  -30.2084   16.4486 C   0  0  0  0  0  0  0  0  0  0  0  0
  -23.1825  -29.6287   19.8459 C   0  0  0  0  0  0  0  0  0  0  0  0
  -24.3622  -29.6922   17.6385 C   0  0  0  0  0  0  0  0  0  0  0  0
  -24.4401  -31.6752   19.1498 C   0  0  0  0  0  0  0  0  0  0  0  0
  -30.6900  -28.9034   19.5056 C   0  0  0  0  0  0  0  0  0  0  0  0
  -28.8026  -18.5567   20.5623 C   0  0  0  0  0  0  0  0  0  0  0  0
  -27.4070  -21.9703   23.9610 C   0  0  0  0  0  0  0  0  0  1  0  0
  -30.2967  -18.2751   20.8126 C   0  0  0  0  0  0  0  0  0  0  0  0
  -30.5666  -17.1943   21.8572 C   0  0  0  0  0  0  0  0  0  0  0  0
  -25.7625  -29.6059   19.7510 C   0  0  1  0  0  0  0  0  0  0  0  0
  -29.0687  -29.9693   17.9327 C   0  0  2  0  0  0  0  0  0  0  0  0
  -24.4441  -30.1314   19.1160 C   0  0  0  0  0  0  0  0  0  0  0  0
  -25.8787  -11.5818   20.3559 N   0  0  0  0  0  0  0  0  0  0  0  0
  -26.5977  -19.6964   24.0592 N   0  0  0  0  0  0  0  0  0  0  0  0
  -26.2197  -12.8674   20.1630 N   0  0  0  0  0  0  0  0  0  0  0  0
  -25.9895  -28.9222   22.1185 N   0  0  0  0  0  0  0  0  0  0  0  0
  -29.9134  -13.7908   20.4978 N   0  0  0  0  0  0  0  0  0  0  0  0
  -25.3702  -15.0774   20.2303 N   0  0  0  0  0  0  0  0  0  0  0  0
  -21.8127  -12.5575   21.4094 N   0  0  0  0  0  0  0  0  0  0  0  0
  -24.0624  -29.8601   24.9710 N   0  0  0  0  0  0  0  0  0  0  0  0
  -26.9742  -30.0878   19.0968 N   0  0  0  0  0  0  0  0  0  0  0  0
  -29.9618  -15.9273   21.5110 N   0  0  0  0  0  0  0  0  0  0  0  0
  -30.3292  -29.1905   18.0934 N   0  3  0  0  0  0  0  0  0  0  0  0
  -22.5316  -14.7016   21.0289 O   0  0  0  0  0  0  0  0  0  0  0  0
  -23.8080  -28.1533   23.4075 O   0  0  0  0  0  0  0  0  0  0  0  0
  -25.9082  -31.1752   21.5237 O   0  0  0  0  0  0  0  0  0  0  0  0
  -27.8256  -27.9970   18.5669 O   0  0  0  0  0  0  0  0  0  0  0  0
  -31.7823  -15.1560   20.3500 O   0  0  0  0  0  0  0  0  0  0  0  0
  -21.7147   -7.0059   21.8632 O   0  0  0  0  0  0  0  0  0  0  0  0
  -26.9321  -22.8865   22.9755 O   0  0  0  0  0  0  0  0  0  1  0  0
  -18.5056   -7.0329   26.3470 F   0  0  0  0  0  0  0  0  0  0  0  0
  -22.1328   -5.2037   23.9174 F   0  0  0  0  0  0  0  0  0  0  0  0
  -25.5581  -17.3519   24.4330 Cl  0  0  0  0  0  0  0  0  0  0  0  0
  1  2  1  0  0  0  0
  1  5  2  0  0  0  0
  2  6  2  0  0  0  0
  3  8  2  0  0  0  0
  3 16  1  0  0  0  0
  4  9  1  0  0  0  0
  4 16  2  0  0  0  0
  5 18  1  0  0  0  0
  6 20  1  0  0  0  0
  7 10  2  0  0  0  0
  7 19  1  0  0  0  0
  8 24  1  0  0  0  0
  9 24  2  0  0  0  0
 10 25  1  0  0  0  0
 11 12  2  0  0  0  0
 11 26  1  0  0  0  0
 12 27  1  0  0  0  0
 13 21  1  0  0  0  0
 13 25  2  0  0  0  0
 14 22  2  0  0  0  0
 14 31  1  0  0  0  0
 15 27  2  0  0  0  0
 15 28  1  0  0  0  0
 16 29  1  0  0  0  0
 17 29  1  0  0  0  0
 17 32  2  0  0  0  0
 17 33  1  0  0  0  0
 18 20  2  0  0  0  0
 18 38  1  0  0  0  0
 19 21  2  0  0  0  0
 19 39  1  0  0  0  0
 20 47  1  0  0  0  0
 21 40  1  0  0  0  0
 22 23  1  0  0  0  0
 22 56  1  0  0  0  0
 23 30  2  0  0  0  0
 23 50  1  0  0  0  0
 24 79  1  0  0  0  0
 25 80  1  0  0  0  0
 26 28  2  0  0  0  0
 26 79  1  0  0  0  0
 27 81  1  0  0  0  0
 28 82  1  0  0  0  0
 29 63  2  0  0  0  0
 30 57  1  0  0  0  0
 30 64  1  0  0  0  0
 31 64  2  0  0  0  0
 31 83  1  0  0  0  0
 32 65  1  0  0  0  0
 32 68  1  0  0  0  0
 33 69  1  0  0  0  0
 33 74  2  0  0  0  0
 34 48  1  0  0  0  0
 34 70  1  0  0  0  0
 34 75  2  0  0  0  0
 35 60  1  0  0  0  0
 35 66  1  0  0  0  0
 35 76  2  0  0  0  0
 36 61  1  0  0  0  0
 36 71  1  0  0  0  0
 36 77  2  0  0  0  0
 37 67  1  0  0  0  0
 37 72  1  0  0  0  0
 37 78  2  0  0  0  0
 38 41  1  0  0  0  0
 39 48  1  0  0  0  0
 40 66  1  0  0  0  0
 41 43  1  0  0  0  0
 42 44  1  0  0  0  0
 42 45  1  0  0  0  0
 43 47  1  0  0  0  0
 44 49  1  0  0  0  0
 45 67  1  0  0  0  0
 46 49  1  0  0  0  0
 46 67  1  0  0  0  0
 47 70  1  0  0  0  0
 48 66  1  0  0  0  0
 49 65  1  0  0  0  0
 51 61  1  0  0  0  0
 52 62  1  0  0  0  0
 53 62  1  0  0  0  0
 54 62  1  0  0  0  0
 55 73  1  0  0  0  0
 56 58  1  0  0  0  0
 57 80  1  0  0  0  0
 58 59  1  0  0  0  0
 59 72  1  0  0  0  0
 60 62  1  0  0  0  0
 60 71  1  0  0  0  0
 61 73  1  0  0  0  0
 63 65  1  0  0  0  0
M  CHG  1  73   1
M  ISO  4  37 100  57 101  72 100  80 101
M  END
> <Batch ID>
0028

> <Smiles>
CNC(C)C(=O)NC(C(=O)N1Cc2cc([101O:1][101CH2:1]c3nc(Cl)cc(CCC[100NH:0][100C:0](=O)N4CCCC(n5nc(-c6ccc(Oc7ccc(F)cc7F)cc6)c(C(N)=O)c5N)C4)c3C)ccc2CC1C(=O)NC1CCCc2ccccc21)C(C)(C)C

> <Shape>
0.250

> <Color>
0.204

> <Negative vol penalty>
0.000

$$$$

  -OEChem-04052316333D

 85 93  0     1  0  0  0  0  0999 V2000
  -17.1616  -22.8937   19.3860 C   0  0  0  0  0  0  0  0  0  0  0  0
  -17.8276  -21.6980   19.6356 C   0  0  0  0  0  0  0  0  0  0  0  0
  -27.8063  -23.3596   20.8136 C   0  0  0  0  0  0  0  0  0  0  0  0
  -28.6608  -23.1948   18.5598 C   0  0  0  0  0  0  0  0  0  0  0  0
  -17.7177  -24.1010   19.8067 C   0  0  0  0  0  0  0  0  0  0  0  0
  -19.0507  -21.7091   20.3052 C   0  0  0  0  0  0  0  0  0  0  0  0
  -19.3387  -18.1374   23.8836 C   0  0  0  0  0  0  0  0  0  0  0  0
  -27.8259  -24.7511   20.7192 C   0  0  0  0  0  0  0  0  0  0  0  0
  -28.6804  -24.5863   18.4654 C   0  0  0  0  0  0  0  0  0  0  0  0
  -19.5897  -16.8325   23.4619 C   0  0  0  0  0  0  0  0  0  0  0  0
  -25.9222  -27.1812   19.3395 C   0  0  0  0  0  0  0  0  0  0  0  0
  -24.8048  -27.8779   19.7994 C   0  0  0  0  0  0  0  0  0  0  0  0
  -21.9129  -17.0934   24.0567 C   0  0  0  0  0  0  0  0  0  0  0  0
  -25.5521  -13.6692   19.5625 C   0  0  0  0  0  0  0  0  0  0  0  0
  -24.3797  -12.1255   21.5686 C   0  0  0  0  0  0  0  0  0  0  0  0
  -26.1893  -29.0406   21.4020 C   0  0  0  0  0  0  0  0  0  0  0  0
  -28.2239  -22.5814   19.7339 C   0  0  0  0  0  0  0  0  0  0  0  0
  -27.1435  -20.2833   19.4914 C   0  0  0  0  0  0  0  0  0  0  0  0
  -18.9435  -24.1261   20.4904 C   0  0  0  0  0  0  0  0  0  0  0  0
  -20.3770  -18.9352   24.3857 C   0  0  0  0  0  0  0  0  0  0  0  0
  -19.6243  -22.9180   20.7343 C   0  0  0  0  0  0  0  0  0  0  0  0
  -21.6720  -18.4073   24.4865 C   0  0  0  0  0  0  0  0  0  0  0  0
  -24.3004  -14.0183   20.0692 C   0  0  0  0  0  0  0  0  0  0  0  0
  -23.7141  -13.2464   21.0723 C   0  0  0  0  0  0  0  0  0  0  0  0
  -26.2177  -12.5483   20.0587 C   0  0  0  0  0  0  0  0  0  0  0  0
  -28.2629  -25.3645   19.5451 C   0  0  0  0  0  0  0  0  0  0  0  0
  -20.8774  -16.3112   23.5457 C   0  0  0  0  0  0  0  0  0  0  0  0
  -27.1732  -27.4142   19.9109 C   0  0  0  0  0  0  0  0  0  0  0  0
  -24.9383  -28.8076   20.8306 C   0  0  0  0  0  0  0  0  0  0  0  0
  -25.6314  -11.7764   21.0618 C   0  0  0  0  0  0  0  0  0  0  0  0
  -27.3067  -28.3439   20.9421 C   0  0  0  0  0  0  0  0  0  0  0  0
  -28.2045  -21.1440   19.8309 C   0  0  0  0  0  0  0  0  0  0  0  0
  -27.6216  -19.0248   19.7638 C   0  0  0  0  0  0  0  0  0  0  0  0
  -25.8421  -20.5936   18.9758 C   0  0  0  0  0  0  0  0  0  0  0  0
  -21.7317  -21.6714   23.5016 C   0  0  0  0  0  0  0  0  0  0  0  0
  -23.3279  -21.3360   26.3055 C   0  0  0  0  0  0  0  0  0  0  0  0
  -24.4717  -19.2558   28.7573 C   0  0  0  0  0  0  0  0  0  0  0  0
  -31.6894  -15.2105   19.5413 C   0  0  0  0  0  0  0  0  0  0  0  0
  -19.5280  -25.4595   20.8840 C   0  0  0  0  0  0  0  0  0  0  0  0
  -20.0846  -20.3319   24.8613 C   0  0  0  0  0  0  0  0  0  0  0  0
  -22.8174  -19.2157   25.0370 C   0  0  0  0  0  0  0  0  0  0  0  0
  -20.6461  -25.3532   21.9179 C   0  0  0  0  0  0  0  0  0  0  0  0
  -31.7854  -17.5466   22.2264 C   0  0  0  0  0  0  0  0  0  0  0  0
  -21.6310  -24.2555   21.5282 C   0  0  0  0  0  0  0  0  0  0  0  0
  -30.7799  -18.6222   21.8116 C   0  0  0  0  0  0  0  0  0  0  0  0
  -32.5515  -16.9969   21.0252 C   0  0  0  0  0  0  0  0  0  0  0  0
  -30.6988  -17.5799   19.5082 C   0  0  0  0  0  0  0  0  0  0  0  0
  -20.9410  -22.8869   21.4797 C   0  0  1  0  0  0  0  0  0  0  0  0
  -21.3188  -21.2285   24.8768 C   0  0  1  0  0  0  0  0  0  0  0  0
  -29.8623  -18.1249   20.6785 C   0  0  2  0  0  0  0  0  0  0  0  0
  -23.6063  -15.2220   19.5220 C   0  0  0  0  0  0  0  0  0  0  0  0
  -25.7759  -19.2679   30.9011 C   0  0  0  0  0  0  0  0  0  0  0  0
  -25.9182  -21.6567   24.7251 C   0  0  0  0  0  0  0  0  0  0  0  0
  -27.1534  -20.7288   26.6952 C   0  0  0  0  0  0  0  0  0  0  0  0
  -25.8774  -22.8608   26.9166 C   0  0  0  0  0  0  0  0  0  0  0  0
  -22.1756  -18.1970   30.2955 C   0  0  0  0  0  0  0  0  0  0  0  0
  -22.3594  -13.6028   21.6345 C   0  0  0  0  0  0  0  0  0  0  0  0
  -29.7621  -12.6130   18.7821 C   0  0  0  0  0  0  0  0  0  0  0  0
  -28.3228  -13.1227   18.8487 C   0  0  0  0  0  0  0  0  0  0  0  0
  -30.7096  -13.5249   18.0057 C   0  0  0  0  0  0  0  0  0  0  0  0
  -22.4282  -14.7630   22.6215 C   0  0  0  0  0  0  0  0  0  1  0  0
  -24.6182  -20.6765   26.7289 C   0  0  1  0  0  0  0  0  0  0  0  0
  -24.3941  -19.3444   30.2708 C   0  0  2  0  0  0  0  0  0  0  0  0
  -25.8708  -21.4659   26.2542 C   0  0  0  0  0  0  0  0  0  0  0  0
  -29.2758  -20.4878   20.2845 N   0  0  0  0  0  0  0  0  0  0  0  0
  -28.8904  -19.2014   20.2320 N   0  0  0  0  0  0  0  0  0  0  0  0
  -22.4823  -20.5782   25.4831 N   0  0  0  0  0  0  0  0  0  0  0  0
  -31.6234  -16.5407   19.9877 N   0  0  0  0  0  0  0  0  0  0  0  0
  -27.0763  -17.7955   19.6462 N   0  0  0  0  0  0  0  0  0  0  0  0
  -25.5144  -21.9381   18.7540 N   0  0  0  0  0  0  0  0  0  0  0  0
  -27.4837  -12.1975   19.5453 N   0  0  0  0  0  0  0  0  0  0  0  0
  -20.7536  -22.3677   22.8175 N   0  0  0  0  0  0  0  0  0  0  0  0
  -24.5332  -20.5042   28.1751 N   0  0  0  0  0  0  0  0  0  0  0  0
  -30.7699  -14.8587   18.5607 N   0  0  0  0  0  0  0  0  0  0  0  0
  -23.5677  -18.2291   30.8132 N   0  3  0  0  0  0  0  0  0  0  0  0
  -24.9891  -19.7060   18.7348 O   0  0  0  0  0  0  0  0  0  0  0  0
  -22.8550  -21.4028   23.0922 O   0  0  0  0  0  0  0  0  0  0  0  0
  -23.0763  -22.4787   26.6961 O   0  0  0  0  0  0  0  0  0  0  0  0
  -24.4809  -18.1860   28.1523 O   0  0  0  0  0  0  0  0  0  0  0  0
  -32.5036  -14.3952   19.9877 O   0  0  0  0  0  0  0  0  0  0  0  0
  -28.2818  -26.7223   19.4526 O   0  0  0  0  0  0  0  0  0  0  0  0
  -21.1252  -15.0379   23.1342 O   0  0  0  0  0  0  0  0  0  1  0  0
  -23.8654  -29.4777   21.2711 F   0  0  0  0  0  0  0  0  0  0  0  0
  -26.2624  -10.6974   21.5462 F   0  0  0  0  0  0  0  0  0  0  0  0
  -28.5062  -28.5729   21.4942 F   0  0  0  0  0  0  0  0  0  0  0  0
  1  2  1  0  0  0  0
  1  5  2  0  0  0  0
  2  6  2  0  0  0  0
  3  8  2  0  0  0  0
  3 17  1  0  0  0  0
  4  9  1  0  0  0  0
  4 17  2  0  0  0  0
  5 19  1  0  0  0  0
  6 21  1  0  0  0  0
  7 10  2  0  0  0  0
  7 20  1  0  0  0  0
  8 26  1  0  0  0  0
  9 26  2  0  0  0  0
 10 27  1  0  0  0  0
 11 12  2  0  0  0  0
 11 28  1  0  0  0  0
 12 29  1  0  0  0  0
 13 22  1  0  0  0  0
 13 27  2  0  0  0  0
 14 23  1  0  0  0  0
 14 25  2  0  0  0  0
 15 24  1  0  0  0  0
 15 30  2  0  0  0  0
 16 29  2  0  0  0  0
 16 31  1  0  0  0  0
 17 32  1  0  0  0  0
 18 32  1  0  0  0  0
 18 33  2  0  0  0  0
 18 34  1  0  0  0  0
 19 21  2  0  0  0  0
 19 39  1  0  0  0  0
 20 22  2  0  0  0  0
 20 40  1  0  0  0  0
 21 48  1  0  0  0  0
 22 41  1  0  0  0  0
 23 24  2  0  0  0  0
 23 51  1  0  0  0  0
 24 57  1  0  0  0  0
 25 30  1  0  0  0  0
 25 71  1  0  0  0  0
 26 81  1  0  0  0  0
 27 82  1  0  0  0  0
 28 31  2  0  0  0  0
 28 81  1  0  0  0  0
 29 83  1  0  0  0  0
 30 84  1  0  0  0  0
 31 85  1  0  0  0  0
 32 65  2  0  0  0  0
 33 66  1  0  0  0  0
 33 69  1  0  0  0  0
 34 70  1  0  0  0  0
 34 76  2  0  0  0  0
 35 49  1  0  0  0  0
 35 72  1  0  0  0  0
 35 77  2  0  0  0  0
 36 62  1  0  0  0  0
 36 67  1  0  0  0  0
 36 78  2  0  0  0  0
 37 63  1  0  0  0  0
 37 73  1  0  0  0  0
 37 79  2  0  0  0  0
 38 68  1  0  0  0  0
 38 74  1  0  0  0  0
 38 80  2  0  0  0  0
 39 42  1  0  0  0  0
 40 49  1  0  0  0  0
 41 67  1  0  0  0  0
 42 44  1  0  0  0  0
 43 45  1  0  0  0  0
 43 46  1  0  0  0  0
 44 48  1  0  0  0  0
 45 50  1  0  0  0  0
 46 68  1  0  0  0  0
 47 50  1  0  0  0  0
 47 68  1  0  0  0  0
 48 72  1  0  0  0  0
 49 67  1  0  0  0  0
 50 66  1  0  0  0  0
 52 63  1  0  0  0  0
 53 64  1  0  0  0  0
 54 64  1  0  0  0  0
 55 64  1  0  0  0  0
 56 75  1  0  0  0  0
 57 61  1  0  0  0  0
 58 59  1  0  0  0  0
 58 60  1  0  0  0  0
 59 71  1  0  0  0  0
 60 74  1  0  0  0  0
 61 82  1  0  0  0  0
 62 64  1  0  0  0  0
 62 73  1  0  0  0  0
 63 75  1  0  0  0  0
 65 66  1  0  0  0  0
M  CHG  1  75   1
M  ISO  4  38 100  61 101  74 100  82 101
M  END
> <Batch ID>
0028

> <Smiles>
CNC(C)C(=O)NC(C(=O)N1Cc2cc([101O:1][101CH2:1]Cc3cc(F)c(NCCC[100NH:0][100C:0](=O)N4CCCC(n5nc(-c6ccc(Oc7ccc(F)cc7F)cc6)c(C(N)=O)c5N)C4)cc3C)ccc2CC1C(=O)NC1CCCc2ccccc21)C(C)(C)C

> <Shape>
0.195

> <Color>
0.077

> <Negative vol penalty>
0.000

$$$$

  -OEChem-04052316333D

 83 91  0     1  0  0  0  0  0999 V2000
  -21.4997  -33.2296   18.7899 C   0  0  0  0  0  0  0  0  0  0  0  0
  -22.6717  -32.5195   19.0298 C   0  0  0  0  0  0  0  0  0  0  0  0
  -26.1012  -14.9038   22.6083 C   0  0  0  0  0  0  0  0  0  0  0  0
  -25.6181  -14.4071   20.2938 C   0  0  0  0  0  0  0  0  0  0  0  0
  -20.4506  -33.1710   19.7063 C   0  0  0  0  0  0  0  0  0  0  0  0
  -22.7957  -31.7511   20.1868 C   0  0  0  0  0  0  0  0  0  0  0  0
  -24.7820  -27.1818   19.2808 C   0  0  0  0  0  0  0  0  0  0  0  0
  -25.2073  -13.9105   23.0081 C   0  0  0  0  0  0  0  0  0  0  0  0
  -24.7242  -13.4138   20.6935 C   0  0  0  0  0  0  0  0  0  0  0  0
  -26.1622  -27.1128   19.0958 C   0  0  0  0  0  0  0  0  0  0  0  0
  -24.8795  -10.2279   21.8100 C   0  0  0  0  0  0  0  0  0  0  0  0
  -24.9387   -9.0008   21.1495 C   0  0  0  0  0  0  0  0  0  0  0  0
  -26.4243  -26.3666   21.3748 C   0  0  0  0  0  0  0  0  0  0  0  0
  -30.7500  -25.6390   18.2360 C   0  0  0  0  0  0  0  0  0  0  0  0
  -22.6459   -9.2732   20.4381 C   0  0  0  0  0  0  0  0  0  0  0  0
  -26.3066  -15.1521   21.2511 C   0  0  0  0  0  0  0  0  0  0  0  0
  -28.6059  -16.0310   20.5816 C   0  0  0  0  0  0  0  0  0  0  0  0
  -20.5580  -32.3938   20.8704 C   0  0  0  0  0  0  0  0  0  0  0  0
  -24.2127  -26.8536   20.5196 C   0  0  0  0  0  0  0  0  0  0  0  0
  -21.7475  -31.6831   21.1203 C   0  0  0  0  0  0  0  0  0  0  0  0
  -25.0365  -26.4298   21.5722 C   0  0  0  0  0  0  0  0  0  0  0  0
  -30.9663  -24.7275   17.2086 C   0  0  0  0  0  0  0  0  0  0  0  0
  -31.2337  -23.3972   17.5119 C   0  0  0  0  0  0  0  0  0  0  0  0
  -24.5188  -13.1655   22.0507 C   0  0  0  0  0  0  0  0  0  0  0  0
  -26.9838  -26.7079   20.1437 C   0  0  0  0  0  0  0  0  0  0  0  0
  -23.7035  -10.9776   21.7848 C   0  0  0  0  0  0  0  0  0  0  0  0
  -23.8219   -8.5235   20.4635 C   0  0  0  0  0  0  0  0  0  0  0  0
  -22.5867  -10.5002   21.0988 C   0  0  0  0  0  0  0  0  0  0  0  0
  -27.2295  -16.1784   20.8375 C   0  0  0  0  0  0  0  0  0  0  0  0
  -30.8114  -25.1735   19.5396 C   0  0  0  0  0  0  0  0  0  0  0  0
  -31.2737  -23.0321   18.8479 C   0  0  0  0  0  0  0  0  0  0  0  0
  -29.0252  -17.2889   20.2233 C   0  0  0  0  0  0  0  0  0  0  0  0
  -29.4317  -14.8616   20.6607 C   0  0  0  0  0  0  0  0  0  0  0  0
  -22.5122  -28.4289   22.6946 C   0  0  0  0  0  0  0  0  0  0  0  0
  -22.3026  -25.5041   24.0817 C   0  0  0  0  0  0  0  0  0  0  0  0
  -23.6251  -22.3828   24.4752 C   0  0  0  0  0  0  0  0  0  0  0  0
  -28.3061  -22.0287   17.3661 C   0  0  0  0  0  0  0  0  0  0  0  0
  -19.4154  -32.3991   21.8549 C   0  0  0  0  0  0  0  0  0  0  0  0
  -22.7198  -26.9076   20.6950 C   0  0  0  0  0  0  0  0  0  0  0  0
  -24.4730  -26.0472   22.9155 C   0  0  0  0  0  0  0  0  0  0  0  0
  -19.4830  -31.2634   22.8726 C   0  0  0  0  0  0  0  0  0  0  0  0
  -26.6646  -21.7532   20.5136 C   0  0  0  0  0  0  0  0  0  0  0  0
  -20.8905  -31.1461   23.4490 C   0  0  0  0  0  0  0  0  0  0  0  0
  -26.7733  -20.2658   20.8539 C   0  0  0  0  0  0  0  0  0  0  0  0
  -26.4597  -21.9761   19.0168 C   0  0  0  0  0  0  0  0  0  0  0  0
  -27.5710  -19.8401   18.4914 C   0  0  0  0  0  0  0  0  0  0  0  0
  -21.9104  -30.8187   22.3517 C   0  0  1  0  0  0  0  0  0  0  0  0
  -22.2941  -27.0442   22.1536 C   0  0  1  0  0  0  0  0  0  0  0  0
  -27.8343  -19.5673   19.9823 C   0  0  2  0  0  0  0  0  0  0  0  0
  -30.9080  -25.2011   15.7936 C   0  0  0  0  0  0  0  0  0  0  0  0
  -23.7796  -19.9995   25.2456 C   0  0  0  0  0  0  0  0  0  0  0  0
  -23.3604  -26.7813   26.6429 C   0  0  0  0  0  0  0  0  0  0  0  0
  -23.8604  -24.4826   27.4999 C   0  0  0  0  0  0  0  0  0  0  0  0
  -21.5085  -25.1358   26.9855 C   0  0  0  0  0  0  0  0  0  0  0  0
  -22.1572  -21.3986   22.1013 C   0  0  0  0  0  0  0  0  0  0  0  0
  -31.4686  -22.4048   16.4218 C   0  0  0  0  0  0  0  0  0  0  0  0
  -30.5819  -26.1345   20.6808 C   0  0  0  0  0  0  0  0  0  0  0  0
  -30.1811  -21.9229   15.7437 C   0  0  0  0  0  0  0  0  0  0  0  0
  -29.1132  -26.2176   21.0823 C   0  0  0  0  0  0  0  0  0  1  0  0
  -23.1276  -24.7353   25.0854 C   0  0  1  0  0  0  0  0  0  0  0  0
  -22.9890  -21.0054   24.4234 C   0  0  2  0  0  0  0  0  0  0  0  0
  -22.9753  -25.2928   26.5288 C   0  0  0  0  0  0  0  0  0  0  0  0
  -26.8028  -17.4312   20.6572 N   0  0  0  0  0  0  0  0  0  0  0  0
  -31.0687  -23.8890   19.8732 N   0  0  0  0  0  0  0  0  0  0  0  0
  -27.9176  -18.0825   20.2843 N   0  0  0  0  0  0  0  0  0  0  0  0
  -23.0079  -26.1224   23.0395 N   0  0  0  0  0  0  0  0  0  0  0  0
  -27.4996  -21.2892   18.2469 N   0  0  0  0  0  0  0  0  0  0  0  0
  -30.2296  -17.7826   19.8652 N   0  0  0  0  0  0  0  0  0  0  0  0
  -28.8400  -13.6506   21.0449 N   0  0  0  0  0  0  0  0  0  0  0  0
  -21.8412  -29.4168   21.9993 N   0  0  0  0  0  0  0  0  0  0  0  0
  -22.7440  -23.3351   24.9420 N   0  0  0  0  0  0  0  0  0  0  0  0
  -29.2713  -21.3016   16.6802 N   0  0  0  0  0  0  0  0  0  0  0  0
  -22.9257  -20.5166   23.0170 N   0  3  0  0  0  0  0  0  0  0  0  0
  -30.6613  -14.8932   20.4143 O   0  0  0  0  0  0  0  0  0  0  0  0
  -23.2346  -28.5891   23.6715 O   0  0  0  0  0  0  0  0  0  0  0  0
  -21.0769  -25.5484   24.2134 O   0  0  0  0  0  0  0  0  0  0  0  0
  -24.7886  -22.5923   24.1389 O   0  0  0  0  0  0  0  0  0  0  0  0
  -28.1791  -23.2475   17.2071 O   0  0  0  0  0  0  0  0  0  0  0  0
  -23.6465  -12.1960   22.4405 O   0  0  0  0  0  0  0  0  0  0  0  0
  -28.3313  -26.6403   19.9660 O   0  0  0  0  0  0  0  0  0  1  0  0
  -23.8794   -7.3458   19.8278 F   0  0  0  0  0  0  0  0  0  0  0  0
  -21.4545  -11.2166   21.0700 F   0  0  0  0  0  0  0  0  0  0  0  0
  -31.5913  -21.4185   19.3533 Cl  0  0  0  0  0  0  0  0  0  0  0  0
  1  2  1  0  0  0  0
  1  5  2  0  0  0  0
  2  6  2  0  0  0  0
  3  8  2  0  0  0  0
  3 16  1  0  0  0  0
  4  9  1  0  0  0  0
  4 16  2  0  0  0  0
  5 18  1  0  0  0  0
  6 20  1  0  0  0  0
  7 10  2  0  0  0  0
  7 19  1  0  0  0  0
  8 24  1  0  0  0  0
  9 24  2  0  0  0  0
 10 25  1  0  0  0  0
 11 12  2  0  0  0  0
 11 26  1  0  0  0  0
 12 27  1  0  0  0  0
 13 21  1  0  0  0  0
 13 25  2  0  0  0  0
 14 22  2  0  0  0  0
 14 30  1  0  0  0  0
 15 27  2  0  0  0  0
 15 28  1  0  0  0  0
 16 29  1  0  0  0  0
 17 29  1  0  0  0  0
 17 32  2  0  0  0  0
 17 33  1  0  0  0  0
 18 20  2  0  0  0  0
 18 38  1  0  0  0  0
 19 21  2  0  0  0  0
 19 39  1  0  0  0  0
 20 47  1  0  0  0  0
 21 40  1  0  0  0  0
 22 23  1  0  0  0  0
 22 50  1  0  0  0  0
 23 31  2  0  0  0  0
 23 56  1  0  0  0  0
 24 79  1  0  0  0  0
 25 80  1  0  0  0  0
 26 28  2  0  0  0  0
 26 79  1  0  0  0  0
 27 81  1  0  0  0  0
 28 82  1  0  0  0  0
 29 63  2  0  0  0  0
 30 57  1  0  0  0  0
 30 64  2  0  0  0  0
 31 64  1  0  0  0  0
 31 83  1  0  0  0  0
 32 65  1  0  0  0  0
 32 68  1  0  0  0  0
 33 69  1  0  0  0  0
 33 74  2  0  0  0  0
 34 48  1  0  0  0  0
 34 70  1  0  0  0  0
 34 75  2  0  0  0  0
 35 60  1  0  0  0  0
 35 66  1  0  0  0  0
 35 76  2  0  0  0  0
 36 61  1  0  0  0  0
 36 71  1  0  0  0  0
 36 77  2  0  0  0  0
 37 67  1  0  0  0  0
 37 72  1  0  0  0  0
 37 78  2  0  0  0  0
 38 41  1  0  0  0  0
 39 48  1  0  0  0  0
 40 66  1  0  0  0  0
 41 43  1  0  0  0  0
 42 44  1  0  0  0  0
 42 45  1  0  0  0  0
 43 47  1  0  0  0  0
 44 49  1  0  0  0  0
 45 67  1  0  0  0  0
 46 49  1  0  0  0  0
 46 67  1  0  0  0  0
 47 70  1  0  0  0  0
 48 66  1  0  0  0  0
 49 65  1  0  0  0  0
 51 61  1  0  0  0  0
 52 62  1  0  0  0  0
 53 62  1  0  0  0  0
 54 62  1  0  0  0  0
 55 73  1  0  0  0  0
 56 58  1  0  0  0  0
 57 59  1  0  0  0  0
 58 72  1  0  0  0  0
 59 80  1  0  0  0  0
 60 62  1  0  0  0  0
 60 71  1  0  0  0  0
 61 73  1  0  0  0  0
 63 65  1  0  0  0  0
M  CHG  1  73   1
M  ISO  4  37 100  59 101  72 100  80 101
M  END
> <Batch ID>
0028

> <Smiles>
CNC(C)C(=O)NC(C(=O)N1Cc2cc([101O:1][101CH2:1]Cc3cc(C)c(CC[100NH:0][100C:0](=O)N4CCCC(n5nc(-c6ccc(Oc7ccc(F)cc7F)cc6)c(C(N)=O)c5N)C4)c(Cl)n3)ccc2CC1C(=O)NC1CCCc2ccccc21)C(C)(C)C

> <Shape>
0.212

> <Color>
0.089

> <Negative vol penalty>
0.000

$$$$

  -OEChem-04052316333D

 87 95  0     1  0  0  0  0  0999 V2000
  -27.5254  -24.6756   16.7730 C   0  0  0  0  0  0  0  0  0  0  0  0
  -26.3491  -24.9745   17.4531 C   0  0  0  0  0  0  0  0  0  0  0  0
  -27.5847  -17.7873   22.0783 C   0  0  0  0  0  0  0  0  0  0  0  0
  -26.4775  -19.8000   21.3299 C   0  0  0  0  0  0  0  0  0  0  0  0
  -28.7541  -25.0683   17.3020 C   0  0  0  0  0  0  0  0  0  0  0  0
  -26.4010  -25.6655   18.6631 C   0  0  0  0  0  0  0  0  0  0  0  0
  -22.9472  -29.3585   18.9411 C   0  0  0  0  0  0  0  0  0  0  0  0
  -28.6703  -18.0771   21.2518 C   0  0  0  0  0  0  0  0  0  0  0  0
  -27.5630  -20.0899   20.5034 C   0  0  0  0  0  0  0  0  0  0  0  0
  -21.6340  -28.9825   19.2204 C   0  0  0  0  0  0  0  0  0  0  0  0
  -31.5776  -18.1021   19.0676 C   0  0  0  0  0  0  0  0  0  0  0  0
  -32.1095  -17.0626   18.3047 C   0  0  0  0  0  0  0  0  0  0  0  0
  -21.9513  -29.6108   21.5278 C   0  0  0  0  0  0  0  0  0  0  0  0
  -21.2230  -25.6082   22.0503 C   0  0  0  0  0  0  0  0  0  0  0  0
  -21.8685  -23.3662   21.4226 C   0  0  0  0  0  0  0  0  0  0  0  0
  -29.9764  -16.7769   17.2068 C   0  0  0  0  0  0  0  0  0  0  0  0
  -26.4883  -18.6487   22.1173 C   0  0  0  0  0  0  0  0  0  0  0  0
  -25.1859  -18.7480   24.3086 C   0  0  0  0  0  0  0  0  0  0  0  0
  -28.8205  -25.7729   18.5144 C   0  0  0  0  0  0  0  0  0  0  0  0
  -23.7771  -29.8541   19.9571 C   0  0  0  0  0  0  0  0  0  0  0  0
  -27.6319  -26.0668   19.2095 C   0  0  0  0  0  0  0  0  0  0  0  0
  -23.2738  -29.9948   21.2582 C   0  0  0  0  0  0  0  0  0  0  0  0
  -19.8816  -25.2740   21.8643 C   0  0  0  0  0  0  0  0  0  0  0  0
  -20.5271  -23.0320   21.2367 C   0  0  0  0  0  0  0  0  0  0  0  0
  -28.6594  -19.2284   20.4643 C   0  0  0  0  0  0  0  0  0  0  0  0
  -21.1368  -29.1059   20.5145 C   0  0  0  0  0  0  0  0  0  0  0  0
  -30.2451  -18.4789   18.9002 C   0  0  0  0  0  0  0  0  0  0  0  0
  -31.3090  -16.4000   17.3742 C   0  0  0  0  0  0  0  0  0  0  0  0
  -29.4445  -17.8164   17.9698 C   0  0  0  0  0  0  0  0  0  0  0  0
  -22.2165  -24.6543   21.8294 C   0  0  0  0  0  0  0  0  0  0  0  0
  -19.5337  -23.9860   21.4575 C   0  0  0  0  0  0  0  0  0  0  0  0
  -25.3663  -18.3495   22.9705 C   0  0  0  0  0  0  0  0  0  0  0  0
  -23.9718  -18.2137   24.6652 C   0  0  0  0  0  0  0  0  0  0  0  0
  -26.0393  -19.5311   25.1536 C   0  0  0  0  0  0  0  0  0  0  0  0
  -26.5064  -28.9095   21.2846 C   0  0  0  0  0  0  0  0  0  0  0  0
  -26.2843  -31.7509   22.8335 C   0  0  0  0  0  0  0  0  0  0  0  0
  -18.7651  -17.1451   22.3209 C   0  0  0  0  0  0  0  0  0  0  0  0
  -24.3001  -34.2869   23.9643 C   0  0  0  0  0  0  0  0  0  0  0  0
  -30.1749  -26.1351   19.0703 C   0  0  0  0  0  0  0  0  0  0  0  0
  -25.1829  -30.2804   19.6339 C   0  0  0  0  0  0  0  0  0  0  0  0
  -24.1176  -30.5403   22.3802 C   0  0  0  0  0  0  0  0  0  0  0  0
  -30.1190  -27.1919   20.1705 C   0  0  0  0  0  0  0  0  0  0  0  0
  -21.1389  -14.5421   22.9758 C   0  0  0  0  0  0  0  0  0  0  0  0
  -29.0260  -26.8546   21.1797 C   0  0  0  0  0  0  0  0  0  0  0  0
  -22.4595  -15.2934   23.1398 C   0  0  0  0  0  0  0  0  0  0  0  0
  -20.2461  -15.2038   21.9308 C   0  0  0  0  0  0  0  0  0  0  0  0
  -21.2956  -17.4039   22.3547 C   0  0  0  0  0  0  0  0  0  0  0  0
  -27.6455  -26.8365   20.5124 C   0  0  1  0  0  0  0  0  0  0  0  0
  -26.0996  -30.2901   20.8533 C   0  0  1  0  0  0  0  0  0  0  0  0
  -22.2147  -16.7861   23.4234 C   0  0  2  0  0  0  0  0  0  0  0  0
  -24.4001  -36.4525   25.2281 C   0  0  0  0  0  0  0  0  0  0  0  0
  -19.3263  -18.9026   23.9740 C   0  0  0  0  0  0  0  0  0  0  0  0
  -17.1546  -18.9525   22.7320 C   0  0  0  0  0  0  0  0  0  0  0  0
  -26.5982  -30.2083   25.4473 C   0  0  0  0  0  0  0  0  0  0  0  0
  -25.7522  -32.2285   26.6602 C   0  0  0  0  0  0  0  0  0  0  0  0
  -27.8689  -32.3599   25.3468 C   0  0  0  0  0  0  0  0  0  0  0  0
  -23.2520  -35.8157   21.6571 C   0  0  0  0  0  0  0  0  0  0  0  0
  -18.8419  -26.3368   22.1156 C   0  0  0  0  0  0  0  0  0  0  0  0
  -20.2007  -21.6395   20.8012 C   0  0  0  0  0  0  0  0  0  0  0  0
  -18.2623  -26.9459   20.8370 C   0  0  0  0  0  0  0  0  0  0  0  0
  -19.2609  -19.4247   21.4721 C   0  0  0  0  0  0  0  0  0  0  0  0
  -19.2963  -27.6903   20.0003 C   0  0  0  0  0  0  0  0  0  1  0  0
  -25.6594  -32.2180   24.1260 C   0  0  1  0  0  0  0  0  0  0  0  0
  -24.4343  -35.7952   23.8572 C   0  0  2  0  0  0  0  0  0  0  0  0
  -18.6497  -18.6170   22.6282 C   0  0  0  0  0  0  0  0  0  0  0  0
  -26.4541  -31.7415   25.3746 C   0  0  0  0  0  0  0  0  0  0  0  0
  -24.3485  -17.6184   22.5085 N   0  0  0  0  0  0  0  0  0  0  0  0
  -23.5168  -17.5531   23.5621 N   0  0  0  0  0  0  0  0  0  0  0  0
  -25.4875  -30.9375   22.0154 N   0  0  0  0  0  0  0  0  0  0  0  0
  -20.0561  -16.6256   22.2233 N   0  0  0  0  0  0  0  0  0  0  0  0
  -23.2599  -18.2491   25.8116 N   0  0  0  0  0  0  0  0  0  0  0  0
  -27.2506  -20.0013   24.6282 N   0  0  0  0  0  0  0  0  0  0  0  0
  -27.1650  -28.1863   20.3085 N   0  0  0  0  0  0  0  0  0  0  0  0
  -25.5306  -33.6671   24.0168 N   0  0  0  0  0  0  0  0  0  0  0  0
  -23.3230  -36.3572   23.0386 N   0  3  0  0  0  0  0  0  0  0  0  0
  -19.6463  -20.7970   21.8947 N   0  3  0  0  0  0  0  0  0  0  0  0
  -25.7442  -19.7920   26.3446 O   0  0  0  0  0  0  0  0  0  0  0  0
  -26.2436  -28.5290   22.4194 O   0  0  0  0  0  0  0  0  0  0  0  0
  -27.4342  -32.1009   22.5566 O   0  0  0  0  0  0  0  0  0  0  0  0
  -17.7375  -16.4782   22.1751 O   0  0  0  0  0  0  0  0  0  0  0  0
  -23.2123  -33.7159   24.0016 O   0  0  0  0  0  0  0  0  0  0  0  0
  -29.7187  -19.5117   19.6579 O   0  0  0  0  0  0  0  0  0  0  0  0
  -19.8556  -28.7390   20.7900 O   0  0  0  0  0  0  0  0  0  1  0  0
  -31.8203  -15.4028   16.6406 F   0  0  0  0  0  0  0  0  0  0  0  0
  -28.1640  -18.1748   17.8036 F   0  0  0  0  0  0  0  0  0  0  0  0
  -23.8718  -25.0663   22.0581 Cl  0  0  0  0  0  0  0  0  0  0  0  0
  -17.8684  -23.5717   21.2251 Cl  0  0  0  0  0  0  0  0  0  0  0  0
  1  2  1  0  0  0  0
  1  5  2  0  0  0  0
  2  6  2  0  0  0  0
  3  8  2  0  0  0  0
  3 17  1  0  0  0  0
  4  9  1  0  0  0  0
  4 17  2  0  0  0  0
  5 19  1  0  0  0  0
  6 21  1  0  0  0  0
  7 10  2  0  0  0  0
  7 20  1  0  0  0  0
  8 25  1  0  0  0  0
  9 25  2  0  0  0  0
 10 26  1  0  0  0  0
 11 12  2  0  0  0  0
 11 27  1  0  0  0  0
 12 28  1  0  0  0  0
 13 22  1  0  0  0  0
 13 26  2  0  0  0  0
 14 23  1  0  0  0  0
 14 30  2  0  0  0  0
 15 24  2  0  0  0  0
 15 30  1  0  0  0  0
 16 28  2  0  0  0  0
 16 29  1  0  0  0  0
 17 32  1  0  0  0  0
 18 32  1  0  0  0  0
 18 33  2  0  0  0  0
 18 34  1  0  0  0  0
 19 21  2  0  0  0  0
 19 39  1  0  0  0  0
 20 22  2  0  0  0  0
 20 40  1  0  0  0  0
 21 48  1  0  0  0  0
 22 41  1  0  0  0  0
 23 31  2  0  0  0  0
 23 58  1  0  0  0  0
 24 31  1  0  0  0  0
 24 59  1  0  0  0  0
 25 82  1  0  0  0  0
 26 83  1  0  0  0  0
 27 29  2  0  0  0  0
 27 82  1  0  0  0  0
 28 84  1  0  0  0  0
 29 85  1  0  0  0  0
 30 86  1  0  0  0  0
 31 87  1  0  0  0  0
 32 67  2  0  0  0  0
 33 68  1  0  0  0  0
 33 71  1  0  0  0  0
 34 72  1  0  0  0  0
 34 77  2  0  0  0  0
 35 49  1  0  0  0  0
 35 73  1  0  0  0  0
 35 78  2  0  0  0  0
 36 63  1  0  0  0  0
 36 69  1  0  0  0  0
 36 79  2  0  0  0  0
 37 65  1  0  0  0  0
 37 70  1  0  0  0  0
 37 80  2  0  0  0  0
 38 64  1  0  0  0  0
 38 74  1  0  0  0  0
 38 81  2  0  0  0  0
 39 42  1  0  0  0  0
 40 49  1  0  0  0  0
 41 69  1  0  0  0  0
 42 44  1  0  0  0  0
 43 45  1  0  0  0  0
 43 46  1  0  0  0  0
 44 48  1  0  0  0  0
 45 50  1  0  0  0  0
 46 70  1  0  0  0  0
 47 50  1  0  0  0  0
 47 70  1  0  0  0  0
 48 73  1  0  0  0  0
 49 69  1  0  0  0  0
 50 68  1  0  0  0  0
 51 64  1  0  0  0  0
 52 65  1  0  0  0  0
 53 65  1  0  0  0  0
 54 66  1  0  0  0  0
 55 66  1  0  0  0  0
 56 66  1  0  0  0  0
 57 75  1  0  0  0  0
 58 60  1  0  0  0  0
 59 76  1  0  0  0  0
 60 62  1  0  0  0  0
 61 65  1  0  0  0  0
 61 76  1  0  0  0  0
 62 83  1  0  0  0  0
 63 66  1  0  0  0  0
 63 74  1  0  0  0  0
 64 75  1  0  0  0  0
 67 68  1  0  0  0  0
M  CHG  2  75   1  76   1
M  ISO  4  37 100  62 101  65 100  83 101
M  END
> <Batch ID>
0028

> <Smiles>
CNC(C)C(=O)NC(C(=O)N1Cc2cc([101O:1][101CH2:1]CCc3cc(Cl)cc(CNC[100C:0](C)(C)[100C:0](=O)N4CCCC(n5nc(-c6ccc(Oc7ccc(F)cc7F)cc6)c(C(N)=O)c5N)C4)c3Cl)ccc2CC1C(=O)NC1CCCc2ccccc21)C(C)(C)C

> <Shape>
0.236

> <Color>
0.060

> <Negative vol penalty>
0.000

$$$$

  -OEChem-04052316333D

 85 93  0     1  0  0  0  0  0999 V2000
  -36.0041  -20.0256   24.0858 C   0  0  0  0  0  0  0  0  0  0  0  0
  -34.7967  -20.2981   23.4506 C   0  0  0  0  0  0  0  0  0  0  0  0
  -23.0733   -9.8644   19.9508 C   0  0  0  0  0  0  0  0  0  0  0  0
  -23.8301   -9.8870   22.2451 C   0  0  0  0  0  0  0  0  0  0  0  0
  -36.0576  -19.9528   25.4771 C   0  0  0  0  0  0  0  0  0  0  0  0
  -33.6419  -20.4968   24.2064 C   0  0  0  0  0  0  0  0  0  0  0  0
  -30.9401  -24.4740   22.6167 C   0  0  0  0  0  0  0  0  0  0  0  0
  -22.3288   -8.7132   20.2077 C   0  0  0  0  0  0  0  0  0  0  0  0
  -23.0856   -8.7358   22.5021 C   0  0  0  0  0  0  0  0  0  0  0  0
  -30.1555  -24.2966   21.4779 C   0  0  0  0  0  0  0  0  0  0  0  0
  -19.9428   -5.9744   20.3518 C   0  0  0  0  0  0  0  0  0  0  0  0
  -18.6378   -5.9233   19.8620 C   0  0  0  0  0  0  0  0  0  0  0  0
  -28.2093  -24.0008   22.8721 C   0  0  0  0  0  0  0  0  0  0  0  0
  -31.6298  -18.3353   20.0292 C   0  0  0  0  0  0  0  0  0  0  0  0
  -30.2523  -20.0440   19.0195 C   0  0  0  0  0  0  0  0  0  0  0  0
  -18.0713   -7.8754   21.1681 C   0  0  0  0  0  0  0  0  0  0  0  0
  -23.8240  -10.4513   20.9695 C   0  0  0  0  0  0  0  0  0  0  0  0
  -24.1667  -12.9755   20.8326 C   0  0  0  0  0  0  0  0  0  0  0  0
  -34.9048  -20.1602   26.2508 C   0  0  0  0  0  0  0  0  0  0  0  0
  -30.3660  -24.4052   23.8942 C   0  0  0  0  0  0  0  0  0  0  0  0
  -33.6797  -20.4254   25.6093 C   0  0  0  0  0  0  0  0  0  0  0  0
  -28.9882  -24.1803   24.0254 C   0  0  0  0  0  0  0  0  0  0  0  0
  -30.5844  -18.0011   20.8900 C   0  0  0  0  0  0  0  0  0  0  0  0
  -29.2068  -19.7098   19.8803 C   0  0  0  0  0  0  0  0  0  0  0  0
  -22.3349   -8.1489   21.4833 C   0  0  0  0  0  0  0  0  0  0  0  0
  -28.7905  -24.0571   21.6055 C   0  0  0  0  0  0  0  0  0  0  0  0
  -20.3121   -6.9759   21.2497 C   0  0  0  0  0  0  0  0  0  0  0  0
  -17.7020   -6.8738   20.2702 C   0  0  0  0  0  0  0  0  0  0  0  0
  -19.3764   -7.9264   21.6578 C   0  0  0  0  0  0  0  0  0  0  0  0
  -31.4638  -19.3568   19.0940 C   0  0  0  0  0  0  0  0  0  0  0  0
  -29.3729  -18.6884   20.8155 C   0  0  0  0  0  0  0  0  0  0  0  0
  -24.5938  -11.6402   20.7046 C   0  0  0  0  0  0  0  0  0  0  0  0
  -25.2595  -13.7221   20.4656 C   0  0  0  0  0  0  0  0  0  0  0  0
  -22.8958  -13.4945   21.2462 C   0  0  0  0  0  0  0  0  0  0  0  0
  -30.7537  -22.5274   26.4294 C   0  0  0  0  0  0  0  0  0  0  0  0
  -28.7081  -24.6305   27.8132 C   0  0  0  0  0  0  0  0  0  0  0  0
  -26.2399  -26.9549   27.4233 C   0  0  0  0  0  0  0  0  0  0  0  0
  -30.7433  -14.7411   20.6544 C   0  0  0  0  0  0  0  0  0  0  0  0
  -35.0023  -20.0247   27.7497 C   0  0  0  0  0  0  0  0  0  0  0  0
  -31.2212  -24.6253   25.1118 C   0  0  0  0  0  0  0  0  0  0  0  0
  -28.3198  -24.1173   25.3736 C   0  0  0  0  0  0  0  0  0  0  0  0
  -33.8090  -20.6183   28.4939 C   0  0  0  0  0  0  0  0  0  0  0  0
  -29.6083  -12.3405   18.2825 C   0  0  0  0  0  0  0  0  0  0  0  0
  -32.5014  -20.1767   27.8444 C   0  0  0  0  0  0  0  0  0  0  0  0
  -28.1702  -12.0501   18.7155 C   0  0  0  0  0  0  0  0  0  0  0  0
  -30.5238  -12.5693   19.4831 C   0  0  0  0  0  0  0  0  0  0  0  0
  -28.6204  -13.3104   20.8621 C   0  0  0  0  0  0  0  0  0  0  0  0
  -32.4104  -20.6713   26.3957 C   0  0  1  0  0  0  0  0  0  0  0  0
  -30.6225  -24.0234   26.3793 C   0  0  1  0  0  0  0  0  0  0  0  0
  -27.6478  -13.1280   19.6843 C   0  0  2  0  0  0  0  0  0  0  0  0
  -24.7391  -28.4745   28.7409 C   0  0  0  0  0  0  0  0  0  0  0  0
  -27.5217  -20.8675   17.4576 C   0  0  0  0  0  0  0  0  0  0  0  0
  -26.9758  -22.2419   28.5903 C   0  0  0  0  0  0  0  0  0  0  0  0
  -25.0966  -23.8366   29.0304 C   0  0  0  0  0  0  0  0  0  0  0  0
  -27.1987  -23.9901   30.3647 C   0  0  0  0  0  0  0  0  0  0  0  0
  -27.3628  -29.3714   26.1355 C   0  0  0  0  0  0  0  0  0  0  0  0
  -30.8080  -16.9001   21.8765 C   0  0  0  0  0  0  0  0  0  0  0  0
  -26.6248  -22.3536   19.2831 C   0  0  0  0  0  0  0  0  0  0  0  0
  -26.8800  -23.0374   20.6225 C   0  0  0  0  0  0  0  0  0  1  0  0
  -27.2078  -24.7317   27.9476 C   0  0  1  0  0  0  0  0  0  0  0  0
  -26.0646  -28.3455   28.0065 C   0  0  2  0  0  0  0  0  0  0  0  0
  -27.7973  -21.4793   18.8276 C   0  0  1  0  0  0  0  0  0  0  0  0
  -26.6323  -23.6993   28.9578 C   0  0  0  0  0  0  0  0  0  0  0  0
  -25.8592  -11.5411   20.2887 N   0  0  0  0  0  0  0  0  0  0  0  0
  -26.2366  -12.8237   20.1521 N   0  0  0  0  0  0  0  0  0  0  0  0
  -29.1996  -24.3326   26.5343 N   0  0  0  0  0  0  0  0  0  0  0  0
  -29.9724  -13.6041   20.3612 N   0  0  0  0  0  0  0  0  0  0  0  0
  -25.4704  -15.0530   20.3837 N   0  0  0  0  0  0  0  0  0  0  0  0
  -21.8832  -12.5879   21.5884 N   0  0  0  0  0  0  0  0  0  0  0  0
  -28.0190  -20.4118   19.7806 N   0  0  0  0  0  0  0  0  0  0  0  0
  -32.0574  -22.0744   26.3619 N   0  0  0  0  0  0  0  0  0  0  0  0
  -26.9212  -26.1217   28.2853 N   0  0  0  0  0  0  0  0  0  0  0  0
  -30.1432  -15.6758   21.4892 N   0  0  0  0  0  0  0  0  0  0  0  0
  -26.1042  -29.3696   26.9247 N   0  3  0  0  0  0  0  0  0  0  0  0
  -22.6598  -14.7255   21.2947 O   0  0  0  0  0  0  0  0  0  0  0  0
  -29.7468  -21.8354   26.5239 O   0  0  0  0  0  0  0  0  0  0  0  0
  -29.4180  -24.8161   28.8047 O   0  0  0  0  0  0  0  0  0  0  0  0
  -25.8118  -26.6383   26.3156 O   0  0  0  0  0  0  0  0  0  0  0  0
  -31.8799  -14.9131   20.2011 O   0  0  0  0  0  0  0  0  0  0  0  0
  -21.6084   -7.0257   21.7344 O   0  0  0  0  0  0  0  0  0  0  0  0
  -28.0226  -23.8829   20.4957 O   0  0  0  0  0  0  0  0  0  1  0  0
  -16.4492   -6.8256   19.7986 F   0  0  0  0  0  0  0  0  0  0  0  0
  -19.7256   -8.8916   22.5194 F   0  0  0  0  0  0  0  0  0  0  0  0
  -32.7542  -19.7688   18.0321 Cl  0  0  0  0  0  0  0  0  0  0  0  0
  -28.0769  -18.2676   21.8870 Cl  0  0  0  0  0  0  0  0  0  0  0  0
  1  2  1  0  0  0  0
  1  5  2  0  0  0  0
  2  6  2  0  0  0  0
  3  8  2  0  0  0  0
  3 17  1  0  0  0  0
  4  9  1  0  0  0  0
  4 17  2  0  0  0  0
  5 19  1  0  0  0  0
  6 21  1  0  0  0  0
  7 10  2  0  0  0  0
  7 20  1  0  0  0  0
  8 25  1  0  0  0  0
  9 25  2  0  0  0  0
 10 26  1  0  0  0  0
 11 12  2  0  0  0  0
 11 27  1  0  0  0  0
 12 28  1  0  0  0  0
 13 22  1  0  0  0  0
 13 26  2  0  0  0  0
 14 23  2  0  0  0  0
 14 30  1  0  0  0  0
 15 24  1  0  0  0  0
 15 30  2  0  0  0  0
 16 28  2  0  0  0  0
 16 29  1  0  0  0  0
 17 32  1  0  0  0  0
 18 32  1  0  0  0  0
 18 33  2  0  0  0  0
 18 34  1  0  0  0  0
 19 21  2  0  0  0  0
 19 39  1  0  0  0  0
 20 22  2  0  0  0  0
 20 40  1  0  0  0  0
 21 48  1  0  0  0  0
 22 41  1  0  0  0  0
 23 31  1  0  0  0  0
 23 57  1  0  0  0  0
 24 31  2  0  0  0  0
 24 70  1  0  0  0  0
 25 80  1  0  0  0  0
 26 81  1  0  0  0  0
 27 29  2  0  0  0  0
 27 80  1  0  0  0  0
 28 82  1  0  0  0  0
 29 83  1  0  0  0  0
 30 84  1  0  0  0  0
 31 85  1  0  0  0  0
 32 64  2  0  0  0  0
 33 65  1  0  0  0  0
 33 68  1  0  0  0  0
 34 69  1  0  0  0  0
 34 75  2  0  0  0  0
 35 49  1  0  0  0  0
 35 71  1  0  0  0  0
 35 76  2  0  0  0  0
 36 60  1  0  0  0  0
 36 66  1  0  0  0  0
 36 77  2  0  0  0  0
 37 61  1  0  0  0  0
 37 72  1  0  0  0  0
 37 78  2  0  0  0  0
 38 67  1  0  0  0  0
 38 73  1  0  0  0  0
 38 79  2  0  0  0  0
 39 42  1  0  0  0  0
 40 49  1  0  0  0  0
 41 66  1  0  0  0  0
 42 44  1  0  0  0  0
 43 45  1  0  0  0  0
 43 46  1  0  0  0  0
 44 48  1  0  0  0  0
 45 50  1  0  0  0  0
 46 67  1  0  0  0  0
 47 50  1  0  0  0  0
 47 67  1  0  0  0  0
 48 71  1  0  0  0  0
 49 66  1  0  0  0  0
 50 65  1  0  0  0  0
 51 61  1  0  0  0  0
 52 62  1  0  0  0  0
 53 63  1  0  0  0  0
 54 63  1  0  0  0  0
 55 63  1  0  0  0  0
 56 74  1  0  0  0  0
 57 73  1  0  0  0  0
 58 59  1  0  0  0  0
 58 62  1  0  0  0  0
 59 81  1  0  0  0  0
 60 63  1  0  0  0  0
 60 72  1  0  0  0  0
 61 74  1  0  0  0  0
 62 70  1  0  0  0  0
 64 65  1  0  0  0  0
M  CHG  1  74   1
M  ISO  4  38 100  59 101  73 100  81 101
M  END
> <Batch ID>
0028

> <Smiles>
CNC(C)C(=O)NC(C(=O)N1Cc2cc([101O:1][101CH2:1]CC(C)Nc3cc(Cl)cc(C[100NH:0][100C:0](=O)N4CCCC(n5nc(-c6ccc(Oc7ccc(F)cc7F)cc6)c(C(N)=O)c5N)C4)c3Cl)ccc2CC1C(=O)NC1CCCc2ccccc21)C(C)(C)C

> <Shape>
0.192

> <Color>
0.196

> <Negative vol penalty>
0.000

$$$$

  -OEChem-04052316333D

 83 91  0     1  0  0  0  0  0999 V2000
  -31.5454  -33.5952   22.3647 C   0  0  0  0  0  0  0  0  0  0  0  0
  -31.1919  -32.6231   21.4344 C   0  0  0  0  0  0  0  0  0  0  0  0
  -23.8660   -9.9412   22.1316 C   0  0  0  0  0  0  0  0  0  0  0  0
  -22.3944  -10.4765   20.2917 C   0  0  0  0  0  0  0  0  0  0  0  0
  -30.9517  -33.5997   23.6263 C   0  0  0  0  0  0  0  0  0  0  0  0
  -30.2453  -31.6543   21.7655 C   0  0  0  0  0  0  0  0  0  0  0  0
  -26.1234  -29.1039   18.0224 C   0  0  0  0  0  0  0  0  0  0  0  0
  -23.3472   -8.6470   22.1701 C   0  0  0  0  0  0  0  0  0  0  0  0
  -21.8757   -9.1822   20.3301 C   0  0  0  0  0  0  0  0  0  0  0  0
  -26.1074  -27.8940   17.3297 C   0  0  0  0  0  0  0  0  0  0  0  0
  -22.1549   -5.3102   22.9870 C   0  0  0  0  0  0  0  0  0  0  0  0
  -21.8343   -4.7751   24.2346 C   0  0  0  0  0  0  0  0  0  0  0  0
  -24.8334  -26.8941   19.1175 C   0  0  0  0  0  0  0  0  0  0  0  0
  -22.4857  -21.0741   19.5039 C   0  0  0  0  0  0  0  0  0  0  0  0
  -20.2583   -6.5696   24.5993 C   0  0  0  0  0  0  0  0  0  0  0  0
  -23.3895  -10.8560   21.1925 C   0  0  0  0  0  0  0  0  0  0  0  0
  -25.0266  -12.6460   20.4028 C   0  0  0  0  0  0  0  0  0  0  0  0
  -29.9903  -32.6362   23.9696 C   0  0  0  0  0  0  0  0  0  0  0  0
  -25.5028  -29.2151   19.2750 C   0  0  0  0  0  0  0  0  0  0  0  0
  -29.6392  -31.6451   23.0333 C   0  0  0  0  0  0  0  0  0  0  0  0
  -24.8407  -28.1072   19.8229 C   0  0  0  0  0  0  0  0  0  0  0  0
  -22.3509  -22.0547   18.5212 C   0  0  0  0  0  0  0  0  0  0  0  0
  -23.8538  -20.8227   17.0857 C   0  0  0  0  0  0  0  0  0  0  0  0
  -23.0349  -21.9290   17.3120 C   0  0  0  0  0  0  0  0  0  0  0  0
  -23.9886  -19.8421   18.0685 C   0  0  0  0  0  0  0  0  0  0  0  0
  -23.3047  -19.9678   19.2777 C   0  0  0  0  0  0  0  0  0  0  0  0
  -22.3521   -8.2675   21.2693 C   0  0  0  0  0  0  0  0  0  0  0  0
  -25.4648  -26.7882   17.8785 C   0  0  0  0  0  0  0  0  0  0  0  0
  -21.5272   -6.4750   22.5455 C   0  0  0  0  0  0  0  0  0  0  0  0
  -20.8860   -5.4047   25.0408 C   0  0  0  0  0  0  0  0  0  0  0  0
  -20.5789   -7.1047   23.3517 C   0  0  0  0  0  0  0  0  0  0  0  0
  -23.9246  -12.1933   21.1527 C   0  0  0  0  0  0  0  0  0  0  0  0
  -25.1261  -13.9809   20.7104 C   0  0  0  0  0  0  0  0  0  0  0  0
  -25.8836  -11.9244   19.5080 C   0  0  0  0  0  0  0  0  0  0  0  0
  -26.4977  -29.8780   22.2202 C   0  0  0  0  0  0  0  0  0  0  0  0
  -23.3234  -29.8233   22.8858 C   0  0  0  0  0  0  0  0  0  0  0  0
  -20.2055  -28.7194   22.0450 C   0  0  0  0  0  0  0  0  0  0  0  0
  -22.8069  -18.9747   21.5387 C   0  0  0  0  0  0  0  0  0  0  0  0
  -29.4108  -32.6531   25.3620 C   0  0  0  0  0  0  0  0  0  0  0  0
  -25.5060  -30.5345   19.9973 C   0  0  0  0  0  0  0  0  0  0  0  0
  -24.1421  -28.1800   21.1552 C   0  0  0  0  0  0  0  0  0  0  0  0
  -28.1416  -31.8168   25.5036 C   0  0  0  0  0  0  0  0  0  0  0  0
  -22.8214  -16.7167   24.2916 C   0  0  0  0  0  0  0  0  0  0  0  0
  -28.3261  -30.4514   24.8489 C   0  0  0  0  0  0  0  0  0  0  0  0
  -23.2004  -15.3758   23.6587 C   0  0  0  0  0  0  0  0  0  0  0  0
  -21.9271  -17.5456   23.3714 C   0  0  0  0  0  0  0  0  0  0  0  0
  -22.8296  -16.4075   21.3816 C   0  0  0  0  0  0  0  0  0  0  0  0
  -28.5983  -30.5922   23.3464 C   0  0  1  0  0  0  0  0  0  0  0  0
  -25.2840  -30.3935   21.5000 C   0  0  1  0  0  0  0  0  0  0  0  0
  -23.7832  -15.5649   22.2444 C   0  0  2  0  0  0  0  0  0  0  0  0
  -21.4707  -23.2313   18.7900 C   0  0  0  0  0  0  0  0  0  0  0  0
  -24.5874  -20.6885   15.7884 C   0  0  0  0  0  0  0  0  0  0  0  0
  -24.8694  -18.6567   17.8240 C   0  0  0  0  0  0  0  0  0  0  0  0
  -17.8141  -28.8083   22.8004 C   0  0  0  0  0  0  0  0  0  0  0  0
  -23.9480  -27.8099   25.0917 C   0  0  0  0  0  0  0  0  0  0  0  0
  -21.5126  -27.2332   25.1589 C   0  0  0  0  0  0  0  0  0  0  0  0
  -22.2602  -29.5477   25.7128 C   0  0  0  0  0  0  0  0  0  0  0  0
  -19.3415  -30.0358   19.5391 C   0  0  0  0  0  0  0  0  0  0  0  0
  -22.8878  -22.9915   16.2523 C   0  0  0  0  0  0  0  0  0  0  0  0
  -24.0912  -23.9313   16.1511 C   0  0  0  0  0  0  0  0  0  0  0  0
  -24.3211  -24.7558   17.4124 C   0  0  0  0  0  0  0  0  0  1  0  0
  -22.3384  -28.7613   23.3112 C   0  0  1  0  0  0  0  0  0  0  0  0
  -18.8787  -29.4466   21.9218 C   0  0  2  0  0  0  0  0  0  0  0  0
  -22.5295  -28.3358   24.7944 C   0  0  0  0  0  0  0  0  0  0  0  0
  -23.3642  -13.1619   21.8820 N   0  0  0  0  0  0  0  0  0  0  0  0
  -24.1172  -14.2365   21.5918 N   0  0  0  0  0  0  0  0  0  0  0  0
  -24.1784  -29.4902   21.8257 N   0  0  0  0  0  0  0  0  0  0  0  0
  -22.5453  -17.6864   22.0512 N   0  0  0  0  0  0  0  0  0  0  0  0
  -25.9774  -14.9491   20.3102 N   0  0  0  0  0  0  0  0  0  0  0  0
  -25.6407  -10.5589   19.3060 N   0  0  0  0  0  0  0  0  0  0  0  0
  -23.4265  -18.9833   20.2894 N   0  0  0  0  0  0  0  0  0  0  0  0
  -27.3691  -30.8675   22.6338 N   0  0  0  0  0  0  0  0  0  0  0  0
  -21.0127  -29.2888   23.0070 N   0  0  0  0  0  0  0  0  0  0  0  0
  -18.4018  -29.4187   20.5102 N   0  3  0  0  0  0  0  0  0  0  0  0
  -26.8465  -12.4705   18.9182 O   0  0  0  0  0  0  0  0  0  0  0  0
  -26.6329  -28.6718   22.3896 O   0  0  0  0  0  0  0  0  0  0  0  0
  -23.3290  -30.9109   23.4677 O   0  0  0  0  0  0  0  0  0  0  0  0
  -20.4953  -27.7415   21.3591 O   0  0  0  0  0  0  0  0  0  0  0  0
  -22.5284  -19.9948   22.1741 O   0  0  0  0  0  0  0  0  0  0  0  0
  -21.8459   -7.0046   21.3063 O   0  0  0  0  0  0  0  0  0  0  0  0
  -25.4483  -25.6059   17.2048 O   0  0  0  0  0  0  0  0  0  1  0  0
  -20.5772   -4.8899   26.2381 F   0  0  0  0  0  0  0  0  0  0  0  0
  -19.9716   -8.2233   22.9325 F   0  0  0  0  0  0  0  0  0  0  0  0
  1  2  1  0  0  0  0
  1  5  2  0  0  0  0
  2  6  2  0  0  0  0
  3  8  2  0  0  0  0
  3 16  1  0  0  0  0
  4  9  1  0  0  0  0
  4 16  2  0  0  0  0
  5 18  1  0  0  0  0
  6 20  1  0  0  0  0
  7 10  2  0  0  0  0
  7 19  1  0  0  0  0
  8 27  1  0  0  0  0
  9 27  2  0  0  0  0
 10 28  1  0  0  0  0
 11 12  2  0  0  0  0
 11 29  1  0  0  0  0
 12 30  1  0  0  0  0
 13 21  1  0  0  0  0
 13 28  2  0  0  0  0
 14 22  2  0  0  0  0
 14 26  1  0  0  0  0
 15 30  2  0  0  0  0
 15 31  1  0  0  0  0
 16 32  1  0  0  0  0
 17 32  1  0  0  0  0
 17 33  2  0  0  0  0
 17 34  1  0  0  0  0
 18 20  2  0  0  0  0
 18 39  1  0  0  0  0
 19 21  2  0  0  0  0
 19 40  1  0  0  0  0
 20 48  1  0  0  0  0
 21 41  1  0  0  0  0
 22 24  1  0  0  0  0
 22 51  1  0  0  0  0
 23 24  2  0  0  0  0
 23 25  1  0  0  0  0
 23 52  1  0  0  0  0
 24 59  1  0  0  0  0
 25 26  2  0  0  0  0
 25 53  1  0  0  0  0
 26 71  1  0  0  0  0
 27 80  1  0  0  0  0
 28 81  1  0  0  0  0
 29 31  2  0  0  0  0
 29 80  1  0  0  0  0
 30 82  1  0  0  0  0
 31 83  1  0  0  0  0
 32 65  2  0  0  0  0
 33 66  1  0  0  0  0
 33 69  1  0  0  0  0
 34 70  1  0  0  0  0
 34 75  2  0  0  0  0
 35 49  1  0  0  0  0
 35 72  1  0  0  0  0
 35 76  2  0  0  0  0
 36 62  1  0  0  0  0
 36 67  1  0  0  0  0
 36 77  2  0  0  0  0
 37 63  1  0  0  0  0
 37 73  1  0  0  0  0
 37 78  2  0  0  0  0
 38 68  1  0  0  0  0
 38 71  1  0  0  0  0
 38 79  2  0  0  0  0
 39 42  1  0  0  0  0
 40 49  1  0  0  0  0
 41 67  1  0  0  0  0
 42 44  1  0  0  0  0
 43 45  1  0  0  0  0
 43 46  1  0  0  0  0
 44 48  1  0  0  0  0
 45 50  1  0  0  0  0
 46 68  1  0  0  0  0
 47 50  1  0  0  0  0
 47 68  1  0  0  0  0
 48 72  1  0  0  0  0
 49 67  1  0  0  0  0
 50 66  1  0  0  0  0
 54 63  1  0  0  0  0
 55 64  1  0  0  0  0
 56 64  1  0  0  0  0
 57 64  1  0  0  0  0
 58 74  1  0  0  0  0
 59 60  1  0  0  0  0
 60 61  1  0  0  0  0
 61 81  1  0  0  0  0
 62 64  1  0  0  0  0
 62 73  1  0  0  0  0
 63 74  1  0  0  0  0
 65 66  1  0  0  0  0
M  CHG  1  74   1
M  ISO  4  38 100  61 101  71 100  81 101
M  END
> <Batch ID>
0028

> <Smiles>
CNC(C)C(=O)NC(C(=O)N1Cc2cc([101O:1][101CH2:1]CCc3c(C)cc([100NH:0][100C:0](=O)N4CCCC(n5nc(-c6ccc(Oc7ccc(F)cc7F)cc6)c(C(N)=O)c5N)C4)c(C)c3C)ccc2CC1C(=O)NC1CCCc2ccccc21)C(C)(C)C

> <Shape>
0.221

> <Color>
0.106

> <Negative vol penalty>
0.000

$$$$

  -OEChem-04052316333D

 87 95  0     1  0  0  0  0  0999 V2000
  -20.6665  -25.9904   23.1972 C   0  0  0  0  0  0  0  0  0  0  0  0
  -21.9578  -26.5020   23.2571 C   0  0  0  0  0  0  0  0  0  0  0  0
  -24.5265   -9.6687   21.4127 C   0  0  0  0  0  0  0  0  0  0  0  0
  -24.9026  -10.7359   23.5473 C   0  0  0  0  0  0  0  0  0  0  0  0
  -20.1753  -25.4875   21.9943 C   0  0  0  0  0  0  0  0  0  0  0  0
  -22.7542  -26.5217   22.1116 C   0  0  0  0  0  0  0  0  0  0  0  0
  -28.5624  -28.2001   21.3535 C   0  0  0  0  0  0  0  0  0  0  0  0
  -24.2508   -8.4657   22.0626 C   0  0  0  0  0  0  0  0  0  0  0  0
  -24.6269   -9.5330   24.1973 C   0  0  0  0  0  0  0  0  0  0  0  0
  -29.8194  -27.5974   21.3778 C   0  0  0  0  0  0  0  0  0  0  0  0
  -21.6582   -7.0695   23.7246 C   0  0  0  0  0  0  0  0  0  0  0  0
  -20.5477   -6.3416   23.2975 C   0  0  0  0  0  0  0  0  0  0  0  0
  -29.7565  -27.3832   18.9759 C   0  0  0  0  0  0  0  0  0  0  0  0
  -28.2873  -22.1150   20.5572 C   0  0  0  0  0  0  0  0  0  0  0  0
  -21.9814   -4.4756   22.7501 C   0  0  0  0  0  0  0  0  0  0  0  0
  -24.8524  -10.8038   22.1550 C   0  0  0  0  0  0  0  0  0  0  0  0
  -24.2203  -13.0575   21.1406 C   0  0  0  0  0  0  0  0  0  0  0  0
  -20.9711  -25.4900   20.8368 C   0  0  0  0  0  0  0  0  0  0  0  0
  -27.8872  -28.3894   20.1391 C   0  0  0  0  0  0  0  0  0  0  0  0
  -22.2681  -26.0406   20.8824 C   0  0  0  0  0  0  0  0  0  0  0  0
  -28.4922  -27.9909   18.9386 C   0  0  0  0  0  0  0  0  0  0  0  0
  -27.2211  -21.4034   21.0958 C   0  0  0  0  0  0  0  0  0  0  0  0
  -24.3010   -8.3979   23.4549 C   0  0  0  0  0  0  0  0  0  0  0  0
  -30.4153  -27.1862   20.1892 C   0  0  0  0  0  0  0  0  0  0  0  0
  -22.9304   -6.5005   23.6644 C   0  0  0  0  0  0  0  0  0  0  0  0
  -20.7093   -5.0446   22.8103 C   0  0  0  0  0  0  0  0  0  0  0  0
  -23.0920   -5.2036   23.1772 C   0  0  0  0  0  0  0  0  0  0  0  0
  -27.2786  -20.0154   21.1564 C   0  0  0  0  0  0  0  0  0  0  0  0
  -25.1378  -12.0466   21.4841 C   0  0  0  0  0  0  0  0  0  0  0  0
  -29.3793  -21.3973   20.0965 C   0  0  0  0  0  0  0  0  0  0  0  0
  -28.4157  -19.3917   20.6686 C   0  0  0  0  0  0  0  0  0  0  0  0
  -24.9837  -14.0197   20.5259 C   0  0  0  0  0  0  0  0  0  0  0  0
  -22.8045  -13.1210   21.3577 C   0  0  0  0  0  0  0  0  0  0  0  0
  -25.1418  -27.3566   18.9145 C   0  0  0  0  0  0  0  0  0  0  0  0
  -25.8947  -29.4004   16.5107 C   0  0  0  0  0  0  0  0  0  0  0  0
  -28.3111  -31.1058   14.8079 C   0  0  0  0  0  0  0  0  0  0  0  0
  -29.5597  -17.1820   20.2756 C   0  0  0  0  0  0  0  0  0  0  0  0
  -20.3866  -24.9403   19.5596 C   0  0  0  0  0  0  0  0  0  0  0  0
  -26.5436  -29.0654   20.1273 C   0  0  0  0  0  0  0  0  0  0  0  0
  -27.8179  -28.1897   17.6066 C   0  0  0  0  0  0  0  0  0  0  0  0
  -21.4480  -24.5975   18.5193 C   0  0  0  0  0  0  0  0  0  0  0  0
  -29.7860  -13.8928   18.9312 C   0  0  0  0  0  0  0  0  0  0  0  0
  -22.4074  -25.7661   18.3511 C   0  0  0  0  0  0  0  0  0  0  0  0
  -28.5214  -13.2024   19.4473 C   0  0  0  0  0  0  0  0  0  0  0  0
  -30.3701  -14.8534   19.9656 C   0  0  0  0  0  0  0  0  0  0  0  0
  -28.1602  -15.1536   21.0123 C   0  0  0  0  0  0  0  0  0  0  0  0
  -23.1633  -26.0444   19.6565 C   0  0  1  0  0  0  0  0  0  0  0  0
  -25.7229  -28.7418   18.8827 C   0  0  1  0  0  0  0  0  0  0  0  0
  -27.4990  -14.2249   19.9809 C   0  0  2  0  0  0  0  0  0  0  0  0
  -28.6250  -32.6651   12.8669 C   0  0  0  0  0  0  0  0  0  0  0  0
  -26.2400  -23.7028   21.4051 C   0  0  0  0  0  0  0  0  0  0  0  0
  -25.7994  -21.9075   23.1136 C   0  0  0  0  0  0  0  0  0  0  0  0
  -24.6815  -21.8342   20.8941 C   0  0  0  0  0  0  0  0  0  0  0  0
  -25.5273  -27.0667   14.5796 C   0  0  0  0  0  0  0  0  0  0  0  0
  -26.7487  -28.3989   12.8471 C   0  0  0  0  0  0  0  0  0  0  0  0
  -24.5929  -29.2428   13.7760 C   0  0  0  0  0  0  0  0  0  0  0  0
  -29.4210  -33.2299   16.5444 C   0  0  0  0  0  0  0  0  0  0  0  0
  -30.5477  -22.1324   19.5087 C   0  0  0  0  0  0  0  0  0  0  0  0
  -32.9438  -24.7337   20.9760 C   0  0  0  0  0  0  0  0  0  0  0  0
  -32.3773  -23.7780   19.9368 C   0  0  0  0  0  0  0  0  0  0  0  0
  -31.9818  -25.8460   21.3750 C   0  0  0  0  0  0  0  0  0  1  0  0
  -26.6684  -29.2928   15.2189 C   0  0  1  0  0  0  0  0  0  0  0  0
  -28.3997  -32.5557   14.3670 C   0  0  2  0  0  0  0  0  0  0  0  0
  -26.0386  -22.1684   21.5951 C   0  0  0  0  0  0  0  0  0  0  0  0
  -25.8964  -28.4947   14.1305 C   0  0  0  0  0  0  0  0  0  0  0  0
  -26.3885  -12.3394   21.1179 N   0  0  0  0  0  0  0  0  0  0  0  0
  -29.4713  -20.0492   20.1385 N   0  0  0  0  0  0  0  0  0  0  0  0
  -26.2622  -13.5450   20.5379 N   0  0  0  0  0  0  0  0  0  0  0  0
  -26.5025  -28.8496   17.6478 N   0  0  0  0  0  0  0  0  0  0  0  0
  -29.3456  -15.7951   20.4223 N   0  0  0  0  0  0  0  0  0  0  0  0
  -24.6793  -15.2170   19.9817 N   0  0  0  0  0  0  0  0  0  0  0  0
  -22.1788  -12.0464   22.0044 N   0  0  0  0  0  0  0  0  0  0  0  0
  -28.5029  -17.9782   20.7156 N   0  0  0  0  0  0  0  0  0  0  0  0
  -23.9020  -27.2803   19.5200 N   0  0  0  0  0  0  0  0  0  0  0  0
  -27.0073  -30.6578   14.8311 N   0  0  0  0  0  0  0  0  0  0  0  0
  -29.5257  -33.2407   15.0625 N   0  3  0  0  0  0  0  0  0  0  0  0
  -31.1808  -23.0818   20.4654 N   0  3  0  0  0  0  0  0  0  0  0  0
  -22.1121  -14.0943   20.9746 O   0  0  0  0  0  0  0  0  0  0  0  0
  -25.7709  -26.4261   18.4246 O   0  0  0  0  0  0  0  0  0  0  0  0
  -24.7949  -29.9591   16.5122 O   0  0  0  0  0  0  0  0  0  0  0  0
  -29.3000  -30.4364   15.0989 O   0  0  0  0  0  0  0  0  0  0  0  0
  -30.5924  -17.6293   19.7701 O   0  0  0  0  0  0  0  0  0  0  0  0
  -24.0318   -7.2242   24.0896 O   0  0  0  0  0  0  0  0  0  0  0  0
  -31.6418  -26.5970   20.2102 O   0  0  0  0  0  0  0  0  0  1  0  0
  -19.6426   -4.3451   22.4016 F   0  0  0  0  0  0  0  0  0  0  0  0
  -24.3115   -4.6512   23.1181 F   0  0  0  0  0  0  0  0  0  0  0  0
  -25.9640  -19.1132   21.8243 Cl  0  0  0  0  0  0  0  0  0  0  0  0
  1  2  1  0  0  0  0
  1  5  2  0  0  0  0
  2  6  2  0  0  0  0
  3  8  2  0  0  0  0
  3 16  1  0  0  0  0
  4  9  1  0  0  0  0
  4 16  2  0  0  0  0
  5 18  1  0  0  0  0
  6 20  1  0  0  0  0
  7 10  2  0  0  0  0
  7 19  1  0  0  0  0
  8 23  1  0  0  0  0
  9 23  2  0  0  0  0
 10 24  1  0  0  0  0
 11 12  2  0  0  0  0
 11 25  1  0  0  0  0
 12 26  1  0  0  0  0
 13 21  1  0  0  0  0
 13 24  2  0  0  0  0
 14 22  2  0  0  0  0
 14 30  1  0  0  0  0
 15 26  2  0  0  0  0
 15 27  1  0  0  0  0
 16 29  1  0  0  0  0
 17 29  1  0  0  0  0
 17 32  2  0  0  0  0
 17 33  1  0  0  0  0
 18 20  2  0  0  0  0
 18 38  1  0  0  0  0
 19 21  2  0  0  0  0
 19 39  1  0  0  0  0
 20 47  1  0  0  0  0
 21 40  1  0  0  0  0
 22 28  1  0  0  0  0
 22 64  1  0  0  0  0
 23 83  1  0  0  0  0
 24 84  1  0  0  0  0
 25 27  2  0  0  0  0
 25 83  1  0  0  0  0
 26 85  1  0  0  0  0
 27 86  1  0  0  0  0
 28 31  2  0  0  0  0
 28 87  1  0  0  0  0
 29 66  2  0  0  0  0
 30 58  1  0  0  0  0
 30 67  2  0  0  0  0
 31 67  1  0  0  0  0
 31 73  1  0  0  0  0
 32 68  1  0  0  0  0
 32 71  1  0  0  0  0
 33 72  1  0  0  0  0
 33 78  2  0  0  0  0
 34 48  1  0  0  0  0
 34 74  1  0  0  0  0
 34 79  2  0  0  0  0
 35 62  1  0  0  0  0
 35 69  1  0  0  0  0
 35 80  2  0  0  0  0
 36 63  1  0  0  0  0
 36 75  1  0  0  0  0
 36 81  2  0  0  0  0
 37 70  1  0  0  0  0
 37 73  1  0  0  0  0
 37 82  2  0  0  0  0
 38 41  1  0  0  0  0
 39 48  1  0  0  0  0
 40 69  1  0  0  0  0
 41 43  1  0  0  0  0
 42 44  1  0  0  0  0
 42 45  1  0  0  0  0
 43 47  1  0  0  0  0
 44 49  1  0  0  0  0
 45 70  1  0  0  0  0
 46 49  1  0  0  0  0
 46 70  1  0  0  0  0
 47 74  1  0  0  0  0
 48 69  1  0  0  0  0
 49 68  1  0  0  0  0
 50 63  1  0  0  0  0
 51 64  1  0  0  0  0
 52 64  1  0  0  0  0
 53 64  1  0  0  0  0
 54 65  1  0  0  0  0
 55 65  1  0  0  0  0
 56 65  1  0  0  0  0
 57 76  1  0  0  0  0
 58 77  1  0  0  0  0
 59 60  1  0  0  0  0
 59 61  1  0  0  0  0
 60 77  1  0  0  0  0
 61 84  1  0  0  0  0
 62 65  1  0  0  0  0
 62 75  1  0  0  0  0
 63 76  1  0  0  0  0
 66 68  1  0  0  0  0
M  CHG  2  76   1  77   1
M  ISO  4  37 100  61 101  73 100  84 101
M  END
> <Batch ID>
0028

> <Smiles>
CNC(C)C(=O)NC(C(=O)N1Cc2cc([101O:1][101CH2:1]CCNCc3cc(C(C)(C)C)c(Cl)c([100NH:0][100C:0](=O)N4CCCC(n5nc(-c6ccc(Oc7ccc(F)cc7F)cc6)c(C(N)=O)c5N)C4)n3)ccc2CC1C(=O)NC1CCCc2ccccc21)C(C)(C)C

> <Shape>
0.252

> <Color>
0.113

> <Negative vol penalty>
0.000

$$$$

  -OEChem-04052316333D

 85 93  0     1  0  0  0  0  0999 V2000
  -26.9185  -34.6753   24.6987 C   0  0  0  0  0  0  0  0  0  0  0  0
  -27.3003  -33.4140   24.2530 C   0  0  0  0  0  0  0  0  0  0  0  0
  -24.8425  -13.0969   21.7422 C   0  0  0  0  0  0  0  0  0  0  0  0
  -26.0703  -13.2268   19.6655 C   0  0  0  0  0  0  0  0  0  0  0  0
  -25.6049  -34.9008   25.1079 C   0  0  0  0  0  0  0  0  0  0  0  0
  -26.3687  -32.3770   24.2172 C   0  0  0  0  0  0  0  0  0  0  0  0
  -26.5860  -29.7180   19.9128 C   0  0  0  0  0  0  0  0  0  0  0  0
  -24.4275  -11.8058   21.4162 C   0  0  0  0  0  0  0  0  0  0  0  0
  -25.6554  -11.9355   19.3395 C   0  0  0  0  0  0  0  0  0  0  0  0
  -27.6165  -28.7868   19.7910 C   0  0  0  0  0  0  0  0  0  0  0  0
  -25.7265   -8.6844   21.4679 C   0  0  0  0  0  0  0  0  0  0  0  0
  -25.7977   -7.7099   22.4633 C   0  0  0  0  0  0  0  0  0  0  0  0
  -26.0803  -27.0198   20.3715 C   0  0  0  0  0  0  0  0  0  0  0  0
  -23.4129   -7.3622   22.2935 C   0  0  0  0  0  0  0  0  0  0  0  0
  -25.6638  -13.8075   20.8668 C   0  0  0  0  0  0  0  0  0  0  0  0
  -27.2520  -15.5088   21.9111 C   0  0  0  0  0  0  0  0  0  0  0  0
  -24.6544  -33.8685   25.0680 C   0  0  0  0  0  0  0  0  0  0  0  0
  -25.2953  -29.3077   20.2762 C   0  0  0  0  0  0  0  0  0  0  0  0
  -25.0415  -32.5885   24.6275 C   0  0  0  0  0  0  0  0  0  0  0  0
  -25.0346  -27.9474   20.4948 C   0  0  0  0  0  0  0  0  0  0  0  0
  -28.2669  -22.5518   15.2048 C   0  0  0  0  0  0  0  0  0  0  0  0
  -28.3577  -22.6186   16.5951 C   0  0  0  0  0  0  0  0  0  0  0  0
  -26.3380  -21.1101   15.4001 C   0  0  0  0  0  0  0  0  0  0  0  0
  -26.4288  -21.1769   16.7904 C   0  0  0  0  0  0  0  0  0  0  0  0
  -24.8340  -11.2250   20.2149 C   0  0  0  0  0  0  0  0  0  0  0  0
  -27.3644  -27.4379   20.0231 C   0  0  0  0  0  0  0  0  0  0  0  0
  -24.4985   -8.9979   20.8853 C   0  0  0  0  0  0  0  0  0  0  0  0
  -24.6409   -7.0488   22.8761 C   0  0  0  0  0  0  0  0  0  0  0  0
  -23.3417   -8.3368   21.2981 C   0  0  0  0  0  0  0  0  0  0  0  0
  -27.2569  -21.7976   14.6073 C   0  0  0  0  0  0  0  0  0  0  0  0
  -27.4387  -21.9311   17.3879 C   0  0  0  0  0  0  0  0  0  0  0  0
  -26.0922  -15.1415   21.2027 C   0  0  0  0  0  0  0  0  0  0  0  0
  -27.2011  -16.8803   21.9658 C   0  0  0  0  0  0  0  0  0  0  0  0
  -28.2832  -14.6840   22.4698 C   0  0  0  0  0  0  0  0  0  0  0  0
  -23.3551  -29.9100   22.7210 C   0  0  0  0  0  0  0  0  0  0  0  0
  -21.2464  -28.1750   20.9701 C   0  0  0  0  0  0  0  0  0  0  0  0
  -20.7335  -25.8088   18.5650 C   0  0  0  0  0  0  0  0  0  0  0  0
  -24.6015  -21.0093   18.5164 C   0  0  0  0  0  0  0  0  0  0  0  0
  -23.2581  -34.1478   25.5651 C   0  0  0  0  0  0  0  0  0  0  0  0
  -24.1885  -30.3212   20.3774 C   0  0  0  0  0  0  0  0  0  0  0  0
  -23.6617  -27.4529   20.8675 C   0  0  0  0  0  0  0  0  0  0  0  0
  -22.2388  -33.0929   25.1427 C   0  0  0  0  0  0  0  0  0  0  0  0
  -24.0810  -20.5132   22.0035 C   0  0  0  0  0  0  0  0  0  0  0  0
  -22.7901  -31.6912   25.3837 C   0  0  0  0  0  0  0  0  0  0  0  0
  -24.6488  -19.1153   22.2596 C   0  0  0  0  0  0  0  0  0  0  0  0
  -23.3866  -20.6034   20.6458 C   0  0  0  0  0  0  0  0  0  0  0  0
  -24.7646  -18.7636   19.7596 C   0  0  0  0  0  0  0  0  0  0  0  0
  -24.0537  -31.4445   24.5507 C   0  0  1  0  0  0  0  0  0  0  0  0
  -23.0305  -29.8558   21.2549 C   0  0  1  0  0  0  0  0  0  0  0  0
  -25.5302  -18.6416   21.0872 C   0  0  2  0  0  0  0  0  0  0  0  0
  -29.2622  -23.2963   14.3687 C   0  0  0  0  0  0  0  0  0  0  0  0
  -25.2480  -20.2961   14.7706 C   0  0  0  0  0  0  0  0  0  0  0  0
  -18.9012  -24.5730   17.3764 C   0  0  0  0  0  0  0  0  0  0  0  0
  -20.8295  -26.4266   23.4358 C   0  0  0  0  0  0  0  0  0  0  0  0
  -19.7717  -24.7089   21.9530 C   0  0  0  0  0  0  0  0  0  0  0  0
  -18.7385  -26.9685   22.1755 C   0  0  0  0  0  0  0  0  0  0  0  0
  -21.5521  -26.8903   15.9345 C   0  0  0  0  0  0  0  0  0  0  0  0
  -29.4504  -23.4347   17.2202 C   0  0  0  0  0  0  0  0  0  0  0  0
  -30.0133  -25.5257   18.4650 C   0  0  0  0  0  0  0  0  0  0  0  0
  -29.4043  -26.8195   18.9684 C   0  0  0  0  0  0  0  0  0  1  0  0
  -20.8886  -26.7118   20.8704 C   0  0  1  0  0  0  0  0  0  0  0  0
  -19.8188  -25.7855   17.3537 C   0  0  2  0  0  0  0  0  0  0  0  0
  -20.0835  -26.2132   22.1035 C   0  0  0  0  0  0  0  0  0  0  0  0
  -25.3581  -16.1946   20.8339 N   0  0  0  0  0  0  0  0  0  0  0  0
  -26.0582  -17.2372   21.3125 N   0  0  0  0  0  0  0  0  0  0  0  0
  -22.6141  -28.4833   20.9602 N   0  0  0  0  0  0  0  0  0  0  0  0
  -24.2830  -20.1426   19.5833 N   0  0  0  0  0  0  0  0  0  0  0  0
  -28.0228  -17.8037   22.5085 N   0  0  0  0  0  0  0  0  0  0  0  0
  -28.1800  -13.2940   22.3228 N   0  0  0  0  0  0  0  0  0  0  0  0
  -25.4885  -20.4735   17.5833 N   0  0  0  0  0  0  0  0  0  0  0  0
  -23.7052  -31.1678   23.1736 N   0  0  0  0  0  0  0  0  0  0  0  0
  -20.1950  -26.5470   19.5975 N   0  0  0  0  0  0  0  0  0  0  0  0
  -20.6218  -25.7437   16.0989 N   0  3  0  0  0  0  0  0  0  0  0  0
  -28.9654  -24.7224   17.7863 N   0  3  0  0  0  0  0  0  0  0  0  0
  -29.2585  -15.1645   23.0954 O   0  0  0  0  0  0  0  0  0  0  0  0
  -23.2912  -28.8867   23.3921 O   0  0  0  0  0  0  0  0  0  0  0  0
  -20.3454  -29.0140   21.0467 O   0  0  0  0  0  0  0  0  0  0  0  0
  -21.8157  -25.2269   18.5937 O   0  0  0  0  0  0  0  0  0  0  0  0
  -24.1440  -22.1532   18.4508 O   0  0  0  0  0  0  0  0  0  0  0  0
  -24.4295   -9.9650   19.8966 O   0  0  0  0  0  0  0  0  0  0  0  0
  -28.3686  -26.5270   19.9055 O   0  0  0  0  0  0  0  0  0  1  0  0
  -24.7097   -6.1119   23.8309 F   0  0  0  0  0  0  0  0  0  0  0  0
  -22.1592   -8.6327   20.7413 F   0  0  0  0  0  0  0  0  0  0  0  0
  -27.1446  -21.7151   12.8795 Cl  0  0  0  0  0  0  0  0  0  0  0  0
  -27.5568  -22.0179   19.1169 Cl  0  0  0  0  0  0  0  0  0  0  0  0
  1  2  1  0  0  0  0
  1  5  2  0  0  0  0
  2  6  2  0  0  0  0
  3  8  2  0  0  0  0
  3 15  1  0  0  0  0
  4  9  1  0  0  0  0
  4 15  2  0  0  0  0
  5 17  1  0  0  0  0
  6 19  1  0  0  0  0
  7 10  2  0  0  0  0
  7 18  1  0  0  0  0
  8 25  1  0  0  0  0
  9 25  2  0  0  0  0
 10 26  1  0  0  0  0
 11 12  2  0  0  0  0
 11 27  1  0  0  0  0
 12 28  1  0  0  0  0
 13 20  1  0  0  0  0
 13 26  2  0  0  0  0
 14 28  2  0  0  0  0
 14 29  1  0  0  0  0
 15 32  1  0  0  0  0
 16 32  1  0  0  0  0
 16 33  2  0  0  0  0
 16 34  1  0  0  0  0
 17 19  2  0  0  0  0
 17 39  1  0  0  0  0
 18 20  2  0  0  0  0
 18 40  1  0  0  0  0
 19 48  1  0  0  0  0
 20 41  1  0  0  0  0
 21 22  1  0  0  0  0
 21 30  2  0  0  0  0
 21 51  1  0  0  0  0
 22 31  2  0  0  0  0
 22 58  1  0  0  0  0
 23 24  2  0  0  0  0
 23 30  1  0  0  0  0
 23 52  1  0  0  0  0
 24 31  1  0  0  0  0
 24 70  1  0  0  0  0
 25 80  1  0  0  0  0
 26 81  1  0  0  0  0
 27 29  2  0  0  0  0
 27 80  1  0  0  0  0
 28 82  1  0  0  0  0
 29 83  1  0  0  0  0
 30 84  1  0  0  0  0
 31 85  1  0  0  0  0
 32 64  2  0  0  0  0
 33 65  1  0  0  0  0
 33 68  1  0  0  0  0
 34 69  1  0  0  0  0
 34 75  2  0  0  0  0
 35 49  1  0  0  0  0
 35 71  1  0  0  0  0
 35 76  2  0  0  0  0
 36 61  1  0  0  0  0
 36 66  1  0  0  0  0
 36 77  2  0  0  0  0
 37 62  1  0  0  0  0
 37 72  1  0  0  0  0
 37 78  2  0  0  0  0
 38 67  1  0  0  0  0
 38 70  1  0  0  0  0
 38 79  2  0  0  0  0
 39 42  1  0  0  0  0
 40 49  1  0  0  0  0
 41 66  1  0  0  0  0
 42 44  1  0  0  0  0
 43 45  1  0  0  0  0
 43 46  1  0  0  0  0
 44 48  1  0  0  0  0
 45 50  1  0  0  0  0
 46 67  1  0  0  0  0
 47 50  1  0  0  0  0
 47 67  1  0  0  0  0
 48 71  1  0  0  0  0
 49 66  1  0  0  0  0
 50 65  1  0  0  0  0
 53 62  1  0  0  0  0
 54 63  1  0  0  0  0
 55 63  1  0  0  0  0
 56 63  1  0  0  0  0
 57 73  1  0  0  0  0
 58 74  1  0  0  0  0
 59 60  1  0  0  0  0
 59 74  1  0  0  0  0
 60 81  1  0  0  0  0
 61 63  1  0  0  0  0
 61 72  1  0  0  0  0
 62 73  1  0  0  0  0
 64 65  1  0  0  0  0
M  CHG  2  73   1  74   1
M  ISO  4  38 100  60 101  70 100  81 101
M  END
> <Batch ID>
0028

> <Smiles>
CNC(C)C(=O)NC(C(=O)N1Cc2cc([101O:1][101CH2:1]CNCc3c(C)c(Cl)c(C)c([100NH:0][100C:0](=O)N4CCCC(n5nc(-c6ccc(Oc7ccc(F)cc7F)cc6)c(C(N)=O)c5N)C4)c3Cl)ccc2CC1C(=O)NC1CCCc2ccccc21)C(C)(C)C

> <Shape>
0.243

> <Color>
0.082

> <Negative vol penalty>
0.000

$$$$

  -OEChem-04052316333D

 87 95  0     1  0  0  0  0  0999 V2000
  -27.6420  -24.9782   16.0587 C   0  0  0  0  0  0  0  0  0  0  0  0
  -26.5760  -25.7852   16.4398 C   0  0  0  0  0  0  0  0  0  0  0  0
  -27.9007  -13.2300   20.3008 C   0  0  0  0  0  0  0  0  0  0  0  0
  -25.7723  -13.7419   19.2786 C   0  0  0  0  0  0  0  0  0  0  0  0
  -28.7130  -24.7877   16.9294 C   0  0  0  0  0  0  0  0  0  0  0  0
  -26.5859  -26.4114   17.6867 C   0  0  0  0  0  0  0  0  0  0  0  0
  -22.9742  -29.6236   18.6033 C   0  0  0  0  0  0  0  0  0  0  0  0
  -27.4630  -11.9316   20.5620 C   0  0  0  0  0  0  0  0  0  0  0  0
  -25.3345  -12.4435   19.5398 C   0  0  0  0  0  0  0  0  0  0  0  0
  -21.6566  -29.2307   18.8339 C   0  0  0  0  0  0  0  0  0  0  0  0
  -24.1529  -10.6972   22.1827 C   0  0  0  0  0  0  0  0  0  0  0  0
  -22.8714  -10.5392   22.7105 C   0  0  0  0  0  0  0  0  0  0  0  0
  -21.9621  -29.6137   21.1960 C   0  0  0  0  0  0  0  0  0  0  0  0
  -21.0285  -22.1056   20.6709 C   0  0  0  0  0  0  0  0  0  0  0  0
  -22.2436   -9.2152   20.7895 C   0  0  0  0  0  0  0  0  0  0  0  0
  -27.0553  -14.1352   19.6591 C   0  0  0  0  0  0  0  0  0  0  0  0
  -28.1707  -15.9344   18.2356 C   0  0  0  0  0  0  0  0  0  0  0  0
  -28.7294  -25.4022   18.1923 C   0  0  0  0  0  0  0  0  0  0  0  0
  -23.8004  -30.0048   19.6704 C   0  0  0  0  0  0  0  0  0  0  0  0
  -27.6688  -26.2506   18.5699 C   0  0  0  0  0  0  0  0  0  0  0  0
  -23.2891  -30.0135   20.9759 C   0  0  0  0  0  0  0  0  0  0  0  0
  -21.1924  -23.3686   20.1021 C   0  0  0  0  0  0  0  0  0  0  0  0
  -22.1452  -21.3249   20.9695 C   0  0  0  0  0  0  0  0  0  0  0  0
  -22.4730  -23.8509   19.8318 C   0  0  0  0  0  0  0  0  0  0  0  0
  -23.4258  -21.8072   20.6992 C   0  0  0  0  0  0  0  0  0  0  0  0
  -26.1799  -11.5384   20.1815 C   0  0  0  0  0  0  0  0  0  0  0  0
  -21.1512  -29.2229   20.1307 C   0  0  0  0  0  0  0  0  0  0  0  0
  -24.4797  -10.1143   20.9583 C   0  0  0  0  0  0  0  0  0  0  0  0
  -21.9168   -9.7982   22.0139 C   0  0  0  0  0  0  0  0  0  0  0  0
  -23.5250   -9.3733   20.2618 C   0  0  0  0  0  0  0  0  0  0  0  0
  -23.5897  -23.0702   20.1303 C   0  0  0  0  0  0  0  0  0  0  0  0
  -27.5067  -15.4767   19.3895 C   0  0  0  0  0  0  0  0  0  0  0  0
  -28.3800  -17.2719   18.4677 C   0  0  0  0  0  0  0  0  0  0  0  0
  -28.5631  -15.2150   17.0592 C   0  0  0  0  0  0  0  0  0  0  0  0
  -26.5138  -28.9068   20.9095 C   0  0  0  0  0  0  0  0  0  0  0  0
  -26.3006  -31.5738   22.7437 C   0  0  0  0  0  0  0  0  0  0  0  0
  -24.3262  -33.9938   24.1192 C   0  0  0  0  0  0  0  0  0  0  0  0
  -25.5936  -21.3076   21.8814 C   0  0  0  0  0  0  0  0  0  0  0  0
  -29.9173  -25.1679   19.0919 C   0  0  0  0  0  0  0  0  0  0  0  0
  -25.2114  -30.4516   19.4019 C   0  0  0  0  0  0  0  0  0  0  0  0
  -24.1288  -30.4333   22.1537 C   0  0  0  0  0  0  0  0  0  0  0  0
  -29.6341  -25.5084   20.5514 C   0  0  0  0  0  0  0  0  0  0  0  0
  -29.0318  -20.3959   22.0384 C   0  0  0  0  0  0  0  0  0  0  0  0
  -28.9997  -26.8877   20.6497 C   0  0  0  0  0  0  0  0  0  0  0  0
  -29.0923  -19.0757   21.2667 C   0  0  0  0  0  0  0  0  0  0  0  0
  -27.7428  -20.5204   22.8489 C   0  0  0  0  0  0  0  0  0  0  0  0
  -26.5667  -18.9959   21.3121 C   0  0  0  0  0  0  0  0  0  0  0  0
  -27.6436  -26.9174   19.9334 C   0  0  1  0  0  0  0  0  0  0  0  0
  -26.1196  -30.3278   20.6213 C   0  0  1  0  0  0  0  0  0  0  0  0
  -27.8175  -18.8533   20.4295 C   0  0  2  0  0  0  0  0  0  0  0  0
  -21.9350  -19.9765   21.5796 C   0  0  0  0  0  0  0  0  0  0  0  0
  -22.6250  -25.2102   19.2216 C   0  0  0  0  0  0  0  0  0  0  0  0
  -24.4324  -36.0158   25.6016 C   0  0  0  0  0  0  0  0  0  0  0  0
  -26.5857  -29.7659   25.1851 C   0  0  0  0  0  0  0  0  0  0  0  0
  -25.7453  -31.6558   26.5959 C   0  0  0  0  0  0  0  0  0  0  0  0
  -27.8719  -31.9067   25.3163 C   0  0  0  0  0  0  0  0  0  0  0  0
  -18.1116  -26.6498   22.8920 C   0  0  0  0  0  0  0  0  0  0  0  0
  -17.1294  -28.0702   21.0865 C   0  0  0  0  0  0  0  0  0  0  0  0
  -23.3049  -35.7616   21.9767 C   0  0  0  0  0  0  0  0  0  0  0  0
  -19.9734  -24.1869   19.7931 C   0  0  0  0  0  0  0  0  0  0  0  0
  -18.5971  -26.1676   20.4423 C   0  0  0  0  0  0  0  0  0  0  0  0
  -19.5839  -28.2271   21.6166 C   0  0  0  0  0  0  0  0  0  1  0  0
  -25.6701  -31.9090   24.0737 C   0  0  1  0  0  0  0  0  0  0  0  0
  -24.4716  -35.5040   24.1701 C   0  0  2  0  0  0  0  0  0  0  0  0
  -26.4527  -31.2995   25.2710 C   0  0  0  0  0  0  0  0  0  0  0  0
  -18.3787  -27.2670   21.5067 C   0  0  0  0  0  0  0  0  0  0  0  0
  -27.3075  -16.4447   20.2880 N   0  0  0  0  0  0  0  0  0  0  0  0
  -27.8496  -17.5241   19.6987 N   0  0  0  0  0  0  0  0  0  0  0  0
  -25.5040  -30.8557   21.8406 N   0  0  0  0  0  0  0  0  0  0  0  0
  -26.5772  -20.3019   21.9895 N   0  0  0  0  0  0  0  0  0  0  0  0
  -28.9642  -18.2450   17.7369 N   0  0  0  0  0  0  0  0  0  0  0  0
  -28.2707  -13.8463   16.9843 N   0  0  0  0  0  0  0  0  0  0  0  0
  -24.5486  -21.0009   21.0104 N   0  0  0  0  0  0  0  0  0  0  0  0
  -27.1742  -28.2838   19.8677 N   0  0  0  0  0  0  0  0  0  0  0  0
  -25.5521  -33.3625   24.1147 N   0  0  0  0  0  0  0  0  0  0  0  0
  -23.3700  -36.1564   23.4074 N   0  3  0  0  0  0  0  0  0  0  0  0
  -19.7600  -25.3020   20.7558 N   0  3  0  0  0  0  0  0  0  0  0  0
  -29.1702  -15.7658   16.1096 O   0  0  0  0  0  0  0  0  0  0  0  0
  -26.2405  -28.4126   21.9971 O   0  0  0  0  0  0  0  0  0  0  0  0
  -27.4549  -31.9418   22.5117 O   0  0  0  0  0  0  0  0  0  0  0  0
  -23.2344  -33.4303   24.0903 O   0  0  0  0  0  0  0  0  0  0  0  0
  -25.6862  -22.3745   22.4940 O   0  0  0  0  0  0  0  0  0  0  0  0
  -25.7525  -10.2715   20.4361 O   0  0  0  0  0  0  0  0  0  0  0  0
  -19.8657  -28.8392   20.3587 O   0  0  0  0  0  0  0  0  0  1  0  0
  -20.6867   -9.6452   22.5216 F   0  0  0  0  0  0  0  0  0  0  0  0
  -23.8335   -8.8099   19.0856 F   0  0  0  0  0  0  0  0  0  0  0  0
  -25.1797  -23.6757   19.7901 Cl  0  0  0  0  0  0  0  0  0  0  0  0
  1  2  1  0  0  0  0
  1  5  2  0  0  0  0
  2  6  2  0  0  0  0
  3  8  2  0  0  0  0
  3 16  1  0  0  0  0
  4  9  1  0  0  0  0
  4 16  2  0  0  0  0
  5 18  1  0  0  0  0
  6 20  1  0  0  0  0
  7 10  2  0  0  0  0
  7 19  1  0  0  0  0
  8 26  1  0  0  0  0
  9 26  2  0  0  0  0
 10 27  1  0  0  0  0
 11 12  2  0  0  0  0
 11 28  1  0  0  0  0
 12 29  1  0  0  0  0
 13 21  1  0  0  0  0
 13 27  2  0  0  0  0
 14 22  1  0  0  0  0
 14 23  2  0  0  0  0
 15 29  2  0  0  0  0
 15 30  1  0  0  0  0
 16 32  1  0  0  0  0
 17 32  1  0  0  0  0
 17 33  2  0  0  0  0
 17 34  1  0  0  0  0
 18 20  2  0  0  0  0
 18 39  1  0  0  0  0
 19 21  2  0  0  0  0
 19 40  1  0  0  0  0
 20 48  1  0  0  0  0
 21 41  1  0  0  0  0
 22 24  2  0  0  0  0
 22 60  1  0  0  0  0
 23 25  1  0  0  0  0
 23 51  1  0  0  0  0
 24 31  1  0  0  0  0
 24 52  1  0  0  0  0
 25 31  2  0  0  0  0
 25 73  1  0  0  0  0
 26 83  1  0  0  0  0
 27 84  1  0  0  0  0
 28 30  2  0  0  0  0
 28 83  1  0  0  0  0
 29 85  1  0  0  0  0
 30 86  1  0  0  0  0
 31 87  1  0  0  0  0
 32 67  2  0  0  0  0
 33 68  1  0  0  0  0
 33 71  1  0  0  0  0
 34 72  1  0  0  0  0
 34 78  2  0  0  0  0
 35 49  1  0  0  0  0
 35 74  1  0  0  0  0
 35 79  2  0  0  0  0
 36 63  1  0  0  0  0
 36 69  1  0  0  0  0
 36 80  2  0  0  0  0
 37 64  1  0  0  0  0
 37 75  1  0  0  0  0
 37 81  2  0  0  0  0
 38 70  1  0  0  0  0
 38 73  1  0  0  0  0
 38 82  2  0  0  0  0
 39 42  1  0  0  0  0
 40 49  1  0  0  0  0
 41 69  1  0  0  0  0
 42 44  1  0  0  0  0
 43 45  1  0  0  0  0
 43 46  1  0  0  0  0
 44 48  1  0  0  0  0
 45 50  1  0  0  0  0
 46 70  1  0  0  0  0
 47 50  1  0  0  0  0
 47 70  1  0  0  0  0
 48 74  1  0  0  0  0
 49 69  1  0  0  0  0
 50 68  1  0  0  0  0
 53 64  1  0  0  0  0
 54 65  1  0  0  0  0
 55 65  1  0  0  0  0
 56 65  1  0  0  0  0
 57 66  1  0  0  0  0
 58 66  1  0  0  0  0
 59 76  1  0  0  0  0
 60 77  1  0  0  0  0
 61 66  1  0  0  0  0
 61 77  1  0  0  0  0
 62 66  1  0  0  0  0
 62 84  1  0  0  0  0
 63 65  1  0  0  0  0
 63 75  1  0  0  0  0
 64 76  1  0  0  0  0
 67 68  1  0  0  0  0
M  CHG  2  76   1  77   1
M  ISO  4  38 100  62 101  73 100  84 101
M  END
> <Batch ID>
0028

> <Smiles>
CNC(C)C(=O)NC(C(=O)N1Cc2cc([101O:1][101CH2:1]C(C)(C)CNCc3cc(C)c([100NH:0][100C:0](=O)N4CCCC(n5nc(-c6ccc(Oc7ccc(F)cc7F)cc6)c(C(N)=O)c5N)C4)c(Cl)c3C)ccc2CC1C(=O)NC1CCCc2ccccc21)C(C)(C)C

> <Shape>
0.296

> <Color>
0.065

> <Negative vol penalty>
0.000

$$$$

  -OEChem-04052316333D

 87 95  0     1  0  0  0  0  0999 V2000
  -19.4372   -9.4046   20.9905 C   0  0  0  0  0  0  0  0  0  0  0  0
  -19.7360  -10.6914   21.4265 C   0  0  0  0  0  0  0  0  0  0  0  0
  -24.5301  -29.8071   23.6584 C   0  0  0  0  0  0  0  0  0  0  0  0
  -24.1101  -31.2787   21.7889 C   0  0  0  0  0  0  0  0  0  0  0  0
  -20.4656   -8.4921   20.7585 C   0  0  0  0  0  0  0  0  0  0  0  0
  -21.0633  -11.0662   21.6319 C   0  0  0  0  0  0  0  0  0  0  0  0
  -22.1112  -15.6345   19.7143 C   0  0  0  0  0  0  0  0  0  0  0  0
  -24.5031  -30.9000   24.5247 C   0  0  0  0  0  0  0  0  0  0  0  0
  -24.0830  -32.3716   22.6552 C   0  0  0  0  0  0  0  0  0  0  0  0
  -21.6920  -16.7441   20.4471 C   0  0  0  0  0  0  0  0  0  0  0  0
  -26.3193  -34.3269   24.2696 C   0  0  0  0  0  0  0  0  0  0  0  0
  -27.0162  -35.4734   23.8885 C   0  0  0  0  0  0  0  0  0  0  0  0
  -23.9265  -17.0055   21.3178 C   0  0  0  0  0  0  0  0  0  0  0  0
  -25.8065  -22.9922   20.3011 C   0  0  0  0  0  0  0  0  0  0  0  0
  -24.9608  -36.7420   23.9462 C   0  0  0  0  0  0  0  0  0  0  0  0
  -24.3337  -29.9965   22.2904 C   0  0  0  0  0  0  0  0  0  0  0  0
  -23.2741  -28.0637   21.0061 C   0  0  0  0  0  0  0  0  0  0  0  0
  -21.8067   -8.8588   20.9518 C   0  0  0  0  0  0  0  0  0  0  0  0
  -23.4408  -15.1948   19.7863 C   0  0  0  0  0  0  0  0  0  0  0  0
  -22.1105  -10.1573   21.4036 C   0  0  0  0  0  0  0  0  0  0  0  0
  -24.3606  -15.8916   20.5829 C   0  0  0  0  0  0  0  0  0  0  0  0
  -25.2410  -23.2551   21.5487 C   0  0  0  0  0  0  0  0  0  0  0  0
  -25.9980  -23.8795   22.5400 C   0  0  0  0  0  0  0  0  0  0  0  0
  -27.3207  -24.2410   22.2836 C   0  0  0  0  0  0  0  0  0  0  0  0
  -27.8862  -23.9780   21.0360 C   0  0  0  0  0  0  0  0  0  0  0  0
  -24.2795  -32.1822   24.0231 C   0  0  0  0  0  0  0  0  0  0  0  0
  -22.5990  -17.4280   21.2512 C   0  0  0  0  0  0  0  0  0  0  0  0
  -24.9431  -34.3878   24.4891 C   0  0  0  0  0  0  0  0  0  0  0  0
  -26.3369  -36.6810   23.7268 C   0  0  0  0  0  0  0  0  0  0  0  0
  -24.2639  -35.5954   24.3274 C   0  0  0  0  0  0  0  0  0  0  0  0
  -27.1292  -23.3535   20.0447 C   0  0  0  0  0  0  0  0  0  0  0  0
  -24.3621  -28.8680   21.3950 C   0  0  0  0  0  0  0  0  0  0  0  0
  -23.8203  -27.1366   20.1526 C   0  0  0  0  0  0  0  0  0  0  0  0
  -21.8932  -28.1473   21.3827 C   0  0  0  0  0  0  0  0  0  0  0  0
  -24.8712  -12.5241   20.7481 C   0  0  0  0  0  0  0  0  0  0  0  0
  -27.5217  -13.9857   19.5814 C   0  0  0  0  0  0  0  0  0  0  0  0
  -29.1000  -16.8979   18.7600 C   0  0  0  0  0  0  0  0  0  0  0  0
  -29.6325  -25.2543   19.7660 C   0  0  0  0  0  0  0  0  0  0  0  0
  -22.8812   -7.8233   20.7333 C   0  0  0  0  0  0  0  0  0  0  0  0
  -23.8834  -14.0123   18.9689 C   0  0  0  0  0  0  0  0  0  0  0  0
  -25.8039  -15.4723   20.6791 C   0  0  0  0  0  0  0  0  0  0  0  0
  -24.2831   -8.4158   20.6153 C   0  0  0  0  0  0  0  0  0  0  0  0
  -27.4240  -26.5101   17.0755 C   0  0  0  0  0  0  0  0  0  0  0  0
  -24.5250   -9.4392   21.7203 C   0  0  0  0  0  0  0  0  0  0  0  0
  -26.3414  -27.2612   17.8482 C   0  0  0  0  0  0  0  0  0  0  0  0
  -28.7545  -26.5078   17.8223 C   0  0  0  0  0  0  0  0  0  0  0  0
  -27.5707  -26.7243   19.9887 C   0  0  0  0  0  0  0  0  0  0  0  0
  -23.5394  -10.6091   21.6140 C   0  0  1  0  0  0  0  0  0  0  0  0
  -25.1399  -13.3434   19.5175 C   0  0  1  0  0  0  0  0  0  0  0  0
  -26.2101  -26.7063   19.2761 C   0  0  1  0  0  0  0  0  0  0  0  0
  -25.3887  -24.1596   23.8775 C   0  0  0  0  0  0  0  0  0  0  0  0
  -28.1277  -24.9111   23.3521 C   0  0  0  0  0  0  0  0  0  0  0  0
  -31.2740  -17.7758   17.8655 C   0  0  0  0  0  0  0  0  0  0  0  0
  -22.7250  -17.5495   24.1020 C   0  0  0  0  0  0  0  0  0  0  0  0
  -28.8317  -13.4984   22.2937 C   0  0  0  0  0  0  0  0  0  0  0  0
  -30.5750  -15.1862   21.6769 C   0  0  0  0  0  0  0  0  0  0  0  0
  -30.3257  -13.1030   20.3275 C   0  0  0  0  0  0  0  0  0  0  0  0
  -30.3105  -23.5820   21.4320 C   0  0  0  0  0  0  0  0  0  0  0  0
  -27.7776  -18.0985   16.4002 C   0  0  0  0  0  0  0  0  0  0  0  0
  -23.8162  -22.8567   21.7980 C   0  0  0  0  0  0  0  0  0  0  0  0
  -22.2669  -20.0154   23.8532 C   0  0  0  0  0  0  0  0  0  0  0  0
  -22.2948  -21.2643   22.9763 C   0  0  0  0  0  0  0  0  0  0  0  0
  -28.5691  -14.9126   20.1496 C   0  0  1  0  0  0  0  0  0  0  0  0
  -29.8682  -17.3116   17.5178 C   0  0  2  0  0  0  0  0  0  0  0  0
  -22.8695  -18.7673   23.1978 C   0  0  2  0  0  0  0  0  0  1  0  0
  -29.5478  -14.1820   21.1118 C   0  0  0  0  0  0  0  0  0  0  0  0
  -25.5125  -28.4852   20.8346 N   0  0  0  0  0  0  0  0  0  0  0  0
  -25.1505  -27.4302   20.0850 N   0  0  0  0  0  0  0  0  0  0  0  0
  -26.1867  -14.3063   19.8658 N   0  0  0  0  0  0  0  0  0  0  0  0
  -28.6034  -26.0338   19.1989 N   0  0  0  0  0  0  0  0  0  0  0  0
  -23.2877  -26.1069   19.4608 N   0  0  0  0  0  0  0  0  0  0  0  0
  -21.5025  -29.1604   22.2689 N   0  0  0  0  0  0  0  0  0  0  0  0
  -23.9439  -11.5167   20.5618 N   0  0  0  0  0  0  0  0  0  0  0  0
  -29.2169  -15.5463   19.0063 N   0  0  0  0  0  0  0  0  0  0  0  0
  -29.2550  -24.3560   20.7823 N   0  0  0  0  0  0  0  0  0  0  0  0
  -29.1646  -18.4250   16.8205 N   0  3  0  0  0  0  0  0  0  0  0  0
  -23.6903  -21.6478   22.6584 N   0  3  0  0  0  0  0  0  0  0  0  0
  -21.0342  -27.3372   20.9592 O   0  0  0  0  0  0  0  0  0  0  0  0
  -25.4625  -12.7856   21.7890 O   0  0  0  0  0  0  0  0  0  0  0  0
  -27.8747  -13.0171   18.9041 O   0  0  0  0  0  0  0  0  0  0  0  0
  -28.4632  -17.6948   19.4456 O   0  0  0  0  0  0  0  0  0  0  0  0
  -30.8156  -25.3882   19.4301 O   0  0  0  0  0  0  0  0  0  0  0  0
  -24.2527  -33.2488   24.8682 O   0  0  0  0  0  0  0  0  0  0  0  0
  -22.1924  -18.5109   21.9680 O   0  0  0  0  0  0  0  0  0  1  0  0
  -27.0066  -37.7823   23.3622 F   0  0  0  0  0  0  0  0  0  0  0  0
  -22.9420  -35.6604   24.5379 F   0  0  0  0  0  0  0  0  0  0  0  0
  -27.7873  -23.0077   18.4844 Cl  0  0  0  0  0  0  0  0  0  0  0  0
  1  2  1  0  0  0  0
  1  5  2  0  0  0  0
  2  6  2  0  0  0  0
  3  8  2  0  0  0  0
  3 16  1  0  0  0  0
  4  9  1  0  0  0  0
  4 16  2  0  0  0  0
  5 18  1  0  0  0  0
  6 20  1  0  0  0  0
  7 10  2  0  0  0  0
  7 19  1  0  0  0  0
  8 26  1  0  0  0  0
  9 26  2  0  0  0  0
 10 27  1  0  0  0  0
 11 12  2  0  0  0  0
 11 28  1  0  0  0  0
 12 29  1  0  0  0  0
 13 21  1  0  0  0  0
 13 27  2  0  0  0  0
 14 22  1  0  0  0  0
 14 31  2  0  0  0  0
 15 29  2  0  0  0  0
 15 30  1  0  0  0  0
 16 32  1  0  0  0  0
 17 32  1  0  0  0  0
 17 33  2  0  0  0  0
 17 34  1  0  0  0  0
 18 20  2  0  0  0  0
 18 39  1  0  0  0  0
 19 21  2  0  0  0  0
 19 40  1  0  0  0  0
 20 48  1  0  0  0  0
 21 41  1  0  0  0  0
 22 23  2  0  0  0  0
 22 60  1  0  0  0  0
 23 24  1  0  0  0  0
 23 51  1  0  0  0  0
 24 25  2  0  0  0  0
 24 52  1  0  0  0  0
 25 31  1  0  0  0  0
 25 75  1  0  0  0  0
 26 83  1  0  0  0  0
 27 84  1  0  0  0  0
 28 30  2  0  0  0  0
 28 83  1  0  0  0  0
 29 85  1  0  0  0  0
 30 86  1  0  0  0  0
 31 87  1  0  0  0  0
 32 67  2  0  0  0  0
 33 68  1  0  0  0  0
 33 71  1  0  0  0  0
 34 72  1  0  0  0  0
 34 78  2  0  0  0  0
 35 49  1  0  0  0  0
 35 73  1  0  0  0  0
 35 79  2  0  0  0  0
 36 63  1  0  0  0  0
 36 69  1  0  0  0  0
 36 80  2  0  0  0  0
 37 64  1  0  0  0  0
 37 74  1  0  0  0  0
 37 81  2  0  0  0  0
 38 70  1  0  0  0  0
 38 75  1  0  0  0  0
 38 82  2  0  0  0  0
 39 42  1  0  0  0  0
 40 49  1  0  0  0  0
 41 69  1  0  0  0  0
 42 44  1  0  0  0  0
 43 45  1  0  0  0  0
 43 46  1  0  0  0  0
 44 48  1  0  0  0  0
 45 50  1  0  0  0  0
 46 70  1  0  0  0  0
 47 50  1  0  0  0  0
 47 70  1  0  0  0  0
 48 73  1  0  0  0  0
 49 69  1  0  0  0  0
 50 68  1  0  0  0  0
 53 64  1  0  0  0  0
 54 65  1  0  0  0  0
 55 66  1  0  0  0  0
 56 66  1  0  0  0  0
 57 66  1  0  0  0  0
 58 75  1  0  0  0  0
 59 76  1  0  0  0  0
 60 77  1  0  0  0  0
 61 62  1  0  0  0  0
 61 65  1  0  0  0  0
 62 77  1  0  0  0  0
 63 66  1  0  0  0  0
 63 74  1  0  0  0  0
 64 76  1  0  0  0  0
 65 84  1  0  0  0  0
 67 68  1  0  0  0  0
M  CHG  2  76   1  77   1
M  ISO  4  38 100  65 101  75 100  84 101
M  END
> <Batch ID>
0028

> <Smiles>
CNC(C)C(=O)NC(C(=O)N1Cc2cc([101O:1][101CH:1](C)CCNCc3cc(Cl)c([100N:0](C)[100C:0](=O)N4CCCC(n5nc(-c6ccc(Oc7ccc(F)cc7F)cc6)c(C(N)=O)c5N)C4)c(C)c3C)ccc2CC1C(=O)NC1CCCc2ccccc21)C(C)(C)C

> <Shape>
0.283

> <Color>
0.061

> <Negative vol penalty>
0.000

$$$$

  -OEChem-04052316333D

 84 92  0     1  0  0  0  0  0999 V2000
  -27.9850  -24.6173   16.8752 C   0  0  0  0  0  0  0  0  0  0  0  0
  -26.8048  -24.8392   17.5776 C   0  0  0  0  0  0  0  0  0  0  0  0
  -25.8421  -12.1691   19.9633 C   0  0  0  0  0  0  0  0  0  0  0  0
  -24.2007  -12.9081   21.5748 C   0  0  0  0  0  0  0  0  0  0  0  0
  -29.1909  -25.1170   17.3650 C   0  0  0  0  0  0  0  0  0  0  0  0
  -26.8301  -25.5601   18.7709 C   0  0  0  0  0  0  0  0  0  0  0  0
  -23.1039  -28.9777   19.0553 C   0  0  0  0  0  0  0  0  0  0  0  0
  -26.0185  -10.9883   20.6845 C   0  0  0  0  0  0  0  0  0  0  0  0
  -24.3771  -11.7272   22.2960 C   0  0  0  0  0  0  0  0  0  0  0  0
  -21.8312  -28.5069   19.3750 C   0  0  0  0  0  0  0  0  0  0  0  0
  -24.1314   -8.7486   24.3661 C   0  0  0  0  0  0  0  0  0  0  0  0
  -22.9895   -8.0863   24.8167 C   0  0  0  0  0  0  0  0  0  0  0  0
  -22.1511  -29.2115   21.6598 C   0  0  0  0  0  0  0  0  0  0  0  0
  -22.0744  -21.9317   23.3732 C   0  0  0  0  0  0  0  0  0  0  0  0
  -24.2485  -22.6458   21.7776 C   0  0  0  0  0  0  0  0  0  0  0  0
  -22.2307   -7.8428   22.5359 C   0  0  0  0  0  0  0  0  0  0  0  0
  -24.9333  -13.1291   20.4086 C   0  0  0  0  0  0  0  0  0  0  0  0
  -23.8326  -14.5809   18.6230 C   0  0  0  0  0  0  0  0  0  0  0  0
  -29.2295  -25.8527   18.5600 C   0  0  0  0  0  0  0  0  0  0  0  0
  -23.9154  -29.5601   20.0395 C   0  0  0  0  0  0  0  0  0  0  0  0
  -28.0378  -26.0690   19.2779 C   0  0  0  0  0  0  0  0  0  0  0  0
  -23.4327  -29.6913   21.3494 C   0  0  0  0  0  0  0  0  0  0  0  0
  -22.1871  -23.2357   22.8912 C   0  0  0  0  0  0  0  0  0  0  0  0
  -24.1357  -21.3418   22.2597 C   0  0  0  0  0  0  0  0  0  0  0  0
  -25.2859  -10.7673   21.8508 C   0  0  0  0  0  0  0  0  0  0  0  0
  -21.3557  -28.6212   20.6781 C   0  0  0  0  0  0  0  0  0  0  0  0
  -24.3230   -8.9580   23.0004 C   0  0  0  0  0  0  0  0  0  0  0  0
  -22.0392   -7.6334   23.9016 C   0  0  0  0  0  0  0  0  0  0  0  0
  -23.3726   -8.5051   22.0853 C   0  0  0  0  0  0  0  0  0  0  0  0
  -23.0487  -20.9847   23.0575 C   0  0  0  0  0  0  0  0  0  0  0  0
  -23.2741  -23.5928   22.0934 C   0  0  0  0  0  0  0  0  0  0  0  0
  -24.7511  -14.3494   19.6644 C   0  0  0  0  0  0  0  0  0  0  0  0
  -24.0548  -15.8848   18.2527 C   0  0  0  0  0  0  0  0  0  0  0  0
  -22.8649  -13.6965   18.0423 C   0  0  0  0  0  0  0  0  0  0  0  0
  -26.7404  -28.8626   21.3189 C   0  0  0  0  0  0  0  0  0  0  0  0
  -26.3313  -31.7133   22.8117 C   0  0  0  0  0  0  0  0  0  0  0  0
  -24.1804  -34.1122   23.9367 C   0  0  0  0  0  0  0  0  0  0  0  0
  -26.2732  -20.6255   21.1352 C   0  0  0  0  0  0  0  0  0  0  0  0
  -30.5637  -26.3324   19.0744 C   0  0  0  0  0  0  0  0  0  0  0  0
  -25.2755  -30.0872   19.6725 C   0  0  0  0  0  0  0  0  0  0  0  0
  -24.2566  -30.3270   22.4382 C   0  0  0  0  0  0  0  0  0  0  0  0
  -30.4502  -27.4069   20.1527 C   0  0  0  0  0  0  0  0  0  0  0  0
  -27.5062  -19.2018   18.1137 C   0  0  0  0  0  0  0  0  0  0  0  0
  -29.4107  -27.0088   21.1957 C   0  0  0  0  0  0  0  0  0  0  0  0
  -26.8513  -17.8193   18.0706 C   0  0  0  0  0  0  0  0  0  0  0  0
  -27.8816  -19.6074   19.5379 C   0  0  0  0  0  0  0  0  0  0  0  0
  -26.1333  -18.1444   20.4718 C   0  0  0  0  0  0  0  0  0  0  0  0
  -28.0208  -26.8675   20.5633 C   0  0  1  0  0  0  0  0  0  0  0  0
  -26.2165  -30.1968   20.8683 C   0  0  1  0  0  0  0  0  0  0  0  0
  -25.6785  -17.7200   19.0658 C   0  0  2  0  0  0  0  0  0  0  0  0
  -24.1389  -36.3079   25.1510 C   0  0  0  0  0  0  0  0  0  0  0  0
  -26.8256  -30.2611   25.4493 C   0  0  0  0  0  0  0  0  0  0  0  0
  -25.8515  -32.2368   26.6393 C   0  0  0  0  0  0  0  0  0  0  0  0
  -27.9205  -32.5025   25.2713 C   0  0  0  0  0  0  0  0  0  0  0  0
  -22.9626  -35.5004   21.6240 C   0  0  0  0  0  0  0  0  0  0  0  0
  -21.1179  -24.2241   23.2530 C   0  0  0  0  0  0  0  0  0  0  0  0
  -18.6694  -26.2512   21.1183 C   0  0  0  0  0  0  0  0  0  0  0  0
  -19.3125  -25.7189   22.3900 C   0  0  0  0  0  0  0  0  0  0  0  0
  -19.6208  -27.0545   20.2400 C   0  0  0  0  0  0  0  0  0  1  0  0
  -25.7016  -32.1601   24.1090 C   0  0  1  0  0  0  0  0  0  0  0  0
  -24.1931  -35.6235   23.7941 C   0  0  2  0  0  0  0  0  0  0  0  0
  -26.5598  -31.7764   25.3474 C   0  0  0  0  0  0  0  0  0  0  0  0
  -25.5011  -15.4202   19.9380 N   0  0  0  0  0  0  0  0  0  0  0  0
  -25.0542  -16.3372   19.0630 N   0  0  0  0  0  0  0  0  0  0  0  0
  -25.5823  -30.8213   22.0311 N   0  0  0  0  0  0  0  0  0  0  0  0
  -26.7207  -19.4925   20.4233 N   0  0  0  0  0  0  0  0  0  0  0  0
  -23.4909  -16.6769   17.3162 N   0  0  0  0  0  0  0  0  0  0  0  0
  -22.7686  -12.3906   18.5420 N   0  0  0  0  0  0  0  0  0  0  0  0
  -25.1418  -20.4038   21.9197 N   0  0  0  0  0  0  0  0  0  0  0  0
  -27.4312  -28.1705   20.3425 N   0  0  0  0  0  0  0  0  0  0  0  0
  -25.4568  -33.5918   23.9720 N   0  0  0  0  0  0  0  0  0  0  0  0
  -23.0225  -36.0779   22.9914 N   0  3  0  0  0  0  0  0  0  0  0  0
  -20.4175  -24.7867   22.0654 N   0  3  0  0  0  0  0  0  0  0  0  0
  -22.1194  -14.0486   17.0970 O   0  0  0  0  0  0  0  0  0  0  0  0
  -26.5345  -28.4893   22.4678 O   0  0  0  0  0  0  0  0  0  0  0  0
  -27.4435  -32.1455   22.4990 O   0  0  0  0  0  0  0  0  0  0  0  0
  -23.1421  -33.4591   24.0132 O   0  0  0  0  0  0  0  0  0  0  0  0
  -26.8348  -21.7193   21.0337 O   0  0  0  0  0  0  0  0  0  0  0  0
  -25.4576   -9.6150   22.5546 O   0  0  0  0  0  0  0  0  0  0  0  0
  -20.1140  -28.1619   20.9930 O   0  0  0  0  0  0  0  0  0  1  0  0
  -20.9434   -6.9961   24.3344 F   0  0  0  0  0  0  0  0  0  0  0  0
  -23.5517   -8.7024   20.7720 F   0  0  0  0  0  0  0  0  0  0  0  0
  -22.8709  -19.3814   23.6757 Cl  0  0  0  0  0  0  0  0  0  0  0  0
  -23.4468  -25.1972   21.4804 Cl  0  0  0  0  0  0  0  0  0  0  0  0
  1  2  1  0  0  0  0
  1  5  2  0  0  0  0
  2  6  2  0  0  0  0
  3  8  2  0  0  0  0
  3 17  1  0  0  0  0
  4  9  1  0  0  0  0
  4 17  2  0  0  0  0
  5 19  1  0  0  0  0
  6 21  1  0  0  0  0
  7 10  2  0  0  0  0
  7 20  1  0  0  0  0
  8 25  1  0  0  0  0
  9 25  2  0  0  0  0
 10 26  1  0  0  0  0
 11 12  2  0  0  0  0
 11 27  1  0  0  0  0
 12 28  1  0  0  0  0
 13 22  1  0  0  0  0
 13 26  2  0  0  0  0
 14 23  1  0  0  0  0
 14 30  2  0  0  0  0
 15 24  2  0  0  0  0
 15 31  1  0  0  0  0
 16 28  2  0  0  0  0
 16 29  1  0  0  0  0
 17 32  1  0  0  0  0
 18 32  1  0  0  0  0
 18 33  2  0  0  0  0
 18 34  1  0  0  0  0
 19 21  2  0  0  0  0
 19 39  1  0  0  0  0
 20 22  2  0  0  0  0
 20 40  1  0  0  0  0
 21 48  1  0  0  0  0
 22 41  1  0  0  0  0
 23 31  2  0  0  0  0
 23 56  1  0  0  0  0
 24 30  1  0  0  0  0
 24 69  1  0  0  0  0
 25 79  1  0  0  0  0
 26 80  1  0  0  0  0
 27 29  2  0  0  0  0
 27 79  1  0  0  0  0
 28 81  1  0  0  0  0
 29 82  1  0  0  0  0
 30 83  1  0  0  0  0
 31 84  1  0  0  0  0
 32 63  2  0  0  0  0
 33 64  1  0  0  0  0
 33 67  1  0  0  0  0
 34 68  1  0  0  0  0
 34 74  2  0  0  0  0
 35 49  1  0  0  0  0
 35 70  1  0  0  0  0
 35 75  2  0  0  0  0
 36 60  1  0  0  0  0
 36 65  1  0  0  0  0
 36 76  2  0  0  0  0
 37 61  1  0  0  0  0
 37 71  1  0  0  0  0
 37 77  2  0  0  0  0
 38 66  1  0  0  0  0
 38 69  1  0  0  0  0
 38 78  2  0  0  0  0
 39 42  1  0  0  0  0
 40 49  1  0  0  0  0
 41 65  1  0  0  0  0
 42 44  1  0  0  0  0
 43 45  1  0  0  0  0
 43 46  1  0  0  0  0
 44 48  1  0  0  0  0
 45 50  1  0  0  0  0
 46 66  1  0  0  0  0
 47 50  1  0  0  0  0
 47 66  1  0  0  0  0
 48 70  1  0  0  0  0
 49 65  1  0  0  0  0
 50 64  1  0  0  0  0
 51 61  1  0  0  0  0
 52 62  1  0  0  0  0
 53 62  1  0  0  0  0
 54 62  1  0  0  0  0
 55 72  1  0  0  0  0
 56 73  1  0  0  0  0
 57 58  1  0  0  0  0
 57 59  1  0  0  0  0
 58 73  1  0  0  0  0
 59 80  1  0  0  0  0
 60 62  1  0  0  0  0
 60 71  1  0  0  0  0
 61 72  1  0  0  0  0
 63 64  1  0  0  0  0
M  CHG  2  72   1  73   1
M  ISO  4  38 100  59 101  69 100  80 101
M  END
> <Batch ID>
0028

> <Smiles>
CNC(C)C(=O)NC(C(=O)N1Cc2cc([101O:1][101CH2:1]CCNCc3cc(Cl)c([100NH:0][100C:0](=O)N4CCCC(n5nc(-c6ccc(Oc7ccc(F)cc7F)cc6)c(C(N)=O)c5N)C4)cc3Cl)ccc2CC1C(=O)NC1CCCc2ccccc21)C(C)(C)C

> <Shape>
0.295

> <Color>
0.078

> <Negative vol penalty>
0.000

$$$$

  -OEChem-04052316333D

 84 92  0     1  0  0  0  0  0999 V2000
  -25.0088  -18.1779   14.7443 C   0  0  0  0  0  0  0  0  0  0  0  0
  -26.0563  -17.8658   15.6051 C   0  0  0  0  0  0  0  0  0  0  0  0
  -24.5078  -30.9245   20.8856 C   0  0  0  0  0  0  0  0  0  0  0  0
  -24.6765  -29.6580   22.9361 C   0  0  0  0  0  0  0  0  0  0  0  0
  -23.6941  -17.9072   15.1213 C   0  0  0  0  0  0  0  0  0  0  0  0
  -25.7894  -17.2838   16.8439 C   0  0  0  0  0  0  0  0  0  0  0  0
  -28.8959  -13.4226   17.8858 C   0  0  0  0  0  0  0  0  0  0  0  0
  -23.7326  -31.8814   21.5404 C   0  0  0  0  0  0  0  0  0  0  0  0
  -23.9013  -30.6150   23.5910 C   0  0  0  0  0  0  0  0  0  0  0  0
  -30.1823  -13.7396   18.3199 C   0  0  0  0  0  0  0  0  0  0  0  0
  -24.2369  -34.4867   23.6359 C   0  0  0  0  0  0  0  0  0  0  0  0
  -24.5404  -35.8298   23.4133 C   0  0  0  0  0  0  0  0  0  0  0  0
  -29.5078  -13.3288   20.5993 C   0  0  0  0  0  0  0  0  0  0  0  0
  -30.8335  -20.5156   20.8122 C   0  0  0  0  0  0  0  0  0  0  0  0
  -28.8633  -19.1845   21.2403 C   0  0  0  0  0  0  0  0  0  0  0  0
  -22.3167  -36.1875   22.5392 C   0  0  0  0  0  0  0  0  0  0  0  0
  -24.9797  -29.8127   21.5834 C   0  0  0  0  0  0  0  0  0  0  0  0
  -27.1821  -28.8058   20.7813 C   0  0  0  0  0  0  0  0  0  0  0  0
  -23.4117  -17.3127   16.3612 C   0  0  0  0  0  0  0  0  0  0  0  0
  -27.9012  -13.0663   18.8077 C   0  0  0  0  0  0  0  0  0  0  0  0
  -24.4696  -17.0062   17.2383 C   0  0  0  0  0  0  0  0  0  0  0  0
  -28.2103  -13.0053   20.1741 C   0  0  0  0  0  0  0  0  0  0  0  0
  -30.2478  -19.3453   21.2947 C   0  0  0  0  0  0  0  0  0  0  0  0
  -30.0347  -21.5253   20.2753 C   0  0  0  0  0  0  0  0  0  0  0  0
  -28.6502  -21.3646   20.2210 C   0  0  0  0  0  0  0  0  0  0  0  0
  -23.4294  -31.7267   22.8931 C   0  0  0  0  0  0  0  0  0  0  0  0
  -30.4876  -13.6956   19.6771 C   0  0  0  0  0  0  0  0  0  0  0  0
  -22.9732  -33.9940   23.3101 C   0  0  0  0  0  0  0  0  0  0  0  0
  -23.5803  -36.6802   22.8649 C   0  0  0  0  0  0  0  0  0  0  0  0
  -22.0131  -34.8444   22.7618 C   0  0  0  0  0  0  0  0  0  0  0  0
  -28.0645  -20.1942   20.7035 C   0  0  0  0  0  0  0  0  0  0  0  0
  -25.7801  -28.8235   20.9074 C   0  0  0  0  0  0  0  0  0  0  0  0
  -27.4474  -27.6686   20.0581 C   0  0  0  0  0  0  0  0  0  0  0  0
  -28.1573  -29.7341   21.2739 C   0  0  0  0  0  0  0  0  0  0  0  0
  -25.0917  -14.2850   19.6593 C   0  0  0  0  0  0  0  0  0  0  0  0
  -24.8934  -11.5761   21.4326 C   0  0  0  0  0  0  0  0  0  0  0  0
  -26.5152   -9.0277   23.0207 C   0  0  0  0  0  0  0  0  0  0  0  0
  -26.6313  -22.2613   19.0102 C   0  0  0  0  0  0  0  0  0  0  0  0
  -21.9713  -17.0824   16.7446 C   0  0  0  0  0  0  0  0  0  0  0  0
  -26.5256  -12.7012   18.3209 C   0  0  0  0  0  0  0  0  0  0  0  0
  -27.1836  -12.6090   21.2024 C   0  0  0  0  0  0  0  0  0  0  0  0
  -21.7995  -16.1207   17.9176 C   0  0  0  0  0  0  0  0  0  0  0  0
  -24.3387  -24.5604   17.5489 C   0  0  0  0  0  0  0  0  0  0  0  0
  -22.7657  -16.4743   19.0438 C   0  0  0  0  0  0  0  0  0  0  0  0
  -24.6246  -25.8730   18.2820 C   0  0  0  0  0  0  0  0  0  0  0  0
  -24.4638  -23.3535   18.4770 C   0  0  0  0  0  0  0  0  0  0  0  0
  -26.0176  -24.5773   19.9457 C   0  0  0  0  0  0  0  0  0  0  0  0
  -24.2222  -16.3514   18.5800 C   0  0  1  0  0  0  0  0  0  0  0  0
  -25.4525  -12.8506   19.3949 C   0  0  1  0  0  0  0  0  0  0  0  0
  -25.9674  -25.8161   19.0365 C   0  0  2  0  0  0  0  0  0  0  0  0
  -30.6936  -22.7667   19.7668 C   0  0  0  0  0  0  0  0  0  0  0  0
  -26.0866   -6.9865   24.4162 C   0  0  0  0  0  0  0  0  0  0  0  0
  -24.3376  -13.3499   23.8522 C   0  0  0  0  0  0  0  0  0  0  0  0
  -24.8611  -11.3912   25.3210 C   0  0  0  0  0  0  0  0  0  0  0  0
  -22.9400  -11.2794   23.7336 C   0  0  0  0  0  0  0  0  0  0  0  0
  -27.7554   -7.2484   21.0069 C   0  0  0  0  0  0  0  0  0  0  0  0
  -31.1071  -18.2588   21.8712 C   0  0  0  0  0  0  0  0  0  0  0  0
  -33.4386  -15.6953   20.2423 C   0  0  0  0  0  0  0  0  0  0  0  0
  -32.7476  -16.4424   21.3730 C   0  0  0  0  0  0  0  0  0  0  0  0
  -32.4789  -14.9473   19.3251 C   0  0  0  0  0  0  0  0  0  1  0  0
  -25.3001  -11.1822   22.8321 C   0  0  1  0  0  0  0  0  0  0  0  0
  -26.2879   -7.5268   23.0089 C   0  0  2  0  0  0  0  0  0  0  0  0
  -24.3787  -11.8101   23.9158 C   0  0  0  0  0  0  0  0  0  0  0  0
  -25.1956  -27.7805   20.3119 N   0  0  0  0  0  0  0  0  0  0  0  0
  -26.2354  -27.0968   19.8046 N   0  0  0  0  0  0  0  0  0  0  0  0
  -25.8513  -12.2672   20.6774 N   0  0  0  0  0  0  0  0  0  0  0  0
  -25.7624  -23.3637   19.1541 N   0  0  0  0  0  0  0  0  0  0  0  0
  -28.5969  -27.1121   19.6207 N   0  0  0  0  0  0  0  0  0  0  0  0
  -27.7128  -30.8487   21.9981 N   0  0  0  0  0  0  0  0  0  0  0  0
  -27.8506  -22.3980   19.6728 N   0  0  0  0  0  0  0  0  0  0  0  0
  -24.6269  -14.9623   18.5481 N   0  0  0  0  0  0  0  0  0  0  0  0
  -25.3372   -9.7239   22.8512 N   0  0  0  0  0  0  0  0  0  0  0  0
  -27.4570   -6.8306   22.4010 N   0  3  0  0  0  0  0  0  0  0  0  0
  -31.8405  -17.4825   20.8335 N   0  3  0  0  0  0  0  0  0  0  0  0
  -29.3854  -29.5885   21.0637 O   0  0  0  0  0  0  0  0  0  0  0  0
  -25.2237  -14.7430   20.7882 O   0  0  0  0  0  0  0  0  0  0  0  0
  -23.7697  -11.2751   21.0221 O   0  0  0  0  0  0  0  0  0  0  0  0
  -27.6261   -9.5320   23.1694 O   0  0  0  0  0  0  0  0  0  0  0  0
  -26.3279  -21.2809   18.3256 O   0  0  0  0  0  0  0  0  0  0  0  0
  -22.6731  -32.6605   23.5325 O   0  0  0  0  0  0  0  0  0  0  0  0
  -31.7423  -14.0052   20.1036 O   0  0  0  0  0  0  0  0  0  1  0  0
  -23.8715  -37.9703   22.6526 F   0  0  0  0  0  0  0  0  0  0  0  0
  -20.7971  -34.3770   22.4478 F   0  0  0  0  0  0  0  0  0  0  0  0
  -26.3540  -19.9508   20.6567 Cl  0  0  0  0  0  0  0  0  0  0  0  0
  1  2  1  0  0  0  0
  1  5  2  0  0  0  0
  2  6  2  0  0  0  0
  3  8  2  0  0  0  0
  3 17  1  0  0  0  0
  4  9  1  0  0  0  0
  4 17  2  0  0  0  0
  5 19  1  0  0  0  0
  6 21  1  0  0  0  0
  7 10  2  0  0  0  0
  7 20  1  0  0  0  0
  8 26  1  0  0  0  0
  9 26  2  0  0  0  0
 10 27  1  0  0  0  0
 11 12  2  0  0  0  0
 11 28  1  0  0  0  0
 12 29  1  0  0  0  0
 13 22  1  0  0  0  0
 13 27  2  0  0  0  0
 14 23  1  0  0  0  0
 14 24  2  0  0  0  0
 15 23  2  0  0  0  0
 15 31  1  0  0  0  0
 16 29  2  0  0  0  0
 16 30  1  0  0  0  0
 17 32  1  0  0  0  0
 18 32  1  0  0  0  0
 18 33  2  0  0  0  0
 18 34  1  0  0  0  0
 19 21  2  0  0  0  0
 19 39  1  0  0  0  0
 20 22  2  0  0  0  0
 20 40  1  0  0  0  0
 21 48  1  0  0  0  0
 22 41  1  0  0  0  0
 23 57  1  0  0  0  0
 24 25  1  0  0  0  0
 24 51  1  0  0  0  0
 25 31  2  0  0  0  0
 25 70  1  0  0  0  0
 26 80  1  0  0  0  0
 27 81  1  0  0  0  0
 28 30  2  0  0  0  0
 28 80  1  0  0  0  0
 29 82  1  0  0  0  0
 30 83  1  0  0  0  0
 31 84  1  0  0  0  0
 32 64  2  0  0  0  0
 33 65  1  0  0  0  0
 33 68  1  0  0  0  0
 34 69  1  0  0  0  0
 34 75  2  0  0  0  0
 35 49  1  0  0  0  0
 35 71  1  0  0  0  0
 35 76  2  0  0  0  0
 36 61  1  0  0  0  0
 36 66  1  0  0  0  0
 36 77  2  0  0  0  0
 37 62  1  0  0  0  0
 37 72  1  0  0  0  0
 37 78  2  0  0  0  0
 38 67  1  0  0  0  0
 38 70  1  0  0  0  0
 38 79  2  0  0  0  0
 39 42  1  0  0  0  0
 40 49  1  0  0  0  0
 41 66  1  0  0  0  0
 42 44  1  0  0  0  0
 43 45  1  0  0  0  0
 43 46  1  0  0  0  0
 44 48  1  0  0  0  0
 45 50  1  0  0  0  0
 46 67  1  0  0  0  0
 47 50  1  0  0  0  0
 47 67  1  0  0  0  0
 48 71  1  0  0  0  0
 49 66  1  0  0  0  0
 50 65  1  0  0  0  0
 52 62  1  0  0  0  0
 53 63  1  0  0  0  0
 54 63  1  0  0  0  0
 55 63  1  0  0  0  0
 56 73  1  0  0  0  0
 57 74  1  0  0  0  0
 58 59  1  0  0  0  0
 58 60  1  0  0  0  0
 59 74  1  0  0  0  0
 60 81  1  0  0  0  0
 61 63  1  0  0  0  0
 61 72  1  0  0  0  0
 62 73  1  0  0  0  0
 64 65  1  0  0  0  0
M  CHG  2  73   1  74   1
M  ISO  4  38 100  60 101  70 100  81 101
M  END
> <Batch ID>
0028

> <Smiles>
CNC(C)C(=O)NC(C(=O)N1Cc2cc([101O:1][101CH2:1]CCNCc3cc(C)c([100NH:0][100C:0](=O)N4CCCC(n5nc(-c6ccc(Oc7ccc(F)cc7F)cc6)c(C(N)=O)c5N)C4)c(Cl)c3)ccc2CC1C(=O)NC1CCCc2ccccc21)C(C)(C)C

> <Shape>
0.240

> <Color>
0.076

> <Negative vol penalty>
0.000

$$$$

  -OEChem-04052316333D

 86 94  0     1  0  0  0  0  0999 V2000
  -26.3771  -34.2120   13.1521 C   0  0  0  0  0  0  0  0  0  0  0  0
  -26.3603  -32.9047   13.6277 C   0  0  0  0  0  0  0  0  0  0  0  0
  -22.8616  -10.3426   19.9240 C   0  0  0  0  0  0  0  0  0  0  0  0
  -23.8935   -9.7321   22.0216 C   0  0  0  0  0  0  0  0  0  0  0  0
  -26.8874  -35.2359   13.9489 C   0  0  0  0  0  0  0  0  0  0  0  0
  -26.8549  -32.6205   14.9001 C   0  0  0  0  0  0  0  0  0  0  0  0
  -24.7600  -28.3930   18.8046 C   0  0  0  0  0  0  0  0  0  0  0  0
  -22.0390   -9.2189   20.0016 C   0  0  0  0  0  0  0  0  0  0  0  0
  -23.0707   -8.6084   22.0992 C   0  0  0  0  0  0  0  0  0  0  0  0
  -25.1853  -27.0993   19.1032 C   0  0  0  0  0  0  0  0  0  0  0  0
  -22.9467   -5.5132   20.7444 C   0  0  0  0  0  0  0  0  0  0  0  0
  -23.5364   -4.3021   21.1064 C   0  0  0  0  0  0  0  0  0  0  0  0
  -26.4375  -27.9507   20.9811 C   0  0  0  0  0  0  0  0  0  0  0  0
  -26.2319  -21.1588   21.2714 C   0  0  0  0  0  0  0  0  0  0  0  0
  -22.0840   -4.1707   23.0327 C   0  0  0  0  0  0  0  0  0  0  0  0
  -23.7889  -10.5992   20.9339 C   0  0  0  0  0  0  0  0  0  0  0  0
  -24.3723  -13.0458   21.3600 C   0  0  0  0  0  0  0  0  0  0  0  0
  -27.3797  -34.9656   15.2355 C   0  0  0  0  0  0  0  0  0  0  0  0
  -25.1798  -29.4785   19.5868 C   0  0  0  0  0  0  0  0  0  0  0  0
  -27.3736  -33.6416   15.7144 C   0  0  0  0  0  0  0  0  0  0  0  0
  -26.0141  -29.2569   20.6918 C   0  0  0  0  0  0  0  0  0  0  0  0
  -25.7048  -22.3617   20.8147 C   0  0  0  0  0  0  0  0  0  0  0  0
  -26.5216  -23.2590   20.1359 C   0  0  0  0  0  0  0  0  0  0  0  0
  -22.1435   -8.3518   21.0892 C   0  0  0  0  0  0  0  0  0  0  0  0
  -26.0264  -26.8783   20.1898 C   0  0  0  0  0  0  0  0  0  0  0  0
  -21.9257   -6.0532   21.5266 C   0  0  0  0  0  0  0  0  0  0  0  0
  -23.1050   -3.6309   22.2505 C   0  0  0  0  0  0  0  0  0  0  0  0
  -21.4943   -5.3819   22.6707 C   0  0  0  0  0  0  0  0  0  0  0  0
  -24.6394  -11.7595   20.8541 C   0  0  0  0  0  0  0  0  0  0  0  0
  -27.8480  -22.9091   19.9410 C   0  0  0  0  0  0  0  0  0  0  0  0
  -27.5712  -20.9028   21.0255 C   0  0  0  0  0  0  0  0  0  0  0  0
  -25.4832  -13.7825   21.0289 C   0  0  0  0  0  0  0  0  0  0  0  0
  -23.2228  -13.5312   22.0662 C   0  0  0  0  0  0  0  0  0  0  0  0
  -26.8674  -32.1165   19.0416 C   0  0  0  0  0  0  0  0  0  0  0  0
  -26.0335  -32.8137   22.0979 C   0  0  0  0  0  0  0  0  0  0  0  0
  -25.0577  -31.6799   25.1653 C   0  0  0  0  0  0  0  0  0  0  0  0
  -31.0244  -14.3343   20.6597 C   0  0  0  0  0  0  0  0  0  0  0  0
  -27.9649  -36.0981   16.0416 C   0  0  0  0  0  0  0  0  0  0  0  0
  -24.6907  -30.8646   19.2675 C   0  0  0  0  0  0  0  0  0  0  0  0
  -26.4769  -30.3857   21.5751 C   0  0  0  0  0  0  0  0  0  0  0  0
  -28.1254  -35.7711   17.5240 C   0  0  0  0  0  0  0  0  0  0  0  0
  -29.3629  -12.6958   17.9705 C   0  0  0  0  0  0  0  0  0  0  0  0
  -28.7619  -34.3962   17.7016 C   0  0  0  0  0  0  0  0  0  0  0  0
  -27.9667  -12.4070   18.5248 C   0  0  0  0  0  0  0  0  0  0  0  0
  -30.4381  -12.5495   19.0450 C   0  0  0  0  0  0  0  0  0  0  0  0
  -28.8063  -13.0498   20.8228 C   0  0  0  0  0  0  0  0  0  0  0  0
  -27.8784  -33.2973   17.0988 C   0  0  1  0  0  0  0  0  0  0  0  0
  -25.5945  -31.9602   19.8245 C   0  0  1  0  0  0  0  0  0  0  0  0
  -27.6824  -13.2391   19.7897 C   0  0  2  0  0  0  0  0  0  0  0  0
  -28.7731  -23.8335   19.2190 C   0  0  0  0  0  0  0  0  0  0  0  0
  -24.0730  -23.6624   22.2047 C   0  0  0  0  0  0  0  0  0  0  0  0
  -24.4900  -32.4842   27.4736 C   0  0  0  0  0  0  0  0  0  0  0  0
  -28.9997  -33.2291   22.6801 C   0  0  0  0  0  0  0  0  0  0  0  0
  -28.4691  -33.0850   25.1226 C   0  0  0  0  0  0  0  0  0  0  0  0
  -27.4831  -34.9119   23.7395 C   0  0  0  0  0  0  0  0  0  0  0  0
  -22.3034  -30.6119   24.9857 C   0  0  0  0  0  0  0  0  0  0  0  0
  -24.2648  -22.6665   21.0646 C   0  0  0  0  0  0  0  0  0  0  0  0
  -25.9806  -24.5660   19.6355 C   0  0  0  0  0  0  0  0  0  1  0  0
  -29.7303  -17.9174   21.9115 C   0  0  0  0  0  0  0  0  0  0  0  0
  -31.1877  -17.4747   21.7302 C   0  0  0  0  0  0  0  0  0  0  0  0
  -29.4568  -19.2933   21.3075 C   0  0  0  0  0  0  0  0  0  0  0  0
  -31.4630  -16.1048   22.3426 C   0  0  0  0  0  0  0  0  0  0  0  0
  -26.6339  -32.5473   23.4571 C   0  0  1  0  0  0  0  0  0  0  0  0
  -23.9472  -32.1280   26.0983 C   0  0  2  0  0  0  0  0  0  0  0  0
  -27.8895  -33.4221   23.7323 C   0  0  0  0  0  0  0  0  0  0  0  0
  -25.8268  -11.6804   20.2475 N   0  0  0  0  0  0  0  0  0  0  0  0
  -28.3958  -21.7500   20.3698 N   0  0  0  0  0  0  0  0  0  0  0  0
  -26.3156  -12.9262   20.3701 N   0  0  0  0  0  0  0  0  0  0  0  0
  -25.9766  -31.7235   21.2181 N   0  0  0  0  0  0  0  0  0  0  0  0
  -30.1094  -13.3650   20.2167 N   0  0  0  0  0  0  0  0  0  0  0  0
  -25.8194  -15.0728   21.2399 N   0  0  0  0  0  0  0  0  0  0  0  0
  -22.1715  -12.6408   22.3234 N   0  0  0  0  0  0  0  0  0  0  0  0
  -28.0950  -19.6736   21.4972 N   0  0  0  0  0  0  0  0  0  0  0  0
  -26.7714  -32.9978   17.9817 N   0  0  0  0  0  0  0  0  0  0  0  0
  -25.5554  -32.7297   24.4226 N   0  0  0  0  0  0  0  0  0  0  0  0
  -30.6320  -15.0676   21.7728 N   0  0  0  0  0  0  0  0  0  0  0  0
  -22.9363  -31.0448   26.2581 N   0  3  0  0  0  0  0  0  0  0  0  0
  -23.1237  -14.7235   22.4432 O   0  0  0  0  0  0  0  0  0  0  0  0
  -27.8633  -31.4853   19.3754 O   0  0  0  0  0  0  0  0  0  0  0  0
  -25.6234  -33.9457   21.8292 O   0  0  0  0  0  0  0  0  0  0  0  0
  -25.4474  -30.5159   25.1043 O   0  0  0  0  0  0  0  0  0  0  0  0
  -32.1082  -14.5352   20.1011 O   0  0  0  0  0  0  0  0  0  0  0  0
  -21.3407   -7.2553   21.1654 O   0  0  0  0  0  0  0  0  0  0  0  0
  -26.4435  -25.6166   20.4831 O   0  0  0  0  0  0  0  0  0  1  0  0
  -23.6703   -2.4671   22.5972 F   0  0  0  0  0  0  0  0  0  0  0  0
  -20.5131   -5.8951   23.4254 F   0  0  0  0  0  0  0  0  0  0  0  0
  1  2  1  0  0  0  0
  1  5  2  0  0  0  0
  2  6  2  0  0  0  0
  3  8  2  0  0  0  0
  3 16  1  0  0  0  0
  4  9  1  0  0  0  0
  4 16  2  0  0  0  0
  5 18  1  0  0  0  0
  6 20  1  0  0  0  0
  7 10  2  0  0  0  0
  7 19  1  0  0  0  0
  8 24  1  0  0  0  0
  9 24  2  0  0  0  0
 10 25  1  0  0  0  0
 11 12  2  0  0  0  0
 11 26  1  0  0  0  0
 12 27  1  0  0  0  0
 13 21  1  0  0  0  0
 13 25  2  0  0  0  0
 14 22  1  0  0  0  0
 14 31  2  0  0  0  0
 15 27  2  0  0  0  0
 15 28  1  0  0  0  0
 16 29  1  0  0  0  0
 17 29  1  0  0  0  0
 17 32  2  0  0  0  0
 17 33  1  0  0  0  0
 18 20  2  0  0  0  0
 18 38  1  0  0  0  0
 19 21  2  0  0  0  0
 19 39  1  0  0  0  0
 20 47  1  0  0  0  0
 21 40  1  0  0  0  0
 22 23  2  0  0  0  0
 22 57  1  0  0  0  0
 23 30  1  0  0  0  0
 23 58  1  0  0  0  0
 24 83  1  0  0  0  0
 25 84  1  0  0  0  0
 26 28  2  0  0  0  0
 26 83  1  0  0  0  0
 27 85  1  0  0  0  0
 28 86  1  0  0  0  0
 29 66  2  0  0  0  0
 30 50  1  0  0  0  0
 30 67  2  0  0  0  0
 31 67  1  0  0  0  0
 31 73  1  0  0  0  0
 32 68  1  0  0  0  0
 32 71  1  0  0  0  0
 33 72  1  0  0  0  0
 33 78  2  0  0  0  0
 34 48  1  0  0  0  0
 34 74  1  0  0  0  0
 34 79  2  0  0  0  0
 35 63  1  0  0  0  0
 35 69  1  0  0  0  0
 35 80  2  0  0  0  0
 36 64  1  0  0  0  0
 36 75  1  0  0  0  0
 36 81  2  0  0  0  0
 37 70  1  0  0  0  0
 37 76  1  0  0  0  0
 37 82  2  0  0  0  0
 38 41  1  0  0  0  0
 39 48  1  0  0  0  0
 40 69  1  0  0  0  0
 41 43  1  0  0  0  0
 42 44  1  0  0  0  0
 42 45  1  0  0  0  0
 43 47  1  0  0  0  0
 44 49  1  0  0  0  0
 45 70  1  0  0  0  0
 46 49  1  0  0  0  0
 46 70  1  0  0  0  0
 47 74  1  0  0  0  0
 48 69  1  0  0  0  0
 49 68  1  0  0  0  0
 51 57  1  0  0  0  0
 52 64  1  0  0  0  0
 53 65  1  0  0  0  0
 54 65  1  0  0  0  0
 55 65  1  0  0  0  0
 56 77  1  0  0  0  0
 58 84  1  0  0  0  0
 59 60  1  0  0  0  0
 59 61  1  0  0  0  0
 60 62  1  0  0  0  0
 61 73  1  0  0  0  0
 62 76  1  0  0  0  0
 63 65  1  0  0  0  0
 63 75  1  0  0  0  0
 64 77  1  0  0  0  0
 66 68  1  0  0  0  0
M  CHG  1  77   1
M  ISO  4  37 100  58 101  76 100  84 101
M  END
> <Batch ID>
0028

> <Smiles>
CCc1cc(NCCCC[100NH:0][100C:0](=O)N2CCCC(n3nc(-c4ccc(Oc5ccc(F)cc5F)cc4)c(C(N)=O)c3N)C2)nc(C)c1[101CH2:1][101O:1]c1ccc2c(c1)CN(C(=O)C(NC(=O)C(C)NC)C(C)(C)C)C(C(=O)NC1CCCc3ccccc31)C2

> <Shape>
0.325

> <Color>
0.175

> <Negative vol penalty>
0.000

$$$$

  -OEChem-04052316333D

 84 92  0     1  0  0  0  0  0999 V2000
  -43.0579  -23.5242   14.3002 C   0  0  0  0  0  0  0  0  0  0  0  0
  -41.9615  -23.9266   15.0560 C   0  0  0  0  0  0  0  0  0  0  0  0
  -23.0772   -9.8662   19.9398 C   0  0  0  0  0  0  0  0  0  0  0  0
  -23.8364   -9.8728   22.2334 C   0  0  0  0  0  0  0  0  0  0  0  0
  -42.8632  -22.9098   13.0639 C   0  0  0  0  0  0  0  0  0  0  0  0
  -40.6696  -23.7158   14.5754 C   0  0  0  0  0  0  0  0  0  0  0  0
  -35.6868  -22.3773   17.8748 C   0  0  0  0  0  0  0  0  0  0  0  0
  -22.3343   -8.7123   20.1890 C   0  0  0  0  0  0  0  0  0  0  0  0
  -23.0934   -8.7190   22.4827 C   0  0  0  0  0  0  0  0  0  0  0  0
  -34.6392  -23.1634   18.3527 C   0  0  0  0  0  0  0  0  0  0  0  0
  -21.1103   -5.9797   23.8176 C   0  0  0  0  0  0  0  0  0  0  0  0
  -20.3538   -5.9350   24.9885 C   0  0  0  0  0  0  0  0  0  0  0  0
  -33.3114  -22.5494   16.4346 C   0  0  0  0  0  0  0  0  0  0  0  0
  -31.1460  -17.7005   20.6012 C   0  0  0  0  0  0  0  0  0  0  0  0
  -29.6837  -19.2757   22.3798 C   0  0  0  0  0  0  0  0  0  0  0  0
  -19.1078   -7.8715   24.2574 C   0  0  0  0  0  0  0  0  0  0  0  0
  -23.8284  -10.4464   20.9620 C   0  0  0  0  0  0  0  0  0  0  0  0
  -24.1682  -12.9719   20.8431 C   0  0  0  0  0  0  0  0  0  0  0  0
  -41.5681  -22.6826   12.5722 C   0  0  0  0  0  0  0  0  0  0  0  0
  -35.5583  -21.6788   16.6657 C   0  0  0  0  0  0  0  0  0  0  0  0
  -40.4574  -23.0990   13.3307 C   0  0  0  0  0  0  0  0  0  0  0  0
  -34.3579  -21.7531   15.9448 C   0  0  0  0  0  0  0  0  0  0  0  0
  -31.3147  -19.0851   20.6076 C   0  0  0  0  0  0  0  0  0  0  0  0
  -30.5836  -19.8727   21.4969 C   0  0  0  0  0  0  0  0  0  0  0  0
  -30.2461  -17.1035   21.4840 C   0  0  0  0  0  0  0  0  0  0  0  0
  -22.3423   -8.1387   21.4605 C   0  0  0  0  0  0  0  0  0  0  0  0
  -33.4524  -23.2519   17.6311 C   0  0  0  0  0  0  0  0  0  0  0  0
  -20.8657   -6.9704   22.8665 C   0  0  0  0  0  0  0  0  0  0  0  0
  -19.3525   -6.8809   25.2084 C   0  0  0  0  0  0  0  0  0  0  0  0
  -29.5150  -17.8910   22.3734 C   0  0  0  0  0  0  0  0  0  0  0  0
  -19.8644   -7.9162   23.0864 C   0  0  0  0  0  0  0  0  0  0  0  0
  -24.5966  -11.6381   20.7049 C   0  0  0  0  0  0  0  0  0  0  0  0
  -25.2598  -13.7225   20.4804 C   0  0  0  0  0  0  0  0  0  0  0  0
  -22.8971  -13.4865   21.2618 C   0  0  0  0  0  0  0  0  0  0  0  0
  -37.0604  -21.7472   13.8651 C   0  0  0  0  0  0  0  0  0  0  0  0
  -35.1764  -19.1834   13.2328 C   0  0  0  0  0  0  0  0  0  0  0  0
  -32.3103  -17.4576   13.9066 C   0  0  0  0  0  0  0  0  0  0  0  0
  -30.7251  -14.7725   20.6572 C   0  0  0  0  0  0  0  0  0  0  0  0
  -41.4085  -22.0576   11.2089 C   0  0  0  0  0  0  0  0  0  0  0  0
  -36.6879  -20.8139   16.1773 C   0  0  0  0  0  0  0  0  0  0  0  0
  -34.1621  -21.0066   14.6514 C   0  0  0  0  0  0  0  0  0  0  0  0
  -40.0004  -21.5323   10.9408 C   0  0  0  0  0  0  0  0  0  0  0  0
  -29.6134  -12.3587   18.2876 C   0  0  0  0  0  0  0  0  0  0  0  0
  -38.9575  -22.5664   11.3528 C   0  0  0  0  0  0  0  0  0  0  0  0
  -28.1738  -12.0658   18.7166 C   0  0  0  0  0  0  0  0  0  0  0  0
  -30.5279  -12.5878   19.4897 C   0  0  0  0  0  0  0  0  0  0  0  0
  -28.6200  -13.3101   20.8706 C   0  0  0  0  0  0  0  0  0  0  0  0
  -39.0401  -22.8653   12.8545 C   0  0  1  0  0  0  0  0  0  0  0  0
  -36.6356  -20.5549   14.6748 C   0  0  1  0  0  0  0  0  0  0  0  0
  -27.6476  -13.1365   19.6924 C   0  0  2  0  0  0  0  0  0  0  0  0
  -32.2835  -19.7021   19.6530 C   0  0  0  0  0  0  0  0  0  0  0  0
  -31.0257  -15.4203   13.2019 C   0  0  0  0  0  0  0  0  0  0  0  0
  -34.2597  -20.6366   10.7113 C   0  0  0  0  0  0  0  0  0  0  0  0
  -32.3379  -19.0379   10.5726 C   0  0  0  0  0  0  0  0  0  0  0  0
  -34.6781  -18.1893   10.4111 C   0  0  0  0  0  0  0  0  0  0  0  0
  -32.4966  -16.2633   16.6081 C   0  0  0  0  0  0  0  0  0  0  0  0
  -30.7478  -21.3638   21.5223 C   0  0  0  0  0  0  0  0  0  0  0  0
  -30.1569  -24.0557   18.8641 C   0  0  0  0  0  0  0  0  0  0  0  0
  -30.5023  -23.4889   20.2329 C   0  0  0  0  0  0  0  0  0  0  0  0
  -31.1043  -23.6075   17.7581 C   0  0  0  0  0  0  0  0  0  1  0  0
  -33.8003  -18.9871   12.6438 C   0  0  1  0  0  0  0  0  0  0  0  0
  -32.0596  -15.9828   14.1649 C   0  0  2  0  0  0  0  0  0  0  0  0
  -33.7731  -19.2285   11.1081 C   0  0  0  0  0  0  0  0  0  0  0  0
  -25.8616  -11.5434   20.2870 N   0  0  0  0  0  0  0  0  0  0  0  0
  -26.2375  -12.8274   20.1593 N   0  0  0  0  0  0  0  0  0  0  0  0
  -35.2980  -20.1792   14.2122 N   0  0  0  0  0  0  0  0  0  0  0  0
  -29.9678  -13.6178   20.3673 N   0  0  0  0  0  0  0  0  0  0  0  0
  -25.4691  -15.0541   20.4080 N   0  0  0  0  0  0  0  0  0  0  0  0
  -21.8859  -12.5764   21.5984 N   0  0  0  0  0  0  0  0  0  0  0  0
  -30.0767  -15.6967   21.4758 N   0  0  0  0  0  0  0  0  0  0  0  0
  -38.4184  -21.8033   13.6162 N   0  0  0  0  0  0  0  0  0  0  0  0
  -33.3704  -17.6525   13.0467 N   0  0  0  0  0  0  0  0  0  0  0  0
  -31.5669  -15.7771   15.5562 N   0  3  0  0  0  0  0  0  0  0  0  0
  -30.4117  -22.0100   20.2234 N   0  3  0  0  0  0  0  0  0  0  0  0
  -22.6598  -14.7169   21.3196 O   0  0  0  0  0  0  0  0  0  0  0  0
  -36.2181  -22.5556   13.4925 O   0  0  0  0  0  0  0  0  0  0  0  0
  -36.1076  -18.4741   12.8435 O   0  0  0  0  0  0  0  0  0  0  0  0
  -31.6312  -18.3475   14.4139 O   0  0  0  0  0  0  0  0  0  0  0  0
  -31.8542  -14.9424   20.1900 O   0  0  0  0  0  0  0  0  0  0  0  0
  -21.6172   -7.0129   21.7041 O   0  0  0  0  0  0  0  0  0  0  0  0
  -32.4285  -24.0190   18.0950 O   0  0  0  0  0  0  0  0  0  1  0  0
  -18.6249   -6.8369   26.3322 F   0  0  0  0  0  0  0  0  0  0  0  0
  -28.6475  -17.3280   23.2266 F   0  0  0  0  0  0  0  0  0  0  0  0
  -19.6240   -8.8696   22.1759 F   0  0  0  0  0  0  0  0  0  0  0  0
  1  2  1  0  0  0  0
  1  5  2  0  0  0  0
  2  6  2  0  0  0  0
  3  8  2  0  0  0  0
  3 17  1  0  0  0  0
  4  9  1  0  0  0  0
  4 17  2  0  0  0  0
  5 19  1  0  0  0  0
  6 21  1  0  0  0  0
  7 10  2  0  0  0  0
  7 20  1  0  0  0  0
  8 26  1  0  0  0  0
  9 26  2  0  0  0  0
 10 27  1  0  0  0  0
 11 12  2  0  0  0  0
 11 28  1  0  0  0  0
 12 29  1  0  0  0  0
 13 22  1  0  0  0  0
 13 27  2  0  0  0  0
 14 23  1  0  0  0  0
 14 25  2  0  0  0  0
 15 24  1  0  0  0  0
 15 30  2  0  0  0  0
 16 29  2  0  0  0  0
 16 31  1  0  0  0  0
 17 32  1  0  0  0  0
 18 32  1  0  0  0  0
 18 33  2  0  0  0  0
 18 34  1  0  0  0  0
 19 21  2  0  0  0  0
 19 39  1  0  0  0  0
 20 22  2  0  0  0  0
 20 40  1  0  0  0  0
 21 48  1  0  0  0  0
 22 41  1  0  0  0  0
 23 24  2  0  0  0  0
 23 51  1  0  0  0  0
 24 57  1  0  0  0  0
 25 30  1  0  0  0  0
 25 70  1  0  0  0  0
 26 80  1  0  0  0  0
 27 81  1  0  0  0  0
 28 31  2  0  0  0  0
 28 80  1  0  0  0  0
 29 82  1  0  0  0  0
 30 83  1  0  0  0  0
 31 84  1  0  0  0  0
 32 64  2  0  0  0  0
 33 65  1  0  0  0  0
 33 68  1  0  0  0  0
 34 69  1  0  0  0  0
 34 75  2  0  0  0  0
 35 49  1  0  0  0  0
 35 71  1  0  0  0  0
 35 76  2  0  0  0  0
 36 61  1  0  0  0  0
 36 66  1  0  0  0  0
 36 77  2  0  0  0  0
 37 62  1  0  0  0  0
 37 72  1  0  0  0  0
 37 78  2  0  0  0  0
 38 67  1  0  0  0  0
 38 70  1  0  0  0  0
 38 79  2  0  0  0  0
 39 42  1  0  0  0  0
 40 49  1  0  0  0  0
 41 66  1  0  0  0  0
 42 44  1  0  0  0  0
 43 45  1  0  0  0  0
 43 46  1  0  0  0  0
 44 48  1  0  0  0  0
 45 50  1  0  0  0  0
 46 67  1  0  0  0  0
 47 50  1  0  0  0  0
 47 67  1  0  0  0  0
 48 71  1  0  0  0  0
 49 66  1  0  0  0  0
 50 65  1  0  0  0  0
 52 62  1  0  0  0  0
 53 63  1  0  0  0  0
 54 63  1  0  0  0  0
 55 63  1  0  0  0  0
 56 73  1  0  0  0  0
 57 74  1  0  0  0  0
 58 59  1  0  0  0  0
 58 60  1  0  0  0  0
 59 74  1  0  0  0  0
 60 81  1  0  0  0  0
 61 63  1  0  0  0  0
 61 72  1  0  0  0  0
 62 73  1  0  0  0  0
 64 65  1  0  0  0  0
M  CHG  2  73   1  74   1
M  ISO  4  38 100  60 101  70 100  81 101
M  END
> <Batch ID>
0028

> <Smiles>
CNC(C)C(=O)NC(C(=O)N1Cc2cc([101O:1][101CH2:1]CCNCc3cc(F)c([100NH:0][100C:0](=O)N4CCCC(n5nc(-c6ccc(Oc7ccc(F)cc7F)cc6)c(C(N)=O)c5N)C4)cc3C)ccc2CC1C(=O)NC1CCCc2ccccc21)C(C)(C)C

> <Shape>
0.196

> <Color>
0.192

> <Negative vol penalty>
0.000

$$$$

  -OEChem-04052316333D

 88 96  0     1  0  0  0  0  0999 V2000
  -32.9792  -28.3996   21.0197 C   0  0  0  0  0  0  0  0  0  0  0  0
  -33.0308  -27.0250   21.2282 C   0  0  0  0  0  0  0  0  0  0  0  0
  -24.7606  -29.2217   22.3111 C   0  0  0  0  0  0  0  0  0  0  0  0
  -23.8344  -28.9690   20.0940 C   0  0  0  0  0  0  0  0  0  0  0  0
  -31.8541  -28.9718   20.4276 C   0  0  0  0  0  0  0  0  0  0  0  0
  -31.9569  -26.2221   20.8456 C   0  0  0  0  0  0  0  0  0  0  0  0
  -32.2276  -20.5047   18.6675 C   0  0  0  0  0  0  0  0  0  0  0  0
  -25.5027  -30.3197   21.8760 C   0  0  0  0  0  0  0  0  0  0  0  0
  -24.5765  -30.0670   19.6589 C   0  0  0  0  0  0  0  0  0  0  0  0
  -32.0498  -19.2612   19.2723 C   0  0  0  0  0  0  0  0  0  0  0  0
  -27.3657  -33.4105   21.4388 C   0  0  0  0  0  0  0  0  0  0  0  0
  -27.3874  -34.5425   22.2535 C   0  0  0  0  0  0  0  0  0  0  0  0
  -29.7525  -19.2386   18.5368 C   0  0  0  0  0  0  0  0  0  0  0  0
  -24.6018  -14.8057   20.6968 C   0  0  0  0  0  0  0  0  0  0  0  0
  -23.1452  -16.7283   20.8354 C   0  0  0  0  0  0  0  0  0  0  0  0
  -24.9867  -34.7301   22.0569 C   0  0  0  0  0  0  0  0  0  0  0  0
  -23.9265  -28.5463   21.4201 C   0  0  0  0  0  0  0  0  0  0  0  0
  -21.8606  -27.4240   22.4100 C   0  0  0  0  0  0  0  0  0  0  0  0
  -30.7699  -28.1743   20.0287 C   0  0  0  0  0  0  0  0  0  0  0  0
  -31.1643  -21.1306   18.0010 C   0  0  0  0  0  0  0  0  0  0  0  0
  -30.8157  -26.7844   20.2487 C   0  0  0  0  0  0  0  0  0  0  0  0
  -29.9200  -20.4889   17.9222 C   0  0  0  0  0  0  0  0  0  0  0  0
  -25.3754  -15.4609   19.7388 C   0  0  0  0  0  0  0  0  0  0  0  0
  -23.9188  -17.3835   19.8775 C   0  0  0  0  0  0  0  0  0  0  0  0
  -25.4106  -30.7424   20.5499 C   0  0  0  0  0  0  0  0  0  0  0  0
  -30.8113  -18.6292   19.2095 C   0  0  0  0  0  0  0  0  0  0  0  0
  -26.1545  -32.9383   20.9331 C   0  0  0  0  0  0  0  0  0  0  0  0
  -26.1980  -35.2023   22.5625 C   0  0  0  0  0  0  0  0  0  0  0  0
  -24.9650  -33.5981   21.2421 C   0  0  0  0  0  0  0  0  0  0  0  0
  -23.4866  -15.4394   21.2451 C   0  0  0  0  0  0  0  0  0  0  0  0
  -25.0340  -16.7498   19.3291 C   0  0  0  0  0  0  0  0  0  0  0  0
  -23.1601  -27.4117   21.8688 C   0  0  0  0  0  0  0  0  0  0  0  0
  -21.5861  -26.1044   22.6742 C   0  0  0  0  0  0  0  0  0  0  0  0
  -20.9802  -28.5294   22.6523 C   0  0  0  0  0  0  0  0  0  0  0  0
  -29.5610  -23.8475   18.3905 C   0  0  0  0  0  0  0  0  0  0  0  0
  -28.1609  -22.9671   15.6000 C   0  0  0  0  0  0  0  0  0  0  0  0
  -27.3201  -20.4572   13.4459 C   0  0  0  0  0  0  0  0  0  0  0  0
  -23.6230  -21.1075   20.2789 C   0  0  0  0  0  0  0  0  0  0  0  0
  -29.5556  -28.8440   19.4357 C   0  0  0  0  0  0  0  0  0  0  0  0
  -31.3797  -22.4598   17.3308 C   0  0  0  0  0  0  0  0  0  0  0  0
  -28.7521  -21.1092   17.2013 C   0  0  0  0  0  0  0  0  0  0  0  0
  -28.6170  -27.8778   18.7175 C   0  0  0  0  0  0  0  0  0  0  0  0
  -23.7452  -21.9808   23.7888 C   0  0  0  0  0  0  0  0  0  0  0  0
  -28.3737  -26.6368   19.5704 C   0  0  0  0  0  0  0  0  0  0  0  0
  -23.4822  -23.4869   23.7368 C   0  0  0  0  0  0  0  0  0  0  0  0
  -24.6063  -21.5291   22.6130 C   0  0  0  0  0  0  0  0  0  0  0  0
  -23.7955  -23.3936   21.2203 C   0  0  0  0  0  0  0  0  0  0  0  0
  -29.6812  -25.8771   19.8247 C   0  0  1  0  0  0  0  0  0  0  0  0
  -30.0854  -23.2395   17.1204 C   0  0  1  0  0  0  0  0  0  0  0  0
  -22.9111  -23.9092   22.3702 C   0  0  2  0  0  0  0  0  0  0  0  0
  -26.1463  -20.0419   11.2671 C   0  0  0  0  0  0  0  0  0  0  0  0
  -28.8247  -15.9068   22.7725 C   0  0  0  0  0  0  0  0  0  0  0  0
  -25.4660  -23.3063   16.9900 C   0  0  0  0  0  0  0  0  0  0  0  0
  -24.4204  -21.9963   15.1302 C   0  0  0  0  0  0  0  0  0  0  0  0
  -25.5456  -24.1689   14.6439 C   0  0  0  0  0  0  0  0  0  0  0  0
  -31.4681  -17.4229   22.0273 C   0  0  0  0  0  0  0  0  0  0  0  0
  -29.4007  -18.6952   21.4031 C   0  0  0  0  0  0  0  0  0  0  0  0
  -29.7744  -19.3728   12.1972 C   0  0  0  0  0  0  0  0  0  0  0  0
  -26.5670  -14.7410   19.1767 C   0  0  0  0  0  0  0  0  0  0  0  0
  -23.5161  -18.7643   19.4693 C   0  0  0  0  0  0  0  0  0  0  0  0
  -27.7611  -14.6916   20.1244 C   0  0  0  0  0  0  0  0  0  0  0  0
  -26.9501  -22.1480   15.2231 C   0  0  1  0  0  0  0  0  0  0  0  0
  -27.4794  -20.3249   11.9420 C   0  0  2  0  0  0  0  0  0  0  0  0
  -29.3955  -16.1084   21.3734 C   0  0  2  0  0  0  0  0  0  0  0  0
  -25.6168  -22.8938   15.5121 C   0  0  0  0  0  0  0  0  0  0  0  0
  -30.2028  -17.4114   21.1595 C   0  0  0  0  0  0  0  0  0  1  0  0
  -23.6755  -26.1818   21.7931 N   0  0  0  0  0  0  0  0  0  0  0  0
  -22.6949  -25.4090   22.2904 N   0  0  0  0  0  0  0  0  0  0  0  0
  -29.0109  -22.4126   16.5675 N   0  0  0  0  0  0  0  0  0  0  0  0
  -23.9977  -21.9460   21.3418 N   0  0  0  0  0  0  0  0  0  0  0  0
  -20.5070  -25.4826   23.1950 N   0  0  0  0  0  0  0  0  0  0  0  0
  -21.4200  -29.8186   22.3224 N   0  0  0  0  0  0  0  0  0  0  0  0
  -30.0557  -25.1101   18.6560 N   0  0  0  0  0  0  0  0  0  0  0  0
  -27.1322  -21.7692   13.8261 N   0  0  0  0  0  0  0  0  0  0  0  0
  -23.8544  -19.7509   20.4709 N   0  0  0  0  0  0  0  0  0  0  0  0
  -28.4165  -19.2128   11.6163 N   0  3  0  0  0  0  0  0  0  0  0  0
  -28.2489  -16.0621   20.4126 N   0  3  0  0  0  0  0  0  0  0  0  0
  -19.8437  -28.3801   23.1619 O   0  0  0  0  0  0  0  0  0  0  0  0
  -28.7653  -23.2182   19.0780 O   0  0  0  0  0  0  0  0  0  0  0  0
  -28.3496  -24.0554   15.0508 O   0  0  0  0  0  0  0  0  0  0  0  0
  -27.3548  -19.4927   14.2068 O   0  0  0  0  0  0  0  0  0  0  0  0
  -23.1145  -21.5356   19.2371 O   0  0  0  0  0  0  0  0  0  0  0  0
  -26.1344  -31.8139   20.1250 O   0  0  0  0  0  0  0  0  0  0  0  0
  -30.6350  -17.4157   19.7995 O   0  0  0  0  0  0  0  0  0  1  0  0
  -26.2189  -36.2884   23.3461 F   0  0  0  0  0  0  0  0  0  0  0  0
  -23.7982  -33.1485   20.7602 F   0  0  0  0  0  0  0  0  0  0  0  0
  -22.5313  -14.6311   22.4267 Cl  0  0  0  0  0  0  0  0  0  0  0  0
  -25.9936  -17.5626   18.1386 Cl  0  0  0  0  0  0  0  0  0  0  0  0
  1  2  1  0  0  0  0
  1  5  2  0  0  0  0
  2  6  2  0  0  0  0
  3  8  2  0  0  0  0
  3 17  1  0  0  0  0
  4  9  1  0  0  0  0
  4 17  2  0  0  0  0
  5 19  1  0  0  0  0
  6 21  1  0  0  0  0
  7 10  2  0  0  0  0
  7 20  1  0  0  0  0
  8 25  1  0  0  0  0
  9 25  2  0  0  0  0
 10 26  1  0  0  0  0
 11 12  2  0  0  0  0
 11 27  1  0  0  0  0
 12 28  1  0  0  0  0
 13 22  1  0  0  0  0
 13 26  2  0  0  0  0
 14 23  1  0  0  0  0
 14 30  2  0  0  0  0
 15 24  2  0  0  0  0
 15 30  1  0  0  0  0
 16 28  2  0  0  0  0
 16 29  1  0  0  0  0
 17 32  1  0  0  0  0
 18 32  1  0  0  0  0
 18 33  2  0  0  0  0
 18 34  1  0  0  0  0
 19 21  2  0  0  0  0
 19 39  1  0  0  0  0
 20 22  2  0  0  0  0
 20 40  1  0  0  0  0
 21 48  1  0  0  0  0
 22 41  1  0  0  0  0
 23 31  2  0  0  0  0
 23 59  1  0  0  0  0
 24 31  1  0  0  0  0
 24 60  1  0  0  0  0
 25 83  1  0  0  0  0
 26 84  1  0  0  0  0
 27 29  2  0  0  0  0
 27 83  1  0  0  0  0
 28 85  1  0  0  0  0
 29 86  1  0  0  0  0
 30 87  1  0  0  0  0
 31 88  1  0  0  0  0
 32 67  2  0  0  0  0
 33 68  1  0  0  0  0
 33 71  1  0  0  0  0
 34 72  1  0  0  0  0
 34 78  2  0  0  0  0
 35 49  1  0  0  0  0
 35 73  1  0  0  0  0
 35 79  2  0  0  0  0
 36 62  1  0  0  0  0
 36 69  1  0  0  0  0
 36 80  2  0  0  0  0
 37 63  1  0  0  0  0
 37 74  1  0  0  0  0
 37 81  2  0  0  0  0
 38 70  1  0  0  0  0
 38 75  1  0  0  0  0
 38 82  2  0  0  0  0
 39 42  1  0  0  0  0
 40 49  1  0  0  0  0
 41 69  1  0  0  0  0
 42 44  1  0  0  0  0
 43 45  1  0  0  0  0
 43 46  1  0  0  0  0
 44 48  1  0  0  0  0
 45 50  1  0  0  0  0
 46 70  1  0  0  0  0
 47 50  1  0  0  0  0
 47 70  1  0  0  0  0
 48 73  1  0  0  0  0
 49 69  1  0  0  0  0
 50 68  1  0  0  0  0
 51 63  1  0  0  0  0
 52 64  1  0  0  0  0
 53 65  1  0  0  0  0
 54 65  1  0  0  0  0
 55 65  1  0  0  0  0
 56 66  1  0  0  0  0
 57 66  1  0  0  0  0
 58 76  1  0  0  0  0
 59 61  1  0  0  0  0
 60 75  1  0  0  0  0
 61 77  1  0  0  0  0
 62 65  1  0  0  0  0
 62 74  1  0  0  0  0
 63 76  1  0  0  0  0
 64 66  1  0  0  0  0
 64 77  1  0  0  0  0
 66 84  1  0  0  0  0
 67 68  1  0  0  0  0
M  CHG  2  76   1  77   1
M  ISO  4  38 100  66 101  75 100  84 101
M  END
> <Batch ID>
0028

> <Smiles>
CNC(C)C(=O)NC(C(=O)N1Cc2cc([101O:1][101C:1](C)(C)C(C)NCCc3cc(Cl)cc(C[100NH:0][100C:0](=O)N4CCCC(n5nc(-c6ccc(Oc7ccc(F)cc7F)cc6)c(C(N)=O)c5N)C4)c3Cl)ccc2CC1C(=O)NC1CCCc2ccccc21)C(C)(C)C

> <Shape>
0.205

> <Color>
0.061

> <Negative vol penalty>
0.000

$$$$

  -OEChem-04052316333D

 90 99  0     1  0  0  0  0  0999 V2000
  -28.0483  -37.6709   20.8570 C   0  0  0  0  0  0  0  0  0  0  0  0
  -28.4995  -36.3957   20.5319 C   0  0  0  0  0  0  0  0  0  0  0  0
  -32.1376  -15.7799   24.6674 C   0  0  0  0  0  0  0  0  0  0  0  0
  -29.9557  -14.7671   24.4425 C   0  0  0  0  0  0  0  0  0  0  0  0
  -27.1097  -37.8387   21.8744 C   0  0  0  0  0  0  0  0  0  0  0  0
  -28.0131  -35.2876   21.2247 C   0  0  0  0  0  0  0  0  0  0  0  0
  -26.9979  -29.6872   18.9641 C   0  0  0  0  0  0  0  0  0  0  0  0
  -32.5303  -14.7454   25.5166 C   0  0  0  0  0  0  0  0  0  0  0  0
  -30.3484  -13.7325   25.2916 C   0  0  0  0  0  0  0  0  0  0  0  0
  -27.7486  -28.5128   18.9953 C   0  0  0  0  0  0  0  0  0  0  0  0
  -33.5540  -11.5360   25.2249 C   0  0  0  0  0  0  0  0  0  0  0  0
  -34.8074  -10.9627   25.0115 C   0  0  0  0  0  0  0  0  0  0  0  0
  -26.4919  -27.7677   20.9149 C   0  0  0  0  0  0  0  0  0  0  0  0
  -27.2528  -22.5548   16.1091 C   0  0  0  0  0  0  0  0  0  0  0  0
  -26.9128  -22.9742   18.4639 C   0  0  0  0  0  0  0  0  0  0  0  0
  -30.2670  -22.6396   18.5260 C   0  0  0  0  0  0  0  0  0  0  0  0
  -35.4807  -11.6046   27.2413 C   0  0  0  0  0  0  0  0  0  0  0  0
  -30.8502  -15.7908   24.1303 C   0  0  0  0  0  0  0  0  0  0  0  0
  -30.5680  -16.9029   21.8519 C   0  0  0  0  0  0  0  0  0  0  0  0
  -26.6045  -36.7312   22.5735 C   0  0  0  0  0  0  0  0  0  0  0  0
  -25.9942  -29.9159   19.9163 C   0  0  0  0  0  0  0  0  0  0  0  0
  -27.0680  -35.4409   22.2532 C   0  0  0  0  0  0  0  0  0  0  0  0
  -25.7282  -28.9447   20.8920 C   0  0  0  0  0  0  0  0  0  0  0  0
  -26.1339  -21.7221   16.0957 C   0  0  0  0  0  0  0  0  0  0  0  0
  -25.7938  -22.1415   18.4506 C   0  0  0  0  0  0  0  0  0  0  0  0
  -29.9087  -24.9220   19.1943 C   0  0  0  0  0  0  0  0  0  0  0  0
  -31.6357  -13.7217   25.8287 C   0  0  0  0  0  0  0  0  0  0  0  0
  -27.4976  -27.5541   19.9726 C   0  0  0  0  0  0  0  0  0  0  0  0
  -33.2638  -12.1438   26.4465 C   0  0  0  0  0  0  0  0  0  0  0  0
  -27.6423  -23.1808   17.2932 C   0  0  0  0  0  0  0  0  0  0  0  0
  -29.6348  -23.8632   18.3356 C   0  0  0  0  0  0  0  0  0  0  0  0
  -35.7708  -10.9969   26.0197 C   0  0  0  0  0  0  0  0  0  0  0  0
  -34.2272  -12.1780   27.4547 C   0  0  0  0  0  0  0  0  0  0  0  0
  -25.4044  -21.5154   17.2665 C   0  0  0  0  0  0  0  0  0  0  0  0
  -30.4438  -16.8595   23.2535 C   0  0  0  0  0  0  0  0  0  0  0  0
  -30.8155  -24.7074   20.2197 C   0  0  0  0  0  0  0  0  0  0  0  0
  -31.1579  -22.5273   19.5812 C   0  0  0  0  0  0  0  0  0  0  0  0
  -30.0386  -18.1198   21.4978 C   0  0  0  0  0  0  0  0  0  0  0  0
  -31.1129  -15.9301   20.9506 C   0  0  0  0  0  0  0  0  0  0  0  0
  -25.5020  -32.0950   22.1774 C   0  0  0  0  0  0  0  0  0  0  0  0
  -22.6523  -30.5744   22.4767 C   0  0  0  0  0  0  0  0  0  0  0  0
  -20.8301  -27.7224   22.0380 C   0  0  0  0  0  0  0  0  0  0  0  0
  -26.0712  -22.0186   21.9501 C   0  0  0  0  0  0  0  0  0  0  0  0
  -25.6264  -36.9666   23.6972 C   0  0  0  0  0  0  0  0  0  0  0  0
  -25.1753  -31.1760   19.8526 C   0  0  0  0  0  0  0  0  0  0  0  0
  -24.6481  -29.1330   21.9246 C   0  0  0  0  0  0  0  0  0  0  0  0
  -24.8814  -35.7066   24.1302 C   0  0  0  0  0  0  0  0  0  0  0  0
  -28.7066  -22.0841   24.3433 C   0  0  0  0  0  0  0  0  0  0  0  0
  -25.8524  -34.5415   24.2926 C   0  0  0  0  0  0  0  0  0  0  0  0
  -29.3993  -20.7324   24.1617 C   0  0  0  0  0  0  0  0  0  0  0  0
  -27.1950  -21.9731   24.1573 C   0  0  0  0  0  0  0  0  0  0  0  0
  -27.4637  -19.9979   22.7081 C   0  0  0  0  0  0  0  0  0  0  0  0
  -26.5457  -34.2118   22.9652 C   0  0  1  0  0  0  0  0  0  0  0  0
  -24.5237  -31.5330   21.1850 C   0  0  1  0  0  0  0  0  0  0  0  0
  -28.9954  -20.0696   22.8309 C   0  0  2  0  0  0  0  0  0  0  0  0
  -25.7217  -21.0526   14.8283 C   0  0  0  0  0  0  0  0  0  0  0  0
  -31.1487  -25.8075   21.1738 C   0  0  0  0  0  0  0  0  0  0  0  0
  -18.5381  -26.7719   22.4129 C   0  0  0  0  0  0  0  0  0  0  0  0
  -23.2638  -30.2799   25.4515 C   0  0  0  0  0  0  0  0  0  0  0  0
  -21.4633  -28.5448   25.5786 C   0  0  0  0  0  0  0  0  0  0  0  0
  -20.8942  -30.8849   24.9285 C   0  0  0  0  0  0  0  0  0  0  0  0
  -20.4249  -27.2527   19.1442 C   0  0  0  0  0  0  0  0  0  0  0  0
  -25.0178  -21.9215   19.7051 C   0  0  0  0  0  0  0  0  0  0  0  0
  -29.2384  -26.2515   19.0088 C   0  0  0  0  0  0  0  0  0  1  0  0
  -22.1410  -29.4128   23.2943 C   0  0  1  0  0  0  0  0  0  0  0  0
  -19.4571  -27.4871   21.4348 C   0  0  2  0  0  0  0  0  0  0  0  0
  -21.9623  -29.7776   24.7951 C   0  0  0  0  0  0  0  0  0  0  0  0
  -29.8800  -17.9613   23.7556 N   0  0  0  0  0  0  0  0  0  0  0  0
  -31.4494  -23.5332   20.4361 N   0  0  0  0  0  0  0  0  0  0  0  0
  -29.6453  -18.7086   22.6635 N   0  0  0  0  0  0  0  0  0  0  0  0
  -23.8789  -30.3844   21.8246 N   0  0  0  0  0  0  0  0  0  0  0  0
  -26.8792  -21.3377   22.8757 N   0  0  0  0  0  0  0  0  0  0  0  0
  -29.8761  -18.7330   20.3062 N   0  0  0  0  0  0  0  0  0  0  0  0
  -31.6142  -14.7339   21.4819 N   0  0  0  0  0  0  0  0  0  0  0  0
  -25.6554  -33.4662   22.1015 N   0  0  0  0  0  0  0  0  0  0  0  0
  -20.9184  -28.9598   22.6398 N   0  0  0  0  0  0  0  0  0  0  0  0
  -25.8260  -21.3480   20.7581 N   0  0  0  0  0  0  0  0  0  0  0  0
  -19.5682  -26.6574   20.2018 N   0  3  0  0  0  0  0  0  0  0  0  0
  -31.1691  -16.1230   19.7124 O   0  0  0  0  0  0  0  0  0  0  0  0
  -26.0741  -31.3406   22.9555 O   0  0  0  0  0  0  0  0  0  0  0  0
  -21.9844  -31.6095   22.4130 O   0  0  0  0  0  0  0  0  0  0  0  0
  -21.7329  -26.8900   21.9841 O   0  0  0  0  0  0  0  0  0  0  0  0
  -25.6074  -23.1431   22.1677 O   0  0  0  0  0  0  0  0  0  0  0  0
  -32.0186  -12.7119   26.6571 O   0  0  0  0  0  0  0  0  0  0  0  0
  -28.7535  -24.0064   17.3072 O   0  0  0  0  0  0  0  0  0  0  0  0
  -28.2293  -26.4072   20.0057 O   0  0  0  0  0  0  0  0  0  1  0  0
  -36.9740  -10.4449   25.8152 F   0  0  0  0  0  0  0  0  0  0  0  0
  -33.9539  -12.7594   28.6307 F   0  0  0  0  0  0  0  0  0  0  0  0
  -24.3290  -20.7139   17.2539 F   0  0  0  0  0  0  0  0  0  0  0  0
  -31.9845  -21.0561   19.8917 Cl  0  0  0  0  0  0  0  0  0  0  0  0
  1  2  1  0  0  0  0
  1  5  2  0  0  0  0
  2  6  2  0  0  0  0
  3  8  2  0  0  0  0
  3 18  1  0  0  0  0
  4  9  1  0  0  0  0
  4 18  2  0  0  0  0
  5 20  1  0  0  0  0
  6 22  1  0  0  0  0
  7 10  2  0  0  0  0
  7 21  1  0  0  0  0
  8 27  1  0  0  0  0
  9 27  2  0  0  0  0
 10 28  1  0  0  0  0
 11 12  2  0  0  0  0
 11 29  1  0  0  0  0
 12 32  1  0  0  0  0
 13 23  1  0  0  0  0
 13 28  2  0  0  0  0
 14 24  2  0  0  0  0
 14 30  1  0  0  0  0
 15 25  1  0  0  0  0
 15 30  2  0  0  0  0
 16 31  2  0  0  0  0
 16 37  1  0  0  0  0
 17 32  2  0  0  0  0
 17 33  1  0  0  0  0
 18 35  1  0  0  0  0
 19 35  1  0  0  0  0
 19 38  2  0  0  0  0
 19 39  1  0  0  0  0
 20 22  2  0  0  0  0
 20 44  1  0  0  0  0
 21 23  2  0  0  0  0
 21 45  1  0  0  0  0
 22 53  1  0  0  0  0
 23 46  1  0  0  0  0
 24 34  1  0  0  0  0
 24 56  1  0  0  0  0
 25 34  2  0  0  0  0
 25 63  1  0  0  0  0
 26 31  1  0  0  0  0
 26 36  2  0  0  0  0
 26 64  1  0  0  0  0
 27 84  1  0  0  0  0
 28 86  1  0  0  0  0
 29 33  2  0  0  0  0
 29 84  1  0  0  0  0
 30 85  1  0  0  0  0
 31 85  1  0  0  0  0
 32 87  1  0  0  0  0
 33 88  1  0  0  0  0
 34 89  1  0  0  0  0
 35 68  2  0  0  0  0
 36 57  1  0  0  0  0
 36 69  1  0  0  0  0
 37 69  2  0  0  0  0
 37 90  1  0  0  0  0
 38 70  1  0  0  0  0
 38 73  1  0  0  0  0
 39 74  1  0  0  0  0
 39 79  2  0  0  0  0
 40 54  1  0  0  0  0
 40 75  1  0  0  0  0
 40 80  2  0  0  0  0
 41 65  1  0  0  0  0
 41 71  1  0  0  0  0
 41 81  2  0  0  0  0
 42 66  1  0  0  0  0
 42 76  1  0  0  0  0
 42 82  2  0  0  0  0
 43 72  1  0  0  0  0
 43 77  1  0  0  0  0
 43 83  2  0  0  0  0
 44 47  1  0  0  0  0
 45 54  1  0  0  0  0
 46 71  1  0  0  0  0
 47 49  1  0  0  0  0
 48 50  1  0  0  0  0
 48 51  1  0  0  0  0
 49 53  1  0  0  0  0
 50 55  1  0  0  0  0
 51 72  1  0  0  0  0
 52 55  1  0  0  0  0
 52 72  1  0  0  0  0
 53 75  1  0  0  0  0
 54 71  1  0  0  0  0
 55 70  1  0  0  0  0
 58 66  1  0  0  0  0
 59 67  1  0  0  0  0
 60 67  1  0  0  0  0
 61 67  1  0  0  0  0
 62 78  1  0  0  0  0
 63 77  1  0  0  0  0
 64 86  1  0  0  0  0
 65 67  1  0  0  0  0
 65 76  1  0  0  0  0
 66 78  1  0  0  0  0
 68 70  1  0  0  0  0
M  CHG  1  78   1
M  ISO  4  43 100  64 101  77 100  86 101
M  END
> <Batch ID>
0028

> <Smiles>
CNC(C)C(=O)NC(C(=O)N1Cc2cc([101O:1][101CH2:1]c3c(Oc4cc(C)c(F)c(C[100NH:0][100C:0](=O)N5CCCC(n6nc(-c7ccc(Oc8ccc(F)cc8F)cc7)c(C(N)=O)c6N)C5)c4)cc(Cl)nc3C)ccc2CC1C(=O)NC1CCCc2ccccc21)C(C)(C)C

> <Shape>
0.226

> <Color>
0.063

> <Negative vol penalty>
0.000

$$$$

  -OEChem-04052316333D

 87 96  0     1  0  0  0  0  0999 V2000
  -20.1014   -8.8432   19.5638 C   0  0  0  0  0  0  0  0  0  0  0  0
  -20.3466  -10.2043   19.4127 C   0  0  0  0  0  0  0  0  0  0  0  0
  -25.4133  -31.2904   21.3590 C   0  0  0  0  0  0  0  0  0  0  0  0
  -24.0302  -31.9559   23.2248 C   0  0  0  0  0  0  0  0  0  0  0  0
  -21.0349   -8.0356   20.2120 C   0  0  0  0  0  0  0  0  0  0  0  0
  -21.5252  -10.7587   19.9108 C   0  0  0  0  0  0  0  0  0  0  0  0
  -24.7495  -15.3573   17.4689 C   0  0  0  0  0  0  0  0  0  0  0  0
  -26.1919  -32.4353   21.5276 C   0  0  0  0  0  0  0  0  0  0  0  0
  -24.8089  -33.1009   23.3935 C   0  0  0  0  0  0  0  0  0  0  0  0
  -24.8007  -16.7213   17.7528 C   0  0  0  0  0  0  0  0  0  0  0  0
  -25.1093  -36.1442   21.9517 C   0  0  0  0  0  0  0  0  0  0  0  0
  -24.4465  -37.3540   22.1581 C   0  0  0  0  0  0  0  0  0  0  0  0
  -26.6011  -22.1478   22.0979 C   0  0  0  0  0  0  0  0  0  0  0  0
  -26.7312  -16.3516   19.1514 C   0  0  0  0  0  0  0  0  0  0  0  0
  -25.5484  -37.5929   24.2949 C   0  0  0  0  0  0  0  0  0  0  0  0
  -24.3324  -31.0507   22.2075 C   0  0  0  0  0  0  0  0  0  0  0  0
  -22.7898  -29.5028   20.8914 C   0  0  0  0  0  0  0  0  0  0  0  0
  -22.2299   -8.5786   20.7097 C   0  0  0  0  0  0  0  0  0  0  0  0
  -25.6837  -14.4771   18.0337 C   0  0  0  0  0  0  0  0  0  0  0  0
  -22.4750   -9.9578   20.5674 C   0  0  0  0  0  0  0  0  0  0  0  0
  -27.6459  -22.2358   21.1847 C   0  0  0  0  0  0  0  0  0  0  0  0
  -26.6912  -14.9772   18.8710 C   0  0  0  0  0  0  0  0  0  0  0  0
  -26.6988  -22.7992   23.3225 C   0  0  0  0  0  0  0  0  0  0  0  0
  -25.8897  -33.3405   22.5449 C   0  0  0  0  0  0  0  0  0  0  0  0
  -25.7899  -17.2182   18.5964 C   0  0  0  0  0  0  0  0  0  0  0  0
  -25.9916  -35.6586   22.9168 C   0  0  0  0  0  0  0  0  0  0  0  0
  -24.6660  -38.0784   23.3298 C   0  0  0  0  0  0  0  0  0  0  0  0
  -26.2111  -36.3830   24.0884 C   0  0  0  0  0  0  0  0  0  0  0  0
  -23.5274  -29.8684   22.0334 C   0  0  0  0  0  0  0  0  0  0  0  0
  -28.7579  -22.9816   21.5413 C   0  0  0  0  0  0  0  0  0  0  0  0
  -27.8532  -23.5196   23.5834 C   0  0  0  0  0  0  0  0  0  0  0  0
  -22.2057  -28.3062   21.2285 C   0  0  0  0  0  0  0  0  0  0  0  0
  -22.6457  -30.1838   19.6379 C   0  0  0  0  0  0  0  0  0  0  0  0
  -25.5136  -11.9803   19.9935 C   0  0  0  0  0  0  0  0  0  0  0  0
  -28.6821  -11.7453   19.3394 C   0  0  0  0  0  0  0  0  0  0  0  0
  -31.4705  -14.0057   18.9753 C   0  0  0  0  0  0  0  0  0  0  0  0
  -23.6569  -24.0229   25.1526 C   0  0  0  0  0  0  0  0  0  0  0  0
  -23.1874   -7.6745   21.4448 C   0  0  0  0  0  0  0  0  0  0  0  0
  -25.6312  -13.0123   17.6963 C   0  0  0  0  0  0  0  0  0  0  0  0
  -27.7301  -14.0771   19.4866 C   0  0  0  0  0  0  0  0  0  0  0  0
  -24.5821   -8.2719   21.6127 C   0  0  0  0  0  0  0  0  0  0  0  0
  -20.6070  -25.8547   25.0134 C   0  0  0  0  0  0  0  0  0  0  0  0
  -26.0964  -21.4741   19.3348 C   0  0  0  0  0  0  0  0  0  0  0  0
  -28.1631  -20.1193   19.8974 C   0  0  0  0  0  0  0  0  0  0  0  0
  -24.4897   -9.7166   22.0934 C   0  0  0  0  0  0  0  0  0  0  0  0
  -20.9431  -27.0581   24.1308 C   0  0  0  0  0  0  0  0  0  0  0  0
  -26.0062  -20.7694   17.9783 C   0  0  0  0  0  0  0  0  0  0  0  0
  -28.0718  -19.4190   18.5392 C   0  0  0  0  0  0  0  0  0  0  0  0
  -21.7843  -25.4607   25.9026 C   0  0  0  0  0  0  0  0  0  0  0  0
  -23.3878  -26.4315   24.3025 C   0  0  0  0  0  0  0  0  0  0  0  0
  -27.5455  -21.5265   19.8464 C   0  0  0  0  0  0  0  0  0  0  0  0
  -23.7531  -10.5918   21.0721 C   0  0  1  0  0  0  0  0  0  0  0  0
  -26.3212  -12.1345   18.7359 C   0  0  1  0  0  0  0  0  0  0  0  0
  -22.2501  -26.8314   23.3475 C   0  0  2  0  0  0  0  0  0  0  0  0
  -26.6311  -19.3666   18.0065 C   0  0  0  0  0  0  0  0  0  1  0  0
  -29.9108  -23.1101   20.6001 C   0  0  0  0  0  0  0  0  0  0  0  0
  -26.5928  -18.7377   16.6124 C   0  0  0  0  0  0  0  0  0  0  0  0
  -33.5917  -13.7802   17.6536 C   0  0  0  0  0  0  0  0  0  0  0  0
  -29.8526  -10.6795   21.9479 C   0  0  0  0  0  0  0  0  0  0  0  0
  -31.9706  -11.9042   21.4166 C   0  0  0  0  0  0  0  0  0  0  0  0
  -31.1642  -10.0951   19.9002 C   0  0  0  0  0  0  0  0  0  0  0  0
  -30.9813  -16.5458   17.5374 C   0  0  0  0  0  0  0  0  0  0  0  0
  -25.5764  -22.7018   24.2984 C   0  0  0  0  0  0  0  0  0  0  0  0
  -29.9438  -12.3089   19.9471 C   0  0  1  0  0  0  0  0  0  0  0  0
  -32.1877  -14.3638   17.6862 C   0  0  2  0  0  0  0  0  0  0  0  0
  -30.7081  -11.2608   20.8045 C   0  0  0  0  0  0  0  0  0  0  0  0
  -23.4229  -28.9765   23.0221 N   0  0  0  0  0  0  0  0  0  0  0  0
  -28.8889  -23.6281   22.7213 N   0  0  0  0  0  0  0  0  0  0  0  0
  -22.6128  -28.0386   22.5024 N   0  0  0  0  0  0  0  0  0  0  0  0
  -27.6328  -12.6517   19.1314 N   0  0  0  0  0  0  0  0  0  0  0  0
  -22.9920  -25.2590   25.0984 N   0  0  0  0  0  0  0  0  0  0  0  0
  -21.3887  -27.4676   20.5566 N   0  0  0  0  0  0  0  0  0  0  0  0
  -23.3144  -31.4024   19.4588 N   0  0  0  0  0  0  0  0  0  0  0  0
  -24.6262  -10.9215   19.9660 N   0  0  0  0  0  0  0  0  0  0  0  0
  -30.7207  -12.8564   18.8403 N   0  0  0  0  0  0  0  0  0  0  0  0
  -24.7893  -23.9135   24.3548 N   0  0  0  0  0  0  0  0  0  0  0  0
  -32.2906  -15.8437   17.5445 N   0  3  0  0  0  0  0  0  0  0  0  0
  -21.9314  -29.7333   18.7103 O   0  0  0  0  0  0  0  0  0  0  0  0
  -25.6841  -12.7631   20.9208 O   0  0  0  0  0  0  0  0  0  0  0  0
  -28.6319  -10.5465   19.0530 O   0  0  0  0  0  0  0  0  0  0  0  0
  -31.5687  -14.6762   20.0006 O   0  0  0  0  0  0  0  0  0  0  0  0
  -23.2670  -23.0844   25.8555 O   0  0  0  0  0  0  0  0  0  0  0  0
  -26.6494  -34.4578   22.7100 O   0  0  0  0  0  0  0  0  0  0  0  0
  -25.8417  -18.5491   18.8757 O   0  0  0  0  0  0  0  0  0  1  0  0
  -24.0307  -39.2409   23.5272 F   0  0  0  0  0  0  0  0  0  0  0  0
  -27.0585  -35.9223   25.0188 F   0  0  0  0  0  0  0  0  0  0  0  0
  -28.0928  -24.3669   25.0610 Cl  0  0  0  0  0  0  0  0  0  0  0  0
  1  2  1  0  0  0  0
  1  5  2  0  0  0  0
  2  6  2  0  0  0  0
  3  8  2  0  0  0  0
  3 16  1  0  0  0  0
  4  9  1  0  0  0  0
  4 16  2  0  0  0  0
  5 18  1  0  0  0  0
  6 20  1  0  0  0  0
  7 10  2  0  0  0  0
  7 19  1  0  0  0  0
  8 24  1  0  0  0  0
  9 24  2  0  0  0  0
 10 25  1  0  0  0  0
 11 12  2  0  0  0  0
 11 26  1  0  0  0  0
 12 27  1  0  0  0  0
 13 21  1  0  0  0  0
 13 23  2  0  0  0  0
 14 22  1  0  0  0  0
 14 25  2  0  0  0  0
 15 27  2  0  0  0  0
 15 28  1  0  0  0  0
 16 29  1  0  0  0  0
 17 29  1  0  0  0  0
 17 32  2  0  0  0  0
 17 33  1  0  0  0  0
 18 20  2  0  0  0  0
 18 38  1  0  0  0  0
 19 22  2  0  0  0  0
 19 39  1  0  0  0  0
 20 52  1  0  0  0  0
 21 30  2  0  0  0  0
 21 51  1  0  0  0  0
 22 40  1  0  0  0  0
 23 31  1  0  0  0  0
 23 63  1  0  0  0  0
 24 83  1  0  0  0  0
 25 84  1  0  0  0  0
 26 28  2  0  0  0  0
 26 83  1  0  0  0  0
 27 85  1  0  0  0  0
 28 86  1  0  0  0  0
 29 67  2  0  0  0  0
 30 56  1  0  0  0  0
 30 68  1  0  0  0  0
 31 68  2  0  0  0  0
 31 87  1  0  0  0  0
 32 69  1  0  0  0  0
 32 72  1  0  0  0  0
 33 73  1  0  0  0  0
 33 78  2  0  0  0  0
 34 53  1  0  0  0  0
 34 74  1  0  0  0  0
 34 79  2  0  0  0  0
 35 64  1  0  0  0  0
 35 70  1  0  0  0  0
 35 80  2  0  0  0  0
 36 65  1  0  0  0  0
 36 75  1  0  0  0  0
 36 81  2  0  0  0  0
 37 71  1  0  0  0  0
 37 76  1  0  0  0  0
 37 82  2  0  0  0  0
 38 41  1  0  0  0  0
 39 53  1  0  0  0  0
 40 70  1  0  0  0  0
 41 45  1  0  0  0  0
 42 46  1  0  0  0  0
 42 49  1  0  0  0  0
 43 47  1  0  0  0  0
 43 51  1  0  0  0  0
 44 48  1  0  0  0  0
 44 51  1  0  0  0  0
 45 52  1  0  0  0  0
 46 54  1  0  0  0  0
 47 55  1  0  0  0  0
 48 55  1  0  0  0  0
 49 71  1  0  0  0  0
 50 54  1  0  0  0  0
 50 71  1  0  0  0  0
 52 74  1  0  0  0  0
 53 70  1  0  0  0  0
 54 69  1  0  0  0  0
 55 57  1  0  0  0  0
 55 84  1  0  0  0  0
 58 65  1  0  0  0  0
 59 66  1  0  0  0  0
 60 66  1  0  0  0  0
 61 66  1  0  0  0  0
 62 77  1  0  0  0  0
 63 76  1  0  0  0  0
 64 66  1  0  0  0  0
 64 75  1  0  0  0  0
 65 77  1  0  0  0  0
 67 69  1  0  0  0  0
M  CHG  1  77   1
M  ISO  4  37 100  55 101  76 100  84 101
M  END
> <Batch ID>
0028

> <Smiles>
CNC(C)C(=O)NC(C(=O)N1Cc2cc([101O:1][101C:1]3(C)CCC(c4cc(C[100NH:0][100C:0](=O)N5CCCC(n6nc(-c7ccc(Oc8ccc(F)cc8F)cc7)c(C(N)=O)c6N)C5)c(Cl)nc4C)CC3)ccc2CC1C(=O)NC1CCCc2ccccc21)C(C)(C)C

> <Shape>
0.261

> <Color>
0.073

> <Negative vol penalty>
0.000

$$$$

  -OEChem-04052316333D

 87 96  0     1  0  0  0  0  0999 V2000
  -18.7027  -25.8652   19.2410 C   0  0  0  0  0  0  0  0  0  0  0  0
  -19.9853  -26.3411   18.9884 C   0  0  0  0  0  0  0  0  0  0  0  0
  -26.7561  -13.6011   21.3033 C   0  0  0  0  0  0  0  0  0  0  0  0
  -26.7283  -13.7384   18.8913 C   0  0  0  0  0  0  0  0  0  0  0  0
  -18.1146  -26.0771   20.4873 C   0  0  0  0  0  0  0  0  0  0  0  0
  -20.6802  -27.0302   19.9817 C   0  0  0  0  0  0  0  0  0  0  0  0
  -25.4965  -25.5190   20.3880 C   0  0  0  0  0  0  0  0  0  0  0  0
  -25.9576  -12.4588   21.2475 C   0  0  0  0  0  0  0  0  0  0  0  0
  -25.9297  -12.5961   18.8355 C   0  0  0  0  0  0  0  0  0  0  0  0
  -26.3963  -25.9974   19.4366 C   0  0  0  0  0  0  0  0  0  0  0  0
  -22.6893  -11.7246   20.7961 C   0  0  0  0  0  0  0  0  0  0  0  0
  -21.6120  -11.6442   21.6784 C   0  0  0  0  0  0  0  0  0  0  0  0
  -27.1706  -27.6534   21.0106 C   0  0  0  0  0  0  0  0  0  0  0  0
  -22.5481   -9.6344   22.6383 C   0  0  0  0  0  0  0  0  0  0  0  0
  -27.1414  -14.2409   20.1252 C   0  0  0  0  0  0  0  0  0  0  0  0
  -29.3724  -15.4772   20.1689 C   0  0  0  0  0  0  0  0  0  0  0  0
  -18.8064  -26.7607   21.4995 C   0  0  0  0  0  0  0  0  0  0  0  0
  -25.4192  -26.1122   21.6563 C   0  0  0  0  0  0  0  0  0  0  0  0
  -20.1003  -27.2526   21.2423 C   0  0  0  0  0  0  0  0  0  0  0  0
  -26.2707  -27.1790   21.9771 C   0  0  0  0  0  0  0  0  0  0  0  0
  -33.0954  -22.5936   16.3677 C   0  0  0  0  0  0  0  0  0  0  0  0
  -32.0960  -21.7837   16.9253 C   0  0  0  0  0  0  0  0  0  0  0  0
  -32.9692  -23.9831   16.4499 C   0  0  0  0  0  0  0  0  0  0  0  0
  -25.5444  -11.9563   20.0136 C   0  0  0  0  0  0  0  0  0  0  0  0
  -27.2316  -27.0667   19.7469 C   0  0  0  0  0  0  0  0  0  0  0  0
  -23.6961  -10.7599   20.8349 C   0  0  0  0  0  0  0  0  0  0  0  0
  -21.5414  -10.5992   22.5995 C   0  0  0  0  0  0  0  0  0  0  0  0
  -23.6254   -9.7148   21.7560 C   0  0  0  0  0  0  0  0  0  0  0  0
  -27.9658  -15.4213   20.1822 C   0  0  0  0  0  0  0  0  0  0  0  0
  -31.8419  -24.5085   17.0603 C   0  0  0  0  0  0  0  0  0  0  0  0
  -31.0018  -22.4200   17.5061 C   0  0  0  0  0  0  0  0  0  0  0  0
  -29.6634  -16.8176   20.2410 C   0  0  0  0  0  0  0  0  0  0  0  0
  -30.3303  -14.4128   20.0977 C   0  0  0  0  0  0  0  0  0  0  0  0
  -23.1550  -27.6364   23.2854 C   0  0  0  0  0  0  0  0  0  0  0  0
  -25.3496  -27.5355   25.6721 C   0  0  0  0  0  0  0  0  0  0  0  0
  -28.6293  -27.2929   26.5839 C   0  0  0  0  0  0  0  0  0  0  0  0
  -28.7877  -22.0841   18.6597 C   0  0  0  0  0  0  0  0  0  0  0  0
  -18.1112  -27.0068   22.8151 C   0  0  0  0  0  0  0  0  0  0  0  0
  -24.4618  -25.5671   22.6804 C   0  0  0  0  0  0  0  0  0  0  0  0
  -34.3285  -21.9974   15.7379 C   0  0  0  0  0  0  0  0  0  0  0  0
  -32.1507  -20.2829   16.8540 C   0  0  0  0  0  0  0  0  0  0  0  0
  -26.2411  -27.8376   23.3313 C   0  0  0  0  0  0  0  0  0  0  0  0
  -19.0600  -27.4194   23.9376 C   0  0  0  0  0  0  0  0  0  0  0  0
  -34.1643  -20.5212   15.3769 C   0  0  0  0  0  0  0  0  0  0  0  0
  -33.5485  -19.7512   16.5393 C   0  0  0  0  0  0  0  0  0  0  0  0
  -26.6803  -20.7880   21.2202 C   0  0  0  0  0  0  0  0  0  0  0  0
  -20.0229  -28.4987   23.4530 C   0  0  0  0  0  0  0  0  0  0  0  0
  -26.9426  -19.2808   21.1774 C   0  0  0  0  0  0  0  0  0  0  0  0
  -26.6992  -21.4069   19.8237 C   0  0  0  0  0  0  0  0  0  0  0  0
  -28.1645  -19.6105   18.9898 C   0  0  0  0  0  0  0  0  0  0  0  0
  -20.8958  -27.9831   22.3024 C   0  0  1  0  0  0  0  0  0  0  0  0
  -24.1082  -26.5789   23.7660 C   0  0  1  0  0  0  0  0  0  0  0  0
  -28.2195  -18.9535   20.3787 C   0  0  2  0  0  0  0  0  0  0  0  0
  -33.6159  -25.5134   14.5720 C   0  0  0  0  0  0  0  0  0  0  0  0
  -30.1160  -27.2780   28.6055 C   0  0  0  0  0  0  0  0  0  0  0  0
  -25.0184  -30.5573   25.9349 C   0  0  0  0  0  0  0  0  0  0  0  0
  -27.1488  -30.6064   27.2492 C   0  0  0  0  0  0  0  0  0  0  0  0
  -25.1837  -29.3330   28.1093 C   0  0  0  0  0  0  0  0  0  0  0  0
  -29.6159  -24.5684   25.9818 C   0  0  0  0  0  0  0  0  0  0  0  0
  -34.0207  -24.8950   15.9065 C   0  0  0  0  0  0  0  0  0  0  0  0
  -31.6603  -25.9937   17.1704 C   0  0  0  0  0  0  0  0  0  0  0  0
  -30.4418  -27.8467   18.3195 C   0  0  0  0  0  0  0  0  0  0  0  0
  -29.3221  -28.1115   19.3066 C   0  0  0  0  0  0  0  0  0  1  0  0
  -26.4736  -28.4335   26.1296 C   0  0  1  0  0  0  0  0  0  0  0  0
  -29.3253  -26.4303   27.6212 C   0  0  2  0  0  0  0  0  0  0  0  0
  -25.9556  -29.7216   26.8295 C   0  0  0  0  0  0  0  0  0  0  0  0
  -27.4024  -16.6300   20.2570 N   0  0  0  0  0  0  0  0  0  0  0  0
  -30.8509  -23.7607   17.5894 N   0  0  0  0  0  0  0  0  0  0  0  0
  -28.4603  -17.4581   20.2915 N   0  0  0  0  0  0  0  0  0  0  0  0
  -25.2836  -27.2727   24.2965 N   0  0  0  0  0  0  0  0  0  0  0  0
  -27.9401  -21.0580   19.1284 N   0  0  0  0  0  0  0  0  0  0  0  0
  -30.8285  -17.4991   20.2657 N   0  0  0  0  0  0  0  0  0  0  0  0
  -29.8601  -13.0943   20.0288 N   0  0  0  0  0  0  0  0  0  0  0  0
  -29.9541  -21.6319   18.0436 N   0  0  0  0  0  0  0  0  0  0  0  0
  -21.9560  -27.1396   22.8112 N   0  0  0  0  0  0  0  0  0  0  0  0
  -27.3417  -27.6086   26.9629 N   0  0  0  0  0  0  0  0  0  0  0  0
  -30.2636  -25.4802   26.9595 N   0  3  0  0  0  0  0  0  0  0  0  0
  -30.6040  -26.3814   18.1440 N   0  3  0  0  0  0  0  0  0  0  0  0
  -31.5668  -14.6236   20.1118 O   0  0  0  0  0  0  0  0  0  0  0  0
  -23.4826  -28.8159   23.3422 O   0  0  0  0  0  0  0  0  0  0  0  0
  -24.5635  -27.0782   26.5055 O   0  0  0  0  0  0  0  0  0  0  0  0
  -29.1747  -27.6540   25.5433 O   0  0  0  0  0  0  0  0  0  0  0  0
  -28.5131  -23.2762   18.8192 O   0  0  0  0  0  0  0  0  0  0  0  0
  -24.7654  -10.8415   19.9588 O   0  0  0  0  0  0  0  0  0  0  0  0
  -28.1103  -27.5361   18.8199 O   0  0  0  0  0  0  0  0  0  1  0  0
  -20.5075  -10.5229   23.4478 F   0  0  0  0  0  0  0  0  0  0  0  0
  -24.5902   -8.7857   21.7988 F   0  0  0  0  0  0  0  0  0  0  0  0
  1  2  1  0  0  0  0
  1  5  2  0  0  0  0
  2  6  2  0  0  0  0
  3  8  2  0  0  0  0
  3 15  1  0  0  0  0
  4  9  1  0  0  0  0
  4 15  2  0  0  0  0
  5 17  1  0  0  0  0
  6 19  1  0  0  0  0
  7 10  2  0  0  0  0
  7 18  1  0  0  0  0
  8 24  1  0  0  0  0
  9 24  2  0  0  0  0
 10 25  1  0  0  0  0
 11 12  2  0  0  0  0
 11 26  1  0  0  0  0
 12 27  1  0  0  0  0
 13 20  1  0  0  0  0
 13 25  2  0  0  0  0
 14 27  2  0  0  0  0
 14 28  1  0  0  0  0
 15 29  1  0  0  0  0
 16 29  1  0  0  0  0
 16 32  2  0  0  0  0
 16 33  1  0  0  0  0
 17 19  2  0  0  0  0
 17 38  1  0  0  0  0
 18 20  2  0  0  0  0
 18 39  1  0  0  0  0
 19 51  1  0  0  0  0
 20 42  1  0  0  0  0
 21 22  1  0  0  0  0
 21 23  2  0  0  0  0
 21 40  1  0  0  0  0
 22 31  2  0  0  0  0
 22 41  1  0  0  0  0
 23 30  1  0  0  0  0
 23 60  1  0  0  0  0
 24 84  1  0  0  0  0
 25 85  1  0  0  0  0
 26 28  2  0  0  0  0
 26 84  1  0  0  0  0
 27 86  1  0  0  0  0
 28 87  1  0  0  0  0
 29 67  2  0  0  0  0
 30 61  1  0  0  0  0
 30 68  2  0  0  0  0
 31 68  1  0  0  0  0
 31 74  1  0  0  0  0
 32 69  1  0  0  0  0
 32 72  1  0  0  0  0
 33 73  1  0  0  0  0
 33 79  2  0  0  0  0
 34 52  1  0  0  0  0
 34 75  1  0  0  0  0
 34 80  2  0  0  0  0
 35 64  1  0  0  0  0
 35 70  1  0  0  0  0
 35 81  2  0  0  0  0
 36 65  1  0  0  0  0
 36 76  1  0  0  0  0
 36 82  2  0  0  0  0
 37 71  1  0  0  0  0
 37 74  1  0  0  0  0
 37 83  2  0  0  0  0
 38 43  1  0  0  0  0
 39 52  1  0  0  0  0
 40 44  1  0  0  0  0
 41 45  1  0  0  0  0
 42 70  1  0  0  0  0
 43 47  1  0  0  0  0
 44 45  1  0  0  0  0
 46 48  1  0  0  0  0
 46 49  1  0  0  0  0
 47 51  1  0  0  0  0
 48 53  1  0  0  0  0
 49 71  1  0  0  0  0
 50 53  1  0  0  0  0
 50 71  1  0  0  0  0
 51 75  1  0  0  0  0
 52 70  1  0  0  0  0
 53 69  1  0  0  0  0
 54 60  1  0  0  0  0
 55 65  1  0  0  0  0
 56 66  1  0  0  0  0
 57 66  1  0  0  0  0
 58 66  1  0  0  0  0
 59 77  1  0  0  0  0
 61 78  1  0  0  0  0
 62 63  1  0  0  0  0
 62 78  1  0  0  0  0
 63 85  1  0  0  0  0
 64 66  1  0  0  0  0
 64 76  1  0  0  0  0
 65 77  1  0  0  0  0
 67 69  1  0  0  0  0
M  CHG  2  77   1  78   1
M  ISO  4  37 100  63 101  74 100  85 101
M  END
> <Batch ID>
0028

> <Smiles>
CCc1c(CNC[101CH2:1][101O:1]c2ccc3c(c2)CN(C(=O)C(NC(=O)C(C)NC)C(C)(C)C)C(C(=O)NC2CCCc4ccccc42)C3)nc([100NH:0][100C:0](=O)N2CCCC(n3nc(-c4ccc(Oc5ccc(F)cc5F)cc4)c(C(N)=O)c3N)C2)c2c1CCCC2

> <Shape>
0.239

> <Color>
0.089

> <Negative vol penalty>
0.000

$$$$

  -OEChem-04052316333D

 86 95  0     1  0  0  0  0  0999 V2000
  -22.5044  -26.8471   18.7550 C   0  0  0  0  0  0  0  0  0  0  0  0
  -23.0609  -25.7124   18.1734 C   0  0  0  0  0  0  0  0  0  0  0  0
  -26.3665  -28.2981   18.8914 C   0  0  0  0  0  0  0  0  0  0  0  0
  -26.4938  -27.9701   21.2816 C   0  0  0  0  0  0  0  0  0  0  0  0
  -22.2149  -26.8593   20.1188 C   0  0  0  0  0  0  0  0  0  0  0  0
  -23.3293  -24.5897   18.9556 C   0  0  0  0  0  0  0  0  0  0  0  0
  -23.4859  -17.4373   18.5878 C   0  0  0  0  0  0  0  0  0  0  0  0
  -25.4506  -29.3326   19.0821 C   0  0  0  0  0  0  0  0  0  0  0  0
  -25.5780  -29.0047   21.4724 C   0  0  0  0  0  0  0  0  0  0  0  0
  -24.3330  -16.3632   18.8573 C   0  0  0  0  0  0  0  0  0  0  0  0
  -25.6068  -32.3840   21.4840 C   0  0  0  0  0  0  0  0  0  0  0  0
  -25.8863  -33.3195   22.4801 C   0  0  0  0  0  0  0  0  0  0  0  0
  -23.7178  -16.4706   21.1874 C   0  0  0  0  0  0  0  0  0  0  0  0
  -28.4594  -15.3181   21.0043 C   0  0  0  0  0  0  0  0  0  0  0  0
  -30.3756  -16.4947   20.0832 C   0  0  0  0  0  0  0  0  0  0  0  0
  -23.8294  -32.7360   23.6052 C   0  0  0  0  0  0  0  0  0  0  0  0
  -28.9781  -12.1714   19.2881 C   0  0  0  0  0  0  0  0  0  0  0  0
  -29.9622  -14.2022   19.4186 C   0  0  0  0  0  0  0  0  0  0  0  0
  -26.8881  -27.6167   19.9911 C   0  0  0  0  0  0  0  0  0  0  0  0
  -29.2363  -26.6535   19.7348 C   0  0  0  0  0  0  0  0  0  0  0  0
  -22.4710  -25.7327   20.9162 C   0  0  0  0  0  0  0  0  0  0  0  0
  -22.7555  -18.0441   19.6197 C   0  0  0  0  0  0  0  0  0  0  0  0
  -23.0442  -24.5873   20.3316 C   0  0  0  0  0  0  0  0  0  0  0  0
  -22.8602  -17.5505   20.9279 C   0  0  0  0  0  0  0  0  0  0  0  0
  -29.2504  -16.4663   20.9047 C   0  0  0  0  0  0  0  0  0  0  0  0
  -30.0366  -12.9142   18.8181 C   0  0  0  0  0  0  0  0  0  0  0  0
  -28.8401  -14.2026   20.2500 C   0  0  0  0  0  0  0  0  0  0  0  0
  -25.0564  -29.6860   20.3726 C   0  0  0  0  0  0  0  0  0  0  0  0
  -24.4513  -15.8816   20.1578 C   0  0  0  0  0  0  0  0  0  0  0  0
  -24.4385  -31.6245   21.5484 C   0  0  0  0  0  0  0  0  0  0  0  0
  -24.9976  -33.4955   23.5407 C   0  0  0  0  0  0  0  0  0  0  0  0
  -23.5499  -31.8005   22.6090 C   0  0  0  0  0  0  0  0  0  0  0  0
  -30.7443  -15.3712   19.3343 C   0  0  0  0  0  0  0  0  0  0  0  0
  -27.8338  -26.5476   19.7948 C   0  0  0  0  0  0  0  0  0  0  0  0
  -29.6697  -25.3654   19.5358 C   0  0  0  0  0  0  0  0  0  0  0  0
  -30.0725  -27.8125   19.8488 C   0  0  0  0  0  0  0  0  0  0  0  0
  -22.6669  -20.9549   20.8936 C   0  0  0  0  0  0  0  0  0  0  0  0
  -20.1710  -19.7252   22.5611 C   0  0  0  0  0  0  0  0  0  0  0  0
  -18.5976  -16.9646   23.8062 C   0  0  0  0  0  0  0  0  0  0  0  0
  -28.4056  -20.0577   21.1612 C   0  0  0  0  0  0  0  0  0  0  0  0
  -22.1849  -25.8099   22.3950 C   0  0  0  0  0  0  0  0  0  0  0  0
  -21.8257  -19.1846   19.3080 C   0  0  0  0  0  0  0  0  0  0  0  0
  -22.0822  -18.1538   22.0678 C   0  0  0  0  0  0  0  0  0  0  0  0
  -22.1525  -24.4466   23.0811 C   0  0  0  0  0  0  0  0  0  0  0  0
  -27.5944  -21.2141   17.8292 C   0  0  0  0  0  0  0  0  0  0  0  0
  -23.3502  -23.6047   22.6525 C   0  0  0  0  0  0  0  0  0  0  0  0
  -27.7127  -22.7301   17.9962 C   0  0  0  0  0  0  0  0  0  0  0  0
  -26.9978  -20.5655   19.0748 C   0  0  0  0  0  0  0  0  0  0  0  0
  -27.8489  -22.3822   20.5062 C   0  0  0  0  0  0  0  0  0  0  0  0
  -23.3269  -23.3410   21.1421 C   0  0  1  0  0  0  0  0  0  0  0  0
  -21.5213  -20.0563   20.5224 C   0  0  1  0  0  0  0  0  0  0  0  0
  -28.4665  -23.0943   19.2890 C   0  0  2  0  0  0  0  0  0  0  0  0
  -31.0446  -12.4118   17.8611 C   0  0  0  0  0  0  0  0  0  0  0  0
  -16.5982  -16.2790   25.1589 C   0  0  0  0  0  0  0  0  0  0  0  0
  -21.5822  -20.6410   25.1066 C   0  0  0  0  0  0  0  0  0  0  0  0
  -20.0674  -19.1301   26.4068 C   0  0  0  0  0  0  0  0  0  0  0  0
  -19.1103  -21.0203   25.0901 C   0  0  0  0  0  0  0  0  0  0  0  0
  -17.4832  -15.3784   21.5698 C   0  0  0  0  0  0  0  0  0  0  0  0
  -28.8810  -17.6807   21.6914 C   0  0  0  0  0  0  0  0  0  0  0  0
  -25.7597  -12.5203   20.0089 C   0  0  0  0  0  0  0  0  0  0  0  0
  -27.0196  -12.5075   20.8773 C   0  0  0  0  0  0  0  0  0  0  0  0
  -25.4725  -13.8792   19.3810 C   0  0  0  0  0  0  0  0  0  1  0  0
  -20.0177  -18.9975   23.8748 C   0  0  1  0  0  0  0  0  0  0  0  0
  -17.1445  -16.5274   23.7616 C   0  0  2  0  0  0  0  0  0  0  0  0
  -20.2107  -19.9369   25.0987 C   0  0  0  0  0  0  0  0  0  0  0  0
  -27.4047  -25.2915   19.6458 N   0  0  0  0  0  0  0  0  0  0  0  0
  -28.2620  -12.9571   20.1508 N   0  0  0  0  0  0  0  0  0  0  0  0
  -28.5443  -24.5963   19.4901 N   0  0  0  0  0  0  0  0  0  0  0  0
  -21.1912  -19.2710   21.7134 N   0  0  0  0  0  0  0  0  0  0  0  0
  -27.7724  -20.9371   20.2673 N   0  0  0  0  0  0  0  0  0  0  0  0
  -30.8999  -24.8271   19.3971 N   0  0  0  0  0  0  0  0  0  0  0  0
  -29.4635  -29.0585   20.0514 N   0  0  0  0  0  0  0  0  0  0  0  0
  -22.3699  -22.3027   20.8250 N   0  0  0  0  0  0  0  0  0  0  0  0
  -18.7172  -18.3381   23.8270 N   0  0  0  0  0  0  0  0  0  0  0  0
  -28.2794  -18.7055   20.8674 N   0  0  0  0  0  0  0  0  0  0  0  0
  -17.0056  -15.2708   22.9724 N   0  3  0  0  0  0  0  0  0  0  0  0
  -31.3219  -27.7476   19.7568 O   0  0  0  0  0  0  0  0  0  0  0  0
  -23.7404  -20.4619   21.2198 O   0  0  0  0  0  0  0  0  0  0  0  0
  -19.4087  -20.6574   22.2936 O   0  0  0  0  0  0  0  0  0  0  0  0
  -19.5328  -16.1673   23.8247 O   0  0  0  0  0  0  0  0  0  0  0  0
  -29.0415  -20.4489   22.1459 O   0  0  0  0  0  0  0  0  0  0  0  0
  -24.1628  -30.6956   20.5590 O   0  0  0  0  0  0  0  0  0  0  0  0
  -25.2778  -14.8337   20.4237 O   0  0  0  0  0  0  0  0  0  1  0  0
  -25.2669  -34.3928   24.4981 F   0  0  0  0  0  0  0  0  0  0  0  0
  -22.4265  -31.0730   22.6769 F   0  0  0  0  0  0  0  0  0  0  0  0
  -32.1154  -15.3774   18.3204 Cl  0  0  0  0  0  0  0  0  0  0  0  0
  1  2  1  0  0  0  0
  1  5  2  0  0  0  0
  2  6  2  0  0  0  0
  3  8  2  0  0  0  0
  3 19  1  0  0  0  0
  4  9  1  0  0  0  0
  4 19  2  0  0  0  0
  5 21  1  0  0  0  0
  6 23  1  0  0  0  0
  7 10  2  0  0  0  0
  7 22  1  0  0  0  0
  8 28  1  0  0  0  0
  9 28  2  0  0  0  0
 10 29  1  0  0  0  0
 11 12  2  0  0  0  0
 11 30  1  0  0  0  0
 12 31  1  0  0  0  0
 13 24  1  0  0  0  0
 13 29  2  0  0  0  0
 14 25  2  0  0  0  0
 14 27  1  0  0  0  0
 15 25  1  0  0  0  0
 15 33  2  0  0  0  0
 16 31  2  0  0  0  0
 16 32  1  0  0  0  0
 17 26  2  0  0  0  0
 17 67  1  0  0  0  0
 18 26  1  0  0  0  0
 18 27  2  0  0  0  0
 18 33  1  0  0  0  0
 19 34  1  0  0  0  0
 20 34  1  0  0  0  0
 20 35  2  0  0  0  0
 20 36  1  0  0  0  0
 21 23  2  0  0  0  0
 21 41  1  0  0  0  0
 22 24  2  0  0  0  0
 22 42  1  0  0  0  0
 23 50  1  0  0  0  0
 24 43  1  0  0  0  0
 25 59  1  0  0  0  0
 26 53  1  0  0  0  0
 27 67  1  0  0  0  0
 28 82  1  0  0  0  0
 29 83  1  0  0  0  0
 30 32  2  0  0  0  0
 30 82  1  0  0  0  0
 31 84  1  0  0  0  0
 32 85  1  0  0  0  0
 33 86  1  0  0  0  0
 34 66  2  0  0  0  0
 35 68  1  0  0  0  0
 35 71  1  0  0  0  0
 36 72  1  0  0  0  0
 36 77  2  0  0  0  0
 37 51  1  0  0  0  0
 37 73  1  0  0  0  0
 37 78  2  0  0  0  0
 38 63  1  0  0  0  0
 38 69  1  0  0  0  0
 38 79  2  0  0  0  0
 39 64  1  0  0  0  0
 39 74  1  0  0  0  0
 39 80  2  0  0  0  0
 40 70  1  0  0  0  0
 40 75  1  0  0  0  0
 40 81  2  0  0  0  0
 41 44  1  0  0  0  0
 42 51  1  0  0  0  0
 43 69  1  0  0  0  0
 44 46  1  0  0  0  0
 45 47  1  0  0  0  0
 45 48  1  0  0  0  0
 46 50  1  0  0  0  0
 47 52  1  0  0  0  0
 48 70  1  0  0  0  0
 49 52  1  0  0  0  0
 49 70  1  0  0  0  0
 50 73  1  0  0  0  0
 51 69  1  0  0  0  0
 52 68  1  0  0  0  0
 54 64  1  0  0  0  0
 55 65  1  0  0  0  0
 56 65  1  0  0  0  0
 57 65  1  0  0  0  0
 58 76  1  0  0  0  0
 59 75  1  0  0  0  0
 60 61  1  0  0  0  0
 60 62  1  0  0  0  0
 61 67  1  0  0  0  0
 62 83  1  0  0  0  0
 63 65  1  0  0  0  0
 63 74  1  0  0  0  0
 64 76  1  0  0  0  0
 66 68  1  0  0  0  0
M  CHG  1  76   1
M  ISO  4  40 100  62 101  75 100  83 101
M  END
> <Batch ID>
0028

> <Smiles>
CNC(C)C(=O)NC(C(=O)N1Cc2cc([101O:1][101CH2:1]CCn3cc(C)c4c(Cl)cc(C[100NH:0][100C:0](=O)N5CCCC(n6nc(-c7ccc(Oc8ccc(F)cc8F)cc7)c(C(N)=O)c6N)C5)cc43)ccc2CC1C(=O)NC1CCCc2ccccc21)C(C)(C)C

> <Shape>
0.224

> <Color>
0.063

> <Negative vol penalty>
0.000

$$$$

  -OEChem-04052316333D

 85 93  0     1  0  0  0  0  0999 V2000
  -17.2642  -22.9717   19.2840 C   0  0  0  0  0  0  0  0  0  0  0  0
  -17.9175  -21.7714   19.5445 C   0  0  0  0  0  0  0  0  0  0  0  0
  -27.8067  -23.3560   20.8144 C   0  0  0  0  0  0  0  0  0  0  0  0
  -28.6579  -23.1902   18.5594 C   0  0  0  0  0  0  0  0  0  0  0  0
  -17.8307  -24.1766   19.6979 C   0  0  0  0  0  0  0  0  0  0  0  0
  -19.1384  -21.7754   20.2183 C   0  0  0  0  0  0  0  0  0  0  0  0
  -19.3792  -18.2272   23.8235 C   0  0  0  0  0  0  0  0  0  0  0  0
  -27.8258  -24.7475   20.7194 C   0  0  0  0  0  0  0  0  0  0  0  0
  -28.6770  -24.5817   18.4643 C   0  0  0  0  0  0  0  0  0  0  0  0
  -19.6187  -16.9168   23.4121 C   0  0  0  0  0  0  0  0  0  0  0  0
  -25.9196  -27.1765   19.3412 C   0  0  0  0  0  0  0  0  0  0  0  0
  -24.8027  -27.8732   19.8024 C   0  0  0  0  0  0  0  0  0  0  0  0
  -21.9424  -17.1592   24.0130 C   0  0  0  0  0  0  0  0  0  0  0  0
  -24.3685  -12.1494   21.5695 C   0  0  0  0  0  0  0  0  0  0  0  0
  -25.5655  -13.6701   19.5602 C   0  0  0  0  0  0  0  0  0  0  0  0
  -26.1893  -29.0370   21.4024 C   0  0  0  0  0  0  0  0  0  0  0  0
  -28.2228  -22.5774   19.7345 C   0  0  0  0  0  0  0  0  0  0  0  0
  -27.1425  -20.2789   19.4947 C   0  0  0  0  0  0  0  0  0  0  0  0
  -19.0544  -24.1946   20.3856 C   0  0  0  0  0  0  0  0  0  0  0  0
  -20.4235  -19.0184   24.3233 C   0  0  0  0  0  0  0  0  0  0  0  0
  -19.7225  -22.9817   20.6406 C   0  0  0  0  0  0  0  0  0  0  0  0
  -21.7130  -18.4785   24.4324 C   0  0  0  0  0  0  0  0  0  0  0  0
  -23.7158  -13.2731   21.0629 C   0  0  0  0  0  0  0  0  0  0  0  0
  -25.6198  -11.7860   21.0716 C   0  0  0  0  0  0  0  0  0  0  0  0
  -24.3142  -14.0335   20.0582 C   0  0  0  0  0  0  0  0  0  0  0  0
  -26.2183  -12.5464   20.0669 C   0  0  0  0  0  0  0  0  0  0  0  0
  -28.2609  -25.3604   19.5443 C   0  0  0  0  0  0  0  0  0  0  0  0
  -20.9010  -16.3835   23.5042 C   0  0  0  0  0  0  0  0  0  0  0  0
  -27.1714  -27.4100   19.9106 C   0  0  0  0  0  0  0  0  0  0  0  0
  -24.9375  -28.8034   20.8330 C   0  0  0  0  0  0  0  0  0  0  0  0
  -27.3062  -28.3402   20.9412 C   0  0  0  0  0  0  0  0  0  0  0  0
  -28.2038  -21.1400   19.8323 C   0  0  0  0  0  0  0  0  0  0  0  0
  -27.6213  -19.0207   19.7671 C   0  0  0  0  0  0  0  0  0  0  0  0
  -25.8403  -20.5886   18.9809 C   0  0  0  0  0  0  0  0  0  0  0  0
  -21.8081  -21.7347   23.4241 C   0  0  0  0  0  0  0  0  0  0  0  0
  -23.3915  -21.4040   26.2359 C   0  0  0  0  0  0  0  0  0  0  0  0
  -24.5064  -19.3306   28.7066 C   0  0  0  0  0  0  0  0  0  0  0  0
  -31.6895  -15.2070   19.5405 C   0  0  0  0  0  0  0  0  0  0  0  0
  -19.6507  -25.5251   20.7715 C   0  0  0  0  0  0  0  0  0  0  0  0
  -20.1433  -20.4213   24.7878 C   0  0  0  0  0  0  0  0  0  0  0  0
  -22.8644  -19.2797   24.9810 C   0  0  0  0  0  0  0  0  0  0  0  0
  -20.7641  -25.4153   21.8101 C   0  0  0  0  0  0  0  0  0  0  0  0
  -31.7890  -17.5445   22.2243 C   0  0  0  0  0  0  0  0  0  0  0  0
  -21.7395  -24.3052   21.4317 C   0  0  0  0  0  0  0  0  0  0  0  0
  -30.7827  -18.6197   21.8104 C   0  0  0  0  0  0  0  0  0  0  0  0
  -32.5534  -16.9943   21.0223 C   0  0  0  0  0  0  0  0  0  0  0  0
  -30.6984  -17.5762   19.5076 C   0  0  0  0  0  0  0  0  0  0  0  0
  -21.0362  -22.9431   21.3907 C   0  0  1  0  0  0  0  0  0  0  0  0
  -21.3862  -21.3058   24.8010 C   0  0  1  0  0  0  0  0  0  0  0  0
  -29.8635  -18.1217   20.6789 C   0  0  2  0  0  0  0  0  0  0  0  0
  -26.2977  -10.5792   21.6343 C   0  0  0  0  0  0  0  0  0  0  0  0
  -23.6345  -15.2409   19.5012 C   0  0  0  0  0  0  0  0  0  0  0  0
  -25.8035  -19.3456   30.8548 C   0  0  0  0  0  0  0  0  0  0  0  0
  -25.9901  -21.6878   24.6621 C   0  0  0  0  0  0  0  0  0  0  0  0
  -27.2094  -20.7622   26.6432 C   0  0  0  0  0  0  0  0  0  0  0  0
  -25.9538  -22.9082   26.8447 C   0  0  0  0  0  0  0  0  0  0  0  0
  -22.1949  -18.3056   30.2445 C   0  0  0  0  0  0  0  0  0  0  0  0
  -22.3627  -13.6469   21.6178 C   0  0  0  0  0  0  0  0  0  0  0  0
  -29.7616  -12.6088   18.7854 C   0  0  0  0  0  0  0  0  0  0  0  0
  -28.3224  -13.1182   18.8539 C   0  0  0  0  0  0  0  0  0  0  0  0
  -30.7078  -13.5205   18.0071 C   0  0  0  0  0  0  0  0  0  0  0  0
  -22.4396  -14.8136   22.5966 C   0  0  0  0  0  0  0  0  0  1  0  0
  -24.6738  -20.7350   26.6685 C   0  0  1  0  0  0  0  0  0  0  0  0
  -24.4246  -19.4310   30.2191 C   0  0  2  0  0  0  0  0  0  0  0  0
  -25.9357  -21.5086   26.1924 C   0  0  0  0  0  0  0  0  0  0  0  0
  -29.2759  -20.4842   20.2846 N   0  0  0  0  0  0  0  0  0  0  0  0
  -28.8907  -19.1977   20.2333 N   0  0  0  0  0  0  0  0  0  0  0  0
  -22.5412  -20.6486   25.4161 N   0  0  0  0  0  0  0  0  0  0  0  0
  -31.6239  -16.5375   19.9863 N   0  0  0  0  0  0  0  0  0  0  0  0
  -27.0760  -17.7912   19.6509 N   0  0  0  0  0  0  0  0  0  0  0  0
  -25.5120  -21.9330   18.7589 N   0  0  0  0  0  0  0  0  0  0  0  0
  -27.4850  -12.1938   19.5516 N   0  0  0  0  0  0  0  0  0  0  0  0
  -20.8392  -22.4355   22.7316 N   0  0  0  0  0  0  0  0  0  0  0  0
  -24.5822  -20.5740   28.1156 N   0  0  0  0  0  0  0  0  0  0  0  0
  -30.7686  -14.8546   18.5614 N   0  0  0  0  0  0  0  0  0  0  0  0
  -23.5854  -18.3279   30.7668 N   0  3  0  0  0  0  0  0  0  0  0  0
  -24.9871  -19.7008   18.7416 O   0  0  0  0  0  0  0  0  0  0  0  0
  -22.9301  -21.4520   23.0205 O   0  0  0  0  0  0  0  0  0  0  0  0
  -23.1498  -22.5520   26.6173 O   0  0  0  0  0  0  0  0  0  0  0  0
  -24.5071  -18.2564   28.1094 O   0  0  0  0  0  0  0  0  0  0  0  0
  -32.5045  -14.3921   19.9861 O   0  0  0  0  0  0  0  0  0  0  0  0
  -28.2795  -26.7181   19.4511 O   0  0  0  0  0  0  0  0  0  0  0  0
  -21.1376  -15.1050   23.1028 O   0  0  0  0  0  0  0  0  0  1  0  0
  -23.8651  -29.4735   21.2747 F   0  0  0  0  0  0  0  0  0  0  0  0
  -28.5064  -28.5697   21.4914 F   0  0  0  0  0  0  0  0  0  0  0  0
  1  2  1  0  0  0  0
  1  5  2  0  0  0  0
  2  6  2  0  0  0  0
  3  8  2  0  0  0  0
  3 17  1  0  0  0  0
  4  9  1  0  0  0  0
  4 17  2  0  0  0  0
  5 19  1  0  0  0  0
  6 21  1  0  0  0  0
  7 10  2  0  0  0  0
  7 20  1  0  0  0  0
  8 27  1  0  0  0  0
  9 27  2  0  0  0  0
 10 28  1  0  0  0  0
 11 12  2  0  0  0  0
 11 29  1  0  0  0  0
 12 30  1  0  0  0  0
 13 22  1  0  0  0  0
 13 28  2  0  0  0  0
 14 23  1  0  0  0  0
 14 24  2  0  0  0  0
 15 25  1  0  0  0  0
 15 26  2  0  0  0  0
 16 30  2  0  0  0  0
 16 31  1  0  0  0  0
 17 32  1  0  0  0  0
 18 32  1  0  0  0  0
 18 33  2  0  0  0  0
 18 34  1  0  0  0  0
 19 21  2  0  0  0  0
 19 39  1  0  0  0  0
 20 22  2  0  0  0  0
 20 40  1  0  0  0  0
 21 48  1  0  0  0  0
 22 41  1  0  0  0  0
 23 25  2  0  0  0  0
 23 58  1  0  0  0  0
 24 26  1  0  0  0  0
 24 51  1  0  0  0  0
 25 52  1  0  0  0  0
 26 72  1  0  0  0  0
 27 82  1  0  0  0  0
 28 83  1  0  0  0  0
 29 31  2  0  0  0  0
 29 82  1  0  0  0  0
 30 84  1  0  0  0  0
 31 85  1  0  0  0  0
 32 66  2  0  0  0  0
 33 67  1  0  0  0  0
 33 70  1  0  0  0  0
 34 71  1  0  0  0  0
 34 77  2  0  0  0  0
 35 49  1  0  0  0  0
 35 73  1  0  0  0  0
 35 78  2  0  0  0  0
 36 63  1  0  0  0  0
 36 68  1  0  0  0  0
 36 79  2  0  0  0  0
 37 64  1  0  0  0  0
 37 74  1  0  0  0  0
 37 80  2  0  0  0  0
 38 69  1  0  0  0  0
 38 75  1  0  0  0  0
 38 81  2  0  0  0  0
 39 42  1  0  0  0  0
 40 49  1  0  0  0  0
 41 68  1  0  0  0  0
 42 44  1  0  0  0  0
 43 45  1  0  0  0  0
 43 46  1  0  0  0  0
 44 48  1  0  0  0  0
 45 50  1  0  0  0  0
 46 69  1  0  0  0  0
 47 50  1  0  0  0  0
 47 69  1  0  0  0  0
 48 73  1  0  0  0  0
 49 68  1  0  0  0  0
 50 67  1  0  0  0  0
 53 64  1  0  0  0  0
 54 65  1  0  0  0  0
 55 65  1  0  0  0  0
 56 65  1  0  0  0  0
 57 76  1  0  0  0  0
 58 62  1  0  0  0  0
 59 60  1  0  0  0  0
 59 61  1  0  0  0  0
 60 72  1  0  0  0  0
 61 75  1  0  0  0  0
 62 83  1  0  0  0  0
 63 65  1  0  0  0  0
 63 74  1  0  0  0  0
 64 76  1  0  0  0  0
 66 67  1  0  0  0  0
M  CHG  1  76   1
M  ISO  4  38 100  62 101  75 100  83 101
M  END
> <Batch ID>
0028

> <Smiles>
CNC(C)C(=O)NC(C(=O)N1Cc2cc([101O:1][101CH2:1]Cc3cc(C)c(NCCC[100NH:0][100C:0](=O)N4CCCC(n5nc(-c6ccc(Oc7ccc(F)cc7F)cc6)c(C(N)=O)c5N)C4)cc3C)ccc2CC1C(=O)NC1CCCc2ccccc21)C(C)(C)C

> <Shape>
0.194

> <Color>
0.077

> <Negative vol penalty>
0.000

$$$$

  -OEChem-04052316333D

 88 97  0     1  0  0  0  0  0999 V2000
  -16.2257  -22.7020   24.2596 C   0  0  0  0  0  0  0  0  0  0  0  0
  -17.5540  -22.3946   23.9829 C   0  0  0  0  0  0  0  0  0  0  0  0
  -22.6347  -10.2202   20.2694 C   0  0  0  0  0  0  0  0  0  0  0  0
  -24.2734   -9.4893   21.8873 C   0  0  0  0  0  0  0  0  0  0  0  0
  -15.2110  -21.8408   23.8441 C   0  0  0  0  0  0  0  0  0  0  0  0
  -17.8684  -21.2252   23.2914 C   0  0  0  0  0  0  0  0  0  0  0  0
  -21.3196  -21.9819   19.6634 C   0  0  0  0  0  0  0  0  0  0  0  0
  -21.8912   -9.0627   20.4995 C   0  0  0  0  0  0  0  0  0  0  0  0
  -23.5299   -8.3318   22.1174 C   0  0  0  0  0  0  0  0  0  0  0  0
  -22.6503  -22.0942   20.0640 C   0  0  0  0  0  0  0  0  0  0  0  0
  -23.0323   -5.3487   20.6060 C   0  0  0  0  0  0  0  0  0  0  0  0
  -23.7208   -4.1370   20.6636 C   0  0  0  0  0  0  0  0  0  0  0  0
  -23.0285  -19.7975   19.4305 C   0  0  0  0  0  0  0  0  0  0  0  0
  -31.6363  -18.3314   20.1365 C   0  0  0  0  0  0  0  0  0  0  0  0
  -22.9384   -3.8001   22.9245 C   0  0  0  0  0  0  0  0  0  0  0  0
  -23.8258  -10.4335   20.9632 C   0  0  0  0  0  0  0  0  0  0  0  0
  -24.1764  -12.9598   20.9130 C   0  0  0  0  0  0  0  0  0  0  0  0
  -15.5125  -20.6652   23.1387 C   0  0  0  0  0  0  0  0  0  0  0  0
  -20.8298  -20.7712   19.1527 C   0  0  0  0  0  0  0  0  0  0  0  0
  -16.8569  -20.3469   22.8672 C   0  0  0  0  0  0  0  0  0  0  0  0
  -21.6919  -19.6732   19.0218 C   0  0  0  0  0  0  0  0  0  0  0  0
  -29.2061  -19.7012   20.1205 C   0  0  0  0  0  0  0  0  0  0  0  0
  -30.6185  -17.9561   21.0132 C   0  0  0  0  0  0  0  0  0  0  0  0
  -29.4034  -18.6410   21.0052 C   0  0  0  0  0  0  0  0  0  0  0  0
  -30.2240  -20.0766   19.2437 C   0  0  0  0  0  0  0  0  0  0  0  0
  -22.3387   -8.1185   21.4235 C   0  0  0  0  0  0  0  0  0  0  0  0
  -23.5043  -21.0011   19.9502 C   0  0  0  0  0  0  0  0  0  0  0  0
  -22.2970   -5.7862   21.7076 C   0  0  0  0  0  0  0  0  0  0  0  0
  -23.6739   -3.3627   21.8229 C   0  0  0  0  0  0  0  0  0  0  0  0
  -31.4391  -19.3917   19.2517 C   0  0  0  0  0  0  0  0  0  0  0  0
  -22.2500   -5.0118   22.8668 C   0  0  0  0  0  0  0  0  0  0  0  0
  -24.5946  -11.6287   20.7255 C   0  0  0  0  0  0  0  0  0  0  0  0
  -25.2640  -13.7158   20.5494 C   0  0  0  0  0  0  0  0  0  0  0  0
  -22.9174  -13.4675   21.3745 C   0  0  0  0  0  0  0  0  0  0  0  0
  -18.5875  -18.7032   20.0466 C   0  0  0  0  0  0  0  0  0  0  0  0
  -19.3011  -17.3003   17.2102 C   0  0  0  0  0  0  0  0  0  0  0  0
  -22.2805  -16.5551   15.3168 C   0  0  0  0  0  0  0  0  0  0  0  0
  -30.7550  -14.7075   20.6515 C   0  0  0  0  0  0  0  0  0  0  0  0
  -14.3848  -19.7416   22.7514 C   0  0  0  0  0  0  0  0  0  0  0  0
  -19.3986  -20.6743   18.7002 C   0  0  0  0  0  0  0  0  0  0  0  0
  -21.2205  -18.3573   18.4609 C   0  0  0  0  0  0  0  0  0  0  0  0
  -14.7769  -18.7106   21.6961 C   0  0  0  0  0  0  0  0  0  0  0  0
  -29.5562  -12.4015   18.2180 C   0  0  0  0  0  0  0  0  0  0  0  0
  -27.1509  -20.2836   18.7650 C   0  0  0  0  0  0  0  0  0  0  0  0
  -28.0352  -21.9283   20.4875 C   0  0  0  0  0  0  0  0  0  0  0  0
  -16.1097  -18.0608   22.0541 C   0  0  0  0  0  0  0  0  0  0  0  0
  -28.1270  -12.1002   18.6724 C   0  0  0  0  0  0  0  0  0  0  0  0
  -26.2112  -21.4499   18.4342 C   0  0  0  0  0  0  0  0  0  0  0  0
  -26.6743  -22.6209   20.6374 C   0  0  0  0  0  0  0  0  0  0  0  0
  -30.4996  -12.5820   19.4052 C   0  0  0  0  0  0  0  0  0  0  0  0
  -28.6311  -13.2776   20.8538 C   0  0  0  0  0  0  0  0  0  0  0  0
  -27.8847  -20.4477   20.1117 C   0  0  0  0  0  0  0  0  0  0  0  0
  -17.2363  -19.1002   22.0977 C   0  0  1  0  0  0  0  0  0  0  0  0
  -18.8761  -19.2412   18.6737 C   0  0  1  0  0  0  0  0  0  0  0  0
  -27.6314  -13.1429   19.6925 C   0  0  2  0  0  0  0  0  0  0  0  0
  -25.6028  -22.0876   19.6785 C   0  0  0  0  0  0  0  0  0  1  0  0
  -30.0348  -21.2077   18.2866 C   0  0  0  0  0  0  0  0  0  0  0  0
  -28.1997  -19.1880   23.1356 C   0  0  0  0  0  0  0  0  0  0  0  0
  -22.6163  -16.2776   12.8454 C   0  0  0  0  0  0  0  0  0  0  0  0
  -18.8891  -14.3313   17.7806 C   0  0  0  0  0  0  0  0  0  0  0  0
  -20.6644  -13.8310   16.0876 C   0  0  0  0  0  0  0  0  0  0  0  0
  -18.5680  -14.9885   15.3891 C   0  0  0  0  0  0  0  0  0  0  0  0
  -24.4028  -18.6169   15.2563 C   0  0  0  0  0  0  0  0  0  0  0  0
  -28.3147  -18.2377   21.9488 C   0  0  0  0  0  0  0  0  0  0  0  0
  -30.8568  -16.8190   21.9517 C   0  0  0  0  0  0  0  0  0  0  0  0
  -20.2828  -16.2476   16.7552 C   0  0  1  0  0  0  0  0  0  0  0  0
  -22.7309  -17.2238   14.0305 C   0  0  2  0  0  0  0  0  0  0  0  0
  -19.6066  -14.8665   16.5253 C   0  0  0  0  0  0  0  0  0  0  0  0
  -25.8499  -11.5409   20.2776 N   0  0  0  0  0  0  0  0  0  0  0  0
  -26.2297  -12.8263   20.1804 N   0  0  0  0  0  0  0  0  0  0  0  0
  -19.8110  -18.3104   18.0381 N   0  0  0  0  0  0  0  0  0  0  0  0
  -29.9727  -13.5850   20.3337 N   0  0  0  0  0  0  0  0  0  0  0  0
  -25.4788  -15.0481   20.5126 N   0  0  0  0  0  0  0  0  0  0  0  0
  -21.9190  -13.7381   20.4288 N   0  0  0  0  0  0  0  0  0  0  0  0
  -17.6608  -19.4420   20.7571 N   0  0  0  0  0  0  0  0  0  0  0  0
  -20.9470  -16.7914   15.5756 N   0  0  0  0  0  0  0  0  0  0  0  0
  -30.1781  -15.6125   21.5341 N   0  0  0  0  0  0  0  0  0  0  0  0
  -24.1500  -17.6640   14.1449 N   0  3  0  0  0  0  0  0  0  0  0  0
  -22.6905  -13.6904   22.5879 O   0  0  0  0  0  0  0  0  0  0  0  0
  -19.1619  -17.6917   20.4322 O   0  0  0  0  0  0  0  0  0  0  0  0
  -18.1268  -17.2329   16.8387 O   0  0  0  0  0  0  0  0  0  0  0  0
  -23.0353  -15.8866   16.0196 O   0  0  0  0  0  0  0  0  0  0  0  0
  -31.8818  -14.8924   20.1793 O   0  0  0  0  0  0  0  0  0  0  0  0
  -21.6133   -6.9890   21.6485 O   0  0  0  0  0  0  0  0  0  0  0  0
  -24.8034  -21.1079   20.3410 O   0  0  0  0  0  0  0  0  0  1  0  0
  -24.3338   -2.1983   21.8776 F   0  0  0  0  0  0  0  0  0  0  0  0
  -32.4235  -19.7443   18.4129 F   0  0  0  0  0  0  0  0  0  0  0  0
  -21.5442   -5.4263   23.9279 F   0  0  0  0  0  0  0  0  0  0  0  0
  1  2  1  0  0  0  0
  1  5  2  0  0  0  0
  2  6  2  0  0  0  0
  3  8  2  0  0  0  0
  3 16  1  0  0  0  0
  4  9  1  0  0  0  0
  4 16  2  0  0  0  0
  5 18  1  0  0  0  0
  6 20  1  0  0  0  0
  7 10  2  0  0  0  0
  7 19  1  0  0  0  0
  8 26  1  0  0  0  0
  9 26  2  0  0  0  0
 10 27  1  0  0  0  0
 11 12  2  0  0  0  0
 11 28  1  0  0  0  0
 12 29  1  0  0  0  0
 13 21  1  0  0  0  0
 13 27  2  0  0  0  0
 14 23  2  0  0  0  0
 14 30  1  0  0  0  0
 15 29  2  0  0  0  0
 15 31  1  0  0  0  0
 16 32  1  0  0  0  0
 17 32  1  0  0  0  0
 17 33  2  0  0  0  0
 17 34  1  0  0  0  0
 18 20  2  0  0  0  0
 18 39  1  0  0  0  0
 19 21  2  0  0  0  0
 19 40  1  0  0  0  0
 20 53  1  0  0  0  0
 21 41  1  0  0  0  0
 22 24  2  0  0  0  0
 22 25  1  0  0  0  0
 22 52  1  0  0  0  0
 23 24  1  0  0  0  0
 23 65  1  0  0  0  0
 24 64  1  0  0  0  0
 25 30  2  0  0  0  0
 25 57  1  0  0  0  0
 26 84  1  0  0  0  0
 27 85  1  0  0  0  0
 28 31  2  0  0  0  0
 28 84  1  0  0  0  0
 29 86  1  0  0  0  0
 30 87  1  0  0  0  0
 31 88  1  0  0  0  0
 32 69  2  0  0  0  0
 33 70  1  0  0  0  0
 33 73  1  0  0  0  0
 34 74  1  0  0  0  0
 34 79  2  0  0  0  0
 35 54  1  0  0  0  0
 35 75  1  0  0  0  0
 35 80  2  0  0  0  0
 36 66  1  0  0  0  0
 36 71  1  0  0  0  0
 36 81  2  0  0  0  0
 37 67  1  0  0  0  0
 37 76  1  0  0  0  0
 37 82  2  0  0  0  0
 38 72  1  0  0  0  0
 38 77  1  0  0  0  0
 38 83  2  0  0  0  0
 39 42  1  0  0  0  0
 40 54  1  0  0  0  0
 41 71  1  0  0  0  0
 42 46  1  0  0  0  0
 43 47  1  0  0  0  0
 43 50  1  0  0  0  0
 44 48  1  0  0  0  0
 44 52  1  0  0  0  0
 45 49  1  0  0  0  0
 45 52  1  0  0  0  0
 46 53  1  0  0  0  0
 47 55  1  0  0  0  0
 48 56  1  0  0  0  0
 49 56  1  0  0  0  0
 50 72  1  0  0  0  0
 51 55  1  0  0  0  0
 51 72  1  0  0  0  0
 53 75  1  0  0  0  0
 54 71  1  0  0  0  0
 55 70  1  0  0  0  0
 56 85  1  0  0  0  0
 58 64  1  0  0  0  0
 59 67  1  0  0  0  0
 60 68  1  0  0  0  0
 61 68  1  0  0  0  0
 62 68  1  0  0  0  0
 63 78  1  0  0  0  0
 65 77  1  0  0  0  0
 66 68  1  0  0  0  0
 66 76  1  0  0  0  0
 67 78  1  0  0  0  0
 69 70  1  0  0  0  0
M  CHG  1  78   1
M  ISO  4  38 100  56 101  77 100  85 101
M  END
> <Batch ID>
0028

> <Smiles>
CCc1c(C[100NH:0][100C:0](=O)N2CCCC(n3nc(-c4ccc(Oc5ccc(F)cc5F)cc4)c(C(N)=O)c3N)C2)cc(F)c(C)c1C1CC[101CH:1]([101O:1]c2ccc3c(c2)CN(C(=O)C(NC(=O)C(C)NC)C(C)(C)C)C(C(=O)NC2CCCc4ccccc42)C3)CC1

> <Shape>
0.207

> <Color>
0.159

> <Negative vol penalty>
0.000

$$$$

  -OEChem-04052316333D

 84 92  0     1  0  0  0  0  0999 V2000
  -16.6599  -30.4437   23.5557 C   0  0  0  0  0  0  0  0  0  0  0  0
  -17.8103  -31.0846   24.0042 C   0  0  0  0  0  0  0  0  0  0  0  0
  -25.9284  -15.0731   23.7024 C   0  0  0  0  0  0  0  0  0  0  0  0
  -27.7782  -16.2986   22.7468 C   0  0  0  0  0  0  0  0  0  0  0  0
  -16.7448  -29.1650   23.0064 C   0  0  0  0  0  0  0  0  0  0  0  0
  -19.0462  -30.4466   23.9047 C   0  0  0  0  0  0  0  0  0  0  0  0
  -25.9887  -31.8591   22.8445 C   0  0  0  0  0  0  0  0  0  0  0  0
  -25.9052  -14.2373   22.5859 C   0  0  0  0  0  0  0  0  0  0  0  0
  -27.7551  -15.4628   21.6303 C   0  0  0  0  0  0  0  0  0  0  0  0
  -27.2372  -31.6121   23.4136 C   0  0  0  0  0  0  0  0  0  0  0  0
  -28.8142  -12.3567   20.8238 C   0  0  0  0  0  0  0  0  0  0  0  0
  -30.0345  -11.8705   20.3547 C   0  0  0  0  0  0  0  0  0  0  0  0
  -27.2735  -29.4354   22.3746 C   0  0  0  0  0  0  0  0  0  0  0  0
  -27.4815  -25.4622   26.0568 C   0  0  0  0  0  0  0  0  0  0  0  0
  -29.8794  -25.2615   24.6453 C   0  0  0  0  0  0  0  0  0  0  0  0
  -29.6413  -12.9394   18.2239 C   0  0  0  0  0  0  0  0  0  0  0  0
  -26.8648  -16.1038   23.7829 C   0  0  0  0  0  0  0  0  0  0  0  0
  -27.6244  -16.7826   26.1216 C   0  0  0  0  0  0  0  0  0  0  0  0
  -17.9836  -28.5150   22.8913 C   0  0  0  0  0  0  0  0  0  0  0  0
  -25.3672  -30.8901   22.0436 C   0  0  0  0  0  0  0  0  0  0  0  0
  -19.1476  -29.1575   23.3547 C   0  0  0  0  0  0  0  0  0  0  0  0
  -26.0182  -29.6735   21.7944 C   0  0  0  0  0  0  0  0  0  0  0  0
  -28.4807  -26.4180   26.2400 C   0  0  0  0  0  0  0  0  0  0  0  0
  -29.6796  -26.3177   25.5343 C   0  0  0  0  0  0  0  0  0  0  0  0
  -27.6813  -24.4059   25.1680 C   0  0  0  0  0  0  0  0  0  0  0  0
  -26.8186  -14.4322   21.5499 C   0  0  0  0  0  0  0  0  0  0  0  0
  -27.8785  -30.3990   23.1811 C   0  0  0  0  0  0  0  0  0  0  0  0
  -28.0074  -13.1341   19.9929 C   0  0  0  0  0  0  0  0  0  0  0  0
  -30.4481  -12.1619   19.0548 C   0  0  0  0  0  0  0  0  0  0  0  0
  -28.8802  -24.3056   24.4622 C   0  0  0  0  0  0  0  0  0  0  0  0
  -28.4209  -13.4255   18.6930 C   0  0  0  0  0  0  0  0  0  0  0  0
  -26.8888  -16.9678   24.9357 C   0  0  0  0  0  0  0  0  0  0  0  0
  -27.3053  -17.8705   26.8969 C   0  0  0  0  0  0  0  0  0  0  0  0
  -28.5165  -15.7221   26.4894 C   0  0  0  0  0  0  0  0  0  0  0  0
  -22.6655  -29.2255   22.2265 C   0  0  0  0  0  0  0  0  0  0  0  0
  -23.5400  -28.2226   19.2681 C   0  0  0  0  0  0  0  0  0  0  0  0
  -26.0434  -27.7019   17.0079 C   0  0  0  0  0  0  0  0  0  0  0  0
  -25.4176  -23.3909   25.6058 C   0  0  0  0  0  0  0  0  0  0  0  0
  -18.0193  -27.1140   22.3341 C   0  0  0  0  0  0  0  0  0  0  0  0
  -24.0323  -31.1825   21.4152 C   0  0  0  0  0  0  0  0  0  0  0  0
  -25.4028  -28.6083   20.9255 C   0  0  0  0  0  0  0  0  0  0  0  0
  -19.4163  -26.6582   21.9209 C   0  0  0  0  0  0  0  0  0  0  0  0
  -23.7710  -21.0070   27.6753 C   0  0  0  0  0  0  0  0  0  0  0  0
  -20.4312  -26.9945   23.0089 C   0  0  0  0  0  0  0  0  0  0  0  0
  -24.4548  -19.6847   27.3200 C   0  0  0  0  0  0  0  0  0  0  0  0
  -23.6114  -21.9093   26.4530 C   0  0  0  0  0  0  0  0  0  0  0  0
  -25.5305  -20.8347   25.3432 C   0  0  0  0  0  0  0  0  0  0  0  0
  -20.5098  -28.5082   23.2411 C   0  0  1  0  0  0  0  0  0  0  0  0
  -23.2615  -29.9218   21.0358 C   0  0  1  0  0  0  0  0  0  0  0  0
  -25.7719  -19.9193   26.5546 C   0  0  2  0  0  0  0  0  0  0  0  0
  -28.2445  -27.5398   27.1973 C   0  0  0  0  0  0  0  0  0  0  0  0
  -26.4548  -26.8366   14.6886 C   0  0  0  0  0  0  0  0  0  0  0  0
  -31.3276  -27.4574   27.1700 C   0  0  0  0  0  0  0  0  0  0  0  0
  -32.0036  -26.9428   24.8412 C   0  0  0  0  0  0  0  0  0  0  0  0
  -23.2305  -25.3619   20.2832 C   0  0  0  0  0  0  0  0  0  0  0  0
  -24.5375  -24.5883   18.2928 C   0  0  0  0  0  0  0  0  0  0  0  0
  -22.3531  -25.7500   17.9736 C   0  0  0  0  0  0  0  0  0  0  0  0
  -27.1008  -30.3117   16.0967 C   0  0  0  0  0  0  0  0  0  0  0  0
  -30.3312  -28.7747   25.2611 C   0  0  0  0  0  0  0  0  0  0  0  0
  -29.4116  -28.7970   24.0410 C   0  0  0  0  0  0  0  0  0  1  0  0
  -24.3663  -27.0809   18.7272 C   0  0  1  0  0  0  0  0  0  0  0  0
  -26.1654  -28.0639   15.5387 C   0  0  2  0  0  0  0  0  0  0  0  0
  -30.7974  -27.3599   25.7193 C   0  0  0  0  0  0  0  0  0  0  0  0
  -23.6329  -25.7143   18.8372 C   0  0  0  0  0  0  0  0  0  0  0  0
  -26.1574  -18.0853   24.9517 N   0  0  0  0  0  0  0  0  0  0  0  0
  -26.4317  -18.6121   26.1573 N   0  0  0  0  0  0  0  0  0  0  0  0
  -24.0936  -28.9389   20.3388 N   0  0  0  0  0  0  0  0  0  0  0  0
  -24.9001  -22.0900   25.7811 N   0  0  0  0  0  0  0  0  0  0  0  0
  -27.6895  -18.2555   28.1325 N   0  0  0  0  0  0  0  0  0  0  0  0
  -28.7316  -14.6825   25.5745 N   0  0  0  0  0  0  0  0  0  0  0  0
  -26.6646  -23.4363   24.9834 N   0  0  0  0  0  0  0  0  0  0  0  0
  -21.2866  -29.1401   22.1962 N   0  0  0  0  0  0  0  0  0  0  0  0
  -24.7352  -27.4532   17.3657 N   0  0  0  0  0  0  0  0  0  0  0  0
  -27.2680  -29.0460   15.3370 N   0  3  0  0  0  0  0  0  0  0  0  0
  -29.0926  -15.6888   27.6032 O   0  0  0  0  0  0  0  0  0  0  0  0
  -23.4021  -28.7963   23.1067 O   0  0  0  0  0  0  0  0  0  0  0  0
  -22.4469  -28.4743   18.7548 O   0  0  0  0  0  0  0  0  0  0  0  0
  -27.0122  -27.6420   17.7618 O   0  0  0  0  0  0  0  0  0  0  0  0
  -24.8124  -24.3892   26.0046 O   0  0  0  0  0  0  0  0  0  0  0  0
  -26.7965  -13.6167   20.4603 O   0  0  0  0  0  0  0  0  0  0  0  0
  -29.0969  -30.1551   23.7359 O   0  0  0  0  0  0  0  0  0  1  0  0
  -31.6207  -11.6963   18.6050 F   0  0  0  0  0  0  0  0  0  0  0  0
  -29.0831  -23.2948   23.6050 F   0  0  0  0  0  0  0  0  0  0  0  0
  -27.6507  -14.1729   17.8906 F   0  0  0  0  0  0  0  0  0  0  0  0
  1  2  1  0  0  0  0
  1  5  2  0  0  0  0
  2  6  2  0  0  0  0
  3  8  2  0  0  0  0
  3 17  1  0  0  0  0
  4  9  1  0  0  0  0
  4 17  2  0  0  0  0
  5 19  1  0  0  0  0
  6 21  1  0  0  0  0
  7 10  2  0  0  0  0
  7 20  1  0  0  0  0
  8 26  1  0  0  0  0
  9 26  2  0  0  0  0
 10 27  1  0  0  0  0
 11 12  2  0  0  0  0
 11 28  1  0  0  0  0
 12 29  1  0  0  0  0
 13 22  1  0  0  0  0
 13 27  2  0  0  0  0
 14 23  1  0  0  0  0
 14 25  2  0  0  0  0
 15 24  1  0  0  0  0
 15 30  2  0  0  0  0
 16 29  2  0  0  0  0
 16 31  1  0  0  0  0
 17 32  1  0  0  0  0
 18 32  1  0  0  0  0
 18 33  2  0  0  0  0
 18 34  1  0  0  0  0
 19 21  2  0  0  0  0
 19 39  1  0  0  0  0
 20 22  2  0  0  0  0
 20 40  1  0  0  0  0
 21 48  1  0  0  0  0
 22 41  1  0  0  0  0
 23 24  2  0  0  0  0
 23 51  1  0  0  0  0
 24 63  1  0  0  0  0
 25 30  1  0  0  0  0
 25 71  1  0  0  0  0
 26 80  1  0  0  0  0
 27 81  1  0  0  0  0
 28 31  2  0  0  0  0
 28 80  1  0  0  0  0
 29 82  1  0  0  0  0
 30 83  1  0  0  0  0
 31 84  1  0  0  0  0
 32 65  2  0  0  0  0
 33 66  1  0  0  0  0
 33 69  1  0  0  0  0
 34 70  1  0  0  0  0
 34 75  2  0  0  0  0
 35 49  1  0  0  0  0
 35 72  1  0  0  0  0
 35 76  2  0  0  0  0
 36 61  1  0  0  0  0
 36 67  1  0  0  0  0
 36 77  2  0  0  0  0
 37 62  1  0  0  0  0
 37 73  1  0  0  0  0
 37 78  2  0  0  0  0
 38 68  1  0  0  0  0
 38 71  1  0  0  0  0
 38 79  2  0  0  0  0
 39 42  1  0  0  0  0
 40 49  1  0  0  0  0
 41 67  1  0  0  0  0
 42 44  1  0  0  0  0
 43 45  1  0  0  0  0
 43 46  1  0  0  0  0
 44 48  1  0  0  0  0
 45 50  1  0  0  0  0
 46 68  1  0  0  0  0
 47 50  1  0  0  0  0
 47 68  1  0  0  0  0
 48 72  1  0  0  0  0
 49 67  1  0  0  0  0
 50 66  1  0  0  0  0
 52 62  1  0  0  0  0
 53 63  1  0  0  0  0
 54 63  1  0  0  0  0
 55 64  1  0  0  0  0
 56 64  1  0  0  0  0
 57 64  1  0  0  0  0
 58 74  1  0  0  0  0
 59 60  1  0  0  0  0
 59 63  1  0  0  0  0
 60 81  1  0  0  0  0
 61 64  1  0  0  0  0
 61 73  1  0  0  0  0
 62 74  1  0  0  0  0
 65 66  1  0  0  0  0
M  CHG  1  74   1
M  ISO  4  38 100  60 101  71 100  81 101
M  END
> <Batch ID>
0028

> <Smiles>
CNC(C)C(=O)NC(C(=O)N1Cc2cc([101O:1][101CH2:1]CC(C)(C)c3cc(F)c([100NH:0][100C:0](=O)N4CCCC(n5nc(-c6ccc(Oc7ccc(F)cc7F)cc6)c(C(N)=O)c5N)C4)cc3C)ccc2CC1C(=O)NC1CCCc2ccccc21)C(C)(C)C

> <Shape>
0.200

> <Color>
0.111

> <Negative vol penalty>
0.000

$$$$

  -OEChem-04052316333D

 85 93  0     1  0  0  0  0  0999 V2000
  -18.1152  -25.4672   22.6615 C   0  0  0  0  0  0  0  0  0  0  0  0
  -19.1424  -25.5388   21.7260 C   0  0  0  0  0  0  0  0  0  0  0  0
  -25.8954  -15.1524   22.1525 C   0  0  0  0  0  0  0  0  0  0  0  0
  -27.4633  -15.1335   20.3145 C   0  0  0  0  0  0  0  0  0  0  0  0
  -17.6645  -26.6271   23.2904 C   0  0  0  0  0  0  0  0  0  0  0  0
  -19.7188  -26.7706   21.4180 C   0  0  0  0  0  0  0  0  0  0  0  0
  -25.5811  -27.8421   20.0069 C   0  0  0  0  0  0  0  0  0  0  0  0
  -25.5967  -13.8114   21.9116 C   0  0  0  0  0  0  0  0  0  0  0  0
  -27.1647  -13.7925   20.0735 C   0  0  0  0  0  0  0  0  0  0  0  0
  -26.2372  -28.0080   18.7880 C   0  0  0  0  0  0  0  0  0  0  0  0
  -26.9910  -10.7965   22.5431 C   0  0  0  0  0  0  0  0  0  0  0  0
  -26.9251   -9.9395   23.6416 C   0  0  0  0  0  0  0  0  0  0  0  0
  -26.0440  -30.4016   19.0166 C   0  0  0  0  0  0  0  0  0  0  0  0
  -30.9846  -26.1948   17.7612 C   0  0  0  0  0  0  0  0  0  0  0  0
  -24.6234   -9.4339   23.1091 C   0  0  0  0  0  0  0  0  0  0  0  0
  -26.8287  -15.8135   21.3539 C   0  0  0  0  0  0  0  0  0  0  0  0
  -28.1384  -17.7081   22.4506 C   0  0  0  0  0  0  0  0  0  0  0  0
  -18.2423  -27.8724   22.9971 C   0  0  0  0  0  0  0  0  0  0  0  0
  -25.1410  -28.9563   20.7358 C   0  0  0  0  0  0  0  0  0  0  0  0
  -19.2745  -27.9484   22.0426 C   0  0  0  0  0  0  0  0  0  0  0  0
  -25.3848  -30.2473   20.2457 C   0  0  0  0  0  0  0  0  0  0  0  0
  -30.8128  -27.2819   18.6181 C   0  0  0  0  0  0  0  0  0  0  0  0
  -29.5461  -24.8580   19.1687 C   0  0  0  0  0  0  0  0  0  0  0  0
  -26.2313  -13.1314   20.8721 C   0  0  0  0  0  0  0  0  0  0  0  0
  -26.4662  -29.2878   18.2913 C   0  0  0  0  0  0  0  0  0  0  0  0
  -25.8731  -10.9722   21.7276 C   0  0  0  0  0  0  0  0  0  0  0  0
  -25.7413   -9.2582   23.9247 C   0  0  0  0  0  0  0  0  0  0  0  0
  -24.6893  -10.2909   22.0106 C   0  0  0  0  0  0  0  0  0  0  0  0
  -30.3512  -24.9828   18.0365 C   0  0  0  0  0  0  0  0  0  0  0  0
  -30.0077  -27.1571   19.7503 C   0  0  0  0  0  0  0  0  0  0  0  0
  -29.3743  -25.9451   20.0256 C   0  0  0  0  0  0  0  0  0  0  0  0
  -27.1372  -17.1989   21.6020 C   0  0  0  0  0  0  0  0  0  0  0  0
  -28.0234  -19.0721   22.3374 C   0  0  0  0  0  0  0  0  0  0  0  0
  -29.0875  -17.0106   23.2680 C   0  0  0  0  0  0  0  0  0  0  0  0
  -22.3091  -30.0288   21.7020 C   0  0  0  0  0  0  0  0  0  0  0  0
  -27.4001  -23.6079   19.1236 C   0  0  0  0  0  0  0  0  0  0  0  0
  -24.1102  -32.2354   23.2542 C   0  0  0  0  0  0  0  0  0  0  0  0
  -27.0561  -33.9463   23.4584 C   0  0  0  0  0  0  0  0  0  0  0  0
  -17.6895  -29.1051   23.6677 C   0  0  0  0  0  0  0  0  0  0  0  0
  -24.4585  -28.7612   22.0618 C   0  0  0  0  0  0  0  0  0  0  0  0
  -24.9504  -31.4768   20.9995 C   0  0  0  0  0  0  0  0  0  0  0  0
  -18.6076  -30.3200   23.5610 C   0  0  0  0  0  0  0  0  0  0  0  0
  -24.4334  -21.9169   20.2096 C   0  0  0  0  0  0  0  0  0  0  0  0
  -19.1165  -30.4808   22.1320 C   0  0  0  0  0  0  0  0  0  0  0  0
  -24.9513  -20.5692   20.7102 C   0  0  0  0  0  0  0  0  0  0  0  0
  -25.2374  -22.4143   19.0124 C   0  0  0  0  0  0  0  0  0  0  0  0
  -27.2286  -21.1513   19.7617 C   0  0  0  0  0  0  0  0  0  0  0  0
  -19.9419  -29.2627   21.7000 C   0  0  1  0  0  0  0  0  0  0  0  0
  -23.5974  -29.9520   22.4715 C   0  0  1  0  0  0  0  0  0  0  0  0
  -26.4635  -20.6273   20.9898 C   0  0  2  0  0  0  0  0  0  0  0  0
  -28.2195  -35.7110   24.8111 C   0  0  0  0  0  0  0  0  0  0  0  0
  -22.4198  -34.3845   21.9001 C   0  0  0  0  0  0  0  0  0  0  0  0
  -24.1814  -36.0558   22.5098 C   0  0  0  0  0  0  0  0  0  0  0  0
  -22.9500  -34.8341   24.3025 C   0  0  0  0  0  0  0  0  0  0  0  0
  -29.2195  -32.0845   24.2409 C   0  0  0  0  0  0  0  0  0  0  0  0
  -28.8699  -23.5512   19.4559 C   0  0  0  0  0  0  0  0  0  0  0  0
  -31.5155  -28.5632   18.2784 C   0  0  0  0  0  0  0  0  0  0  0  0
  -29.0274  -30.3491   15.9803 C   0  0  0  0  0  0  0  0  0  0  0  0
  -29.9506  -29.2355   16.4515 C   0  0  0  0  0  0  0  0  0  0  0  0
  -27.8795  -30.6406   16.9390 C   0  0  0  0  0  0  0  0  0  1  0  0
  -24.6615  -33.5983   22.9113 C   0  0  1  0  0  0  0  0  0  0  0  0
  -27.9830  -34.2197   24.6291 C   0  0  2  0  0  0  0  0  0  0  0  0
  -23.5597  -34.6952   22.8905 C   0  0  0  0  0  0  0  0  0  0  0  0
  -26.4376  -18.1611   20.9947 N   0  0  0  0  0  0  0  0  0  0  0  0
  -27.0000  -19.2886   21.4622 N   0  0  0  0  0  0  0  0  0  0  0  0
  -24.2813  -31.2338   22.2882 N   0  0  0  0  0  0  0  0  0  0  0  0
  -26.6705  -22.4337   19.3107 N   0  0  0  0  0  0  0  0  0  0  0  0
  -28.6989  -20.0955   22.9021 N   0  0  0  0  0  0  0  0  0  0  0  0
  -29.0680  -15.6092   23.2667 N   0  0  0  0  0  0  0  0  0  0  0  0
  -21.2689  -29.3219   22.2745 N   0  0  0  0  0  0  0  0  0  0  0  0
  -25.7403  -33.8528   23.8599 N   0  0  0  0  0  0  0  0  0  0  0  0
  -29.3006  -33.5580   24.4121 N   0  3  0  0  0  0  0  0  0  0  0  0
  -30.6008  -29.6030   17.7312 N   0  3  0  0  0  0  0  0  0  0  0  0
  -29.9173  -17.6123   23.9911 O   0  0  0  0  0  0  0  0  0  0  0  0
  -22.2620  -30.6823   20.6665 O   0  0  0  0  0  0  0  0  0  0  0  0
  -26.9160  -24.6659   18.7130 O   0  0  0  0  0  0  0  0  0  0  0  0
  -23.5548  -32.0640   24.3422 O   0  0  0  0  0  0  0  0  0  0  0  0
  -27.4585  -33.8312   22.3029 O   0  0  0  0  0  0  0  0  0  0  0  0
  -25.9403  -11.8228   20.6368 O   0  0  0  0  0  0  0  0  0  0  0  0
  -27.1059  -29.4525   17.1015 O   0  0  0  0  0  0  0  0  0  1  0  0
  -25.6787   -8.4341   24.9787 F   0  0  0  0  0  0  0  0  0  0  0  0
  -23.6124  -10.4548   21.2301 F   0  0  0  0  0  0  0  0  0  0  0  0
  -30.5908  -23.6639   16.9476 Cl  0  0  0  0  0  0  0  0  0  0  0  0
  -29.8163  -28.5295   20.7964 Cl  0  0  0  0  0  0  0  0  0  0  0  0
  -28.3669  -25.7636   21.4291 Cl  0  0  0  0  0  0  0  0  0  0  0  0
  1  2  1  0  0  0  0
  1  5  2  0  0  0  0
  2  6  2  0  0  0  0
  3  8  2  0  0  0  0
  3 16  1  0  0  0  0
  4  9  1  0  0  0  0
  4 16  2  0  0  0  0
  5 18  1  0  0  0  0
  6 20  1  0  0  0  0
  7 10  2  0  0  0  0
  7 19  1  0  0  0  0
  8 24  1  0  0  0  0
  9 24  2  0  0  0  0
 10 25  1  0  0  0  0
 11 12  2  0  0  0  0
 11 26  1  0  0  0  0
 12 27  1  0  0  0  0
 13 21  1  0  0  0  0
 13 25  2  0  0  0  0
 14 22  1  0  0  0  0
 14 29  2  0  0  0  0
 15 27  2  0  0  0  0
 15 28  1  0  0  0  0
 16 32  1  0  0  0  0
 17 32  1  0  0  0  0
 17 33  2  0  0  0  0
 17 34  1  0  0  0  0
 18 20  2  0  0  0  0
 18 39  1  0  0  0  0
 19 21  2  0  0  0  0
 19 40  1  0  0  0  0
 20 48  1  0  0  0  0
 21 41  1  0  0  0  0
 22 30  2  0  0  0  0
 22 57  1  0  0  0  0
 23 29  1  0  0  0  0
 23 31  2  0  0  0  0
 23 56  1  0  0  0  0
 24 79  1  0  0  0  0
 25 80  1  0  0  0  0
 26 28  2  0  0  0  0
 26 79  1  0  0  0  0
 27 81  1  0  0  0  0
 28 82  1  0  0  0  0
 29 83  1  0  0  0  0
 30 31  1  0  0  0  0
 30 84  1  0  0  0  0
 31 85  1  0  0  0  0
 32 64  2  0  0  0  0
 33 65  1  0  0  0  0
 33 68  1  0  0  0  0
 34 69  1  0  0  0  0
 34 74  2  0  0  0  0
 35 49  1  0  0  0  0
 35 70  1  0  0  0  0
 35 75  2  0  0  0  0
 36 56  1  0  0  0  0
 36 67  1  0  0  0  0
 36 76  2  0  0  0  0
 37 61  1  0  0  0  0
 37 66  1  0  0  0  0
 37 77  2  0  0  0  0
 38 62  1  0  0  0  0
 38 71  1  0  0  0  0
 38 78  2  0  0  0  0
 39 42  1  0  0  0  0
 40 49  1  0  0  0  0
 41 66  1  0  0  0  0
 42 44  1  0  0  0  0
 43 45  1  0  0  0  0
 43 46  1  0  0  0  0
 44 48  1  0  0  0  0
 45 50  1  0  0  0  0
 46 67  1  0  0  0  0
 47 50  1  0  0  0  0
 47 67  1  0  0  0  0
 48 70  1  0  0  0  0
 49 66  1  0  0  0  0
 50 65  1  0  0  0  0
 51 62  1  0  0  0  0
 52 63  1  0  0  0  0
 53 63  1  0  0  0  0
 54 63  1  0  0  0  0
 55 72  1  0  0  0  0
 57 73  1  0  0  0  0
 58 59  1  0  0  0  0
 58 60  1  0  0  0  0
 59 73  1  0  0  0  0
 60 80  1  0  0  0  0
 61 63  1  0  0  0  0
 61 71  1  0  0  0  0
 62 72  1  0  0  0  0
 64 65  1  0  0  0  0
M  CHG  2  72   1  73   1
M  ISO  4  36 100  56 100  60 101  80 101
M  END
> <Batch ID>
0028

> <Smiles>
CNC(C)C(=O)NC(C(=O)N1Cc2cc([101O:1][101CH2:1]CCNCc3cc(Cl)c([100CH2:0][100C:0](=O)N4CCCC(n5nc(-c6ccc(Oc7ccc(F)cc7F)cc6)c(C(N)=O)c5N)C4)c(Cl)c3Cl)ccc2CC1C(=O)NC1CCCc2ccccc21)C(C)(C)C

> <Shape>
0.280

> <Color>
0.107

> <Negative vol penalty>
0.000

$$$$

  -OEChem-04052316333D

 81 89  0     1  0  0  0  0  0999 V2000
  -30.3562  -30.9242   25.9562 C   0  0  0  0  0  0  0  0  0  0  0  0
  -30.1421  -30.0503   24.8951 C   0  0  0  0  0  0  0  0  0  0  0  0
  -26.3964  -12.8321   21.7562 C   0  0  0  0  0  0  0  0  0  0  0  0
  -25.4613  -14.2538   20.0411 C   0  0  0  0  0  0  0  0  0  0  0  0
  -29.4290  -30.9982   26.9948 C   0  0  0  0  0  0  0  0  0  0  0  0
  -29.0011  -29.2491   24.8725 C   0  0  0  0  0  0  0  0  0  0  0  0
  -26.7623  -29.1840   20.3307 C   0  0  0  0  0  0  0  0  0  0  0  0
  -25.2060  -12.1067   21.8039 C   0  0  0  0  0  0  0  0  0  0  0  0
  -24.2709  -13.5284   20.0889 C   0  0  0  0  0  0  0  0  0  0  0  0
  -27.3380  -28.3792   19.3485 C   0  0  0  0  0  0  0  0  0  0  0  0
  -22.5407   -9.6550   22.1210 C   0  0  0  0  0  0  0  0  0  0  0  0
  -22.6301   -8.2633   22.1503 C   0  0  0  0  0  0  0  0  0  0  0  0
  -25.6814  -26.6794   19.7787 C   0  0  0  0  0  0  0  0  0  0  0  0
  -28.1356  -23.1259   18.3248 C   0  0  0  0  0  0  0  0  0  0  0  0
  -29.6764  -23.0172   20.6480 C   0  0  0  0  0  0  0  0  0  0  0  0
  -23.7789   -8.2923   20.0251 C   0  0  0  0  0  0  0  0  0  0  0  0
  -26.5241  -13.9057   20.8748 C   0  0  0  0  0  0  0  0  0  0  0  0
  -28.8707  -14.4037   20.0070 C   0  0  0  0  0  0  0  0  0  0  0  0
  -28.2713  -30.2044   26.9802 C   0  0  0  0  0  0  0  0  0  0  0  0
  -25.6465  -28.7372   21.0531 C   0  0  0  0  0  0  0  0  0  0  0  0
  -28.0582  -29.3115   25.9126 C   0  0  0  0  0  0  0  0  0  0  0  0
  -25.0918  -27.4814   20.7678 C   0  0  0  0  0  0  0  0  0  0  0  0
  -27.9030  -22.1267   19.2698 C   0  0  0  0  0  0  0  0  0  0  0  0
  -29.1387  -24.0708   18.5413 C   0  0  0  0  0  0  0  0  0  0  0  0
  -28.6733  -22.0723   20.4314 C   0  0  0  0  0  0  0  0  0  0  0  0
  -24.1433  -12.4548   20.9703 C   0  0  0  0  0  0  0  0  0  0  0  0
  -26.7993  -27.1256   19.0744 C   0  0  0  0  0  0  0  0  0  0  0  0
  -23.0704  -10.3653   21.0437 C   0  0  0  0  0  0  0  0  0  0  0  0
  -23.2492   -7.5820   21.1024 C   0  0  0  0  0  0  0  0  0  0  0  0
  -23.6895   -9.6840   19.9958 C   0  0  0  0  0  0  0  0  0  0  0  0
  -29.9090  -24.0164   19.7029 C   0  0  0  0  0  0  0  0  0  0  0  0
  -27.7533  -14.6558   20.8254 C   0  0  0  0  0  0  0  0  0  0  0  0
  -29.7669  -15.3913   20.3358 C   0  0  0  0  0  0  0  0  0  0  0  0
  -29.0798  -13.3695   19.0363 C   0  0  0  0  0  0  0  0  0  0  0  0
  -25.0546  -28.1270   24.1159 C   0  0  0  0  0  0  0  0  0  0  0  0
  -22.0241  -27.6975   23.0418 C   0  0  0  0  0  0  0  0  0  0  0  0
  -19.9529  -26.9541   20.4333 C   0  0  0  0  0  0  0  0  0  0  0  0
  -29.1387  -20.8839   22.6033 C   0  0  0  0  0  0  0  0  0  0  0  0
  -27.3212  -30.2848   28.1488 C   0  0  0  0  0  0  0  0  0  0  0  0
  -25.0209  -29.6283   22.0908 C   0  0  0  0  0  0  0  0  0  0  0  0
  -23.8822  -26.9637   21.5009 C   0  0  0  0  0  0  0  0  0  0  0  0
  -25.9517  -29.6739   27.8635 C   0  0  0  0  0  0  0  0  0  0  0  0
  -31.0542  -18.2175   23.9813 C   0  0  0  0  0  0  0  0  0  0  0  0
  -26.1037  -28.3140   27.1895 C   0  0  0  0  0  0  0  0  0  0  0  0
  -30.5310  -16.9794   23.2495 C   0  0  0  0  0  0  0  0  0  0  0  0
  -29.9383  -19.2208   24.2676 C   0  0  0  0  0  0  0  0  0  0  0  0
  -28.6188  -18.3761   22.3665 C   0  0  0  0  0  0  0  0  0  0  0  0
  -26.8203  -28.4441   25.8400 C   0  0  1  0  0  0  0  0  0  0  0  0
  -24.1994  -28.8599   23.1214 C   0  0  1  0  0  0  0  0  0  0  0  0
  -29.7178  -17.3658   21.9986 C   0  0  2  0  0  0  0  0  0  0  0  0
  -26.8234  -21.1264   19.0107 C   0  0  0  0  0  0  0  0  0  0  0  0
  -17.5273  -26.6413   19.8711 C   0  0  0  0  0  0  0  0  0  0  0  0
  -22.0662  -24.9622   24.3934 C   0  0  0  0  0  0  0  0  0  0  0  0
  -20.0622  -24.3351   23.0299 C   0  0  0  0  0  0  0  0  0  0  0  0
  -19.9219  -26.2224   24.6551 C   0  0  0  0  0  0  0  0  0  0  0  0
  -19.9994  -29.1767   18.4796 C   0  0  0  0  0  0  0  0  0  0  0  0
  -29.3594  -25.1352   17.4942 C   0  0  0  0  0  0  0  0  0  0  0  0
  -28.7629  -26.4790   17.8987 C   0  0  0  0  0  0  0  0  0  1  0  0
  -21.2328  -26.5249   22.5146 C   0  0  1  0  0  0  0  0  0  0  0  0
  -18.6868  -27.6235   19.9299 C   0  0  2  0  0  0  0  0  0  0  0  0
  -20.8447  -25.5198   23.6356 C   0  0  0  0  0  0  0  0  0  0  0  0
  -27.9219  -15.7199   21.6149 N   0  0  0  0  0  0  0  0  0  0  0  0
  -29.1558  -16.1452   21.2941 N   0  0  0  0  0  0  0  0  0  0  0  0
  -23.3103  -27.8694   22.5109 N   0  0  0  0  0  0  0  0  0  0  0  0
  -29.2142  -19.5431   23.0361 N   0  0  0  0  0  0  0  0  0  0  0  0
  -31.0101  -15.6795   19.8959 N   0  0  0  0  0  0  0  0  0  0  0  0
  -28.0557  -12.4368   18.8225 N   0  0  0  0  0  0  0  0  0  0  0  0
  -28.4529  -21.0645   21.4027 N   0  0  0  0  0  0  0  0  0  0  0  0
  -25.9108  -28.9427   24.8308 N   0  0  0  0  0  0  0  0  0  0  0  0
  -20.0944  -27.0897   21.7981 N   0  0  0  0  0  0  0  0  0  0  0  0
  -18.9023  -28.1786   18.5638 N   0  3  0  0  0  0  0  0  0  0  0  0
  -30.1496  -13.2655   18.3897 O   0  0  0  0  0  0  0  0  0  0  0  0
  -24.9447  -26.9116   24.2276 O   0  0  0  0  0  0  0  0  0  0  0  0
  -21.5169  -28.4379   23.8881 O   0  0  0  0  0  0  0  0  0  0  0  0
  -20.7360  -26.3663   19.6905 O   0  0  0  0  0  0  0  0  0  0  0  0
  -29.6686  -21.8009   23.2361 O   0  0  0  0  0  0  0  0  0  0  0  0
  -22.9816  -11.7470   21.0164 O   0  0  0  0  0  0  0  0  0  0  0  0
  -27.3597  -26.3378   18.1167 O   0  0  0  0  0  0  0  0  0  1  0  0
  -23.3363   -6.2456   21.1314 F   0  0  0  0  0  0  0  0  0  0  0  0
  -24.2012  -10.3610   18.9587 F   0  0  0  0  0  0  0  0  0  0  0  0
  -31.1588  -25.1682   20.0048 Cl  0  0  0  0  0  0  0  0  0  0  0  0
  1  2  1  0  0  0  0
  1  5  2  0  0  0  0
  2  6  2  0  0  0  0
  3  8  2  0  0  0  0
  3 17  1  0  0  0  0
  4  9  1  0  0  0  0
  4 17  2  0  0  0  0
  5 19  1  0  0  0  0
  6 21  1  0  0  0  0
  7 10  2  0  0  0  0
  7 20  1  0  0  0  0
  8 26  1  0  0  0  0
  9 26  2  0  0  0  0
 10 27  1  0  0  0  0
 11 12  2  0  0  0  0
 11 28  1  0  0  0  0
 12 29  1  0  0  0  0
 13 22  1  0  0  0  0
 13 27  2  0  0  0  0
 14 23  2  0  0  0  0
 14 24  1  0  0  0  0
 15 25  2  0  0  0  0
 15 31  1  0  0  0  0
 16 29  2  0  0  0  0
 16 30  1  0  0  0  0
 17 32  1  0  0  0  0
 18 32  1  0  0  0  0
 18 33  2  0  0  0  0
 18 34  1  0  0  0  0
 19 21  2  0  0  0  0
 19 39  1  0  0  0  0
 20 22  2  0  0  0  0
 20 40  1  0  0  0  0
 21 48  1  0  0  0  0
 22 41  1  0  0  0  0
 23 25  1  0  0  0  0
 23 51  1  0  0  0  0
 24 31  2  0  0  0  0
 24 57  1  0  0  0  0
 25 68  1  0  0  0  0
 26 77  1  0  0  0  0
 27 78  1  0  0  0  0
 28 30  2  0  0  0  0
 28 77  1  0  0  0  0
 29 79  1  0  0  0  0
 30 80  1  0  0  0  0
 31 81  1  0  0  0  0
 32 62  2  0  0  0  0
 33 63  1  0  0  0  0
 33 66  1  0  0  0  0
 34 67  1  0  0  0  0
 34 72  2  0  0  0  0
 35 49  1  0  0  0  0
 35 69  1  0  0  0  0
 35 73  2  0  0  0  0
 36 59  1  0  0  0  0
 36 64  1  0  0  0  0
 36 74  2  0  0  0  0
 37 60  1  0  0  0  0
 37 70  1  0  0  0  0
 37 75  2  0  0  0  0
 38 65  1  0  0  0  0
 38 68  1  0  0  0  0
 38 76  2  0  0  0  0
 39 42  1  0  0  0  0
 40 49  1  0  0  0  0
 41 64  1  0  0  0  0
 42 44  1  0  0  0  0
 43 45  1  0  0  0  0
 43 46  1  0  0  0  0
 44 48  1  0  0  0  0
 45 50  1  0  0  0  0
 46 65  1  0  0  0  0
 47 50  1  0  0  0  0
 47 65  1  0  0  0  0
 48 69  1  0  0  0  0
 49 64  1  0  0  0  0
 50 63  1  0  0  0  0
 52 60  1  0  0  0  0
 53 61  1  0  0  0  0
 54 61  1  0  0  0  0
 55 61  1  0  0  0  0
 56 71  1  0  0  0  0
 57 58  1  0  0  0  0
 58 78  1  0  0  0  0
 59 61  1  0  0  0  0
 59 70  1  0  0  0  0
 60 71  1  0  0  0  0
 62 63  1  0  0  0  0
M  CHG  1  71   1
M  ISO  4  38 100  58 101  68 100  78 101
M  END
> <Batch ID>
0028

> <Smiles>
CNC(C)C(=O)NC(C(=O)N1Cc2cc([101O:1][101CH2:1]Cc3cc(C)c([100NH:0][100C:0](=O)N4CCCC(n5nc(-c6ccc(Oc7ccc(F)cc7F)cc6)c(C(N)=O)c5N)C4)cc3Cl)ccc2CC1C(=O)NC1CCCc2ccccc21)C(C)(C)C

> <Shape>
0.269

> <Color>
0.054

> <Negative vol penalty>
0.000

$$$$

  -OEChem-04052316333D

 81 89  0     1  0  0  0  0  0999 V2000
  -17.6992  -26.7875   22.6075 C   0  0  0  0  0  0  0  0  0  0  0  0
  -18.8349  -26.4373   21.8844 C   0  0  0  0  0  0  0  0  0  0  0  0
  -26.7886  -12.4763   21.0235 C   0  0  0  0  0  0  0  0  0  0  0  0
  -25.3449  -14.3806   21.3789 C   0  0  0  0  0  0  0  0  0  0  0  0
  -17.7151  -27.9175   23.4241 C   0  0  0  0  0  0  0  0  0  0  0  0
  -19.9870  -27.2175   21.9766 C   0  0  0  0  0  0  0  0  0  0  0  0
  -25.7859  -25.2588   21.7740 C   0  0  0  0  0  0  0  0  0  0  0  0
  -25.7765  -11.6259   21.4684 C   0  0  0  0  0  0  0  0  0  0  0  0
  -24.3327  -13.5302   21.8238 C   0  0  0  0  0  0  0  0  0  0  0  0
  -26.7270  -25.2186   20.7461 C   0  0  0  0  0  0  0  0  0  0  0  0
  -22.9364  -10.2723   20.2295 C   0  0  0  0  0  0  0  0  0  0  0  0
  -22.6886   -9.1166   19.4889 C   0  0  0  0  0  0  0  0  0  0  0  0
  -27.6513  -27.3086   21.5187 C   0  0  0  0  0  0  0  0  0  0  0  0
  -30.4842  -23.6625   18.6965 C   0  0  0  0  0  0  0  0  0  0  0  0
  -31.6840  -22.8995   21.0967 C   0  0  0  0  0  0  0  0  0  0  0  0
  -23.1991   -7.7659   21.4260 C   0  0  0  0  0  0  0  0  0  0  0  0
  -26.5728  -13.8537   20.9788 C   0  0  0  0  0  0  0  0  0  0  0  0
  -27.8526  -15.1574   19.1983 C   0  0  0  0  0  0  0  0  0  0  0  0
  -18.8710  -28.7065   23.5338 C   0  0  0  0  0  0  0  0  0  0  0  0
  -25.7635  -26.3315   22.6769 C   0  0  0  0  0  0  0  0  0  0  0  0
  -20.0179  -28.3599   22.7944 C   0  0  0  0  0  0  0  0  0  0  0  0
  -26.7105  -27.3588   22.5587 C   0  0  0  0  0  0  0  0  0  0  0  0
  -31.0239  -24.6294   19.5446 C   0  0  0  0  0  0  0  0  0  0  0  0
  -31.1443  -21.9326   20.2485 C   0  0  0  0  0  0  0  0  0  0  0  0
  -24.5485  -12.1528   21.8685 C   0  0  0  0  0  0  0  0  0  0  0  0
  -27.6580  -26.2450   20.6166 C   0  0  0  0  0  0  0  0  0  0  0  0
  -23.3157  -10.1749   21.5683 C   0  0  0  0  0  0  0  0  0  0  0  0
  -22.8199   -7.8634   20.0871 C   0  0  0  0  0  0  0  0  0  0  0  0
  -23.4470   -8.9217   22.1665 C   0  0  0  0  0  0  0  0  0  0  0  0
  -30.5443  -22.3141   19.0485 C   0  0  0  0  0  0  0  0  0  0  0  0
  -31.6238  -24.2480   20.7447 C   0  0  0  0  0  0  0  0  0  0  0  0
  -27.6182  -14.7328   20.5199 C   0  0  0  0  0  0  0  0  0  0  0  0
  -28.9524  -15.9751   19.2904 C   0  0  0  0  0  0  0  0  0  0  0  0
  -27.1400  -14.8411   17.9951 C   0  0  0  0  0  0  0  0  0  0  0  0
  -23.6502  -28.5818   23.4345 C   0  0  0  0  0  0  0  0  0  0  0  0
  -25.8244  -29.3017   25.7317 C   0  0  0  0  0  0  0  0  0  0  0  0
  -29.0668  -29.1860   26.7904 C   0  0  0  0  0  0  0  0  0  0  0  0
  -31.7920  -20.0553   21.7986 C   0  0  0  0  0  0  0  0  0  0  0  0
  -18.8253  -29.9455   24.3926 C   0  0  0  0  0  0  0  0  0  0  0  0
  -24.7589  -26.3467   23.7963 C   0  0  0  0  0  0  0  0  0  0  0  0
  -26.7416  -28.5225   23.5143 C   0  0  0  0  0  0  0  0  0  0  0  0
  -20.2052  -30.5072   24.7254 C   0  0  0  0  0  0  0  0  0  0  0  0
  -32.1512  -16.7732   23.1312 C   0  0  0  0  0  0  0  0  0  0  0  0
  -21.0735  -30.5670   23.4727 C   0  0  0  0  0  0  0  0  0  0  0  0
  -31.0232  -15.9847   22.4619 C   0  0  0  0  0  0  0  0  0  0  0  0
  -31.7276  -18.2047   23.4557 C   0  0  0  0  0  0  0  0  0  0  0  0
  -30.0466  -18.1715   21.6549 C   0  0  0  0  0  0  0  0  0  0  0  0
  -21.2946  -29.1670   22.8873 C   0  0  1  0  0  0  0  0  0  0  0  0
  -24.5005  -27.7452   24.3483 C   0  0  1  0  0  0  0  0  0  0  0  0
  -30.4472  -16.7434   21.2503 C   0  0  2  0  0  0  0  0  0  0  0  0
  -30.5444  -29.8910   28.6922 C   0  0  0  0  0  0  0  0  0  0  0  0
  -25.7761  -32.1733   24.7016 C   0  0  0  0  0  0  0  0  0  0  0  0
  -27.9010  -32.5866   25.9595 C   0  0  0  0  0  0  0  0  0  0  0  0
  -25.8253  -31.9594   27.1928 C   0  0  0  0  0  0  0  0  0  0  0  0
  -29.7956  -26.3863   27.4145 C   0  0  0  0  0  0  0  0  0  0  0  0
  -30.9390  -26.0774   19.1269 C   0  0  0  0  0  0  0  0  0  0  0  0
  -29.8371  -26.8300   19.8647 C   0  0  0  0  0  0  0  0  0  1  0  0
  -27.0269  -30.2102   25.8186 C   0  0  1  0  0  0  0  0  0  0  0  0
  -29.6787  -28.7798   28.1189 C   0  0  2  0  0  0  0  0  0  0  0  0
  -26.6308  -31.7116   25.8988 C   0  0  0  0  0  0  0  0  0  0  0  0
  -28.4983  -15.2387   21.3878 N   0  0  0  0  0  0  0  0  0  0  0  0
  -29.2966  -15.9896   20.6100 N   0  0  0  0  0  0  0  0  0  0  0  0
  -25.7350  -28.4952   24.5883 N   0  0  0  0  0  0  0  0  0  0  0  0
  -31.1962  -18.8624   22.2599 N   0  0  0  0  0  0  0  0  0  0  0  0
  -29.6489  -16.6758   18.3705 N   0  0  0  0  0  0  0  0  0  0  0  0
  -26.0332  -13.9854   18.0794 N   0  0  0  0  0  0  0  0  0  0  0  0
  -31.2228  -20.5716   20.6350 N   0  0  0  0  0  0  0  0  0  0  0  0
  -22.2921  -28.4508   23.6532 N   0  0  0  0  0  0  0  0  0  0  0  0
  -27.8139  -29.7384   26.9528 N   0  0  0  0  0  0  0  0  0  0  0  0
  -30.5249  -27.5648   27.9495 N   0  3  0  0  0  0  0  0  0  0  0  0
  -27.4846  -15.2906   16.8758 O   0  0  0  0  0  0  0  0  0  0  0  0
  -24.1867  -29.2946   22.5944 O   0  0  0  0  0  0  0  0  0  0  0  0
  -24.9987  -29.3022   26.6481 O   0  0  0  0  0  0  0  0  0  0  0  0
  -29.6440  -29.0322   25.7163 O   0  0  0  0  0  0  0  0  0  0  0  0
  -32.7550  -20.5655   22.3768 O   0  0  0  0  0  0  0  0  0  0  0  0
  -23.5606  -11.3232   22.3024 O   0  0  0  0  0  0  0  0  0  0  0  0
  -28.5773  -26.2085   19.6138 O   0  0  0  0  0  0  0  0  0  1  0  0
  -22.5804   -6.7537   19.3762 F   0  0  0  0  0  0  0  0  0  0  0  0
  -23.8098   -8.8217   23.4527 F   0  0  0  0  0  0  0  0  0  0  0  0
  -29.8633  -21.1493   17.9697 Cl  0  0  0  0  0  0  0  0  0  0  0  0
  -32.3009  -25.4171   21.8191 Cl  0  0  0  0  0  0  0  0  0  0  0  0
  1  2  1  0  0  0  0
  1  5  2  0  0  0  0
  2  6  2  0  0  0  0
  3  8  2  0  0  0  0
  3 17  1  0  0  0  0
  4  9  1  0  0  0  0
  4 17  2  0  0  0  0
  5 19  1  0  0  0  0
  6 21  1  0  0  0  0
  7 10  2  0  0  0  0
  7 20  1  0  0  0  0
  8 25  1  0  0  0  0
  9 25  2  0  0  0  0
 10 26  1  0  0  0  0
 11 12  2  0  0  0  0
 11 27  1  0  0  0  0
 12 28  1  0  0  0  0
 13 22  1  0  0  0  0
 13 26  2  0  0  0  0
 14 23  1  0  0  0  0
 14 30  2  0  0  0  0
 15 24  2  0  0  0  0
 15 31  1  0  0  0  0
 16 28  2  0  0  0  0
 16 29  1  0  0  0  0
 17 32  1  0  0  0  0
 18 32  1  0  0  0  0
 18 33  2  0  0  0  0
 18 34  1  0  0  0  0
 19 21  2  0  0  0  0
 19 39  1  0  0  0  0
 20 22  2  0  0  0  0
 20 40  1  0  0  0  0
 21 48  1  0  0  0  0
 22 41  1  0  0  0  0
 23 31  2  0  0  0  0
 23 56  1  0  0  0  0
 24 30  1  0  0  0  0
 24 67  1  0  0  0  0
 25 76  1  0  0  0  0
 26 77  1  0  0  0  0
 27 29  2  0  0  0  0
 27 76  1  0  0  0  0
 28 78  1  0  0  0  0
 29 79  1  0  0  0  0
 30 80  1  0  0  0  0
 31 81  1  0  0  0  0
 32 61  2  0  0  0  0
 33 62  1  0  0  0  0
 33 65  1  0  0  0  0
 34 66  1  0  0  0  0
 34 71  2  0  0  0  0
 35 49  1  0  0  0  0
 35 68  1  0  0  0  0
 35 72  2  0  0  0  0
 36 58  1  0  0  0  0
 36 63  1  0  0  0  0
 36 73  2  0  0  0  0
 37 59  1  0  0  0  0
 37 69  1  0  0  0  0
 37 74  2  0  0  0  0
 38 64  1  0  0  0  0
 38 67  1  0  0  0  0
 38 75  2  0  0  0  0
 39 42  1  0  0  0  0
 40 49  1  0  0  0  0
 41 63  1  0  0  0  0
 42 44  1  0  0  0  0
 43 45  1  0  0  0  0
 43 46  1  0  0  0  0
 44 48  1  0  0  0  0
 45 50  1  0  0  0  0
 46 64  1  0  0  0  0
 47 50  1  0  0  0  0
 47 64  1  0  0  0  0
 48 68  1  0  0  0  0
 49 63  1  0  0  0  0
 50 62  1  0  0  0  0
 51 59  1  0  0  0  0
 52 60  1  0  0  0  0
 53 60  1  0  0  0  0
 54 60  1  0  0  0  0
 55 70  1  0  0  0  0
 56 57  1  0  0  0  0
 57 77  1  0  0  0  0
 58 60  1  0  0  0  0
 58 69  1  0  0  0  0
 59 70  1  0  0  0  0
 61 62  1  0  0  0  0
M  CHG  1  70   1
M  ISO  4  38 100  57 101  67 100  77 101
M  END
> <Batch ID>
0028

> <Smiles>
CNC(C)C(=O)NC(C(=O)N1Cc2cc([101O:1][101CH2:1]Cc3cc(Cl)c([100NH:0][100C:0](=O)N4CCCC(n5nc(-c6ccc(Oc7ccc(F)cc7F)cc6)c(C(N)=O)c5N)C4)cc3Cl)ccc2CC1C(=O)NC1CCCc2ccccc21)C(C)(C)C

> <Shape>
0.275

> <Color>
0.069

> <Negative vol penalty>
0.000

$$$$

  -OEChem-04052316333D

 85 93  0     1  0  0  0  0  0999 V2000
  -31.0993  -26.8503   12.9397 C   0  0  0  0  0  0  0  0  0  0  0  0
  -31.2280  -25.6538   13.6376 C   0  0  0  0  0  0  0  0  0  0  0  0
  -23.2942   -9.7936   19.9155 C   0  0  0  0  0  0  0  0  0  0  0  0
  -23.7441   -9.9401   22.2847 C   0  0  0  0  0  0  0  0  0  0  0  0
  -31.5569  -28.0392   13.5064 C   0  0  0  0  0  0  0  0  0  0  0  0
  -31.8154  -25.6452   14.9022 C   0  0  0  0  0  0  0  0  0  0  0  0
  -30.3320  -22.0411   19.6262 C   0  0  0  0  0  0  0  0  0  0  0  0
  -22.5721   -8.6188   20.1252 C   0  0  0  0  0  0  0  0  0  0  0  0
  -23.0220   -8.7652   22.4944 C   0  0  0  0  0  0  0  0  0  0  0  0
  -30.8893  -20.8610   20.1169 C   0  0  0  0  0  0  0  0  0  0  0  0
  -19.7783   -7.8426   22.7130 C   0  0  0  0  0  0  0  0  0  0  0  0
  -18.8759   -7.8195   23.7763 C   0  0  0  0  0  0  0  0  0  0  0  0
  -32.1595  -22.1359   21.7232 C   0  0  0  0  0  0  0  0  0  0  0  0
  -31.8756  -16.6026   22.5853 C   0  0  0  0  0  0  0  0  0  0  0  0
  -20.0883   -5.9785   24.7651 C   0  0  0  0  0  0  0  0  0  0  0  0
  -23.8803  -10.4543   20.9952 C   0  0  0  0  0  0  0  0  0  0  0  0
  -24.1304  -12.9848   20.7922 C   0  0  0  0  0  0  0  0  0  0  0  0
  -32.1415  -28.0466   14.7827 C   0  0  0  0  0  0  0  0  0  0  0  0
  -30.6932  -23.2803   20.1740 C   0  0  0  0  0  0  0  0  0  0  0  0
  -32.2825  -26.8351   15.4860 C   0  0  0  0  0  0  0  0  0  0  0  0
  -31.6035  -23.3300   21.2394 C   0  0  0  0  0  0  0  0  0  0  0  0
  -32.4735  -15.5266   23.2411 C   0  0  0  0  0  0  0  0  0  0  0  0
  -32.6250  -17.3908   21.7118 C   0  0  0  0  0  0  0  0  0  0  0  0
  -34.5704  -16.0269   22.1504 C   0  0  0  0  0  0  0  0  0  0  0  0
  -22.4360   -8.1046   21.4146 C   0  0  0  0  0  0  0  0  0  0  0  0
  -31.8053  -20.9085   21.1636 C   0  0  0  0  0  0  0  0  0  0  0  0
  -20.8357   -6.9336   22.6756 C   0  0  0  0  0  0  0  0  0  0  0  0
  -19.0309   -6.8874   24.8024 C   0  0  0  0  0  0  0  0  0  0  0  0
  -20.9907   -6.0016   23.7017 C   0  0  0  0  0  0  0  0  0  0  0  0
  -33.8210  -15.2387   23.0238 C   0  0  0  0  0  0  0  0  0  0  0  0
  -33.9725  -17.1030   21.4944 C   0  0  0  0  0  0  0  0  0  0  0  0
  -24.6268  -11.6676   20.7792 C   0  0  0  0  0  0  0  0  0  0  0  0
  -25.2290  -13.7683   20.5360 C   0  0  0  0  0  0  0  0  0  0  0  0
  -22.7956  -13.4580   21.0160 C   0  0  0  0  0  0  0  0  0  0  0  0
  -32.1006  -25.9023   19.0566 C   0  0  0  0  0  0  0  0  0  0  0  0
  -31.3752  -27.0726   21.9937 C   0  0  0  0  0  0  0  0  0  0  0  0
  -30.6764  -26.4388   25.2735 C   0  0  0  0  0  0  0  0  0  0  0  0
  -31.1030  -12.9483   21.3578 C   0  0  0  0  0  0  0  0  0  0  0  0
  -32.6642  -29.3495   15.3342 C   0  0  0  0  0  0  0  0  0  0  0  0
  -30.0629  -24.5420   19.6513 C   0  0  0  0  0  0  0  0  0  0  0  0
  -32.0090  -24.6334   21.8759 C   0  0  0  0  0  0  0  0  0  0  0  0
  -32.9348  -29.3103   16.8360 C   0  0  0  0  0  0  0  0  0  0  0  0
  -29.4518  -13.6763   18.2886 C   0  0  0  0  0  0  0  0  0  0  0  0
  -33.7029  -28.0457   17.2072 C   0  0  0  0  0  0  0  0  0  0  0  0
  -27.9832  -13.3629   18.5800 C   0  0  0  0  0  0  0  0  0  0  0  0
  -30.3885  -12.7016   18.9988 C   0  0  0  0  0  0  0  0  0  0  0  0
  -28.7033  -12.2691   20.7442 C   0  0  0  0  0  0  0  0  0  0  0  0
  -32.8916  -26.7887   16.8705 C   0  0  1  0  0  0  0  0  0  0  0  0
  -30.8920  -25.7891   19.9422 C   0  0  1  0  0  0  0  0  0  0  0  0
  -27.7218  -13.2595   20.0947 C   0  0  2  0  0  0  0  0  0  0  0  0
  -36.0114  -15.6841   21.9452 C   0  0  0  0  0  0  0  0  0  0  0  0
  -30.1649  -27.5997   27.4386 C   0  0  0  0  0  0  0  0  0  0  0  0
  -30.1668  -15.1063   24.3362 C   0  0  0  0  0  0  0  0  0  0  0  0
  -32.2609  -14.7555   25.6198 C   0  0  0  0  0  0  0  0  0  0  0  0
  -34.3185  -27.8224   22.2842 C   0  0  0  0  0  0  0  0  0  0  0  0
  -33.9378  -28.0812   24.7452 C   0  0  0  0  0  0  0  0  0  0  0  0
  -32.7149  -29.5425   23.1353 C   0  0  0  0  0  0  0  0  0  0  0  0
  -28.0254  -25.1390   25.4781 C   0  0  0  0  0  0  0  0  0  0  0  0
  -31.9405  -18.5380   21.0288 C   0  0  0  0  0  0  0  0  0  1  0  0
  -31.6638  -13.1683   23.7654 C   0  0  0  0  0  0  0  0  0  0  0  0
  -32.0709  -27.1057   23.3331 C   0  0  1  0  0  0  0  0  0  0  0  0
  -29.5824  -26.9581   26.1889 C   0  0  2  0  0  0  0  0  0  0  0  0
  -31.6692  -14.6853   24.1739 C   0  0  0  0  0  0  0  0  0  0  0  0
  -33.2546  -28.1134   23.3614 C   0  0  0  0  0  0  0  0  0  0  0  0
  -25.9386  -11.6133   20.5339 N   0  0  0  0  0  0  0  0  0  0  0  0
  -26.2758  -12.9063   20.3904 N   0  0  0  0  0  0  0  0  0  0  0  0
  -31.3699  -25.8401   21.3254 N   0  0  0  0  0  0  0  0  0  0  0  0
  -30.0893  -12.6516   20.4319 N   0  0  0  0  0  0  0  0  0  0  0  0
  -25.3921  -15.1037   20.4233 N   0  0  0  0  0  0  0  0  0  0  0  0
  -21.7864  -12.5178   21.2650 N   0  0  0  0  0  0  0  0  0  0  0  0
  -31.8666  -26.5665   17.8677 N   0  0  0  0  0  0  0  0  0  0  0  0
  -31.0347  -27.3730   24.3248 N   0  0  0  0  0  0  0  0  0  0  0  0
  -30.7334  -12.8838   22.6957 N   0  0  0  0  0  0  0  0  0  0  0  0
  -28.6848  -25.8444   26.6071 N   0  3  0  0  0  0  0  0  0  0  0  0
  -22.5032  -14.6773   20.9796 O   0  0  0  0  0  0  0  0  0  0  0  0
  -33.1667  -25.4238   19.4254 O   0  0  0  0  0  0  0  0  0  0  0  0
  -30.8494  -28.1007   21.5598 O   0  0  0  0  0  0  0  0  0  0  0  0
  -31.1667  -25.3179   25.3908 O   0  0  0  0  0  0  0  0  0  0  0  0
  -32.2509  -13.2537   21.0173 O   0  0  0  0  0  0  0  0  0  0  0  0
  -21.7312   -6.9584   21.6197 O   0  0  0  0  0  0  0  0  0  0  0  0
  -32.3512  -19.7583   21.6440 O   0  0  0  0  0  0  0  0  0  1  0  0
  -18.1651   -6.8664   25.8242 F   0  0  0  0  0  0  0  0  0  0  0  0
  -22.0053   -5.1266   23.6720 F   0  0  0  0  0  0  0  0  0  0  0  0
  -34.3945  -14.2030   23.6544 F   0  0  0  0  0  0  0  0  0  0  0  0
  -34.9028  -18.0818   20.4102 Cl  0  0  0  0  0  0  0  0  0  0  0  0
  1  2  1  0  0  0  0
  1  5  2  0  0  0  0
  2  6  2  0  0  0  0
  3  8  2  0  0  0  0
  3 16  1  0  0  0  0
  4  9  1  0  0  0  0
  4 16  2  0  0  0  0
  5 18  1  0  0  0  0
  6 20  1  0  0  0  0
  7 10  2  0  0  0  0
  7 19  1  0  0  0  0
  8 25  1  0  0  0  0
  9 25  2  0  0  0  0
 10 26  1  0  0  0  0
 11 12  2  0  0  0  0
 11 27  1  0  0  0  0
 12 28  1  0  0  0  0
 13 21  1  0  0  0  0
 13 26  2  0  0  0  0
 14 22  2  0  0  0  0
 14 23  1  0  0  0  0
 15 28  2  0  0  0  0
 15 29  1  0  0  0  0
 16 32  1  0  0  0  0
 17 32  1  0  0  0  0
 17 33  2  0  0  0  0
 17 34  1  0  0  0  0
 18 20  2  0  0  0  0
 18 39  1  0  0  0  0
 19 21  2  0  0  0  0
 19 40  1  0  0  0  0
 20 48  1  0  0  0  0
 21 41  1  0  0  0  0
 22 30  1  0  0  0  0
 22 63  1  0  0  0  0
 23 31  2  0  0  0  0
 23 59  1  0  0  0  0
 24 30  2  0  0  0  0
 24 31  1  0  0  0  0
 24 51  1  0  0  0  0
 25 80  1  0  0  0  0
 26 81  1  0  0  0  0
 27 29  2  0  0  0  0
 27 80  1  0  0  0  0
 28 82  1  0  0  0  0
 29 83  1  0  0  0  0
 30 84  1  0  0  0  0
 31 85  1  0  0  0  0
 32 65  2  0  0  0  0
 33 66  1  0  0  0  0
 33 69  1  0  0  0  0
 34 70  1  0  0  0  0
 34 75  2  0  0  0  0
 35 49  1  0  0  0  0
 35 71  1  0  0  0  0
 35 76  2  0  0  0  0
 36 61  1  0  0  0  0
 36 67  1  0  0  0  0
 36 77  2  0  0  0  0
 37 62  1  0  0  0  0
 37 72  1  0  0  0  0
 37 78  2  0  0  0  0
 38 68  1  0  0  0  0
 38 73  1  0  0  0  0
 38 79  2  0  0  0  0
 39 42  1  0  0  0  0
 40 49  1  0  0  0  0
 41 67  1  0  0  0  0
 42 44  1  0  0  0  0
 43 45  1  0  0  0  0
 43 46  1  0  0  0  0
 44 48  1  0  0  0  0
 45 50  1  0  0  0  0
 46 68  1  0  0  0  0
 47 50  1  0  0  0  0
 47 68  1  0  0  0  0
 48 71  1  0  0  0  0
 49 67  1  0  0  0  0
 50 66  1  0  0  0  0
 52 62  1  0  0  0  0
 53 63  1  0  0  0  0
 54 63  1  0  0  0  0
 55 64  1  0  0  0  0
 56 64  1  0  0  0  0
 57 64  1  0  0  0  0
 58 74  1  0  0  0  0
 59 81  1  0  0  0  0
 60 63  1  0  0  0  0
 60 73  1  0  0  0  0
 61 64  1  0  0  0  0
 61 72  1  0  0  0  0
 62 74  1  0  0  0  0
 65 66  1  0  0  0  0
M  CHG  1  74   1
M  ISO  4  38 100  59 101  73 100  81 101
M  END
> <Batch ID>
0028

> <Smiles>
CNC(C)C(=O)NC(C(=O)N1Cc2cc([101O:1][101CH2:1]c3cc(C(C)(C)C[100NH:0][100C:0](=O)N4CCCC(n5nc(-c6ccc(Oc7ccc(F)cc7F)cc6)c(C(N)=O)c5N)C4)c(F)c(C)c3Cl)ccc2CC1C(=O)NC1CCCc2ccccc21)C(C)(C)C

> <Shape>
0.183

> <Color>
0.178

> <Negative vol penalty>
0.000

$$$$

  -OEChem-04052316333D

 87 95  0     1  0  0  0  0  0999 V2000
  -20.7048  -10.0309   16.7250 C   0  0  0  0  0  0  0  0  0  0  0  0
  -21.5008  -11.1363   16.4427 C   0  0  0  0  0  0  0  0  0  0  0  0
  -23.0029   -9.9345   19.9602 C   0  0  0  0  0  0  0  0  0  0  0  0
  -23.7523   -9.9308   22.2570 C   0  0  0  0  0  0  0  0  0  0  0  0
  -19.4509   -9.9056   16.1283 C   0  0  0  0  0  0  0  0  0  0  0  0
  -21.0439  -12.1167   15.5626 C   0  0  0  0  0  0  0  0  0  0  0  0
  -21.8672  -16.8079   17.2830 C   0  0  0  0  0  0  0  0  0  0  0  0
  -22.2368   -8.7956   20.2083 C   0  0  0  0  0  0  0  0  0  0  0  0
  -22.9861   -8.7919   22.5052 C   0  0  0  0  0  0  0  0  0  0  0  0
  -23.1612  -17.3125   17.1619 C   0  0  0  0  0  0  0  0  0  0  0  0
  -23.2182   -5.4643   21.9537 C   0  0  0  0  0  0  0  0  0  0  0  0
  -23.8114   -4.4289   22.6759 C   0  0  0  0  0  0  0  0  0  0  0  0
  -22.4897  -18.5471   15.2013 C   0  0  0  0  0  0  0  0  0  0  0  0
  -22.1057   -4.6363   24.3743 C   0  0  0  0  0  0  0  0  0  0  0  0
  -23.7608  -10.5021   20.9846 C   0  0  0  0  0  0  0  0  0  0  0  0
  -24.1497  -13.0203   20.8627 C   0  0  0  0  0  0  0  0  0  0  0  0
  -18.9743  -10.8898   15.2480 C   0  0  0  0  0  0  0  0  0  0  0  0
  -20.8758  -17.1611   16.3563 C   0  0  0  0  0  0  0  0  0  0  0  0
  -19.7830  -12.0038   14.9526 C   0  0  0  0  0  0  0  0  0  0  0  0
  -21.1832  -18.0476   15.3143 C   0  0  0  0  0  0  0  0  0  0  0  0
  -28.8722  -19.5143   19.9191 C   0  0  0  0  0  0  0  0  0  0  0  0
  -22.2283   -8.2243   21.4808 C   0  0  0  0  0  0  0  0  0  0  0  0
  -23.4733  -18.1800   16.1192 C   0  0  0  0  0  0  0  0  0  0  0  0
  -22.0688   -6.0859   22.4419 C   0  0  0  0  0  0  0  0  0  0  0  0
  -23.2551   -4.0148   23.8862 C   0  0  0  0  0  0  0  0  0  0  0  0
  -21.5125   -5.6718   23.6521 C   0  0  0  0  0  0  0  0  0  0  0  0
  -28.6215  -20.7559   20.4924 C   0  0  0  0  0  0  0  0  0  0  0  0
  -28.8876  -19.3843   18.5348 C   0  0  0  0  0  0  0  0  0  0  0  0
  -24.5529  -11.6782   20.7288 C   0  0  0  0  0  0  0  0  0  0  0  0
  -28.3940  -21.8278   19.6444 C   0  0  0  0  0  0  0  0  0  0  0  0
  -28.6480  -20.5175   17.7744 C   0  0  0  0  0  0  0  0  0  0  0  0
  -25.2571  -13.7490   20.5034 C   0  0  0  0  0  0  0  0  0  0  0  0
  -22.8870  -13.5601   21.2750 C   0  0  0  0  0  0  0  0  0  0  0  0
  -19.0926  -15.5675   14.2624 C   0  0  0  0  0  0  0  0  0  0  0  0
  -17.6644  -18.4537   13.8715 C   0  0  0  0  0  0  0  0  0  0  0  0
  -17.8830  -21.8508   14.1135 C   0  0  0  0  0  0  0  0  0  0  0  0
  -30.7578  -14.6670   20.7157 C   0  0  0  0  0  0  0  0  0  0  0  0
  -17.6320  -10.6873   14.5908 C   0  0  0  0  0  0  0  0  0  0  0  0
  -19.4780  -16.6291   16.5164 C   0  0  0  0  0  0  0  0  0  0  0  0
  -20.1498  -18.4738   14.3049 C   0  0  0  0  0  0  0  0  0  0  0  0
  -17.0651  -11.9565   13.9599 C   0  0  0  0  0  0  0  0  0  0  0  0
  -29.5874  -12.3004   18.3269 C   0  0  0  0  0  0  0  0  0  0  0  0
  -18.1355  -12.6686   13.1389 C   0  0  0  0  0  0  0  0  0  0  0  0
  -28.1428  -12.0338   18.7536 C   0  0  0  0  0  0  0  0  0  0  0  0
  -30.5029  -12.5060   19.5317 C   0  0  0  0  0  0  0  0  0  0  0  0
  -28.6086  -13.2740   20.9085 C   0  0  0  0  0  0  0  0  0  0  0  0
  -19.3119  -13.1007   14.0225 C   0  0  1  0  0  0  0  0  0  0  0  0
  -18.6780  -16.6508   15.2175 C   0  0  1  0  0  0  0  0  0  0  0  0
  -27.6368  -13.1157   19.7267 C   0  0  2  0  0  0  0  0  0  0  0  0
  -28.1209  -23.1765   20.2217 C   0  0  0  0  0  0  0  0  0  0  0  0
  -16.5682  -23.9449   13.6850 C   0  0  0  0  0  0  0  0  0  0  0  0
  -18.1896  -18.1681   10.8794 C   0  0  0  0  0  0  0  0  0  0  0  0
  -17.7440  -20.6200   10.6380 C   0  0  0  0  0  0  0  0  0  0  0  0
  -15.9433  -19.1019   11.4599 C   0  0  0  0  0  0  0  0  0  0  0  0
  -17.9687  -22.6273   16.9681 C   0  0  0  0  0  0  0  0  0  0  0  0
  -29.1178  -18.3483   20.8213 C   0  0  0  0  0  0  0  0  0  0  0  0
  -28.6476  -20.4572   16.2677 C   0  0  0  0  0  0  0  0  0  0  0  0
  -30.6029  -17.9754   20.9870 C   0  0  0  0  0  0  0  0  0  0  0  0
  -27.3802  -19.8329   15.6734 C   0  0  0  0  0  0  0  0  0  0  0  0
  -26.1160  -20.6367   15.9810 C   0  0  0  0  0  0  0  0  0  0  0  0
  -30.8577  -16.8177   21.9499 C   0  0  0  0  0  0  0  0  0  0  0  0
  -24.8742  -19.9660   15.4095 C   0  0  0  0  0  0  0  0  0  1  0  0
  -17.8926  -19.6467   12.9750 C   0  0  1  0  0  0  0  0  0  0  0  0
  -16.9391  -22.8812   14.7066 C   0  0  2  0  0  0  0  0  0  0  0  0
  -17.4626  -19.3748   11.5058 C   0  0  0  0  0  0  0  0  0  0  0  0
  -25.8176  -11.5584   20.3164 N   0  0  0  0  0  0  0  0  0  0  0  0
  -28.4008  -21.7403   18.2954 N   0  0  0  0  0  0  0  0  0  0  0  0
  -26.2188  -12.8346   20.1881 N   0  0  0  0  0  0  0  0  0  0  0  0
  -18.7991  -17.9217   14.5003 N   0  0  0  0  0  0  0  0  0  0  0  0
  -29.9674  -13.5458   20.4138 N   0  0  0  0  0  0  0  0  0  0  0  0
  -25.4924  -15.0762   20.4295 N   0  0  0  0  0  0  0  0  0  0  0  0
  -21.8570  -12.6702   21.6089 N   0  0  0  0  0  0  0  0  0  0  0  0
  -18.9699  -14.2896   14.7736 N   0  0  0  0  0  0  0  0  0  0  0  0
  -17.2004  -20.7672   13.6026 N   0  0  0  0  0  0  0  0  0  0  0  0
  -30.1721  -15.6079   21.5537 N   0  0  0  0  0  0  0  0  0  0  0  0
  -17.5741  -23.5533   15.8754 N   0  3  0  0  0  0  0  0  0  0  0  0
  -22.6733  -14.7949   21.3296 O   0  0  0  0  0  0  0  0  0  0  0  0
  -19.4926  -15.8687   13.1439 O   0  0  0  0  0  0  0  0  0  0  0  0
  -16.5206  -18.0145   14.0143 O   0  0  0  0  0  0  0  0  0  0  0  0
  -19.1035  -21.9947   14.1011 O   0  0  0  0  0  0  0  0  0  0  0  0
  -31.8989  -14.8208   20.2670 O   0  0  0  0  0  0  0  0  0  0  0  0
  -21.4806   -7.1132   21.7233 O   0  0  0  0  0  0  0  0  0  0  0  0
  -24.7357  -18.6735   15.9983 O   0  0  0  0  0  0  0  0  0  1  0  0
  -23.8239   -3.0194   24.5789 F   0  0  0  0  0  0  0  0  0  0  0  0
  -20.4077   -6.2643   24.1256 F   0  0  0  0  0  0  0  0  0  0  0  0
  -28.5989  -20.9103   21.8229 F   0  0  0  0  0  0  0  0  0  0  0  0
  -29.1953  -17.8575   17.7915 Cl  0  0  0  0  0  0  0  0  0  0  0  0
  1  2  1  0  0  0  0
  1  5  2  0  0  0  0
  2  6  2  0  0  0  0
  3  8  2  0  0  0  0
  3 15  1  0  0  0  0
  4  9  1  0  0  0  0
  4 15  2  0  0  0  0
  5 17  1  0  0  0  0
  6 19  1  0  0  0  0
  7 10  2  0  0  0  0
  7 18  1  0  0  0  0
  8 22  1  0  0  0  0
  9 22  2  0  0  0  0
 10 23  1  0  0  0  0
 11 12  2  0  0  0  0
 11 24  1  0  0  0  0
 12 25  1  0  0  0  0
 13 20  1  0  0  0  0
 13 23  2  0  0  0  0
 14 25  2  0  0  0  0
 14 26  1  0  0  0  0
 15 29  1  0  0  0  0
 16 29  1  0  0  0  0
 16 32  2  0  0  0  0
 16 33  1  0  0  0  0
 17 19  2  0  0  0  0
 17 38  1  0  0  0  0
 18 20  2  0  0  0  0
 18 39  1  0  0  0  0
 19 47  1  0  0  0  0
 20 40  1  0  0  0  0
 21 27  2  0  0  0  0
 21 28  1  0  0  0  0
 21 56  1  0  0  0  0
 22 82  1  0  0  0  0
 23 83  1  0  0  0  0
 24 26  2  0  0  0  0
 24 82  1  0  0  0  0
 25 84  1  0  0  0  0
 26 85  1  0  0  0  0
 27 30  1  0  0  0  0
 27 86  1  0  0  0  0
 28 31  2  0  0  0  0
 28 87  1  0  0  0  0
 29 66  2  0  0  0  0
 30 50  1  0  0  0  0
 30 67  2  0  0  0  0
 31 57  1  0  0  0  0
 31 67  1  0  0  0  0
 32 68  1  0  0  0  0
 32 71  1  0  0  0  0
 33 72  1  0  0  0  0
 33 77  2  0  0  0  0
 34 48  1  0  0  0  0
 34 73  1  0  0  0  0
 34 78  2  0  0  0  0
 35 63  1  0  0  0  0
 35 69  1  0  0  0  0
 35 79  2  0  0  0  0
 36 64  1  0  0  0  0
 36 74  1  0  0  0  0
 36 80  2  0  0  0  0
 37 70  1  0  0  0  0
 37 75  1  0  0  0  0
 37 81  2  0  0  0  0
 38 41  1  0  0  0  0
 39 48  1  0  0  0  0
 40 69  1  0  0  0  0
 41 43  1  0  0  0  0
 42 44  1  0  0  0  0
 42 45  1  0  0  0  0
 43 47  1  0  0  0  0
 44 49  1  0  0  0  0
 45 70  1  0  0  0  0
 46 49  1  0  0  0  0
 46 70  1  0  0  0  0
 47 73  1  0  0  0  0
 48 69  1  0  0  0  0
 49 68  1  0  0  0  0
 51 64  1  0  0  0  0
 52 65  1  0  0  0  0
 53 65  1  0  0  0  0
 54 65  1  0  0  0  0
 55 76  1  0  0  0  0
 56 58  1  0  0  0  0
 57 59  1  0  0  0  0
 58 61  1  0  0  0  0
 59 60  1  0  0  0  0
 60 62  1  0  0  0  0
 61 75  1  0  0  0  0
 62 83  1  0  0  0  0
 63 65  1  0  0  0  0
 63 74  1  0  0  0  0
 64 76  1  0  0  0  0
 66 68  1  0  0  0  0
M  CHG  1  76   1
M  ISO  4  37 100  62 101  75 100  83 101
M  END
> <Batch ID>
0028

> <Smiles>
CNC(C)C(=O)NC(C(=O)N1Cc2cc([101O:1][101CH2:1]CCCc3nc(C)c(F)c(CCC[100NH:0][100C:0](=O)N4CCCC(n5nc(-c6ccc(Oc7ccc(F)cc7F)cc6)c(C(N)=O)c5N)C4)c3Cl)ccc2CC1C(=O)NC1CCCc2ccccc21)C(C)(C)C

> <Shape>
0.220

> <Color>
0.204

> <Negative vol penalty>
0.000

$$$$

  -OEChem-04052316333D

 87 95  0     1  0  0  0  0  0999 V2000
  -21.6868  -12.8914   19.1852 C   0  0  0  0  0  0  0  0  0  0  0  0
  -21.7132  -14.1820   19.7039 C   0  0  0  0  0  0  0  0  0  0  0  0
  -29.4679  -28.1272   18.5646 C   0  0  0  0  0  0  0  0  0  0  0  0
  -29.5684  -28.4361   20.9587 C   0  0  0  0  0  0  0  0  0  0  0  0
  -22.8061  -12.0692   19.3077 C   0  0  0  0  0  0  0  0  0  0  0  0
  -22.8586  -14.6508   20.3464 C   0  0  0  0  0  0  0  0  0  0  0  0
  -24.1013  -19.3483   18.9201 C   0  0  0  0  0  0  0  0  0  0  0  0
  -30.8516  -28.2844   18.4862 C   0  0  0  0  0  0  0  0  0  0  0  0
  -30.9521  -28.5932   20.8803 C   0  0  0  0  0  0  0  0  0  0  0  0
  -23.3694  -20.3969   19.4754 C   0  0  0  0  0  0  0  0  0  0  0  0
  -34.5545  -28.7167   21.3556 C   0  0  0  0  0  0  0  0  0  0  0  0
  -35.3385  -28.0422   22.2915 C   0  0  0  0  0  0  0  0  0  0  0  0
  -25.1526  -20.8002   21.0491 C   0  0  0  0  0  0  0  0  0  0  0  0
  -18.7878  -27.1395   22.4193 C   0  0  0  0  0  0  0  0  0  0  0  0
  -34.4563  -25.9330   21.5105 C   0  0  0  0  0  0  0  0  0  0  0  0
  -28.8262  -28.2032   19.8008 C   0  0  0  0  0  0  0  0  0  0  0  0
  -26.6863  -26.8403   20.0674 C   0  0  0  0  0  0  0  0  0  0  0  0
  -23.9692  -12.5314   19.9434 C   0  0  0  0  0  0  0  0  0  0  0  0
  -25.3618  -19.0101   19.4330 C   0  0  0  0  0  0  0  0  0  0  0  0
  -23.9940  -13.8335   20.4786 C   0  0  0  0  0  0  0  0  0  0  0  0
  -25.8996  -19.7485   20.4969 C   0  0  0  0  0  0  0  0  0  0  0  0
  -18.5539  -25.7652   22.4647 C   0  0  0  0  0  0  0  0  0  0  0  0
  -19.7343  -27.7144   23.2674 C   0  0  0  0  0  0  0  0  0  0  0  0
  -19.2665  -24.9657   23.3585 C   0  0  0  0  0  0  0  0  0  0  0  0
  -20.2130  -25.5406   24.2067 C   0  0  0  0  0  0  0  0  0  0  0  0
  -31.5938  -28.5173   19.6441 C   0  0  0  0  0  0  0  0  0  0  0  0
  -23.8937  -21.1212   20.5420 C   0  0  0  0  0  0  0  0  0  0  0  0
  -33.7213  -27.9994   20.4972 C   0  0  0  0  0  0  0  0  0  0  0  0
  -35.2895  -26.6504   22.3689 C   0  0  0  0  0  0  0  0  0  0  0  0
  -33.6722  -26.6075   20.5746 C   0  0  0  0  0  0  0  0  0  0  0  0
  -20.4468  -26.9149   24.1611 C   0  0  0  0  0  0  0  0  0  0  0  0
  -27.3968  -28.0415   19.8824 C   0  0  0  0  0  0  0  0  0  0  0  0
  -25.3663  -27.2198   20.0747 C   0  0  0  0  0  0  0  0  0  0  0  0
  -27.1757  -25.5013   20.2191 C   0  0  0  0  0  0  0  0  0  0  0  0
  -26.6060  -16.4266   20.8047 C   0  0  0  0  0  0  0  0  0  0  0  0
  -29.3616  -18.1265   20.6071 C   0  0  0  0  0  0  0  0  0  0  0  0
  -30.8738  -21.1777   20.3820 C   0  0  0  0  0  0  0  0  0  0  0  0
  -21.3044  -30.6734   21.7235 C   0  0  0  0  0  0  0  0  0  0  0  0
  -25.1377  -11.5897   20.0935 C   0  0  0  0  0  0  0  0  0  0  0  0
  -26.1502  -17.8934   18.8055 C   0  0  0  0  0  0  0  0  0  0  0  0
  -27.2571  -19.4385   21.0709 C   0  0  0  0  0  0  0  0  0  0  0  0
  -26.4431  -12.2920   20.4578 C   0  0  0  0  0  0  0  0  0  0  0  0
  -23.2016  -31.6290   18.8662 C   0  0  0  0  0  0  0  0  0  0  0  0
  -26.2140  -13.2932   21.5856 C   0  0  0  0  0  0  0  0  0  0  0  0
  -24.4060  -30.6863   18.8949 C   0  0  0  0  0  0  0  0  0  0  0  0
  -22.7743  -32.0416   20.2730 C   0  0  0  0  0  0  0  0  0  0  0  0
  -23.7262  -29.9778   21.2261 C   0  0  0  0  0  0  0  0  0  0  0  0
  -25.2266  -14.3866   21.1605 C   0  0  1  0  0  0  0  0  0  0  0  0
  -27.2017  -17.3051   19.7412 C   0  0  1  0  0  0  0  0  0  0  0  0
  -24.1592  -29.4896   19.8331 C   0  0  2  0  0  0  0  0  0  0  0  0
  -20.9685  -24.6653   25.1584 C   0  0  0  0  0  0  0  0  0  0  0  0
  -15.0657  -24.8661   21.0759 C   0  0  0  0  0  0  0  0  0  0  0  0
  -33.1401  -22.2500   20.2768 C   0  0  0  0  0  0  0  0  0  0  0  0
  -29.7231  -17.6504   23.5992 C   0  0  0  0  0  0  0  0  0  0  0  0
  -31.4242  -19.4873   23.6152 C   0  0  0  0  0  0  0  0  0  0  0  0
  -31.8171  -17.4378   22.2486 C   0  0  0  0  0  0  0  0  0  0  0  0
  -30.3228  -22.3516   17.7217 C   0  0  0  0  0  0  0  0  0  0  0  0
  -17.5352  -25.1748   21.5462 C   0  0  0  0  0  0  0  0  0  0  0  0
  -19.0109  -23.4802   23.4027 C   0  0  0  0  0  0  0  0  0  0  0  0
  -19.9512  -29.1914   23.1836 C   0  0  0  0  0  0  0  0  0  0  0  0
  -16.1019  -25.4387   22.0299 C   0  0  0  0  0  0  0  0  0  0  0  0
  -19.6425  -22.7084   22.2388 C   0  0  0  0  0  0  0  0  0  0  0  0
  -21.1696  -22.7895   22.2254 C   0  0  0  0  0  0  0  0  0  0  0  0
  -21.7585  -22.0455   21.0346 C   0  0  0  0  0  0  0  0  0  1  0  0
  -30.0764  -19.1116   21.5002 C   0  0  1  0  0  0  0  0  0  0  0  0
  -31.9762  -21.6909   19.4734 C   0  0  2  0  0  0  0  0  0  0  0  0
  -30.7338  -18.4266   22.7314 C   0  0  0  0  0  0  0  0  0  0  0  0
  -26.5946  -29.1045   19.7794 N   0  0  0  0  0  0  0  0  0  0  0  0
  -25.3664  -28.5725   19.9000 N   0  0  0  0  0  0  0  0  0  0  0  0
  -27.9866  -18.3335   20.4272 N   0  0  0  0  0  0  0  0  0  0  0  0
  -22.5548  -30.8607   21.1116 N   0  0  0  0  0  0  0  0  0  0  0  0
  -24.2171  -26.5251   20.2132 N   0  0  0  0  0  0  0  0  0  0  0  0
  -28.5607  -25.2886   20.1877 N   0  0  0  0  0  0  0  0  0  0  0  0
  -25.8826  -15.3576   20.3113 N   0  0  0  0  0  0  0  0  0  0  0  0
  -31.0143  -19.8315   20.6454 N   0  0  0  0  0  0  0  0  0  0  0  0
  -21.1786  -29.5254   22.4961 N   0  0  0  0  0  0  0  0  0  0  0  0
  -31.4562  -22.7697   18.5864 N   0  3  0  0  0  0  0  0  0  0  0  0
  -26.4070  -24.5203   20.3615 O   0  0  0  0  0  0  0  0  0  0  0  0
  -26.7902  -16.6977   21.9855 O   0  0  0  0  0  0  0  0  0  0  0  0
  -30.0011  -17.2113   20.0825 O   0  0  0  0  0  0  0  0  0  0  0  0
  -29.9796  -21.8996   20.8178 O   0  0  0  0  0  0  0  0  0  0  0  0
  -20.3676  -31.4677   21.5869 O   0  0  0  0  0  0  0  0  0  0  0  0
  -32.9441  -28.6704   19.5680 O   0  0  0  0  0  0  0  0  0  0  0  0
  -23.1812  -22.1448   21.0863 O   0  0  0  0  0  0  0  0  0  1  0  0
  -36.0436  -26.0027   23.2667 F   0  0  0  0  0  0  0  0  0  0  0  0
  -32.8745  -25.9129   19.7518 F   0  0  0  0  0  0  0  0  0  0  0  0
  -21.6209  -27.6326   25.2137 Cl  0  0  0  0  0  0  0  0  0  0  0  0
  1  2  1  0  0  0  0
  1  5  2  0  0  0  0
  2  6  2  0  0  0  0
  3  8  2  0  0  0  0
  3 16  1  0  0  0  0
  4  9  1  0  0  0  0
  4 16  2  0  0  0  0
  5 18  1  0  0  0  0
  6 20  1  0  0  0  0
  7 10  2  0  0  0  0
  7 19  1  0  0  0  0
  8 26  1  0  0  0  0
  9 26  2  0  0  0  0
 10 27  1  0  0  0  0
 11 12  2  0  0  0  0
 11 28  1  0  0  0  0
 12 29  1  0  0  0  0
 13 21  1  0  0  0  0
 13 27  2  0  0  0  0
 14 22  1  0  0  0  0
 14 23  2  0  0  0  0
 15 29  2  0  0  0  0
 15 30  1  0  0  0  0
 16 32  1  0  0  0  0
 17 32  1  0  0  0  0
 17 33  2  0  0  0  0
 17 34  1  0  0  0  0
 18 20  2  0  0  0  0
 18 39  1  0  0  0  0
 19 21  2  0  0  0  0
 19 40  1  0  0  0  0
 20 48  1  0  0  0  0
 21 41  1  0  0  0  0
 22 24  2  0  0  0  0
 22 58  1  0  0  0  0
 23 31  1  0  0  0  0
 23 60  1  0  0  0  0
 24 25  1  0  0  0  0
 24 59  1  0  0  0  0
 25 31  2  0  0  0  0
 25 51  1  0  0  0  0
 26 83  1  0  0  0  0
 27 84  1  0  0  0  0
 28 30  2  0  0  0  0
 28 83  1  0  0  0  0
 29 85  1  0  0  0  0
 30 86  1  0  0  0  0
 31 87  1  0  0  0  0
 32 68  2  0  0  0  0
 33 69  1  0  0  0  0
 33 72  1  0  0  0  0
 34 73  1  0  0  0  0
 34 78  2  0  0  0  0
 35 49  1  0  0  0  0
 35 74  1  0  0  0  0
 35 79  2  0  0  0  0
 36 65  1  0  0  0  0
 36 70  1  0  0  0  0
 36 80  2  0  0  0  0
 37 66  1  0  0  0  0
 37 75  1  0  0  0  0
 37 81  2  0  0  0  0
 38 71  1  0  0  0  0
 38 76  1  0  0  0  0
 38 82  2  0  0  0  0
 39 42  1  0  0  0  0
 40 49  1  0  0  0  0
 41 70  1  0  0  0  0
 42 44  1  0  0  0  0
 43 45  1  0  0  0  0
 43 46  1  0  0  0  0
 44 48  1  0  0  0  0
 45 50  1  0  0  0  0
 46 71  1  0  0  0  0
 47 50  1  0  0  0  0
 47 71  1  0  0  0  0
 48 74  1  0  0  0  0
 49 70  1  0  0  0  0
 50 69  1  0  0  0  0
 52 61  1  0  0  0  0
 53 66  1  0  0  0  0
 54 67  1  0  0  0  0
 55 67  1  0  0  0  0
 56 67  1  0  0  0  0
 57 77  1  0  0  0  0
 58 61  1  0  0  0  0
 59 62  1  0  0  0  0
 60 76  1  0  0  0  0
 62 63  1  0  0  0  0
 63 64  1  0  0  0  0
 64 84  1  0  0  0  0
 65 67  1  0  0  0  0
 65 75  1  0  0  0  0
 66 77  1  0  0  0  0
 68 69  1  0  0  0  0
M  CHG  1  77   1
M  ISO  4  38 100  64 101  76 100  84 101
M  END
> <Batch ID>
0028

> <Smiles>
CCCc1cc(C[100NH:0][100C:0](=O)N2CCCC(n3nc(-c4ccc(Oc5ccc(F)cc5F)cc4)c(C(N)=O)c3N)C2)c(Cl)c(C)c1CCC[101CH2:1][101O:1]c1ccc2c(c1)CN(C(=O)C(NC(=O)C(C)NC)C(C)(C)C)C(C(=O)NC1CCCc3ccccc31)C2

> <Shape>
0.219

> <Color>
0.085

> <Negative vol penalty>
0.000

$$$$

  -OEChem-04052316333D

 86 94  0     1  0  0  0  0  0999 V2000
  -23.4126  -35.1229   20.6386 C   0  0  0  0  0  0  0  0  0  0  0  0
  -24.3739  -34.1206   20.7202 C   0  0  0  0  0  0  0  0  0  0  0  0
  -22.4063  -10.1692   22.4384 C   0  0  0  0  0  0  0  0  0  0  0  0
  -23.6649   -9.8106   20.4075 C   0  0  0  0  0  0  0  0  0  0  0  0
  -22.2014  -34.9822   21.3148 C   0  0  0  0  0  0  0  0  0  0  0  0
  -24.1250  -32.9775   21.4789 C   0  0  0  0  0  0  0  0  0  0  0  0
  -25.4645  -28.7237   19.0797 C   0  0  0  0  0  0  0  0  0  0  0  0
  -21.9114   -8.8673   22.3616 C   0  0  0  0  0  0  0  0  0  0  0  0
  -23.1700   -8.5087   20.3307 C   0  0  0  0  0  0  0  0  0  0  0  0
  -26.8217  -28.4052   19.0582 C   0  0  0  0  0  0  0  0  0  0  0  0
  -23.0018   -5.7430   23.0560 C   0  0  0  0  0  0  0  0  0  0  0  0
  -22.9969   -4.9814   24.2245 C   0  0  0  0  0  0  0  0  0  0  0  0
  -26.4769  -26.8407   20.8618 C   0  0  0  0  0  0  0  0  0  0  0  0
  -29.1216  -19.6472   19.1337 C   0  0  0  0  0  0  0  0  0  0  0  0
  -20.5966   -4.7556   24.0673 C   0  0  0  0  0  0  0  0  0  0  0  0
  -23.2830  -10.6408   21.4613 C   0  0  0  0  0  0  0  0  0  0  0  0
  -24.9669  -12.4128   22.1909 C   0  0  0  0  0  0  0  0  0  0  0  0
  -21.9337  -33.8324   22.0743 C   0  0  0  0  0  0  0  0  0  0  0  0
  -24.6039  -28.1101   20.0013 C   0  0  0  0  0  0  0  0  0  0  0  0
  -22.9096  -32.8219   22.1670 C   0  0  0  0  0  0  0  0  0  0  0  0
  -25.1088  -27.1513   20.8912 C   0  0  0  0  0  0  0  0  0  0  0  0
  -28.7781  -20.7479   19.9186 C   0  0  0  0  0  0  0  0  0  0  0  0
  -27.4595  -20.9198   20.3398 C   0  0  0  0  0  0  0  0  0  0  0  0
  -26.8279  -18.8903   19.1910 C   0  0  0  0  0  0  0  0  0  0  0  0
  -22.2933   -8.0371   21.3078 C   0  0  0  0  0  0  0  0  0  0  0  0
  -27.3286  -27.4657   19.9513 C   0  0  0  0  0  0  0  0  0  0  0  0
  -21.8041   -6.0110   22.3931 C   0  0  0  0  0  0  0  0  0  0  0  0
  -21.7943   -4.4877   24.7302 C   0  0  0  0  0  0  0  0  0  0  0  0
  -28.1465  -18.7184   18.7699 C   0  0  0  0  0  0  0  0  0  0  0  0
  -20.6016   -5.5173   22.8987 C   0  0  0  0  0  0  0  0  0  0  0  0
  -26.4844  -19.9910   19.9760 C   0  0  0  0  0  0  0  0  0  0  0  0
  -23.7941  -11.9857   21.5398 C   0  0  0  0  0  0  0  0  0  0  0  0
  -25.0055  -13.7686   21.9745 C   0  0  0  0  0  0  0  0  0  0  0  0
  -25.9349  -11.6520   22.9257 C   0  0  0  0  0  0  0  0  0  0  0  0
  -22.7766  -29.1361   22.3913 C   0  0  0  0  0  0  0  0  0  0  0  0
  -21.7984  -26.0440   22.4544 C   0  0  0  0  0  0  0  0  0  0  0  0
  -22.4702  -22.7773   21.7302 C   0  0  0  0  0  0  0  0  0  0  0  0
  -24.4780  -18.1829   18.6220 C   0  0  0  0  0  0  0  0  0  0  0  0
  -20.6290  -33.7465   22.8260 C   0  0  0  0  0  0  0  0  0  0  0  0
  -23.1376  -28.4450   19.9937 C   0  0  0  0  0  0  0  0  0  0  0  0
  -24.2230  -26.4491   21.8866 C   0  0  0  0  0  0  0  0  0  0  0  0
  -20.2933  -32.3363   23.3043 C   0  0  0  0  0  0  0  0  0  0  0  0
  -21.5023  -16.9065   20.1029 C   0  0  0  0  0  0  0  0  0  0  0  0
  -21.5107  -31.6904   23.9582 C   0  0  0  0  0  0  0  0  0  0  0  0
  -21.9297  -15.5477   20.6623 C   0  0  0  0  0  0  0  0  0  0  0  0
  -22.1938  -17.2167   18.7765 C   0  0  0  0  0  0  0  0  0  0  0  0
  -24.0856  -15.7501   19.3591 C   0  0  0  0  0  0  0  0  0  0  0  0
  -22.6668  -31.5559   22.9598 C   0  0  1  0  0  0  0  0  0  0  0  0
  -22.4474  -28.1365   21.3188 C   0  0  1  0  0  0  0  0  0  0  0  0
  -23.4646  -15.4223   20.7268 C   0  0  2  0  0  0  0  0  0  0  0  0
  -27.0719  -22.0919   21.1806 C   0  0  0  0  0  0  0  0  0  0  0  0
  -21.4961  -20.4737   21.9346 C   0  0  0  0  0  0  0  0  0  0  0  0
  -32.0758  -23.6910   19.2024 C   0  0  0  0  0  0  0  0  0  0  0  0
  -22.4998  -26.0134   25.4237 C   0  0  0  0  0  0  0  0  0  0  0  0
  -22.4200  -23.5123   25.3456 C   0  0  0  0  0  0  0  0  0  0  0  0
  -20.3689  -24.8401   24.8430 C   0  0  0  0  0  0  0  0  0  0  0  0
  -22.4507  -22.3992   18.7949 C   0  0  0  0  0  0  0  0  0  0  0  0
  -29.8445  -21.7331   20.2969 C   0  0  0  0  0  0  0  0  0  0  0  0
  -30.2726  -25.4211   19.5706 C   0  0  0  0  0  0  0  0  0  0  0  0
  -29.0139  -25.8305   20.3276 C   0  0  0  0  0  0  0  0  0  1  0  0
  -22.2569  -24.7918   23.1622 C   0  0  1  0  0  0  0  0  0  0  0  0
  -21.6378  -21.7041   21.0521 C   0  0  2  0  0  0  0  0  0  0  0  0
  -30.7762  -24.0205   19.9247 C   0  0  1  0  0  0  0  0  0  0  0  0
  -21.9037  -24.8039   24.6763 C   0  0  0  0  0  0  0  0  0  0  0  0
  -23.1352  -12.9889   20.9537 N   0  0  0  0  0  0  0  0  0  0  0  0
  -23.8965  -14.0599   21.2359 N   0  0  0  0  0  0  0  0  0  0  0  0
  -22.7977  -26.8154   21.8444 N   0  0  0  0  0  0  0  0  0  0  0  0
  -23.6455  -17.0820   18.9148 N   0  0  0  0  0  0  0  0  0  0  0  0
  -25.8795  -14.7281   22.3458 N   0  0  0  0  0  0  0  0  0  0  0  0
  -25.7424  -10.2694   23.0514 N   0  0  0  0  0  0  0  0  0  0  0  0
  -25.8378  -17.9466   18.8213 N   0  0  0  0  0  0  0  0  0  0  0  0
  -22.4391  -30.4371   22.0705 N   0  0  0  0  0  0  0  0  0  0  0  0
  -21.6830  -23.6721   22.4237 N   0  0  0  0  0  0  0  0  0  0  0  0
  -22.2716  -21.2911   19.7681 N   0  3  0  0  0  0  0  0  0  0  0  0
  -29.7616  -23.0036   19.5309 N   0  3  0  0  0  0  0  0  0  0  0  0
  -26.9320  -12.1850   23.4690 O   0  0  0  0  0  0  0  0  0  0  0  0
  -23.2969  -28.7550   23.4332 O   0  0  0  0  0  0  0  0  0  0  0  0
  -20.5970  -26.3234   22.4370 O   0  0  0  0  0  0  0  0  0  0  0  0
  -23.6964  -22.8157   21.6554 O   0  0  0  0  0  0  0  0  0  0  0  0
  -24.0164  -19.2647   18.2499 O   0  0  0  0  0  0  0  0  0  0  0  0
  -21.8108   -6.7666   21.2326 O   0  0  0  0  0  0  0  0  0  0  0  0
  -28.6530  -27.1535   19.9329 O   0  0  0  0  0  0  0  0  0  1  0  0
  -21.7899   -3.7550   25.8515 F   0  0  0  0  0  0  0  0  0  0  0  0
  -28.4883  -17.6643   18.0152 F   0  0  0  0  0  0  0  0  0  0  0  0
  -19.4479   -5.7705   22.2656 F   0  0  0  0  0  0  0  0  0  0  0  0
  -25.2162  -20.1574   20.3816 F   0  0  0  0  0  0  0  0  0  0  0  0
  1  2  1  0  0  0  0
  1  5  2  0  0  0  0
  2  6  2  0  0  0  0
  3  8  2  0  0  0  0
  3 16  1  0  0  0  0
  4  9  1  0  0  0  0
  4 16  2  0  0  0  0
  5 18  1  0  0  0  0
  6 20  1  0  0  0  0
  7 10  2  0  0  0  0
  7 19  1  0  0  0  0
  8 25  1  0  0  0  0
  9 25  2  0  0  0  0
 10 26  1  0  0  0  0
 11 12  2  0  0  0  0
 11 27  1  0  0  0  0
 12 28  1  0  0  0  0
 13 21  1  0  0  0  0
 13 26  2  0  0  0  0
 14 22  1  0  0  0  0
 14 29  2  0  0  0  0
 15 28  2  0  0  0  0
 15 30  1  0  0  0  0
 16 32  1  0  0  0  0
 17 32  1  0  0  0  0
 17 33  2  0  0  0  0
 17 34  1  0  0  0  0
 18 20  2  0  0  0  0
 18 39  1  0  0  0  0
 19 21  2  0  0  0  0
 19 40  1  0  0  0  0
 20 48  1  0  0  0  0
 21 41  1  0  0  0  0
 22 23  2  0  0  0  0
 22 58  1  0  0  0  0
 23 31  1  0  0  0  0
 23 51  1  0  0  0  0
 24 29  1  0  0  0  0
 24 31  2  0  0  0  0
 24 71  1  0  0  0  0
 25 81  1  0  0  0  0
 26 82  1  0  0  0  0
 27 30  2  0  0  0  0
 27 81  1  0  0  0  0
 28 83  1  0  0  0  0
 29 84  1  0  0  0  0
 30 85  1  0  0  0  0
 31 86  1  0  0  0  0
 32 65  2  0  0  0  0
 33 66  1  0  0  0  0
 33 69  1  0  0  0  0
 34 70  1  0  0  0  0
 34 76  2  0  0  0  0
 35 49  1  0  0  0  0
 35 72  1  0  0  0  0
 35 77  2  0  0  0  0
 36 61  1  0  0  0  0
 36 67  1  0  0  0  0
 36 78  2  0  0  0  0
 37 62  1  0  0  0  0
 37 73  1  0  0  0  0
 37 79  2  0  0  0  0
 38 68  1  0  0  0  0
 38 71  1  0  0  0  0
 38 80  2  0  0  0  0
 39 42  1  0  0  0  0
 40 49  1  0  0  0  0
 41 67  1  0  0  0  0
 42 44  1  0  0  0  0
 43 45  1  0  0  0  0
 43 46  1  0  0  0  0
 44 48  1  0  0  0  0
 45 50  1  0  0  0  0
 46 68  1  0  0  0  0
 47 50  1  0  0  0  0
 47 68  1  0  0  0  0
 48 72  1  0  0  0  0
 49 67  1  0  0  0  0
 50 66  1  0  0  0  0
 52 62  1  0  0  0  0
 53 63  1  0  0  0  0
 54 64  1  0  0  0  0
 55 64  1  0  0  0  0
 56 64  1  0  0  0  0
 57 74  1  0  0  0  0
 58 75  1  0  0  0  0
 59 60  1  0  0  0  0
 59 63  1  0  0  0  0
 60 82  1  0  0  0  0
 61 64  1  0  0  0  0
 61 73  1  0  0  0  0
 62 74  1  0  0  0  0
 63 75  1  0  0  0  0
 65 66  1  0  0  0  0
M  CHG  2  74   1  75   1
M  ISO  4  38 100  60 101  71 100  82 101
M  END
> <Batch ID>
0028

> <Smiles>
CNC(C)C(=O)NC(C(=O)N1Cc2cc([101O:1][101CH2:1]CC(C)NCc3cc(F)c([100NH:0][100C:0](=O)N4CCCC(n5nc(-c6ccc(Oc7ccc(F)cc7F)cc6)c(C(N)=O)c5N)C4)c(F)c3C)ccc2CC1C(=O)NC1CCCc2ccccc21)C(C)(C)C

> <Shape>
0.226

> <Color>
0.109

> <Negative vol penalty>
0.000

$$$$

  -OEChem-04052316333D

 82 90  0     1  0  0  0  0  0999 V2000
  -26.0324  -35.2306   23.3053 C   0  0  0  0  0  0  0  0  0  0  0  0
  -26.5944  -33.9923   23.0117 C   0  0  0  0  0  0  0  0  0  0  0  0
  -23.8411  -13.1830   21.2376 C   0  0  0  0  0  0  0  0  0  0  0  0
  -26.2185  -13.4504   20.9006 C   0  0  0  0  0  0  0  0  0  0  0  0
  -24.7579  -35.3010   23.8663 C   0  0  0  0  0  0  0  0  0  0  0  0
  -25.8827  -32.8236   23.2800 C   0  0  0  0  0  0  0  0  0  0  0  0
  -26.0962  -29.4999   19.4652 C   0  0  0  0  0  0  0  0  0  0  0  0
  -23.8935  -11.9348   20.6173 C   0  0  0  0  0  0  0  0  0  0  0  0
  -26.2709  -12.2021   20.2803 C   0  0  0  0  0  0  0  0  0  0  0  0
  -27.2650  -28.7505   19.3383 C   0  0  0  0  0  0  0  0  0  0  0  0
  -24.8183   -8.7858   21.4309 C   0  0  0  0  0  0  0  0  0  0  0  0
  -24.1371   -7.7310   22.0383 C   0  0  0  0  0  0  0  0  0  0  0  0
  -26.1781  -26.8847   20.4140 C   0  0  0  0  0  0  0  0  0  0  0  0
  -22.7838   -7.4630   20.0549 C   0  0  0  0  0  0  0  0  0  0  0  0
  -31.9739  -25.0149   19.5286 C   0  0  0  0  0  0  0  0  0  0  0  0
  -25.0036  -13.9409   21.3792 C   0  0  0  0  0  0  0  0  0  0  0  0
  -25.1134  -15.5068   23.3900 C   0  0  0  0  0  0  0  0  0  0  0  0
  -24.0263  -34.1329   24.1326 C   0  0  0  0  0  0  0  0  0  0  0  0
  -24.9611  -28.9502   20.0782 C   0  0  0  0  0  0  0  0  0  0  0  0
  -24.5978  -32.8784   23.8463 C   0  0  0  0  0  0  0  0  0  0  0  0
  -24.9954  -27.6284   20.5450 C   0  0  0  0  0  0  0  0  0  0  0  0
  -29.9260  -23.3838   20.1249 C   0  0  0  0  0  0  0  0  0  0  0  0
  -25.1084  -11.4443   20.1387 C   0  0  0  0  0  0  0  0  0  0  0  0
  -27.3070  -27.4437   19.8154 C   0  0  0  0  0  0  0  0  0  0  0  0
  -24.4822   -9.1793   20.1355 C   0  0  0  0  0  0  0  0  0  0  0  0
  -23.1199   -7.0696   21.3503 C   0  0  0  0  0  0  0  0  0  0  0  0
  -23.4650   -8.5179   19.4476 C   0  0  0  0  0  0  0  0  0  0  0  0
  -24.9499  -15.2306   22.0193 C   0  0  0  0  0  0  0  0  0  0  0  0
  -31.2064  -22.9114   19.9201 C   0  0  0  0  0  0  0  0  0  0  0  0
  -29.7669  -24.7491   20.0034 C   0  0  0  0  0  0  0  0  0  0  0  0
  -24.9743  -16.8700   23.4846 C   0  0  0  0  0  0  0  0  0  0  0  0
  -25.3682  -14.6112   24.4803 C   0  0  0  0  0  0  0  0  0  0  0  0
  -23.2453  -29.6508   22.6606 C   0  0  0  0  0  0  0  0  0  0  0  0
  -21.3180  -27.2937   21.5415 C   0  0  0  0  0  0  0  0  0  0  0  0
  -20.9891  -24.4764   19.6438 C   0  0  0  0  0  0  0  0  0  0  0  0
  -25.7989  -21.3333   19.5794 C   0  0  0  0  0  0  0  0  0  0  0  0
  -22.6714  -34.2575   24.7833 C   0  0  0  0  0  0  0  0  0  0  0  0
  -23.6997  -29.7627   20.1833 C   0  0  0  0  0  0  0  0  0  0  0  0
  -23.7976  -26.9849   21.1927 C   0  0  0  0  0  0  0  0  0  0  0  0
  -21.8317  -32.9861   24.6902 C   0  0  0  0  0  0  0  0  0  0  0  0
  -22.8106  -20.5695   21.3580 C   0  0  0  0  0  0  0  0  0  0  0  0
  -22.6674  -31.7659   25.0636 C   0  0  0  0  0  0  0  0  0  0  0  0
  -23.0348  -19.1396   21.8529 C   0  0  0  0  0  0  0  0  0  0  0  0
  -23.4145  -20.7885   19.9726 C   0  0  0  0  0  0  0  0  0  0  0  0
  -25.0633  -18.9958   20.3485 C   0  0  0  0  0  0  0  0  0  0  0  0
  -23.8470  -31.5891   24.0998 C   0  0  1  0  0  0  0  0  0  0  0  0
  -22.7656  -29.2759   21.2869 C   0  0  1  0  0  0  0  0  0  0  0  0
  -24.5207  -18.7424   21.7655 C   0  0  2  0  0  0  0  0  0  0  0  0
  -32.9971  -21.1640   20.0824 C   0  0  0  0  0  0  0  0  0  0  0  0
  -19.3015  -22.7522   18.9534 C   0  0  0  0  0  0  0  0  0  0  0  0
  -21.5413  -25.9796   24.2862 C   0  0  0  0  0  0  0  0  0  0  0  0
  -20.6661  -23.8662   23.2683 C   0  0  0  0  0  0  0  0  0  0  0  0
  -19.2506  -25.9202   23.2844 C   0  0  0  0  0  0  0  0  0  0  0  0
  -21.2659  -25.1827   16.7832 C   0  0  0  0  0  0  0  0  0  0  0  0
  -28.7914  -22.4802   20.4550 C   0  0  0  0  0  0  0  0  0  0  0  0
  -31.4997  -21.4509   20.0255 C   0  0  0  0  0  0  0  0  0  0  0  0
  -28.4194  -25.3779   20.2041 C   0  0  0  0  0  0  0  0  0  1  0  0
  -28.2253  -21.7301   19.2414 C   0  0  0  0  0  0  0  0  0  0  0  0
  -21.2396  -25.7978   21.7284 C   0  0  1  0  0  0  0  0  0  0  0  0
  -19.9589  -24.0779   18.6025 C   0  0  2  0  0  0  0  0  0  0  0  0
  -20.6977  -25.4034   23.1314 C   0  0  0  0  0  0  0  0  0  0  0  0
  -32.2577  -23.7016   19.6193 N   0  0  0  0  0  0  0  0  0  0  0  0
  -30.7727  -25.5975   19.7054 N   0  0  0  0  0  0  0  0  0  0  0  0
  -24.7241  -16.3300   21.2951 N   0  0  0  0  0  0  0  0  0  0  0  0
  -24.7446  -17.3102   22.2143 N   0  0  0  0  0  0  0  0  0  0  0  0
  -22.5896  -27.8222   21.2780 N   0  0  0  0  0  0  0  0  0  0  0  0
  -24.8253  -20.3942   19.9579 N   0  0  0  0  0  0  0  0  0  0  0  0
  -25.0273  -17.7230   24.5295 N   0  0  0  0  0  0  0  0  0  0  0  0
  -25.4828  -13.2414   24.2069 N   0  0  0  0  0  0  0  0  0  0  0  0
  -23.3975  -31.0108   22.8516 N   0  0  0  0  0  0  0  0  0  0  0  0
  -20.4447  -25.2885   20.6161 N   0  0  0  0  0  0  0  0  0  0  0  0
  -27.1120  -20.8794   19.5988 N   0  0  0  0  0  0  0  0  0  0  0  0
  -20.6003  -23.9446   17.2639 N   0  3  0  0  0  0  0  0  0  0  0  0
  -25.4744  -15.0120   25.6642 O   0  0  0  0  0  0  0  0  0  0  0  0
  -23.4598  -28.7713   23.4865 O   0  0  0  0  0  0  0  0  0  0  0  0
  -20.2877  -27.9677   21.6192 O   0  0  0  0  0  0  0  0  0  0  0  0
  -22.1588  -24.1015   19.6012 O   0  0  0  0  0  0  0  0  0  0  0  0
  -25.5191  -22.4920   19.2538 O   0  0  0  0  0  0  0  0  0  0  0  0
  -25.1600  -10.2262   19.5336 O   0  0  0  0  0  0  0  0  0  0  0  0
  -28.4467  -26.7101   19.6934 O   0  0  0  0  0  0  0  0  0  1  0  0
  -22.4668   -6.0557   21.9331 F   0  0  0  0  0  0  0  0  0  0  0  0
  -23.1384   -8.8906   18.2025 F   0  0  0  0  0  0  0  0  0  0  0  0
  1  2  1  0  0  0  0
  1  5  2  0  0  0  0
  2  6  2  0  0  0  0
  3  8  2  0  0  0  0
  3 16  1  0  0  0  0
  4  9  1  0  0  0  0
  4 16  2  0  0  0  0
  5 18  1  0  0  0  0
  6 20  1  0  0  0  0
  7 10  2  0  0  0  0
  7 19  1  0  0  0  0
  8 23  1  0  0  0  0
  9 23  2  0  0  0  0
 10 24  1  0  0  0  0
 11 12  2  0  0  0  0
 11 25  1  0  0  0  0
 12 26  1  0  0  0  0
 13 21  1  0  0  0  0
 13 24  2  0  0  0  0
 14 26  2  0  0  0  0
 14 27  1  0  0  0  0
 15 62  2  0  0  0  0
 15 63  1  0  0  0  0
 16 28  1  0  0  0  0
 17 28  1  0  0  0  0
 17 31  2  0  0  0  0
 17 32  1  0  0  0  0
 18 20  2  0  0  0  0
 18 37  1  0  0  0  0
 19 21  2  0  0  0  0
 19 38  1  0  0  0  0
 20 46  1  0  0  0  0
 21 39  1  0  0  0  0
 22 29  2  0  0  0  0
 22 30  1  0  0  0  0
 22 55  1  0  0  0  0
 23 79  1  0  0  0  0
 24 80  1  0  0  0  0
 25 27  2  0  0  0  0
 25 79  1  0  0  0  0
 26 81  1  0  0  0  0
 27 82  1  0  0  0  0
 28 64  2  0  0  0  0
 29 56  1  0  0  0  0
 29 62  1  0  0  0  0
 30 57  1  0  0  0  0
 30 63  2  0  0  0  0
 31 65  1  0  0  0  0
 31 68  1  0  0  0  0
 32 69  1  0  0  0  0
 32 74  2  0  0  0  0
 33 47  1  0  0  0  0
 33 70  1  0  0  0  0
 33 75  2  0  0  0  0
 34 59  1  0  0  0  0
 34 66  1  0  0  0  0
 34 76  2  0  0  0  0
 35 60  1  0  0  0  0
 35 71  1  0  0  0  0
 35 77  2  0  0  0  0
 36 67  1  0  0  0  0
 36 72  1  0  0  0  0
 36 78  2  0  0  0  0
 37 40  1  0  0  0  0
 38 47  1  0  0  0  0
 39 66  1  0  0  0  0
 40 42  1  0  0  0  0
 41 43  1  0  0  0  0
 41 44  1  0  0  0  0
 42 46  1  0  0  0  0
 43 48  1  0  0  0  0
 44 67  1  0  0  0  0
 45 48  1  0  0  0  0
 45 67  1  0  0  0  0
 46 70  1  0  0  0  0
 47 66  1  0  0  0  0
 48 65  1  0  0  0  0
 49 56  1  0  0  0  0
 50 60  1  0  0  0  0
 51 61  1  0  0  0  0
 52 61  1  0  0  0  0
 53 61  1  0  0  0  0
 54 73  1  0  0  0  0
 55 58  1  0  0  0  0
 57 80  1  0  0  0  0
 58 72  1  0  0  0  0
 59 61  1  0  0  0  0
 59 71  1  0  0  0  0
 60 73  1  0  0  0  0
 64 65  1  0  0  0  0
M  CHG  1  73   1
M  ISO  4  36 100  57 101  72 100  80 101
M  END
> <Batch ID>
0028

> <Smiles>
CCc1ncnc([101CH2:1][101O:1]c2ccc3c(c2)CN(C(=O)C(NC(=O)C(C)NC)C(C)(C)C)C(C(=O)NC2CCCc4ccccc42)C3)c1CC[100NH:0][100C:0](=O)N1CCCC(n2nc(-c3ccc(Oc4ccc(F)cc4F)cc3)c(C(N)=O)c2N)C1

> <Shape>
0.230

> <Color>
0.095

> <Negative vol penalty>
0.000

$$$$

  -OEChem-04052316333D

 83 91  0     1  0  0  0  0  0999 V2000
  -29.7920  -25.4517   16.5120 C   0  0  0  0  0  0  0  0  0  0  0  0
  -28.4107  -25.5272   16.6595 C   0  0  0  0  0  0  0  0  0  0  0  0
  -28.3334  -17.7480   22.0627 C   0  0  0  0  0  0  0  0  0  0  0  0
  -25.9260  -17.6031   22.2059 C   0  0  0  0  0  0  0  0  0  0  0  0
  -30.6249  -25.7794   17.5811 C   0  0  0  0  0  0  0  0  0  0  0  0
  -27.8615  -25.9293   17.8765 C   0  0  0  0  0  0  0  0  0  0  0  0
  -22.7587  -29.2122   18.7071 C   0  0  0  0  0  0  0  0  0  0  0  0
  -28.4043  -16.3697   21.8607 C   0  0  0  0  0  0  0  0  0  0  0  0
  -25.9969  -16.2248   22.0038 C   0  0  0  0  0  0  0  0  0  0  0  0
  -21.4506  -28.8486   19.0241 C   0  0  0  0  0  0  0  0  0  0  0  0
  -29.1948  -12.9410   20.9474 C   0  0  0  0  0  0  0  0  0  0  0  0
  -30.0404  -12.4758   19.9403 C   0  0  0  0  0  0  0  0  0  0  0  0
  -21.8979  -29.2925   21.3526 C   0  0  0  0  0  0  0  0  0  0  0  0
  -20.9465  -25.1239   25.2999 C   0  0  0  0  0  0  0  0  0  0  0  0
  -28.7826  -13.7319   18.3040 C   0  0  0  0  0  0  0  0  0  0  0  0
  -27.0942  -18.3647   22.2353 C   0  0  0  0  0  0  0  0  0  0  0  0
  -27.4706  -20.7999   21.5752 C   0  0  0  0  0  0  0  0  0  0  0  0
  -30.0858  -26.1950   18.8088 C   0  0  0  0  0  0  0  0  0  0  0  0
  -23.6509  -29.6089   19.7136 C   0  0  0  0  0  0  0  0  0  0  0  0
  -28.6879  -26.2615   18.9633 C   0  0  0  0  0  0  0  0  0  0  0  0
  -23.2160  -29.6631   21.0455 C   0  0  0  0  0  0  0  0  0  0  0  0
  -19.9196  -25.9202   24.7931 C   0  0  0  0  0  0  0  0  0  0  0  0
  -19.1289  -25.4537   23.7430 C   0  0  0  0  0  0  0  0  0  0  0  0
  -19.3652  -24.1909   23.1996 C   0  0  0  0  0  0  0  0  0  0  0  0
  -21.1829  -23.8611   24.7565 C   0  0  0  0  0  0  0  0  0  0  0  0
  -27.2361  -15.6081   21.8312 C   0  0  0  0  0  0  0  0  0  0  0  0
  -21.0209  -28.8859   20.3473 C   0  0  0  0  0  0  0  0  0  0  0  0
  -28.1431  -13.8015   20.6328 C   0  0  0  0  0  0  0  0  0  0  0  0
  -29.8343  -12.8713   18.6186 C   0  0  0  0  0  0  0  0  0  0  0  0
  -27.9370  -14.1970   19.3112 C   0  0  0  0  0  0  0  0  0  0  0  0
  -20.3922  -23.3946   23.7064 C   0  0  0  0  0  0  0  0  0  0  0  0
  -27.0203  -19.7884   22.4446 C   0  0  0  0  0  0  0  0  0  0  0  0
  -27.1725  -21.9712   22.2276 C   0  0  0  0  0  0  0  0  0  0  0  0
  -28.1018  -20.6905   20.2925 C   0  0  0  0  0  0  0  0  0  0  0  0
  -26.4139  -28.4997   20.8267 C   0  0  0  0  0  0  0  0  0  0  0  0
  -26.3484  -31.2204   22.5919 C   0  0  0  0  0  0  0  0  0  0  0  0
  -24.4945  -33.7117   24.0073 C   0  0  0  0  0  0  0  0  0  0  0  0
  -23.0917  -23.4274   26.3424 C   0  0  0  0  0  0  0  0  0  0  0  0
  -31.0252  -26.4935   19.9503 C   0  0  0  0  0  0  0  0  0  0  0  0
  -25.0507  -30.0237   19.3519 C   0  0  0  0  0  0  0  0  0  0  0  0
  -24.1287  -30.1013   22.1606 C   0  0  0  0  0  0  0  0  0  0  0  0
  -30.3714  -27.2706   21.0900 C   0  0  0  0  0  0  0  0  0  0  0  0
  -26.6238  -23.7694   26.6321 C   0  0  0  0  0  0  0  0  0  0  0  0
  -29.0217  -26.6572   21.4489 C   0  0  0  0  0  0  0  0  0  0  0  0
  -27.1672  -22.8842   25.5082 C   0  0  0  0  0  0  0  0  0  0  0  0
  -25.3786  -23.1650   27.2784 C   0  0  0  0  0  0  0  0  0  0  0  0
  -24.8483  -21.9218   25.2187 C   0  0  0  0  0  0  0  0  0  0  0  0
  -28.0548  -26.7172   20.2601 C   0  0  1  0  0  0  0  0  0  0  0  0
  -26.0258  -29.9186   20.5205 C   0  0  1  0  0  0  0  0  0  0  0  0
  -26.0648  -22.5208   24.4941 C   0  0  2  0  0  0  0  0  0  0  0  0
  -19.6879  -27.2690   25.3923 C   0  0  0  0  0  0  0  0  0  0  0  0
  -18.5062  -23.7093   22.0712 C   0  0  0  0  0  0  0  0  0  0  0  0
  -24.0152  -35.8521   25.2264 C   0  0  0  0  0  0  0  0  0  0  0  0
  -26.7457  -29.4773   25.0644 C   0  0  0  0  0  0  0  0  0  0  0  0
  -26.0176  -31.4202   26.4655 C   0  0  0  0  0  0  0  0  0  0  0  0
  -28.0705  -31.5984   25.0596 C   0  0  0  0  0  0  0  0  0  0  0  0
  -24.6102  -35.2955   21.5099 C   0  0  0  0  0  0  0  0  0  0  0  0
  -18.0215  -26.3190   23.1966 C   0  0  0  0  0  0  0  0  0  0  0  0
  -18.3604  -26.9818   21.8596 C   0  0  0  0  0  0  0  0  0  0  0  0
  -19.5266  -27.9592   21.9487 C   0  0  0  0  0  0  0  0  0  1  0  0
  -25.8009  -31.6036   23.9455 C   0  0  1  0  0  0  0  0  0  0  0  0
  -24.6660  -35.2200   24.0059 C   0  0  2  0  0  0  0  0  0  0  0  0
  -26.6418  -31.0147   25.1132 C   0  0  0  0  0  0  0  0  0  0  0  0
  -26.4776  -20.2745   23.5640 N   0  0  0  0  0  0  0  0  0  0  0  0
  -26.5850  -21.6044   23.4025 N   0  0  0  0  0  0  0  0  0  0  0  0
  -25.4899  -30.4911   21.7571 N   0  0  0  0  0  0  0  0  0  0  0  0
  -24.3764  -22.8503   26.2579 N   0  0  0  0  0  0  0  0  0  0  0  0
  -27.3583  -23.2689   21.9052 N   0  0  0  0  0  0  0  0  0  0  0  0
  -27.2915  -20.6624   19.1493 N   0  0  0  0  0  0  0  0  0  0  0  0
  -22.2342  -23.0810   25.2987 N   0  0  0  0  0  0  0  0  0  0  0  0
  -27.5116  -28.0510   20.1173 N   0  0  0  0  0  0  0  0  0  0  0  0
  -25.7081  -33.0596   23.9510 N   0  0  0  0  0  0  0  0  0  0  0  0
  -24.0481  -35.8104   22.7851 N   0  3  0  0  0  0  0  0  0  0  0  0
  -29.3467  -20.6033   20.1649 O   0  0  0  0  0  0  0  0  0  0  0  0
  -25.7664  -27.8598   21.6471 O   0  0  0  0  0  0  0  0  0  0  0  0
  -27.4929  -31.5620   22.2836 O   0  0  0  0  0  0  0  0  0  0  0  0
  -23.3941  -33.1665   24.0574 O   0  0  0  0  0  0  0  0  0  0  0  0
  -22.7842  -24.1956   27.2575 O   0  0  0  0  0  0  0  0  0  0  0  0
  -27.3050  -14.2631   21.6339 O   0  0  0  0  0  0  0  0  0  0  0  0
  -19.7448  -28.5309   20.6596 O   0  0  0  0  0  0  0  0  0  1  0  0
  -30.6473  -12.4257   17.6518 F   0  0  0  0  0  0  0  0  0  0  0  0
  -26.9290  -15.0245   19.0030 F   0  0  0  0  0  0  0  0  0  0  0  0
  -20.6839  -21.8242   23.0304 Cl  0  0  0  0  0  0  0  0  0  0  0  0
  1  2  1  0  0  0  0
  1  5  2  0  0  0  0
  2  6  2  0  0  0  0
  3  8  2  0  0  0  0
  3 16  1  0  0  0  0
  4  9  1  0  0  0  0
  4 16  2  0  0  0  0
  5 18  1  0  0  0  0
  6 20  1  0  0  0  0
  7 10  2  0  0  0  0
  7 19  1  0  0  0  0
  8 26  1  0  0  0  0
  9 26  2  0  0  0  0
 10 27  1  0  0  0  0
 11 12  2  0  0  0  0
 11 28  1  0  0  0  0
 12 29  1  0  0  0  0
 13 21  1  0  0  0  0
 13 27  2  0  0  0  0
 14 22  2  0  0  0  0
 14 25  1  0  0  0  0
 15 29  2  0  0  0  0
 15 30  1  0  0  0  0
 16 32  1  0  0  0  0
 17 32  1  0  0  0  0
 17 33  2  0  0  0  0
 17 34  1  0  0  0  0
 18 20  2  0  0  0  0
 18 39  1  0  0  0  0
 19 21  2  0  0  0  0
 19 40  1  0  0  0  0
 20 48  1  0  0  0  0
 21 41  1  0  0  0  0
 22 23  1  0  0  0  0
 22 51  1  0  0  0  0
 23 24  2  0  0  0  0
 23 58  1  0  0  0  0
 24 31  1  0  0  0  0
 24 52  1  0  0  0  0
 25 31  2  0  0  0  0
 25 70  1  0  0  0  0
 26 79  1  0  0  0  0
 27 80  1  0  0  0  0
 28 30  2  0  0  0  0
 28 79  1  0  0  0  0
 29 81  1  0  0  0  0
 30 82  1  0  0  0  0
 31 83  1  0  0  0  0
 32 64  2  0  0  0  0
 33 65  1  0  0  0  0
 33 68  1  0  0  0  0
 34 69  1  0  0  0  0
 34 74  2  0  0  0  0
 35 49  1  0  0  0  0
 35 71  1  0  0  0  0
 35 75  2  0  0  0  0
 36 61  1  0  0  0  0
 36 66  1  0  0  0  0
 36 76  2  0  0  0  0
 37 62  1  0  0  0  0
 37 72  1  0  0  0  0
 37 77  2  0  0  0  0
 38 67  1  0  0  0  0
 38 70  1  0  0  0  0
 38 78  2  0  0  0  0
 39 42  1  0  0  0  0
 40 49  1  0  0  0  0
 41 66  1  0  0  0  0
 42 44  1  0  0  0  0
 43 45  1  0  0  0  0
 43 46  1  0  0  0  0
 44 48  1  0  0  0  0
 45 50  1  0  0  0  0
 46 67  1  0  0  0  0
 47 50  1  0  0  0  0
 47 67  1  0  0  0  0
 48 71  1  0  0  0  0
 49 66  1  0  0  0  0
 50 65  1  0  0  0  0
 53 62  1  0  0  0  0
 54 63  1  0  0  0  0
 55 63  1  0  0  0  0
 56 63  1  0  0  0  0
 57 73  1  0  0  0  0
 58 59  1  0  0  0  0
 59 60  1  0  0  0  0
 60 80  1  0  0  0  0
 61 63  1  0  0  0  0
 61 72  1  0  0  0  0
 62 73  1  0  0  0  0
 64 65  1  0  0  0  0
M  CHG  1  73   1
M  ISO  4  38 100  60 101  70 100  80 101
M  END
> <Batch ID>
0028

> <Smiles>
CNC(C)C(=O)NC(C(=O)N1Cc2cc([101O:1][101CH2:1]CCc3c(C)cc([100NH:0][100C:0](=O)N4CCCC(n5nc(-c6ccc(Oc7ccc(F)cc7F)cc6)c(C(N)=O)c5N)C4)c(Cl)c3C)ccc2CC1C(=O)NC1CCCc2ccccc21)C(C)(C)C

> <Shape>
0.286

> <Color>
0.080

> <Negative vol penalty>
0.000

$$$$

  -OEChem-04052316333D

 88 96  0     1  0  0  0  0  0999 V2000
  -29.1956  -23.5963   18.6958 C   0  0  0  0  0  0  0  0  0  0  0  0
  -27.8948  -24.0513   18.5052 C   0  0  0  0  0  0  0  0  0  0  0  0
  -24.2522  -13.3772   19.6237 C   0  0  0  0  0  0  0  0  0  0  0  0
  -25.6462  -13.3547   21.5968 C   0  0  0  0  0  0  0  0  0  0  0  0
  -29.8795  -23.9147   19.8683 C   0  0  0  0  0  0  0  0  0  0  0  0
  -27.2767  -24.8241   19.4877 C   0  0  0  0  0  0  0  0  0  0  0  0
  -23.3027  -29.4008   18.6127 C   0  0  0  0  0  0  0  0  0  0  0  0
  -24.7971  -12.1568   19.2247 C   0  0  0  0  0  0  0  0  0  0  0  0
  -26.1911  -12.1342   21.1978 C   0  0  0  0  0  0  0  0  0  0  0  0
  -21.9107  -29.4577   18.6673 C   0  0  0  0  0  0  0  0  0  0  0  0
  -24.4205   -8.8877   20.0020 C   0  0  0  0  0  0  0  0  0  0  0  0
  -23.5432   -7.9052   19.5431 C   0  0  0  0  0  0  0  0  0  0  0  0
  -22.0383  -30.2461   20.9436 C   0  0  0  0  0  0  0  0  0  0  0  0
  -17.9388  -28.7669   22.2826 C   0  0  0  0  0  0  0  0  0  0  0  0
  -24.6802   -7.8856   17.4114 C   0  0  0  0  0  0  0  0  0  0  0  0
  -24.6768  -13.9762   20.8097 C   0  0  0  0  0  0  0  0  0  0  0  0
  -22.9779  -15.4384   22.0277 C   0  0  0  0  0  0  0  0  0  0  0  0
  -29.2730  -24.6999   20.8614 C   0  0  0  0  0  0  0  0  0  0  0  0
  -24.0739  -29.7563   19.7286 C   0  0  0  0  0  0  0  0  0  0  0  0
  -27.9527  -25.1522   20.6752 C   0  0  0  0  0  0  0  0  0  0  0  0
  -23.4399  -30.1953   20.8997 C   0  0  0  0  0  0  0  0  0  0  0  0
  -18.1427  -27.9934   21.1400 C   0  0  0  0  0  0  0  0  0  0  0  0
  -18.1562  -28.2162   23.5457 C   0  0  0  0  0  0  0  0  0  0  0  0
  -18.5639  -26.6691   21.2603 C   0  0  0  0  0  0  0  0  0  0  0  0
  -18.7812  -26.1183   22.5233 C   0  0  0  0  0  0  0  0  0  0  0  0
  -25.7665  -11.5352   20.0118 C   0  0  0  0  0  0  0  0  0  0  0  0
  -21.2782  -29.8776   19.8338 C   0  0  0  0  0  0  0  0  0  0  0  0
  -25.4276   -9.3693   19.1656 C   0  0  0  0  0  0  0  0  0  0  0  0
  -23.6731   -7.4041   18.2478 C   0  0  0  0  0  0  0  0  0  0  0  0
  -25.5574   -8.8682   17.8703 C   0  0  0  0  0  0  0  0  0  0  0  0
  -18.5773  -26.8919   23.6660 C   0  0  0  0  0  0  0  0  0  0  0  0
  -24.1147  -15.2372   21.2220 C   0  0  0  0  0  0  0  0  0  0  0  0
  -22.8634  -16.8036   22.1252 C   0  0  0  0  0  0  0  0  0  0  0  0
  -22.1037  -14.4771   22.6339 C   0  0  0  0  0  0  0  0  0  0  0  0
  -26.1386  -28.2338   21.6055 C   0  0  0  0  0  0  0  0  0  0  0  0
  -26.5566  -31.1860   22.8830 C   0  0  0  0  0  0  0  0  0  0  0  0
  -25.2924  -34.3061   23.4428 C   0  0  0  0  0  0  0  0  0  0  0  0
  -25.6209  -21.6759   23.1125 C   0  0  0  0  0  0  0  0  0  0  0  0
  -30.0351  -24.9786   22.1327 C   0  0  0  0  0  0  0  0  0  0  0  0
  -25.5751  -29.7150   19.6447 C   0  0  0  0  0  0  0  0  0  0  0  0
  -24.2229  -30.6072   22.1186 C   0  0  0  0  0  0  0  0  0  0  0  0
  -29.4432  -26.1161   22.9608 C   0  0  0  0  0  0  0  0  0  0  0  0
  -25.2100  -20.5092   19.6237 C   0  0  0  0  0  0  0  0  0  0  0  0
  -27.9311  -25.9566   23.0831 C   0  0  0  0  0  0  0  0  0  0  0  0
  -24.8651  -19.0319   19.8049 C   0  0  0  0  0  0  0  0  0  0  0  0
  -26.0667  -21.0365   20.7707 C   0  0  0  0  0  0  0  0  0  0  0  0
  -25.1308  -19.3326   22.2988 C   0  0  0  0  0  0  0  0  0  0  0  0
  -27.2572  -26.0136   21.7068 C   0  0  1  0  0  0  0  0  0  0  0  0
  -26.2471  -29.6091   21.0102 C   0  0  1  0  0  0  0  0  0  0  0  0
  -24.2294  -18.7821   21.1836 C   0  0  2  0  0  0  0  0  0  0  0  0
  -17.9246  -29.0828   24.7419 C   0  0  0  0  0  0  0  0  0  0  0  0
  -18.7825  -25.8440   20.0314 C   0  0  0  0  0  0  0  0  0  0  0  0
  -25.8507  -36.4886   24.5483 C   0  0  0  0  0  0  0  0  0  0  0  0
  -25.9682  -29.9519   25.6108 C   0  0  0  0  0  0  0  0  0  0  0  0
  -25.6018  -32.2635   26.4999 C   0  0  0  0  0  0  0  0  0  0  0  0
  -27.8358  -31.6151   25.5991 C   0  0  0  0  0  0  0  0  0  0  0  0
  -24.9052  -22.1544   25.4230 C   0  0  0  0  0  0  0  0  0  0  0  0
  -25.1391  -35.7769   20.8791 C   0  0  0  0  0  0  0  0  0  0  0  0
  -17.9001  -28.6135   19.7854 C   0  0  0  0  0  0  0  0  0  0  0  0
  -19.2343  -24.6950   22.6317 C   0  0  0  0  0  0  0  0  0  0  0  0
  -22.6233  -23.1648   23.4808 C   0  0  0  0  0  0  0  0  0  0  0  0
  -23.1658  -21.7597   23.7188 C   0  0  0  0  0  0  0  0  0  0  0  0
  -21.1355  -23.1614   23.1534 C   0  0  0  0  0  0  0  0  0  0  0  0
  -19.1975  -29.0024   19.0851 C   0  0  0  0  0  0  0  0  0  1  0  0
  -25.9098  -31.9689   24.0000 C   0  0  1  0  0  0  0  0  0  0  0  0
  -25.8971  -35.6861   23.2574 C   0  0  2  0  0  0  0  0  0  0  0  0
  -26.3138  -31.4403   25.4053 C   0  0  0  0  0  0  0  0  0  0  0  0
  -24.6818  -16.3829   20.8351 N   0  0  0  0  0  0  0  0  0  0  0  0
  -23.8981  -17.3172   21.4000 N   0  0  0  0  0  0  0  0  0  0  0  0
  -25.6880  -30.5435   21.9893 N   0  0  0  0  0  0  0  0  0  0  0  0
  -25.4604  -20.7475   22.0707 N   0  0  0  0  0  0  0  0  0  0  0  0
  -21.9797  -17.6029   22.7597 N   0  0  0  0  0  0  0  0  0  0  0  0
  -22.3657  -13.1151   22.4323 N   0  0  0  0  0  0  0  0  0  0  0  0
  -27.1655  -27.3822   21.2453 N   0  0  0  0  0  0  0  0  0  0  0  0
  -26.2497  -33.3684   23.7676 N   0  0  0  0  0  0  0  0  0  0  0  0
  -24.5873  -21.7619   24.0574 N   0  0  0  0  0  0  0  0  0  0  0  0
  -25.1545  -36.4404   22.2083 N   0  3  0  0  0  0  0  0  0  0  0  0
  -20.6728  -24.5644   22.9836 N   0  3  0  0  0  0  0  0  0  0  0  0
  -21.1098  -14.8161   23.3200 O   0  0  0  0  0  0  0  0  0  0  0  0
  -25.1939  -27.9655   22.3385 O   0  0  0  0  0  0  0  0  0  0  0  0
  -27.7870  -31.1518   22.8020 O   0  0  0  0  0  0  0  0  0  0  0  0
  -24.0904  -34.0830   23.3161 O   0  0  0  0  0  0  0  0  0  0  0  0
  -26.6263  -22.3939   23.1880 O   0  0  0  0  0  0  0  0  0  0  0  0
  -26.2983  -10.3442   19.6229 O   0  0  0  0  0  0  0  0  0  0  0  0
  -19.9197  -29.9335   19.8900 O   0  0  0  0  0  0  0  0  0  1  0  0
  -22.8315   -6.4595   17.8078 F   0  0  0  0  0  0  0  0  0  0  0  0
  -26.5237   -9.3261   17.0626 F   0  0  0  0  0  0  0  0  0  0  0  0
  -18.8454  -26.2110   25.2363 Cl  0  0  0  0  0  0  0  0  0  0  0  0
  1  2  1  0  0  0  0
  1  5  2  0  0  0  0
  2  6  2  0  0  0  0
  3  8  2  0  0  0  0
  3 16  1  0  0  0  0
  4  9  1  0  0  0  0
  4 16  2  0  0  0  0
  5 18  1  0  0  0  0
  6 20  1  0  0  0  0
  7 10  2  0  0  0  0
  7 19  1  0  0  0  0
  8 26  1  0  0  0  0
  9 26  2  0  0  0  0
 10 27  1  0  0  0  0
 11 12  2  0  0  0  0
 11 28  1  0  0  0  0
 12 29  1  0  0  0  0
 13 21  1  0  0  0  0
 13 27  2  0  0  0  0
 14 22  1  0  0  0  0
 14 23  2  0  0  0  0
 15 29  2  0  0  0  0
 15 30  1  0  0  0  0
 16 32  1  0  0  0  0
 17 32  1  0  0  0  0
 17 33  2  0  0  0  0
 17 34  1  0  0  0  0
 18 20  2  0  0  0  0
 18 39  1  0  0  0  0
 19 21  2  0  0  0  0
 19 40  1  0  0  0  0
 20 48  1  0  0  0  0
 21 41  1  0  0  0  0
 22 24  2  0  0  0  0
 22 59  1  0  0  0  0
 23 31  1  0  0  0  0
 23 51  1  0  0  0  0
 24 25  1  0  0  0  0
 24 52  1  0  0  0  0
 25 31  2  0  0  0  0
 25 60  1  0  0  0  0
 26 84  1  0  0  0  0
 27 85  1  0  0  0  0
 28 30  2  0  0  0  0
 28 84  1  0  0  0  0
 29 86  1  0  0  0  0
 30 87  1  0  0  0  0
 31 88  1  0  0  0  0
 32 68  2  0  0  0  0
 33 69  1  0  0  0  0
 33 72  1  0  0  0  0
 34 73  1  0  0  0  0
 34 79  2  0  0  0  0
 35 49  1  0  0  0  0
 35 74  1  0  0  0  0
 35 80  2  0  0  0  0
 36 65  1  0  0  0  0
 36 70  1  0  0  0  0
 36 81  2  0  0  0  0
 37 66  1  0  0  0  0
 37 75  1  0  0  0  0
 37 82  2  0  0  0  0
 38 71  1  0  0  0  0
 38 76  1  0  0  0  0
 38 83  2  0  0  0  0
 39 42  1  0  0  0  0
 40 49  1  0  0  0  0
 41 70  1  0  0  0  0
 42 44  1  0  0  0  0
 43 45  1  0  0  0  0
 43 46  1  0  0  0  0
 44 48  1  0  0  0  0
 45 50  1  0  0  0  0
 46 71  1  0  0  0  0
 47 50  1  0  0  0  0
 47 71  1  0  0  0  0
 48 74  1  0  0  0  0
 49 70  1  0  0  0  0
 50 69  1  0  0  0  0
 53 66  1  0  0  0  0
 54 67  1  0  0  0  0
 55 67  1  0  0  0  0
 56 67  1  0  0  0  0
 57 76  1  0  0  0  0
 58 77  1  0  0  0  0
 59 64  1  0  0  0  0
 60 78  1  0  0  0  0
 61 62  1  0  0  0  0
 61 63  1  0  0  0  0
 62 76  1  0  0  0  0
 63 78  1  0  0  0  0
 64 85  1  0  0  0  0
 65 67  1  0  0  0  0
 65 75  1  0  0  0  0
 66 77  1  0  0  0  0
 68 69  1  0  0  0  0
M  CHG  2  77   1  78   1
M  ISO  4  38 100  64 101  76 100  85 101
M  END
> <Batch ID>
0028

> <Smiles>
CNC(C)C(=O)NC(C(=O)N1Cc2cc([101O:1][101CH2:1]Cc3cc(C)c(Cl)c(CNCCC[100N:0](C)[100C:0](=O)N4CCCC(n5nc(-c6ccc(Oc7ccc(F)cc7F)cc6)c(C(N)=O)c5N)C4)c3C)ccc2CC1C(=O)NC1CCCc2ccccc21)C(C)(C)C

> <Shape>
0.236

> <Color>
0.086

> <Negative vol penalty>
0.000

$$$$

  -OEChem-04052316333D

 80 88  0     1  0  0  0  0  0999 V2000
  -18.0883  -25.6004   22.8239 C   0  0  0  0  0  0  0  0  0  0  0  0
  -19.4353  -25.2529   22.8314 C   0  0  0  0  0  0  0  0  0  0  0  0
  -25.8197  -13.0154   19.4370 C   0  0  0  0  0  0  0  0  0  0  0  0
  -24.0455  -14.6528   19.5270 C   0  0  0  0  0  0  0  0  0  0  0  0
  -17.6973  -26.8614   22.3755 C   0  0  0  0  0  0  0  0  0  0  0  0
  -20.3922  -26.1659   22.3894 C   0  0  0  0  0  0  0  0  0  0  0  0
  -26.0731  -26.8860   24.5608 C   0  0  0  0  0  0  0  0  0  0  0  0
  -24.8749  -11.9898   19.4696 C   0  0  0  0  0  0  0  0  0  0  0  0
  -23.1007  -13.6273   19.5595 C   0  0  0  0  0  0  0  0  0  0  0  0
  -27.3118  -26.4231   24.1190 C   0  0  0  0  0  0  0  0  0  0  0  0
  -22.9568  -10.4433   21.7833 C   0  0  0  0  0  0  0  0  0  0  0  0
  -23.1971   -9.3686   22.6394 C   0  0  0  0  0  0  0  0  0  0  0  0
  -27.6789  -28.5153   22.9755 C   0  0  0  0  0  0  0  0  0  0  0  0
  -29.9156  -23.8372   21.5113 C   0  0  0  0  0  0  0  0  0  0  0  0
  -23.1858   -7.8617   20.7509 C   0  0  0  0  0  0  0  0  0  0  0  0
  -25.4051  -14.3469   19.4658 C   0  0  0  0  0  0  0  0  0  0  0  0
  -26.9082  -16.0414   18.2923 C   0  0  0  0  0  0  0  0  0  0  0  0
  -18.6507  -27.7937   21.9369 C   0  0  0  0  0  0  0  0  0  0  0  0
  -25.6225  -28.1650   24.2036 C   0  0  0  0  0  0  0  0  0  0  0  0
  -20.0135  -27.4400   21.9335 C   0  0  0  0  0  0  0  0  0  0  0  0
  -26.4352  -28.9929   23.4162 C   0  0  0  0  0  0  0  0  0  0  0  0
  -29.1747  -22.8766   20.7797 C   0  0  0  0  0  0  0  0  0  0  0  0
  -23.5154  -12.2957   19.5308 C   0  0  0  0  0  0  0  0  0  0  0  0
  -28.1137  -27.2367   23.3239 C   0  0  0  0  0  0  0  0  0  0  0  0
  -22.8309  -10.2272   20.4110 C   0  0  0  0  0  0  0  0  0  0  0  0
  -23.3116   -8.0778   22.1232 C   0  0  0  0  0  0  0  0  0  0  0  0
  -22.9454   -8.9364   19.8948 C   0  0  0  0  0  0  0  0  0  0  0  0
  -26.3806  -15.4068   19.4328 C   0  0  0  0  0  0  0  0  0  0  0  0
  -30.0375  -24.9553   20.7162 C   0  0  0  0  0  0  0  0  0  0  0  0
  -28.8665  -23.4369   19.5597 C   0  0  0  0  0  0  0  0  0  0  0  0
  -27.7888  -16.9693   18.7922 C   0  0  0  0  0  0  0  0  0  0  0  0
  -26.6273  -15.8126   16.9051 C   0  0  0  0  0  0  0  0  0  0  0  0
  -23.1491  -29.2929   22.5562 C   0  0  0  0  0  0  0  0  0  0  0  0
  -24.2962  -32.1609   23.5467 C   0  0  0  0  0  0  0  0  0  0  0  0
  -26.9591  -33.9965   24.6358 C   0  0  0  0  0  0  0  0  0  0  0  0
  -29.0995  -20.9752   22.4306 C   0  0  0  0  0  0  0  0  0  0  0  0
  -18.1760  -29.1274   21.4168 C   0  0  0  0  0  0  0  0  0  0  0  0
  -24.2955  -28.6596   24.7104 C   0  0  0  0  0  0  0  0  0  0  0  0
  -26.0064  -30.3818   23.0218 C   0  0  0  0  0  0  0  0  0  0  0  0
  -19.2847  -30.1720   21.3171 C   0  0  0  0  0  0  0  0  0  0  0  0
  -29.5930  -17.6083   23.4782 C   0  0  0  0  0  0  0  0  0  0  0  0
  -20.5232  -29.5745   20.6569 C   0  0  0  0  0  0  0  0  0  0  0  0
  -28.8447  -16.7876   22.4253 C   0  0  0  0  0  0  0  0  0  0  0  0
  -28.8685  -18.9142   23.7996 C   0  0  0  0  0  0  0  0  0  0  0  0
  -27.7961  -18.9267   21.5817 C   0  0  0  0  0  0  0  0  0  0  0  0
  -21.0833  -28.4119   21.4851 C   0  0  1  0  0  0  0  0  0  0  0  0
  -23.7124  -29.7838   23.8598 C   0  0  1  0  0  0  0  0  0  0  0  0
  -28.5211  -17.6326   21.1776 C   0  0  2  0  0  0  0  0  0  0  0  0
  -28.1134  -22.8798   18.4149 C   0  0  0  0  0  0  0  0  0  0  0  0
  -27.5969  -36.3226   25.3286 C   0  0  0  0  0  0  0  0  0  0  0  0
  -24.3017  -33.0280   20.6213 C   0  0  0  0  0  0  0  0  0  0  0  0
  -25.7978  -34.9310   21.2606 C   0  0  0  0  0  0  0  0  0  0  0  0
  -23.5027  -34.7728   22.2251 C   0  0  0  0  0  0  0  0  0  0  0  0
  -29.2944  -25.6252   18.4225 C   0  0  0  0  0  0  0  0  0  0  0  0
  -27.7210  -33.1032   27.3525 C   0  0  0  0  0  0  0  0  0  0  0  0
  -30.7256  -26.2697   20.9943 C   0  0  0  0  0  0  0  0  0  0  0  0
  -29.7918  -27.2879   21.6395 C   0  0  0  0  0  0  0  0  0  1  0  0
  -25.2882  -33.1609   23.0036 C   0  0  1  0  0  0  0  0  0  0  0  0
  -27.1098  -34.9608   25.7986 C   0  0  2  0  0  0  0  0  0  0  0  0
  -24.7301  -33.9463   21.7833 C   0  0  0  0  0  0  0  0  0  0  0  0
  -26.8842  -15.8906   20.5714 N   0  0  0  0  0  0  0  0  0  0  0  0
  -29.3962  -24.7005   19.5321 N   0  0  0  0  0  0  0  0  0  0  0  0
  -27.7375  -16.8390   20.1489 N   0  0  0  0  0  0  0  0  0  0  0  0
  -24.6978  -30.8176   23.5369 N   0  0  0  0  0  0  0  0  0  0  0  0
  -28.5990  -19.6634   22.5704 N   0  0  0  0  0  0  0  0  0  0  0  0
  -28.5944  -17.8758   18.1992 N   0  0  0  0  0  0  0  0  0  0  0  0
  -25.6962  -14.8212   16.5666 N   0  0  0  0  0  0  0  0  0  0  0  0
  -28.8079  -21.5762   21.2065 N   0  0  0  0  0  0  0  0  0  0  0  0
  -21.8223  -28.9127   22.6242 N   0  0  0  0  0  0  0  0  0  0  0  0
  -25.6765  -34.0033   24.1296 N   0  0  0  0  0  0  0  0  0  0  0  0
  -28.0872  -34.4284   26.7896 N   0  3  0  0  0  0  0  0  0  0  0  0
  -27.1976  -16.4566   15.9921 O   0  0  0  0  0  0  0  0  0  0  0  0
  -23.8648  -29.2627   21.5619 O   0  0  0  0  0  0  0  0  0  0  0  0
  -23.2080  -32.5578   23.9709 O   0  0  0  0  0  0  0  0  0  0  0  0
  -27.8873  -33.3090   24.2160 O   0  0  0  0  0  0  0  0  0  0  0  0
  -29.7628  -21.5149   23.3198 O   0  0  0  0  0  0  0  0  0  0  0  0
  -22.5931  -11.2952   19.5622 O   0  0  0  0  0  0  0  0  0  0  0  0
  -29.3229  -26.7872   22.8908 O   0  0  0  0  0  0  0  0  0  1  0  0
  -23.5439   -7.0461   22.9453 F   0  0  0  0  0  0  0  0  0  0  0  0
  -22.8266   -8.7227   18.5772 F   0  0  0  0  0  0  0  0  0  0  0  0
  1  2  1  0  0  0  0
  1  5  2  0  0  0  0
  2  6  2  0  0  0  0
  3  8  2  0  0  0  0
  3 16  1  0  0  0  0
  4  9  1  0  0  0  0
  4 16  2  0  0  0  0
  5 18  1  0  0  0  0
  6 20  1  0  0  0  0
  7 10  2  0  0  0  0
  7 19  1  0  0  0  0
  8 23  1  0  0  0  0
  9 23  2  0  0  0  0
 10 24  1  0  0  0  0
 11 12  2  0  0  0  0
 11 25  1  0  0  0  0
 12 26  1  0  0  0  0
 13 21  1  0  0  0  0
 13 24  2  0  0  0  0
 14 22  1  0  0  0  0
 14 29  2  0  0  0  0
 15 26  2  0  0  0  0
 15 27  1  0  0  0  0
 16 28  1  0  0  0  0
 17 28  1  0  0  0  0
 17 31  2  0  0  0  0
 17 32  1  0  0  0  0
 18 20  2  0  0  0  0
 18 37  1  0  0  0  0
 19 21  2  0  0  0  0
 19 38  1  0  0  0  0
 20 46  1  0  0  0  0
 21 39  1  0  0  0  0
 22 30  2  0  0  0  0
 22 68  1  0  0  0  0
 23 77  1  0  0  0  0
 24 78  1  0  0  0  0
 25 27  2  0  0  0  0
 25 77  1  0  0  0  0
 26 79  1  0  0  0  0
 27 80  1  0  0  0  0
 28 61  2  0  0  0  0
 29 56  1  0  0  0  0
 29 62  1  0  0  0  0
 30 49  1  0  0  0  0
 30 62  1  0  0  0  0
 31 63  1  0  0  0  0
 31 66  1  0  0  0  0
 32 67  1  0  0  0  0
 32 72  2  0  0  0  0
 33 47  1  0  0  0  0
 33 69  1  0  0  0  0
 33 73  2  0  0  0  0
 34 58  1  0  0  0  0
 34 64  1  0  0  0  0
 34 74  2  0  0  0  0
 35 59  1  0  0  0  0
 35 70  1  0  0  0  0
 35 75  2  0  0  0  0
 36 65  1  0  0  0  0
 36 68  1  0  0  0  0
 36 76  2  0  0  0  0
 37 40  1  0  0  0  0
 38 47  1  0  0  0  0
 39 64  1  0  0  0  0
 40 42  1  0  0  0  0
 41 43  1  0  0  0  0
 41 44  1  0  0  0  0
 42 46  1  0  0  0  0
 43 48  1  0  0  0  0
 44 65  1  0  0  0  0
 45 48  1  0  0  0  0
 45 65  1  0  0  0  0
 46 69  1  0  0  0  0
 47 64  1  0  0  0  0
 48 63  1  0  0  0  0
 50 59  1  0  0  0  0
 51 60  1  0  0  0  0
 52 60  1  0  0  0  0
 53 60  1  0  0  0  0
 54 62  1  0  0  0  0
 55 71  1  0  0  0  0
 56 57  1  0  0  0  0
 57 78  1  0  0  0  0
 58 60  1  0  0  0  0
 58 70  1  0  0  0  0
 59 71  1  0  0  0  0
 61 63  1  0  0  0  0
M  CHG  1  71   1
M  ISO  4  36 100  57 101  68 100  78 101
M  END
> <Batch ID>
0028

> <Smiles>
CNC(C)C(=O)NC(C(=O)N1Cc2cc([101O:1][101CH2:1]Cc3cc([100NH:0][100C:0](=O)N4CCCC(n5nc(-c6ccc(Oc7ccc(F)cc7F)cc6)c(C(N)=O)c5N)C4)c(C)n3C)ccc2CC1C(=O)NC1CCCc2ccccc21)C(C)(C)C

> <Shape>
0.271

> <Color>
0.077

> <Negative vol penalty>
0.000

$$$$

  -OEChem-04052316333D

 86 94  0     1  0  0  0  0  0999 V2000
  -30.4563  -22.7263   22.7645 C   0  0  0  0  0  0  0  0  0  0  0  0
  -29.0690  -22.7940   22.6860 C   0  0  0  0  0  0  0  0  0  0  0  0
  -29.8255  -27.2565   19.3943 C   0  0  0  0  0  0  0  0  0  0  0  0
  -29.3418  -26.6582   21.6845 C   0  0  0  0  0  0  0  0  0  0  0  0
  -31.1517  -21.7901   22.0004 C   0  0  0  0  0  0  0  0  0  0  0  0
  -28.3763  -21.9261   21.8425 C   0  0  0  0  0  0  0  0  0  0  0  0
  -24.2924  -19.9112   24.0577 C   0  0  0  0  0  0  0  0  0  0  0  0
  -31.1676  -26.9330   19.5932 C   0  0  0  0  0  0  0  0  0  0  0  0
  -30.6839  -26.3346   21.8834 C   0  0  0  0  0  0  0  0  0  0  0  0
  -23.1570  -20.7149   24.1512 C   0  0  0  0  0  0  0  0  0  0  0  0
  -33.0610  -24.1351   19.7348 C   0  0  0  0  0  0  0  0  0  0  0  0
  -33.6978  -23.3777   18.7517 C   0  0  0  0  0  0  0  0  0  0  0  0
  -22.2134  -19.5944   22.2346 C   0  0  0  0  0  0  0  0  0  0  0  0
  -18.8486  -27.9819   21.6181 C   0  0  0  0  0  0  0  0  0  0  0  0
  -35.2914  -25.1612   18.4100 C   0  0  0  0  0  0  0  0  0  0  0  0
  -28.9126  -27.1191   20.4399 C   0  0  0  0  0  0  0  0  0  0  0  0
  -26.5006  -26.5957   19.7947 C   0  0  0  0  0  0  0  0  0  0  0  0
  -30.4665  -20.9038   21.1544 C   0  0  0  0  0  0  0  0  0  0  0  0
  -24.4017  -18.9489   23.0436 C   0  0  0  0  0  0  0  0  0  0  0  0
  -29.0633  -20.9780   21.0654 C   0  0  0  0  0  0  0  0  0  0  0  0
  -23.3501  -18.7780   22.1319 C   0  0  0  0  0  0  0  0  0  0  0  0
  -18.3985  -26.6626   21.6679 C   0  0  0  0  0  0  0  0  0  0  0  0
  -19.5805  -28.5097   22.6818 C   0  0  0  0  0  0  0  0  0  0  0  0
  -18.6800  -25.8712   22.7814 C   0  0  0  0  0  0  0  0  0  0  0  0
  -31.5969  -26.4720   20.8377 C   0  0  0  0  0  0  0  0  0  0  0  0
  -22.1186  -20.5586   23.2378 C   0  0  0  0  0  0  0  0  0  0  0  0
  -33.5393  -25.4056   20.0554 C   0  0  0  0  0  0  0  0  0  0  0  0
  -34.8130  -23.8907   18.0893 C   0  0  0  0  0  0  0  0  0  0  0  0
  -34.6545  -25.9186   19.3930 C   0  0  0  0  0  0  0  0  0  0  0  0
  -19.8620  -27.7183   23.7954 C   0  0  0  0  0  0  0  0  0  0  0  0
  -19.4118  -26.3990   23.8452 C   0  0  0  0  0  0  0  0  0  0  0  0
  -27.5261  -27.4537   20.2352 C   0  0  0  0  0  0  0  0  0  0  0  0
  -25.3790  -27.3879   19.7656 C   0  0  0  0  0  0  0  0  0  0  0  0
  -26.5569  -25.2068   19.4432 C   0  0  0  0  0  0  0  0  0  0  0  0
  -26.3836  -18.4763   20.6038 C   0  0  0  0  0  0  0  0  0  0  0  0
  -24.7074  -15.7178   20.2823 C   0  0  0  0  0  0  0  0  0  0  0  0
  -21.8090  -14.0064   20.8457 C   0  0  0  0  0  0  0  0  0  0  0  0
  -22.0851  -31.2473   22.0894 C   0  0  0  0  0  0  0  0  0  0  0  0
  -31.2650  -19.9406   20.3122 C   0  0  0  0  0  0  0  0  0  0  0  0
  -25.6214  -18.0716   22.9726 C   0  0  0  0  0  0  0  0  0  0  0  0
  -23.4096  -17.7455   21.0371 C   0  0  0  0  0  0  0  0  0  0  0  0
  -30.4285  -18.8065   19.7255 C   0  0  0  0  0  0  0  0  0  0  0  0
  -24.8773  -32.4019   20.2060 C   0  0  0  0  0  0  0  0  0  0  0  0
  -29.1409  -19.3526   19.1167 C   0  0  0  0  0  0  0  0  0  0  0  0
  -25.7331  -31.1485   20.0150 C   0  0  0  0  0  0  0  0  0  0  0  0
  -24.2046  -32.4225   21.5768 C   0  0  0  0  0  0  0  0  0  0  0  0
  -24.2762  -29.9626   21.7090 C   0  0  0  0  0  0  0  0  0  0  0  0
  -28.2745  -20.0371   20.1808 C   0  0  1  0  0  0  0  0  0  0  0  0
  -25.8481  -17.4744   21.5872 C   0  0  1  0  0  0  0  0  0  0  0  0
  -24.9303  -29.8695   20.3199 C   0  0  2  0  0  0  0  0  0  0  0  0
  -18.4566  -25.2145   19.6219 C   0  0  0  0  0  0  0  0  0  0  0  0
  -20.7226  -11.7823   20.4329 C   0  0  0  0  0  0  0  0  0  0  0  0
  -24.2273  -16.4954   17.3711 C   0  0  0  0  0  0  0  0  0  0  0  0
  -22.4014  -14.7844   17.2880 C   0  0  0  0  0  0  0  0  0  0  0  0
  -24.7520  -14.0769   17.7320 C   0  0  0  0  0  0  0  0  0  0  0  0
  -21.5321  -13.4734   23.7437 C   0  0  0  0  0  0  0  0  0  0  0  0
  -17.6173  -26.1238   20.5140 C   0  0  0  0  0  0  0  0  0  0  0  0
  -20.0406  -29.9287   22.5801 C   0  0  0  0  0  0  0  0  0  0  0  0
  -18.1840  -24.4555   22.8094 C   0  0  0  0  0  0  0  0  0  0  0  0
  -18.8110  -22.0430   22.6497 C   0  0  0  0  0  0  0  0  0  0  0  0
  -19.9839  -21.1282   22.3575 C   0  0  0  0  0  0  0  0  0  1  0  0
  -23.4657  -15.3027   19.5307 C   0  0  1  0  0  0  0  0  0  0  0  0
  -21.5513  -12.6160   21.3978 C   0  0  2  0  0  0  0  0  0  0  0  0
  -23.7110  -15.1857   17.9998 C   0  0  0  0  0  0  0  0  0  0  0  0
  -27.0943  -28.6958   20.4690 N   0  0  0  0  0  0  0  0  0  0  0  0
  -25.7850  -28.6241   20.1742 N   0  0  0  0  0  0  0  0  0  0  0  0
  -24.6257  -16.9163   21.0053 N   0  0  0  0  0  0  0  0  0  0  0  0
  -23.4586  -31.1822   21.8029 N   0  0  0  0  0  0  0  0  0  0  0  0
  -24.0949  -27.1406   19.4305 N   0  0  0  0  0  0  0  0  0  0  0  0
  -27.7894  -24.5451   19.5299 N   0  0  0  0  0  0  0  0  0  0  0  0
  -27.5828  -19.0496   20.9813 N   0  0  0  0  0  0  0  0  0  0  0  0
  -23.0022  -14.0696   20.1575 N   0  0  0  0  0  0  0  0  0  0  0  0
  -21.4526  -30.0255   22.2838 N   0  0  0  0  0  0  0  0  0  0  0  0
  -20.8201  -12.7005   22.6936 N   0  3  0  0  0  0  0  0  0  0  0  0
  -19.2596  -23.4560   22.5689 N   0  3  0  0  0  0  0  0  0  0  0  0
  -25.5477  -24.5755   19.0479 O   0  0  0  0  0  0  0  0  0  0  0  0
  -25.7559  -18.7108   19.5777 O   0  0  0  0  0  0  0  0  0  0  0  0
  -25.7104  -15.0013   20.2356 O   0  0  0  0  0  0  0  0  0  0  0  0
  -21.0281  -14.9419   21.0056 O   0  0  0  0  0  0  0  0  0  0  0  0
  -21.4670  -32.3149   22.1609 O   0  0  0  0  0  0  0  0  0  0  0  0
  -32.9064  -26.1560   21.0322 O   0  0  0  0  0  0  0  0  0  0  0  0
  -21.0095  -21.3422   23.3264 O   0  0  0  0  0  0  0  0  0  1  0  0
  -35.4254  -23.1627   17.1464 F   0  0  0  0  0  0  0  0  0  0  0  0
  -35.1193  -27.1381   19.6975 F   0  0  0  0  0  0  0  0  0  0  0  0
  -20.7745  -28.4060   25.1024 Cl  0  0  0  0  0  0  0  0  0  0  0  0
  -19.7476  -25.3905   25.2186 Cl  0  0  0  0  0  0  0  0  0  0  0  0
  1  2  1  0  0  0  0
  1  5  2  0  0  0  0
  2  6  2  0  0  0  0
  3  8  2  0  0  0  0
  3 16  1  0  0  0  0
  4  9  1  0  0  0  0
  4 16  2  0  0  0  0
  5 18  1  0  0  0  0
  6 20  1  0  0  0  0
  7 10  2  0  0  0  0
  7 19  1  0  0  0  0
  8 25  1  0  0  0  0
  9 25  2  0  0  0  0
 10 26  1  0  0  0  0
 11 12  2  0  0  0  0
 11 27  1  0  0  0  0
 12 28  1  0  0  0  0
 13 21  1  0  0  0  0
 13 26  2  0  0  0  0
 14 22  1  0  0  0  0
 14 23  2  0  0  0  0
 15 28  2  0  0  0  0
 15 29  1  0  0  0  0
 16 32  1  0  0  0  0
 17 32  1  0  0  0  0
 17 33  2  0  0  0  0
 17 34  1  0  0  0  0
 18 20  2  0  0  0  0
 18 39  1  0  0  0  0
 19 21  2  0  0  0  0
 19 40  1  0  0  0  0
 20 48  1  0  0  0  0
 21 41  1  0  0  0  0
 22 24  2  0  0  0  0
 22 57  1  0  0  0  0
 23 30  1  0  0  0  0
 23 58  1  0  0  0  0
 24 31  1  0  0  0  0
 24 59  1  0  0  0  0
 25 81  1  0  0  0  0
 26 82  1  0  0  0  0
 27 29  2  0  0  0  0
 27 81  1  0  0  0  0
 28 83  1  0  0  0  0
 29 84  1  0  0  0  0
 30 31  2  0  0  0  0
 30 85  1  0  0  0  0
 31 86  1  0  0  0  0
 32 65  2  0  0  0  0
 33 66  1  0  0  0  0
 33 69  1  0  0  0  0
 34 70  1  0  0  0  0
 34 76  2  0  0  0  0
 35 49  1  0  0  0  0
 35 71  1  0  0  0  0
 35 77  2  0  0  0  0
 36 62  1  0  0  0  0
 36 67  1  0  0  0  0
 36 78  2  0  0  0  0
 37 63  1  0  0  0  0
 37 72  1  0  0  0  0
 37 79  2  0  0  0  0
 38 68  1  0  0  0  0
 38 73  1  0  0  0  0
 38 80  2  0  0  0  0
 39 42  1  0  0  0  0
 40 49  1  0  0  0  0
 41 67  1  0  0  0  0
 42 44  1  0  0  0  0
 43 45  1  0  0  0  0
 43 46  1  0  0  0  0
 44 48  1  0  0  0  0
 45 50  1  0  0  0  0
 46 68  1  0  0  0  0
 47 50  1  0  0  0  0
 47 68  1  0  0  0  0
 48 71  1  0  0  0  0
 49 67  1  0  0  0  0
 50 66  1  0  0  0  0
 51 57  1  0  0  0  0
 52 63  1  0  0  0  0
 53 64  1  0  0  0  0
 54 64  1  0  0  0  0
 55 64  1  0  0  0  0
 56 74  1  0  0  0  0
 58 73  1  0  0  0  0
 59 75  1  0  0  0  0
 60 61  1  0  0  0  0
 60 75  1  0  0  0  0
 61 82  1  0  0  0  0
 62 64  1  0  0  0  0
 62 72  1  0  0  0  0
 63 74  1  0  0  0  0
 65 66  1  0  0  0  0
M  CHG  2  74   1  75   1
M  ISO  4  38 100  61 101  73 100  82 101
M  END
> <Batch ID>
0028

> <Smiles>
CCc1cc(C[100NH:0][100C:0](=O)N2CCCC(n3nc(-c4ccc(Oc5ccc(F)cc5F)cc4)c(C(N)=O)c3N)C2)c(Cl)c(Cl)c1CNC[101CH2:1][101O:1]c1ccc2c(c1)CN(C(=O)C(NC(=O)C(C)NC)C(C)(C)C)C(C(=O)NC1CCCc3ccccc31)C2

> <Shape>
0.217

> <Color>
0.065

> <Negative vol penalty>
0.000

$$$$

  -OEChem-04052316333D

 85 93  0     1  0  0  0  0  0999 V2000
  -26.4033  -17.7511   18.1910 C   0  0  0  0  0  0  0  0  0  0  0  0
  -25.5571  -18.8411   18.3678 C   0  0  0  0  0  0  0  0  0  0  0  0
  -23.4757  -13.9967   19.4333 C   0  0  0  0  0  0  0  0  0  0  0  0
  -24.6791  -14.4624   21.4759 C   0  0  0  0  0  0  0  0  0  0  0  0
  -27.6624  -17.7431   18.7899 C   0  0  0  0  0  0  0  0  0  0  0  0
  -25.9692  -19.9234   19.1445 C   0  0  0  0  0  0  0  0  0  0  0  0
  -24.6198  -25.8284   18.2410 C   0  0  0  0  0  0  0  0  0  0  0  0
  -24.4959  -13.1359   19.0285 C   0  0  0  0  0  0  0  0  0  0  0  0
  -25.6993  -13.6015   21.0711 C   0  0  0  0  0  0  0  0  0  0  0  0
  -23.6641  -26.6697   18.8089 C   0  0  0  0  0  0  0  0  0  0  0  0
  -28.7896  -11.8049   20.4142 C   0  0  0  0  0  0  0  0  0  0  0  0
  -30.1056  -12.2384   20.5747 C   0  0  0  0  0  0  0  0  0  0  0  0
  -25.3123  -27.4740   20.3761 C   0  0  0  0  0  0  0  0  0  0  0  0
  -29.6616  -14.1216   19.1277 C   0  0  0  0  0  0  0  0  0  0  0  0
  -23.5673  -14.6600   20.6570 C   0  0  0  0  0  0  0  0  0  0  0  0
  -21.3696  -15.2189   21.8253 C   0  0  0  0  0  0  0  0  0  0  0  0
  -28.0939  -18.8302   19.5663 C   0  0  0  0  0  0  0  0  0  0  0  0
  -25.9283  -25.7955   18.7442 C   0  0  0  0  0  0  0  0  0  0  0  0
  -27.2347  -19.9294   19.7553 C   0  0  0  0  0  0  0  0  0  0  0  0
  -26.2834  -26.6332   19.8111 C   0  0  0  0  0  0  0  0  0  0  0  0
  -20.1225  -27.6694   22.4376 C   0  0  0  0  0  0  0  0  0  0  0  0
  -20.3534  -25.3660   23.1287 C   0  0  0  0  0  0  0  0  0  0  0  0
  -18.1647  -26.2697   22.6494 C   0  0  0  0  0  0  0  0  0  0  0  0
  -25.6076  -12.9383   19.8473 C   0  0  0  0  0  0  0  0  0  0  0  0
  -24.0095  -27.4905   19.8785 C   0  0  0  0  0  0  0  0  0  0  0  0
  -27.9096  -12.5296   19.6104 C   0  0  0  0  0  0  0  0  0  0  0  0
  -30.5416  -13.3968   19.9314 C   0  0  0  0  0  0  0  0  0  0  0  0
  -28.3456  -13.6879   18.9672 C   0  0  0  0  0  0  0  0  0  0  0  0
  -20.9290  -26.6004   22.8278 C   0  0  0  0  0  0  0  0  0  0  0  0
  -18.7403  -27.5041   22.3485 C   0  0  0  0  0  0  0  0  0  0  0  0
  -18.9712  -25.2006   23.0395 C   0  0  0  0  0  0  0  0  0  0  0  0
  -22.5141  -15.5498   21.0754 C   0  0  0  0  0  0  0  0  0  0  0  0
  -20.6901  -16.4053   21.9562 C   0  0  0  0  0  0  0  0  0  0  0  0
  -20.9576  -13.9524   22.3562 C   0  0  0  0  0  0  0  0  0  0  0  0
  -27.7597  -23.5718   20.0877 C   0  0  0  0  0  0  0  0  0  0  0  0
  -30.0320  -25.8782   19.8889 C   0  0  0  0  0  0  0  0  0  0  0  0
  -30.7756  -29.2024   19.6806 C   0  0  0  0  0  0  0  0  0  0  0  0
  -21.7361  -21.9446   22.7526 C   0  0  0  0  0  0  0  0  0  0  0  0
  -29.4449  -18.7555   20.2325 C   0  0  0  0  0  0  0  0  0  0  0  0
  -26.9545  -24.9020   18.1031 C   0  0  0  0  0  0  0  0  0  0  0  0
  -27.6798  -26.6503   20.3751 C   0  0  0  0  0  0  0  0  0  0  0  0
  -29.9530  -20.1055   20.7323 C   0  0  0  0  0  0  0  0  0  0  0  0
  -20.6865  -20.7073   19.5177 C   0  0  0  0  0  0  0  0  0  0  0  0
  -28.8517  -20.8449   21.4854 C   0  0  0  0  0  0  0  0  0  0  0  0
  -20.9425  -19.2067   19.6683 C   0  0  0  0  0  0  0  0  0  0  0  0
  -21.7663  -21.5256   20.2196 C   0  0  0  0  0  0  0  0  0  0  0  0
  -22.2036  -19.6986   21.8148 C   0  0  0  0  0  0  0  0  0  0  0  0
  -27.6554  -21.1332   20.5703 C   0  0  1  0  0  0  0  0  0  0  0  0
  -28.1223  -24.5737   19.0282 C   0  0  1  0  0  0  0  0  0  0  0  0
  -21.1339  -18.8164   21.1459 C   0  0  2  0  0  0  0  0  0  0  0  0
  -16.6794  -26.0920   22.5533 C   0  0  0  0  0  0  0  0  0  0  0  0
  -32.7220  -30.7826   19.5718 C   0  0  0  0  0  0  0  0  0  0  0  0
  -30.5179  -25.4814   22.8750 C   0  0  0  0  0  0  0  0  0  0  0  0
  -31.7348  -27.6693   22.8967 C   0  0  0  0  0  0  0  0  0  0  0  0
  -32.5927  -25.7807   21.5111 C   0  0  0  0  0  0  0  0  0  0  0  0
  -29.9425  -30.2299   17.0332 C   0  0  0  0  0  0  0  0  0  0  0  0
  -20.7856  -28.9863   22.1216 C   0  0  0  0  0  0  0  0  0  0  0  0
  -21.2541  -24.2466   23.5435 C   0  0  0  0  0  0  0  0  0  0  0  0
  -20.8907  -29.2790   20.6233 C   0  0  0  0  0  0  0  0  0  0  0  0
  -21.7670  -28.2824   19.8734 C   0  0  0  0  0  0  0  0  0  1  0  0
  -30.4992  -26.9988   20.7861 C   0  0  1  0  0  0  0  0  0  0  0  0
  -31.7182  -29.9686   18.7702 C   0  0  2  0  0  0  0  0  0  0  0  0
  -31.3093  -26.4811   22.0081 C   0  0  0  0  0  0  0  0  0  0  0  0
  -22.5623  -16.8449   20.7524 N   0  0  0  0  0  0  0  0  0  0  0  0
  -21.4395  -17.3383   21.3019 N   0  0  0  0  0  0  0  0  0  0  0  0
  -28.6459  -25.7543   19.7183 N   0  0  0  0  0  0  0  0  0  0  0  0
  -21.8850  -21.1179   21.6267 N   0  0  0  0  0  0  0  0  0  0  0  0
  -19.5305  -16.7311   22.5659 N   0  0  0  0  0  0  0  0  0  0  0  0
  -21.7733  -12.8356   22.1294 N   0  0  0  0  0  0  0  0  0  0  0  0
  -27.9409  -22.2567   19.7040 N   0  0  0  0  0  0  0  0  0  0  0  0
  -31.2333  -27.9263   19.9322 N   0  0  0  0  0  0  0  0  0  0  0  0
  -21.4419  -23.2765   22.4878 N   0  0  0  0  0  0  0  0  0  0  0  0
  -30.9507  -30.8991   17.8950 N   0  3  0  0  0  0  0  0  0  0  0  0
  -19.8892  -13.8120   22.9984 O   0  0  0  0  0  0  0  0  0  0  0  0
  -27.3474  -23.9630   21.1733 O   0  0  0  0  0  0  0  0  0  0  0  0
  -30.8665  -25.1444   19.3533 O   0  0  0  0  0  0  0  0  0  0  0  0
  -29.7389  -29.6887   20.1272 O   0  0  0  0  0  0  0  0  0  0  0  0
  -21.8514  -21.5255   23.9094 O   0  0  0  0  0  0  0  0  0  0  0  0
  -26.6032  -12.0982   19.4528 O   0  0  0  0  0  0  0  0  0  0  0  0
  -23.0785  -28.3122   20.4352 O   0  0  0  0  0  0  0  0  0  1  0  0
  -31.8049  -13.8139   20.0868 F   0  0  0  0  0  0  0  0  0  0  0  0
  -27.5044  -14.3890   18.1947 F   0  0  0  0  0  0  0  0  0  0  0  0
  -22.2585  -26.7593   22.9135 F   0  0  0  0  0  0  0  0  0  0  0  0
  -17.7440  -28.8368   21.8637 Cl  0  0  0  0  0  0  0  0  0  0  0  0
  -18.2627  -23.6640   23.4146 Cl  0  0  0  0  0  0  0  0  0  0  0  0
  1  2  1  0  0  0  0
  1  5  2  0  0  0  0
  2  6  2  0  0  0  0
  3  8  2  0  0  0  0
  3 15  1  0  0  0  0
  4  9  1  0  0  0  0
  4 15  2  0  0  0  0
  5 17  1  0  0  0  0
  6 19  1  0  0  0  0
  7 10  2  0  0  0  0
  7 18  1  0  0  0  0
  8 24  1  0  0  0  0
  9 24  2  0  0  0  0
 10 25  1  0  0  0  0
 11 12  2  0  0  0  0
 11 26  1  0  0  0  0
 12 27  1  0  0  0  0
 13 20  1  0  0  0  0
 13 25  2  0  0  0  0
 14 27  2  0  0  0  0
 14 28  1  0  0  0  0
 15 32  1  0  0  0  0
 16 32  1  0  0  0  0
 16 33  2  0  0  0  0
 16 34  1  0  0  0  0
 17 19  2  0  0  0  0
 17 39  1  0  0  0  0
 18 20  2  0  0  0  0
 18 40  1  0  0  0  0
 19 48  1  0  0  0  0
 20 41  1  0  0  0  0
 21 29  1  0  0  0  0
 21 30  2  0  0  0  0
 21 57  1  0  0  0  0
 22 29  2  0  0  0  0
 22 31  1  0  0  0  0
 22 58  1  0  0  0  0
 23 30  1  0  0  0  0
 23 31  2  0  0  0  0
 23 51  1  0  0  0  0
 24 79  1  0  0  0  0
 25 80  1  0  0  0  0
 26 28  2  0  0  0  0
 26 79  1  0  0  0  0
 27 81  1  0  0  0  0
 28 82  1  0  0  0  0
 29 83  1  0  0  0  0
 30 84  1  0  0  0  0
 31 85  1  0  0  0  0
 32 64  2  0  0  0  0
 33 65  1  0  0  0  0
 33 68  1  0  0  0  0
 34 69  1  0  0  0  0
 34 74  2  0  0  0  0
 35 49  1  0  0  0  0
 35 70  1  0  0  0  0
 35 75  2  0  0  0  0
 36 61  1  0  0  0  0
 36 66  1  0  0  0  0
 36 76  2  0  0  0  0
 37 62  1  0  0  0  0
 37 71  1  0  0  0  0
 37 77  2  0  0  0  0
 38 67  1  0  0  0  0
 38 72  1  0  0  0  0
 38 78  2  0  0  0  0
 39 42  1  0  0  0  0
 40 49  1  0  0  0  0
 41 66  1  0  0  0  0
 42 44  1  0  0  0  0
 43 45  1  0  0  0  0
 43 46  1  0  0  0  0
 44 48  1  0  0  0  0
 45 50  1  0  0  0  0
 46 67  1  0  0  0  0
 47 50  1  0  0  0  0
 47 67  1  0  0  0  0
 48 70  1  0  0  0  0
 49 66  1  0  0  0  0
 50 65  1  0  0  0  0
 52 62  1  0  0  0  0
 53 63  1  0  0  0  0
 54 63  1  0  0  0  0
 55 63  1  0  0  0  0
 56 73  1  0  0  0  0
 57 59  1  0  0  0  0
 58 72  1  0  0  0  0
 59 60  1  0  0  0  0
 60 80  1  0  0  0  0
 61 63  1  0  0  0  0
 61 71  1  0  0  0  0
 62 73  1  0  0  0  0
 64 65  1  0  0  0  0
M  CHG  1  73   1
M  ISO  4  38 100  60 101  72 100  80 101
M  END
> <Batch ID>
0028

> <Smiles>
CNC(C)C(=O)NC(C(=O)N1Cc2cc([101O:1][101CH2:1]CCc3c(F)c(C[100NH:0][100C:0](=O)N4CCCC(n5nc(-c6ccc(Oc7ccc(F)cc7F)cc6)c(C(N)=O)c5N)C4)c(Cl)c(C)c3Cl)ccc2CC1C(=O)NC1CCCc2ccccc21)C(C)(C)C

> <Shape>
0.242

> <Color>
0.065

> <Negative vol penalty>
0.000

$$$$

  -OEChem-04052316333D

 83 91  0     1  0  0  0  0  0999 V2000
  -28.5910  -38.0188   22.3107 C   0  0  0  0  0  0  0  0  0  0  0  0
  -28.6340  -36.6982   21.8753 C   0  0  0  0  0  0  0  0  0  0  0  0
  -24.8076   -8.6352   21.3282 C   0  0  0  0  0  0  0  0  0  0  0  0
  -23.2504   -9.7623   19.8648 C   0  0  0  0  0  0  0  0  0  0  0  0
  -27.9089  -38.3434   23.4826 C   0  0  0  0  0  0  0  0  0  0  0  0
  -27.9959  -35.7012   22.6122 C   0  0  0  0  0  0  0  0  0  0  0  0
  -25.1975  -30.7176   20.4124 C   0  0  0  0  0  0  0  0  0  0  0  0
  -23.7963   -7.7644   21.7338 C   0  0  0  0  0  0  0  0  0  0  0  0
  -22.2390   -8.8914   20.2703 C   0  0  0  0  0  0  0  0  0  0  0  0
  -25.6102  -29.3928   20.2773 C   0  0  0  0  0  0  0  0  0  0  0  0
  -22.2451   -5.0134   20.5260 C   0  0  0  0  0  0  0  0  0  0  0  0
  -22.5492   -3.6538   20.5946 C   0  0  0  0  0  0  0  0  0  0  0  0
  -24.5353  -28.8511   22.3678 C   0  0  0  0  0  0  0  0  0  0  0  0
  -24.4148  -19.1283   20.5878 C   0  0  0  0  0  0  0  0  0  0  0  0
  -22.0173   -3.6538   22.9514 C   0  0  0  0  0  0  0  0  0  0  0  0
  -22.5607  -18.8611   18.6036 C   0  0  0  0  0  0  0  0  0  0  0  0
  -24.5347   -9.6341   20.3937 C   0  0  0  0  0  0  0  0  0  0  0  0
  -26.4674  -10.3625   18.8965 C   0  0  0  0  0  0  0  0  0  0  0  0
  -27.2539  -37.3512   24.2291 C   0  0  0  0  0  0  0  0  0  0  0  0
  -24.4586  -31.1221   21.5335 C   0  0  0  0  0  0  0  0  0  0  0  0
  -27.3055  -36.0125   23.7959 C   0  0  0  0  0  0  0  0  0  0  0  0
  -24.1122  -30.1810   22.5135 C   0  0  0  0  0  0  0  0  0  0  0  0
  -24.4334  -17.9930   19.7851 C   0  0  0  0  0  0  0  0  0  0  0  0
  -22.5120   -7.8925   21.2048 C   0  0  0  0  0  0  0  0  0  0  0  0
  -25.2816  -28.4599   21.2565 C   0  0  0  0  0  0  0  0  0  0  0  0
  -21.8272   -5.6932   21.6701 C   0  0  0  0  0  0  0  0  0  0  0  0
  -22.4353   -2.9740   21.8073 C   0  0  0  0  0  0  0  0  0  0  0  0
  -21.7133   -5.0134   22.8828 C   0  0  0  0  0  0  0  0  0  0  0  0
  -23.4922  -17.8492   18.7719 C   0  0  0  0  0  0  0  0  0  0  0  0
  -25.5788  -10.5343   19.9748 C   0  0  0  0  0  0  0  0  0  0  0  0
  -23.4421  -20.0830   20.3381 C   0  0  0  0  0  0  0  0  0  0  0  0
  -27.2572  -11.4860   18.9200 C   0  0  0  0  0  0  0  0  0  0  0  0
  -26.5698   -9.2838   17.9575 C   0  0  0  0  0  0  0  0  0  0  0  0
  -24.9301  -33.1844   23.9059 C   0  0  0  0  0  0  0  0  0  0  0  0
  -21.8715  -32.4140   24.6633 C   0  0  0  0  0  0  0  0  0  0  0  0
  -19.3218  -30.1534   24.4754 C   0  0  0  0  0  0  0  0  0  0  0  0
  -26.4162  -17.0241   21.0001 C   0  0  0  0  0  0  0  0  0  0  0  0
  -26.5694  -37.7432   25.5145 C   0  0  0  0  0  0  0  0  0  0  0  0
  -23.9980  -32.5492   21.6512 C   0  0  0  0  0  0  0  0  0  0  0  0
  -23.3033  -30.5600   23.7261 C   0  0  0  0  0  0  0  0  0  0  0  0
  -25.6028  -36.6838   26.0375 C   0  0  0  0  0  0  0  0  0  0  0  0
  -29.0089  -14.7696   21.9339 C   0  0  0  0  0  0  0  0  0  0  0  0
  -26.2491  -35.3028   25.9927 C   0  0  0  0  0  0  0  0  0  0  0  0
  -28.5072  -13.4130   21.4339 C   0  0  0  0  0  0  0  0  0  0  0  0
  -27.8678  -15.6362   22.4635 C   0  0  0  0  0  0  0  0  0  0  0  0
  -26.2407  -14.4583   21.0373 C   0  0  0  0  0  0  0  0  0  0  0  0
  -26.6047  -34.9065   24.5547 C   0  0  1  0  0  0  0  0  0  0  0  0
  -23.6900  -32.9611   23.0874 C   0  0  1  0  0  0  0  0  0  0  0  0
  -27.3454  -13.5754   20.4342 C   0  0  2  0  0  0  0  0  0  0  0  0
  -16.9549  -29.7869   25.2243 C   0  0  0  0  0  0  0  0  0  0  0  0
  -22.8645  -31.7591   27.4731 C   0  0  0  0  0  0  0  0  0  0  0  0
  -20.7198  -30.5296   27.8692 C   0  0  0  0  0  0  0  0  0  0  0  0
  -20.6824  -32.9785   27.3956 C   0  0  0  0  0  0  0  0  0  0  0  0
  -18.3388  -30.0129   21.6874 C   0  0  0  0  0  0  0  0  0  0  0  0
  -23.3937  -21.3280   21.1877 C   0  0  0  0  0  0  0  0  0  0  0  0
  -24.2389  -22.4842   20.6413 C   0  0  0  0  0  0  0  0  0  0  0  0
  -24.1159  -23.7631   21.4756 C   0  0  0  0  0  0  0  0  0  0  0  0
  -24.9969  -24.8773   20.9133 C   0  0  0  0  0  0  0  0  0  0  0  0
  -24.8500  -26.1657   21.7104 C   0  0  0  0  0  0  0  0  0  1  0  0
  -21.2161  -31.3626   25.5259 C   0  0  1  0  0  0  0  0  0  0  0  0
  -17.8552  -30.3165   24.1190 C   0  0  2  0  0  0  0  0  0  0  0  0
  -21.3876  -31.6504   27.0442 C   0  0  0  0  0  0  0  0  0  0  0  0
  -22.5113  -19.9782   19.3633 N   0  0  0  0  0  0  0  0  0  0  0  0
  -25.7843  -11.6769   20.6352 N   0  0  0  0  0  0  0  0  0  0  0  0
  -26.8112  -12.2332   19.9702 N   0  0  0  0  0  0  0  0  0  0  0  0
  -22.8818  -31.9688   23.7990 N   0  0  0  0  0  0  0  0  0  0  0  0
  -26.8059  -15.7489   21.4613 N   0  0  0  0  0  0  0  0  0  0  0  0
  -28.2827  -11.8977   18.1446 N   0  0  0  0  0  0  0  0  0  0  0  0
  -25.6799   -8.2076   18.0768 N   0  0  0  0  0  0  0  0  0  0  0  0
  -25.4204  -17.0048   20.0241 N   0  0  0  0  0  0  0  0  0  0  0  0
  -25.4215  -34.4744   23.8422 N   0  0  0  0  0  0  0  0  0  0  0  0
  -19.8274  -31.2814   25.0862 N   0  0  0  0  0  0  0  0  0  0  0  0
  -17.5420  -29.5776   22.8632 N   0  3  0  0  0  0  0  0  0  0  0  0
  -27.4356   -9.2669   17.0500 O   0  0  0  0  0  0  0  0  0  0  0  0
  -25.4051  -32.2556   24.5488 O   0  0  0  0  0  0  0  0  0  0  0  0
  -21.4959  -33.5859   24.7479 O   0  0  0  0  0  0  0  0  0  0  0  0
  -19.9545  -29.1265   24.2392 O   0  0  0  0  0  0  0  0  0  0  0  0
  -26.9473  -18.0559   21.4189 O   0  0  0  0  0  0  0  0  0  0  0  0
  -21.5250   -7.0428   21.6002 O   0  0  0  0  0  0  0  0  0  0  0  0
  -25.6838  -27.1663   21.1274 O   0  0  0  0  0  0  0  0  0  1  0  0
  -22.7258   -1.6681   21.8727 F   0  0  0  0  0  0  0  0  0  0  0  0
  -21.3112   -5.6609   23.9850 F   0  0  0  0  0  0  0  0  0  0  0  0
  -23.4484  -16.4728   17.7394 Cl  0  0  0  0  0  0  0  0  0  0  0  0
  1  2  1  0  0  0  0
  1  5  2  0  0  0  0
  2  6  2  0  0  0  0
  3  8  2  0  0  0  0
  3 17  1  0  0  0  0
  4  9  1  0  0  0  0
  4 17  2  0  0  0  0
  5 19  1  0  0  0  0
  6 21  1  0  0  0  0
  7 10  2  0  0  0  0
  7 20  1  0  0  0  0
  8 24  1  0  0  0  0
  9 24  2  0  0  0  0
 10 25  1  0  0  0  0
 11 12  2  0  0  0  0
 11 26  1  0  0  0  0
 12 27  1  0  0  0  0
 13 22  1  0  0  0  0
 13 25  2  0  0  0  0
 14 23  2  0  0  0  0
 14 31  1  0  0  0  0
 15 27  2  0  0  0  0
 15 28  1  0  0  0  0
 16 29  2  0  0  0  0
 16 63  1  0  0  0  0
 17 30  1  0  0  0  0
 18 30  1  0  0  0  0
 18 32  2  0  0  0  0
 18 33  1  0  0  0  0
 19 21  2  0  0  0  0
 19 38  1  0  0  0  0
 20 22  2  0  0  0  0
 20 39  1  0  0  0  0
 21 47  1  0  0  0  0
 22 40  1  0  0  0  0
 23 29  1  0  0  0  0
 23 70  1  0  0  0  0
 24 79  1  0  0  0  0
 25 80  1  0  0  0  0
 26 28  2  0  0  0  0
 26 79  1  0  0  0  0
 27 81  1  0  0  0  0
 28 82  1  0  0  0  0
 29 83  1  0  0  0  0
 30 64  2  0  0  0  0
 31 55  1  0  0  0  0
 31 63  2  0  0  0  0
 32 65  1  0  0  0  0
 32 68  1  0  0  0  0
 33 69  1  0  0  0  0
 33 74  2  0  0  0  0
 34 48  1  0  0  0  0
 34 71  1  0  0  0  0
 34 75  2  0  0  0  0
 35 60  1  0  0  0  0
 35 66  1  0  0  0  0
 35 76  2  0  0  0  0
 36 61  1  0  0  0  0
 36 72  1  0  0  0  0
 36 77  2  0  0  0  0
 37 67  1  0  0  0  0
 37 70  1  0  0  0  0
 37 78  2  0  0  0  0
 38 41  1  0  0  0  0
 39 48  1  0  0  0  0
 40 66  1  0  0  0  0
 41 43  1  0  0  0  0
 42 44  1  0  0  0  0
 42 45  1  0  0  0  0
 43 47  1  0  0  0  0
 44 49  1  0  0  0  0
 45 67  1  0  0  0  0
 46 49  1  0  0  0  0
 46 67  1  0  0  0  0
 47 71  1  0  0  0  0
 48 66  1  0  0  0  0
 49 65  1  0  0  0  0
 50 61  1  0  0  0  0
 51 62  1  0  0  0  0
 52 62  1  0  0  0  0
 53 62  1  0  0  0  0
 54 73  1  0  0  0  0
 55 56  1  0  0  0  0
 56 57  1  0  0  0  0
 57 58  1  0  0  0  0
 58 59  1  0  0  0  0
 59 80  1  0  0  0  0
 60 62  1  0  0  0  0
 60 72  1  0  0  0  0
 61 73  1  0  0  0  0
 64 65  1  0  0  0  0
M  CHG  1  73   1
M  ISO  4  37 100  59 101  70 100  80 101
M  END
> <Batch ID>
0028

> <Smiles>
CNC(C)C(=O)NC(C(=O)N1Cc2cc([101O:1][101CH2:1]CCCCc3cc([100NH:0][100C:0](=O)N4CCCC(n5nc(-c6ccc(Oc7ccc(F)cc7F)cc6)c(C(N)=O)c5N)C4)c(Cl)cn3)ccc2CC1C(=O)NC1CCCc2ccccc21)C(C)(C)C

> <Shape>
0.240

> <Color>
0.076

> <Negative vol penalty>
0.000

$$$$

  -OEChem-04052316333D

 81 89  0     1  0  0  0  0  0999 V2000
  -28.0529  -11.8909   22.8609 C   0  0  0  0  0  0  0  0  0  0  0  0
  -28.5649  -12.9684   22.1452 C   0  0  0  0  0  0  0  0  0  0  0  0
  -23.8645  -27.2926   23.2413 C   0  0  0  0  0  0  0  0  0  0  0  0
  -22.9740  -28.7044   21.4946 C   0  0  0  0  0  0  0  0  0  0  0  0
  -26.7414  -11.4710   22.6432 C   0  0  0  0  0  0  0  0  0  0  0  0
  -27.7659  -13.6259   21.2104 C   0  0  0  0  0  0  0  0  0  0  0  0
  -28.1112  -18.6659   21.5622 C   0  0  0  0  0  0  0  0  0  0  0  0
  -22.7636  -27.5914   24.0440 C   0  0  0  0  0  0  0  0  0  0  0  0
  -21.8730  -29.0031   22.2973 C   0  0  0  0  0  0  0  0  0  0  0  0
  -29.2408  -19.2669   21.0086 C   0  0  0  0  0  0  0  0  0  0  0  0
  -18.9717  -27.5210   23.1950 C   0  0  0  0  0  0  0  0  0  0  0  0
  -17.7100  -27.4853   22.6015 C   0  0  0  0  0  0  0  0  0  0  0  0
  -27.9589  -19.8614   19.0534 C   0  0  0  0  0  0  0  0  0  0  0  0
  -17.3853  -29.8154   23.1511 C   0  0  0  0  0  0  0  0  0  0  0  0
  -23.9697  -27.8492   21.9665 C   0  0  0  0  0  0  0  0  0  0  0  0
  -26.4619  -27.7928   21.4247 C   0  0  0  0  0  0  0  0  0  0  0  0
  -25.9228  -12.1297   21.7123 C   0  0  0  0  0  0  0  0  0  0  0  0
  -26.8977  -18.6486   20.8597 C   0  0  0  0  0  0  0  0  0  0  0  0
  -26.4426  -13.2135   20.9791 C   0  0  0  0  0  0  0  0  0  0  0  0
  -26.8147  -19.2618   19.6015 C   0  0  0  0  0  0  0  0  0  0  0  0
  -21.7679  -28.4466   23.5720 C   0  0  0  0  0  0  0  0  0  0  0  0
  -29.1656  -19.8623   19.7528 C   0  0  0  0  0  0  0  0  0  0  0  0
  -19.4402  -28.7040   23.7668 C   0  0  0  0  0  0  0  0  0  0  0  0
  -16.9168  -28.6324   22.5794 C   0  0  0  0  0  0  0  0  0  0  0  0
  -18.6470  -29.8512   23.7447 C   0  0  0  0  0  0  0  0  0  0  0  0
  -25.1069  -27.5414   21.1370 C   0  0  0  0  0  0  0  0  0  0  0  0
  -27.1395  -27.3177   20.3286 C   0  0  0  0  0  0  0  0  0  0  0  0
  -27.0549  -28.4013   22.5796 C   0  0  0  0  0  0  0  0  0  0  0  0
  -25.0107  -16.3697   19.6980 C   0  0  0  0  0  0  0  0  0  0  0  0
  -23.0522  -18.8697   19.0373 C   0  0  0  0  0  0  0  0  0  0  0  0
  -22.7234  -22.2141   18.4424 C   0  0  0  0  0  0  0  0  0  0  0  0
  -27.9842  -23.3897   16.4553 C   0  0  0  0  0  0  0  0  0  0  0  0
  -24.5267  -11.6097   21.4773 C   0  0  0  0  0  0  0  0  0  0  0  0
  -25.6814  -18.0197   21.4823 C   0  0  0  0  0  0  0  0  0  0  0  0
  -25.5303  -19.2881   18.8152 C   0  0  0  0  0  0  0  0  0  0  0  0
  -23.6254  -12.5963   20.7394 C   0  0  0  0  0  0  0  0  0  0  0  0
  -25.4418  -25.7979   15.8125 C   0  0  0  0  0  0  0  0  0  0  0  0
  -24.3535  -13.1878   19.5366 C   0  0  0  0  0  0  0  0  0  0  0  0
  -25.2357  -26.4821   17.1651 C   0  0  0  0  0  0  0  0  0  0  0  0
  -32.2674  -24.1301   20.0048 C   0  0  0  0  0  0  0  0  0  0  0  0
  -31.4938  -24.0010   18.6897 C   0  0  0  0  0  0  0  0  0  0  0  0
  -31.2441  -21.9615   20.8138 C   0  0  0  0  0  0  0  0  0  0  0  0
  -25.7346  -24.3078   15.9727 C   0  0  0  0  0  0  0  0  0  0  0  0
  -26.6473  -24.6746   18.2324 C   0  0  0  0  0  0  0  0  0  0  0  0
  -25.5990  -13.9679   19.9745 C   0  0  1  0  0  0  0  0  0  0  0  0
  -24.6294  -17.6095   20.4563 C   0  0  1  0  0  0  0  0  0  0  0  0
  -26.4045  -26.1898   18.1252 C   0  0  2  0  0  0  0  0  0  0  0  0
  -30.4672  -21.8362   19.4972 C   0  0  1  0  0  0  0  0  0  1  0  0
  -31.5864  -23.4173   21.1932 C   0  0  0  0  0  0  0  0  0  0  0  0
  -31.1716  -22.5381   18.3078 C   0  0  2  0  0  0  0  0  0  0  0  0
  -30.3142  -24.1760   21.6198 C   0  0  0  0  0  0  0  0  0  0  0  0
  -32.5543  -23.4075   22.3917 C   0  0  0  0  0  0  0  0  0  0  0  0
  -32.4620  -21.7988   17.8916 C   0  0  0  0  0  0  0  0  0  0  0  0
  -21.0035  -23.9581   17.8967 C   0  0  0  0  0  0  0  0  0  0  0  0
  -22.9627  -17.8757   16.1538 C   0  0  0  0  0  0  0  0  0  0  0  0
  -22.0562  -20.1115   15.4847 C   0  0  0  0  0  0  0  0  0  0  0  0
  -20.7666  -18.6637   17.0543 C   0  0  0  0  0  0  0  0  0  0  0  0
  -23.2849  -23.7130   20.9317 C   0  0  0  0  0  0  0  0  0  0  0  0
  -30.2304  -22.5427   17.0849 C   0  0  0  0  0  0  0  0  0  0  0  0
  -22.8710  -19.8055   17.8666 C   0  0  1  0  0  0  0  0  0  0  0  0
  -21.7647  -23.2478   19.0052 C   0  0  2  0  0  0  0  0  0  0  0  0
  -22.1890  -19.1121   16.6536 C   0  0  0  0  0  0  0  0  0  0  0  0
  -24.9323  -26.9525   19.9510 N   0  0  0  0  0  0  0  0  0  0  0  0
  -26.1864  -26.8299   19.4837 N   0  0  0  0  0  0  0  0  0  0  0  0
  -24.3704  -18.6544   19.4637 N   0  0  0  0  0  0  0  0  0  0  0  0
  -26.8542  -24.0992   16.8941 N   0  0  0  0  0  0  0  0  0  0  0  0
  -28.4517  -27.2739   20.0146 N   0  0  0  0  0  0  0  0  0  0  0  0
  -27.2398  -29.7906   22.5821 N   0  0  0  0  0  0  0  0  0  0  0  0
  -25.2251  -15.2640   20.4987 N   0  0  0  0  0  0  0  0  0  0  0  0
  -22.1460  -20.9636   18.3782 N   0  0  0  0  0  0  0  0  0  0  0  0
  -29.0024  -23.2427   17.3894 N   0  0  0  0  0  0  0  0  0  0  0  0
  -22.5095  -24.2700   19.7935 N   0  3  0  0  0  0  0  0  0  0  0  0
  -27.4253  -27.7309   23.5730 O   0  0  0  0  0  0  0  0  0  0  0  0
  -25.1021  -16.4125   18.4767 O   0  0  0  0  0  0  0  0  0  0  0  0
  -22.0602  -18.3544   19.5587 O   0  0  0  0  0  0  0  0  0  0  0  0
  -23.8686  -22.4892   18.0911 O   0  0  0  0  0  0  0  0  0  0  0  0
  -28.0810  -22.9265   15.3138 O   0  0  0  0  0  0  0  0  0  0  0  0
  -20.6934  -28.7381   24.3550 O   0  0  0  0  0  0  0  0  0  0  0  0
  -30.2725  -20.4520   19.2070 O   0  0  0  0  0  0  0  0  0  1  0  0
  -15.7058  -28.5983   22.0080 F   0  0  0  0  0  0  0  0  0  0  0  0
  -19.0922  -30.9909   24.2913 F   0  0  0  0  0  0  0  0  0  0  0  0
  1  2  1  0  0  0  0
  1  5  2  0  0  0  0
  2  6  2  0  0  0  0
  3  8  2  0  0  0  0
  3 15  1  0  0  0  0
  4  9  1  0  0  0  0
  4 15  2  0  0  0  0
  5 17  1  0  0  0  0
  6 19  1  0  0  0  0
  7 10  2  0  0  0  0
  7 18  1  0  0  0  0
  8 21  1  0  0  0  0
  9 21  2  0  0  0  0
 10 22  1  0  0  0  0
 11 12  2  0  0  0  0
 11 23  1  0  0  0  0
 12 24  1  0  0  0  0
 13 20  1  0  0  0  0
 13 22  2  0  0  0  0
 14 24  2  0  0  0  0
 14 25  1  0  0  0  0
 15 26  1  0  0  0  0
 16 26  1  0  0  0  0
 16 27  2  0  0  0  0
 16 28  1  0  0  0  0
 17 19  2  0  0  0  0
 17 33  1  0  0  0  0
 18 20  2  0  0  0  0
 18 34  1  0  0  0  0
 19 45  1  0  0  0  0
 20 35  1  0  0  0  0
 21 78  1  0  0  0  0
 22 79  1  0  0  0  0
 23 25  2  0  0  0  0
 23 78  1  0  0  0  0
 24 80  1  0  0  0  0
 25 81  1  0  0  0  0
 26 63  2  0  0  0  0
 27 64  1  0  0  0  0
 27 67  1  0  0  0  0
 28 68  1  0  0  0  0
 28 73  2  0  0  0  0
 29 46  1  0  0  0  0
 29 69  1  0  0  0  0
 29 74  2  0  0  0  0
 30 60  1  0  0  0  0
 30 65  1  0  0  0  0
 30 75  2  0  0  0  0
 31 61  1  0  0  0  0
 31 70  1  0  0  0  0
 31 76  2  0  0  0  0
 32 66  1  0  0  0  0
 32 71  1  0  0  0  0
 32 77  2  0  0  0  0
 33 36  1  0  0  0  0
 34 46  1  0  0  0  0
 35 65  1  0  0  0  0
 36 38  1  0  0  0  0
 37 39  1  0  0  0  0
 37 43  1  0  0  0  0
 38 45  1  0  0  0  0
 39 47  1  0  0  0  0
 40 41  1  0  0  0  0
 40 49  1  0  0  0  0
 41 50  1  0  0  0  0
 42 48  1  0  0  0  0
 42 49  1  0  0  0  0
 43 66  1  0  0  0  0
 44 47  1  0  0  0  0
 44 66  1  0  0  0  0
 45 69  1  0  0  0  0
 46 65  1  0  0  0  0
 47 64  1  0  0  0  0
 48 50  1  0  0  0  0
 48 79  1  0  0  0  0
 49 51  1  0  0  0  0
 49 52  1  0  0  0  0
 50 53  1  0  0  0  0
 50 59  1  0  0  0  0
 54 61  1  0  0  0  0
 55 62  1  0  0  0  0
 56 62  1  0  0  0  0
 57 62  1  0  0  0  0
 58 72  1  0  0  0  0
 59 71  1  0  0  0  0
 60 62  1  0  0  0  0
 60 70  1  0  0  0  0
 61 72  1  0  0  0  0
 63 64  1  0  0  0  0
M  CHG  1  72   1
M  ISO  4  32 100  48 101  71 100  79 101
M  END
> <Batch ID>
0028

> <Smiles>
CNC(C)C(=O)NC(C(=O)N1Cc2cc([101O:1][101CH:1]3CC(C)(C)CCC3(C)C[100NH:0][100C:0](=O)N3CCCC(n4nc(-c5ccc(Oc6ccc(F)cc6F)cc5)c(C(N)=O)c4N)C3)ccc2CC1C(=O)NC1CCCc2ccccc21)C(C)(C)C

> <Shape>
0.205

> <Color>
0.074

> <Negative vol penalty>
0.000

$$$$

  -OEChem-04052316333D

 84 92  0     1  0  0  0  0  0999 V2000
  -26.4455  -17.7539   18.2003 C   0  0  0  0  0  0  0  0  0  0  0  0
  -25.5947  -18.8403   18.3772 C   0  0  0  0  0  0  0  0  0  0  0  0
  -23.4709  -13.9756   19.4388 C   0  0  0  0  0  0  0  0  0  0  0  0
  -24.6750  -14.4416   21.4809 C   0  0  0  0  0  0  0  0  0  0  0  0
  -27.7052  -17.7520   18.7977 C   0  0  0  0  0  0  0  0  0  0  0  0
  -26.0028  -19.9250   19.1526 C   0  0  0  0  0  0  0  0  0  0  0  0
  -24.6264  -25.8233   18.2465 C   0  0  0  0  0  0  0  0  0  0  0  0
  -24.4914  -13.1154   19.0334 C   0  0  0  0  0  0  0  0  0  0  0  0
  -25.6955  -13.5815   21.0755 C   0  0  0  0  0  0  0  0  0  0  0  0
  -23.6676  -26.6608   18.8149 C   0  0  0  0  0  0  0  0  0  0  0  0
  -28.3379  -13.6696   18.9682 C   0  0  0  0  0  0  0  0  0  0  0  0
  -29.6535  -14.1057   19.1248 C   0  0  0  0  0  0  0  0  0  0  0  0
  -25.3139  -27.4734   20.3796 C   0  0  0  0  0  0  0  0  0  0  0  0
  -20.9262  -26.5744   22.8380 C   0  0  0  0  0  0  0  0  0  0  0  0
  -30.1049  -12.2245   20.5720 C   0  0  0  0  0  0  0  0  0  0  0  0
  -23.5627  -14.6387   20.6625 C   0  0  0  0  0  0  0  0  0  0  0  0
  -21.3652  -15.1962   21.8321 C   0  0  0  0  0  0  0  0  0  0  0  0
  -28.1328  -18.8414   19.5729 C   0  0  0  0  0  0  0  0  0  0  0  0
  -25.9355  -25.7965   18.7482 C   0  0  0  0  0  0  0  0  0  0  0  0
  -27.2689  -19.9370   19.7621 C   0  0  0  0  0  0  0  0  0  0  0  0
  -26.2881  -26.6366   19.8141 C   0  0  0  0  0  0  0  0  0  0  0  0
  -20.1256  -27.6475   22.4469 C   0  0  0  0  0  0  0  0  0  0  0  0
  -20.3441  -25.3426   23.1373 C   0  0  0  0  0  0  0  0  0  0  0  0
  -18.7428  -27.4889   22.3551 C   0  0  0  0  0  0  0  0  0  0  0  0
  -25.6036  -12.9183   19.8517 C   0  0  0  0  0  0  0  0  0  0  0  0
  -24.0105  -27.4839   19.8835 C   0  0  0  0  0  0  0  0  0  0  0  0
  -27.9057  -12.5110   19.6136 C   0  0  0  0  0  0  0  0  0  0  0  0
  -30.5370  -13.3832   19.9266 C   0  0  0  0  0  0  0  0  0  0  0  0
  -28.7892  -11.7884   20.4154 C   0  0  0  0  0  0  0  0  0  0  0  0
  -18.9613  -25.1840   23.0455 C   0  0  0  0  0  0  0  0  0  0  0  0
  -18.1607  -26.2571   22.6544 C   0  0  0  0  0  0  0  0  0  0  0  0
  -22.5092  -15.5279   21.0816 C   0  0  0  0  0  0  0  0  0  0  0  0
  -20.6851  -16.3822   21.9634 C   0  0  0  0  0  0  0  0  0  0  0  0
  -20.9542  -13.9294   22.3630 C   0  0  0  0  0  0  0  0  0  0  0  0
  -27.7782  -23.5819   20.0912 C   0  0  0  0  0  0  0  0  0  0  0  0
  -30.0401  -25.8982   19.8883 C   0  0  0  0  0  0  0  0  0  0  0  0
  -30.7688  -29.2255   19.6769 C   0  0  0  0  0  0  0  0  0  0  0  0
  -21.7282  -21.9220   22.7600 C   0  0  0  0  0  0  0  0  0  0  0  0
  -29.4848  -18.7732   20.2377 C   0  0  0  0  0  0  0  0  0  0  0  0
  -26.9649  -24.9071   18.1067 C   0  0  0  0  0  0  0  0  0  0  0  0
  -27.6851  -26.6603   20.3766 C   0  0  0  0  0  0  0  0  0  0  0  0
  -29.9875  -20.1258   20.7358 C   0  0  0  0  0  0  0  0  0  0  0  0
  -20.6777  -20.6845   19.5254 C   0  0  0  0  0  0  0  0  0  0  0  0
  -28.8838  -20.8609   21.4896 C   0  0  0  0  0  0  0  0  0  0  0  0
  -20.9348  -19.1840   19.6758 C   0  0  0  0  0  0  0  0  0  0  0  0
  -21.7574  -21.5033   20.2269 C   0  0  0  0  0  0  0  0  0  0  0  0
  -22.1966  -19.6764   21.8217 C   0  0  0  0  0  0  0  0  0  0  0  0
  -27.6852  -21.1432   20.5757 C   0  0  1  0  0  0  0  0  0  0  0  0
  -28.1352  -24.5846   19.0307 C   0  0  1  0  0  0  0  0  0  0  0  0
  -21.1270  -18.7937   21.1532 C   0  0  2  0  0  0  0  0  0  0  0  0
  -17.9063  -28.6573   21.9327 C   0  0  0  0  0  0  0  0  0  0  0  0
  -32.7081  -30.8141   19.5648 C   0  0  0  0  0  0  0  0  0  0  0  0
  -30.5311  -25.5057   22.8741 C   0  0  0  0  0  0  0  0  0  0  0  0
  -31.7384  -27.6990   22.8930 C   0  0  0  0  0  0  0  0  0  0  0  0
  -32.6030  -25.8132   21.5077 C   0  0  0  0  0  0  0  0  0  0  0  0
  -29.9282  -30.2475   17.0296 C   0  0  0  0  0  0  0  0  0  0  0  0
  -20.7825  -28.9670   22.1291 C   0  0  0  0  0  0  0  0  0  0  0  0
  -21.2453  -24.2237   23.5515 C   0  0  0  0  0  0  0  0  0  0  0  0
  -20.8847  -29.2591   20.6305 C   0  0  0  0  0  0  0  0  0  0  0  0
  -21.7646  -28.2659   19.8804 C   0  0  0  0  0  0  0  0  0  1  0  0
  -30.5034  -27.0215   20.7842 C   0  0  1  0  0  0  0  0  0  0  0  0
  -31.7070  -29.9952   18.7649 C   0  0  2  0  0  0  0  0  0  0  0  0
  -31.3171  -26.5082   22.0056 C   0  0  0  0  0  0  0  0  0  0  0  0
  -22.5564  -16.8230   20.7587 N   0  0  0  0  0  0  0  0  0  0  0  0
  -21.4336  -17.3157   21.3089 N   0  0  0  0  0  0  0  0  0  0  0  0
  -28.6543  -25.7680   19.7194 N   0  0  0  0  0  0  0  0  0  0  0  0
  -21.8771  -21.0955   21.6339 N   0  0  0  0  0  0  0  0  0  0  0  0
  -19.5256  -16.7072   22.5738 N   0  0  0  0  0  0  0  0  0  0  0  0
  -21.7705  -12.8131   22.1356 N   0  0  0  0  0  0  0  0  0  0  0  0
  -27.9649  -22.2674   19.7083 N   0  0  0  0  0  0  0  0  0  0  0  0
  -31.2324  -27.9516   19.9288 N   0  0  0  0  0  0  0  0  0  0  0  0
  -21.4331  -23.2538   22.4955 N   0  0  0  0  0  0  0  0  0  0  0  0
  -30.9344  -30.9217   17.8898 N   0  3  0  0  0  0  0  0  0  0  0  0
  -19.8862  -13.7883   23.0057 O   0  0  0  0  0  0  0  0  0  0  0  0
  -27.3655  -23.9720   21.1771 O   0  0  0  0  0  0  0  0  0  0  0  0
  -30.8772  -25.1677   19.3523 O   0  0  0  0  0  0  0  0  0  0  0  0
  -29.7305  -29.7075   20.1243 O   0  0  0  0  0  0  0  0  0  0  0  0
  -21.8444  -21.5029   23.9167 O   0  0  0  0  0  0  0  0  0  0  0  0
  -26.5995  -12.0789   19.4565 O   0  0  0  0  0  0  0  0  0  0  0  0
  -23.0765  -28.3019   20.4406 O   0  0  0  0  0  0  0  0  0  1  0  0
  -31.8008  -13.8012   20.0756 F   0  0  0  0  0  0  0  0  0  0  0  0
  -28.3801  -10.6739   21.0370 F   0  0  0  0  0  0  0  0  0  0  0  0
  -18.2687  -23.6382   23.4257 Cl  0  0  0  0  0  0  0  0  0  0  0  0
  -16.4365  -26.0886   22.5312 Cl  0  0  0  0  0  0  0  0  0  0  0  0
  1  2  1  0  0  0  0
  1  5  2  0  0  0  0
  2  6  2  0  0  0  0
  3  8  2  0  0  0  0
  3 16  1  0  0  0  0
  4  9  1  0  0  0  0
  4 16  2  0  0  0  0
  5 18  1  0  0  0  0
  6 20  1  0  0  0  0
  7 10  2  0  0  0  0
  7 19  1  0  0  0  0
  8 25  1  0  0  0  0
  9 25  2  0  0  0  0
 10 26  1  0  0  0  0
 11 12  2  0  0  0  0
 11 27  1  0  0  0  0
 12 28  1  0  0  0  0
 13 21  1  0  0  0  0
 13 26  2  0  0  0  0
 14 22  1  0  0  0  0
 14 23  2  0  0  0  0
 15 28  2  0  0  0  0
 15 29  1  0  0  0  0
 16 32  1  0  0  0  0
 17 32  1  0  0  0  0
 17 33  2  0  0  0  0
 17 34  1  0  0  0  0
 18 20  2  0  0  0  0
 18 39  1  0  0  0  0
 19 21  2  0  0  0  0
 19 40  1  0  0  0  0
 20 48  1  0  0  0  0
 21 41  1  0  0  0  0
 22 24  2  0  0  0  0
 22 57  1  0  0  0  0
 23 30  1  0  0  0  0
 23 58  1  0  0  0  0
 24 31  1  0  0  0  0
 24 51  1  0  0  0  0
 25 79  1  0  0  0  0
 26 80  1  0  0  0  0
 27 29  2  0  0  0  0
 27 79  1  0  0  0  0
 28 81  1  0  0  0  0
 29 82  1  0  0  0  0
 30 31  2  0  0  0  0
 30 83  1  0  0  0  0
 31 84  1  0  0  0  0
 32 64  2  0  0  0  0
 33 65  1  0  0  0  0
 33 68  1  0  0  0  0
 34 69  1  0  0  0  0
 34 74  2  0  0  0  0
 35 49  1  0  0  0  0
 35 70  1  0  0  0  0
 35 75  2  0  0  0  0
 36 61  1  0  0  0  0
 36 66  1  0  0  0  0
 36 76  2  0  0  0  0
 37 62  1  0  0  0  0
 37 71  1  0  0  0  0
 37 77  2  0  0  0  0
 38 67  1  0  0  0  0
 38 72  1  0  0  0  0
 38 78  2  0  0  0  0
 39 42  1  0  0  0  0
 40 49  1  0  0  0  0
 41 66  1  0  0  0  0
 42 44  1  0  0  0  0
 43 45  1  0  0  0  0
 43 46  1  0  0  0  0
 44 48  1  0  0  0  0
 45 50  1  0  0  0  0
 46 67  1  0  0  0  0
 47 50  1  0  0  0  0
 47 67  1  0  0  0  0
 48 70  1  0  0  0  0
 49 66  1  0  0  0  0
 50 65  1  0  0  0  0
 52 62  1  0  0  0  0
 53 63  1  0  0  0  0
 54 63  1  0  0  0  0
 55 63  1  0  0  0  0
 56 73  1  0  0  0  0
 57 59  1  0  0  0  0
 58 72  1  0  0  0  0
 59 60  1  0  0  0  0
 60 80  1  0  0  0  0
 61 63  1  0  0  0  0
 61 71  1  0  0  0  0
 62 73  1  0  0  0  0
 64 65  1  0  0  0  0
M  CHG  1  73   1
M  ISO  4  38 100  60 101  72 100  80 101
M  END
> <Batch ID>
0028

> <Smiles>
CNC(C)C(=O)NC(C(=O)N1Cc2cc([101O:1][101CH2:1]CCc3cc(C[100NH:0][100C:0](=O)N4CCCC(n5nc(-c6ccc(Oc7ccc(F)cc7F)cc6)c(C(N)=O)c5N)C4)c(Cl)c(Cl)c3C)ccc2CC1C(=O)NC1CCCc2ccccc21)C(C)(C)C

> <Shape>
0.239

> <Color>
0.065

> <Negative vol penalty>
0.000

$$$$

  -OEChem-04052316333D

 82 90  0     1  0  0  0  0  0999 V2000
  -28.0521  -20.7009   27.1349 C   0  0  0  0  0  0  0  0  0  0  0  0
  -28.2272  -21.3463   25.9150 C   0  0  0  0  0  0  0  0  0  0  0  0
  -22.4969  -13.0535   20.3882 C   0  0  0  0  0  0  0  0  0  0  0  0
  -22.6505  -14.2231   22.4967 C   0  0  0  0  0  0  0  0  0  0  0  0
  -26.7720  -20.5559   27.6681 C   0  0  0  0  0  0  0  0  0  0  0  0
  -27.1221  -21.8461   25.2270 C   0  0  0  0  0  0  0  0  0  0  0  0
  -27.9072  -26.5101   23.4170 C   0  0  0  0  0  0  0  0  0  0  0  0
  -21.7415  -12.0523   20.9986 C   0  0  0  0  0  0  0  0  0  0  0  0
  -21.8951  -13.2219   23.1071 C   0  0  0  0  0  0  0  0  0  0  0  0
  -28.6715  -26.6223   22.2564 C   0  0  0  0  0  0  0  0  0  0  0  0
  -20.0765   -9.0063   22.0818 C   0  0  0  0  0  0  0  0  0  0  0  0
  -20.3998   -7.6806   21.7928 C   0  0  0  0  0  0  0  0  0  0  0  0
  -26.6527  -26.8579   20.9570 C   0  0  0  0  0  0  0  0  0  0  0  0
  -28.0780  -23.3605   19.3119 C   0  0  0  0  0  0  0  0  0  0  0  0
  -29.9608  -21.3459   18.8884 C   0  0  0  0  0  0  0  0  0  0  0  0
  -22.6220   -8.0303   22.6740 C   0  0  0  0  0  0  0  0  0  0  0  0
  -22.9515  -14.1389   21.1373 C   0  0  0  0  0  0  0  0  0  0  0  0
  -23.2526  -16.3451   19.8925 C   0  0  0  0  0  0  0  0  0  0  0  0
  -25.6516  -21.0628   26.9910 C   0  0  0  0  0  0  0  0  0  0  0  0
  -26.5071  -26.5600   23.3549 C   0  0  0  0  0  0  0  0  0  0  0  0
  -25.8257  -21.7066   25.7510 C   0  0  0  0  0  0  0  0  0  0  0  0
  -25.8730  -26.7486   22.1186 C   0  0  0  0  0  0  0  0  0  0  0  0
  -29.1641  -23.5875   18.4668 C   0  0  0  0  0  0  0  0  0  0  0  0
  -27.9332  -22.1262   19.9454 C   0  0  0  0  0  0  0  0  0  0  0  0
  -30.1055  -22.5803   18.2550 C   0  0  0  0  0  0  0  0  0  0  0  0
  -28.8746  -21.1189   19.7337 C   0  0  0  0  0  0  0  0  0  0  0  0
  -21.4406  -12.1365   22.3580 C   0  0  0  0  0  0  0  0  0  0  0  0
  -28.0442  -26.7934   21.0258 C   0  0  0  0  0  0  0  0  0  0  0  0
  -21.0260   -9.8441   22.6668 C   0  0  0  0  0  0  0  0  0  0  0  0
  -21.6725   -7.1926   22.0889 C   0  0  0  0  0  0  0  0  0  0  0  0
  -22.2987   -9.3561   22.9630 C   0  0  0  0  0  0  0  0  0  0  0  0
  -23.7323  -15.1731   20.5074 C   0  0  0  0  0  0  0  0  0  0  0  0
  -24.3831  -16.9899   19.4535 C   0  0  0  0  0  0  0  0  0  0  0  0
  -21.9056  -16.8095   19.7326 C   0  0  0  0  0  0  0  0  0  0  0  0
  -24.1565  -24.5450   24.0746 C   0  0  0  0  0  0  0  0  0  0  0  0
  -22.2803  -27.0990   23.3825 C   0  0  0  0  0  0  0  0  0  0  0  0
  -21.9172  -30.0655   21.7349 C   0  0  0  0  0  0  0  0  0  0  0  0
  -29.6003  -18.7631   20.2532 C   0  0  0  0  0  0  0  0  0  0  0  0
  -24.2829  -20.8403   27.5841 C   0  0  0  0  0  0  0  0  0  0  0  0
  -25.6980  -26.4642   24.6192 C   0  0  0  0  0  0  0  0  0  0  0  0
  -24.3737  -26.8291   22.0005 C   0  0  0  0  0  0  0  0  0  0  0  0
  -23.2025  -21.7288   26.9729 C   0  0  0  0  0  0  0  0  0  0  0  0
  -29.1798  -15.3995   19.1640 C   0  0  0  0  0  0  0  0  0  0  0  0
  -23.3047  -21.7233   25.4510 C   0  0  0  0  0  0  0  0  0  0  0  0
  -27.6856  -15.1372   19.3659 C   0  0  0  0  0  0  0  0  0  0  0  0
  -29.7549  -16.2830   20.2696 C   0  0  0  0  0  0  0  0  0  0  0  0
  -27.5436  -17.2827   20.6938 C   0  0  0  0  0  0  0  0  0  0  0  0
  -24.6542  -22.2842   24.9866 C   0  0  1  0  0  0  0  0  0  0  0  0
  -24.2610  -26.0132   24.3762 C   0  0  1  0  0  0  0  0  0  0  0  0
  -26.9053  -16.4506   19.5695 C   0  0  2  0  0  0  0  0  0  0  0  0
  -26.7599  -21.9108   20.8454 C   0  0  0  0  0  0  0  0  0  0  0  0
  -31.2766  -22.8005   17.3546 C   0  0  0  0  0  0  0  0  0  0  0  0
  -20.2578  -31.9041   21.3306 C   0  0  0  0  0  0  0  0  0  0  0  0
  -20.7656  -25.3010   21.4376 C   0  0  0  0  0  0  0  0  0  0  0  0
  -19.7913  -27.3610   20.4007 C   0  0  0  0  0  0  0  0  0  0  0  0
  -19.3181  -26.8266   22.7909 C   0  0  0  0  0  0  0  0  0  0  0  0
  -23.6895  -32.0929   22.9628 C   0  0  0  0  0  0  0  0  0  0  0  0
  -29.2997  -24.9298   17.7933 C   0  0  0  0  0  0  0  0  0  0  0  0
  -30.3595  -25.8330   18.4279 C   0  0  0  0  0  0  0  0  0  0  0  0
  -30.0403  -26.2192   19.8674 C   0  0  0  0  0  0  0  0  0  1  0  0
  -21.6219  -27.6349   22.1342 C   0  0  1  0  0  0  0  0  0  0  0  0
  -21.4093  -31.4192   22.1976 C   0  0  2  0  0  0  0  0  0  0  0  0
  -20.4024  -26.7775   21.6925 C   0  0  0  0  0  0  0  0  0  0  0  0
  -25.0638  -15.0763   20.4647 N   0  0  0  0  0  0  0  0  0  0  0  0
  -25.4304  -16.1957   19.8176 N   0  0  0  0  0  0  0  0  0  0  0  0
  -23.6260  -26.7238   23.2643 N   0  0  0  0  0  0  0  0  0  0  0  0
  -28.9676  -17.5108   20.4022 N   0  0  0  0  0  0  0  0  0  0  0  0
  -24.5735  -18.1530   18.7952 N   0  0  0  0  0  0  0  0  0  0  0  0
  -20.8631  -16.0242   20.2433 N   0  0  0  0  0  0  0  0  0  0  0  0
  -28.7449  -19.8585   20.3679 N   0  0  0  0  0  0  0  0  0  0  0  0
  -24.6571  -23.7289   25.0710 N   0  0  0  0  0  0  0  0  0  0  0  0
  -21.3022  -29.0316   22.4088 N   0  0  0  0  0  0  0  0  0  0  0  0
  -22.5018  -32.4309   22.1368 N   0  3  0  0  0  0  0  0  0  0  0  0
  -21.6334  -17.8808   19.1395 O   0  0  0  0  0  0  0  0  0  0  0  0
  -23.6573  -24.1795   23.0168 O   0  0  0  0  0  0  0  0  0  0  0  0
  -21.6266  -27.0230   24.4259 O   0  0  0  0  0  0  0  0  0  0  0  0
  -22.7712  -29.9380   20.8603 O   0  0  0  0  0  0  0  0  0  0  0  0
  -30.8067  -18.8562   20.0125 O   0  0  0  0  0  0  0  0  0  0  0  0
  -20.7033  -11.1598   22.9539 O   0  0  0  0  0  0  0  0  0  0  0  0
  -28.7878  -26.9026   19.8913 O   0  0  0  0  0  0  0  0  0  1  0  0
  -21.9823   -5.9190   21.8127 F   0  0  0  0  0  0  0  0  0  0  0  0
  -23.2147  -10.1559   23.5262 F   0  0  0  0  0  0  0  0  0  0  0  0
  1  2  1  0  0  0  0
  1  5  2  0  0  0  0
  2  6  2  0  0  0  0
  3  8  2  0  0  0  0
  3 17  1  0  0  0  0
  4  9  1  0  0  0  0
  4 17  2  0  0  0  0
  5 19  1  0  0  0  0
  6 21  1  0  0  0  0
  7 10  2  0  0  0  0
  7 20  1  0  0  0  0
  8 27  1  0  0  0  0
  9 27  2  0  0  0  0
 10 28  1  0  0  0  0
 11 12  2  0  0  0  0
 11 29  1  0  0  0  0
 12 30  1  0  0  0  0
 13 22  1  0  0  0  0
 13 28  2  0  0  0  0
 14 23  1  0  0  0  0
 14 24  2  0  0  0  0
 15 25  1  0  0  0  0
 15 26  2  0  0  0  0
 16 30  2  0  0  0  0
 16 31  1  0  0  0  0
 17 32  1  0  0  0  0
 18 32  1  0  0  0  0
 18 33  2  0  0  0  0
 18 34  1  0  0  0  0
 19 21  2  0  0  0  0
 19 39  1  0  0  0  0
 20 22  2  0  0  0  0
 20 40  1  0  0  0  0
 21 48  1  0  0  0  0
 22 41  1  0  0  0  0
 23 25  2  0  0  0  0
 23 58  1  0  0  0  0
 24 26  1  0  0  0  0
 24 51  1  0  0  0  0
 25 52  1  0  0  0  0
 26 70  1  0  0  0  0
 27 79  1  0  0  0  0
 28 80  1  0  0  0  0
 29 31  2  0  0  0  0
 29 79  1  0  0  0  0
 30 81  1  0  0  0  0
 31 82  1  0  0  0  0
 32 64  2  0  0  0  0
 33 65  1  0  0  0  0
 33 68  1  0  0  0  0
 34 69  1  0  0  0  0
 34 74  2  0  0  0  0
 35 49  1  0  0  0  0
 35 71  1  0  0  0  0
 35 75  2  0  0  0  0
 36 61  1  0  0  0  0
 36 66  1  0  0  0  0
 36 76  2  0  0  0  0
 37 62  1  0  0  0  0
 37 72  1  0  0  0  0
 37 77  2  0  0  0  0
 38 67  1  0  0  0  0
 38 70  1  0  0  0  0
 38 78  2  0  0  0  0
 39 42  1  0  0  0  0
 40 49  1  0  0  0  0
 41 66  1  0  0  0  0
 42 44  1  0  0  0  0
 43 45  1  0  0  0  0
 43 46  1  0  0  0  0
 44 48  1  0  0  0  0
 45 50  1  0  0  0  0
 46 67  1  0  0  0  0
 47 50  1  0  0  0  0
 47 67  1  0  0  0  0
 48 71  1  0  0  0  0
 49 66  1  0  0  0  0
 50 65  1  0  0  0  0
 53 62  1  0  0  0  0
 54 63  1  0  0  0  0
 55 63  1  0  0  0  0
 56 63  1  0  0  0  0
 57 73  1  0  0  0  0
 58 59  1  0  0  0  0
 59 60  1  0  0  0  0
 60 80  1  0  0  0  0
 61 63  1  0  0  0  0
 61 72  1  0  0  0  0
 62 73  1  0  0  0  0
 64 65  1  0  0  0  0
M  CHG  1  73   1
M  ISO  4  38 100  60 101  70 100  80 101
M  END
> <Batch ID>
0028

> <Smiles>
CNC(C)C(=O)NC(C(=O)N1Cc2cc([101O:1][101CH2:1]CCc3cc(C)c([100NH:0][100C:0](=O)N4CCCC(n5nc(-c6ccc(Oc7ccc(F)cc7F)cc6)c(C(N)=O)c5N)C4)cc3C)ccc2CC1C(=O)NC1CCCc2ccccc21)C(C)(C)C

> <Shape>
0.221

> <Color>
0.055

> <Negative vol penalty>
0.000

$$$$

  -OEChem-04052316333D

 84 92  0     1  0  0  0  0  0999 V2000
  -27.3601  -22.8791   18.8330 C   0  0  0  0  0  0  0  0  0  0  0  0
  -26.1710  -23.4254   19.3053 C   0  0  0  0  0  0  0  0  0  0  0  0
  -26.1723  -14.7132   20.8705 C   0  0  0  0  0  0  0  0  0  0  0  0
  -24.0268  -14.3811   19.8104 C   0  0  0  0  0  0  0  0  0  0  0  0
  -28.5778  -23.2895   19.3741 C   0  0  0  0  0  0  0  0  0  0  0  0
  -26.1989  -24.3817   20.3198 C   0  0  0  0  0  0  0  0  0  0  0  0
  -23.1218  -28.2940   19.3868 C   0  0  0  0  0  0  0  0  0  0  0  0
  -26.3697  -13.3328   20.9034 C   0  0  0  0  0  0  0  0  0  0  0  0
  -24.2243  -13.0006   19.8432 C   0  0  0  0  0  0  0  0  0  0  0  0
  -21.7600  -28.1016   19.6155 C   0  0  0  0  0  0  0  0  0  0  0  0
  -24.0028   -9.3752   19.9738 C   0  0  0  0  0  0  0  0  0  0  0  0
  -22.9365   -8.5775   20.3885 C   0  0  0  0  0  0  0  0  0  0  0  0
  -21.9607  -29.2411   21.7322 C   0  0  0  0  0  0  0  0  0  0  0  0
  -17.7850  -22.6915   22.1516 C   0  0  0  0  0  0  0  0  0  0  0  0
  -17.6609  -23.6692   19.9458 C   0  0  0  0  0  0  0  0  0  0  0  0
  -22.9241   -9.7047   22.5254 C   0  0  0  0  0  0  0  0  0  0  0  0
  -25.0008  -15.2373   20.3240 C   0  0  0  0  0  0  0  0  0  0  0  0
  -25.1662  -17.5511   19.2624 C   0  0  0  0  0  0  0  0  0  0  0  0
  -28.6212  -24.2584   20.3890 C   0  0  0  0  0  0  0  0  0  0  0  0
  -23.9168  -28.9529   20.3357 C   0  0  0  0  0  0  0  0  0  0  0  0
  -27.4182  -24.8045   20.8758 C   0  0  0  0  0  0  0  0  0  0  0  0
  -23.3318  -29.4429   21.5120 C   0  0  0  0  0  0  0  0  0  0  0  0
  -17.5859  -23.8026   21.3322 C   0  0  0  0  0  0  0  0  0  0  0  0
  -18.0592  -21.4469   21.5845 C   0  0  0  0  0  0  0  0  0  0  0  0
  -25.3958  -12.4765   20.3898 C   0  0  0  0  0  0  0  0  0  0  0  0
  -21.1798  -28.5727   20.7896 C   0  0  0  0  0  0  0  0  0  0  0  0
  -24.5300  -10.3377   20.8350 C   0  0  0  0  0  0  0  0  0  0  0  0
  -22.3971   -8.7422   21.6643 C   0  0  0  0  0  0  0  0  0  0  0  0
  -23.9906  -10.5025   22.1107 C   0  0  0  0  0  0  0  0  0  0  0  0
  -17.9350  -22.4246   19.3787 C   0  0  0  0  0  0  0  0  0  0  0  0
  -18.1341  -21.3135   20.1981 C   0  0  0  0  0  0  0  0  0  0  0  0
  -24.7960  -16.6632   20.2902 C   0  0  0  0  0  0  0  0  0  0  0  0
  -24.7543  -18.7832   19.7081 C   0  0  0  0  0  0  0  0  0  0  0  0
  -25.8236  -17.2858   18.0161 C   0  0  0  0  0  0  0  0  0  0  0  0
  -26.4276  -28.1438   22.1090 C   0  0  0  0  0  0  0  0  0  0  0  0
  -26.3734  -31.2835   22.9224 C   0  0  0  0  0  0  0  0  0  0  0  0
  -24.5726  -34.1662   23.2291 C   0  0  0  0  0  0  0  0  0  0  0  0
  -20.5033  -20.5168   23.5519 C   0  0  0  0  0  0  0  0  0  0  0  0
  -29.9584  -24.6357   20.9756 C   0  0  0  0  0  0  0  0  0  0  0  0
  -25.3789  -29.1760   20.0619 C   0  0  0  0  0  0  0  0  0  0  0  0
  -24.1374  -30.1746   22.5532 C   0  0  0  0  0  0  0  0  0  0  0  0
  -29.9245  -25.9279   21.7877 C   0  0  0  0  0  0  0  0  0  0  0  0
  -23.9842  -21.2412   23.7400 C   0  0  0  0  0  0  0  0  0  0  0  0
  -28.7291  -25.9317   22.7351 C   0  0  0  0  0  0  0  0  0  0  0  0
  -24.6204  -20.2302   22.7845 C   0  0  0  0  0  0  0  0  0  0  0  0
  -22.7943  -20.6414   24.4859 C   0  0  0  0  0  0  0  0  0  0  0  0
  -22.3986  -19.0266   22.6667 C   0  0  0  0  0  0  0  0  0  0  0  0
  -27.4089  -25.8623   21.9580 C   0  0  1  0  0  0  0  0  0  0  0  0
  -26.1956  -29.4072   21.3295 C   0  0  1  0  0  0  0  0  0  0  0  0
  -23.5683  -19.6026   21.8504 C   0  0  2  0  0  0  0  0  0  0  0  0
  -24.7920  -36.5580   23.9561 C   0  0  0  0  0  0  0  0  0  0  0  0
  -26.3295  -30.3976   25.8419 C   0  0  0  0  0  0  0  0  0  0  0  0
  -25.5998  -32.7112   26.4605 C   0  0  0  0  0  0  0  0  0  0  0  0
  -27.8135  -32.3539   25.3675 C   0  0  0  0  0  0  0  0  0  0  0  0
  -23.8633  -35.1708   20.5372 C   0  0  0  0  0  0  0  0  0  0  0  0
  -18.2650  -20.2865   22.5050 C   0  0  0  0  0  0  0  0  0  0  0  0
  -17.2903  -25.1410   21.9424 C   0  0  0  0  0  0  0  0  0  0  0  0
  -18.1726  -27.4233   22.4438 C   0  0  0  0  0  0  0  0  0  0  0  0
  -19.4347  -28.2603   22.3748 C   0  0  0  0  0  0  0  0  0  1  0  0
  -25.7012  -32.0966   24.0022 C   0  0  1  0  0  0  0  0  0  0  0  0
  -24.8652  -35.5885   22.7867 C   0  0  2  0  0  0  0  0  0  0  0  0
  -26.3459  -31.8744   25.3995 C   0  0  0  0  0  0  0  0  0  0  0  0
  -24.1953  -17.2789   21.3120 N   0  0  0  0  0  0  0  0  0  0  0  0
  -24.1850  -18.5669   20.9285 N   0  0  0  0  0  0  0  0  0  0  0  0
  -25.5642  -30.3623   22.2424 N   0  0  0  0  0  0  0  0  0  0  0  0
  -21.8332  -20.0646   23.5428 N   0  0  0  0  0  0  0  0  0  0  0  0
  -24.8274  -20.0197   19.1714 N   0  0  0  0  0  0  0  0  0  0  0  0
  -26.1776  -15.9634   17.7157 N   0  0  0  0  0  0  0  0  0  0  0  0
  -27.0833  -27.1566   21.3983 N   0  0  0  0  0  0  0  0  0  0  0  0
  -25.7271  -33.4820   23.5457 N   0  0  0  0  0  0  0  0  0  0  0  0
  -19.6595  -19.9223   22.6217 N   0  0  0  0  0  0  0  0  0  0  0  0
  -23.8821  -36.0225   21.7542 N   0  3  0  0  0  0  0  0  0  0  0  0
  -18.4519  -26.0699   21.9011 N   0  3  0  0  0  0  0  0  0  0  0  0
  -26.1039  -18.1967   17.2006 O   0  0  0  0  0  0  0  0  0  0  0  0
  -26.0417  -28.0705   23.2697 O   0  0  0  0  0  0  0  0  0  0  0  0
  -27.5705  -31.4642   22.6861 O   0  0  0  0  0  0  0  0  0  0  0  0
  -23.4335  -33.7090   23.2914 O   0  0  0  0  0  0  0  0  0  0  0  0
  -20.0993  -21.3896   24.3277 O   0  0  0  0  0  0  0  0  0  0  0  0
  -25.5882  -11.1295   20.4215 O   0  0  0  0  0  0  0  0  0  0  0  0
  -19.8510  -28.3857   21.0156 O   0  0  0  0  0  0  0  0  0  1  0  0
  -21.3720   -7.9771   22.0618 F   0  0  0  0  0  0  0  0  0  0  0  0
  -24.4920  -11.4263   22.9420 F   0  0  0  0  0  0  0  0  0  0  0  0
  -18.0135  -22.3305   17.6533 Cl  0  0  0  0  0  0  0  0  0  0  0  0
  -18.4785  -19.7550   19.5172 Cl  0  0  0  0  0  0  0  0  0  0  0  0
  1  2  1  0  0  0  0
  1  5  2  0  0  0  0
  2  6  2  0  0  0  0
  3  8  2  0  0  0  0
  3 17  1  0  0  0  0
  4  9  1  0  0  0  0
  4 17  2  0  0  0  0
  5 19  1  0  0  0  0
  6 21  1  0  0  0  0
  7 10  2  0  0  0  0
  7 20  1  0  0  0  0
  8 25  1  0  0  0  0
  9 25  2  0  0  0  0
 10 26  1  0  0  0  0
 11 12  2  0  0  0  0
 11 27  1  0  0  0  0
 12 28  1  0  0  0  0
 13 22  1  0  0  0  0
 13 26  2  0  0  0  0
 14 23  2  0  0  0  0
 14 24  1  0  0  0  0
 15 23  1  0  0  0  0
 15 30  2  0  0  0  0
 16 28  2  0  0  0  0
 16 29  1  0  0  0  0
 17 32  1  0  0  0  0
 18 32  1  0  0  0  0
 18 33  2  0  0  0  0
 18 34  1  0  0  0  0
 19 21  2  0  0  0  0
 19 39  1  0  0  0  0
 20 22  2  0  0  0  0
 20 40  1  0  0  0  0
 21 48  1  0  0  0  0
 22 41  1  0  0  0  0
 23 57  1  0  0  0  0
 24 31  2  0  0  0  0
 24 56  1  0  0  0  0
 25 79  1  0  0  0  0
 26 80  1  0  0  0  0
 27 29  2  0  0  0  0
 27 79  1  0  0  0  0
 28 81  1  0  0  0  0
 29 82  1  0  0  0  0
 30 31  1  0  0  0  0
 30 83  1  0  0  0  0
 31 84  1  0  0  0  0
 32 63  2  0  0  0  0
 33 64  1  0  0  0  0
 33 67  1  0  0  0  0
 34 68  1  0  0  0  0
 34 74  2  0  0  0  0
 35 49  1  0  0  0  0
 35 69  1  0  0  0  0
 35 75  2  0  0  0  0
 36 60  1  0  0  0  0
 36 65  1  0  0  0  0
 36 76  2  0  0  0  0
 37 61  1  0  0  0  0
 37 70  1  0  0  0  0
 37 77  2  0  0  0  0
 38 66  1  0  0  0  0
 38 71  1  0  0  0  0
 38 78  2  0  0  0  0
 39 42  1  0  0  0  0
 40 49  1  0  0  0  0
 41 65  1  0  0  0  0
 42 44  1  0  0  0  0
 43 45  1  0  0  0  0
 43 46  1  0  0  0  0
 44 48  1  0  0  0  0
 45 50  1  0  0  0  0
 46 66  1  0  0  0  0
 47 50  1  0  0  0  0
 47 66  1  0  0  0  0
 48 69  1  0  0  0  0
 49 65  1  0  0  0  0
 50 64  1  0  0  0  0
 51 61  1  0  0  0  0
 52 62  1  0  0  0  0
 53 62  1  0  0  0  0
 54 62  1  0  0  0  0
 55 72  1  0  0  0  0
 56 71  1  0  0  0  0
 57 73  1  0  0  0  0
 58 59  1  0  0  0  0
 58 73  1  0  0  0  0
 59 80  1  0  0  0  0
 60 62  1  0  0  0  0
 60 70  1  0  0  0  0
 61 72  1  0  0  0  0
 63 64  1  0  0  0  0
M  CHG  2  72   1  73   1
M  ISO  4  38 100  59 101  71 100  80 101
M  END
> <Batch ID>
0028

> <Smiles>
CNC(C)C(=O)NC(C(=O)N1Cc2cc([101O:1][101CH2:1]CNCc3cc(Cl)c(Cl)c(C[100NH:0][100C:0](=O)N4CCCC(n5nc(-c6ccc(Oc7ccc(F)cc7F)cc6)c(C(N)=O)c5N)C4)c3)ccc2CC1C(=O)NC1CCCc2ccccc21)C(C)(C)C

> <Shape>
0.237

> <Color>
0.070

> <Negative vol penalty>
0.000

$$$$

  -OEChem-04052316333D

 82 90  0     1  0  0  0  0  0999 V2000
  -17.3287  -30.1971   24.2912 C   0  0  0  0  0  0  0  0  0  0  0  0
  -18.4743  -29.9321   25.0346 C   0  0  0  0  0  0  0  0  0  0  0  0
  -27.0384  -18.7652   19.1483 C   0  0  0  0  0  0  0  0  0  0  0  0
  -28.1593  -18.0469   21.1644 C   0  0  0  0  0  0  0  0  0  0  0  0
  -17.1103  -29.5290   23.0871 C   0  0  0  0  0  0  0  0  0  0  0  0
  -19.4019  -28.9979   24.5748 C   0  0  0  0  0  0  0  0  0  0  0  0
  -25.4846  -29.2076   25.2544 C   0  0  0  0  0  0  0  0  0  0  0  0
  -26.6179  -17.4558   18.9155 C   0  0  0  0  0  0  0  0  0  0  0  0
  -27.7387  -16.7375   20.9316 C   0  0  0  0  0  0  0  0  0  0  0  0
  -26.3489  -28.5943   26.1604 C   0  0  0  0  0  0  0  0  0  0  0  0
  -28.6473  -14.1412   18.9657 C   0  0  0  0  0  0  0  0  0  0  0  0
  -29.5850  -13.1212   19.1260 C   0  0  0  0  0  0  0  0  0  0  0  0
  -26.7705  -26.8388   24.5605 C   0  0  0  0  0  0  0  0  0  0  0  0
  -28.2042  -12.1209   20.8378 C   0  0  0  0  0  0  0  0  0  0  0  0
  -31.6387  -25.6882   26.8753 C   0  0  0  0  0  0  0  0  0  0  0  0
  -27.8092  -19.0608   20.2727 C   0  0  0  0  0  0  0  0  0  0  0  0
  -27.5665  -21.4069   21.2446 C   0  0  0  0  0  0  0  0  0  0  0  0
  -18.0403  -28.5932   22.6076 C   0  0  0  0  0  0  0  0  0  0  0  0
  -25.2480  -28.6343   23.9968 C   0  0  0  0  0  0  0  0  0  0  0  0
  -19.1951  -28.3157   23.3638 C   0  0  0  0  0  0  0  0  0  0  0  0
  -25.9048  -27.4481   23.6395 C   0  0  0  0  0  0  0  0  0  0  0  0
  -32.3975  -26.3707   24.6975 C   0  0  0  0  0  0  0  0  0  0  0  0
  -26.9680  -16.4419   19.8072 C   0  0  0  0  0  0  0  0  0  0  0  0
  -26.9898  -27.4083   25.8146 C   0  0  0  0  0  0  0  0  0  0  0  0
  -27.4880  -14.1512   19.7414 C   0  0  0  0  0  0  0  0  0  0  0  0
  -29.3635  -12.1110   20.0621 C   0  0  0  0  0  0  0  0  0  0  0  0
  -27.2665  -13.1410   20.6774 C   0  0  0  0  0  0  0  0  0  0  0  0
  -32.4692  -25.4969   25.7766 C   0  0  0  0  0  0  0  0  0  0  0  0
  -28.2444  -20.4131   20.5134 C   0  0  0  0  0  0  0  0  0  0  0  0
  -30.7610  -26.7599   26.8459 C   0  0  0  0  0  0  0  0  0  0  0  0
  -31.4857  -27.4117   24.7655 C   0  0  0  0  0  0  0  0  0  0  0  0
  -28.3903  -22.5039   21.1784 C   0  0  0  0  0  0  0  0  0  0  0  0
  -26.3049  -21.3440   21.9230 C   0  0  0  0  0  0  0  0  0  0  0  0
  -22.6902  -27.4820   22.5022 C   0  0  0  0  0  0  0  0  0  0  0  0
  -24.7423  -27.2411   20.0016 C   0  0  0  0  0  0  0  0  0  0  0  0
  -27.9661  -26.9705   18.9150 C   0  0  0  0  0  0  0  0  0  0  0  0
  -33.4693  -24.7998   21.4576 C   0  0  0  0  0  0  0  0  0  0  0  0
  -17.7378  -27.8614   21.3240 C   0  0  0  0  0  0  0  0  0  0  0  0
  -24.3335  -29.3223   23.0207 C   0  0  0  0  0  0  0  0  0  0  0  0
  -25.7004  -26.8027   22.2940 C   0  0  0  0  0  0  0  0  0  0  0  0
  -18.9529  -27.1607   20.7215 C   0  0  0  0  0  0  0  0  0  0  0  0
  -32.4880  -23.3778   18.3444 C   0  0  0  0  0  0  0  0  0  0  0  0
  -19.7098  -26.3864   21.7958 C   0  0  0  0  0  0  0  0  0  0  0  0
  -31.2449  -22.5572   18.6928 C   0  0  0  0  0  0  0  0  0  0  0  0
  -33.5264  -23.3317   19.4631 C   0  0  0  0  0  0  0  0  0  0  0  0
  -31.7769  -22.8937   21.1428 C   0  0  0  0  0  0  0  0  0  0  0  0
  -20.2367  -27.3273   22.8860 C   0  0  1  0  0  0  0  0  0  0  0  0
  -23.7690  -28.3784   21.9634 C   0  0  1  0  0  0  0  0  0  0  0  0
  -30.6775  -22.9554   20.0685 C   0  0  2  0  0  0  0  0  0  0  0  0
  -29.3262  -26.7547   16.8172 C   0  0  0  0  0  0  0  0  0  0  0  0
  -23.9316  -24.3079   19.7806 C   0  0  0  0  0  0  0  0  0  0  0  0
  -25.9546  -23.9283   18.3553 C   0  0  0  0  0  0  0  0  0  0  0  0
  -24.1682  -25.4927   17.5909 C   0  0  0  0  0  0  0  0  0  0  0  0
  -29.3952  -29.5079   19.4424 C   0  0  0  0  0  0  0  0  0  0  0  0
  -33.2752  -26.1941   23.5015 C   0  0  0  0  0  0  0  0  0  0  0  0
  -29.8441  -26.9979   28.0211 C   0  0  0  0  0  0  0  0  0  0  0  0
  -28.5314  -27.6549   27.6086 C   0  0  0  0  0  0  0  0  0  1  0  0
  -25.6867  -26.1793   19.4921 C   0  0  1  0  0  0  0  0  0  0  0  0
  -28.7310  -27.7147   17.8354 C   0  0  2  0  0  0  0  0  0  0  0  0
  -24.9379  -24.9879   18.8309 C   0  0  0  0  0  0  0  0  0  0  0  0
  -29.4091  -20.8409   20.0189 N   0  0  0  0  0  0  0  0  0  0  0  0
  -30.6627  -27.6296   25.8157 N   0  0  0  0  0  0  0  0  0  0  0  0
  -29.4694  -22.1157   20.4401 N   0  0  0  0  0  0  0  0  0  0  0  0
  -24.7919  -27.5103   21.3767 N   0  0  0  0  0  0  0  0  0  0  0  0
  -32.9247  -23.7217   20.7405 N   0  0  0  0  0  0  0  0  0  0  0  0
  -28.2896  -23.7530   21.6803 N   0  0  0  0  0  0  0  0  0  0  0  0
  -25.5886  -20.1397   21.8913 N   0  0  0  0  0  0  0  0  0  0  0  0
  -21.4202  -28.0214   22.4258 N   0  0  0  0  0  0  0  0  0  0  0  0
  -26.6265  -26.8594   18.6074 N   0  0  0  0  0  0  0  0  0  0  0  0
  -32.8351  -25.1075   22.6550 N   0  0  0  0  0  0  0  0  0  0  0  0
  -29.8398  -28.5068   18.4388 N   0  3  0  0  0  0  0  0  0  0  0  0
  -25.8194  -22.3315   22.5252 O   0  0  0  0  0  0  0  0  0  0  0  0
  -22.9877  -26.3818   22.9525 O   0  0  0  0  0  0  0  0  0  0  0  0
  -23.9933  -27.8157   19.2076 O   0  0  0  0  0  0  0  0  0  0  0  0
  -28.5038  -26.5284   19.9279 O   0  0  0  0  0  0  0  0  0  0  0  0
  -34.4449  -25.4441   21.0575 O   0  0  0  0  0  0  0  0  0  0  0  0
  -26.5576  -15.1642   19.5805 O   0  0  0  0  0  0  0  0  0  0  0  0
  -27.8334  -26.8073   26.6972 O   0  0  0  0  0  0  0  0  0  1  0  0
  -30.2634  -11.1307   20.2149 F   0  0  0  0  0  0  0  0  0  0  0  0
  -26.1541  -13.1446   21.4247 F   0  0  0  0  0  0  0  0  0  0  0  0
  -33.5702  -24.1683   25.7909 Cl  0  0  0  0  0  0  0  0  0  0  0  0
  -31.2989  -28.5602   23.4978 Cl  0  0  0  0  0  0  0  0  0  0  0  0
  1  2  1  0  0  0  0
  1  5  2  0  0  0  0
  2  6  2  0  0  0  0
  3  8  2  0  0  0  0
  3 16  1  0  0  0  0
  4  9  1  0  0  0  0
  4 16  2  0  0  0  0
  5 18  1  0  0  0  0
  6 20  1  0  0  0  0
  7 10  2  0  0  0  0
  7 19  1  0  0  0  0
  8 23  1  0  0  0  0
  9 23  2  0  0  0  0
 10 24  1  0  0  0  0
 11 12  2  0  0  0  0
 11 25  1  0  0  0  0
 12 26  1  0  0  0  0
 13 21  1  0  0  0  0
 13 24  2  0  0  0  0
 14 26  2  0  0  0  0
 14 27  1  0  0  0  0
 15 28  2  0  0  0  0
 15 30  1  0  0  0  0
 16 29  1  0  0  0  0
 17 29  1  0  0  0  0
 17 32  2  0  0  0  0
 17 33  1  0  0  0  0
 18 20  2  0  0  0  0
 18 38  1  0  0  0  0
 19 21  2  0  0  0  0
 19 39  1  0  0  0  0
 20 47  1  0  0  0  0
 21 40  1  0  0  0  0
 22 28  1  0  0  0  0
 22 31  2  0  0  0  0
 22 55  1  0  0  0  0
 23 77  1  0  0  0  0
 24 78  1  0  0  0  0
 25 27  2  0  0  0  0
 25 77  1  0  0  0  0
 26 79  1  0  0  0  0
 27 80  1  0  0  0  0
 28 81  1  0  0  0  0
 29 61  2  0  0  0  0
 30 56  1  0  0  0  0
 30 62  2  0  0  0  0
 31 62  1  0  0  0  0
 31 82  1  0  0  0  0
 32 63  1  0  0  0  0
 32 66  1  0  0  0  0
 33 67  1  0  0  0  0
 33 72  2  0  0  0  0
 34 48  1  0  0  0  0
 34 68  1  0  0  0  0
 34 73  2  0  0  0  0
 35 58  1  0  0  0  0
 35 64  1  0  0  0  0
 35 74  2  0  0  0  0
 36 59  1  0  0  0  0
 36 69  1  0  0  0  0
 36 75  2  0  0  0  0
 37 65  1  0  0  0  0
 37 70  1  0  0  0  0
 37 76  2  0  0  0  0
 38 41  1  0  0  0  0
 39 48  1  0  0  0  0
 40 64  1  0  0  0  0
 41 43  1  0  0  0  0
 42 44  1  0  0  0  0
 42 45  1  0  0  0  0
 43 47  1  0  0  0  0
 44 49  1  0  0  0  0
 45 65  1  0  0  0  0
 46 49  1  0  0  0  0
 46 65  1  0  0  0  0
 47 68  1  0  0  0  0
 48 64  1  0  0  0  0
 49 63  1  0  0  0  0
 50 59  1  0  0  0  0
 51 60  1  0  0  0  0
 52 60  1  0  0  0  0
 53 60  1  0  0  0  0
 54 71  1  0  0  0  0
 55 70  1  0  0  0  0
 56 57  1  0  0  0  0
 57 78  1  0  0  0  0
 58 60  1  0  0  0  0
 58 69  1  0  0  0  0
 59 71  1  0  0  0  0
 61 63  1  0  0  0  0
M  CHG  1  71   1
M  ISO  4  37 100  57 101  70 100  78 101
M  END
> <Batch ID>
0028

> <Smiles>
CNC(C)C(=O)NC(C(=O)N1Cc2cc([101O:1][101CH2:1]Cc3cc(Cl)c(C[100NH:0][100C:0](=O)N4CCCC(n5nc(-c6ccc(Oc7ccc(F)cc7F)cc6)c(C(N)=O)c5N)C4)c(Cl)n3)ccc2CC1C(=O)NC1CCCc2ccccc21)C(C)(C)C

> <Shape>
0.212

> <Color>
0.079

> <Negative vol penalty>
0.000

$$$$

  -OEChem-04052316333D

 81 90  0     1  0  0  0  0  0999 V2000
  -31.9480  -31.8176   19.6600 C   0  0  0  0  0  0  0  0  0  0  0  0
  -31.3494  -30.8277   18.8872 C   0  0  0  0  0  0  0  0  0  0  0  0
  -23.4935   -9.8063   19.6037 C   0  0  0  0  0  0  0  0  0  0  0  0
  -23.6968   -9.8371   22.0109 C   0  0  0  0  0  0  0  0  0  0  0  0
  -31.9751  -31.6952   21.0486 C   0  0  0  0  0  0  0  0  0  0  0  0
  -30.7783  -29.7143   19.5025 C   0  0  0  0  0  0  0  0  0  0  0  0
  -25.7954  -26.6539   17.6831 C   0  0  0  0  0  0  0  0  0  0  0  0
  -22.8046   -8.5956   19.6773 C   0  0  0  0  0  0  0  0  0  0  0  0
  -23.0079   -8.6264   22.0846 C   0  0  0  0  0  0  0  0  0  0  0  0
  -25.6318  -25.4756   16.9560 C   0  0  0  0  0  0  0  0  0  0  0  0
  -19.8009   -7.5734   21.9216 C   0  0  0  0  0  0  0  0  0  0  0  0
  -18.7981   -7.4576   22.8843 C   0  0  0  0  0  0  0  0  0  0  0  0
  -25.4148  -24.2411   19.0171 C   0  0  0  0  0  0  0  0  0  0  0  0
  -19.9824   -5.6106   23.8957 C   0  0  0  0  0  0  0  0  0  0  0  0
  -29.0431  -17.4125   17.3615 C   0  0  0  0  0  0  0  0  0  0  0  0
  -23.9396  -10.4270   20.7705 C   0  0  0  0  0  0  0  0  0  0  0  0
  -24.1009  -12.9725   20.7252 C   0  0  0  0  0  0  0  0  0  0  0  0
  -31.3955  -30.5844   21.6819 C   0  0  0  0  0  0  0  0  0  0  0  0
  -25.7808  -26.6330   19.0851 C   0  0  0  0  0  0  0  0  0  0  0  0
  -30.7987  -29.5763   20.9008 C   0  0  0  0  0  0  0  0  0  0  0  0
  -25.5759  -25.4208   19.7596 C   0  0  0  0  0  0  0  0  0  0  0  0
  -22.5618   -8.0057   20.9178 C   0  0  0  0  0  0  0  0  0  0  0  0
  -25.4443  -24.2685   17.6230 C   0  0  0  0  0  0  0  0  0  0  0  0
  -20.8944   -6.7077   21.9460 C   0  0  0  0  0  0  0  0  0  0  0  0
  -18.8889   -6.4762   23.8713 C   0  0  0  0  0  0  0  0  0  0  0  0
  -20.9852   -5.7264   22.9330 C   0  0  0  0  0  0  0  0  0  0  0  0
  -24.6517  -11.6773   20.6950 C   0  0  0  0  0  0  0  0  0  0  0  0
  -29.1741  -16.3728   18.2437 C   0  0  0  0  0  0  0  0  0  0  0  0
  -28.0612  -18.2282   17.9499 C   0  0  0  0  0  0  0  0  0  0  0  0
  -25.1854  -13.8092   20.6237 C   0  0  0  0  0  0  0  0  0  0  0  0
  -22.7314  -13.3826   20.8352 C   0  0  0  0  0  0  0  0  0  0  0  0
  -30.0266  -15.1770   18.2360 C   0  0  0  0  0  0  0  0  0  0  0  0
  -27.8760  -27.3631   21.3613 C   0  0  0  0  0  0  0  0  0  0  0  0
  -25.3549  -26.7954   23.3219 C   0  0  0  0  0  0  0  0  0  0  0  0
  -22.3557  -25.2415   23.8088 C   0  0  0  0  0  0  0  0  0  0  0  0
  -31.4910  -30.4729   23.1829 C   0  0  0  0  0  0  0  0  0  0  0  0
  -25.9321  -27.9166   19.8544 C   0  0  0  0  0  0  0  0  0  0  0  0
  -25.5319  -25.3476   21.2633 C   0  0  0  0  0  0  0  0  0  0  0  0
  -30.5328  -29.4452   23.7795 C   0  0  0  0  0  0  0  0  0  0  0  0
  -30.1412  -12.8521   20.9423 C   0  0  0  0  0  0  0  0  0  0  0  0
  -30.5841  -28.1436   22.9858 C   0  0  0  0  0  0  0  0  0  0  0  0
  -27.7976  -20.7117   18.3667 C   0  0  0  0  0  0  0  0  0  0  0  0
  -25.9915  -19.4314   17.1265 C   0  0  0  0  0  0  0  0  0  0  0  0
  -28.6810  -12.4285   21.1114 C   0  0  0  0  0  0  0  0  0  0  0  0
  -27.2345  -22.0216   17.8213 C   0  0  0  0  0  0  0  0  0  0  0  0
  -25.4383  -20.7479   16.5871 C   0  0  0  0  0  0  0  0  0  0  0  0
  -30.4927  -13.0900   19.4758 C   0  0  0  0  0  0  0  0  0  0  0  0
  -28.1381  -13.6192   18.9462 C   0  0  0  0  0  0  0  0  0  0  0  0
  -30.1467  -28.3658   21.5329 C   0  0  1  0  0  0  0  0  0  0  0  0
  -27.4986  -19.5349   17.4209 C   0  0  0  0  0  0  0  0  0  0  0  0
  -26.4142  -27.7021   21.2858 C   0  0  1  0  0  0  0  0  0  0  0  0
  -27.7287  -13.4185   20.4146 C   0  0  1  0  0  0  0  0  0  0  0  0
  -25.7396  -21.9137   17.5259 C   0  0  0  0  0  0  0  0  0  1  0  0
  -20.5515  -24.9354   25.5259 C   0  0  0  0  0  0  0  0  0  0  0  0
  -27.1394  -24.8453   24.8458 C   0  0  0  0  0  0  0  0  0  0  0  0
  -25.0786  -23.8938   25.9024 C   0  0  0  0  0  0  0  0  0  0  0  0
  -25.6895  -26.2809   26.2920 C   0  0  0  0  0  0  0  0  0  0  0  0
  -20.3159  -26.4742   22.0542 C   0  0  0  0  0  0  0  0  0  0  0  0
  -24.8031  -25.5816   24.0298 C   0  0  1  0  0  0  0  0  0  0  0  0
  -21.0289  -25.7557   24.3376 C   0  0  2  0  0  0  0  0  0  0  0  0
  -25.6804  -25.1511   25.2392 C   0  0  0  0  0  0  0  0  0  0  0  0
  -25.9827  -11.6855   20.5830 N   0  0  0  0  0  0  0  0  0  0  0  0
  -27.6172  -17.7322   19.1083 N   0  0  0  0  0  0  0  0  0  0  0  0
  -26.2772  -12.9961   20.5418 N   0  0  0  0  0  0  0  0  0  0  0  0
  -29.5487  -14.0233   18.8623 N   0  0  0  0  0  0  0  0  0  0  0  0
  -25.6910  -26.6288   21.9709 N   0  0  0  0  0  0  0  0  0  0  0  0
  -25.3019  -15.1539   20.5974 N   0  0  0  0  0  0  0  0  0  0  0  0
  -21.7433  -12.3932   20.9305 N   0  0  0  0  0  0  0  0  0  0  0  0
  -28.7053  -28.4649   21.4486 N   0  0  0  0  0  0  0  0  0  0  0  0
  -23.4233  -25.9037   24.3771 N   0  0  0  0  0  0  0  0  0  0  0  0
  -19.9874  -25.6918   23.2736 N   0  3  0  0  0  0  0  0  0  0  0  0
  -22.3926  -14.5903   20.8319 O   0  0  0  0  0  0  0  0  0  0  0  0
  -31.1178  -15.2910   17.6798 O   0  0  0  0  0  0  0  0  0  0  0  0
  -28.2256  -26.1887   21.3432 O   0  0  0  0  0  0  0  0  0  0  0  0
  -25.4762  -27.8545   23.9427 O   0  0  0  0  0  0  0  0  0  0  0  0
  -22.4371  -24.3398   22.9776 O   0  0  0  0  0  0  0  0  0  0  0  0
  -28.3282  -16.5523   19.2903 O   0  0  0  0  0  0  0  0  0  0  0  0
  -21.8895   -6.8245   20.9900 O   0  0  0  0  0  0  0  0  0  0  0  0
  -25.2850  -23.1169   16.9158 O   0  0  0  0  0  0  0  0  0  1  0  0
  -17.9267   -6.3662   24.7966 F   0  0  0  0  0  0  0  0  0  0  0  0
  -22.0339   -4.8926   22.9623 F   0  0  0  0  0  0  0  0  0  0  0  0
  1  2  1  0  0  0  0
  1  5  2  0  0  0  0
  2  6  2  0  0  0  0
  3  8  2  0  0  0  0
  3 16  1  0  0  0  0
  4  9  1  0  0  0  0
  4 16  2  0  0  0  0
  5 18  1  0  0  0  0
  6 20  1  0  0  0  0
  7 10  2  0  0  0  0
  7 19  1  0  0  0  0
  8 22  1  0  0  0  0
  9 22  2  0  0  0  0
 10 23  1  0  0  0  0
 11 12  2  0  0  0  0
 11 24  1  0  0  0  0
 12 25  1  0  0  0  0
 13 21  1  0  0  0  0
 13 23  2  0  0  0  0
 14 25  2  0  0  0  0
 14 26  1  0  0  0  0
 15 28  2  0  0  0  0
 15 29  1  0  0  0  0
 16 27  1  0  0  0  0
 17 27  1  0  0  0  0
 17 30  2  0  0  0  0
 17 31  1  0  0  0  0
 18 20  2  0  0  0  0
 18 36  1  0  0  0  0
 19 21  2  0  0  0  0
 19 37  1  0  0  0  0
 20 49  1  0  0  0  0
 21 38  1  0  0  0  0
 22 78  1  0  0  0  0
 23 79  1  0  0  0  0
 24 26  2  0  0  0  0
 24 78  1  0  0  0  0
 25 80  1  0  0  0  0
 26 81  1  0  0  0  0
 27 62  2  0  0  0  0
 28 32  1  0  0  0  0
 28 77  1  0  0  0  0
 29 50  1  0  0  0  0
 29 63  2  0  0  0  0
 30 64  1  0  0  0  0
 30 67  1  0  0  0  0
 31 68  1  0  0  0  0
 31 72  2  0  0  0  0
 32 65  1  0  0  0  0
 32 73  2  0  0  0  0
 33 51  1  0  0  0  0
 33 69  1  0  0  0  0
 33 74  2  0  0  0  0
 34 59  1  0  0  0  0
 34 66  1  0  0  0  0
 34 75  2  0  0  0  0
 35 60  1  0  0  0  0
 35 70  1  0  0  0  0
 35 76  2  0  0  0  0
 36 39  1  0  0  0  0
 37 51  1  0  0  0  0
 38 66  1  0  0  0  0
 39 41  1  0  0  0  0
 40 44  1  0  0  0  0
 40 47  1  0  0  0  0
 41 49  1  0  0  0  0
 42 45  1  0  0  0  0
 42 50  1  0  0  0  0
 43 46  1  0  0  0  0
 43 50  1  0  0  0  0
 44 52  1  0  0  0  0
 45 53  1  0  0  0  0
 46 53  1  0  0  0  0
 47 65  1  0  0  0  0
 48 52  1  0  0  0  0
 48 65  1  0  0  0  0
 49 69  1  0  0  0  0
 51 66  1  0  0  0  0
 52 64  1  0  0  0  0
 53 79  1  0  0  0  0
 54 60  1  0  0  0  0
 55 61  1  0  0  0  0
 56 61  1  0  0  0  0
 57 61  1  0  0  0  0
 58 71  1  0  0  0  0
 59 61  1  0  0  0  0
 59 70  1  0  0  0  0
 60 71  1  0  0  0  0
 62 64  1  0  0  0  0
 63 77  1  0  0  0  0
M  CHG  1  71   1
M  ISO  4  28 100  32 100  53 101  79 101
M  END
> <Batch ID>
0028

> <Smiles>
CNC(C)C(=O)NC(C(=O)N1Cc2cc([101O:1][101CH:1]3CCC(c4c[100c:0]([100C:0](=O)N5CCCC(n6nc(-c7ccc(Oc8ccc(F)cc8F)cc7)c(C(N)=O)c6N)C5)on4)CC3)ccc2CC1C(=O)NC1CCCc2ccccc21)C(C)(C)C

> <Shape>
0.199

> <Color>
0.161

> <Negative vol penalty>
0.000

$$$$

  -OEChem-04052316333D

 82 90  0     1  0  0  0  0  0999 V2000
  -19.4255  -24.2504   23.3951 C   0  0  0  0  0  0  0  0  0  0  0  0
  -20.6188  -24.3976   22.6954 C   0  0  0  0  0  0  0  0  0  0  0  0
  -26.8362  -15.0814   21.5710 C   0  0  0  0  0  0  0  0  0  0  0  0
  -26.4737  -15.1030   19.1824 C   0  0  0  0  0  0  0  0  0  0  0  0
  -18.5943  -25.3522   23.5931 C   0  0  0  0  0  0  0  0  0  0  0  0
  -20.9812  -25.6466   22.1923 C   0  0  0  0  0  0  0  0  0  0  0  0
  -25.8444  -26.7563   23.0659 C   0  0  0  0  0  0  0  0  0  0  0  0
  -26.5847  -13.7097   21.5968 C   0  0  0  0  0  0  0  0  0  0  0  0
  -26.2222  -13.7313   19.2082 C   0  0  0  0  0  0  0  0  0  0  0  0
  -26.7929  -26.1561   22.2391 C   0  0  0  0  0  0  0  0  0  0  0  0
  -25.6846  -10.2667   22.3446 C   0  0  0  0  0  0  0  0  0  0  0  0
  -24.8509   -9.7775   23.3502 C   0  0  0  0  0  0  0  0  0  0  0  0
  -26.9448  -28.1882   20.9481 C   0  0  0  0  0  0  0  0  0  0  0  0
  -28.3475  -26.2770   17.0547 C   0  0  0  0  0  0  0  0  0  0  0  0
  -23.0555  -11.1783   22.5432 C   0  0  0  0  0  0  0  0  0  0  0  0
  -26.7806  -15.7781   20.3638 C   0  0  0  0  0  0  0  0  0  0  0  0
  -28.2836  -17.8286   20.1534 C   0  0  0  0  0  0  0  0  0  0  0  0
  -18.9514  -26.6173   23.1005 C   0  0  0  0  0  0  0  0  0  0  0  0
  -25.4302  -28.0757   22.8331 C   0  0  0  0  0  0  0  0  0  0  0  0
  -20.1535  -26.7660   22.3827 C   0  0  0  0  0  0  0  0  0  0  0  0
  -25.9927  -28.8038   21.7750 C   0  0  0  0  0  0  0  0  0  0  0  0
  -27.8124  -25.1722   17.7170 C   0  0  0  0  0  0  0  0  0  0  0  0
  -25.8021  -25.3498   16.3887 C   0  0  0  0  0  0  0  0  0  0  0  0
  -26.5397  -24.7086   17.3840 C   0  0  0  0  0  0  0  0  0  0  0  0
  -26.2777  -13.0346   20.4154 C   0  0  0  0  0  0  0  0  0  0  0  0
  -27.3412  -26.8710   21.1782 C   0  0  0  0  0  0  0  0  0  0  0  0
  -25.2038  -11.2118   21.4384 C   0  0  0  0  0  0  0  0  0  0  0  0
  -23.5364  -10.2332   23.4495 C   0  0  0  0  0  0  0  0  0  0  0  0
  -23.8893  -11.6676   21.5377 C   0  0  0  0  0  0  0  0  0  0  0  0
  -27.6099  -26.9183   16.0594 C   0  0  0  0  0  0  0  0  0  0  0  0
  -26.3372  -26.4546   15.7264 C   0  0  0  0  0  0  0  0  0  0  0  0
  -27.0398  -17.1952   20.3366 C   0  0  0  0  0  0  0  0  0  0  0  0
  -27.9968  -19.1707   20.2082 C   0  0  0  0  0  0  0  0  0  0  0  0
  -29.5820  -17.2551   19.9516 C   0  0  0  0  0  0  0  0  0  0  0  0
  -22.6638  -29.4634   22.1085 C   0  0  0  0  0  0  0  0  0  0  0  0
  -24.3740  -32.1910   22.5065 C   0  0  0  0  0  0  0  0  0  0  0  0
  -27.4229  -33.7242   22.5111 C   0  0  0  0  0  0  0  0  0  0  0  0
  -24.8324  -23.5362   18.8181 C   0  0  0  0  0  0  0  0  0  0  0  0
  -17.9979  -27.7690   23.2985 C   0  0  0  0  0  0  0  0  0  0  0  0
  -24.4257  -28.7177   23.7503 C   0  0  0  0  0  0  0  0  0  0  0  0
  -25.5968  -30.2297   21.4948 C   0  0  0  0  0  0  0  0  0  0  0  0
  -18.6346  -29.1352   23.0572 C   0  0  0  0  0  0  0  0  0  0  0  0
  -23.7683  -21.5815   21.5974 C   0  0  0  0  0  0  0  0  0  0  0  0
  -19.4466  -29.1252   21.7659 C   0  0  0  0  0  0  0  0  0  0  0  0
  -24.6269  -20.3182   21.5021 C   0  0  0  0  0  0  0  0  0  0  0  0
  -23.3657  -22.0990   20.2176 C   0  0  0  0  0  0  0  0  0  0  0  0
  -25.3376  -21.0414   19.1871 C   0  0  0  0  0  0  0  0  0  0  0  0
  -20.5931  -28.1098   21.8430 C   0  0  1  0  0  0  0  0  0  0  0  0
  -23.6982  -29.8954   23.1091 C   0  0  1  0  0  0  0  0  0  0  0  0
  -25.8220  -20.5196   20.5498 C   0  0  2  0  0  0  0  0  0  0  0  0
  -24.4363  -24.8366   16.0442 C   0  0  0  0  0  0  0  0  0  0  0  0
  -28.4988  -35.9684   22.8329 C   0  0  0  0  0  0  0  0  0  0  0  0
  -23.4349  -33.0367   19.7293 C   0  0  0  0  0  0  0  0  0  0  0  0
  -25.2468  -34.7644   19.7190 C   0  0  0  0  0  0  0  0  0  0  0  0
  -23.4368  -34.8680   21.4324 C   0  0  0  0  0  0  0  0  0  0  0  0
  -28.9992  -32.7659   24.8254 C   0  0  0  0  0  0  0  0  0  0  0  0
  -28.6356  -24.4993   18.7883 C   0  0  0  0  0  0  0  0  0  0  0  0
  -28.1765  -24.8740   20.1933 C   0  0  0  0  0  0  0  0  0  1  0  0
  -25.2070  -33.0714   21.6065 C   0  0  1  0  0  0  0  0  0  0  0  0
  -28.0723  -34.6718   23.5035 C   0  0  2  0  0  0  0  0  0  0  0  0
  -24.3376  -33.9076   20.6256 C   0  0  0  0  0  0  0  0  0  0  0  0
  -26.0375  -18.0636   20.4961 N   0  0  0  0  0  0  0  0  0  0  0  0
  -26.6512  -19.2563   20.4133 N   0  0  0  0  0  0  0  0  0  0  0  0
  -24.6064  -30.8113   22.4159 N   0  0  0  0  0  0  0  0  0  0  0  0
  -24.5492  -22.2697   19.3720 N   0  0  0  0  0  0  0  0  0  0  0  0
  -28.7670  -20.2742   20.1006 N   0  0  0  0  0  0  0  0  0  0  0  0
  -29.6984  -15.8587   19.9220 N   0  0  0  0  0  0  0  0  0  0  0  0
  -26.0009  -23.5851   18.0587 N   0  0  0  0  0  0  0  0  0  0  0  0
  -21.6853  -28.6395   22.6310 N   0  0  0  0  0  0  0  0  0  0  0  0
  -26.0521  -33.8712   22.4866 N   0  0  0  0  0  0  0  0  0  0  0  0
  -29.2767  -34.0390   24.1118 N   0  3  0  0  0  0  0  0  0  0  0  0
  -30.6111  -17.9599   19.8183 O   0  0  0  0  0  0  0  0  0  0  0  0
  -22.7464  -29.8504   20.9487 O   0  0  0  0  0  0  0  0  0  0  0  0
  -23.5524  -32.7089   23.2670 O   0  0  0  0  0  0  0  0  0  0  0  0
  -28.0675  -32.9353   21.8236 O   0  0  0  0  0  0  0  0  0  0  0  0
  -24.1073  -24.5123   19.0263 O   0  0  0  0  0  0  0  0  0  0  0  0
  -26.0325  -11.6960   20.4401 O   0  0  0  0  0  0  0  0  0  0  0  0
  -28.2667  -26.2873   20.3693 O   0  0  0  0  0  0  0  0  0  1  0  0
  -22.7354   -9.7622   24.4142 F   0  0  0  0  0  0  0  0  0  0  0  0
  -23.4213  -12.5746   20.6692 F   0  0  0  0  0  0  0  0  0  0  0  0
  -28.3348  -28.2817   15.2796 Cl  0  0  0  0  0  0  0  0  0  0  0  0
  -25.4028  -27.2394   14.4916 Cl  0  0  0  0  0  0  0  0  0  0  0  0
  1  2  1  0  0  0  0
  1  5  2  0  0  0  0
  2  6  2  0  0  0  0
  3  8  2  0  0  0  0
  3 16  1  0  0  0  0
  4  9  1  0  0  0  0
  4 16  2  0  0  0  0
  5 18  1  0  0  0  0
  6 20  1  0  0  0  0
  7 10  2  0  0  0  0
  7 19  1  0  0  0  0
  8 25  1  0  0  0  0
  9 25  2  0  0  0  0
 10 26  1  0  0  0  0
 11 12  2  0  0  0  0
 11 27  1  0  0  0  0
 12 28  1  0  0  0  0
 13 21  1  0  0  0  0
 13 26  2  0  0  0  0
 14 22  1  0  0  0  0
 14 30  2  0  0  0  0
 15 28  2  0  0  0  0
 15 29  1  0  0  0  0
 16 32  1  0  0  0  0
 17 32  1  0  0  0  0
 17 33  2  0  0  0  0
 17 34  1  0  0  0  0
 18 20  2  0  0  0  0
 18 39  1  0  0  0  0
 19 21  2  0  0  0  0
 19 40  1  0  0  0  0
 20 48  1  0  0  0  0
 21 41  1  0  0  0  0
 22 24  2  0  0  0  0
 22 57  1  0  0  0  0
 23 24  1  0  0  0  0
 23 31  2  0  0  0  0
 23 51  1  0  0  0  0
 24 68  1  0  0  0  0
 25 77  1  0  0  0  0
 26 78  1  0  0  0  0
 27 29  2  0  0  0  0
 27 77  1  0  0  0  0
 28 79  1  0  0  0  0
 29 80  1  0  0  0  0
 30 31  1  0  0  0  0
 30 81  1  0  0  0  0
 31 82  1  0  0  0  0
 32 62  2  0  0  0  0
 33 63  1  0  0  0  0
 33 66  1  0  0  0  0
 34 67  1  0  0  0  0
 34 72  2  0  0  0  0
 35 49  1  0  0  0  0
 35 69  1  0  0  0  0
 35 73  2  0  0  0  0
 36 59  1  0  0  0  0
 36 64  1  0  0  0  0
 36 74  2  0  0  0  0
 37 60  1  0  0  0  0
 37 70  1  0  0  0  0
 37 75  2  0  0  0  0
 38 65  1  0  0  0  0
 38 68  1  0  0  0  0
 38 76  2  0  0  0  0
 39 42  1  0  0  0  0
 40 49  1  0  0  0  0
 41 64  1  0  0  0  0
 42 44  1  0  0  0  0
 43 45  1  0  0  0  0
 43 46  1  0  0  0  0
 44 48  1  0  0  0  0
 45 50  1  0  0  0  0
 46 65  1  0  0  0  0
 47 50  1  0  0  0  0
 47 65  1  0  0  0  0
 48 69  1  0  0  0  0
 49 64  1  0  0  0  0
 50 63  1  0  0  0  0
 52 60  1  0  0  0  0
 53 61  1  0  0  0  0
 54 61  1  0  0  0  0
 55 61  1  0  0  0  0
 56 71  1  0  0  0  0
 57 58  1  0  0  0  0
 58 78  1  0  0  0  0
 59 61  1  0  0  0  0
 59 70  1  0  0  0  0
 60 71  1  0  0  0  0
 62 63  1  0  0  0  0
M  CHG  1  71   1
M  ISO  4  38 100  58 101  68 100  78 101
M  END
> <Batch ID>
0028

> <Smiles>
CNC(C)C(=O)NC(C(=O)N1Cc2cc([101O:1][101CH2:1]Cc3cc(Cl)c(Cl)c(C)c3[100NH:0][100C:0](=O)N3CCCC(n4nc(-c5ccc(Oc6ccc(F)cc6F)cc5)c(C(N)=O)c4N)C3)ccc2CC1C(=O)NC1CCCc2ccccc21)C(C)(C)C

> <Shape>
0.221

> <Color>
0.109

> <Negative vol penalty>
0.000

$$$$

  -OEChem-04052316333D

 85 93  0     1  0  0  0  0  0999 V2000
  -30.2020  -23.6278   14.2960 C   0  0  0  0  0  0  0  0  0  0  0  0
  -29.9393  -24.9931   14.2896 C   0  0  0  0  0  0  0  0  0  0  0  0
  -26.1180  -13.5771   18.8967 C   0  0  0  0  0  0  0  0  0  0  0  0
  -25.2881  -13.9121   21.1408 C   0  0  0  0  0  0  0  0  0  0  0  0
  -29.4741  -22.7858   15.1341 C   0  0  0  0  0  0  0  0  0  0  0  0
  -28.9569  -25.5183   15.1298 C   0  0  0  0  0  0  0  0  0  0  0  0
  -24.2457  -30.1608   20.1948 C   0  0  0  0  0  0  0  0  0  0  0  0
  -25.9816  -12.1977   19.0522 C   0  0  0  0  0  0  0  0  0  0  0  0
  -25.1517  -12.5327   21.2963 C   0  0  0  0  0  0  0  0  0  0  0  0
  -23.4606  -29.8997   21.3169 C   0  0  0  0  0  0  0  0  0  0  0  0
  -24.2446   -9.1185   22.1559 C   0  0  0  0  0  0  0  0  0  0  0  0
  -23.0664   -8.6435   22.7318 C   0  0  0  0  0  0  0  0  0  0  0  0
  -25.1289  -28.3515   22.1165 C   0  0  0  0  0  0  0  0  0  0  0  0
  -25.0486  -24.4850   21.3207 C   0  0  0  0  0  0  0  0  0  0  0  0
  -23.4196  -23.6358   23.4201 C   0  0  0  0  0  0  0  0  0  0  0  0
  -21.7877   -9.6494   20.9458 C   0  0  0  0  0  0  0  0  0  0  0  0
  -25.7713  -14.4343   19.9410 C   0  0  0  0  0  0  0  0  0  0  0  0
  -24.9478  -16.7594   19.2903 C   0  0  0  0  0  0  0  0  0  0  0  0
  -28.4739  -23.3001   15.9756 C   0  0  0  0  0  0  0  0  0  0  0  0
  -25.4754  -29.5100   20.0194 C   0  0  0  0  0  0  0  0  0  0  0  0
  -28.2279  -24.6880   16.0004 C   0  0  0  0  0  0  0  0  0  0  0  0
  -25.9289  -28.6081   20.9925 C   0  0  0  0  0  0  0  0  0  0  0  0
  -25.6062  -23.8122   22.4078 C   0  0  0  0  0  0  0  0  0  0  0  0
  -22.8620  -24.3086   22.3329 C   0  0  0  0  0  0  0  0  0  0  0  0
  -25.4985  -11.6754   20.2520 C   0  0  0  0  0  0  0  0  0  0  0  0
  -23.9008  -28.9928   22.2765 C   0  0  0  0  0  0  0  0  0  0  0  0
  -24.1944   -9.8592   20.9749 C   0  0  0  0  0  0  0  0  0  0  0  0
  -21.8379   -8.9089   22.1268 C   0  0  0  0  0  0  0  0  0  0  0  0
  -22.9659  -10.1246   20.3699 C   0  0  0  0  0  0  0  0  0  0  0  0
  -24.7917  -23.3875   23.4576 C   0  0  0  0  0  0  0  0  0  0  0  0
  -23.6765  -24.7333   21.2832 C   0  0  0  0  0  0  0  0  0  0  0  0
  -25.9125  -15.8593   19.7812 C   0  0  0  0  0  0  0  0  0  0  0  0
  -25.5663  -17.9849   19.3370 C   0  0  0  0  0  0  0  0  0  0  0  0
  -23.6119  -16.5101   18.8331 C   0  0  0  0  0  0  0  0  0  0  0  0
  -26.6713  -27.5220   17.8465 C   0  0  0  0  0  0  0  0  0  0  0  0
  -29.4039  -27.9286   19.5465 C   0  0  0  0  0  0  0  0  0  0  0  0
  -30.3361  -28.1221   23.0266 C   0  0  0  0  0  0  0  0  0  0  0  0
  -28.7178  -21.7476   21.9931 C   0  0  0  0  0  0  0  0  0  0  0  0
  -27.7219  -22.3446   16.8681 C   0  0  0  0  0  0  0  0  0  0  0  0
  -26.3228  -29.8227   18.8167 C   0  0  0  0  0  0  0  0  0  0  0  0
  -27.2508  -27.8983   20.8613 C   0  0  0  0  0  0  0  0  0  0  0  0
  -26.4110  -22.9246   17.3892 C   0  0  0  0  0  0  0  0  0  0  0  0
  -30.4059  -19.2005   20.1659 C   0  0  0  0  0  0  0  0  0  0  0  0
  -26.6497  -24.3113   17.9676 C   0  0  0  0  0  0  0  0  0  0  0  0
  -29.3095  -18.1761   19.8682 C   0  0  0  0  0  0  0  0  0  0  0  0
  -30.2264  -19.8350   21.5433 C   0  0  0  0  0  0  0  0  0  0  0  0
  -27.8008  -19.4027   21.4862 C   0  0  0  0  0  0  0  0  0  0  0  0
  -27.1431  -25.2778   16.8834 C   0  0  1  0  0  0  0  0  0  0  0  0
  -27.3205  -28.7173   18.4850 C   0  0  1  0  0  0  0  0  0  0  0  0
  -27.9074  -18.7764   20.0853 C   0  0  2  0  0  0  0  0  0  0  0  0
  -32.2699  -29.2741   24.1360 C   0  0  0  0  0  0  0  0  0  0  0  0
  -30.7850  -25.2190   19.3000 C   0  0  0  0  0  0  0  0  0  0  0  0
  -31.8022  -25.6106   21.5538 C   0  0  0  0  0  0  0  0  0  0  0  0
  -32.3327  -27.1495   19.6636 C   0  0  0  0  0  0  0  0  0  0  0  0
  -28.5469  -29.6408   24.8297 C   0  0  0  0  0  0  0  0  0  0  0  0
  -27.0804  -23.5656   22.4093 C   0  0  0  0  0  0  0  0  0  0  0  0
  -21.3824  -24.5570   22.3304 C   0  0  0  0  0  0  0  0  0  0  0  0
  -21.0459  -27.8879   24.1886 C   0  0  0  0  0  0  0  0  0  0  0  0
  -21.4360  -26.4325   23.9791 C   0  0  0  0  0  0  0  0  0  0  0  0
  -21.7219  -28.8495   23.2189 C   0  0  0  0  0  0  0  0  0  1  0  0
  -30.0410  -27.2374   20.7277 C   0  0  1  0  0  0  0  0  0  0  0  0
  -30.7945  -29.3594   23.7771 C   0  0  2  0  0  0  0  0  0  0  0  0
  -31.2120  -26.3047   20.3079 C   0  0  0  0  0  0  0  0  0  0  0  0
  -27.0570  -16.4616   20.1151 N   0  0  0  0  0  0  0  0  0  0  0  0
  -26.8154  -17.7533   19.8334 N   0  0  0  0  0  0  0  0  0  0  0  0
  -28.0404  -28.2329   19.6646 N   0  0  0  0  0  0  0  0  0  0  0  0
  -28.8767  -20.3867   21.6840 N   0  0  0  0  0  0  0  0  0  0  0  0
  -25.1582  -19.2271   19.0014 N   0  0  0  0  0  0  0  0  0  0  0  0
  -23.1341  -15.1927   18.8523 N   0  0  0  0  0  0  0  0  0  0  0  0
  -27.5555  -26.5159   17.5068 N   0  0  0  0  0  0  0  0  0  0  0  0
  -30.4222  -28.2920   21.6609 N   0  0  0  0  0  0  0  0  0  0  0  0
  -27.4053  -22.1905   22.1022 N   0  0  0  0  0  0  0  0  0  0  0  0
  -30.0132  -29.5208   25.0359 N   0  3  0  0  0  0  0  0  0  0  0  0
  -21.0277  -25.9716   22.6314 N   0  3  0  0  0  0  0  0  0  0  0  0
  -22.8699  -17.4261   18.4043 O   0  0  0  0  0  0  0  0  0  0  0  0
  -25.4578  -27.5126   17.6761 O   0  0  0  0  0  0  0  0  0  0  0  0
  -30.0925  -28.1952   18.5583 O   0  0  0  0  0  0  0  0  0  0  0  0
  -29.9446  -27.1052   23.5949 O   0  0  0  0  0  0  0  0  0  0  0  0
  -29.6747  -22.5127   22.1544 O   0  0  0  0  0  0  0  0  0  0  0  0
  -25.3650  -10.3295   20.4040 O   0  0  0  0  0  0  0  0  0  0  0  0
  -23.1361  -28.7356   23.3724 O   0  0  0  0  0  0  0  0  0  1  0  0
  -20.7067   -8.4513   22.6791 F   0  0  0  0  0  0  0  0  0  0  0  0
  -22.9114  -10.8345   19.2346 F   0  0  0  0  0  0  0  0  0  0  0  0
  -25.4466  -22.5511   24.8180 Cl  0  0  0  0  0  0  0  0  0  0  0  0
  -23.0218  -25.5686   19.9219 Cl  0  0  0  0  0  0  0  0  0  0  0  0
  1  2  1  0  0  0  0
  1  5  2  0  0  0  0
  2  6  2  0  0  0  0
  3  8  2  0  0  0  0
  3 17  1  0  0  0  0
  4  9  1  0  0  0  0
  4 17  2  0  0  0  0
  5 19  1  0  0  0  0
  6 21  1  0  0  0  0
  7 10  2  0  0  0  0
  7 20  1  0  0  0  0
  8 25  1  0  0  0  0
  9 25  2  0  0  0  0
 10 26  1  0  0  0  0
 11 12  2  0  0  0  0
 11 27  1  0  0  0  0
 12 28  1  0  0  0  0
 13 22  1  0  0  0  0
 13 26  2  0  0  0  0
 14 23  2  0  0  0  0
 14 31  1  0  0  0  0
 15 24  1  0  0  0  0
 15 30  2  0  0  0  0
 16 28  2  0  0  0  0
 16 29  1  0  0  0  0
 17 32  1  0  0  0  0
 18 32  1  0  0  0  0
 18 33  2  0  0  0  0
 18 34  1  0  0  0  0
 19 21  2  0  0  0  0
 19 39  1  0  0  0  0
 20 22  2  0  0  0  0
 20 40  1  0  0  0  0
 21 48  1  0  0  0  0
 22 41  1  0  0  0  0
 23 30  1  0  0  0  0
 23 56  1  0  0  0  0
 24 31  2  0  0  0  0
 24 57  1  0  0  0  0
 25 80  1  0  0  0  0
 26 81  1  0  0  0  0
 27 29  2  0  0  0  0
 27 80  1  0  0  0  0
 28 82  1  0  0  0  0
 29 83  1  0  0  0  0
 30 84  1  0  0  0  0
 31 85  1  0  0  0  0
 32 64  2  0  0  0  0
 33 65  1  0  0  0  0
 33 68  1  0  0  0  0
 34 69  1  0  0  0  0
 34 75  2  0  0  0  0
 35 49  1  0  0  0  0
 35 70  1  0  0  0  0
 35 76  2  0  0  0  0
 36 61  1  0  0  0  0
 36 66  1  0  0  0  0
 36 77  2  0  0  0  0
 37 62  1  0  0  0  0
 37 71  1  0  0  0  0
 37 78  2  0  0  0  0
 38 67  1  0  0  0  0
 38 72  1  0  0  0  0
 38 79  2  0  0  0  0
 39 42  1  0  0  0  0
 40 49  1  0  0  0  0
 41 66  1  0  0  0  0
 42 44  1  0  0  0  0
 43 45  1  0  0  0  0
 43 46  1  0  0  0  0
 44 48  1  0  0  0  0
 45 50  1  0  0  0  0
 46 67  1  0  0  0  0
 47 50  1  0  0  0  0
 47 67  1  0  0  0  0
 48 70  1  0  0  0  0
 49 66  1  0  0  0  0
 50 65  1  0  0  0  0
 51 62  1  0  0  0  0
 52 63  1  0  0  0  0
 53 63  1  0  0  0  0
 54 63  1  0  0  0  0
 55 73  1  0  0  0  0
 56 72  1  0  0  0  0
 57 74  1  0  0  0  0
 58 59  1  0  0  0  0
 58 60  1  0  0  0  0
 59 74  1  0  0  0  0
 60 81  1  0  0  0  0
 61 63  1  0  0  0  0
 61 71  1  0  0  0  0
 62 73  1  0  0  0  0
 64 65  1  0  0  0  0
M  CHG  2  73   1  74   1
M  ISO  4  38 100  60 101  72 100  81 101
M  END
> <Batch ID>
0028

> <Smiles>
CNC(C)C(=O)NC(C(=O)N1Cc2cc([101O:1][101CH2:1]CCNCc3cc(Cl)c(C[100NH:0][100C:0](=O)N4CCCC(n5nc(-c6ccc(Oc7ccc(F)cc7F)cc6)c(C(N)=O)c5N)C4)cc3Cl)ccc2CC1C(=O)NC1CCCc2ccccc21)C(C)(C)C

> <Shape>
0.214

> <Color>
0.063

> <Negative vol penalty>
0.000

$$$$

  -OEChem-04052316333D

 85 93  0     1  0  0  0  0  0999 V2000
  -16.6409  -19.4604   30.0026 C   0  0  0  0  0  0  0  0  0  0  0  0
  -17.8752  -20.0075   29.6670 C   0  0  0  0  0  0  0  0  0  0  0  0
  -23.0065   -9.8924   19.9691 C   0  0  0  0  0  0  0  0  0  0  0  0
  -23.7402   -9.9232   22.2708 C   0  0  0  0  0  0  0  0  0  0  0  0
  -16.1714  -18.3351   29.3264 C   0  0  0  0  0  0  0  0  0  0  0  0
  -18.6412  -19.4290   28.6556 C   0  0  0  0  0  0  0  0  0  0  0  0
  -23.2854  -21.1628   23.4843 C   0  0  0  0  0  0  0  0  0  0  0  0
  -22.2461   -8.7518   20.2267 C   0  0  0  0  0  0  0  0  0  0  0  0
  -22.9798   -8.7826   22.5285 C   0  0  0  0  0  0  0  0  0  0  0  0
  -24.5524  -20.8192   23.0150 C   0  0  0  0  0  0  0  0  0  0  0  0
  -23.2374   -5.4498   22.0216 C   0  0  0  0  0  0  0  0  0  0  0  0
  -23.8324   -4.4277   22.7611 C   0  0  0  0  0  0  0  0  0  0  0  0
  -23.6045  -18.9245   21.8613 C   0  0  0  0  0  0  0  0  0  0  0  0
  -30.6466  -18.7447   20.3282 C   0  0  0  0  0  0  0  0  0  0  0  0
  -22.1138   -4.6457   24.4452 C   0  0  0  0  0  0  0  0  0  0  0  0
  -23.7536  -10.4781   20.9911 C   0  0  0  0  0  0  0  0  0  0  0  0
  -28.8473  -20.3546   20.4171 C   0  0  0  0  0  0  0  0  0  0  0  0
  -24.1269  -12.9970   20.8392 C   0  0  0  0  0  0  0  0  0  0  0  0
  -16.9277  -17.7483   28.2996 C   0  0  0  0  0  0  0  0  0  0  0  0
  -22.1681  -20.3824   23.1540 C   0  0  0  0  0  0  0  0  0  0  0  0
  -18.1819  -18.2940   27.9658 C   0  0  0  0  0  0  0  0  0  0  0  0
  -22.3240  -19.2619   22.3256 C   0  0  0  0  0  0  0  0  0  0  0  0
  -30.0982  -18.0714   21.4197 C   0  0  0  0  0  0  0  0  0  0  0  0
  -28.2988  -19.6812   21.5086 C   0  0  0  0  0  0  0  0  0  0  0  0
  -22.2327   -8.1969   21.5064 C   0  0  0  0  0  0  0  0  0  0  0  0
  -24.7126  -19.6982   22.2057 C   0  0  0  0  0  0  0  0  0  0  0  0
  -22.0806   -6.0699   22.4940 C   0  0  0  0  0  0  0  0  0  0  0  0
  -30.0212  -19.8864   19.8269 C   0  0  0  0  0  0  0  0  0  0  0  0
  -23.2706   -4.0256   23.9729 C   0  0  0  0  0  0  0  0  0  0  0  0
  -21.5189   -5.6679   23.7057 C   0  0  0  0  0  0  0  0  0  0  0  0
  -28.9243  -18.5396   22.0099 C   0  0  0  0  0  0  0  0  0  0  0  0
  -24.5397  -11.6560   20.7254 C   0  0  0  0  0  0  0  0  0  0  0  0
  -25.2320  -13.7283   20.4780 C   0  0  0  0  0  0  0  0  0  0  0  0
  -28.2022  -21.5504   19.8848 C   0  0  0  0  0  0  0  0  0  0  0  0
  -22.8580  -13.5337   21.2361 C   0  0  0  0  0  0  0  0  0  0  0  0
  -20.0601  -18.6705   24.8062 C   0  0  0  0  0  0  0  0  0  0  0  0
  -18.6311  -18.3570   21.9110 C   0  0  0  0  0  0  0  0  0  0  0  0
  -18.9339  -18.3897   18.5119 C   0  0  0  0  0  0  0  0  0  0  0  0
  -30.7250  -14.6853   20.7153 C   0  0  0  0  0  0  0  0  0  0  0  0
  -16.3999  -16.5046   27.6292 C   0  0  0  0  0  0  0  0  0  0  0  0
  -20.8041  -20.7818   23.6464 C   0  0  0  0  0  0  0  0  0  0  0  0
  -21.1536  -18.4026   21.9254 C   0  0  0  0  0  0  0  0  0  0  0  0
  -17.1039  -16.1755   26.3153 C   0  0  0  0  0  0  0  0  0  0  0  0
  -29.5863  -12.2804   18.3495 C   0  0  0  0  0  0  0  0  0  0  0  0
  -18.6167  -16.2828   26.4787 C   0  0  0  0  0  0  0  0  0  0  0  0
  -28.1406  -12.0099   18.7699 C   0  0  0  0  0  0  0  0  0  0  0  0
  -30.4923  -12.5076   19.5577 C   0  0  0  0  0  0  0  0  0  0  0  0
  -28.5837  -13.2808   20.9117 C   0  0  0  0  0  0  0  0  0  0  0  0
  -19.0308  -17.7098   26.8576 C   0  0  1  0  0  0  0  0  0  0  0  0
  -19.8138  -19.6216   23.6693 C   0  0  1  0  0  0  0  0  0  0  0  0
  -27.6210  -13.1009   19.7255 C   0  0  2  0  0  0  0  0  0  0  0  0
  -28.9972  -22.8211   19.8887 C   0  0  0  0  0  0  0  0  0  0  0  0
  -17.5995  -18.0620   16.4121 C   0  0  0  0  0  0  0  0  0  0  0  0
  -18.6840  -15.3382   22.3514 C   0  0  0  0  0  0  0  0  0  0  0  0
  -18.2424  -15.0437   19.9047 C   0  0  0  0  0  0  0  0  0  0  0  0
  -16.5681  -16.2082   21.3411 C   0  0  0  0  0  0  0  0  0  0  0  0
  -19.4704  -21.1541   17.6014 C   0  0  0  0  0  0  0  0  0  0  0  0
  -30.1539  -20.1124   17.4632 C   0  0  0  0  0  0  0  0  0  0  0  0
  -30.8025  -16.8524   21.9222 C   0  0  0  0  0  0  0  0  0  0  0  0
  -27.0365  -20.1985   22.1334 C   0  0  0  0  0  0  0  0  0  1  0  0
  -18.7355  -17.3767   20.7677 C   0  0  1  0  0  0  0  0  0  0  0  0
  -18.1080  -19.0674   17.4335 C   0  0  2  0  0  0  0  0  0  0  0  0
  -18.0801  -16.0066   21.1002 C   0  0  0  0  0  0  0  0  0  0  0  0
  -25.8081  -11.5393   20.3231 N   0  0  0  0  0  0  0  0  0  0  0  0
  -26.2017  -12.8164   20.1810 N   0  0  0  0  0  0  0  0  0  0  0  0
  -19.8413  -18.8306   22.4373 N   0  0  0  0  0  0  0  0  0  0  0  0
  -29.9440  -13.5551   20.4226 N   0  0  0  0  0  0  0  0  0  0  0  0
  -25.4591  -15.0560   20.3886 N   0  0  0  0  0  0  0  0  0  0  0  0
  -21.8315  -12.6415   21.5745 N   0  0  0  0  0  0  0  0  0  0  0  0
  -19.0057  -18.5693   25.6935 N   0  0  0  0  0  0  0  0  0  0  0  0
  -18.1649  -18.0453   19.6033 N   0  0  0  0  0  0  0  0  0  0  0  0
  -30.1275  -15.6331   21.5371 N   0  0  0  0  0  0  0  0  0  0  0  0
  -18.9255  -20.0893   16.7204 N   0  3  0  0  0  0  0  0  0  0  0  0
  -27.0563  -21.5902   19.4397 O   0  0  0  0  0  0  0  0  0  0  0  0
  -22.6358  -14.7677   21.2733 O   0  0  0  0  0  0  0  0  0  0  0  0
  -21.1272  -18.0717   24.8725 O   0  0  0  0  0  0  0  0  0  0  0  0
  -17.5167  -18.6958   22.3172 O   0  0  0  0  0  0  0  0  0  0  0  0
  -20.1399  -18.1829   18.3960 O   0  0  0  0  0  0  0  0  0  0  0  0
  -31.8681  -14.8409   20.2724 O   0  0  0  0  0  0  0  0  0  0  0  0
  -21.4907   -7.0840   21.7583 O   0  0  0  0  0  0  0  0  0  0  0  0
  -30.5756  -20.5287   18.7601 O   0  0  0  0  0  0  0  0  0  0  0  0
  -25.9483  -19.3602   21.7468 O   0  0  0  0  0  0  0  0  0  1  0  0
  -23.8412   -3.0430   24.6822 F   0  0  0  0  0  0  0  0  0  0  0  0
  -20.4070   -6.2591   24.1641 F   0  0  0  0  0  0  0  0  0  0  0  0
  -28.2469  -17.6995   23.3653 Cl  0  0  0  0  0  0  0  0  0  0  0  0
  1  2  1  0  0  0  0
  1  5  2  0  0  0  0
  2  6  2  0  0  0  0
  3  8  2  0  0  0  0
  3 16  1  0  0  0  0
  4  9  1  0  0  0  0
  4 16  2  0  0  0  0
  5 19  1  0  0  0  0
  6 21  1  0  0  0  0
  7 10  2  0  0  0  0
  7 20  1  0  0  0  0
  8 25  1  0  0  0  0
  9 25  2  0  0  0  0
 10 26  1  0  0  0  0
 11 12  2  0  0  0  0
 11 27  1  0  0  0  0
 12 29  1  0  0  0  0
 13 22  1  0  0  0  0
 13 26  2  0  0  0  0
 14 23  1  0  0  0  0
 14 28  2  0  0  0  0
 15 29  2  0  0  0  0
 15 30  1  0  0  0  0
 16 32  1  0  0  0  0
 17 24  2  0  0  0  0
 17 28  1  0  0  0  0
 17 34  1  0  0  0  0
 18 32  1  0  0  0  0
 18 33  2  0  0  0  0
 18 35  1  0  0  0  0
 19 21  2  0  0  0  0
 19 40  1  0  0  0  0
 20 22  2  0  0  0  0
 20 41  1  0  0  0  0
 21 49  1  0  0  0  0
 22 42  1  0  0  0  0
 23 31  2  0  0  0  0
 23 59  1  0  0  0  0
 24 31  1  0  0  0  0
 24 60  1  0  0  0  0
 25 80  1  0  0  0  0
 26 82  1  0  0  0  0
 27 30  2  0  0  0  0
 27 80  1  0  0  0  0
 28 81  1  0  0  0  0
 29 83  1  0  0  0  0
 30 84  1  0  0  0  0
 31 85  1  0  0  0  0
 32 64  2  0  0  0  0
 33 65  1  0  0  0  0
 33 68  1  0  0  0  0
 34 52  1  0  0  0  0
 34 74  2  0  0  0  0
 35 69  1  0  0  0  0
 35 75  2  0  0  0  0
 36 50  1  0  0  0  0
 36 70  1  0  0  0  0
 36 76  2  0  0  0  0
 37 61  1  0  0  0  0
 37 66  1  0  0  0  0
 37 77  2  0  0  0  0
 38 62  1  0  0  0  0
 38 71  1  0  0  0  0
 38 78  2  0  0  0  0
 39 67  1  0  0  0  0
 39 72  1  0  0  0  0
 39 79  2  0  0  0  0
 40 43  1  0  0  0  0
 41 50  1  0  0  0  0
 42 66  1  0  0  0  0
 43 45  1  0  0  0  0
 44 46  1  0  0  0  0
 44 47  1  0  0  0  0
 45 49  1  0  0  0  0
 46 51  1  0  0  0  0
 47 67  1  0  0  0  0
 48 51  1  0  0  0  0
 48 67  1  0  0  0  0
 49 70  1  0  0  0  0
 50 66  1  0  0  0  0
 51 65  1  0  0  0  0
 53 62  1  0  0  0  0
 54 63  1  0  0  0  0
 55 63  1  0  0  0  0
 56 63  1  0  0  0  0
 57 73  1  0  0  0  0
 58 81  1  0  0  0  0
 59 72  1  0  0  0  0
 60 82  1  0  0  0  0
 61 63  1  0  0  0  0
 61 71  1  0  0  0  0
 62 73  1  0  0  0  0
 64 65  1  0  0  0  0
M  CHG  1  73   1
M  ISO  4  39 100  60 101  72 100  82 101
M  END
> <Batch ID>
0028

> <Smiles>
CNC(C)C(=O)NC(C(=O)N1Cc2cc([101O:1][101CH2:1]c3c(Cl)c(C[100NH:0][100C:0](=O)N4CCCC(n5nc(-c6ccc(Oc7ccc(F)cc7F)cc6)c(C(N)=O)c5N)C4)cc(OC)c3C(C)=O)ccc2CC1C(=O)NC1CCCc2ccccc21)C(C)(C)C

> <Shape>
0.215

> <Color>
0.199

> <Negative vol penalty>
0.000

$$$$

  -OEChem-04052316333D

 85 93  0     1  0  0  0  0  0999 V2000
  -18.4288  -15.4081   20.1573 C   0  0  0  0  0  0  0  0  0  0  0  0
  -19.4381  -16.2876   20.5359 C   0  0  0  0  0  0  0  0  0  0  0  0
  -23.1534   -9.8656   19.9609 C   0  0  0  0  0  0  0  0  0  0  0  0
  -23.8211   -9.9648   22.2807 C   0  0  0  0  0  0  0  0  0  0  0  0
  -17.3976  -15.1078   21.0464 C   0  0  0  0  0  0  0  0  0  0  0  0
  -19.4161  -16.8681   21.8036 C   0  0  0  0  0  0  0  0  0  0  0  0
  -23.9502  -16.7841   24.0575 C   0  0  0  0  0  0  0  0  0  0  0  0
  -22.4395   -8.6949   20.2165 C   0  0  0  0  0  0  0  0  0  0  0  0
  -23.1072   -8.7941   22.5363 C   0  0  0  0  0  0  0  0  0  0  0  0
  -24.8834  -17.7348   23.6462 C   0  0  0  0  0  0  0  0  0  0  0  0
  -21.7571   -5.6356   23.7242 C   0  0  0  0  0  0  0  0  0  0  0  0
  -22.3761   -4.6547   24.4989 C   0  0  0  0  0  0  0  0  0  0  0  0
  -24.3585  -19.0780   25.5800 C   0  0  0  0  0  0  0  0  0  0  0  0
  -30.1892  -17.1256   24.3585 C   0  0  0  0  0  0  0  0  0  0  0  0
  -24.1513   -4.4875   22.8685 C   0  0  0  0  0  0  0  0  0  0  0  0
  -23.8443  -10.5005   20.9930 C   0  0  0  0  0  0  0  0  0  0  0  0
  -24.1054  -13.0316   20.8105 C   0  0  0  0  0  0  0  0  0  0  0  0
  -17.3682  -15.6775   22.3290 C   0  0  0  0  0  0  0  0  0  0  0  0
  -23.2050  -16.9788   25.2294 C   0  0  0  0  0  0  0  0  0  0  0  0
  -18.3829  -16.5762   22.7101 C   0  0  0  0  0  0  0  0  0  0  0  0
  -23.4182  -18.1271   26.0053 C   0  0  0  0  0  0  0  0  0  0  0  0
  -30.6347  -15.8042   24.3278 C   0  0  0  0  0  0  0  0  0  0  0  0
  -29.7450  -15.4526   26.5463 C   0  0  0  0  0  0  0  0  0  0  0  0
  -29.5217  -17.6106   25.4832 C   0  0  0  0  0  0  0  0  0  0  0  0
  -22.4163   -8.1591   21.5042 C   0  0  0  0  0  0  0  0  0  0  0  0
  -25.0856  -18.8833   24.4059 C   0  0  0  0  0  0  0  0  0  0  0  0
  -22.3350   -6.0424   22.5216 C   0  0  0  0  0  0  0  0  0  0  0  0
  -23.5733   -4.0807   24.0711 C   0  0  0  0  0  0  0  0  0  0  0  0
  -23.5322   -5.4684   22.0938 C   0  0  0  0  0  0  0  0  0  0  0  0
  -30.4126  -14.9677   25.4216 C   0  0  0  0  0  0  0  0  0  0  0  0
  -29.2996  -16.7740   26.5771 C   0  0  0  0  0  0  0  0  0  0  0  0
  -24.5824  -11.7096   20.7295 C   0  0  0  0  0  0  0  0  0  0  0  0
  -25.1852  -13.8079   20.4673 C   0  0  0  0  0  0  0  0  0  0  0  0
  -22.8026  -13.5146   21.1644 C   0  0  0  0  0  0  0  0  0  0  0  0
  -20.1130  -17.2957   25.8948 C   0  0  0  0  0  0  0  0  0  0  0  0
  -21.1653  -17.2279   28.9624 C   0  0  0  0  0  0  0  0  0  0  0  0
  -23.7299  -17.7300   31.1573 C   0  0  0  0  0  0  0  0  0  0  0  0
  -30.9414  -13.9715   21.0619 C   0  0  0  0  0  0  0  0  0  0  0  0
  -16.2077  -15.3593   23.2382 C   0  0  0  0  0  0  0  0  0  0  0  0
  -22.2213  -15.9312   25.6736 C   0  0  0  0  0  0  0  0  0  0  0  0
  -22.6584  -18.3737   27.2822 C   0  0  0  0  0  0  0  0  0  0  0  0
  -16.4595  -15.7265   24.6984 C   0  0  0  0  0  0  0  0  0  0  0  0
  -29.3957  -13.0239   17.9977 C   0  0  0  0  0  0  0  0  0  0  0  0
  -17.0537  -17.1275   24.8018 C   0  0  0  0  0  0  0  0  0  0  0  0
  -27.9526  -12.7113   18.3973 C   0  0  0  0  0  0  0  0  0  0  0  0
  -30.3860  -12.5955   19.0783 C   0  0  0  0  0  0  0  0  0  0  0  0
  -28.6600  -12.8160   20.8237 C   0  0  0  0  0  0  0  0  0  0  0  0
  -18.4073  -17.2070   24.0855 C   0  0  1  0  0  0  0  0  0  0  0  0
  -21.1495  -16.4775   26.6117 C   0  0  1  0  0  0  0  0  0  0  0  0
  -27.6204  -13.2809   19.7896 C   0  0  2  0  0  0  0  0  0  0  0  0
  -29.5051  -14.5526   27.7212 C   0  0  0  0  0  0  0  0  0  0  0  0
  -24.2768  -17.6284   33.6044 C   0  0  0  0  0  0  0  0  0  0  0  0
  -19.6582  -19.8437   29.4054 C   0  0  0  0  0  0  0  0  0  0  0  0
  -20.9863  -20.1729   31.5020 C   0  0  0  0  0  0  0  0  0  0  0  0
  -19.4729  -18.2021   31.2830 C   0  0  0  0  0  0  0  0  0  0  0  0
  -25.8084  -15.6679   30.7257 C   0  0  0  0  0  0  0  0  0  0  0  0
  -31.3442  -15.3283   23.1005 C   0  0  0  0  0  0  0  0  0  0  0  0
  -28.0450  -20.9323   24.5593 C   0  0  0  0  0  0  0  0  0  0  0  0
  -28.9113  -19.7099   24.2808 C   0  0  0  0  0  0  0  0  0  0  0  0
  -26.6404  -20.5718   25.0285 C   0  0  0  0  0  0  0  0  0  1  0  0
  -21.6252  -18.2653   29.9580 C   0  0  1  0  0  0  0  0  0  0  0  0
  -24.2730  -16.8715   32.2854 C   0  0  2  0  0  0  0  0  0  0  0  0
  -20.4487  -19.1176   30.5121 C   0  0  0  0  0  0  0  0  0  0  0  0
  -25.8654  -11.6459   20.3635 N   0  0  0  0  0  0  0  0  0  0  0  0
  -26.2036  -12.9376   20.2113 N   0  0  0  0  0  0  0  0  0  0  0  0
  -21.7032  -17.3231   27.6711 N   0  0  0  0  0  0  0  0  0  0  0  0
  -30.0152  -13.1706   20.3736 N   0  0  0  0  0  0  0  0  0  0  0  0
  -25.3533  -15.1433   20.3625 N   0  0  0  0  0  0  0  0  0  0  0  0
  -21.8093  -12.5808   21.4895 N   0  0  0  0  0  0  0  0  0  0  0  0
  -29.0929  -18.9287   25.4804 N   0  0  0  0  0  0  0  0  0  0  0  0
  -19.4450  -16.6098   24.8984 N   0  0  0  0  0  0  0  0  0  0  0  0
  -22.3749  -17.5448   30.9814 N   0  0  0  0  0  0  0  0  0  0  0  0
  -30.5074  -14.4822   22.2791 N   0  0  0  0  0  0  0  0  0  0  0  0
  -25.6685  -16.4437   31.9849 N   0  3  0  0  0  0  0  0  0  0  0  0
  -22.5230  -14.7374   21.1756 O   0  0  0  0  0  0  0  0  0  0  0  0
  -19.9316  -18.4625   26.2224 O   0  0  0  0  0  0  0  0  0  0  0  0
  -20.3640  -16.3607   29.3193 O   0  0  0  0  0  0  0  0  0  0  0  0
  -24.4363  -18.4918   30.5006 O   0  0  0  0  0  0  0  0  0  0  0  0
  -32.0694  -14.2178   20.6217 O   0  0  0  0  0  0  0  0  0  0  0  0
  -21.7196   -7.0169   21.7540 O   0  0  0  0  0  0  0  0  0  0  0  0
  -25.9954  -19.8130   24.0064 O   0  0  0  0  0  0  0  0  0  1  0  0
  -24.1685   -3.1399   24.8159 F   0  0  0  0  0  0  0  0  0  0  0  0
  -24.0928   -5.8559   20.9400 F   0  0  0  0  0  0  0  0  0  0  0  0
  -30.9670  -13.3264   25.3755 Cl  0  0  0  0  0  0  0  0  0  0  0  0
  -28.4703  -17.3791   27.9758 Cl  0  0  0  0  0  0  0  0  0  0  0  0
  1  2  1  0  0  0  0
  1  5  2  0  0  0  0
  2  6  2  0  0  0  0
  3  8  2  0  0  0  0
  3 16  1  0  0  0  0
  4  9  1  0  0  0  0
  4 16  2  0  0  0  0
  5 18  1  0  0  0  0
  6 20  1  0  0  0  0
  7 10  2  0  0  0  0
  7 19  1  0  0  0  0
  8 25  1  0  0  0  0
  9 25  2  0  0  0  0
 10 26  1  0  0  0  0
 11 12  2  0  0  0  0
 11 27  1  0  0  0  0
 12 28  1  0  0  0  0
 13 21  1  0  0  0  0
 13 26  2  0  0  0  0
 14 22  2  0  0  0  0
 14 24  1  0  0  0  0
 15 28  2  0  0  0  0
 15 29  1  0  0  0  0
 16 32  1  0  0  0  0
 17 32  1  0  0  0  0
 17 33  2  0  0  0  0
 17 34  1  0  0  0  0
 18 20  2  0  0  0  0
 18 39  1  0  0  0  0
 19 21  2  0  0  0  0
 19 40  1  0  0  0  0
 20 48  1  0  0  0  0
 21 41  1  0  0  0  0
 22 30  1  0  0  0  0
 22 57  1  0  0  0  0
 23 30  2  0  0  0  0
 23 31  1  0  0  0  0
 23 51  1  0  0  0  0
 24 31  2  0  0  0  0
 24 70  1  0  0  0  0
 25 80  1  0  0  0  0
 26 81  1  0  0  0  0
 27 29  2  0  0  0  0
 27 80  1  0  0  0  0
 28 82  1  0  0  0  0
 29 83  1  0  0  0  0
 30 84  1  0  0  0  0
 31 85  1  0  0  0  0
 32 64  2  0  0  0  0
 33 65  1  0  0  0  0
 33 68  1  0  0  0  0
 34 69  1  0  0  0  0
 34 75  2  0  0  0  0
 35 49  1  0  0  0  0
 35 71  1  0  0  0  0
 35 76  2  0  0  0  0
 36 61  1  0  0  0  0
 36 66  1  0  0  0  0
 36 77  2  0  0  0  0
 37 62  1  0  0  0  0
 37 72  1  0  0  0  0
 37 78  2  0  0  0  0
 38 67  1  0  0  0  0
 38 73  1  0  0  0  0
 38 79  2  0  0  0  0
 39 42  1  0  0  0  0
 40 49  1  0  0  0  0
 41 66  1  0  0  0  0
 42 44  1  0  0  0  0
 43 45  1  0  0  0  0
 43 46  1  0  0  0  0
 44 48  1  0  0  0  0
 45 50  1  0  0  0  0
 46 67  1  0  0  0  0
 47 50  1  0  0  0  0
 47 67  1  0  0  0  0
 48 71  1  0  0  0  0
 49 66  1  0  0  0  0
 50 65  1  0  0  0  0
 52 62  1  0  0  0  0
 53 63  1  0  0  0  0
 54 63  1  0  0  0  0
 55 63  1  0  0  0  0
 56 74  1  0  0  0  0
 57 73  1  0  0  0  0
 58 59  1  0  0  0  0
 58 60  1  0  0  0  0
 59 70  1  0  0  0  0
 60 81  1  0  0  0  0
 61 63  1  0  0  0  0
 61 72  1  0  0  0  0
 62 74  1  0  0  0  0
 64 65  1  0  0  0  0
M  CHG  1  74   1
M  ISO  4  38 100  60 101  73 100  81 101
M  END
> <Batch ID>
0028

> <Smiles>
CNC(C)C(=O)NC(C(=O)N1Cc2cc([101O:1][101CH2:1]CCNc3cc(C[100NH:0][100C:0](=O)N4CCCC(n5nc(-c6ccc(Oc7ccc(F)cc7F)cc6)c(C(N)=O)c5N)C4)c(Cl)c(C)c3Cl)ccc2CC1C(=O)NC1CCCc2ccccc21)C(C)(C)C

> <Shape>
0.150

> <Color>
0.191

> <Negative vol penalty>
0.000

$$$$

  -OEChem-04052316333D

 82 90  0     1  0  0  0  0  0999 V2000
  -14.0174  -19.2716   22.8560 C   0  0  0  0  0  0  0  0  0  0  0  0
  -14.1321  -20.5517   22.3235 C   0  0  0  0  0  0  0  0  0  0  0  0
  -28.0238  -20.1810   19.7340 C   0  0  0  0  0  0  0  0  0  0  0  0
  -30.0654  -20.5596   18.4989 C   0  0  0  0  0  0  0  0  0  0  0  0
  -14.7408  -18.9248   23.9963 C   0  0  0  0  0  0  0  0  0  0  0  0
  -14.9694  -21.4862   22.9317 C   0  0  0  0  0  0  0  0  0  0  0  0
  -19.2322  -27.0232   21.3550 C   0  0  0  0  0  0  0  0  0  0  0  0
  -28.4789  -18.9138   20.0980 C   0  0  0  0  0  0  0  0  0  0  0  0
  -30.5206  -19.2924   18.8630 C   0  0  0  0  0  0  0  0  0  0  0  0
  -19.4501  -28.3520   21.7166 C   0  0  0  0  0  0  0  0  0  0  0  0
  -28.7197  -15.8531   18.6844 C   0  0  0  0  0  0  0  0  0  0  0  0
  -27.8230  -14.7895   18.5835 C   0  0  0  0  0  0  0  0  0  0  0  0
  -20.7120  -27.6163   23.6363 C   0  0  0  0  0  0  0  0  0  0  0  0
  -23.0864  -29.9808   20.7499 C   0  0  0  0  0  0  0  0  0  0  0  0
  -25.7521  -30.6709   21.1976 C   0  0  0  0  0  0  0  0  0  0  0  0
  -28.0513  -14.3725   20.9523 C   0  0  0  0  0  0  0  0  0  0  0  0
  -28.8170  -21.0040   18.9344 C   0  0  0  0  0  0  0  0  0  0  0  0
  -27.1843  -22.6207   17.8261 C   0  0  0  0  0  0  0  0  0  0  0  0
  -15.5948  -19.8525   24.6132 C   0  0  0  0  0  0  0  0  0  0  0  0
  -19.7443  -25.9792   22.1386 C   0  0  0  0  0  0  0  0  0  0  0  0
  -15.7039  -21.1519   24.0822 C   0  0  0  0  0  0  0  0  0  0  0  0
  -20.5015  -26.2752   23.2811 C   0  0  0  0  0  0  0  0  0  0  0  0
  -23.3968  -31.0983   21.5247 C   0  0  0  0  0  0  0  0  0  0  0  0
  -25.4417  -29.5533   20.4228 C   0  0  0  0  0  0  0  0  0  0  0  0
  -29.7274  -18.4695   19.6625 C   0  0  0  0  0  0  0  0  0  0  0  0
  -20.1876  -28.6486   22.8590 C   0  0  0  0  0  0  0  0  0  0  0  0
  -29.2824  -16.1763   19.9191 C   0  0  0  0  0  0  0  0  0  0  0  0
  -27.4887  -14.0492   19.7175 C   0  0  0  0  0  0  0  0  0  0  0  0
  -28.9481  -15.4361   21.0531 C   0  0  0  0  0  0  0  0  0  0  0  0
  -24.1088  -29.2082   20.1990 C   0  0  0  0  0  0  0  0  0  0  0  0
  -24.7297  -31.4434   21.7485 C   0  0  0  0  0  0  0  0  0  0  0  0
  -28.3471  -22.3129   18.5576 C   0  0  0  0  0  0  0  0  0  0  0  0
  -27.1888  -23.9911   17.7350 C   0  0  0  0  0  0  0  0  0  0  0  0
  -26.1892  -21.7460   17.2782 C   0  0  0  0  0  0  0  0  0  0  0  0
  -18.4693  -23.5859   23.7970 C   0  0  0  0  0  0  0  0  0  0  0  0
  -21.5704  -22.7144   24.1794 C   0  0  0  0  0  0  0  0  0  0  0  0
  -24.8543  -23.6414   24.2369 C   0  0  0  0  0  0  0  0  0  0  0  0
  -27.8712  -29.0226   20.0201 C   0  0  0  0  0  0  0  0  0  0  0  0
  -16.3203  -19.4463   25.8716 C   0  0  0  0  0  0  0  0  0  0  0  0
  -19.5232  -24.5514   21.7202 C   0  0  0  0  0  0  0  0  0  0  0  0
  -21.0901  -25.1910   24.1451 C   0  0  0  0  0  0  0  0  0  0  0  0
  -17.4725  -20.3782   26.2381 C   0  0  0  0  0  0  0  0  0  0  0  0
  -30.7977  -27.3559   18.8646 C   0  0  0  0  0  0  0  0  0  0  0  0
  -17.0344  -21.8356   26.1336 C   0  0  0  0  0  0  0  0  0  0  0  0
  -30.3253  -25.9206   18.6215 C   0  0  0  0  0  0  0  0  0  0  0  0
  -30.1237  -27.9753   20.0876 C   0  0  0  0  0  0  0  0  0  0  0  0
  -28.1843  -26.4757   19.8442 C   0  0  0  0  0  0  0  0  0  0  0  0
  -16.6208  -22.1858   24.6991 C   0  0  1  0  0  0  0  0  0  0  0  0
  -19.6554  -23.5631   22.8748 C   0  0  1  0  0  0  0  0  0  0  0  0
  -28.7870  -25.8322   18.5847 C   0  0  2  0  0  0  0  0  0  0  0  0
  -27.3468  -23.3764   24.3590 C   0  0  0  0  0  0  0  0  0  0  0  0
  -21.0531  -22.6567   27.1859 C   0  0  0  0  0  0  0  0  0  0  0  0
  -23.5312  -22.6728   27.5422 C   0  0  0  0  0  0  0  0  0  0  0  0
  -22.4591  -20.7725   26.3329 C   0  0  0  0  0  0  0  0  0  0  0  0
  -25.0734  -23.2589   21.3104 C   0  0  0  0  0  0  0  0  0  0  0  0
  -22.2627  -31.9073   22.1016 C   0  0  0  0  0  0  0  0  0  0  0  0
  -22.0302  -31.6647   23.5945 C   0  0  0  0  0  0  0  0  0  0  0  0
  -21.6097  -30.2352   23.9156 C   0  0  0  0  0  0  0  0  0  1  0  0
  -22.6498  -23.0195   25.1897 C   0  0  1  0  0  0  0  0  0  0  0  0
  -26.0836  -23.0357   23.5838 C   0  0  2  0  0  0  0  0  0  0  0  0
  -22.4107  -22.3010   26.5477 C   0  0  0  0  0  0  0  0  0  0  0  0
  -29.0400  -23.4003   18.9061 N   0  0  0  0  0  0  0  0  0  0  0  0
  -28.3104  -24.4048   18.3914 N   0  0  0  0  0  0  0  0  0  0  0  0
  -20.8409  -23.8107   23.6978 N   0  0  0  0  0  0  0  0  0  0  0  0
  -28.6677  -27.8586   19.9810 N   0  0  0  0  0  0  0  0  0  0  0  0
  -26.3426  -24.8707   17.1580 N   0  0  0  0  0  0  0  0  0  0  0  0
  -26.3666  -21.2664   15.9732 N   0  0  0  0  0  0  0  0  0  0  0  0
  -26.5036  -28.7905   19.8767 N   0  0  0  0  0  0  0  0  0  0  0  0
  -17.7904  -22.3845   23.8702 N   0  0  0  0  0  0  0  0  0  0  0  0
  -23.9160  -22.6805   24.5492 N   0  0  0  0  0  0  0  0  0  0  0  0
  -26.2346  -23.5453   22.1915 N   0  3  0  0  0  0  0  0  0  0  0  0
  -25.1645  -21.4131   17.9206 O   0  0  0  0  0  0  0  0  0  0  0  0
  -18.1916  -24.6166   24.3988 O   0  0  0  0  0  0  0  0  0  0  0  0
  -21.3862  -21.5473   23.8250 O   0  0  0  0  0  0  0  0  0  0  0  0
  -24.7397  -24.8460   24.4522 O   0  0  0  0  0  0  0  0  0  0  0  0
  -28.3681  -30.1452   20.1423 O   0  0  0  0  0  0  0  0  0  0  0  0
  -30.1719  -17.2330   20.0178 O   0  0  0  0  0  0  0  0  0  0  0  0
  -20.4012  -29.9447   23.2146 O   0  0  0  0  0  0  0  0  0  1  0  0
  -26.6263  -13.0289   19.6208 F   0  0  0  0  0  0  0  0  0  0  0  0
  -29.4844  -15.7426   22.2423 F   0  0  0  0  0  0  0  0  0  0  0  0
  -23.6805  -27.8323   19.2463 Cl  0  0  0  0  0  0  0  0  0  0  0  0
  -25.1509  -32.8186   22.7030 Cl  0  0  0  0  0  0  0  0  0  0  0  0
  1  2  1  0  0  0  0
  1  5  2  0  0  0  0
  2  6  2  0  0  0  0
  3  8  2  0  0  0  0
  3 17  1  0  0  0  0
  4  9  1  0  0  0  0
  4 17  2  0  0  0  0
  5 19  1  0  0  0  0
  6 21  1  0  0  0  0
  7 10  2  0  0  0  0
  7 20  1  0  0  0  0
  8 25  1  0  0  0  0
  9 25  2  0  0  0  0
 10 26  1  0  0  0  0
 11 12  2  0  0  0  0
 11 27  1  0  0  0  0
 12 28  1  0  0  0  0
 13 22  1  0  0  0  0
 13 26  2  0  0  0  0
 14 23  1  0  0  0  0
 14 30  2  0  0  0  0
 15 24  2  0  0  0  0
 15 31  1  0  0  0  0
 16 28  2  0  0  0  0
 16 29  1  0  0  0  0
 17 32  1  0  0  0  0
 18 32  1  0  0  0  0
 18 33  2  0  0  0  0
 18 34  1  0  0  0  0
 19 21  2  0  0  0  0
 19 39  1  0  0  0  0
 20 22  2  0  0  0  0
 20 40  1  0  0  0  0
 21 48  1  0  0  0  0
 22 41  1  0  0  0  0
 23 31  2  0  0  0  0
 23 56  1  0  0  0  0
 24 30  1  0  0  0  0
 24 68  1  0  0  0  0
 25 77  1  0  0  0  0
 26 78  1  0  0  0  0
 27 29  2  0  0  0  0
 27 77  1  0  0  0  0
 28 79  1  0  0  0  0
 29 80  1  0  0  0  0
 30 81  1  0  0  0  0
 31 82  1  0  0  0  0
 32 62  2  0  0  0  0
 33 63  1  0  0  0  0
 33 66  1  0  0  0  0
 34 67  1  0  0  0  0
 34 72  2  0  0  0  0
 35 49  1  0  0  0  0
 35 69  1  0  0  0  0
 35 73  2  0  0  0  0
 36 59  1  0  0  0  0
 36 64  1  0  0  0  0
 36 74  2  0  0  0  0
 37 60  1  0  0  0  0
 37 70  1  0  0  0  0
 37 75  2  0  0  0  0
 38 65  1  0  0  0  0
 38 68  1  0  0  0  0
 38 76  2  0  0  0  0
 39 42  1  0  0  0  0
 40 49  1  0  0  0  0
 41 64  1  0  0  0  0
 42 44  1  0  0  0  0
 43 45  1  0  0  0  0
 43 46  1  0  0  0  0
 44 48  1  0  0  0  0
 45 50  1  0  0  0  0
 46 65  1  0  0  0  0
 47 50  1  0  0  0  0
 47 65  1  0  0  0  0
 48 69  1  0  0  0  0
 49 64  1  0  0  0  0
 50 63  1  0  0  0  0
 51 60  1  0  0  0  0
 52 61  1  0  0  0  0
 53 61  1  0  0  0  0
 54 61  1  0  0  0  0
 55 71  1  0  0  0  0
 56 57  1  0  0  0  0
 57 58  1  0  0  0  0
 58 78  1  0  0  0  0
 59 61  1  0  0  0  0
 59 70  1  0  0  0  0
 60 71  1  0  0  0  0
 62 63  1  0  0  0  0
M  CHG  1  71   1
M  ISO  4  38 100  58 101  68 100  78 101
M  END
> <Batch ID>
0028

> <Smiles>
CNC(C)C(=O)NC(C(=O)N1Cc2cc([101O:1][101CH2:1]CCc3cc(Cl)c([100NH:0][100C:0](=O)N4CCCC(n5nc(-c6ccc(Oc7ccc(F)cc7F)cc6)c(C(N)=O)c5N)C4)cc3Cl)ccc2CC1C(=O)NC1CCCc2ccccc21)C(C)(C)C

> <Shape>
0.214

> <Color>
0.061

> <Negative vol penalty>
0.000

$$$$

  -OEChem-04052316333D

 83 91  0     1  0  0  0  0  0999 V2000
  -19.3619  -26.1402   23.4862 C   0  0  0  0  0  0  0  0  0  0  0  0
  -20.5857  -26.0136   22.8368 C   0  0  0  0  0  0  0  0  0  0  0  0
  -24.5440   -8.3838   21.3923 C   0  0  0  0  0  0  0  0  0  0  0  0
  -22.9126  -10.1637   21.4774 C   0  0  0  0  0  0  0  0  0  0  0  0
  -18.4960  -27.1778   23.1431 C   0  0  0  0  0  0  0  0  0  0  0  0
  -20.9439  -26.9240   21.8432 C   0  0  0  0  0  0  0  0  0  0  0  0
  -25.7286  -28.5181   22.3024 C   0  0  0  0  0  0  0  0  0  0  0  0
  -23.8546   -7.7039   22.3963 C   0  0  0  0  0  0  0  0  0  0  0  0
  -22.2231   -9.4837   22.4814 C   0  0  0  0  0  0  0  0  0  0  0  0
  -26.7320  -27.6554   21.8636 C   0  0  0  0  0  0  0  0  0  0  0  0
  -22.3248   -5.3287   24.6840 C   0  0  0  0  0  0  0  0  0  0  0  0
  -22.1173   -3.9598   24.5154 C   0  0  0  0  0  0  0  0  0  0  0  0
  -26.9020  -28.9076   19.8088 C   0  0  0  0  0  0  0  0  0  0  0  0
  -30.5378  -20.2475   19.9128 C   0  0  0  0  0  0  0  0  0  0  0  0
  -28.1574  -18.8282   19.5935 C   0  0  0  0  0  0  0  0  0  0  0  0
  -20.8871   -4.3967   22.4824 C   0  0  0  0  0  0  0  0  0  0  0  0
  -24.0730   -9.6138   20.9329 C   0  0  0  0  0  0  0  0  0  0  0  0
  -24.5913  -10.2059   18.5063 C   0  0  0  0  0  0  0  0  0  0  0  0
  -18.8480  -28.1070   22.1514 C   0  0  0  0  0  0  0  0  0  0  0  0
  -25.2959  -29.5774   21.4917 C   0  0  0  0  0  0  0  0  0  0  0  0
  -20.0814  -27.9741   21.4855 C   0  0  0  0  0  0  0  0  0  0  0  0
  -25.8946  -29.7839   20.2407 C   0  0  0  0  0  0  0  0  0  0  0  0
  -29.4087  -20.8859   19.4000 C   0  0  0  0  0  0  0  0  0  0  0  0
  -30.4769  -18.8994   20.2658 C   0  0  0  0  0  0  0  0  0  0  0  0
  -28.2184  -20.1763   19.2404 C   0  0  0  0  0  0  0  0  0  0  0  0
  -29.2867  -18.1897   20.1062 C   0  0  0  0  0  0  0  0  0  0  0  0
  -22.6941   -8.2538   22.9408 C   0  0  0  0  0  0  0  0  0  0  0  0
  -27.3169  -27.8483   20.6155 C   0  0  0  0  0  0  0  0  0  0  0  0
  -21.8134   -6.2317   23.7519 C   0  0  0  0  0  0  0  0  0  0  0  0
  -21.3985   -3.4937   23.4146 C   0  0  0  0  0  0  0  0  0  0  0  0
  -21.0946   -5.7657   22.6511 C   0  0  0  0  0  0  0  0  0  0  0  0
  -24.7851  -10.3169   19.8962 C   0  0  0  0  0  0  0  0  0  0  0  0
  -25.5071  -11.0725   17.9616 C   0  0  0  0  0  0  0  0  0  0  0  0
  -23.6660   -9.3922   17.7731 C   0  0  0  0  0  0  0  0  0  0  0  0
  -22.5384  -30.3765   20.1274 C   0  0  0  0  0  0  0  0  0  0  0  0
  -24.1614  -33.0692   19.3288 C   0  0  0  0  0  0  0  0  0  0  0  0
  -27.1693  -34.5771   18.7578 C   0  0  0  0  0  0  0  0  0  0  0  0
  -28.0542  -15.9351   20.3597 C   0  0  0  0  0  0  0  0  0  0  0  0
  -17.8589  -29.1838   21.7818 C   0  0  0  0  0  0  0  0  0  0  0  0
  -24.2311  -30.5152   21.9907 C   0  0  0  0  0  0  0  0  0  0  0  0
  -25.4802  -30.9184   19.3408 C   0  0  0  0  0  0  0  0  0  0  0  0
  -18.4748  -30.3274   20.9798 C   0  0  0  0  0  0  0  0  0  0  0  0
  -29.7605  -13.0502   18.7795 C   0  0  0  0  0  0  0  0  0  0  0  0
  -19.3518  -29.7807   19.8578 C   0  0  0  0  0  0  0  0  0  0  0  0
  -28.6642  -11.9920   18.8400 C   0  0  0  0  0  0  0  0  0  0  0  0
  -29.6914  -14.0214   19.9572 C   0  0  0  0  0  0  0  0  0  0  0  0
  -27.2509  -13.6000   20.1738 C   0  0  0  0  0  0  0  0  0  0  0  0
  -20.5164  -28.9564   20.4197 C   0  0  1  0  0  0  0  0  0  0  0  0
  -23.5098  -31.2526   20.8667 C   0  0  1  0  0  0  0  0  0  0  0  0
  -27.2847  -12.6548   18.9640 C   0  0  2  0  0  0  0  0  0  0  0  0
  -31.7018  -18.2410   20.8127 C   0  0  0  0  0  0  0  0  0  0  0  0
  -26.9968  -20.8387   18.6932 C   0  0  0  0  0  0  0  0  0  0  0  0
  -28.1743  -36.7756   18.0840 C   0  0  0  0  0  0  0  0  0  0  0  0
  -23.3461  -32.5521   16.4344 C   0  0  0  0  0  0  0  0  0  0  0  0
  -25.1150  -34.1732   15.7196 C   0  0  0  0  0  0  0  0  0  0  0  0
  -23.2178  -34.9472   17.1423 C   0  0  0  0  0  0  0  0  0  0  0  0
  -28.6472  -34.8159   21.3108 C   0  0  0  0  0  0  0  0  0  0  0  0
  -29.4987  -22.3437   19.0250 C   0  0  0  0  0  0  0  0  0  0  0  0
  -28.8407  -23.2857   20.0394 C   0  0  0  0  0  0  0  0  0  0  0  0
  -28.8744  -24.7515   19.6045 C   0  0  0  0  0  0  0  0  0  0  0  0
  -28.2483  -25.6604   20.6535 C   0  0  0  0  0  0  0  0  0  1  0  0
  -25.0186  -33.4941   18.1610 C   0  0  1  0  0  0  0  0  0  0  0  0
  -27.7446  -35.8941   19.2464 C   0  0  2  0  0  0  0  0  0  0  0  0
  -24.1811  -33.7690   16.8802 C   0  0  0  0  0  0  0  0  0  0  0  0
  -25.7485  -11.1854   20.2148 N   0  0  0  0  0  0  0  0  0  0  0  0
  -26.1683  -11.6280   19.0173 N   0  0  0  0  0  0  0  0  0  0  0  0
  -24.4306  -31.8044   19.8707 N   0  0  0  0  0  0  0  0  0  0  0  0
  -28.3439  -14.5784   20.1343 N   0  0  0  0  0  0  0  0  0  0  0  0
  -25.8034  -11.4059   16.6875 N   0  0  0  0  0  0  0  0  0  0  0  0
  -22.7957   -8.5592   18.4893 N   0  0  0  0  0  0  0  0  0  0  0  0
  -29.2038  -16.8030   20.4635 N   0  0  0  0  0  0  0  0  0  0  0  0
  -21.5541  -29.8282   20.9273 N   0  0  0  0  0  0  0  0  0  0  0  0
  -25.7984  -34.6377   18.6219 N   0  0  0  0  0  0  0  0  0  0  0  0
  -28.9308  -35.6507   20.1151 N   0  3  0  0  0  0  0  0  0  0  0  0
  -23.6239   -9.3914   16.5194 O   0  0  0  0  0  0  0  0  0  0  0  0
  -22.6712  -30.2116   18.9204 O   0  0  0  0  0  0  0  0  0  0  0  0
  -23.2901  -33.8344   19.7494 O   0  0  0  0  0  0  0  0  0  0  0  0
  -27.8665  -33.5941   18.5169 O   0  0  0  0  0  0  0  0  0  0  0  0
  -26.9067  -16.3532   20.5021 O   0  0  0  0  0  0  0  0  0  0  0  0
  -22.0210   -7.5905   23.9203 O   0  0  0  0  0  0  0  0  0  0  0  0
  -28.2961  -27.0073   20.1846 O   0  0  0  0  0  0  0  0  0  1  0  0
  -21.2006   -2.1790   23.2519 F   0  0  0  0  0  0  0  0  0  0  0  0
  -20.6019   -6.6283   21.7517 F   0  0  0  0  0  0  0  0  0  0  0  0
  1  2  1  0  0  0  0
  1  5  2  0  0  0  0
  2  6  2  0  0  0  0
  3  8  2  0  0  0  0
  3 17  1  0  0  0  0
  4  9  1  0  0  0  0
  4 17  2  0  0  0  0
  5 19  1  0  0  0  0
  6 21  1  0  0  0  0
  7 10  2  0  0  0  0
  7 20  1  0  0  0  0
  8 27  1  0  0  0  0
  9 27  2  0  0  0  0
 10 28  1  0  0  0  0
 11 12  2  0  0  0  0
 11 29  1  0  0  0  0
 12 30  1  0  0  0  0
 13 22  1  0  0  0  0
 13 28  2  0  0  0  0
 14 23  1  0  0  0  0
 14 24  2  0  0  0  0
 15 25  1  0  0  0  0
 15 26  2  0  0  0  0
 16 30  2  0  0  0  0
 16 31  1  0  0  0  0
 17 32  1  0  0  0  0
 18 32  1  0  0  0  0
 18 33  2  0  0  0  0
 18 34  1  0  0  0  0
 19 21  2  0  0  0  0
 19 39  1  0  0  0  0
 20 22  2  0  0  0  0
 20 40  1  0  0  0  0
 21 48  1  0  0  0  0
 22 41  1  0  0  0  0
 23 25  2  0  0  0  0
 23 58  1  0  0  0  0
 24 26  1  0  0  0  0
 24 51  1  0  0  0  0
 25 52  1  0  0  0  0
 26 71  1  0  0  0  0
 27 80  1  0  0  0  0
 28 81  1  0  0  0  0
 29 31  2  0  0  0  0
 29 80  1  0  0  0  0
 30 82  1  0  0  0  0
 31 83  1  0  0  0  0
 32 65  2  0  0  0  0
 33 66  1  0  0  0  0
 33 69  1  0  0  0  0
 34 70  1  0  0  0  0
 34 75  2  0  0  0  0
 35 49  1  0  0  0  0
 35 72  1  0  0  0  0
 35 76  2  0  0  0  0
 36 62  1  0  0  0  0
 36 67  1  0  0  0  0
 36 77  2  0  0  0  0
 37 63  1  0  0  0  0
 37 73  1  0  0  0  0
 37 78  2  0  0  0  0
 38 68  1  0  0  0  0
 38 71  1  0  0  0  0
 38 79  2  0  0  0  0
 39 42  1  0  0  0  0
 40 49  1  0  0  0  0
 41 67  1  0  0  0  0
 42 44  1  0  0  0  0
 43 45  1  0  0  0  0
 43 46  1  0  0  0  0
 44 48  1  0  0  0  0
 45 50  1  0  0  0  0
 46 68  1  0  0  0  0
 47 50  1  0  0  0  0
 47 68  1  0  0  0  0
 48 72  1  0  0  0  0
 49 67  1  0  0  0  0
 50 66  1  0  0  0  0
 53 63  1  0  0  0  0
 54 64  1  0  0  0  0
 55 64  1  0  0  0  0
 56 64  1  0  0  0  0
 57 74  1  0  0  0  0
 58 59  1  0  0  0  0
 59 60  1  0  0  0  0
 60 61  1  0  0  0  0
 61 81  1  0  0  0  0
 62 64  1  0  0  0  0
 62 73  1  0  0  0  0
 63 74  1  0  0  0  0
 65 66  1  0  0  0  0
M  CHG  1  74   1
M  ISO  4  38 100  61 101  71 100  81 101
M  END
> <Batch ID>
0028

> <Smiles>
CNC(C)C(=O)NC(C(=O)N1Cc2cc([101O:1][101CH2:1]CCCc3cc(C)c([100NH:0][100C:0](=O)N4CCCC(n5nc(-c6ccc(Oc7ccc(F)cc7F)cc6)c(C(N)=O)c5N)C4)cc3C)ccc2CC1C(=O)NC1CCCc2ccccc21)C(C)(C)C

> <Shape>
0.280

> <Color>
0.108

> <Negative vol penalty>
0.000

$$$$

  -OEChem-04052316333D

 84 93  0     1  0  0  0  0  0999 V2000
  -27.5687  -38.3629   23.7841 C   0  0  0  0  0  0  0  0  0  0  0  0
  -28.2767  -37.2186   24.1369 C   0  0  0  0  0  0  0  0  0  0  0  0
  -24.0768   -9.0110   19.5685 C   0  0  0  0  0  0  0  0  0  0  0  0
  -24.2504   -9.6627   21.8885 C   0  0  0  0  0  0  0  0  0  0  0  0
  -26.1754  -38.3635   23.8377 C   0  0  0  0  0  0  0  0  0  0  0  0
  -27.5919  -36.0743   24.5447 C   0  0  0  0  0  0  0  0  0  0  0  0
  -28.3715  -29.8356   21.0287 C   0  0  0  0  0  0  0  0  0  0  0  0
  -22.9969   -8.1854   19.8812 C   0  0  0  0  0  0  0  0  0  0  0  0
  -23.1704   -8.8372   22.2012 C   0  0  0  0  0  0  0  0  0  0  0  0
  -28.6293  -28.5556   20.5377 C   0  0  0  0  0  0  0  0  0  0  0  0
  -22.6189   -5.5395   22.7032 C   0  0  0  0  0  0  0  0  0  0  0  0
  -22.7298   -4.7269   23.8314 C   0  0  0  0  0  0  0  0  0  0  0  0
  -26.9800  -27.6330   22.0465 C   0  0  0  0  0  0  0  0  0  0  0  0
  -20.8006   -5.8106   24.8015 C   0  0  0  0  0  0  0  0  0  0  0  0
  -24.7036   -9.7496   20.5721 C   0  0  0  0  0  0  0  0  0  0  0  0
  -27.0487  -10.2156   19.6828 C   0  0  0  0  0  0  0  0  0  0  0  0
  -25.4729  -37.2156   24.2371 C   0  0  0  0  0  0  0  0  0  0  0  0
  -27.4048  -30.0214   22.0209 C   0  0  0  0  0  0  0  0  0  0  0  0
  -26.1881  -36.0600   24.6050 C   0  0  0  0  0  0  0  0  0  0  0  0
  -26.7086  -28.9144   22.5334 C   0  0  0  0  0  0  0  0  0  0  0  0
  -27.7042  -22.6195   19.3741 C   0  0  0  0  0  0  0  0  0  0  0  0
  -27.7567  -21.2718   18.8919 C   0  0  0  0  0  0  0  0  0  0  0  0
  -22.5436   -8.0985   21.1975 C   0  0  0  0  0  0  0  0  0  0  0  0
  -27.9354  -27.4570   21.0455 C   0  0  0  0  0  0  0  0  0  0  0  0
  -21.5989   -6.4877   22.6241 C   0  0  0  0  0  0  0  0  0  0  0  0
  -21.8206   -4.8624   24.8806 C   0  0  0  0  0  0  0  0  0  0  0  0
  -20.6898   -6.6232   23.6733 C   0  0  0  0  0  0  0  0  0  0  0  0
  -25.8195  -10.6022   20.2499 C   0  0  0  0  0  0  0  0  0  0  0  0
  -26.3981  -23.0281   19.5725 C   0  0  0  0  0  0  0  0  0  0  0  0
  -26.5075  -20.7138   18.7439 C   0  0  0  0  0  0  0  0  0  0  0  0
  -27.7610  -11.3852   19.5770 C   0  0  0  0  0  0  0  0  0  0  0  0
  -27.5057   -8.9155   19.2870 C   0  0  0  0  0  0  0  0  0  0  0  0
  -25.5758  -32.4348   24.2358 C   0  0  0  0  0  0  0  0  0  0  0  0
  -23.5118  -30.3912   23.2489 C   0  0  0  0  0  0  0  0  0  0  0  0
  -21.4796  -28.1969   21.6080 C   0  0  0  0  0  0  0  0  0  0  0  0
  -26.0363  -17.0084   19.0674 C   0  0  0  0  0  0  0  0  0  0  0  0
  -23.9686  -37.2790   24.3247 C   0  0  0  0  0  0  0  0  0  0  0  0
  -27.1379  -31.3742   22.6228 C   0  0  0  0  0  0  0  0  0  0  0  0
  -28.9023  -23.4778   19.6318 C   0  0  0  0  0  0  0  0  0  0  0  0
  -25.7021  -29.1574   23.6246 C   0  0  0  0  0  0  0  0  0  0  0  0
  -25.9332  -24.3619   20.0664 C   0  0  0  0  0  0  0  0  0  0  0  0
  -23.3049  -35.9069   24.4082 C   0  0  0  0  0  0  0  0  0  0  0  0
  -28.9862  -23.9748   21.0790 C   0  0  0  0  0  0  0  0  0  0  0  0
  -26.5198  -24.7070   21.4403 C   0  0  0  0  0  0  0  0  0  0  0  0
  -28.2260  -15.6851   21.6269 C   0  0  0  0  0  0  0  0  0  0  0  0
  -24.0197  -35.0295   25.4309 C   0  0  0  0  0  0  0  0  0  0  0  0
  -27.9662  -14.1827   21.5024 C   0  0  0  0  0  0  0  0  0  0  0  0
  -26.9460  -16.4871   21.4112 C   0  0  0  0  0  0  0  0  0  0  0  0
  -25.9954  -14.7098   19.9931 C   0  0  0  0  0  0  0  0  0  0  0  0
  -25.4802  -34.7913   25.0287 C   0  0  1  0  0  0  0  0  0  0  0  0
  -25.6611  -31.5854   23.0019 C   0  0  1  0  0  0  0  0  0  0  0  0
  -27.2554  -13.8447   20.1785 C   0  0  2  0  0  0  0  0  0  0  0  0
  -28.0107  -25.1129   21.4575 C   0  0  1  0  0  0  0  0  0  1  0  0
  -29.0116  -20.5400   18.5806 C   0  0  0  0  0  0  0  0  0  0  0  0
  -28.3634  -25.6185   22.8660 C   0  0  0  0  0  0  0  0  0  0  0  0
  -19.0738  -27.5117   21.4089 C   0  0  0  0  0  0  0  0  0  0  0  0
  -23.7099  -28.9330   25.9207 C   0  0  0  0  0  0  0  0  0  0  0  0
  -21.7405  -27.5495   25.2310 C   0  0  0  0  0  0  0  0  0  0  0  0
  -21.4996  -30.0193   25.4860 C   0  0  0  0  0  0  0  0  0  0  0  0
  -21.3978  -28.8959   18.7333 C   0  0  0  0  0  0  0  0  0  0  0  0
  -26.1431  -19.3577   18.2759 C   0  0  0  0  0  0  0  0  0  0  0  0
  -22.7865  -29.0964   23.5152 C   0  0  1  0  0  0  0  0  0  0  0  0
  -20.1771  -28.3999   20.8552 C   0  0  2  0  0  0  0  0  0  0  0  0
  -22.4575  -28.9004   25.0221 C   0  0  0  0  0  0  0  0  0  0  0  0
  -25.7516  -11.9147   20.4878 N   0  0  0  0  0  0  0  0  0  0  0  0
  -26.9470  -12.3631   20.0683 N   0  0  0  0  0  0  0  0  0  0  0  0
  -24.9099  -30.3589   23.3189 N   0  0  0  0  0  0  0  0  0  0  0  0
  -26.3290  -16.1319   20.1254 N   0  0  0  0  0  0  0  0  0  0  0  0
  -28.9979  -11.6622   19.1127 N   0  0  0  0  0  0  0  0  0  0  0  0
  -28.1820   -8.1294   20.2299 N   0  0  0  0  0  0  0  0  0  0  0  0
  -25.5602  -33.7934   23.9836 N   0  0  0  0  0  0  0  0  0  0  0  0
  -21.6167  -29.0971   22.6434 N   0  0  0  0  0  0  0  0  0  0  0  0
  -26.3772  -18.3393   19.2754 N   0  0  0  0  0  0  0  0  0  0  0  0
  -20.3581  -28.0795   19.4111 N   0  3  0  0  0  0  0  0  0  0  0  0
  -27.3343   -8.4709   18.1267 O   0  0  0  0  0  0  0  0  0  0  0  0
  -25.5261  -31.8983   25.3364 O   0  0  0  0  0  0  0  0  0  0  0  0
  -22.8589  -31.4063   22.9913 O   0  0  0  0  0  0  0  0  0  0  0  0
  -22.2923  -27.3245   21.3098 O   0  0  0  0  0  0  0  0  0  0  0  0
  -25.5143  -16.6319   18.0124 O   0  0  0  0  0  0  0  0  0  0  0  0
  -21.4897   -7.2932   21.5030 O   0  0  0  0  0  0  0  0  0  0  0  0
  -28.1889  -26.2107   20.5584 O   0  0  0  0  0  0  0  0  0  1  0  0
  -21.9263   -4.0809   25.9633 F   0  0  0  0  0  0  0  0  0  0  0  0
  -19.7071   -7.5316   23.6025 F   0  0  0  0  0  0  0  0  0  0  0  0
  -25.2687  -21.8036   19.1814 S   0  0  0  0  0  0  0  0  0  0  0  0
  1  2  1  0  0  0  0
  1  5  2  0  0  0  0
  2  6  2  0  0  0  0
  3  8  2  0  0  0  0
  3 15  1  0  0  0  0
  4  9  1  0  0  0  0
  4 15  2  0  0  0  0
  5 17  1  0  0  0  0
  6 19  1  0  0  0  0
  7 10  2  0  0  0  0
  7 18  1  0  0  0  0
  8 23  1  0  0  0  0
  9 23  2  0  0  0  0
 10 24  1  0  0  0  0
 11 12  2  0  0  0  0
 11 25  1  0  0  0  0
 12 26  1  0  0  0  0
 13 20  1  0  0  0  0
 13 24  2  0  0  0  0
 14 26  2  0  0  0  0
 14 27  1  0  0  0  0
 15 28  1  0  0  0  0
 16 28  1  0  0  0  0
 16 31  2  0  0  0  0
 16 32  1  0  0  0  0
 17 19  2  0  0  0  0
 17 37  1  0  0  0  0
 18 20  2  0  0  0  0
 18 38  1  0  0  0  0
 19 50  1  0  0  0  0
 20 40  1  0  0  0  0
 21 22  1  0  0  0  0
 21 29  2  0  0  0  0
 21 39  1  0  0  0  0
 22 30  2  0  0  0  0
 22 54  1  0  0  0  0
 23 80  1  0  0  0  0
 24 81  1  0  0  0  0
 25 27  2  0  0  0  0
 25 80  1  0  0  0  0
 26 82  1  0  0  0  0
 27 83  1  0  0  0  0
 28 65  2  0  0  0  0
 29 41  1  0  0  0  0
 29 84  1  0  0  0  0
 30 61  1  0  0  0  0
 30 84  1  0  0  0  0
 31 66  1  0  0  0  0
 31 69  1  0  0  0  0
 32 70  1  0  0  0  0
 32 75  2  0  0  0  0
 33 51  1  0  0  0  0
 33 71  1  0  0  0  0
 33 76  2  0  0  0  0
 34 62  1  0  0  0  0
 34 67  1  0  0  0  0
 34 77  2  0  0  0  0
 35 63  1  0  0  0  0
 35 72  1  0  0  0  0
 35 78  2  0  0  0  0
 36 68  1  0  0  0  0
 36 73  1  0  0  0  0
 36 79  2  0  0  0  0
 37 42  1  0  0  0  0
 38 51  1  0  0  0  0
 39 43  1  0  0  0  0
 40 67  1  0  0  0  0
 41 44  1  0  0  0  0
 42 46  1  0  0  0  0
 43 53  1  0  0  0  0
 44 53  1  0  0  0  0
 45 47  1  0  0  0  0
 45 48  1  0  0  0  0
 46 50  1  0  0  0  0
 47 52  1  0  0  0  0
 48 68  1  0  0  0  0
 49 52  1  0  0  0  0
 49 68  1  0  0  0  0
 50 71  1  0  0  0  0
 51 67  1  0  0  0  0
 52 66  1  0  0  0  0
 53 55  1  0  0  0  0
 53 81  1  0  0  0  0
 56 63  1  0  0  0  0
 57 64  1  0  0  0  0
 58 64  1  0  0  0  0
 59 64  1  0  0  0  0
 60 74  1  0  0  0  0
 61 73  1  0  0  0  0
 62 64  1  0  0  0  0
 62 72  1  0  0  0  0
 63 74  1  0  0  0  0
 65 66  1  0  0  0  0
M  CHG  1  74   1
M  ISO  4  36 100  53 101  73 100  81 101
M  END
> <Batch ID>
0028

> <Smiles>
CNC(C)C(=O)NC(C(=O)N1Cc2cc([101O:1][101C:1]3(C)CCc4sc(C[100NH:0][100C:0](=O)N5CCCC(n6nc(-c7ccc(Oc8ccc(F)cc8F)cc7)c(C(N)=O)c6N)C5)c(C)c4CC3)ccc2CC1C(=O)NC1CCCc2ccccc21)C(C)(C)C

> <Shape>
0.302

> <Color>
0.116

> <Negative vol penalty>
0.000

$$$$

  -OEChem-04052316333D

 81 89  0     1  0  0  0  0  0999 V2000
  -16.9613  -28.3916   24.4757 C   0  0  0  0  0  0  0  0  0  0  0  0
  -17.4237  -27.3675   23.6555 C   0  0  0  0  0  0  0  0  0  0  0  0
  -24.4421   -9.0814   21.6074 C   0  0  0  0  0  0  0  0  0  0  0  0
  -22.9209  -10.4954   20.3731 C   0  0  0  0  0  0  0  0  0  0  0  0
  -17.5326  -29.6608   24.3935 C   0  0  0  0  0  0  0  0  0  0  0  0
  -18.4570  -27.6123   22.7517 C   0  0  0  0  0  0  0  0  0  0  0  0
  -22.8680  -23.7155   21.0594 C   0  0  0  0  0  0  0  0  0  0  0  0
  -23.3608   -8.3623   22.1163 C   0  0  0  0  0  0  0  0  0  0  0  0
  -21.8395   -9.7762   20.8820 C   0  0  0  0  0  0  0  0  0  0  0  0
  -23.0147  -22.8919   19.9441 C   0  0  0  0  0  0  0  0  0  0  0  0
  -21.2593   -5.9370   21.0511 C   0  0  0  0  0  0  0  0  0  0  0  0
  -21.3493   -4.5451   21.0520 C   0  0  0  0  0  0  0  0  0  0  0  0
  -24.3551  -24.5888   18.8748 C   0  0  0  0  0  0  0  0  0  0  0  0
  -24.7195  -19.3216   17.6892 C   0  0  0  0  0  0  0  0  0  0  0  0
  -27.0499  -19.2498   19.2211 C   0  0  0  0  0  0  0  0  0  0  0  0
  -21.1085   -4.5312   23.4560 C   0  0  0  0  0  0  0  0  0  0  0  0
  -24.2222  -10.1480   20.7358 C   0  0  0  0  0  0  0  0  0  0  0  0
  -26.0540  -10.6283   19.0266 C   0  0  0  0  0  0  0  0  0  0  0  0
  -18.5799  -29.9188   23.4951 C   0  0  0  0  0  0  0  0  0  0  0  0
  -23.4556  -24.9885   21.0863 C   0  0  0  0  0  0  0  0  0  0  0  0
  -19.0419  -28.8865   22.6565 C   0  0  0  0  0  0  0  0  0  0  0  0
  -24.2164  -25.4256   19.9926 C   0  0  0  0  0  0  0  0  0  0  0  0
  -25.7202  -20.2708   17.4814 C   0  0  0  0  0  0  0  0  0  0  0  0
  -26.0492  -18.3006   19.4290 C   0  0  0  0  0  0  0  0  0  0  0  0
  -22.0594   -8.7096   21.7537 C   0  0  0  0  0  0  0  0  0  0  0  0
  -23.7559  -23.3296   18.8504 C   0  0  0  0  0  0  0  0  0  0  0  0
  -21.0940   -6.6261   22.2526 C   0  0  0  0  0  0  0  0  0  0  0  0
  -21.2739   -3.8421   22.2545 C   0  0  0  0  0  0  0  0  0  0  0  0
  -24.8839  -18.3365   18.6631 C   0  0  0  0  0  0  0  0  0  0  0  0
  -21.0186   -5.9231   23.4550 C   0  0  0  0  0  0  0  0  0  0  0  0
  -26.8854  -20.2349   18.2473 C   0  0  0  0  0  0  0  0  0  0  0  0
  -25.3388  -10.8917   20.2102 C   0  0  0  0  0  0  0  0  0  0  0  0
  -27.0094  -11.6137   18.9762 C   0  0  0  0  0  0  0  0  0  0  0  0
  -25.8710   -9.5861   18.0591 C   0  0  0  0  0  0  0  0  0  0  0  0
  -22.3556  -27.9625   21.3079 C   0  0  0  0  0  0  0  0  0  0  0  0
  -25.5093  -28.7006   21.4863 C   0  0  0  0  0  0  0  0  0  0  0  0
  -28.7339  -27.8231   20.7943 C   0  0  0  0  0  0  0  0  0  0  0  0
  -27.3135  -17.1255   21.2639 C   0  0  0  0  0  0  0  0  0  0  0  0
  -19.1340  -31.3189   23.4087 C   0  0  0  0  0  0  0  0  0  0  0  0
  -23.3102  -25.8542   22.3078 C   0  0  0  0  0  0  0  0  0  0  0  0
  -24.8843  -26.7755   19.9801 C   0  0  0  0  0  0  0  0  0  0  0  0
  -20.4779  -31.3988   22.6891 C   0  0  0  0  0  0  0  0  0  0  0  0
  -29.6072  -14.4596   21.8199 C   0  0  0  0  0  0  0  0  0  0  0  0
  -20.4401  -30.5902   21.3962 C   0  0  0  0  0  0  0  0  0  0  0  0
  -28.8402  -13.2189   21.3568 C   0  0  0  0  0  0  0  0  0  0  0  0
  -28.6897  -15.4704   22.5056 C   0  0  0  0  0  0  0  0  0  0  0  0
  -26.7379  -14.6186   21.2670 C   0  0  0  0  0  0  0  0  0  0  0  0
  -20.1778  -29.1064   21.6810 C   0  0  1  0  0  0  0  0  0  0  0  0
  -23.5226  -27.3368   22.0180 C   0  0  1  0  0  0  0  0  0  0  0  0
  -27.6084  -13.6004   20.5126 C   0  0  2  0  0  0  0  0  0  0  0  0
  -31.0929  -28.6461   21.0282 C   0  0  0  0  0  0  0  0  0  0  0  0
  -25.0554  -30.6491   19.1825 C   0  0  0  0  0  0  0  0  0  0  0  0
  -27.5348  -30.7149   18.8415 C   0  0  0  0  0  0  0  0  0  0  0  0
  -26.5522  -31.5056   20.9937 C   0  0  0  0  0  0  0  0  0  0  0  0
  -29.4999  -25.5045   22.4666 C   0  0  0  0  0  0  0  0  0  0  0  0
  -25.5027  -21.3191   16.4175 C   0  0  0  0  0  0  0  0  0  0  0  0
  -25.1032  -22.6681   17.0057 C   0  0  0  0  0  0  0  0  0  1  0  0
  -26.5887  -29.0297   20.4834 C   0  0  1  0  0  0  0  0  0  0  0  0
  -29.9833  -27.8172   21.6564 C   0  0  2  0  0  0  0  0  0  0  0  0
  -26.4187  -30.4501   19.8744 C   0  0  0  0  0  0  0  0  0  0  0  0
  -25.8005  -11.9606   20.8646 N   0  0  0  0  0  0  0  0  0  0  0  0
  -26.8162  -12.3775   20.0896 N   0  0  0  0  0  0  0  0  0  0  0  0
  -24.7076  -27.5878   21.1952 N   0  0  0  0  0  0  0  0  0  0  0  0
  -27.5475  -15.7874   21.6455 N   0  0  0  0  0  0  0  0  0  0  0  0
  -27.9877  -11.8927   18.0888 N   0  0  0  0  0  0  0  0  0  0  0  0
  -24.8419   -8.6570   18.2644 N   0  0  0  0  0  0  0  0  0  0  0  0
  -26.2182  -17.3009   20.4187 N   0  0  0  0  0  0  0  0  0  0  0  0
  -21.3839  -28.4617   22.1541 N   0  0  0  0  0  0  0  0  0  0  0  0
  -27.8597  -28.8215   21.1687 N   0  0  0  0  0  0  0  0  0  0  0  0
  -30.4818  -26.4244   21.8367 N   0  3  0  0  0  0  0  0  0  0  0  0
  -26.6088   -9.4722   17.0511 O   0  0  0  0  0  0  0  0  0  0  0  0
  -22.3387  -27.9916   20.0829 O   0  0  0  0  0  0  0  0  0  0  0  0
  -25.3867  -29.4008   22.4944 O   0  0  0  0  0  0  0  0  0  0  0  0
  -28.5532  -27.0243   19.8778 O   0  0  0  0  0  0  0  0  0  0  0  0
  -28.0479  -18.0443   21.6358 O   0  0  0  0  0  0  0  0  0  0  0  0
  -21.0040   -8.0079   22.2499 O   0  0  0  0  0  0  0  0  0  0  0  0
  -23.9002  -22.5279   17.7603 O   0  0  0  0  0  0  0  0  0  1  0  0
  -21.3588   -2.5054   22.2551 F   0  0  0  0  0  0  0  0  0  0  0  0
  -23.9157  -17.4292   18.8545 F   0  0  0  0  0  0  0  0  0  0  0  0
  -20.8586   -6.5795   24.6123 F   0  0  0  0  0  0  0  0  0  0  0  0
  -28.1441  -21.3938   18.0182 Cl  0  0  0  0  0  0  0  0  0  0  0  0
  1  2  1  0  0  0  0
  1  5  2  0  0  0  0
  2  6  2  0  0  0  0
  3  8  2  0  0  0  0
  3 17  1  0  0  0  0
  4  9  1  0  0  0  0
  4 17  2  0  0  0  0
  5 19  1  0  0  0  0
  6 21  1  0  0  0  0
  7 10  2  0  0  0  0
  7 20  1  0  0  0  0
  8 25  1  0  0  0  0
  9 25  2  0  0  0  0
 10 26  1  0  0  0  0
 11 12  2  0  0  0  0
 11 27  1  0  0  0  0
 12 28  1  0  0  0  0
 13 22  1  0  0  0  0
 13 26  2  0  0  0  0
 14 23  1  0  0  0  0
 14 29  2  0  0  0  0
 15 24  2  0  0  0  0
 15 31  1  0  0  0  0
 16 28  2  0  0  0  0
 16 30  1  0  0  0  0
 17 32  1  0  0  0  0
 18 32  1  0  0  0  0
 18 33  2  0  0  0  0
 18 34  1  0  0  0  0
 19 21  2  0  0  0  0
 19 39  1  0  0  0  0
 20 22  2  0  0  0  0
 20 40  1  0  0  0  0
 21 48  1  0  0  0  0
 22 41  1  0  0  0  0
 23 31  2  0  0  0  0
 23 56  1  0  0  0  0
 24 29  1  0  0  0  0
 24 67  1  0  0  0  0
 25 76  1  0  0  0  0
 26 77  1  0  0  0  0
 27 30  2  0  0  0  0
 27 76  1  0  0  0  0
 28 78  1  0  0  0  0
 29 79  1  0  0  0  0
 30 80  1  0  0  0  0
 31 81  1  0  0  0  0
 32 61  2  0  0  0  0
 33 62  1  0  0  0  0
 33 65  1  0  0  0  0
 34 66  1  0  0  0  0
 34 71  2  0  0  0  0
 35 49  1  0  0  0  0
 35 68  1  0  0  0  0
 35 72  2  0  0  0  0
 36 58  1  0  0  0  0
 36 63  1  0  0  0  0
 36 73  2  0  0  0  0
 37 59  1  0  0  0  0
 37 69  1  0  0  0  0
 37 74  2  0  0  0  0
 38 64  1  0  0  0  0
 38 67  1  0  0  0  0
 38 75  2  0  0  0  0
 39 42  1  0  0  0  0
 40 49  1  0  0  0  0
 41 63  1  0  0  0  0
 42 44  1  0  0  0  0
 43 45  1  0  0  0  0
 43 46  1  0  0  0  0
 44 48  1  0  0  0  0
 45 50  1  0  0  0  0
 46 64  1  0  0  0  0
 47 50  1  0  0  0  0
 47 64  1  0  0  0  0
 48 68  1  0  0  0  0
 49 63  1  0  0  0  0
 50 62  1  0  0  0  0
 51 59  1  0  0  0  0
 52 60  1  0  0  0  0
 53 60  1  0  0  0  0
 54 60  1  0  0  0  0
 55 70  1  0  0  0  0
 56 57  1  0  0  0  0
 57 77  1  0  0  0  0
 58 60  1  0  0  0  0
 58 69  1  0  0  0  0
 59 70  1  0  0  0  0
 61 62  1  0  0  0  0
M  CHG  1  70   1
M  ISO  4  38 100  57 101  67 100  77 101
M  END
> <Batch ID>
0028

> <Smiles>
CNC(C)C(=O)NC(C(=O)N1Cc2cc([101O:1][101CH2:1]Cc3cc(F)c([100NH:0][100C:0](=O)N4CCCC(n5nc(-c6ccc(Oc7ccc(F)cc7F)cc6)c(C(N)=O)c5N)C4)cc3Cl)ccc2CC1C(=O)NC1CCCc2ccccc21)C(C)(C)C

> <Shape>
0.250

> <Color>
0.080

> <Negative vol penalty>
0.000

$$$$

  -OEChem-04052316333D

 90 99  0     1  0  0  0  0  0999 V2000
  -17.3511  -30.2097   22.9285 C   0  0  0  0  0  0  0  0  0  0  0  0
  -18.6849  -30.5139   22.6755 C   0  0  0  0  0  0  0  0  0  0  0  0
  -26.6893  -12.8532   21.3669 C   0  0  0  0  0  0  0  0  0  0  0  0
  -25.3538  -14.6468   20.4523 C   0  0  0  0  0  0  0  0  0  0  0  0
  -17.0009  -28.9380   23.3800 C   0  0  0  0  0  0  0  0  0  0  0  0
  -19.6694  -29.5467   22.8749 C   0  0  0  0  0  0  0  0  0  0  0  0
  -24.7870  -28.7732   19.6013 C   0  0  0  0  0  0  0  0  0  0  0  0
  -25.5276  -12.1445   21.6733 C   0  0  0  0  0  0  0  0  0  0  0  0
  -24.1921  -13.9381   20.7587 C   0  0  0  0  0  0  0  0  0  0  0  0
  -26.1064  -29.1697   19.8153 C   0  0  0  0  0  0  0  0  0  0  0  0
  -23.2711  -10.2324   20.0348 C   0  0  0  0  0  0  0  0  0  0  0  0
  -23.2387   -8.8738   19.7206 C   0  0  0  0  0  0  0  0  0  0  0  0
  -26.5982  -27.0040   20.7571 C   0  0  0  0  0  0  0  0  0  0  0  0
  -30.0031  -22.1994   18.5809 C   0  0  0  0  0  0  0  0  0  0  0  0
  -31.9371  -22.5789   19.9782 C   0  0  0  0  0  0  0  0  0  0  0  0
  -22.8915   -8.3429   22.0518 C   0  0  0  0  0  0  0  0  0  0  0  0
  -26.6024  -14.1044   20.7565 C   0  0  0  0  0  0  0  0  0  0  0  0
  -28.5431  -14.7797   19.2448 C   0  0  0  0  0  0  0  0  0  0  0  0
  -17.9805  -27.9517   23.5758 C   0  0  0  0  0  0  0  0  0  0  0  0
  -24.3599  -27.4906   19.9741 C   0  0  0  0  0  0  0  0  0  0  0  0
  -19.3320  -28.2610   23.3307 C   0  0  0  0  0  0  0  0  0  0  0  0
  -25.2736  -26.5927   20.5443 C   0  0  0  0  0  0  0  0  0  0  0  0
  -30.5259  -23.0666   17.6216 C   0  0  0  0  0  0  0  0  0  0  0  0
  -31.7544  -23.6899   17.8406 C   0  0  0  0  0  0  0  0  0  0  0  0
  -30.7086  -21.9556   19.7592 C   0  0  0  0  0  0  0  0  0  0  0  0
  -24.2790  -12.6869   21.3692 C   0  0  0  0  0  0  0  0  0  0  0  0
  -27.0115  -28.2862   20.3960 C   0  0  0  0  0  0  0  0  0  0  0  0
  -23.1137  -10.6463   21.3575 C   0  0  0  0  0  0  0  0  0  0  0  0
  -23.0489   -7.9290   20.7290 C   0  0  0  0  0  0  0  0  0  0  0  0
  -22.9239   -9.7015   22.3660 C   0  0  0  0  0  0  0  0  0  0  0  0
  -32.4600  -23.4461   19.0189 C   0  0  0  0  0  0  0  0  0  0  0  0
  -27.8020  -14.8372   20.4403 C   0  0  0  0  0  0  0  0  0  0  0  0
  -29.5825  -15.6555   19.4426 C   0  0  0  0  0  0  0  0  0  0  0  0
  -28.3126  -14.0039   18.0613 C   0  0  0  0  0  0  0  0  0  0  0  0
  -22.2061  -26.3483   22.0137 C   0  0  0  0  0  0  0  0  0  0  0  0
  -23.0166  -23.5076   20.6736 C   0  0  0  0  0  0  0  0  0  0  0  0
  -25.3379  -21.6544   18.9931 C   0  0  0  0  0  0  0  0  0  0  0  0
  -30.7476  -20.7235   21.9562 C   0  0  0  0  0  0  0  0  0  0  0  0
  -17.5589  -26.6058   24.1102 C   0  0  0  0  0  0  0  0  0  0  0  0
  -22.9401  -27.0689   19.7120 C   0  0  0  0  0  0  0  0  0  0  0  0
  -24.8703  -25.1977   20.9439 C   0  0  0  0  0  0  0  0  0  0  0  0
  -18.6204  -25.5224   23.9380 C   0  0  0  0  0  0  0  0  0  0  0  0
  -31.7594  -17.6390   23.4188 C   0  0  0  0  0  0  0  0  0  0  0  0
  -19.9876  -26.0406   24.3729 C   0  0  0  0  0  0  0  0  0  0  0  0
  -32.0949  -27.5856   19.3172 C   0  0  0  0  0  0  0  0  0  0  0  0
  -30.3405  -27.9069   17.5249 C   0  0  0  0  0  0  0  0  0  0  0  0
  -30.9154  -16.5952   22.6839 C   0  0  0  0  0  0  0  0  0  0  0  0
  -32.4359  -26.2124   18.7370 C   0  0  0  0  0  0  0  0  0  0  0  0
  -30.6817  -26.5335   16.9450 C   0  0  0  0  0  0  0  0  0  0  0  0
  -30.9800  -18.9304   23.6608 C   0  0  0  0  0  0  0  0  0  0  0  0
  -29.5211  -18.4742   21.7288 C   0  0  0  0  0  0  0  0  0  0  0  0
  -20.4260  -27.2310   23.5113 C   0  0  1  0  0  0  0  0  0  0  0  0
  -22.4851  -25.9163   20.6019 C   0  0  1  0  0  0  0  0  0  0  0  0
  -30.6423  -27.9801   19.0263 C   0  0  0  0  0  0  0  0  0  0  0  0
  -30.2845  -17.1796   21.4048 C   0  0  2  0  0  0  0  0  0  0  0  0
  -32.1349  -26.0909   17.2267 C   0  0  0  0  0  0  0  0  0  0  0  0
  -29.7489  -23.3107   16.3692 C   0  0  0  0  0  0  0  0  0  0  0  0
  -32.8495  -26.8297   14.9480 C   0  0  0  0  0  0  0  0  0  0  0  0
  -25.7298  -19.3533   18.0717 C   0  0  0  0  0  0  0  0  0  0  0  0
  -23.5509  -22.4720   23.4935 C   0  0  0  0  0  0  0  0  0  0  0  0
  -24.8126  -20.5627   22.4782 C   0  0  0  0  0  0  0  0  0  0  0  0
  -22.3831  -20.8500   21.9903 C   0  0  0  0  0  0  0  0  0  0  0  0
  -25.5972  -22.6794   16.2289 C   0  0  0  0  0  0  0  0  0  0  0  0
  -32.3016  -24.6201   16.8002 C   0  0  0  0  0  0  0  0  0  0  0  0
  -30.3439  -29.3767   19.5691 C   0  0  0  0  0  0  0  0  0  0  0  0
  -33.1277  -26.9371   16.4063 C   0  0  0  0  0  0  0  0  0  0  0  0
  -28.8490  -29.6256   19.6993 C   0  0  0  0  0  0  0  0  0  1  0  0
  -24.0513  -22.4466   20.9608 C   0  0  1  0  0  0  0  0  0  0  0  0
  -25.2196  -20.7551   17.7758 C   0  0  2  0  0  0  0  0  0  0  0  0
  -23.7069  -21.6097   22.2251 C   0  0  0  0  0  0  0  0  0  0  0  0
  -28.3261  -15.6826   21.3317 N   0  0  0  0  0  0  0  0  0  0  0  0
  -29.4077  -16.1643   20.6959 N   0  0  0  0  0  0  0  0  0  0  0  0
  -23.4694  -24.8346   20.6730 N   0  0  0  0  0  0  0  0  0  0  0  0
  -30.4149  -19.4277   22.4045 N   0  0  0  0  0  0  0  0  0  0  0  0
  -30.6197  -16.0322   18.6651 N   0  0  0  0  0  0  0  0  0  0  0  0
  -27.1981  -13.1549   18.0255 N   0  0  0  0  0  0  0  0  0  0  0  0
  -30.1767  -21.0748   20.7334 N   0  0  0  0  0  0  0  0  0  0  0  0
  -20.9086  -26.7739   22.2258 N   0  0  0  0  0  0  0  0  0  0  0  0
  -24.1783  -21.6590   19.7393 N   0  0  0  0  0  0  0  0  0  0  0  0
  -26.0086  -21.3127   16.6412 N   0  3  0  0  0  0  0  0  0  0  0  0
  -29.0816  -14.0497   17.0713 O   0  0  0  0  0  0  0  0  0  0  0  0
  -23.1012  -26.2977   22.8491 O   0  0  0  0  0  0  0  0  0  0  0  0
  -21.8510  -23.1710   20.4507 O   0  0  0  0  0  0  0  0  0  0  0  0
  -26.3582  -22.2863   19.2578 O   0  0  0  0  0  0  0  0  0  0  0  0
  -31.5064  -21.4566   22.5956 O   0  0  0  0  0  0  0  0  0  0  0  0
  -23.1453  -11.9955   21.6677 O   0  0  0  0  0  0  0  0  0  0  0  0
  -28.2996  -28.6709   20.6066 O   0  0  0  0  0  0  0  0  0  1  0  0
  -23.0163   -6.6245   20.4270 F   0  0  0  0  0  0  0  0  0  0  0  0
  -22.7709  -10.0931   23.6384 F   0  0  0  0  0  0  0  0  0  0  0  0
  -33.9846  -24.1958   19.3268 Cl  0  0  0  0  0  0  0  0  0  0  0  0
  1  2  1  0  0  0  0
  1  5  2  0  0  0  0
  2  6  2  0  0  0  0
  3  8  2  0  0  0  0
  3 17  1  0  0  0  0
  4  9  1  0  0  0  0
  4 17  2  0  0  0  0
  5 19  1  0  0  0  0
  6 21  1  0  0  0  0
  7 10  2  0  0  0  0
  7 20  1  0  0  0  0
  8 26  1  0  0  0  0
  9 26  2  0  0  0  0
 10 27  1  0  0  0  0
 11 12  2  0  0  0  0
 11 28  1  0  0  0  0
 12 29  1  0  0  0  0
 13 22  1  0  0  0  0
 13 27  2  0  0  0  0
 14 23  2  0  0  0  0
 14 25  1  0  0  0  0
 15 25  2  0  0  0  0
 15 31  1  0  0  0  0
 16 29  2  0  0  0  0
 16 30  1  0  0  0  0
 17 32  1  0  0  0  0
 18 32  1  0  0  0  0
 18 33  2  0  0  0  0
 18 34  1  0  0  0  0
 19 21  2  0  0  0  0
 19 39  1  0  0  0  0
 20 22  2  0  0  0  0
 20 40  1  0  0  0  0
 21 52  1  0  0  0  0
 22 41  1  0  0  0  0
 23 24  1  0  0  0  0
 23 57  1  0  0  0  0
 24 31  2  0  0  0  0
 24 64  1  0  0  0  0
 25 77  1  0  0  0  0
 26 86  1  0  0  0  0
 27 87  1  0  0  0  0
 28 30  2  0  0  0  0
 28 86  1  0  0  0  0
 29 88  1  0  0  0  0
 30 89  1  0  0  0  0
 31 90  1  0  0  0  0
 32 71  2  0  0  0  0
 33 72  1  0  0  0  0
 33 75  1  0  0  0  0
 34 76  1  0  0  0  0
 34 81  2  0  0  0  0
 35 53  1  0  0  0  0
 35 78  1  0  0  0  0
 35 82  2  0  0  0  0
 36 68  1  0  0  0  0
 36 73  1  0  0  0  0
 36 83  2  0  0  0  0
 37 69  1  0  0  0  0
 37 79  1  0  0  0  0
 37 84  2  0  0  0  0
 38 74  1  0  0  0  0
 38 77  1  0  0  0  0
 38 85  2  0  0  0  0
 39 42  1  0  0  0  0
 40 53  1  0  0  0  0
 41 73  1  0  0  0  0
 42 44  1  0  0  0  0
 43 47  1  0  0  0  0
 43 50  1  0  0  0  0
 44 52  1  0  0  0  0
 45 48  1  0  0  0  0
 45 54  1  0  0  0  0
 46 49  1  0  0  0  0
 46 54  1  0  0  0  0
 47 55  1  0  0  0  0
 48 56  1  0  0  0  0
 49 56  1  0  0  0  0
 50 74  1  0  0  0  0
 51 55  1  0  0  0  0
 51 74  1  0  0  0  0
 52 78  1  0  0  0  0
 53 73  1  0  0  0  0
 54 65  1  0  0  0  0
 55 72  1  0  0  0  0
 56 64  1  0  0  0  0
 56 66  1  0  0  0  0
 58 66  1  0  0  0  0
 59 69  1  0  0  0  0
 60 70  1  0  0  0  0
 61 70  1  0  0  0  0
 62 70  1  0  0  0  0
 63 80  1  0  0  0  0
 65 67  1  0  0  0  0
 67 87  1  0  0  0  0
 68 70  1  0  0  0  0
 68 79  1  0  0  0  0
 69 80  1  0  0  0  0
 71 72  1  0  0  0  0
M  CHG  1  80   1
M  ISO  4  38 100  67 101  77 100  87 101
M  END
> <Batch ID>
0028

> <Smiles>
CCC1(Cc2c(C)cc([100NH:0][100C:0](=O)N3CCCC(n4nc(-c5ccc(Oc6ccc(F)cc6F)cc5)c(C(N)=O)c4N)C3)cc2Cl)CCC(C[101CH2:1][101O:1]c2ccc3c(c2)CN(C(=O)C(NC(=O)C(C)NC)C(C)(C)C)C(C(=O)NC2CCCc4ccccc42)C3)CC1

> <Shape>
0.243

> <Color>
0.058

> <Negative vol penalty>
0.000

$$$$

  -OEChem-04052316333D

 85 93  0     1  0  0  0  0  0999 V2000
  -33.4808  -32.4217   15.4613 C   0  0  0  0  0  0  0  0  0  0  0  0
  -34.0334  -31.6453   16.4748 C   0  0  0  0  0  0  0  0  0  0  0  0
  -23.0532   -9.8615   19.9496 C   0  0  0  0  0  0  0  0  0  0  0  0
  -23.8142   -9.8679   22.2426 C   0  0  0  0  0  0  0  0  0  0  0  0
  -32.1041  -32.4018   15.2413 C   0  0  0  0  0  0  0  0  0  0  0  0
  -33.2095  -30.8494   17.2698 C   0  0  0  0  0  0  0  0  0  0  0  0
  -34.5688  -25.3748   19.6546 C   0  0  0  0  0  0  0  0  0  0  0  0
  -22.2967   -8.7175   20.2039 C   0  0  0  0  0  0  0  0  0  0  0  0
  -23.0577   -8.7239   22.4969 C   0  0  0  0  0  0  0  0  0  0  0  0
  -35.0040  -24.9850   20.9205 C   0  0  0  0  0  0  0  0  0  0  0  0
  -19.8212   -7.9640   23.1036 C   0  0  0  0  0  0  0  0  0  0  0  0
  -19.0644   -7.9365   24.2750 C   0  0  0  0  0  0  0  0  0  0  0  0
  -32.7272  -24.4886   21.5438 C   0  0  0  0  0  0  0  0  0  0  0  0
  -32.5253  -17.0239   23.9060 C   0  0  0  0  0  0  0  0  0  0  0  0
  -20.2846   -5.9880   25.0176 C   0  0  0  0  0  0  0  0  0  0  0  0
  -23.8120  -10.4366   20.9690 C   0  0  0  0  0  0  0  0  0  0  0  0
  -24.1817  -12.9574   20.8401 C   0  0  0  0  0  0  0  0  0  0  0  0
  -31.2640  -31.5977   16.0277 C   0  0  0  0  0  0  0  0  0  0  0  0
  -33.2059  -25.3347   19.3269 C   0  0  0  0  0  0  0  0  0  0  0  0
  -31.8201  -30.8197   17.0610 C   0  0  0  0  0  0  0  0  0  0  0  0
  -32.2775  -24.8760   20.2723 C   0  0  0  0  0  0  0  0  0  0  0  0
  -31.9376  -18.2590   24.1794 C   0  0  0  0  0  0  0  0  0  0  0  0
  -30.7298  -16.5087   22.3737 C   0  0  0  0  0  0  0  0  0  0  0  0
  -22.2989   -8.1487   21.4775 C   0  0  0  0  0  0  0  0  0  0  0  0
  -34.0829  -24.5446   21.8663 C   0  0  0  0  0  0  0  0  0  0  0  0
  -20.8096   -7.0035   22.8892 C   0  0  0  0  0  0  0  0  0  0  0  0
  -19.2961   -6.9485   25.2320 C   0  0  0  0  0  0  0  0  0  0  0  0
  -21.0414   -6.0155   23.8461 C   0  0  0  0  0  0  0  0  0  0  0  0
  -31.9215  -16.1488   23.0031 C   0  0  0  0  0  0  0  0  0  0  0  0
  -30.7460  -18.6189   23.5500 C   0  0  0  0  0  0  0  0  0  0  0  0
  -30.1421  -17.7438   22.6472 C   0  0  0  0  0  0  0  0  0  0  0  0
  -24.5941  -11.6180   20.7068 C   0  0  0  0  0  0  0  0  0  0  0  0
  -25.2820  -13.6935   20.4738 C   0  0  0  0  0  0  0  0  0  0  0  0
  -22.9173  -13.4887   21.2578 C   0  0  0  0  0  0  0  0  0  0  0  0
  -31.0375  -27.4995   18.4813 C   0  0  0  0  0  0  0  0  0  0  0  0
  -29.1660  -24.8857   18.0481 C   0  0  0  0  0  0  0  0  0  0  0  0
  -28.5194  -21.6251   18.8210 C   0  0  0  0  0  0  0  0  0  0  0  0
  -30.7595  -14.6790   20.6424 C   0  0  0  0  0  0  0  0  0  0  0  0
  -29.7766  -31.6453   15.7832 C   0  0  0  0  0  0  0  0  0  0  0  0
  -32.7556  -25.7332   17.9482 C   0  0  0  0  0  0  0  0  0  0  0  0
  -30.8056  -24.7948   19.9636 C   0  0  0  0  0  0  0  0  0  0  0  0
  -29.0163  -30.4882   16.4261 C   0  0  0  0  0  0  0  0  0  0  0  0
  -29.6172  -12.2696   18.2829 C   0  0  0  0  0  0  0  0  0  0  0  0
  -29.4729  -30.2847   17.8672 C   0  0  0  0  0  0  0  0  0  0  0  0
  -28.1746  -11.9954   18.7142 C   0  0  0  0  0  0  0  0  0  0  0  0
  -30.5354  -12.4923   19.4834 C   0  0  0  0  0  0  0  0  0  0  0  0
  -28.6373  -13.2426   20.8630 C   0  0  0  0  0  0  0  0  0  0  0  0
  -30.9621  -29.9243   17.9284 C   0  0  1  0  0  0  0  0  0  0  0  0
  -31.2860  -26.1392   17.8937 C   0  0  1  0  0  0  0  0  0  0  0  0
  -27.6620  -13.0761   19.6862 C   0  0  2  0  0  0  0  0  0  0  0  0
  -26.8995  -19.7702   18.3386 C   0  0  0  0  0  0  0  0  0  0  0  0
  -27.1098  -26.2103   19.8723 C   0  0  0  0  0  0  0  0  0  0  0  0
  -25.9934  -23.9826   20.1153 C   0  0  0  0  0  0  0  0  0  0  0  0
  -26.1434  -25.0623   17.8716 C   0  0  0  0  0  0  0  0  0  0  0  0
  -30.6452  -19.9076   17.6852 C   0  0  0  0  0  0  0  0  0  0  0  0
  -32.6262  -19.1644   25.1578 C   0  0  0  0  0  0  0  0  0  0  0  0
  -34.6632  -22.3726   24.6898 C   0  0  0  0  0  0  0  0  0  0  0  0
  -33.9635  -21.2540   25.4471 C   0  0  0  0  0  0  0  0  0  0  0  0
  -33.7393  -23.1621   23.7707 C   0  0  0  0  0  0  0  0  0  1  0  0
  -28.2272  -24.0867   18.9195 C   0  0  1  0  0  0  0  0  0  0  0  0
  -28.2151  -20.4235   17.9447 C   0  0  2  0  0  0  0  0  0  0  0  0
  -26.8959  -24.8387   19.2015 C   0  0  0  0  0  0  0  0  0  0  0  0
  -25.8576  -11.5067   20.2883 N   0  0  0  0  0  0  0  0  0  0  0  0
  -26.2487  -12.7856   20.1554 N   0  0  0  0  0  0  0  0  0  0  0  0
  -30.4139  -25.2015   18.6039 N   0  0  0  0  0  0  0  0  0  0  0  0
  -29.9883  -13.5323   20.3575 N   0  0  0  0  0  0  0  0  0  0  0  0
  -25.5071  -15.0223   20.3961 N   0  0  0  0  0  0  0  0  0  0  0  0
  -21.8955  -12.5920   21.5987 N   0  0  0  0  0  0  0  0  0  0  0  0
  -30.1228  -15.6140   21.4579 N   0  0  0  0  0  0  0  0  0  0  0  0
  -31.1609  -28.5351   17.5748 N   0  0  0  0  0  0  0  0  0  0  0  0
  -28.0566  -22.7966   18.2600 N   0  0  0  0  0  0  0  0  0  0  0  0
  -29.2987  -19.4074   18.0645 N   0  3  0  0  0  0  0  0  0  0  0  0
  -33.3261  -20.3049   24.5045 N   0  3  0  0  0  0  0  0  0  0  0  0
  -22.6947  -14.7221   21.3111 O   0  0  0  0  0  0  0  0  0  0  0  0
  -30.7533  -27.6020   19.6690 O   0  0  0  0  0  0  0  0  0  0  0  0
  -28.8081  -25.2113   16.9134 O   0  0  0  0  0  0  0  0  0  0  0  0
  -29.1054  -21.5333   19.8974 O   0  0  0  0  0  0  0  0  0  0  0  0
  -31.8902  -14.8336   20.1737 O   0  0  0  0  0  0  0  0  0  0  0  0
  -21.5606   -7.0326   21.7261 O   0  0  0  0  0  0  0  0  0  0  0  0
  -34.5050  -24.1641   23.1028 O   0  0  0  0  0  0  0  0  0  1  0  0
  -18.5704   -6.9232   26.3575 F   0  0  0  0  0  0  0  0  0  0  0  0
  -21.9904   -5.0907   23.6462 F   0  0  0  0  0  0  0  0  0  0  0  0
  -32.6893  -14.6301   22.6982 Cl  0  0  0  0  0  0  0  0  0  0  0  0
  -30.0419  -20.1639   23.9139 Cl  0  0  0  0  0  0  0  0  0  0  0  0
  -28.6562  -18.1740   21.8522 Cl  0  0  0  0  0  0  0  0  0  0  0  0
  1  2  1  0  0  0  0
  1  5  2  0  0  0  0
  2  6  2  0  0  0  0
  3  8  2  0  0  0  0
  3 16  1  0  0  0  0
  4  9  1  0  0  0  0
  4 16  2  0  0  0  0
  5 18  1  0  0  0  0
  6 20  1  0  0  0  0
  7 10  2  0  0  0  0
  7 19  1  0  0  0  0
  8 24  1  0  0  0  0
  9 24  2  0  0  0  0
 10 25  1  0  0  0  0
 11 12  2  0  0  0  0
 11 26  1  0  0  0  0
 12 27  1  0  0  0  0
 13 21  1  0  0  0  0
 13 25  2  0  0  0  0
 14 22  1  0  0  0  0
 14 29  2  0  0  0  0
 15 27  2  0  0  0  0
 15 28  1  0  0  0  0
 16 32  1  0  0  0  0
 17 32  1  0  0  0  0
 17 33  2  0  0  0  0
 17 34  1  0  0  0  0
 18 20  2  0  0  0  0
 18 39  1  0  0  0  0
 19 21  2  0  0  0  0
 19 40  1  0  0  0  0
 20 48  1  0  0  0  0
 21 41  1  0  0  0  0
 22 30  2  0  0  0  0
 22 56  1  0  0  0  0
 23 29  1  0  0  0  0
 23 31  2  0  0  0  0
 23 69  1  0  0  0  0
 24 79  1  0  0  0  0
 25 80  1  0  0  0  0
 26 28  2  0  0  0  0
 26 79  1  0  0  0  0
 27 81  1  0  0  0  0
 28 82  1  0  0  0  0
 29 83  1  0  0  0  0
 30 31  1  0  0  0  0
 30 84  1  0  0  0  0
 31 85  1  0  0  0  0
 32 63  2  0  0  0  0
 33 64  1  0  0  0  0
 33 67  1  0  0  0  0
 34 68  1  0  0  0  0
 34 74  2  0  0  0  0
 35 49  1  0  0  0  0
 35 70  1  0  0  0  0
 35 75  2  0  0  0  0
 36 60  1  0  0  0  0
 36 65  1  0  0  0  0
 36 76  2  0  0  0  0
 37 61  1  0  0  0  0
 37 71  1  0  0  0  0
 37 77  2  0  0  0  0
 38 66  1  0  0  0  0
 38 69  1  0  0  0  0
 38 78  2  0  0  0  0
 39 42  1  0  0  0  0
 40 49  1  0  0  0  0
 41 65  1  0  0  0  0
 42 44  1  0  0  0  0
 43 45  1  0  0  0  0
 43 46  1  0  0  0  0
 44 48  1  0  0  0  0
 45 50  1  0  0  0  0
 46 66  1  0  0  0  0
 47 50  1  0  0  0  0
 47 66  1  0  0  0  0
 48 70  1  0  0  0  0
 49 65  1  0  0  0  0
 50 64  1  0  0  0  0
 51 61  1  0  0  0  0
 52 62  1  0  0  0  0
 53 62  1  0  0  0  0
 54 62  1  0  0  0  0
 55 72  1  0  0  0  0
 56 73  1  0  0  0  0
 57 58  1  0  0  0  0
 57 59  1  0  0  0  0
 58 73  1  0  0  0  0
 59 80  1  0  0  0  0
 60 62  1  0  0  0  0
 60 71  1  0  0  0  0
 61 72  1  0  0  0  0
 63 64  1  0  0  0  0
M  CHG  2  72   1  73   1
M  ISO  4  38 100  59 101  69 100  80 101
M  END
> <Batch ID>
0028

> <Smiles>
CNC(C)C(=O)NC(C(=O)N1Cc2cc([101O:1][101CH2:1]CCNCc3cc(Cl)c([100NH:0][100C:0](=O)N4CCCC(n5nc(-c6ccc(Oc7ccc(F)cc7F)cc6)c(C(N)=O)c5N)C4)c(Cl)c3Cl)ccc2CC1C(=O)NC1CCCc2ccccc21)C(C)(C)C

> <Shape>
0.249

> <Color>
0.199

> <Negative vol penalty>
0.000

$$$$

  -OEChem-04052316333D

 85 93  0     1  0  0  0  0  0999 V2000
  -32.4702  -26.2936   14.4553 C   0  0  0  0  0  0  0  0  0  0  0  0
  -31.4785  -25.5499   15.0869 C   0  0  0  0  0  0  0  0  0  0  0  0
  -23.0050   -9.8726   20.0083 C   0  0  0  0  0  0  0  0  0  0  0  0
  -23.7206   -9.9735   22.3136 C   0  0  0  0  0  0  0  0  0  0  0  0
  -33.4898  -26.8750   15.2079 C   0  0  0  0  0  0  0  0  0  0  0  0
  -31.5064  -25.3862   16.4714 C   0  0  0  0  0  0  0  0  0  0  0  0
  -26.9597  -26.0546   18.5987 C   0  0  0  0  0  0  0  0  0  0  0  0
  -22.2419   -8.7407   20.2947 C   0  0  0  0  0  0  0  0  0  0  0  0
  -22.9575   -8.8416   22.6001 C   0  0  0  0  0  0  0  0  0  0  0  0
  -26.0498  -25.0029   18.5000 C   0  0  0  0  0  0  0  0  0  0  0  0
  -23.2168   -5.4948   22.1976 C   0  0  0  0  0  0  0  0  0  0  0  0
  -23.8053   -4.4955   22.9727 C   0  0  0  0  0  0  0  0  0  0  0  0
  -26.5937  -24.3288   20.7514 C   0  0  0  0  0  0  0  0  0  0  0  0
  -28.4439  -18.2059   19.4110 C   0  0  0  0  0  0  0  0  0  0  0  0
  -28.3902  -18.8668   21.7341 C   0  0  0  0  0  0  0  0  0  0  0  0
  -22.0737   -4.7657   24.6357 C   0  0  0  0  0  0  0  0  0  0  0  0
  -23.7445  -10.4890   21.0177 C   0  0  0  0  0  0  0  0  0  0  0  0
  -24.1206  -13.0020   20.7918 C   0  0  0  0  0  0  0  0  0  0  0  0
  -33.5249  -26.7264   16.6034 C   0  0  0  0  0  0  0  0  0  0  0  0
  -27.7027  -26.2451   19.7727 C   0  0  0  0  0  0  0  0  0  0  0  0
  -32.5282  -25.9650   17.2432 C   0  0  0  0  0  0  0  0  0  0  0  0
  -27.5106  -25.3852   20.8635 C   0  0  0  0  0  0  0  0  0  0  0  0
  -29.0907  -18.3676   20.6361 C   0  0  0  0  0  0  0  0  0  0  0  0
  -27.0965  -18.5436   19.2838 C   0  0  0  0  0  0  0  0  0  0  0  0
  -26.3959  -19.0429   20.3818 C   0  0  0  0  0  0  0  0  0  0  0  0
  -22.2181   -8.2252   21.5906 C   0  0  0  0  0  0  0  0  0  0  0  0
  -25.8687  -24.1381   19.5754 C   0  0  0  0  0  0  0  0  0  0  0  0
  -22.0568   -6.1296   22.6416 C   0  0  0  0  0  0  0  0  0  0  0  0
  -23.2337   -4.1310   24.1917 C   0  0  0  0  0  0  0  0  0  0  0  0
  -21.4852   -5.7650   23.8606 C   0  0  0  0  0  0  0  0  0  0  0  0
  -27.0428  -19.2045   21.6070 C   0  0  0  0  0  0  0  0  0  0  0  0
  -24.5335  -11.6579   20.7223 C   0  0  0  0  0  0  0  0  0  0  0  0
  -25.2290  -13.7214   20.4171 C   0  0  0  0  0  0  0  0  0  0  0  0
  -22.8490  -13.5511   21.1620 C   0  0  0  0  0  0  0  0  0  0  0  0
  -30.7974  -26.2169   20.4980 C   0  0  0  0  0  0  0  0  0  0  0  0
  -29.7275  -27.1975   23.3991 C   0  0  0  0  0  0  0  0  0  0  0  0
  -27.1629  -27.3343   25.6465 C   0  0  0  0  0  0  0  0  0  0  0  0
  -30.7206  -14.6829   20.6684 C   0  0  0  0  0  0  0  0  0  0  0  0
  -34.6733  -27.3338   17.3695 C   0  0  0  0  0  0  0  0  0  0  0  0
  -28.6608  -27.4003   19.8729 C   0  0  0  0  0  0  0  0  0  0  0  0
  -28.2688  -25.5587   22.1532 C   0  0  0  0  0  0  0  0  0  0  0  0
  -34.4219  -27.4261   18.8724 C   0  0  0  0  0  0  0  0  0  0  0  0
  -29.5990  -12.2072   18.3685 C   0  0  0  0  0  0  0  0  0  0  0  0
  -33.8580  -26.1110   19.4010 C   0  0  0  0  0  0  0  0  0  0  0  0
  -28.1498  -11.9503   18.7855 C   0  0  0  0  0  0  0  0  0  0  0  0
  -30.4955  -12.4709   19.5762 C   0  0  0  0  0  0  0  0  0  0  0  0
  -28.5769  -13.2860   20.8908 C   0  0  0  0  0  0  0  0  0  0  0  0
  -32.5103  -25.7855   18.7457 C   0  0  1  0  0  0  0  0  0  0  0  0
  -29.7394  -27.1919   20.9314 C   0  0  1  0  0  0  0  0  0  0  0  0
  -27.6234  -13.0702   19.7031 C   0  0  2  0  0  0  0  0  0  0  0  0
  -26.4297  -18.3614   17.9593 C   0  0  0  0  0  0  0  0  0  0  0  0
  -31.4036  -19.2306   21.1159 C   0  0  0  0  0  0  0  0  0  0  0  0
  -26.6009  -28.1683   27.9457 C   0  0  0  0  0  0  0  0  0  0  0  0
  -31.2893  -24.8778   24.6197 C   0  0  0  0  0  0  0  0  0  0  0  0
  -29.9576  -25.1768   26.7186 C   0  0  0  0  0  0  0  0  0  0  0  0
  -31.4285  -27.0194   25.9037 C   0  0  0  0  0  0  0  0  0  0  0  0
  -25.0420  -29.1177   24.6073 C   0  0  0  0  0  0  0  0  0  0  0  0
  -24.9401  -19.4036   20.2271 C   0  0  0  0  0  0  0  0  0  0  0  0
  -24.7079  -20.7269   19.4947 C   0  0  0  0  0  0  0  0  0  0  0  0
  -30.7900  -16.8859   21.8091 C   0  0  0  0  0  0  0  0  0  0  0  0
  -25.2676  -21.9345   20.2375 C   0  0  0  0  0  0  0  0  0  1  0  0
  -30.5312  -18.0053   20.7716 C   0  0  1  0  0  0  0  0  0  0  0  0
  -29.2852  -26.5049   24.6654 C   0  0  1  0  0  0  0  0  0  0  0  0
  -26.5951  -28.4846   26.4582 C   0  0  2  0  0  0  0  0  0  0  0  0
  -30.4771  -25.8900   25.4520 C   0  0  0  0  0  0  0  0  0  0  0  0
  -25.8048  -11.5284   20.3339 N   0  0  0  0  0  0  0  0  0  0  0  0
  -26.2004  -12.8004   20.1558 N   0  0  0  0  0  0  0  0  0  0  0  0
  -29.1987  -26.6992   22.1999 N   0  0  0  0  0  0  0  0  0  0  0  0
  -29.9411  -13.5446   20.4043 N   0  0  0  0  0  0  0  0  0  0  0  0
  -25.4577  -15.0456   20.2889 N   0  0  0  0  0  0  0  0  0  0  0  0
  -21.8193  -12.6700   21.5195 N   0  0  0  0  0  0  0  0  0  0  0  0
  -31.4554  -26.5795   19.3383 N   0  0  0  0  0  0  0  0  0  0  0  0
  -28.5144  -27.4872   25.4201 N   0  0  0  0  0  0  0  0  0  0  0  0
  -30.1172  -15.6556   21.4561 N   0  0  0  0  0  0  0  0  0  0  0  0
  -25.1921  -28.7683   26.0434 N   0  3  0  0  0  0  0  0  0  0  0  0
  -22.6273  -14.7857   21.1596 O   0  0  0  0  0  0  0  0  0  0  0  0
  -31.0026  -25.2110   21.1671 O   0  0  0  0  0  0  0  0  0  0  0  0
  -30.5077  -28.1501   23.4717 O   0  0  0  0  0  0  0  0  0  0  0  0
  -26.4769  -26.3923   25.2559 O   0  0  0  0  0  0  0  0  0  0  0  0
  -31.8672  -14.8244   20.2300 O   0  0  0  0  0  0  0  0  0  0  0  0
  -21.4733   -7.1209   21.8705 O   0  0  0  0  0  0  0  0  0  0  0  0
  -24.9817  -23.1104   19.4814 O   0  0  0  0  0  0  0  0  0  1  0  0
  -23.7981   -3.1703   24.9352 F   0  0  0  0  0  0  0  0  0  0  0  0
  -20.3702   -6.3705   24.2918 F   0  0  0  0  0  0  0  0  0  0  0  0
  -26.2102  -19.8176   22.9898 Cl  0  0  0  0  0  0  0  0  0  0  0  0
  1  2  1  0  0  0  0
  1  5  2  0  0  0  0
  2  6  2  0  0  0  0
  3  8  2  0  0  0  0
  3 17  1  0  0  0  0
  4  9  1  0  0  0  0
  4 17  2  0  0  0  0
  5 19  1  0  0  0  0
  6 21  1  0  0  0  0
  7 10  2  0  0  0  0
  7 20  1  0  0  0  0
  8 26  1  0  0  0  0
  9 26  2  0  0  0  0
 10 27  1  0  0  0  0
 11 12  2  0  0  0  0
 11 28  1  0  0  0  0
 12 29  1  0  0  0  0
 13 22  1  0  0  0  0
 13 27  2  0  0  0  0
 14 23  1  0  0  0  0
 14 24  2  0  0  0  0
 15 23  2  0  0  0  0
 15 31  1  0  0  0  0
 16 29  2  0  0  0  0
 16 30  1  0  0  0  0
 17 32  1  0  0  0  0
 18 32  1  0  0  0  0
 18 33  2  0  0  0  0
 18 34  1  0  0  0  0
 19 21  2  0  0  0  0
 19 39  1  0  0  0  0
 20 22  2  0  0  0  0
 20 40  1  0  0  0  0
 21 48  1  0  0  0  0
 22 41  1  0  0  0  0
 23 62  1  0  0  0  0
 24 25  1  0  0  0  0
 24 51  1  0  0  0  0
 25 31  2  0  0  0  0
 25 58  1  0  0  0  0
 26 81  1  0  0  0  0
 27 82  1  0  0  0  0
 28 30  2  0  0  0  0
 28 81  1  0  0  0  0
 29 83  1  0  0  0  0
 30 84  1  0  0  0  0
 31 85  1  0  0  0  0
 32 66  2  0  0  0  0
 33 67  1  0  0  0  0
 33 70  1  0  0  0  0
 34 71  1  0  0  0  0
 34 76  2  0  0  0  0
 35 49  1  0  0  0  0
 35 72  1  0  0  0  0
 35 77  2  0  0  0  0
 36 63  1  0  0  0  0
 36 68  1  0  0  0  0
 36 78  2  0  0  0  0
 37 64  1  0  0  0  0
 37 73  1  0  0  0  0
 37 79  2  0  0  0  0
 38 69  1  0  0  0  0
 38 74  1  0  0  0  0
 38 80  2  0  0  0  0
 39 42  1  0  0  0  0
 40 49  1  0  0  0  0
 41 68  1  0  0  0  0
 42 44  1  0  0  0  0
 43 45  1  0  0  0  0
 43 46  1  0  0  0  0
 44 48  1  0  0  0  0
 45 50  1  0  0  0  0
 46 69  1  0  0  0  0
 47 50  1  0  0  0  0
 47 69  1  0  0  0  0
 48 72  1  0  0  0  0
 49 68  1  0  0  0  0
 50 67  1  0  0  0  0
 52 62  1  0  0  0  0
 53 64  1  0  0  0  0
 54 65  1  0  0  0  0
 55 65  1  0  0  0  0
 56 65  1  0  0  0  0
 57 75  1  0  0  0  0
 58 59  1  0  0  0  0
 59 61  1  0  0  0  0
 60 62  1  0  0  0  0
 60 74  1  0  0  0  0
 61 82  1  0  0  0  0
 63 65  1  0  0  0  0
 63 73  1  0  0  0  0
 64 75  1  0  0  0  0
 66 67  1  0  0  0  0
M  CHG  1  75   1
M  ISO  4  38 100  61 101  74 100  82 101
M  END
> <Batch ID>
0028

> <Smiles>
CNC(C)C(=O)NC(C(=O)N1Cc2cc([101O:1][101CH2:1]CCc3c(C)cc(C(C)C[100NH:0][100C:0](=O)N4CCCC(n5nc(-c6ccc(Oc7ccc(F)cc7F)cc6)c(C(N)=O)c5N)C4)cc3Cl)ccc2CC1C(=O)NC1CCCc2ccccc21)C(C)(C)C

> <Shape>
0.257

> <Color>
0.202

> <Negative vol penalty>
0.000

$$$$

  -OEChem-04052316333D

 84 92  0     1  0  0  0  0  0999 V2000
  -18.9431  -24.2125   23.7763 C   0  0  0  0  0  0  0  0  0  0  0  0
  -20.2797  -24.2615   23.3935 C   0  0  0  0  0  0  0  0  0  0  0  0
  -23.7120   -8.8118   19.8840 C   0  0  0  0  0  0  0  0  0  0  0  0
  -23.2197  -10.4618   21.5788 C   0  0  0  0  0  0  0  0  0  0  0  0
  -18.1430  -25.3481   23.6573 C   0  0  0  0  0  0  0  0  0  0  0  0
  -20.8167  -25.4460   22.8905 C   0  0  0  0  0  0  0  0  0  0  0  0
  -25.3518  -26.5187   24.8723 C   0  0  0  0  0  0  0  0  0  0  0  0
  -22.8627   -7.9059   20.5191 C   0  0  0  0  0  0  0  0  0  0  0  0
  -22.3702   -9.5558   22.2140 C   0  0  0  0  0  0  0  0  0  0  0  0
  -26.4476  -25.8175   24.3712 C   0  0  0  0  0  0  0  0  0  0  0  0
  -22.9733   -5.8440   23.1952 C   0  0  0  0  0  0  0  0  0  0  0  0
  -23.4273   -4.5351   23.3569 C   0  0  0  0  0  0  0  0  0  0  0  0
  -27.0169  -27.7089   22.9863 C   0  0  0  0  0  0  0  0  0  0  0  0
  -30.6419  -18.0068   20.5302 C   0  0  0  0  0  0  0  0  0  0  0  0
  -21.5582   -3.7262   22.0571 C   0  0  0  0  0  0  0  0  0  0  0  0
  -23.8906  -10.0898   20.4138 C   0  0  0  0  0  0  0  0  0  0  0  0
  -24.4262  -11.9535   18.7563 C   0  0  0  0  0  0  0  0  0  0  0  0
  -18.6730  -26.5498   23.1616 C   0  0  0  0  0  0  0  0  0  0  0  0
  -25.0735  -27.8184   24.4254 C   0  0  0  0  0  0  0  0  0  0  0  0
  -20.0226  -26.5984   22.7635 C   0  0  0  0  0  0  0  0  0  0  0  0
  -25.9183  -28.4254   23.4853 C   0  0  0  0  0  0  0  0  0  0  0  0
  -30.7612  -19.3840   20.7162 C   0  0  0  0  0  0  0  0  0  0  0  0
  -29.7618  -20.2395   20.2527 C   0  0  0  0  0  0  0  0  0  0  0  0
  -28.6430  -19.7178   19.6032 C   0  0  0  0  0  0  0  0  0  0  0  0
  -29.5231  -17.4850   19.8807 C   0  0  0  0  0  0  0  0  0  0  0  0
  -22.1917   -8.2779   21.6841 C   0  0  0  0  0  0  0  0  0  0  0  0
  -27.2787  -26.4115   23.4259 C   0  0  0  0  0  0  0  0  0  0  0  0
  -21.8117   -6.0941   22.4644 C   0  0  0  0  0  0  0  0  0  0  0  0
  -22.7198   -3.4762   22.7879 C   0  0  0  0  0  0  0  0  0  0  0  0
  -21.1042   -5.0352   21.8954 C   0  0  0  0  0  0  0  0  0  0  0  0
  -28.5237  -18.3405   19.4172 C   0  0  0  0  0  0  0  0  0  0  0  0
  -24.7683  -11.0258   19.7585 C   0  0  0  0  0  0  0  0  0  0  0  0
  -25.6039  -12.5999   18.4703 C   0  0  0  0  0  0  0  0  0  0  0  0
  -23.1574  -12.2081   18.1391 C   0  0  0  0  0  0  0  0  0  0  0  0
  -22.6482  -29.1946   22.8996 C   0  0  0  0  0  0  0  0  0  0  0  0
  -24.3329  -31.9060   23.4762 C   0  0  0  0  0  0  0  0  0  0  0  0
  -27.3530  -33.3585   24.1214 C   0  0  0  0  0  0  0  0  0  0  0  0
  -30.3065  -15.1002   20.0939 C   0  0  0  0  0  0  0  0  0  0  0  0
  -17.7570  -27.7379   23.0070 C   0  0  0  0  0  0  0  0  0  0  0  0
  -23.9029  -28.5714   24.9956 C   0  0  0  0  0  0  0  0  0  0  0  0
  -25.6748  -29.8260   22.9879 C   0  0  0  0  0  0  0  0  0  0  0  0
  -18.4990  -29.0582   22.8155 C   0  0  0  0  0  0  0  0  0  0  0  0
  -30.3584  -11.5483   19.8525 C   0  0  0  0  0  0  0  0  0  0  0  0
  -19.6080  -28.9019   21.7799 C   0  0  0  0  0  0  0  0  0  0  0  0
  -28.8805  -11.1720   19.7241 C   0  0  0  0  0  0  0  0  0  0  0  0
  -30.5625  -12.7309   20.7979 C   0  0  0  0  0  0  0  0  0  0  0  0
  -28.2776  -13.5422   20.3613 C   0  0  0  0  0  0  0  0  0  0  0  0
  -20.6480  -27.8716   22.2365 C   0  0  1  0  0  0  0  0  0  0  0  0
  -23.4175  -29.6976   24.0882 C   0  0  1  0  0  0  0  0  0  0  0  0
  -28.0158  -12.3975   19.3690 C   0  0  2  0  0  0  0  0  0  0  0  0
  -31.9687  -19.9174   21.4150 C   0  0  0  0  0  0  0  0  0  0  0  0
  -27.5611  -20.6155   19.0983 C   0  0  0  0  0  0  0  0  0  0  0  0
  -28.4203  -35.5968   24.5061 C   0  0  0  0  0  0  0  0  0  0  0  0
  -24.1639  -32.4975   20.4877 C   0  0  0  0  0  0  0  0  0  0  0  0
  -26.0013  -34.1717   20.7860 C   0  0  0  0  0  0  0  0  0  0  0  0
  -23.8259  -34.4865   21.9655 C   0  0  0  0  0  0  0  0  0  0  0  0
  -28.2489  -32.5942   26.8366 C   0  0  0  0  0  0  0  0  0  0  0  0
  -29.8912  -21.7284   20.4537 C   0  0  0  0  0  0  0  0  0  0  0  0
  -29.0087  -22.2803   21.5787 C   0  0  0  0  0  0  0  0  0  0  0  0
  -29.0955  -23.8010   21.7164 C   0  0  0  0  0  0  0  0  0  0  0  0
  -28.2376  -24.3080   22.8677 C   0  0  0  0  0  0  0  0  0  1  0  0
  -25.4069  -32.6735   22.7438 C   0  0  1  0  0  0  0  0  0  0  0  0
  -27.7770  -34.3829   25.1583 C   0  0  2  0  0  0  0  0  0  0  0  0
  -24.8533  -33.4302   21.5035 C   0  0  0  0  0  0  0  0  0  0  0  0
  -26.0620  -11.0752   20.0869 N   0  0  0  0  0  0  0  0  0  0  0  0
  -26.5432  -12.0416   19.2865 N   0  0  0  0  0  0  0  0  0  0  0  0
  -24.5139  -30.5189   23.5709 N   0  0  0  0  0  0  0  0  0  0  0  0
  -29.7147  -13.8559   20.3972 N   0  0  0  0  0  0  0  0  0  0  0  0
  -25.9172  -13.5855   17.6028 N   0  0  0  0  0  0  0  0  0  0  0  0
  -22.0505  -11.4535   18.5512 N   0  0  0  0  0  0  0  0  0  0  0  0
  -29.4045  -16.0855   19.6937 N   0  0  0  0  0  0  0  0  0  0  0  0
  -21.5313  -28.4497   23.2265 N   0  0  0  0  0  0  0  0  0  0  0  0
  -26.0411  -33.5353   23.7355 N   0  0  0  0  0  0  0  0  0  0  0  0
  -28.7579  -33.7841   26.1072 N   0  3  0  0  0  0  0  0  0  0  0  0
  -23.0129  -13.0677   17.2370 O   0  0  0  0  0  0  0  0  0  0  0  0
  -23.0383  -29.4637   21.7695 O   0  0  0  0  0  0  0  0  0  0  0  0
  -23.3725  -32.5157   23.9532 O   0  0  0  0  0  0  0  0  0  0  0  0
  -28.1109  -32.4906   23.6937 O   0  0  0  0  0  0  0  0  0  0  0  0
  -31.5268  -15.2709   20.1564 O   0  0  0  0  0  0  0  0  0  0  0  0
  -21.3627   -7.3942   22.3040 O   0  0  0  0  0  0  0  0  0  0  0  0
  -28.3487  -25.7291   22.9346 O   0  0  0  0  0  0  0  0  0  1  0  0
  -23.1567   -2.2194   22.9420 F   0  0  0  0  0  0  0  0  0  0  0  0
  -19.9883   -5.2692   21.1913 F   0  0  0  0  0  0  0  0  0  0  0  0
  -27.4474  -17.8393   18.7922 F   0  0  0  0  0  0  0  0  0  0  0  0
  1  2  1  0  0  0  0
  1  5  2  0  0  0  0
  2  6  2  0  0  0  0
  3  8  2  0  0  0  0
  3 16  1  0  0  0  0
  4  9  1  0  0  0  0
  4 16  2  0  0  0  0
  5 18  1  0  0  0  0
  6 20  1  0  0  0  0
  7 10  2  0  0  0  0
  7 19  1  0  0  0  0
  8 26  1  0  0  0  0
  9 26  2  0  0  0  0
 10 27  1  0  0  0  0
 11 12  2  0  0  0  0
 11 28  1  0  0  0  0
 12 29  1  0  0  0  0
 13 21  1  0  0  0  0
 13 27  2  0  0  0  0
 14 22  2  0  0  0  0
 14 25  1  0  0  0  0
 15 29  2  0  0  0  0
 15 30  1  0  0  0  0
 16 32  1  0  0  0  0
 17 32  1  0  0  0  0
 17 33  2  0  0  0  0
 17 34  1  0  0  0  0
 18 20  2  0  0  0  0
 18 39  1  0  0  0  0
 19 21  2  0  0  0  0
 19 40  1  0  0  0  0
 20 48  1  0  0  0  0
 21 41  1  0  0  0  0
 22 23  1  0  0  0  0
 22 51  1  0  0  0  0
 23 24  2  0  0  0  0
 23 58  1  0  0  0  0
 24 31  1  0  0  0  0
 24 52  1  0  0  0  0
 25 31  2  0  0  0  0
 25 71  1  0  0  0  0
 26 80  1  0  0  0  0
 27 81  1  0  0  0  0
 28 30  2  0  0  0  0
 28 80  1  0  0  0  0
 29 82  1  0  0  0  0
 30 83  1  0  0  0  0
 31 84  1  0  0  0  0
 32 65  2  0  0  0  0
 33 66  1  0  0  0  0
 33 69  1  0  0  0  0
 34 70  1  0  0  0  0
 34 75  2  0  0  0  0
 35 49  1  0  0  0  0
 35 72  1  0  0  0  0
 35 76  2  0  0  0  0
 36 62  1  0  0  0  0
 36 67  1  0  0  0  0
 36 77  2  0  0  0  0
 37 63  1  0  0  0  0
 37 73  1  0  0  0  0
 37 78  2  0  0  0  0
 38 68  1  0  0  0  0
 38 71  1  0  0  0  0
 38 79  2  0  0  0  0
 39 42  1  0  0  0  0
 40 49  1  0  0  0  0
 41 67  1  0  0  0  0
 42 44  1  0  0  0  0
 43 45  1  0  0  0  0
 43 46  1  0  0  0  0
 44 48  1  0  0  0  0
 45 50  1  0  0  0  0
 46 68  1  0  0  0  0
 47 50  1  0  0  0  0
 47 68  1  0  0  0  0
 48 72  1  0  0  0  0
 49 67  1  0  0  0  0
 50 66  1  0  0  0  0
 53 63  1  0  0  0  0
 54 64  1  0  0  0  0
 55 64  1  0  0  0  0
 56 64  1  0  0  0  0
 57 74  1  0  0  0  0
 58 59  1  0  0  0  0
 59 60  1  0  0  0  0
 60 61  1  0  0  0  0
 61 81  1  0  0  0  0
 62 64  1  0  0  0  0
 62 73  1  0  0  0  0
 63 74  1  0  0  0  0
 65 66  1  0  0  0  0
M  CHG  1  74   1
M  ISO  4  38 100  61 101  71 100  81 101
M  END
> <Batch ID>
0028

> <Smiles>
CNC(C)C(=O)NC(C(=O)N1Cc2cc([101O:1][101CH2:1]CCCc3c(C)cc([100NH:0][100C:0](=O)N4CCCC(n5nc(-c6ccc(Oc7ccc(F)cc7F)cc6)c(C(N)=O)c5N)C4)c(F)c3C)ccc2CC1C(=O)NC1CCCc2ccccc21)C(C)(C)C

> <Shape>
0.301

> <Color>
0.127

> <Negative vol penalty>
0.000

$$$$

  -OEChem-04052316333D

 83 91  0     1  0  0  0  0  0999 V2000
  -16.4705  -29.8480   23.0918 C   0  0  0  0  0  0  0  0  0  0  0  0
  -17.4872  -30.2537   22.2332 C   0  0  0  0  0  0  0  0  0  0  0  0
  -26.5174  -12.9069   19.4769 C   0  0  0  0  0  0  0  0  0  0  0  0
  -25.1874  -14.8373   20.0616 C   0  0  0  0  0  0  0  0  0  0  0  0
  -16.7836  -29.1781   24.2738 C   0  0  0  0  0  0  0  0  0  0  0  0
  -18.8179  -29.9906   22.5567 C   0  0  0  0  0  0  0  0  0  0  0  0
  -25.1136  -28.4754   19.4934 C   0  0  0  0  0  0  0  0  0  0  0  0
  -25.8211  -12.1434   20.4138 C   0  0  0  0  0  0  0  0  0  0  0  0
  -24.4911  -14.0737   20.9985 C   0  0  0  0  0  0  0  0  0  0  0  0
  -26.4381  -28.9106   19.4815 C   0  0  0  0  0  0  0  0  0  0  0  0
  -22.8307  -10.5796   20.6255 C   0  0  0  0  0  0  0  0  0  0  0  0
  -22.4017   -9.3104   20.2374 C   0  0  0  0  0  0  0  0  0  0  0  0
  -26.8555  -27.6763   21.5117 C   0  0  0  0  0  0  0  0  0  0  0  0
  -29.7031  -26.8959   19.8995 C   0  0  0  0  0  0  0  0  0  0  0  0
  -23.7185   -8.3242   22.0067 C   0  0  0  0  0  0  0  0  0  0  0  0
  -31.4417  -27.1868   22.0616 C   0  0  0  0  0  0  0  0  0  0  0  0
  -26.2006  -14.2539   19.3008 C   0  0  0  0  0  0  0  0  0  0  0  0
  -26.5937  -15.2297   16.9768 C   0  0  0  0  0  0  0  0  0  0  0  0
  -18.1182  -28.8982   24.6073 C   0  0  0  0  0  0  0  0  0  0  0  0
  -24.6465  -27.6448   20.5222 C   0  0  0  0  0  0  0  0  0  0  0  0
  -19.1492  -29.3176   23.7450 C   0  0  0  0  0  0  0  0  0  0  0  0
  -25.5253  -27.2299   21.5329 C   0  0  0  0  0  0  0  0  0  0  0  0
  -24.8080  -12.7268   21.1746 C   0  0  0  0  0  0  0  0  0  0  0  0
  -27.3085  -28.5134   20.4923 C   0  0  0  0  0  0  0  0  0  0  0  0
  -23.7037  -10.7211   21.7042 C   0  0  0  0  0  0  0  0  0  0  0  0
  -29.5881  -28.0006   20.7432 C   0  0  0  0  0  0  0  0  0  1  0  0
  -30.6875  -25.9365   20.1368 C   0  0  0  0  0  0  0  0  0  0  0  0
  -22.8455   -8.1827   20.9280 C   0  0  0  0  0  0  0  0  0  0  0  0
  -24.1476   -9.5935   22.3948 C   0  0  0  0  0  0  0  0  0  0  0  0
  -30.4574  -28.1460   21.8243 C   0  0  0  0  0  0  0  0  0  0  0  0
  -31.5568  -26.0819   21.2179 C   0  0  0  0  0  0  0  0  0  0  0  0
  -26.9199  -15.0433   18.3336 C   0  0  0  0  0  0  0  0  0  0  0  0
  -27.5804  -16.0559   16.4969 C   0  0  0  0  0  0  0  0  0  0  0  0
  -25.4969  -14.7032   16.2183 C   0  0  0  0  0  0  0  0  0  0  0  0
  -22.4237  -27.9039   22.7796 C   0  0  0  0  0  0  0  0  0  0  0  0
  -23.1882  -24.8019   23.3416 C   0  0  0  0  0  0  0  0  0  0  0  0
  -25.4946  -22.2977   23.1047 C   0  0  0  0  0  0  0  0  0  0  0  0
  -31.1805  -20.0579   19.1189 C   0  0  0  0  0  0  0  0  0  0  0  0
  -18.4104  -28.2134   25.9188 C   0  0  0  0  0  0  0  0  0  0  0  0
  -23.2219  -27.1624   20.5060 C   0  0  0  0  0  0  0  0  0  0  0  0
  -25.0786  -26.3224   22.6489 C   0  0  0  0  0  0  0  0  0  0  0  0
  -19.8233  -27.6421   26.0062 C   0  0  0  0  0  0  0  0  0  0  0  0
  -32.1663  -17.2185   17.2103 C   0  0  0  0  0  0  0  0  0  0  0  0
  -20.8440  -28.6658   25.5194 C   0  0  0  0  0  0  0  0  0  0  0  0
  -30.9040  -16.3559   17.1593 C   0  0  0  0  0  0  0  0  0  0  0  0
  -32.3115  -17.9273   18.5551 C   0  0  0  0  0  0  0  0  0  0  0  0
  -29.8748  -17.8554   18.9175 C   0  0  0  0  0  0  0  0  0  0  0  0
  -20.6033  -29.0287   24.0490 C   0  0  1  0  0  0  0  0  0  0  0  0
  -22.7199  -26.7358   21.8820 C   0  0  1  0  0  0  0  0  0  0  0  0
  -29.6557  -17.1645   17.5606 C   0  0  2  0  0  0  0  0  0  0  0  0
  -25.8461  -19.8819   23.6859 C   0  0  0  0  0  0  0  0  0  0  0  0
  -23.6392  -25.5720   26.2594 C   0  0  0  0  0  0  0  0  0  0  0  0
  -24.8718  -23.4145   26.5657 C   0  0  0  0  0  0  0  0  0  0  0  0
  -22.4608  -23.3915   25.9261 C   0  0  0  0  0  0  0  0  0  0  0  0
  -25.8355  -21.5436   20.2632 C   0  0  0  0  0  0  0  0  0  0  0  0
  -29.6741  -22.9286   18.4115 C   0  0  0  0  0  0  0  0  0  0  0  0
  -29.9050  -22.1126   19.6762 C   0  0  0  0  0  0  0  0  0  0  0  0
  -29.5679  -24.4244   18.6822 C   0  0  0  0  0  0  0  0  0  0  0  0
  -24.1895  -24.0896   24.2184 C   0  0  1  0  0  0  0  0  0  0  0  0
  -25.3778  -20.8630   22.6225 C   0  0  2  0  0  0  0  0  0  0  0  0
  -23.7986  -24.1356   25.7226 C   0  0  0  0  0  0  0  0  0  0  0  0
  -28.0272  -15.6982   18.6924 N   0  0  0  0  0  0  0  0  0  0  0  0
  -28.4056  -16.3042   17.5541 N   0  0  0  0  0  0  0  0  0  0  0  0
  -23.6747  -25.8827   22.5925 N   0  0  0  0  0  0  0  0  0  0  0  0
  -31.0946  -18.6771   18.8759 N   0  0  0  0  0  0  0  0  0  0  0  0
  -27.8140  -16.5870   15.2780 N   0  0  0  0  0  0  0  0  0  0  0  0
  -24.5747  -13.8705   16.8667 N   0  0  0  0  0  0  0  0  0  0  0  0
  -21.1042  -27.9838   23.1820 N   0  0  0  0  0  0  0  0  0  0  0  0
  -24.3209  -22.7416   23.6761 N   0  0  0  0  0  0  0  0  0  0  0  0
  -29.9794  -20.6934   19.4095 N   0  0  0  0  0  0  0  0  0  0  0  0
  -26.2034  -20.6591   21.3986 N   0  3  0  0  0  0  0  0  0  0  0  0
  -25.3484  -14.9502   14.9974 O   0  0  0  0  0  0  0  0  0  0  0  0
  -23.3259  -28.6747   23.0857 O   0  0  0  0  0  0  0  0  0  0  0  0
  -22.0191  -24.4093   23.3166 O   0  0  0  0  0  0  0  0  0  0  0  0
  -26.5252  -22.9573   22.9896 O   0  0  0  0  0  0  0  0  0  0  0  0
  -32.2476  -20.6794   19.0745 O   0  0  0  0  0  0  0  0  0  0  0  0
  -24.1281  -11.9819   22.0887 O   0  0  0  0  0  0  0  0  0  0  0  0
  -28.6016  -28.9372   20.4835 O   0  0  0  0  0  0  0  0  0  1  0  0
  -30.7760  -24.8664   19.2972 O   0  0  0  0  0  0  0  0  0  0  0  0
  -22.4322   -6.9641   20.5562 F   0  0  0  0  0  0  0  0  0  0  0  0
  -24.9854   -9.7232   23.4326 F   0  0  0  0  0  0  0  0  0  0  0  0
  -30.3374  -29.5028   22.8833 Cl  0  0  0  0  0  0  0  0  0  0  0  0
  -32.7797  -24.9078   21.5371 Cl  0  0  0  0  0  0  0  0  0  0  0  0
  1  2  1  0  0  0  0
  1  5  2  0  0  0  0
  2  6  2  0  0  0  0
  3  8  2  0  0  0  0
  3 17  1  0  0  0  0
  4  9  1  0  0  0  0
  4 17  2  0  0  0  0
  5 19  1  0  0  0  0
  6 21  1  0  0  0  0
  7 10  2  0  0  0  0
  7 20  1  0  0  0  0
  8 23  1  0  0  0  0
  9 23  2  0  0  0  0
 10 24  1  0  0  0  0
 11 12  2  0  0  0  0
 11 25  1  0  0  0  0
 12 28  1  0  0  0  0
 13 22  1  0  0  0  0
 13 24  2  0  0  0  0
 14 26  1  0  0  0  0
 14 27  2  0  0  0  0
 15 28  2  0  0  0  0
 15 29  1  0  0  0  0
 16 30  1  0  0  0  0
 16 31  2  0  0  0  0
 17 32  1  0  0  0  0
 18 32  1  0  0  0  0
 18 33  2  0  0  0  0
 18 34  1  0  0  0  0
 19 21  2  0  0  0  0
 19 39  1  0  0  0  0
 20 22  2  0  0  0  0
 20 40  1  0  0  0  0
 21 48  1  0  0  0  0
 22 41  1  0  0  0  0
 23 77  1  0  0  0  0
 24 78  1  0  0  0  0
 25 29  2  0  0  0  0
 25 77  1  0  0  0  0
 26 30  2  0  0  0  0
 26 78  1  0  0  0  0
 27 31  1  0  0  0  0
 27 79  1  0  0  0  0
 28 80  1  0  0  0  0
 29 81  1  0  0  0  0
 30 82  1  0  0  0  0
 31 83  1  0  0  0  0
 32 62  2  0  0  0  0
 33 63  1  0  0  0  0
 33 66  1  0  0  0  0
 34 67  1  0  0  0  0
 34 72  2  0  0  0  0
 35 49  1  0  0  0  0
 35 68  1  0  0  0  0
 35 73  2  0  0  0  0
 36 59  1  0  0  0  0
 36 64  1  0  0  0  0
 36 74  2  0  0  0  0
 37 60  1  0  0  0  0
 37 69  1  0  0  0  0
 37 75  2  0  0  0  0
 38 65  1  0  0  0  0
 38 70  1  0  0  0  0
 38 76  2  0  0  0  0
 39 42  1  0  0  0  0
 40 49  1  0  0  0  0
 41 64  1  0  0  0  0
 42 44  1  0  0  0  0
 43 45  1  0  0  0  0
 43 46  1  0  0  0  0
 44 48  1  0  0  0  0
 45 50  1  0  0  0  0
 46 65  1  0  0  0  0
 47 50  1  0  0  0  0
 47 65  1  0  0  0  0
 48 68  1  0  0  0  0
 49 64  1  0  0  0  0
 50 63  1  0  0  0  0
 51 60  1  0  0  0  0
 52 61  1  0  0  0  0
 53 61  1  0  0  0  0
 54 61  1  0  0  0  0
 55 71  1  0  0  0  0
 56 57  1  0  0  0  0
 56 58  1  0  0  0  0
 57 70  1  0  0  0  0
 58 79  1  0  0  0  0
 59 61  1  0  0  0  0
 59 69  1  0  0  0  0
 60 71  1  0  0  0  0
 62 63  1  0  0  0  0
M  CHG  1  71   1
M  ISO  4  26 101  38 100  70 100  78 101
M  END
> <Batch ID>
0028

> <Smiles>
CNC(C)C(=O)NC(C(=O)N1Cc2cc([101O:1][101c:1]3cc(OCCC[100NH:0][100C:0](=O)N4CCCC(n5nc(-c6ccc(Oc7ccc(F)cc7F)cc6)c(C(N)=O)c5N)C4)c(Cl)cc3Cl)ccc2CC1C(=O)NC1CCCc2ccccc21)C(C)(C)C

> <Shape>
0.221

> <Color>
0.098

> <Negative vol penalty>
0.000

$$$$

  -OEChem-04052316333D

 82 90  0     1  0  0  0  0  0999 V2000
  -26.4518  -25.8301   24.3271 C   0  0  0  0  0  0  0  0  0  0  0  0
  -25.1721  -25.4978   23.8943 C   0  0  0  0  0  0  0  0  0  0  0  0
  -25.7329  -28.4713   21.5710 C   0  0  0  0  0  0  0  0  0  0  0  0
  -25.0836  -27.9821   19.2959 C   0  0  0  0  0  0  0  0  0  0  0  0
  -27.5589  -25.1652   23.8015 C   0  0  0  0  0  0  0  0  0  0  0  0
  -24.9988  -24.5010   22.9347 C   0  0  0  0  0  0  0  0  0  0  0  0
  -20.3628  -20.5168   22.5610 C   0  0  0  0  0  0  0  0  0  0  0  0
  -26.9782  -27.8864   21.3414 C   0  0  0  0  0  0  0  0  0  0  0  0
  -26.3289  -27.3973   19.0662 C   0  0  0  0  0  0  0  0  0  0  0  0
  -19.2008  -20.4993   21.7907 C   0  0  0  0  0  0  0  0  0  0  0  0
  -29.4687  -26.0977   17.7735 C   0  0  0  0  0  0  0  0  0  0  0  0
  -30.1288  -26.4203   16.5879 C   0  0  0  0  0  0  0  0  0  0  0  0
  -20.3026  -19.0908   20.1717 C   0  0  0  0  0  0  0  0  0  0  0  0
  -17.9944  -22.5792   17.7151 C   0  0  0  0  0  0  0  0  0  0  0  0
  -15.6795  -23.6759   18.8200 C   0  0  0  0  0  0  0  0  0  0  0  0
  -30.1438  -28.7494   17.2300 C   0  0  0  0  0  0  0  0  0  0  0  0
  -24.7856  -28.5191   20.5483 C   0  0  0  0  0  0  0  0  0  0  0  0
  -23.1449  -30.4720   20.5957 C   0  0  0  0  0  0  0  0  0  0  0  0
  -27.3984  -24.1531   22.8421 C   0  0  0  0  0  0  0  0  0  0  0  0
  -21.5087  -19.8292   22.1363 C   0  0  0  0  0  0  0  0  0  0  0  0
  -26.1048  -23.8228   22.3948 C   0  0  0  0  0  0  0  0  0  0  0  0
  -21.4770  -19.0990   20.9397 C   0  0  0  0  0  0  0  0  0  0  0  0
  -16.9052  -21.7587   18.0082 C   0  0  0  0  0  0  0  0  0  0  0  0
  -16.7688  -24.4964   18.5270 C   0  0  0  0  0  0  0  0  0  0  0  0
  -27.2762  -27.3495   20.0890 C   0  0  0  0  0  0  0  0  0  0  0  0
  -19.1715  -19.7886   20.5944 C   0  0  0  0  0  0  0  0  0  0  0  0
  -29.1460  -27.1009   18.6874 C   0  0  0  0  0  0  0  0  0  0  0  0
  -30.4663  -27.7461   16.3161 C   0  0  0  0  0  0  0  0  0  0  0  0
  -29.4836  -28.4267   18.4157 C   0  0  0  0  0  0  0  0  0  0  0  0
  -15.7477  -22.3070   18.5607 C   0  0  0  0  0  0  0  0  0  0  0  0
  -17.9262  -23.9481   17.9745 C   0  0  0  0  0  0  0  0  0  0  0  0
  -23.4988  -29.1227   20.7850 C   0  0  0  0  0  0  0  0  0  0  0  0
  -21.8218  -30.5342   20.9591 C   0  0  0  0  0  0  0  0  0  0  0  0
  -23.9410  -31.5709   20.1327 C   0  0  0  0  0  0  0  0  0  0  0  0
  -24.4722  -20.6747   21.3572 C   0  0  0  0  0  0  0  0  0  0  0  0
  -24.9270  -17.4672   21.1907 C   0  0  0  0  0  0  0  0  0  0  0  0
  -23.5680  -14.3670   20.7564 C   0  0  0  0  0  0  0  0  0  0  0  0
  -17.4419  -26.4549   21.1215 C   0  0  0  0  0  0  0  0  0  0  0  0
  -28.6282  -23.4951   22.2684 C   0  0  0  0  0  0  0  0  0  0  0  0
  -22.7458  -19.8360   22.9919 C   0  0  0  0  0  0  0  0  0  0  0  0
  -22.6741  -18.3275   20.4494 C   0  0  0  0  0  0  0  0  0  0  0  0
  -28.3335  -22.1919   21.5301 C   0  0  0  0  0  0  0  0  0  0  0  0
  -18.6256  -28.4344   23.8340 C   0  0  0  0  0  0  0  0  0  0  0  0
  -27.1431  -22.3670   20.5925 C   0  0  0  0  0  0  0  0  0  0  0  0
  -19.9768  -28.9570   23.3431 C   0  0  0  0  0  0  0  0  0  0  0  0
  -18.3633  -27.0088   23.3532 C   0  0  0  0  0  0  0  0  0  0  0  0
  -19.8373  -27.3367   21.4055 C   0  0  0  0  0  0  0  0  0  0  0  0
  -25.8744  -22.7300   21.3737 C   0  0  1  0  0  0  0  0  0  0  0  0
  -24.0164  -19.5229   22.2077 C   0  0  1  0  0  0  0  0  0  0  0  0
  -20.1218  -28.7910   21.8184 C   0  0  2  0  0  0  0  0  0  0  0  0
  -24.1960  -11.9405   20.6337 C   0  0  0  0  0  0  0  0  0  0  0  0
  -26.0161  -17.8941   18.3726 C   0  0  0  0  0  0  0  0  0  0  0  0
  -25.7292  -15.4405   17.9652 C   0  0  0  0  0  0  0  0  0  0  0  0
  -27.2893  -16.2339   19.7427 C   0  0  0  0  0  0  0  0  0  0  0  0
  -21.8897  -13.6947   23.0995 C   0  0  0  0  0  0  0  0  0  0  0  0
  -17.0196  -20.2831   17.7119 C   0  0  0  0  0  0  0  0  0  0  0  0
  -16.6568  -25.9580   18.8202 C   0  0  0  0  0  0  0  0  0  0  0  0
  -18.2005  -19.6376   18.4287 C   0  0  0  0  0  0  0  0  0  1  0  0
  -24.7948  -16.4235   20.1081 C   0  0  1  0  0  0  0  0  0  0  0  0
  -23.7363  -13.0753   21.5358 C   0  0  2  0  0  0  0  0  0  0  0  0
  -25.9352  -16.5140   19.0551 C   0  0  0  0  0  0  0  0  0  0  0  0
  -22.4826  -28.3812   21.2340 N   0  0  0  0  0  0  0  0  0  0  0  0
  -21.4772  -29.2678   21.3298 N   0  0  0  0  0  0  0  0  0  0  0  0
  -23.8619  -18.3701   21.3182 N   0  0  0  0  0  0  0  0  0  0  0  0
  -18.5154  -26.9198   21.8990 N   0  0  0  0  0  0  0  0  0  0  0  0
  -20.9313  -31.5482   20.9945 N   0  0  0  0  0  0  0  0  0  0  0  0
  -25.2819  -31.3320   19.8022 N   0  0  0  0  0  0  0  0  0  0  0  0
  -25.3170  -21.5542   22.0070 N   0  0  0  0  0  0  0  0  0  0  0  0
  -24.7118  -15.1364   20.7899 N   0  0  0  0  0  0  0  0  0  0  0  0
  -17.6676  -26.4078   19.7513 N   0  0  0  0  0  0  0  0  0  0  0  0
  -22.4460  -12.6799   22.1680 N   0  3  0  0  0  0  0  0  0  0  0  0
  -23.4815  -32.7337   20.0312 O   0  0  0  0  0  0  0  0  0  0  0  0
  -24.0872  -20.7584   20.1969 O   0  0  0  0  0  0  0  0  0  0  0  0
  -25.9349  -17.4765   21.9019 O   0  0  0  0  0  0  0  0  0  0  0  0
  -22.5274  -14.6622   20.1729 O   0  0  0  0  0  0  0  0  0  0  0  0
  -16.3604  -26.1127   21.6117 O   0  0  0  0  0  0  0  0  0  0  0  0
  -28.4914  -26.7789   19.8645 O   0  0  0  0  0  0  0  0  0  0  0  0
  -18.0389  -19.7704   19.8403 O   0  0  0  0  0  0  0  0  0  1  0  0
  -31.1016  -28.0556   15.1782 F   0  0  0  0  0  0  0  0  0  0  0  0
  -29.1774  -29.3947   19.2904 F   0  0  0  0  0  0  0  0  0  0  0  0
  -14.3802  -21.3227   18.9349 Cl  0  0  0  0  0  0  0  0  0  0  0  0
  -19.2936  -24.9324   17.5989 Cl  0  0  0  0  0  0  0  0  0  0  0  0
  1  2  1  0  0  0  0
  1  5  2  0  0  0  0
  2  6  2  0  0  0  0
  3  8  2  0  0  0  0
  3 17  1  0  0  0  0
  4  9  1  0  0  0  0
  4 17  2  0  0  0  0
  5 19  1  0  0  0  0
  6 21  1  0  0  0  0
  7 10  2  0  0  0  0
  7 20  1  0  0  0  0
  8 25  1  0  0  0  0
  9 25  2  0  0  0  0
 10 26  1  0  0  0  0
 11 12  2  0  0  0  0
 11 27  1  0  0  0  0
 12 28  1  0  0  0  0
 13 22  1  0  0  0  0
 13 26  2  0  0  0  0
 14 23  1  0  0  0  0
 14 31  2  0  0  0  0
 15 24  2  0  0  0  0
 15 30  1  0  0  0  0
 16 28  2  0  0  0  0
 16 29  1  0  0  0  0
 17 32  1  0  0  0  0
 18 32  1  0  0  0  0
 18 33  2  0  0  0  0
 18 34  1  0  0  0  0
 19 21  2  0  0  0  0
 19 39  1  0  0  0  0
 20 22  2  0  0  0  0
 20 40  1  0  0  0  0
 21 48  1  0  0  0  0
 22 41  1  0  0  0  0
 23 30  2  0  0  0  0
 23 56  1  0  0  0  0
 24 31  1  0  0  0  0
 24 57  1  0  0  0  0
 25 77  1  0  0  0  0
 26 78  1  0  0  0  0
 27 29  2  0  0  0  0
 27 77  1  0  0  0  0
 28 79  1  0  0  0  0
 29 80  1  0  0  0  0
 30 81  1  0  0  0  0
 31 82  1  0  0  0  0
 32 62  2  0  0  0  0
 33 63  1  0  0  0  0
 33 66  1  0  0  0  0
 34 67  1  0  0  0  0
 34 72  2  0  0  0  0
 35 49  1  0  0  0  0
 35 68  1  0  0  0  0
 35 73  2  0  0  0  0
 36 59  1  0  0  0  0
 36 64  1  0  0  0  0
 36 74  2  0  0  0  0
 37 60  1  0  0  0  0
 37 69  1  0  0  0  0
 37 75  2  0  0  0  0
 38 65  1  0  0  0  0
 38 70  1  0  0  0  0
 38 76  2  0  0  0  0
 39 42  1  0  0  0  0
 40 49  1  0  0  0  0
 41 64  1  0  0  0  0
 42 44  1  0  0  0  0
 43 45  1  0  0  0  0
 43 46  1  0  0  0  0
 44 48  1  0  0  0  0
 45 50  1  0  0  0  0
 46 65  1  0  0  0  0
 47 50  1  0  0  0  0
 47 65  1  0  0  0  0
 48 68  1  0  0  0  0
 49 64  1  0  0  0  0
 50 63  1  0  0  0  0
 51 60  1  0  0  0  0
 52 61  1  0  0  0  0
 53 61  1  0  0  0  0
 54 61  1  0  0  0  0
 55 71  1  0  0  0  0
 56 58  1  0  0  0  0
 57 70  1  0  0  0  0
 58 78  1  0  0  0  0
 59 61  1  0  0  0  0
 59 69  1  0  0  0  0
 60 71  1  0  0  0  0
 62 63  1  0  0  0  0
M  CHG  1  71   1
M  ISO  4  38 100  58 101  70 100  78 101
M  END
> <Batch ID>
0028

> <Smiles>
CNC(C)C(=O)NC(C(=O)N1Cc2cc([101O:1][101CH2:1]Cc3cc(Cl)c(C[100NH:0][100C:0](=O)N4CCCC(n5nc(-c6ccc(Oc7ccc(F)cc7F)cc6)c(C(N)=O)c5N)C4)cc3Cl)ccc2CC1C(=O)NC1CCCc2ccccc21)C(C)(C)C

> <Shape>
0.162

> <Color>
0.100

> <Negative vol penalty>
0.000

$$$$

  -OEChem-04052316333D

 83 90  0     1  0  0  0  0  0999 V2000
  -30.6304  -34.8447   23.4313 C   0  0  0  0  0  0  0  0  0  0  0  0
  -30.5409  -33.5655   22.8920 C   0  0  0  0  0  0  0  0  0  0  0  0
  -22.4202  -11.4837   19.6692 C   0  0  0  0  0  0  0  0  0  0  0  0
  -23.1096  -10.6279   21.8208 C   0  0  0  0  0  0  0  0  0  0  0  0
  -29.6188  -35.3214   24.2639 C   0  0  0  0  0  0  0  0  0  0  0  0
  -29.4400  -32.7616   23.1859 C   0  0  0  0  0  0  0  0  0  0  0  0
  -26.7332  -28.7213   19.4637 C   0  0  0  0  0  0  0  0  0  0  0  0
  -21.3152  -10.6327   19.6847 C   0  0  0  0  0  0  0  0  0  0  0  0
  -22.0045   -9.7768   21.8363 C   0  0  0  0  0  0  0  0  0  0  0  0
  -26.8422  -27.3365   19.3443 C   0  0  0  0  0  0  0  0  0  0  0  0
  -21.1123   -6.8267   20.4466 C   0  0  0  0  0  0  0  0  0  0  0  0
  -21.3195   -5.5025   20.8328 C   0  0  0  0  0  0  0  0  0  0  0  0
  -24.8999  -27.0685   20.7496 C   0  0  0  0  0  0  0  0  0  0  0  0
  -19.7705   -5.7941   22.6638 C   0  0  0  0  0  0  0  0  0  0  0  0
  -23.3175  -11.4813   20.7372 C   0  0  0  0  0  0  0  0  0  0  0  0
  -24.5282  -13.6736   21.2223 C   0  0  0  0  0  0  0  0  0  0  0  0
  -28.5002  -34.5266   24.5604 C   0  0  0  0  0  0  0  0  0  0  0  0
  -25.7115  -29.2908   20.2372 C   0  0  0  0  0  0  0  0  0  0  0  0
  -28.4130  -33.2276   24.0243 C   0  0  0  0  0  0  0  0  0  0  0  0
  -24.7786  -28.4608   20.8752 C   0  0  0  0  0  0  0  0  0  0  0  0
  -21.1073   -9.7793   20.7683 C   0  0  0  0  0  0  0  0  0  0  0  0
  -25.9272  -26.5098   19.9896 C   0  0  0  0  0  0  0  0  0  0  0  0
  -20.2343   -7.6346   21.1690 C   0  0  0  0  0  0  0  0  0  0  0  0
  -20.6486   -4.9862   21.9414 C   0  0  0  0  0  0  0  0  0  0  0  0
  -19.5633   -7.1183   22.2776 C   0  0  0  0  0  0  0  0  0  0  0  0
  -24.4594  -12.3598   20.7215 C   0  0  0  0  0  0  0  0  0  0  0  0
  -25.8182  -14.0709   20.9680 C   0  0  0  0  0  0  0  0  0  0  0  0
  -23.5166  -14.4642   21.8604 C   0  0  0  0  0  0  0  0  0  0  0  0
  -25.6192  -31.1236   22.8326 C   0  0  0  0  0  0  0  0  0  0  0  0
  -27.3639  -23.2329   20.3374 C   0  0  0  0  0  0  0  0  0  0  0  0
  -22.4366  -31.1754   22.2073 C   0  0  0  0  0  0  0  0  0  0  0  0
  -19.7465  -29.6687   20.7444 C   0  0  0  0  0  0  0  0  0  0  0  0
  -31.3070  -13.0623   20.9489 C   0  0  0  0  0  0  0  0  0  0  0  0
  -27.4548  -35.0675   25.5034 C   0  0  0  0  0  0  0  0  0  0  0  0
  -25.5916  -30.7870   20.3342 C   0  0  0  0  0  0  0  0  0  0  0  0
  -23.6513  -29.0228   21.7009 C   0  0  0  0  0  0  0  0  0  0  0  0
  -26.1400  -34.2929   25.4643 C   0  0  0  0  0  0  0  0  0  0  0  0
  -29.4275  -11.9273   18.1460 C   0  0  0  0  0  0  0  0  0  0  0  0
  -26.4035  -32.7912   25.5132 C   0  0  0  0  0  0  0  0  0  0  0  0
  -27.9743  -12.0411   18.6098 C   0  0  0  0  0  0  0  0  0  0  0  0
  -30.3510  -11.4972   19.2837 C   0  0  0  0  0  0  0  0  0  0  0  0
  -28.8142  -12.4442   20.9615 C   0  0  0  0  0  0  0  0  0  0  0  0
  -27.2225  -32.3349   24.2998 C   0  0  1  0  0  0  0  0  0  0  0  0
  -24.8187  -31.2458   21.5669 C   0  0  1  0  0  0  0  0  0  0  0  0
  -27.8534  -12.9295   19.8625 C   0  0  2  0  0  0  0  0  0  0  0  0
  -17.2696  -29.9282   20.4364 C   0  0  0  0  0  0  0  0  0  0  0  0
  -21.9846  -30.2439   25.0775 C   0  0  0  0  0  0  0  0  0  0  0  0
  -19.6481  -29.6173   24.4324 C   0  0  0  0  0  0  0  0  0  0  0  0
  -20.3854  -31.9958   24.2852 C   0  0  0  0  0  0  0  0  0  0  0  0
  -20.0123  -29.8301   17.8012 C   0  0  0  0  0  0  0  0  0  0  0  0
  -28.6601  -22.4538   20.2386 C   0  0  0  0  0  0  0  0  0  0  0  0
  -28.5566  -21.1147   20.9593 C   0  0  0  0  0  0  0  0  0  0  0  0
  -29.8768  -20.3459   20.8962 C   0  0  0  0  0  0  0  0  0  0  0  0
  -29.7633  -18.9878   21.5905 C   0  0  0  0  0  0  0  0  0  0  0  0
  -31.0738  -18.2045   21.4985 C   0  0  0  0  0  0  0  0  0  0  0  0
  -30.9500  -16.8329   22.1642 C   0  0  0  0  0  0  0  0  0  0  0  0
  -32.2491  -16.0363   22.0433 C   0  0  0  0  0  0  0  0  0  0  0  0
  -32.1132  -14.6552   22.6728 C   0  0  0  0  0  0  0  0  0  0  0  0
  -27.3316  -24.6046   19.6903 C   0  0  2  0  0  0  0  0  0  1  0  0
  -21.2555  -30.3220   22.6019 C   0  0  1  0  0  0  0  0  0  0  0  0
  -18.6450  -30.2171   19.8553 C   0  0  2  0  0  0  0  0  0  0  0  0
  -20.8407  -30.5338   24.0853 C   0  0  0  0  0  0  0  0  0  0  0  0
  -25.6138  -11.9498   20.1891 N   0  0  0  0  0  0  0  0  0  0  0  0
  -26.4201  -13.0123   20.3539 N   0  0  0  0  0  0  0  0  0  0  0  0
  -23.5801  -30.4917   21.7705 N   0  0  0  0  0  0  0  0  0  0  0  0
  -30.1887  -12.3811   20.4406 N   0  0  0  0  0  0  0  0  0  0  0  0
  -26.4849  -15.2191   21.2119 N   0  0  0  0  0  0  0  0  0  0  0  0
  -22.2457  -13.9022   22.0432 N   0  0  0  0  0  0  0  0  0  0  0  0
  -26.3790  -32.2394   23.1277 N   0  0  0  0  0  0  0  0  0  0  0  0
  -20.2000  -30.6154   21.6386 N   0  0  0  0  0  0  0  0  0  0  0  0
  -31.0647  -13.8845   22.0425 N   0  0  0  0  0  0  0  0  0  0  0  0
  -18.7205  -29.6039   18.4991 N   0  3  0  0  0  0  0  0  0  0  0  0
  -23.7284  -15.6403   22.2420 O   0  0  0  0  0  0  0  0  0  0  0  0
  -25.5513  -30.0938   23.4933 O   0  0  0  0  0  0  0  0  0  0  0  0
  -26.4000  -22.7766   20.9530 O   0  0  0  0  0  0  0  0  0  0  0  0
  -22.3455  -32.4036   22.2770 O   0  0  0  0  0  0  0  0  0  0  0  0
  -20.1606  -28.5148   20.6570 O   0  0  0  0  0  0  0  0  0  0  0  0
  -32.4367  -12.9505   20.4607 O   0  0  0  0  0  0  0  0  0  0  0  0
  -20.0290   -8.9489   20.7839 O   0  0  0  0  0  0  0  0  0  0  0  0
  -26.0324  -25.1494   19.8745 O   0  0  0  0  0  0  0  0  0  1  0  0
  -20.8465   -3.7141   22.3112 F   0  0  0  0  0  0  0  0  0  0  0  0
  -18.7176   -7.8894   22.9748 F   0  0  0  0  0  0  0  0  0  0  0  0
  -27.5705  -24.5065   18.3556 F   0  0  0  0  0  0  0  0  0  0  0  0
  1  2  1  0  0  0  0
  1  5  2  0  0  0  0
  2  6  2  0  0  0  0
  3  8  2  0  0  0  0
  3 15  1  0  0  0  0
  4  9  1  0  0  0  0
  4 15  2  0  0  0  0
  5 17  1  0  0  0  0
  6 19  1  0  0  0  0
  7 10  2  0  0  0  0
  7 18  1  0  0  0  0
  8 21  1  0  0  0  0
  9 21  2  0  0  0  0
 10 22  1  0  0  0  0
 11 12  2  0  0  0  0
 11 23  1  0  0  0  0
 12 24  1  0  0  0  0
 13 20  1  0  0  0  0
 13 22  2  0  0  0  0
 14 24  2  0  0  0  0
 14 25  1  0  0  0  0
 15 26  1  0  0  0  0
 16 26  1  0  0  0  0
 16 27  2  0  0  0  0
 16 28  1  0  0  0  0
 17 19  2  0  0  0  0
 17 34  1  0  0  0  0
 18 20  2  0  0  0  0
 18 35  1  0  0  0  0
 19 43  1  0  0  0  0
 20 36  1  0  0  0  0
 21 79  1  0  0  0  0
 22 80  1  0  0  0  0
 23 25  2  0  0  0  0
 23 79  1  0  0  0  0
 24 81  1  0  0  0  0
 25 82  1  0  0  0  0
 26 63  2  0  0  0  0
 27 64  1  0  0  0  0
 27 67  1  0  0  0  0
 28 68  1  0  0  0  0
 28 73  2  0  0  0  0
 29 44  1  0  0  0  0
 29 69  1  0  0  0  0
 29 74  2  0  0  0  0
 30 51  1  0  0  0  0
 30 59  1  0  0  0  0
 30 75  2  0  0  0  0
 31 60  1  0  0  0  0
 31 65  1  0  0  0  0
 31 76  2  0  0  0  0
 32 61  1  0  0  0  0
 32 70  1  0  0  0  0
 32 77  2  0  0  0  0
 33 66  1  0  0  0  0
 33 71  1  0  0  0  0
 33 78  2  0  0  0  0
 34 37  1  0  0  0  0
 35 44  1  0  0  0  0
 36 65  1  0  0  0  0
 37 39  1  0  0  0  0
 38 40  1  0  0  0  0
 38 41  1  0  0  0  0
 39 43  1  0  0  0  0
 40 45  1  0  0  0  0
 41 66  1  0  0  0  0
 42 45  1  0  0  0  0
 42 66  1  0  0  0  0
 43 69  1  0  0  0  0
 44 65  1  0  0  0  0
 45 64  1  0  0  0  0
 46 61  1  0  0  0  0
 47 62  1  0  0  0  0
 48 62  1  0  0  0  0
 49 62  1  0  0  0  0
 50 72  1  0  0  0  0
 51 52  1  0  0  0  0
 52 53  1  0  0  0  0
 53 54  1  0  0  0  0
 54 55  1  0  0  0  0
 55 56  1  0  0  0  0
 56 57  1  0  0  0  0
 57 58  1  0  0  0  0
 58 71  1  0  0  0  0
 59 80  1  0  0  0  0
 59 83  1  0  0  0  0
 60 62  1  0  0  0  0
 60 70  1  0  0  0  0
 61 72  1  0  0  0  0
 63 64  1  0  0  0  0
M  CHG  1  72   1
M  ISO  4  33 100  59 101  71 100  80 101
M  END
> <Batch ID>
0028

> <Smiles>
CNC(C)C(=O)NC(C(=O)N1Cc2cc([101O:1][101CH:1](F)C(=O)CCCCCCCC[100NH:0][100C:0](=O)N3CCCC(n4nc(-c5ccc(Oc6ccc(F)cc6F)cc5)c(C(N)=O)c4N)C3)ccc2CC1C(=O)NC1CCCc2ccccc21)C(C)(C)C

> <Shape>
0.303

> <Color>
0.099

> <Negative vol penalty>
0.000

$$$$

  -OEChem-04052316333D

 84 92  0     1  0  0  0  0  0999 V2000
  -40.5777  -26.0856   20.2327 C   0  0  0  0  0  0  0  0  0  0  0  0
  -40.0637  -25.4419   21.3539 C   0  0  0  0  0  0  0  0  0  0  0  0
  -23.1915   -9.7957   19.9664 C   0  0  0  0  0  0  0  0  0  0  0  0
  -23.6002  -10.0300   22.3360 C   0  0  0  0  0  0  0  0  0  0  0  0
  -39.7133  -26.6768   19.3123 C   0  0  0  0  0  0  0  0  0  0  0  0
  -38.6850  -25.3901   21.5558 C   0  0  0  0  0  0  0  0  0  0  0  0
  -35.5043  -20.8077   24.0839 C   0  0  0  0  0  0  0  0  0  0  0  0
  -22.4360   -8.6488   20.2100 C   0  0  0  0  0  0  0  0  0  0  0  0
  -22.8446   -8.8831   22.5797 C   0  0  0  0  0  0  0  0  0  0  0  0
  -35.0053  -20.6104   25.3707 C   0  0  0  0  0  0  0  0  0  0  0  0
  -23.2651   -5.5342   22.3824 C   0  0  0  0  0  0  0  0  0  0  0  0
  -23.7817   -4.5954   23.2753 C   0  0  0  0  0  0  0  0  0  0  0  0
  -32.8631  -21.4658   24.6648 C   0  0  0  0  0  0  0  0  0  0  0  0
  -31.5361  -14.0368   26.1716 C   0  0  0  0  0  0  0  0  0  0  0  0
  -31.6261  -14.9285   23.5298 C   0  0  0  0  0  0  0  0  0  0  0  0
  -21.8421   -4.8726   24.6889 C   0  0  0  0  0  0  0  0  0  0  0  0
  -23.7737  -10.4863   21.0294 C   0  0  0  0  0  0  0  0  0  0  0  0
  -24.0918  -12.9992   20.7269 C   0  0  0  0  0  0  0  0  0  0  0  0
  -38.3228  -26.6238   19.4981 C   0  0  0  0  0  0  0  0  0  0  0  0
  -34.6881  -21.3467   23.0789 C   0  0  0  0  0  0  0  0  0  0  0  0
  -37.8012  -25.9823   20.6377 C   0  0  0  0  0  0  0  0  0  0  0  0
  -33.3533  -21.6667   23.3654 C   0  0  0  0  0  0  0  0  0  0  0  0
  -32.0724  -15.2901   25.8765 C   0  0  0  0  0  0  0  0  0  0  0  0
  -31.0449  -13.2293   25.1458 C   0  0  0  0  0  0  0  0  0  0  0  0
  -32.1174  -15.7360   24.5556 C   0  0  0  0  0  0  0  0  0  0  0  0
  -31.0899  -13.6751   23.8249 C   0  0  0  0  0  0  0  0  0  0  0  0
  -22.2625   -8.1925   21.5167 C   0  0  0  0  0  0  0  0  0  0  0  0
  -33.6855  -20.9421   25.6621 C   0  0  0  0  0  0  0  0  0  0  0  0
  -22.0370   -6.1423   22.6427 C   0  0  0  0  0  0  0  0  0  0  0  0
  -23.0702   -4.2646   24.4286 C   0  0  0  0  0  0  0  0  0  0  0  0
  -21.3255   -5.8114   23.7960 C   0  0  0  0  0  0  0  0  0  0  0  0
  -24.5547  -11.6707   20.7782 C   0  0  0  0  0  0  0  0  0  0  0  0
  -25.2147  -13.7440   20.4605 C   0  0  0  0  0  0  0  0  0  0  0  0
  -22.7655  -13.5140   20.9043 C   0  0  0  0  0  0  0  0  0  0  0  0
  -34.7692  -23.9745   21.2924 C   0  0  0  0  0  0  0  0  0  0  0  0
  -32.2291  -22.5873   19.8275 C   0  0  0  0  0  0  0  0  0  0  0  0
  -29.6240  -20.3903   20.0097 C   0  0  0  0  0  0  0  0  0  0  0  0
  -31.0389  -12.8444   21.4471 C   0  0  0  0  0  0  0  0  0  0  0  0
  -37.4301  -27.3184   18.5004 C   0  0  0  0  0  0  0  0  0  0  0  0
  -35.2336  -21.5285   21.6891 C   0  0  0  0  0  0  0  0  0  0  0  0
  -32.4301  -22.2293   22.3168 C   0  0  0  0  0  0  0  0  0  0  0  0
  -35.9667  -26.8943   18.5938 C   0  0  0  0  0  0  0  0  0  0  0  0
  -29.4801  -13.4478   18.3034 C   0  0  0  0  0  0  0  0  0  0  0  0
  -35.5042  -26.8886   20.0474 C   0  0  0  0  0  0  0  0  0  0  0  0
  -27.9972  -13.1874   18.5782 C   0  0  0  0  0  0  0  0  0  0  0  0
  -30.3780  -12.4854   19.0787 C   0  0  0  0  0  0  0  0  0  0  0  0
  -28.6432  -12.1690   20.7991 C   0  0  0  0  0  0  0  0  0  0  0  0
  -36.3105  -25.8835   20.8788 C   0  0  1  0  0  0  0  0  0  0  0  0
  -34.4631  -22.5638   20.8755 C   0  0  1  0  0  0  0  0  0  0  0  0
  -27.7013  -13.1560   20.0904 C   0  0  2  0  0  0  0  0  0  0  0  0
  -30.4759  -11.8913   25.4910 C   0  0  0  0  0  0  0  0  0  0  0  0
  -32.6872  -17.0740   24.2157 C   0  0  0  0  0  0  0  0  0  0  0  0
  -27.6999  -19.5004   18.6667 C   0  0  0  0  0  0  0  0  0  0  0  0
  -30.6889  -25.1739   20.3247 C   0  0  0  0  0  0  0  0  0  0  0  0
  -28.5728  -23.9234   19.8488 C   0  0  0  0  0  0  0  0  0  0  0  0
  -30.3110  -24.1509   18.0741 C   0  0  0  0  0  0  0  0  0  0  0  0
  -30.6772  -17.6265   20.1161 C   0  0  0  0  0  0  0  0  0  0  0  0
  -32.5950  -16.1409   26.9963 C   0  0  0  0  0  0  0  0  0  0  0  0
  -31.5831  -19.6058   28.2738 C   0  0  0  0  0  0  0  0  0  0  0  0
  -32.3430  -18.2881   28.2472 C   0  0  0  0  0  0  0  0  0  0  0  0
  -31.8030  -20.4655   27.0350 C   0  0  0  0  0  0  0  0  0  1  0  0
  -30.7337  -22.6090   20.0326 C   0  0  1  0  0  0  0  0  0  0  0  0
  -29.1555  -19.3024   19.0603 C   0  0  2  0  0  0  0  0  0  0  0  0
  -30.0943  -23.9555   19.5906 C   0  0  0  0  0  0  0  0  0  0  0  0
  -25.8692  -11.5740   20.5616 N   0  0  0  0  0  0  0  0  0  0  0  0
  -26.2418  -12.8511   20.3715 N   0  0  0  0  0  0  0  0  0  0  0  0
  -33.0120  -22.3946   20.9746 N   0  0  0  0  0  0  0  0  0  0  0  0
  -30.0432  -12.5123   20.5042 N   0  0  0  0  0  0  0  0  0  0  0  0
  -25.4137  -15.0691   20.2959 N   0  0  0  0  0  0  0  0  0  0  0  0
  -21.7282  -12.6101   21.1718 N   0  0  0  0  0  0  0  0  0  0  0  0
  -30.5957  -12.8696   22.7691 N   0  0  0  0  0  0  0  0  0  0  0  0
  -35.8457  -24.5354   20.6320 N   0  0  0  0  0  0  0  0  0  0  0  0
  -30.2089  -21.4405   19.3343 N   0  0  0  0  0  0  0  0  0  0  0  0
  -29.2914  -17.9631   19.6997 N   0  3  0  0  0  0  0  0  0  0  0  0
  -31.8938  -17.4495   27.1112 N   0  3  0  0  0  0  0  0  0  0  0  0
  -22.5049  -14.7375   20.8117 O   0  0  0  0  0  0  0  0  0  0  0  0
  -34.0788  -24.5148   22.1487 O   0  0  0  0  0  0  0  0  0  0  0  0
  -32.6856  -22.7288   18.6903 O   0  0  0  0  0  0  0  0  0  0  0  0
  -29.4817  -20.3176   21.2283 O   0  0  0  0  0  0  0  0  0  0  0  0
  -32.1928  -13.1151   21.1045 O   0  0  0  0  0  0  0  0  0  0  0  0
  -21.5251   -7.0735   21.7549 O   0  0  0  0  0  0  0  0  0  0  0  0
  -33.1962  -20.7511   26.9175 O   0  0  0  0  0  0  0  0  0  1  0  0
  -23.5658   -3.3619   25.2852 F   0  0  0  0  0  0  0  0  0  0  0  0
  -20.1446   -6.3914   24.0509 F   0  0  0  0  0  0  0  0  0  0  0  0
  1  2  1  0  0  0  0
  1  5  2  0  0  0  0
  2  6  2  0  0  0  0
  3  8  2  0  0  0  0
  3 17  1  0  0  0  0
  4  9  1  0  0  0  0
  4 17  2  0  0  0  0
  5 19  1  0  0  0  0
  6 21  1  0  0  0  0
  7 10  2  0  0  0  0
  7 20  1  0  0  0  0
  8 27  1  0  0  0  0
  9 27  2  0  0  0  0
 10 28  1  0  0  0  0
 11 12  2  0  0  0  0
 11 29  1  0  0  0  0
 12 30  1  0  0  0  0
 13 22  1  0  0  0  0
 13 28  2  0  0  0  0
 14 23  1  0  0  0  0
 14 24  2  0  0  0  0
 15 25  1  0  0  0  0
 15 26  2  0  0  0  0
 16 30  2  0  0  0  0
 16 31  1  0  0  0  0
 17 32  1  0  0  0  0
 18 32  1  0  0  0  0
 18 33  2  0  0  0  0
 18 34  1  0  0  0  0
 19 21  2  0  0  0  0
 19 39  1  0  0  0  0
 20 22  2  0  0  0  0
 20 40  1  0  0  0  0
 21 48  1  0  0  0  0
 22 41  1  0  0  0  0
 23 25  2  0  0  0  0
 23 58  1  0  0  0  0
 24 26  1  0  0  0  0
 24 51  1  0  0  0  0
 25 52  1  0  0  0  0
 26 71  1  0  0  0  0
 27 81  1  0  0  0  0
 28 82  1  0  0  0  0
 29 31  2  0  0  0  0
 29 81  1  0  0  0  0
 30 83  1  0  0  0  0
 31 84  1  0  0  0  0
 32 65  2  0  0  0  0
 33 66  1  0  0  0  0
 33 69  1  0  0  0  0
 34 70  1  0  0  0  0
 34 76  2  0  0  0  0
 35 49  1  0  0  0  0
 35 72  1  0  0  0  0
 35 77  2  0  0  0  0
 36 62  1  0  0  0  0
 36 67  1  0  0  0  0
 36 78  2  0  0  0  0
 37 63  1  0  0  0  0
 37 73  1  0  0  0  0
 37 79  2  0  0  0  0
 38 68  1  0  0  0  0
 38 71  1  0  0  0  0
 38 80  2  0  0  0  0
 39 42  1  0  0  0  0
 40 49  1  0  0  0  0
 41 67  1  0  0  0  0
 42 44  1  0  0  0  0
 43 45  1  0  0  0  0
 43 46  1  0  0  0  0
 44 48  1  0  0  0  0
 45 50  1  0  0  0  0
 46 68  1  0  0  0  0
 47 50  1  0  0  0  0
 47 68  1  0  0  0  0
 48 72  1  0  0  0  0
 49 67  1  0  0  0  0
 50 66  1  0  0  0  0
 53 63  1  0  0  0  0
 54 64  1  0  0  0  0
 55 64  1  0  0  0  0
 56 64  1  0  0  0  0
 57 74  1  0  0  0  0
 58 75  1  0  0  0  0
 59 60  1  0  0  0  0
 59 61  1  0  0  0  0
 60 75  1  0  0  0  0
 61 82  1  0  0  0  0
 62 64  1  0  0  0  0
 62 73  1  0  0  0  0
 63 74  1  0  0  0  0
 65 66  1  0  0  0  0
M  CHG  2  74   1  75   1
M  ISO  4  38 100  61 101  71 100  82 101
M  END
> <Batch ID>
0028

> <Smiles>
CNC(C)C(=O)NC(C(=O)N1Cc2cc([101O:1][101CH2:1]CCNCc3cc(C)c([100NH:0][100C:0](=O)N4CCCC(n5nc(-c6ccc(Oc7ccc(F)cc7F)cc6)c(C(N)=O)c5N)C4)cc3C)ccc2CC1C(=O)NC1CCCc2ccccc21)C(C)(C)C

> <Shape>
0.211

> <Color>
0.185

> <Negative vol penalty>
0.000

$$$$

  -OEChem-04052316333D

 85 93  0     1  0  0  0  0  0999 V2000
  -30.2020  -23.6278   14.2960 C   0  0  0  0  0  0  0  0  0  0  0  0
  -29.9393  -24.9931   14.2896 C   0  0  0  0  0  0  0  0  0  0  0  0
  -26.1180  -13.5771   18.8967 C   0  0  0  0  0  0  0  0  0  0  0  0
  -25.2881  -13.9121   21.1408 C   0  0  0  0  0  0  0  0  0  0  0  0
  -29.4741  -22.7858   15.1341 C   0  0  0  0  0  0  0  0  0  0  0  0
  -28.9569  -25.5183   15.1298 C   0  0  0  0  0  0  0  0  0  0  0  0
  -24.2457  -30.1608   20.1948 C   0  0  0  0  0  0  0  0  0  0  0  0
  -25.9816  -12.1977   19.0522 C   0  0  0  0  0  0  0  0  0  0  0  0
  -25.1517  -12.5327   21.2963 C   0  0  0  0  0  0  0  0  0  0  0  0
  -23.4606  -29.8997   21.3169 C   0  0  0  0  0  0  0  0  0  0  0  0
  -24.2446   -9.1185   22.1559 C   0  0  0  0  0  0  0  0  0  0  0  0
  -23.0664   -8.6435   22.7318 C   0  0  0  0  0  0  0  0  0  0  0  0
  -25.1289  -28.3515   22.1165 C   0  0  0  0  0  0  0  0  0  0  0  0
  -25.0486  -24.4850   21.3207 C   0  0  0  0  0  0  0  0  0  0  0  0
  -23.4196  -23.6358   23.4201 C   0  0  0  0  0  0  0  0  0  0  0  0
  -21.7877   -9.6494   20.9458 C   0  0  0  0  0  0  0  0  0  0  0  0
  -25.7713  -14.4343   19.9410 C   0  0  0  0  0  0  0  0  0  0  0  0
  -24.9478  -16.7594   19.2903 C   0  0  0  0  0  0  0  0  0  0  0  0
  -28.4739  -23.3001   15.9756 C   0  0  0  0  0  0  0  0  0  0  0  0
  -25.4754  -29.5100   20.0194 C   0  0  0  0  0  0  0  0  0  0  0  0
  -28.2279  -24.6880   16.0004 C   0  0  0  0  0  0  0  0  0  0  0  0
  -25.9289  -28.6081   20.9925 C   0  0  0  0  0  0  0  0  0  0  0  0
  -25.6062  -23.8122   22.4078 C   0  0  0  0  0  0  0  0  0  0  0  0
  -22.8620  -24.3086   22.3329 C   0  0  0  0  0  0  0  0  0  0  0  0
  -25.4985  -11.6754   20.2520 C   0  0  0  0  0  0  0  0  0  0  0  0
  -23.9008  -28.9928   22.2765 C   0  0  0  0  0  0  0  0  0  0  0  0
  -24.1944   -9.8592   20.9749 C   0  0  0  0  0  0  0  0  0  0  0  0
  -21.8379   -8.9089   22.1268 C   0  0  0  0  0  0  0  0  0  0  0  0
  -22.9659  -10.1246   20.3699 C   0  0  0  0  0  0  0  0  0  0  0  0
  -24.7917  -23.3875   23.4576 C   0  0  0  0  0  0  0  0  0  0  0  0
  -23.6765  -24.7333   21.2832 C   0  0  0  0  0  0  0  0  0  0  0  0
  -25.9125  -15.8593   19.7812 C   0  0  0  0  0  0  0  0  0  0  0  0
  -25.5663  -17.9849   19.3370 C   0  0  0  0  0  0  0  0  0  0  0  0
  -23.6119  -16.5101   18.8331 C   0  0  0  0  0  0  0  0  0  0  0  0
  -26.6713  -27.5220   17.8465 C   0  0  0  0  0  0  0  0  0  0  0  0
  -29.4039  -27.9286   19.5465 C   0  0  0  0  0  0  0  0  0  0  0  0
  -30.3361  -28.1221   23.0266 C   0  0  0  0  0  0  0  0  0  0  0  0
  -28.7178  -21.7476   21.9931 C   0  0  0  0  0  0  0  0  0  0  0  0
  -27.7219  -22.3446   16.8681 C   0  0  0  0  0  0  0  0  0  0  0  0
  -26.3228  -29.8227   18.8167 C   0  0  0  0  0  0  0  0  0  0  0  0
  -27.2508  -27.8983   20.8613 C   0  0  0  0  0  0  0  0  0  0  0  0
  -26.4110  -22.9246   17.3892 C   0  0  0  0  0  0  0  0  0  0  0  0
  -30.4059  -19.2005   20.1659 C   0  0  0  0  0  0  0  0  0  0  0  0
  -26.6497  -24.3113   17.9676 C   0  0  0  0  0  0  0  0  0  0  0  0
  -29.3095  -18.1761   19.8682 C   0  0  0  0  0  0  0  0  0  0  0  0
  -30.2264  -19.8350   21.5433 C   0  0  0  0  0  0  0  0  0  0  0  0
  -27.8008  -19.4027   21.4862 C   0  0  0  0  0  0  0  0  0  0  0  0
  -27.1431  -25.2778   16.8834 C   0  0  1  0  0  0  0  0  0  0  0  0
  -27.3205  -28.7173   18.4850 C   0  0  1  0  0  0  0  0  0  0  0  0
  -27.9074  -18.7764   20.0853 C   0  0  2  0  0  0  0  0  0  0  0  0
  -32.2699  -29.2741   24.1360 C   0  0  0  0  0  0  0  0  0  0  0  0
  -30.7850  -25.2190   19.3000 C   0  0  0  0  0  0  0  0  0  0  0  0
  -31.8022  -25.6106   21.5538 C   0  0  0  0  0  0  0  0  0  0  0  0
  -32.3327  -27.1495   19.6636 C   0  0  0  0  0  0  0  0  0  0  0  0
  -28.5469  -29.6408   24.8297 C   0  0  0  0  0  0  0  0  0  0  0  0
  -27.0804  -23.5656   22.4093 C   0  0  0  0  0  0  0  0  0  0  0  0
  -21.3824  -24.5570   22.3304 C   0  0  0  0  0  0  0  0  0  0  0  0
  -21.0459  -27.8879   24.1886 C   0  0  0  0  0  0  0  0  0  0  0  0
  -21.4360  -26.4325   23.9791 C   0  0  0  0  0  0  0  0  0  0  0  0
  -21.7219  -28.8495   23.2189 C   0  0  0  0  0  0  0  0  0  1  0  0
  -30.0410  -27.2374   20.7277 C   0  0  1  0  0  0  0  0  0  0  0  0
  -30.7945  -29.3594   23.7771 C   0  0  2  0  0  0  0  0  0  0  0  0
  -31.2120  -26.3047   20.3079 C   0  0  0  0  0  0  0  0  0  0  0  0
  -27.0570  -16.4616   20.1151 N   0  0  0  0  0  0  0  0  0  0  0  0
  -26.8154  -17.7533   19.8334 N   0  0  0  0  0  0  0  0  0  0  0  0
  -28.0404  -28.2329   19.6646 N   0  0  0  0  0  0  0  0  0  0  0  0
  -28.8767  -20.3867   21.6840 N   0  0  0  0  0  0  0  0  0  0  0  0
  -25.1582  -19.2271   19.0014 N   0  0  0  0  0  0  0  0  0  0  0  0
  -23.1341  -15.1927   18.8523 N   0  0  0  0  0  0  0  0  0  0  0  0
  -27.5555  -26.5159   17.5068 N   0  0  0  0  0  0  0  0  0  0  0  0
  -30.4222  -28.2920   21.6609 N   0  0  0  0  0  0  0  0  0  0  0  0
  -27.4053  -22.1905   22.1022 N   0  0  0  0  0  0  0  0  0  0  0  0
  -30.0132  -29.5208   25.0359 N   0  3  0  0  0  0  0  0  0  0  0  0
  -21.0277  -25.9716   22.6314 N   0  3  0  0  0  0  0  0  0  0  0  0
  -22.8699  -17.4261   18.4043 O   0  0  0  0  0  0  0  0  0  0  0  0
  -25.4578  -27.5126   17.6761 O   0  0  0  0  0  0  0  0  0  0  0  0
  -30.0925  -28.1952   18.5583 O   0  0  0  0  0  0  0  0  0  0  0  0
  -29.9446  -27.1052   23.5949 O   0  0  0  0  0  0  0  0  0  0  0  0
  -29.6747  -22.5127   22.1544 O   0  0  0  0  0  0  0  0  0  0  0  0
  -25.3650  -10.3295   20.4040 O   0  0  0  0  0  0  0  0  0  0  0  0
  -23.1361  -28.7356   23.3724 O   0  0  0  0  0  0  0  0  0  1  0  0
  -20.7067   -8.4513   22.6791 F   0  0  0  0  0  0  0  0  0  0  0  0
  -22.9114  -10.8345   19.2346 F   0  0  0  0  0  0  0  0  0  0  0  0
  -25.4466  -22.5511   24.8180 Cl  0  0  0  0  0  0  0  0  0  0  0  0
  -23.0218  -25.5686   19.9219 Cl  0  0  0  0  0  0  0  0  0  0  0  0
  1  2  1  0  0  0  0
  1  5  2  0  0  0  0
  2  6  2  0  0  0  0
  3  8  2  0  0  0  0
  3 17  1  0  0  0  0
  4  9  1  0  0  0  0
  4 17  2  0  0  0  0
  5 19  1  0  0  0  0
  6 21  1  0  0  0  0
  7 10  2  0  0  0  0
  7 20  1  0  0  0  0
  8 25  1  0  0  0  0
  9 25  2  0  0  0  0
 10 26  1  0  0  0  0
 11 12  2  0  0  0  0
 11 27  1  0  0  0  0
 12 28  1  0  0  0  0
 13 22  1  0  0  0  0
 13 26  2  0  0  0  0
 14 23  2  0  0  0  0
 14 31  1  0  0  0  0
 15 24  1  0  0  0  0
 15 30  2  0  0  0  0
 16 28  2  0  0  0  0
 16 29  1  0  0  0  0
 17 32  1  0  0  0  0
 18 32  1  0  0  0  0
 18 33  2  0  0  0  0
 18 34  1  0  0  0  0
 19 21  2  0  0  0  0
 19 39  1  0  0  0  0
 20 22  2  0  0  0  0
 20 40  1  0  0  0  0
 21 48  1  0  0  0  0
 22 41  1  0  0  0  0
 23 30  1  0  0  0  0
 23 56  1  0  0  0  0
 24 31  2  0  0  0  0
 24 57  1  0  0  0  0
 25 80  1  0  0  0  0
 26 81  1  0  0  0  0
 27 29  2  0  0  0  0
 27 80  1  0  0  0  0
 28 82  1  0  0  0  0
 29 83  1  0  0  0  0
 30 84  1  0  0  0  0
 31 85  1  0  0  0  0
 32 64  2  0  0  0  0
 33 65  1  0  0  0  0
 33 68  1  0  0  0  0
 34 69  1  0  0  0  0
 34 75  2  0  0  0  0
 35 49  1  0  0  0  0
 35 70  1  0  0  0  0
 35 76  2  0  0  0  0
 36 61  1  0  0  0  0
 36 66  1  0  0  0  0
 36 77  2  0  0  0  0
 37 62  1  0  0  0  0
 37 71  1  0  0  0  0
 37 78  2  0  0  0  0
 38 67  1  0  0  0  0
 38 72  1  0  0  0  0
 38 79  2  0  0  0  0
 39 42  1  0  0  0  0
 40 49  1  0  0  0  0
 41 66  1  0  0  0  0
 42 44  1  0  0  0  0
 43 45  1  0  0  0  0
 43 46  1  0  0  0  0
 44 48  1  0  0  0  0
 45 50  1  0  0  0  0
 46 67  1  0  0  0  0
 47 50  1  0  0  0  0
 47 67  1  0  0  0  0
 48 70  1  0  0  0  0
 49 66  1  0  0  0  0
 50 65  1  0  0  0  0
 51 62  1  0  0  0  0
 52 63  1  0  0  0  0
 53 63  1  0  0  0  0
 54 63  1  0  0  0  0
 55 73  1  0  0  0  0
 56 72  1  0  0  0  0
 57 74  1  0  0  0  0
 58 59  1  0  0  0  0
 58 60  1  0  0  0  0
 59 74  1  0  0  0  0
 60 81  1  0  0  0  0
 61 63  1  0  0  0  0
 61 71  1  0  0  0  0
 62 73  1  0  0  0  0
 64 65  1  0  0  0  0
M  CHG  2  73   1  74   1
M  ISO  4  38 100  60 101  72 100  81 101
M  END
> <Batch ID>
0028

> <Smiles>
CNC(C)C(=O)NC(C(=O)N1Cc2cc([101O:1][101CH2:1]CCNCc3cc(Cl)c(C[100NH:0][100C:0](=O)N4CCCC(n5nc(-c6ccc(Oc7ccc(F)cc7F)cc6)c(C(N)=O)c5N)C4)cc3Cl)ccc2CC1C(=O)NC1CCCc2ccccc21)C(C)(C)C

> <Shape>
0.214

> <Color>
0.063

> <Negative vol penalty>
0.000

$$$$

  -OEChem-04052316333D

 82 90  0     1  0  0  0  0  0999 V2000
  -18.3825  -27.2378   22.4257 C   0  0  0  0  0  0  0  0  0  0  0  0
  -19.7167  -27.0736   22.0674 C   0  0  0  0  0  0  0  0  0  0  0  0
  -24.8964  -10.2634   22.9248 C   0  0  0  0  0  0  0  0  0  0  0  0
  -24.5938  -11.8948   24.6810 C   0  0  0  0  0  0  0  0  0  0  0  0
  -17.9593  -28.4340   23.0036 C   0  0  0  0  0  0  0  0  0  0  0  0
  -20.6283  -28.1060   22.2857 C   0  0  0  0  0  0  0  0  0  0  0  0
  -24.9790  -26.4645   24.2911 C   0  0  0  0  0  0  0  0  0  0  0  0
  -24.5268   -9.2468   23.8055 C   0  0  0  0  0  0  0  0  0  0  0  0
  -24.2241  -10.8782   25.5616 C   0  0  0  0  0  0  0  0  0  0  0  0
  -25.8878  -25.8544   23.4278 C   0  0  0  0  0  0  0  0  0  0  0  0
  -21.6669   -7.9885   25.0980 C   0  0  0  0  0  0  0  0  0  0  0  0
  -20.7679   -7.0267   24.6372 C   0  0  0  0  0  0  0  0  0  0  0  0
  -27.1462  -27.9091   23.3100 C   0  0  0  0  0  0  0  0  0  0  0  0
  -26.9367  -20.4237   20.3890 C   0  0  0  0  0  0  0  0  0  0  0  0
  -22.4122   -5.3009   25.0314 C   0  0  0  0  0  0  0  0  0  0  0  0
  -24.9299  -11.5874   23.3626 C   0  0  0  0  0  0  0  0  0  0  0  0
  -24.4650  -13.3852   21.6135 C   0  0  0  0  0  0  0  0  0  0  0  0
  -18.8680  -29.4780   23.2379 C   0  0  0  0  0  0  0  0  0  0  0  0
  -25.1411  -27.8070   24.6624 C   0  0  0  0  0  0  0  0  0  0  0  0
  -20.2165  -29.3178   22.8660 C   0  0  0  0  0  0  0  0  0  0  0  0
  -26.2394  -28.5332   24.1803 C   0  0  0  0  0  0  0  0  0  0  0  0
  -26.7698  -21.7237   19.9246 C   0  0  0  0  0  0  0  0  0  0  0  0
  -27.8727  -22.4441   19.4797 C   0  0  0  0  0  0  0  0  0  0  0  0
  -24.1906   -9.5542   25.1239 C   0  0  0  0  0  0  0  0  0  0  0  0
  -26.9701  -26.5775   22.9348 C   0  0  0  0  0  0  0  0  0  0  0  0
  -22.9386   -7.6065   25.5254 C   0  0  0  0  0  0  0  0  0  0  0  0
  -21.1405   -5.6829   24.6039 C   0  0  0  0  0  0  0  0  0  0  0  0
  -23.3112   -6.2628   25.4922 C   0  0  0  0  0  0  0  0  0  0  0  0
  -25.3122  -12.6379   22.4535 C   0  0  0  0  0  0  0  0  0  0  0  0
  -29.1112  -21.8242   19.5194 C   0  0  0  0  0  0  0  0  0  0  0  0
  -28.2171  -19.8942   20.3877 C   0  0  0  0  0  0  0  0  0  0  0  0
  -25.3073  -14.2491   20.9572 C   0  0  0  0  0  0  0  0  0  0  0  0
  -23.0438  -13.3057   21.4419 C   0  0  0  0  0  0  0  0  0  0  0  0
  -23.4274  -30.4588   24.2947 C   0  0  0  0  0  0  0  0  0  0  0  0
  -25.7188  -31.7386   26.2009 C   0  0  0  0  0  0  0  0  0  0  0  0
  -28.9139  -31.5889   27.3909 C   0  0  0  0  0  0  0  0  0  0  0  0
  -29.5624  -17.8404   20.9519 C   0  0  0  0  0  0  0  0  0  0  0  0
  -18.3542  -30.7702   23.8217 C   0  0  0  0  0  0  0  0  0  0  0  0
  -24.1668  -28.4428   25.6158 C   0  0  0  0  0  0  0  0  0  0  0  0
  -26.4698  -29.9712   24.5645 C   0  0  0  0  0  0  0  0  0  0  0  0
  -19.4579  -31.6753   24.3632 C   0  0  0  0  0  0  0  0  0  0  0  0
  -30.3620  -14.3785   20.7210 C   0  0  0  0  0  0  0  0  0  0  0  0
  -20.6039  -31.7775   23.3616 C   0  0  0  0  0  0  0  0  0  0  0  0
  -29.0498  -13.6785   21.0821 C   0  0  0  0  0  0  0  0  0  0  0  0
  -30.5723  -15.6484   21.5437 C   0  0  0  0  0  0  0  0  0  0  0  0
  -28.1438  -15.9019   21.8713 C   0  0  0  0  0  0  0  0  0  0  0  0
  -21.2403  -30.4053   23.1096 C   0  0  1  0  0  0  0  0  0  0  0  0
  -24.1438  -29.9652   25.5197 C   0  0  1  0  0  0  0  0  0  0  0  0
  -27.8566  -14.6524   21.0228 C   0  0  2  0  0  0  0  0  0  0  0  0
  -25.4019  -22.3220   19.9142 C   0  0  0  0  0  0  0  0  0  0  0  0
  -30.3322  -22.5495   19.0554 C   0  0  0  0  0  0  0  0  0  0  0  0
  -30.5103  -32.7948   28.9056 C   0  0  0  0  0  0  0  0  0  0  0  0
  -26.1196  -33.8828   24.0674 C   0  0  0  0  0  0  0  0  0  0  0  0
  -28.2995  -34.4593   25.1555 C   0  0  0  0  0  0  0  0  0  0  0  0
  -26.1663  -34.7303   26.4199 C   0  0  0  0  0  0  0  0  0  0  0  0
  -29.1910  -29.2355   29.1640 C   0  0  0  0  0  0  0  0  0  0  0  0
  -27.7226  -23.8550   18.9696 C   0  0  0  0  0  0  0  0  0  0  0  0
  -28.1834  -24.9221   19.9649 C   0  0  0  0  0  0  0  0  0  0  0  0
  -27.3596  -24.9477   21.2472 C   0  0  0  0  0  0  0  0  0  1  0  0
  -27.0528  -32.4060   25.9685 C   0  0  1  0  0  0  0  0  0  0  0  0
  -29.4698  -31.6908   28.7998 C   0  0  2  0  0  0  0  0  0  0  0  0
  -26.9044  -33.8431   25.3939 C   0  0  0  0  0  0  0  0  0  0  0  0
  -26.5943  -12.9955   22.3428 N   0  0  0  0  0  0  0  0  0  0  0  0
  -29.3126  -20.5633   19.9635 N   0  0  0  0  0  0  0  0  0  0  0  0
  -26.5591  -13.9771   21.4255 N   0  0  0  0  0  0  0  0  0  0  0  0
  -25.4860  -30.5502   25.4942 N   0  0  0  0  0  0  0  0  0  0  0  0
  -29.4039  -16.5247   21.4363 N   0  0  0  0  0  0  0  0  0  0  0  0
  -25.0919  -15.2073   20.0310 N   0  0  0  0  0  0  0  0  0  0  0  0
  -22.3317  -12.3621   22.1947 N   0  0  0  0  0  0  0  0  0  0  0  0
  -28.3767  -18.5689   20.8631 N   0  0  0  0  0  0  0  0  0  0  0  0
  -22.1124  -30.0435   24.2064 N   0  0  0  0  0  0  0  0  0  0  0  0
  -27.7684  -32.3411   27.2382 N   0  0  0  0  0  0  0  0  0  0  0  0
  -30.1073  -30.4043   29.1994 N   0  3  0  0  0  0  0  0  0  0  0  0
  -22.4258  -14.0382   20.6325 O   0  0  0  0  0  0  0  0  0  0  0  0
  -24.0231  -31.1653   23.4899 O   0  0  0  0  0  0  0  0  0  0  0  0
  -24.9160  -32.2489   26.9861 O   0  0  0  0  0  0  0  0  0  0  0  0
  -29.4449  -30.9128   26.5126 O   0  0  0  0  0  0  0  0  0  0  0  0
  -30.6647  -18.2787   20.6131 O   0  0  0  0  0  0  0  0  0  0  0  0
  -23.8297   -8.5625   25.9834 O   0  0  0  0  0  0  0  0  0  0  0  0
  -27.8583  -25.9845   22.0914 O   0  0  0  0  0  0  0  0  0  1  0  0
  -20.2766   -4.7592   24.1628 F   0  0  0  0  0  0  0  0  0  0  0  0
  -24.5310   -5.8896   25.9026 F   0  0  0  0  0  0  0  0  0  0  0  0
  1  2  1  0  0  0  0
  1  5  2  0  0  0  0
  2  6  2  0  0  0  0
  3  8  2  0  0  0  0
  3 16  1  0  0  0  0
  4  9  1  0  0  0  0
  4 16  2  0  0  0  0
  5 18  1  0  0  0  0
  6 20  1  0  0  0  0
  7 10  2  0  0  0  0
  7 19  1  0  0  0  0
  8 24  1  0  0  0  0
  9 24  2  0  0  0  0
 10 25  1  0  0  0  0
 11 12  2  0  0  0  0
 11 26  1  0  0  0  0
 12 27  1  0  0  0  0
 13 21  1  0  0  0  0
 13 25  2  0  0  0  0
 14 22  2  0  0  0  0
 14 31  1  0  0  0  0
 15 27  2  0  0  0  0
 15 28  1  0  0  0  0
 16 29  1  0  0  0  0
 17 29  1  0  0  0  0
 17 32  2  0  0  0  0
 17 33  1  0  0  0  0
 18 20  2  0  0  0  0
 18 38  1  0  0  0  0
 19 21  2  0  0  0  0
 19 39  1  0  0  0  0
 20 47  1  0  0  0  0
 21 40  1  0  0  0  0
 22 23  1  0  0  0  0
 22 50  1  0  0  0  0
 23 30  2  0  0  0  0
 23 57  1  0  0  0  0
 24 79  1  0  0  0  0
 25 80  1  0  0  0  0
 26 28  2  0  0  0  0
 26 79  1  0  0  0  0
 27 81  1  0  0  0  0
 28 82  1  0  0  0  0
 29 63  2  0  0  0  0
 30 51  1  0  0  0  0
 30 64  1  0  0  0  0
 31 64  2  0  0  0  0
 31 70  1  0  0  0  0
 32 65  1  0  0  0  0
 32 68  1  0  0  0  0
 33 69  1  0  0  0  0
 33 74  2  0  0  0  0
 34 48  1  0  0  0  0
 34 71  1  0  0  0  0
 34 75  2  0  0  0  0
 35 60  1  0  0  0  0
 35 66  1  0  0  0  0
 35 76  2  0  0  0  0
 36 61  1  0  0  0  0
 36 72  1  0  0  0  0
 36 77  2  0  0  0  0
 37 67  1  0  0  0  0
 37 70  1  0  0  0  0
 37 78  2  0  0  0  0
 38 41  1  0  0  0  0
 39 48  1  0  0  0  0
 40 66  1  0  0  0  0
 41 43  1  0  0  0  0
 42 44  1  0  0  0  0
 42 45  1  0  0  0  0
 43 47  1  0  0  0  0
 44 49  1  0  0  0  0
 45 67  1  0  0  0  0
 46 49  1  0  0  0  0
 46 67  1  0  0  0  0
 47 71  1  0  0  0  0
 48 66  1  0  0  0  0
 49 65  1  0  0  0  0
 52 61  1  0  0  0  0
 53 62  1  0  0  0  0
 54 62  1  0  0  0  0
 55 62  1  0  0  0  0
 56 73  1  0  0  0  0
 57 58  1  0  0  0  0
 58 59  1  0  0  0  0
 59 80  1  0  0  0  0
 60 62  1  0  0  0  0
 60 72  1  0  0  0  0
 61 73  1  0  0  0  0
 63 65  1  0  0  0  0
M  CHG  1  73   1
M  ISO  4  37 100  59 101  70 100  80 101
M  END
> <Batch ID>
0028

> <Smiles>
CNC(C)C(=O)NC(C(=O)N1Cc2cc([101O:1][101CH2:1]CCc3c(C)cc([100NH:0][100C:0](=O)N4CCCC(n5nc(-c6ccc(Oc7ccc(F)cc7F)cc6)c(C(N)=O)c5N)C4)nc3C)ccc2CC1C(=O)NC1CCCc2ccccc21)C(C)(C)C

> <Shape>
0.275

> <Color>
0.113

> <Negative vol penalty>
0.000

$$$$

  -OEChem-04052316333D

 87 95  0     1  0  0  0  0  0999 V2000
  -25.2228  -33.3353   14.3781 C   0  0  0  0  0  0  0  0  0  0  0  0
  -25.9467  -32.3961   15.1056 C   0  0  0  0  0  0  0  0  0  0  0  0
  -22.2281  -15.7206   21.3745 C   0  0  0  0  0  0  0  0  0  0  0  0
  -23.5291  -17.6853   21.9079 C   0  0  0  0  0  0  0  0  0  0  0  0
  -24.6500  -34.4279   15.0278 C   0  0  0  0  0  0  0  0  0  0  0  0
  -26.0992  -32.5495   16.4831 C   0  0  0  0  0  0  0  0  0  0  0  0
  -25.3474  -28.2283   19.0143 C   0  0  0  0  0  0  0  0  0  0  0  0
  -21.2781  -16.0913   22.3262 C   0  0  0  0  0  0  0  0  0  0  0  0
  -22.5790  -18.0560   22.8596 C   0  0  0  0  0  0  0  0  0  0  0  0
  -26.3866  -27.2989   19.0101 C   0  0  0  0  0  0  0  0  0  0  0  0
  -18.7103  -18.2785   22.5619 C   0  0  0  0  0  0  0  0  0  0  0  0
  -17.3653  -18.1948   22.2020 C   0  0  0  0  0  0  0  0  0  0  0  0
  -27.0496  -28.0392   21.2081 C   0  0  0  0  0  0  0  0  0  0  0  0
  -16.9819  -16.6268   23.9996 C   0  0  0  0  0  0  0  0  0  0  0  0
  -23.3536  -16.5176   21.1654 C   0  0  0  0  0  0  0  0  0  0  0  0
  -24.3584  -16.4899   18.8208 C   0  0  0  0  0  0  0  0  0  0  0  0
  -24.7874  -34.5897   16.4155 C   0  0  0  0  0  0  0  0  0  0  0  0
  -25.1579  -29.0791   20.1128 C   0  0  0  0  0  0  0  0  0  0  0  0
  -25.5289  -33.6460   17.1518 C   0  0  0  0  0  0  0  0  0  0  0  0
  -26.0058  -28.9768   21.2249 C   0  0  0  0  0  0  0  0  0  0  0  0
  -28.9507  -19.5931   19.7119 C   0  0  0  0  0  0  0  0  0  0  0  0
  -21.4535  -17.2590   23.0687 C   0  0  0  0  0  0  0  0  0  0  0  0
  -27.2396  -27.2062   20.1058 C   0  0  0  0  0  0  0  0  0  0  0  0
  -19.1912  -17.5363   23.6406 C   0  0  0  0  0  0  0  0  0  0  0  0
  -16.5011  -17.3689   22.9208 C   0  0  0  0  0  0  0  0  0  0  0  0
  -18.3269  -16.7105   24.3595 C   0  0  0  0  0  0  0  0  0  0  0  0
  -24.3356  -16.1350   20.1829 C   0  0  0  0  0  0  0  0  0  0  0  0
  -27.7261  -20.1891   19.4893 C   0  0  0  0  0  0  0  0  0  0  0  0
  -29.9213  -20.4086   20.2570 C   0  0  0  0  0  0  0  0  0  0  0  0
  -25.4848  -15.8795   18.3257 C   0  0  0  0  0  0  0  0  0  0  0  0
  -28.4868  -22.1714   20.3012 C   0  0  0  0  0  0  0  0  0  0  0  0
  -23.4433  -17.2991   18.0702 C   0  0  0  0  0  0  0  0  0  0  0  0
  -25.2248  -32.2269   20.5498 C   0  0  0  0  0  0  0  0  0  0  0  0
  -24.2047  -31.4430   23.5276 C   0  0  0  0  0  0  0  0  0  0  0  0
  -24.0120  -29.0991   26.0006 C   0  0  0  0  0  0  0  0  0  0  0  0
  -31.0194  -14.8814   19.1561 C   0  0  0  0  0  0  0  0  0  0  0  0
  -24.1903  -35.8121   17.0665 C   0  0  0  0  0  0  0  0  0  0  0  0
  -24.0159  -30.0580   20.1130 C   0  0  0  0  0  0  0  0  0  0  0  0
  -25.8325  -29.8533   22.4375 C   0  0  0  0  0  0  0  0  0  0  0  0
  -24.0819  -35.7019   18.5852 C   0  0  0  0  0  0  0  0  0  0  0  0
  -28.5390  -12.4138   20.3645 C   0  0  0  0  0  0  0  0  0  0  0  0
  -25.3842  -35.1713   19.1762 C   0  0  0  0  0  0  0  0  0  0  0  0
  -27.2431  -13.2229   20.3768 C   0  0  0  0  0  0  0  0  0  0  0  0
  -29.7629  -13.3001   20.5747 C   0  0  0  0  0  0  0  0  0  0  0  0
  -28.5617  -15.2428   19.6274 C   0  0  0  0  0  0  0  0  0  0  0  0
  -25.6956  -33.7646   18.6512 C   0  0  1  0  0  0  0  0  0  0  0  0
  -24.2310  -31.2268   21.0696 C   0  0  1  0  0  0  0  0  0  0  0  0
  -27.3128  -14.3858   19.3718 C   0  0  2  0  0  0  0  0  0  0  0  0
  -26.5987  -19.4049   18.9027 C   0  0  0  0  0  0  0  0  0  0  0  0
  -32.1044  -20.8149   21.4213 C   0  0  0  0  0  0  0  0  0  0  0  0
  -23.1508  -28.7633   28.3337 C   0  0  0  0  0  0  0  0  0  0  0  0
  -26.5365  -33.0791   24.6213 C   0  0  0  0  0  0  0  0  0  0  0  0
  -26.2007  -31.9511   26.8310 C   0  0  0  0  0  0  0  0  0  0  0  0
  -24.3865  -33.3655   25.8662 C   0  0  0  0  0  0  0  0  0  0  0  0
  -32.2539  -16.4555   17.7146 C   0  0  0  0  0  0  0  0  0  0  0  0
  -22.2068  -26.9158   25.1443 C   0  0  0  0  0  0  0  0  0  0  0  0
  -29.2078  -18.1648   19.3852 C   0  0  0  0  0  0  0  0  0  0  0  0
  -31.2858  -19.8734   20.5430 C   0  0  0  0  0  0  0  0  0  0  0  0
  -29.4804  -17.8870   17.8920 C   0  0  0  0  0  0  0  0  0  0  0  0
  -29.7912  -16.4263   17.5725 C   0  0  0  0  0  0  0  0  0  0  0  0
  -29.2391  -24.3837   21.1760 C   0  0  0  0  0  0  0  0  0  0  0  0
  -28.6593  -25.7751   21.3678 C   0  0  0  0  0  0  0  0  0  1  0  0
  -24.8802  -31.1101   24.8360 C   0  0  1  0  0  0  0  0  0  0  0  0
  -22.8468  -28.6245   26.8501 C   0  0  2  0  0  0  0  0  0  0  0  0
  -25.5057  -32.3611   25.5151 C   0  0  0  0  0  0  0  0  0  0  0  0
  -25.3656  -15.3591   20.5309 N   0  0  0  0  0  0  0  0  0  0  0  0
  -27.4584  -21.4807   19.7731 N   0  0  0  0  0  0  0  0  0  0  0  0
  -29.7231  -21.7071   20.5650 N   0  0  0  0  0  0  0  0  0  0  0  0
  -26.0462  -15.2214   19.3802 N   0  0  0  0  0  0  0  0  0  0  0  0
  -24.7052  -30.7989   22.3872 N   0  0  0  0  0  0  0  0  0  0  0  0
  -29.7816  -14.4216   19.6349 N   0  0  0  0  0  0  0  0  0  0  0  0
  -26.0399  -15.8467   17.0956 N   0  0  0  0  0  0  0  0  0  0  0  0
  -22.3385  -17.8494   18.7341 N   0  0  0  0  0  0  0  0  0  0  0  0
  -28.2475  -23.5014   20.6048 N   0  0  0  0  0  0  0  0  0  0  0  0
  -24.8815  -32.7798   19.3309 N   0  0  0  0  0  0  0  0  0  0  0  0
  -23.8806  -30.4259   25.6490 N   0  0  0  0  0  0  0  0  0  0  0  0
  -30.9966  -15.9508   18.2481 N   0  0  0  0  0  0  0  0  0  0  0  0
  -22.5463  -27.1932   26.5638 N   0  3  0  0  0  0  0  0  0  0  0  0
  -23.5917  -17.5138   16.8432 O   0  0  0  0  0  0  0  0  0  0  0  0
  -26.2280  -32.4792   21.2068 O   0  0  0  0  0  0  0  0  0  0  0  0
  -23.2629  -32.2395   23.5188 O   0  0  0  0  0  0  0  0  0  0  0  0
  -24.9472  -28.3672   25.6841 O   0  0  0  0  0  0  0  0  0  0  0  0
  -32.0836  -14.3593   19.5122 O   0  0  0  0  0  0  0  0  0  0  0  0
  -20.5266  -17.6211   23.9972 O   0  0  0  0  0  0  0  0  0  0  0  0
  -28.2551  -26.3003   20.1040 O   0  0  0  0  0  0  0  0  0  1  0  0
  -15.2092  -17.2898   22.5760 F   0  0  0  0  0  0  0  0  0  0  0  0
  -18.7828  -15.9960   25.3975 F   0  0  0  0  0  0  0  0  0  0  0  0
  1  2  1  0  0  0  0
  1  5  2  0  0  0  0
  2  6  2  0  0  0  0
  3  8  2  0  0  0  0
  3 15  1  0  0  0  0
  4  9  1  0  0  0  0
  4 15  2  0  0  0  0
  5 17  1  0  0  0  0
  6 19  1  0  0  0  0
  7 10  2  0  0  0  0
  7 18  1  0  0  0  0
  8 22  1  0  0  0  0
  9 22  2  0  0  0  0
 10 23  1  0  0  0  0
 11 12  2  0  0  0  0
 11 24  1  0  0  0  0
 12 25  1  0  0  0  0
 13 20  1  0  0  0  0
 13 23  2  0  0  0  0
 14 25  2  0  0  0  0
 14 26  1  0  0  0  0
 15 27  1  0  0  0  0
 16 27  1  0  0  0  0
 16 30  2  0  0  0  0
 16 32  1  0  0  0  0
 17 19  2  0  0  0  0
 17 37  1  0  0  0  0
 18 20  2  0  0  0  0
 18 38  1  0  0  0  0
 19 46  1  0  0  0  0
 20 39  1  0  0  0  0
 21 28  1  0  0  0  0
 21 29  2  0  0  0  0
 21 57  1  0  0  0  0
 22 84  1  0  0  0  0
 23 85  1  0  0  0  0
 24 26  2  0  0  0  0
 24 84  1  0  0  0  0
 25 86  1  0  0  0  0
 26 87  1  0  0  0  0
 27 66  2  0  0  0  0
 28 49  1  0  0  0  0
 28 67  2  0  0  0  0
 29 58  1  0  0  0  0
 29 68  1  0  0  0  0
 30 69  1  0  0  0  0
 30 72  1  0  0  0  0
 31 67  1  0  0  0  0
 31 68  2  0  0  0  0
 31 74  1  0  0  0  0
 32 73  1  0  0  0  0
 32 79  2  0  0  0  0
 33 47  1  0  0  0  0
 33 75  1  0  0  0  0
 33 80  2  0  0  0  0
 34 63  1  0  0  0  0
 34 70  1  0  0  0  0
 34 81  2  0  0  0  0
 35 64  1  0  0  0  0
 35 76  1  0  0  0  0
 35 82  2  0  0  0  0
 36 71  1  0  0  0  0
 36 77  1  0  0  0  0
 36 83  2  0  0  0  0
 37 40  1  0  0  0  0
 38 47  1  0  0  0  0
 39 70  1  0  0  0  0
 40 42  1  0  0  0  0
 41 43  1  0  0  0  0
 41 44  1  0  0  0  0
 42 46  1  0  0  0  0
 43 48  1  0  0  0  0
 44 71  1  0  0  0  0
 45 48  1  0  0  0  0
 45 71  1  0  0  0  0
 46 75  1  0  0  0  0
 47 70  1  0  0  0  0
 48 69  1  0  0  0  0
 50 58  1  0  0  0  0
 51 64  1  0  0  0  0
 52 65  1  0  0  0  0
 53 65  1  0  0  0  0
 54 65  1  0  0  0  0
 55 77  1  0  0  0  0
 56 78  1  0  0  0  0
 57 59  1  0  0  0  0
 59 60  1  0  0  0  0
 60 77  1  0  0  0  0
 61 62  1  0  0  0  0
 61 74  1  0  0  0  0
 62 85  1  0  0  0  0
 63 65  1  0  0  0  0
 63 76  1  0  0  0  0
 64 78  1  0  0  0  0
 66 69  1  0  0  0  0
M  CHG  1  78   1
M  ISO  4  36 100  62 101  77 100  85 101
M  END
> <Batch ID>
0028

> <Smiles>
CCc1nc(NC[101CH2:1][101O:1]c2ccc3c(c2)CN(C(=O)C(NC(=O)C(C)NC)C(C)(C)C)C(C(=O)NC2CCCc4ccccc42)C3)nc(C)c1CCC[100N:0](C)[100C:0](=O)N1CCCC(n2nc(-c3ccc(Oc4ccc(F)cc4F)cc3)c(C(N)=O)c2N)C1

> <Shape>
0.209

> <Color>
0.107

> <Negative vol penalty>
0.000

$$$$

  -OEChem-04052316333D

 81 89  0     1  0  0  0  0  0999 V2000
  -22.7622   -8.3938   22.1756 C   0  0  0  0  0  0  0  0  0  0  0  0
  -23.7069   -9.2704   22.6997 C   0  0  0  0  0  0  0  0  0  0  0  0
  -22.2370  -28.8420   21.0457 C   0  0  0  0  0  0  0  0  0  0  0  0
  -22.6474  -26.6378   21.9457 C   0  0  0  0  0  0  0  0  0  0  0  0
  -22.2684   -8.5920   20.8869 C   0  0  0  0  0  0  0  0  0  0  0  0
  -24.1592  -10.3451   21.9349 C   0  0  0  0  0  0  0  0  0  0  0  0
  -25.7257  -15.9068   23.9642 C   0  0  0  0  0  0  0  0  0  0  0  0
  -20.8784  -28.7053   21.3304 C   0  0  0  0  0  0  0  0  0  0  0  0
  -21.2888  -26.5011   22.2305 C   0  0  0  0  0  0  0  0  0  0  0  0
  -26.9602  -16.4858   24.2552 C   0  0  0  0  0  0  0  0  0  0  0  0
  -18.8640  -28.9437   24.0356 C   0  0  0  0  0  0  0  0  0  0  0  0
  -18.2155  -30.0234   24.6352 C   0  0  0  0  0  0  0  0  0  0  0  0
  -27.0082  -17.4744   22.0553 C   0  0  0  0  0  0  0  0  0  0  0  0
  -29.0752  -20.4456   22.6654 C   0  0  0  0  0  0  0  0  0  0  0  0
  -29.4567  -20.8594   19.9330 C   0  0  0  0  0  0  0  0  0  0  0  0
  -16.7074  -30.1628   22.7527 C   0  0  0  0  0  0  0  0  0  0  0  0
  -23.1215  -27.8082   21.3533 C   0  0  0  0  0  0  0  0  0  0  0  0
  -25.4038  -28.9298   21.5556 C   0  0  0  0  0  0  0  0  0  0  0  0
  -22.7076   -9.6753   20.1095 C   0  0  0  0  0  0  0  0  0  0  0  0
  -25.1274  -16.0987   22.7106 C   0  0  0  0  0  0  0  0  0  0  0  0
  -23.6717  -10.5572   20.6341 C   0  0  0  0  0  0  0  0  0  0  0  0
  -25.7649  -16.8989   21.7518 C   0  0  0  0  0  0  0  0  0  0  0  0
  -29.4801  -19.3889   21.8499 C   0  0  0  0  0  0  0  0  0  0  0  0
  -29.0518  -21.9161   20.7486 C   0  0  0  0  0  0  0  0  0  0  0  0
  -20.4043  -27.5349   21.9228 C   0  0  0  0  0  0  0  0  0  0  0  0
  -27.6030  -17.2674   23.2996 C   0  0  0  0  0  0  0  0  0  0  0  0
  -18.4343  -28.4737   22.7946 C   0  0  0  0  0  0  0  0  0  0  0  0
  -17.1372  -30.6329   23.9938 C   0  0  0  0  0  0  0  0  0  0  0  0
  -28.8610  -21.7092   22.1148 C   0  0  0  0  0  0  0  0  0  0  0  0
  -17.3560  -29.0832   22.1532 C   0  0  0  0  0  0  0  0  0  0  0  0
  -29.6708  -19.5958   20.4837 C   0  0  0  0  0  0  0  0  0  0  0  0
  -24.5250  -27.9486   21.0589 C   0  0  0  0  0  0  0  0  0  0  0  0
  -26.6144  -28.6294   20.9804 C   0  0  0  0  0  0  0  0  0  0  0  0
  -25.1487  -30.0157   22.4564 C   0  0  0  0  0  0  0  0  0  0  0  0
  -24.2716  -14.1894   20.3177 C   0  0  0  0  0  0  0  0  0  0  0  0
  -22.9973  -16.9179   19.1121 C   0  0  0  0  0  0  0  0  0  0  0  0
  -23.0127  -20.3294   19.0215 C   0  0  0  0  0  0  0  0  0  0  0  0
  -28.9792  -23.5718   18.8513 C   0  0  0  0  0  0  0  0  0  0  0  0
  -22.1800   -9.8214   18.7042 C   0  0  0  0  0  0  0  0  0  0  0  0
  -23.7829  -15.4892   22.4219 C   0  0  0  0  0  0  0  0  0  0  0  0
  -25.1552  -17.1523   20.3982 C   0  0  0  0  0  0  0  0  0  0  0  0
  -22.4328  -11.1998   18.0990 C   0  0  0  0  0  0  0  0  0  0  0  0
  -28.5046  -26.6165   17.0677 C   0  0  0  0  0  0  0  0  0  0  0  0
  -23.8743  -11.6343   18.3440 C   0  0  0  0  0  0  0  0  0  0  0  0
  -27.5149  -27.3955   17.9370 C   0  0  0  0  0  0  0  0  0  0  0  0
  -28.2033  -25.1189   17.0682 C   0  0  0  0  0  0  0  0  0  0  0  0
  -27.1078  -25.2863   19.2684 C   0  0  0  0  0  0  0  0  0  0  0  0
  -24.1685  -11.7488   19.8446 C   0  0  1  0  0  0  0  0  0  0  0  0
  -23.5074  -15.3291   20.9300 C   0  0  1  0  0  0  0  0  0  0  0  0
  -27.4102  -26.7914   19.3512 C   0  0  2  0  0  0  0  0  0  0  0  0
  -31.1294  -17.8643   22.9893 C   0  0  0  0  0  0  0  0  0  0  0  0
  -22.2580  -22.6462   18.4213 C   0  0  0  0  0  0  0  0  0  0  0  0
  -24.5787  -16.3800   16.5587 C   0  0  0  0  0  0  0  0  0  0  0  0
  -24.1785  -18.7599   15.8924 C   0  0  0  0  0  0  0  0  0  0  0  0
  -22.2481  -17.2078   16.1875 C   0  0  0  0  0  0  0  0  0  0  0  0
  -21.1764  -20.4569   21.3390 C   0  0  0  0  0  0  0  0  0  0  0  0
  -29.7016  -18.0360   22.4866 C   0  0  1  0  0  0  0  0  0  1  0  0
  -23.4992  -18.0311   18.2244 C   0  0  1  0  0  0  0  0  0  0  0  0
  -21.8881  -21.3447   19.1154 C   0  0  2  0  0  0  0  0  0  0  0  0
  -23.6388  -17.5885   16.7405 C   0  0  0  0  0  0  0  0  0  0  0  0
  -25.1261  -27.0892   20.2317 N   0  0  0  0  0  0  0  0  0  0  0  0
  -26.3955  -27.5295   20.2041 N   0  0  0  0  0  0  0  0  0  0  0  0
  -23.8424  -16.5295   20.1613 N   0  0  0  0  0  0  0  0  0  0  0  0
  -28.1230  -24.6156   18.4412 N   0  0  0  0  0  0  0  0  0  0  0  0
  -27.8340  -29.2014   21.0680 N   0  0  0  0  0  0  0  0  0  0  0  0
  -25.3031  -29.7933   23.8316 N   0  0  0  0  0  0  0  0  0  0  0  0
  -28.8348  -23.1988   20.1872 N   0  0  0  0  0  0  0  0  0  0  0  0
  -23.6141  -12.9754   20.3761 N   0  0  0  0  0  0  0  0  0  0  0  0
  -22.5939  -19.1566   18.4297 N   0  0  0  0  0  0  0  0  0  0  0  0
  -21.5786  -21.6444   20.5421 N   0  3  0  0  0  0  0  0  0  0  0  0
  -24.7785  -31.1449   22.0549 O   0  0  0  0  0  0  0  0  0  0  0  0
  -25.3753  -14.3964   19.8273 O   0  0  0  0  0  0  0  0  0  0  0  0
  -21.8929  -16.4165   18.8873 O   0  0  0  0  0  0  0  0  0  0  0  0
  -24.1501  -20.5557   19.4287 O   0  0  0  0  0  0  0  0  0  0  0  0
  -29.8003  -23.0658   18.0820 O   0  0  0  0  0  0  0  0  0  0  0  0
  -19.0787  -27.4013   22.2010 O   0  0  0  0  0  0  0  0  0  0  0  0
  -28.8083  -17.8331   23.5808 O   0  0  0  0  0  0  0  0  0  1  0  0
  -16.5136  -31.6687   24.5703 F   0  0  0  0  0  0  0  0  0  0  0  0
  -28.4719  -22.7177   22.9079 F   0  0  0  0  0  0  0  0  0  0  0  0
  -16.9379  -28.6353   20.9614 F   0  0  0  0  0  0  0  0  0  0  0  0
  -30.1705  -18.3114   19.4443 Cl  0  0  0  0  0  0  0  0  0  0  0  0
  1  2  1  0  0  0  0
  1  5  2  0  0  0  0
  2  6  2  0  0  0  0
  3  8  2  0  0  0  0
  3 17  1  0  0  0  0
  4  9  1  0  0  0  0
  4 17  2  0  0  0  0
  5 19  1  0  0  0  0
  6 21  1  0  0  0  0
  7 10  2  0  0  0  0
  7 20  1  0  0  0  0
  8 25  1  0  0  0  0
  9 25  2  0  0  0  0
 10 26  1  0  0  0  0
 11 12  2  0  0  0  0
 11 27  1  0  0  0  0
 12 28  1  0  0  0  0
 13 22  1  0  0  0  0
 13 26  2  0  0  0  0
 14 23  1  0  0  0  0
 14 29  2  0  0  0  0
 15 24  2  0  0  0  0
 15 31  1  0  0  0  0
 16 28  2  0  0  0  0
 16 30  1  0  0  0  0
 17 32  1  0  0  0  0
 18 32  1  0  0  0  0
 18 33  2  0  0  0  0
 18 34  1  0  0  0  0
 19 21  2  0  0  0  0
 19 39  1  0  0  0  0
 20 22  2  0  0  0  0
 20 40  1  0  0  0  0
 21 48  1  0  0  0  0
 22 41  1  0  0  0  0
 23 31  2  0  0  0  0
 23 57  1  0  0  0  0
 24 29  1  0  0  0  0
 24 67  1  0  0  0  0
 25 76  1  0  0  0  0
 26 77  1  0  0  0  0
 27 30  2  0  0  0  0
 27 76  1  0  0  0  0
 28 78  1  0  0  0  0
 29 79  1  0  0  0  0
 30 80  1  0  0  0  0
 31 81  1  0  0  0  0
 32 61  2  0  0  0  0
 33 62  1  0  0  0  0
 33 65  1  0  0  0  0
 34 66  1  0  0  0  0
 34 71  2  0  0  0  0
 35 49  1  0  0  0  0
 35 68  1  0  0  0  0
 35 72  2  0  0  0  0
 36 58  1  0  0  0  0
 36 63  1  0  0  0  0
 36 73  2  0  0  0  0
 37 59  1  0  0  0  0
 37 69  1  0  0  0  0
 37 74  2  0  0  0  0
 38 64  1  0  0  0  0
 38 67  1  0  0  0  0
 38 75  2  0  0  0  0
 39 42  1  0  0  0  0
 40 49  1  0  0  0  0
 41 63  1  0  0  0  0
 42 44  1  0  0  0  0
 43 45  1  0  0  0  0
 43 46  1  0  0  0  0
 44 48  1  0  0  0  0
 45 50  1  0  0  0  0
 46 64  1  0  0  0  0
 47 50  1  0  0  0  0
 47 64  1  0  0  0  0
 48 68  1  0  0  0  0
 49 63  1  0  0  0  0
 50 62  1  0  0  0  0
 51 57  1  0  0  0  0
 52 59  1  0  0  0  0
 53 60  1  0  0  0  0
 54 60  1  0  0  0  0
 55 60  1  0  0  0  0
 56 70  1  0  0  0  0
 57 77  1  0  0  0  0
 58 60  1  0  0  0  0
 58 69  1  0  0  0  0
 59 70  1  0  0  0  0
 61 62  1  0  0  0  0
M  CHG  1  70   1
M  ISO  4  38 100  57 101  67 100  77 101
M  END
> <Batch ID>
0028

> <Smiles>
CNC(C)C(=O)NC(C(=O)N1Cc2cc([101O:1][101CH:1](C)c3cc(F)c([100NH:0][100C:0](=O)N4CCCC(n5nc(-c6ccc(Oc7ccc(F)cc7F)cc6)c(C(N)=O)c5N)C4)cc3Cl)ccc2CC1C(=O)NC1CCCc2ccccc21)C(C)(C)C

> <Shape>
0.247

> <Color>
0.060

> <Negative vol penalty>
0.000

$$$$

  -OEChem-04052316333D

 88 96  0     1  0  0  0  0  0999 V2000
  -29.8825  -16.9126   14.7825 C   0  0  0  0  0  0  0  0  0  0  0  0
  -30.0612  -17.8173   15.8241 C   0  0  0  0  0  0  0  0  0  0  0  0
  -23.1889   -9.8195   19.9324 C   0  0  0  0  0  0  0  0  0  0  0  0
  -23.5671  -10.0010   22.3117 C   0  0  0  0  0  0  0  0  0  0  0  0
  -28.6940  -16.9164   14.0536 C   0  0  0  0  0  0  0  0  0  0  0  0
  -29.0519  -18.7272   16.1367 C   0  0  0  0  0  0  0  0  0  0  0  0
  -28.2229  -19.0726   21.1206 C   0  0  0  0  0  0  0  0  0  0  0  0
  -22.4219   -8.6734   20.1417 C   0  0  0  0  0  0  0  0  0  0  0  0
  -22.8001   -8.8549   22.5210 C   0  0  0  0  0  0  0  0  0  0  0  0
  -29.1262  -19.8298   21.8653 C   0  0  0  0  0  0  0  0  0  0  0  0
  -21.2408   -5.7726   23.6516 C   0  0  0  0  0  0  0  0  0  0  0  0
  -21.7366   -4.8130   24.5341 C   0  0  0  0  0  0  0  0  0  0  0  0
  -27.5766  -21.6785   21.8538 C   0  0  0  0  0  0  0  0  0  0  0  0
  -30.9679  -18.4188   26.4903 C   0  0  0  0  0  0  0  0  0  0  0  0
  -23.6952   -4.5471   23.1447 C   0  0  0  0  0  0  0  0  0  0  0  0
  -23.7615  -10.4833   21.0174 C   0  0  0  0  0  0  0  0  0  0  0  0
  -24.1017  -12.9996   20.7722 C   0  0  0  0  0  0  0  0  0  0  0  0
  -27.6657  -17.8204   14.3637 C   0  0  0  0  0  0  0  0  0  0  0  0
  -26.9922  -19.6173   20.7269 C   0  0  0  0  0  0  0  0  0  0  0  0
  -27.8490  -18.7440   15.4104 C   0  0  0  0  0  0  0  0  0  0  0  0
  -26.6584  -20.9253   21.1063 C   0  0  0  0  0  0  0  0  0  0  0  0
  -29.6493  -18.8568   26.3677 C   0  0  0  0  0  0  0  0  0  0  0  0
  -28.7790  -18.2117   25.4890 C   0  0  0  0  0  0  0  0  0  0  0  0
  -30.5459  -16.6906   24.8556 C   0  0  0  0  0  0  0  0  0  0  0  0
  -22.2275   -8.1911   21.4360 C   0  0  0  0  0  0  0  0  0  0  0  0
  -28.8043  -21.1339   22.2296 C   0  0  0  0  0  0  0  0  0  0  0  0
  -21.9722   -6.1195   22.5155 C   0  0  0  0  0  0  0  0  0  0  0  0
  -22.9638   -4.2003   24.2807 C   0  0  0  0  0  0  0  0  0  0  0  0
  -23.1993   -5.5067   22.2621 C   0  0  0  0  0  0  0  0  0  0  0  0
  -31.4163  -17.3357   25.7342 C   0  0  0  0  0  0  0  0  0  0  0  0
  -29.2273  -17.1285   24.7330 C   0  0  0  0  0  0  0  0  0  0  0  0
  -24.5544  -11.6669   20.8017 C   0  0  0  0  0  0  0  0  0  0  0  0
  -25.2334  -13.7415   20.5366 C   0  0  0  0  0  0  0  0  0  0  0  0
  -22.7768  -13.5204   20.9427 C   0  0  0  0  0  0  0  0  0  0  0  0
  -25.6057  -20.2420   17.9356 C   0  0  0  0  0  0  0  0  0  0  0  0
  -23.0616  -20.9819   19.8071 C   0  0  0  0  0  0  0  0  0  0  0  0
  -21.9003  -21.9600   22.8635 C   0  0  0  0  0  0  0  0  0  0  0  0
  -31.0475  -12.7487   21.5667 C   0  0  0  0  0  0  0  0  0  0  0  0
  -26.4175  -17.8183   13.5170 C   0  0  0  0  0  0  0  0  0  0  0  0
  -26.0177  -18.7784   19.9466 C   0  0  0  0  0  0  0  0  0  0  0  0
  -25.3416  -21.5497   20.7261 C   0  0  0  0  0  0  0  0  0  0  0  0
  -25.2482  -18.5647   14.1540 C   0  0  0  0  0  0  0  0  0  0  0  0
  -29.5207  -13.4652   18.4310 C   0  0  0  0  0  0  0  0  0  0  0  0
  -25.7092  -19.9119   14.7011 C   0  0  0  0  0  0  0  0  0  0  0  0
  -28.0339  -13.2058   18.6804 C   0  0  0  0  0  0  0  0  0  0  0  0
  -30.4014  -12.4757   19.1909 C   0  0  0  0  0  0  0  0  0  0  0  0
  -28.6476  -12.1349   20.8884 C   0  0  0  0  0  0  0  0  0  0  0  0
  -26.7675  -19.7299   15.7958 C   0  0  1  0  0  0  0  0  0  0  0  0
  -25.0085  -19.6101   19.1610 C   0  0  1  0  0  0  0  0  0  0  0  0
  -27.7207  -13.1429   20.1875 C   0  0  2  0  0  0  0  0  0  0  0  0
  -27.3677  -18.6991   25.3738 C   0  0  0  0  0  0  0  0  0  0  0  0
  -19.7760  -22.5174   24.0775 C   0  0  0  0  0  0  0  0  0  0  0  0
  -22.9621  -23.6815   18.3886 C   0  0  0  0  0  0  0  0  0  0  0  0
  -21.4979  -24.5208   20.2378 C   0  0  0  0  0  0  0  0  0  0  0  0
  -20.7278  -22.6351   18.7977 C   0  0  0  0  0  0  0  0  0  0  0  0
  -22.3030  -19.7697   24.8127 C   0  0  0  0  0  0  0  0  0  0  0  0
  -31.0330  -15.5273   24.0457 C   0  0  0  0  0  0  0  0  0  0  0  0
  -29.1944  -20.0241   27.1931 C   0  0  0  0  0  0  0  0  0  0  0  0
  -31.0946  -14.2003   24.8216 C   0  0  0  0  0  0  0  0  0  0  0  0
  -30.0830  -23.0435   25.0125 C   0  0  0  0  0  0  0  0  0  0  0  0
  -31.5377  -13.0009   23.9864 C   0  0  0  0  0  0  0  0  0  0  0  0
  -30.3237  -21.7702   25.8094 C   0  0  0  0  0  0  0  0  0  0  0  0
  -29.1364  -22.8588   23.8328 C   0  0  0  0  0  0  0  0  0  1  0  0
  -22.5639  -22.2335   20.4888 C   0  0  1  0  0  0  0  0  0  0  0  0
  -20.7762  -21.4251   23.7323 C   0  0  2  0  0  0  0  0  0  0  0  0
  -21.9636  -23.2569   19.4839 C   0  0  0  0  0  0  0  0  0  0  0  0
  -25.8709  -11.5650   20.6007 N   0  0  0  0  0  0  0  0  0  0  0  0
  -26.2552  -12.8430   20.4426 N   0  0  0  0  0  0  0  0  0  0  0  0
  -24.4249  -20.6913   19.9577 N   0  0  0  0  0  0  0  0  0  0  0  0
  -30.0548  -12.4656   20.6141 N   0  0  0  0  0  0  0  0  0  0  0  0
  -25.4441  -15.0681   20.4026 N   0  0  0  0  0  0  0  0  0  0  0  0
  -21.7296  -12.6189   21.1772 N   0  0  0  0  0  0  0  0  0  0  0  0
  -26.1439  -19.3366   17.0412 N   0  0  0  0  0  0  0  0  0  0  0  0
  -21.6321  -21.7930   21.5213 N   0  0  0  0  0  0  0  0  0  0  0  0
  -30.6332  -12.7243   22.8927 N   0  0  0  0  0  0  0  0  0  0  0  0
  -21.3228  -20.8698   25.0026 N   0  3  0  0  0  0  0  0  0  0  0  0
  -29.0582  -21.2793   26.4036 N   0  3  0  0  0  0  0  0  0  0  0  0
  -22.5263  -14.7475   20.8723 O   0  0  0  0  0  0  0  0  0  0  0  0
  -25.5789  -21.4607   17.8102 O   0  0  0  0  0  0  0  0  0  0  0  0
  -22.2684  -20.2838   19.1705 O   0  0  0  0  0  0  0  0  0  0  0  0
  -22.9132  -22.4778   23.3288 O   0  0  0  0  0  0  0  0  0  0  0  0
  -32.2153  -13.0095   21.2579 O   0  0  0  0  0  0  0  0  0  0  0  0
  -21.4790   -7.0729   21.6407 O   0  0  0  0  0  0  0  0  0  0  0  0
  -29.6844  -21.8754   22.9559 O   0  0  0  0  0  0  0  0  0  1  0  0
  -23.4405   -3.2799   25.1291 F   0  0  0  0  0  0  0  0  0  0  0  0
  -23.9070   -5.8366   21.1730 F   0  0  0  0  0  0  0  0  0  0  0  0
  -33.0566  -16.8272   25.9177 Cl  0  0  0  0  0  0  0  0  0  0  0  0
  -28.1435  -16.3287   23.6419 Cl  0  0  0  0  0  0  0  0  0  0  0  0
  1  2  1  0  0  0  0
  1  5  2  0  0  0  0
  2  6  2  0  0  0  0
  3  8  2  0  0  0  0
  3 16  1  0  0  0  0
  4  9  1  0  0  0  0
  4 16  2  0  0  0  0
  5 18  1  0  0  0  0
  6 20  1  0  0  0  0
  7 10  2  0  0  0  0
  7 19  1  0  0  0  0
  8 25  1  0  0  0  0
  9 25  2  0  0  0  0
 10 26  1  0  0  0  0
 11 12  2  0  0  0  0
 11 27  1  0  0  0  0
 12 28  1  0  0  0  0
 13 21  1  0  0  0  0
 13 26  2  0  0  0  0
 14 22  1  0  0  0  0
 14 30  2  0  0  0  0
 15 28  2  0  0  0  0
 15 29  1  0  0  0  0
 16 32  1  0  0  0  0
 17 32  1  0  0  0  0
 17 33  2  0  0  0  0
 17 34  1  0  0  0  0
 18 20  2  0  0  0  0
 18 39  1  0  0  0  0
 19 21  2  0  0  0  0
 19 40  1  0  0  0  0
 20 48  1  0  0  0  0
 21 41  1  0  0  0  0
 22 23  2  0  0  0  0
 22 58  1  0  0  0  0
 23 31  1  0  0  0  0
 23 51  1  0  0  0  0
 24 30  1  0  0  0  0
 24 31  2  0  0  0  0
 24 57  1  0  0  0  0
 25 83  1  0  0  0  0
 26 84  1  0  0  0  0
 27 29  2  0  0  0  0
 27 83  1  0  0  0  0
 28 85  1  0  0  0  0
 29 86  1  0  0  0  0
 30 87  1  0  0  0  0
 31 88  1  0  0  0  0
 32 67  2  0  0  0  0
 33 68  1  0  0  0  0
 33 71  1  0  0  0  0
 34 72  1  0  0  0  0
 34 78  2  0  0  0  0
 35 49  1  0  0  0  0
 35 73  1  0  0  0  0
 35 79  2  0  0  0  0
 36 64  1  0  0  0  0
 36 69  1  0  0  0  0
 36 80  2  0  0  0  0
 37 65  1  0  0  0  0
 37 74  1  0  0  0  0
 37 81  2  0  0  0  0
 38 70  1  0  0  0  0
 38 75  1  0  0  0  0
 38 82  2  0  0  0  0
 39 42  1  0  0  0  0
 40 49  1  0  0  0  0
 41 69  1  0  0  0  0
 42 44  1  0  0  0  0
 43 45  1  0  0  0  0
 43 46  1  0  0  0  0
 44 48  1  0  0  0  0
 45 50  1  0  0  0  0
 46 70  1  0  0  0  0
 47 50  1  0  0  0  0
 47 70  1  0  0  0  0
 48 73  1  0  0  0  0
 49 69  1  0  0  0  0
 50 68  1  0  0  0  0
 52 65  1  0  0  0  0
 53 66  1  0  0  0  0
 54 66  1  0  0  0  0
 55 66  1  0  0  0  0
 56 76  1  0  0  0  0
 57 59  1  0  0  0  0
 58 77  1  0  0  0  0
 59 61  1  0  0  0  0
 60 62  1  0  0  0  0
 60 63  1  0  0  0  0
 61 75  1  0  0  0  0
 62 77  1  0  0  0  0
 63 84  1  0  0  0  0
 64 66  1  0  0  0  0
 64 74  1  0  0  0  0
 65 76  1  0  0  0  0
 67 68  1  0  0  0  0
M  CHG  2  76   1  77   1
M  ISO  4  38 100  63 101  75 100  84 101
M  END
> <Batch ID>
0028

> <Smiles>
CNC(C)C(=O)NC(C(=O)N1Cc2cc([101O:1][101CH2:1]CCNCc3cc(Cl)c(CCC[100NH:0][100C:0](=O)N4CCCC(n5nc(-c6ccc(Oc7ccc(F)cc7F)cc6)c(C(N)=O)c5N)C4)c(Cl)c3C)ccc2CC1C(=O)NC1CCCc2ccccc21)C(C)(C)C

> <Shape>
0.163

> <Color>
0.182

> <Negative vol penalty>
0.000

$$$$

  -OEChem-04052316333D

 85 93  0     1  0  0  0  0  0999 V2000
  -23.8847  -11.7163   17.1867 C   0  0  0  0  0  0  0  0  0  0  0  0
  -23.7698  -13.0994   17.0905 C   0  0  0  0  0  0  0  0  0  0  0  0
  -30.2974  -26.8411   19.9320 C   0  0  0  0  0  0  0  0  0  0  0  0
  -29.0774  -25.1276   21.1205 C   0  0  0  0  0  0  0  0  0  0  0  0
  -24.2886  -11.1333   18.3871 C   0  0  0  0  0  0  0  0  0  0  0  0
  -24.0578  -13.9003   18.1951 C   0  0  0  0  0  0  0  0  0  0  0  0
  -26.6006  -19.4714   18.1406 C   0  0  0  0  0  0  0  0  0  0  0  0
  -31.4993  -26.3099   20.3997 C   0  0  0  0  0  0  0  0  0  0  0  0
  -30.2794  -24.5963   21.5883 C   0  0  0  0  0  0  0  0  0  0  0  0
  -26.0556  -20.7521   18.2214 C   0  0  0  0  0  0  0  0  0  0  0  0
  -34.9070  -25.1889   20.9880 C   0  0  0  0  0  0  0  0  0  0  0  0
  -35.9513  -25.0446   20.0746 C   0  0  0  0  0  0  0  0  0  0  0  0
  -26.4848  -20.7785   20.5950 C   0  0  0  0  0  0  0  0  0  0  0  0
  -19.1364  -26.4280   21.9375 C   0  0  0  0  0  0  0  0  0  0  0  0
  -19.3312  -28.8319   23.3397 C   0  0  0  0  0  0  0  0  0  0  0  0
  -34.5798  -23.5705   18.7393 C   0  0  0  0  0  0  0  0  0  0  0  0
  -29.0864  -26.2499   20.2924 C   0  0  0  0  0  0  0  0  0  0  0  0
  -27.1681  -26.4568   18.6236 C   0  0  0  0  0  0  0  0  0  0  0  0
  -24.5909  -11.9280   19.5041 C   0  0  0  0  0  0  0  0  0  0  0  0
  -27.0827  -18.8292   19.2902 C   0  0  0  0  0  0  0  0  0  0  0  0
  -24.4647  -13.3273   19.4120 C   0  0  0  0  0  0  0  0  0  0  0  0
  -27.0378  -19.4907   20.5257 C   0  0  0  0  0  0  0  0  0  0  0  0
  -18.0974  -27.3567   21.8772 C   0  0  0  0  0  0  0  0  0  0  0  0
  -20.3702  -27.9032   23.3999 C   0  0  0  0  0  0  0  0  0  0  0  0
  -31.4903  -25.1875   21.2279 C   0  0  0  0  0  0  0  0  0  0  0  0
  -25.9949  -21.4047   19.4492 C   0  0  0  0  0  0  0  0  0  0  0  0
  -33.6991  -24.5239   20.7770 C   0  0  0  0  0  0  0  0  0  0  0  0
  -20.2728  -26.7013   22.6989 C   0  0  0  0  0  0  0  0  0  0  0  0
  -35.7877  -24.2355   18.9503 C   0  0  0  0  0  0  0  0  0  0  0  0
  -33.5355  -23.7147   19.6527 C   0  0  0  0  0  0  0  0  0  0  0  0
  -18.1948  -28.5586   22.5783 C   0  0  0  0  0  0  0  0  0  0  0  0
  -27.8445  -26.7985   19.8100 C   0  0  0  0  0  0  0  0  0  0  0  0
  -26.0491  -27.2532   18.6248 C   0  0  0  0  0  0  0  0  0  0  0  0
  -27.5199  -25.5047   17.6110 C   0  0  0  0  0  0  0  0  0  0  0  0
  -26.3206  -16.1740   20.8627 C   0  0  0  0  0  0  0  0  0  0  0  0
  -28.9534  -16.9159   22.6064 C   0  0  0  0  0  0  0  0  0  0  0  0
  -31.1298  -19.3102   23.6914 C   0  0  0  0  0  0  0  0  0  0  0  0
  -22.9316  -29.8984   22.9992 C   0  0  0  0  0  0  0  0  0  0  0  0
  -24.9779  -11.2496   20.7943 C   0  0  0  0  0  0  0  0  0  0  0  0
  -27.6921  -17.4583   19.1818 C   0  0  0  0  0  0  0  0  0  0  0  0
  -27.5605  -18.8529   21.7861 C   0  0  0  0  0  0  0  0  0  0  0  0
  -25.6255  -12.1906   21.8068 C   0  0  0  0  0  0  0  0  0  0  0  0
  -24.4648  -31.4827   20.2035 C   0  0  0  0  0  0  0  0  0  0  0  0
  -24.8263  -13.4849   21.9200 C   0  0  0  0  0  0  0  0  0  0  0  0
  -25.4438  -30.4310   19.6786 C   0  0  0  0  0  0  0  0  0  0  0  0
  -24.3751  -31.4592   21.7278 C   0  0  0  0  0  0  0  0  0  0  0  0
  -25.0447  -29.0881   21.7848 C   0  0  0  0  0  0  0  0  0  0  0  0
  -24.7921  -14.2311   20.5808 C   0  0  1  0  0  0  0  0  0  0  0  0
  -27.6833  -16.6944   20.5023 C   0  0  1  0  0  0  0  0  0  0  0  0
  -25.1272  -29.0357   20.2496 C   0  0  2  0  0  0  0  0  0  0  0  0
  -16.8969  -27.0259   21.0508 C   0  0  0  0  0  0  0  0  0  0  0  0
  -33.1581  -19.6196   25.1362 C   0  0  0  0  0  0  0  0  0  0  0  0
  -27.2052  -16.7157   25.0992 C   0  0  0  0  0  0  0  0  0  0  0  0
  -28.9898  -17.9343   26.3636 C   0  0  0  0  0  0  0  0  0  0  0  0
  -29.4840  -15.7138   25.3399 C   0  0  0  0  0  0  0  0  0  0  0  0
  -32.7526  -20.2675   21.4090 C   0  0  0  0  0  0  0  0  0  0  0  0
  -21.5797  -28.2123   24.2194 C   0  0  0  0  0  0  0  0  0  0  0  0
  -23.6970  -23.9944   20.4886 C   0  0  0  0  0  0  0  0  0  0  0  0
  -23.0024  -24.4198   21.7775 C   0  0  0  0  0  0  0  0  0  0  0  0
  -24.8284  -23.0113   20.7583 C   0  0  0  0  0  0  0  0  0  1  0  0
  -21.8996  -25.4351   21.5131 C   0  0  0  0  0  0  0  0  0  0  0  0
  -29.2187  -17.7360   23.8458 C   0  0  1  0  0  0  0  0  0  0  0  0
  -32.6468  -19.3497   23.7296 C   0  0  2  0  0  0  0  0  0  0  0  0
  -28.7127  -17.0365   25.1389 C   0  0  0  0  0  0  0  0  0  0  0  0
  -27.2083  -27.7389   20.5137 N   0  0  0  0  0  0  0  0  0  0  0  0
  -26.1206  -27.9949   19.7671 N   0  0  0  0  0  0  0  0  0  0  0  0
  -28.1412  -17.5091   21.6296 N   0  0  0  0  0  0  0  0  0  0  0  0
  -24.0709  -30.1080   22.2048 N   0  0  0  0  0  0  0  0  0  0  0  0
  -25.0208  -27.3845   17.7600 N   0  0  0  0  0  0  0  0  0  0  0  0
  -28.7037  -24.7707   17.7664 N   0  0  0  0  0  0  0  0  0  0  0  0
  -26.0447  -14.9194   20.3536 N   0  0  0  0  0  0  0  0  0  0  0  0
  -30.6482  -18.0273   23.8442 N   0  0  0  0  0  0  0  0  0  0  0  0
  -22.7133  -28.5871   23.4036 N   0  0  0  0  0  0  0  0  0  0  0  0
  -33.1600  -20.4207   22.8294 N   0  3  0  0  0  0  0  0  0  0  0  0
  -26.8140  -25.3222   16.5903 O   0  0  0  0  0  0  0  0  0  0  0  0
  -25.5753  -16.8594   21.5530 O   0  0  0  0  0  0  0  0  0  0  0  0
  -29.4544  -15.7932   22.5055 O   0  0  0  0  0  0  0  0  0  0  0  0
  -30.4408  -20.3173   23.5445 O   0  0  0  0  0  0  0  0  0  0  0  0
  -22.1628  -30.8112   23.3195 O   0  0  0  0  0  0  0  0  0  0  0  0
  -32.6629  -24.6687   21.6843 O   0  0  0  0  0  0  0  0  0  0  0  0
  -25.4628  -22.6545   19.5309 O   0  0  0  0  0  0  0  0  0  1  0  0
  -21.2846  -25.7778   22.7473 O   0  0  0  0  0  0  0  0  0  0  0  0
  -36.7901  -24.0983   18.0725 F   0  0  0  0  0  0  0  0  0  0  0  0
  -32.3769  -23.0743   19.4440 F   0  0  0  0  0  0  0  0  0  0  0  0
  -16.9293  -29.7313   22.5267 Cl  0  0  0  0  0  0  0  0  0  0  0  0
  1  2  1  0  0  0  0
  1  5  2  0  0  0  0
  2  6  2  0  0  0  0
  3  8  2  0  0  0  0
  3 17  1  0  0  0  0
  4  9  1  0  0  0  0
  4 17  2  0  0  0  0
  5 19  1  0  0  0  0
  6 21  1  0  0  0  0
  7 10  2  0  0  0  0
  7 20  1  0  0  0  0
  8 25  1  0  0  0  0
  9 25  2  0  0  0  0
 10 26  1  0  0  0  0
 11 12  2  0  0  0  0
 11 27  1  0  0  0  0
 12 29  1  0  0  0  0
 13 22  1  0  0  0  0
 13 26  2  0  0  0  0
 14 23  2  0  0  0  0
 14 28  1  0  0  0  0
 15 24  1  0  0  0  0
 15 31  2  0  0  0  0
 16 29  2  0  0  0  0
 16 30  1  0  0  0  0
 17 32  1  0  0  0  0
 18 32  1  0  0  0  0
 18 33  2  0  0  0  0
 18 34  1  0  0  0  0
 19 21  2  0  0  0  0
 19 39  1  0  0  0  0
 20 22  2  0  0  0  0
 20 40  1  0  0  0  0
 21 48  1  0  0  0  0
 22 41  1  0  0  0  0
 23 31  1  0  0  0  0
 23 51  1  0  0  0  0
 24 28  2  0  0  0  0
 24 57  1  0  0  0  0
 25 80  1  0  0  0  0
 26 81  1  0  0  0  0
 27 30  2  0  0  0  0
 27 80  1  0  0  0  0
 28 82  1  0  0  0  0
 29 83  1  0  0  0  0
 30 84  1  0  0  0  0
 31 85  1  0  0  0  0
 32 65  2  0  0  0  0
 33 66  1  0  0  0  0
 33 69  1  0  0  0  0
 34 70  1  0  0  0  0
 34 75  2  0  0  0  0
 35 49  1  0  0  0  0
 35 71  1  0  0  0  0
 35 76  2  0  0  0  0
 36 62  1  0  0  0  0
 36 67  1  0  0  0  0
 36 77  2  0  0  0  0
 37 63  1  0  0  0  0
 37 72  1  0  0  0  0
 37 78  2  0  0  0  0
 38 68  1  0  0  0  0
 38 73  1  0  0  0  0
 38 79  2  0  0  0  0
 39 42  1  0  0  0  0
 40 49  1  0  0  0  0
 41 67  1  0  0  0  0
 42 44  1  0  0  0  0
 43 45  1  0  0  0  0
 43 46  1  0  0  0  0
 44 48  1  0  0  0  0
 45 50  1  0  0  0  0
 46 68  1  0  0  0  0
 47 50  1  0  0  0  0
 47 68  1  0  0  0  0
 48 71  1  0  0  0  0
 49 67  1  0  0  0  0
 50 66  1  0  0  0  0
 52 63  1  0  0  0  0
 53 64  1  0  0  0  0
 54 64  1  0  0  0  0
 55 64  1  0  0  0  0
 56 74  1  0  0  0  0
 57 73  1  0  0  0  0
 58 59  1  0  0  0  0
 58 60  1  0  0  0  0
 59 61  1  0  0  0  0
 60 81  1  0  0  0  0
 61 82  1  0  0  0  0
 62 64  1  0  0  0  0
 62 72  1  0  0  0  0
 63 74  1  0  0  0  0
 65 66  1  0  0  0  0
M  CHG  1  74   1
M  ISO  4  38 100  60 101  73 100  81 101
M  END
> <Batch ID>
0028

> <Smiles>
CNC(C)C(=O)NC(C(=O)N1Cc2cc([101O:1][101CH2:1]CCCOc3cc(C)c(Cl)cc3C[100NH:0][100C:0](=O)N3CCCC(n4nc(-c5ccc(Oc6ccc(F)cc6F)cc5)c(C(N)=O)c4N)C3)ccc2CC1C(=O)NC1CCCc2ccccc21)C(C)(C)C

> <Shape>
0.212

> <Color>
0.072

> <Negative vol penalty>
0.000

$$$$

  -OEChem-04052316333D

 85 93  0     1  0  0  0  0  0999 V2000
  -28.6762  -21.6715   27.7102 C   0  0  0  0  0  0  0  0  0  0  0  0
  -28.8323  -22.2748   26.4664 C   0  0  0  0  0  0  0  0  0  0  0  0
  -21.7975  -11.9503   21.6088 C   0  0  0  0  0  0  0  0  0  0  0  0
  -22.3525  -13.0003   23.7127 C   0  0  0  0  0  0  0  0  0  0  0  0
  -27.3976  -21.4321   28.2120 C   0  0  0  0  0  0  0  0  0  0  0  0
  -27.7098  -22.6381   25.7231 C   0  0  0  0  0  0  0  0  0  0  0  0
  -28.1244  -27.2686   23.7153 C   0  0  0  0  0  0  0  0  0  0  0  0
  -21.0835  -10.9641   22.2893 C   0  0  0  0  0  0  0  0  0  0  0  0
  -21.6384  -12.0142   24.3933 C   0  0  0  0  0  0  0  0  0  0  0  0
  -28.9137  -27.3991   22.5735 C   0  0  0  0  0  0  0  0  0  0  0  0
  -19.4147   -7.9670   23.4961 C   0  0  0  0  0  0  0  0  0  0  0  0
  -19.6029   -6.6414   23.1050 C   0  0  0  0  0  0  0  0  0  0  0  0
  -26.9267  -27.3869   21.2058 C   0  0  0  0  0  0  0  0  0  0  0  0
  -29.4569  -19.8635   19.2890 C   0  0  0  0  0  0  0  0  0  0  0  0
  -21.9531   -6.8184   23.6366 C   0  0  0  0  0  0  0  0  0  0  0  0
  -22.4321  -12.9684   22.3205 C   0  0  0  0  0  0  0  0  0  0  0  0
  -22.6773  -15.2143   21.1358 C   0  0  0  0  0  0  0  0  0  0  0  0
  -26.2589  -21.8014   27.4788 C   0  0  0  0  0  0  0  0  0  0  0  0
  -26.7286  -27.1851   23.6099 C   0  0  0  0  0  0  0  0  0  0  0  0
  -26.4147  -22.4022   26.2150 C   0  0  0  0  0  0  0  0  0  0  0  0
  -26.1218  -27.2579   22.3479 C   0  0  0  0  0  0  0  0  0  0  0  0
  -27.6742  -20.7115   20.6817 C   0  0  0  0  0  0  0  0  0  0  0  0
  -28.5018  -19.6610   20.2851 C   0  0  0  0  0  0  0  0  0  0  0  0
  -21.0039  -10.9961   23.6815 C   0  0  0  0  0  0  0  0  0  0  0  0
  -28.3151  -27.4554   21.3183 C   0  0  0  0  0  0  0  0  0  0  0  0
  -20.4956   -8.7184   23.9573 C   0  0  0  0  0  0  0  0  0  0  0  0
  -28.7570  -22.1670   19.0861 C   0  0  0  0  0  0  0  0  0  0  0  0
  -20.8721   -6.0671   23.1753 C   0  0  0  0  0  0  0  0  0  0  0  0
  -29.5846  -21.1166   18.6895 C   0  0  0  0  0  0  0  0  0  0  0  0
  -21.7648   -8.1440   24.0276 C   0  0  0  0  0  0  0  0  0  0  0  0
  -27.8018  -21.9645   20.0822 C   0  0  0  0  0  0  0  0  0  0  0  0
  -23.1704  -13.9871   21.6181 C   0  0  0  0  0  0  0  0  0  0  0  0
  -23.7649  -15.8149   20.5502 C   0  0  0  0  0  0  0  0  0  0  0  0
  -21.3546  -15.7624   21.2107 C   0  0  0  0  0  0  0  0  0  0  0  0
  -24.5497  -24.9944   24.3562 C   0  0  0  0  0  0  0  0  0  0  0  0
  -22.4716  -27.3288   23.4879 C   0  0  0  0  0  0  0  0  0  0  0  0
  -21.8937  -30.1714   21.6899 C   0  0  0  0  0  0  0  0  0  0  0  0
  -29.1462  -17.2442   20.5854 C   0  0  0  0  0  0  0  0  0  0  0  0
  -24.8972  -21.4794   28.0416 C   0  0  0  0  0  0  0  0  0  0  0  0
  -25.8896  -27.0713   24.8531 C   0  0  0  0  0  0  0  0  0  0  0  0
  -24.6262  -27.1931   22.1822 C   0  0  0  0  0  0  0  0  0  0  0  0
  -23.7610  -22.2349   27.3571 C   0  0  0  0  0  0  0  0  0  0  0  0
  -28.3455  -13.9699   19.4388 C   0  0  0  0  0  0  0  0  0  0  0  0
  -23.9143  -22.1705   25.8408 C   0  0  0  0  0  0  0  0  0  0  0  0
  -26.8872  -13.7834   19.8639 C   0  0  0  0  0  0  0  0  0  0  0  0
  -29.1414  -14.7617   20.4748 C   0  0  0  0  0  0  0  0  0  0  0  0
  -27.0921  -15.8633   21.2849 C   0  0  0  0  0  0  0  0  0  0  0  0
  -25.2216  -22.8331   25.3899 C   0  0  1  0  0  0  0  0  0  0  0  0
  -24.5090  -26.4781   24.5900 C   0  0  1  0  0  0  0  0  0  0  0  0
  -26.2344  -15.1273   20.2427 C   0  0  2  0  0  0  0  0  0  0  0  0
  -26.6539  -20.4782   21.7537 C   0  0  0  0  0  0  0  0  0  0  0  0
  -20.0872  -31.8273   21.1495 C   0  0  0  0  0  0  0  0  0  0  0  0
  -21.1943  -25.3117   21.5879 C   0  0  0  0  0  0  0  0  0  0  0  0
  -20.0707  -27.2233   20.4253 C   0  0  0  0  0  0  0  0  0  0  0  0
  -19.5684  -26.7554   22.8235 C   0  0  0  0  0  0  0  0  0  0  0  0
  -23.4304  -32.4082   22.8706 C   0  0  0  0  0  0  0  0  0  0  0  0
  -30.8230  -26.5957   18.8491 C   0  0  0  0  0  0  0  0  0  0  0  0
  -29.8656  -25.5700   18.2523 C   0  0  0  0  0  0  0  0  0  0  0  0
  -30.3932  -27.0181   20.2478 C   0  0  0  0  0  0  0  0  0  1  0  0
  -29.8253  -24.2917   19.0777 C   0  0  0  0  0  0  0  0  0  0  0  0
  -21.8092  -27.7443   22.1965 C   0  0  1  0  0  0  0  0  0  0  0  0
  -21.2485  -31.4913   22.0721 C   0  0  2  0  0  0  0  0  0  0  0  0
  -20.6890  -26.7580   21.7609 C   0  0  0  0  0  0  0  0  0  0  0  0
  -24.4699  -13.8166   21.3609 N   0  0  0  0  0  0  0  0  0  0  0  0
  -24.8027  -14.9447   20.7106 N   0  0  0  0  0  0  0  0  0  0  0  0
  -23.8492  -27.0756   23.4273 N   0  0  0  0  0  0  0  0  0  0  0  0
  -28.4651  -16.0241   20.7811 N   0  0  0  0  0  0  0  0  0  0  0  0
  -23.9250  -16.9973   19.9186 N   0  0  0  0  0  0  0  0  0  0  0  0
  -20.3559  -15.0130   21.8473 N   0  0  0  0  0  0  0  0  0  0  0  0
  -28.3915  -18.3794   20.8793 N   0  0  0  0  0  0  0  0  0  0  0  0
  -25.0892  -24.2742   25.4049 N   0  0  0  0  0  0  0  0  0  0  0  0
  -21.3538  -29.1161   22.3943 N   0  0  0  0  0  0  0  0  0  0  0  0
  -22.2452  -32.5965   21.9949 N   0  3  0  0  0  0  0  0  0  0  0  0
  -21.0630  -16.8763   20.7129 O   0  0  0  0  0  0  0  0  0  0  0  0
  -24.1220  -24.5367   23.3030 O   0  0  0  0  0  0  0  0  0  0  0  0
  -21.7930  -27.2393   24.5141 O   0  0  0  0  0  0  0  0  0  0  0  0
  -22.7847  -30.0846   20.8478 O   0  0  0  0  0  0  0  0  0  0  0  0
  -30.3039  -17.2803   20.1607 O   0  0  0  0  0  0  0  0  0  0  0  0
  -20.3069  -10.0341   24.3459 O   0  0  0  0  0  0  0  0  0  0  0  0
  -29.0833  -27.5822   20.2022 O   0  0  0  0  0  0  0  0  0  1  0  0
  -28.9077  -23.3868   18.4792 O   0  0  0  0  0  0  0  0  0  0  0  0
  -21.0524   -4.7936   22.8012 F   0  0  0  0  0  0  0  0  0  0  0  0
  -30.5055  -21.3044   17.7341 F   0  0  0  0  0  0  0  0  0  0  0  0
  -22.8069   -8.8605   24.4711 F   0  0  0  0  0  0  0  0  0  0  0  0
  -26.7844  -23.2783   20.5687 Cl  0  0  0  0  0  0  0  0  0  0  0  0
  1  2  1  0  0  0  0
  1  5  2  0  0  0  0
  2  6  2  0  0  0  0
  3  8  2  0  0  0  0
  3 16  1  0  0  0  0
  4  9  1  0  0  0  0
  4 16  2  0  0  0  0
  5 18  1  0  0  0  0
  6 20  1  0  0  0  0
  7 10  2  0  0  0  0
  7 19  1  0  0  0  0
  8 24  1  0  0  0  0
  9 24  2  0  0  0  0
 10 25  1  0  0  0  0
 11 12  2  0  0  0  0
 11 26  1  0  0  0  0
 12 28  1  0  0  0  0
 13 21  1  0  0  0  0
 13 25  2  0  0  0  0
 14 23  1  0  0  0  0
 14 29  2  0  0  0  0
 15 28  2  0  0  0  0
 15 30  1  0  0  0  0
 16 32  1  0  0  0  0
 17 32  1  0  0  0  0
 17 33  2  0  0  0  0
 17 34  1  0  0  0  0
 18 20  2  0  0  0  0
 18 39  1  0  0  0  0
 19 21  2  0  0  0  0
 19 40  1  0  0  0  0
 20 48  1  0  0  0  0
 21 41  1  0  0  0  0
 22 23  2  0  0  0  0
 22 31  1  0  0  0  0
 22 51  1  0  0  0  0
 23 70  1  0  0  0  0
 24 79  1  0  0  0  0
 25 80  1  0  0  0  0
 26 30  2  0  0  0  0
 26 79  1  0  0  0  0
 27 29  1  0  0  0  0
 27 31  2  0  0  0  0
 27 81  1  0  0  0  0
 28 82  1  0  0  0  0
 29 83  1  0  0  0  0
 30 84  1  0  0  0  0
 31 85  1  0  0  0  0
 32 64  2  0  0  0  0
 33 65  1  0  0  0  0
 33 68  1  0  0  0  0
 34 69  1  0  0  0  0
 34 74  2  0  0  0  0
 35 49  1  0  0  0  0
 35 71  1  0  0  0  0
 35 75  2  0  0  0  0
 36 61  1  0  0  0  0
 36 66  1  0  0  0  0
 36 76  2  0  0  0  0
 37 62  1  0  0  0  0
 37 72  1  0  0  0  0
 37 77  2  0  0  0  0
 38 67  1  0  0  0  0
 38 70  1  0  0  0  0
 38 78  2  0  0  0  0
 39 42  1  0  0  0  0
 40 49  1  0  0  0  0
 41 66  1  0  0  0  0
 42 44  1  0  0  0  0
 43 45  1  0  0  0  0
 43 46  1  0  0  0  0
 44 48  1  0  0  0  0
 45 50  1  0  0  0  0
 46 67  1  0  0  0  0
 47 50  1  0  0  0  0
 47 67  1  0  0  0  0
 48 71  1  0  0  0  0
 49 66  1  0  0  0  0
 50 65  1  0  0  0  0
 52 62  1  0  0  0  0
 53 63  1  0  0  0  0
 54 63  1  0  0  0  0
 55 63  1  0  0  0  0
 56 73  1  0  0  0  0
 57 58  1  0  0  0  0
 57 59  1  0  0  0  0
 58 60  1  0  0  0  0
 59 80  1  0  0  0  0
 60 81  1  0  0  0  0
 61 63  1  0  0  0  0
 61 72  1  0  0  0  0
 62 73  1  0  0  0  0
 64 65  1  0  0  0  0
M  CHG  1  73   1
M  ISO  4  38 100  59 101  70 100  80 101
M  END
> <Batch ID>
0028

> <Smiles>
CNC(C)C(=O)NC(C(=O)N1Cc2cc([101O:1][101CH2:1]CCCOc3c(F)cc([100NH:0][100C:0](=O)N4CCCC(n5nc(-c6ccc(Oc7ccc(F)cc7F)cc6)c(C(N)=O)c5N)C4)c(C)c3Cl)ccc2CC1C(=O)NC1CCCc2ccccc21)C(C)(C)C

> <Shape>
0.235

> <Color>
0.054

> <Negative vol penalty>
0.000

$$$$

  -OEChem-04052316333D

 82 90  0     1  0  0  0  0  0999 V2000
  -22.9441  -28.4943   27.4536 C   0  0  0  0  0  0  0  0  0  0  0  0
  -24.1271  -28.0019   26.9120 C   0  0  0  0  0  0  0  0  0  0  0  0
  -24.7147  -14.0485   21.1805 C   0  0  0  0  0  0  0  0  0  0  0  0
  -26.9075  -13.5735   20.2844 C   0  0  0  0  0  0  0  0  0  0  0  0
  -21.7714  -28.4725   26.6997 C   0  0  0  0  0  0  0  0  0  0  0  0
  -24.1380  -27.4863   25.6164 C   0  0  0  0  0  0  0  0  0  0  0  0
  -28.6984  -27.8549   21.5455 C   0  0  0  0  0  0  0  0  0  0  0  0
  -24.2572  -12.8160   20.7144 C   0  0  0  0  0  0  0  0  0  0  0  0
  -26.4500  -12.3409   19.8183 C   0  0  0  0  0  0  0  0  0  0  0  0
  -29.6971  -26.9567   21.1719 C   0  0  0  0  0  0  0  0  0  0  0  0
  -24.4344   -9.5741   21.6586 C   0  0  0  0  0  0  0  0  0  0  0  0
  -23.6597   -8.8010   22.5234 C   0  0  0  0  0  0  0  0  0  0  0  0
  -28.3406  -26.2305   19.3140 C   0  0  0  0  0  0  0  0  0  0  0  0
  -33.4759  -22.7064   19.8691 C   0  0  0  0  0  0  0  0  0  0  0  0
  -31.7639  -22.8181   18.1682 C   0  0  0  0  0  0  0  0  0  0  0  0
  -21.8328   -8.8646   20.9436 C   0  0  0  0  0  0  0  0  0  0  0  0
  -26.0398  -14.4273   20.9654 C   0  0  0  0  0  0  0  0  0  0  0  0
  -27.0860  -15.9754   22.7023 C   0  0  0  0  0  0  0  0  0  0  0  0
  -21.7700  -27.9653   25.3907 C   0  0  0  0  0  0  0  0  0  0  0  0
  -27.5068  -27.9401   20.8113 C   0  0  0  0  0  0  0  0  0  0  0  0
  -22.9639  -27.4564   24.8448 C   0  0  0  0  0  0  0  0  0  0  0  0
  -27.3294  -27.1324   19.6789 C   0  0  0  0  0  0  0  0  0  0  0  0
  -32.6717  -23.4577   19.0121 C   0  0  0  0  0  0  0  0  0  0  0  0
  -33.3724  -21.3154   19.8820 C   0  0  0  0  0  0  0  0  0  0  0  0
  -31.6603  -21.4271   18.1811 C   0  0  0  0  0  0  0  0  0  0  0  0
  -25.1248  -11.9622   20.0333 C   0  0  0  0  0  0  0  0  0  0  0  0
  -29.5171  -26.1423   20.0578 C   0  0  0  0  0  0  0  0  0  0  0  0
  -23.9082   -9.9925   20.4364 C   0  0  0  0  0  0  0  0  0  0  0  0
  -22.3590   -8.4462   22.1659 C   0  0  0  0  0  0  0  0  0  0  0  0
  -22.6075   -9.6377   20.0789 C   0  0  0  0  0  0  0  0  0  0  0  0
  -32.4646  -20.6758   19.0380 C   0  0  0  0  0  0  0  0  0  0  0  0
  -26.5129  -15.7005   21.4462 C   0  0  0  0  0  0  0  0  0  0  0  0
  -27.3635  -17.3200   22.6663 C   0  0  0  0  0  0  0  0  0  0  0  0
  -27.3444  -15.0939   23.8032 C   0  0  0  0  0  0  0  0  0  0  0  0
  -24.4347  -27.4384   21.4552 C   0  0  0  0  0  0  0  0  0  0  0  0
  -24.0177  -28.6048   18.4571 C   0  0  0  0  0  0  0  0  0  0  0  0
  -25.3308  -29.1634   15.3571 C   0  0  0  0  0  0  0  0  0  0  0  0
  -28.3996  -21.1509   18.1828 C   0  0  0  0  0  0  0  0  0  0  0  0
  -20.4677  -27.9191   24.6315 C   0  0  0  0  0  0  0  0  0  0  0  0
  -26.4503  -28.9331   21.2117 C   0  0  0  0  0  0  0  0  0  0  0  0
  -26.0770  -27.1997   18.8451 C   0  0  0  0  0  0  0  0  0  0  0  0
  -20.6447  -27.7001   23.1312 C   0  0  0  0  0  0  0  0  0  0  0  0
  -25.8635  -21.4008   20.6692 C   0  0  0  0  0  0  0  0  0  0  0  0
  -21.6367  -26.5712   22.8698 C   0  0  0  0  0  0  0  0  0  0  0  0
  -25.7941  -19.9930   21.2636 C   0  0  0  0  0  0  0  0  0  0  0  0
  -26.1366  -21.3663   19.1672 C   0  0  0  0  0  0  0  0  0  0  0  0
  -27.2552  -19.1793   19.3659 C   0  0  0  0  0  0  0  0  0  0  0  0
  -23.0213  -26.9119   23.4340 C   0  0  1  0  0  0  0  0  0  0  0  0
  -25.0623  -28.5708   20.6926 C   0  0  1  0  0  0  0  0  0  0  0  0
  -27.0372  -19.1640   20.8885 C   0  0  2  0  0  0  0  0  0  0  0  0
  -34.2543  -20.5510   20.8164 C   0  0  0  0  0  0  0  0  0  0  0  0
  -24.7371  -30.0995   13.1057 C   0  0  0  0  0  0  0  0  0  0  0  0
  -22.4160  -26.0836   17.8339 C   0  0  0  0  0  0  0  0  0  0  0  0
  -22.6687  -26.6090   15.3991 C   0  0  0  0  0  0  0  0  0  0  0  0
  -21.4513  -28.1912   16.8949 C   0  0  0  0  0  0  0  0  0  0  0  0
  -27.4277  -31.2439   15.5403 C   0  0  0  0  0  0  0  0  0  0  0  0
  -32.7838  -24.9629   18.9982 C   0  0  0  0  0  0  0  0  0  0  0  0
  -30.6739  -20.7845   17.2595 C   0  0  0  0  0  0  0  0  0  0  0  0
  -31.8373  -25.6240   19.9943 C   0  0  0  0  0  0  0  0  0  1  0  0
  -23.9662  -28.0032   17.0735 C   0  0  1  0  0  0  0  0  0  0  0  0
  -25.3347  -30.3968   14.4721 C   0  0  2  0  0  0  0  0  0  0  0  0
  -22.6484  -27.2189   16.8170 C   0  0  0  0  0  0  0  0  0  0  0  0
  -26.4305  -16.7837   20.6690 N   0  0  0  0  0  0  0  0  0  0  0  0
  -26.9553  -17.7521   21.4388 N   0  0  0  0  0  0  0  0  0  0  0  0
  -25.0706  -28.1820   19.2808 N   0  0  0  0  0  0  0  0  0  0  0  0
  -27.3291  -20.5658   18.8790 N   0  0  0  0  0  0  0  0  0  0  0  0
  -27.9143  -18.1632   23.5653 N   0  0  0  0  0  0  0  0  0  0  0  0
  -26.9974  -13.7423   23.6726 N   0  0  0  0  0  0  0  0  0  0  0  0
  -23.7088  -27.8388   22.5607 N   0  0  0  0  0  0  0  0  0  0  0  0
  -24.1988  -29.1016   16.1419 N   0  0  0  0  0  0  0  0  0  0  0  0
  -29.4936  -20.3246   17.9568 N   0  0  0  0  0  0  0  0  0  0  0  0
  -26.7273  -30.8910   14.2786 N   0  3  0  0  0  0  0  0  0  0  0  0
  -27.8525  -15.4963   24.8772 O   0  0  0  0  0  0  0  0  0  0  0  0
  -24.5958  -26.2869   21.0682 O   0  0  0  0  0  0  0  0  0  0  0  0
  -23.1595  -29.4251   18.7922 O   0  0  0  0  0  0  0  0  0  0  0  0
  -26.2391  -28.3355   15.3499 O   0  0  0  0  0  0  0  0  0  0  0  0
  -28.3839  -22.3245   17.7963 O   0  0  0  0  0  0  0  0  0  0  0  0
  -24.6788  -10.7594   19.5786 O   0  0  0  0  0  0  0  0  0  0  0  0
  -30.4901  -25.2642   19.6913 O   0  0  0  0  0  0  0  0  0  1  0  0
  -21.6157   -7.7025   22.9957 F   0  0  0  0  0  0  0  0  0  0  0  0
  -22.0969  -10.0357   18.9055 F   0  0  0  0  0  0  0  0  0  0  0  0
  -32.3362  -18.9488   19.0540 Cl  0  0  0  0  0  0  0  0  0  0  0  0
  1  2  1  0  0  0  0
  1  5  2  0  0  0  0
  2  6  2  0  0  0  0
  3  8  2  0  0  0  0
  3 17  1  0  0  0  0
  4  9  1  0  0  0  0
  4 17  2  0  0  0  0
  5 19  1  0  0  0  0
  6 21  1  0  0  0  0
  7 10  2  0  0  0  0
  7 20  1  0  0  0  0
  8 26  1  0  0  0  0
  9 26  2  0  0  0  0
 10 27  1  0  0  0  0
 11 12  2  0  0  0  0
 11 28  1  0  0  0  0
 12 29  1  0  0  0  0
 13 22  1  0  0  0  0
 13 27  2  0  0  0  0
 14 23  1  0  0  0  0
 14 24  2  0  0  0  0
 15 23  2  0  0  0  0
 15 25  1  0  0  0  0
 16 29  2  0  0  0  0
 16 30  1  0  0  0  0
 17 32  1  0  0  0  0
 18 32  1  0  0  0  0
 18 33  2  0  0  0  0
 18 34  1  0  0  0  0
 19 21  2  0  0  0  0
 19 39  1  0  0  0  0
 20 22  2  0  0  0  0
 20 40  1  0  0  0  0
 21 48  1  0  0  0  0
 22 41  1  0  0  0  0
 23 57  1  0  0  0  0
 24 31  1  0  0  0  0
 24 51  1  0  0  0  0
 25 31  2  0  0  0  0
 25 58  1  0  0  0  0
 26 78  1  0  0  0  0
 27 79  1  0  0  0  0
 28 30  2  0  0  0  0
 28 78  1  0  0  0  0
 29 80  1  0  0  0  0
 30 81  1  0  0  0  0
 31 82  1  0  0  0  0
 32 63  2  0  0  0  0
 33 64  1  0  0  0  0
 33 67  1  0  0  0  0
 34 68  1  0  0  0  0
 34 73  2  0  0  0  0
 35 49  1  0  0  0  0
 35 69  1  0  0  0  0
 35 74  2  0  0  0  0
 36 60  1  0  0  0  0
 36 65  1  0  0  0  0
 36 75  2  0  0  0  0
 37 61  1  0  0  0  0
 37 70  1  0  0  0  0
 37 76  2  0  0  0  0
 38 66  1  0  0  0  0
 38 71  1  0  0  0  0
 38 77  2  0  0  0  0
 39 42  1  0  0  0  0
 40 49  1  0  0  0  0
 41 65  1  0  0  0  0
 42 44  1  0  0  0  0
 43 45  1  0  0  0  0
 43 46  1  0  0  0  0
 44 48  1  0  0  0  0
 45 50  1  0  0  0  0
 46 66  1  0  0  0  0
 47 50  1  0  0  0  0
 47 66  1  0  0  0  0
 48 69  1  0  0  0  0
 49 65  1  0  0  0  0
 50 64  1  0  0  0  0
 52 61  1  0  0  0  0
 53 62  1  0  0  0  0
 54 62  1  0  0  0  0
 55 62  1  0  0  0  0
 56 72  1  0  0  0  0
 57 59  1  0  0  0  0
 58 71  1  0  0  0  0
 59 79  1  0  0  0  0
 60 62  1  0  0  0  0
 60 70  1  0  0  0  0
 61 72  1  0  0  0  0
 63 64  1  0  0  0  0
M  CHG  1  72   1
M  ISO  4  38 100  59 101  71 100  79 101
M  END
> <Batch ID>
0028

> <Smiles>
CNC(C)C(=O)NC(C(=O)N1Cc2cc([101O:1][101CH2:1]Cc3cc(C)c(Cl)c(C[100NH:0][100C:0](=O)N4CCCC(n5nc(-c6ccc(Oc7ccc(F)cc7F)cc6)c(C(N)=O)c5N)C4)c3)ccc2CC1C(=O)NC1CCCc2ccccc21)C(C)(C)C

> <Shape>
0.190

> <Color>
0.071

> <Negative vol penalty>
0.000

$$$$

  -OEChem-04052316333D

 81 89  0     1  0  0  0  0  0999 V2000
  -17.6992  -26.7875   22.6075 C   0  0  0  0  0  0  0  0  0  0  0  0
  -18.8349  -26.4373   21.8844 C   0  0  0  0  0  0  0  0  0  0  0  0
  -26.7886  -12.4763   21.0235 C   0  0  0  0  0  0  0  0  0  0  0  0
  -25.3449  -14.3806   21.3789 C   0  0  0  0  0  0  0  0  0  0  0  0
  -17.7151  -27.9175   23.4241 C   0  0  0  0  0  0  0  0  0  0  0  0
  -19.9870  -27.2175   21.9766 C   0  0  0  0  0  0  0  0  0  0  0  0
  -25.7859  -25.2588   21.7740 C   0  0  0  0  0  0  0  0  0  0  0  0
  -25.7765  -11.6259   21.4684 C   0  0  0  0  0  0  0  0  0  0  0  0
  -24.3327  -13.5302   21.8238 C   0  0  0  0  0  0  0  0  0  0  0  0
  -26.7270  -25.2186   20.7461 C   0  0  0  0  0  0  0  0  0  0  0  0
  -22.9364  -10.2723   20.2295 C   0  0  0  0  0  0  0  0  0  0  0  0
  -22.6886   -9.1166   19.4889 C   0  0  0  0  0  0  0  0  0  0  0  0
  -27.6513  -27.3086   21.5187 C   0  0  0  0  0  0  0  0  0  0  0  0
  -30.4842  -23.6625   18.6965 C   0  0  0  0  0  0  0  0  0  0  0  0
  -31.6840  -22.8995   21.0967 C   0  0  0  0  0  0  0  0  0  0  0  0
  -23.1991   -7.7659   21.4260 C   0  0  0  0  0  0  0  0  0  0  0  0
  -26.5728  -13.8537   20.9788 C   0  0  0  0  0  0  0  0  0  0  0  0
  -27.8526  -15.1574   19.1983 C   0  0  0  0  0  0  0  0  0  0  0  0
  -18.8710  -28.7065   23.5338 C   0  0  0  0  0  0  0  0  0  0  0  0
  -25.7635  -26.3315   22.6769 C   0  0  0  0  0  0  0  0  0  0  0  0
  -20.0179  -28.3599   22.7944 C   0  0  0  0  0  0  0  0  0  0  0  0
  -26.7105  -27.3588   22.5587 C   0  0  0  0  0  0  0  0  0  0  0  0
  -31.0239  -24.6294   19.5446 C   0  0  0  0  0  0  0  0  0  0  0  0
  -31.1443  -21.9326   20.2485 C   0  0  0  0  0  0  0  0  0  0  0  0
  -24.5485  -12.1528   21.8685 C   0  0  0  0  0  0  0  0  0  0  0  0
  -27.6580  -26.2450   20.6166 C   0  0  0  0  0  0  0  0  0  0  0  0
  -23.3157  -10.1749   21.5683 C   0  0  0  0  0  0  0  0  0  0  0  0
  -22.8199   -7.8634   20.0871 C   0  0  0  0  0  0  0  0  0  0  0  0
  -23.4470   -8.9217   22.1665 C   0  0  0  0  0  0  0  0  0  0  0  0
  -30.5443  -22.3141   19.0485 C   0  0  0  0  0  0  0  0  0  0  0  0
  -31.6238  -24.2480   20.7447 C   0  0  0  0  0  0  0  0  0  0  0  0
  -27.6182  -14.7328   20.5199 C   0  0  0  0  0  0  0  0  0  0  0  0
  -28.9524  -15.9751   19.2904 C   0  0  0  0  0  0  0  0  0  0  0  0
  -27.1400  -14.8411   17.9951 C   0  0  0  0  0  0  0  0  0  0  0  0
  -23.6502  -28.5818   23.4345 C   0  0  0  0  0  0  0  0  0  0  0  0
  -25.8244  -29.3017   25.7317 C   0  0  0  0  0  0  0  0  0  0  0  0
  -29.0668  -29.1860   26.7904 C   0  0  0  0  0  0  0  0  0  0  0  0
  -31.7920  -20.0553   21.7986 C   0  0  0  0  0  0  0  0  0  0  0  0
  -18.8253  -29.9455   24.3926 C   0  0  0  0  0  0  0  0  0  0  0  0
  -24.7589  -26.3467   23.7963 C   0  0  0  0  0  0  0  0  0  0  0  0
  -26.7416  -28.5225   23.5143 C   0  0  0  0  0  0  0  0  0  0  0  0
  -20.2052  -30.5072   24.7254 C   0  0  0  0  0  0  0  0  0  0  0  0
  -32.1512  -16.7732   23.1312 C   0  0  0  0  0  0  0  0  0  0  0  0
  -21.0735  -30.5670   23.4727 C   0  0  0  0  0  0  0  0  0  0  0  0
  -31.0232  -15.9847   22.4619 C   0  0  0  0  0  0  0  0  0  0  0  0
  -31.7276  -18.2047   23.4557 C   0  0  0  0  0  0  0  0  0  0  0  0
  -30.0466  -18.1715   21.6549 C   0  0  0  0  0  0  0  0  0  0  0  0
  -21.2946  -29.1670   22.8873 C   0  0  1  0  0  0  0  0  0  0  0  0
  -24.5005  -27.7452   24.3483 C   0  0  1  0  0  0  0  0  0  0  0  0
  -30.4472  -16.7434   21.2503 C   0  0  2  0  0  0  0  0  0  0  0  0
  -30.5444  -29.8910   28.6922 C   0  0  0  0  0  0  0  0  0  0  0  0
  -25.7761  -32.1733   24.7016 C   0  0  0  0  0  0  0  0  0  0  0  0
  -27.9010  -32.5866   25.9595 C   0  0  0  0  0  0  0  0  0  0  0  0
  -25.8253  -31.9594   27.1928 C   0  0  0  0  0  0  0  0  0  0  0  0
  -29.7956  -26.3863   27.4145 C   0  0  0  0  0  0  0  0  0  0  0  0
  -30.9390  -26.0774   19.1269 C   0  0  0  0  0  0  0  0  0  0  0  0
  -29.8371  -26.8300   19.8647 C   0  0  0  0  0  0  0  0  0  1  0  0
  -27.0269  -30.2102   25.8186 C   0  0  1  0  0  0  0  0  0  0  0  0
  -29.6787  -28.7798   28.1189 C   0  0  2  0  0  0  0  0  0  0  0  0
  -26.6308  -31.7116   25.8988 C   0  0  0  0  0  0  0  0  0  0  0  0
  -28.4983  -15.2387   21.3878 N   0  0  0  0  0  0  0  0  0  0  0  0
  -29.2966  -15.9896   20.6100 N   0  0  0  0  0  0  0  0  0  0  0  0
  -25.7350  -28.4952   24.5883 N   0  0  0  0  0  0  0  0  0  0  0  0
  -31.1962  -18.8624   22.2599 N   0  0  0  0  0  0  0  0  0  0  0  0
  -29.6489  -16.6758   18.3705 N   0  0  0  0  0  0  0  0  0  0  0  0
  -26.0332  -13.9854   18.0794 N   0  0  0  0  0  0  0  0  0  0  0  0
  -31.2228  -20.5716   20.6350 N   0  0  0  0  0  0  0  0  0  0  0  0
  -22.2921  -28.4508   23.6532 N   0  0  0  0  0  0  0  0  0  0  0  0
  -27.8139  -29.7384   26.9528 N   0  0  0  0  0  0  0  0  0  0  0  0
  -30.5249  -27.5648   27.9495 N   0  3  0  0  0  0  0  0  0  0  0  0
  -27.4846  -15.2906   16.8758 O   0  0  0  0  0  0  0  0  0  0  0  0
  -24.1867  -29.2946   22.5944 O   0  0  0  0  0  0  0  0  0  0  0  0
  -24.9987  -29.3022   26.6481 O   0  0  0  0  0  0  0  0  0  0  0  0
  -29.6440  -29.0322   25.7163 O   0  0  0  0  0  0  0  0  0  0  0  0
  -32.7550  -20.5655   22.3768 O   0  0  0  0  0  0  0  0  0  0  0  0
  -23.5606  -11.3232   22.3024 O   0  0  0  0  0  0  0  0  0  0  0  0
  -28.5773  -26.2085   19.6138 O   0  0  0  0  0  0  0  0  0  1  0  0
  -22.5804   -6.7537   19.3762 F   0  0  0  0  0  0  0  0  0  0  0  0
  -23.8098   -8.8217   23.4527 F   0  0  0  0  0  0  0  0  0  0  0  0
  -29.8633  -21.1493   17.9697 Cl  0  0  0  0  0  0  0  0  0  0  0  0
  -32.3009  -25.4171   21.8191 Cl  0  0  0  0  0  0  0  0  0  0  0  0
  1  2  1  0  0  0  0
  1  5  2  0  0  0  0
  2  6  2  0  0  0  0
  3  8  2  0  0  0  0
  3 17  1  0  0  0  0
  4  9  1  0  0  0  0
  4 17  2  0  0  0  0
  5 19  1  0  0  0  0
  6 21  1  0  0  0  0
  7 10  2  0  0  0  0
  7 20  1  0  0  0  0
  8 25  1  0  0  0  0
  9 25  2  0  0  0  0
 10 26  1  0  0  0  0
 11 12  2  0  0  0  0
 11 27  1  0  0  0  0
 12 28  1  0  0  0  0
 13 22  1  0  0  0  0
 13 26  2  0  0  0  0
 14 23  1  0  0  0  0
 14 30  2  0  0  0  0
 15 24  2  0  0  0  0
 15 31  1  0  0  0  0
 16 28  2  0  0  0  0
 16 29  1  0  0  0  0
 17 32  1  0  0  0  0
 18 32  1  0  0  0  0
 18 33  2  0  0  0  0
 18 34  1  0  0  0  0
 19 21  2  0  0  0  0
 19 39  1  0  0  0  0
 20 22  2  0  0  0  0
 20 40  1  0  0  0  0
 21 48  1  0  0  0  0
 22 41  1  0  0  0  0
 23 31  2  0  0  0  0
 23 56  1  0  0  0  0
 24 30  1  0  0  0  0
 24 67  1  0  0  0  0
 25 76  1  0  0  0  0
 26 77  1  0  0  0  0
 27 29  2  0  0  0  0
 27 76  1  0  0  0  0
 28 78  1  0  0  0  0
 29 79  1  0  0  0  0
 30 80  1  0  0  0  0
 31 81  1  0  0  0  0
 32 61  2  0  0  0  0
 33 62  1  0  0  0  0
 33 65  1  0  0  0  0
 34 66  1  0  0  0  0
 34 71  2  0  0  0  0
 35 49  1  0  0  0  0
 35 68  1  0  0  0  0
 35 72  2  0  0  0  0
 36 58  1  0  0  0  0
 36 63  1  0  0  0  0
 36 73  2  0  0  0  0
 37 59  1  0  0  0  0
 37 69  1  0  0  0  0
 37 74  2  0  0  0  0
 38 64  1  0  0  0  0
 38 67  1  0  0  0  0
 38 75  2  0  0  0  0
 39 42  1  0  0  0  0
 40 49  1  0  0  0  0
 41 63  1  0  0  0  0
 42 44  1  0  0  0  0
 43 45  1  0  0  0  0
 43 46  1  0  0  0  0
 44 48  1  0  0  0  0
 45 50  1  0  0  0  0
 46 64  1  0  0  0  0
 47 50  1  0  0  0  0
 47 64  1  0  0  0  0
 48 68  1  0  0  0  0
 49 63  1  0  0  0  0
 50 62  1  0  0  0  0
 51 59  1  0  0  0  0
 52 60  1  0  0  0  0
 53 60  1  0  0  0  0
 54 60  1  0  0  0  0
 55 70  1  0  0  0  0
 56 57  1  0  0  0  0
 57 77  1  0  0  0  0
 58 60  1  0  0  0  0
 58 69  1  0  0  0  0
 59 70  1  0  0  0  0
 61 62  1  0  0  0  0
M  CHG  1  70   1
M  ISO  4  38 100  57 101  67 100  77 101
M  END
> <Batch ID>
0028

> <Smiles>
CNC(C)C(=O)NC(C(=O)N1Cc2cc([101O:1][101CH2:1]Cc3cc(Cl)c([100NH:0][100C:0](=O)N4CCCC(n5nc(-c6ccc(Oc7ccc(F)cc7F)cc6)c(C(N)=O)c5N)C4)cc3Cl)ccc2CC1C(=O)NC1CCCc2ccccc21)C(C)(C)C

> <Shape>
0.275

> <Color>
0.069

> <Negative vol penalty>
0.000

$$$$

  -OEChem-04052316333D

 84 92  0     1  0  0  0  0  0999 V2000
  -29.8286  -36.1014   21.0281 C   0  0  0  0  0  0  0  0  0  0  0  0
  -29.6301  -35.0590   20.1284 C   0  0  0  0  0  0  0  0  0  0  0  0
  -23.0855  -10.2974   19.9198 C   0  0  0  0  0  0  0  0  0  0  0  0
  -24.3365   -9.9450   21.9565 C   0  0  0  0  0  0  0  0  0  0  0  0
  -29.5988  -35.8998   22.3884 C   0  0  0  0  0  0  0  0  0  0  0  0
  -29.2028  -33.8140   20.5887 C   0  0  0  0  0  0  0  0  0  0  0  0
  -25.2114  -28.2019   18.6167 C   0  0  0  0  0  0  0  0  0  0  0  0
  -22.6493   -8.9731   19.9586 C   0  0  0  0  0  0  0  0  0  0  0  0
  -23.9002   -8.6207   21.9953 C   0  0  0  0  0  0  0  0  0  0  0  0
  -25.2852  -26.8142   18.5038 C   0  0  0  0  0  0  0  0  0  0  0  0
  -21.1057   -6.9459   22.8933 C   0  0  0  0  0  0  0  0  0  0  0  0
  -20.6592   -6.4479   24.1173 C   0  0  0  0  0  0  0  0  0  0  0  0
  -24.8439  -26.6046   20.8661 C   0  0  0  0  0  0  0  0  0  0  0  0
  -29.6914  -20.3107   20.9565 C   0  0  0  0  0  0  0  0  0  0  0  0
  -22.3779   -4.7511   24.0539 C   0  0  0  0  0  0  0  0  0  0  0  0
  -23.9292  -10.7833   20.9187 C   0  0  0  0  0  0  0  0  0  0  0  0
  -23.7535  -13.2705   21.4579 C   0  0  0  0  0  0  0  0  0  0  0  0
  -29.1592  -34.6545   22.8645 C   0  0  0  0  0  0  0  0  0  0  0  0
  -24.9636  -28.8027   19.8592 C   0  0  0  0  0  0  0  0  0  0  0  0
  -28.9682  -33.5952   21.9568 C   0  0  0  0  0  0  0  0  0  0  0  0
  -24.7649  -28.0000   20.9916 C   0  0  0  0  0  0  0  0  0  0  0  0
  -29.1251  -21.4569   20.3987 C   0  0  0  0  0  0  0  0  0  0  0  0
  -28.9557  -19.5340   21.8516 C   0  0  0  0  0  0  0  0  0  0  0  0
  -27.0873  -21.0497   21.6312 C   0  0  0  0  0  0  0  0  0  0  0  0
  -23.0565   -8.1348   20.9964 C   0  0  0  0  0  0  0  0  0  0  0  0
  -25.1043  -26.0155   19.6291 C   0  0  0  0  0  0  0  0  0  0  0  0
  -22.1882   -6.3465   22.2495 C   0  0  0  0  0  0  0  0  0  0  0  0
  -27.8230  -21.8264   20.7361 C   0  0  0  0  0  0  0  0  0  0  0  0
  -21.2953   -5.3505   24.6976 C   0  0  0  0  0  0  0  0  0  0  0  0
  -22.8243   -5.2491   22.8298 C   0  0  0  0  0  0  0  0  0  0  0  0
  -27.6537  -19.9035   22.1890 C   0  0  0  0  0  0  0  0  0  0  0  0
  -24.3807  -12.1511   20.8788 C   0  0  0  0  0  0  0  0  0  0  0  0
  -24.5722  -14.3261   21.1387 C   0  0  0  0  0  0  0  0  0  0  0  0
  -22.5395  -13.3491   22.2167 C   0  0  0  0  0  0  0  0  0  0  0  0
  -26.5676  -30.7941   21.7475 C   0  0  0  0  0  0  0  0  0  0  0  0
  -23.8187  -30.7558   23.4693 C   0  0  0  0  0  0  0  0  0  0  0  0
  -20.9424  -29.1172   24.2989 C   0  0  0  0  0  0  0  0  0  0  0  0
  -29.6608  -16.5679   20.6627 C   0  0  0  0  0  0  0  0  0  0  0  0
  -28.9696  -34.4708   24.3494 C   0  0  0  0  0  0  0  0  0  0  0  0
  -24.8605  -30.3000   19.9593 C   0  0  0  0  0  0  0  0  0  0  0  0
  -24.4762  -28.5951   22.3447 C   0  0  0  0  0  0  0  0  0  0  0  0
  -28.1579  -33.2295   24.7108 C   0  0  0  0  0  0  0  0  0  0  0  0
  -28.4745  -14.6138   17.9331 C   0  0  0  0  0  0  0  0  0  0  0  0
  -28.6521  -32.0204   23.9230 C   0  0  0  0  0  0  0  0  0  0  0  0
  -27.2564  -13.8870   18.5057 C   0  0  0  0  0  0  0  0  0  0  0  0
  -29.5846  -14.7593   18.9716 C   0  0  0  0  0  0  0  0  0  0  0  0
  -27.9494  -14.6586   20.8128 C   0  0  0  0  0  0  0  0  0  0  0  0
  -28.4814  -32.2374   22.4146 C   0  0  1  0  0  0  0  0  0  0  0  0
  -25.1136  -30.8234   21.3697 C   0  0  1  0  0  0  0  0  0  0  0  0
  -26.7816  -14.5373   19.8190 C   0  0  2  0  0  0  0  0  0  0  0  0
  -29.9286  -22.2746   19.4421 C   0  0  0  0  0  0  0  0  0  0  0  0
  -25.6915  -21.4677   21.9764 C   0  0  0  0  0  0  0  0  0  0  0  0
  -18.9129  -29.3173   25.7614 C   0  0  0  0  0  0  0  0  0  0  0  0
  -25.4996  -30.0005   25.9011 C   0  0  0  0  0  0  0  0  0  0  0  0
  -23.3909  -29.2973   27.0532 C   0  0  0  0  0  0  0  0  0  0  0  0
  -23.6974  -31.6732   26.3575 C   0  0  0  0  0  0  0  0  0  0  0  0
  -19.1181  -29.0965   21.9686 C   0  0  0  0  0  0  0  0  0  0  0  0
  -29.6035  -18.3146   22.4248 C   0  0  0  0  0  0  0  0  0  0  0  0
  -26.0339  -24.1342   18.5100 C   0  0  0  0  0  0  0  0  0  1  0  0
  -26.5641  -22.7872   18.9619 C   0  0  0  0  0  0  0  0  0  0  0  0
  -23.2742  -29.9104   24.5952 C   0  0  1  0  0  0  0  0  0  0  0  0
  -19.5028  -29.5907   24.3865 C   0  0  2  0  0  0  0  0  0  0  0  0
  -23.9729  -30.2089   25.9518 C   0  0  0  0  0  0  0  0  0  0  0  0
  -25.5105  -12.4661   20.2400 N   0  0  0  0  0  0  0  0  0  0  0  0
  -25.5998  -13.7955   20.4157 N   0  0  0  0  0  0  0  0  0  0  0  0
  -24.3913  -30.0641   22.3924 N   0  0  0  0  0  0  0  0  0  0  0  0
  -29.0689  -15.3841   20.1922 N   0  0  0  0  0  0  0  0  0  0  0  0
  -24.5062  -15.6471   21.4087 N   0  0  0  0  0  0  0  0  0  0  0  0
  -21.8215  -12.1689   22.4526 N   0  0  0  0  0  0  0  0  0  0  0  0
  -27.1011  -32.0375   22.0283 N   0  0  0  0  0  0  0  0  0  0  0  0
  -21.8313  -30.1255   24.6062 N   0  0  0  0  0  0  0  0  0  0  0  0
  -29.1074  -17.0975   21.8220 N   0  0  0  0  0  0  0  0  0  0  0  0
  -18.6656  -28.8944   23.3691 N   0  3  0  0  0  0  0  0  0  0  0  0
  -22.0958  -14.4363   22.6579 O   0  0  0  0  0  0  0  0  0  0  0  0
  -27.1611  -29.7226   21.7830 O   0  0  0  0  0  0  0  0  0  0  0  0
  -23.7326  -31.9843   23.5392 O   0  0  0  0  0  0  0  0  0  0  0  0
  -21.2477  -27.9668   23.9925 O   0  0  0  0  0  0  0  0  0  0  0  0
  -30.6084  -17.1154   20.0890 O   0  0  0  0  0  0  0  0  0  0  0  0
  -22.6308   -6.8425   21.0347 O   0  0  0  0  0  0  0  0  0  0  0  0
  -25.1765  -24.6608   19.5219 O   0  0  0  0  0  0  0  0  0  1  0  0
  -27.2697  -22.9525   20.1859 O   0  0  0  0  0  0  0  0  0  0  0  0
  -20.8673   -4.8734   25.8738 F   0  0  0  0  0  0  0  0  0  0  0  0
  -23.8656   -4.6697   22.2167 F   0  0  0  0  0  0  0  0  0  0  0  0
  -26.7430  -18.9369   23.3012 Cl  0  0  0  0  0  0  0  0  0  0  0  0
  1  2  1  0  0  0  0
  1  5  2  0  0  0  0
  2  6  2  0  0  0  0
  3  8  2  0  0  0  0
  3 16  1  0  0  0  0
  4  9  1  0  0  0  0
  4 16  2  0  0  0  0
  5 18  1  0  0  0  0
  6 20  1  0  0  0  0
  7 10  2  0  0  0  0
  7 19  1  0  0  0  0
  8 25  1  0  0  0  0
  9 25  2  0  0  0  0
 10 26  1  0  0  0  0
 11 12  2  0  0  0  0
 11 27  1  0  0  0  0
 12 29  1  0  0  0  0
 13 21  1  0  0  0  0
 13 26  2  0  0  0  0
 14 22  2  0  0  0  0
 14 23  1  0  0  0  0
 15 29  2  0  0  0  0
 15 30  1  0  0  0  0
 16 32  1  0  0  0  0
 17 32  1  0  0  0  0
 17 33  2  0  0  0  0
 17 34  1  0  0  0  0
 18 20  2  0  0  0  0
 18 39  1  0  0  0  0
 19 21  2  0  0  0  0
 19 40  1  0  0  0  0
 20 48  1  0  0  0  0
 21 41  1  0  0  0  0
 22 28  1  0  0  0  0
 22 51  1  0  0  0  0
 23 31  2  0  0  0  0
 23 58  1  0  0  0  0
 24 28  2  0  0  0  0
 24 31  1  0  0  0  0
 24 52  1  0  0  0  0
 25 79  1  0  0  0  0
 26 80  1  0  0  0  0
 27 30  2  0  0  0  0
 27 79  1  0  0  0  0
 28 81  1  0  0  0  0
 29 82  1  0  0  0  0
 30 83  1  0  0  0  0
 31 84  1  0  0  0  0
 32 64  2  0  0  0  0
 33 65  1  0  0  0  0
 33 68  1  0  0  0  0
 34 69  1  0  0  0  0
 34 74  2  0  0  0  0
 35 49  1  0  0  0  0
 35 70  1  0  0  0  0
 35 75  2  0  0  0  0
 36 61  1  0  0  0  0
 36 66  1  0  0  0  0
 36 76  2  0  0  0  0
 37 62  1  0  0  0  0
 37 71  1  0  0  0  0
 37 77  2  0  0  0  0
 38 67  1  0  0  0  0
 38 72  1  0  0  0  0
 38 78  2  0  0  0  0
 39 42  1  0  0  0  0
 40 49  1  0  0  0  0
 41 66  1  0  0  0  0
 42 44  1  0  0  0  0
 43 45  1  0  0  0  0
 43 46  1  0  0  0  0
 44 48  1  0  0  0  0
 45 50  1  0  0  0  0
 46 67  1  0  0  0  0
 47 50  1  0  0  0  0
 47 67  1  0  0  0  0
 48 70  1  0  0  0  0
 49 66  1  0  0  0  0
 50 65  1  0  0  0  0
 53 62  1  0  0  0  0
 54 63  1  0  0  0  0
 55 63  1  0  0  0  0
 56 63  1  0  0  0  0
 57 73  1  0  0  0  0
 58 72  1  0  0  0  0
 59 60  1  0  0  0  0
 59 80  1  0  0  0  0
 60 81  1  0  0  0  0
 61 63  1  0  0  0  0
 61 71  1  0  0  0  0
 62 73  1  0  0  0  0
 64 65  1  0  0  0  0
M  CHG  1  73   1
M  ISO  4  38 100  59 101  72 100  80 101
M  END
> <Batch ID>
0028

> <Smiles>
CNC(C)C(=O)NC(C(=O)N1Cc2cc([101O:1][101CH2:1]COc3c(C)cc(C[100NH:0][100C:0](=O)N4CCCC(n5nc(-c6ccc(Oc7ccc(F)cc7F)cc6)c(C(N)=O)c5N)C4)c(Cl)c3C)ccc2CC1C(=O)NC1CCCc2ccccc21)C(C)(C)C

> <Shape>
0.313

> <Color>
0.120

> <Negative vol penalty>
0.000

$$$$

  -OEChem-04052316333D

 87 96  0     1  0  0  0  0  0999 V2000
  -16.7772  -30.4338   23.3346 C   0  0  0  0  0  0  0  0  0  0  0  0
  -18.0030  -31.0434   23.0872 C   0  0  0  0  0  0  0  0  0  0  0  0
  -27.0562  -12.7866   20.5763 C   0  0  0  0  0  0  0  0  0  0  0  0
  -25.0328  -13.3154   21.7861 C   0  0  0  0  0  0  0  0  0  0  0  0
  -16.7132  -29.0555   23.5351 C   0  0  0  0  0  0  0  0  0  0  0  0
  -19.1658  -30.2752   23.0414 C   0  0  0  0  0  0  0  0  0  0  0  0
  -25.5246  -29.9627   19.7575 C   0  0  0  0  0  0  0  0  0  0  0  0
  -26.3858  -11.7669   19.9008 C   0  0  0  0  0  0  0  0  0  0  0  0
  -24.3624  -12.2958   21.1105 C   0  0  0  0  0  0  0  0  0  0  0  0
  -26.8841  -29.8629   20.0499 C   0  0  0  0  0  0  0  0  0  0  0  0
  -24.1224   -8.9280   21.2881 C   0  0  0  0  0  0  0  0  0  0  0  0
  -23.3079   -8.0799   22.0384 C   0  0  0  0  0  0  0  0  0  0  0  0
  -26.6423  -27.4795   20.3325 C   0  0  0  0  0  0  0  0  0  0  0  0
  -21.3974   -8.7471   20.7186 C   0  0  0  0  0  0  0  0  0  0  0  0
  -26.3797  -13.5609   21.5190 C   0  0  0  0  0  0  0  0  0  0  0  0
  -28.2025  -14.4844   23.0462 C   0  0  0  0  0  0  0  0  0  0  0  0
  -17.8746  -28.2687   23.4821 C   0  0  0  0  0  0  0  0  0  0  0  0
  -24.7102  -28.8211   19.7610 C   0  0  0  0  0  0  0  0  0  0  0  0
  -19.1175  -28.8853   23.2427 C   0  0  0  0  0  0  0  0  0  0  0  0
  -25.2733  -27.5671   20.0373 C   0  0  0  0  0  0  0  0  0  0  0  0
  -32.7193  -24.4619   19.8580 C   0  0  0  0  0  0  0  0  0  0  0  0
  -25.0390  -11.5215   20.1678 C   0  0  0  0  0  0  0  0  0  0  0  0
  -27.4426  -28.6216   20.3404 C   0  0  0  0  0  0  0  0  0  0  0  0
  -23.5743   -9.6858   20.2531 C   0  0  0  0  0  0  0  0  0  0  0  0
  -21.9454   -7.9894   21.7536 C   0  0  0  0  0  0  0  0  0  0  0  0
  -22.2119   -9.5953   19.9683 C   0  0  0  0  0  0  0  0  0  0  0  0
  -27.0718  -14.6140   22.2176 C   0  0  0  0  0  0  0  0  0  0  0  0
  -34.0904  -24.2432   20.0910 C   0  0  0  0  0  0  0  0  0  0  0  0
  -32.2835  -23.3040   19.2613 C   0  0  0  0  0  0  0  0  0  0  0  0
  -28.4706  -15.7650   23.4641 C   0  0  0  0  0  0  0  0  0  0  0  0
  -28.9443  -13.3113   23.4058 C   0  0  0  0  0  0  0  0  0  0  0  0
  -22.1785  -27.8771   21.4352 C   0  0  0  0  0  0  0  0  0  0  0  0
  -22.1965  -25.4071   19.3326 C   0  0  0  0  0  0  0  0  0  0  0  0
  -23.9705  -23.4698   17.1540 C   0  0  0  0  0  0  0  0  0  0  0  0
  -27.2686  -21.1492   21.1368 C   0  0  0  0  0  0  0  0  0  0  0  0
  -17.7619  -26.7891   23.7521 C   0  0  0  0  0  0  0  0  0  0  0  0
  -23.2508  -28.9419   19.4172 C   0  0  0  0  0  0  0  0  0  0  0  0
  -24.4462  -26.3084   20.0342 C   0  0  0  0  0  0  0  0  0  0  0  0
  -18.9904  -25.9951   23.3157 C   0  0  0  0  0  0  0  0  0  0  0  0
  -26.3147  -19.9437   24.3483 C   0  0  0  0  0  0  0  0  0  0  0  0
  -30.7882  -25.3924   21.2056 C   0  0  0  0  0  0  0  0  0  0  0  0
  -31.3311  -26.3620   18.9243 C   0  0  0  0  0  0  0  0  0  0  0  0
  -20.2670  -26.6870   23.7830 C   0  0  0  0  0  0  0  0  0  0  0  0
  -26.5026  -18.4294   24.2412 C   0  0  0  0  0  0  0  0  0  0  0  0
  -29.9791  -26.6435   21.5376 C   0  0  0  0  0  0  0  0  0  0  0  0
  -30.5196  -27.6082   19.2685 C   0  0  0  0  0  0  0  0  0  0  0  0
  -25.8034  -20.5429   23.0400 C   0  0  0  0  0  0  0  0  0  0  0  0
  -26.7983  -18.6982   21.7434 C   0  0  0  0  0  0  0  0  0  0  0  0
  -31.9031  -25.6978   20.1894 C   0  0  0  0  0  0  0  0  0  0  0  0
  -20.3977  -28.0824   23.1608 C   0  0  1  0  0  0  0  0  0  0  0  0
  -22.4129  -27.7855   19.9539 C   0  0  1  0  0  0  0  0  0  0  0  0
  -27.3658  -18.0564   23.0209 C   0  0  2  0  0  0  0  0  0  0  0  0
  -29.4169  -27.3025   20.2793 C   0  0  0  0  0  0  0  0  0  1  0  0
  -35.0592  -25.1628   20.7130 C   0  0  0  0  0  0  0  0  0  0  0  0
  -23.7219  -21.5047   15.6132 C   0  0  0  0  0  0  0  0  0  0  0  0
  -22.2021  -23.5259   21.7349 C   0  0  0  0  0  0  0  0  0  0  0  0
  -22.9047  -21.6783   20.1983 C   0  0  0  0  0  0  0  0  0  0  0  0
  -20.7108  -22.8156   19.8571 C   0  0  0  0  0  0  0  0  0  0  0  0
  -33.4301  -21.1615   18.6209 C   0  0  0  0  0  0  0  0  0  0  0  0
  -24.7136  -25.0839   14.7872 C   0  0  0  0  0  0  0  0  0  0  0  0
  -30.9511  -22.9023   18.7720 C   0  0  0  0  0  0  0  0  0  0  0  0
  -30.1610  -21.9665   19.7193 C   0  0  0  0  0  0  0  0  0  0  0  0
  -28.7688  -21.5976   19.2114 C   0  0  0  0  0  0  0  0  0  0  0  0
  -22.8458  -24.0449   19.2891 C   0  0  1  0  0  0  0  0  0  0  0  0
  -23.6741  -23.0199   15.7348 C   0  0  2  0  0  0  0  0  0  0  0  0
  -22.1813  -23.0400   20.2719 C   0  0  0  0  0  0  0  0  0  0  0  0
  -26.6504  -15.8772   22.1143 N   0  0  0  0  0  0  0  0  0  0  0  0
  -34.4985  -23.0409   19.6764 N   0  0  0  0  0  0  0  0  0  0  0  0
  -33.3773  -22.4937   19.1769 N   0  0  0  0  0  0  0  0  0  0  0  0
  -27.5209  -16.5531   22.8834 N   0  0  0  0  0  0  0  0  0  0  0  0
  -23.0230  -26.4791   19.6982 N   0  0  0  0  0  0  0  0  0  0  0  0
  -26.6670  -20.1526   21.9229 N   0  0  0  0  0  0  0  0  0  0  0  0
  -29.4235  -16.2825   24.2681 N   0  0  0  0  0  0  0  0  0  0  0  0
  -28.5561  -12.5997   24.5491 N   0  0  0  0  0  0  0  0  0  0  0  0
  -20.8468  -27.9839   21.7886 N   0  0  0  0  0  0  0  0  0  0  0  0
  -22.8164  -23.6232   17.8928 N   0  0  0  0  0  0  0  0  0  0  0  0
  -28.0767  -20.6934   20.1025 N   0  0  0  0  0  0  0  0  0  0  0  0
  -24.6697  -23.5989   14.7891 N   0  3  0  0  0  0  0  0  0  0  0  0
  -29.9326  -12.9154   22.7424 O   0  0  0  0  0  0  0  0  0  0  0  0
  -23.1348  -27.8513   22.2010 O   0  0  0  0  0  0  0  0  0  0  0  0
  -21.0018  -25.5170   19.0457 O   0  0  0  0  0  0  0  0  0  0  0  0
  -25.1120  -23.6621   17.5671 O   0  0  0  0  0  0  0  0  0  0  0  0
  -27.1024  -22.3559   21.3449 O   0  0  0  0  0  0  0  0  0  0  0  0
  -24.3844  -10.5267   19.5086 O   0  0  0  0  0  0  0  0  0  0  0  0
  -28.7692  -28.5215   20.6269 O   0  0  0  0  0  0  0  0  0  1  0  0
  -21.1637   -7.1738   22.4732 F   0  0  0  0  0  0  0  0  0  0  0  0
  -21.6799  -10.3199   18.9745 F   0  0  0  0  0  0  0  0  0  0  0  0
  1  2  1  0  0  0  0
  1  5  2  0  0  0  0
  2  6  2  0  0  0  0
  3  8  2  0  0  0  0
  3 15  1  0  0  0  0
  4  9  1  0  0  0  0
  4 15  2  0  0  0  0
  5 17  1  0  0  0  0
  6 19  1  0  0  0  0
  7 10  2  0  0  0  0
  7 18  1  0  0  0  0
  8 22  1  0  0  0  0
  9 22  2  0  0  0  0
 10 23  1  0  0  0  0
 11 12  2  0  0  0  0
 11 24  1  0  0  0  0
 12 25  1  0  0  0  0
 13 20  1  0  0  0  0
 13 23  2  0  0  0  0
 14 25  2  0  0  0  0
 14 26  1  0  0  0  0
 15 27  1  0  0  0  0
 16 27  1  0  0  0  0
 16 30  2  0  0  0  0
 16 31  1  0  0  0  0
 17 19  2  0  0  0  0
 17 36  1  0  0  0  0
 18 20  2  0  0  0  0
 18 37  1  0  0  0  0
 19 50  1  0  0  0  0
 20 38  1  0  0  0  0
 21 28  1  0  0  0  0
 21 29  2  0  0  0  0
 21 49  1  0  0  0  0
 22 84  1  0  0  0  0
 23 85  1  0  0  0  0
 24 26  2  0  0  0  0
 24 84  1  0  0  0  0
 25 86  1  0  0  0  0
 26 87  1  0  0  0  0
 27 67  2  0  0  0  0
 28 54  1  0  0  0  0
 28 68  2  0  0  0  0
 29 61  1  0  0  0  0
 29 69  1  0  0  0  0
 30 70  1  0  0  0  0
 30 73  1  0  0  0  0
 31 74  1  0  0  0  0
 31 79  2  0  0  0  0
 32 51  1  0  0  0  0
 32 75  1  0  0  0  0
 32 80  2  0  0  0  0
 33 64  1  0  0  0  0
 33 71  1  0  0  0  0
 33 81  2  0  0  0  0
 34 65  1  0  0  0  0
 34 76  1  0  0  0  0
 34 82  2  0  0  0  0
 35 72  1  0  0  0  0
 35 77  1  0  0  0  0
 35 83  2  0  0  0  0
 36 39  1  0  0  0  0
 37 51  1  0  0  0  0
 38 71  1  0  0  0  0
 39 43  1  0  0  0  0
 40 44  1  0  0  0  0
 40 47  1  0  0  0  0
 41 45  1  0  0  0  0
 41 49  1  0  0  0  0
 42 46  1  0  0  0  0
 42 49  1  0  0  0  0
 43 50  1  0  0  0  0
 44 52  1  0  0  0  0
 45 53  1  0  0  0  0
 46 53  1  0  0  0  0
 47 72  1  0  0  0  0
 48 52  1  0  0  0  0
 48 72  1  0  0  0  0
 50 75  1  0  0  0  0
 51 71  1  0  0  0  0
 52 70  1  0  0  0  0
 53 85  1  0  0  0  0
 55 65  1  0  0  0  0
 56 66  1  0  0  0  0
 57 66  1  0  0  0  0
 58 66  1  0  0  0  0
 59 69  1  0  0  0  0
 60 78  1  0  0  0  0
 61 62  1  0  0  0  0
 62 63  1  0  0  0  0
 63 77  1  0  0  0  0
 64 66  1  0  0  0  0
 64 76  1  0  0  0  0
 65 78  1  0  0  0  0
 67 70  1  0  0  0  0
 68 69  1  0  0  0  0
M  CHG  1  78   1
M  ISO  4  35 100  53 101  77 100  85 101
M  END
> <Batch ID>
0028

> <Smiles>
CNC(C)C(=O)NC(C(=O)N1Cc2cc([101O:1][101CH:1]3CCC(c4c(C)nn(C)c4CCC[100NH:0][100C:0](=O)N4CCCC(n5nc(-c6ccc(Oc7ccc(F)cc7F)cc6)c(C(N)=O)c5N)C4)CC3)ccc2CC1C(=O)NC1CCCc2ccccc21)C(C)(C)C

> <Shape>
0.242

> <Color>
0.073

> <Negative vol penalty>
0.000

$$$$

  -OEChem-04052316333D

 91100  0     1  0  0  0  0  0999 V2000
  -43.9296  -24.6571   18.0734 C   0  0  0  0  0  0  0  0  0  0  0  0
  -43.3053  -23.4605   18.4109 C   0  0  0  0  0  0  0  0  0  0  0  0
  -23.0962   -9.8646   19.9401 C   0  0  0  0  0  0  0  0  0  0  0  0
  -23.7110   -9.9558   22.2748 C   0  0  0  0  0  0  0  0  0  0  0  0
  -43.2235  -25.8568   18.1522 C   0  0  0  0  0  0  0  0  0  0  0  0
  -41.9749  -23.4630   18.8284 C   0  0  0  0  0  0  0  0  0  0  0  0
  -39.2475  -19.7953   16.6480 C   0  0  0  0  0  0  0  0  0  0  0  0
  -22.3417   -8.7171   20.1836 C   0  0  0  0  0  0  0  0  0  0  0  0
  -22.9564   -8.8082   22.5183 C   0  0  0  0  0  0  0  0  0  0  0  0
  -39.3963  -18.5047   17.1540 C   0  0  0  0  0  0  0  0  0  0  0  0
  -23.2917   -5.4704   22.0977 C   0  0  0  0  0  0  0  0  0  0  0  0
  -23.8641   -4.4740   22.8884 C   0  0  0  0  0  0  0  0  0  0  0  0
  -33.9364  -13.9617   18.9607 C   0  0  0  0  0  0  0  0  0  0  0  0
  -37.3537  -18.7682   18.4101 C   0  0  0  0  0  0  0  0  0  0  0  0
  -36.4664  -14.3079   20.1818 C   0  0  0  0  0  0  0  0  0  0  0  0
  -22.0587   -4.6983   24.4781 C   0  0  0  0  0  0  0  0  0  0  0  0
  -35.0987  -14.0175   18.1661 C   0  0  0  0  0  0  0  0  0  0  0  0
  -23.7809  -10.4840   20.9857 C   0  0  0  0  0  0  0  0  0  0  0  0
  -24.1219  -13.0052   20.7984 C   0  0  0  0  0  0  0  0  0  0  0  0
  -41.8809  -25.8729   18.5617 C   0  0  0  0  0  0  0  0  0  0  0  0
  -38.1546  -20.5874   17.0284 C   0  0  0  0  0  0  0  0  0  0  0  0
  -41.2506  -24.6642   18.9141 C   0  0  0  0  0  0  0  0  0  0  0  0
  -37.1920  -20.0676   17.9056 C   0  0  0  0  0  0  0  0  0  0  0  0
  -34.0532  -14.0793   20.3504 C   0  0  0  0  0  0  0  0  0  0  0  0
  -35.2997  -14.2497   20.9495 C   0  0  0  0  0  0  0  0  0  0  0  0
  -35.3484  -13.9360   16.7676 C   0  0  0  0  0  0  0  0  0  0  0  0
  -36.3344  -14.1890   18.7937 C   0  0  0  0  0  0  0  0  0  0  0  0
  -22.2717   -8.1889   21.4727 C   0  0  0  0  0  0  0  0  0  0  0  0
  -38.4509  -17.9920   18.0375 C   0  0  0  0  0  0  0  0  0  0  0  0
  -22.1028   -6.0808   22.4972 C   0  0  0  0  0  0  0  0  0  0  0  0
  -23.2476   -4.0880   24.0786 C   0  0  0  0  0  0  0  0  0  0  0  0
  -21.4863   -5.6947   23.6874 C   0  0  0  0  0  0  0  0  0  0  0  0
  -24.5610  -11.6691   20.7347 C   0  0  0  0  0  0  0  0  0  0  0  0
  -36.7055  -14.0576   16.5767 C   0  0  0  0  0  0  0  0  0  0  0  0
  -25.2324  -13.7472   20.4779 C   0  0  0  0  0  0  0  0  0  0  0  0
  -22.8261  -13.5287   21.1187 C   0  0  0  0  0  0  0  0  0  0  0  0
  -37.8135  -23.3584   18.5480 C   0  0  0  0  0  0  0  0  0  0  0  0
  -34.6912  -22.9580   17.7650 C   0  0  0  0  0  0  0  0  0  0  0  0
  -32.1613  -20.8196   16.9440 C   0  0  0  0  0  0  0  0  0  0  0  0
  -30.4659  -14.9302   20.8921 C   0  0  0  0  0  0  0  0  0  0  0  0
  -41.1729  -27.1997   18.6766 C   0  0  0  0  0  0  0  0  0  0  0  0
  -37.9944  -21.9677   16.4529 C   0  0  0  0  0  0  0  0  0  0  0  0
  -35.9898  -20.8698   18.3294 C   0  0  0  0  0  0  0  0  0  0  0  0
  -39.6544  -27.0737   18.7691 C   0  0  0  0  0  0  0  0  0  0  0  0
  -29.7065  -12.3555   18.5973 C   0  0  0  0  0  0  0  0  0  0  0  0
  -39.2685  -25.9956   19.7768 C   0  0  0  0  0  0  0  0  0  0  0  0
  -28.2551  -12.0451   18.9602 C   0  0  0  0  0  0  0  0  0  0  0  0
  -30.5635  -12.6246   19.8356 C   0  0  0  0  0  0  0  0  0  0  0  0
  -28.5618  -13.3595   21.0909 C   0  0  0  0  0  0  0  0  0  0  0  0
  -39.8013  -24.6232   19.3477 C   0  0  1  0  0  0  0  0  0  0  0  0
  -37.1149  -22.8737   17.3091 C   0  0  1  0  0  0  0  0  0  0  0  0
  -27.6661  -13.1443   19.8613 C   0  0  2  0  0  0  0  0  0  0  0  0
  -35.4191  -14.3751   22.4349 C   0  0  0  0  0  0  0  0  0  0  0  0
  -34.3333  -13.7549   15.7086 C   0  0  0  0  0  0  0  0  0  0  0  0
  -37.4958  -14.0429   15.3273 C   0  0  0  0  0  0  0  0  0  0  0  0
  -29.7121  -20.7827   16.3989 C   0  0  0  0  0  0  0  0  0  0  0  0
  -34.7081  -18.4443   21.1984 C   0  0  0  0  0  0  0  0  0  0  0  0
  -33.5351  -19.0622   23.3206 C   0  0  0  0  0  0  0  0  0  0  0  0
  -34.0305  -23.3442   20.7187 C   0  0  0  0  0  0  0  0  0  0  0  0
  -31.7678  -22.3719   20.2681 C   0  0  0  0  0  0  0  0  0  0  0  0
  -32.4619  -24.4863   19.1409 C   0  0  0  0  0  0  0  0  0  0  0  0
  -32.6592  -19.6993   14.2503 C   0  0  0  0  0  0  0  0  0  0  0  0
  -32.8097  -14.0194   21.1783 C   0  0  0  0  0  0  0  0  0  0  0  0
  -32.7127  -17.0784   22.0160 C   0  0  0  0  0  0  0  0  0  0  0  0
  -38.7732  -14.3754   18.0415 C   0  0  0  0  0  0  0  0  0  0  0  0
  -32.4300  -16.4045   20.6750 C   0  0  0  0  0  0  0  0  0  0  0  0
  -39.2603  -15.7806   17.7053 C   0  0  0  0  0  0  0  0  0  1  0  0
  -33.5013  -22.2977   18.4186 C   0  0  1  0  0  0  0  0  0  0  0  0
  -31.1230  -20.8653   15.8376 C   0  0  2  0  0  0  0  0  0  0  0  0
  -33.3587  -18.4748   21.9176 C   0  0  0  0  0  0  0  0  0  0  0  0
  -32.9640  -23.1103   19.6303 C   0  0  0  0  0  0  0  0  0  0  0  0
  -25.8499  -11.5654   20.3999 N   0  0  0  0  0  0  0  0  0  0  0  0
  -37.2917  -14.2095   17.8046 N   0  0  0  0  0  0  0  0  0  0  0  0
  -26.2302  -12.8456   20.2503 N   0  0  0  0  0  0  0  0  0  0  0  0
  -35.8809  -22.2164   17.7443 N   0  0  0  0  0  0  0  0  0  0  0  0
  -29.9420  -13.6447   20.6910 N   0  0  0  0  0  0  0  0  0  0  0  0
  -25.4429  -15.0764   20.3713 N   0  0  0  0  0  0  0  0  0  0  0  0
  -21.7979  -12.6266   21.4239 N   0  0  0  0  0  0  0  0  0  0  0  0
  -38.9745  -24.0653   18.2991 N   0  0  0  0  0  0  0  0  0  0  0  0
  -32.5204  -22.0843   17.3600 N   0  0  0  0  0  0  0  0  0  0  0  0
  -31.8601  -15.0731   20.8259 N   0  0  0  0  0  0  0  0  0  0  0  0
  -31.3208  -19.7285   14.8944 N   0  3  0  0  0  0  0  0  0  0  0  0
  -22.5830  -14.7593   21.1177 O   0  0  0  0  0  0  0  0  0  0  0  0
  -37.3340  -23.1105   19.6481 O   0  0  0  0  0  0  0  0  0  0  0  0
  -34.5676  -24.0872   17.2842 O   0  0  0  0  0  0  0  0  0  0  0  0
  -32.6064  -19.7673   17.3968 O   0  0  0  0  0  0  0  0  0  0  0  0
  -29.7298  -15.8974   21.1262 O   0  0  0  0  0  0  0  0  0  0  0  0
  -21.5353   -7.0692   21.7107 O   0  0  0  0  0  0  0  0  0  0  0  0
  -38.5941  -16.7329   18.5334 O   0  0  0  0  0  0  0  0  0  1  0  0
  -23.7966   -3.1301   24.8370 F   0  0  0  0  0  0  0  0  0  0  0  0
  -20.3433   -6.2766   24.0758 F   0  0  0  0  0  0  0  0  0  0  0  0
  1  2  1  0  0  0  0
  1  5  2  0  0  0  0
  2  6  2  0  0  0  0
  3  8  2  0  0  0  0
  3 18  1  0  0  0  0
  4  9  1  0  0  0  0
  4 18  2  0  0  0  0
  5 20  1  0  0  0  0
  6 22  1  0  0  0  0
  7 10  2  0  0  0  0
  7 21  1  0  0  0  0
  8 28  1  0  0  0  0
  9 28  2  0  0  0  0
 10 29  1  0  0  0  0
 11 12  2  0  0  0  0
 11 30  1  0  0  0  0
 12 31  1  0  0  0  0
 13 17  1  0  0  0  0
 13 24  2  0  0  0  0
 14 23  1  0  0  0  0
 14 29  2  0  0  0  0
 15 25  2  0  0  0  0
 15 27  1  0  0  0  0
 16 31  2  0  0  0  0
 16 32  1  0  0  0  0
 17 26  1  0  0  0  0
 17 27  2  0  0  0  0
 18 33  1  0  0  0  0
 19 33  1  0  0  0  0
 19 35  2  0  0  0  0
 19 36  1  0  0  0  0
 20 22  2  0  0  0  0
 20 41  1  0  0  0  0
 21 23  2  0  0  0  0
 21 42  1  0  0  0  0
 22 50  1  0  0  0  0
 23 43  1  0  0  0  0
 24 25  1  0  0  0  0
 24 63  1  0  0  0  0
 25 53  1  0  0  0  0
 26 34  2  0  0  0  0
 26 54  1  0  0  0  0
 27 73  1  0  0  0  0
 28 88  1  0  0  0  0
 29 89  1  0  0  0  0
 30 32  2  0  0  0  0
 30 88  1  0  0  0  0
 31 90  1  0  0  0  0
 32 91  1  0  0  0  0
 33 72  2  0  0  0  0
 34 55  1  0  0  0  0
 34 73  1  0  0  0  0
 35 74  1  0  0  0  0
 35 77  1  0  0  0  0
 36 78  1  0  0  0  0
 36 83  2  0  0  0  0
 37 51  1  0  0  0  0
 37 79  1  0  0  0  0
 37 84  2  0  0  0  0
 38 68  1  0  0  0  0
 38 75  1  0  0  0  0
 38 85  2  0  0  0  0
 39 69  1  0  0  0  0
 39 80  1  0  0  0  0
 39 86  2  0  0  0  0
 40 76  1  0  0  0  0
 40 81  1  0  0  0  0
 40 87  2  0  0  0  0
 41 44  1  0  0  0  0
 42 51  1  0  0  0  0
 43 75  1  0  0  0  0
 44 46  1  0  0  0  0
 45 47  1  0  0  0  0
 45 48  1  0  0  0  0
 46 50  1  0  0  0  0
 47 52  1  0  0  0  0
 48 76  1  0  0  0  0
 49 52  1  0  0  0  0
 49 76  1  0  0  0  0
 50 79  1  0  0  0  0
 51 75  1  0  0  0  0
 52 74  1  0  0  0  0
 56 69  1  0  0  0  0
 57 70  1  0  0  0  0
 58 70  1  0  0  0  0
 59 71  1  0  0  0  0
 60 71  1  0  0  0  0
 61 71  1  0  0  0  0
 62 82  1  0  0  0  0
 63 81  1  0  0  0  0
 64 66  1  0  0  0  0
 64 70  1  0  0  0  0
 65 67  1  0  0  0  0
 65 73  1  0  0  0  0
 66 81  1  0  0  0  0
 67 89  1  0  0  0  0
 68 71  1  0  0  0  0
 68 80  1  0  0  0  0
 69 82  1  0  0  0  0
 72 74  1  0  0  0  0
M  CHG  1  82   1
M  ISO  4  40 100  67 101  81 100  89 101
M  END
> <Batch ID>
0028

> <Smiles>
CNC(C)C(=O)NC(C(=O)N1Cc2cc([101O:1][101CH2:1]Cn3c(C)c(C)c4cc(C[100N:0](CCC(C)C)[100C:0](=O)N5CCCC(n6nc(-c7ccc(Oc8ccc(F)cc8F)cc7)c(C(N)=O)c6N)C5)c(C)cc43)ccc2CC1C(=O)NC1CCCc2ccccc21)C(C)(C)C

> <Shape>
0.160

> <Color>
0.180

> <Negative vol penalty>
0.000

$$$$

  -OEChem-04052316333D

 85 93  0     1  0  0  0  0  0999 V2000
  -24.9173  -34.5824   23.9505 C   0  0  0  0  0  0  0  0  0  0  0  0
  -25.6111  -33.4622   23.5043 C   0  0  0  0  0  0  0  0  0  0  0  0
  -23.0723   -9.8695   19.9475 C   0  0  0  0  0  0  0  0  0  0  0  0
  -23.8357   -9.8816   22.2397 C   0  0  0  0  0  0  0  0  0  0  0  0
  -24.2580  -34.5493   25.1785 C   0  0  0  0  0  0  0  0  0  0  0  0
  -25.6468  -32.3083   24.2865 C   0  0  0  0  0  0  0  0  0  0  0  0
  -25.7084  -26.5152   22.3011 C   0  0  0  0  0  0  0  0  0  0  0  0
  -22.3281   -8.7174   20.2014 C   0  0  0  0  0  0  0  0  0  0  0  0
  -23.0915   -8.7295   22.4936 C   0  0  0  0  0  0  0  0  0  0  0  0
  -26.7412  -25.5958   22.1225 C   0  0  0  0  0  0  0  0  0  0  0  0
  -19.8638   -7.9351   23.1031 C   0  0  0  0  0  0  0  0  0  0  0  0
  -19.1087   -7.8984   24.2752 C   0  0  0  0  0  0  0  0  0  0  0  0
  -29.3743  -18.8911   22.1502 C   0  0  0  0  0  0  0  0  0  0  0  0
  -26.2712  -24.6553   24.2936 C   0  0  0  0  0  0  0  0  0  0  0  0
  -20.3501   -5.9620   25.0144 C   0  0  0  0  0  0  0  0  0  0  0  0
  -23.8262  -10.4516   20.9667 C   0  0  0  0  0  0  0  0  0  0  0  0
  -28.5568  -19.7307   22.9066 C   0  0  0  0  0  0  0  0  0  0  0  0
  -24.1693  -12.9762   20.8400 C   0  0  0  0  0  0  0  0  0  0  0  0
  -24.2775  -33.3912   25.9717 C   0  0  0  0  0  0  0  0  0  0  0  0
  -24.9551  -26.5186   23.4839 C   0  0  0  0  0  0  0  0  0  0  0  0
  -24.9882  -32.2601   25.5269 C   0  0  0  0  0  0  0  0  0  0  0  0
  -25.2278  -25.5741   24.4837 C   0  0  0  0  0  0  0  0  0  0  0  0
  -29.9471  -17.7623   22.7362 C   0  0  0  0  0  0  0  0  0  0  0  0
  -22.3377   -8.1474   21.4745 C   0  0  0  0  0  0  0  0  0  0  0  0
  -27.0246  -24.6675   23.1200 C   0  0  0  0  0  0  0  0  0  0  0  0
  -20.8621   -6.9851   22.8865 C   0  0  0  0  0  0  0  0  0  0  0  0
  -19.3518   -6.9119   25.2309 C   0  0  0  0  0  0  0  0  0  0  0  0
  -21.1052   -5.9986   23.8422 C   0  0  0  0  0  0  0  0  0  0  0  0
  -28.3122  -19.4417   24.2491 C   0  0  0  0  0  0  0  0  0  0  0  0
  -29.7026  -17.4732   24.0787 C   0  0  0  0  0  0  0  0  0  0  0  0
  -28.8851  -18.3129   24.8352 C   0  0  0  0  0  0  0  0  0  0  0  0
  -24.5955  -11.6414   20.7049 C   0  0  0  0  0  0  0  0  0  0  0  0
  -25.2613  -13.7242   20.4732 C   0  0  0  0  0  0  0  0  0  0  0  0
  -27.9717  -20.9231   22.2250 C   0  0  0  0  0  0  0  0  0  0  0  0
  -22.8998  -13.4938   21.2597 C   0  0  0  0  0  0  0  0  0  0  0  0
  -24.4583  -28.6151   25.8209 C   0  0  0  0  0  0  0  0  0  0  0  0
  -22.3221  -26.3933   26.8319 C   0  0  0  0  0  0  0  0  0  0  0  0
  -21.3248  -23.1296   26.8477 C   0  0  0  0  0  0  0  0  0  0  0  0
  -30.7460  -14.7404   20.6506 C   0  0  0  0  0  0  0  0  0  0  0  0
  -23.5895  -33.4187   27.3136 C   0  0  0  0  0  0  0  0  0  0  0  0
  -23.8270  -27.4995   23.6500 C   0  0  0  0  0  0  0  0  0  0  0  0
  -24.4354  -25.5228   25.7636 C   0  0  0  0  0  0  0  0  0  0  0  0
  -23.3626  -32.0321   27.9103 C   0  0  0  0  0  0  0  0  0  0  0  0
  -29.6032  -12.3508   18.2714 C   0  0  0  0  0  0  0  0  0  0  0  0
  -24.6299  -31.1902   27.8013 C   0  0  0  0  0  0  0  0  0  0  0  0
  -28.1663  -12.0590   18.7073 C   0  0  0  0  0  0  0  0  0  0  0  0
  -30.5224  -12.5740   19.4703 C   0  0  0  0  0  0  0  0  0  0  0  0
  -28.6232  -13.3095   20.8581 C   0  0  0  0  0  0  0  0  0  0  0  0
  -25.0293  -30.9816   26.3355 C   0  0  1  0  0  0  0  0  0  0  0  0
  -23.4597  -27.7461   25.1100 C   0  0  1  0  0  0  0  0  0  0  0  0
  -27.6471  -13.1327   19.6824 C   0  0  2  0  0  0  0  0  0  0  0  0
  -19.5639  -21.6124   27.7938 C   0  0  0  0  0  0  0  0  0  0  0  0
  -23.7219  -26.4626   29.5422 C   0  0  0  0  0  0  0  0  0  0  0  0
  -22.5740  -24.3118   30.1120 C   0  0  0  0  0  0  0  0  0  0  0  0
  -21.2258  -26.3614   29.6595 C   0  0  0  0  0  0  0  0  0  0  0  0
  -20.3509  -22.3884   24.1531 C   0  0  0  0  0  0  0  0  0  0  0  0
  -30.8150  -16.8939   21.8822 C   0  0  0  0  0  0  0  0  0  0  0  0
  -28.9149  -21.9587   21.6266 C   0  0  0  0  0  0  0  0  0  0  0  0
  -28.3173  -23.3602   21.6114 C   0  0  0  0  0  0  0  0  0  1  0  0
  -22.3811  -25.1891   27.7404 C   0  0  1  0  0  0  0  0  0  0  0  0
  -19.9671  -22.4900   26.6191 C   0  0  2  0  0  0  0  0  0  0  0  0
  -22.4921  -25.5832   29.2404 C   0  0  0  0  0  0  0  0  0  0  0  0
  -25.8597  -11.5438   20.2848 N   0  0  0  0  0  0  0  0  0  0  0  0
  -26.2372  -12.8268   20.1528 N   0  0  0  0  0  0  0  0  0  0  0  0
  -23.3466  -26.5067   25.8815 N   0  0  0  0  0  0  0  0  0  0  0  0
  -29.9738  -13.6050   20.3547 N   0  0  0  0  0  0  0  0  0  0  0  0
  -25.4724  -15.0553   20.3967 N   0  0  0  0  0  0  0  0  0  0  0  0
  -21.8878  -12.5861   21.6007 N   0  0  0  0  0  0  0  0  0  0  0  0
  -24.1962  -29.9684   25.7240 N   0  0  0  0  0  0  0  0  0  0  0  0
  -21.2110  -24.3786   27.4205 N   0  0  0  0  0  0  0  0  0  0  0  0
  -30.1487  -15.6716   21.4914 N   0  0  0  0  0  0  0  0  0  0  0  0
  -19.9917  -21.6478   25.3898 N   0  3  0  0  0  0  0  0  0  0  0  0
  -26.7498  -21.0386   22.1641 O   0  0  0  0  0  0  0  0  0  0  0  0
  -22.6643  -14.7247   21.3144 O   0  0  0  0  0  0  0  0  0  0  0  0
  -25.3963  -28.0962   26.4147 O   0  0  0  0  0  0  0  0  0  0  0  0
  -21.3969  -27.1997   26.9561 O   0  0  0  0  0  0  0  0  0  0  0  0
  -22.3807  -22.5749   26.5515 O   0  0  0  0  0  0  0  0  0  0  0  0
  -31.8813  -14.9141   20.1948 O   0  0  0  0  0  0  0  0  0  0  0  0
  -21.6115   -7.0233   21.7226 O   0  0  0  0  0  0  0  0  0  0  0  0
  -28.0325  -23.7695   22.9485 O   0  0  0  0  0  0  0  0  0  1  0  0
  -18.6276   -6.8778   26.3572 F   0  0  0  0  0  0  0  0  0  0  0  0
  -22.0637   -5.0841   23.6403 F   0  0  0  0  0  0  0  0  0  0  0  0
  -27.2872  -20.5091   25.1610 Cl  0  0  0  0  0  0  0  0  0  0  0  0
  -30.4325  -16.0572   24.7714 Cl  0  0  0  0  0  0  0  0  0  0  0  0
  -28.5814  -17.9525   26.5110 Cl  0  0  0  0  0  0  0  0  0  0  0  0
  1  2  1  0  0  0  0
  1  5  2  0  0  0  0
  2  6  2  0  0  0  0
  3  8  2  0  0  0  0
  3 16  1  0  0  0  0
  4  9  1  0  0  0  0
  4 16  2  0  0  0  0
  5 19  1  0  0  0  0
  6 21  1  0  0  0  0
  7 10  2  0  0  0  0
  7 20  1  0  0  0  0
  8 24  1  0  0  0  0
  9 24  2  0  0  0  0
 10 25  1  0  0  0  0
 11 12  2  0  0  0  0
 11 26  1  0  0  0  0
 12 27  1  0  0  0  0
 13 17  1  0  0  0  0
 13 23  2  0  0  0  0
 14 22  1  0  0  0  0
 14 25  2  0  0  0  0
 15 27  2  0  0  0  0
 15 28  1  0  0  0  0
 16 32  1  0  0  0  0
 17 29  2  0  0  0  0
 17 34  1  0  0  0  0
 18 32  1  0  0  0  0
 18 33  2  0  0  0  0
 18 35  1  0  0  0  0
 19 21  2  0  0  0  0
 19 40  1  0  0  0  0
 20 22  2  0  0  0  0
 20 41  1  0  0  0  0
 21 49  1  0  0  0  0
 22 42  1  0  0  0  0
 23 30  1  0  0  0  0
 23 57  1  0  0  0  0
 24 79  1  0  0  0  0
 25 80  1  0  0  0  0
 26 28  2  0  0  0  0
 26 79  1  0  0  0  0
 27 81  1  0  0  0  0
 28 82  1  0  0  0  0
 29 31  1  0  0  0  0
 29 83  1  0  0  0  0
 30 31  2  0  0  0  0
 30 84  1  0  0  0  0
 31 85  1  0  0  0  0
 32 63  2  0  0  0  0
 33 64  1  0  0  0  0
 33 67  1  0  0  0  0
 34 58  1  0  0  0  0
 34 73  2  0  0  0  0
 35 68  1  0  0  0  0
 35 74  2  0  0  0  0
 36 50  1  0  0  0  0
 36 69  1  0  0  0  0
 36 75  2  0  0  0  0
 37 60  1  0  0  0  0
 37 65  1  0  0  0  0
 37 76  2  0  0  0  0
 38 61  1  0  0  0  0
 38 70  1  0  0  0  0
 38 77  2  0  0  0  0
 39 66  1  0  0  0  0
 39 71  1  0  0  0  0
 39 78  2  0  0  0  0
 40 43  1  0  0  0  0
 41 50  1  0  0  0  0
 42 65  1  0  0  0  0
 43 45  1  0  0  0  0
 44 46  1  0  0  0  0
 44 47  1  0  0  0  0
 45 49  1  0  0  0  0
 46 51  1  0  0  0  0
 47 66  1  0  0  0  0
 48 51  1  0  0  0  0
 48 66  1  0  0  0  0
 49 69  1  0  0  0  0
 50 65  1  0  0  0  0
 51 64  1  0  0  0  0
 52 61  1  0  0  0  0
 53 62  1  0  0  0  0
 54 62  1  0  0  0  0
 55 62  1  0  0  0  0
 56 72  1  0  0  0  0
 57 71  1  0  0  0  0
 58 59  1  0  0  0  0
 59 80  1  0  0  0  0
 60 62  1  0  0  0  0
 60 70  1  0  0  0  0
 61 72  1  0  0  0  0
 63 64  1  0  0  0  0
M  CHG  1  72   1
M  ISO  4  39 100  59 101  71 100  80 101
M  END
> <Batch ID>
0028

> <Smiles>
CNC(C)C(=O)NC(C(=O)N1Cc2cc([101O:1][101CH2:1]CC(=O)c3cc(C[100NH:0][100C:0](=O)N4CCCC(n5nc(-c6ccc(Oc7ccc(F)cc7F)cc6)c(C(N)=O)c5N)C4)c(Cl)c(Cl)c3Cl)ccc2CC1C(=O)NC1CCCc2ccccc21)C(C)(C)C

> <Shape>
0.235

> <Color>
0.196

> <Negative vol penalty>
0.000

$$$$

  -OEChem-04052316333D

 84 92  0     1  0  0  0  0  0999 V2000
  -18.7072  -32.1585   26.2138 C   0  0  0  0  0  0  0  0  0  0  0  0
  -19.5946  -31.1417   26.5516 C   0  0  0  0  0  0  0  0  0  0  0  0
  -23.1384   -9.7956   21.4746 C   0  0  0  0  0  0  0  0  0  0  0  0
  -23.8059  -10.7807   23.5773 C   0  0  0  0  0  0  0  0  0  0  0  0
  -17.8589  -32.0062   25.1179 C   0  0  0  0  0  0  0  0  0  0  0  0
  -19.6333  -29.9715   25.7943 C   0  0  0  0  0  0  0  0  0  0  0  0
  -24.5620  -26.5598   24.5395 C   0  0  0  0  0  0  0  0  0  0  0  0
  -22.4178   -8.8184   22.1612 C   0  0  0  0  0  0  0  0  0  0  0  0
  -23.0853   -9.8035   24.2639 C   0  0  0  0  0  0  0  0  0  0  0  0
  -25.0622  -25.3894   25.1086 C   0  0  0  0  0  0  0  0  0  0  0  0
  -23.0708   -5.9433   23.8140 C   0  0  0  0  0  0  0  0  0  0  0  0
  -23.2038   -4.6218   23.3878 C   0  0  0  0  0  0  0  0  0  0  0  0
  -23.9555  -24.0934   23.4014 C   0  0  0  0  0  0  0  0  0  0  0  0
  -29.0750  -19.2018   19.9461 C   0  0  0  0  0  0  0  0  0  0  0  0
  -20.8314   -4.5274   22.9404 C   0  0  0  0  0  0  0  0  0  0  0  0
  -23.8326  -10.7767   22.1827 C   0  0  0  0  0  0  0  0  0  0  0  0
  -24.1080  -13.0390   21.0364 C   0  0  0  0  0  0  0  0  0  0  0  0
  -17.8940  -30.8375   24.3410 C   0  0  0  0  0  0  0  0  0  0  0  0
  -23.7444  -26.5049   23.4016 C   0  0  0  0  0  0  0  0  0  0  0  0
  -18.7837  -29.8028   24.6878 C   0  0  0  0  0  0  0  0  0  0  0  0
  -23.4482  -25.2646   22.8183 C   0  0  0  0  0  0  0  0  0  0  0  0
  -29.6650  -18.4259   20.9376 C   0  0  0  0  0  0  0  0  0  0  0  0
  -29.3869  -18.6871   22.2747 C   0  0  0  0  0  0  0  0  0  0  0  0
  -22.3912   -8.8223   23.5558 C   0  0  0  0  0  0  0  0  0  0  0  0
  -24.7567  -24.1558   24.5412 C   0  0  0  0  0  0  0  0  0  0  0  0
  -21.8181   -6.5568   23.8034 C   0  0  0  0  0  0  0  0  0  0  0  0
  -22.0841   -3.9139   22.9510 C   0  0  0  0  0  0  0  0  0  0  0  0
  -20.6985   -5.8489   23.3666 C   0  0  0  0  0  0  0  0  0  0  0  0
  -24.5776  -11.7861   21.4741 C   0  0  0  0  0  0  0  0  0  0  0  0
  -28.5189  -19.7272   22.5653 C   0  0  0  0  0  0  0  0  0  0  0  0
  -28.2208  -20.2188   20.3410 C   0  0  0  0  0  0  0  0  0  0  0  0
  -25.1923  -13.6167   20.4224 C   0  0  0  0  0  0  0  0  0  0  0  0
  -22.8079  -13.6279   21.1727 C   0  0  0  0  0  0  0  0  0  0  0  0
  -20.7505  -27.3492   22.7477 C   0  0  0  0  0  0  0  0  0  0  0  0
  -21.5931  -26.5329   19.7234 C   0  0  0  0  0  0  0  0  0  0  0  0
  -23.6399  -24.7294   17.6729 C   0  0  0  0  0  0  0  0  0  0  0  0
  -30.6336  -14.8518   20.3071 C   0  0  0  0  0  0  0  0  0  0  0  0
  -16.9246  -30.6990   23.1939 C   0  0  0  0  0  0  0  0  0  0  0  0
  -23.2346  -27.7782   22.7841 C   0  0  0  0  0  0  0  0  0  0  0  0
  -22.5916  -25.1528   21.5846 C   0  0  0  0  0  0  0  0  0  0  0  0
  -17.2905  -29.5831   22.2186 C   0  0  0  0  0  0  0  0  0  0  0  0
  -29.6591  -11.6491   19.0945 C   0  0  0  0  0  0  0  0  0  0  0  0
  -17.6507  -28.3089   22.9760 C   0  0  0  0  0  0  0  0  0  0  0  0
  -28.2143  -11.5003   19.5746 C   0  0  0  0  0  0  0  0  0  0  0  0
  -30.5212  -12.3843   20.1184 C   0  0  0  0  0  0  0  0  0  0  0  0
  -28.5460  -13.5421   21.0306 C   0  0  0  0  0  0  0  0  0  0  0  0
  -18.8727  -28.5289   23.8759 C   0  0  1  0  0  0  0  0  0  0  0  0
  -21.9897  -27.5700   21.9271 C   0  0  1  0  0  0  0  0  0  0  0  0
  -27.6247  -12.8562   20.0073 C   0  0  2  0  0  0  0  0  0  0  0  0
  -30.0070  -17.8722   23.3599 C   0  0  0  0  0  0  0  0  0  0  0  0
  -24.0625  -24.2377   15.2487 C   0  0  0  0  0  0  0  0  0  0  0  0
  -19.1550  -24.6990   19.6729 C   0  0  0  0  0  0  0  0  0  0  0  0
  -20.1409  -23.5588   17.6739 C   0  0  0  0  0  0  0  0  0  0  0  0
  -19.5425  -25.9777   17.5589 C   0  0  0  0  0  0  0  0  0  0  0  0
  -26.3827  -25.8331   17.8075 C   0  0  0  0  0  0  0  0  0  0  0  0
  -30.5899  -17.3218   20.5438 C   0  0  0  0  0  0  0  0  0  0  0  0
  -28.1796  -20.0577   23.9970 C   0  0  0  0  0  0  0  0  0  0  0  0
  -27.4876  -21.4140   24.1721 C   0  0  0  0  0  0  0  0  0  0  0  0
  -27.2212  -21.7655   25.6364 C   0  0  0  0  0  0  0  0  0  0  0  0
  -26.4981  -23.0990   25.7686 C   0  0  0  0  0  0  0  0  0  1  0  0
  -21.5563  -25.2620   18.9095 C   0  0  1  0  0  0  0  0  0  0  0  0
  -24.4225  -25.1216   16.4327 C   0  0  2  0  0  0  0  0  0  0  0  0
  -20.1132  -24.8760   18.4782 C   0  0  0  0  0  0  0  0  0  0  0  0
  -25.8603  -11.5793   21.1643 N   0  0  0  0  0  0  0  0  0  0  0  0
  -27.9266  -20.5026   21.6296 N   0  0  0  0  0  0  0  0  0  0  0  0
  -26.2059  -12.7099   20.5254 N   0  0  0  0  0  0  0  0  0  0  0  0
  -22.1118  -26.4258   21.0216 N   0  0  0  0  0  0  0  0  0  0  0  0
  -29.9072  -13.6628   20.4852 N   0  0  0  0  0  0  0  0  0  0  0  0
  -25.3681  -14.8068   19.8099 N   0  0  0  0  0  0  0  0  0  0  0  0
  -21.8093  -12.8975   21.8311 N   0  0  0  0  0  0  0  0  0  0  0  0
  -20.0882  -28.5125   23.0906 N   0  0  0  0  0  0  0  0  0  0  0  0
  -22.4789  -25.4627   17.7973 N   0  0  0  0  0  0  0  0  0  0  0  0
  -29.9756  -16.0193   20.6739 N   0  0  0  0  0  0  0  0  0  0  0  0
  -25.8864  -24.9983   16.6833 N   0  3  0  0  0  0  0  0  0  0  0  0
  -22.5352  -14.7613   20.7095 O   0  0  0  0  0  0  0  0  0  0  0  0
  -20.4189  -26.2079   23.0461 O   0  0  0  0  0  0  0  0  0  0  0  0
  -21.1835  -27.5834   19.2232 O   0  0  0  0  0  0  0  0  0  0  0  0
  -24.0188  -23.8570   18.4514 O   0  0  0  0  0  0  0  0  0  0  0  0
  -31.7813  -14.8718   19.8497 O   0  0  0  0  0  0  0  0  0  0  0  0
  -21.6879   -7.8691   24.2260 O   0  0  0  0  0  0  0  0  0  0  0  0
  -25.2431  -23.0119   25.0950 O   0  0  0  0  0  0  0  0  0  1  0  0
  -22.2122   -2.6454   22.5403 F   0  0  0  0  0  0  0  0  0  0  0  0
  -19.4926   -6.4333   23.3530 F   0  0  0  0  0  0  0  0  0  0  0  0
  -27.4504  -21.2291   19.1877 Cl  0  0  0  0  0  0  0  0  0  0  0  0
  1  2  1  0  0  0  0
  1  5  2  0  0  0  0
  2  6  2  0  0  0  0
  3  8  2  0  0  0  0
  3 16  1  0  0  0  0
  4  9  1  0  0  0  0
  4 16  2  0  0  0  0
  5 18  1  0  0  0  0
  6 20  1  0  0  0  0
  7 10  2  0  0  0  0
  7 19  1  0  0  0  0
  8 24  1  0  0  0  0
  9 24  2  0  0  0  0
 10 25  1  0  0  0  0
 11 12  2  0  0  0  0
 11 26  1  0  0  0  0
 12 27  1  0  0  0  0
 13 21  1  0  0  0  0
 13 25  2  0  0  0  0
 14 22  2  0  0  0  0
 14 31  1  0  0  0  0
 15 27  2  0  0  0  0
 15 28  1  0  0  0  0
 16 29  1  0  0  0  0
 17 29  1  0  0  0  0
 17 32  2  0  0  0  0
 17 33  1  0  0  0  0
 18 20  2  0  0  0  0
 18 38  1  0  0  0  0
 19 21  2  0  0  0  0
 19 39  1  0  0  0  0
 20 47  1  0  0  0  0
 21 40  1  0  0  0  0
 22 23  1  0  0  0  0
 22 56  1  0  0  0  0
 23 30  2  0  0  0  0
 23 50  1  0  0  0  0
 24 80  1  0  0  0  0
 25 81  1  0  0  0  0
 26 28  2  0  0  0  0
 26 80  1  0  0  0  0
 27 82  1  0  0  0  0
 28 83  1  0  0  0  0
 29 64  2  0  0  0  0
 30 57  1  0  0  0  0
 30 65  1  0  0  0  0
 31 65  2  0  0  0  0
 31 84  1  0  0  0  0
 32 66  1  0  0  0  0
 32 69  1  0  0  0  0
 33 70  1  0  0  0  0
 33 75  2  0  0  0  0
 34 48  1  0  0  0  0
 34 71  1  0  0  0  0
 34 76  2  0  0  0  0
 35 61  1  0  0  0  0
 35 67  1  0  0  0  0
 35 77  2  0  0  0  0
 36 62  1  0  0  0  0
 36 72  1  0  0  0  0
 36 78  2  0  0  0  0
 37 68  1  0  0  0  0
 37 73  1  0  0  0  0
 37 79  2  0  0  0  0
 38 41  1  0  0  0  0
 39 48  1  0  0  0  0
 40 67  1  0  0  0  0
 41 43  1  0  0  0  0
 42 44  1  0  0  0  0
 42 45  1  0  0  0  0
 43 47  1  0  0  0  0
 44 49  1  0  0  0  0
 45 68  1  0  0  0  0
 46 49  1  0  0  0  0
 46 68  1  0  0  0  0
 47 71  1  0  0  0  0
 48 67  1  0  0  0  0
 49 66  1  0  0  0  0
 51 62  1  0  0  0  0
 52 63  1  0  0  0  0
 53 63  1  0  0  0  0
 54 63  1  0  0  0  0
 55 74  1  0  0  0  0
 56 73  1  0  0  0  0
 57 58  1  0  0  0  0
 58 59  1  0  0  0  0
 59 60  1  0  0  0  0
 60 81  1  0  0  0  0
 61 63  1  0  0  0  0
 61 72  1  0  0  0  0
 62 74  1  0  0  0  0
 64 66  1  0  0  0  0
M  CHG  1  74   1
M  ISO  4  37 100  60 101  73 100  81 101
M  END
> <Batch ID>
0028

> <Smiles>
CNC(C)C(=O)NC(C(=O)N1Cc2cc([101O:1][101CH2:1]CCCc3nc(Cl)cc(C[100NH:0][100C:0](=O)N4CCCC(n5nc(-c6ccc(Oc7ccc(F)cc7F)cc6)c(C(N)=O)c5N)C4)c3C)ccc2CC1C(=O)NC1CCCc2ccccc21)C(C)(C)C

> <Shape>
0.254

> <Color>
0.177

> <Negative vol penalty>
0.000

$$$$

  -OEChem-04052316333D

 85 93  0     1  0  0  0  0  0999 V2000
  -18.2442  -24.5866   20.9648 C   0  0  0  0  0  0  0  0  0  0  0  0
  -19.4900  -24.8220   20.3921 C   0  0  0  0  0  0  0  0  0  0  0  0
  -22.6591  -15.1637   24.3957 C   0  0  0  0  0  0  0  0  0  0  0  0
  -22.1183  -16.3367   22.3539 C   0  0  0  0  0  0  0  0  0  0  0  0
  -17.8216  -25.3521   22.0508 C   0  0  0  0  0  0  0  0  0  0  0  0
  -20.3135  -25.8239   20.9044 C   0  0  0  0  0  0  0  0  0  0  0  0
  -25.1240  -24.3208   21.3992 C   0  0  0  0  0  0  0  0  0  0  0  0
  -21.5807  -15.7767   25.0335 C   0  0  0  0  0  0  0  0  0  0  0  0
  -21.0399  -16.9497   22.9918 C   0  0  0  0  0  0  0  0  0  0  0  0
  -25.9015  -24.2832   20.2425 C   0  0  0  0  0  0  0  0  0  0  0  0
  -20.5439  -19.5215   25.1298 C   0  0  0  0  0  0  0  0  0  0  0  0
  -20.3667  -20.8907   24.9314 C   0  0  0  0  0  0  0  0  0  0  0  0
  -26.8889  -26.4002   20.8446 C   0  0  0  0  0  0  0  0  0  0  0  0
  -30.0463  -19.6652   18.3906 C   0  0  0  0  0  0  0  0  0  0  0  0
  -18.1841  -20.4708   23.9840 C   0  0  0  0  0  0  0  0  0  0  0  0
  -22.9280  -15.4437   23.0559 C   0  0  0  0  0  0  0  0  0  0  0  0
  -24.0340  -13.5898   21.6968 C   0  0  0  0  0  0  0  0  0  0  0  0
  -18.6443  -26.3574   22.5827 C   0  0  0  0  0  0  0  0  0  0  0  0
  -25.2153  -25.4056   22.2832 C   0  0  0  0  0  0  0  0  0  0  0  0
  -19.9009  -26.6045   21.9976 C   0  0  0  0  0  0  0  0  0  0  0  0
  -26.1133  -26.4480   22.0130 C   0  0  0  0  0  0  0  0  0  0  0  0
  -27.9316  -19.1441   17.3703 C   0  0  0  0  0  0  0  0  0  0  0  0
  -28.9279  -18.8450   18.2931 C   0  0  0  0  0  0  0  0  0  0  0  0
  -20.7711  -16.6697   24.3316 C   0  0  0  0  0  0  0  0  0  0  0  0
  -26.7820  -25.3243   19.9636 C   0  0  0  0  0  0  0  0  0  0  0  0
  -19.5413  -18.6269   24.7553 C   0  0  0  0  0  0  0  0  0  0  0  0
  -19.1868  -21.3654   24.3585 C   0  0  0  0  0  0  0  0  0  0  0  0
  -18.3615  -19.1016   24.1824 C   0  0  0  0  0  0  0  0  0  0  0  0
  -24.0421  -14.8113   22.3966 C   0  0  0  0  0  0  0  0  0  0  0  0
  -30.1204  -20.7637   17.5494 C   0  0  0  0  0  0  0  0  0  0  0  0
  -28.1002  -20.2660   16.5749 C   0  0  0  0  0  0  0  0  0  0  0  0
  -25.3280  -13.4338   21.2634 C   0  0  0  0  0  0  0  0  0  0  0  0
  -22.9534  -12.6778   21.4595 C   0  0  0  0  0  0  0  0  0  0  0  0
  -23.1945  -27.6277   23.3235 C   0  0  0  0  0  0  0  0  0  0  0  0
  -25.6729  -28.4189   25.2611 C   0  0  0  0  0  0  0  0  0  0  0  0
  -29.0387  -28.3767   25.8236 C   0  0  0  0  0  0  0  0  0  0  0  0
  -29.7389  -17.2949   20.1057 C   0  0  0  0  0  0  0  0  0  0  0  0
  -18.1247  -27.1906   23.7275 C   0  0  0  0  0  0  0  0  0  0  0  0
  -24.3893  -25.4183   23.5401 C   0  0  0  0  0  0  0  0  0  0  0  0
  -26.2637  -27.6254   22.9402 C   0  0  0  0  0  0  0  0  0  0  0  0
  -19.2131  -27.9825   24.4477 C   0  0  0  0  0  0  0  0  0  0  0  0
  -29.8293  -14.5898   22.4190 C   0  0  0  0  0  0  0  0  0  0  0  0
  -20.1194  -28.6824   23.4400 C   0  0  0  0  0  0  0  0  0  0  0  0
  -28.3552  -14.2245   22.6074 C   0  0  0  0  0  0  0  0  0  0  0  0
  -30.0248  -16.0969   22.2640 C   0  0  0  0  0  0  0  0  0  0  0  0
  -27.7289  -16.3603   21.4103 C   0  0  0  0  0  0  0  0  0  0  0  0
  -20.8331  -27.6658   22.5407 C   0  0  1  0  0  0  0  0  0  0  0  0
  -24.1883  -26.8195   24.1089 C   0  0  1  0  0  0  0  0  0  0  0  0
  -27.4751  -14.8470   21.5059 C   0  0  2  0  0  0  0  0  0  0  0  0
  -26.7216  -18.2773   17.2482 C   0  0  0  0  0  0  0  0  0  0  0  0
  -32.4583  -21.1603   16.7336 C   0  0  0  0  0  0  0  0  0  0  0  0
  -30.7696  -29.1349   27.4747 C   0  0  0  0  0  0  0  0  0  0  0  0
  -25.4138  -31.2745   24.2177 C   0  0  0  0  0  0  0  0  0  0  0  0
  -27.6941  -31.7437   25.1387 C   0  0  0  0  0  0  0  0  0  0  0  0
  -25.8391  -31.0965   26.6758 C   0  0  0  0  0  0  0  0  0  0  0  0
  -29.9083  -25.5997   26.3628 C   0  0  0  0  0  0  0  0  0  0  0  0
  -30.0030  -23.7904   18.2502 C   0  0  0  0  0  0  0  0  0  0  0  0
  -29.7780  -25.2691   17.9171 C   0  0  0  0  0  0  0  0  0  0  0  0
  -30.9984  -23.1487   17.2752 C   0  0  0  0  0  0  0  0  0  0  0  0
  -28.8120  -25.9380   18.8874 C   0  0  0  0  0  0  0  0  0  1  0  0
  -31.3274  -21.6825   17.6284 C   0  0  1  0  0  0  0  0  0  0  0  0
  -26.8564  -29.3502   25.1567 C   0  0  1  0  0  0  0  0  0  0  0  0
  -29.8503  -28.0004   27.0500 C   0  0  2  0  0  0  0  0  0  0  0  0
  -26.4468  -30.8451   25.2786 C   0  0  0  0  0  0  0  0  0  0  0  0
  -25.2458  -15.3900   22.4097 N   0  0  0  0  0  0  0  0  0  0  0  0
  -29.1727  -21.0864   16.6408 N   0  0  0  0  0  0  0  0  0  0  0  0
  -26.0061  -14.5284   21.7128 N   0  0  0  0  0  0  0  0  0  0  0  0
  -25.4297  -27.5950   24.1530 N   0  0  0  0  0  0  0  0  0  0  0  0
  -29.1625  -16.6160   21.2001 N   0  0  0  0  0  0  0  0  0  0  0  0
  -25.9404  -12.4683   20.5456 N   0  0  0  0  0  0  0  0  0  0  0  0
  -21.6887  -12.9917   21.9757 N   0  0  0  0  0  0  0  0  0  0  0  0
  -28.8240  -17.7141   19.1405 N   0  0  0  0  0  0  0  0  0  0  0  0
  -21.9392  -27.0554   23.2466 N   0  0  0  0  0  0  0  0  0  0  0  0
  -27.8134  -28.9087   26.1656 N   0  0  0  0  0  0  0  0  0  0  0  0
  -30.6857  -26.7986   26.7694 N   0  3  0  0  0  0  0  0  0  0  0  0
  -23.1085  -11.6080   20.8231 O   0  0  0  0  0  0  0  0  0  0  0  0
  -23.5407  -28.6925   22.8254 O   0  0  0  0  0  0  0  0  0  0  0  0
  -24.9935  -28.4174   26.2907 O   0  0  0  0  0  0  0  0  0  0  0  0
  -29.4519  -28.2183   24.6770 O   0  0  0  0  0  0  0  0  0  0  0  0
  -30.9575  -17.4661   20.0170 O   0  0  0  0  0  0  0  0  0  0  0  0
  -19.7185  -17.2679   24.9536 O   0  0  0  0  0  0  0  0  0  0  0  0
  -27.5415  -25.2904   18.8349 O   0  0  0  0  0  0  0  0  0  1  0  0
  -19.0160  -22.6804   24.1695 F   0  0  0  0  0  0  0  0  0  0  0  0
  -17.3942  -18.2471   23.8217 F   0  0  0  0  0  0  0  0  0  0  0  0
  -26.9410  -20.7435   15.3966 Cl  0  0  0  0  0  0  0  0  0  0  0  0
  1  2  1  0  0  0  0
  1  5  2  0  0  0  0
  2  6  2  0  0  0  0
  3  8  2  0  0  0  0
  3 16  1  0  0  0  0
  4  9  1  0  0  0  0
  4 16  2  0  0  0  0
  5 18  1  0  0  0  0
  6 20  1  0  0  0  0
  7 10  2  0  0  0  0
  7 19  1  0  0  0  0
  8 24  1  0  0  0  0
  9 24  2  0  0  0  0
 10 25  1  0  0  0  0
 11 12  2  0  0  0  0
 11 26  1  0  0  0  0
 12 27  1  0  0  0  0
 13 21  1  0  0  0  0
 13 25  2  0  0  0  0
 14 23  2  0  0  0  0
 14 30  1  0  0  0  0
 15 27  2  0  0  0  0
 15 28  1  0  0  0  0
 16 29  1  0  0  0  0
 17 29  1  0  0  0  0
 17 32  2  0  0  0  0
 17 33  1  0  0  0  0
 18 20  2  0  0  0  0
 18 38  1  0  0  0  0
 19 21  2  0  0  0  0
 19 39  1  0  0  0  0
 20 47  1  0  0  0  0
 21 40  1  0  0  0  0
 22 23  1  0  0  0  0
 22 31  2  0  0  0  0
 22 50  1  0  0  0  0
 23 72  1  0  0  0  0
 24 81  1  0  0  0  0
 25 82  1  0  0  0  0
 26 28  2  0  0  0  0
 26 81  1  0  0  0  0
 27 83  1  0  0  0  0
 28 84  1  0  0  0  0
 29 65  2  0  0  0  0
 30 61  1  0  0  0  0
 30 66  2  0  0  0  0
 31 66  1  0  0  0  0
 31 85  1  0  0  0  0
 32 67  1  0  0  0  0
 32 70  1  0  0  0  0
 33 71  1  0  0  0  0
 33 76  2  0  0  0  0
 34 48  1  0  0  0  0
 34 73  1  0  0  0  0
 34 77  2  0  0  0  0
 35 62  1  0  0  0  0
 35 68  1  0  0  0  0
 35 78  2  0  0  0  0
 36 63  1  0  0  0  0
 36 74  1  0  0  0  0
 36 79  2  0  0  0  0
 37 69  1  0  0  0  0
 37 72  1  0  0  0  0
 37 80  2  0  0  0  0
 38 41  1  0  0  0  0
 39 48  1  0  0  0  0
 40 68  1  0  0  0  0
 41 43  1  0  0  0  0
 42 44  1  0  0  0  0
 42 45  1  0  0  0  0
 43 47  1  0  0  0  0
 44 49  1  0  0  0  0
 45 69  1  0  0  0  0
 46 49  1  0  0  0  0
 46 69  1  0  0  0  0
 47 73  1  0  0  0  0
 48 68  1  0  0  0  0
 49 67  1  0  0  0  0
 51 61  1  0  0  0  0
 52 63  1  0  0  0  0
 53 64  1  0  0  0  0
 54 64  1  0  0  0  0
 55 64  1  0  0  0  0
 56 75  1  0  0  0  0
 57 58  1  0  0  0  0
 57 59  1  0  0  0  0
 58 60  1  0  0  0  0
 59 61  1  0  0  0  0
 60 82  1  0  0  0  0
 62 64  1  0  0  0  0
 62 74  1  0  0  0  0
 63 75  1  0  0  0  0
 65 67  1  0  0  0  0
M  CHG  1  75   1
M  ISO  4  37 100  60 101  72 100  82 101
M  END
> <Batch ID>
0028

> <Smiles>
CNC(C)C(=O)NC(C(=O)N1Cc2cc([101O:1][101CH2:1]CCCC(C)c3cc([100NH:0][100C:0](=O)N4CCCC(n5nc(-c6ccc(Oc7ccc(F)cc7F)cc6)c(C(N)=O)c5N)C4)c(C)c(Cl)n3)ccc2CC1C(=O)NC1CCCc2ccccc21)C(C)(C)C

> <Shape>
0.202

> <Color>
0.084

> <Negative vol penalty>
0.000

$$$$

  -OEChem-04052316333D

 90 98  0     1  0  0  0  0  0999 V2000
  -32.2166  -14.7802   20.9489 C   0  0  0  0  0  0  0  0  0  0  0  0
  -31.2824  -15.8098   20.9981 C   0  0  0  0  0  0  0  0  0  0  0  0
  -29.1830  -25.1618   20.8964 C   0  0  0  0  0  0  0  0  0  0  0  0
  -27.0202  -24.6878   19.9295 C   0  0  0  0  0  0  0  0  0  0  0  0
  -31.8327  -13.5123   20.5142 C   0  0  0  0  0  0  0  0  0  0  0  0
  -29.9638  -15.5724   20.6116 C   0  0  0  0  0  0  0  0  0  0  0  0
  -24.9168  -18.0836   23.0049 C   0  0  0  0  0  0  0  0  0  0  0  0
  -29.3405  -23.8110   21.2065 C   0  0  0  0  0  0  0  0  0  0  0  0
  -27.1777  -23.3370   20.2396 C   0  0  0  0  0  0  0  0  0  0  0  0
  -24.1172  -19.1510   22.5988 C   0  0  0  0  0  0  0  0  0  0  0  0
  -27.1669  -19.7075   20.4525 C   0  0  0  0  0  0  0  0  0  0  0  0
  -26.8340  -18.7732   19.4718 C   0  0  0  0  0  0  0  0  0  0  0  0
  -22.6147  -17.6055   21.5156 C   0  0  0  0  0  0  0  0  0  0  0  0
  -19.8841  -28.6543   21.6395 C   0  0  0  0  0  0  0  0  0  0  0  0
  -28.4902  -19.7315   17.9967 C   0  0  0  0  0  0  0  0  0  0  0  0
  -20.1982  -27.4771   24.0811 C   0  0  0  0  0  0  0  0  0  0  0  0
  -28.0229  -25.6002   20.2580 C   0  0  0  0  0  0  0  0  0  0  0  0
  -28.2468  -27.6466   18.7514 C   0  0  0  0  0  0  0  0  0  0  0  0
  -30.5065  -13.2567   20.1314 C   0  0  0  0  0  0  0  0  0  0  0  0
  -24.5767  -16.7678   22.6596 C   0  0  0  0  0  0  0  0  0  0  0  0
  -29.5621  -14.3003   20.1701 C   0  0  0  0  0  0  0  0  0  0  0  0
  -23.4104  -16.5230   21.9208 C   0  0  0  0  0  0  0  0  0  0  0  0
  -20.6666  -29.2806   22.6031 C   0  0  0  0  0  0  0  0  0  0  0  0
  -28.3379  -22.8986   20.8780 C   0  0  0  0  0  0  0  0  0  0  0  0
  -22.9675  -18.9123   21.8516 C   0  0  0  0  0  0  0  0  0  0  0  0
  -28.1614  -20.6539   20.2053 C   0  0  0  0  0  0  0  0  0  0  0  0
  -27.4956  -18.7851   18.2439 C   0  0  0  0  0  0  0  0  0  0  0  0
  -28.8230  -20.6658   18.9774 C   0  0  0  0  0  0  0  0  0  0  0  0
  -20.8317  -28.6874   23.8498 C   0  0  0  0  0  0  0  0  0  0  0  0
  -27.8594  -26.9955   19.9379 C   0  0  0  0  0  0  0  0  0  0  0  0
  -19.2931  -27.4453   21.9697 C   0  0  0  0  0  0  0  0  0  0  0  0
  -27.8746  -28.9551   18.9405 C   0  0  0  0  0  0  0  0  0  0  0  0
  -28.8860  -27.1161   17.5828 C   0  0  0  0  0  0  0  0  0  0  0  0
  -25.9538  -14.4706   20.9477 C   0  0  0  0  0  0  0  0  0  0  0  0
  -23.4656  -12.7006   22.0422 C   0  0  0  0  0  0  0  0  0  0  0  0
  -20.2815  -12.6252   23.2680 C   0  0  0  0  0  0  0  0  0  0  0  0
  -23.6455  -31.1957   22.7659 C   0  0  0  0  0  0  0  0  0  0  0  0
  -30.1496  -11.8822   19.6235 C   0  0  0  0  0  0  0  0  0  0  0  0
  -25.4355  -15.6252   23.1281 C   0  0  0  0  0  0  0  0  0  0  0  0
  -22.9903  -15.1272   21.5414 C   0  0  0  0  0  0  0  0  0  0  0  0
  -28.6466  -11.6175   19.5874 C   0  0  0  0  0  0  0  0  0  0  0  0
  -27.1852  -32.2056   22.3748 C   0  0  0  0  0  0  0  0  0  0  0  0
  -27.9116  -12.7977   18.9601 C   0  0  0  0  0  0  0  0  0  0  0  0
  -27.7993  -30.9995   21.6662 C   0  0  0  0  0  0  0  0  0  0  0  0
  -25.9895  -31.8094   23.2357 C   0  0  0  0  0  0  0  0  0  0  0  0
  -25.5519  -29.8528   21.7885 C   0  0  0  0  0  0  0  0  0  0  0  0
  -28.1165  -14.0756   19.7826 C   0  0  1  0  0  0  0  0  0  0  0  0
  -25.2699  -14.3670   22.2815 C   0  0  1  0  0  0  0  0  0  0  0  0
  -26.7304  -30.2245   20.8761 C   0  0  2  0  0  0  0  0  0  0  0  0
  -23.9296  -27.5742   19.7610 C   0  0  0  0  0  0  0  0  0  0  0  0
  -18.5030  -11.0292   24.0345 C   0  0  0  0  0  0  0  0  0  0  0  0
  -22.8608  -11.9839   19.1386 C   0  0  0  0  0  0  0  0  0  0  0  0
  -20.5951  -11.2128   19.8738 C   0  0  0  0  0  0  0  0  0  0  0  0
  -22.6399  -10.0840   20.7499 C   0  0  0  0  0  0  0  0  0  0  0  0
  -20.2508  -13.7851   25.9906 C   0  0  0  0  0  0  0  0  0  0  0  0
  -21.3096  -30.5860   22.2647 C   0  0  0  0  0  0  0  0  0  0  0  0
  -23.5398  -28.3101   21.0354 C   0  0  0  0  0  0  0  0  0  0  0  0
  -20.2471  -23.4555   19.8305 C   0  0  0  0  0  0  0  0  0  0  0  0
  -20.4743  -22.0977   20.4969 C   0  0  0  0  0  0  0  0  0  0  0  0
  -19.4764  -24.4046   20.7509 C   0  0  0  0  0  0  0  0  0  0  0  0
  -21.2724  -21.1613   19.5925 C   0  0  0  0  0  0  0  0  0  0  0  0
  -19.2168  -25.7518   20.0670 C   0  0  0  0  0  0  0  0  0  0  0  0
  -23.0837  -29.7405   20.7736 C   0  0  0  0  0  0  0  0  0  0  0  0
  -21.4660  -19.7934   20.2313 C   0  0  0  0  0  0  0  0  0  1  0  0
  -18.4376  -26.7360   20.9482 C   0  0  1  0  0  0  0  0  0  0  0  0
  -22.0656  -12.4098   21.5578 C   0  0  1  0  0  0  0  0  0  0  0  0
  -19.6765  -11.8996   24.4564 C   0  0  2  0  0  0  0  0  0  0  0  0
  -22.0490  -11.4492   20.3354 C   0  0  0  0  0  0  0  0  0  0  0  0
  -19.4304  -26.8384   23.1699 N   0  0  0  0  0  0  0  0  0  0  0  0
  -27.2851  -27.8223   20.8159 N   0  0  0  0  0  0  0  0  0  0  0  0
  -27.3091  -29.0063   20.1806 N   0  0  0  0  0  0  0  0  0  0  0  0
  -23.8662  -14.0440   22.0176 N   0  0  0  0  0  0  0  0  0  0  0  0
  -25.0096  -31.0371   22.4711 N   0  0  0  0  0  0  0  0  0  0  0  0
  -27.9792  -30.0554   18.1654 N   0  0  0  0  0  0  0  0  0  0  0  0
  -29.1989  -25.7502   17.5544 N   0  0  0  0  0  0  0  0  0  0  0  0
  -27.2733  -14.0603   20.9587 N   0  0  0  0  0  0  0  0  0  0  0  0
  -21.3274  -11.9166   22.7154 N   0  0  0  0  0  0  0  0  0  0  0  0
  -22.7354  -30.4472   22.0043 N   0  0  0  0  0  0  0  0  0  0  0  0
  -19.1944  -12.8792   25.4707 N   0  3  0  0  0  0  0  0  0  0  0  0
  -29.1861  -27.8352   16.5998 O   0  0  0  0  0  0  0  0  0  0  0  0
  -25.3302  -14.8903   19.9799 O   0  0  0  0  0  0  0  0  0  0  0  0
  -24.1749  -11.7709   22.4348 O   0  0  0  0  0  0  0  0  0  0  0  0
  -19.8653  -13.7100   22.8676 O   0  0  0  0  0  0  0  0  0  0  0  0
  -23.2625  -31.9698   23.6524 O   0  0  0  0  0  0  0  0  0  0  0  0
  -28.4913  -21.5804   21.1802 O   0  0  0  0  0  0  0  0  0  0  0  0
  -22.1855  -19.9524   21.4533 O   0  0  0  0  0  0  0  0  0  1  0  0
  -27.1769  -17.8869   17.3028 F   0  0  0  0  0  0  0  0  0  0  0  0
  -29.7801  -21.5718   18.7345 F   0  0  0  0  0  0  0  0  0  0  0  0
  -17.3920  -26.0561   21.5078 F   0  0  0  0  0  0  0  0  0  0  0  0
  -21.7827  -29.4056   25.0896 Cl  0  0  0  0  0  0  0  0  0  0  0  0
  1  2  1  0  0  0  0
  1  5  2  0  0  0  0
  2  6  2  0  0  0  0
  3  8  2  0  0  0  0
  3 17  1  0  0  0  0
  4  9  1  0  0  0  0
  4 17  2  0  0  0  0
  5 19  1  0  0  0  0
  6 21  1  0  0  0  0
  7 10  2  0  0  0  0
  7 20  1  0  0  0  0
  8 24  1  0  0  0  0
  9 24  2  0  0  0  0
 10 25  1  0  0  0  0
 11 12  2  0  0  0  0
 11 26  1  0  0  0  0
 12 27  1  0  0  0  0
 13 22  1  0  0  0  0
 13 25  2  0  0  0  0
 14 23  1  0  0  0  0
 14 31  2  0  0  0  0
 15 27  2  0  0  0  0
 15 28  1  0  0  0  0
 16 29  1  0  0  0  0
 16 69  2  0  0  0  0
 17 30  1  0  0  0  0
 18 30  1  0  0  0  0
 18 32  2  0  0  0  0
 18 33  1  0  0  0  0
 19 21  2  0  0  0  0
 19 38  1  0  0  0  0
 20 22  2  0  0  0  0
 20 39  1  0  0  0  0
 21 47  1  0  0  0  0
 22 40  1  0  0  0  0
 23 29  2  0  0  0  0
 23 56  1  0  0  0  0
 24 85  1  0  0  0  0
 25 86  1  0  0  0  0
 26 28  2  0  0  0  0
 26 85  1  0  0  0  0
 27 87  1  0  0  0  0
 28 88  1  0  0  0  0
 29 90  1  0  0  0  0
 30 70  2  0  0  0  0
 31 65  1  0  0  0  0
 31 69  1  0  0  0  0
 32 71  1  0  0  0  0
 32 74  1  0  0  0  0
 33 75  1  0  0  0  0
 33 80  2  0  0  0  0
 34 48  1  0  0  0  0
 34 76  1  0  0  0  0
 34 81  2  0  0  0  0
 35 66  1  0  0  0  0
 35 72  1  0  0  0  0
 35 82  2  0  0  0  0
 36 67  1  0  0  0  0
 36 77  1  0  0  0  0
 36 83  2  0  0  0  0
 37 73  1  0  0  0  0
 37 78  1  0  0  0  0
 37 84  2  0  0  0  0
 38 41  1  0  0  0  0
 39 48  1  0  0  0  0
 40 72  1  0  0  0  0
 41 43  1  0  0  0  0
 42 44  1  0  0  0  0
 42 45  1  0  0  0  0
 43 47  1  0  0  0  0
 44 49  1  0  0  0  0
 45 73  1  0  0  0  0
 46 49  1  0  0  0  0
 46 73  1  0  0  0  0
 47 76  1  0  0  0  0
 48 72  1  0  0  0  0
 49 71  1  0  0  0  0
 50 57  1  0  0  0  0
 51 67  1  0  0  0  0
 52 68  1  0  0  0  0
 53 68  1  0  0  0  0
 54 68  1  0  0  0  0
 55 79  1  0  0  0  0
 56 78  1  0  0  0  0
 57 63  1  0  0  0  0
 58 59  1  0  0  0  0
 58 60  1  0  0  0  0
 59 61  1  0  0  0  0
 60 62  1  0  0  0  0
 61 64  1  0  0  0  0
 62 65  1  0  0  0  0
 63 78  1  0  0  0  0
 64 86  1  0  0  0  0
 65 89  1  0  0  0  0
 66 68  1  0  0  0  0
 66 77  1  0  0  0  0
 67 79  1  0  0  0  0
 70 71  1  0  0  0  0
M  CHG  1  79   1
M  ISO  4  37 100  64 101  78 100  86 101
M  END
> <Batch ID>
0028

> <Smiles>
CCC[100N:0](Cc1cc(C(F)CCCCC[101CH2:1][101O:1]c2ccc3c(c2)CN(C(=O)C(NC(=O)C(C)NC)C(C)(C)C)C(C(=O)NC2CCCc4ccccc42)C3)ncc1Cl)[100C:0](=O)N1CCCC(n2nc(-c3ccc(Oc4ccc(F)cc4F)cc3)c(C(N)=O)c2N)C1

> <Shape>
0.305

> <Color>
0.064

> <Negative vol penalty>
0.000

$$$$

  -OEChem-04052316333D

 81 89  0     1  0  0  0  0  0999 V2000
  -27.3518  -31.5131   20.5800 C   0  0  0  0  0  0  0  0  0  0  0  0
  -27.5645  -30.1386   20.5492 C   0  0  0  0  0  0  0  0  0  0  0  0
  -23.1014   -9.8362   19.9320 C   0  0  0  0  0  0  0  0  0  0  0  0
  -23.8726   -9.8415   22.2216 C   0  0  0  0  0  0  0  0  0  0  0  0
  -26.6315  -32.1290   19.5574 C   0  0  0  0  0  0  0  0  0  0  0  0
  -27.0559  -29.3790   19.4962 C   0  0  0  0  0  0  0  0  0  0  0  0
  -30.4191  -26.0431   17.7056 C   0  0  0  0  0  0  0  0  0  0  0  0
  -22.3847   -8.6648   20.1761 C   0  0  0  0  0  0  0  0  0  0  0  0
  -23.1558   -8.6700   22.4657 C   0  0  0  0  0  0  0  0  0  0  0  0
  -30.6136  -24.8765   18.4438 C   0  0  0  0  0  0  0  0  0  0  0  0
  -19.9493   -7.7955   23.0774 C   0  0  0  0  0  0  0  0  0  0  0  0
  -19.1994   -7.7292   24.2516 C   0  0  0  0  0  0  0  0  0  0  0  0
  -29.1727  -23.6810   16.9226 C   0  0  0  0  0  0  0  0  0  0  0  0
  -31.3464  -18.5759   20.0769 C   0  0  0  0  0  0  0  0  0  0  0  0
  -29.1334  -18.7601   21.0285 C   0  0  0  0  0  0  0  0  0  0  0  0
  -20.4874   -5.8140   24.9660 C   0  0  0  0  0  0  0  0  0  0  0  0
  -23.8455  -10.4246   20.9548 C   0  0  0  0  0  0  0  0  0  0  0  0
  -24.1304  -12.9576   20.8539 C   0  0  0  0  0  0  0  0  0  0  0  0
  -26.1221  -31.3780   18.4864 C   0  0  0  0  0  0  0  0  0  0  0  0
  -29.5898  -26.0400   16.5748 C   0  0  0  0  0  0  0  0  0  0  0  0
  -26.3269  -29.9853   18.4590 C   0  0  0  0  0  0  0  0  0  0  0  0
  -28.9714  -24.8484   16.1703 C   0  0  0  0  0  0  0  0  0  0  0  0
  -30.3828  -18.1412   20.9869 C   0  0  0  0  0  0  0  0  0  0  0  0
  -29.8113  -20.2484   19.2503 C   0  0  0  0  0  0  0  0  0  0  0  0
  -22.4119   -8.0817   21.4429 C   0  0  0  0  0  0  0  0  0  0  0  0
  -29.9881  -23.6958   18.0539 C   0  0  0  0  0  0  0  0  0  0  0  0
  -20.9683   -6.8710   22.8474 C   0  0  0  0  0  0  0  0  0  0  0  0
  -19.4684   -6.7385   25.1959 C   0  0  0  0  0  0  0  0  0  0  0  0
  -21.2373   -5.8803   23.7917 C   0  0  0  0  0  0  0  0  0  0  0  0
  -31.0607  -19.6296   19.2086 C   0  0  0  0  0  0  0  0  0  0  0  0
  -28.8477  -19.8137   20.1602 C   0  0  0  0  0  0  0  0  0  0  0  0
  -24.5865  -11.6344   20.7031 C   0  0  0  0  0  0  0  0  0  0  0  0
  -25.2037  -13.7342   20.4915 C   0  0  0  0  0  0  0  0  0  0  0  0
  -22.8508  -13.4415   21.2833 C   0  0  0  0  0  0  0  0  0  0  0  0
  -26.9007  -27.5266   15.7611 C   0  0  0  0  0  0  0  0  0  0  0  0
  -27.4371  -26.0995   12.8979 C   0  0  0  0  0  0  0  0  0  0  0  0
  -28.9044  -23.5566   11.1579 C   0  0  0  0  0  0  0  0  0  0  0  0
  -30.6643  -14.8737   20.6614 C   0  0  0  0  0  0  0  0  0  0  0  0
  -25.3092  -32.0812   17.4284 C   0  0  0  0  0  0  0  0  0  0  0  0
  -29.4116  -27.3007   15.7739 C   0  0  0  0  0  0  0  0  0  0  0  0
  -28.0876  -24.7874   14.9523 C   0  0  0  0  0  0  0  0  0  0  0  0
  -25.1250  -31.2593   16.1553 C   0  0  0  0  0  0  0  0  0  0  0  0
  -29.5680  -12.4839   18.2607 C   0  0  0  0  0  0  0  0  0  0  0  0
  -24.7229  -29.8282   16.4973 C   0  0  0  0  0  0  0  0  0  0  0  0
  -28.1396  -12.1547   18.6982 C   0  0  0  0  0  0  0  0  0  0  0  0
  -30.4860  -12.7154   19.4589 C   0  0  0  0  0  0  0  0  0  0  0  0
  -28.5755  -13.3926   20.8607 C   0  0  0  0  0  0  0  0  0  0  0  0
  -25.8124  -29.1309   17.3208 C   0  0  1  0  0  0  0  0  0  0  0  0
  -28.1364  -27.3013   14.9365 C   0  0  1  0  0  0  0  0  0  0  0  0
  -27.5995  -13.2059   19.6864 C   0  0  2  0  0  0  0  0  0  0  0  0
  -29.1320  -22.6332    8.8356 C   0  0  0  0  0  0  0  0  0  0  0  0
  -24.6085  -24.9690   13.0726 C   0  0  0  0  0  0  0  0  0  0  0  0
  -25.2228  -23.3410   11.2725 C   0  0  0  0  0  0  0  0  0  0  0  0
  -25.2651  -25.7907   10.8037 C   0  0  0  0  0  0  0  0  0  0  0  0
  -31.8411  -23.9226   11.1753 C   0  0  0  0  0  0  0  0  0  0  0  0
  -30.6885  -17.0151   21.9157 C   0  0  0  0  0  0  0  0  0  0  0  0
  -29.5042  -21.3822   18.3167 C   0  0  0  0  0  0  0  0  0  1  0  0
  -27.0562  -24.7789   12.2735 C   0  0  1  0  0  0  0  0  0  0  0  0
  -29.7338  -23.5533    9.8865 C   0  0  2  0  0  0  0  0  0  0  0  0
  -25.5532  -24.7211   11.8797 C   0  0  0  0  0  0  0  0  0  0  0  0
  -25.8511  -11.5702   20.2779 N   0  0  0  0  0  0  0  0  0  0  0  0
  -26.1986  -12.8628   20.1583 N   0  0  0  0  0  0  0  0  0  0  0  0
  -27.9395  -26.0477   14.2058 N   0  0  0  0  0  0  0  0  0  0  0  0
  -29.9172  -13.7241   20.3560 N   0  0  0  0  0  0  0  0  0  0  0  0
  -25.3840  -15.0706   20.4284 N   0  0  0  0  0  0  0  0  0  0  0  0
  -21.8611  -12.5073   21.6180 N   0  0  0  0  0  0  0  0  0  0  0  0
  -26.9037  -28.7151   16.4661 N   0  0  0  0  0  0  0  0  0  0  0  0
  -27.9744  -24.5746   11.1584 N   0  0  0  0  0  0  0  0  0  0  0  0
  -30.0489  -15.7821   21.5140 N   0  0  0  0  0  0  0  0  0  0  0  0
  -31.1217  -23.0933   10.1746 N   0  3  0  0  0  0  0  0  0  0  0  0
  -22.5875  -14.6661   21.3519 O   0  0  0  0  0  0  0  0  0  0  0  0
  -26.0098  -26.6853   15.7567 O   0  0  0  0  0  0  0  0  0  0  0  0
  -27.3009  -27.1381   12.2463 O   0  0  0  0  0  0  0  0  0  0  0  0
  -29.0629  -22.7357   12.0588 O   0  0  0  0  0  0  0  0  0  0  0  0
  -31.7937  -15.0782   20.2037 O   0  0  0  0  0  0  0  0  0  0  0  0
  -21.7124   -6.9387   21.6815 O   0  0  0  0  0  0  0  0  0  0  0  0
  -30.1757  -22.5558   18.7730 O   0  0  0  0  0  0  0  0  0  1  0  0
  -18.7492   -6.6758   26.3242 F   0  0  0  0  0  0  0  0  0  0  0  0
  -22.2157   -4.9901   23.5769 F   0  0  0  0  0  0  0  0  0  0  0  0
  -32.2828  -20.1362   18.0984 Cl  0  0  0  0  0  0  0  0  0  0  0  0
  -27.2888  -20.5519   20.2462 Cl  0  0  0  0  0  0  0  0  0  0  0  0
  1  2  1  0  0  0  0
  1  5  2  0  0  0  0
  2  6  2  0  0  0  0
  3  8  2  0  0  0  0
  3 17  1  0  0  0  0
  4  9  1  0  0  0  0
  4 17  2  0  0  0  0
  5 19  1  0  0  0  0
  6 21  1  0  0  0  0
  7 10  2  0  0  0  0
  7 20  1  0  0  0  0
  8 25  1  0  0  0  0
  9 25  2  0  0  0  0
 10 26  1  0  0  0  0
 11 12  2  0  0  0  0
 11 27  1  0  0  0  0
 12 28  1  0  0  0  0
 13 22  1  0  0  0  0
 13 26  2  0  0  0  0
 14 23  1  0  0  0  0
 14 30  2  0  0  0  0
 15 23  2  0  0  0  0
 15 31  1  0  0  0  0
 16 28  2  0  0  0  0
 16 29  1  0  0  0  0
 17 32  1  0  0  0  0
 18 32  1  0  0  0  0
 18 33  2  0  0  0  0
 18 34  1  0  0  0  0
 19 21  2  0  0  0  0
 19 39  1  0  0  0  0
 20 22  2  0  0  0  0
 20 40  1  0  0  0  0
 21 48  1  0  0  0  0
 22 41  1  0  0  0  0
 23 56  1  0  0  0  0
 24 30  1  0  0  0  0
 24 31  2  0  0  0  0
 24 57  1  0  0  0  0
 25 76  1  0  0  0  0
 26 77  1  0  0  0  0
 27 29  2  0  0  0  0
 27 76  1  0  0  0  0
 28 78  1  0  0  0  0
 29 79  1  0  0  0  0
 30 80  1  0  0  0  0
 31 81  1  0  0  0  0
 32 61  2  0  0  0  0
 33 62  1  0  0  0  0
 33 65  1  0  0  0  0
 34 66  1  0  0  0  0
 34 71  2  0  0  0  0
 35 49  1  0  0  0  0
 35 67  1  0  0  0  0
 35 72  2  0  0  0  0
 36 58  1  0  0  0  0
 36 63  1  0  0  0  0
 36 73  2  0  0  0  0
 37 59  1  0  0  0  0
 37 68  1  0  0  0  0
 37 74  2  0  0  0  0
 38 64  1  0  0  0  0
 38 69  1  0  0  0  0
 38 75  2  0  0  0  0
 39 42  1  0  0  0  0
 40 49  1  0  0  0  0
 41 63  1  0  0  0  0
 42 44  1  0  0  0  0
 43 45  1  0  0  0  0
 43 46  1  0  0  0  0
 44 48  1  0  0  0  0
 45 50  1  0  0  0  0
 46 64  1  0  0  0  0
 47 50  1  0  0  0  0
 47 64  1  0  0  0  0
 48 67  1  0  0  0  0
 49 63  1  0  0  0  0
 50 62  1  0  0  0  0
 51 59  1  0  0  0  0
 52 60  1  0  0  0  0
 53 60  1  0  0  0  0
 54 60  1  0  0  0  0
 55 70  1  0  0  0  0
 56 69  1  0  0  0  0
 57 77  1  0  0  0  0
 58 60  1  0  0  0  0
 58 68  1  0  0  0  0
 59 70  1  0  0  0  0
 61 62  1  0  0  0  0
M  CHG  1  70   1
M  ISO  4  38 100  57 101  69 100  77 101
M  END
> <Batch ID>
0028

> <Smiles>
CNC(C)C(=O)NC(C(=O)N1Cc2cc([101O:1][101CH2:1]c3c(Cl)cc(C[100NH:0][100C:0](=O)N4CCCC(n5nc(-c6ccc(Oc7ccc(F)cc7F)cc6)c(C(N)=O)c5N)C4)cc3Cl)ccc2CC1C(=O)NC1CCCc2ccccc21)C(C)(C)C

> <Shape>
0.250

> <Color>
0.203

> <Negative vol penalty>
0.000

$$$$

  -OEChem-04052316333D

 89 97  0     1  0  0  0  0  0999 V2000
  -35.1885  -17.6712   23.8278 C   0  0  0  0  0  0  0  0  0  0  0  0
  -34.1474  -18.1203   23.0217 C   0  0  0  0  0  0  0  0  0  0  0  0
  -26.5490  -25.5629   18.4256 C   0  0  0  0  0  0  0  0  0  0  0  0
  -28.1512  -26.2070   20.1153 C   0  0  0  0  0  0  0  0  0  0  0  0
  -35.4907  -16.3111   23.8808 C   0  0  0  0  0  0  0  0  0  0  0  0
  -33.4087  -17.2097   22.2671 C   0  0  0  0  0  0  0  0  0  0  0  0
  -28.4233  -18.0579   22.5342 C   0  0  0  0  0  0  0  0  0  0  0  0
  -27.1395  -24.3017   18.3465 C   0  0  0  0  0  0  0  0  0  0  0  0
  -28.7417  -24.9458   20.0363 C   0  0  0  0  0  0  0  0  0  0  0  0
  -27.9126  -19.1007   21.7625 C   0  0  0  0  0  0  0  0  0  0  0  0
  -30.8833  -23.3217   17.9852 C   0  0  0  0  0  0  0  0  0  0  0  0
  -32.2759  -23.2601   17.9353 C   0  0  0  0  0  0  0  0  0  0  0  0
  -27.1785  -17.5076   20.1065 C   0  0  0  0  0  0  0  0  0  0  0  0
  -32.2911  -21.9567   19.9695 C   0  0  0  0  0  0  0  0  0  0  0  0
  -27.0550  -26.5156   19.3100 C   0  0  0  0  0  0  0  0  0  0  0  0
  -26.3145  -28.7623   18.3552 C   0  0  0  0  0  0  0  0  0  0  0  0
  -34.7491  -15.3823   23.1339 C   0  0  0  0  0  0  0  0  0  0  0  0
  -28.3250  -16.7308   22.0919 C   0  0  0  0  0  0  0  0  0  0  0  0
  -33.7021  -15.8361   22.3090 C   0  0  0  0  0  0  0  0  0  0  0  0
  -27.6865  -16.4496   20.8756 C   0  0  0  0  0  0  0  0  0  0  0  0
  -17.5816  -30.2090   22.7549 C   0  0  0  0  0  0  0  0  0  0  0  0
  -19.8178  -29.3338   22.8874 C   0  0  0  0  0  0  0  0  0  0  0  0
  -28.2358  -23.9931   19.1518 C   0  0  0  0  0  0  0  0  0  0  0  0
  -27.2927  -18.8259   20.5471 C   0  0  0  0  0  0  0  0  0  0  0  0
  -30.1946  -22.7009   19.0274 C   0  0  0  0  0  0  0  0  0  0  0  0
  -32.9798  -22.5775   18.9274 C   0  0  0  0  0  0  0  0  0  0  0  0
  -30.8985  -22.0184   20.0195 C   0  0  0  0  0  0  0  0  0  0  0  0
  -18.9564  -30.4079   22.6939 C   0  0  0  0  0  0  0  0  0  0  0  0
  -26.4458  -27.8188   19.3917 C   0  0  0  0  0  0  0  0  0  0  0  0
  -19.2588  -28.0908   23.1368 C   0  0  0  0  0  0  0  0  0  0  0  0
  -17.1226  -28.9268   23.0101 C   0  0  0  0  0  0  0  0  0  0  0  0
  -25.6710  -29.8262   18.9388 C   0  0  0  0  0  0  0  0  0  0  0  0
  -26.7363  -28.6841   16.9872 C   0  0  0  0  0  0  0  0  0  0  0  0
  -30.4143  -14.4565   21.3396 C   0  0  0  0  0  0  0  0  0  0  0  0
  -27.7450  -12.6311   21.0853 C   0  0  0  0  0  0  0  0  0  0  0  0
  -24.3755  -12.4824   20.5644 C   0  0  0  0  0  0  0  0  0  0  0  0
  -22.0161  -30.3058   23.6417 C   0  0  0  0  0  0  0  0  0  0  0  0
  -35.1434  -13.9275   23.1871 C   0  0  0  0  0  0  0  0  0  0  0  0
  -28.8572  -15.6150   22.9487 C   0  0  0  0  0  0  0  0  0  0  0  0
  -27.5373  -15.0403   20.3656 C   0  0  0  0  0  0  0  0  0  0  0  0
  -34.0712  -12.9856   22.6455 C   0  0  0  0  0  0  0  0  0  0  0  0
  -25.1107  -32.0018   23.1682 C   0  0  0  0  0  0  0  0  0  0  0  0
  -33.5249  -13.5048   21.3193 C   0  0  0  0  0  0  0  0  0  0  0  0
  -25.7897  -31.2111   22.0475 C   0  0  0  0  0  0  0  0  0  0  0  0
  -24.3268  -31.0904   24.1108 C   0  0  0  0  0  0  0  0  0  0  0  0
  -24.0406  -29.4094   22.3328 C   0  0  0  0  0  0  0  0  0  0  0  0
  -32.8618  -14.8763   21.4949 C   0  0  1  0  0  0  0  0  0  0  0  0
  -29.1588  -14.3459   22.1576 C   0  0  1  0  0  0  0  0  0  0  0  0
  -24.7889  -30.2917   21.3203 C   0  0  2  0  0  0  0  0  0  0  0  0
  -16.6232  -31.3374   22.5530 C   0  0  0  0  0  0  0  0  0  0  0  0
  -22.4816  -10.8469   20.3757 C   0  0  0  0  0  0  0  0  0  0  0  0
  -28.6806  -11.8750   18.2812 C   0  0  0  0  0  0  0  0  0  0  0  0
  -26.3646  -11.0510   17.8062 C   0  0  0  0  0  0  0  0  0  0  0  0
  -27.7217   -9.9833   19.6065 C   0  0  0  0  0  0  0  0  0  0  0  0
  -22.9709  -13.6635   22.8864 C   0  0  0  0  0  0  0  0  0  0  0  0
  -20.1367  -26.8845   23.3560 C   0  0  0  0  0  0  0  0  0  0  0  0
  -20.6991  -26.2843   22.0626 C   0  0  0  0  0  0  0  0  0  0  0  0
  -21.5250  -25.0162   22.2999 C   0  0  0  0  0  0  0  0  0  0  0  0
  -22.0908  -24.4699   20.9872 C   0  0  0  0  0  0  0  0  0  0  0  0
  -22.8883  -23.1842   21.2175 C   0  0  0  0  0  0  0  0  0  0  0  0
  -23.4801  -22.6576   19.9083 C   0  0  0  0  0  0  0  0  0  0  0  0
  -24.3006  -21.3760   20.0831 C   0  0  0  0  0  0  0  0  0  0  0  0
  -24.8268  -20.8066   18.7615 C   0  0  0  0  0  0  0  0  0  0  0  0
  -25.6655  -19.5507   18.9714 C   0  0  0  0  0  0  0  0  0  1  0  0
  -26.7781  -12.2998   19.9742 C   0  0  1  0  0  0  0  0  0  0  0  0
  -23.2725  -11.7511   21.3082 C   0  0  2  0  0  0  0  0  0  0  0  0
  -27.3906  -11.3291   18.9254 C   0  0  0  0  0  0  0  0  0  0  0  0
  -25.9276  -28.2458   20.5464 N   0  0  0  0  0  0  0  0  0  0  0  0
  -17.9286  -27.8588   23.2035 N   0  0  0  0  0  0  0  0  0  0  0  0
  -25.4644  -29.4693   20.2389 N   0  0  0  0  0  0  0  0  0  0  0  0
  -28.0795  -13.9842   21.2365 N   0  0  0  0  0  0  0  0  0  0  0  0
  -23.3960  -30.2520   23.3521 N   0  0  0  0  0  0  0  0  0  0  0  0
  -25.2674  -31.0228   18.4617 N   0  0  0  0  0  0  0  0  0  0  0  0
  -28.0210  -29.1369   16.6571 N   0  0  0  0  0  0  0  0  0  0  0  0
  -21.2252  -29.4894   22.8339 N   0  0  0  0  0  0  0  0  0  0  0  0
  -31.5471  -14.7306   22.0820 N   0  0  0  0  0  0  0  0  0  0  0  0
  -25.5706  -11.7970   20.6203 N   0  0  0  0  0  0  0  0  0  0  0  0
  -22.3310  -12.7260   21.9278 N   0  3  0  0  0  0  0  0  0  0  0  0
  -25.9899  -28.2413   16.0814 O   0  0  0  0  0  0  0  0  0  0  0  0
  -30.3596  -14.3030   20.1251 O   0  0  0  0  0  0  0  0  0  0  0  0
  -28.1816  -11.7235   21.7976 O   0  0  0  0  0  0  0  0  0  0  0  0
  -24.1940  -13.5527   19.9882 O   0  0  0  0  0  0  0  0  0  0  0  0
  -21.5660  -31.0438   24.5219 O   0  0  0  0  0  0  0  0  0  0  0  0
  -28.8120  -22.7624   19.0751 O   0  0  0  0  0  0  0  0  0  0  0  0
  -26.7901  -19.8495   19.7858 O   0  0  0  0  0  0  0  0  0  1  0  0
  -34.3170  -22.5171   18.8785 F   0  0  0  0  0  0  0  0  0  0  0  0
  -30.2423  -21.4190   21.0224 F   0  0  0  0  0  0  0  0  0  0  0  0
  -19.5903  -31.9899   22.3769 Cl  0  0  0  0  0  0  0  0  0  0  0  0
  -15.4471  -28.5474   23.1111 Cl  0  0  0  0  0  0  0  0  0  0  0  0
  1  2  1  0  0  0  0
  1  5  2  0  0  0  0
  2  6  2  0  0  0  0
  3  8  2  0  0  0  0
  3 15  1  0  0  0  0
  4  9  1  0  0  0  0
  4 15  2  0  0  0  0
  5 17  1  0  0  0  0
  6 19  1  0  0  0  0
  7 10  2  0  0  0  0
  7 18  1  0  0  0  0
  8 23  1  0  0  0  0
  9 23  2  0  0  0  0
 10 24  1  0  0  0  0
 11 12  2  0  0  0  0
 11 25  1  0  0  0  0
 12 26  1  0  0  0  0
 13 20  1  0  0  0  0
 13 24  2  0  0  0  0
 14 26  2  0  0  0  0
 14 27  1  0  0  0  0
 15 29  1  0  0  0  0
 16 29  1  0  0  0  0
 16 32  2  0  0  0  0
 16 33  1  0  0  0  0
 17 19  2  0  0  0  0
 17 38  1  0  0  0  0
 18 20  2  0  0  0  0
 18 39  1  0  0  0  0
 19 47  1  0  0  0  0
 20 40  1  0  0  0  0
 21 28  2  0  0  0  0
 21 31  1  0  0  0  0
 21 50  1  0  0  0  0
 22 28  1  0  0  0  0
 22 30  2  0  0  0  0
 22 75  1  0  0  0  0
 23 84  1  0  0  0  0
 24 85  1  0  0  0  0
 25 27  2  0  0  0  0
 25 84  1  0  0  0  0
 26 86  1  0  0  0  0
 27 87  1  0  0  0  0
 28 88  1  0  0  0  0
 29 68  2  0  0  0  0
 30 56  1  0  0  0  0
 30 69  1  0  0  0  0
 31 69  2  0  0  0  0
 31 89  1  0  0  0  0
 32 70  1  0  0  0  0
 32 73  1  0  0  0  0
 33 74  1  0  0  0  0
 33 79  2  0  0  0  0
 34 48  1  0  0  0  0
 34 76  1  0  0  0  0
 34 80  2  0  0  0  0
 35 65  1  0  0  0  0
 35 71  1  0  0  0  0
 35 81  2  0  0  0  0
 36 66  1  0  0  0  0
 36 77  1  0  0  0  0
 36 82  2  0  0  0  0
 37 72  1  0  0  0  0
 37 75  1  0  0  0  0
 37 83  2  0  0  0  0
 38 41  1  0  0  0  0
 39 48  1  0  0  0  0
 40 71  1  0  0  0  0
 41 43  1  0  0  0  0
 42 44  1  0  0  0  0
 42 45  1  0  0  0  0
 43 47  1  0  0  0  0
 44 49  1  0  0  0  0
 45 72  1  0  0  0  0
 46 49  1  0  0  0  0
 46 72  1  0  0  0  0
 47 76  1  0  0  0  0
 48 71  1  0  0  0  0
 49 70  1  0  0  0  0
 51 66  1  0  0  0  0
 52 67  1  0  0  0  0
 53 67  1  0  0  0  0
 54 67  1  0  0  0  0
 55 78  1  0  0  0  0
 56 57  1  0  0  0  0
 57 58  1  0  0  0  0
 58 59  1  0  0  0  0
 59 60  1  0  0  0  0
 60 61  1  0  0  0  0
 61 62  1  0  0  0  0
 62 63  1  0  0  0  0
 63 64  1  0  0  0  0
 64 85  1  0  0  0  0
 65 67  1  0  0  0  0
 65 77  1  0  0  0  0
 66 78  1  0  0  0  0
 68 70  1  0  0  0  0
M  CHG  1  78   1
M  ISO  4  37 100  64 101  75 100  85 101
M  END
> <Batch ID>
0028

> <Smiles>
CNC(C)C(=O)NC(C(=O)N1Cc2cc([101O:1][101CH2:1]CCCCCCCCc3nc(Cl)c(C)c(Cl)c3[100NH:0][100C:0](=O)N3CCCC(n4nc(-c5ccc(Oc6ccc(F)cc6F)cc5)c(C(N)=O)c4N)C3)ccc2CC1C(=O)NC1CCCc2ccccc21)C(C)(C)C

> <Shape>
0.273

> <Color>
0.073

> <Negative vol penalty>
0.000

$$$$

  -OEChem-04052316333D

 86 94  0     1  0  0  0  0  0999 V2000
  -28.4872  -21.7796   26.1428 C   0  0  0  0  0  0  0  0  0  0  0  0
  -29.2858  -21.5131   25.0353 C   0  0  0  0  0  0  0  0  0  0  0  0
  -23.0762   -9.8631   19.9464 C   0  0  0  0  0  0  0  0  0  0  0  0
  -23.8380   -9.8770   22.2391 C   0  0  0  0  0  0  0  0  0  0  0  0
  -28.0670  -23.0838   26.4003 C   0  0  0  0  0  0  0  0  0  0  0  0
  -29.6639  -22.5508   24.1840 C   0  0  0  0  0  0  0  0  0  0  0  0
  -34.5668  -22.3483   22.9326 C   0  0  0  0  0  0  0  0  0  0  0  0
  -22.3344   -8.7094   20.1999 C   0  0  0  0  0  0  0  0  0  0  0  0
  -23.0962   -8.7233   22.4927 C   0  0  0  0  0  0  0  0  0  0  0  0
  -34.9374  -21.4230   21.9578 C   0  0  0  0  0  0  0  0  0  0  0  0
  -19.8699   -7.9218   23.1000 C   0  0  0  0  0  0  0  0  0  0  0  0
  -19.1140   -7.8835   24.2716 C   0  0  0  0  0  0  0  0  0  0  0  0
  -34.9696  -23.1830   20.3083 C   0  0  0  0  0  0  0  0  0  0  0  0
  -31.6168  -18.3494   20.0431 C   0  0  0  0  0  0  0  0  0  0  0  0
  -20.3592   -5.9500   25.0118 C   0  0  0  0  0  0  0  0  0  0  0  0
  -23.8281  -10.4469   20.9660 C   0  0  0  0  0  0  0  0  0  0  0  0
  -24.1657  -12.9723   20.8394 C   0  0  0  0  0  0  0  0  0  0  0  0
  -28.4481  -24.1395   25.5571 C   0  0  0  0  0  0  0  0  0  0  0  0
  -34.3839  -23.6982   22.5998 C   0  0  0  0  0  0  0  0  0  0  0  0
  -29.2474  -23.8702   24.4296 C   0  0  0  0  0  0  0  0  0  0  0  0
  -34.5992  -24.1238   21.2812 C   0  0  0  0  0  0  0  0  0  0  0  0
  -30.5738  -18.0098   20.9046 C   0  0  0  0  0  0  0  0  0  0  0  0
  -29.1899  -19.7180   19.9026 C   0  0  0  0  0  0  0  0  0  0  0  0
  -31.4464  -19.3734   19.1113 C   0  0  0  0  0  0  0  0  0  0  0  0
  -22.3444   -8.1395   21.4730 C   0  0  0  0  0  0  0  0  0  0  0  0
  -35.1361  -21.8398   20.6448 C   0  0  0  0  0  0  0  0  0  0  0  0
  -20.8704   -6.9740   22.8842 C   0  0  0  0  0  0  0  0  0  0  0  0
  -19.3587   -6.8977   25.2275 C   0  0  0  0  0  0  0  0  0  0  0  0
  -21.1151   -5.9882   23.8401 C   0  0  0  0  0  0  0  0  0  0  0  0
  -29.3603  -18.6940   20.8344 C   0  0  0  0  0  0  0  0  0  0  0  0
  -30.2329  -20.0576   19.0411 C   0  0  0  0  0  0  0  0  0  0  0  0
  -24.5950  -11.6384   20.7047 C   0  0  0  0  0  0  0  0  0  0  0  0
  -25.2563  -13.7226   20.4733 C   0  0  0  0  0  0  0  0  0  0  0  0
  -22.8947  -13.4871   21.2581 C   0  0  0  0  0  0  0  0  0  0  0  0
  -31.9295  -25.7163   22.6830 C   0  0  0  0  0  0  0  0  0  0  0  0
  -34.1874  -27.8856   21.8355 C   0  0  0  0  0  0  0  0  0  0  0  0
  -37.2145  -28.5003   20.3844 C   0  0  0  0  0  0  0  0  0  0  0  0
  -30.7386  -14.7511   20.6544 C   0  0  0  0  0  0  0  0  0  0  0  0
  -27.9302  -25.5254   25.8496 C   0  0  0  0  0  0  0  0  0  0  0  0
  -34.0100  -24.6885   23.6684 C   0  0  0  0  0  0  0  0  0  0  0  0
  -34.4355  -25.5653   20.8765 C   0  0  0  0  0  0  0  0  0  0  0  0
  -28.6844  -26.6264   25.1084 C   0  0  0  0  0  0  0  0  0  0  0  0
  -29.6028  -12.3587   18.2746 C   0  0  0  0  0  0  0  0  0  0  0  0
  -28.8674  -26.2532   23.6407 C   0  0  0  0  0  0  0  0  0  0  0  0
  -28.1662  -12.0638   18.7095 C   0  0  0  0  0  0  0  0  0  0  0  0
  -30.5206  -12.5841   19.4741 C   0  0  0  0  0  0  0  0  0  0  0  0
  -28.6188  -13.3155   20.8605 C   0  0  0  0  0  0  0  0  0  0  0  0
  -29.6988  -24.9728   23.4966 C   0  0  1  0  0  0  0  0  0  0  0  0
  -33.3508  -25.9469   23.1126 C   0  0  1  0  0  0  0  0  0  0  0  0
  -27.6440  -13.1364   19.6842 C   0  0  2  0  0  0  0  0  0  0  0  0
  -27.8848  -20.4521   19.8264 C   0  0  0  0  0  0  0  0  0  0  0  0
  -38.7767  -30.3768   19.8052 C   0  0  0  0  0  0  0  0  0  0  0  0
  -33.6420  -17.6618   17.5950 C   0  0  0  0  0  0  0  0  0  0  0  0
  -32.3873  -28.6589   19.4963 C   0  0  0  0  0  0  0  0  0  0  0  0
  -34.3543  -29.8021   18.4511 C   0  0  0  0  0  0  0  0  0  0  0  0
  -33.4819  -30.5876   20.6522 C   0  0  0  0  0  0  0  0  0  0  0  0
  -39.3635  -27.3928   22.0915 C   0  0  0  0  0  0  0  0  0  0  0  0
  -30.8020  -16.9048   21.8859 C   0  0  0  0  0  0  0  0  0  0  0  0
  -34.8525  -19.8704   17.6403 C   0  0  0  0  0  0  0  0  0  0  0  0
  -35.0697  -21.2003   18.3551 C   0  0  0  0  0  0  0  0  0  1  0  0
  -34.7399  -28.3981   20.5274 C   0  0  1  0  0  0  0  0  0  0  0  0
  -38.4010  -29.3294   20.8418 C   0  0  2  0  0  0  0  0  0  0  0  0
  -33.7792  -19.0041   18.3068 C   0  0  1  0  0  0  0  0  0  0  0  0
  -33.7421  -29.3341   19.7886 C   0  0  0  0  0  0  0  0  0  0  0  0
  -25.8596  -11.5436   20.2855 N   0  0  0  0  0  0  0  0  0  0  0  0
  -26.2344  -12.8274   20.1537 N   0  0  0  0  0  0  0  0  0  0  0  0
  -34.0629  -26.4943   21.9561 N   0  0  0  0  0  0  0  0  0  0  0  0
  -29.9691  -13.6139   20.3580 N   0  0  0  0  0  0  0  0  0  0  0  0
  -25.4645  -15.0543   20.3968 N   0  0  0  0  0  0  0  0  0  0  0  0
  -21.8846  -12.5771   21.5986 N   0  0  0  0  0  0  0  0  0  0  0  0
  -32.5015  -19.6846   18.2725 N   0  0  0  0  0  0  0  0  0  0  0  0
  -31.1041  -25.2580   23.6921 N   0  0  0  0  0  0  0  0  0  0  0  0
  -36.0218  -29.0198   20.8414 N   0  0  0  0  0  0  0  0  0  0  0  0
  -30.1386  -15.6810   21.4946 N   0  0  0  0  0  0  0  0  0  0  0  0
  -39.5846  -28.4547   21.0764 N   0  3  0  0  0  0  0  0  0  0  0  0
  -22.6565  -14.7175   21.3126 O   0  0  0  0  0  0  0  0  0  0  0  0
  -31.6054  -25.9391   21.5224 O   0  0  0  0  0  0  0  0  0  0  0  0
  -33.8843  -28.6898   22.7204 O   0  0  0  0  0  0  0  0  0  0  0  0
  -37.3335  -27.4945   19.6881 O   0  0  0  0  0  0  0  0  0  0  0  0
  -31.8738  -14.9272   20.1994 O   0  0  0  0  0  0  0  0  0  0  0  0
  -21.6205   -7.0138   21.7208 O   0  0  0  0  0  0  0  0  0  0  0  0
  -35.4973  -20.9386   19.6912 O   0  0  0  0  0  0  0  0  0  1  0  0
  -18.6338   -6.8620   26.3533 F   0  0  0  0  0  0  0  0  0  0  0  0
  -22.0757   -5.0757   23.6389 F   0  0  0  0  0  0  0  0  0  0  0  0
  -28.0681  -18.2652   21.9065 Cl  0  0  0  0  0  0  0  0  0  0  0  0
  -30.0230  -21.3319   17.8825 Cl  0  0  0  0  0  0  0  0  0  0  0  0
  1  2  1  0  0  0  0
  1  5  2  0  0  0  0
  2  6  2  0  0  0  0
  3  8  2  0  0  0  0
  3 16  1  0  0  0  0
  4  9  1  0  0  0  0
  4 16  2  0  0  0  0
  5 18  1  0  0  0  0
  6 20  1  0  0  0  0
  7 10  2  0  0  0  0
  7 19  1  0  0  0  0
  8 25  1  0  0  0  0
  9 25  2  0  0  0  0
 10 26  1  0  0  0  0
 11 12  2  0  0  0  0
 11 27  1  0  0  0  0
 12 28  1  0  0  0  0
 13 21  1  0  0  0  0
 13 26  2  0  0  0  0
 14 22  2  0  0  0  0
 14 24  1  0  0  0  0
 15 28  2  0  0  0  0
 15 29  1  0  0  0  0
 16 32  1  0  0  0  0
 17 32  1  0  0  0  0
 17 33  2  0  0  0  0
 17 34  1  0  0  0  0
 18 20  2  0  0  0  0
 18 39  1  0  0  0  0
 19 21  2  0  0  0  0
 19 40  1  0  0  0  0
 20 48  1  0  0  0  0
 21 41  1  0  0  0  0
 22 30  1  0  0  0  0
 22 58  1  0  0  0  0
 23 30  2  0  0  0  0
 23 31  1  0  0  0  0
 23 51  1  0  0  0  0
 24 31  2  0  0  0  0
 24 71  1  0  0  0  0
 25 81  1  0  0  0  0
 26 82  1  0  0  0  0
 27 29  2  0  0  0  0
 27 81  1  0  0  0  0
 28 83  1  0  0  0  0
 29 84  1  0  0  0  0
 30 85  1  0  0  0  0
 31 86  1  0  0  0  0
 32 65  2  0  0  0  0
 33 66  1  0  0  0  0
 33 69  1  0  0  0  0
 34 70  1  0  0  0  0
 34 76  2  0  0  0  0
 35 49  1  0  0  0  0
 35 72  1  0  0  0  0
 35 77  2  0  0  0  0
 36 61  1  0  0  0  0
 36 67  1  0  0  0  0
 36 78  2  0  0  0  0
 37 62  1  0  0  0  0
 37 73  1  0  0  0  0
 37 79  2  0  0  0  0
 38 68  1  0  0  0  0
 38 74  1  0  0  0  0
 38 80  2  0  0  0  0
 39 42  1  0  0  0  0
 40 49  1  0  0  0  0
 41 67  1  0  0  0  0
 42 44  1  0  0  0  0
 43 45  1  0  0  0  0
 43 46  1  0  0  0  0
 44 48  1  0  0  0  0
 45 50  1  0  0  0  0
 46 68  1  0  0  0  0
 47 50  1  0  0  0  0
 47 68  1  0  0  0  0
 48 72  1  0  0  0  0
 49 67  1  0  0  0  0
 50 66  1  0  0  0  0
 52 62  1  0  0  0  0
 53 63  1  0  0  0  0
 54 64  1  0  0  0  0
 55 64  1  0  0  0  0
 56 64  1  0  0  0  0
 57 75  1  0  0  0  0
 58 74  1  0  0  0  0
 59 60  1  0  0  0  0
 59 63  1  0  0  0  0
 60 82  1  0  0  0  0
 61 64  1  0  0  0  0
 61 73  1  0  0  0  0
 62 75  1  0  0  0  0
 63 71  1  0  0  0  0
 65 66  1  0  0  0  0
M  CHG  1  75   1
M  ISO  4  38 100  60 101  74 100  82 101
M  END
> <Batch ID>
0028

> <Smiles>
CNC(C)C(=O)NC(C(=O)N1Cc2cc([101O:1][101CH2:1]CC(C)Nc3cc(C[100NH:0][100C:0](=O)N4CCCC(n5nc(-c6ccc(Oc7ccc(F)cc7F)cc6)c(C(N)=O)c5N)C4)c(Cl)c(C)c3Cl)ccc2CC1C(=O)NC1CCCc2ccccc21)C(C)(C)C

> <Shape>
0.198

> <Color>
0.196

> <Negative vol penalty>
0.000

$$$$

  -OEChem-04052316333D

 85 93  0     1  0  0  0  0  0999 V2000
  -16.5994  -29.5424   23.6076 C   0  0  0  0  0  0  0  0  0  0  0  0
  -17.0492  -29.1962   22.3375 C   0  0  0  0  0  0  0  0  0  0  0  0
  -26.3377  -12.8776   21.4495 C   0  0  0  0  0  0  0  0  0  0  0  0
  -25.9140  -13.4696   19.1457 C   0  0  0  0  0  0  0  0  0  0  0  0
  -17.4707  -30.1445   24.5144 C   0  0  0  0  0  0  0  0  0  0  0  0
  -18.3704  -29.4530   21.9730 C   0  0  0  0  0  0  0  0  0  0  0  0
  -21.9081  -26.0477   18.3131 C   0  0  0  0  0  0  0  0  0  0  0  0
  -25.1382  -12.1666   21.4874 C   0  0  0  0  0  0  0  0  0  0  0  0
  -24.7146  -12.7585   19.1836 C   0  0  0  0  0  0  0  0  0  0  0  0
  -22.2397  -26.1560   16.9633 C   0  0  0  0  0  0  0  0  0  0  0  0
  -23.9926   -9.1575   20.4550 C   0  0  0  0  0  0  0  0  0  0  0  0
  -24.0075   -7.8920   21.0414 C   0  0  0  0  0  0  0  0  0  0  0  0
  -24.2760  -27.3025   17.5618 C   0  0  0  0  0  0  0  0  0  0  0  0
  -27.3578  -21.6672   15.2299 C   0  0  0  0  0  0  0  0  0  0  0  0
  -27.9953  -22.6049   17.7788 C   0  0  0  0  0  0  0  0  0  0  0  0
  -22.3782   -8.6263   22.6672 C   0  0  0  0  0  0  0  0  0  0  0  0
  -26.7255  -13.5292   20.2786 C   0  0  0  0  0  0  0  0  0  0  0  0
  -29.2333  -13.7728   19.8792 C   0  0  0  0  0  0  0  0  0  0  0  0
  -18.8058  -30.4000   24.1641 C   0  0  0  0  0  0  0  0  0  0  0  0
  -22.7541  -26.5765   19.2986 C   0  0  0  0  0  0  0  0  0  0  0  0
  -19.2600  -30.0604   22.8754 C   0  0  0  0  0  0  0  0  0  0  0  0
  -23.9541  -27.1973   18.9235 C   0  0  0  0  0  0  0  0  0  0  0  0
  -27.1178  -23.0003   15.5628 C   0  0  0  0  0  0  0  0  0  0  0  0
  -28.2353  -21.2718   17.4459 C   0  0  0  0  0  0  0  0  0  0  0  0
  -24.3267  -12.1070   20.3544 C   0  0  0  0  0  0  0  0  0  0  0  0
  -23.4224  -26.7860   16.5873 C   0  0  0  0  0  0  0  0  0  0  0  0
  -23.1706  -10.1575   20.9747 C   0  0  0  0  0  0  0  0  0  0  0  0
  -23.2002   -7.6264   22.1475 C   0  0  0  0  0  0  0  0  0  0  0  0
  -22.3633   -9.8918   22.0808 C   0  0  0  0  0  0  0  0  0  0  0  0
  -27.9165  -20.8029   16.1714 C   0  0  0  0  0  0  0  0  0  0  0  0
  -27.4366  -23.4692   16.8372 C   0  0  0  0  0  0  0  0  0  0  0  0
  -27.9641  -14.2643   20.2390 C   0  0  0  0  0  0  0  0  0  0  0  0
  -30.0687  -14.8559   20.0030 C   0  0  0  0  0  0  0  0  0  0  0  0
  -29.6222  -12.4550   19.4695 C   0  0  0  0  0  0  0  0  0  0  0  0
  -22.4709  -28.8256   21.5268 C   0  0  0  0  0  0  0  0  0  0  0  0
  -25.4040  -27.7643   22.4171 C   0  0  0  0  0  0  0  0  0  0  0  0
  -28.3024  -26.1879   21.5448 C   0  0  0  0  0  0  0  0  0  0  0  0
  -29.1701  -20.7569   19.7278 C   0  0  0  0  0  0  0  0  0  0  0  0
  -19.6976  -31.0958   25.1617 C   0  0  0  0  0  0  0  0  0  0  0  0
  -22.3951  -26.4278   20.7516 C   0  0  0  0  0  0  0  0  0  0  0  0
  -24.9065  -27.7637   19.9436 C   0  0  0  0  0  0  0  0  0  0  0  0
  -21.1833  -30.9926   24.8265 C   0  0  0  0  0  0  0  0  0  0  0  0
  -30.5667  -18.9404   22.4531 C   0  0  0  0  0  0  0  0  0  0  0  0
  -21.4209  -31.3049   23.3524 C   0  0  0  0  0  0  0  0  0  0  0  0
  -30.1785  -17.4896   22.1587 C   0  0  0  0  0  0  0  0  0  0  0  0
  -29.4633  -19.9162   22.0478 C   0  0  0  0  0  0  0  0  0  0  0  0
  -28.6052  -18.3308   20.3686 C   0  0  0  0  0  0  0  0  0  0  0  0
  -20.6928  -30.3002   22.4513 C   0  0  1  0  0  0  0  0  0  0  0  0
  -23.0804  -27.4574   21.6448 C   0  0  1  0  0  0  0  0  0  0  0  0
  -29.7116  -17.3161   20.7001 C   0  0  2  0  0  0  0  0  0  0  0  0
  -30.5621  -25.1375   21.8415 C   0  0  0  0  0  0  0  0  0  0  0  0
  -24.0806  -24.3048   12.5497 C   0  0  0  0  0  0  0  0  0  0  0  0
  -22.3308  -26.4703   13.3734 C   0  0  0  0  0  0  0  0  0  0  0  0
  -26.3705  -30.6517   22.2211 C   0  0  0  0  0  0  0  0  0  0  0  0
  -28.7216  -29.7912   22.2183 C   0  0  0  0  0  0  0  0  0  0  0  0
  -27.2503  -29.3887   24.1921 C   0  0  0  0  0  0  0  0  0  0  0  0
  -27.1213  -23.5468   22.1679 C   0  0  0  0  0  0  0  0  0  0  0  0
  -26.5162  -23.8977   14.5217 C   0  0  0  0  0  0  0  0  0  0  0  0
  -26.8252  -28.1160   22.0493 C   0  0  1  0  0  0  0  0  0  0  0  0
  -29.0909  -25.0818   22.2226 C   0  0  2  0  0  0  0  0  0  0  0  0
  -24.4735  -25.1250   13.7737 C   0  0  1  0  0  0  0  0  0  0  0  0
  -23.2815  -25.8639   14.3996 C   0  0  1  0  0  0  0  0  0  1  0  0
  -27.2732  -29.4781   22.6506 C   0  0  0  0  0  0  0  0  0  0  0  0
  -27.9866  -15.5589   20.5670 N   0  0  0  0  0  0  0  0  0  0  0  0
  -29.2800  -15.8900   20.4138 N   0  0  0  0  0  0  0  0  0  0  0  0
  -24.5080  -27.5991   21.3513 N   0  0  0  0  0  0  0  0  0  0  0  0
  -29.0752  -19.6958   20.6529 N   0  0  0  0  0  0  0  0  0  0  0  0
  -31.3937  -15.0151   19.7995 N   0  0  0  0  0  0  0  0  0  0  0  0
  -28.6375  -11.4603   19.3958 N   0  0  0  0  0  0  0  0  0  0  0  0
  -28.8049  -20.4203   18.4248 N   0  0  0  0  0  0  0  0  0  0  0  0
  -21.4207  -29.0506   22.3963 N   0  0  0  0  0  0  0  0  0  0  0  0
  -27.6460  -26.9823   22.4609 N   0  0  0  0  0  0  0  0  0  0  0  0
  -28.5540  -23.7480   21.8306 N   0  3  0  0  0  0  0  0  0  0  0  0
  -25.0816  -24.1932   14.7668 N   0  3  0  0  0  0  0  0  0  0  0  0
  -30.8107  -12.1639   19.1933 O   0  0  0  0  0  0  0  0  0  0  0  0
  -22.9210  -29.6191   20.7085 O   0  0  0  0  0  0  0  0  0  0  0  0
  -25.1016  -27.6335   23.6058 O   0  0  0  0  0  0  0  0  0  0  0  0
  -28.2749  -26.3349   20.3249 O   0  0  0  0  0  0  0  0  0  0  0  0
  -29.5736  -21.8741   20.0610 O   0  0  0  0  0  0  0  0  0  0  0  0
  -23.1564  -11.4131   20.3910 O   0  0  0  0  0  0  0  0  0  0  0  0
  -23.7481  -26.8937   15.2704 O   0  0  0  0  0  0  0  0  0  1  0  0
  -23.2135   -6.4106   22.7095 F   0  0  0  0  0  0  0  0  0  0  0  0
  -21.5707  -10.8481   22.5839 F   0  0  0  0  0  0  0  0  0  0  0  0
  -28.1966  -19.1597   15.7180 Cl  0  0  0  0  0  0  0  0  0  0  0  0
  -27.1524  -25.1120   17.2845 Cl  0  0  0  0  0  0  0  0  0  0  0  0
  1  2  1  0  0  0  0
  1  5  2  0  0  0  0
  2  6  2  0  0  0  0
  3  8  2  0  0  0  0
  3 17  1  0  0  0  0
  4  9  1  0  0  0  0
  4 17  2  0  0  0  0
  5 19  1  0  0  0  0
  6 21  1  0  0  0  0
  7 10  2  0  0  0  0
  7 20  1  0  0  0  0
  8 25  1  0  0  0  0
  9 25  2  0  0  0  0
 10 26  1  0  0  0  0
 11 12  2  0  0  0  0
 11 27  1  0  0  0  0
 12 28  1  0  0  0  0
 13 22  1  0  0  0  0
 13 26  2  0  0  0  0
 14 23  1  0  0  0  0
 14 30  2  0  0  0  0
 15 24  2  0  0  0  0
 15 31  1  0  0  0  0
 16 28  2  0  0  0  0
 16 29  1  0  0  0  0
 17 32  1  0  0  0  0
 18 32  1  0  0  0  0
 18 33  2  0  0  0  0
 18 34  1  0  0  0  0
 19 21  2  0  0  0  0
 19 39  1  0  0  0  0
 20 22  2  0  0  0  0
 20 40  1  0  0  0  0
 21 48  1  0  0  0  0
 22 41  1  0  0  0  0
 23 31  2  0  0  0  0
 23 58  1  0  0  0  0
 24 30  1  0  0  0  0
 24 70  1  0  0  0  0
 25 80  1  0  0  0  0
 26 81  1  0  0  0  0
 27 29  2  0  0  0  0
 27 80  1  0  0  0  0
 28 82  1  0  0  0  0
 29 83  1  0  0  0  0
 30 84  1  0  0  0  0
 31 85  1  0  0  0  0
 32 64  2  0  0  0  0
 33 65  1  0  0  0  0
 33 68  1  0  0  0  0
 34 69  1  0  0  0  0
 34 75  2  0  0  0  0
 35 49  1  0  0  0  0
 35 71  1  0  0  0  0
 35 76  2  0  0  0  0
 36 59  1  0  0  0  0
 36 66  1  0  0  0  0
 36 77  2  0  0  0  0
 37 60  1  0  0  0  0
 37 72  1  0  0  0  0
 37 78  2  0  0  0  0
 38 67  1  0  0  0  0
 38 70  1  0  0  0  0
 38 79  2  0  0  0  0
 39 42  1  0  0  0  0
 40 49  1  0  0  0  0
 41 66  1  0  0  0  0
 42 44  1  0  0  0  0
 43 45  1  0  0  0  0
 43 46  1  0  0  0  0
 44 48  1  0  0  0  0
 45 50  1  0  0  0  0
 46 67  1  0  0  0  0
 47 50  1  0  0  0  0
 47 67  1  0  0  0  0
 48 71  1  0  0  0  0
 49 66  1  0  0  0  0
 50 65  1  0  0  0  0
 51 60  1  0  0  0  0
 52 61  1  0  0  0  0
 53 62  1  0  0  0  0
 54 63  1  0  0  0  0
 55 63  1  0  0  0  0
 56 63  1  0  0  0  0
 57 73  1  0  0  0  0
 58 74  1  0  0  0  0
 59 63  1  0  0  0  0
 59 72  1  0  0  0  0
 60 73  1  0  0  0  0
 61 62  1  0  0  0  0
 61 74  1  0  0  0  0
 62 81  1  0  0  0  0
 64 65  1  0  0  0  0
M  CHG  2  73   1  74   1
M  ISO  4  38 100  62 101  70 100  81 101
M  END
> <Batch ID>
0028

> <Smiles>
CNC(C)C(=O)NC(C(=O)N1Cc2cc([101O:1][101CH:1](C)C(C)NCc3cc(Cl)c([100NH:0][100C:0](=O)N4CCCC(n5nc(-c6ccc(Oc7ccc(F)cc7F)cc6)c(C(N)=O)c5N)C4)cc3Cl)ccc2CC1C(=O)NC1CCCc2ccccc21)C(C)(C)C

> <Shape>
0.265

> <Color>
0.097

> <Negative vol penalty>
0.000

$$$$
