
  -OEChem-04052316363D

 84 92  0     1  0  0  0  0  0999 V2000
  -30.8732  -26.8223   16.4131 C   0  0  0  0  0  0  0  0  0  0  0  0
  -29.4842  -26.7486   16.4416 C   0  0  0  0  0  0  0  0  0  0  0  0
  -25.9692  -14.2079   21.7948 C   0  0  0  0  0  0  0  0  0  0  0  0
  -24.9954  -15.2316   19.8351 C   0  0  0  0  0  0  0  0  0  0  0  0
  -31.5792  -27.1058   17.5815 C   0  0  0  0  0  0  0  0  0  0  0  0
  -28.8005  -26.9573   17.6388 C   0  0  0  0  0  0  0  0  0  0  0  0
  -23.3322  -29.6244   18.3387 C   0  0  0  0  0  0  0  0  0  0  0  0
  -24.9096  -13.3023   21.8483 C   0  0  0  0  0  0  0  0  0  0  0  0
  -23.9358  -14.3260   19.8885 C   0  0  0  0  0  0  0  0  0  0  0  0
  -22.0482  -29.1044   18.4962 C   0  0  0  0  0  0  0  0  0  0  0  0
  -23.9811  -10.4588   20.2720 C   0  0  0  0  0  0  0  0  0  0  0  0
  -24.2866   -9.1159   20.4935 C   0  0  0  0  0  0  0  0  0  0  0  0
  -22.2591  -29.3247   20.8891 C   0  0  0  0  0  0  0  0  0  0  0  0
  -22.9537   -9.1451   22.5083 C   0  0  0  0  0  0  0  0  0  0  0  0
  -26.0121  -15.1726   20.7882 C   0  0  0  0  0  0  0  0  0  0  0  0
  -28.3246  -15.9524   20.0453 C   0  0  0  0  0  0  0  0  0  0  0  0
  -30.9032  -27.3276   18.7917 C   0  0  0  0  0  0  0  0  0  0  0  0
  -24.0947  -29.9889   19.4577 C   0  0  0  0  0  0  0  0  0  0  0  0
  -29.4982  -27.2427   18.8248 C   0  0  0  0  0  0  0  0  0  0  0  0
  -23.5514  -29.8515   20.7430 C   0  0  0  0  0  0  0  0  0  0  0  0
  -22.4549  -23.8167   20.0993 C   0  0  0  0  0  0  0  0  0  0  0  0
  -23.8929  -13.3614   20.8952 C   0  0  0  0  0  0  0  0  0  0  0  0
  -21.5126  -28.9518   19.7717 C   0  0  0  0  0  0  0  0  0  0  0  0
  -23.1620  -11.1448   21.1687 C   0  0  0  0  0  0  0  0  0  0  0  0
  -23.7729   -8.4591   21.6116 C   0  0  0  0  0  0  0  0  0  0  0  0
  -22.6482  -10.4880   22.2868 C   0  0  0  0  0  0  0  0  0  0  0  0
  -27.1060  -16.1087   20.7327 C   0  0  0  0  0  0  0  0  0  0  0  0
  -21.6797  -24.7041   19.3937 C   0  0  0  0  0  0  0  0  0  0  0  0
  -21.6636  -23.4627   21.2085 C   0  0  0  0  0  0  0  0  0  0  0  0
  -29.0164  -17.1101   20.3053 C   0  0  0  0  0  0  0  0  0  0  0  0
  -28.7895  -14.8585   19.2434 C   0  0  0  0  0  0  0  0  0  0  0  0
  -26.8608  -29.0303   20.6960 C   0  0  0  0  0  0  0  0  0  0  0  0
  -26.3700  -31.5169   22.7205 C   0  0  0  0  0  0  0  0  0  0  0  0
  -24.1585  -33.6452   24.2124 C   0  0  0  0  0  0  0  0  0  0  0  0
  -27.2871  -22.6502   21.7777 C   0  0  0  0  0  0  0  0  0  0  0  0
  -31.7120  -27.5842   20.0385 C   0  0  0  0  0  0  0  0  0  0  0  0
  -25.4678  -30.5733   19.2695 C   0  0  0  0  0  0  0  0  0  0  0  0
  -24.3213  -30.2467   21.9757 C   0  0  0  0  0  0  0  0  0  0  0  0
  -30.8914  -28.1625   21.1885 C   0  0  0  0  0  0  0  0  0  0  0  0
  -29.4797  -20.5320   23.6169 C   0  0  0  0  0  0  0  0  0  0  0  0
  -29.5890  -27.3868   21.3579 C   0  0  0  0  0  0  0  0  0  0  0  0
  -29.2299  -19.1440   23.0243 C   0  0  0  0  0  0  0  0  0  0  0  0
  -28.1959  -21.3561   23.6846 C   0  0  0  0  0  0  0  0  0  0  0  0
  -27.2159  -20.0831   21.8156 C   0  0  0  0  0  0  0  0  0  0  0  0
  -28.7192  -27.4875   20.0989 C   0  0  1  0  0  0  0  0  0  0  0  0
  -26.3521  -30.4311   20.5046 C   0  0  1  0  0  0  0  0  0  0  0  0
  -28.4916  -19.2349   21.6752 C   0  0  2  0  0  0  0  0  0  0  0  0
  -21.9347  -25.4350   18.1380 C   0  0  0  0  0  0  0  0  0  0  0  0
  -24.0508  -35.5459   25.8474 C   0  0  0  0  0  0  0  0  0  0  0  0
  -26.7488  -29.5531   25.0247 C   0  0  0  0  0  0  0  0  0  0  0  0
  -25.7117  -31.2480   26.5479 C   0  0  0  0  0  0  0  0  0  0  0  0
  -27.8404  -31.7780   25.3602 C   0  0  0  0  0  0  0  0  0  0  0  0
  -23.0423  -35.4836   22.1793 C   0  0  0  0  0  0  0  0  0  0  0  0
  -23.8104  -23.3466   19.7604 C   0  0  0  0  0  0  0  0  0  0  0  0
  -24.9527  -24.3309   20.1136 C   0  0  0  0  0  0  0  0  0  0  0  0
  -18.9291  -26.6674   20.8390 C   0  0  0  0  0  0  0  0  0  0  0  0
  -19.3260  -25.6779   19.7412 C   0  0  0  0  0  0  0  0  0  0  0  0
  -26.3496  -23.8047   19.7909 C   0  0  0  0  0  0  0  0  0  0  0  0
  -20.0004  -27.7129   21.1261 C   0  0  0  0  0  0  0  0  0  1  0  0
  -25.6791  -31.6918   24.0513 C   0  0  1  0  0  0  0  0  0  0  0  0
  -24.1707  -35.1536   24.3830 C   0  0  2  0  0  0  0  0  0  0  0  0
  -26.4810  -31.0583   25.2231 C   0  0  0  0  0  0  0  0  0  0  0  0
  -27.0254  -17.2738   21.3808 N   0  0  0  0  0  0  0  0  0  0  0  0
  -20.4767  -24.0754   21.2118 N   0  0  0  0  0  0  0  0  0  0  0  0
  -20.5166  -24.8234   20.0959 N   0  0  0  0  0  0  0  0  0  0  0  0
  -28.2020  -17.8601   21.1018 N   0  0  0  0  0  0  0  0  0  0  0  0
  -25.6620  -30.8074   21.7401 N   0  0  0  0  0  0  0  0  0  0  0  0
  -27.5453  -21.4043   22.3729 N   0  0  0  0  0  0  0  0  0  0  0  0
  -30.2358  -17.5495   19.9280 N   0  0  0  0  0  0  0  0  0  0  0  0
  -27.9520  -13.7467   19.0798 N   0  0  0  0  0  0  0  0  0  0  0  0
  -28.0525  -28.7709   20.0465 N   0  0  0  0  0  0  0  0  0  0  0  0
  -25.4342  -33.1223   24.1992 N   0  0  0  0  0  0  0  0  0  0  0  0
  -26.6737  -22.6060   20.5317 N   0  0  0  0  0  0  0  0  0  0  0  0
  -23.0364  -35.7685   23.6373 N   0  3  0  0  0  0  0  0  0  0  0  0
  -29.9210  -14.8598   18.7019 O   0  0  0  0  0  0  0  0  0  0  0  0
  -26.2203  -28.2436   21.3834 O   0  0  0  0  0  0  0  0  0  0  0  0
  -27.4935  -31.9985   22.5545 O   0  0  0  0  0  0  0  0  0  0  0  0
  -23.1207  -32.9954   24.1056 O   0  0  0  0  0  0  0  0  0  0  0  0
  -27.5863  -23.7223   22.3144 O   0  0  0  0  0  0  0  0  0  0  0  0
  -22.8590  -12.4777   20.9470 O   0  0  0  0  0  0  0  0  0  0  0  0
  -20.2598  -28.4439   19.9283 O   0  0  0  0  0  0  0  0  0  1  0  0
  -24.0651   -7.1691   21.8234 F   0  0  0  0  0  0  0  0  0  0  0  0
  -21.8597  -11.1414   23.1511 F   0  0  0  0  0  0  0  0  0  0  0  0
  -22.0886  -22.3889   22.4509 Cl  0  0  0  0  0  0  0  0  0  0  0  0
  1  2  1  0  0  0  0
  1  5  2  0  0  0  0
  2  6  2  0  0  0  0
  3  8  2  0  0  0  0
  3 15  1  0  0  0  0
  4  9  1  0  0  0  0
  4 15  2  0  0  0  0
  5 17  1  0  0  0  0
  6 19  1  0  0  0  0
  7 10  2  0  0  0  0
  7 18  1  0  0  0  0
  8 22  1  0  0  0  0
  9 22  2  0  0  0  0
 10 23  1  0  0  0  0
 11 12  2  0  0  0  0
 11 24  1  0  0  0  0
 12 25  1  0  0  0  0
 13 20  1  0  0  0  0
 13 23  2  0  0  0  0
 14 25  2  0  0  0  0
 14 26  1  0  0  0  0
 15 27  1  0  0  0  0
 16 27  1  0  0  0  0
 16 30  2  0  0  0  0
 16 31  1  0  0  0  0
 17 19  2  0  0  0  0
 17 36  1  0  0  0  0
 18 20  2  0  0  0  0
 18 37  1  0  0  0  0
 19 45  1  0  0  0  0
 20 38  1  0  0  0  0
 21 28  2  0  0  0  0
 21 29  1  0  0  0  0
 21 54  1  0  0  0  0
 22 80  1  0  0  0  0
 23 81  1  0  0  0  0
 24 26  2  0  0  0  0
 24 80  1  0  0  0  0
 25 82  1  0  0  0  0
 26 83  1  0  0  0  0
 27 63  2  0  0  0  0
 28 48  1  0  0  0  0
 28 65  1  0  0  0  0
 29 64  2  0  0  0  0
 29 84  1  0  0  0  0
 30 66  1  0  0  0  0
 30 69  1  0  0  0  0
 31 70  1  0  0  0  0
 31 75  2  0  0  0  0
 32 46  1  0  0  0  0
 32 71  1  0  0  0  0
 32 76  2  0  0  0  0
 33 60  1  0  0  0  0
 33 67  1  0  0  0  0
 33 77  2  0  0  0  0
 34 61  1  0  0  0  0
 34 72  1  0  0  0  0
 34 78  2  0  0  0  0
 35 68  1  0  0  0  0
 35 73  1  0  0  0  0
 35 79  2  0  0  0  0
 36 39  1  0  0  0  0
 37 46  1  0  0  0  0
 38 67  1  0  0  0  0
 39 41  1  0  0  0  0
 40 42  1  0  0  0  0
 40 43  1  0  0  0  0
 41 45  1  0  0  0  0
 42 47  1  0  0  0  0
 43 68  1  0  0  0  0
 44 47  1  0  0  0  0
 44 68  1  0  0  0  0
 45 71  1  0  0  0  0
 46 67  1  0  0  0  0
 47 66  1  0  0  0  0
 49 61  1  0  0  0  0
 50 62  1  0  0  0  0
 51 62  1  0  0  0  0
 52 62  1  0  0  0  0
 53 74  1  0  0  0  0
 54 55  1  0  0  0  0
 55 58  1  0  0  0  0
 56 57  1  0  0  0  0
 56 59  1  0  0  0  0
 57 65  1  0  0  0  0
 58 73  1  0  0  0  0
 59 81  1  0  0  0  0
 60 62  1  0  0  0  0
 60 72  1  0  0  0  0
 61 74  1  0  0  0  0
 63 66  1  0  0  0  0
 64 65  1  0  0  0  0
M  CHG  1  74   1
M  ISO  4  35 100  59 101  73 100  81 101
M  END
> <Batch ID>
0029

> <Smiles>
CNC(C)C(=O)NC(C(=O)N1Cc2cc([101O:1][101CH2:1]CCn3nc(Cl)c(CCC[100NH:0][100C:0](=O)N4CCCC(n5nc(-c6ccc(Oc7ccc(F)cc7F)cc6)c(C(N)=O)c5N)C4)c3C)ccc2CC1C(=O)NC1CCCc2ccccc21)C(C)(C)C

> <Shape>
0.291

> <Color>
0.081

> <Negative vol penalty>
0.000

$$$$

  -OEChem-04052316363D

 87 95  0     1  0  0  0  0  0999 V2000
  -28.4103  -35.1644   19.5838 C   0  0  0  0  0  0  0  0  0  0  0  0
  -28.1852  -33.8580   20.0060 C   0  0  0  0  0  0  0  0  0  0  0  0
  -22.9650  -10.1280   20.5451 C   0  0  0  0  0  0  0  0  0  0  0  0
  -24.4382   -9.0579   22.1330 C   0  0  0  0  0  0  0  0  0  0  0  0
  -27.6733  -36.2111   20.1364 C   0  0  0  0  0  0  0  0  0  0  0  0
  -27.2238  -33.5977   20.9818 C   0  0  0  0  0  0  0  0  0  0  0  0
  -24.3040  -29.6261   19.8217 C   0  0  0  0  0  0  0  0  0  0  0  0
  -22.1883   -8.9710   20.4858 C   0  0  0  0  0  0  0  0  0  0  0  0
  -23.6615   -7.9008   22.0739 C   0  0  0  0  0  0  0  0  0  0  0  0
  -24.8444  -28.3573   20.0260 C   0  0  0  0  0  0  0  0  0  0  0  0
  -20.7392   -6.7959   23.3622 C   0  0  0  0  0  0  0  0  0  0  0  0
  -20.4183   -6.1702   24.5668 C   0  0  0  0  0  0  0  0  0  0  0  0
  -23.6249  -28.1783   22.0996 C   0  0  0  0  0  0  0  0  0  0  0  0
  -27.7268  -24.2549   20.9558 C   0  0  0  0  0  0  0  0  0  0  0  0
  -25.4319  -23.5010   20.9188 C   0  0  0  0  0  0  0  0  0  0  0  0
  -21.5398   -4.1636   23.8233 C   0  0  0  0  0  0  0  0  0  0  0  0
  -24.0900  -10.1715   21.3686 C   0  0  0  0  0  0  0  0  0  0  0  0
  -24.7340  -12.4533   22.3101 C   0  0  0  0  0  0  0  0  0  0  0  0
  -26.6956  -35.9624   21.1125 C   0  0  0  0  0  0  0  0  0  0  0  0
  -23.4270  -30.1860   20.7618 C   0  0  0  0  0  0  0  0  0  0  0  0
  -26.4740  -34.6422   21.5489 C   0  0  0  0  0  0  0  0  0  0  0  0
  -23.0727  -29.4534   21.9036 C   0  0  0  0  0  0  0  0  0  0  0  0
  -26.3716  -24.5192   20.7582 C   0  0  0  0  0  0  0  0  0  0  0  0
  -28.1424  -22.9724   21.3139 C   0  0  0  0  0  0  0  0  0  0  0  0
  -22.5365   -7.8574   21.2502 C   0  0  0  0  0  0  0  0  0  0  0  0
  -24.5072  -27.6343   21.1664 C   0  0  0  0  0  0  0  0  0  0  0  0
  -21.4603   -6.1054   22.3880 C   0  0  0  0  0  0  0  0  0  0  0  0
  -27.2027  -21.9542   21.4745 C   0  0  0  0  0  0  0  0  0  0  0  0
  -20.8187   -4.8541   24.7974 C   0  0  0  0  0  0  0  0  0  0  0  0
  -21.8606   -4.7893   22.6186 C   0  0  0  0  0  0  0  0  0  0  0  0
  -25.8474  -22.2185   21.2770 C   0  0  0  0  0  0  0  0  0  0  0  0
  -24.8931  -11.3663   21.4298 C   0  0  0  0  0  0  0  0  0  0  0  0
  -25.7390  -13.3239   21.9657 C   0  0  0  0  0  0  0  0  0  0  0  0
  -23.7646  -12.6577   23.3465 C   0  0  0  0  0  0  0  0  0  0  0  0
  -23.4809  -32.7613   22.6242 C   0  0  0  0  0  0  0  0  0  0  0  0
  -20.4443  -31.8495   23.3102 C   0  0  0  0  0  0  0  0  0  0  0  0
  -18.1366  -29.3398   23.4593 C   0  0  0  0  0  0  0  0  0  0  0  0
  -31.0584  -14.3232   20.6051 C   0  0  0  0  0  0  0  0  0  0  0  0
  -25.9572  -37.1314   21.7147 C   0  0  0  0  0  0  0  0  0  0  0  0
  -22.8317  -31.5449   20.5136 C   0  0  0  0  0  0  0  0  0  0  0  0
  -22.1197  -30.0012   22.9333 C   0  0  0  0  0  0  0  0  0  0  0  0
  -24.6952  -36.7292   22.4736 C   0  0  0  0  0  0  0  0  0  0  0  0
  -28.8580  -13.3422   17.9835 C   0  0  0  0  0  0  0  0  0  0  0  0
  -24.9791  -35.5448   23.3919 C   0  0  0  0  0  0  0  0  0  0  0  0
  -27.6205  -12.8249   18.7190 C   0  0  0  0  0  0  0  0  0  0  0  0
  -30.1446  -12.9908   18.7273 C   0  0  0  0  0  0  0  0  0  0  0  0
  -28.9406  -12.8954   20.8756 C   0  0  0  0  0  0  0  0  0  0  0  0
  -25.4224  -34.3169   22.5874 C   0  0  1  0  0  0  0  0  0  0  0  0
  -22.3506  -32.2286   21.7897 C   0  0  1  0  0  0  0  0  0  0  0  0
  -27.6154  -13.2741   20.1926 C   0  0  2  0  0  0  0  0  0  0  0  0
  -29.5981  -22.7100   21.5197 C   0  0  0  0  0  0  0  0  0  0  0  0
  -15.7506  -28.8929   24.0952 C   0  0  0  0  0  0  0  0  0  0  0  0
  -21.2153  -31.9454   26.2608 C   0  0  0  0  0  0  0  0  0  0  0  0
  -19.1606  -30.6082   26.7693 C   0  0  0  0  0  0  0  0  0  0  0  0
  -18.9509  -32.8724   25.7436 C   0  0  0  0  0  0  0  0  0  0  0  0
  -17.4445  -28.4792   20.7135 C   0  0  0  0  0  0  0  0  0  0  0  0
  -25.9251  -25.8985   20.3714 C   0  0  0  0  0  0  0  0  0  1  0  0
  -30.0308  -17.3060   23.0294 C   0  0  0  0  0  0  0  0  0  0  0  0
  -29.5796  -18.7552   22.8374 C   0  0  0  0  0  0  0  0  0  0  0  0
  -31.4106  -17.0667   22.4162 C   0  0  0  0  0  0  0  0  0  0  0  0
  -28.1845  -18.9850   23.4261 C   0  0  0  0  0  0  0  0  0  0  0  0
  -31.8432  -15.6140   22.5741 C   0  0  0  0  0  0  0  0  0  0  0  0
  -27.6993  -20.4146   23.2177 C   0  0  0  0  0  0  0  0  0  0  0  0
  -19.8050  -30.9504   24.3406 C   0  0  1  0  0  0  0  0  0  0  0  0
  -16.7027  -29.2593   22.9674 C   0  0  2  0  0  0  0  0  0  0  0  0
  -19.8024  -31.5843   25.7603 C   0  0  0  0  0  0  0  0  0  0  0  0
  -25.9182  -11.5292   20.5893 N   0  0  0  0  0  0  0  0  0  0  0  0
  -26.4124  -12.7287   20.9398 N   0  0  0  0  0  0  0  0  0  0  0  0
  -21.5691  -31.3366   22.6487 N   0  0  0  0  0  0  0  0  0  0  0  0
  -30.0757  -13.4455   20.1181 N   0  0  0  0  0  0  0  0  0  0  0  0
  -26.1035  -14.5328   22.4434 N   0  0  0  0  0  0  0  0  0  0  0  0
  -22.8026  -11.6627   23.5673 N   0  0  0  0  0  0  0  0  0  0  0  0
  -24.2803  -33.6785   21.9691 N   0  0  0  0  0  0  0  0  0  0  0  0
  -18.4782  -30.6232   23.8299 N   0  0  0  0  0  0  0  0  0  0  0  0
  -30.9152  -14.7100   21.9320 N   0  0  0  0  0  0  0  0  0  0  0  0
  -16.5797  -28.2310   21.8957 N   0  3  0  0  0  0  0  0  0  0  0  0
  -23.7418  -13.6995   24.0449 O   0  0  0  0  0  0  0  0  0  0  0  0
  -23.6167  -32.3703   23.7777 O   0  0  0  0  0  0  0  0  0  0  0  0
  -19.9592  -32.9631   23.0949 O   0  0  0  0  0  0  0  0  0  0  0  0
  -18.8783  -28.3612   23.5132 O   0  0  0  0  0  0  0  0  0  0  0  0
  -31.9909  -14.7361   19.9074 O   0  0  0  0  0  0  0  0  0  0  0  0
  -21.7787   -6.7282   21.1929 O   0  0  0  0  0  0  0  0  0  0  0  0
  -25.0337  -26.3959   21.3686 O   0  0  0  0  0  0  0  0  0  1  0  0
  -27.6205  -20.7032   21.8242 O   0  0  0  0  0  0  0  0  0  0  0  0
  -20.5118   -4.2539   25.9549 F   0  0  0  0  0  0  0  0  0  0  0  0
  -22.5547   -4.1212   21.6870 F   0  0  0  0  0  0  0  0  0  0  0  0
  -24.6617  -20.9795   21.4678 Cl  0  0  0  0  0  0  0  0  0  0  0  0
  1  2  1  0  0  0  0
  1  5  2  0  0  0  0
  2  6  2  0  0  0  0
  3  8  2  0  0  0  0
  3 17  1  0  0  0  0
  4  9  1  0  0  0  0
  4 17  2  0  0  0  0
  5 19  1  0  0  0  0
  6 21  1  0  0  0  0
  7 10  2  0  0  0  0
  7 20  1  0  0  0  0
  8 25  1  0  0  0  0
  9 25  2  0  0  0  0
 10 26  1  0  0  0  0
 11 12  2  0  0  0  0
 11 27  1  0  0  0  0
 12 29  1  0  0  0  0
 13 22  1  0  0  0  0
 13 26  2  0  0  0  0
 14 23  1  0  0  0  0
 14 24  2  0  0  0  0
 15 23  2  0  0  0  0
 15 31  1  0  0  0  0
 16 29  2  0  0  0  0
 16 30  1  0  0  0  0
 17 32  1  0  0  0  0
 18 32  1  0  0  0  0
 18 33  2  0  0  0  0
 18 34  1  0  0  0  0
 19 21  2  0  0  0  0
 19 39  1  0  0  0  0
 20 22  2  0  0  0  0
 20 40  1  0  0  0  0
 21 48  1  0  0  0  0
 22 41  1  0  0  0  0
 23 57  1  0  0  0  0
 24 28  1  0  0  0  0
 24 51  1  0  0  0  0
 25 82  1  0  0  0  0
 26 83  1  0  0  0  0
 27 30  2  0  0  0  0
 27 82  1  0  0  0  0
 28 31  2  0  0  0  0
 28 84  1  0  0  0  0
 29 85  1  0  0  0  0
 30 86  1  0  0  0  0
 31 87  1  0  0  0  0
 32 67  2  0  0  0  0
 33 68  1  0  0  0  0
 33 71  1  0  0  0  0
 34 72  1  0  0  0  0
 34 77  2  0  0  0  0
 35 49  1  0  0  0  0
 35 73  1  0  0  0  0
 35 78  2  0  0  0  0
 36 64  1  0  0  0  0
 36 69  1  0  0  0  0
 36 79  2  0  0  0  0
 37 65  1  0  0  0  0
 37 74  1  0  0  0  0
 37 80  2  0  0  0  0
 38 70  1  0  0  0  0
 38 75  1  0  0  0  0
 38 81  2  0  0  0  0
 39 42  1  0  0  0  0
 40 49  1  0  0  0  0
 41 69  1  0  0  0  0
 42 44  1  0  0  0  0
 43 45  1  0  0  0  0
 43 46  1  0  0  0  0
 44 48  1  0  0  0  0
 45 50  1  0  0  0  0
 46 70  1  0  0  0  0
 47 50  1  0  0  0  0
 47 70  1  0  0  0  0
 48 73  1  0  0  0  0
 49 69  1  0  0  0  0
 50 68  1  0  0  0  0
 52 65  1  0  0  0  0
 53 66  1  0  0  0  0
 54 66  1  0  0  0  0
 55 66  1  0  0  0  0
 56 76  1  0  0  0  0
 57 83  1  0  0  0  0
 58 59  1  0  0  0  0
 58 60  1  0  0  0  0
 59 61  1  0  0  0  0
 60 62  1  0  0  0  0
 61 63  1  0  0  0  0
 62 75  1  0  0  0  0
 63 84  1  0  0  0  0
 64 66  1  0  0  0  0
 64 74  1  0  0  0  0
 65 76  1  0  0  0  0
 67 68  1  0  0  0  0
M  CHG  1  76   1
M  ISO  4  38 100  57 101  75 100  83 101
M  END
> <Batch ID>
0029

> <Smiles>
CNC(C)C(=O)NC(C(=O)N1Cc2cc([101O:1][101CH2:1]c3cc(C)c(OCCCCCC[100NH:0][100C:0](=O)N4CCCC(n5nc(-c6ccc(Oc7ccc(F)cc7F)cc6)c(C(N)=O)c5N)C4)c(Cl)c3)ccc2CC1C(=O)NC1CCCc2ccccc21)C(C)(C)C

> <Shape>
0.309

> <Color>
0.139

> <Negative vol penalty>
0.000

$$$$

  -OEChem-04052316363D

 86 94  0     1  0  0  0  0  0999 V2000
  -26.5346  -19.7150   19.2192 C   0  0  0  0  0  0  0  0  0  0  0  0
  -27.3704  -20.3703   20.1177 C   0  0  0  0  0  0  0  0  0  0  0  0
  -23.0041   -9.8924   19.9788 C   0  0  0  0  0  0  0  0  0  0  0  0
  -23.7297   -9.9413   22.2828 C   0  0  0  0  0  0  0  0  0  0  0  0
  -26.8672  -19.6689   17.8659 C   0  0  0  0  0  0  0  0  0  0  0  0
  -28.5399  -20.9790   19.6637 C   0  0  0  0  0  0  0  0  0  0  0  0
  -29.2148  -25.5976   21.6279 C   0  0  0  0  0  0  0  0  0  0  0  0
  -22.2391   -8.7565   20.2438 C   0  0  0  0  0  0  0  0  0  0  0  0
  -22.9646   -8.8054   22.5478 C   0  0  0  0  0  0  0  0  0  0  0  0
  -29.6934  -25.6698   22.9354 C   0  0  0  0  0  0  0  0  0  0  0  0
  -23.2132   -5.4674   22.0714 C   0  0  0  0  0  0  0  0  0  0  0  0
  -23.8022   -4.4500   22.8221 C   0  0  0  0  0  0  0  0  0  0  0  0
  -31.9110  -26.1080   22.0931 C   0  0  0  0  0  0  0  0  0  0  0  0
  -31.8855  -17.2453   21.5426 C   0  0  0  0  0  0  0  0  0  0  0  0
  -30.3681  -18.9795   23.1151 C   0  0  0  0  0  0  0  0  0  0  0  0
  -22.0783   -4.6885   24.4979 C   0  0  0  0  0  0  0  0  0  0  0  0
  -23.7495  -10.4847   20.9983 C   0  0  0  0  0  0  0  0  0  0  0  0
  -24.1315  -13.0010   20.8255 C   0  0  0  0  0  0  0  0  0  0  0  0
  -28.0365  -20.2857   17.3936 C   0  0  0  0  0  0  0  0  0  0  0  0
  -30.0842  -25.7696   20.5412 C   0  0  0  0  0  0  0  0  0  0  0  0
  -28.8892  -20.9400   18.3031 C   0  0  0  0  0  0  0  0  0  0  0  0
  -31.4404  -26.0400   20.7728 C   0  0  0  0  0  0  0  0  0  0  0  0
  -32.4225  -18.4657   21.9523 C   0  0  0  0  0  0  0  0  0  0  0  0
  -31.6639  -19.3328   22.7385 C   0  0  0  0  0  0  0  0  0  0  0  0
  -30.5897  -16.8920   21.9191 C   0  0  0  0  0  0  0  0  0  0  0  0
  -22.2193   -8.2131   21.5283 C   0  0  0  0  0  0  0  0  0  0  0  0
  -31.0422  -25.9221   23.1681 C   0  0  0  0  0  0  0  0  0  0  0  0
  -22.0568   -6.0955   22.5340 C   0  0  0  0  0  0  0  0  0  0  0  0
  -23.2348   -4.0605   24.0353 C   0  0  0  0  0  0  0  0  0  0  0  0
  -21.4894   -5.7060   23.7473 C   0  0  0  0  0  0  0  0  0  0  0  0
  -29.8310  -17.7591   22.7054 C   0  0  0  0  0  0  0  0  0  0  0  0
  -24.5404  -11.6577   20.7251 C   0  0  0  0  0  0  0  0  0  0  0  0
  -25.2402  -13.7256   20.4619 C   0  0  0  0  0  0  0  0  0  0  0  0
  -22.8629  -13.5453   21.2130 C   0  0  0  0  0  0  0  0  0  0  0  0
  -31.0251  -23.9490   18.1114 C   0  0  0  0  0  0  0  0  0  0  0  0
  -32.5090  -26.6703   17.1549 C   0  0  0  0  0  0  0  0  0  0  0  0
  -33.8452  -29.6936   18.0039 C   0  0  0  0  0  0  0  0  0  0  0  0
  -30.7185  -14.6934   20.6961 C   0  0  0  0  0  0  0  0  0  0  0  0
  -28.3782  -20.1687   15.9293 C   0  0  0  0  0  0  0  0  0  0  0  0
  -29.5473  -25.7153   19.1372 C   0  0  0  0  0  0  0  0  0  0  0  0
  -32.4113  -26.2522   19.6410 C   0  0  0  0  0  0  0  0  0  0  0  0
  -29.4444  -21.1607   15.4716 C   0  0  0  0  0  0  0  0  0  0  0  0
  -29.6030  -12.2422   18.3671 C   0  0  0  0  0  0  0  0  0  0  0  0
  -30.6115  -21.1809   16.4535 C   0  0  0  0  0  0  0  0  0  0  0  0
  -28.1528  -11.9821   18.7812 C   0  0  0  0  0  0  0  0  0  0  0  0
  -30.5034  -12.4852   19.5770 C   0  0  0  0  0  0  0  0  0  0  0  0
  -28.5873  -13.2698   20.9120 C   0  0  0  0  0  0  0  0  0  0  0  0
  -30.1538  -21.6336   17.8453 C   0  0  1  0  0  0  0  0  0  0  0  0
  -30.6190  -25.3956   18.0996 C   0  0  1  0  0  0  0  0  0  0  0  0
  -27.6296  -13.0837   19.7237 C   0  0  2  0  0  0  0  0  0  0  0  0
  -33.8108  -18.8237   21.5336 C   0  0  0  0  0  0  0  0  0  0  0  0
  -35.0192  -31.6771   17.0115 C   0  0  0  0  0  0  0  0  0  0  0  0
  -35.0914  -25.0540   16.9855 C   0  0  0  0  0  0  0  0  0  0  0  0
  -36.3573  -27.2134   16.9307 C   0  0  0  0  0  0  0  0  0  0  0  0
  -34.7456  -26.6679   15.1065 C   0  0  0  0  0  0  0  0  0  0  0  0
  -31.6735  -31.5323   18.8175 C   0  0  0  0  0  0  0  0  0  0  0  0
  -32.2229  -20.6574   23.1931 C   0  0  0  0  0  0  0  0  0  0  0  0
  -33.1633  -20.5530   24.4010 C   0  0  0  0  0  0  0  0  0  0  0  0
  -31.8422  -24.8239   26.5118 C   0  0  0  0  0  0  0  0  0  0  0  0
  -33.7052  -21.8792   24.9256 C   0  0  0  0  0  0  0  0  0  0  0  0
  -33.0358  -24.0348   25.9951 C   0  0  0  0  0  0  0  0  0  0  0  0
  -30.8425  -25.2043   25.4266 C   0  0  0  0  0  0  0  0  0  1  0  0
  -33.8651  -27.2891   17.3936 C   0  0  1  0  0  0  0  0  0  0  0  0
  -33.6771  -31.0752   17.3978 C   0  0  2  0  0  0  0  0  0  0  0  0
  -34.9972  -26.5502   16.6256 C   0  0  0  0  0  0  0  0  0  0  0  0
  -25.8097  -11.5334   20.3285 N   0  0  0  0  0  0  0  0  0  0  0  0
  -26.2080  -12.8079   20.1765 N   0  0  0  0  0  0  0  0  0  0  0  0
  -31.8392  -26.1832   18.2862 N   0  0  0  0  0  0  0  0  0  0  0  0
  -29.9471  -13.5443   20.4219 N   0  0  0  0  0  0  0  0  0  0  0  0
  -25.4720  -15.0517   20.3615 N   0  0  0  0  0  0  0  0  0  0  0  0
  -21.8323  -12.6594   21.5556 N   0  0  0  0  0  0  0  0  0  0  0  0
  -30.0731  -15.6468   21.4830 N   0  0  0  0  0  0  0  0  0  0  0  0
  -29.9841  -23.0705   17.8789 N   0  0  0  0  0  0  0  0  0  0  0  0
  -33.7350  -28.7016   17.0526 N   0  0  0  0  0  0  0  0  0  0  0  0
  -33.0140  -31.9900   18.3696 N   0  3  0  0  0  0  0  0  0  0  0  0
  -32.5958  -22.7476   25.4078 N   0  3  0  0  0  0  0  0  0  0  0  0
  -22.6446  -14.7803   21.2384 O   0  0  0  0  0  0  0  0  0  0  0  0
  -32.1964  -23.6519   18.3148 O   0  0  0  0  0  0  0  0  0  0  0  0
  -32.0573  -26.6274   16.0078 O   0  0  0  0  0  0  0  0  0  0  0  0
  -34.0571  -29.5127   19.2010 O   0  0  0  0  0  0  0  0  0  0  0  0
  -31.8569  -14.8344   20.2420 O   0  0  0  0  0  0  0  0  0  0  0  0
  -21.4728   -7.1049   21.7873 O   0  0  0  0  0  0  0  0  0  0  0  0
  -31.5120  -25.9924   24.4433 O   0  0  0  0  0  0  0  0  0  1  0  0
  -23.7996   -3.0824   24.7553 F   0  0  0  0  0  0  0  0  0  0  0  0
  -20.3778   -6.3048   24.1963 F   0  0  0  0  0  0  0  0  0  0  0  0
  -28.2224  -17.3608   23.1948 Cl  0  0  0  0  0  0  0  0  0  0  0  0
  1  2  1  0  0  0  0
  1  5  2  0  0  0  0
  2  6  2  0  0  0  0
  3  8  2  0  0  0  0
  3 17  1  0  0  0  0
  4  9  1  0  0  0  0
  4 17  2  0  0  0  0
  5 19  1  0  0  0  0
  6 21  1  0  0  0  0
  7 10  2  0  0  0  0
  7 20  1  0  0  0  0
  8 26  1  0  0  0  0
  9 26  2  0  0  0  0
 10 27  1  0  0  0  0
 11 12  2  0  0  0  0
 11 28  1  0  0  0  0
 12 29  1  0  0  0  0
 13 22  1  0  0  0  0
 13 27  2  0  0  0  0
 14 23  1  0  0  0  0
 14 25  2  0  0  0  0
 15 24  1  0  0  0  0
 15 31  2  0  0  0  0
 16 29  2  0  0  0  0
 16 30  1  0  0  0  0
 17 32  1  0  0  0  0
 18 32  1  0  0  0  0
 18 33  2  0  0  0  0
 18 34  1  0  0  0  0
 19 21  2  0  0  0  0
 19 39  1  0  0  0  0
 20 22  2  0  0  0  0
 20 40  1  0  0  0  0
 21 48  1  0  0  0  0
 22 41  1  0  0  0  0
 23 24  2  0  0  0  0
 23 51  1  0  0  0  0
 24 57  1  0  0  0  0
 25 31  1  0  0  0  0
 25 72  1  0  0  0  0
 26 82  1  0  0  0  0
 27 83  1  0  0  0  0
 28 30  2  0  0  0  0
 28 82  1  0  0  0  0
 29 84  1  0  0  0  0
 30 85  1  0  0  0  0
 31 86  1  0  0  0  0
 32 66  2  0  0  0  0
 33 67  1  0  0  0  0
 33 70  1  0  0  0  0
 34 71  1  0  0  0  0
 34 77  2  0  0  0  0
 35 49  1  0  0  0  0
 35 73  1  0  0  0  0
 35 78  2  0  0  0  0
 36 63  1  0  0  0  0
 36 68  1  0  0  0  0
 36 79  2  0  0  0  0
 37 64  1  0  0  0  0
 37 74  1  0  0  0  0
 37 80  2  0  0  0  0
 38 69  1  0  0  0  0
 38 72  1  0  0  0  0
 38 81  2  0  0  0  0
 39 42  1  0  0  0  0
 40 49  1  0  0  0  0
 41 68  1  0  0  0  0
 42 44  1  0  0  0  0
 43 45  1  0  0  0  0
 43 46  1  0  0  0  0
 44 48  1  0  0  0  0
 45 50  1  0  0  0  0
 46 69  1  0  0  0  0
 47 50  1  0  0  0  0
 47 69  1  0  0  0  0
 48 73  1  0  0  0  0
 49 68  1  0  0  0  0
 50 67  1  0  0  0  0
 52 64  1  0  0  0  0
 53 65  1  0  0  0  0
 54 65  1  0  0  0  0
 55 65  1  0  0  0  0
 56 75  1  0  0  0  0
 57 58  1  0  0  0  0
 58 60  1  0  0  0  0
 59 61  1  0  0  0  0
 59 62  1  0  0  0  0
 60 76  1  0  0  0  0
 61 76  1  0  0  0  0
 62 83  1  0  0  0  0
 63 65  1  0  0  0  0
 63 74  1  0  0  0  0
 64 75  1  0  0  0  0
 66 67  1  0  0  0  0
M  CHG  2  75   1  76   1
M  ISO  4  38 100  62 101  72 100  83 101
M  END
> <Batch ID>
0029

> <Smiles>
CNC(C)C(=O)NC(C(=O)N1Cc2cc([101O:1][101CH2:1]CCNCCCc3cc(Cl)c([100NH:0][100C:0](=O)N4CCCC(n5nc(-c6ccc(Oc7ccc(F)cc7F)cc6)c(C(N)=O)c5N)C4)cc3C)ccc2CC1C(=O)NC1CCCc2ccccc21)C(C)(C)C

> <Shape>
0.252

> <Color>
0.198

> <Negative vol penalty>
0.000

$$$$

  -OEChem-04052316363D

 88 97  0     1  0  0  0  0  0999 V2000
  -21.7955  -18.3018   22.1829 C   0  0  0  0  0  0  0  0  0  0  0  0
  -22.8631  -19.1938   22.1783 C   0  0  0  0  0  0  0  0  0  0  0  0
  -23.0489   -9.7879   19.9712 C   0  0  0  0  0  0  0  0  0  0  0  0
  -23.7148   -9.9173   22.2900 C   0  0  0  0  0  0  0  0  0  0  0  0
  -20.5603  -18.6920   21.6672 C   0  0  0  0  0  0  0  0  0  0  0  0
  -22.6964  -20.4762   21.6568 C   0  0  0  0  0  0  0  0  0  0  0  0
  -24.7378  -24.0524   24.6044 C   0  0  0  0  0  0  0  0  0  0  0  0
  -22.2904   -8.6517   20.2524 C   0  0  0  0  0  0  0  0  0  0  0  0
  -22.9562   -8.7811   22.5713 C   0  0  0  0  0  0  0  0  0  0  0  0
  -26.1211  -24.2151   24.5430 C   0  0  0  0  0  0  0  0  0  0  0  0
  -21.4840   -5.7057   23.8301 C   0  0  0  0  0  0  0  0  0  0  0  0
  -22.0636   -4.7208   24.6299 C   0  0  0  0  0  0  0  0  0  0  0  0
  -25.8273  -26.1104   23.0799 C   0  0  0  0  0  0  0  0  0  0  0  0
  -29.6183  -19.3046   22.1498 C   0  0  0  0  0  0  0  0  0  0  0  0
  -31.1290  -17.6094   20.5290 C   0  0  0  0  0  0  0  0  0  0  0  0
  -23.8347   -4.4471   23.0097 C   0  0  0  0  0  0  0  0  0  0  0  0
  -23.7612  -10.4207   20.9900 C   0  0  0  0  0  0  0  0  0  0  0  0
  -24.1189  -12.9349   20.7478 C   0  0  0  0  0  0  0  0  0  0  0  0
  -20.3758  -19.9831   21.1479 C   0  0  0  0  0  0  0  0  0  0  0  0
  -23.8878  -24.9123   23.8941 C   0  0  0  0  0  0  0  0  0  0  0  0
  -21.4580  -20.8836   21.1324 C   0  0  0  0  0  0  0  0  0  0  0  0
  -24.4334  -25.9581   23.1361 C   0  0  0  0  0  0  0  0  0  0  0  0
  -30.5595  -19.8377   21.2691 C   0  0  0  0  0  0  0  0  0  0  0  0
  -30.1878  -17.0764   21.4098 C   0  0  0  0  0  0  0  0  0  0  0  0
  -22.2439   -8.1483   21.5524 C   0  0  0  0  0  0  0  0  0  0  0  0
  -26.6662  -25.2424   23.7784 C   0  0  0  0  0  0  0  0  0  0  0  0
  -22.0798   -6.0612   22.6199 C   0  0  0  0  0  0  0  0  0  0  0  0
  -29.4325  -17.9239   22.2202 C   0  0  0  0  0  0  0  0  0  0  0  0
  -23.2389   -4.0916   24.2198 C   0  0  0  0  0  0  0  0  0  0  0  0
  -23.2551   -5.4319   22.2098 C   0  0  0  0  0  0  0  0  0  0  0  0
  -31.3148  -18.9901   20.4587 C   0  0  0  0  0  0  0  0  0  0  0  0
  -24.5455  -11.5942   20.7000 C   0  0  0  0  0  0  0  0  0  0  0  0
  -25.2283  -13.6611   20.3896 C   0  0  0  0  0  0  0  0  0  0  0  0
  -22.8347  -13.4755   21.0859 C   0  0  0  0  0  0  0  0  0  0  0  0
  -21.7617  -24.5411   21.5605 C   0  0  0  0  0  0  0  0  0  0  0  0
  -21.1694  -27.6792   22.1299 C   0  0  0  0  0  0  0  0  0  0  0  0
  -22.2941  -30.6679   23.3339 C   0  0  0  0  0  0  0  0  0  0  0  0
  -30.6875  -14.7023   20.7311 C   0  0  0  0  0  0  0  0  0  0  0  0
  -19.0353  -20.3436   20.5581 C   0  0  0  0  0  0  0  0  0  0  0  0
  -22.3968  -24.7400   23.9922 C   0  0  0  0  0  0  0  0  0  0  0  0
  -23.5636  -26.9208   22.3712 C   0  0  0  0  0  0  0  0  0  0  0  0
  -18.8382  -21.8452   20.3662 C   0  0  0  0  0  0  0  0  0  0  0  0
  -29.6597  -12.1663   18.4531 C   0  0  0  0  0  0  0  0  0  0  0  0
  -20.0692  -22.4660   19.7136 C   0  0  0  0  0  0  0  0  0  0  0  0
  -28.2024  -11.9017   18.8385 C   0  0  0  0  0  0  0  0  0  0  0  0
  -29.4157  -21.9954   20.7967 C   0  0  0  0  0  0  0  0  0  0  0  0
  -31.1836  -21.8466   22.5965 C   0  0  0  0  0  0  0  0  0  0  0  0
  -30.5261  -12.4578   19.6771 C   0  0  0  0  0  0  0  0  0  0  0  0
  -28.5677  -13.2603   20.9380 C   0  0  0  0  0  0  0  0  0  0  0  0
  -29.5321  -23.5141   20.8216 C   0  0  0  0  0  0  0  0  0  0  0  0
  -31.2867  -23.3664   22.6073 C   0  0  0  0  0  0  0  0  0  0  0  0
  -30.7297  -21.3220   21.2247 C   0  0  0  0  0  0  0  0  0  0  0  0
  -21.3097  -22.2917   20.5980 C   0  0  1  0  0  0  0  0  0  0  0  0
  -21.6454  -25.3573   22.8167 C   0  0  1  0  0  0  0  0  0  0  0  0
  -27.6429  -13.0257   19.7324 C   0  0  2  0  0  0  0  0  0  0  0  0
  -21.5974  -33.0606   23.6287 C   0  0  0  0  0  0  0  0  0  0  0  0
  -21.6278  -28.1767   19.1546 C   0  0  0  0  0  0  0  0  0  0  0  0
  -21.8629  -30.6155   19.6699 C   0  0  0  0  0  0  0  0  0  0  0  0
  -19.7112  -29.4447   20.1412 C   0  0  0  0  0  0  0  0  0  0  0  0
  -22.5576  -30.5032   26.2771 C   0  0  0  0  0  0  0  0  0  0  0  0
  -27.1810  -17.2570   22.5966 C   0  0  0  0  0  0  0  0  0  0  0  0
  -29.9690  -25.4623   22.3144 C   0  0  0  0  0  0  0  0  0  0  0  0
  -28.5496  -25.9559   22.5137 C   0  0  0  0  0  0  0  0  0  1  0  0
  -21.7199  -28.9834   21.6055 C   0  0  1  0  0  0  0  0  0  0  0  0
  -21.6573  -31.6817   24.2673 C   0  0  2  0  0  0  0  0  0  0  0  0
  -21.2472  -29.2859   20.1555 C   0  0  0  0  0  0  0  0  0  0  0  0
  -25.8259  -11.4730   20.3396 N   0  0  0  0  0  0  0  0  0  0  0  0
  -26.2134  -12.7468   20.1577 N   0  0  0  0  0  0  0  0  0  0  0  0
  -22.1121  -26.7071   22.4937 N   0  0  0  0  0  0  0  0  0  0  0  0
  -29.9365  -13.5359   20.4739 N   0  0  0  0  0  0  0  0  0  0  0  0
  -25.4475  -14.9862   20.2535 N   0  0  0  0  0  0  0  0  0  0  0  0
  -21.8059  -12.5882   21.4301 N   0  0  0  0  0  0  0  0  0  0  0  0
  -30.0114  -15.6718   21.4712 N   0  0  0  0  0  0  0  0  0  0  0  0
  -21.2937  -23.2470   21.6850 N   0  0  0  0  0  0  0  0  0  0  0  0
  -21.3495  -30.0040   22.5800 N   0  0  0  0  0  0  0  0  0  0  0  0
  -29.9615  -23.9821   22.1993 N   0  3  0  0  0  0  0  0  0  0  0  0
  -22.4384  -31.7831   25.5324 N   0  3  0  0  0  0  0  0  0  0  0  0
  -22.6019  -14.7079   21.0670 O   0  0  0  0  0  0  0  0  0  0  0  0
  -22.2394  -25.0485   20.5525 O   0  0  0  0  0  0  0  0  0  0  0  0
  -19.9481  -27.5311   22.2204 O   0  0  0  0  0  0  0  0  0  0  0  0
  -23.5082  -30.4859   23.2764 O   0  0  0  0  0  0  0  0  0  0  0  0
  -31.8354  -14.8429   20.3017 O   0  0  0  0  0  0  0  0  0  0  0  0
  -21.5036   -7.0397   21.8273 O   0  0  0  0  0  0  0  0  0  0  0  0
  -28.5090  -17.4229   23.0885 O   0  0  0  0  0  0  0  0  0  0  0  0
  -28.0161  -25.4029   23.7162 O   0  0  0  0  0  0  0  0  0  1  0  0
  -23.7962   -3.1470   24.9887 F   0  0  0  0  0  0  0  0  0  0  0  0
  -23.8327   -5.7701   21.0488 F   0  0  0  0  0  0  0  0  0  0  0  0
  -32.4891  -19.6139   19.3582 Cl  0  0  0  0  0  0  0  0  0  0  0  0
  1  2  1  0  0  0  0
  1  5  2  0  0  0  0
  2  6  2  0  0  0  0
  3  8  2  0  0  0  0
  3 17  1  0  0  0  0
  4  9  1  0  0  0  0
  4 17  2  0  0  0  0
  5 19  1  0  0  0  0
  6 21  1  0  0  0  0
  7 10  2  0  0  0  0
  7 20  1  0  0  0  0
  8 25  1  0  0  0  0
  9 25  2  0  0  0  0
 10 26  1  0  0  0  0
 11 12  2  0  0  0  0
 11 27  1  0  0  0  0
 12 29  1  0  0  0  0
 13 22  1  0  0  0  0
 13 26  2  0  0  0  0
 14 23  1  0  0  0  0
 14 28  2  0  0  0  0
 15 24  2  0  0  0  0
 15 31  1  0  0  0  0
 16 29  2  0  0  0  0
 16 30  1  0  0  0  0
 17 32  1  0  0  0  0
 18 32  1  0  0  0  0
 18 33  2  0  0  0  0
 18 34  1  0  0  0  0
 19 21  2  0  0  0  0
 19 39  1  0  0  0  0
 20 22  2  0  0  0  0
 20 40  1  0  0  0  0
 21 53  1  0  0  0  0
 22 41  1  0  0  0  0
 23 31  2  0  0  0  0
 23 52  1  0  0  0  0
 24 28  1  0  0  0  0
 24 73  1  0  0  0  0
 25 83  1  0  0  0  0
 26 85  1  0  0  0  0
 27 30  2  0  0  0  0
 27 83  1  0  0  0  0
 28 84  1  0  0  0  0
 29 86  1  0  0  0  0
 30 87  1  0  0  0  0
 31 88  1  0  0  0  0
 32 67  2  0  0  0  0
 33 68  1  0  0  0  0
 33 71  1  0  0  0  0
 34 72  1  0  0  0  0
 34 78  2  0  0  0  0
 35 54  1  0  0  0  0
 35 74  1  0  0  0  0
 35 79  2  0  0  0  0
 36 64  1  0  0  0  0
 36 69  1  0  0  0  0
 36 80  2  0  0  0  0
 37 65  1  0  0  0  0
 37 75  1  0  0  0  0
 37 81  2  0  0  0  0
 38 70  1  0  0  0  0
 38 73  1  0  0  0  0
 38 82  2  0  0  0  0
 39 42  1  0  0  0  0
 40 54  1  0  0  0  0
 41 69  1  0  0  0  0
 42 44  1  0  0  0  0
 43 45  1  0  0  0  0
 43 48  1  0  0  0  0
 44 53  1  0  0  0  0
 45 55  1  0  0  0  0
 46 50  1  0  0  0  0
 46 52  1  0  0  0  0
 47 51  1  0  0  0  0
 47 52  1  0  0  0  0
 48 70  1  0  0  0  0
 49 55  1  0  0  0  0
 49 70  1  0  0  0  0
 50 76  1  0  0  0  0
 51 76  1  0  0  0  0
 53 74  1  0  0  0  0
 54 69  1  0  0  0  0
 55 68  1  0  0  0  0
 56 65  1  0  0  0  0
 57 66  1  0  0  0  0
 58 66  1  0  0  0  0
 59 66  1  0  0  0  0
 60 77  1  0  0  0  0
 61 84  1  0  0  0  0
 62 63  1  0  0  0  0
 62 76  1  0  0  0  0
 63 85  1  0  0  0  0
 64 66  1  0  0  0  0
 64 75  1  0  0  0  0
 65 77  1  0  0  0  0
 67 68  1  0  0  0  0
M  CHG  2  76   1  77   1
M  ISO  4  38 100  63 101  73 100  85 101
M  END
> <Batch ID>
0029

> <Smiles>
CNC(C)C(=O)NC(C(=O)N1Cc2cc([101O:1][101CH2:1]CN3CCC(c4cc(OC)c([100NH:0][100C:0](=O)N5CCCC(n6nc(-c7ccc(Oc8ccc(F)cc8F)cc7)c(C(N)=O)c6N)C5)cc4Cl)CC3)ccc2CC1C(=O)NC1CCCc2ccccc21)C(C)(C)C

> <Shape>
0.254

> <Color>
0.206

> <Negative vol penalty>
0.000

$$$$

  -OEChem-04052316363D

 83 91  0     1  0  0  0  0  0999 V2000
  -26.2406  -29.3306   20.4041 C   0  0  0  0  0  0  0  0  0  0  0  0
  -27.3673  -28.6397   20.8383 C   0  0  0  0  0  0  0  0  0  0  0  0
  -23.4548   -9.7042   20.2114 C   0  0  0  0  0  0  0  0  0  0  0  0
  -23.8997  -10.1510   22.5436 C   0  0  0  0  0  0  0  0  0  0  0  0
  -25.1286  -28.6279   19.9417 C   0  0  0  0  0  0  0  0  0  0  0  0
  -27.3824  -27.2456   20.8112 C   0  0  0  0  0  0  0  0  0  0  0  0
  -32.1959  -23.6374   19.6639 C   0  0  0  0  0  0  0  0  0  0  0  0
  -22.8099   -8.5180   20.5616 C   0  0  0  0  0  0  0  0  0  0  0  0
  -23.2548   -8.9649   22.8939 C   0  0  0  0  0  0  0  0  0  0  0  0
  -33.0686  -22.9434   20.5009 C   0  0  0  0  0  0  0  0  0  0  0  0
  -23.6847   -5.3789   21.4588 C   0  0  0  0  0  0  0  0  0  0  0  0
  -23.9831   -4.2363   20.7165 C   0  0  0  0  0  0  0  0  0  0  0  0
  -31.7388  -20.9498   20.2245 C   0  0  0  0  0  0  0  0  0  0  0  0
  -31.9558  -16.3499   25.4496 C   0  0  0  0  0  0  0  0  0  0  0  0
  -32.0298  -15.4890   23.1934 C   0  0  0  0  0  0  0  0  0  0  0  0
  -21.6619   -4.0481   20.0731 C   0  0  0  0  0  0  0  0  0  0  0  0
  -23.9998  -10.5207   21.2024 C   0  0  0  0  0  0  0  0  0  0  0  0
  -24.0869  -13.0217   20.7075 C   0  0  0  0  0  0  0  0  0  0  0  0
  -25.1337  -27.2248   19.9000 C   0  0  0  0  0  0  0  0  0  0  0  0
  -31.0801  -22.9945   19.1087 C   0  0  0  0  0  0  0  0  0  0  0  0
  -26.2689  -26.5235   20.3491 C   0  0  0  0  0  0  0  0  0  0  0  0
  -30.8549  -21.6372   19.3787 C   0  0  0  0  0  0  0  0  0  0  0  0
  -30.9983  -15.3922   25.7836 C   0  0  0  0  0  0  0  0  0  0  0  0
  -31.0723  -14.5312   23.5274 C   0  0  0  0  0  0  0  0  0  0  0  0
  -22.7099   -8.1484   21.9029 C   0  0  0  0  0  0  0  0  0  0  0  0
  -32.8385  -21.6002   20.7837 C   0  0  0  0  0  0  0  0  0  0  0  0
  -22.3749   -5.8561   21.5083 C   0  0  0  0  0  0  0  0  0  0  0  0
  -32.4715  -16.3983   24.1544 C   0  0  0  0  0  0  0  0  0  0  0  0
  -22.9717   -3.5709   20.0236 C   0  0  0  0  0  0  0  0  0  0  0  0
  -21.3636   -5.1908   20.8154 C   0  0  0  0  0  0  0  0  0  0  0  0
  -30.5565  -14.4829   24.8226 C   0  0  0  0  0  0  0  0  0  0  0  0
  -24.6666  -11.7458   20.8411 C   0  0  0  0  0  0  0  0  0  0  0  0
  -25.1325  -13.8385   20.3524 C   0  0  0  0  0  0  0  0  0  0  0  0
  -22.7250  -13.4319   20.8882 C   0  0  0  0  0  0  0  0  0  0  0  0
  -27.9328  -23.3935   19.3063 C   0  0  0  0  0  0  0  0  0  0  0  0
  -27.8893  -21.0857   17.0272 C   0  0  0  0  0  0  0  0  0  0  0  0
  -29.4667  -18.4468   15.5457 C   0  0  0  0  0  0  0  0  0  0  0  0
  -31.0361  -13.5222   21.2194 C   0  0  0  0  0  0  0  0  0  0  0  0
  -23.8904  -26.5078   19.4363 C   0  0  0  0  0  0  0  0  0  0  0  0
  -30.1632  -23.7501   18.1864 C   0  0  0  0  0  0  0  0  0  0  0  0
  -29.6828  -20.8957   18.7915 C   0  0  0  0  0  0  0  0  0  0  0  0
  -24.1274  -25.0405   19.0885 C   0  0  0  0  0  0  0  0  0  0  0  0
  -29.3526  -13.7497   18.0904 C   0  0  0  0  0  0  0  0  0  0  0  0
  -24.9513  -24.3601   20.1771 C   0  0  0  0  0  0  0  0  0  0  0  0
  -27.9059  -13.3837   18.4296 C   0  0  0  0  0  0  0  0  0  0  0  0
  -30.3511  -12.9297   18.9054 C   0  0  0  0  0  0  0  0  0  0  0  0
  -28.6943  -12.5954   20.6977 C   0  0  0  0  0  0  0  0  0  0  0  0
  -26.3328  -25.0120   20.3119 C   0  0  1  0  0  0  0  0  0  0  0  0
  -28.7722  -23.1313   18.0880 C   0  0  1  0  0  0  0  0  0  0  0  0
  -27.6514  -13.4411   19.9487 C   0  0  2  0  0  0  0  0  0  0  0  0
  -30.4493  -15.3427   27.1694 C   0  0  0  0  0  0  0  0  0  0  0  0
  -29.1665  -16.7372   13.7333 C   0  0  0  0  0  0  0  0  0  0  0  0
  -25.9669  -19.5311   18.8154 C   0  0  0  0  0  0  0  0  0  0  0  0
  -26.4509  -17.4925   17.4450 C   0  0  0  0  0  0  0  0  0  0  0  0
  -25.3947  -19.4864   16.3813 C   0  0  0  0  0  0  0  0  0  0  0  0
  -31.8389  -19.4243   14.0705 C   0  0  0  0  0  0  0  0  0  0  0  0
  -33.9200  -19.6878   23.6619 C   0  0  0  0  0  0  0  0  0  0  0  0
  -33.1355  -19.8533   22.3699 C   0  0  0  0  0  0  0  0  0  1  0  0
  -33.3578  -18.5730   24.5300 C   0  0  0  0  0  0  0  0  0  0  0  0
  -27.8354  -19.5770   17.0343 C   0  0  1  0  0  0  0  0  0  0  0  0
  -29.7141  -18.1115   14.0859 C   0  0  2  0  0  0  0  0  0  0  0  0
  -26.4331  -19.0359   17.4318 C   0  0  0  0  0  0  0  0  0  0  0  0
  -25.9786  -11.7469   20.5912 N   0  0  0  0  0  0  0  0  0  0  0  0
  -26.2320  -13.0334   20.2968 N   0  0  0  0  0  0  0  0  0  0  0  0
  -28.8113  -21.6796   17.9007 N   0  0  0  0  0  0  0  0  0  0  0  0
  -30.0507  -13.0351   20.3349 N   0  0  0  0  0  0  0  0  0  0  0  0
  -25.2094  -15.1595   20.0854 N   0  0  0  0  0  0  0  0  0  0  0  0
  -21.7787  -12.4647   21.2533 N   0  0  0  0  0  0  0  0  0  0  0  0
  -30.6253  -13.6087   22.5492 N   0  0  0  0  0  0  0  0  0  0  0  0
  -27.2072  -24.5679   19.2476 N   0  0  0  0  0  0  0  0  0  0  0  0
  -28.2908  -19.1461   15.7169 N   0  0  0  0  0  0  0  0  0  0  0  0
  -31.1749  -18.1249   13.7917 N   0  3  0  0  0  0  0  0  0  0  0  0
  -22.3550  -14.6179   20.7147 O   0  0  0  0  0  0  0  0  0  0  0  0
  -27.9417  -22.5890   20.2307 O   0  0  0  0  0  0  0  0  0  0  0  0
  -27.1459  -21.7138   16.2693 O   0  0  0  0  0  0  0  0  0  0  0  0
  -30.2376  -18.1177   16.4446 O   0  0  0  0  0  0  0  0  0  0  0  0
  -32.1527  -13.8648   20.8220 O   0  0  0  0  0  0  0  0  0  0  0  0
  -22.0804   -6.9911   22.2451 O   0  0  0  0  0  0  0  0  0  0  0  0
  -33.6884  -20.9207   21.6009 O   0  0  0  0  0  0  0  0  0  1  0  0
  -33.4123  -17.3395   23.8262 O   0  0  0  0  0  0  0  0  0  0  0  0
  -23.2587   -2.4746   19.3096 F   0  0  0  0  0  0  0  0  0  0  0  0
  -20.1036   -5.6452   20.8582 F   0  0  0  0  0  0  0  0  0  0  0  0
  -29.6352  -13.5624   25.1453 F   0  0  0  0  0  0  0  0  0  0  0  0
  1  2  1  0  0  0  0
  1  5  2  0  0  0  0
  2  6  2  0  0  0  0
  3  8  2  0  0  0  0
  3 17  1  0  0  0  0
  4  9  1  0  0  0  0
  4 17  2  0  0  0  0
  5 19  1  0  0  0  0
  6 21  1  0  0  0  0
  7 10  2  0  0  0  0
  7 20  1  0  0  0  0
  8 25  1  0  0  0  0
  9 25  2  0  0  0  0
 10 26  1  0  0  0  0
 11 12  2  0  0  0  0
 11 27  1  0  0  0  0
 12 29  1  0  0  0  0
 13 22  1  0  0  0  0
 13 26  2  0  0  0  0
 14 23  2  0  0  0  0
 14 28  1  0  0  0  0
 15 24  1  0  0  0  0
 15 28  2  0  0  0  0
 16 29  2  0  0  0  0
 16 30  1  0  0  0  0
 17 32  1  0  0  0  0
 18 32  1  0  0  0  0
 18 33  2  0  0  0  0
 18 34  1  0  0  0  0
 19 21  2  0  0  0  0
 19 39  1  0  0  0  0
 20 22  2  0  0  0  0
 20 40  1  0  0  0  0
 21 48  1  0  0  0  0
 22 41  1  0  0  0  0
 23 31  1  0  0  0  0
 23 51  1  0  0  0  0
 24 31  2  0  0  0  0
 24 69  1  0  0  0  0
 25 78  1  0  0  0  0
 26 79  1  0  0  0  0
 27 30  2  0  0  0  0
 27 78  1  0  0  0  0
 28 80  1  0  0  0  0
 29 81  1  0  0  0  0
 30 82  1  0  0  0  0
 31 83  1  0  0  0  0
 32 63  2  0  0  0  0
 33 64  1  0  0  0  0
 33 67  1  0  0  0  0
 34 68  1  0  0  0  0
 34 73  2  0  0  0  0
 35 49  1  0  0  0  0
 35 70  1  0  0  0  0
 35 74  2  0  0  0  0
 36 60  1  0  0  0  0
 36 65  1  0  0  0  0
 36 75  2  0  0  0  0
 37 61  1  0  0  0  0
 37 71  1  0  0  0  0
 37 76  2  0  0  0  0
 38 66  1  0  0  0  0
 38 69  1  0  0  0  0
 38 77  2  0  0  0  0
 39 42  1  0  0  0  0
 40 49  1  0  0  0  0
 41 65  1  0  0  0  0
 42 44  1  0  0  0  0
 43 45  1  0  0  0  0
 43 46  1  0  0  0  0
 44 48  1  0  0  0  0
 45 50  1  0  0  0  0
 46 66  1  0  0  0  0
 47 50  1  0  0  0  0
 47 66  1  0  0  0  0
 48 70  1  0  0  0  0
 49 65  1  0  0  0  0
 50 64  1  0  0  0  0
 52 61  1  0  0  0  0
 53 62  1  0  0  0  0
 54 62  1  0  0  0  0
 55 62  1  0  0  0  0
 56 72  1  0  0  0  0
 57 58  1  0  0  0  0
 57 59  1  0  0  0  0
 58 79  1  0  0  0  0
 59 80  1  0  0  0  0
 60 62  1  0  0  0  0
 60 71  1  0  0  0  0
 61 72  1  0  0  0  0
 63 64  1  0  0  0  0
M  CHG  1  72   1
M  ISO  4  38 100  58 101  69 100  79 101
M  END
> <Batch ID>
0029

> <Smiles>
CNC(C)C(=O)NC(C(=O)N1Cc2cc([101O:1][101CH2:1]CCOc3cc(C)c(F)c([100NH:0][100C:0](=O)N4CCCC(n5nc(-c6ccc(Oc7ccc(F)cc7F)cc6)c(C(N)=O)c5N)C4)c3)ccc2CC1C(=O)NC1CCCc2ccccc21)C(C)(C)C

> <Shape>
0.213

> <Color>
0.179

> <Negative vol penalty>
0.000

$$$$

  -OEChem-04052316363D

 86 94  0     1  0  0  0  0  0999 V2000
  -22.7765   -8.0804   22.0621 C   0  0  0  0  0  0  0  0  0  0  0  0
  -23.9665   -8.7043   22.4230 C   0  0  0  0  0  0  0  0  0  0  0  0
  -23.7559  -31.2024   25.0162 C   0  0  0  0  0  0  0  0  0  0  0  0
  -24.1969  -31.6258   22.6789 C   0  0  0  0  0  0  0  0  0  0  0  0
  -22.0760   -8.5150   20.9377 C   0  0  0  0  0  0  0  0  0  0  0  0
  -24.4572   -9.7625   21.6589 C   0  0  0  0  0  0  0  0  0  0  0  0
  -28.1280  -15.8805   22.3009 C   0  0  0  0  0  0  0  0  0  0  0  0
  -24.4447  -32.3664   25.3571 C   0  0  0  0  0  0  0  0  0  0  0  0
  -24.8857  -32.7898   23.0197 C   0  0  0  0  0  0  0  0  0  0  0  0
  -29.2376  -16.5321   21.7644 C   0  0  0  0  0  0  0  0  0  0  0  0
  -24.1277  -35.9601   23.9115 C   0  0  0  0  0  0  0  0  0  0  0  0
  -23.8628  -37.1095   23.1671 C   0  0  0  0  0  0  0  0  0  0  0  0
  -27.9017  -17.2492   19.8881 C   0  0  0  0  0  0  0  0  0  0  0  0
  -28.6547  -24.3754   19.7673 C   0  0  0  0  0  0  0  0  0  0  0  0
  -30.3217  -23.3133   17.7985 C   0  0  0  0  0  0  0  0  0  0  0  0
  -26.1836  -37.2146   22.5036 C   0  0  0  0  0  0  0  0  0  0  0  0
  -23.6320  -30.8321   23.6771 C   0  0  0  0  0  0  0  0  0  0  0  0
  -21.5473  -29.5057   23.0427 C   0  0  0  0  0  0  0  0  0  0  0  0
  -22.5535   -9.5853   20.1650 C   0  0  0  0  0  0  0  0  0  0  0  0
  -26.8976  -15.8992   21.6285 C   0  0  0  0  0  0  0  0  0  0  0  0
  -23.7632  -10.2109   20.5223 C   0  0  0  0  0  0  0  0  0  0  0  0
  -26.7773  -16.5992   20.4195 C   0  0  0  0  0  0  0  0  0  0  0  0
  -29.6099  -23.4167   20.1050 C   0  0  0  0  0  0  0  0  0  0  0  0
  -28.5329  -24.8030   18.4451 C   0  0  0  0  0  0  0  0  0  0  0  0
  -30.4434  -22.8857   19.1207 C   0  0  0  0  0  0  0  0  0  0  0  0
  -25.0096  -33.1601   24.3588 C   0  0  0  0  0  0  0  0  0  0  0  0
  -29.1253  -17.2142   20.5564 C   0  0  0  0  0  0  0  0  0  0  0  0
  -25.4205  -35.4379   23.9521 C   0  0  0  0  0  0  0  0  0  0  0  0
  -24.8907  -37.7368   22.4631 C   0  0  0  0  0  0  0  0  0  0  0  0
  -26.4484  -36.0651   23.2481 C   0  0  0  0  0  0  0  0  0  0  0  0
  -29.3664  -24.2719   17.4608 C   0  0  0  0  0  0  0  0  0  0  0  0
  -22.9210  -29.6295   23.3245 C   0  0  0  0  0  0  0  0  0  0  0  0
  -21.3721  -28.1716   22.7671 C   0  0  0  0  0  0  0  0  0  0  0  0
  -20.5213  -30.5072   23.0310 C   0  0  0  0  0  0  0  0  0  0  0  0
  -25.0044  -13.6870   20.3532 C   0  0  0  0  0  0  0  0  0  0  0  0
  -23.0059  -16.2051   19.9198 C   0  0  0  0  0  0  0  0  0  0  0  0
  -22.6300  -19.5793   19.5729 C   0  0  0  0  0  0  0  0  0  0  0  0
  -25.0661  -23.8997   20.7779 C   0  0  0  0  0  0  0  0  0  0  0  0
  -21.7859   -9.9889   18.9310 C   0  0  0  0  0  0  0  0  0  0  0  0
  -25.7033  -15.2137   22.2338 C   0  0  0  0  0  0  0  0  0  0  0  0
  -25.4736  -16.6665   19.6684 C   0  0  0  0  0  0  0  0  0  0  0  0
  -22.1802  -11.3608   18.3900 C   0  0  0  0  0  0  0  0  0  0  0  0
  -23.1837  -23.8655   23.7999 C   0  0  0  0  0  0  0  0  0  0  0  0
  -23.6985  -11.4964   18.3339 C   0  0  0  0  0  0  0  0  0  0  0  0
  -22.7790  -25.3277   23.9953 C   0  0  0  0  0  0  0  0  0  0  0  0
  -24.5838  -23.7425   23.2026 C   0  0  0  0  0  0  0  0  0  0  0  0
  -24.3888  -25.9624   22.1502 C   0  0  0  0  0  0  0  0  0  0  0  0
  -24.3150  -11.3782   19.7330 C   0  0  1  0  0  0  0  0  0  0  0  0
  -24.6302  -14.8655   21.2070 C   0  0  1  0  0  0  0  0  0  0  0  0
  -22.9623  -26.1384   22.6982 C   0  0  2  0  0  0  0  0  0  0  0  0
  -29.7214  -22.9718   21.5264 C   0  0  0  0  0  0  0  0  0  0  0  0
  -21.4435  -21.7796   19.3535 C   0  0  0  0  0  0  0  0  0  0  0  0
  -22.8542  -15.4174   16.9759 C   0  0  0  0  0  0  0  0  0  0  0  0
  -21.9097  -17.6846   16.4899 C   0  0  0  0  0  0  0  0  0  0  0  0
  -20.6738  -16.1143   17.9830 C   0  0  0  0  0  0  0  0  0  0  0  0
  -22.4791  -19.9225   22.5086 C   0  0  0  0  0  0  0  0  0  0  0  0
  -27.4970  -25.8315   18.1244 C   0  0  0  0  0  0  0  0  0  0  0  0
  -31.4761  -21.8516   19.4600 C   0  0  0  0  0  0  0  0  0  0  0  0
  -26.2098  -25.2626   17.4986 C   0  0  0  0  0  0  0  0  0  0  0  0
  -25.5035  -24.2141   18.3553 C   0  0  0  0  0  0  0  0  0  0  0  0
  -31.8833  -19.5476   20.3345 C   0  0  0  0  0  0  0  0  0  0  0  0
  -31.1729  -18.3582   20.9498 C   0  0  0  0  0  0  0  0  0  1  0  0
  -22.7866  -17.2195   18.8236 C   0  0  1  0  0  0  0  0  0  0  0  0
  -21.6757  -20.5594   20.2310 C   0  0  2  0  0  0  0  0  0  0  0  0
  -22.0813  -16.6063   17.5810 C   0  0  0  0  0  0  0  0  0  0  0  0
  -23.5723  -28.4667   23.2362 N   0  0  0  0  0  0  0  0  0  0  0  0
  -22.6035  -27.5996   22.8959 N   0  0  0  0  0  0  0  0  0  0  0  0
  -24.3364  -15.9752   20.2979 N   0  0  0  0  0  0  0  0  0  0  0  0
  -24.6907  -24.5332   21.9741 N   0  0  0  0  0  0  0  0  0  0  0  0
  -20.2864  -27.4437   22.4297 N   0  0  0  0  0  0  0  0  0  0  0  0
  -20.8739  -31.8286   23.3376 N   0  0  0  0  0  0  0  0  0  0  0  0
  -24.1423  -12.6132   20.4674 N   0  0  0  0  0  0  0  0  0  0  0  0
  -22.0634  -18.3300   19.4337 N   0  0  0  0  0  0  0  0  0  0  0  0
  -25.1372  -24.7207   19.6591 N   0  0  0  0  0  0  0  0  0  0  0  0
  -22.2245  -21.0183   21.5383 N   0  3  0  0  0  0  0  0  0  0  0  0
  -30.8919  -20.6137   20.0433 N   0  3  0  0  0  0  0  0  0  0  0  0
  -19.3243  -30.2354   22.7728 O   0  0  0  0  0  0  0  0  0  0  0  0
  -26.0007  -13.7481   19.6423 O   0  0  0  0  0  0  0  0  0  0  0  0
  -22.0322  -15.6428   20.4271 O   0  0  0  0  0  0  0  0  0  0  0  0
  -23.7634  -19.8917   19.2146 O   0  0  0  0  0  0  0  0  0  0  0  0
  -25.3139  -22.6910   20.7108 O   0  0  0  0  0  0  0  0  0  0  0  0
  -25.6817  -34.2962   24.6910 O   0  0  0  0  0  0  0  0  0  0  0  0
  -30.2070  -17.8506   20.0302 O   0  0  0  0  0  0  0  0  0  1  0  0
  -24.6359  -38.8397   21.7470 F   0  0  0  0  0  0  0  0  0  0  0  0
  -27.6922  -35.5674   23.2823 F   0  0  0  0  0  0  0  0  0  0  0  0
  -29.2447  -24.7765   15.8146 Cl  0  0  0  0  0  0  0  0  0  0  0  0
  1  2  1  0  0  0  0
  1  5  2  0  0  0  0
  2  6  2  0  0  0  0
  3  8  2  0  0  0  0
  3 17  1  0  0  0  0
  4  9  1  0  0  0  0
  4 17  2  0  0  0  0
  5 19  1  0  0  0  0
  6 21  1  0  0  0  0
  7 10  2  0  0  0  0
  7 20  1  0  0  0  0
  8 26  1  0  0  0  0
  9 26  2  0  0  0  0
 10 27  1  0  0  0  0
 11 12  2  0  0  0  0
 11 28  1  0  0  0  0
 12 29  1  0  0  0  0
 13 22  1  0  0  0  0
 13 27  2  0  0  0  0
 14 23  1  0  0  0  0
 14 24  2  0  0  0  0
 15 25  1  0  0  0  0
 15 31  2  0  0  0  0
 16 29  2  0  0  0  0
 16 30  1  0  0  0  0
 17 32  1  0  0  0  0
 18 32  1  0  0  0  0
 18 33  2  0  0  0  0
 18 34  1  0  0  0  0
 19 21  2  0  0  0  0
 19 39  1  0  0  0  0
 20 22  2  0  0  0  0
 20 40  1  0  0  0  0
 21 48  1  0  0  0  0
 22 41  1  0  0  0  0
 23 25  2  0  0  0  0
 23 51  1  0  0  0  0
 24 31  1  0  0  0  0
 24 57  1  0  0  0  0
 25 58  1  0  0  0  0
 26 82  1  0  0  0  0
 27 83  1  0  0  0  0
 28 30  2  0  0  0  0
 28 82  1  0  0  0  0
 29 84  1  0  0  0  0
 30 85  1  0  0  0  0
 31 86  1  0  0  0  0
 32 66  2  0  0  0  0
 33 67  1  0  0  0  0
 33 70  1  0  0  0  0
 34 71  1  0  0  0  0
 34 77  2  0  0  0  0
 35 49  1  0  0  0  0
 35 72  1  0  0  0  0
 35 78  2  0  0  0  0
 36 63  1  0  0  0  0
 36 68  1  0  0  0  0
 36 79  2  0  0  0  0
 37 64  1  0  0  0  0
 37 73  1  0  0  0  0
 37 80  2  0  0  0  0
 38 69  1  0  0  0  0
 38 74  1  0  0  0  0
 38 81  2  0  0  0  0
 39 42  1  0  0  0  0
 40 49  1  0  0  0  0
 41 68  1  0  0  0  0
 42 44  1  0  0  0  0
 43 45  1  0  0  0  0
 43 46  1  0  0  0  0
 44 48  1  0  0  0  0
 45 50  1  0  0  0  0
 46 69  1  0  0  0  0
 47 50  1  0  0  0  0
 47 69  1  0  0  0  0
 48 72  1  0  0  0  0
 49 68  1  0  0  0  0
 50 67  1  0  0  0  0
 52 64  1  0  0  0  0
 53 65  1  0  0  0  0
 54 65  1  0  0  0  0
 55 65  1  0  0  0  0
 56 75  1  0  0  0  0
 57 59  1  0  0  0  0
 58 76  1  0  0  0  0
 59 60  1  0  0  0  0
 60 74  1  0  0  0  0
 61 62  1  0  0  0  0
 61 76  1  0  0  0  0
 62 83  1  0  0  0  0
 63 65  1  0  0  0  0
 63 73  1  0  0  0  0
 64 75  1  0  0  0  0
 66 67  1  0  0  0  0
M  CHG  2  75   1  76   1
M  ISO  4  38 100  62 101  74 100  83 101
M  END
> <Batch ID>
0029

> <Smiles>
CNC(C)C(=O)NC(C(=O)N1Cc2cc([101O:1][101CH2:1]CNCc3cc(Cl)c(CCC[100NH:0][100C:0](=O)N4CCCC(n5nc(-c6ccc(Oc7ccc(F)cc7F)cc6)c(C(N)=O)c5N)C4)cc3C)ccc2CC1C(=O)NC1CCCc2ccccc21)C(C)(C)C

> <Shape>
0.257

> <Color>
0.059

> <Negative vol penalty>
0.000

$$$$

  -OEChem-04052316363D

 85 94  0     1  0  0  0  0  0999 V2000
  -23.1238  -20.3538   25.5317 C   0  0  0  0  0  0  0  0  0  0  0  0
  -23.8101  -21.0529   24.5440 C   0  0  0  0  0  0  0  0  0  0  0  0
  -27.0290  -14.8781   21.9373 C   0  0  0  0  0  0  0  0  0  0  0  0
  -27.9295  -14.6956   19.7028 C   0  0  0  0  0  0  0  0  0  0  0  0
  -21.9046  -20.8359   26.0060 C   0  0  0  0  0  0  0  0  0  0  0  0
  -23.2771  -22.2342   24.0292 C   0  0  0  0  0  0  0  0  0  0  0  0
  -26.7380  -25.9074   23.6120 C   0  0  0  0  0  0  0  0  0  0  0  0
  -26.4417  -13.6201   21.8034 C   0  0  0  0  0  0  0  0  0  0  0  0
  -27.3422  -13.4374   19.5689 C   0  0  0  0  0  0  0  0  0  0  0  0
  -27.6124  -25.8383   22.5283 C   0  0  0  0  0  0  0  0  0  0  0  0
  -23.7063  -12.2931   20.3266 C   0  0  0  0  0  0  0  0  0  0  0  0
  -22.3853  -12.1470   20.7500 C   0  0  0  0  0  0  0  0  0  0  0  0
  -26.2781  -27.4702   21.3554 C   0  0  0  0  0  0  0  0  0  0  0  0
  -23.0807  -10.4652   22.3391 C   0  0  0  0  0  0  0  0  0  0  0  0
  -27.7729  -15.4159   20.8869 C   0  0  0  0  0  0  0  0  0  0  0  0
  -29.6652  -17.0059   21.5186 C   0  0  0  0  0  0  0  0  0  0  0  0
  -21.3611  -22.0288   25.5038 C   0  0  0  0  0  0  0  0  0  0  0  0
  -25.6192  -26.7518   23.5711 C   0  0  0  0  0  0  0  0  0  0  0  0
  -22.0489  -22.7320   24.4964 C   0  0  0  0  0  0  0  0  0  0  0  0
  -25.3925  -27.5501   22.4409 C   0  0  0  0  0  0  0  0  0  0  0  0
  -26.5983  -12.8997   20.6193 C   0  0  0  0  0  0  0  0  0  0  0  0
  -27.3810  -26.6175   21.3986 C   0  0  0  0  0  0  0  0  0  0  0  0
  -24.7145  -11.5252   20.9093 C   0  0  0  0  0  0  0  0  0  0  0  0
  -22.0725  -11.2331   21.7563 C   0  0  0  0  0  0  0  0  0  0  0  0
  -24.4017  -10.6113   21.9156 C   0  0  0  0  0  0  0  0  0  0  0  0
  -28.3793  -16.7157   21.0244 C   0  0  0  0  0  0  0  0  0  0  0  0
  -29.7608  -18.3740   21.4445 C   0  0  0  0  0  0  0  0  0  0  0  0
  -30.6070  -22.2937   15.5879 C   0  0  0  0  0  0  0  0  0  0  0  0
  -29.9905  -23.0552   16.5073 C   0  0  0  0  0  0  0  0  0  0  0  0
  -30.6822  -16.1181   22.0015 C   0  0  0  0  0  0  0  0  0  0  0  0
  -22.4733  -26.3147   23.6980 C   0  0  0  0  0  0  0  0  0  0  0  0
  -22.4177  -29.5574   23.7638 C   0  0  0  0  0  0  0  0  0  0  0  0
  -23.9852  -32.4974   23.0251 C   0  0  0  0  0  0  0  0  0  0  0  0
  -28.1602  -22.7832   18.1514 C   0  0  0  0  0  0  0  0  0  0  0  0
  -20.0173  -22.4856   26.0139 C   0  0  0  0  0  0  0  0  0  0  0  0
  -24.7003  -26.8348   24.7590 C   0  0  0  0  0  0  0  0  0  0  0  0
  -24.2170  -28.4879   22.3552 C   0  0  0  0  0  0  0  0  0  0  0  0
  -30.2574  -20.8467   15.7623 C   0  0  0  0  0  0  0  0  0  0  0  0
  -19.7032  -23.9423   25.6829 C   0  0  0  0  0  0  0  0  0  0  0  0
  -26.5466  -22.0991   21.1812 C   0  0  0  0  0  0  0  0  0  0  0  0
  -20.0240  -24.2388   24.2214 C   0  0  0  0  0  0  0  0  0  0  0  0
  -31.2992  -25.0596   15.7093 C   0  0  0  0  0  0  0  0  0  0  0  0
  -26.9538  -20.6623   21.4996 C   0  0  0  0  0  0  0  0  0  0  0  0
  -31.3271  -24.3508   14.3531 C   0  0  0  0  0  0  0  0  0  0  0  0
  -29.4256  -20.8642   17.0429 C   0  0  0  0  0  0  0  0  0  0  0  0
  -26.2887  -22.2702   19.6900 C   0  0  0  0  0  0  0  0  0  0  0  0
  -27.9031  -20.4688   19.1429 C   0  0  0  0  0  0  0  0  0  0  0  0
  -21.5152  -24.0302   23.9307 C   0  0  1  0  0  0  0  0  0  0  0  0
  -30.1498  -24.5440   16.5957 C   0  0  2  0  0  0  0  0  0  0  0  0
  -23.3079  -27.3463   24.4028 C   0  0  1  0  0  0  0  0  0  0  0  0
  -28.1594  -20.2359   20.6463 C   0  0  2  0  0  0  0  0  0  0  0  0
  -31.5005  -22.8122   14.4855 C   0  0  0  0  0  0  0  0  0  0  0  0
  -31.1430  -22.1767   13.1291 C   0  0  0  0  0  0  0  0  0  0  0  0
  -32.9643  -22.4690   14.8194 C   0  0  0  0  0  0  0  0  0  0  0  0
  -23.6756  -34.9839   23.1635 C   0  0  0  0  0  0  0  0  0  0  0  0
  -20.4988  -29.4478   21.3940 C   0  0  0  0  0  0  0  0  0  0  0  0
  -20.9744  -31.8718   20.9863 C   0  0  0  0  0  0  0  0  0  0  0  0
  -19.9180  -31.1531   23.1287 C   0  0  0  0  0  0  0  0  0  0  0  0
  -26.3539  -32.8119   24.7714 C   0  0  0  0  0  0  0  0  0  0  0  0
  -30.4816  -26.9247   19.5816 C   0  0  0  0  0  0  0  0  0  0  0  0
  -30.1859  -26.4975   18.1517 C   0  0  0  0  0  0  0  0  0  0  0  0
  -29.5970  -26.2453   20.6198 C   0  0  0  0  0  0  0  0  0  1  0  0
  -22.3612  -30.6470   22.7205 C   0  0  1  0  0  0  0  0  0  0  0  0
  -24.2268  -33.7461   23.8540 C   0  0  2  0  0  0  0  0  0  0  0  0
  -20.9592  -30.7609   22.0579 C   0  0  0  0  0  0  0  0  0  0  0  0
  -27.7064  -17.8114   20.6631 N   0  0  0  0  0  0  0  0  0  0  0  0
  -28.5727  -18.8035   20.9307 N   0  0  0  0  0  0  0  0  0  0  0  0
  -29.2034  -22.2923   17.3567 N   0  0  0  0  0  0  0  0  0  0  0  0
  -23.3438  -28.5288   23.5398 N   0  0  0  0  0  0  0  0  0  0  0  0
  -27.4361  -21.8378   18.8922 N   0  0  0  0  0  0  0  0  0  0  0  0
  -30.7445  -19.2396   21.7694 N   0  0  0  0  0  0  0  0  0  0  0  0
  -30.4190  -14.7415   22.0088 N   0  0  0  0  0  0  0  0  0  0  0  0
  -22.2874  -25.1518   24.4209 N   0  0  0  0  0  0  0  0  0  0  0  0
  -22.8111  -31.8678   23.3805 N   0  0  0  0  0  0  0  0  0  0  0  0
  -30.4329  -25.0462   17.9787 N   0  3  0  0  0  0  0  0  0  0  0  0
  -25.6867  -33.9442   24.0787 N   0  3  0  0  0  0  0  0  0  0  0  0
  -31.7853  -16.5344   22.4297 O   0  0  0  0  0  0  0  0  0  0  0  0
  -22.0296  -26.5564   22.5816 O   0  0  0  0  0  0  0  0  0  0  0  0
  -21.6728  -29.6203   24.7450 O   0  0  0  0  0  0  0  0  0  0  0  0
  -24.7587  -32.1205   22.1475 O   0  0  0  0  0  0  0  0  0  0  0  0
  -27.8432  -23.9787   18.1623 O   0  0  0  0  0  0  0  0  0  0  0  0
  -26.0256  -11.6720   20.4884 O   0  0  0  0  0  0  0  0  0  0  0  0
  -28.2385  -26.5510   20.3318 O   0  0  0  0  0  0  0  0  0  1  0  0
  -20.8042  -11.0940   22.1639 F   0  0  0  0  0  0  0  0  0  0  0  0
  -25.3662   -9.8716   22.4800 F   0  0  0  0  0  0  0  0  0  0  0  0
  1  2  1  0  0  0  0
  1  5  2  0  0  0  0
  2  6  2  0  0  0  0
  3  8  2  0  0  0  0
  3 15  1  0  0  0  0
  4  9  1  0  0  0  0
  4 15  2  0  0  0  0
  5 17  1  0  0  0  0
  6 19  1  0  0  0  0
  7 10  2  0  0  0  0
  7 18  1  0  0  0  0
  8 21  1  0  0  0  0
  9 21  2  0  0  0  0
 10 22  1  0  0  0  0
 11 12  2  0  0  0  0
 11 23  1  0  0  0  0
 12 24  1  0  0  0  0
 13 20  1  0  0  0  0
 13 22  2  0  0  0  0
 14 24  2  0  0  0  0
 14 25  1  0  0  0  0
 15 26  1  0  0  0  0
 16 26  1  0  0  0  0
 16 27  2  0  0  0  0
 16 30  1  0  0  0  0
 17 19  2  0  0  0  0
 17 35  1  0  0  0  0
 18 20  2  0  0  0  0
 18 36  1  0  0  0  0
 19 48  1  0  0  0  0
 20 37  1  0  0  0  0
 21 82  1  0  0  0  0
 22 83  1  0  0  0  0
 23 25  2  0  0  0  0
 23 82  1  0  0  0  0
 24 84  1  0  0  0  0
 25 85  1  0  0  0  0
 26 66  2  0  0  0  0
 27 67  1  0  0  0  0
 27 71  1  0  0  0  0
 28 29  2  0  0  0  0
 28 38  1  0  0  0  0
 28 52  1  0  0  0  0
 29 49  1  0  0  0  0
 29 68  1  0  0  0  0
 30 72  1  0  0  0  0
 30 77  2  0  0  0  0
 31 50  1  0  0  0  0
 31 73  1  0  0  0  0
 31 78  2  0  0  0  0
 32 63  1  0  0  0  0
 32 69  1  0  0  0  0
 32 79  2  0  0  0  0
 33 64  1  0  0  0  0
 33 74  1  0  0  0  0
 33 80  2  0  0  0  0
 34 68  1  0  0  0  0
 34 70  1  0  0  0  0
 34 81  2  0  0  0  0
 35 39  1  0  0  0  0
 36 50  1  0  0  0  0
 37 69  1  0  0  0  0
 38 45  1  0  0  0  0
 39 41  1  0  0  0  0
 40 43  1  0  0  0  0
 40 46  1  0  0  0  0
 41 48  1  0  0  0  0
 42 44  1  0  0  0  0
 42 49  1  0  0  0  0
 43 51  1  0  0  0  0
 44 52  1  0  0  0  0
 45 68  1  0  0  0  0
 46 70  1  0  0  0  0
 47 51  1  0  0  0  0
 47 70  1  0  0  0  0
 48 73  1  0  0  0  0
 49 75  1  0  0  0  0
 50 69  1  0  0  0  0
 51 67  1  0  0  0  0
 52 53  1  0  0  0  0
 52 54  1  0  0  0  0
 55 64  1  0  0  0  0
 56 65  1  0  0  0  0
 57 65  1  0  0  0  0
 58 65  1  0  0  0  0
 59 76  1  0  0  0  0
 60 61  1  0  0  0  0
 60 62  1  0  0  0  0
 61 75  1  0  0  0  0
 62 83  1  0  0  0  0
 63 65  1  0  0  0  0
 63 74  1  0  0  0  0
 64 76  1  0  0  0  0
 66 67  1  0  0  0  0
M  CHG  2  75   1  76   1
M  ISO  4  34 100  62 101  68 100  83 101
M  END
> <Batch ID>
0029

> <Smiles>
CNC(C)C(=O)NC(C(=O)N1Cc2cc([101O:1][101CH2:1]CCNC3CCC(C)(C)C4=C3[100N:0]([100C:0](=O)N3CCCC(n5nc(-c6ccc(Oc7ccc(F)cc7F)cc6)c(C(N)=O)c5N)C3)CC4)ccc2CC1C(=O)NC1CCCc2ccccc21)C(C)(C)C

> <Shape>
0.235

> <Color>
0.054

> <Negative vol penalty>
0.000

$$$$

  -OEChem-04052316363D

 83 91  0     1  0  0  0  0  0999 V2000
  -24.7250  -37.0947   21.1358 C   0  0  0  0  0  0  0  0  0  0  0  0
  -25.4409  -36.0161   20.6265 C   0  0  0  0  0  0  0  0  0  0  0  0
  -24.4324   -9.3811   21.7081 C   0  0  0  0  0  0  0  0  0  0  0  0
  -22.6002  -10.4682   20.5687 C   0  0  0  0  0  0  0  0  0  0  0  0
  -24.1314  -37.0041   22.3941 C   0  0  0  0  0  0  0  0  0  0  0  0
  -25.5645  -34.8465   21.3756 C   0  0  0  0  0  0  0  0  0  0  0  0
  -25.7648  -29.1103   19.2399 C   0  0  0  0  0  0  0  0  0  0  0  0
  -23.7067   -8.1904   21.7393 C   0  0  0  0  0  0  0  0  0  0  0  0
  -21.8744   -9.2774   20.5999 C   0  0  0  0  0  0  0  0  0  0  0  0
  -26.8243  -28.2404   18.9859 C   0  0  0  0  0  0  0  0  0  0  0  0
  -21.1924   -6.8534   23.5600 C   0  0  0  0  0  0  0  0  0  0  0  0
  -21.1744   -6.1374   24.7570 C   0  0  0  0  0  0  0  0  0  0  0  0
  -26.5056  -27.2292   21.1527 C   0  0  0  0  0  0  0  0  0  0  0  0
  -27.0534  -20.4875   18.7725 C   0  0  0  0  0  0  0  0  0  0  0  0
  -26.8579  -20.3658   21.5527 C   0  0  0  0  0  0  0  0  0  0  0  0
  -22.1744   -4.2433   23.6390 C   0  0  0  0  0  0  0  0  0  0  0  0
  -23.8792  -10.5201   21.1229 C   0  0  0  0  0  0  0  0  0  0  0  0
  -25.5109  -12.1824   20.0829 C   0  0  0  0  0  0  0  0  0  0  0  0
  -24.2396  -35.8294   23.1550 C   0  0  0  0  0  0  0  0  0  0  0  0
  -25.0736  -29.0533   20.4587 C   0  0  0  0  0  0  0  0  0  0  0  0
  -24.9729  -34.7406   22.6459 C   0  0  0  0  0  0  0  0  0  0  0  0
  -25.4361  -28.0977   21.4187 C   0  0  0  0  0  0  0  0  0  0  0  0
  -27.8140  -21.3486   19.5634 C   0  0  0  0  0  0  0  0  0  0  0  0
  -26.0972  -19.5048   20.7617 C   0  0  0  0  0  0  0  0  0  0  0  0
  -22.4276   -8.1385   21.1852 C   0  0  0  0  0  0  0  0  0  0  0  0
  -27.1968  -27.3016   19.9435 C   0  0  0  0  0  0  0  0  0  0  0  0
  -21.7013   -6.2643   22.4025 C   0  0  0  0  0  0  0  0  0  0  0  0
  -21.6654   -4.8324   24.7965 C   0  0  0  0  0  0  0  0  0  0  0  0
  -22.1923   -4.9593   22.4421 C   0  0  0  0  0  0  0  0  0  0  0  0
  -26.1950  -19.5656   19.3716 C   0  0  0  0  0  0  0  0  0  0  0  0
  -27.7163  -21.2877   20.9535 C   0  0  0  0  0  0  0  0  0  0  0  0
  -24.6282  -11.7505   21.0908 C   0  0  0  0  0  0  0  0  0  0  0  0
  -25.9617  -13.4035   20.5213 C   0  0  0  0  0  0  0  0  0  0  0  0
  -25.8896  -11.5375   18.8596 C   0  0  0  0  0  0  0  0  0  0  0  0
  -24.6105  -31.0703   22.8713 C   0  0  0  0  0  0  0  0  0  0  0  0
  -22.6229  -28.7357   23.9302 C   0  0  0  0  0  0  0  0  0  0  0  0
  -21.7641  -25.4328   23.9112 C   0  0  0  0  0  0  0  0  0  0  0  0
  -25.0438  -18.4127   22.7727 C   0  0  0  0  0  0  0  0  0  0  0  0
  -23.6206  -35.7955   24.5299 C   0  0  0  0  0  0  0  0  0  0  0  0
  -23.9157  -29.9808   20.7065 C   0  0  0  0  0  0  0  0  0  0  0  0
  -24.7131  -27.9821   22.7349 C   0  0  0  0  0  0  0  0  0  0  0  0
  -23.4824  -34.3866   25.1010 C   0  0  0  0  0  0  0  0  0  0  0  0
  -25.4633  -15.6791   25.0152 C   0  0  0  0  0  0  0  0  0  0  0  0
  -24.7763  -33.6024   24.9068 C   0  0  0  0  0  0  0  0  0  0  0  0
  -25.3560  -14.4489   24.1112 C   0  0  0  0  0  0  0  0  0  0  0  0
  -24.5101  -16.7896   24.5771 C   0  0  0  0  0  0  0  0  0  0  0  0
  -24.5106  -15.9490   22.2613 C   0  0  0  0  0  0  0  0  0  0  0  0
  -25.1084  -33.4461   23.4179 C   0  0  1  0  0  0  0  0  0  0  0  0
  -23.6138  -30.1766   22.1891 C   0  0  1  0  0  0  0  0  0  0  0  0
  -25.4984  -14.8281   22.6241 C   0  0  2  0  0  0  0  0  0  0  0  0
  -20.1185  -23.8196   24.9047 C   0  0  0  0  0  0  0  0  0  0  0  0
  -24.1557  -28.8002   26.5677 C   0  0  0  0  0  0  0  0  0  0  0  0
  -23.1287  -26.5894   27.1383 C   0  0  0  0  0  0  0  0  0  0  0  0
  -21.6752  -28.5895   26.8075 C   0  0  0  0  0  0  0  0  0  0  0  0
  -20.6851  -24.7151   21.2505 C   0  0  0  0  0  0  0  0  0  0  0  0
  -28.7256  -22.3251   18.8804 C   0  0  0  0  0  0  0  0  0  0  0  0
  -29.1148  -24.7192   18.2843 C   0  0  0  0  0  0  0  0  0  0  0  0
  -28.4636  -26.0871   18.3385 C   0  0  0  0  0  0  0  0  0  1  0  0
  -22.7784  -27.5138   24.8030 C   0  0  1  0  0  0  0  0  0  0  0  0
  -20.4242  -24.7415   23.7344 C   0  0  2  0  0  0  0  0  0  0  0  0
  -22.9496  -27.8764   26.3052 C   0  0  0  0  0  0  0  0  0  0  0  0
  -24.5231  -12.6260   22.0941 N   0  0  0  0  0  0  0  0  0  0  0  0
  -25.3458  -13.6202   21.7187 N   0  0  0  0  0  0  0  0  0  0  0  0
  -23.5919  -28.9155   22.9328 N   0  0  0  0  0  0  0  0  0  0  0  0
  -24.7050  -17.0986   23.1588 N   0  0  0  0  0  0  0  0  0  0  0  0
  -26.8209  -14.3023   19.9955 N   0  0  0  0  0  0  0  0  0  0  0  0
  -25.3321  -10.2861   18.5637 N   0  0  0  0  0  0  0  0  0  0  0  0
  -25.2359  -18.5793   21.4016 N   0  0  0  0  0  0  0  0  0  0  0  0
  -24.2879  -32.4131   22.8228 N   0  0  0  0  0  0  0  0  0  0  0  0
  -21.6280  -26.6619   24.5213 N   0  0  0  0  0  0  0  0  0  0  0  0
  -20.4208  -23.9306   22.4841 N   0  3  0  0  0  0  0  0  0  0  0  0
  -28.2064  -23.7193   18.9003 N   0  3  0  0  0  0  0  0  0  0  0  0
  -26.7109  -12.0481   18.0607 O   0  0  0  0  0  0  0  0  0  0  0  0
  -25.5984  -30.5780   23.4036 O   0  0  0  0  0  0  0  0  0  0  0  0
  -21.6727  -29.4986   24.1215 O   0  0  0  0  0  0  0  0  0  0  0  0
  -22.8256  -24.9310   23.5481 O   0  0  0  0  0  0  0  0  0  0  0  0
  -25.1821  -19.3170   23.6004 O   0  0  0  0  0  0  0  0  0  0  0  0
  -21.7192   -6.9767   21.2152 O   0  0  0  0  0  0  0  0  0  0  0  0
  -28.2310  -26.4518   19.6983 O   0  0  0  0  0  0  0  0  0  1  0  0
  -21.6494   -4.1455   25.9463 F   0  0  0  0  0  0  0  0  0  0  0  0
  -22.6836   -4.3885   21.3336 F   0  0  0  0  0  0  0  0  0  0  0  0
  -25.2707  -18.5183   18.3551 Cl  0  0  0  0  0  0  0  0  0  0  0  0
  -28.6413  -22.3384   21.9635 Cl  0  0  0  0  0  0  0  0  0  0  0  0
  1  2  1  0  0  0  0
  1  5  2  0  0  0  0
  2  6  2  0  0  0  0
  3  8  2  0  0  0  0
  3 17  1  0  0  0  0
  4  9  1  0  0  0  0
  4 17  2  0  0  0  0
  5 19  1  0  0  0  0
  6 21  1  0  0  0  0
  7 10  2  0  0  0  0
  7 20  1  0  0  0  0
  8 25  1  0  0  0  0
  9 25  2  0  0  0  0
 10 26  1  0  0  0  0
 11 12  2  0  0  0  0
 11 27  1  0  0  0  0
 12 28  1  0  0  0  0
 13 22  1  0  0  0  0
 13 26  2  0  0  0  0
 14 23  1  0  0  0  0
 14 30  2  0  0  0  0
 15 24  2  0  0  0  0
 15 31  1  0  0  0  0
 16 28  2  0  0  0  0
 16 29  1  0  0  0  0
 17 32  1  0  0  0  0
 18 32  1  0  0  0  0
 18 33  2  0  0  0  0
 18 34  1  0  0  0  0
 19 21  2  0  0  0  0
 19 39  1  0  0  0  0
 20 22  2  0  0  0  0
 20 40  1  0  0  0  0
 21 48  1  0  0  0  0
 22 41  1  0  0  0  0
 23 31  2  0  0  0  0
 23 56  1  0  0  0  0
 24 30  1  0  0  0  0
 24 68  1  0  0  0  0
 25 78  1  0  0  0  0
 26 79  1  0  0  0  0
 27 29  2  0  0  0  0
 27 78  1  0  0  0  0
 28 80  1  0  0  0  0
 29 81  1  0  0  0  0
 30 82  1  0  0  0  0
 31 83  1  0  0  0  0
 32 62  2  0  0  0  0
 33 63  1  0  0  0  0
 33 66  1  0  0  0  0
 34 67  1  0  0  0  0
 34 73  2  0  0  0  0
 35 49  1  0  0  0  0
 35 69  1  0  0  0  0
 35 74  2  0  0  0  0
 36 59  1  0  0  0  0
 36 64  1  0  0  0  0
 36 75  2  0  0  0  0
 37 60  1  0  0  0  0
 37 70  1  0  0  0  0
 37 76  2  0  0  0  0
 38 65  1  0  0  0  0
 38 68  1  0  0  0  0
 38 77  2  0  0  0  0
 39 42  1  0  0  0  0
 40 49  1  0  0  0  0
 41 64  1  0  0  0  0
 42 44  1  0  0  0  0
 43 45  1  0  0  0  0
 43 46  1  0  0  0  0
 44 48  1  0  0  0  0
 45 50  1  0  0  0  0
 46 65  1  0  0  0  0
 47 50  1  0  0  0  0
 47 65  1  0  0  0  0
 48 69  1  0  0  0  0
 49 64  1  0  0  0  0
 50 63  1  0  0  0  0
 51 60  1  0  0  0  0
 52 61  1  0  0  0  0
 53 61  1  0  0  0  0
 54 61  1  0  0  0  0
 55 71  1  0  0  0  0
 56 72  1  0  0  0  0
 57 58  1  0  0  0  0
 57 72  1  0  0  0  0
 58 79  1  0  0  0  0
 59 61  1  0  0  0  0
 59 70  1  0  0  0  0
 60 71  1  0  0  0  0
 62 63  1  0  0  0  0
M  CHG  2  71   1  72   1
M  ISO  4  38 100  58 101  68 100  79 101
M  END
> <Batch ID>
0029

> <Smiles>
CNC(C)C(=O)NC(C(=O)N1Cc2cc([101O:1][101CH2:1]CNCc3cc(Cl)c([100NH:0][100C:0](=O)N4CCCC(n5nc(-c6ccc(Oc7ccc(F)cc7F)cc6)c(C(N)=O)c5N)C4)cc3Cl)ccc2CC1C(=O)NC1CCCc2ccccc21)C(C)(C)C

> <Shape>
0.270

> <Color>
0.114

> <Negative vol penalty>
0.000

$$$$

  -OEChem-04052316363D

 84 92  0     1  0  0  0  0  0999 V2000
  -27.1777  -10.1119   17.6918 C   0  0  0  0  0  0  0  0  0  0  0  0
  -26.2324  -10.3921   18.6733 C   0  0  0  0  0  0  0  0  0  0  0  0
  -26.1326  -27.6679   21.2597 C   0  0  0  0  0  0  0  0  0  0  0  0
  -25.4981  -29.0200   19.3607 C   0  0  0  0  0  0  0  0  0  0  0  0
  -28.3837  -10.8111   17.6673 C   0  0  0  0  0  0  0  0  0  0  0  0
  -26.4931  -11.3709   19.6316 C   0  0  0  0  0  0  0  0  0  0  0  0
  -23.1723  -16.3305   23.5927 C   0  0  0  0  0  0  0  0  0  0  0  0
  -27.4316  -27.5756   20.7600 C   0  0  0  0  0  0  0  0  0  0  0  0
  -26.7972  -28.9277   18.8610 C   0  0  0  0  0  0  0  0  0  0  0  0
  -23.0493  -16.7453   24.9180 C   0  0  0  0  0  0  0  0  0  0  0  0
  -30.1998  -29.5137   20.6452 C   0  0  0  0  0  0  0  0  0  0  0  0
  -31.2533  -29.7056   21.5390 C   0  0  0  0  0  0  0  0  0  0  0  0
  -25.1339  -17.9444   24.7299 C   0  0  0  0  0  0  0  0  0  0  0  0
  -20.6746  -23.6873   25.1439 C   0  0  0  0  0  0  0  0  0  0  0  0
  -32.0622  -27.4792   21.0635 C   0  0  0  0  0  0  0  0  0  0  0  0
  -25.1658  -28.3901   20.5600 C   0  0  0  0  0  0  0  0  0  0  0  0
  -20.0198  -23.4650   22.8290 C   0  0  0  0  0  0  0  0  0  0  0  0
  -23.3147  -29.4683   21.9451 C   0  0  0  0  0  0  0  0  0  0  0  0
  -28.6553  -11.8057   18.6200 C   0  0  0  0  0  0  0  0  0  0  0  0
  -24.2844  -16.7112   22.8280 C   0  0  0  0  0  0  0  0  0  0  0  0
  -27.7045  -12.0831   19.6207 C   0  0  0  0  0  0  0  0  0  0  0  0
  -25.2674  -17.5353   23.3943 C   0  0  0  0  0  0  0  0  0  0  0  0
  -19.8535  -24.0599   24.0797 C   0  0  0  0  0  0  0  0  0  0  0  0
  -21.6621  -22.7199   24.9574 C   0  0  0  0  0  0  0  0  0  0  0  0
  -21.8283  -22.1251   23.7068 C   0  0  0  0  0  0  0  0  0  0  0  0
  -27.7639  -28.2055   19.5607 C   0  0  0  0  0  0  0  0  0  0  0  0
  -24.0316  -17.5500   25.4877 C   0  0  0  0  0  0  0  0  0  0  0  0
  -30.0774  -28.3045   19.9606 C   0  0  0  0  0  0  0  0  0  0  0  0
  -32.1845  -28.6883   21.7481 C   0  0  0  0  0  0  0  0  0  0  0  0
  -31.0086  -27.2873   20.1697 C   0  0  0  0  0  0  0  0  0  0  0  0
  -21.0072  -22.4977   22.6426 C   0  0  0  0  0  0  0  0  0  0  0  0
  -23.8236  -28.4853   21.0753 C   0  0  0  0  0  0  0  0  0  0  0  0
  -22.0006  -29.1149   22.1314 C   0  0  0  0  0  0  0  0  0  0  0  0
  -19.1423  -23.8741   21.7247 C   0  0  0  0  0  0  0  0  0  0  0  0
  -23.9712  -30.5999   22.5320 C   0  0  0  0  0  0  0  0  0  0  0  0
  -26.6473  -15.1571   21.3773 C   0  0  0  0  0  0  0  0  0  0  0  0
  -27.3835  -18.1125   20.2610 C   0  0  0  0  0  0  0  0  0  0  0  0
  -27.7626  -21.6826   20.6183 C   0  0  0  0  0  0  0  0  0  0  0  0
  -29.9927  -12.5018   18.5816 C   0  0  0  0  0  0  0  0  0  0  0  0
  -24.3889  -16.2775   21.3916 C   0  0  0  0  0  0  0  0  0  0  0  0
  -26.4706  -17.9884   22.6098 C   0  0  0  0  0  0  0  0  0  0  0  0
  -30.0354  -13.7849   19.4076 C   0  0  0  0  0  0  0  0  0  0  0  0
  -18.3701  -26.8782   19.9581 C   0  0  0  0  0  0  0  0  0  0  0  0
  -29.4156  -13.5555   20.7824 C   0  0  0  0  0  0  0  0  0  0  0  0
  -19.6403  -27.7174   20.1082 C   0  0  0  0  0  0  0  0  0  0  0  0
  -18.6894  -25.3912   19.8265 C   0  0  0  0  0  0  0  0  0  0  0  0
  -20.8082  -25.6863   21.0628 C   0  0  0  0  0  0  0  0  0  0  0  0
  -27.9402  -13.1550   20.6625 C   0  0  1  0  0  0  0  0  0  0  0  0
  -25.8198  -16.3009   20.8630 C   0  0  1  0  0  0  0  0  0  0  0  0
  -20.5280  -27.1865   21.2495 C   0  0  1  0  0  0  0  0  0  0  0  0
  -18.8051  -25.0991   24.3133 C   0  0  0  0  0  0  0  0  0  0  0  0
  -22.8943  -21.0881   23.5303 C   0  0  0  0  0  0  0  0  0  0  0  0
  -28.4141  -23.4303   18.9394 C   0  0  0  0  0  0  0  0  0  0  0  0
  -30.2059  -17.6787   21.3362 C   0  0  0  0  0  0  0  0  0  0  0  0
  -30.5915  -20.1431   21.1214 C   0  0  0  0  0  0  0  0  0  0  0  0
  -30.1019  -18.7775   19.0920 C   0  0  0  0  0  0  0  0  0  0  0  0
  -25.3154  -23.2629   21.1409 C   0  0  0  0  0  0  0  0  0  0  0  0
  -22.5297  -22.3376   26.1202 C   0  0  0  0  0  0  0  0  0  0  0  0
  -22.6110  -19.2231   28.3461 C   0  0  0  0  0  0  0  0  0  0  0  0
  -23.0560  -20.5757   27.8106 C   0  0  0  0  0  0  0  0  0  0  0  0
  -22.5925  -18.1225   27.2925 C   0  0  0  0  0  0  0  0  0  1  0  0
  -28.2473  -19.2529   20.7432 C   0  0  1  0  0  0  0  0  0  0  0  0
  -27.2618  -22.7499   19.6620 C   0  0  2  0  0  0  0  0  0  0  0  0
  -29.7651  -18.9531   20.5888 C   0  0  0  0  0  0  0  0  0  0  0  0
  -22.9076  -27.5756   20.7330 N   0  0  0  0  0  0  0  0  0  0  0  0
  -21.8098  -27.9855   21.3911 N   0  0  0  0  0  0  0  0  0  0  0  0
  -19.5456  -24.9465   20.9255 N   0  0  0  0  0  0  0  0  0  0  0  0
  -26.5308  -17.5328   21.2111 N   0  0  0  0  0  0  0  0  0  0  0  0
  -21.0013  -29.6632   22.8547 N   0  0  0  0  0  0  0  0  0  0  0  0
  -25.3237  -30.8159   22.2349 N   0  0  0  0  0  0  0  0  0  0  0  0
  -27.1218  -14.3167   20.3883 N   0  0  0  0  0  0  0  0  0  0  0  0
  -27.7963  -20.4391   20.0236 N   0  0  0  0  0  0  0  0  0  0  0  0
  -26.4922  -23.7892   20.4026 N   0  3  0  0  0  0  0  0  0  0  0  0
  -22.1773  -21.0121   26.7002 N   0  3  0  0  0  0  0  0  0  0  0  0
  -18.0980  -23.2370   21.5957 O   0  0  0  0  0  0  0  0  0  0  0  0
  -23.3803  -31.3865   23.3102 O   0  0  0  0  0  0  0  0  0  0  0  0
  -26.8423  -15.0461   22.5820 O   0  0  0  0  0  0  0  0  0  0  0  0
  -27.4574  -17.7541   19.0830 O   0  0  0  0  0  0  0  0  0  0  0  0
  -28.0944  -21.9282   21.7759 O   0  0  0  0  0  0  0  0  0  0  0  0
  -29.0314  -28.1158   19.0729 O   0  0  0  0  0  0  0  0  0  0  0  0
  -23.9143  -17.9558   26.7814 O   0  0  0  0  0  0  0  0  0  1  0  0
  -33.1971  -28.8733   22.6053 F   0  0  0  0  0  0  0  0  0  0  0  0
  -30.8970  -26.1239   19.5141 F   0  0  0  0  0  0  0  0  0  0  0  0
  -21.2172  -21.7542   21.0898 Cl  0  0  0  0  0  0  0  0  0  0  0  0
  1  2  1  0  0  0  0
  1  5  2  0  0  0  0
  2  6  2  0  0  0  0
  3  8  2  0  0  0  0
  3 16  1  0  0  0  0
  4  9  1  0  0  0  0
  4 16  2  0  0  0  0
  5 19  1  0  0  0  0
  6 21  1  0  0  0  0
  7 10  2  0  0  0  0
  7 20  1  0  0  0  0
  8 26  1  0  0  0  0
  9 26  2  0  0  0  0
 10 27  1  0  0  0  0
 11 12  2  0  0  0  0
 11 28  1  0  0  0  0
 12 29  1  0  0  0  0
 13 22  1  0  0  0  0
 13 27  2  0  0  0  0
 14 23  2  0  0  0  0
 14 24  1  0  0  0  0
 15 29  2  0  0  0  0
 15 30  1  0  0  0  0
 16 32  1  0  0  0  0
 17 23  1  0  0  0  0
 17 31  2  0  0  0  0
 17 34  1  0  0  0  0
 18 32  1  0  0  0  0
 18 33  2  0  0  0  0
 18 35  1  0  0  0  0
 19 21  2  0  0  0  0
 19 39  1  0  0  0  0
 20 22  2  0  0  0  0
 20 40  1  0  0  0  0
 21 48  1  0  0  0  0
 22 41  1  0  0  0  0
 23 51  1  0  0  0  0
 24 25  2  0  0  0  0
 24 58  1  0  0  0  0
 25 31  1  0  0  0  0
 25 52  1  0  0  0  0
 26 80  1  0  0  0  0
 27 81  1  0  0  0  0
 28 30  2  0  0  0  0
 28 80  1  0  0  0  0
 29 82  1  0  0  0  0
 30 83  1  0  0  0  0
 31 84  1  0  0  0  0
 32 65  2  0  0  0  0
 33 66  1  0  0  0  0
 33 69  1  0  0  0  0
 34 67  1  0  0  0  0
 34 75  2  0  0  0  0
 35 70  1  0  0  0  0
 35 76  2  0  0  0  0
 36 49  1  0  0  0  0
 36 71  1  0  0  0  0
 36 77  2  0  0  0  0
 37 62  1  0  0  0  0
 37 68  1  0  0  0  0
 37 78  2  0  0  0  0
 38 63  1  0  0  0  0
 38 72  1  0  0  0  0
 38 79  2  0  0  0  0
 39 42  1  0  0  0  0
 40 49  1  0  0  0  0
 41 68  1  0  0  0  0
 42 44  1  0  0  0  0
 43 45  1  0  0  0  0
 43 46  1  0  0  0  0
 44 48  1  0  0  0  0
 45 50  1  0  0  0  0
 46 67  1  0  0  0  0
 47 50  1  0  0  0  0
 47 67  1  0  0  0  0
 48 71  1  0  0  0  0
 49 68  1  0  0  0  0
 50 66  1  0  0  0  0
 53 63  1  0  0  0  0
 54 64  1  0  0  0  0
 55 64  1  0  0  0  0
 56 64  1  0  0  0  0
 57 73  1  0  0  0  0
 58 74  1  0  0  0  0
 59 60  1  0  0  0  0
 59 61  1  0  0  0  0
 60 74  1  0  0  0  0
 61 81  1  0  0  0  0
 62 64  1  0  0  0  0
 62 72  1  0  0  0  0
 63 73  1  0  0  0  0
 65 66  1  0  0  0  0
M  CHG  2  73   1  74   1
M  ISO  4  17 100  34 100  61 101  81 101
M  END
> <Batch ID>
0029

> <Smiles>
CNC(C)C(=O)NC(C(=O)N1Cc2cc([101O:1][101CH2:1]CCNCc3cc(C)[100c:0]([100C:0](=O)N4CCCC(n5nc(-c6ccc(Oc7ccc(F)cc7F)cc6)c(C(N)=O)c5N)C4)c(Cl)c3C)ccc2CC1C(=O)NC1CCCc2ccccc21)C(C)(C)C

> <Shape>
0.224

> <Color>
0.057

> <Negative vol penalty>
0.000

$$$$

  -OEChem-04052316363D

 91100  0     1  0  0  0  0  0999 V2000
  -30.0106  -28.1608   15.6922 C   0  0  0  0  0  0  0  0  0  0  0  0
  -28.9950  -27.7025   16.5253 C   0  0  0  0  0  0  0  0  0  0  0  0
  -24.3753   -9.4603   21.8364 C   0  0  0  0  0  0  0  0  0  0  0  0
  -22.8148  -10.0073   20.0750 C   0  0  0  0  0  0  0  0  0  0  0  0
  -30.8792  -29.1568   16.1367 C   0  0  0  0  0  0  0  0  0  0  0  0
  -28.8481  -28.2393   17.8038 C   0  0  0  0  0  0  0  0  0  0  0  0
  -24.0230  -29.2885   18.9275 C   0  0  0  0  0  0  0  0  0  0  0  0
  -23.6304   -8.3215   22.1427 C   0  0  0  0  0  0  0  0  0  0  0  0
  -22.0698   -8.8685   20.3813 C   0  0  0  0  0  0  0  0  0  0  0  0
  -23.2067  -28.2183   19.2908 C   0  0  0  0  0  0  0  0  0  0  0  0
  -20.7893   -7.5800   23.8169 C   0  0  0  0  0  0  0  0  0  0  0  0
  -20.5305   -7.3184   25.1623 C   0  0  0  0  0  0  0  0  0  0  0  0
  -23.4878  -28.8006   21.6149 C   0  0  0  0  0  0  0  0  0  0  0  0
  -29.4022  -24.0736   19.0451 C   0  0  0  0  0  0  0  0  0  0  0  0
  -27.6063  -23.2835   20.4548 C   0  0  0  0  0  0  0  0  0  0  0  0
  -21.6807   -5.2023   24.9721 C   0  0  0  0  0  0  0  0  0  0  0  0
  -23.9675  -10.3032   20.8025 C   0  0  0  0  0  0  0  0  0  0  0  0
  -25.8023  -11.5786   19.5718 C   0  0  0  0  0  0  0  0  0  0  0  0
  -30.7368  -29.7128   17.4178 C   0  0  0  0  0  0  0  0  0  0  0  0
  -24.5877  -30.1176   19.9074 C   0  0  0  0  0  0  0  0  0  0  0  0
  -29.7164  -29.2427   18.2664 C   0  0  0  0  0  0  0  0  0  0  0  0
  -24.3089  -29.8822   21.2613 C   0  0  0  0  0  0  0  0  0  0  0  0
  -29.5721  -22.7849   18.5392 C   0  0  0  0  0  0  0  0  0  0  0  0
  -27.7761  -21.9947   19.9488 C   0  0  0  0  0  0  0  0  0  0  0  0
  -22.4777   -8.0256   21.4152 C   0  0  0  0  0  0  0  0  0  0  0  0
  -22.9413  -27.9725   20.6348 C   0  0  0  0  0  0  0  0  0  0  0  0
  -21.4938   -6.6528   23.0491 C   0  0  0  0  0  0  0  0  0  0  0  0
  -20.9762   -6.1296   25.7399 C   0  0  0  0  0  0  0  0  0  0  0  0
  -21.9395   -5.4639   23.6267 C   0  0  0  0  0  0  0  0  0  0  0  0
  -28.4193  -24.3229   20.0030 C   0  0  0  0  0  0  0  0  0  0  0  0
  -28.7591  -21.7455   18.9910 C   0  0  0  0  0  0  0  0  0  0  0  0
  -24.7363  -11.4800   20.4860 C   0  0  0  0  0  0  0  0  0  0  0  0
  -26.1895  -12.8948   19.6364 C   0  0  0  0  0  0  0  0  0  0  0  0
  -26.3900  -10.5705   18.7387 C   0  0  0  0  0  0  0  0  0  0  0  0
  -27.5522  -30.8316   20.8050 C   0  0  0  0  0  0  0  0  0  0  0  0
  -26.0404  -32.9599   22.7303 C   0  0  0  0  0  0  0  0  0  0  0  0
  -24.8932  -35.1305   25.1008 C   0  0  0  0  0  0  0  0  0  0  0  0
  -25.1554  -18.1747   19.7555 C   0  0  0  0  0  0  0  0  0  0  0  0
  -31.7291  -30.7540   17.8716 C   0  0  0  0  0  0  0  0  0  0  0  0
  -25.4445  -31.2840   19.4977 C   0  0  0  0  0  0  0  0  0  0  0  0
  -24.8743  -30.7550   22.3508 C   0  0  0  0  0  0  0  0  0  0  0  0
  -31.2731  -31.5349   19.1014 C   0  0  0  0  0  0  0  0  0  0  0  0
  -24.9375  -16.5518   22.8845 C   0  0  0  0  0  0  0  0  0  0  0  0
  -30.7324  -30.5859   20.1662 C   0  0  0  0  0  0  0  0  0  0  0  0
  -22.4610  -21.7588   21.9725 C   0  0  0  0  0  0  0  0  0  0  0  0
  -21.2740  -20.8112   19.9523 C   0  0  0  0  0  0  0  0  0  0  0  0
  -24.9436  -15.0826   22.4645 C   0  0  0  0  0  0  0  0  0  0  0  0
  -23.7918  -21.2214   21.4453 C   0  0  0  0  0  0  0  0  0  0  0  0
  -22.6027  -20.2715   19.4220 C   0  0  0  0  0  0  0  0  0  0  0  0
  -24.1036  -17.4167   21.9375 C   0  0  0  0  0  0  0  0  0  0  0  0
  -24.4908  -15.8132   20.0932 C   0  0  0  0  0  0  0  0  0  0  0  0
  -29.5094  -29.8176   19.6508 C   0  0  1  0  0  0  0  0  0  0  0  0
  -26.3831  -31.7539   20.6049 C   0  0  1  0  0  0  0  0  0  0  0  0
  -21.4407  -22.0386   20.8597 C   0  0  0  0  0  0  0  0  0  0  0  0
  -25.3705  -14.9326   20.9940 C   0  0  2  0  0  0  0  0  0  0  0  0
  -23.5868  -19.9909   20.5591 C   0  0  0  0  0  0  0  0  0  0  0  0
  -30.6374  -22.5641   17.5135 C   0  0  0  0  0  0  0  0  0  0  0  0
  -25.5714  -36.2451   27.2444 C   0  0  0  0  0  0  0  0  0  0  0  0
  -25.5768  -30.3455   24.2336 C   0  0  0  0  0  0  0  0  0  0  0  0
  -25.3231  -31.6805   26.3363 C   0  0  0  0  0  0  0  0  0  0  0  0
  -27.4840  -31.7176   25.0906 C   0  0  0  0  0  0  0  0  0  0  0  0
  -24.6322  -37.8296   23.9153 C   0  0  0  0  0  0  0  0  0  0  0  0
  -26.8731  -20.9019   20.4660 C   0  0  0  0  0  0  0  0  0  0  0  0
  -21.8080  -23.2897   20.0570 C   0  0  0  0  0  0  0  0  0  0  0  0
  -21.8231  -24.5355   20.9381 C   0  0  0  0  0  0  0  0  0  0  0  0
  -25.7425  -20.5556   19.5007 C   0  0  0  0  0  0  0  0  0  0  0  0
  -22.1453  -25.7881   20.1340 C   0  0  0  0  0  0  0  0  0  1  0  0
  -25.4796  -32.9235   24.1314 C   0  0  1  0  0  0  0  0  0  0  0  0
  -25.5225  -36.3610   25.7289 C   0  0  2  0  0  0  0  0  0  0  0  0
  -25.9493  -31.6720   24.9255 C   0  0  0  0  0  0  0  0  0  0  0  0
  -24.4637  -12.6411   21.0873 N   0  0  0  0  0  0  0  0  0  0  0  0
  -25.3642  -13.4817   20.5500 N   0  0  0  0  0  0  0  0  0  0  0  0
  -25.7114  -31.8791   21.9000 N   0  0  0  0  0  0  0  0  0  0  0  0
  -24.5115  -17.2077   20.5415 N   0  0  0  0  0  0  0  0  0  0  0  0
  -27.1520  -13.5958   19.0004 N   0  0  0  0  0  0  0  0  0  0  0  0
  -25.8706   -9.2700   18.7961 N   0  0  0  0  0  0  0  0  0  0  0  0
  -28.3340  -30.6615   19.6784 N   0  0  0  0  0  0  0  0  0  0  0  0
  -25.8425  -34.1942   24.7495 N   0  0  0  0  0  0  0  0  0  0  0  0
  -24.8635  -19.5201   20.0257 N   0  0  0  0  0  0  0  0  0  0  0  0
  -24.7412  -37.5799   25.3757 N   0  3  0  0  0  0  0  0  0  0  0  0
  -27.3581  -10.8119   17.9784 O   0  0  0  0  0  0  0  0  0  0  0  0
  -27.7325  -30.3137   21.9009 O   0  0  0  0  0  0  0  0  0  0  0  0
  -26.7386  -33.9157   22.3831 O   0  0  0  0  0  0  0  0  0  0  0  0
  -23.6805  -35.0103   24.9415 O   0  0  0  0  0  0  0  0  0  0  0  0
  -25.9424  -17.8546   18.8554 O   0  0  0  0  0  0  0  0  0  0  0  0
  -21.7506   -6.9143   21.7137 O   0  0  0  0  0  0  0  0  0  0  0  0
  -22.1453  -26.9282   20.9922 O   0  0  0  0  0  0  0  0  0  1  0  0
  -20.7289   -5.8791   27.0323 F   0  0  0  0  0  0  0  0  0  0  0  0
  -22.6178   -4.5698   22.8943 F   0  0  0  0  0  0  0  0  0  0  0  0
  -28.2098  -25.9127   20.6281 Cl  0  0  0  0  0  0  0  0  0  0  0  0
  -28.9711  -20.1453   18.3640 Cl  0  0  0  0  0  0  0  0  0  0  0  0
  1  2  1  0  0  0  0
  1  5  2  0  0  0  0
  2  6  2  0  0  0  0
  3  8  2  0  0  0  0
  3 17  1  0  0  0  0
  4  9  1  0  0  0  0
  4 17  2  0  0  0  0
  5 19  1  0  0  0  0
  6 21  1  0  0  0  0
  7 10  2  0  0  0  0
  7 20  1  0  0  0  0
  8 25  1  0  0  0  0
  9 25  2  0  0  0  0
 10 26  1  0  0  0  0
 11 12  2  0  0  0  0
 11 27  1  0  0  0  0
 12 28  1  0  0  0  0
 13 22  1  0  0  0  0
 13 26  2  0  0  0  0
 14 23  2  0  0  0  0
 14 30  1  0  0  0  0
 15 24  1  0  0  0  0
 15 30  2  0  0  0  0
 16 28  2  0  0  0  0
 16 29  1  0  0  0  0
 17 32  1  0  0  0  0
 18 32  1  0  0  0  0
 18 33  2  0  0  0  0
 18 34  1  0  0  0  0
 19 21  2  0  0  0  0
 19 39  1  0  0  0  0
 20 22  2  0  0  0  0
 20 40  1  0  0  0  0
 21 52  1  0  0  0  0
 22 41  1  0  0  0  0
 23 31  1  0  0  0  0
 23 57  1  0  0  0  0
 24 31  2  0  0  0  0
 24 63  1  0  0  0  0
 25 86  1  0  0  0  0
 26 87  1  0  0  0  0
 27 29  2  0  0  0  0
 27 86  1  0  0  0  0
 28 88  1  0  0  0  0
 29 89  1  0  0  0  0
 30 90  1  0  0  0  0
 31 91  1  0  0  0  0
 32 71  2  0  0  0  0
 33 72  1  0  0  0  0
 33 75  1  0  0  0  0
 34 76  1  0  0  0  0
 34 81  2  0  0  0  0
 35 53  1  0  0  0  0
 35 77  1  0  0  0  0
 35 82  2  0  0  0  0
 36 68  1  0  0  0  0
 36 73  1  0  0  0  0
 36 83  2  0  0  0  0
 37 69  1  0  0  0  0
 37 78  1  0  0  0  0
 37 84  2  0  0  0  0
 38 74  1  0  0  0  0
 38 79  1  0  0  0  0
 38 85  2  0  0  0  0
 39 42  1  0  0  0  0
 40 53  1  0  0  0  0
 41 73  1  0  0  0  0
 42 44  1  0  0  0  0
 43 47  1  0  0  0  0
 43 50  1  0  0  0  0
 44 52  1  0  0  0  0
 45 48  1  0  0  0  0
 45 54  1  0  0  0  0
 46 49  1  0  0  0  0
 46 54  1  0  0  0  0
 47 55  1  0  0  0  0
 48 56  1  0  0  0  0
 49 56  1  0  0  0  0
 50 74  1  0  0  0  0
 51 55  1  0  0  0  0
 51 74  1  0  0  0  0
 52 77  1  0  0  0  0
 53 73  1  0  0  0  0
 54 64  1  0  0  0  0
 55 72  1  0  0  0  0
 56 79  1  0  0  0  0
 58 69  1  0  0  0  0
 59 70  1  0  0  0  0
 60 70  1  0  0  0  0
 61 70  1  0  0  0  0
 62 80  1  0  0  0  0
 63 66  1  0  0  0  0
 64 65  1  0  0  0  0
 65 67  1  0  0  0  0
 66 79  1  0  0  0  0
 67 87  1  0  0  0  0
 68 70  1  0  0  0  0
 68 78  1  0  0  0  0
 69 80  1  0  0  0  0
 71 72  1  0  0  0  0
M  CHG  1  80   1
M  ISO  4  38 100  67 101  79 100  87 101
M  END
> <Batch ID>
0029

> <Smiles>
CNC(C)C(=O)NC(C(=O)N1Cc2cc([101O:1][101CH2:1]CCC3CCC([100N:0](CCc4cc(Cl)cc(C)c4Cl)[100C:0](=O)N4CCCC(n5nc(-c6ccc(Oc7ccc(F)cc7F)cc6)c(C(N)=O)c5N)C4)CC3)ccc2CC1C(=O)NC1CCCc2ccccc21)C(C)(C)C

> <Shape>
0.288

> <Color>
0.103

> <Negative vol penalty>
0.000

$$$$

  -OEChem-04052316363D

 91 99  0     1  0  0  0  0  0999 V2000
  -28.1842  -10.8013   20.5922 C   0  0  0  0  0  0  0  0  0  0  0  0
  -27.6781  -11.7282   19.6867 C   0  0  0  0  0  0  0  0  0  0  0  0
  -29.6196  -28.3840   20.8743 C   0  0  0  0  0  0  0  0  0  0  0  0
  -27.9866  -27.5247   19.3148 C   0  0  0  0  0  0  0  0  0  0  0  0
  -27.4135  -10.4017   21.6832 C   0  0  0  0  0  0  0  0  0  0  0  0
  -26.4003  -12.2554   19.8710 C   0  0  0  0  0  0  0  0  0  0  0  0
  -26.2480  -17.2690   19.1740 C   0  0  0  0  0  0  0  0  0  0  0  0
  -30.4575  -27.3053   20.5912 C   0  0  0  0  0  0  0  0  0  0  0  0
  -28.8245  -26.4460   19.0318 C   0  0  0  0  0  0  0  0  0  0  0  0
  -26.2400  -17.7289   17.8579 C   0  0  0  0  0  0  0  0  0  0  0  0
  -30.3765  -23.2758   18.1654 C   0  0  0  0  0  0  0  0  0  0  0  0
  -29.8025  -22.0057   18.1112 C   0  0  0  0  0  0  0  0  0  0  0  0
  -23.8524  -18.0468   17.9899 C   0  0  0  0  0  0  0  0  0  0  0  0
  -25.3737  -22.4714   15.4162 C   0  0  0  0  0  0  0  0  0  0  0  0
  -23.5083  -21.0752   14.7779 C   0  0  0  0  0  0  0  0  0  0  0  0
  -29.0906  -22.2295   20.4092 C   0  0  0  0  0  0  0  0  0  0  0  0
  -28.3841  -28.4936   20.2361 C   0  0  0  0  0  0  0  0  0  0  0  0
  -27.4858  -30.8538   19.8750 C   0  0  0  0  0  0  0  0  0  0  0  0
  -26.1294  -10.9315   21.8864 C   0  0  0  0  0  0  0  0  0  0  0  0
  -25.0547  -17.1841   19.9056 C   0  0  0  0  0  0  0  0  0  0  0  0
  -25.6112  -11.8615   20.9650 C   0  0  0  0  0  0  0  0  0  0  0  0
  -23.8483  -17.5879   19.3160 C   0  0  0  0  0  0  0  0  0  0  0  0
  -24.8842  -21.2809   14.8790 C   0  0  0  0  0  0  0  0  0  0  0  0
  -23.1115  -23.2506   15.7512 C   0  0  0  0  0  0  0  0  0  0  0  0
  -30.0599  -26.3364   19.6700 C   0  0  0  0  0  0  0  0  0  0  0  0
  -25.0417  -18.1152   17.2647 C   0  0  0  0  0  0  0  0  0  0  0  0
  -30.3077  -24.0227   19.3414 C   0  0  0  0  0  0  0  0  0  0  0  0
  -29.1595  -21.4826   19.2331 C   0  0  0  0  0  0  0  0  0  0  0  0
  -29.6647  -23.4996   20.4633 C   0  0  0  0  0  0  0  0  0  0  0  0
  -24.4874  -23.4563   15.8524 C   0  0  0  0  0  0  0  0  0  0  0  0
  -22.6219  -22.0601   15.2140 C   0  0  0  0  0  0  0  0  0  0  0  0
  -27.5179  -29.6073   20.5285 C   0  0  0  0  0  0  0  0  0  0  0  0
  -26.4979  -31.5552   20.5218 C   0  0  0  0  0  0  0  0  0  0  0  0
  -28.2782  -31.3345   18.7810 C   0  0  0  0  0  0  0  0  0  0  0  0
  -23.4179  -14.8204   21.2611 C   0  0  0  0  0  0  0  0  0  0  0  0
  -21.5888  -17.2528   22.3837 C   0  0  0  0  0  0  0  0  0  0  0  0
  -20.5003  -20.4666   22.0182 C   0  0  0  0  0  0  0  0  0  0  0  0
  -21.6720  -29.8680   23.6388 C   0  0  0  0  0  0  0  0  0  0  0  0
  -25.3152  -10.4337   23.0542 C   0  0  0  0  0  0  0  0  0  0  0  0
  -25.0840  -16.7111   21.3331 C   0  0  0  0  0  0  0  0  0  0  0  0
  -22.5428  -17.5352   20.0651 C   0  0  0  0  0  0  0  0  0  0  0  0
  -24.1178  -11.3212   23.3843 C   0  0  0  0  0  0  0  0  0  0  0  0
  -24.3432  -31.9285   24.7772 C   0  0  0  0  0  0  0  0  0  0  0  0
  -23.3543  -11.6818   22.1139 C   0  0  0  0  0  0  0  0  0  0  0  0
  -25.4568  -31.6797   23.7585 C   0  0  0  0  0  0  0  0  0  0  0  0
  -23.5416  -30.6594   25.0582 C   0  0  0  0  0  0  0  0  0  0  0  0
  -24.1105  -29.7443   22.8418 C   0  0  0  0  0  0  0  0  0  0  0  0
  -24.2393  -12.4746   21.1446 C   0  0  1  0  0  0  0  0  0  0  0  0
  -23.7372  -16.1803   21.8145 C   0  0  1  0  0  0  0  0  0  0  0  0
  -24.9111  -31.0081   22.4839 C   0  0  2  0  0  0  0  0  0  0  0  0
  -18.9799  -22.1631   23.0706 C   0  0  0  0  0  0  0  0  0  0  0  0
  -19.1700  -15.8087   21.2116 C   0  0  0  0  0  0  0  0  0  0  0  0
  -17.8750  -17.9392   21.4396 C   0  0  0  0  0  0  0  0  0  0  0  0
  -18.7910  -16.8151   23.4694 C   0  0  0  0  0  0  0  0  0  0  0  0
  -19.5775  -27.4682   24.0393 C   0  0  0  0  0  0  0  0  0  0  0  0
  -17.9312  -27.5177   22.1683 C   0  0  0  0  0  0  0  0  0  0  0  0
  -22.7432  -22.3268   22.5353 C   0  0  0  0  0  0  0  0  0  0  0  0
  -25.8319  -20.2277   14.4133 C   0  0  0  0  0  0  0  0  0  0  0  0
  -22.1581  -24.3096   16.2209 C   0  0  0  0  0  0  0  0  0  0  0  0
  -20.2520  -26.5353   20.2874 C   0  0  0  0  0  0  0  0  0  0  0  0
  -21.1220  -25.4086   19.7223 C   0  0  0  0  0  0  0  0  0  0  0  0
  -20.2361  -26.5024   21.8208 C   0  0  0  0  0  0  0  0  0  0  0  0
  -19.9077  -29.0489   22.0975 C   0  0  0  0  0  0  0  0  0  0  0  0
  -21.1664  -25.4625   18.2024 C   0  0  0  0  0  0  0  0  0  0  0  0
  -26.2033  -19.2289   15.5136 C   0  0  0  0  0  0  0  0  0  1  0  0
  -20.3709  -17.9927   21.8854 C   0  0  1  0  0  0  0  0  0  0  0  0
  -20.3965  -21.6135   23.0072 C   0  0  2  0  0  0  0  0  0  0  0  0
  -19.0759  -17.1382   21.9865 C   0  0  0  0  0  0  0  0  0  0  0  0
  -19.4293  -27.6381   22.5117 C   0  0  0  0  0  0  0  0  0  0  0  0
  -26.6217  -29.5191   21.5149 N   0  0  0  0  0  0  0  0  0  0  0  0
  -26.0172  -30.7190   21.4861 N   0  0  0  0  0  0  0  0  0  0  0  0
  -22.6224  -17.0596   21.4562 N   0  0  0  0  0  0  0  0  0  0  0  0
  -23.0512  -30.0730   23.8086 N   0  0  0  0  0  0  0  0  0  0  0  0
  -26.0021  -32.7996   20.3541 N   0  0  0  0  0  0  0  0  0  0  0  0
  -29.2487  -30.4838   18.2345 N   0  0  0  0  0  0  0  0  0  0  0  0
  -24.3523  -13.8518   21.5747 N   0  0  0  0  0  0  0  0  0  0  0  0
  -20.3203  -19.2450   22.6320 N   0  0  0  0  0  0  0  0  0  0  0  0
  -21.2915  -29.3137   22.4228 N   0  0  0  0  0  0  0  0  0  0  0  0
  -21.3131  -22.7209   22.6141 N   0  3  0  0  0  0  0  0  0  0  0  0
  -22.0537  -24.3841   17.7041 N   0  3  0  0  0  0  0  0  0  0  0  0
  -28.1411  -32.4902   18.3130 O   0  0  0  0  0  0  0  0  0  0  0  0
  -22.3985  -14.6612   20.6000 O   0  0  0  0  0  0  0  0  0  0  0  0
  -21.6249  -16.8670   23.5548 O   0  0  0  0  0  0  0  0  0  0  0  0
  -20.7155  -20.6374   20.8202 O   0  0  0  0  0  0  0  0  0  0  0  0
  -20.8408  -30.1625   24.5044 O   0  0  0  0  0  0  0  0  0  0  0  0
  -30.8774  -25.2838   19.3933 O   0  0  0  0  0  0  0  0  0  0  0  0
  -25.0309  -18.5670   15.9710 O   0  0  0  0  0  0  0  0  0  1  0  0
  -28.6070  -20.2635   19.1805 F   0  0  0  0  0  0  0  0  0  0  0  0
  -29.5944  -24.2129   21.5955 F   0  0  0  0  0  0  0  0  0  0  0  0
  -25.1363  -24.9148   16.5114 Cl  0  0  0  0  0  0  0  0  0  0  0  0
  -20.9265  -21.7638   15.0711 Cl  0  0  0  0  0  0  0  0  0  0  0  0
  1  2  1  0  0  0  0
  1  5  2  0  0  0  0
  2  6  2  0  0  0  0
  3  8  2  0  0  0  0
  3 17  1  0  0  0  0
  4  9  1  0  0  0  0
  4 17  2  0  0  0  0
  5 19  1  0  0  0  0
  6 21  1  0  0  0  0
  7 10  2  0  0  0  0
  7 20  1  0  0  0  0
  8 25  1  0  0  0  0
  9 25  2  0  0  0  0
 10 26  1  0  0  0  0
 11 12  2  0  0  0  0
 11 27  1  0  0  0  0
 12 28  1  0  0  0  0
 13 22  1  0  0  0  0
 13 26  2  0  0  0  0
 14 23  1  0  0  0  0
 14 30  2  0  0  0  0
 15 23  2  0  0  0  0
 15 31  1  0  0  0  0
 16 28  2  0  0  0  0
 16 29  1  0  0  0  0
 17 32  1  0  0  0  0
 18 32  1  0  0  0  0
 18 33  2  0  0  0  0
 18 34  1  0  0  0  0
 19 21  2  0  0  0  0
 19 39  1  0  0  0  0
 20 22  2  0  0  0  0
 20 40  1  0  0  0  0
 21 48  1  0  0  0  0
 22 41  1  0  0  0  0
 23 58  1  0  0  0  0
 24 30  1  0  0  0  0
 24 31  2  0  0  0  0
 24 59  1  0  0  0  0
 25 86  1  0  0  0  0
 26 87  1  0  0  0  0
 27 29  2  0  0  0  0
 27 86  1  0  0  0  0
 28 88  1  0  0  0  0
 29 89  1  0  0  0  0
 30 90  1  0  0  0  0
 31 91  1  0  0  0  0
 32 70  2  0  0  0  0
 33 71  1  0  0  0  0
 33 74  1  0  0  0  0
 34 75  1  0  0  0  0
 34 81  2  0  0  0  0
 35 49  1  0  0  0  0
 35 76  1  0  0  0  0
 35 82  2  0  0  0  0
 36 66  1  0  0  0  0
 36 72  1  0  0  0  0
 36 83  2  0  0  0  0
 37 67  1  0  0  0  0
 37 77  1  0  0  0  0
 37 84  2  0  0  0  0
 38 73  1  0  0  0  0
 38 78  1  0  0  0  0
 38 85  2  0  0  0  0
 39 42  1  0  0  0  0
 40 49  1  0  0  0  0
 41 72  1  0  0  0  0
 42 44  1  0  0  0  0
 43 45  1  0  0  0  0
 43 46  1  0  0  0  0
 44 48  1  0  0  0  0
 45 50  1  0  0  0  0
 46 73  1  0  0  0  0
 47 50  1  0  0  0  0
 47 73  1  0  0  0  0
 48 76  1  0  0  0  0
 49 72  1  0  0  0  0
 50 71  1  0  0  0  0
 51 67  1  0  0  0  0
 52 68  1  0  0  0  0
 53 68  1  0  0  0  0
 54 68  1  0  0  0  0
 55 69  1  0  0  0  0
 56 69  1  0  0  0  0
 57 79  1  0  0  0  0
 58 65  1  0  0  0  0
 59 80  1  0  0  0  0
 60 61  1  0  0  0  0
 60 62  1  0  0  0  0
 61 64  1  0  0  0  0
 62 69  1  0  0  0  0
 63 69  1  0  0  0  0
 63 78  1  0  0  0  0
 64 80  1  0  0  0  0
 65 87  1  0  0  0  0
 66 68  1  0  0  0  0
 66 77  1  0  0  0  0
 67 79  1  0  0  0  0
 70 71  1  0  0  0  0
M  CHG  2  79   1  80   1
M  ISO  4  38 100  65 101  78 100  87 101
M  END
> <Batch ID>
0029

> <Smiles>
CNC(C)C(=O)NC(C(=O)N1Cc2cc([101O:1][101CH2:1]Cc3cc(Cl)c(CNCCCCC(C)(C)C[100NH:0][100C:0](=O)N4CCCC(n5nc(-c6ccc(Oc7ccc(F)cc7F)cc6)c(C(N)=O)c5N)C4)c(Cl)c3)ccc2CC1C(=O)NC1CCCc2ccccc21)C(C)(C)C

> <Shape>
0.219

> <Color>
0.055

> <Negative vol penalty>
0.000

$$$$

  -OEChem-04052316363D

 85 93  0     1  0  0  0  0  0999 V2000
  -37.3349  -24.9679   30.1529 C   0  0  0  0  0  0  0  0  0  0  0  0
  -36.3739  -24.7313   29.1752 C   0  0  0  0  0  0  0  0  0  0  0  0
  -23.0009   -9.8939   19.9817 C   0  0  0  0  0  0  0  0  0  0  0  0
  -23.7308   -9.9441   22.2842 C   0  0  0  0  0  0  0  0  0  0  0  0
  -38.5234  -24.2389   30.1513 C   0  0  0  0  0  0  0  0  0  0  0  0
  -36.6013  -23.7663   28.1947 C   0  0  0  0  0  0  0  0  0  0  0  0
  -32.5635  -20.8151   27.4000 C   0  0  0  0  0  0  0  0  0  0  0  0
  -22.2362   -8.7584   20.2488 C   0  0  0  0  0  0  0  0  0  0  0  0
  -22.9660   -8.8086   22.5514 C   0  0  0  0  0  0  0  0  0  0  0  0
  -31.5297  -21.3446   26.6289 C   0  0  0  0  0  0  0  0  0  0  0  0
  -23.2130   -5.4703   22.0767 C   0  0  0  0  0  0  0  0  0  0  0  0
  -23.8032   -4.4532   22.8269 C   0  0  0  0  0  0  0  0  0  0  0  0
  -32.3391  -20.1205   24.7142 C   0  0  0  0  0  0  0  0  0  0  0  0
  -28.5439  -20.0259   22.4700 C   0  0  0  0  0  0  0  0  0  0  0  0
  -22.0825   -4.6931   24.5059 C   0  0  0  0  0  0  0  0  0  0  0  0
  -23.7483  -10.4867   20.9994 C   0  0  0  0  0  0  0  0  0  0  0  0
  -24.1305  -13.0029   20.8243 C   0  0  0  0  0  0  0  0  0  0  0  0
  -38.7614  -23.2577   29.1760 C   0  0  0  0  0  0  0  0  0  0  0  0
  -33.5008  -19.9414   26.8303 C   0  0  0  0  0  0  0  0  0  0  0  0
  -37.7947  -23.0244   28.1793 C   0  0  0  0  0  0  0  0  0  0  0  0
  -33.3823  -19.5793   25.4809 C   0  0  0  0  0  0  0  0  0  0  0  0
  -28.3809  -18.7425   21.9605 C   0  0  0  0  0  0  0  0  0  0  0  0
  -22.2187   -8.2158   21.5337 C   0  0  0  0  0  0  0  0  0  0  0  0
  -31.4190  -20.9996   25.2851 C   0  0  0  0  0  0  0  0  0  0  0  0
  -22.0575   -6.0988   22.5411 C   0  0  0  0  0  0  0  0  0  0  0  0
  -23.2379   -4.0646   24.0415 C   0  0  0  0  0  0  0  0  0  0  0  0
  -21.4923   -5.7102   23.7557 C   0  0  0  0  0  0  0  0  0  0  0  0
  -27.5639  -17.8350   22.6257 C   0  0  0  0  0  0  0  0  0  0  0  0
  -24.5389  -11.6594   20.7239 C   0  0  0  0  0  0  0  0  0  0  0  0
  -27.8733  -20.3499   23.6384 C   0  0  0  0  0  0  0  0  0  0  0  0
  -26.9374  -18.2570   23.7872 C   0  0  0  0  0  0  0  0  0  0  0  0
  -25.2388  -13.7269   20.4581 C   0  0  0  0  0  0  0  0  0  0  0  0
  -22.8628  -13.5476   21.2138 C   0  0  0  0  0  0  0  0  0  0  0  0
  -36.6453  -20.0141   26.3710 C   0  0  0  0  0  0  0  0  0  0  0  0
  -36.1750  -16.9690   25.3567 C   0  0  0  0  0  0  0  0  0  0  0  0
  -34.0348  -14.6402   24.0749 C   0  0  0  0  0  0  0  0  0  0  0  0
  -30.7346  -14.6672   20.6959 C   0  0  0  0  0  0  0  0  0  0  0  0
  -40.0813  -22.5281   29.1871 C   0  0  0  0  0  0  0  0  0  0  0  0
  -34.5944  -19.3579   27.6824 C   0  0  0  0  0  0  0  0  0  0  0  0
  -34.3509  -18.6294   24.8267 C   0  0  0  0  0  0  0  0  0  0  0  0
  -40.0846  -21.2617   28.3348 C   0  0  0  0  0  0  0  0  0  0  0  0
  -29.5917  -12.2439   18.3511 C   0  0  0  0  0  0  0  0  0  0  0  0
  -39.4578  -21.5344   26.9711 C   0  0  0  0  0  0  0  0  0  0  0  0
  -28.1443  -11.9823   18.7715 C   0  0  0  0  0  0  0  0  0  0  0  0
  -30.4963  -12.4795   19.5586 C   0  0  0  0  0  0  0  0  0  0  0  0
  -28.5881  -13.2720   20.9019 C   0  0  0  0  0  0  0  0  0  0  0  0
  -37.9940  -21.9686   27.1136 C   0  0  1  0  0  0  0  0  0  0  0  0
  -35.7944  -18.8806   26.8701 C   0  0  1  0  0  0  0  0  0  0  0  0
  -27.6269  -13.0841   19.7157 C   0  0  2  0  0  0  0  0  0  0  0  0
  -24.6898  -17.1483   23.8643 C   0  0  0  0  0  0  0  0  0  0  0  0
  -33.9491  -12.2495   23.3168 C   0  0  0  0  0  0  0  0  0  0  0  0
  -37.6205  -17.7363   22.7815 C   0  0  0  0  0  0  0  0  0  0  0  0
  -36.6844  -15.6698   21.7226 C   0  0  0  0  0  0  0  0  0  0  0  0
  -38.2180  -15.4805   23.6808 C   0  0  0  0  0  0  0  0  0  0  0  0
  -32.0058  -13.9449   26.1141 C   0  0  0  0  0  0  0  0  0  0  0  0
  -29.0806  -18.3440   20.7059 C   0  0  0  0  0  0  0  0  0  0  0  0
  -28.0263  -21.7342   24.2202 C   0  0  0  0  0  0  0  0  0  0  0  0
  -26.0533  -17.3116   24.5302 C   0  0  0  0  0  0  0  0  0  0  0  0
  -30.5673  -17.9805   20.8916 C   0  0  0  0  0  0  0  0  0  0  0  0
  -30.8174  -16.8455   21.8823 C   0  0  0  0  0  0  0  0  0  0  0  0
  -29.1905  -21.8257   25.2006 C   0  0  0  0  0  0  0  0  0  1  0  0
  -35.8592  -16.3207   24.0305 C   0  0  1  0  0  0  0  0  0  0  0  0
  -33.7455  -13.2064   24.4811 C   0  0  2  0  0  0  0  0  0  0  0  0
  -37.0783  -16.3213   23.0654 C   0  0  0  0  0  0  0  0  0  0  0  0
  -25.8075  -11.5345   20.3250 N   0  0  0  0  0  0  0  0  0  0  0  0
  -27.0714  -19.4955   24.3126 N   0  0  0  0  0  0  0  0  0  0  0  0
  -26.2058  -12.8088   20.1714 N   0  0  0  0  0  0  0  0  0  0  0  0
  -35.4066  -18.0904   25.6999 N   0  0  0  0  0  0  0  0  0  0  0  0
  -29.9502  -13.5370   20.4126 N   0  0  0  0  0  0  0  0  0  0  0  0
  -25.4706  -15.0529   20.3564 N   0  0  0  0  0  0  0  0  0  0  0  0
  -21.8327  -12.6621   21.5588 N   0  0  0  0  0  0  0  0  0  0  0  0
  -37.1496  -20.8221   27.3721 N   0  0  0  0  0  0  0  0  0  0  0  0
  -35.3418  -14.9919   24.3386 N   0  0  0  0  0  0  0  0  0  0  0  0
  -30.1389  -15.6248   21.5076 N   0  0  0  0  0  0  0  0  0  0  0  0
  -32.3388  -13.0764   24.9558 N   0  3  0  0  0  0  0  0  0  0  0  0
  -22.6448  -14.7827   21.2388 O   0  0  0  0  0  0  0  0  0  0  0  0
  -36.8316  -20.1449   25.1670 O   0  0  0  0  0  0  0  0  0  0  0  0
  -37.0656  -16.4935   26.0655 O   0  0  0  0  0  0  0  0  0  0  0  0
  -33.1874  -15.3736   23.5704 O   0  0  0  0  0  0  0  0  0  0  0  0
  -31.8790  -14.8147   20.2535 O   0  0  0  0  0  0  0  0  0  0  0  0
  -21.4723   -7.1079   21.7948 O   0  0  0  0  0  0  0  0  0  0  0  0
  -30.4113  -21.5155   24.5300 O   0  0  0  0  0  0  0  0  0  1  0  0
  -23.8039   -3.0868   24.7611 F   0  0  0  0  0  0  0  0  0  0  0  0
  -20.3817   -6.3096   24.2064 F   0  0  0  0  0  0  0  0  0  0  0  0
  -27.3900  -16.5922   22.1576 F   0  0  0  0  0  0  0  0  0  0  0  0
  1  2  1  0  0  0  0
  1  5  2  0  0  0  0
  2  6  2  0  0  0  0
  3  8  2  0  0  0  0
  3 16  1  0  0  0  0
  4  9  1  0  0  0  0
  4 16  2  0  0  0  0
  5 18  1  0  0  0  0
  6 20  1  0  0  0  0
  7 10  2  0  0  0  0
  7 19  1  0  0  0  0
  8 23  1  0  0  0  0
  9 23  2  0  0  0  0
 10 24  1  0  0  0  0
 11 12  2  0  0  0  0
 11 25  1  0  0  0  0
 12 26  1  0  0  0  0
 13 21  1  0  0  0  0
 13 24  2  0  0  0  0
 14 22  2  0  0  0  0
 14 30  1  0  0  0  0
 15 26  2  0  0  0  0
 15 27  1  0  0  0  0
 16 29  1  0  0  0  0
 17 29  1  0  0  0  0
 17 32  2  0  0  0  0
 17 33  1  0  0  0  0
 18 20  2  0  0  0  0
 18 38  1  0  0  0  0
 19 21  2  0  0  0  0
 19 39  1  0  0  0  0
 20 47  1  0  0  0  0
 21 40  1  0  0  0  0
 22 28  1  0  0  0  0
 22 56  1  0  0  0  0
 23 81  1  0  0  0  0
 24 82  1  0  0  0  0
 25 27  2  0  0  0  0
 25 81  1  0  0  0  0
 26 83  1  0  0  0  0
 27 84  1  0  0  0  0
 28 31  2  0  0  0  0
 28 85  1  0  0  0  0
 29 65  2  0  0  0  0
 30 57  1  0  0  0  0
 30 66  2  0  0  0  0
 31 58  1  0  0  0  0
 31 66  1  0  0  0  0
 32 67  1  0  0  0  0
 32 70  1  0  0  0  0
 33 71  1  0  0  0  0
 33 76  2  0  0  0  0
 34 48  1  0  0  0  0
 34 72  1  0  0  0  0
 34 77  2  0  0  0  0
 35 62  1  0  0  0  0
 35 68  1  0  0  0  0
 35 78  2  0  0  0  0
 36 63  1  0  0  0  0
 36 73  1  0  0  0  0
 36 79  2  0  0  0  0
 37 69  1  0  0  0  0
 37 74  1  0  0  0  0
 37 80  2  0  0  0  0
 38 41  1  0  0  0  0
 39 48  1  0  0  0  0
 40 68  1  0  0  0  0
 41 43  1  0  0  0  0
 42 44  1  0  0  0  0
 42 45  1  0  0  0  0
 43 47  1  0  0  0  0
 44 49  1  0  0  0  0
 45 69  1  0  0  0  0
 46 49  1  0  0  0  0
 46 69  1  0  0  0  0
 47 72  1  0  0  0  0
 48 68  1  0  0  0  0
 49 67  1  0  0  0  0
 50 58  1  0  0  0  0
 51 63  1  0  0  0  0
 52 64  1  0  0  0  0
 53 64  1  0  0  0  0
 54 64  1  0  0  0  0
 55 75  1  0  0  0  0
 56 59  1  0  0  0  0
 57 61  1  0  0  0  0
 59 60  1  0  0  0  0
 60 74  1  0  0  0  0
 61 82  1  0  0  0  0
 62 64  1  0  0  0  0
 62 73  1  0  0  0  0
 63 75  1  0  0  0  0
 65 67  1  0  0  0  0
M  CHG  1  75   1
M  ISO  4  37 100  61 101  74 100  82 101
M  END
> <Batch ID>
0029

> <Smiles>
CCc1nc(C[101CH2:1][101O:1]c2ccc3c(c2)CN(C(=O)C(NC(=O)C(C)NC)C(C)(C)C)C(C(=O)NC2CCCc4ccccc42)C3)cc(CCC[100NH:0][100C:0](=O)N2CCCC(n3nc(-c4ccc(Oc5ccc(F)cc5F)cc4)c(C(N)=O)c3N)C2)c1F

> <Shape>
0.183

> <Color>
0.197

> <Negative vol penalty>
0.000

$$$$

  -OEChem-04052316363D

 87 95  0     1  0  0  0  0  0999 V2000
  -29.6188  -23.4132   17.9492 C   0  0  0  0  0  0  0  0  0  0  0  0
  -28.3884  -23.5512   18.5835 C   0  0  0  0  0  0  0  0  0  0  0  0
  -27.7243  -16.4029   20.6767 C   0  0  0  0  0  0  0  0  0  0  0  0
  -26.5450  -16.1620   22.7715 C   0  0  0  0  0  0  0  0  0  0  0  0
  -30.7146  -24.1558   18.3869 C   0  0  0  0  0  0  0  0  0  0  0  0
  -28.2534  -24.4311   19.6568 C   0  0  0  0  0  0  0  0  0  0  0  0
  -24.0556  -27.2465   19.3448 C   0  0  0  0  0  0  0  0  0  0  0  0
  -28.7511  -17.0817   21.3328 C   0  0  0  0  0  0  0  0  0  0  0  0
  -27.5719  -16.8407   23.4276 C   0  0  0  0  0  0  0  0  0  0  0  0
  -22.8529  -26.6381   19.7016 C   0  0  0  0  0  0  0  0  0  0  0  0
  -31.5132  -19.1935   22.3981 C   0  0  0  0  0  0  0  0  0  0  0  0
  -32.0093  -20.3536   21.8035 C   0  0  0  0  0  0  0  0  0  0  0  0
  -22.9623  -27.7034   21.8631 C   0  0  0  0  0  0  0  0  0  0  0  0
  -16.8403  -23.9062   21.9465 C   0  0  0  0  0  0  0  0  0  0  0  0
  -29.8148  -21.3563   21.9286 C   0  0  0  0  0  0  0  0  0  0  0  0
  -26.6212  -15.9432   21.3960 C   0  0  0  0  0  0  0  0  0  0  0  0
  -25.4595  -13.8550   20.5029 C   0  0  0  0  0  0  0  0  0  0  0  0
  -30.5906  -25.0524   19.4600 C   0  0  0  0  0  0  0  0  0  0  0  0
  -24.7273  -28.0806   20.2500 C   0  0  0  0  0  0  0  0  0  0  0  0
  -29.3489  -25.1853   20.1103 C   0  0  0  0  0  0  0  0  0  0  0  0
  -24.1720  -28.3232   21.5145 C   0  0  0  0  0  0  0  0  0  0  0  0
  -18.0600  -23.3888   22.3826 C   0  0  0  0  0  0  0  0  0  0  0  0
  -19.2546  -23.8843   21.8601 C   0  0  0  0  0  0  0  0  0  0  0  0
  -19.2295  -24.8972   20.9015 C   0  0  0  0  0  0  0  0  0  0  0  0
  -18.0098  -25.4147   20.4653 C   0  0  0  0  0  0  0  0  0  0  0  0
  -28.6750  -17.3005   22.7083 C   0  0  0  0  0  0  0  0  0  0  0  0
  -22.3076  -26.8642   20.9619 C   0  0  0  0  0  0  0  0  0  0  0  0
  -30.1678  -19.1147   22.7579 C   0  0  0  0  0  0  0  0  0  0  0  0
  -31.1601  -21.4350   21.5687 C   0  0  0  0  0  0  0  0  0  0  0  0
  -29.3186  -20.1961   22.5232 C   0  0  0  0  0  0  0  0  0  0  0  0
  -16.8152  -24.9191   20.9878 C   0  0  0  0  0  0  0  0  0  0  0  0
  -25.5598  -15.2425   20.7187 C   0  0  0  0  0  0  0  0  0  0  0  0
  -24.2778  -13.6982   19.8206 C   0  0  0  0  0  0  0  0  0  0  0  0
  -26.3544  -12.8020   20.8851 C   0  0  0  0  0  0  0  0  0  0  0  0
  -27.5636  -28.0122   21.6833 C   0  0  0  0  0  0  0  0  0  0  0  0
  -26.6723  -30.9515   22.7264 C   0  0  0  0  0  0  0  0  0  0  0  0
  -24.1431  -33.1312   23.4330 C   0  0  0  0  0  0  0  0  0  0  0  0
  -19.2784  -16.9793   19.5173 C   0  0  0  0  0  0  0  0  0  0  0  0
  -31.8151  -25.7983   19.9279 C   0  0  0  0  0  0  0  0  0  0  0  0
  -26.0101  -28.7506   19.8401 C   0  0  0  0  0  0  0  0  0  0  0  0
  -24.8434  -29.2264   22.5154 C   0  0  0  0  0  0  0  0  0  0  0  0
  -31.4961  -26.9864   20.8317 C   0  0  0  0  0  0  0  0  0  0  0  0
  -21.3629  -15.9978   16.8028 C   0  0  0  0  0  0  0  0  0  0  0  0
  -30.4806  -26.5884   21.8981 C   0  0  0  0  0  0  0  0  0  0  0  0
  -22.6659  -15.5677   17.4792 C   0  0  0  0  0  0  0  0  0  0  0  0
  -20.7229  -17.1871   17.5156 C   0  0  0  0  0  0  0  0  0  0  0  0
  -21.8109  -16.5693   19.6389 C   0  0  0  0  0  0  0  0  0  0  0  0
  -29.1566  -26.1479   21.2621 C   0  0  1  0  0  0  0  0  0  0  0  0
  -26.8698  -29.1725   21.0277 C   0  0  1  0  0  0  0  0  0  0  0  0
  -22.4645  -15.3377   18.9891 C   0  0  2  0  0  0  0  0  0  0  0  0
  -20.5612  -23.3270   22.3299 C   0  0  0  0  0  0  0  0  0  0  0  0
  -17.9977  -26.5020   19.4356 C   0  0  0  0  0  0  0  0  0  0  0  0
  -23.7240  -35.4461   24.3064 C   0  0  0  0  0  0  0  0  0  0  0  0
  -27.2557  -29.9849   25.5611 C   0  0  0  0  0  0  0  0  0  0  0  0
  -25.9487  -31.9392   26.4218 C   0  0  0  0  0  0  0  0  0  0  0  0
  -28.0155  -32.3180   25.0774 C   0  0  0  0  0  0  0  0  0  0  0  0
  -22.8396  -33.9716   20.9123 C   0  0  0  0  0  0  0  0  0  0  0  0
  -18.0595  -22.3045   23.4100 C   0  0  0  0  0  0  0  0  0  0  0  0
  -20.5156  -25.4293   20.3409 C   0  0  0  0  0  0  0  0  0  1  0  0
  -17.6690  -18.0930   22.2002 C   0  0  0  0  0  0  0  0  0  0  0  0
  -18.7407  -18.5382   23.2023 C   0  0  0  0  0  0  0  0  0  0  0  0
  -17.9622  -16.7188   21.6051 C   0  0  0  0  0  0  0  0  0  0  0  0
  -18.4314  -19.8765   23.8629 C   0  0  0  0  0  0  0  0  0  0  0  0
  -25.9258  -31.4786   23.9281 C   0  0  1  0  0  0  0  0  0  0  0  0
  -23.9396  -34.5905   23.0678 C   0  0  2  0  0  0  0  0  0  0  0  0
  -26.7745  -31.4116   25.2291 C   0  0  0  0  0  0  0  0  0  0  0  0
  -24.5245  -15.9190   20.2143 N   0  0  0  0  0  0  0  0  0  0  0  0
  -23.7624  -14.9525   19.6746 N   0  0  0  0  0  0  0  0  0  0  0  0
  -26.0988  -29.8533   22.0700 N   0  0  0  0  0  0  0  0  0  0  0  0
  -20.5583  -16.9038   18.9434 N   0  0  0  0  0  0  0  0  0  0  0  0
  -23.6397  -12.6112   19.3372 N   0  0  0  0  0  0  0  0  0  0  0  0
  -27.5234  -13.1384   21.5810 N   0  0  0  0  0  0  0  0  0  0  0  0
  -28.3921  -27.3006   20.8366 N   0  0  0  0  0  0  0  0  0  0  0  0
  -25.4793  -32.8217   23.5745 N   0  0  0  0  0  0  0  0  0  0  0  0
  -19.2097  -16.6896   20.8745 N   0  0  0  0  0  0  0  0  0  0  0  0
  -22.7522  -34.7415   22.1799 N   0  3  0  0  0  0  0  0  0  0  0  0
  -18.3705  -20.9617   22.8489 N   0  3  0  0  0  0  0  0  0  0  0  0
  -26.1322  -11.6001   20.6029 O   0  0  0  0  0  0  0  0  0  0  0  0
  -27.3633  -27.7805   22.8699 O   0  0  0  0  0  0  0  0  0  0  0  0
  -27.7217  -31.4987   22.3786 O   0  0  0  0  0  0  0  0  0  0  0  0
  -23.2099  -32.3453   23.5818 O   0  0  0  0  0  0  0  0  0  0  0  0
  -18.2708  -17.2773   18.8670 O   0  0  0  0  0  0  0  0  0  0  0  0
  -29.6769  -17.9626   23.3489 O   0  0  0  0  0  0  0  0  0  0  0  0
  -21.1341  -26.2712   21.3130 O   0  0  0  0  0  0  0  0  0  1  0  0
  -31.6371  -22.5496   20.9991 F   0  0  0  0  0  0  0  0  0  0  0  0
  -28.0254  -20.1268   22.8678 F   0  0  0  0  0  0  0  0  0  0  0  0
  -15.2848  -25.5330   20.4753 Cl  0  0  0  0  0  0  0  0  0  0  0  0
  1  2  1  0  0  0  0
  1  5  2  0  0  0  0
  2  6  2  0  0  0  0
  3  8  2  0  0  0  0
  3 16  1  0  0  0  0
  4  9  1  0  0  0  0
  4 16  2  0  0  0  0
  5 18  1  0  0  0  0
  6 20  1  0  0  0  0
  7 10  2  0  0  0  0
  7 19  1  0  0  0  0
  8 26  1  0  0  0  0
  9 26  2  0  0  0  0
 10 27  1  0  0  0  0
 11 12  2  0  0  0  0
 11 28  1  0  0  0  0
 12 29  1  0  0  0  0
 13 21  1  0  0  0  0
 13 27  2  0  0  0  0
 14 22  2  0  0  0  0
 14 31  1  0  0  0  0
 15 29  2  0  0  0  0
 15 30  1  0  0  0  0
 16 32  1  0  0  0  0
 17 32  1  0  0  0  0
 17 33  2  0  0  0  0
 17 34  1  0  0  0  0
 18 20  2  0  0  0  0
 18 39  1  0  0  0  0
 19 21  2  0  0  0  0
 19 40  1  0  0  0  0
 20 48  1  0  0  0  0
 21 41  1  0  0  0  0
 22 23  1  0  0  0  0
 22 58  1  0  0  0  0
 23 24  2  0  0  0  0
 23 51  1  0  0  0  0
 24 25  1  0  0  0  0
 24 59  1  0  0  0  0
 25 31  2  0  0  0  0
 25 52  1  0  0  0  0
 26 83  1  0  0  0  0
 27 84  1  0  0  0  0
 28 30  2  0  0  0  0
 28 83  1  0  0  0  0
 29 85  1  0  0  0  0
 30 86  1  0  0  0  0
 31 87  1  0  0  0  0
 32 67  2  0  0  0  0
 33 68  1  0  0  0  0
 33 71  1  0  0  0  0
 34 72  1  0  0  0  0
 34 78  2  0  0  0  0
 35 49  1  0  0  0  0
 35 73  1  0  0  0  0
 35 79  2  0  0  0  0
 36 64  1  0  0  0  0
 36 69  1  0  0  0  0
 36 80  2  0  0  0  0
 37 65  1  0  0  0  0
 37 74  1  0  0  0  0
 37 81  2  0  0  0  0
 38 70  1  0  0  0  0
 38 75  1  0  0  0  0
 38 82  2  0  0  0  0
 39 42  1  0  0  0  0
 40 49  1  0  0  0  0
 41 69  1  0  0  0  0
 42 44  1  0  0  0  0
 43 45  1  0  0  0  0
 43 46  1  0  0  0  0
 44 48  1  0  0  0  0
 45 50  1  0  0  0  0
 46 70  1  0  0  0  0
 47 50  1  0  0  0  0
 47 70  1  0  0  0  0
 48 73  1  0  0  0  0
 49 69  1  0  0  0  0
 50 68  1  0  0  0  0
 53 65  1  0  0  0  0
 54 66  1  0  0  0  0
 55 66  1  0  0  0  0
 56 66  1  0  0  0  0
 57 76  1  0  0  0  0
 58 77  1  0  0  0  0
 59 84  1  0  0  0  0
 60 61  1  0  0  0  0
 60 62  1  0  0  0  0
 61 63  1  0  0  0  0
 62 75  1  0  0  0  0
 63 77  1  0  0  0  0
 64 66  1  0  0  0  0
 64 74  1  0  0  0  0
 65 76  1  0  0  0  0
 67 68  1  0  0  0  0
M  CHG  2  76   1  77   1
M  ISO  4  38 100  59 101  75 100  84 101
M  END
> <Batch ID>
0029

> <Smiles>
CNC(C)C(=O)NC(C(=O)N1Cc2cc([101O:1][101CH2:1]c3c(C)c(Cl)cc(CNCCCC[100NH:0][100C:0](=O)N4CCCC(n5nc(-c6ccc(Oc7ccc(F)cc7F)cc6)c(C(N)=O)c5N)C4)c3C)ccc2CC1C(=O)NC1CCCc2ccccc21)C(C)(C)C

> <Shape>
0.230

> <Color>
0.064

> <Negative vol penalty>
0.000

$$$$

  -OEChem-04052316363D

 84 92  0     1  0  0  0  0  0999 V2000
  -22.7196  -30.6705   21.4289 C   0  0  0  0  0  0  0  0  0  0  0  0
  -23.5733  -29.6271   21.0855 C   0  0  0  0  0  0  0  0  0  0  0  0
  -22.9605  -10.1107   19.8852 C   0  0  0  0  0  0  0  0  0  0  0  0
  -23.8219   -9.8327   22.1252 C   0  0  0  0  0  0  0  0  0  0  0  0
  -23.1540  -31.9906   21.3170 C   0  0  0  0  0  0  0  0  0  0  0  0
  -24.8616  -29.9033   20.6289 C   0  0  0  0  0  0  0  0  0  0  0  0
  -28.3593  -26.9290   22.7654 C   0  0  0  0  0  0  0  0  0  0  0  0
  -22.1501   -8.9886   20.0575 C   0  0  0  0  0  0  0  0  0  0  0  0
  -23.0115   -8.7106   22.2976 C   0  0  0  0  0  0  0  0  0  0  0  0
  -28.4730  -25.6281   22.2773 C   0  0  0  0  0  0  0  0  0  0  0  0
  -19.7661   -8.0659   22.9849 C   0  0  0  0  0  0  0  0  0  0  0  0
  -19.0619   -7.9550   24.1838 C   0  0  0  0  0  0  0  0  0  0  0  0
  -30.3796  -26.2958   20.9589 C   0  0  0  0  0  0  0  0  0  0  0  0
  -20.1972   -5.8758   24.6582 C   0  0  0  0  0  0  0  0  0  0  0  0
  -23.7964  -10.5328   20.9190 C   0  0  0  0  0  0  0  0  0  0  0  0
  -24.3077  -13.0294   21.0331 C   0  0  0  0  0  0  0  0  0  0  0  0
  -24.4515  -32.2828   20.8680 C   0  0  0  0  0  0  0  0  0  0  0  0
  -29.2497  -27.9274   22.3449 C   0  0  0  0  0  0  0  0  0  0  0  0
  -25.3132  -31.2286   20.5096 C   0  0  0  0  0  0  0  0  0  0  0  0
  -30.2766  -27.6081   21.4451 C   0  0  0  0  0  0  0  0  0  0  0  0
  -22.1755   -8.2886   21.2637 C   0  0  0  0  0  0  0  0  0  0  0  0
  -29.4815  -25.3119   21.3717 C   0  0  0  0  0  0  0  0  0  0  0  0
  -20.6858   -7.0818   22.6226 C   0  0  0  0  0  0  0  0  0  0  0  0
  -19.2774   -6.8600   25.0205 C   0  0  0  0  0  0  0  0  0  0  0  0
  -20.9014   -5.9867   23.4593 C   0  0  0  0  0  0  0  0  0  0  0  0
  -24.6342  -11.6915   20.7413 C   0  0  0  0  0  0  0  0  0  0  0  0
  -25.4319  -13.7399   20.6899 C   0  0  0  0  0  0  0  0  0  0  0  0
  -29.1769  -20.6105   21.3414 C   0  0  0  0  0  0  0  0  0  0  0  0
  -28.8884  -21.7725   20.7111 C   0  0  0  0  0  0  0  0  0  0  0  0
  -29.3325  -19.3543   20.5775 C   0  0  0  0  0  0  0  0  0  0  0  0
  -29.2489  -19.3861   19.2295 C   0  0  0  0  0  0  0  0  0  0  0  0
  -28.7840  -21.7819   19.2130 C   0  0  0  0  0  0  0  0  0  0  0  0
  -23.0965  -13.5807   21.5668 C   0  0  0  0  0  0  0  0  0  0  0  0
  -28.9571  -30.6829   20.7875 C   0  0  0  0  0  0  0  0  0  0  0  0
  -32.1133  -30.9627   21.4821 C   0  0  0  0  0  0  0  0  0  0  0  0
  -35.0588  -29.4195   22.2500 C   0  0  0  0  0  0  0  0  0  0  0  0
  -30.9763  -14.3768   20.6931 C   0  0  0  0  0  0  0  0  0  0  0  0
  -24.8600  -33.7270   20.7186 C   0  0  0  0  0  0  0  0  0  0  0  0
  -29.1301  -29.3197   22.9012 C   0  0  0  0  0  0  0  0  0  0  0  0
  -31.2705  -28.6388   20.9778 C   0  0  0  0  0  0  0  0  0  0  0  0
  -26.3678  -33.9226   20.5827 C   0  0  0  0  0  0  0  0  0  0  0  0
  -29.5685  -12.3289   18.1434 C   0  0  0  0  0  0  0  0  0  0  0  0
  -26.9457  -32.9338   19.5751 C   0  0  0  0  0  0  0  0  0  0  0  0
  -28.1351  -12.0860   18.6192 C   0  0  0  0  0  0  0  0  0  0  0  0
  -30.5521  -12.3653   19.3110 C   0  0  0  0  0  0  0  0  0  0  0  0
  -28.7706  -13.0717   20.8605 C   0  0  0  0  0  0  0  0  0  0  0  0
  -26.7264  -31.4871   20.0339 C   0  0  1  0  0  0  0  0  0  0  0  0
  -29.7751  -30.3767   22.0102 C   0  0  1  0  0  0  0  0  0  0  0  0
  -27.7344  -13.0825   19.7236 C   0  0  2  0  0  0  0  0  0  0  0  0
  -29.3831  -20.5348   22.8365 C   0  0  0  0  0  0  0  0  0  0  0  0
  -29.4310  -18.2138   18.3063 C   0  0  0  0  0  0  0  0  0  0  0  0
  -37.4742  -29.9087   22.7230 C   0  0  0  0  0  0  0  0  0  0  0  0
  -32.5985  -31.4314   18.5064 C   0  0  0  0  0  0  0  0  0  0  0  0
  -35.0267  -30.9656   18.9001 C   0  0  0  0  0  0  0  0  0  0  0  0
  -33.9320  -32.9041   20.0254 C   0  0  0  0  0  0  0  0  0  0  0  0
  -34.8807  -28.2633   24.9686 C   0  0  0  0  0  0  0  0  0  0  0  0
  -29.5443  -18.0767   21.3524 C   0  0  0  0  0  0  0  0  0  0  0  0
  -28.6456  -23.0855   21.3616 C   0  0  0  0  0  0  0  0  0  1  0  0
  -31.0044  -17.6402   21.3081 C   0  0  0  0  0  0  0  0  0  0  0  0
  -31.2477  -16.3801   22.1327 C   0  0  0  0  0  0  0  0  0  0  0  0
  -33.3980  -30.5576   20.8005 C   0  0  1  0  0  0  0  0  0  0  0  0
  -36.0931  -29.7011   23.3249 C   0  0  2  0  0  0  0  0  0  0  0  0
  -33.7190  -31.4455   19.5652 C   0  0  0  0  0  0  0  0  0  0  0  0
  -25.8691  -11.5574   20.2504 N   0  0  0  0  0  0  0  0  0  0  0  0
  -26.3284  -12.8203   20.2309 N   0  0  0  0  0  0  0  0  0  0  0  0
  -28.9848  -20.5737   18.5858 N   0  0  0  0  0  0  0  0  0  0  0  0
  -31.1081  -29.9874   21.5456 N   0  0  0  0  0  0  0  0  0  0  0  0
  -30.1152  -13.3308   20.3223 N   0  0  0  0  0  0  0  0  0  0  0  0
  -25.7311  -15.0554   20.7389 N   0  0  0  0  0  0  0  0  0  0  0  0
  -22.0400  -12.7091   21.8642 N   0  0  0  0  0  0  0  0  0  0  0  0
  -27.6801  -31.1332   21.0632 N   0  0  0  0  0  0  0  0  0  0  0  0
  -34.4297  -30.5731   21.8319 N   0  0  0  0  0  0  0  0  0  0  0  0
  -30.4820  -15.2510   21.6534 N   0  0  0  0  0  0  0  0  0  0  0  0
  -36.1651  -28.5636   24.2851 N   0  3  0  0  0  0  0  0  0  0  0  0
  -28.5435  -22.8176   18.5951 O   0  0  0  0  0  0  0  0  0  0  0  0
  -22.9495  -14.8116   21.7585 O   0  0  0  0  0  0  0  0  0  0  0  0
  -29.4487  -30.5240   19.6763 O   0  0  0  0  0  0  0  0  0  0  0  0
  -32.0083  -32.1003   21.9475 O   0  0  0  0  0  0  0  0  0  0  0  0
  -34.8341  -28.2898   21.8214 O   0  0  0  0  0  0  0  0  0  0  0  0
  -32.1000  -14.5240   20.2007 O   0  0  0  0  0  0  0  0  0  0  0  0
  -21.3847   -7.1937   21.4324 O   0  0  0  0  0  0  0  0  0  0  0  0
  -29.5943  -24.0430   20.8932 O   0  0  0  0  0  0  0  0  0  1  0  0
  -18.6023   -6.7544   26.1725 F   0  0  0  0  0  0  0  0  0  0  0  0
  -21.7845   -5.0387   23.1172 F   0  0  0  0  0  0  0  0  0  0  0  0
  1  2  1  0  0  0  0
  1  5  2  0  0  0  0
  2  6  2  0  0  0  0
  3  8  2  0  0  0  0
  3 15  1  0  0  0  0
  4  9  1  0  0  0  0
  4 15  2  0  0  0  0
  5 17  1  0  0  0  0
  6 19  1  0  0  0  0
  7 10  2  0  0  0  0
  7 18  1  0  0  0  0
  8 21  1  0  0  0  0
  9 21  2  0  0  0  0
 10 22  1  0  0  0  0
 11 12  2  0  0  0  0
 11 23  1  0  0  0  0
 12 24  1  0  0  0  0
 13 20  1  0  0  0  0
 13 22  2  0  0  0  0
 14 24  2  0  0  0  0
 14 25  1  0  0  0  0
 15 26  1  0  0  0  0
 16 26  1  0  0  0  0
 16 27  2  0  0  0  0
 16 33  1  0  0  0  0
 17 19  2  0  0  0  0
 17 38  1  0  0  0  0
 18 20  2  0  0  0  0
 18 39  1  0  0  0  0
 19 47  1  0  0  0  0
 20 40  1  0  0  0  0
 21 81  1  0  0  0  0
 22 82  1  0  0  0  0
 23 25  2  0  0  0  0
 23 81  1  0  0  0  0
 24 83  1  0  0  0  0
 25 84  1  0  0  0  0
 26 64  2  0  0  0  0
 27 65  1  0  0  0  0
 27 69  1  0  0  0  0
 28 29  2  0  0  0  0
 28 30  1  0  0  0  0
 28 50  1  0  0  0  0
 29 32  1  0  0  0  0
 29 58  1  0  0  0  0
 30 31  2  0  0  0  0
 30 57  1  0  0  0  0
 31 51  1  0  0  0  0
 31 66  1  0  0  0  0
 32 66  1  0  0  0  0
 32 75  2  0  0  0  0
 33 70  1  0  0  0  0
 33 76  2  0  0  0  0
 34 48  1  0  0  0  0
 34 71  1  0  0  0  0
 34 77  2  0  0  0  0
 35 61  1  0  0  0  0
 35 67  1  0  0  0  0
 35 78  2  0  0  0  0
 36 62  1  0  0  0  0
 36 72  1  0  0  0  0
 36 79  2  0  0  0  0
 37 68  1  0  0  0  0
 37 73  1  0  0  0  0
 37 80  2  0  0  0  0
 38 41  1  0  0  0  0
 39 48  1  0  0  0  0
 40 67  1  0  0  0  0
 41 43  1  0  0  0  0
 42 44  1  0  0  0  0
 42 45  1  0  0  0  0
 43 47  1  0  0  0  0
 44 49  1  0  0  0  0
 45 68  1  0  0  0  0
 46 49  1  0  0  0  0
 46 68  1  0  0  0  0
 47 71  1  0  0  0  0
 48 67  1  0  0  0  0
 49 65  1  0  0  0  0
 52 62  1  0  0  0  0
 53 63  1  0  0  0  0
 54 63  1  0  0  0  0
 55 63  1  0  0  0  0
 56 74  1  0  0  0  0
 57 59  1  0  0  0  0
 58 82  1  0  0  0  0
 59 60  1  0  0  0  0
 60 73  1  0  0  0  0
 61 63  1  0  0  0  0
 61 72  1  0  0  0  0
 62 74  1  0  0  0  0
 64 65  1  0  0  0  0
M  CHG  1  74   1
M  ISO  4  37 100  58 101  73 100  82 101
M  END
> <Batch ID>
0029

> <Smiles>
CNC(C)C(=O)NC(C(=O)N1Cc2cc([101O:1][101CH2:1]c3c(O)nc(C)c(CCC[100NH:0][100C:0](=O)N4CCCC(n5nc(-c6ccc(Oc7ccc(F)cc7F)cc6)c(C(N)=O)c5N)C4)c3C)ccc2CC1C(=O)NC1CCCc2ccccc21)C(C)(C)C

> <Shape>
0.301

> <Color>
0.199

> <Negative vol penalty>
0.000

$$$$

  -OEChem-04052316363D

 85 93  0     1  0  0  0  0  0999 V2000
  -32.3564  -14.0423   21.5429 C   0  0  0  0  0  0  0  0  0  0  0  0
  -31.6241  -15.2250   21.5662 C   0  0  0  0  0  0  0  0  0  0  0  0
  -28.1962  -25.3994   17.6339 C   0  0  0  0  0  0  0  0  0  0  0  0
  -26.4981  -24.4077   19.0374 C   0  0  0  0  0  0  0  0  0  0  0  0
  -31.7996  -12.8898   20.9900 C   0  0  0  0  0  0  0  0  0  0  0  0
  -30.3349  -15.2561   21.0357 C   0  0  0  0  0  0  0  0  0  0  0  0
  -25.5935  -18.5529   23.0744 C   0  0  0  0  0  0  0  0  0  0  0  0
  -28.9621  -24.2385   17.7402 C   0  0  0  0  0  0  0  0  0  0  0  0
  -27.2639  -23.2467   19.1437 C   0  0  0  0  0  0  0  0  0  0  0  0
  -25.0497  -19.7684   22.6616 C   0  0  0  0  0  0  0  0  0  0  0  0
  -27.9302  -20.5228   17.2578 C   0  0  0  0  0  0  0  0  0  0  0  0
  -27.2759  -19.3004   17.1056 C   0  0  0  0  0  0  0  0  0  0  0  0
  -23.4207  -18.5822   21.3354 C   0  0  0  0  0  0  0  0  0  0  0  0
  -17.9740  -29.1071   22.9058 C   0  0  0  0  0  0  0  0  0  0  0  0
  -27.9501  -18.6619   19.3361 C   0  0  0  0  0  0  0  0  0  0  0  0
  -26.9642  -25.4840   18.2826 C   0  0  0  0  0  0  0  0  0  0  0  0
  -25.6606  -27.2596   16.9958 C   0  0  0  0  0  0  0  0  0  0  0  0
  -30.4993  -12.9044   20.4612 C   0  0  0  0  0  0  0  0  0  0  0  0
  -25.0611  -17.3410   22.6115 C   0  0  0  0  0  0  0  0  0  0  0  0
  -29.7607  -14.1030   20.4741 C   0  0  0  0  0  0  0  0  0  0  0  0
  -23.9580  -17.3527   21.7459 C   0  0  0  0  0  0  0  0  0  0  0  0
  -19.2694  -29.3761   22.4639 C   0  0  0  0  0  0  0  0  0  0  0  0
  -17.7072  -27.9334   23.6108 C   0  0  0  0  0  0  0  0  0  0  0  0
  -20.0312  -27.2977   23.4320 C   0  0  0  0  0  0  0  0  0  0  0  0
  -20.2980  -28.4714   22.7270 C   0  0  0  0  0  0  0  0  0  0  0  0
  -28.4960  -23.1622   18.4951 C   0  0  0  0  0  0  0  0  0  0  0  0
  -23.9650  -19.7833   21.7896 C   0  0  0  0  0  0  0  0  0  0  0  0
  -28.5945  -20.8148   18.4491 C   0  0  0  0  0  0  0  0  0  0  0  0
  -27.2858  -18.3699   18.1447 C   0  0  0  0  0  0  0  0  0  0  0  0
  -28.6044  -19.8843   19.4882 C   0  0  0  0  0  0  0  0  0  0  0  0
  -18.7358  -27.0287   23.8739 C   0  0  0  0  0  0  0  0  0  0  0  0
  -26.1728  -26.6832   18.1736 C   0  0  0  0  0  0  0  0  0  0  0  0
  -24.9858  -28.3761   17.4253 C   0  0  0  0  0  0  0  0  0  0  0  0
  -25.7838  -26.8246   15.6352 C   0  0  0  0  0  0  0  0  0  0  0  0
  -26.1796  -14.9084   20.8983 C   0  0  0  0  0  0  0  0  0  0  0  0
  -23.3073  -13.5858   21.6214 C   0  0  0  0  0  0  0  0  0  0  0  0
  -20.0470  -14.0500   22.5168 C   0  0  0  0  0  0  0  0  0  0  0  0
  -22.4072  -29.8441   22.6119 C   0  0  0  0  0  0  0  0  0  0  0  0
  -29.9576  -11.6456   19.8314 C   0  0  0  0  0  0  0  0  0  0  0  0
  -25.6422  -16.0378   23.0873 C   0  0  0  0  0  0  0  0  0  0  0  0
  -23.3367  -16.0789   21.2359 C   0  0  0  0  0  0  0  0  0  0  0  0
  -28.4448  -11.6682   19.6287 C   0  0  0  0  0  0  0  0  0  0  0  0
  -24.9883  -31.6341   20.9352 C   0  0  0  0  0  0  0  0  0  0  0  0
  -28.0088  -12.9926   19.0100 C   0  0  0  0  0  0  0  0  0  0  0  0
  -25.5343  -30.6220   19.9254 C   0  0  0  0  0  0  0  0  0  0  0  0
  -24.5950  -30.9661   22.2516 C   0  0  0  0  0  0  0  0  0  0  0  0
  -24.2239  -28.8147   21.1101 C   0  0  0  0  0  0  0  0  0  0  0  0
  -28.3499  -14.1704   19.9308 C   0  0  1  0  0  0  0  0  0  0  0  0
  -25.3458  -14.8730   22.1478 C   0  0  1  0  0  0  0  0  0  0  0  0
  -24.5729  -29.4308   19.7454 C   0  0  2  0  0  0  0  0  0  0  0  0
  -19.5235  -30.6420   21.7111 C   0  0  0  0  0  0  0  0  0  0  0  0
  -16.3041  -27.6872   24.0647 C   0  0  0  0  0  0  0  0  0  0  0  0
  -17.9360  -12.7808   22.9963 C   0  0  0  0  0  0  0  0  0  0  0  0
  -22.9056  -13.1291   18.6315 C   0  0  0  0  0  0  0  0  0  0  0  0
  -20.4710  -12.7617   19.0855 C   0  0  0  0  0  0  0  0  0  0  0  0
  -22.1691  -11.2318   20.0847 C   0  0  0  0  0  0  0  0  0  0  0  0
  -19.9277  -15.0687   25.2930 C   0  0  0  0  0  0  0  0  0  0  0  0
  -21.1534  -26.3291   23.7089 C   0  0  0  0  0  0  0  0  0  0  0  0
  -21.1703  -25.1162   22.7717 C   0  0  0  0  0  0  0  0  0  0  0  0
  -22.3609  -24.1844   23.0187 C   0  0  0  0  0  0  0  0  0  0  0  0
  -22.3207  -22.9760   22.0849 C   0  0  0  0  0  0  0  0  0  0  0  0
  -23.5222  -22.0650   22.2932 C   0  0  0  0  0  0  0  0  0  1  0  0
  -21.9397  -13.5842   20.9822 C   0  0  1  0  0  0  0  0  0  0  0  0
  -19.1940  -13.3963   23.5890 C   0  0  2  0  0  0  0  0  0  0  0  0
  -21.8841  -12.7009   19.7039 C   0  0  0  0  0  0  0  0  0  0  0  0
  -25.8510  -27.3763   19.2690 N   0  0  0  0  0  0  0  0  0  0  0  0
  -25.1295  -28.3999   18.7814 N   0  0  0  0  0  0  0  0  0  0  0  0
  -23.9445  -14.8304   21.7250 N   0  0  0  0  0  0  0  0  0  0  0  0
  -23.6801  -29.8498   22.0032 N   0  0  0  0  0  0  0  0  0  0  0  0
  -24.2895  -29.3301   16.7714 N   0  0  0  0  0  0  0  0  0  0  0  0
  -24.8128  -25.9541   15.1215 N   0  0  0  0  0  0  0  0  0  0  0  0
  -21.6124  -28.7485   22.2763 N   0  0  0  0  0  0  0  0  0  0  0  0
  -27.3938  -14.2588   21.0136 N   0  0  0  0  0  0  0  0  0  0  0  0
  -21.0018  -13.1848   22.0258 N   0  0  0  0  0  0  0  0  0  0  0  0
  -18.7885  -14.4010   24.6123 N   0  3  0  0  0  0  0  0  0  0  0  0
  -26.7359  -27.1838   14.9017 O   0  0  0  0  0  0  0  0  0  0  0  0
  -25.7524  -15.4813   19.9029 O   0  0  0  0  0  0  0  0  0  0  0  0
  -23.7893  -12.5229   22.0209 O   0  0  0  0  0  0  0  0  0  0  0  0
  -19.8804  -15.2108   22.1489 O   0  0  0  0  0  0  0  0  0  0  0  0
  -22.0382  -30.7587   23.3531 O   0  0  0  0  0  0  0  0  0  0  0  0
  -29.2430  -22.0291   18.5989 O   0  0  0  0  0  0  0  0  0  0  0  0
  -23.4326  -20.9684   21.3846 O   0  0  0  0  0  0  0  0  0  1  0  0
  -26.6561  -17.1967   17.9990 F   0  0  0  0  0  0  0  0  0  0  0  0
  -29.2400  -20.1596   20.6354 F   0  0  0  0  0  0  0  0  0  0  0  0
  -18.3994  -25.5723   24.7500 Cl  0  0  0  0  0  0  0  0  0  0  0  0
  1  2  1  0  0  0  0
  1  5  2  0  0  0  0
  2  6  2  0  0  0  0
  3  8  2  0  0  0  0
  3 16  1  0  0  0  0
  4  9  1  0  0  0  0
  4 16  2  0  0  0  0
  5 18  1  0  0  0  0
  6 20  1  0  0  0  0
  7 10  2  0  0  0  0
  7 19  1  0  0  0  0
  8 26  1  0  0  0  0
  9 26  2  0  0  0  0
 10 27  1  0  0  0  0
 11 12  2  0  0  0  0
 11 28  1  0  0  0  0
 12 29  1  0  0  0  0
 13 21  1  0  0  0  0
 13 27  2  0  0  0  0
 14 22  2  0  0  0  0
 14 23  1  0  0  0  0
 15 29  2  0  0  0  0
 15 30  1  0  0  0  0
 16 32  1  0  0  0  0
 17 32  1  0  0  0  0
 17 33  2  0  0  0  0
 17 34  1  0  0  0  0
 18 20  2  0  0  0  0
 18 39  1  0  0  0  0
 19 21  2  0  0  0  0
 19 40  1  0  0  0  0
 20 48  1  0  0  0  0
 21 41  1  0  0  0  0
 22 25  1  0  0  0  0
 22 51  1  0  0  0  0
 23 31  2  0  0  0  0
 23 52  1  0  0  0  0
 24 25  2  0  0  0  0
 24 31  1  0  0  0  0
 24 58  1  0  0  0  0
 25 72  1  0  0  0  0
 26 81  1  0  0  0  0
 27 82  1  0  0  0  0
 28 30  2  0  0  0  0
 28 81  1  0  0  0  0
 29 83  1  0  0  0  0
 30 84  1  0  0  0  0
 31 85  1  0  0  0  0
 32 66  2  0  0  0  0
 33 67  1  0  0  0  0
 33 70  1  0  0  0  0
 34 71  1  0  0  0  0
 34 76  2  0  0  0  0
 35 49  1  0  0  0  0
 35 73  1  0  0  0  0
 35 77  2  0  0  0  0
 36 63  1  0  0  0  0
 36 68  1  0  0  0  0
 36 78  2  0  0  0  0
 37 64  1  0  0  0  0
 37 74  1  0  0  0  0
 37 79  2  0  0  0  0
 38 69  1  0  0  0  0
 38 72  1  0  0  0  0
 38 80  2  0  0  0  0
 39 42  1  0  0  0  0
 40 49  1  0  0  0  0
 41 68  1  0  0  0  0
 42 44  1  0  0  0  0
 43 45  1  0  0  0  0
 43 46  1  0  0  0  0
 44 48  1  0  0  0  0
 45 50  1  0  0  0  0
 46 69  1  0  0  0  0
 47 50  1  0  0  0  0
 47 69  1  0  0  0  0
 48 73  1  0  0  0  0
 49 68  1  0  0  0  0
 50 67  1  0  0  0  0
 53 64  1  0  0  0  0
 54 65  1  0  0  0  0
 55 65  1  0  0  0  0
 56 65  1  0  0  0  0
 57 75  1  0  0  0  0
 58 59  1  0  0  0  0
 59 60  1  0  0  0  0
 60 61  1  0  0  0  0
 61 62  1  0  0  0  0
 62 82  1  0  0  0  0
 63 65  1  0  0  0  0
 63 74  1  0  0  0  0
 64 75  1  0  0  0  0
 66 67  1  0  0  0  0
M  CHG  1  75   1
M  ISO  4  38 100  62 101  72 100  82 101
M  END
> <Batch ID>
0029

> <Smiles>
CNC(C)C(=O)NC(C(=O)N1Cc2cc([101O:1][101CH2:1]CCCCc3c(Cl)c(C)cc(C)c3[100NH:0][100C:0](=O)N3CCCC(n4nc(-c5ccc(Oc6ccc(F)cc6F)cc5)c(C(N)=O)c4N)C3)ccc2CC1C(=O)NC1CCCc2ccccc21)C(C)(C)C

> <Shape>
0.243

> <Color>
0.085

> <Negative vol penalty>
0.000

$$$$

  -OEChem-04052316363D

 81 89  0     1  0  0  0  0  0999 V2000
  -30.3562  -30.9242   25.9562 C   0  0  0  0  0  0  0  0  0  0  0  0
  -30.1421  -30.0503   24.8951 C   0  0  0  0  0  0  0  0  0  0  0  0
  -26.3964  -12.8321   21.7562 C   0  0  0  0  0  0  0  0  0  0  0  0
  -25.4613  -14.2538   20.0411 C   0  0  0  0  0  0  0  0  0  0  0  0
  -29.4290  -30.9982   26.9948 C   0  0  0  0  0  0  0  0  0  0  0  0
  -29.0011  -29.2491   24.8725 C   0  0  0  0  0  0  0  0  0  0  0  0
  -26.7623  -29.1840   20.3307 C   0  0  0  0  0  0  0  0  0  0  0  0
  -25.2060  -12.1067   21.8039 C   0  0  0  0  0  0  0  0  0  0  0  0
  -24.2709  -13.5284   20.0889 C   0  0  0  0  0  0  0  0  0  0  0  0
  -27.3380  -28.3792   19.3485 C   0  0  0  0  0  0  0  0  0  0  0  0
  -22.5407   -9.6550   22.1210 C   0  0  0  0  0  0  0  0  0  0  0  0
  -22.6301   -8.2633   22.1503 C   0  0  0  0  0  0  0  0  0  0  0  0
  -25.6814  -26.6794   19.7787 C   0  0  0  0  0  0  0  0  0  0  0  0
  -28.1356  -23.1259   18.3248 C   0  0  0  0  0  0  0  0  0  0  0  0
  -29.6764  -23.0172   20.6480 C   0  0  0  0  0  0  0  0  0  0  0  0
  -23.7789   -8.2923   20.0251 C   0  0  0  0  0  0  0  0  0  0  0  0
  -26.5241  -13.9057   20.8748 C   0  0  0  0  0  0  0  0  0  0  0  0
  -28.8707  -14.4037   20.0070 C   0  0  0  0  0  0  0  0  0  0  0  0
  -28.2713  -30.2044   26.9802 C   0  0  0  0  0  0  0  0  0  0  0  0
  -25.6465  -28.7372   21.0531 C   0  0  0  0  0  0  0  0  0  0  0  0
  -28.0582  -29.3115   25.9126 C   0  0  0  0  0  0  0  0  0  0  0  0
  -25.0918  -27.4814   20.7678 C   0  0  0  0  0  0  0  0  0  0  0  0
  -27.9030  -22.1267   19.2698 C   0  0  0  0  0  0  0  0  0  0  0  0
  -29.1387  -24.0708   18.5413 C   0  0  0  0  0  0  0  0  0  0  0  0
  -28.6733  -22.0723   20.4314 C   0  0  0  0  0  0  0  0  0  0  0  0
  -24.1433  -12.4548   20.9703 C   0  0  0  0  0  0  0  0  0  0  0  0
  -26.7993  -27.1256   19.0744 C   0  0  0  0  0  0  0  0  0  0  0  0
  -23.0704  -10.3653   21.0437 C   0  0  0  0  0  0  0  0  0  0  0  0
  -23.2492   -7.5820   21.1024 C   0  0  0  0  0  0  0  0  0  0  0  0
  -23.6895   -9.6840   19.9958 C   0  0  0  0  0  0  0  0  0  0  0  0
  -29.9090  -24.0164   19.7029 C   0  0  0  0  0  0  0  0  0  0  0  0
  -27.7533  -14.6558   20.8254 C   0  0  0  0  0  0  0  0  0  0  0  0
  -29.7669  -15.3913   20.3358 C   0  0  0  0  0  0  0  0  0  0  0  0
  -29.0798  -13.3695   19.0363 C   0  0  0  0  0  0  0  0  0  0  0  0
  -25.0546  -28.1270   24.1159 C   0  0  0  0  0  0  0  0  0  0  0  0
  -22.0241  -27.6975   23.0418 C   0  0  0  0  0  0  0  0  0  0  0  0
  -19.9529  -26.9541   20.4333 C   0  0  0  0  0  0  0  0  0  0  0  0
  -29.1387  -20.8839   22.6033 C   0  0  0  0  0  0  0  0  0  0  0  0
  -27.3212  -30.2848   28.1488 C   0  0  0  0  0  0  0  0  0  0  0  0
  -25.0209  -29.6283   22.0908 C   0  0  0  0  0  0  0  0  0  0  0  0
  -23.8822  -26.9637   21.5009 C   0  0  0  0  0  0  0  0  0  0  0  0
  -25.9517  -29.6739   27.8635 C   0  0  0  0  0  0  0  0  0  0  0  0
  -31.0542  -18.2175   23.9813 C   0  0  0  0  0  0  0  0  0  0  0  0
  -26.1037  -28.3140   27.1895 C   0  0  0  0  0  0  0  0  0  0  0  0
  -30.5310  -16.9794   23.2495 C   0  0  0  0  0  0  0  0  0  0  0  0
  -29.9383  -19.2208   24.2676 C   0  0  0  0  0  0  0  0  0  0  0  0
  -28.6188  -18.3761   22.3665 C   0  0  0  0  0  0  0  0  0  0  0  0
  -26.8203  -28.4441   25.8400 C   0  0  1  0  0  0  0  0  0  0  0  0
  -24.1994  -28.8599   23.1214 C   0  0  1  0  0  0  0  0  0  0  0  0
  -29.7178  -17.3658   21.9986 C   0  0  2  0  0  0  0  0  0  0  0  0
  -26.8234  -21.1264   19.0107 C   0  0  0  0  0  0  0  0  0  0  0  0
  -17.5273  -26.6413   19.8711 C   0  0  0  0  0  0  0  0  0  0  0  0
  -22.0662  -24.9622   24.3934 C   0  0  0  0  0  0  0  0  0  0  0  0
  -20.0622  -24.3351   23.0299 C   0  0  0  0  0  0  0  0  0  0  0  0
  -19.9219  -26.2224   24.6551 C   0  0  0  0  0  0  0  0  0  0  0  0
  -19.9994  -29.1767   18.4796 C   0  0  0  0  0  0  0  0  0  0  0  0
  -29.3594  -25.1352   17.4942 C   0  0  0  0  0  0  0  0  0  0  0  0
  -28.7629  -26.4790   17.8987 C   0  0  0  0  0  0  0  0  0  1  0  0
  -21.2328  -26.5249   22.5146 C   0  0  1  0  0  0  0  0  0  0  0  0
  -18.6868  -27.6235   19.9299 C   0  0  2  0  0  0  0  0  0  0  0  0
  -20.8447  -25.5198   23.6356 C   0  0  0  0  0  0  0  0  0  0  0  0
  -27.9219  -15.7199   21.6149 N   0  0  0  0  0  0  0  0  0  0  0  0
  -29.1558  -16.1452   21.2941 N   0  0  0  0  0  0  0  0  0  0  0  0
  -23.3103  -27.8694   22.5109 N   0  0  0  0  0  0  0  0  0  0  0  0
  -29.2142  -19.5431   23.0361 N   0  0  0  0  0  0  0  0  0  0  0  0
  -31.0101  -15.6795   19.8959 N   0  0  0  0  0  0  0  0  0  0  0  0
  -28.0557  -12.4368   18.8225 N   0  0  0  0  0  0  0  0  0  0  0  0
  -28.4529  -21.0645   21.4027 N   0  0  0  0  0  0  0  0  0  0  0  0
  -25.9108  -28.9427   24.8308 N   0  0  0  0  0  0  0  0  0  0  0  0
  -20.0944  -27.0897   21.7981 N   0  0  0  0  0  0  0  0  0  0  0  0
  -18.9023  -28.1786   18.5638 N   0  3  0  0  0  0  0  0  0  0  0  0
  -30.1496  -13.2655   18.3897 O   0  0  0  0  0  0  0  0  0  0  0  0
  -24.9447  -26.9116   24.2276 O   0  0  0  0  0  0  0  0  0  0  0  0
  -21.5169  -28.4379   23.8881 O   0  0  0  0  0  0  0  0  0  0  0  0
  -20.7360  -26.3663   19.6905 O   0  0  0  0  0  0  0  0  0  0  0  0
  -29.6686  -21.8009   23.2361 O   0  0  0  0  0  0  0  0  0  0  0  0
  -22.9816  -11.7470   21.0164 O   0  0  0  0  0  0  0  0  0  0  0  0
  -27.3597  -26.3378   18.1167 O   0  0  0  0  0  0  0  0  0  1  0  0
  -23.3363   -6.2456   21.1314 F   0  0  0  0  0  0  0  0  0  0  0  0
  -24.2012  -10.3610   18.9587 F   0  0  0  0  0  0  0  0  0  0  0  0
  -31.1588  -25.1682   20.0048 Cl  0  0  0  0  0  0  0  0  0  0  0  0
  1  2  1  0  0  0  0
  1  5  2  0  0  0  0
  2  6  2  0  0  0  0
  3  8  2  0  0  0  0
  3 17  1  0  0  0  0
  4  9  1  0  0  0  0
  4 17  2  0  0  0  0
  5 19  1  0  0  0  0
  6 21  1  0  0  0  0
  7 10  2  0  0  0  0
  7 20  1  0  0  0  0
  8 26  1  0  0  0  0
  9 26  2  0  0  0  0
 10 27  1  0  0  0  0
 11 12  2  0  0  0  0
 11 28  1  0  0  0  0
 12 29  1  0  0  0  0
 13 22  1  0  0  0  0
 13 27  2  0  0  0  0
 14 23  2  0  0  0  0
 14 24  1  0  0  0  0
 15 25  2  0  0  0  0
 15 31  1  0  0  0  0
 16 29  2  0  0  0  0
 16 30  1  0  0  0  0
 17 32  1  0  0  0  0
 18 32  1  0  0  0  0
 18 33  2  0  0  0  0
 18 34  1  0  0  0  0
 19 21  2  0  0  0  0
 19 39  1  0  0  0  0
 20 22  2  0  0  0  0
 20 40  1  0  0  0  0
 21 48  1  0  0  0  0
 22 41  1  0  0  0  0
 23 25  1  0  0  0  0
 23 51  1  0  0  0  0
 24 31  2  0  0  0  0
 24 57  1  0  0  0  0
 25 68  1  0  0  0  0
 26 77  1  0  0  0  0
 27 78  1  0  0  0  0
 28 30  2  0  0  0  0
 28 77  1  0  0  0  0
 29 79  1  0  0  0  0
 30 80  1  0  0  0  0
 31 81  1  0  0  0  0
 32 62  2  0  0  0  0
 33 63  1  0  0  0  0
 33 66  1  0  0  0  0
 34 67  1  0  0  0  0
 34 72  2  0  0  0  0
 35 49  1  0  0  0  0
 35 69  1  0  0  0  0
 35 73  2  0  0  0  0
 36 59  1  0  0  0  0
 36 64  1  0  0  0  0
 36 74  2  0  0  0  0
 37 60  1  0  0  0  0
 37 70  1  0  0  0  0
 37 75  2  0  0  0  0
 38 65  1  0  0  0  0
 38 68  1  0  0  0  0
 38 76  2  0  0  0  0
 39 42  1  0  0  0  0
 40 49  1  0  0  0  0
 41 64  1  0  0  0  0
 42 44  1  0  0  0  0
 43 45  1  0  0  0  0
 43 46  1  0  0  0  0
 44 48  1  0  0  0  0
 45 50  1  0  0  0  0
 46 65  1  0  0  0  0
 47 50  1  0  0  0  0
 47 65  1  0  0  0  0
 48 69  1  0  0  0  0
 49 64  1  0  0  0  0
 50 63  1  0  0  0  0
 52 60  1  0  0  0  0
 53 61  1  0  0  0  0
 54 61  1  0  0  0  0
 55 61  1  0  0  0  0
 56 71  1  0  0  0  0
 57 58  1  0  0  0  0
 58 78  1  0  0  0  0
 59 61  1  0  0  0  0
 59 70  1  0  0  0  0
 60 71  1  0  0  0  0
 62 63  1  0  0  0  0
M  CHG  1  71   1
M  ISO  4  38 100  58 101  68 100  78 101
M  END
> <Batch ID>
0029

> <Smiles>
CNC(C)C(=O)NC(C(=O)N1Cc2cc([101O:1][101CH2:1]Cc3cc(C)c([100NH:0][100C:0](=O)N4CCCC(n5nc(-c6ccc(Oc7ccc(F)cc7F)cc6)c(C(N)=O)c5N)C4)cc3Cl)ccc2CC1C(=O)NC1CCCc2ccccc21)C(C)(C)C

> <Shape>
0.269

> <Color>
0.054

> <Negative vol penalty>
0.000

$$$$

  -OEChem-04052316363D

 86 94  0     1  0  0  0  0  0999 V2000
  -37.5790  -14.9929   26.9411 C   0  0  0  0  0  0  0  0  0  0  0  0
  -36.9500  -15.9351   26.1337 C   0  0  0  0  0  0  0  0  0  0  0  0
  -23.1598   -9.8399   19.9387 C   0  0  0  0  0  0  0  0  0  0  0  0
  -23.8375   -9.9206   22.2563 C   0  0  0  0  0  0  0  0  0  0  0  0
  -36.9341  -13.7945   27.2442 C   0  0  0  0  0  0  0  0  0  0  0  0
  -35.6760  -15.6790   25.6280 C   0  0  0  0  0  0  0  0  0  0  0  0
  -31.2038  -19.7541   24.6796 C   0  0  0  0  0  0  0  0  0  0  0  0
  -22.4338   -8.6760   20.1915 C   0  0  0  0  0  0  0  0  0  0  0  0
  -23.1115   -8.7567   22.5092 C   0  0  0  0  0  0  0  0  0  0  0  0
  -30.7716  -20.4231   23.5353 C   0  0  0  0  0  0  0  0  0  0  0  0
  -23.0704   -5.3800   20.5857 C   0  0  0  0  0  0  0  0  0  0  0  0
  -23.1938   -4.3297   19.6763 C   0  0  0  0  0  0  0  0  0  0  0  0
  -29.0669  -18.7481   23.2073 C   0  0  0  0  0  0  0  0  0  0  0  0
  -33.4012  -17.6972   18.8359 C   0  0  0  0  0  0  0  0  0  0  0  0
  -31.2186  -18.1511   19.7670 C   0  0  0  0  0  0  0  0  0  0  0  0
  -20.8201   -4.4308   19.2375 C   0  0  0  0  0  0  0  0  0  0  0  0
  -23.8617  -10.4622   20.9711 C   0  0  0  0  0  0  0  0  0  0  0  0
  -24.1503  -12.9910   20.7995 C   0  0  0  0  0  0  0  0  0  0  0  0
  -35.6476  -13.5278   26.7499 C   0  0  0  0  0  0  0  0  0  0  0  0
  -30.5768  -18.5692   25.0909 C   0  0  0  0  0  0  0  0  0  0  0  0
  -35.0138  -14.4754   25.9237 C   0  0  0  0  0  0  0  0  0  0  0  0
  -29.4914  -18.0674   24.3586 C   0  0  0  0  0  0  0  0  0  0  0  0
  -32.4049  -17.4175   19.7712 C   0  0  0  0  0  0  0  0  0  0  0  0
  -33.2111  -18.7105   17.8963 C   0  0  0  0  0  0  0  0  0  0  0  0
  -31.0284  -19.1644   18.8275 C   0  0  0  0  0  0  0  0  0  0  0  0
  -22.4096   -8.1344   21.4767 C   0  0  0  0  0  0  0  0  0  0  0  0
  -29.7049  -19.9186   22.7973 C   0  0  0  0  0  0  0  0  0  0  0  0
  -21.8218   -5.9557   20.8212 C   0  0  0  0  0  0  0  0  0  0  0  0
  -22.0687   -3.8551   19.0021 C   0  0  0  0  0  0  0  0  0  0  0  0
  -20.6967   -5.4811   20.1470 C   0  0  0  0  0  0  0  0  0  0  0  0
  -32.0247  -19.4441   17.8921 C   0  0  0  0  0  0  0  0  0  0  0  0
  -24.6123  -11.6642   20.7104 C   0  0  0  0  0  0  0  0  0  0  0  0
  -25.2375  -13.7568   20.4558 C   0  0  0  0  0  0  0  0  0  0  0  0
  -22.8544  -13.4869   21.1607 C   0  0  0  0  0  0  0  0  0  0  0  0
  -31.5086  -15.5545   25.4741 C   0  0  0  0  0  0  0  0  0  0  0  0
  -28.5238  -15.1962   26.6927 C   0  0  0  0  0  0  0  0  0  0  0  0
  -25.3023  -16.3126   26.8425 C   0  0  0  0  0  0  0  0  0  0  0  0
  -30.5600  -14.9409   20.9205 C   0  0  0  0  0  0  0  0  0  0  0  0
  -35.0098  -12.1981   27.0660 C   0  0  0  0  0  0  0  0  0  0  0  0
  -31.0378  -17.8740   26.3425 C   0  0  0  0  0  0  0  0  0  0  0  0
  -28.7712  -16.8100   24.7692 C   0  0  0  0  0  0  0  0  0  0  0  0
  -33.5075  -12.1640   26.7973 C   0  0  0  0  0  0  0  0  0  0  0  0
  -29.6919  -12.4425   18.4503 C   0  0  0  0  0  0  0  0  0  0  0  0
  -33.1950  -12.7730   25.4341 C   0  0  0  0  0  0  0  0  0  0  0  0
  -28.2443  -12.1277   18.8318 C   0  0  0  0  0  0  0  0  0  0  0  0
  -30.5489  -12.6881   19.6886 C   0  0  0  0  0  0  0  0  0  0  0  0
  -28.5869  -13.4420   20.9754 C   0  0  0  0  0  0  0  0  0  0  0  0
  -33.6218  -14.2447   25.3765 C   0  0  1  0  0  0  0  0  0  0  0  0
  -30.6568  -16.3972   26.3806 C   0  0  1  0  0  0  0  0  0  0  0  0
  -27.6639  -13.2059   19.7661 C   0  0  2  0  0  0  0  0  0  0  0  0
  -34.8214  -18.0259   13.1782 C   0  0  0  0  0  0  0  0  0  0  0  0
  -23.0840  -15.7921   27.8941 C   0  0  0  0  0  0  0  0  0  0  0  0
  -28.1280  -12.9043   24.7177 C   0  0  0  0  0  0  0  0  0  0  0  0
  -25.6647  -13.0610   25.1367 C   0  0  0  0  0  0  0  0  0  0  0  0
  -27.2114  -12.4799   27.0055 C   0  0  0  0  0  0  0  0  0  0  0  0
  -25.2300  -18.9133   28.2531 C   0  0  0  0  0  0  0  0  0  0  0  0
  -34.3059  -18.9755   16.9133 C   0  0  0  0  0  0  0  0  0  0  0  0
  -29.7305  -19.9312   18.8607 C   0  0  0  0  0  0  0  0  0  0  0  0
  -32.6082  -16.3340   20.7757 C   0  0  0  0  0  0  0  0  0  0  0  0
  -35.1257  -18.6362   14.5370 C   0  0  0  0  0  0  0  0  0  0  0  0
  -33.9861  -18.3960   15.5271 C   0  0  0  0  0  0  0  0  0  0  0  0
  -29.8550  -21.3265   19.4765 C   0  0  0  0  0  0  0  0  0  0  0  0
  -30.2601  -21.3040   20.9458 C   0  0  0  0  0  0  0  0  0  1  0  0
  -27.1705  -14.8482   26.1215 C   0  0  1  0  0  0  0  0  0  0  0  0
  -24.3812  -16.5758   28.0202 C   0  0  2  0  0  0  0  0  0  0  0  0
  -27.0582  -13.3460   25.7363 C   0  0  0  0  0  0  0  0  0  0  0  0
  -25.8930  -11.5879   20.3391 N   0  0  0  0  0  0  0  0  0  0  0  0
  -26.2451  -12.8765   20.1917 N   0  0  0  0  0  0  0  0  0  0  0  0
  -29.2632  -16.1629   25.9967 N   0  0  0  0  0  0  0  0  0  0  0  0
  -29.9513  -13.7379   20.5258 N   0  0  0  0  0  0  0  0  0  0  0  0
  -25.4201  -15.0907   20.3566 N   0  0  0  0  0  0  0  0  0  0  0  0
  -21.8520  -12.5627   21.4852 N   0  0  0  0  0  0  0  0  0  0  0  0
  -32.6611  -15.0771   26.0684 N   0  0  0  0  0  0  0  0  0  0  0  0
  -26.1868  -15.2879   27.1051 N   0  0  0  0  0  0  0  0  0  0  0  0
  -31.8548  -15.1414   20.4580 N   0  0  0  0  0  0  0  0  0  0  0  0
  -24.0480  -18.0260   28.1031 N   0  3  0  0  0  0  0  0  0  0  0  0
  -22.5885  -14.7126   21.1787 O   0  0  0  0  0  0  0  0  0  0  0  0
  -31.1462  -15.3511   24.3213 O   0  0  0  0  0  0  0  0  0  0  0  0
  -28.9076  -14.6362   27.7227 O   0  0  0  0  0  0  0  0  0  0  0  0
  -25.2407  -16.9495   25.7933 O   0  0  0  0  0  0  0  0  0  0  0  0
  -29.9895  -15.7776   21.6288 O   0  0  0  0  0  0  0  0  0  0  0  0
  -21.7011   -6.9989   21.7239 O   0  0  0  0  0  0  0  0  0  0  0  0
  -29.2814  -20.5693   21.6797 O   0  0  0  0  0  0  0  0  0  1  0  0
  -22.1876   -2.8475   18.1276 F   0  0  0  0  0  0  0  0  0  0  0  0
  -19.4948   -6.0309   20.3682 F   0  0  0  0  0  0  0  0  0  0  0  0
  -31.7888  -20.7023   16.7258 Cl  0  0  0  0  0  0  0  0  0  0  0  0
  1  2  1  0  0  0  0
  1  5  2  0  0  0  0
  2  6  2  0  0  0  0
  3  8  2  0  0  0  0
  3 17  1  0  0  0  0
  4  9  1  0  0  0  0
  4 17  2  0  0  0  0
  5 19  1  0  0  0  0
  6 21  1  0  0  0  0
  7 10  2  0  0  0  0
  7 20  1  0  0  0  0
  8 26  1  0  0  0  0
  9 26  2  0  0  0  0
 10 27  1  0  0  0  0
 11 12  2  0  0  0  0
 11 28  1  0  0  0  0
 12 29  1  0  0  0  0
 13 22  1  0  0  0  0
 13 27  2  0  0  0  0
 14 23  2  0  0  0  0
 14 24  1  0  0  0  0
 15 23  1  0  0  0  0
 15 25  2  0  0  0  0
 16 29  2  0  0  0  0
 16 30  1  0  0  0  0
 17 32  1  0  0  0  0
 18 32  1  0  0  0  0
 18 33  2  0  0  0  0
 18 34  1  0  0  0  0
 19 21  2  0  0  0  0
 19 39  1  0  0  0  0
 20 22  2  0  0  0  0
 20 40  1  0  0  0  0
 21 48  1  0  0  0  0
 22 41  1  0  0  0  0
 23 59  1  0  0  0  0
 24 31  2  0  0  0  0
 24 57  1  0  0  0  0
 25 31  1  0  0  0  0
 25 58  1  0  0  0  0
 26 82  1  0  0  0  0
 27 83  1  0  0  0  0
 28 30  2  0  0  0  0
 28 82  1  0  0  0  0
 29 84  1  0  0  0  0
 30 85  1  0  0  0  0
 31 86  1  0  0  0  0
 32 67  2  0  0  0  0
 33 68  1  0  0  0  0
 33 71  1  0  0  0  0
 34 72  1  0  0  0  0
 34 77  2  0  0  0  0
 35 49  1  0  0  0  0
 35 73  1  0  0  0  0
 35 78  2  0  0  0  0
 36 64  1  0  0  0  0
 36 69  1  0  0  0  0
 36 79  2  0  0  0  0
 37 65  1  0  0  0  0
 37 74  1  0  0  0  0
 37 80  2  0  0  0  0
 38 70  1  0  0  0  0
 38 75  1  0  0  0  0
 38 81  2  0  0  0  0
 39 42  1  0  0  0  0
 40 49  1  0  0  0  0
 41 69  1  0  0  0  0
 42 44  1  0  0  0  0
 43 45  1  0  0  0  0
 43 46  1  0  0  0  0
 44 48  1  0  0  0  0
 45 50  1  0  0  0  0
 46 70  1  0  0  0  0
 47 50  1  0  0  0  0
 47 70  1  0  0  0  0
 48 73  1  0  0  0  0
 49 69  1  0  0  0  0
 50 68  1  0  0  0  0
 51 60  1  0  0  0  0
 52 65  1  0  0  0  0
 53 66  1  0  0  0  0
 54 66  1  0  0  0  0
 55 66  1  0  0  0  0
 56 76  1  0  0  0  0
 57 61  1  0  0  0  0
 58 62  1  0  0  0  0
 59 75  1  0  0  0  0
 60 61  1  0  0  0  0
 62 63  1  0  0  0  0
 63 83  1  0  0  0  0
 64 66  1  0  0  0  0
 64 74  1  0  0  0  0
 65 76  1  0  0  0  0
 67 68  1  0  0  0  0
M  CHG  1  76   1
M  ISO  4  38 100  63 101  75 100  83 101
M  END
> <Batch ID>
0029

> <Smiles>
CCCCc1cc(C[100NH:0][100C:0](=O)N2CCCC(n3nc(-c4ccc(Oc5ccc(F)cc5F)cc4)c(C(N)=O)c3N)C2)cc(CC[101CH2:1][101O:1]c2ccc3c(c2)CN(C(=O)C(NC(=O)C(C)NC)C(C)(C)C)C(C(=O)NC2CCCc4ccccc42)C3)c1Cl

> <Shape>
0.163

> <Color>
0.175

> <Negative vol penalty>
0.000

$$$$

  -OEChem-04052316363D

 84 92  0     1  0  0  0  0  0999 V2000
  -36.7073  -26.5563   22.4905 C   0  0  0  0  0  0  0  0  0  0  0  0
  -36.1662  -25.4058   21.9256 C   0  0  0  0  0  0  0  0  0  0  0  0
  -22.9760   -9.8914   20.0937 C   0  0  0  0  0  0  0  0  0  0  0  0
  -23.6817  -10.0885   22.3960 C   0  0  0  0  0  0  0  0  0  0  0  0
  -35.8795  -27.6339   22.8028 C   0  0  0  0  0  0  0  0  0  0  0  0
  -34.7967  -25.3319   21.6737 C   0  0  0  0  0  0  0  0  0  0  0  0
  -32.0617  -22.4618   17.0059 C   0  0  0  0  0  0  0  0  0  0  0  0
  -22.1945   -8.7855   20.4279 C   0  0  0  0  0  0  0  0  0  0  0  0
  -22.9000   -8.9826   22.7302 C   0  0  0  0  0  0  0  0  0  0  0  0
  -31.4488  -21.2139   16.9017 C   0  0  0  0  0  0  0  0  0  0  0  0
  -23.1107   -5.6172   22.4844 C   0  0  0  0  0  0  0  0  0  0  0  0
  -23.6802   -4.6463   23.3082 C   0  0  0  0  0  0  0  0  0  0  0  0
  -29.3017  -22.2429   17.2893 C   0  0  0  0  0  0  0  0  0  0  0  0
  -28.4908  -18.7857   21.4849 C   0  0  0  0  0  0  0  0  0  0  0  0
  -21.9446   -5.0190   24.9472 C   0  0  0  0  0  0  0  0  0  0  0  0
  -23.7197  -10.5429   21.0777 C   0  0  0  0  0  0  0  0  0  0  0  0
  -24.1349  -13.0368   20.7379 C   0  0  0  0  0  0  0  0  0  0  0  0
  -34.5006  -27.5768   22.5456 C   0  0  0  0  0  0  0  0  0  0  0  0
  -31.2992  -23.6100   17.2639 C   0  0  0  0  0  0  0  0  0  0  0  0
  -33.9495  -26.4092   21.9841 C   0  0  0  0  0  0  0  0  0  0  0  0
  -29.9071  -23.5046   17.3938 C   0  0  0  0  0  0  0  0  0  0  0  0
  -29.1916  -18.3143   20.3748 C   0  0  0  0  0  0  0  0  0  0  0  0
  -27.2101  -18.5683   19.0161 C   0  0  0  0  0  0  0  0  0  0  0  0
  -28.5513  -18.2057   19.1404 C   0  0  0  0  0  0  0  0  0  0  0  0
  -26.5093  -19.0397   20.1262 C   0  0  0  0  0  0  0  0  0  0  0  0
  -22.1564   -8.3311   21.7461 C   0  0  0  0  0  0  0  0  0  0  0  0
  -30.0689  -21.1039   17.0463 C   0  0  0  0  0  0  0  0  0  0  0  0
  -21.9583   -6.2891   22.8920 C   0  0  0  0  0  0  0  0  0  0  0  0
  -23.0971   -4.3472   24.5396 C   0  0  0  0  0  0  0  0  0  0  0  0
  -27.1496  -19.1483   21.3606 C   0  0  0  0  0  0  0  0  0  0  0  0
  -21.3752   -5.9899   24.1233 C   0  0  0  0  0  0  0  0  0  0  0  0
  -24.5277  -11.6850   20.7330 C   0  0  0  0  0  0  0  0  0  0  0  0
  -25.2559  -13.7216   20.3366 C   0  0  0  0  0  0  0  0  0  0  0  0
  -22.8699  -13.6214   21.0752 C   0  0  0  0  0  0  0  0  0  0  0  0
  -31.1969  -25.7549   19.6075 C   0  0  0  0  0  0  0  0  0  0  0  0
  -29.0859  -27.2322   17.6367 C   0  0  0  0  0  0  0  0  0  0  0  0
  -26.8368  -26.9732   15.0831 C   0  0  0  0  0  0  0  0  0  0  0  0
  -30.7601  -14.6119   20.5741 C   0  0  0  0  0  0  0  0  0  0  0  0
  -33.6388  -28.7487   22.9440 C   0  0  0  0  0  0  0  0  0  0  0  0
  -31.9725  -24.9525   17.3469 C   0  0  0  0  0  0  0  0  0  0  0  0
  -29.0411  -24.7096   17.6514 C   0  0  0  0  0  0  0  0  0  0  0  0
  -32.2549  -28.7338   22.2998 C   0  0  0  0  0  0  0  0  0  0  0  0
  -29.6125  -12.0492   18.3849 C   0  0  0  0  0  0  0  0  0  0  0  0
  -31.6292  -27.3471   22.4111 C   0  0  0  0  0  0  0  0  0  0  0  0
  -28.1576  -11.8335   18.8052 C   0  0  0  0  0  0  0  0  0  0  0  0
  -30.5070  -12.3552   19.5842 C   0  0  0  0  0  0  0  0  0  0  0  0
  -28.5944  -13.2588   20.8488 C   0  0  0  0  0  0  0  0  0  0  0  0
  -32.4725  -26.3005   21.6729 C   0  0  1  0  0  0  0  0  0  0  0  0
  -31.1576  -25.9826   18.1228 C   0  0  1  0  0  0  0  0  0  0  0  0
  -27.6437  -13.0024   19.6670 C   0  0  2  0  0  0  0  0  0  0  0  0
  -26.5222  -18.4513   17.6928 C   0  0  0  0  0  0  0  0  0  0  0  0
  -25.0730  -19.4352   20.0163 C   0  0  0  0  0  0  0  0  0  0  0  0
  -25.2414  -28.3460   13.7165 C   0  0  0  0  0  0  0  0  0  0  0  0
  -27.1271  -27.2796   19.9757 C   0  0  0  0  0  0  0  0  0  0  0  0
  -25.2942  -27.7635   18.3403 C   0  0  0  0  0  0  0  0  0  0  0  0
  -27.1770  -29.3767   18.6141 C   0  0  0  0  0  0  0  0  0  0  0  0
  -28.2725  -26.3520   12.5707 C   0  0  0  0  0  0  0  0  0  0  0  0
  -30.6260  -17.9307   20.5361 C   0  0  0  0  0  0  0  0  0  0  0  0
  -29.3118  -17.6926   17.9418 C   0  0  0  0  0  0  0  0  0  0  0  0
  -30.8571  -16.8641   21.6120 C   0  0  0  0  0  0  0  0  0  0  0  0
  -30.2332  -18.7501   17.3436 C   0  0  0  0  0  0  0  0  0  1  0  0
  -27.5905  -27.1773   17.4378 C   0  0  1  0  0  0  0  0  0  0  0  0
  -26.6530  -27.7890   13.8161 C   0  0  2  0  0  0  0  0  0  0  0  0
  -26.8134  -27.8761   18.5890 C   0  0  0  0  0  0  0  0  0  0  0  0
  -25.7989  -11.5187   20.3582 N   0  0  0  0  0  0  0  0  0  0  0  0
  -26.2145  -12.7751   20.1237 N   0  0  0  0  0  0  0  0  0  0  0  0
  -29.7469  -25.9992   17.7306 N   0  0  0  0  0  0  0  0  0  0  0  0
  -29.9648  -13.4743   20.3585 N   0  0  0  0  0  0  0  0  0  0  0  0
  -25.5052  -15.0349   20.1486 N   0  0  0  0  0  0  0  0  0  0  0  0
  -21.8252  -12.7732   21.4672 N   0  0  0  0  0  0  0  0  0  0  0  0
  -32.2478  -26.3855   20.2458 N   0  0  0  0  0  0  0  0  0  0  0  0
  -27.3336  -27.7394   16.1162 N   0  0  0  0  0  0  0  0  0  0  0  0
  -30.1676  -15.6289   21.3125 N   0  0  0  0  0  0  0  0  0  0  0  0
  -26.9113  -26.9456   12.6149 N   0  3  0  0  0  0  0  0  0  0  0  0
  -22.6669  -14.8578   21.0144 O   0  0  0  0  0  0  0  0  0  0  0  0
  -30.3365  -25.0599   20.1351 O   0  0  0  0  0  0  0  0  0  0  0  0
  -29.6479  -28.3285   17.6992 O   0  0  0  0  0  0  0  0  0  0  0  0
  -26.5633  -25.7769   15.1506 O   0  0  0  0  0  0  0  0  0  0  0  0
  -31.9109  -14.7158   20.1361 O   0  0  0  0  0  0  0  0  0  0  0  0
  -21.3937   -7.2521   22.0726 O   0  0  0  0  0  0  0  0  0  0  0  0
  -29.4681  -19.8870   16.9457 O   0  0  0  0  0  0  0  0  0  1  0  0
  -23.6432   -3.4137   25.3299 F   0  0  0  0  0  0  0  0  0  0  0  0
  -26.4851  -19.6005   22.4334 F   0  0  0  0  0  0  0  0  0  0  0  0
  -20.2673   -6.6312   24.5198 F   0  0  0  0  0  0  0  0  0  0  0  0
  1  2  1  0  0  0  0
  1  5  2  0  0  0  0
  2  6  2  0  0  0  0
  3  8  2  0  0  0  0
  3 16  1  0  0  0  0
  4  9  1  0  0  0  0
  4 16  2  0  0  0  0
  5 18  1  0  0  0  0
  6 20  1  0  0  0  0
  7 10  2  0  0  0  0
  7 19  1  0  0  0  0
  8 26  1  0  0  0  0
  9 26  2  0  0  0  0
 10 27  1  0  0  0  0
 11 12  2  0  0  0  0
 11 28  1  0  0  0  0
 12 29  1  0  0  0  0
 13 21  1  0  0  0  0
 13 27  2  0  0  0  0
 14 22  2  0  0  0  0
 14 30  1  0  0  0  0
 15 29  2  0  0  0  0
 15 31  1  0  0  0  0
 16 32  1  0  0  0  0
 17 32  1  0  0  0  0
 17 33  2  0  0  0  0
 17 34  1  0  0  0  0
 18 20  2  0  0  0  0
 18 39  1  0  0  0  0
 19 21  2  0  0  0  0
 19 40  1  0  0  0  0
 20 48  1  0  0  0  0
 21 41  1  0  0  0  0
 22 24  1  0  0  0  0
 22 58  1  0  0  0  0
 23 24  2  0  0  0  0
 23 25  1  0  0  0  0
 23 51  1  0  0  0  0
 24 59  1  0  0  0  0
 25 30  2  0  0  0  0
 25 52  1  0  0  0  0
 26 80  1  0  0  0  0
 27 81  1  0  0  0  0
 28 31  2  0  0  0  0
 28 80  1  0  0  0  0
 29 82  1  0  0  0  0
 30 83  1  0  0  0  0
 31 84  1  0  0  0  0
 32 65  2  0  0  0  0
 33 66  1  0  0  0  0
 33 69  1  0  0  0  0
 34 70  1  0  0  0  0
 34 75  2  0  0  0  0
 35 49  1  0  0  0  0
 35 71  1  0  0  0  0
 35 76  2  0  0  0  0
 36 62  1  0  0  0  0
 36 67  1  0  0  0  0
 36 77  2  0  0  0  0
 37 63  1  0  0  0  0
 37 72  1  0  0  0  0
 37 78  2  0  0  0  0
 38 68  1  0  0  0  0
 38 73  1  0  0  0  0
 38 79  2  0  0  0  0
 39 42  1  0  0  0  0
 40 49  1  0  0  0  0
 41 67  1  0  0  0  0
 42 44  1  0  0  0  0
 43 45  1  0  0  0  0
 43 46  1  0  0  0  0
 44 48  1  0  0  0  0
 45 50  1  0  0  0  0
 46 68  1  0  0  0  0
 47 50  1  0  0  0  0
 47 68  1  0  0  0  0
 48 71  1  0  0  0  0
 49 67  1  0  0  0  0
 50 66  1  0  0  0  0
 53 63  1  0  0  0  0
 54 64  1  0  0  0  0
 55 64  1  0  0  0  0
 56 64  1  0  0  0  0
 57 74  1  0  0  0  0
 58 60  1  0  0  0  0
 59 61  1  0  0  0  0
 60 73  1  0  0  0  0
 61 81  1  0  0  0  0
 62 64  1  0  0  0  0
 62 72  1  0  0  0  0
 63 74  1  0  0  0  0
 65 66  1  0  0  0  0
M  CHG  1  74   1
M  ISO  4  38 100  61 101  73 100  81 101
M  END
> <Batch ID>
0029

> <Smiles>
CNC(C)C(=O)NC(C(=O)N1Cc2cc([101O:1][101CH2:1]Cc3c(CC[100NH:0][100C:0](=O)N4CCCC(n5nc(-c6ccc(Oc7ccc(F)cc7F)cc6)c(C(N)=O)c5N)C4)cc(F)c(C)c3C)ccc2CC1C(=O)NC1CCCc2ccccc21)C(C)(C)C

> <Shape>
0.277

> <Color>
0.212

> <Negative vol penalty>
0.000

$$$$

  -OEChem-04052316363D

 80 88  0     1  0  0  0  0  0999 V2000
  -16.7520  -29.9605   23.7947 C   0  0  0  0  0  0  0  0  0  0  0  0
  -17.8869  -30.5833   24.3042 C   0  0  0  0  0  0  0  0  0  0  0  0
  -26.3005  -21.0273   18.9238 C   0  0  0  0  0  0  0  0  0  0  0  0
  -28.2240  -20.3332   20.2105 C   0  0  0  0  0  0  0  0  0  0  0  0
  -16.8759  -28.7843   23.0563 C   0  0  0  0  0  0  0  0  0  0  0  0
  -19.1463  -30.0297   24.0766 C   0  0  0  0  0  0  0  0  0  0  0  0
  -25.9782  -31.9281   23.0580 C   0  0  0  0  0  0  0  0  0  0  0  0
  -25.9962  -19.6921   18.6584 C   0  0  0  0  0  0  0  0  0  0  0  0
  -27.9196  -18.9980   19.9452 C   0  0  0  0  0  0  0  0  0  0  0  0
  -27.2551  -31.6610   23.5499 C   0  0  0  0  0  0  0  0  0  0  0  0
  -25.7564  -16.6644   21.0832 C   0  0  0  0  0  0  0  0  0  0  0  0
  -25.8170  -15.7638   22.1466 C   0  0  0  0  0  0  0  0  0  0  0  0
  -27.3544  -29.6690   22.1930 C   0  0  0  0  0  0  0  0  0  0  0  0
  -31.4086  -28.8452   25.1697 C   0  0  0  0  0  0  0  0  0  0  0  0
  -27.5042  -14.4927   20.9740 C   0  0  0  0  0  0  0  0  0  0  0  0
  -27.4144  -21.3478   19.6998 C   0  0  0  0  0  0  0  0  0  0  0  0
  -27.2821  -23.5013   21.0609 C   0  0  0  0  0  0  0  0  0  0  0  0
  -18.1383  -28.2212   22.8113 C   0  0  0  0  0  0  0  0  0  0  0  0
  -25.3744  -31.0604   22.1367 C   0  0  0  0  0  0  0  0  0  0  0  0
  -19.2870  -28.8441   23.3354 C   0  0  0  0  0  0  0  0  0  0  0  0
  -26.0708  -29.9287   21.6890 C   0  0  0  0  0  0  0  0  0  0  0  0
  -31.1750  -28.9600   23.7771 C   0  0  0  0  0  0  0  0  0  0  0  0
  -26.8057  -18.6775   19.1691 C   0  0  0  0  0  0  0  0  0  0  0  0
  -27.9422  -30.5298   23.1196 C   0  0  0  0  0  0  0  0  0  0  0  0
  -26.5697  -16.4791   19.9652 C   0  0  0  0  0  0  0  0  0  0  0  0
  -26.6909  -14.6780   22.0921 C   0  0  0  0  0  0  0  0  0  0  0  0
  -27.4436  -15.3933   19.9106 C   0  0  0  0  0  0  0  0  0  0  0  0
  -27.7296  -22.7268   19.9738 C   0  0  0  0  0  0  0  0  0  0  0  0
  -32.7705  -28.7496   25.3518 C   0  0  0  0  0  0  0  0  0  0  0  0
  -32.4014  -28.9310   23.1506 C   0  0  0  0  0  0  0  0  0  0  0  0
  -27.8583  -24.7327   20.8654 C   0  0  0  0  0  0  0  0  0  0  0  0
  -26.4226  -23.1400   22.1500 C   0  0  0  0  0  0  0  0  0  0  0  0
  -22.7582  -29.2551   22.1374 C   0  0  0  0  0  0  0  0  0  0  0  0
  -23.5767  -28.7513   19.0392 C   0  0  0  0  0  0  0  0  0  0  0  0
  -26.0233  -28.7001   16.6605 C   0  0  0  0  0  0  0  0  0  0  0  0
  -32.2700  -27.8884   19.5523 C   0  0  0  0  0  0  0  0  0  0  0  0
  -18.2182  -26.9230   22.0478 C   0  0  0  0  0  0  0  0  0  0  0  0
  -24.0072  -31.3769   21.5954 C   0  0  0  0  0  0  0  0  0  0  0  0
  -25.4751  -28.9764   20.6857 C   0  0  0  0  0  0  0  0  0  0  0  0
  -19.6197  -26.6042   21.5335 C   0  0  0  0  0  0  0  0  0  0  0  0
  -30.3080  -26.6234   16.8640 C   0  0  0  0  0  0  0  0  0  0  0  0
  -20.6545  -26.8238   22.6325 C   0  0  0  0  0  0  0  0  0  0  0  0
  -29.4305  -25.5570   17.5218 C   0  0  0  0  0  0  0  0  0  0  0  0
  -31.7065  -26.6598   17.4764 C   0  0  0  0  0  0  0  0  0  0  0  0
  -30.8589  -25.7429   19.6012 C   0  0  0  0  0  0  0  0  0  0  0  0
  -20.6726  -28.2877   23.0887 C   0  0  1  0  0  0  0  0  0  0  0  0
  -23.2817  -30.1506   21.0503 C   0  0  1  0  0  0  0  0  0  0  0  0
  -29.4213  -25.7061   19.0551 C   0  0  2  0  0  0  0  0  0  0  0  0
  -33.5514  -28.6129   26.5985 C   0  0  0  0  0  0  0  0  0  0  0  0
  -26.3948  -28.2135   14.2269 C   0  0  0  0  0  0  0  0  0  0  0  0
  -23.4310  -25.7590   19.6178 C   0  0  0  0  0  0  0  0  0  0  0  0
  -24.7036  -25.3582   17.4993 C   0  0  0  0  0  0  0  0  0  0  0  0
  -22.4596  -26.4446   17.4176 C   0  0  0  0  0  0  0  0  0  0  0  0
  -34.7894  -28.7334   23.8736 C   0  0  0  0  0  0  0  0  0  0  0  0
  -26.9305  -31.4661   16.1267 C   0  0  0  0  0  0  0  0  0  0  0  0
  -29.8350  -29.0898   23.1147 C   0  0  0  0  0  0  0  0  0  1  0  0
  -32.7392  -29.0144   21.7136 C   0  0  0  0  0  0  0  0  0  0  0  0
  -24.4349  -27.7459   18.3101 C   0  0  1  0  0  0  0  0  0  0  0  0
  -26.0792  -29.2837   15.2602 C   0  0  2  0  0  0  0  0  0  0  0  0
  -23.7680  -26.3436   18.2316 C   0  0  0  0  0  0  0  0  0  0  0  0
  -28.5283  -23.4090   19.1488 N   0  0  0  0  0  0  0  0  0  0  0  0
  -33.3639  -28.8025   24.1176 N   0  0  0  0  0  0  0  0  0  0  0  0
  -28.5872  -24.6252   19.7176 N   0  0  0  0  0  0  0  0  0  0  0  0
  -24.1332  -29.3258   20.1908 N   0  0  0  0  0  0  0  0  0  0  0  0
  -31.6275  -26.8042   18.9320 N   0  0  0  0  0  0  0  0  0  0  0  0
  -27.8075  -25.8861   21.5649 N   0  0  0  0  0  0  0  0  0  0  0  0
  -25.9181  -21.8332   22.1979 N   0  0  0  0  0  0  0  0  0  0  0  0
  -21.3843  -29.1067   22.1312 N   0  0  0  0  0  0  0  0  0  0  0  0
  -24.7405  -28.3358   17.0112 N   0  0  0  0  0  0  0  0  0  0  0  0
  -32.1400  -27.9541   20.9342 N   0  0  0  0  0  0  0  0  0  0  0  0
  -27.1289  -30.3385   15.1801 N   0  3  0  0  0  0  0  0  0  0  0  0
  -26.0980  -23.9566   23.0452 O   0  0  0  0  0  0  0  0  0  0  0  0
  -23.5427  -28.7359   22.9226 O   0  0  0  0  0  0  0  0  0  0  0  0
  -22.4567  -29.0224   18.5991 O   0  0  0  0  0  0  0  0  0  0  0  0
  -27.0187  -28.5761   17.3707 O   0  0  0  0  0  0  0  0  0  0  0  0
  -32.9075  -28.7379   18.9209 O   0  0  0  0  0  0  0  0  0  0  0  0
  -26.5090  -17.3746   18.9106 O   0  0  0  0  0  0  0  0  0  0  0  0
  -29.1885  -30.2663   23.5986 O   0  0  0  0  0  0  0  0  0  1  0  0
  -26.7501  -13.8141   23.1140 F   0  0  0  0  0  0  0  0  0  0  0  0
  -28.2282  -15.2108   18.8397 F   0  0  0  0  0  0  0  0  0  0  0  0
  1  2  1  0  0  0  0
  1  5  2  0  0  0  0
  2  6  2  0  0  0  0
  3  8  2  0  0  0  0
  3 16  1  0  0  0  0
  4  9  1  0  0  0  0
  4 16  2  0  0  0  0
  5 18  1  0  0  0  0
  6 20  1  0  0  0  0
  7 10  2  0  0  0  0
  7 19  1  0  0  0  0
  8 23  1  0  0  0  0
  9 23  2  0  0  0  0
 10 24  1  0  0  0  0
 11 12  2  0  0  0  0
 11 25  1  0  0  0  0
 12 26  1  0  0  0  0
 13 21  1  0  0  0  0
 13 24  2  0  0  0  0
 14 22  1  0  0  0  0
 14 29  2  0  0  0  0
 15 26  2  0  0  0  0
 15 27  1  0  0  0  0
 16 28  1  0  0  0  0
 17 28  1  0  0  0  0
 17 31  2  0  0  0  0
 17 32  1  0  0  0  0
 18 20  2  0  0  0  0
 18 37  1  0  0  0  0
 19 21  2  0  0  0  0
 19 38  1  0  0  0  0
 20 46  1  0  0  0  0
 21 39  1  0  0  0  0
 22 30  2  0  0  0  0
 22 56  1  0  0  0  0
 23 77  1  0  0  0  0
 24 78  1  0  0  0  0
 25 27  2  0  0  0  0
 25 77  1  0  0  0  0
 26 79  1  0  0  0  0
 27 80  1  0  0  0  0
 28 61  2  0  0  0  0
 29 49  1  0  0  0  0
 29 62  1  0  0  0  0
 30 57  1  0  0  0  0
 30 62  1  0  0  0  0
 31 63  1  0  0  0  0
 31 66  1  0  0  0  0
 32 67  1  0  0  0  0
 32 72  2  0  0  0  0
 33 47  1  0  0  0  0
 33 68  1  0  0  0  0
 33 73  2  0  0  0  0
 34 58  1  0  0  0  0
 34 64  1  0  0  0  0
 34 74  2  0  0  0  0
 35 59  1  0  0  0  0
 35 69  1  0  0  0  0
 35 75  2  0  0  0  0
 36 65  1  0  0  0  0
 36 70  1  0  0  0  0
 36 76  2  0  0  0  0
 37 40  1  0  0  0  0
 38 47  1  0  0  0  0
 39 64  1  0  0  0  0
 40 42  1  0  0  0  0
 41 43  1  0  0  0  0
 41 44  1  0  0  0  0
 42 46  1  0  0  0  0
 43 48  1  0  0  0  0
 44 65  1  0  0  0  0
 45 48  1  0  0  0  0
 45 65  1  0  0  0  0
 46 68  1  0  0  0  0
 47 64  1  0  0  0  0
 48 63  1  0  0  0  0
 50 59  1  0  0  0  0
 51 60  1  0  0  0  0
 52 60  1  0  0  0  0
 53 60  1  0  0  0  0
 54 62  1  0  0  0  0
 55 71  1  0  0  0  0
 56 78  1  0  0  0  0
 57 70  1  0  0  0  0
 58 60  1  0  0  0  0
 58 69  1  0  0  0  0
 59 71  1  0  0  0  0
 61 63  1  0  0  0  0
M  CHG  1  71   1
M  ISO  4  36 100  56 101  70 100  78 101
M  END
> <Batch ID>
0029

> <Smiles>
CNC(C)C(=O)NC(C(=O)N1Cc2cc([101O:1][101CH2:1]c3cc(C)n(C)c3C[100NH:0][100C:0](=O)N3CCCC(n4nc(-c5ccc(Oc6ccc(F)cc6F)cc5)c(C(N)=O)c4N)C3)ccc2CC1C(=O)NC1CCCc2ccccc21)C(C)(C)C

> <Shape>
0.236

> <Color>
0.109

> <Negative vol penalty>
0.000

$$$$

  -OEChem-04052316363D

 83 91  0     1  0  0  0  0  0999 V2000
  -17.1674  -21.4474   14.7630 C   0  0  0  0  0  0  0  0  0  0  0  0
  -18.5040  -21.3384   15.1332 C   0  0  0  0  0  0  0  0  0  0  0  0
  -23.0741   -9.8686   19.9422 C   0  0  0  0  0  0  0  0  0  0  0  0
  -23.8384   -9.8753   22.2341 C   0  0  0  0  0  0  0  0  0  0  0  0
  -16.1920  -21.6680   15.7345 C   0  0  0  0  0  0  0  0  0  0  0  0
  -18.8661  -21.4511   16.4750 C   0  0  0  0  0  0  0  0  0  0  0  0
  -23.3809  -18.4593   19.3337 C   0  0  0  0  0  0  0  0  0  0  0  0
  -22.3314   -8.7149   20.1932 C   0  0  0  0  0  0  0  0  0  0  0  0
  -23.0956   -8.7217   22.4852 C   0  0  0  0  0  0  0  0  0  0  0  0
  -24.6851  -18.8240   19.6650 C   0  0  0  0  0  0  0  0  0  0  0  0
  -19.8690   -7.9220   23.0936 C   0  0  0  0  0  0  0  0  0  0  0  0
  -19.1143   -7.8814   24.2659 C   0  0  0  0  0  0  0  0  0  0  0  0
  -23.9435  -19.4455   21.8747 C   0  0  0  0  0  0  0  0  0  0  0  0
  -20.3581   -5.9444   24.9995 C   0  0  0  0  0  0  0  0  0  0  0  0
  -23.8277  -10.4487   20.9626 C   0  0  0  0  0  0  0  0  0  0  0  0
  -24.1680  -12.9741   20.8426 C   0  0  0  0  0  0  0  0  0  0  0  0
  -16.5412  -21.7738   17.0901 C   0  0  0  0  0  0  0  0  0  0  0  0
  -22.3445  -18.5955   20.2684 C   0  0  0  0  0  0  0  0  0  0  0  0
  -17.8946  -21.6747   17.4654 C   0  0  0  0  0  0  0  0  0  0  0  0
  -22.6275  -19.0795   21.5536 C   0  0  0  0  0  0  0  0  0  0  0  0
  -29.3431  -18.9056   22.2262 C   0  0  0  0  0  0  0  0  0  0  0  0
  -28.5414  -19.6946   23.0435 C   0  0  0  0  0  0  0  0  0  0  0  0
  -29.9439  -17.7638   22.7444 C   0  0  0  0  0  0  0  0  0  0  0  0
  -22.3420   -8.1415   21.4647 C   0  0  0  0  0  0  0  0  0  0  0  0
  -24.9661  -19.3199   20.9347 C   0  0  0  0  0  0  0  0  0  0  0  0
  -20.8682   -6.9738   22.8742 C   0  0  0  0  0  0  0  0  0  0  0  0
  -19.3588   -6.8926   25.2189 C   0  0  0  0  0  0  0  0  0  0  0  0
  -21.1128   -5.9850   23.8271 C   0  0  0  0  0  0  0  0  0  0  0  0
  -24.5957  -11.6401   20.7038 C   0  0  0  0  0  0  0  0  0  0  0  0
  -28.3734  -19.3015   24.3615 C   0  0  0  0  0  0  0  0  0  0  0  0
  -29.7133  -17.4572   24.0759 C   0  0  0  0  0  0  0  0  0  0  0  0
  -25.2590  -13.7243   20.4775 C   0  0  0  0  0  0  0  0  0  0  0  0
  -22.8980  -13.4891   21.2641 C   0  0  0  0  0  0  0  0  0  0  0  0
  -19.6496  -20.2759   20.4008 C   0  0  0  0  0  0  0  0  0  0  0  0
  -19.1743  -18.5655   23.1157 C   0  0  0  0  0  0  0  0  0  0  0  0
  -20.5287  -16.7797   25.6893 C   0  0  0  0  0  0  0  0  0  0  0  0
  -30.7426  -14.7462   20.6558 C   0  0  0  0  0  0  0  0  0  0  0  0
  -15.4571  -22.0595   18.0989 C   0  0  0  0  0  0  0  0  0  0  0  0
  -20.9477  -18.1726   19.9042 C   0  0  0  0  0  0  0  0  0  0  0  0
  -21.5541  -19.2259   22.6000 C   0  0  0  0  0  0  0  0  0  0  0  0
  -15.8813  -21.7932   19.5409 C   0  0  0  0  0  0  0  0  0  0  0  0
  -29.6017  -12.3617   18.2705 C   0  0  0  0  0  0  0  0  0  0  0  0
  -17.2549  -22.3979   19.8135 C   0  0  0  0  0  0  0  0  0  0  0  0
  -28.1653  -12.0671   18.7061 C   0  0  0  0  0  0  0  0  0  0  0  0
  -30.5210  -12.5827   19.4697 C   0  0  0  0  0  0  0  0  0  0  0  0
  -28.6215  -13.3124   20.8601 C   0  0  0  0  0  0  0  0  0  0  0  0
  -18.3241  -21.7666   18.9136 C   0  0  1  0  0  0  0  0  0  0  0  0
  -19.8784  -18.8366   20.7662 C   0  0  1  0  0  0  0  0  0  0  0  0
  -27.6452  -13.1376   19.6843 C   0  0  2  0  0  0  0  0  0  0  0  0
  -29.5605  -19.2845   20.7959 C   0  0  0  0  0  0  0  0  0  0  0  0
  -27.5235  -20.1084   25.2876 C   0  0  0  0  0  0  0  0  0  0  0  0
  -30.3332  -16.2448   24.6901 C   0  0  0  0  0  0  0  0  0  0  0  0
  -19.8918  -15.5375   27.7747 C   0  0  0  0  0  0  0  0  0  0  0  0
  -18.7532  -21.2178   24.5641 C   0  0  0  0  0  0  0  0  0  0  0  0
  -19.0709  -20.0050   26.7312 C   0  0  0  0  0  0  0  0  0  0  0  0
  -17.1700  -19.4011   25.2330 C   0  0  0  0  0  0  0  0  0  0  0  0
  -21.6250  -14.2356   24.6478 C   0  0  0  0  0  0  0  0  0  0  0  0
  -27.8748  -20.9392   22.5099 C   0  0  0  0  0  0  0  0  0  0  0  0
  -30.8096  -16.8965   21.8931 C   0  0  0  0  0  0  0  0  0  0  0  0
  -26.3938  -20.7240   22.2178 C   0  0  0  0  0  0  0  0  0  1  0  0
  -19.5229  -18.7534   24.5725 C   0  0  1  0  0  0  0  0  0  0  0  0
  -20.1623  -15.4310   26.2820 C   0  0  2  0  0  0  0  0  0  0  0  0
  -18.6494  -19.8435   25.2551 C   0  0  0  0  0  0  0  0  0  0  0  0
  -25.8598  -11.5451   20.2831 N   0  0  0  0  0  0  0  0  0  0  0  0
  -28.9408  -18.1992   24.9007 N   0  0  0  0  0  0  0  0  0  0  0  0
  -26.2358  -12.8289   20.1544 N   0  0  0  0  0  0  0  0  0  0  0  0
  -20.2031  -18.8049   22.1937 N   0  0  0  0  0  0  0  0  0  0  0  0
  -29.9716  -13.6107   20.3570 N   0  0  0  0  0  0  0  0  0  0  0  0
  -25.4686  -15.0559   20.4044 N   0  0  0  0  0  0  0  0  0  0  0  0
  -21.8872  -12.5793   21.6030 N   0  0  0  0  0  0  0  0  0  0  0  0
  -18.7000  -20.4619   19.4143 N   0  0  0  0  0  0  0  0  0  0  0  0
  -19.4234  -17.4351   25.1894 N   0  0  0  0  0  0  0  0  0  0  0  0
  -30.1445  -15.6745   21.4992 N   0  0  0  0  0  0  0  0  0  0  0  0
  -21.2696  -14.4555   26.0734 N   0  3  0  0  0  0  0  0  0  0  0  0
  -22.6612  -14.7196   21.3222 O   0  0  0  0  0  0  0  0  0  0  0  0
  -20.2863  -21.1530   20.9726 O   0  0  0  0  0  0  0  0  0  0  0  0
  -18.0333  -18.2122   22.8077 O   0  0  0  0  0  0  0  0  0  0  0  0
  -21.6797  -17.2104   25.6749 O   0  0  0  0  0  0  0  0  0  0  0  0
  -31.8776  -14.9224   20.2000 O   0  0  0  0  0  0  0  0  0  0  0  0
  -21.6172   -7.0160   21.7102 O   0  0  0  0  0  0  0  0  0  0  0  0
  -26.2381  -19.6772   21.2605 O   0  0  0  0  0  0  0  0  0  1  0  0
  -18.6350   -6.8546   26.3453 F   0  0  0  0  0  0  0  0  0  0  0  0
  -22.0722   -5.0721   23.6225 F   0  0  0  0  0  0  0  0  0  0  0  0
  1  2  1  0  0  0  0
  1  5  2  0  0  0  0
  2  6  2  0  0  0  0
  3  8  2  0  0  0  0
  3 15  1  0  0  0  0
  4  9  1  0  0  0  0
  4 15  2  0  0  0  0
  5 17  1  0  0  0  0
  6 19  1  0  0  0  0
  7 10  2  0  0  0  0
  7 18  1  0  0  0  0
  8 24  1  0  0  0  0
  9 24  2  0  0  0  0
 10 25  1  0  0  0  0
 11 12  2  0  0  0  0
 11 26  1  0  0  0  0
 12 27  1  0  0  0  0
 13 20  1  0  0  0  0
 13 25  2  0  0  0  0
 14 27  2  0  0  0  0
 14 28  1  0  0  0  0
 15 29  1  0  0  0  0
 16 29  1  0  0  0  0
 16 32  2  0  0  0  0
 16 33  1  0  0  0  0
 17 19  2  0  0  0  0
 17 38  1  0  0  0  0
 18 20  2  0  0  0  0
 18 39  1  0  0  0  0
 19 47  1  0  0  0  0
 20 40  1  0  0  0  0
 21 22  2  0  0  0  0
 21 23  1  0  0  0  0
 21 50  1  0  0  0  0
 22 30  1  0  0  0  0
 22 58  1  0  0  0  0
 23 31  2  0  0  0  0
 23 59  1  0  0  0  0
 24 80  1  0  0  0  0
 25 81  1  0  0  0  0
 26 28  2  0  0  0  0
 26 80  1  0  0  0  0
 27 82  1  0  0  0  0
 28 83  1  0  0  0  0
 29 64  2  0  0  0  0
 30 51  1  0  0  0  0
 30 65  2  0  0  0  0
 31 52  1  0  0  0  0
 31 65  1  0  0  0  0
 32 66  1  0  0  0  0
 32 69  1  0  0  0  0
 33 70  1  0  0  0  0
 33 75  2  0  0  0  0
 34 48  1  0  0  0  0
 34 71  1  0  0  0  0
 34 76  2  0  0  0  0
 35 61  1  0  0  0  0
 35 67  1  0  0  0  0
 35 77  2  0  0  0  0
 36 62  1  0  0  0  0
 36 72  1  0  0  0  0
 36 78  2  0  0  0  0
 37 68  1  0  0  0  0
 37 73  1  0  0  0  0
 37 79  2  0  0  0  0
 38 41  1  0  0  0  0
 39 48  1  0  0  0  0
 40 67  1  0  0  0  0
 41 43  1  0  0  0  0
 42 44  1  0  0  0  0
 42 45  1  0  0  0  0
 43 47  1  0  0  0  0
 44 49  1  0  0  0  0
 45 68  1  0  0  0  0
 46 49  1  0  0  0  0
 46 68  1  0  0  0  0
 47 71  1  0  0  0  0
 48 67  1  0  0  0  0
 49 66  1  0  0  0  0
 53 62  1  0  0  0  0
 54 63  1  0  0  0  0
 55 63  1  0  0  0  0
 56 63  1  0  0  0  0
 57 74  1  0  0  0  0
 58 60  1  0  0  0  0
 59 73  1  0  0  0  0
 60 81  1  0  0  0  0
 61 63  1  0  0  0  0
 61 72  1  0  0  0  0
 62 74  1  0  0  0  0
 64 66  1  0  0  0  0
M  CHG  1  74   1
M  ISO  4  37 100  60 101  73 100  81 101
M  END
> <Batch ID>
0029

> <Smiles>
CNC(C)C(=O)NC(C(=O)N1Cc2cc([101O:1][101CH2:1]Cc3c(C)nc(C)c(C[100NH:0][100C:0](=O)N4CCCC(n5nc(-c6ccc(Oc7ccc(F)cc7F)cc6)c(C(N)=O)c5N)C4)c3C)ccc2CC1C(=O)NC1CCCc2ccccc21)C(C)(C)C

> <Shape>
0.178

> <Color>
0.196

> <Negative vol penalty>
0.000

$$$$

  -OEChem-04052316363D

 91100  0     1  0  0  0  0  0999 V2000
  -20.8494  -24.5183   24.4648 C   0  0  0  0  0  0  0  0  0  0  0  0
  -22.0993  -23.9077   24.4793 C   0  0  0  0  0  0  0  0  0  0  0  0
  -23.0411   -9.8795   19.9597 C   0  0  0  0  0  0  0  0  0  0  0  0
  -23.6191   -9.9745   22.3036 C   0  0  0  0  0  0  0  0  0  0  0  0
  -20.7340  -25.8589   24.0995 C   0  0  0  0  0  0  0  0  0  0  0  0
  -23.2345  -24.6370   24.1275 C   0  0  0  0  0  0  0  0  0  0  0  0
  -27.1031  -23.8610   27.3018 C   0  0  0  0  0  0  0  0  0  0  0  0
  -22.2405   -8.7634   20.2023 C   0  0  0  0  0  0  0  0  0  0  0  0
  -22.8184   -8.8584   22.5462 C   0  0  0  0  0  0  0  0  0  0  0  0
  -27.8247  -22.6779   27.1490 C   0  0  0  0  0  0  0  0  0  0  0  0
  -23.0368   -5.5058   22.1673 C   0  0  0  0  0  0  0  0  0  0  0  0
  -23.5584   -4.4981   22.9784 C   0  0  0  0  0  0  0  0  0  0  0  0
  -29.5345  -23.8830   25.9476 C   0  0  0  0  0  0  0  0  0  0  0  0
  -28.7691  -14.4255   30.2116 C   0  0  0  0  0  0  0  0  0  0  0  0
  -21.7358   -4.8069   24.5340 C   0  0  0  0  0  0  0  0  0  0  0  0
  -23.7304  -10.4851   21.0103 C   0  0  0  0  0  0  0  0  0  0  0  0
  -24.1678  -12.9896   20.8019 C   0  0  0  0  0  0  0  0  0  0  0  0
  -21.8695  -26.6077   23.7524 C   0  0  0  0  0  0  0  0  0  0  0  0
  -27.5874  -25.0640   26.7684 C   0  0  0  0  0  0  0  0  0  0  0  0
  -23.1340  -25.9885   23.7560 C   0  0  0  0  0  0  0  0  0  0  0  0
  -28.8184  -25.0805   26.0973 C   0  0  0  0  0  0  0  0  0  0  0  0
  -29.2391  -14.9417   29.0091 C   0  0  0  0  0  0  0  0  0  0  0  0
  -29.2254  -16.3156   28.7961 C   0  0  0  0  0  0  0  0  0  0  0  0
  -22.1291   -8.2528   21.4955 C   0  0  0  0  0  0  0  0  0  0  0  0
  -29.0392  -22.6882   26.4692 C   0  0  0  0  0  0  0  0  0  0  0  0
  -21.8648   -6.1642   22.5395 C   0  0  0  0  0  0  0  0  0  0  0  0
  -22.9079   -4.1486   24.1618 C   0  0  0  0  0  0  0  0  0  0  0  0
  -21.2142   -5.8147   23.7229 C   0  0  0  0  0  0  0  0  0  0  0  0
  -24.5581  -11.6377   20.7602 C   0  0  0  0  0  0  0  0  0  0  0  0
  -28.7355  -17.1241   29.8090 C   0  0  0  0  0  0  0  0  0  0  0  0
  -28.2998  -15.3187   31.1613 C   0  0  0  0  0  0  0  0  0  0  0  0
  -25.3103  -13.6865   20.4928 C   0  0  0  0  0  0  0  0  0  0  0  0
  -22.8871  -13.5642   21.0940 C   0  0  0  0  0  0  0  0  0  0  0  0
  -26.5493  -27.1287   24.5859 C   0  0  0  0  0  0  0  0  0  0  0  0
  -29.1135  -28.8567   25.5665 C   0  0  0  0  0  0  0  0  0  0  0  0
  -32.2013  -28.8889   27.0195 C   0  0  0  0  0  0  0  0  0  0  0  0
  -30.6898  -14.6195   20.8941 C   0  0  0  0  0  0  0  0  0  0  0  0
  -21.6893  -28.0410   23.3189 C   0  0  0  0  0  0  0  0  0  0  0  0
  -26.8100  -26.3365   26.9651 C   0  0  0  0  0  0  0  0  0  0  0  0
  -29.3919  -26.3495   25.5235 C   0  0  0  0  0  0  0  0  0  0  0  0
  -22.9864  -28.8458   23.3215 C   0  0  0  0  0  0  0  0  0  0  0  0
  -29.7639  -12.1071   18.7068 C   0  0  0  0  0  0  0  0  0  0  0  0
  -24.1056  -28.0568   22.6496 C   0  0  0  0  0  0  0  0  0  0  0  0
  -28.2919  -11.8619   19.0380 C   0  0  0  0  0  0  0  0  0  0  0  0
  -30.3820  -17.6005   23.0725 C   0  0  0  0  0  0  0  0  0  0  0  0
  -29.2622  -15.6450   24.1998 C   0  0  0  0  0  0  0  0  0  0  0  0
  -30.5806  -12.3220   19.9759 C   0  0  0  0  0  0  0  0  0  0  0  0
  -31.2056  -16.6238   22.2377 C   0  0  0  0  0  0  0  0  0  0  0  0
  -30.1103  -14.7058   23.3484 C   0  0  0  0  0  0  0  0  0  0  0  0
  -28.6060  -13.2038   21.1756 C   0  0  0  0  0  0  0  0  0  0  0  0
  -24.3918  -26.7532   23.4048 C   0  0  1  0  0  0  0  0  0  0  0  0
  -27.1491  -27.4092   25.9347 C   0  0  1  0  0  0  0  0  0  0  0  0
  -29.9692  -16.9895   24.4178 C   0  0  0  0  0  0  0  0  0  0  0  0
  -27.7303  -12.9873   19.9250 C   0  0  2  0  0  0  0  0  0  0  0  0
  -28.6956  -18.6074   29.6367 C   0  0  0  0  0  0  0  0  0  0  0  0
  -31.1511  -13.4895   28.2867 C   0  0  0  0  0  0  0  0  0  0  0  0
  -34.0660  -30.4458   27.6490 C   0  0  0  0  0  0  0  0  0  0  0  0
  -29.9760  -29.0016   22.6433 C   0  0  0  0  0  0  0  0  0  0  0  0
  -32.2495  -29.7044   23.4214 C   0  0  0  0  0  0  0  0  0  0  0  0
  -30.2653  -31.1306   23.9231 C   0  0  0  0  0  0  0  0  0  0  0  0
  -31.9406  -28.2260   29.8920 C   0  0  0  0  0  0  0  0  0  0  0  0
  -29.7510  -14.0045   27.9658 C   0  0  0  0  0  0  0  0  0  0  0  0
  -29.7253  -16.9030   27.4997 C   0  0  0  0  0  0  0  0  0  0  0  0
  -28.6113  -17.2778   26.5125 C   0  0  0  0  0  0  0  0  0  0  0  0
  -29.7700  -19.3151   25.4030 C   0  0  0  0  0  0  0  0  0  0  0  0
  -28.9984  -20.3205   26.2503 C   0  0  0  0  0  0  0  0  0  1  0  0
  -30.5638  -28.9440   25.1567 C   0  0  1  0  0  0  0  0  0  0  0  0
  -32.7905  -29.7604   28.1139 C   0  0  2  0  0  0  0  0  0  0  0  0
  -29.0789  -17.9507   25.2017 C   0  0  1  0  0  0  0  0  0  0  0  0
  -30.7522  -29.6707   23.7951 C   0  0  0  0  0  0  0  0  0  0  0  0
  -25.8477  -11.4827   20.4490 N   0  0  0  0  0  0  0  0  0  0  0  0
  -28.2707  -16.6594   30.9903 N   0  0  0  0  0  0  0  0  0  0  0  0
  -26.2777  -12.7462   20.2922 N   0  0  0  0  0  0  0  0  0  0  0  0
  -28.5913  -27.5666   25.7363 N   0  0  0  0  0  0  0  0  0  0  0  0
  -30.0129  -13.3948   20.7924 N   0  0  0  0  0  0  0  0  0  0  0  0
  -30.5232  -15.3391   22.0889 N   0  0  0  0  0  0  0  0  0  0  0  0
  -27.8232  -14.7786   32.3816 N   0  0  0  0  0  0  0  0  0  0  0  0
  -25.5717  -15.0057   20.3756 N   0  0  0  0  0  0  0  0  0  0  0  0
  -21.8210  -12.7041   21.3909 N   0  0  0  0  0  0  0  0  0  0  0  0
  -25.1719  -27.0191   24.5944 N   0  0  0  0  0  0  0  0  0  0  0  0
  -31.2657  -29.5715   26.2711 N   0  0  0  0  0  0  0  0  0  0  0  0
  -33.1097  -28.9383   29.3152 N   0  3  0  0  0  0  0  0  0  0  0  0
  -22.6898  -14.8028   21.0756 O   0  0  0  0  0  0  0  0  0  0  0  0
  -27.2819  -27.0212   23.6094 O   0  0  0  0  0  0  0  0  0  0  0  0
  -28.4696  -29.8950   25.7368 O   0  0  0  0  0  0  0  0  0  0  0  0
  -32.5399  -27.7206   26.8436 O   0  0  0  0  0  0  0  0  0  0  0  0
  -31.3968  -15.0484   19.9736 O   0  0  0  0  0  0  0  0  0  0  0  0
  -21.3477   -7.1639   21.7327 O   0  0  0  0  0  0  0  0  0  0  0  0
  -29.7499  -21.5271   26.3170 O   0  0  0  0  0  0  0  0  0  1  0  0
  -23.4081   -3.1798   24.9399 F   0  0  0  0  0  0  0  0  0  0  0  0
  -20.0872   -6.4427   24.0851 F   0  0  0  0  0  0  0  0  0  0  0  0
  1  2  1  0  0  0  0
  1  5  2  0  0  0  0
  2  6  2  0  0  0  0
  3  8  2  0  0  0  0
  3 16  1  0  0  0  0
  4  9  1  0  0  0  0
  4 16  2  0  0  0  0
  5 18  1  0  0  0  0
  6 20  1  0  0  0  0
  7 10  2  0  0  0  0
  7 19  1  0  0  0  0
  8 24  1  0  0  0  0
  9 24  2  0  0  0  0
 10 25  1  0  0  0  0
 11 12  2  0  0  0  0
 11 26  1  0  0  0  0
 12 27  1  0  0  0  0
 13 21  1  0  0  0  0
 13 25  2  0  0  0  0
 14 22  1  0  0  0  0
 14 31  2  0  0  0  0
 15 27  2  0  0  0  0
 15 28  1  0  0  0  0
 16 29  1  0  0  0  0
 17 29  1  0  0  0  0
 17 32  2  0  0  0  0
 17 33  1  0  0  0  0
 18 20  2  0  0  0  0
 18 38  1  0  0  0  0
 19 21  2  0  0  0  0
 19 39  1  0  0  0  0
 20 51  1  0  0  0  0
 21 40  1  0  0  0  0
 22 23  2  0  0  0  0
 22 62  1  0  0  0  0
 23 30  1  0  0  0  0
 23 63  1  0  0  0  0
 24 88  1  0  0  0  0
 25 89  1  0  0  0  0
 26 28  2  0  0  0  0
 26 88  1  0  0  0  0
 27 90  1  0  0  0  0
 28 91  1  0  0  0  0
 29 71  2  0  0  0  0
 30 55  1  0  0  0  0
 30 72  2  0  0  0  0
 31 72  1  0  0  0  0
 31 77  1  0  0  0  0
 32 73  1  0  0  0  0
 32 78  1  0  0  0  0
 33 79  1  0  0  0  0
 33 83  2  0  0  0  0
 34 52  1  0  0  0  0
 34 80  1  0  0  0  0
 34 84  2  0  0  0  0
 35 67  1  0  0  0  0
 35 74  1  0  0  0  0
 35 85  2  0  0  0  0
 36 68  1  0  0  0  0
 36 81  1  0  0  0  0
 36 86  2  0  0  0  0
 37 75  1  0  0  0  0
 37 76  1  0  0  0  0
 37 87  2  0  0  0  0
 38 41  1  0  0  0  0
 39 52  1  0  0  0  0
 40 74  1  0  0  0  0
 41 43  1  0  0  0  0
 42 44  1  0  0  0  0
 42 47  1  0  0  0  0
 43 51  1  0  0  0  0
 44 54  1  0  0  0  0
 45 48  1  0  0  0  0
 45 53  1  0  0  0  0
 46 49  1  0  0  0  0
 46 53  1  0  0  0  0
 47 75  1  0  0  0  0
 48 76  1  0  0  0  0
 49 76  1  0  0  0  0
 50 54  1  0  0  0  0
 50 75  1  0  0  0  0
 51 80  1  0  0  0  0
 52 74  1  0  0  0  0
 53 69  1  0  0  0  0
 54 73  1  0  0  0  0
 56 62  1  0  0  0  0
 57 68  1  0  0  0  0
 58 70  1  0  0  0  0
 59 70  1  0  0  0  0
 60 70  1  0  0  0  0
 61 82  1  0  0  0  0
 63 64  1  0  0  0  0
 64 69  1  0  0  0  0
 65 66  1  0  0  0  0
 65 69  1  0  0  0  0
 66 89  1  0  0  0  0
 67 70  1  0  0  0  0
 67 81  1  0  0  0  0
 68 82  1  0  0  0  0
 71 73  1  0  0  0  0
M  CHG  1  82   1
M  ISO  4  37 100  66 101  76 100  89 101
M  END
> <Batch ID>
0029

> <Smiles>
CCc1cc(N)nc(C)c1CCC(C[101CH2:1][101O:1]c1ccc2c(c1)CN(C(=O)C(NC(=O)C(C)NC)C(C)(C)C)C(C(=O)NC1CCCc3ccccc31)C2)C1CC[100N:0]([100C:0](=O)N2CCCC(n3nc(-c4ccc(Oc5ccc(F)cc5F)cc4)c(C(N)=O)c3N)C2)CC1

> <Shape>
0.190

> <Color>
0.180

> <Negative vol penalty>
0.000

$$$$

  -OEChem-04052316363D

 89 98  0     1  0  0  0  0  0999 V2000
  -27.3486  -27.1343   10.9293 C   0  0  0  0  0  0  0  0  0  0  0  0
  -27.4762  -26.4452   12.1311 C   0  0  0  0  0  0  0  0  0  0  0  0
  -22.6941  -10.1353   20.1307 C   0  0  0  0  0  0  0  0  0  0  0  0
  -24.3903   -9.3607   21.6670 C   0  0  0  0  0  0  0  0  0  0  0  0
  -27.1074  -28.5075   10.9366 C   0  0  0  0  0  0  0  0  0  0  0  0
  -27.3638  -27.1293   13.3410 C   0  0  0  0  0  0  0  0  0  0  0  0
  -24.4724  -24.6765   16.6980 C   0  0  0  0  0  0  0  0  0  0  0  0
  -22.0068   -8.9311   20.2824 C   0  0  0  0  0  0  0  0  0  0  0  0
  -23.7029   -8.1565   21.8188 C   0  0  0  0  0  0  0  0  0  0  0  0
  -25.0499  -23.5994   17.3689 C   0  0  0  0  0  0  0  0  0  0  0  0
  -21.0108   -7.0241   23.5191 C   0  0  0  0  0  0  0  0  0  0  0  0
  -20.8557   -6.5269   24.8130 C   0  0  0  0  0  0  0  0  0  0  0  0
  -25.4362  -25.0095   19.2876 C   0  0  0  0  0  0  0  0  0  0  0  0
  -28.1670  -19.0626   24.9867 C   0  0  0  0  0  0  0  0  0  0  0  0
  -22.0522   -4.5236   24.1866 C   0  0  0  0  0  0  0  0  0  0  0  0
  -23.8859  -10.3501   20.8230 C   0  0  0  0  0  0  0  0  0  0  0  0
  -24.1229  -12.8864   20.9593 C   0  0  0  0  0  0  0  0  0  0  0  0
  -26.9823  -29.2070   12.1472 C   0  0  0  0  0  0  0  0  0  0  0  0
  -24.3822  -25.9331   17.3139 C   0  0  0  0  0  0  0  0  0  0  0  0
  -27.1220  -28.5133   13.3645 C   0  0  0  0  0  0  0  0  0  0  0  0
  -24.8548  -26.1003   18.6234 C   0  0  0  0  0  0  0  0  0  0  0  0
  -28.2996  -19.5645   23.6818 C   0  0  0  0  0  0  0  0  0  0  0  0
  -29.7711  -17.6898   23.1721 C   0  0  0  0  0  0  0  0  0  0  0  0
  -29.6241  -17.2066   24.4696 C   0  0  0  0  0  0  0  0  0  0  0  0
  -29.0972  -18.8498   22.7765 C   0  0  0  0  0  0  0  0  0  0  0  0
  -22.5111   -7.9417   21.1265 C   0  0  0  0  0  0  0  0  0  0  0  0
  -25.5345  -23.7665   18.6628 C   0  0  0  0  0  0  0  0  0  0  0  0
  -21.6866   -6.2711   22.5589 C   0  0  0  0  0  0  0  0  0  0  0  0
  -21.3764   -5.2766   25.1468 C   0  0  0  0  0  0  0  0  0  0  0  0
  -28.8181  -17.8899   25.3755 C   0  0  0  0  0  0  0  0  0  0  0  0
  -22.2073   -5.0209   22.8926 C   0  0  0  0  0  0  0  0  0  0  0  0
  -24.5967  -11.5936   20.6662 C   0  0  0  0  0  0  0  0  0  0  0  0
  -25.1695  -13.7163   20.6397 C   0  0  0  0  0  0  0  0  0  0  0  0
  -22.8504  -13.3001   21.4743 C   0  0  0  0  0  0  0  0  0  0  0  0
  -25.5475  -28.8244   16.6927 C   0  0  0  0  0  0  0  0  0  0  0  0
  -23.6678  -29.6917   19.1901 C   0  0  0  0  0  0  0  0  0  0  0  0
  -22.8274  -28.3654   22.4385 C   0  0  0  0  0  0  0  0  0  0  0  0
  -30.6119  -14.9470   20.7442 C   0  0  0  0  0  0  0  0  0  0  0  0
  -26.7687  -30.6994   12.1046 C   0  0  0  0  0  0  0  0  0  0  0  0
  -23.7323  -27.0781   16.5866 C   0  0  0  0  0  0  0  0  0  0  0  0
  -27.6426  -20.8745   23.3250 C   0  0  0  0  0  0  0  0  0  0  0  0
  -24.7634  -27.4237   19.3365 C   0  0  0  0  0  0  0  0  0  0  0  0
  -26.2899  -31.2843   13.4309 C   0  0  0  0  0  0  0  0  0  0  0  0
  -29.4768  -12.7776   18.1593 C   0  0  0  0  0  0  0  0  0  0  0  0
  -27.1228  -30.7387   14.5865 C   0  0  0  0  0  0  0  0  0  0  0  0
  -28.0701  -12.3782   18.6084 C   0  0  0  0  0  0  0  0  0  0  0  0
  -30.4308  -12.9114   19.3442 C   0  0  0  0  0  0  0  0  0  0  0  0
  -28.5574  -13.4106   20.8657 C   0  0  0  0  0  0  0  0  0  0  0  0
  -26.6364  -20.7905   22.1817 C   0  0  0  0  0  0  0  0  0  0  0  0
  -26.9817  -29.2158   14.6975 C   0  0  1  0  0  0  0  0  0  0  0  0
  -24.1581  -28.4429   17.1190 C   0  0  1  0  0  0  0  0  0  0  0  0
  -27.5456  -13.3178   19.7107 C   0  0  2  0  0  0  0  0  0  0  0  0
  -28.0835  -19.3224   20.7426 C   0  0  2  0  0  0  0  0  0  0  0  0
  -30.3218  -15.9620   24.9111 C   0  0  0  0  0  0  0  0  0  0  0  0
  -27.2053  -19.0465   18.4185 C   0  0  0  0  0  0  0  0  0  0  0  0
  -20.7701  -28.6702   23.8428 C   0  0  0  0  0  0  0  0  0  0  0  0
  -25.2449  -31.9555   20.4932 C   0  0  0  0  0  0  0  0  0  0  0  0
  -24.2563  -31.2842   22.6933 C   0  0  0  0  0  0  0  0  0  0  0  0
  -22.7718  -32.0680   20.8481 C   0  0  0  0  0  0  0  0  0  0  0  0
  -22.3928  -25.4450   22.6425 C   0  0  0  0  0  0  0  0  0  0  0  0
  -30.6412  -16.9576   22.1988 C   0  0  0  0  0  0  0  0  0  0  0  0
  -28.4246  -19.0368   19.2800 C   0  0  0  0  0  0  0  0  0  0  0  0
  -28.0684  -21.8448   20.3976 C   0  0  0  0  0  0  0  0  0  0  0  0
  -27.1154  -23.0173   20.2738 C   0  0  0  0  0  0  0  0  0  1  0  0
  -23.8539  -29.7888   20.6851 C   0  0  1  0  0  0  0  0  0  0  0  0
  -21.4974  -27.7666   22.8593 C   0  0  2  0  0  0  0  0  0  0  0  0
  -24.0463  -31.2554   21.1643 C   0  0  0  0  0  0  0  0  0  0  0  0
  -25.8470  -11.5969   20.1965 N   0  0  0  0  0  0  0  0  0  0  0  0
  -26.1677  -12.9019   20.1918 N   0  0  0  0  0  0  0  0  0  0  0  0
  -24.1253  -28.5145   18.5812 N   0  0  0  0  0  0  0  0  0  0  0  0
  -29.8752  -13.8170   20.3527 N   0  0  0  0  0  0  0  0  0  0  0  0
  -25.3242  -15.0560   20.7008 N   0  0  0  0  0  0  0  0  0  0  0  0
  -22.6894  -13.3907   22.8637 N   0  0  0  0  0  0  0  0  0  0  0  0
  -25.7234  -28.8691   15.3229 N   0  0  0  0  0  0  0  0  0  0  0  0
  -22.7099  -29.1098   21.2838 N   0  0  0  0  0  0  0  0  0  0  0  0
  -30.0100  -15.7560   21.7002 N   0  0  0  0  0  0  0  0  0  0  0  0
  -27.3001  -20.6228   20.8330 N   0  3  2  0  0  0  0  0  0  0  0  0
  -21.7078  -26.4407   23.5063 N   0  3  0  0  0  0  0  0  0  0  0  0
  -21.8797  -13.5652   20.7253 O   0  0  0  0  0  0  0  0  0  0  0  0
  -26.3967  -29.0623   17.5437 O   0  0  0  0  0  0  0  0  0  0  0  0
  -23.1297  -30.6228   18.5859 O   0  0  0  0  0  0  0  0  0  0  0  0
  -23.8659  -28.1932   23.0729 O   0  0  0  0  0  0  0  0  0  0  0  0
  -31.7215  -15.2180   20.2725 O   0  0  0  0  0  0  0  0  0  0  0  0
  -29.3083  -19.2645   21.4876 O   0  0  0  0  0  0  0  0  0  0  0  0
  -21.8405   -6.7666   21.2749 O   0  0  0  0  0  0  0  0  0  0  0  0
  -26.1033  -22.7095   19.3244 O   0  0  0  0  0  0  0  0  0  1  0  0
  -21.2286   -4.7999   26.3898 F   0  0  0  0  0  0  0  0  0  0  0  0
  -28.6697  -17.4380   26.6289 F   0  0  0  0  0  0  0  0  0  0  0  0
  -22.8586   -4.2934   21.9748 F   0  0  0  0  0  0  0  0  0  0  0  0
  1  2  1  0  0  0  0
  1  5  2  0  0  0  0
  2  6  2  0  0  0  0
  3  8  2  0  0  0  0
  3 16  1  0  0  0  0
  4  9  1  0  0  0  0
  4 16  2  0  0  0  0
  5 18  1  0  0  0  0
  6 20  1  0  0  0  0
  7 10  2  0  0  0  0
  7 19  1  0  0  0  0
  8 26  1  0  0  0  0
  9 26  2  0  0  0  0
 10 27  1  0  0  0  0
 11 12  2  0  0  0  0
 11 28  1  0  0  0  0
 12 29  1  0  0  0  0
 13 21  1  0  0  0  0
 13 27  2  0  0  0  0
 14 22  2  0  0  0  0
 14 30  1  0  0  0  0
 15 29  2  0  0  0  0
 15 31  1  0  0  0  0
 16 32  1  0  0  0  0
 17 32  1  0  0  0  0
 17 33  2  0  0  0  0
 17 34  1  0  0  0  0
 18 20  2  0  0  0  0
 18 39  1  0  0  0  0
 19 21  2  0  0  0  0
 19 40  1  0  0  0  0
 20 50  1  0  0  0  0
 21 42  1  0  0  0  0
 22 25  1  0  0  0  0
 22 41  1  0  0  0  0
 23 24  1  0  0  0  0
 23 25  2  0  0  0  0
 23 61  1  0  0  0  0
 24 30  2  0  0  0  0
 24 54  1  0  0  0  0
 25 84  1  0  0  0  0
 26 85  1  0  0  0  0
 27 86  1  0  0  0  0
 28 31  2  0  0  0  0
 28 85  1  0  0  0  0
 29 87  1  0  0  0  0
 30 88  1  0  0  0  0
 31 89  1  0  0  0  0
 32 68  2  0  0  0  0
 33 69  1  0  0  0  0
 33 72  1  0  0  0  0
 34 73  1  0  0  0  0
 34 79  2  0  0  0  0
 35 51  1  0  0  0  0
 35 74  1  0  0  0  0
 35 80  2  0  0  0  0
 36 65  1  0  0  0  0
 36 70  1  0  0  0  0
 36 81  2  0  0  0  0
 37 66  1  0  0  0  0
 37 75  1  0  0  0  0
 37 82  2  0  0  0  0
 38 71  1  0  0  0  0
 38 76  1  0  0  0  0
 38 83  2  0  0  0  0
 39 43  1  0  0  0  0
 40 51  1  0  0  0  0
 41 49  1  0  0  0  0
 42 70  1  0  0  0  0
 43 45  1  0  0  0  0
 44 46  1  0  0  0  0
 44 47  1  0  0  0  0
 45 50  1  0  0  0  0
 46 52  1  0  0  0  0
 47 71  1  0  0  0  0
 48 52  1  0  0  0  0
 48 71  1  0  0  0  0
 49 77  1  0  0  0  0
 50 74  1  0  0  0  0
 51 70  1  0  0  0  0
 52 69  1  0  0  0  0
 53 62  1  0  0  0  0
 53 77  1  0  0  0  0
 53 84  1  0  0  0  0
 55 62  1  0  0  0  0
 56 66  1  0  0  0  0
 57 67  1  0  0  0  0
 58 67  1  0  0  0  0
 59 67  1  0  0  0  0
 60 78  1  0  0  0  0
 61 76  1  0  0  0  0
 63 64  1  0  0  0  0
 63 77  1  0  0  0  0
 64 86  1  0  0  0  0
 65 67  1  0  0  0  0
 65 75  1  0  0  0  0
 66 78  1  0  0  0  0
 68 69  1  0  0  0  0
M  CHG  2  77   1  78   1
M  ISO  4  38 100  64 101  76 100  86 101
M  END
> <Batch ID>
0029

> <Smiles>
CCC1Oc2c(cc(F)c(C)c2C[100NH:0][100C:0](=O)N2CCCC(n3nc(-c4ccc(Oc5ccc(F)cc5F)cc4)c(C(N)=O)c3N)C2)CCN1C[101CH2:1][101O:1]c1ccc2c(c1)CN(C(=O)C(NC(=O)C(C)NC)C(C)(C)C)C(C(=O)NC1CCCc3ccccc31)C2

> <Shape>
0.306

> <Color>
0.177

> <Negative vol penalty>
0.000

$$$$

  -OEChem-04052316363D

 82 90  0     1  0  0  0  0  0999 V2000
  -25.5565   -7.8527   32.9049 C   0  0  0  0  0  0  0  0  0  0  0  0
  -26.5478   -8.7448   32.5091 C   0  0  0  0  0  0  0  0  0  0  0  0
  -23.2887   -9.7990   19.9140 C   0  0  0  0  0  0  0  0  0  0  0  0
  -23.7435   -9.9394   22.2827 C   0  0  0  0  0  0  0  0  0  0  0  0
  -24.3963   -7.7187   32.1434 C   0  0  0  0  0  0  0  0  0  0  0  0
  -26.3800   -9.5028   31.3507 C   0  0  0  0  0  0  0  0  0  0  0  0
  -28.3240  -15.2293   30.3844 C   0  0  0  0  0  0  0  0  0  0  0  0
  -22.5635   -8.6260   20.1228 C   0  0  0  0  0  0  0  0  0  0  0  0
  -23.0183   -8.7663   22.4915 C   0  0  0  0  0  0  0  0  0  0  0  0
  -29.4437  -15.7420   29.7307 C   0  0  0  0  0  0  0  0  0  0  0  0
  -19.7722   -7.8531   22.7144 C   0  0  0  0  0  0  0  0  0  0  0  0
  -18.8718   -7.8306   23.7793 C   0  0  0  0  0  0  0  0  0  0  0  0
  -28.1298  -16.0442   27.7303 C   0  0  0  0  0  0  0  0  0  0  0  0
  -31.5811  -15.8516   24.7640 C   0  0  0  0  0  0  0  0  0  0  0  0
  -20.0805   -5.9839   24.7623 C   0  0  0  0  0  0  0  0  0  0  0  0
  -23.8788  -10.4557   20.9940 C   0  0  0  0  0  0  0  0  0  0  0  0
  -24.1361  -12.9859   20.7955 C   0  0  0  0  0  0  0  0  0  0  0  0
  -24.2099   -8.4825   30.9804 C   0  0  0  0  0  0  0  0  0  0  0  0
  -27.0996  -15.1098   29.7115 C   0  0  0  0  0  0  0  0  0  0  0  0
  -25.2169   -9.3779   30.5722 C   0  0  0  0  0  0  0  0  0  0  0  0
  -26.9955  -15.5320   28.3785 C   0  0  0  0  0  0  0  0  0  0  0  0
  -31.0953  -15.0745   23.7125 C   0  0  0  0  0  0  0  0  0  0  0  0
  -32.1554  -15.2380   25.8773 C   0  0  0  0  0  0  0  0  0  0  0  0
  -31.1836  -13.6838   23.7743 C   0  0  0  0  0  0  0  0  0  0  0  0
  -22.4282   -8.1096   21.4115 C   0  0  0  0  0  0  0  0  0  0  0  0
  -29.3474  -16.1469   28.4026 C   0  0  0  0  0  0  0  0  0  0  0  0
  -20.8268   -6.9410   22.6733 C   0  0  0  0  0  0  0  0  0  0  0  0
  -19.0259   -6.8960   24.8033 C   0  0  0  0  0  0  0  0  0  0  0  0
  -20.9809   -6.0064   23.6972 C   0  0  0  0  0  0  0  0  0  0  0  0
  -32.2437  -13.8473   25.9391 C   0  0  0  0  0  0  0  0  0  0  0  0
  -31.7578  -13.0702   24.8876 C   0  0  0  0  0  0  0  0  0  0  0  0
  -24.6285  -11.6672   20.7789 C   0  0  0  0  0  0  0  0  0  0  0  0
  -25.2366  -13.7666   20.5387 C   0  0  0  0  0  0  0  0  0  0  0  0
  -22.8031  -13.4626   21.0227 C   0  0  0  0  0  0  0  0  0  0  0  0
  -25.1985  -12.6862   28.9266 C   0  0  0  0  0  0  0  0  0  0  0  0
  -23.2253  -15.0634   27.9380 C   0  0  0  0  0  0  0  0  0  0  0  0
  -22.8810  -18.2847   26.8647 C   0  0  0  0  0  0  0  0  0  0  0  0
  -31.0990  -12.9561   21.3640 C   0  0  0  0  0  0  0  0  0  0  0  0
  -22.9599   -8.2686   30.1640 C   0  0  0  0  0  0  0  0  0  0  0  0
  -25.8945  -14.5796   30.4389 C   0  0  0  0  0  0  0  0  0  0  0  0
  -25.6988  -15.4434   27.6175 C   0  0  0  0  0  0  0  0  0  0  0  0
  -22.6945   -9.3817   29.1536 C   0  0  0  0  0  0  0  0  0  0  0  0
  -29.4596  -13.6600   18.2827 C   0  0  0  0  0  0  0  0  0  0  0  0
  -23.9690   -9.7230   28.3882 C   0  0  0  0  0  0  0  0  0  0  0  0
  -27.9890  -13.3547   18.5765 C   0  0  0  0  0  0  0  0  0  0  0  0
  -30.3947  -12.6853   18.9963 C   0  0  0  0  0  0  0  0  0  0  0  0
  -28.7049  -12.2558   20.7367 C   0  0  0  0  0  0  0  0  0  0  0  0
  -25.0607  -10.2357   29.3353 C   0  0  1  0  0  0  0  0  0  0  0  0
  -24.8271  -14.0240   29.5011 C   0  0  1  0  0  0  0  0  0  0  0  0
  -27.7267  -13.2512   20.0917 C   0  0  2  0  0  0  0  0  0  0  0  0
  -30.4857  -15.7639   22.5344 C   0  0  0  0  0  0  0  0  0  0  0  0
  -21.1496  -19.9308   26.0968 C   0  0  0  0  0  0  0  0  0  0  0  0
  -23.0918  -13.6576   25.2332 C   0  0  0  0  0  0  0  0  0  0  0  0
  -22.1707  -15.7717   24.2581 C   0  0  0  0  0  0  0  0  0  0  0  0
  -20.9089  -14.5703   26.0434 C   0  0  0  0  0  0  0  0  0  0  0  0
  -23.4793  -20.1320   29.0981 C   0  0  0  0  0  0  0  0  0  0  0  0
  -32.6657  -16.1231   26.9883 C   0  0  0  0  0  0  0  0  0  0  0  0
  -31.7151  -16.1644   28.1798 C   0  0  0  0  0  0  0  0  0  1  0  0
  -23.0239  -15.8177   26.6458 C   0  0  1  0  0  0  0  0  0  0  0  0
  -21.9296  -19.3903   27.2851 C   0  0  2  0  0  0  0  0  0  0  0  0
  -22.3239  -14.9543   25.5586 C   0  0  0  0  0  0  0  0  0  0  0  0
  -25.9397  -11.6095   20.5310 N   0  0  0  0  0  0  0  0  0  0  0  0
  -26.2806  -12.9017   20.3894 N   0  0  0  0  0  0  0  0  0  0  0  0
  -24.5504  -14.9123   28.3703 N   0  0  0  0  0  0  0  0  0  0  0  0
  -30.0904  -12.6429   20.4283 N   0  0  0  0  0  0  0  0  0  0  0  0
  -25.4035  -15.1017   20.4283 N   0  0  0  0  0  0  0  0  0  0  0  0
  -21.7917  -12.5250   21.2718 N   0  0  0  0  0  0  0  0  0  0  0  0
  -30.6841  -12.9139   22.6946 N   0  0  0  0  0  0  0  0  0  0  0  0
  -24.8057  -11.6122   29.7023 N   0  0  0  0  0  0  0  0  0  0  0  0
  -22.3050  -17.0386   26.9937 N   0  0  0  0  0  0  0  0  0  0  0  0
  -22.6849  -20.5166   27.9031 N   0  3  0  0  0  0  0  0  0  0  0  0
  -22.5144  -14.6829   20.9892 O   0  0  0  0  0  0  0  0  0  0  0  0
  -25.7959  -12.6323   27.8580 O   0  0  0  0  0  0  0  0  0  0  0  0
  -22.2426  -14.6307   28.5451 O   0  0  0  0  0  0  0  0  0  0  0  0
  -24.0200  -18.5047   26.4586 O   0  0  0  0  0  0  0  0  0  0  0  0
  -32.2390  -13.2672   21.0096 O   0  0  0  0  0  0  0  0  0  0  0  0
  -21.7204   -6.9651   21.6156 O   0  0  0  0  0  0  0  0  0  0  0  0
  -30.4389  -16.6471   27.7620 O   0  0  0  0  0  0  0  0  0  1  0  0
  -18.1620   -6.8755   25.8268 F   0  0  0  0  0  0  0  0  0  0  0  0
  -21.9928   -5.1285   23.6638 F   0  0  0  0  0  0  0  0  0  0  0  0
  -32.9648  -13.1159   27.3390 Cl  0  0  0  0  0  0  0  0  0  0  0  0
  -31.8574  -11.3347   24.9429 Cl  0  0  0  0  0  0  0  0  0  0  0  0
  1  2  1  0  0  0  0
  1  5  2  0  0  0  0
  2  6  2  0  0  0  0
  3  8  2  0  0  0  0
  3 16  1  0  0  0  0
  4  9  1  0  0  0  0
  4 16  2  0  0  0  0
  5 18  1  0  0  0  0
  6 20  1  0  0  0  0
  7 10  2  0  0  0  0
  7 19  1  0  0  0  0
  8 25  1  0  0  0  0
  9 25  2  0  0  0  0
 10 26  1  0  0  0  0
 11 12  2  0  0  0  0
 11 27  1  0  0  0  0
 12 28  1  0  0  0  0
 13 21  1  0  0  0  0
 13 26  2  0  0  0  0
 14 22  2  0  0  0  0
 14 23  1  0  0  0  0
 15 28  2  0  0  0  0
 15 29  1  0  0  0  0
 16 32  1  0  0  0  0
 17 32  1  0  0  0  0
 17 33  2  0  0  0  0
 17 34  1  0  0  0  0
 18 20  2  0  0  0  0
 18 39  1  0  0  0  0
 19 21  2  0  0  0  0
 19 40  1  0  0  0  0
 20 48  1  0  0  0  0
 21 41  1  0  0  0  0
 22 24  1  0  0  0  0
 22 51  1  0  0  0  0
 23 30  2  0  0  0  0
 23 57  1  0  0  0  0
 24 31  2  0  0  0  0
 24 68  1  0  0  0  0
 25 77  1  0  0  0  0
 26 78  1  0  0  0  0
 27 29  2  0  0  0  0
 27 77  1  0  0  0  0
 28 79  1  0  0  0  0
 29 80  1  0  0  0  0
 30 31  1  0  0  0  0
 30 81  1  0  0  0  0
 31 82  1  0  0  0  0
 32 62  2  0  0  0  0
 33 63  1  0  0  0  0
 33 66  1  0  0  0  0
 34 67  1  0  0  0  0
 34 72  2  0  0  0  0
 35 49  1  0  0  0  0
 35 69  1  0  0  0  0
 35 73  2  0  0  0  0
 36 59  1  0  0  0  0
 36 64  1  0  0  0  0
 36 74  2  0  0  0  0
 37 60  1  0  0  0  0
 37 70  1  0  0  0  0
 37 75  2  0  0  0  0
 38 65  1  0  0  0  0
 38 68  1  0  0  0  0
 38 76  2  0  0  0  0
 39 42  1  0  0  0  0
 40 49  1  0  0  0  0
 41 64  1  0  0  0  0
 42 44  1  0  0  0  0
 43 45  1  0  0  0  0
 43 46  1  0  0  0  0
 44 48  1  0  0  0  0
 45 50  1  0  0  0  0
 46 65  1  0  0  0  0
 47 50  1  0  0  0  0
 47 65  1  0  0  0  0
 48 69  1  0  0  0  0
 49 64  1  0  0  0  0
 50 63  1  0  0  0  0
 52 60  1  0  0  0  0
 53 61  1  0  0  0  0
 54 61  1  0  0  0  0
 55 61  1  0  0  0  0
 56 71  1  0  0  0  0
 57 58  1  0  0  0  0
 58 78  1  0  0  0  0
 59 61  1  0  0  0  0
 59 70  1  0  0  0  0
 60 71  1  0  0  0  0
 62 63  1  0  0  0  0
M  CHG  1  71   1
M  ISO  4  38 100  58 101  68 100  78 101
M  END
> <Batch ID>
0029

> <Smiles>
CNC(C)C(=O)NC(C(=O)N1Cc2cc([101O:1][101CH2:1]Cc3cc(C)c([100NH:0][100C:0](=O)N4CCCC(n5nc(-c6ccc(Oc7ccc(F)cc7F)cc6)c(C(N)=O)c5N)C4)c(Cl)c3Cl)ccc2CC1C(=O)NC1CCCc2ccccc21)C(C)(C)C

> <Shape>
0.142

> <Color>
0.182

> <Negative vol penalty>
0.000

$$$$

  -OEChem-04052316363D

 81 89  0     1  0  0  0  0  0999 V2000
  -26.9434  -33.0810   17.8498 C   0  0  0  0  0  0  0  0  0  0  0  0
  -27.4906  -31.9263   18.4000 C   0  0  0  0  0  0  0  0  0  0  0  0
  -23.0831   -9.8584   19.9353 C   0  0  0  0  0  0  0  0  0  0  0  0
  -23.8512   -9.8590   22.2260 C   0  0  0  0  0  0  0  0  0  0  0  0
  -26.1074  -32.9933   16.7375 C   0  0  0  0  0  0  0  0  0  0  0  0
  -27.2012  -30.6831   17.8387 C   0  0  0  0  0  0  0  0  0  0  0  0
  -30.9472  -25.8530   17.4597 C   0  0  0  0  0  0  0  0  0  0  0  0
  -22.3500   -8.6976   20.1814 C   0  0  0  0  0  0  0  0  0  0  0  0
  -23.1181   -8.6982   22.4721 C   0  0  0  0  0  0  0  0  0  0  0  0
  -31.0753  -24.7021   18.2361 C   0  0  0  0  0  0  0  0  0  0  0  0
  -19.8990   -7.8694   23.0817 C   0  0  0  0  0  0  0  0  0  0  0  0
  -19.1467   -7.8165   24.2550 C   0  0  0  0  0  0  0  0  0  0  0  0
  -29.6707  -23.5050   16.6826 C   0  0  0  0  0  0  0  0  0  0  0  0
  -31.5510  -18.4285   20.0668 C   0  0  0  0  0  0  0  0  0  0  0  0
  -29.0894  -19.7396   20.0003 C   0  0  0  0  0  0  0  0  0  0  0  0
  -20.4072   -5.8856   24.9761 C   0  0  0  0  0  0  0  0  0  0  0  0
  -23.8338  -10.4391   20.9576 C   0  0  0  0  0  0  0  0  0  0  0  0
  -24.1536  -12.9677   20.8506 C   0  0  0  0  0  0  0  0  0  0  0  0
  -25.8153  -31.7493   16.1564 C   0  0  0  0  0  0  0  0  0  0  0  0
  -30.1697  -25.8414   16.2927 C   0  0  0  0  0  0  0  0  0  0  0  0
  -26.3594  -30.5786   16.7184 C   0  0  0  0  0  0  0  0  0  0  0  0
  -29.5364  -24.6564   15.8917 C   0  0  0  0  0  0  0  0  0  0  0  0
  -30.5337  -18.0468   20.9414 C   0  0  0  0  0  0  0  0  0  0  0  0
  -30.1068  -20.1213   19.1258 C   0  0  0  0  0  0  0  0  0  0  0  0
  -22.3674   -8.1174   21.4498 C   0  0  0  0  0  0  0  0  0  0  0  0
  -30.4346  -23.5287   17.8491 C   0  0  0  0  0  0  0  0  0  0  0  0
  -20.9054   -6.9304   22.8555 C   0  0  0  0  0  0  0  0  0  0  0  0
  -19.4008   -6.8246   25.2022 C   0  0  0  0  0  0  0  0  0  0  0  0
  -29.3029  -18.7023   20.9082 C   0  0  0  0  0  0  0  0  0  0  0  0
  -31.3376  -19.4658   19.1590 C   0  0  0  0  0  0  0  0  0  0  0  0
  -21.1596   -5.9386   23.8027 C   0  0  0  0  0  0  0  0  0  0  0  0
  -24.5917  -11.6379   20.7038 C   0  0  0  0  0  0  0  0  0  0  0  0
  -25.2380  -13.7285   20.4876 C   0  0  0  0  0  0  0  0  0  0  0  0
  -22.8803  -13.4703   21.2769 C   0  0  0  0  0  0  0  0  0  0  0  0
  -27.5629  -27.3776   15.3188 C   0  0  0  0  0  0  0  0  0  0  0  0
  -28.1864  -25.8587   12.5212 C   0  0  0  0  0  0  0  0  0  0  0  0
  -29.6574  -23.2302   10.9169 C   0  0  0  0  0  0  0  0  0  0  0  0
  -30.7135  -14.7933   20.6621 C   0  0  0  0  0  0  0  0  0  0  0  0
  -24.8684  -31.7003   14.9835 C   0  0  0  0  0  0  0  0  0  0  0  0
  -30.0633  -27.0841   15.4519 C   0  0  0  0  0  0  0  0  0  0  0  0
  -28.7067  -24.5861   14.6367 C   0  0  0  0  0  0  0  0  0  0  0  0
  -24.9118  -30.3788   14.2205 C   0  0  0  0  0  0  0  0  0  0  0  0
  -29.5877  -12.4126   18.2660 C   0  0  0  0  0  0  0  0  0  0  0  0
  -24.8723  -29.2014   15.1894 C   0  0  0  0  0  0  0  0  0  0  0  0
  -28.1543  -12.1042   18.7024 C   0  0  0  0  0  0  0  0  0  0  0  0
  -30.5072  -12.6345   19.4649 C   0  0  0  0  0  0  0  0  0  0  0  0
  -28.6043  -13.3415   20.8623 C   0  0  0  0  0  0  0  0  0  0  0  0
  -26.0889  -29.2139   16.1228 C   0  0  1  0  0  0  0  0  0  0  0  0
  -28.8274  -27.0964   14.5576 C   0  0  1  0  0  0  0  0  0  0  0  0
  -27.6274  -13.1652   19.6872 C   0  0  2  0  0  0  0  0  0  0  0  0
  -29.9626  -22.2379    8.6323 C   0  0  0  0  0  0  0  0  0  0  0  0
  -25.3218  -24.8105   12.5965 C   0  0  0  0  0  0  0  0  0  0  0  0
  -25.9697  -23.1178   10.8693 C   0  0  0  0  0  0  0  0  0  0  0  0
  -26.1025  -25.5518   10.3391 C   0  0  0  0  0  0  0  0  0  0  0  0
  -32.5996  -23.5168   11.0585 C   0  0  0  0  0  0  0  0  0  0  0  0
  -30.7655  -16.9374   21.9109 C   0  0  0  0  0  0  0  0  0  0  0  0
  -29.8741  -21.2371   18.1499 C   0  0  0  0  0  0  0  0  0  1  0  0
  -27.7965  -24.5323   11.9149 C   0  0  1  0  0  0  0  0  0  0  0  0
  -30.5425  -23.1696    9.6850 C   0  0  2  0  0  0  0  0  0  0  0  0
  -26.3116  -24.5046   11.4547 C   0  0  0  0  0  0  0  0  0  0  0  0
  -25.8558  -11.5553   20.2805 N   0  0  0  0  0  0  0  0  0  0  0  0
  -26.2213  -12.8427   20.1580 N   0  0  0  0  0  0  0  0  0  0  0  0
  -28.6279  -25.8291   13.8516 N   0  0  0  0  0  0  0  0  0  0  0  0
  -29.9511  -13.6533   20.3586 N   0  0  0  0  0  0  0  0  0  0  0  0
  -25.4368  -15.0621   20.4214 N   0  0  0  0  0  0  0  0  0  0  0  0
  -21.8774  -12.5507   21.6127 N   0  0  0  0  0  0  0  0  0  0  0  0
  -27.2612  -28.7214   15.4317 N   0  0  0  0  0  0  0  0  0  0  0  0
  -28.7576  -24.2727   10.8484 N   0  0  0  0  0  0  0  0  0  0  0  0
  -30.1095  -15.7122   21.5115 N   0  0  0  0  0  0  0  0  0  0  0  0
  -31.9025  -22.6802   10.0480 N   0  3  0  0  0  0  0  0  0  0  0  0
  -22.6338  -14.6985   21.3421 O   0  0  0  0  0  0  0  0  0  0  0  0
  -26.9085  -26.4445   15.7691 O   0  0  0  0  0  0  0  0  0  0  0  0
  -28.1089  -26.8824   11.8373 O   0  0  0  0  0  0  0  0  0  0  0  0
  -29.7521  -22.4303   11.8452 O   0  0  0  0  0  0  0  0  0  0  0  0
  -31.8463  -14.9810   20.2054 O   0  0  0  0  0  0  0  0  0  0  0  0
  -21.6520   -6.9848   21.6904 O   0  0  0  0  0  0  0  0  0  0  0  0
  -30.5574  -22.4041   18.6055 O   0  0  0  0  0  0  0  0  0  1  0  0
  -18.6793   -6.7748   26.3297 F   0  0  0  0  0  0  0  0  0  0  0  0
  -28.3195  -18.3425   21.7450 F   0  0  0  0  0  0  0  0  0  0  0  0
  -32.3211  -19.8256   18.3224 F   0  0  0  0  0  0  0  0  0  0  0  0
  -22.1259   -5.0344   23.5915 F   0  0  0  0  0  0  0  0  0  0  0  0
  1  2  1  0  0  0  0
  1  5  2  0  0  0  0
  2  6  2  0  0  0  0
  3  8  2  0  0  0  0
  3 17  1  0  0  0  0
  4  9  1  0  0  0  0
  4 17  2  0  0  0  0
  5 19  1  0  0  0  0
  6 21  1  0  0  0  0
  7 10  2  0  0  0  0
  7 20  1  0  0  0  0
  8 25  1  0  0  0  0
  9 25  2  0  0  0  0
 10 26  1  0  0  0  0
 11 12  2  0  0  0  0
 11 27  1  0  0  0  0
 12 28  1  0  0  0  0
 13 22  1  0  0  0  0
 13 26  2  0  0  0  0
 14 23  2  0  0  0  0
 14 30  1  0  0  0  0
 15 24  1  0  0  0  0
 15 29  2  0  0  0  0
 16 28  2  0  0  0  0
 16 31  1  0  0  0  0
 17 32  1  0  0  0  0
 18 32  1  0  0  0  0
 18 33  2  0  0  0  0
 18 34  1  0  0  0  0
 19 21  2  0  0  0  0
 19 39  1  0  0  0  0
 20 22  2  0  0  0  0
 20 40  1  0  0  0  0
 21 48  1  0  0  0  0
 22 41  1  0  0  0  0
 23 29  1  0  0  0  0
 23 56  1  0  0  0  0
 24 30  2  0  0  0  0
 24 57  1  0  0  0  0
 25 76  1  0  0  0  0
 26 77  1  0  0  0  0
 27 31  2  0  0  0  0
 27 76  1  0  0  0  0
 28 78  1  0  0  0  0
 29 79  1  0  0  0  0
 30 80  1  0  0  0  0
 31 81  1  0  0  0  0
 32 61  2  0  0  0  0
 33 62  1  0  0  0  0
 33 65  1  0  0  0  0
 34 66  1  0  0  0  0
 34 71  2  0  0  0  0
 35 49  1  0  0  0  0
 35 67  1  0  0  0  0
 35 72  2  0  0  0  0
 36 58  1  0  0  0  0
 36 63  1  0  0  0  0
 36 73  2  0  0  0  0
 37 59  1  0  0  0  0
 37 68  1  0  0  0  0
 37 74  2  0  0  0  0
 38 64  1  0  0  0  0
 38 69  1  0  0  0  0
 38 75  2  0  0  0  0
 39 42  1  0  0  0  0
 40 49  1  0  0  0  0
 41 63  1  0  0  0  0
 42 44  1  0  0  0  0
 43 45  1  0  0  0  0
 43 46  1  0  0  0  0
 44 48  1  0  0  0  0
 45 50  1  0  0  0  0
 46 64  1  0  0  0  0
 47 50  1  0  0  0  0
 47 64  1  0  0  0  0
 48 67  1  0  0  0  0
 49 63  1  0  0  0  0
 50 62  1  0  0  0  0
 51 59  1  0  0  0  0
 52 60  1  0  0  0  0
 53 60  1  0  0  0  0
 54 60  1  0  0  0  0
 55 70  1  0  0  0  0
 56 69  1  0  0  0  0
 57 77  1  0  0  0  0
 58 60  1  0  0  0  0
 58 68  1  0  0  0  0
 59 70  1  0  0  0  0
 61 62  1  0  0  0  0
M  CHG  1  70   1
M  ISO  4  38 100  57 101  69 100  77 101
M  END
> <Batch ID>
0029

> <Smiles>
CNC(C)C(=O)NC(C(=O)N1Cc2cc([101O:1][101CH2:1]c3cc(F)c(C[100NH:0][100C:0](=O)N4CCCC(n5nc(-c6ccc(Oc7ccc(F)cc7F)cc6)c(C(N)=O)c5N)C4)cc3F)ccc2CC1C(=O)NC1CCCc2ccccc21)C(C)(C)C

> <Shape>
0.226

> <Color>
0.201

> <Negative vol penalty>
0.000

$$$$

  -OEChem-04052316363D

 86 94  0     1  0  0  0  0  0999 V2000
  -28.9991  -23.1090    7.7516 C   0  0  0  0  0  0  0  0  0  0  0  0
  -28.6861  -22.2864    8.8290 C   0  0  0  0  0  0  0  0  0  0  0  0
  -22.9599   -9.8456   20.1092 C   0  0  0  0  0  0  0  0  0  0  0  0
  -23.6587  -10.0654   22.4115 C   0  0  0  0  0  0  0  0  0  0  0  0
  -30.0526  -24.0168    7.8521 C   0  0  0  0  0  0  0  0  0  0  0  0
  -29.4272  -22.3703   10.0072 C   0  0  0  0  0  0  0  0  0  0  0  0
  -27.3539  -21.6247   15.7213 C   0  0  0  0  0  0  0  0  0  0  0  0
  -22.1779   -8.7426   20.4518 C   0  0  0  0  0  0  0  0  0  0  0  0
  -22.8767   -8.9623   22.7541 C   0  0  0  0  0  0  0  0  0  0  0  0
  -27.3811  -20.5383   16.5947 C   0  0  0  0  0  0  0  0  0  0  0  0
  -23.0898   -5.5948   22.5416 C   0  0  0  0  0  0  0  0  0  0  0  0
  -23.6574   -4.6323   23.3765 C   0  0  0  0  0  0  0  0  0  0  0  0
  -29.3724  -21.4258   17.6272 C   0  0  0  0  0  0  0  0  0  0  0  0
  -21.9169   -5.0199   25.0067 C   0  0  0  0  0  0  0  0  0  0  0  0
  -23.7003  -10.5070   21.0891 C   0  0  0  0  0  0  0  0  0  0  0  0
  -24.1153  -12.9978   20.7263 C   0  0  0  0  0  0  0  0  0  0  0  0
  -30.8008  -24.1187    9.0355 C   0  0  0  0  0  0  0  0  0  0  0  0
  -28.3437  -22.6159   15.7873 C   0  0  0  0  0  0  0  0  0  0  0  0
  -30.4925  -23.2794   10.1232 C   0  0  0  0  0  0  0  0  0  0  0  0
  -29.3541  -22.5251   16.7552 C   0  0  0  0  0  0  0  0  0  0  0  0
  -31.0561  -17.4576   19.1389 C   0  0  0  0  0  0  0  0  0  0  0  0
  -32.4116  -17.4902   18.8115 C   0  0  0  0  0  0  0  0  0  0  0  0
  -30.1220  -17.0213   18.1993 C   0  0  0  0  0  0  0  0  0  0  0  0
  -31.8989  -16.6503   16.6050 C   0  0  0  0  0  0  0  0  0  0  0  0
  -22.1363   -8.3009   21.7743 C   0  0  0  0  0  0  0  0  0  0  0  0
  -28.3920  -20.4372   17.5459 C   0  0  0  0  0  0  0  0  0  0  0  0
  -21.9358   -6.2700   22.9393 C   0  0  0  0  0  0  0  0  0  0  0  0
  -23.0709   -4.3448   24.6090 C   0  0  0  0  0  0  0  0  0  0  0  0
  -21.3493   -5.9825   24.1718 C   0  0  0  0  0  0  0  0  0  0  0  0
  -32.8330  -17.0866   17.5446 C   0  0  0  0  0  0  0  0  0  0  0  0
  -30.5434  -16.6177   16.9323 C   0  0  0  0  0  0  0  0  0  0  0  0
  -24.5088  -11.6461   20.7357 C   0  0  0  0  0  0  0  0  0  0  0  0
  -25.2371  -13.6792   20.3216 C   0  0  0  0  0  0  0  0  0  0  0  0
  -22.8490  -13.5849   21.0542 C   0  0  0  0  0  0  0  0  0  0  0  0
  -30.5695  -23.6993   13.7934 C   0  0  0  0  0  0  0  0  0  0  0  0
  -31.0327  -25.9040   16.1274 C   0  0  0  0  0  0  0  0  0  0  0  0
  -30.7463  -26.7362   19.4247 C   0  0  0  0  0  0  0  0  0  0  0  0
  -30.7401  -14.5747   20.5665 C   0  0  0  0  0  0  0  0  0  0  0  0
  -31.9605  -25.0818    9.0805 C   0  0  0  0  0  0  0  0  0  0  0  0
  -28.2851  -23.7952   14.8556 C   0  0  0  0  0  0  0  0  0  0  0  0
  -30.4287  -23.5730   16.8806 C   0  0  0  0  0  0  0  0  0  0  0  0
  -32.4574  -25.3713   10.4946 C   0  0  0  0  0  0  0  0  0  0  0  0
  -29.6003  -11.9904   18.3989 C   0  0  0  0  0  0  0  0  0  0  0  0
  -32.6056  -24.0747   11.2843 C   0  0  0  0  0  0  0  0  0  0  0  0
  -28.1442  -11.7779   18.8170 C   0  0  0  0  0  0  0  0  0  0  0  0
  -30.4911  -12.3085   19.5978 C   0  0  0  0  0  0  0  0  0  0  0  0
  -28.5743  -13.2232   20.8480 C   0  0  0  0  0  0  0  0  0  0  0  0
  -31.2573  -23.3583   11.4266 C   0  0  1  0  0  0  0  0  0  0  0  0
  -29.6358  -24.4808   14.6738 C   0  0  1  0  0  0  0  0  0  0  0  0
  -27.6272  -12.9549   19.6660 C   0  0  2  0  0  0  0  0  0  0  0  0
  -32.3493  -16.2173   15.2503 C   0  0  0  0  0  0  0  0  0  0  0  0
  -34.2412  -19.1380   19.2842 C   0  0  0  0  0  0  0  0  0  0  0  0
  -31.2461  -28.5917   21.0386 C   0  0  0  0  0  0  0  0  0  0  0  0
  -33.9838  -25.1294   16.1002 C   0  0  0  0  0  0  0  0  0  0  0  0
  -34.2338  -26.2777   18.3109 C   0  0  0  0  0  0  0  0  0  0  0  0
  -33.5515  -27.5846   16.2987 C   0  0  0  0  0  0  0  0  0  0  0  0
  -27.8859  -27.0692   20.1074 C   0  0  0  0  0  0  0  0  0  0  0  0
  -30.6050  -17.8929   20.4970 C   0  0  0  0  0  0  0  0  0  0  0  0
  -33.4289  -17.9551   19.8019 C   0  0  0  0  0  0  0  0  0  0  0  0
  -28.6504  -16.9772   18.5324 C   0  0  0  0  0  0  0  0  0  0  0  0
  -30.8329  -16.8370   21.5828 C   0  0  0  0  0  0  0  0  0  0  0  0
  -27.8827  -18.1450   17.9227 C   0  0  0  0  0  0  0  0  0  1  0  0
  -31.9008  -25.9903   17.3594 C   0  0  1  0  0  0  0  0  0  0  0  0
  -30.2107  -27.9825   20.1061 C   0  0  2  0  0  0  0  0  0  0  0  0
  -33.3985  -26.2246   17.0139 C   0  0  0  0  0  0  0  0  0  0  0  0
  -25.7811  -11.4770   20.3661 N   0  0  0  0  0  0  0  0  0  0  0  0
  -26.1968  -12.7312   20.1207 N   0  0  0  0  0  0  0  0  0  0  0  0
  -30.3318  -24.7038   15.9427 N   0  0  0  0  0  0  0  0  0  0  0  0
  -29.9460  -13.4347   20.3597 N   0  0  0  0  0  0  0  0  0  0  0  0
  -25.4862  -14.9908   20.1216 N   0  0  0  0  0  0  0  0  0  0  0  0
  -21.8036  -12.7400   21.4513 N   0  0  0  0  0  0  0  0  0  0  0  0
  -30.4528  -23.9935   12.4483 N   0  0  0  0  0  0  0  0  0  0  0  0
  -31.3126  -27.0264   18.2014 N   0  0  0  0  0  0  0  0  0  0  0  0
  -30.1449  -15.5986   21.2933 N   0  0  0  0  0  0  0  0  0  0  0  0
  -28.9950  -27.6550   20.9035 N   0  3  0  0  0  0  0  0  0  0  0  0
  -22.6456  -14.8205   20.9808 O   0  0  0  0  0  0  0  0  0  0  0  0
  -31.3400  -22.8905   14.2973 O   0  0  0  0  0  0  0  0  0  0  0  0
  -30.9729  -26.8686   15.3609 O   0  0  0  0  0  0  0  0  0  0  0  0
  -30.6732  -25.6178   19.9288 O   0  0  0  0  0  0  0  0  0  0  0  0
  -31.8921  -14.6750   20.1309 O   0  0  0  0  0  0  0  0  0  0  0  0
  -21.3731   -7.2248   22.1090 O   0  0  0  0  0  0  0  0  0  0  0  0
  -28.4213  -19.3775   18.3992 O   0  0  0  0  0  0  0  0  0  1  0  0
  -23.6151   -3.4193   25.4099 F   0  0  0  0  0  0  0  0  0  0  0  0
  -20.2400   -6.6270   24.5588 F   0  0  0  0  0  0  0  0  0  0  0  0
  -34.1362  -17.1177   17.2284 F   0  0  0  0  0  0  0  0  0  0  0  0
  -29.6455  -16.1983   16.0283 F   0  0  0  0  0  0  0  0  0  0  0  0
  1  2  1  0  0  0  0
  1  5  2  0  0  0  0
  2  6  2  0  0  0  0
  3  8  2  0  0  0  0
  3 15  1  0  0  0  0
  4  9  1  0  0  0  0
  4 15  2  0  0  0  0
  5 17  1  0  0  0  0
  6 19  1  0  0  0  0
  7 10  2  0  0  0  0
  7 18  1  0  0  0  0
  8 25  1  0  0  0  0
  9 25  2  0  0  0  0
 10 26  1  0  0  0  0
 11 12  2  0  0  0  0
 11 27  1  0  0  0  0
 12 28  1  0  0  0  0
 13 20  1  0  0  0  0
 13 26  2  0  0  0  0
 14 28  2  0  0  0  0
 14 29  1  0  0  0  0
 15 32  1  0  0  0  0
 16 32  1  0  0  0  0
 16 33  2  0  0  0  0
 16 34  1  0  0  0  0
 17 19  2  0  0  0  0
 17 39  1  0  0  0  0
 18 20  2  0  0  0  0
 18 40  1  0  0  0  0
 19 48  1  0  0  0  0
 20 41  1  0  0  0  0
 21 22  2  0  0  0  0
 21 23  1  0  0  0  0
 21 58  1  0  0  0  0
 22 30  1  0  0  0  0
 22 59  1  0  0  0  0
 23 31  2  0  0  0  0
 23 60  1  0  0  0  0
 24 30  2  0  0  0  0
 24 31  1  0  0  0  0
 24 51  1  0  0  0  0
 25 81  1  0  0  0  0
 26 82  1  0  0  0  0
 27 29  2  0  0  0  0
 27 81  1  0  0  0  0
 28 83  1  0  0  0  0
 29 84  1  0  0  0  0
 30 85  1  0  0  0  0
 31 86  1  0  0  0  0
 32 66  2  0  0  0  0
 33 67  1  0  0  0  0
 33 70  1  0  0  0  0
 34 71  1  0  0  0  0
 34 76  2  0  0  0  0
 35 49  1  0  0  0  0
 35 72  1  0  0  0  0
 35 77  2  0  0  0  0
 36 63  1  0  0  0  0
 36 68  1  0  0  0  0
 36 78  2  0  0  0  0
 37 64  1  0  0  0  0
 37 73  1  0  0  0  0
 37 79  2  0  0  0  0
 38 69  1  0  0  0  0
 38 74  1  0  0  0  0
 38 80  2  0  0  0  0
 39 42  1  0  0  0  0
 40 49  1  0  0  0  0
 41 68  1  0  0  0  0
 42 44  1  0  0  0  0
 43 45  1  0  0  0  0
 43 46  1  0  0  0  0
 44 48  1  0  0  0  0
 45 50  1  0  0  0  0
 46 69  1  0  0  0  0
 47 50  1  0  0  0  0
 47 69  1  0  0  0  0
 48 72  1  0  0  0  0
 49 68  1  0  0  0  0
 50 67  1  0  0  0  0
 52 59  1  0  0  0  0
 53 64  1  0  0  0  0
 54 65  1  0  0  0  0
 55 65  1  0  0  0  0
 56 65  1  0  0  0  0
 57 75  1  0  0  0  0
 58 61  1  0  0  0  0
 60 62  1  0  0  0  0
 61 74  1  0  0  0  0
 62 82  1  0  0  0  0
 63 65  1  0  0  0  0
 63 73  1  0  0  0  0
 64 75  1  0  0  0  0
 66 67  1  0  0  0  0
M  CHG  1  75   1
M  ISO  4  38 100  62 101  74 100  82 101
M  END
> <Batch ID>
0029

> <Smiles>
CCc1c(F)c(C)c(F)c(C[101CH2:1][101O:1]c2ccc3c(c2)CN(C(=O)C(NC(=O)C(C)NC)C(C)(C)C)C(C(=O)NC2CCCc4ccccc42)C3)c1CC[100NH:0][100C:0](=O)N1CCCC(n2nc(-c3ccc(Oc4ccc(F)cc4F)cc3)c(C(N)=O)c2N)C1

> <Shape>
0.243

> <Color>
0.212

> <Negative vol penalty>
0.000

$$$$

  -OEChem-04052316363D

 88 97  0     1  0  0  0  0  0999 V2000
  -22.5765  -39.5032   22.4532 C   0  0  0  0  0  0  0  0  0  0  0  0
  -22.2146  -38.3624   21.7441 C   0  0  0  0  0  0  0  0  0  0  0  0
  -24.1953   -8.6485   21.1166 C   0  0  0  0  0  0  0  0  0  0  0  0
  -24.9024   -9.9904   22.9971 C   0  0  0  0  0  0  0  0  0  0  0  0
  -23.8556  -39.6073   22.9983 C   0  0  0  0  0  0  0  0  0  0  0  0
  -23.1319  -37.3253   21.5787 C   0  0  0  0  0  0  0  0  0  0  0  0
  -23.4522  -30.1904   21.0253 C   0  0  0  0  0  0  0  0  0  0  0  0
  -23.8409   -7.6169   21.9859 C   0  0  0  0  0  0  0  0  0  0  0  0
  -24.5480   -8.9587   23.8665 C   0  0  0  0  0  0  0  0  0  0  0  0
  -23.9715  -29.1966   20.1968 C   0  0  0  0  0  0  0  0  0  0  0  0
  -21.2723   -6.8758   24.0562 C   0  0  0  0  0  0  0  0  0  0  0  0
  -20.0460   -6.2448   23.8475 C   0  0  0  0  0  0  0  0  0  0  0  0
  -26.1265  -29.4528   21.2502 C   0  0  0  0  0  0  0  0  0  0  0  0
  -30.1396  -18.8611   21.1281 C   0  0  0  0  0  0  0  0  0  0  0  0
  -27.4439  -19.5694   21.2451 C   0  0  0  0  0  0  0  0  0  0  0  0
  -21.1844   -4.1377   23.5294 C   0  0  0  0  0  0  0  0  0  0  0  0
  -24.7261   -9.8352   21.6222 C   0  0  0  0  0  0  0  0  0  0  0  0
  -24.2495  -11.5880   19.8310 C   0  0  0  0  0  0  0  0  0  0  0  0
  -24.7859  -38.5669   22.8477 C   0  0  0  0  0  0  0  0  0  0  0  0
  -24.2703  -30.8316   21.9666 C   0  0  0  0  0  0  0  0  0  0  0  0
  -24.4251  -37.4161   22.1211 C   0  0  0  0  0  0  0  0  0  0  0  0
  -25.6145  -30.4526   22.0912 C   0  0  0  0  0  0  0  0  0  0  0  0
  -29.2428  -18.0749   21.8514 C   0  0  0  0  0  0  0  0  0  0  0  0
  -28.3408  -20.3556   20.5219 C   0  0  0  0  0  0  0  0  0  0  0  0
  -24.0172   -7.7720   23.3609 C   0  0  0  0  0  0  0  0  0  0  0  0
  -25.3095  -28.8296   20.3071 C   0  0  0  0  0  0  0  0  0  0  0  0
  -22.4547   -6.1378   24.0013 C   0  0  0  0  0  0  0  0  0  0  0  0
  -20.0020   -4.8757   23.5842 C   0  0  0  0  0  0  0  0  0  0  0  0
  -22.4107   -4.7688   23.7380 C   0  0  0  0  0  0  0  0  0  0  0  0
  -27.8949  -18.4291   21.9099 C   0  0  0  0  0  0  0  0  0  0  0  0
  -29.6887  -20.0015   20.4634 C   0  0  0  0  0  0  0  0  0  0  0  0
  -25.0929  -10.9010   20.7246 C   0  0  0  0  0  0  0  0  0  0  0  0
  -25.0721  -12.4982   19.2134 C   0  0  0  0  0  0  0  0  0  0  0  0
  -22.8477  -11.4187   19.5816 C   0  0  0  0  0  0  0  0  0  0  0  0
  -25.2351  -33.8244   22.4311 C   0  0  0  0  0  0  0  0  0  0  0  0
  -26.5129  -32.5796   25.1404 C   0  0  0  0  0  0  0  0  0  0  0  0
  -27.6888  -29.8355   26.7938 C   0  0  0  0  0  0  0  0  0  0  0  0
  -30.2056  -15.1157   20.8402 C   0  0  0  0  0  0  0  0  0  0  0  0
  -26.1722  -38.7450   23.4144 C   0  0  0  0  0  0  0  0  0  0  0  0
  -23.6882  -31.8829   22.8712 C   0  0  0  0  0  0  0  0  0  0  0  0
  -26.5296  -31.0961   23.0997 C   0  0  0  0  0  0  0  0  0  0  0  0
  -26.9614  -37.4421   23.5144 C   0  0  0  0  0  0  0  0  0  0  0  0
  -29.6332  -13.1525   17.9256 C   0  0  0  0  0  0  0  0  0  0  0  0
  -26.8420  -36.6449   22.2195 C   0  0  0  0  0  0  0  0  0  0  0  0
  -28.3286  -12.4148   18.2318 C   0  0  0  0  0  0  0  0  0  0  0  0
  -26.1453  -24.1889   20.2381 C   0  0  0  0  0  0  0  0  0  0  0  0
  -28.4332  -25.2743   20.3286 C   0  0  0  0  0  0  0  0  0  0  0  0
  -25.5561  -25.4845   19.6856 C   0  0  0  0  0  0  0  0  0  0  0  0
  -27.8385  -26.5675   19.7763 C   0  0  0  0  0  0  0  0  0  0  0  0
  -30.5003  -13.3072   19.1731 C   0  0  0  0  0  0  0  0  0  0  0  0
  -28.5172  -13.1915   20.6318 C   0  0  0  0  0  0  0  0  0  0  0  0
  -25.3840  -36.2593   21.9414 C   0  0  1  0  0  0  0  0  0  0  0  0
  -24.7401  -32.8290   23.4420 C   0  0  1  0  0  0  0  0  0  0  0  0
  -27.5841  -13.0604   19.4159 C   0  0  2  0  0  0  0  0  0  0  0  0
  -27.6222  -24.0642   19.8696 C   0  0  0  0  0  0  0  0  0  0  0  0
  -26.3582  -26.7056   20.1334 C   0  0  0  0  0  0  0  0  0  1  0  0
  -28.7018  -29.1376   28.9811 C   0  0  0  0  0  0  0  0  0  0  0  0
  -29.1828  -33.7841   24.2854 C   0  0  0  0  0  0  0  0  0  0  0  0
  -30.3099  -32.2913   25.9495 C   0  0  0  0  0  0  0  0  0  0  0  0
  -28.6713  -34.0057   26.7233 C   0  0  0  0  0  0  0  0  0  0  0  0
  -25.4377  -28.0076   27.3859 C   0  0  0  0  0  0  0  0  0  0  0  0
  -29.7661  -16.8610   22.5489 C   0  0  0  0  0  0  0  0  0  0  0  0
  -27.8168  -21.5745   19.8214 C   0  0  0  0  0  0  0  0  0  0  0  0
  -27.8358  -31.9521   25.5082 C   0  0  1  0  0  0  0  0  0  0  0  0
  -27.4141  -29.3062   28.1898 C   0  0  2  0  0  0  0  0  0  0  0  0
  -28.9834  -32.9973   25.5962 C   0  0  0  0  0  0  0  0  0  0  0  0
  -26.3546  -11.3373   20.6815 N   0  0  0  0  0  0  0  0  0  0  0  0
  -26.3100  -12.3081   19.7533 N   0  0  0  0  0  0  0  0  0  0  0  0
  -25.9152  -32.1232   23.9571 N   0  0  0  0  0  0  0  0  0  0  0  0
  -29.7355  -13.9270   20.2580 N   0  0  0  0  0  0  0  0  0  0  0  0
  -24.8500  -13.4344   18.2665 N   0  0  0  0  0  0  0  0  0  0  0  0
  -22.1544  -10.4378   20.3038 N   0  0  0  0  0  0  0  0  0  0  0  0
  -24.9900  -35.1411   22.7713 N   0  0  0  0  0  0  0  0  0  0  0  0
  -27.6065  -31.2110   26.7437 N   0  0  0  0  0  0  0  0  0  0  0  0
  -29.4175  -15.6399   21.8574 N   0  0  0  0  0  0  0  0  0  0  0  0
  -28.1766  -22.8422   20.5103 N   0  3  0  0  0  0  0  0  0  0  0  0
  -26.7306  -27.9839   28.1173 N   0  3  0  0  0  0  0  0  0  0  0  0
  -22.2319  -12.1053   18.7315 O   0  0  0  0  0  0  0  0  0  0  0  0
  -25.7991  -33.4273   21.4182 O   0  0  0  0  0  0  0  0  0  0  0  0
  -26.0244  -33.4378   25.8796 O   0  0  0  0  0  0  0  0  0  0  0  0
  -27.9539  -29.1023   25.8437 O   0  0  0  0  0  0  0  0  0  0  0  0
  -31.2476  -15.6716   20.4766 O   0  0  0  0  0  0  0  0  0  0  0  0
  -23.6713   -6.7656   24.2095 O   0  0  0  0  0  0  0  0  0  0  0  0
  -25.8191  -27.8604   19.4992 O   0  0  0  0  0  0  0  0  0  1  0  0
  -18.8242   -4.2696   23.3854 F   0  0  0  0  0  0  0  0  0  0  0  0
  -23.5432   -4.0543   23.6853 F   0  0  0  0  0  0  0  0  0  0  0  0
  -26.7565  -17.4795   22.7939 Cl  0  0  0  0  0  0  0  0  0  0  0  0
  -30.8272  -20.9501   19.5784 Cl  0  0  0  0  0  0  0  0  0  0  0  0
  1  2  1  0  0  0  0
  1  5  2  0  0  0  0
  2  6  2  0  0  0  0
  3  8  2  0  0  0  0
  3 17  1  0  0  0  0
  4  9  1  0  0  0  0
  4 17  2  0  0  0  0
  5 19  1  0  0  0  0
  6 21  1  0  0  0  0
  7 10  2  0  0  0  0
  7 20  1  0  0  0  0
  8 25  1  0  0  0  0
  9 25  2  0  0  0  0
 10 26  1  0  0  0  0
 11 12  2  0  0  0  0
 11 27  1  0  0  0  0
 12 28  1  0  0  0  0
 13 22  1  0  0  0  0
 13 26  2  0  0  0  0
 14 23  2  0  0  0  0
 14 31  1  0  0  0  0
 15 24  1  0  0  0  0
 15 30  2  0  0  0  0
 16 28  2  0  0  0  0
 16 29  1  0  0  0  0
 17 32  1  0  0  0  0
 18 32  1  0  0  0  0
 18 33  2  0  0  0  0
 18 34  1  0  0  0  0
 19 21  2  0  0  0  0
 19 39  1  0  0  0  0
 20 22  2  0  0  0  0
 20 40  1  0  0  0  0
 21 52  1  0  0  0  0
 22 41  1  0  0  0  0
 23 30  1  0  0  0  0
 23 62  1  0  0  0  0
 24 31  2  0  0  0  0
 24 63  1  0  0  0  0
 25 83  1  0  0  0  0
 26 84  1  0  0  0  0
 27 29  2  0  0  0  0
 27 83  1  0  0  0  0
 28 85  1  0  0  0  0
 29 86  1  0  0  0  0
 30 87  1  0  0  0  0
 31 88  1  0  0  0  0
 32 67  2  0  0  0  0
 33 68  1  0  0  0  0
 33 71  1  0  0  0  0
 34 72  1  0  0  0  0
 34 78  2  0  0  0  0
 35 53  1  0  0  0  0
 35 73  1  0  0  0  0
 35 79  2  0  0  0  0
 36 64  1  0  0  0  0
 36 69  1  0  0  0  0
 36 80  2  0  0  0  0
 37 65  1  0  0  0  0
 37 74  1  0  0  0  0
 37 81  2  0  0  0  0
 38 70  1  0  0  0  0
 38 75  1  0  0  0  0
 38 82  2  0  0  0  0
 39 42  1  0  0  0  0
 40 53  1  0  0  0  0
 41 69  1  0  0  0  0
 42 44  1  0  0  0  0
 43 45  1  0  0  0  0
 43 50  1  0  0  0  0
 44 52  1  0  0  0  0
 45 54  1  0  0  0  0
 46 48  1  0  0  0  0
 46 55  1  0  0  0  0
 47 49  1  0  0  0  0
 47 55  1  0  0  0  0
 48 56  1  0  0  0  0
 49 56  1  0  0  0  0
 50 70  1  0  0  0  0
 51 54  1  0  0  0  0
 51 70  1  0  0  0  0
 52 73  1  0  0  0  0
 53 69  1  0  0  0  0
 54 68  1  0  0  0  0
 55 76  1  0  0  0  0
 56 84  1  0  0  0  0
 57 65  1  0  0  0  0
 58 66  1  0  0  0  0
 59 66  1  0  0  0  0
 60 66  1  0  0  0  0
 61 77  1  0  0  0  0
 62 75  1  0  0  0  0
 63 76  1  0  0  0  0
 64 66  1  0  0  0  0
 64 74  1  0  0  0  0
 65 77  1  0  0  0  0
 67 68  1  0  0  0  0
M  CHG  2  76   1  77   1
M  ISO  4  38 100  56 101  75 100  84 101
M  END
> <Batch ID>
0029

> <Smiles>
CNC(C)C(=O)NC(C(=O)N1Cc2cc([101O:1][101CH:1]3CCC(NCc4cc(Cl)c(C[100NH:0][100C:0](=O)N5CCCC(n6nc(-c7ccc(Oc8ccc(F)cc8F)cc7)c(C(N)=O)c6N)C5)cc4Cl)CC3)ccc2CC1C(=O)NC1CCCc2ccccc21)C(C)(C)C

> <Shape>
0.348

> <Color>
0.070

> <Negative vol penalty>
0.000

$$$$

  -OEChem-04052316363D

 86 94  0     1  0  0  0  0  0999 V2000
  -18.4985  -24.2813   22.7108 C   0  0  0  0  0  0  0  0  0  0  0  0
  -19.6480  -24.4017   21.9365 C   0  0  0  0  0  0  0  0  0  0  0  0
  -25.3053  -11.7727   23.6199 C   0  0  0  0  0  0  0  0  0  0  0  0
  -24.4948  -13.5795   25.0040 C   0  0  0  0  0  0  0  0  0  0  0  0
  -17.8541  -25.4243   23.1822 C   0  0  0  0  0  0  0  0  0  0  0  0
  -20.1532  -25.6653   21.6322 C   0  0  0  0  0  0  0  0  0  0  0  0
  -25.1760  -25.9416   22.2152 C   0  0  0  0  0  0  0  0  0  0  0  0
  -25.0573  -10.8696   24.6537 C   0  0  0  0  0  0  0  0  0  0  0  0
  -24.2468  -12.6764   26.0377 C   0  0  0  0  0  0  0  0  0  0  0  0
  -25.9653  -25.3911   21.2064 C   0  0  0  0  0  0  0  0  0  0  0  0
  -22.3899   -9.2628   25.9713 C   0  0  0  0  0  0  0  0  0  0  0  0
  -21.7578   -8.0628   25.6460 C   0  0  0  0  0  0  0  0  0  0  0  0
  -26.3218  -27.5943   20.2912 C   0  0  0  0  0  0  0  0  0  0  0  0
  -30.0480  -23.1549   16.0116 C   0  0  0  0  0  0  0  0  0  0  0  0
  -23.6655   -6.8334   26.4746 C   0  0  0  0  0  0  0  0  0  0  0  0
  -25.0241  -13.1276   23.7951 C   0  0  0  0  0  0  0  0  0  0  0  0
  -24.3938  -14.4472   21.7049 C   0  0  0  0  0  0  0  0  0  0  0  0
  -18.3570  -26.7023   22.8916 C   0  0  0  0  0  0  0  0  0  0  0  0
  -24.9443  -27.3238   22.2633 C   0  0  0  0  0  0  0  0  0  0  0  0
  -19.5141  -26.8265   22.0990 C   0  0  0  0  0  0  0  0  0  0  0  0
  -25.5312  -28.1602   21.3031 C   0  0  0  0  0  0  0  0  0  0  0  0
  -30.5102  -24.0303   16.9942 C   0  0  0  0  0  0  0  0  0  0  0  0
  -28.7536  -22.6409   16.0884 C   0  0  0  0  0  0  0  0  0  0  0  0
  -29.6780  -24.3917   18.0537 C   0  0  0  0  0  0  0  0  0  0  0  0
  -27.9213  -23.0023   17.1478 C   0  0  0  0  0  0  0  0  0  0  0  0
  -28.3835  -23.8777   18.1305 C   0  0  0  0  0  0  0  0  0  0  0  0
  -24.5281  -11.3214   25.8625 C   0  0  0  0  0  0  0  0  0  0  0  0
  -26.5360  -26.2171   20.2426 C   0  0  0  0  0  0  0  0  0  0  0  0
  -23.6599   -9.2482   26.5482 C   0  0  0  0  0  0  0  0  0  0  0  0
  -22.3956   -6.8480   25.8977 C   0  0  0  0  0  0  0  0  0  0  0  0
  -24.2976   -8.0335   26.7999 C   0  0  0  0  0  0  0  0  0  0  0  0
  -25.2805  -14.0611   22.7279 C   0  0  0  0  0  0  0  0  0  0  0  0
  -25.1090  -15.3460   20.9518 C   0  0  0  0  0  0  0  0  0  0  0  0
  -23.0444  -14.0308   21.4575 C   0  0  0  0  0  0  0  0  0  0  0  0
  -22.3671  -29.1743   22.0700 C   0  0  0  0  0  0  0  0  0  0  0  0
  -24.4826  -31.5280   22.7818 C   0  0  0  0  0  0  0  0  0  0  0  0
  -27.7161  -32.6196   22.7654 C   0  0  0  0  0  0  0  0  0  0  0  0
  -28.5415  -19.7296   20.5672 C   0  0  0  0  0  0  0  0  0  0  0  0
  -17.5992  -27.9098   23.3837 C   0  0  0  0  0  0  0  0  0  0  0  0
  -24.1124  -27.9050   23.3734 C   0  0  0  0  0  0  0  0  0  0  0  0
  -25.3299  -29.6527   21.3221 C   0  0  0  0  0  0  0  0  0  0  0  0
  -18.4107  -29.2016   23.3302 C   0  0  0  0  0  0  0  0  0  0  0  0
  -30.0270  -16.5267   21.0269 C   0  0  0  0  0  0  0  0  0  0  0  0
  -19.1190  -29.3318   21.9855 C   0  0  0  0  0  0  0  0  0  0  0  0
  -28.8530  -15.6337   21.4319 C   0  0  0  0  0  0  0  0  0  0  0  0
  -29.8930  -17.9328   21.6072 C   0  0  0  0  0  0  0  0  0  0  0  0
  -27.4407  -17.7130   21.7153 C   0  0  0  0  0  0  0  0  0  0  0  0
  -20.1067  -28.1791   21.7683 C   0  0  1  0  0  0  0  0  0  0  0  0
  -23.5219  -29.2683   23.0267 C   0  0  1  0  0  0  0  0  0  0  0  0
  -27.5029  -16.3012   21.1078 C   0  0  2  0  0  0  0  0  0  0  0  0
  -31.9006  -24.5660   16.8888 C   0  0  0  0  0  0  0  0  0  0  0  0
  -28.2828  -21.7060   15.0227 C   0  0  0  0  0  0  0  0  0  0  0  0
  -30.1761  -25.3310   19.1062 C   0  0  0  0  0  0  0  0  0  0  0  0
  -29.1295  -34.6007   23.3777 C   0  0  0  0  0  0  0  0  0  0  0  0
  -23.4835  -33.0033   20.3049 C   0  0  0  0  0  0  0  0  0  0  0  0
  -25.5239  -34.4489   20.4284 C   0  0  0  0  0  0  0  0  0  0  0  0
  -23.8746  -34.4600   22.2998 C   0  0  0  0  0  0  0  0  0  0  0  0
  -24.7776  -21.1527   18.5637 C   0  0  0  0  0  0  0  0  0  0  0  0
  -26.7066  -19.9534   17.5467 C   0  0  0  0  0  0  0  0  0  0  0  0
  -29.2946  -31.0396   24.7073 C   0  0  0  0  0  0  0  0  0  0  0  0
  -26.5338  -22.4488   17.2280 C   0  0  0  0  0  0  0  0  0  0  0  0
  -27.4881  -24.2669   19.2698 C   0  0  0  0  0  0  0  0  0  1  0  0
  -27.0542  -21.4412   19.5584 C   0  0  0  0  0  0  0  0  0  0  0  0
  -25.3700  -32.4471   21.9775 C   0  0  1  0  0  0  0  0  0  0  0  0
  -28.5661  -33.2672   23.8436 C   0  0  2  0  0  0  0  0  0  0  0  0
  -24.5654  -33.5615   21.2509 C   0  0  0  0  0  0  0  0  0  0  0  0
  -26.2788  -21.2727   18.2299 C   0  0  0  0  0  0  0  0  0  0  0  0
  -26.4683  -14.6650   22.6359 N   0  0  0  0  0  0  0  0  0  0  0  0
  -26.3330  -15.4397   21.5461 N   0  0  0  0  0  0  0  0  0  0  0  0
  -24.5033  -30.1726   22.4239 N   0  0  0  0  0  0  0  0  0  0  0  0
  -28.5915  -18.5101   21.2625 N   0  0  0  0  0  0  0  0  0  0  0  0
  -24.8040  -16.0574   19.8457 N   0  0  0  0  0  0  0  0  0  0  0  0
  -22.4617  -13.1007   22.3292 N   0  0  0  0  0  0  0  0  0  0  0  0
  -21.3178  -28.4011   22.5289 N   0  0  0  0  0  0  0  0  0  0  0  0
  -26.3834  -32.9468   22.9004 N   0  0  0  0  0  0  0  0  0  0  0  0
  -27.2685  -20.2033   20.2743 N   0  0  0  0  0  0  0  0  0  0  0  0
  -29.7046  -32.3779   24.2095 N   0  3  0  0  0  0  0  0  0  0  0  0
  -22.3806  -14.4580   20.4826 O   0  0  0  0  0  0  0  0  0  0  0  0
  -22.4233  -29.7610   20.9956 O   0  0  0  0  0  0  0  0  0  0  0  0
  -23.8018  -31.9945   23.6987 O   0  0  0  0  0  0  0  0  0  0  0  0
  -28.1877  -31.8988   21.8887 O   0  0  0  0  0  0  0  0  0  0  0  0
  -29.5563  -20.3476   20.2276 O   0  0  0  0  0  0  0  0  0  0  0  0
  -24.2858  -10.4405   26.8714 O   0  0  0  0  0  0  0  0  0  0  0  0
  -27.3063  -25.6822   19.2565 O   0  0  0  0  0  0  0  0  0  1  0  0
  -21.7878   -5.6956   25.5866 F   0  0  0  0  0  0  0  0  0  0  0  0
  -25.5171   -8.0130   27.3550 F   0  0  0  0  0  0  0  0  0  0  0  0
  1  2  1  0  0  0  0
  1  5  2  0  0  0  0
  2  6  2  0  0  0  0
  3  8  2  0  0  0  0
  3 16  1  0  0  0  0
  4  9  1  0  0  0  0
  4 16  2  0  0  0  0
  5 18  1  0  0  0  0
  6 20  1  0  0  0  0
  7 10  2  0  0  0  0
  7 19  1  0  0  0  0
  8 27  1  0  0  0  0
  9 27  2  0  0  0  0
 10 28  1  0  0  0  0
 11 12  2  0  0  0  0
 11 29  1  0  0  0  0
 12 30  1  0  0  0  0
 13 21  1  0  0  0  0
 13 28  2  0  0  0  0
 14 22  1  0  0  0  0
 14 23  2  0  0  0  0
 15 30  2  0  0  0  0
 15 31  1  0  0  0  0
 16 32  1  0  0  0  0
 17 32  1  0  0  0  0
 17 33  2  0  0  0  0
 17 34  1  0  0  0  0
 18 20  2  0  0  0  0
 18 39  1  0  0  0  0
 19 21  2  0  0  0  0
 19 40  1  0  0  0  0
 20 48  1  0  0  0  0
 21 41  1  0  0  0  0
 22 24  2  0  0  0  0
 22 51  1  0  0  0  0
 23 25  1  0  0  0  0
 23 52  1  0  0  0  0
 24 26  1  0  0  0  0
 24 53  1  0  0  0  0
 25 26  2  0  0  0  0
 25 61  1  0  0  0  0
 26 62  1  0  0  0  0
 27 83  1  0  0  0  0
 28 84  1  0  0  0  0
 29 31  2  0  0  0  0
 29 83  1  0  0  0  0
 30 85  1  0  0  0  0
 31 86  1  0  0  0  0
 32 68  2  0  0  0  0
 33 69  1  0  0  0  0
 33 72  1  0  0  0  0
 34 73  1  0  0  0  0
 34 78  2  0  0  0  0
 35 49  1  0  0  0  0
 35 74  1  0  0  0  0
 35 79  2  0  0  0  0
 36 64  1  0  0  0  0
 36 70  1  0  0  0  0
 36 80  2  0  0  0  0
 37 65  1  0  0  0  0
 37 75  1  0  0  0  0
 37 81  2  0  0  0  0
 38 71  1  0  0  0  0
 38 76  1  0  0  0  0
 38 82  2  0  0  0  0
 39 42  1  0  0  0  0
 40 49  1  0  0  0  0
 41 70  1  0  0  0  0
 42 44  1  0  0  0  0
 43 45  1  0  0  0  0
 43 46  1  0  0  0  0
 44 48  1  0  0  0  0
 45 50  1  0  0  0  0
 46 71  1  0  0  0  0
 47 50  1  0  0  0  0
 47 71  1  0  0  0  0
 48 74  1  0  0  0  0
 49 70  1  0  0  0  0
 50 69  1  0  0  0  0
 54 65  1  0  0  0  0
 55 66  1  0  0  0  0
 56 66  1  0  0  0  0
 57 66  1  0  0  0  0
 58 67  1  0  0  0  0
 59 67  1  0  0  0  0
 60 77  1  0  0  0  0
 61 67  1  0  0  0  0
 62 84  1  0  0  0  0
 63 67  1  0  0  0  0
 63 76  1  0  0  0  0
 64 66  1  0  0  0  0
 64 75  1  0  0  0  0
 65 77  1  0  0  0  0
 68 69  1  0  0  0  0
M  CHG  1  77   1
M  ISO  4  38 100  62 101  76 100  84 101
M  END
> <Batch ID>
0029

> <Smiles>
CNC(C)C(=O)NC(C(=O)N1Cc2cc([101O:1][101CH2:1]c3c(C)c(C)cc(C)c3CC(C)(C)C[100NH:0][100C:0](=O)N3CCCC(n4nc(-c5ccc(Oc6ccc(F)cc6F)cc5)c(C(N)=O)c4N)C3)ccc2CC1C(=O)NC1CCCc2ccccc21)C(C)(C)C

> <Shape>
0.237

> <Color>
0.104

> <Negative vol penalty>
0.000

$$$$

  -OEChem-04052316363D

 86 94  0     1  0  0  0  0  0999 V2000
  -23.1884  -19.7420   18.1994 C   0  0  0  0  0  0  0  0  0  0  0  0
  -23.0088  -21.0020   18.7613 C   0  0  0  0  0  0  0  0  0  0  0  0
  -26.5396  -13.9654   21.9075 C   0  0  0  0  0  0  0  0  0  0  0  0
  -25.0665  -15.6580   21.0117 C   0  0  0  0  0  0  0  0  0  0  0  0
  -24.4154  -19.0921   18.3255 C   0  0  0  0  0  0  0  0  0  0  0  0
  -24.0560  -21.6123   19.4507 C   0  0  0  0  0  0  0  0  0  0  0  0
  -24.6109  -26.4923   18.2168 C   0  0  0  0  0  0  0  0  0  0  0  0
  -25.8356  -12.9837   21.2104 C   0  0  0  0  0  0  0  0  0  0  0  0
  -24.3625  -14.6762   20.3145 C   0  0  0  0  0  0  0  0  0  0  0  0
  -23.7175  -27.3986   18.7861 C   0  0  0  0  0  0  0  0  0  0  0  0
  -22.9366  -11.2801   21.5545 C   0  0  0  0  0  0  0  0  0  0  0  0
  -22.6078  -10.1102   22.2391 C   0  0  0  0  0  0  0  0  0  0  0  0
  -25.3840  -28.0049   20.4215 C   0  0  0  0  0  0  0  0  0  0  0  0
  -20.8581  -27.4477   22.7275 C   0  0  0  0  0  0  0  0  0  0  0  0
  -18.7660  -26.2440   22.8352 C   0  0  0  0  0  0  0  0  0  0  0  0
  -23.8732   -8.8175   20.6376 C   0  0  0  0  0  0  0  0  0  0  0  0
  -26.1551  -15.3026   21.8082 C   0  0  0  0  0  0  0  0  0  0  0  0
  -28.2466  -16.6373   22.4013 C   0  0  0  0  0  0  0  0  0  0  0  0
  -25.4812  -19.6990   19.0085 C   0  0  0  0  0  0  0  0  0  0  0  0
  -25.8961  -26.3274   18.7532 C   0  0  0  0  0  0  0  0  0  0  0  0
  -25.2981  -20.9694   19.5873 C   0  0  0  0  0  0  0  0  0  0  0  0
  -26.2927  -27.0978   19.8555 C   0  0  0  0  0  0  0  0  0  0  0  0
  -20.1739  -28.6031   22.3502 C   0  0  0  0  0  0  0  0  0  0  0  0
  -18.7858  -28.5791   22.2154 C   0  0  0  0  0  0  0  0  0  0  0  0
  -20.1541  -26.2681   22.9699 C   0  0  0  0  0  0  0  0  0  0  0  0
  -24.7470  -13.3390   20.4139 C   0  0  0  0  0  0  0  0  0  0  0  0
  -24.1029  -28.1530   19.8904 C   0  0  0  0  0  0  0  0  0  0  0  0
  -23.7337  -11.2188   20.4114 C   0  0  0  0  0  0  0  0  0  0  0  0
  -23.0761   -8.8789   21.7807 C   0  0  0  0  0  0  0  0  0  0  0  0
  -24.2019   -9.9874   19.9530 C   0  0  0  0  0  0  0  0  0  0  0  0
  -18.0818  -27.3995   22.4579 C   0  0  0  0  0  0  0  0  0  0  0  0
  -26.8816  -16.3172   22.5285 C   0  0  0  0  0  0  0  0  0  0  0  0
  -28.4439  -17.6612   23.2952 C   0  0  0  0  0  0  0  0  0  0  0  0
  -29.2467  -16.0607   21.5510 C   0  0  0  0  0  0  0  0  0  0  0  0
  -27.4828  -23.9095   20.0722 C   0  0  0  0  0  0  0  0  0  0  0  0
  -29.9557  -26.0079   20.0082 C   0  0  0  0  0  0  0  0  0  0  0  0
  -30.9971  -29.2569   19.9270 C   0  0  0  0  0  0  0  0  0  0  0  0
  -24.7842  -21.7612   25.6716 C   0  0  0  0  0  0  0  0  0  0  0  0
  -26.7742  -18.9373   19.1596 C   0  0  0  0  0  0  0  0  0  0  0  0
  -26.8572  -25.3650   18.1110 C   0  0  0  0  0  0  0  0  0  0  0  0
  -27.6681  -26.9729   20.4566 C   0  0  0  0  0  0  0  0  0  0  0  0
  -27.9508  -19.8127   19.5834 C   0  0  0  0  0  0  0  0  0  0  0  0
  -26.7772  -19.3935   27.4319 C   0  0  0  0  0  0  0  0  0  0  0  0
  -27.5485  -20.7259   20.7371 C   0  0  0  0  0  0  0  0  0  0  0  0
  -27.1531  -18.3655   26.3634 C   0  0  0  0  0  0  0  0  0  0  0  0
  -25.3594  -19.9241   27.2306 C   0  0  0  0  0  0  0  0  0  0  0  0
  -25.4612  -19.4357   24.8171 C   0  0  0  0  0  0  0  0  0  0  0  0
  -26.4178  -21.6747   20.3213 C   0  0  1  0  0  0  0  0  0  0  0  0
  -27.9638  -24.9060   19.0556 C   0  0  1  0  0  0  0  0  0  0  0  0
  -26.9023  -18.9132   24.9455 C   0  0  2  0  0  0  0  0  0  0  0  0
  -18.0670  -29.8281   21.8098 C   0  0  0  0  0  0  0  0  0  0  0  0
  -33.0784  -30.6588   19.9208 C   0  0  0  0  0  0  0  0  0  0  0  0
  -30.3170  -25.4805   22.9917 C   0  0  0  0  0  0  0  0  0  0  0  0
  -31.7221  -27.5489   23.1162 C   0  0  0  0  0  0  0  0  0  0  0  0
  -32.4491  -25.6331   21.6936 C   0  0  0  0  0  0  0  0  0  0  0  0
  -30.3362  -30.4333   17.2930 C   0  0  0  0  0  0  0  0  0  0  0  0
  -20.9602  -29.8641   22.0945 C   0  0  0  0  0  0  0  0  0  0  0  0
  -21.1347  -30.1907   20.6098 C   0  0  0  0  0  0  0  0  0  0  0  0
  -22.7349  -23.6419   23.8548 C   0  0  0  0  0  0  0  0  0  0  0  0
  -22.2670  -25.0548   23.5079 C   0  0  0  0  0  0  0  0  0  0  0  0
  -24.2500  -23.5031   23.9865 C   0  0  0  0  0  0  0  0  0  0  0  0
  -21.9406  -29.1424   19.8516 C   0  0  0  0  0  0  0  0  0  1  0  0
  -30.4941  -27.0549   20.9531 C   0  0  1  0  0  0  0  0  0  0  0  0
  -32.0302  -29.9623   19.0671 C   0  0  2  0  0  0  0  0  0  0  0  0
  -31.2189  -26.4305   22.1788 C   0  0  0  0  0  0  0  0  0  0  0  0
  -26.2561  -17.0761   23.4322 N   0  0  0  0  0  0  0  0  0  0  0  0
  -27.2324  -17.8832   23.8810 N   0  0  0  0  0  0  0  0  0  0  0  0
  -28.5696  -26.0138   19.7970 N   0  0  0  0  0  0  0  0  0  0  0  0
  -25.1880  -20.4301   25.8666 N   0  0  0  0  0  0  0  0  0  0  0  0
  -29.5338  -18.3842   23.6296 N   0  0  0  0  0  0  0  0  0  0  0  0
  -29.9868  -14.9724   22.0328 N   0  0  0  0  0  0  0  0  0  0  0  0
  -20.8462  -25.0998   23.3514 N   0  0  0  0  0  0  0  0  0  0  0  0
  -26.9396  -22.7636   19.5234 N   0  0  0  0  0  0  0  0  0  0  0  0
  -31.3322  -27.9379   20.1493 N   0  0  0  0  0  0  0  0  0  0  0  0
  -24.6518  -22.1619   24.3477 N   0  0  0  0  0  0  0  0  0  0  0  0
  -31.3742  -30.9835   18.2023 N   0  3  0  0  0  0  0  0  0  0  0  0
  -29.4886  -16.5081   20.4043 O   0  0  0  0  0  0  0  0  0  0  0  0
  -27.5976  -24.1610   21.2660 O   0  0  0  0  0  0  0  0  0  0  0  0
  -30.7371  -25.2186   19.4715 O   0  0  0  0  0  0  0  0  0  0  0  0
  -29.9951  -29.8205   20.3615 O   0  0  0  0  0  0  0  0  0  0  0  0
  -24.5636  -22.5368   26.6079 O   0  0  0  0  0  0  0  0  0  0  0  0
  -24.0599  -12.3813   19.7333 O   0  0  0  0  0  0  0  0  0  0  0  0
  -23.2326  -29.0378   20.4485 O   0  0  0  0  0  0  0  0  0  1  0  0
  -22.7615   -7.7556   22.4391 F   0  0  0  0  0  0  0  0  0  0  0  0
  -24.9690   -9.9223   18.8561 F   0  0  0  0  0  0  0  0  0  0  0  0
  -16.3637  -27.3285   22.3021 Cl  0  0  0  0  0  0  0  0  0  0  0  0
  1  2  1  0  0  0  0
  1  5  2  0  0  0  0
  2  6  2  0  0  0  0
  3  8  2  0  0  0  0
  3 17  1  0  0  0  0
  4  9  1  0  0  0  0
  4 17  2  0  0  0  0
  5 19  1  0  0  0  0
  6 21  1  0  0  0  0
  7 10  2  0  0  0  0
  7 20  1  0  0  0  0
  8 26  1  0  0  0  0
  9 26  2  0  0  0  0
 10 27  1  0  0  0  0
 11 12  2  0  0  0  0
 11 28  1  0  0  0  0
 12 29  1  0  0  0  0
 13 22  1  0  0  0  0
 13 27  2  0  0  0  0
 14 23  1  0  0  0  0
 14 25  2  0  0  0  0
 15 25  1  0  0  0  0
 15 31  2  0  0  0  0
 16 29  2  0  0  0  0
 16 30  1  0  0  0  0
 17 32  1  0  0  0  0
 18 32  1  0  0  0  0
 18 33  2  0  0  0  0
 18 34  1  0  0  0  0
 19 21  2  0  0  0  0
 19 39  1  0  0  0  0
 20 22  2  0  0  0  0
 20 40  1  0  0  0  0
 21 48  1  0  0  0  0
 22 41  1  0  0  0  0
 23 24  2  0  0  0  0
 23 57  1  0  0  0  0
 24 31  1  0  0  0  0
 24 51  1  0  0  0  0
 25 72  1  0  0  0  0
 26 82  1  0  0  0  0
 27 83  1  0  0  0  0
 28 30  2  0  0  0  0
 28 82  1  0  0  0  0
 29 84  1  0  0  0  0
 30 85  1  0  0  0  0
 31 86  1  0  0  0  0
 32 66  2  0  0  0  0
 33 67  1  0  0  0  0
 33 70  1  0  0  0  0
 34 71  1  0  0  0  0
 34 77  2  0  0  0  0
 35 49  1  0  0  0  0
 35 73  1  0  0  0  0
 35 78  2  0  0  0  0
 36 63  1  0  0  0  0
 36 68  1  0  0  0  0
 36 79  2  0  0  0  0
 37 64  1  0  0  0  0
 37 74  1  0  0  0  0
 37 80  2  0  0  0  0
 38 69  1  0  0  0  0
 38 75  1  0  0  0  0
 38 81  2  0  0  0  0
 39 42  1  0  0  0  0
 40 49  1  0  0  0  0
 41 68  1  0  0  0  0
 42 44  1  0  0  0  0
 43 45  1  0  0  0  0
 43 46  1  0  0  0  0
 44 48  1  0  0  0  0
 45 50  1  0  0  0  0
 46 69  1  0  0  0  0
 47 50  1  0  0  0  0
 47 69  1  0  0  0  0
 48 73  1  0  0  0  0
 49 68  1  0  0  0  0
 50 67  1  0  0  0  0
 52 64  1  0  0  0  0
 53 65  1  0  0  0  0
 54 65  1  0  0  0  0
 55 65  1  0  0  0  0
 56 76  1  0  0  0  0
 57 58  1  0  0  0  0
 58 62  1  0  0  0  0
 59 60  1  0  0  0  0
 59 61  1  0  0  0  0
 60 72  1  0  0  0  0
 61 75  1  0  0  0  0
 62 83  1  0  0  0  0
 63 65  1  0  0  0  0
 63 74  1  0  0  0  0
 64 76  1  0  0  0  0
 66 67  1  0  0  0  0
M  CHG  1  76   1
M  ISO  4  38 100  62 101  75 100  83 101
M  END
> <Batch ID>
0029

> <Smiles>
CNC(C)C(=O)NC(C(=O)N1Cc2cc([101O:1][101CH2:1]CCc3cc(NCCC[100NH:0][100C:0](=O)N4CCCC(n5nc(-c6ccc(Oc7ccc(F)cc7F)cc6)c(C(N)=O)c5N)C4)cc(Cl)c3C)ccc2CC1C(=O)NC1CCCc2ccccc21)C(C)(C)C

> <Shape>
0.220

> <Color>
0.050

> <Negative vol penalty>
0.000

$$$$

  -OEChem-04052316363D

 83 91  0     1  0  0  0  0  0999 V2000
  -29.3331  -15.4767   12.8391 C   0  0  0  0  0  0  0  0  0  0  0  0
  -29.5724  -15.3321   14.2010 C   0  0  0  0  0  0  0  0  0  0  0  0
  -23.1371  -10.2779   22.1192 C   0  0  0  0  0  0  0  0  0  0  0  0
  -23.8390   -9.4814   19.9490 C   0  0  0  0  0  0  0  0  0  0  0  0
  -29.2031  -16.7504   12.2895 C   0  0  0  0  0  0  0  0  0  0  0  0
  -29.6699  -16.4606   15.0157 C   0  0  0  0  0  0  0  0  0  0  0  0
  -31.0053  -16.9662   20.9393 C   0  0  0  0  0  0  0  0  0  0  0  0
  -22.4008   -9.1087   22.3103 C   0  0  0  0  0  0  0  0  0  0  0  0
  -23.1028   -8.3121   20.1400 C   0  0  0  0  0  0  0  0  0  0  0  0
  -32.1413  -17.1520   21.7259 C   0  0  0  0  0  0  0  0  0  0  0  0
  -23.4488   -5.3988   21.8174 C   0  0  0  0  0  0  0  0  0  0  0  0
  -24.0593   -4.1891   21.4867 C   0  0  0  0  0  0  0  0  0  0  0  0
  -31.6879  -19.5197   21.8111 C   0  0  0  0  0  0  0  0  0  0  0  0
  -30.5891  -16.6041   25.2833 C   0  0  0  0  0  0  0  0  0  0  0  0
  -32.6919  -15.3758   23.9223 C   0  0  0  0  0  0  0  0  0  0  0  0
  -22.3125   -3.7475   19.8770 C   0  0  0  0  0  0  0  0  0  0  0  0
  -23.8561  -10.4643   20.9386 C   0  0  0  0  0  0  0  0  0  0  0  0
  -24.1262  -12.9916   20.7215 C   0  0  0  0  0  0  0  0  0  0  0  0
  -29.3116  -17.8949   13.0965 C   0  0  0  0  0  0  0  0  0  0  0  0
  -30.2067  -18.0592   20.5730 C   0  0  0  0  0  0  0  0  0  0  0  0
  -29.5177  -17.7539   14.4840 C   0  0  0  0  0  0  0  0  0  0  0  0
  -30.5408  -19.3449   21.0219 C   0  0  0  0  0  0  0  0  0  0  0  0
  -30.5289  -15.2418   24.9903 C   0  0  0  0  0  0  0  0  0  0  0  0
  -31.7007  -17.3524   24.8957 C   0  0  0  0  0  0  0  0  0  0  0  0
  -31.5803  -14.6276   24.3098 C   0  0  0  0  0  0  0  0  0  0  0  0
  -32.7521  -16.7383   24.2152 C   0  0  0  0  0  0  0  0  0  0  0  0
  -22.3837   -8.1258   21.3207 C   0  0  0  0  0  0  0  0  0  0  0  0
  -32.4844  -18.4292   22.1595 C   0  0  0  0  0  0  0  0  0  0  0  0
  -22.2701   -5.7829   21.1780 C   0  0  0  0  0  0  0  0  0  0  0  0
  -23.4912   -3.3634   20.5165 C   0  0  0  0  0  0  0  0  0  0  0  0
  -21.7020   -4.9573   20.2078 C   0  0  0  0  0  0  0  0  0  0  0  0
  -24.6164  -11.6721   20.7404 C   0  0  0  0  0  0  0  0  0  0  0  0
  -25.2378  -13.7677   20.5012 C   0  0  0  0  0  0  0  0  0  0  0  0
  -22.7860  -13.4728   20.8884 C   0  0  0  0  0  0  0  0  0  0  0  0
  -29.3789  -19.4084   17.8166 C   0  0  0  0  0  0  0  0  0  0  0  0
  -27.4642  -21.2069   19.7197 C   0  0  0  0  0  0  0  0  0  0  0  0
  -26.7581  -23.0770   22.7233 C   0  0  0  0  0  0  0  0  0  0  0  0
  -31.0711  -12.9295   21.5603 C   0  0  0  0  0  0  0  0  0  0  0  0
  -29.1548  -19.2490   12.4508 C   0  0  0  0  0  0  0  0  0  0  0  0
  -28.9697  -17.8385   19.7463 C   0  0  0  0  0  0  0  0  0  0  0  0
  -29.7054  -20.5486   20.6731 C   0  0  0  0  0  0  0  0  0  0  0  0
  -29.7118  -20.3831   13.3052 C   0  0  0  0  0  0  0  0  0  0  0  0
  -29.5448  -13.6351   18.4219 C   0  0  0  0  0  0  0  0  0  0  0  0
  -29.1834  -20.2702   14.7274 C   0  0  0  0  0  0  0  0  0  0  0  0
  -28.0644  -13.3311   18.6585 C   0  0  0  0  0  0  0  0  0  0  0  0
  -30.4483  -12.6632   19.1775 C   0  0  0  0  0  0  0  0  0  0  0  0
  -28.6940  -12.2551   20.8596 C   0  0  0  0  0  0  0  0  0  0  0  0
  -29.6580  -18.9679   15.3845 C   0  0  1  0  0  0  0  0  0  0  0  0
  -28.5152  -19.0918   19.0046 C   0  0  1  0  0  0  0  0  0  0  0  0
  -27.7434  -13.2436   20.1627 C   0  0  2  0  0  0  0  0  0  0  0  0
  -29.3291  -14.4609   25.4158 C   0  0  0  0  0  0  0  0  0  0  0  0
  -31.7426  -18.8098   25.2196 C   0  0  0  0  0  0  0  0  0  0  0  0
  -24.6626  -24.2411   23.4657 C   0  0  0  0  0  0  0  0  0  0  0  0
  -34.6835  -18.1574   24.9933 C   0  0  0  0  0  0  0  0  0  0  0  0
  -34.9516  -16.6616   22.9785 C   0  0  0  0  0  0  0  0  0  0  0  0
  -28.7308  -23.6750   18.4491 C   0  0  0  0  0  0  0  0  0  0  0  0
  -27.8081  -25.0350   20.3379 C   0  0  0  0  0  0  0  0  0  0  0  0
  -26.2591  -23.8324   18.7961 C   0  0  0  0  0  0  0  0  0  0  0  0
  -26.6895  -21.5764   25.2732 C   0  0  0  0  0  0  0  0  0  0  0  0
  -31.5382  -13.1703   23.9857 C   0  0  0  0  0  0  0  0  0  0  0  0
  -27.6192  -22.5094   20.4670 C   0  0  1  0  0  0  0  0  0  0  0  0
  -25.5085  -22.9825   23.5800 C   0  0  2  0  0  0  0  0  0  0  0  0
  -33.9785  -17.5365   23.7801 C   0  0  0  0  0  0  0  0  0  1  0  0
  -27.6213  -23.7407   19.5177 C   0  0  0  0  0  0  0  0  0  0  0  0
  -25.9365  -11.6096   20.5473 N   0  0  0  0  0  0  0  0  0  0  0  0
  -26.2854  -12.8996   20.4049 N   0  0  0  0  0  0  0  0  0  0  0  0
  -28.5091  -20.2822   19.8574 N   0  0  0  0  0  0  0  0  0  0  0  0
  -30.0930  -12.6284   20.5982 N   0  0  0  0  0  0  0  0  0  0  0  0
  -25.4116  -15.1011   20.3822 N   0  0  0  0  0  0  0  0  0  0  0  0
  -21.9796  -13.6121   19.7505 N   0  0  0  0  0  0  0  0  0  0  0  0
  -28.9710  -18.7980   16.6459 N   0  0  0  0  0  0  0  0  0  0  0  0
  -26.5620  -22.5316   21.4721 N   0  0  0  0  0  0  0  0  0  0  0  0
  -30.6491  -12.8796   22.8832 N   0  0  0  0  0  0  0  0  0  0  0  0
  -25.8753  -22.7912   25.0117 N   0  3  0  0  0  0  0  0  0  0  0  0
  -22.3227  -13.7860   22.0112 O   0  0  0  0  0  0  0  0  0  0  0  0
  -30.3430  -20.1527   17.9516 O   0  0  0  0  0  0  0  0  0  0  0  0
  -26.4500  -21.0141   19.0445 O   0  0  0  0  0  0  0  0  0  0  0  0
  -27.8025  -23.5873   23.1226 O   0  0  0  0  0  0  0  0  0  0  0  0
  -32.2329  -13.2265   21.2621 O   0  0  0  0  0  0  0  0  0  0  0  0
  -21.6656   -6.9846   21.5068 O   0  0  0  0  0  0  0  0  0  0  0  0
  -33.5930  -18.6134   22.9268 O   0  0  0  0  0  0  0  0  0  1  0  0
  -24.0784   -2.2025   20.1979 F   0  0  0  0  0  0  0  0  0  0  0  0
  -20.5704   -5.3215   19.5892 F   0  0  0  0  0  0  0  0  0  0  0  0
  1  2  1  0  0  0  0
  1  5  2  0  0  0  0
  2  6  2  0  0  0  0
  3  8  2  0  0  0  0
  3 17  1  0  0  0  0
  4  9  1  0  0  0  0
  4 17  2  0  0  0  0
  5 19  1  0  0  0  0
  6 21  1  0  0  0  0
  7 10  2  0  0  0  0
  7 20  1  0  0  0  0
  8 27  1  0  0  0  0
  9 27  2  0  0  0  0
 10 28  1  0  0  0  0
 11 12  2  0  0  0  0
 11 29  1  0  0  0  0
 12 30  1  0  0  0  0
 13 22  1  0  0  0  0
 13 28  2  0  0  0  0
 14 23  2  0  0  0  0
 14 24  1  0  0  0  0
 15 25  2  0  0  0  0
 15 26  1  0  0  0  0
 16 30  2  0  0  0  0
 16 31  1  0  0  0  0
 17 32  1  0  0  0  0
 18 32  1  0  0  0  0
 18 33  2  0  0  0  0
 18 34  1  0  0  0  0
 19 21  2  0  0  0  0
 19 39  1  0  0  0  0
 20 22  2  0  0  0  0
 20 40  1  0  0  0  0
 21 48  1  0  0  0  0
 22 41  1  0  0  0  0
 23 25  1  0  0  0  0
 23 51  1  0  0  0  0
 24 26  2  0  0  0  0
 24 52  1  0  0  0  0
 25 60  1  0  0  0  0
 26 63  1  0  0  0  0
 27 80  1  0  0  0  0
 28 81  1  0  0  0  0
 29 31  2  0  0  0  0
 29 80  1  0  0  0  0
 30 82  1  0  0  0  0
 31 83  1  0  0  0  0
 32 65  2  0  0  0  0
 33 66  1  0  0  0  0
 33 69  1  0  0  0  0
 34 70  1  0  0  0  0
 34 75  2  0  0  0  0
 35 49  1  0  0  0  0
 35 71  1  0  0  0  0
 35 76  2  0  0  0  0
 36 61  1  0  0  0  0
 36 67  1  0  0  0  0
 36 77  2  0  0  0  0
 37 62  1  0  0  0  0
 37 72  1  0  0  0  0
 37 78  2  0  0  0  0
 38 68  1  0  0  0  0
 38 73  1  0  0  0  0
 38 79  2  0  0  0  0
 39 42  1  0  0  0  0
 40 49  1  0  0  0  0
 41 67  1  0  0  0  0
 42 44  1  0  0  0  0
 43 45  1  0  0  0  0
 43 46  1  0  0  0  0
 44 48  1  0  0  0  0
 45 50  1  0  0  0  0
 46 68  1  0  0  0  0
 47 50  1  0  0  0  0
 47 68  1  0  0  0  0
 48 71  1  0  0  0  0
 49 67  1  0  0  0  0
 50 66  1  0  0  0  0
 53 62  1  0  0  0  0
 54 63  1  0  0  0  0
 55 63  1  0  0  0  0
 56 64  1  0  0  0  0
 57 64  1  0  0  0  0
 58 64  1  0  0  0  0
 59 74  1  0  0  0  0
 60 73  1  0  0  0  0
 61 64  1  0  0  0  0
 61 72  1  0  0  0  0
 62 74  1  0  0  0  0
 63 81  1  0  0  0  0
 65 66  1  0  0  0  0
M  CHG  1  74   1
M  ISO  4  38 100  63 101  73 100  81 101
M  END
> <Batch ID>
0029

> <Smiles>
CNC(C)C(=O)NC(C(=O)N1Cc2cc([101O:1][101C:1](C)(C)c3cc(C[100NH:0][100C:0](=O)N4CCCC(n5nc(-c6ccc(Oc7ccc(F)cc7F)cc6)c(C(N)=O)c5N)C4)c(C)cc3C)ccc2CC1C(=O)NC1CCCc2ccccc21)C(C)(C)C

> <Shape>
0.192

> <Color>
0.146

> <Negative vol penalty>
0.000

$$$$

  -OEChem-04052316363D

 81 89  0     1  0  0  0  0  0999 V2000
  -20.3352  -24.0656   24.2082 C   0  0  0  0  0  0  0  0  0  0  0  0
  -21.3589  -23.2588   23.7219 C   0  0  0  0  0  0  0  0  0  0  0  0
  -22.9996   -9.8951   19.9810 C   0  0  0  0  0  0  0  0  0  0  0  0
  -23.7291   -9.9439   22.2837 C   0  0  0  0  0  0  0  0  0  0  0  0
  -19.0209  -23.8449   23.7985 C   0  0  0  0  0  0  0  0  0  0  0  0
  -21.0687  -22.2301   22.8264 C   0  0  0  0  0  0  0  0  0  0  0  0
  -24.3204  -22.0557   18.9481 C   0  0  0  0  0  0  0  0  0  0  0  0
  -31.6843  -18.2349   20.0263 C   0  0  0  0  0  0  0  0  0  0  0  0
  -22.2344   -8.7598   20.2475 C   0  0  0  0  0  0  0  0  0  0  0  0
  -22.9638   -8.8086   22.5502 C   0  0  0  0  0  0  0  0  0  0  0  0
  -25.5689  -21.4839   19.1891 C   0  0  0  0  0  0  0  0  0  0  0  0
  -21.4868   -5.7130   23.7527 C   0  0  0  0  0  0  0  0  0  0  0  0
  -31.5451  -19.2431   19.0726 C   0  0  0  0  0  0  0  0  0  0  0  0
  -22.0749   -4.6968   24.5056 C   0  0  0  0  0  0  0  0  0  0  0  0
  -24.8181  -19.4300   18.1709 C   0  0  0  0  0  0  0  0  0  0  0  0
  -23.7983   -4.4528   22.8300 C   0  0  0  0  0  0  0  0  0  0  0  0
  -23.7470  -10.4872   20.9991 C   0  0  0  0  0  0  0  0  0  0  0  0
  -24.1302  -13.0033   20.8254 C   0  0  0  0  0  0  0  0  0  0  0  0
  -18.7158  -22.8192   22.8901 C   0  0  0  0  0  0  0  0  0  0  0  0
  -23.3061  -21.3141   18.3254 C   0  0  0  0  0  0  0  0  0  0  0  0
  -19.7489  -21.9947   22.4052 C   0  0  0  0  0  0  0  0  0  0  0  0
  -23.5584  -19.9955   17.9208 C   0  0  0  0  0  0  0  0  0  0  0  0
  -30.6236  -17.9307   20.8797 C   0  0  0  0  0  0  0  0  0  0  0  0
  -29.2846  -19.6432   19.8256 C   0  0  0  0  0  0  0  0  0  0  0  0
  -22.2164   -8.2165   21.5320 C   0  0  0  0  0  0  0  0  0  0  0  0
  -25.8169  -20.1699   18.8032 C   0  0  0  0  0  0  0  0  0  0  0  0
  -22.0543   -6.0992   22.5384 C   0  0  0  0  0  0  0  0  0  0  0  0
  -23.2307   -4.0667   24.0443 C   0  0  0  0  0  0  0  0  0  0  0  0
  -30.3452  -19.9473   18.9722 C   0  0  0  0  0  0  0  0  0  0  0  0
  -23.2101   -5.4691   22.0771 C   0  0  0  0  0  0  0  0  0  0  0  0
  -29.4238  -18.6349   20.7793 C   0  0  0  0  0  0  0  0  0  0  0  0
  -24.5381  -11.6597   20.7244 C   0  0  0  0  0  0  0  0  0  0  0  0
  -25.2388  -13.7271   20.4597 C   0  0  0  0  0  0  0  0  0  0  0  0
  -22.8626  -13.5483   21.2149 C   0  0  0  0  0  0  0  0  0  0  0  0
  -20.4038  -20.3319   19.1711 C   0  0  0  0  0  0  0  0  0  0  0  0
  -20.2675  -19.3358   16.0870 C   0  0  0  0  0  0  0  0  0  0  0  0
  -21.9470  -18.3762   13.2754 C   0  0  0  0  0  0  0  0  0  0  0  0
  -30.7349  -14.6652   20.6990 C   0  0  0  0  0  0  0  0  0  0  0  0
  -17.2738  -22.5887   22.5128 C   0  0  0  0  0  0  0  0  0  0  0  0
  -21.9735  -21.9541   18.0484 C   0  0  0  0  0  0  0  0  0  0  0  0
  -22.5098  -19.1634   17.2305 C   0  0  0  0  0  0  0  0  0  0  0  0
  -17.1007  -21.7167   21.2719 C   0  0  0  0  0  0  0  0  0  0  0  0
  -29.5915  -12.2435   18.3528 C   0  0  0  0  0  0  0  0  0  0  0  0
  -17.9978  -20.4858   21.3550 C   0  0  0  0  0  0  0  0  0  0  0  0
  -28.1440  -11.9823   18.7728 C   0  0  0  0  0  0  0  0  0  0  0  0
  -30.4961  -12.4781   19.5606 C   0  0  0  0  0  0  0  0  0  0  0  0
  -28.5879  -13.2707   20.9039 C   0  0  0  0  0  0  0  0  0  0  0  0
  -19.4774  -20.8845   21.4132 C   0  0  1  0  0  0  0  0  0  0  0  0
  -20.8485  -20.9391   17.8706 C   0  0  1  0  0  0  0  0  0  0  0  0
  -27.6268  -13.0838   19.7175 C   0  0  2  0  0  0  0  0  0  0  0  0
  -21.5632  -17.5839   10.9255 C   0  0  0  0  0  0  0  0  0  0  0  0
  -19.5174  -16.5733   17.1435 C   0  0  0  0  0  0  0  0  0  0  0  0
  -20.0761  -15.6364   14.8900 C   0  0  0  0  0  0  0  0  0  0  0  0
  -18.2339  -17.3019   15.1245 C   0  0  0  0  0  0  0  0  0  0  0  0
  -23.3626  -20.7110   12.1335 C   0  0  0  0  0  0  0  0  0  0  0  0
  -30.8184  -16.8428   21.8866 C   0  0  0  0  0  0  0  0  0  0  0  0
  -28.0114  -20.4245   19.6837 C   0  0  0  0  0  0  0  0  0  1  0  0
  -20.6327  -18.0662   15.3565 C   0  0  1  0  0  0  0  0  0  0  0  0
  -21.7975  -18.7894   11.8224 C   0  0  2  0  0  0  0  0  0  0  0  0
  -19.6344  -16.9092   15.6434 C   0  0  0  0  0  0  0  0  0  0  0  0
  -25.8067  -11.5345   20.3257 N   0  0  0  0  0  0  0  0  0  0  0  0
  -26.2055  -12.8088   20.1728 N   0  0  0  0  0  0  0  0  0  0  0  0
  -21.2207  -19.8318   16.9876 N   0  0  0  0  0  0  0  0  0  0  0  0
  -29.9501  -13.5354   20.4150 N   0  0  0  0  0  0  0  0  0  0  0  0
  -25.4711  -15.0530   20.3588 N   0  0  0  0  0  0  0  0  0  0  0  0
  -21.8321  -12.6630   21.5594 N   0  0  0  0  0  0  0  0  0  0  0  0
  -19.9536  -21.2533   20.0973 N   0  0  0  0  0  0  0  0  0  0  0  0
  -20.7434  -18.4240   13.9465 N   0  0  0  0  0  0  0  0  0  0  0  0
  -30.1394  -15.6226   21.5111 N   0  0  0  0  0  0  0  0  0  0  0  0
  -23.0259  -19.4917   11.3545 N   0  3  0  0  0  0  0  0  0  0  0  0
  -22.6451  -14.7834   21.2405 O   0  0  0  0  0  0  0  0  0  0  0  0
  -20.4632  -19.1173   19.3224 O   0  0  0  0  0  0  0  0  0  0  0  0
  -19.1795  -19.8717   15.8614 O   0  0  0  0  0  0  0  0  0  0  0  0
  -23.0232  -18.0407   13.7652 O   0  0  0  0  0  0  0  0  0  0  0  0
  -31.8794  -14.8125   20.2569 O   0  0  0  0  0  0  0  0  0  0  0  0
  -21.4696   -7.1088   21.7925 O   0  0  0  0  0  0  0  0  0  0  0  0
  -27.0345  -19.6092   19.0379 O   0  0  0  0  0  0  0  0  0  1  0  0
  -23.7963   -3.0919   24.7682 F   0  0  0  0  0  0  0  0  0  0  0  0
  -30.2223  -20.9125   18.0501 F   0  0  0  0  0  0  0  0  0  0  0  0
  -23.7606   -5.8365   20.9119 F   0  0  0  0  0  0  0  0  0  0  0  0
  -28.1079  -18.2600   21.8411 Cl  0  0  0  0  0  0  0  0  0  0  0  0
  1  2  1  0  0  0  0
  1  5  2  0  0  0  0
  2  6  2  0  0  0  0
  3  9  2  0  0  0  0
  3 17  1  0  0  0  0
  4 10  1  0  0  0  0
  4 17  2  0  0  0  0
  5 19  1  0  0  0  0
  6 21  1  0  0  0  0
  7 11  2  0  0  0  0
  7 20  1  0  0  0  0
  8 13  1  0  0  0  0
  8 23  2  0  0  0  0
  9 25  1  0  0  0  0
 10 25  2  0  0  0  0
 11 26  1  0  0  0  0
 12 14  2  0  0  0  0
 12 27  1  0  0  0  0
 13 29  2  0  0  0  0
 14 28  1  0  0  0  0
 15 22  1  0  0  0  0
 15 26  2  0  0  0  0
 16 28  2  0  0  0  0
 16 30  1  0  0  0  0
 17 32  1  0  0  0  0
 18 32  1  0  0  0  0
 18 33  2  0  0  0  0
 18 34  1  0  0  0  0
 19 21  2  0  0  0  0
 19 39  1  0  0  0  0
 20 22  2  0  0  0  0
 20 40  1  0  0  0  0
 21 48  1  0  0  0  0
 22 41  1  0  0  0  0
 23 31  1  0  0  0  0
 23 56  1  0  0  0  0
 24 29  1  0  0  0  0
 24 31  2  0  0  0  0
 24 57  1  0  0  0  0
 25 76  1  0  0  0  0
 26 77  1  0  0  0  0
 27 30  2  0  0  0  0
 27 76  1  0  0  0  0
 28 78  1  0  0  0  0
 29 79  1  0  0  0  0
 30 80  1  0  0  0  0
 31 81  1  0  0  0  0
 32 61  2  0  0  0  0
 33 62  1  0  0  0  0
 33 65  1  0  0  0  0
 34 66  1  0  0  0  0
 34 71  2  0  0  0  0
 35 49  1  0  0  0  0
 35 67  1  0  0  0  0
 35 72  2  0  0  0  0
 36 58  1  0  0  0  0
 36 63  1  0  0  0  0
 36 73  2  0  0  0  0
 37 59  1  0  0  0  0
 37 68  1  0  0  0  0
 37 74  2  0  0  0  0
 38 64  1  0  0  0  0
 38 69  1  0  0  0  0
 38 75  2  0  0  0  0
 39 42  1  0  0  0  0
 40 49  1  0  0  0  0
 41 63  1  0  0  0  0
 42 44  1  0  0  0  0
 43 45  1  0  0  0  0
 43 46  1  0  0  0  0
 44 48  1  0  0  0  0
 45 50  1  0  0  0  0
 46 64  1  0  0  0  0
 47 50  1  0  0  0  0
 47 64  1  0  0  0  0
 48 67  1  0  0  0  0
 49 63  1  0  0  0  0
 50 62  1  0  0  0  0
 51 59  1  0  0  0  0
 52 60  1  0  0  0  0
 53 60  1  0  0  0  0
 54 60  1  0  0  0  0
 55 70  1  0  0  0  0
 56 69  1  0  0  0  0
 57 77  1  0  0  0  0
 58 60  1  0  0  0  0
 58 68  1  0  0  0  0
 59 70  1  0  0  0  0
 61 62  1  0  0  0  0
M  CHG  1  70   1
M  ISO  4  38 100  57 101  69 100  77 101
M  END
> <Batch ID>
0029

> <Smiles>
CNC(C)C(=O)NC(C(=O)N1Cc2cc([101O:1][101CH2:1]c3c(F)ccc(C[100NH:0][100C:0](=O)N4CCCC(n5nc(-c6ccc(Oc7ccc(F)cc7F)cc6)c(C(N)=O)c5N)C4)c3Cl)ccc2CC1C(=O)NC1CCCc2ccccc21)C(C)(C)C

> <Shape>
0.204

> <Color>
0.206

> <Negative vol penalty>
0.000

$$$$

  -OEChem-04052316363D

 87 95  0     1  0  0  0  0  0999 V2000
  -17.2080  -27.9043   28.8334 C   0  0  0  0  0  0  0  0  0  0  0  0
  -18.5527  -27.5689   28.7124 C   0  0  0  0  0  0  0  0  0  0  0  0
  -22.6322  -10.2750   20.2327 C   0  0  0  0  0  0  0  0  0  0  0  0
  -24.2548   -9.5321   21.8613 C   0  0  0  0  0  0  0  0  0  0  0  0
  -16.2336  -26.9093   28.7650 C   0  0  0  0  0  0  0  0  0  0  0  0
  -18.9240  -26.2381   28.5240 C   0  0  0  0  0  0  0  0  0  0  0  0
  -22.6976  -24.2259   22.7273 C   0  0  0  0  0  0  0  0  0  0  0  0
  -21.8787   -9.1230   20.4579 C   0  0  0  0  0  0  0  0  0  0  0  0
  -23.5012   -8.3801   22.0866 C   0  0  0  0  0  0  0  0  0  0  0  0
  -23.5994  -23.7980   21.7527 C   0  0  0  0  0  0  0  0  0  0  0  0
  -19.6970   -7.9876   22.7782 C   0  0  0  0  0  0  0  0  0  0  0  0
  -18.3177   -8.1338   22.9257 C   0  0  0  0  0  0  0  0  0  0  0  0
  -23.4191  -21.5282   22.5673 C   0  0  0  0  0  0  0  0  0  0  0  0
  -17.9612   -6.6970   21.0163 C   0  0  0  0  0  0  0  0  0  0  0  0
  -23.8203  -10.4795   20.9344 C   0  0  0  0  0  0  0  0  0  0  0  0
  -24.1898  -13.0032   20.8864 C   0  0  0  0  0  0  0  0  0  0  0  0
  -16.5926  -25.5668   28.5660 C   0  0  0  0  0  0  0  0  0  0  0  0
  -22.1407  -23.3029   23.6168 C   0  0  0  0  0  0  0  0  0  0  0  0
  -17.9536  -25.2240   28.4542 C   0  0  0  0  0  0  0  0  0  0  0  0
  -22.5057  -21.9489   23.5376 C   0  0  0  0  0  0  0  0  0  0  0  0
  -22.3132   -8.1756   21.3848 C   0  0  0  0  0  0  0  0  0  0  0  0
  -23.9595  -22.4525   21.6731 C   0  0  0  0  0  0  0  0  0  0  0  0
  -20.2084   -7.1962   21.7497 C   0  0  0  0  0  0  0  0  0  0  0  0
  -17.4498   -7.4884   22.0448 C   0  0  0  0  0  0  0  0  0  0  0  0
  -19.3406   -6.5509   20.8688 C   0  0  0  0  0  0  0  0  0  0  0  0
  -24.5994  -11.6691   20.7017 C   0  0  0  0  0  0  0  0  0  0  0  0
  -25.2852  -13.7512   20.5301 C   0  0  0  0  0  0  0  0  0  0  0  0
  -30.1360  -21.2677   20.7943 C   0  0  0  0  0  0  0  0  0  0  0  0
  -22.9316  -13.5201   21.3396 C   0  0  0  0  0  0  0  0  0  0  0  0
  -19.8141  -22.7012   26.4980 C   0  0  0  0  0  0  0  0  0  0  0  0
  -19.4480  -20.3577   24.5526 C   0  0  0  0  0  0  0  0  0  0  0  0
  -19.0383  -18.1813   21.9579 C   0  0  0  0  0  0  0  0  0  0  0  0
  -30.7826  -14.7024   20.6683 C   0  0  0  0  0  0  0  0  0  0  0  0
  -15.5067  -24.5204   28.5460 C   0  0  0  0  0  0  0  0  0  0  0  0
  -21.2125  -23.7289   24.7217 C   0  0  0  0  0  0  0  0  0  0  0  0
  -21.9079  -20.9973   24.5375 C   0  0  0  0  0  0  0  0  0  0  0  0
  -15.9612  -23.1819   27.9696 C   0  0  0  0  0  0  0  0  0  0  0  0
  -29.5830  -12.4052   18.2270 C   0  0  0  0  0  0  0  0  0  0  0  0
  -17.3041  -22.7722   28.5660 C   0  0  0  0  0  0  0  0  0  0  0  0
  -28.1486  -12.1144   18.6720 C   0  0  0  0  0  0  0  0  0  0  0  0
  -29.0768  -18.2549   21.0220 C   0  0  0  0  0  0  0  0  0  0  0  0
  -31.4405  -19.1994   21.4161 C   0  0  0  0  0  0  0  0  0  0  0  0
  -30.5199  -12.5787   19.4204 C   0  0  0  0  0  0  0  0  0  0  0  0
  -28.6549  -19.3630   20.0643 C   0  0  0  0  0  0  0  0  0  0  0  0
  -28.6470  -13.2882   20.8566 C   0  0  0  0  0  0  0  0  0  0  0  0
  -18.3945  -23.7948   28.2242 C   0  0  1  0  0  0  0  0  0  0  0  0
  -31.3314  -20.3790   20.4350 C   0  0  2  0  0  0  0  0  0  0  0  0
  -20.1224  -22.6867   25.0296 C   0  0  1  0  0  0  0  0  0  0  0  0
  -30.5870  -17.9811   21.0242 C   0  0  1  0  0  0  0  0  0  0  0  0
  -27.6540  -13.1608   19.6887 C   0  0  2  0  0  0  0  0  0  0  0  0
  -34.3278  -23.5526   17.9152 C   0  0  0  0  0  0  0  0  0  0  0  0
  -17.7342  -16.1473   21.2802 C   0  0  0  0  0  0  0  0  0  0  0  0
  -21.2236  -18.6307   26.3326 C   0  0  0  0  0  0  0  0  0  0  0  0
  -20.5648  -16.6513   24.9483 C   0  0  0  0  0  0  0  0  0  0  0  0
  -18.8317  -17.9079   26.2291 C   0  0  0  0  0  0  0  0  0  0  0  0
  -17.7939  -19.5968   19.6761 C   0  0  0  0  0  0  0  0  0  0  0  0
  -32.6244  -21.2034   20.4729 C   0  0  0  0  0  0  0  0  0  0  0  0
  -30.8914  -16.8131   21.9692 C   0  0  0  0  0  0  0  0  0  0  0  0
  -34.1128  -22.7871   19.2112 C   0  0  0  0  0  0  0  0  0  0  0  0
  -32.8084  -21.9910   19.1817 C   0  0  0  0  0  0  0  0  0  0  0  0
  -27.0801  -22.2300   19.8852 C   0  0  0  0  0  0  0  0  0  0  0  0
  -27.6834  -21.4302   21.0319 C   0  0  0  0  0  0  0  0  0  0  0  0
  -25.8183  -22.9839   20.2875 C   0  0  0  0  0  0  0  0  0  1  0  0
  -19.8539  -18.9573   24.1686 C   0  0  1  0  0  0  0  0  0  0  0  0
  -17.7913  -17.6669   21.2616 C   0  0  2  0  0  0  0  0  0  0  0  0
  -20.1305  -18.0596   25.4075 C   0  0  0  0  0  0  0  0  0  0  0  0
  -25.8569  -11.5719   20.2621 N   0  0  0  0  0  0  0  0  0  0  0  0
  -26.2469  -12.8545   20.1674 N   0  0  0  0  0  0  0  0  0  0  0  0
  -28.8753  -20.6944   20.6282 N   0  0  0  0  0  0  0  0  0  0  0  0
  -20.4778  -21.2918   24.7185 N   0  0  0  0  0  0  0  0  0  0  0  0
  -29.9942  -13.5857   20.3454 N   0  0  0  0  0  0  0  0  0  0  0  0
  -25.5101  -15.0818   20.4946 N   0  0  0  0  0  0  0  0  0  0  0  0
  -22.7491  -13.7240   22.7142 N   0  0  0  0  0  0  0  0  0  0  0  0
  -18.8446  -23.6168   26.8603 N   0  0  0  0  0  0  0  0  0  0  0  0
  -18.8041  -18.4548   23.2889 N   0  0  0  0  0  0  0  0  0  0  0  0
  -30.2066  -15.6116   21.5471 N   0  0  0  0  0  0  0  0  0  0  0  0
  -17.7659  -18.1208   19.8424 N   0  3  0  0  0  0  0  0  0  0  0  0
  -30.3068  -22.4137   21.2187 O   0  0  0  0  0  0  0  0  0  0  0  0
  -21.9910  -13.7777   20.5506 O   0  0  0  0  0  0  0  0  0  0  0  0
  -20.4102  -21.9372   27.2481 O   0  0  0  0  0  0  0  0  0  0  0  0
  -18.2515  -20.6178   24.7076 O   0  0  0  0  0  0  0  0  0  0  0  0
  -20.1137  -18.3226   21.3798 O   0  0  0  0  0  0  0  0  0  0  0  0
  -31.9139  -14.8790   20.2035 O   0  0  0  0  0  0  0  0  0  0  0  0
  -21.5780   -7.0515   21.6050 O   0  0  0  0  0  0  0  0  0  0  0  0
  -24.8369  -22.0408   20.7164 O   0  0  0  0  0  0  0  0  0  1  0  0
  -16.1253   -7.6276   22.1875 F   0  0  0  0  0  0  0  0  0  0  0  0
  -19.8260   -5.7883   19.8795 F   0  0  0  0  0  0  0  0  0  0  0  0
  1  2  1  0  0  0  0
  1  5  2  0  0  0  0
  2  6  2  0  0  0  0
  3  8  2  0  0  0  0
  3 15  1  0  0  0  0
  4  9  1  0  0  0  0
  4 15  2  0  0  0  0
  5 17  1  0  0  0  0
  6 19  1  0  0  0  0
  7 10  2  0  0  0  0
  7 18  1  0  0  0  0
  8 21  1  0  0  0  0
  9 21  2  0  0  0  0
 10 22  1  0  0  0  0
 11 12  2  0  0  0  0
 11 23  1  0  0  0  0
 12 24  1  0  0  0  0
 13 20  1  0  0  0  0
 13 22  2  0  0  0  0
 14 24  2  0  0  0  0
 14 25  1  0  0  0  0
 15 26  1  0  0  0  0
 16 26  1  0  0  0  0
 16 27  2  0  0  0  0
 16 29  1  0  0  0  0
 17 19  2  0  0  0  0
 17 34  1  0  0  0  0
 18 20  2  0  0  0  0
 18 35  1  0  0  0  0
 19 46  1  0  0  0  0
 20 36  1  0  0  0  0
 21 84  1  0  0  0  0
 22 85  1  0  0  0  0
 23 25  2  0  0  0  0
 23 84  1  0  0  0  0
 24 86  1  0  0  0  0
 25 87  1  0  0  0  0
 26 67  2  0  0  0  0
 27 68  1  0  0  0  0
 27 72  1  0  0  0  0
 28 47  1  0  0  0  0
 28 69  1  0  0  0  0
 28 78  2  0  0  0  0
 29 73  1  0  0  0  0
 29 79  2  0  0  0  0
 30 48  1  0  0  0  0
 30 74  1  0  0  0  0
 30 80  2  0  0  0  0
 31 64  1  0  0  0  0
 31 70  1  0  0  0  0
 31 81  2  0  0  0  0
 32 65  1  0  0  0  0
 32 75  1  0  0  0  0
 32 82  2  0  0  0  0
 33 71  1  0  0  0  0
 33 76  1  0  0  0  0
 33 83  2  0  0  0  0
 34 37  1  0  0  0  0
 35 48  1  0  0  0  0
 36 70  1  0  0  0  0
 37 39  1  0  0  0  0
 38 40  1  0  0  0  0
 38 43  1  0  0  0  0
 39 46  1  0  0  0  0
 40 50  1  0  0  0  0
 41 44  1  0  0  0  0
 41 49  1  0  0  0  0
 42 47  1  0  0  0  0
 42 49  1  0  0  0  0
 43 71  1  0  0  0  0
 44 69  1  0  0  0  0
 45 50  1  0  0  0  0
 45 71  1  0  0  0  0
 46 74  1  0  0  0  0
 47 57  1  0  0  0  0
 48 70  1  0  0  0  0
 49 58  1  0  0  0  0
 50 68  1  0  0  0  0
 51 59  1  0  0  0  0
 52 65  1  0  0  0  0
 53 66  1  0  0  0  0
 54 66  1  0  0  0  0
 55 66  1  0  0  0  0
 56 77  1  0  0  0  0
 57 60  1  0  0  0  0
 58 76  1  0  0  0  0
 59 60  1  0  0  0  0
 61 62  1  0  0  0  0
 61 63  1  0  0  0  0
 62 69  1  0  0  0  0
 63 85  1  0  0  0  0
 64 66  1  0  0  0  0
 64 75  1  0  0  0  0
 65 77  1  0  0  0  0
 67 68  1  0  0  0  0
M  CHG  1  77   1
M  ISO  4  33 100  63 101  76 100  85 101
M  END
> <Batch ID>
0029

> <Smiles>
CCCCC1CC(C[100NH:0][100C:0](=O)N2CCCC(n3nc(-c4ccc(Oc5ccc(F)cc5F)cc4)c(C(N)=O)c3N)C2)CCN(CC[101CH2:1][101O:1]c2ccc3c(c2)CN(C(=O)C(NC(=O)C(C)NC)C(C)(C)C)C(C(=O)NC2CCCc4ccccc42)C3)C1=O

> <Shape>
0.184

> <Color>
0.173

> <Negative vol penalty>
0.000

$$$$

  -OEChem-04052316363D

 83 92  0     1  0  0  0  0  0999 V2000
  -26.8628  -31.1462   15.5445 C   0  0  0  0  0  0  0  0  0  0  0  0
  -27.5501  -30.0489   16.0534 C   0  0  0  0  0  0  0  0  0  0  0  0
  -23.1216   -9.8234   19.9366 C   0  0  0  0  0  0  0  0  0  0  0  0
  -23.8914   -9.8450   22.2266 C   0  0  0  0  0  0  0  0  0  0  0  0
  -25.9357  -31.8172   16.3408 C   0  0  0  0  0  0  0  0  0  0  0  0
  -27.3113  -29.6225   17.3594 C   0  0  0  0  0  0  0  0  0  0  0  0
  -26.8210  -24.5939   17.7023 C   0  0  0  0  0  0  0  0  0  0  0  0
  -22.4214   -8.6426   20.1831 C   0  0  0  0  0  0  0  0  0  0  0  0
  -23.1911   -8.6641   22.4731 C   0  0  0  0  0  0  0  0  0  0  0  0
  -27.9914  -23.8368   17.6768 C   0  0  0  0  0  0  0  0  0  0  0  0
  -23.1153   -5.3455   20.4520 C   0  0  0  0  0  0  0  0  0  0  0  0
  -23.2153   -4.3244   19.5071 C   0  0  0  0  0  0  0  0  0  0  0  0
  -31.3608  -18.6035   20.0727 C   0  0  0  0  0  0  0  0  0  0  0  0
  -27.9079  -23.6378   20.0794 C   0  0  0  0  0  0  0  0  0  0  0  0
  -28.8888  -19.8781   19.9544 C   0  0  0  0  0  0  0  0  0  0  0  0
  -20.8247   -4.4053   19.1669 C   0  0  0  0  0  0  0  0  0  0  0  0
  -23.8567  -10.4246   20.9583 C   0  0  0  0  0  0  0  0  0  0  0  0
  -24.1059  -12.9612   20.8516 C   0  0  0  0  0  0  0  0  0  0  0  0
  -25.6784  -31.3929   17.6540 C   0  0  0  0  0  0  0  0  0  0  0  0
  -26.1901  -24.8883   18.9196 C   0  0  0  0  0  0  0  0  0  0  0  0
  -26.3809  -30.2892   18.1745 C   0  0  0  0  0  0  0  0  0  0  0  0
  -31.1634  -19.6380   19.1451 C   0  0  0  0  0  0  0  0  0  0  0  0
  -26.7281  -24.3966   20.1175 C   0  0  0  0  0  0  0  0  0  0  0  0
  -29.9095  -20.2742   19.0752 C   0  0  0  0  0  0  0  0  0  0  0  0
  -30.3366  -18.2174   20.9363 C   0  0  0  0  0  0  0  0  0  0  0  0
  -22.4561   -8.0629   21.4513 C   0  0  0  0  0  0  0  0  0  0  0  0
  -28.5366  -23.3611   18.8657 C   0  0  0  0  0  0  0  0  0  0  0  0
  -21.8701   -5.8965   20.7545 C   0  0  0  0  0  0  0  0  0  0  0  0
  -22.0699   -3.8543   18.8645 C   0  0  0  0  0  0  0  0  0  0  0  0
  -20.7248   -5.4264   20.1119 C   0  0  0  0  0  0  0  0  0  0  0  0
  -29.1015  -18.8556   20.8783 C   0  0  0  0  0  0  0  0  0  0  0  0
  -24.5808  -11.6442   20.7042 C   0  0  0  0  0  0  0  0  0  0  0  0
  -25.1684  -13.7520   20.4879 C   0  0  0  0  0  0  0  0  0  0  0  0
  -22.8195  -13.4280   21.2792 C   0  0  0  0  0  0  0  0  0  0  0  0
  -25.5095  -27.5578   20.5053 C   0  0  0  0  0  0  0  0  0  0  0  0
  -23.9410  -25.5206   22.4832 C   0  0  0  0  0  0  0  0  0  0  0  0
  -23.5972  -22.3491   23.6956 C   0  0  0  0  0  0  0  0  0  0  0  0
  -30.6122  -14.9689   20.6579 C   0  0  0  0  0  0  0  0  0  0  0  0
  -24.7018  -32.1788   18.4926 C   0  0  0  0  0  0  0  0  0  0  0  0
  -24.9135  -25.6837   18.9278 C   0  0  0  0  0  0  0  0  0  0  0  0
  -32.2855  -19.9959   18.2027 C   0  0  0  0  0  0  0  0  0  0  0  0
  -26.0783  -24.6677   21.4489 C   0  0  0  0  0  0  0  0  0  0  0  0
  -24.2332  -31.4343   19.7401 C   0  0  0  0  0  0  0  0  0  0  0  0
  -32.0925  -21.3453   17.5144 C   0  0  0  0  0  0  0  0  0  0  0  0
  -29.5511  -12.5582   18.2623 C   0  0  0  0  0  0  0  0  0  0  0  0
  -25.4202  -30.8093   20.4663 C   0  0  0  0  0  0  0  0  0  0  0  0
  -30.6727  -21.4662   16.9689 C   0  0  0  0  0  0  0  0  0  0  0  0
  -28.1273  -12.2099   18.6999 C   0  0  0  0  0  0  0  0  0  0  0  0
  -30.4651  -12.8054   19.4604 C   0  0  0  0  0  0  0  0  0  0  0  0
  -28.5445  -13.4588   20.8596 C   0  0  0  0  0  0  0  0  0  0  0  0
  -26.1313  -29.7814   19.5780 C   0  0  1  0  0  0  0  0  0  0  0  0
  -29.6493  -21.4015   18.1058 C   0  0  2  0  0  0  0  0  0  1  0  0
  -24.6377  -26.3571   20.2687 C   0  0  1  0  0  0  0  0  0  0  0  0
  -27.5719  -13.2556   19.6853 C   0  0  2  0  0  0  0  0  0  0  0  0
  -22.2538  -20.9999   25.3303 C   0  0  0  0  0  0  0  0  0  0  0  0
  -25.5380  -26.7261   24.7868 C   0  0  0  0  0  0  0  0  0  0  0  0
  -24.8820  -24.7534   26.1820 C   0  0  0  0  0  0  0  0  0  0  0  0
  -23.1290  -26.2941   25.3012 C   0  0  0  0  0  0  0  0  0  0  0  0
  -22.5474  -20.5907   21.5590 C   0  0  0  0  0  0  0  0  0  0  0  0
  -30.6056  -17.1133   21.9071 C   0  0  0  0  0  0  0  0  0  0  0  0
  -24.3122  -24.7246   23.7110 C   0  0  1  0  0  0  0  0  0  0  0  0
  -22.3734  -21.4720   23.8896 C   0  0  2  0  0  0  0  0  0  0  0  0
  -24.4789  -25.6209   24.9705 C   0  0  0  0  0  0  0  0  0  0  0  0
  -25.8463  -11.5968   20.2797 N   0  0  0  0  0  0  0  0  0  0  0  0
  -26.1757  -12.8940   20.1573 N   0  0  0  0  0  0  0  0  0  0  0  0
  -24.8352  -25.4553   21.4053 N   0  0  0  0  0  0  0  0  0  0  0  0
  -29.8816  -13.8081   20.3548 N   0  0  0  0  0  0  0  0  0  0  0  0
  -25.3299  -15.0906   20.4218 N   0  0  0  0  0  0  0  0  0  0  0  0
  -21.8429  -12.4807   21.6156 N   0  0  0  0  0  0  0  0  0  0  0  0
  -25.3854  -28.5417   19.5430 N   0  0  0  0  0  0  0  0  0  0  0  0
  -23.2964  -23.6862   23.8468 N   0  0  0  0  0  0  0  0  0  0  0  0
  -29.9836  -15.8705   21.5080 N   0  0  0  0  0  0  0  0  0  0  0  0
  -22.4499  -20.2736   23.0071 N   0  3  0  0  0  0  0  0  0  0  0  0
  -22.5389  -14.6489   21.3448 O   0  0  0  0  0  0  0  0  0  0  0  0
  -26.2396  -27.5898   21.4890 O   0  0  0  0  0  0  0  0  0  0  0  0
  -22.8926  -26.1706   22.4781 O   0  0  0  0  0  0  0  0  0  0  0  0
  -24.7095  -21.8933   23.4394 O   0  0  0  0  0  0  0  0  0  0  0  0
  -31.7390  -15.1882   20.2003 O   0  0  0  0  0  0  0  0  0  0  0  0
  -21.7727   -6.9108   21.6923 O   0  0  0  0  0  0  0  0  0  0  0  0
  -29.6793  -22.6224   18.8437 O   0  0  0  0  0  0  0  0  0  1  0  0
  -22.1662   -2.8748   17.9560 F   0  0  0  0  0  0  0  0  0  0  0  0
  -19.5259   -5.9527   20.3975 F   0  0  0  0  0  0  0  0  0  0  0  0
  -27.8103  -18.4088   21.9328 Cl  0  0  0  0  0  0  0  0  0  0  0  0
  1  2  1  0  0  0  0
  1  5  2  0  0  0  0
  2  6  2  0  0  0  0
  3  8  2  0  0  0  0
  3 17  1  0  0  0  0
  4  9  1  0  0  0  0
  4 17  2  0  0  0  0
  5 19  1  0  0  0  0
  6 21  1  0  0  0  0
  7 10  2  0  0  0  0
  7 20  1  0  0  0  0
  8 26  1  0  0  0  0
  9 26  2  0  0  0  0
 10 27  1  0  0  0  0
 11 12  2  0  0  0  0
 11 28  1  0  0  0  0
 12 29  1  0  0  0  0
 13 22  1  0  0  0  0
 13 25  2  0  0  0  0
 14 23  1  0  0  0  0
 14 27  2  0  0  0  0
 15 24  1  0  0  0  0
 15 31  2  0  0  0  0
 16 29  2  0  0  0  0
 16 30  1  0  0  0  0
 17 32  1  0  0  0  0
 18 32  1  0  0  0  0
 18 33  2  0  0  0  0
 18 34  1  0  0  0  0
 19 21  2  0  0  0  0
 19 39  1  0  0  0  0
 20 23  2  0  0  0  0
 20 40  1  0  0  0  0
 21 51  1  0  0  0  0
 22 24  2  0  0  0  0
 22 41  1  0  0  0  0
 23 42  1  0  0  0  0
 24 52  1  0  0  0  0
 25 31  1  0  0  0  0
 25 60  1  0  0  0  0
 26 79  1  0  0  0  0
 27 80  1  0  0  0  0
 28 30  2  0  0  0  0
 28 79  1  0  0  0  0
 29 81  1  0  0  0  0
 30 82  1  0  0  0  0
 31 83  1  0  0  0  0
 32 64  2  0  0  0  0
 33 65  1  0  0  0  0
 33 68  1  0  0  0  0
 34 69  1  0  0  0  0
 34 74  2  0  0  0  0
 35 53  1  0  0  0  0
 35 70  1  0  0  0  0
 35 75  2  0  0  0  0
 36 61  1  0  0  0  0
 36 66  1  0  0  0  0
 36 76  2  0  0  0  0
 37 62  1  0  0  0  0
 37 71  1  0  0  0  0
 37 77  2  0  0  0  0
 38 67  1  0  0  0  0
 38 72  1  0  0  0  0
 38 78  2  0  0  0  0
 39 43  1  0  0  0  0
 40 53  1  0  0  0  0
 41 44  1  0  0  0  0
 42 66  1  0  0  0  0
 43 46  1  0  0  0  0
 44 47  1  0  0  0  0
 45 48  1  0  0  0  0
 45 49  1  0  0  0  0
 46 51  1  0  0  0  0
 47 52  1  0  0  0  0
 48 54  1  0  0  0  0
 49 67  1  0  0  0  0
 50 54  1  0  0  0  0
 50 67  1  0  0  0  0
 51 70  1  0  0  0  0
 52 80  1  0  0  0  0
 53 66  1  0  0  0  0
 54 65  1  0  0  0  0
 55 62  1  0  0  0  0
 56 63  1  0  0  0  0
 57 63  1  0  0  0  0
 58 63  1  0  0  0  0
 59 73  1  0  0  0  0
 60 72  1  0  0  0  0
 61 63  1  0  0  0  0
 61 71  1  0  0  0  0
 62 73  1  0  0  0  0
 64 65  1  0  0  0  0
M  CHG  1  73   1
M  ISO  4  38 100  52 101  72 100  80 101
M  END
> <Batch ID>
0029

> <Smiles>
CNC(C)C(=O)NC(C(=O)N1Cc2cc([101O:1][101CH:1]3CCCc4cc(C[100NH:0][100C:0](=O)N5CCCC(n6nc(-c7ccc(Oc8ccc(F)cc8F)cc7)c(C(N)=O)c6N)C5)c(Cl)cc43)ccc2CC1C(=O)NC1CCCc2ccccc21)C(C)(C)C

> <Shape>
0.235

> <Color>
0.205

> <Negative vol penalty>
0.000

$$$$

  -OEChem-04052316363D

 81 89  0     1  0  0  0  0  0999 V2000
  -20.1291  -31.0475   21.7687 C   0  0  0  0  0  0  0  0  0  0  0  0
  -21.4073  -30.5014   21.8270 C   0  0  0  0  0  0  0  0  0  0  0  0
  -26.7228  -13.0853   20.2555 C   0  0  0  0  0  0  0  0  0  0  0  0
  -25.2204  -14.9761   20.3253 C   0  0  0  0  0  0  0  0  0  0  0  0
  -19.0145  -30.2323   21.9612 C   0  0  0  0  0  0  0  0  0  0  0  0
  -21.5717  -29.1398   22.0788 C   0  0  0  0  0  0  0  0  0  0  0  0
  -24.9852  -26.9955   19.0137 C   0  0  0  0  0  0  0  0  0  0  0  0
  -25.6350  -12.2267   20.0975 C   0  0  0  0  0  0  0  0  0  0  0  0
  -24.1325  -14.1174   20.1672 C   0  0  0  0  0  0  0  0  0  0  0  0
  -26.3305  -27.2059   19.3128 C   0  0  0  0  0  0  0  0  0  0  0  0
  -23.2262   -9.5032   20.0364 C   0  0  0  0  0  0  0  0  0  0  0  0
  -23.2006   -8.3385   20.8034 C   0  0  0  0  0  0  0  0  0  0  0  0
  -26.4355  -25.0279   20.3447 C   0  0  0  0  0  0  0  0  0  0  0  0
  -31.1993  -22.6786   21.5858 C   0  0  0  0  0  0  0  0  0  0  0  0
  -23.2296   -9.6668   22.8214 C   0  0  0  0  0  0  0  0  0  0  0  0
  -32.7282  -23.8739   23.5039 C   0  0  0  0  0  0  0  0  0  0  0  0
  -26.5155  -14.4600   20.3694 C   0  0  0  0  0  0  0  0  0  0  0  0
  -28.3815  -15.9755   19.5155 C   0  0  0  0  0  0  0  0  0  0  0  0
  -19.1650  -28.8582   22.2059 C   0  0  0  0  0  0  0  0  0  0  0  0
  -24.3510  -25.8022   19.3882 C   0  0  0  0  0  0  0  0  0  0  0  0
  -20.4581  -28.3057   22.2761 C   0  0  0  0  0  0  0  0  0  0  0  0
  -25.0827  -24.8038   20.0469 C   0  0  0  0  0  0  0  0  0  0  0  0
  -31.8145  -23.8942   21.3082 C   0  0  0  0  0  0  0  0  0  0  0  0
  -24.3399  -12.7427   20.0533 C   0  0  0  0  0  0  0  0  0  0  0  0
  -27.0552  -26.2232   19.9810 C   0  0  0  0  0  0  0  0  0  0  0  0
  -23.2536  -10.7498   20.6618 C   0  0  0  0  0  0  0  0  0  0  0  0
  -23.2023   -8.4203   22.1959 C   0  0  0  0  0  0  0  0  0  0  0  0
  -23.2553  -10.8315   22.0543 C   0  0  0  0  0  0  0  0  0  0  0  0
  -32.5952  -24.5099   22.2801 C   0  0  0  0  0  0  0  0  0  0  0  0
  -27.6388  -15.3475   20.5332 C   0  0  0  0  0  0  0  0  0  0  0  0
  -31.3949  -22.1245   22.8406 C   0  0  0  0  0  0  0  0  0  0  0  0
  -29.3317  -16.7069   20.1853 C   0  0  0  0  0  0  0  0  0  0  0  0
  -28.2263  -15.9041   18.0919 C   0  0  0  0  0  0  0  0  0  0  0  0
  -21.9193  -25.0568   21.2947 C   0  0  0  0  0  0  0  0  0  0  0  0
  -22.3960  -22.0820   20.0926 C   0  0  0  0  0  0  0  0  0  0  0  0
  -24.5312  -19.8540   18.6352 C   0  0  0  0  0  0  0  0  0  0  0  0
  -30.8215  -20.1516   24.2984 C   0  0  0  0  0  0  0  0  0  0  0  0
  -17.9321  -28.0259   22.4546 C   0  0  0  0  0  0  0  0  0  0  0  0
  -22.9060  -25.5796   19.0344 C   0  0  0  0  0  0  0  0  0  0  0  0
  -24.4537  -23.4968   20.4526 C   0  0  0  0  0  0  0  0  0  0  0  0
  -18.1791  -26.5235   22.3446 C   0  0  0  0  0  0  0  0  0  0  0  0
  -30.6754  -16.6778   25.0654 C   0  0  0  0  0  0  0  0  0  0  0  0
  -19.4413  -26.1328   23.1070 C   0  0  0  0  0  0  0  0  0  0  0  0
  -29.9335  -16.0736   23.8709 C   0  0  0  0  0  0  0  0  0  0  0  0
  -30.1270  -18.0545   25.4364 C   0  0  0  0  0  0  0  0  0  0  0  0
  -29.3245  -18.4134   23.1350 C   0  0  0  0  0  0  0  0  0  0  0  0
  -20.6765  -26.8286   22.5224 C   0  0  1  0  0  0  0  0  0  0  0  0
  -22.2280  -24.5378   19.9189 C   0  0  1  0  0  0  0  0  0  0  0  0
  -29.8844  -17.0547   22.6832 C   0  0  2  0  0  0  0  0  0  0  0  0
  -24.6451  -17.4883   17.8057 C   0  0  0  0  0  0  0  0  0  0  0  0
  -22.5796  -21.0844   22.9703 C   0  0  0  0  0  0  0  0  0  0  0  0
  -23.6154  -18.9776   22.1003 C   0  0  0  0  0  0  0  0  0  0  0  0
  -21.2930  -19.5930   21.4292 C   0  0  0  0  0  0  0  0  0  0  0  0
  -25.1255  -20.7291   15.8711 C   0  0  0  0  0  0  0  0  0  0  0  0
  -31.6125  -24.5114   19.9474 C   0  0  0  0  0  0  0  0  0  0  0  0
  -30.6238  -25.6794   19.9414 C   0  0  0  0  0  0  0  0  0  0  0  0
  -29.2072  -25.2733   20.3308 C   0  0  0  0  0  0  0  0  0  1  0  0
  -23.2428  -20.8944   20.4823 C   0  0  1  0  0  0  0  0  0  0  0  0
  -24.3663  -18.9370   17.4367 C   0  0  2  0  0  0  0  0  0  0  0  0
  -22.6943  -20.1627   21.7397 C   0  0  0  0  0  0  0  0  0  0  0  0
  -32.1460  -22.6929   23.8103 N   0  0  0  0  0  0  0  0  0  0  0  0
  -28.0794  -15.6531   21.7565 N   0  0  0  0  0  0  0  0  0  0  0  0
  -29.1093  -16.4810   21.5118 N   0  0  0  0  0  0  0  0  0  0  0  0
  -23.0367  -23.3291   20.0900 N   0  0  0  0  0  0  0  0  0  0  0  0
  -30.1144  -18.9311   24.2632 N   0  0  0  0  0  0  0  0  0  0  0  0
  -30.3275  -17.5147   19.7631 N   0  0  0  0  0  0  0  0  0  0  0  0
  -27.1988  -15.1059   17.5710 N   0  0  0  0  0  0  0  0  0  0  0  0
  -30.7640  -20.8856   23.1141 N   0  0  0  0  0  0  0  0  0  0  0  0
  -21.0995  -26.1692   21.3056 N   0  0  0  0  0  0  0  0  0  0  0  0
  -23.3365  -20.0526   19.2945 N   0  0  0  0  0  0  0  0  0  0  0  0
  -25.3039  -19.3335   16.3482 N   0  3  0  0  0  0  0  0  0  0  0  0
  -28.9869  -16.5167   17.3047 O   0  0  0  0  0  0  0  0  0  0  0  0
  -22.3887  -24.4892   22.2741 O   0  0  0  0  0  0  0  0  0  0  0  0
  -21.2118  -21.9084   19.7943 O   0  0  0  0  0  0  0  0  0  0  0  0
  -25.6124  -20.3420   18.9567 O   0  0  0  0  0  0  0  0  0  0  0  0
  -31.4555  -20.5058   25.2957 O   0  0  0  0  0  0  0  0  0  0  0  0
  -23.2782  -11.9052   19.8989 O   0  0  0  0  0  0  0  0  0  0  0  0
  -28.3683  -26.4263   20.2748 O   0  0  0  0  0  0  0  0  0  1  0  0
  -23.1762   -7.3017   22.9323 F   0  0  0  0  0  0  0  0  0  0  0  0
  -23.2803  -12.0262   22.6608 F   0  0  0  0  0  0  0  0  0  0  0  0
  -33.3855  -26.0126   22.0077 Cl  0  0  0  0  0  0  0  0  0  0  0  0
  1  2  1  0  0  0  0
  1  5  2  0  0  0  0
  2  6  2  0  0  0  0
  3  8  2  0  0  0  0
  3 17  1  0  0  0  0
  4  9  1  0  0  0  0
  4 17  2  0  0  0  0
  5 19  1  0  0  0  0
  6 21  1  0  0  0  0
  7 10  2  0  0  0  0
  7 20  1  0  0  0  0
  8 24  1  0  0  0  0
  9 24  2  0  0  0  0
 10 25  1  0  0  0  0
 11 12  2  0  0  0  0
 11 26  1  0  0  0  0
 12 27  1  0  0  0  0
 13 22  1  0  0  0  0
 13 25  2  0  0  0  0
 14 23  1  0  0  0  0
 14 31  2  0  0  0  0
 15 27  2  0  0  0  0
 15 28  1  0  0  0  0
 16 29  1  0  0  0  0
 16 61  2  0  0  0  0
 17 30  1  0  0  0  0
 18 30  1  0  0  0  0
 18 32  2  0  0  0  0
 18 33  1  0  0  0  0
 19 21  2  0  0  0  0
 19 38  1  0  0  0  0
 20 22  2  0  0  0  0
 20 39  1  0  0  0  0
 21 47  1  0  0  0  0
 22 40  1  0  0  0  0
 23 29  2  0  0  0  0
 23 55  1  0  0  0  0
 24 77  1  0  0  0  0
 25 78  1  0  0  0  0
 26 28  2  0  0  0  0
 26 77  1  0  0  0  0
 27 79  1  0  0  0  0
 28 80  1  0  0  0  0
 29 81  1  0  0  0  0
 30 62  2  0  0  0  0
 31 61  1  0  0  0  0
 31 68  1  0  0  0  0
 32 63  1  0  0  0  0
 32 66  1  0  0  0  0
 33 67  1  0  0  0  0
 33 72  2  0  0  0  0
 34 48  1  0  0  0  0
 34 69  1  0  0  0  0
 34 73  2  0  0  0  0
 35 58  1  0  0  0  0
 35 64  1  0  0  0  0
 35 74  2  0  0  0  0
 36 59  1  0  0  0  0
 36 70  1  0  0  0  0
 36 75  2  0  0  0  0
 37 65  1  0  0  0  0
 37 68  1  0  0  0  0
 37 76  2  0  0  0  0
 38 41  1  0  0  0  0
 39 48  1  0  0  0  0
 40 64  1  0  0  0  0
 41 43  1  0  0  0  0
 42 44  1  0  0  0  0
 42 45  1  0  0  0  0
 43 47  1  0  0  0  0
 44 49  1  0  0  0  0
 45 65  1  0  0  0  0
 46 49  1  0  0  0  0
 46 65  1  0  0  0  0
 47 69  1  0  0  0  0
 48 64  1  0  0  0  0
 49 63  1  0  0  0  0
 50 59  1  0  0  0  0
 51 60  1  0  0  0  0
 52 60  1  0  0  0  0
 53 60  1  0  0  0  0
 54 71  1  0  0  0  0
 55 56  1  0  0  0  0
 56 57  1  0  0  0  0
 57 78  1  0  0  0  0
 58 60  1  0  0  0  0
 58 70  1  0  0  0  0
 59 71  1  0  0  0  0
 62 63  1  0  0  0  0
M  CHG  1  71   1
M  ISO  4  37 100  57 101  68 100  78 101
M  END
> <Batch ID>
0029

> <Smiles>
CNC(C)C(=O)NC(C(=O)N1Cc2cc([101O:1][101CH2:1]CCc3cc([100NH:0][100C:0](=O)N4CCCC(n5nc(-c6ccc(Oc7ccc(F)cc7F)cc6)c(C(N)=O)c5N)C4)ncc3Cl)ccc2CC1C(=O)NC1CCCc2ccccc21)C(C)(C)C

> <Shape>
0.193

> <Color>
0.076

> <Negative vol penalty>
0.000

$$$$

  -OEChem-04052316363D

 84 92  0     1  0  0  0  0  0999 V2000
  -38.1259  -31.1947   21.3703 C   0  0  0  0  0  0  0  0  0  0  0  0
  -37.3492  -30.1932   21.9440 C   0  0  0  0  0  0  0  0  0  0  0  0
  -23.0011   -9.8945   19.9793 C   0  0  0  0  0  0  0  0  0  0  0  0
  -23.7275   -9.9421   22.2830 C   0  0  0  0  0  0  0  0  0  0  0  0
  -37.8019  -31.6894   20.1077 C   0  0  0  0  0  0  0  0  0  0  0  0
  -36.2473  -29.6866   21.2559 C   0  0  0  0  0  0  0  0  0  0  0  0
  -36.0018  -24.6316   21.4341 C   0  0  0  0  0  0  0  0  0  0  0  0
  -22.2349   -8.7595   20.2443 C   0  0  0  0  0  0  0  0  0  0  0  0
  -22.9613   -8.8071   22.5481 C   0  0  0  0  0  0  0  0  0  0  0  0
  -35.5214  -24.0585   22.6108 C   0  0  0  0  0  0  0  0  0  0  0  0
  -23.2059   -5.4689   22.0710 C   0  0  0  0  0  0  0  0  0  0  0  0
  -23.7940   -4.4507   22.8213 C   0  0  0  0  0  0  0  0  0  0  0  0
  -33.3632  -23.7578   21.5760 C   0  0  0  0  0  0  0  0  0  0  0  0
  -32.4702  -17.0427   23.9294 C   0  0  0  0  0  0  0  0  0  0  0  0
  -22.0710   -4.6908   24.4978 C   0  0  0  0  0  0  0  0  0  0  0  0
  -23.7475  -10.4858   20.9986 C   0  0  0  0  0  0  0  0  0  0  0  0
  -24.1323  -13.0017   20.8262 C   0  0  0  0  0  0  0  0  0  0  0  0
  -36.7011  -31.1818   19.3996 C   0  0  0  0  0  0  0  0  0  0  0  0
  -35.1621  -24.7822   20.3212 C   0  0  0  0  0  0  0  0  0  0  0  0
  -35.9075  -30.1759   19.9832 C   0  0  0  0  0  0  0  0  0  0  0  0
  -33.8361  -24.3307   20.3855 C   0  0  0  0  0  0  0  0  0  0  0  0
  -31.9060  -18.2919   24.1875 C   0  0  0  0  0  0  0  0  0  0  0  0
  -30.7262  -18.6703   23.5467 C   0  0  0  0  0  0  0  0  0  0  0  0
  -30.6749  -16.5501   22.3894 C   0  0  0  0  0  0  0  0  0  0  0  0
  -22.2150   -8.2158   21.5287 C   0  0  0  0  0  0  0  0  0  0  0  0
  -34.2011  -23.6242   22.6828 C   0  0  0  0  0  0  0  0  0  0  0  0
  -22.0503   -6.0982   22.5342 C   0  0  0  0  0  0  0  0  0  0  0  0
  -23.2265   -4.0616   24.0347 C   0  0  0  0  0  0  0  0  0  0  0  0
  -31.8547  -16.1718   23.0302 C   0  0  0  0  0  0  0  0  0  0  0  0
  -21.4829   -5.7091   23.7475 C   0  0  0  0  0  0  0  0  0  0  0  0
  -30.1107  -17.7994   22.6476 C   0  0  0  0  0  0  0  0  0  0  0  0
  -24.5396  -11.6579   20.7253 C   0  0  0  0  0  0  0  0  0  0  0  0
  -25.2417  -13.7250   20.4623 C   0  0  0  0  0  0  0  0  0  0  0  0
  -22.8644  -13.5473   21.2142 C   0  0  0  0  0  0  0  0  0  0  0  0
  -34.0715  -27.2582   18.6528 C   0  0  0  0  0  0  0  0  0  0  0  0
  -32.8635  -24.9365   16.7365 C   0  0  0  0  0  0  0  0  0  0  0  0
  -31.8162  -21.7051   16.4075 C   0  0  0  0  0  0  0  0  0  0  0  0
  -30.7212  -14.6867   20.6948 C   0  0  0  0  0  0  0  0  0  0  0  0
  -36.3621  -31.7812   18.0577 C   0  0  0  0  0  0  0  0  0  0  0  0
  -35.7032  -25.3779   19.0505 C   0  0  0  0  0  0  0  0  0  0  0  0
  -32.8997  -24.4510   19.2120 C   0  0  0  0  0  0  0  0  0  0  0  0
  -35.3998  -30.9281   17.2352 C   0  0  0  0  0  0  0  0  0  0  0  0
  -29.6021  -12.2371   18.3658 C   0  0  0  0  0  0  0  0  0  0  0  0
  -34.2318  -30.4594   18.0971 C   0  0  0  0  0  0  0  0  0  0  0  0
  -28.1517  -11.9786   18.7803 C   0  0  0  0  0  0  0  0  0  0  0  0
  -30.5032  -12.4788   19.5754 C   0  0  0  0  0  0  0  0  0  0  0  0
  -28.5884  -13.2654   20.9111 C   0  0  0  0  0  0  0  0  0  0  0  0
  -34.7190  -29.5833   19.2575 C   0  0  1  0  0  0  0  0  0  0  0  0
  -34.6146  -25.9512   18.1485 C   0  0  1  0  0  0  0  0  0  0  0  0
  -27.6301  -13.0806   19.7232 C   0  0  2  0  0  0  0  0  0  0  0  0
  -30.1386  -20.0165   23.8390 C   0  0  0  0  0  0  0  0  0  0  0  0
  -30.8462  -20.1097   14.7309 C   0  0  0  0  0  0  0  0  0  0  0  0
  -30.1395  -26.2773   17.0402 C   0  0  0  0  0  0  0  0  0  0  0  0
  -29.0870  -24.1772   16.1741 C   0  0  0  0  0  0  0  0  0  0  0  0
  -30.6543  -25.4725   14.7289 C   0  0  0  0  0  0  0  0  0  0  0  0
  -34.1472  -19.8930   16.6103 C   0  0  0  0  0  0  0  0  0  0  0  0
  -32.5902  -19.2076   25.1593 C   0  0  0  0  0  0  0  0  0  0  0  0
  -33.9460  -21.2872   25.4349 C   0  0  0  0  0  0  0  0  0  0  0  0
  -34.6671  -22.3596   24.6423 C   0  0  0  0  0  0  0  0  0  1  0  0
  -31.5710  -24.1582   16.6845 C   0  0  1  0  0  0  0  0  0  0  0  0
  -32.1211  -20.6490   15.3606 C   0  0  2  0  0  0  0  0  0  0  0  0
  -30.3798  -25.0206   16.1799 C   0  0  0  0  0  0  0  0  0  0  0  0
  -25.8087  -11.5322   20.3283 N   0  0  0  0  0  0  0  0  0  0  0  0
  -26.2084  -12.8063   20.1764 N   0  0  0  0  0  0  0  0  0  0  0  0
  -33.4739  -25.0461   17.9940 N   0  0  0  0  0  0  0  0  0  0  0  0
  -29.9484  -13.5384   20.4206 N   0  0  0  0  0  0  0  0  0  0  0  0
  -25.4749  -15.0509   20.3621 N   0  0  0  0  0  0  0  0  0  0  0  0
  -21.8330  -12.6625   21.5569 N   0  0  0  0  0  0  0  0  0  0  0  0
  -30.0772  -15.6406   21.4821 N   0  0  0  0  0  0  0  0  0  0  0  0
  -35.0254  -28.2487   18.7891 N   0  0  0  0  0  0  0  0  0  0  0  0
  -31.8388  -22.9759   15.8728 N   0  0  0  0  0  0  0  0  0  0  0  0
  -32.8606  -19.5099   15.9740 N   0  3  0  0  0  0  0  0  0  0  0  0
  -33.3084  -20.3295   24.4965 N   0  3  0  0  0  0  0  0  0  0  0  0
  -22.6475  -14.7826   21.2399 O   0  0  0  0  0  0  0  0  0  0  0  0
  -32.8754  -27.3610   18.8987 O   0  0  0  0  0  0  0  0  0  0  0  0
  -33.3186  -25.4230   15.6983 O   0  0  0  0  0  0  0  0  0  0  0  0
  -31.5778  -21.4300   17.5814 O   0  0  0  0  0  0  0  0  0  0  0  0
  -31.8596  -14.8264   20.2404 O   0  0  0  0  0  0  0  0  0  0  0  0
  -21.4672   -7.1084   21.7878 O   0  0  0  0  0  0  0  0  0  0  0  0
  -33.7293  -23.0651   23.8303 O   0  0  0  0  0  0  0  0  0  1  0  0
  -23.7905   -3.0827   24.7543 F   0  0  0  0  0  0  0  0  0  0  0  0
  -32.4075  -14.9739   22.7908 F   0  0  0  0  0  0  0  0  0  0  0  0
  -20.3721   -6.3091   24.1970 F   0  0  0  0  0  0  0  0  0  0  0  0
  -28.6430  -18.2722   21.8533 Cl  0  0  0  0  0  0  0  0  0  0  0  0
  1  2  1  0  0  0  0
  1  5  2  0  0  0  0
  2  6  2  0  0  0  0
  3  8  2  0  0  0  0
  3 16  1  0  0  0  0
  4  9  1  0  0  0  0
  4 16  2  0  0  0  0
  5 18  1  0  0  0  0
  6 20  1  0  0  0  0
  7 10  2  0  0  0  0
  7 19  1  0  0  0  0
  8 25  1  0  0  0  0
  9 25  2  0  0  0  0
 10 26  1  0  0  0  0
 11 12  2  0  0  0  0
 11 27  1  0  0  0  0
 12 28  1  0  0  0  0
 13 21  1  0  0  0  0
 13 26  2  0  0  0  0
 14 22  1  0  0  0  0
 14 29  2  0  0  0  0
 15 28  2  0  0  0  0
 15 30  1  0  0  0  0
 16 32  1  0  0  0  0
 17 32  1  0  0  0  0
 17 33  2  0  0  0  0
 17 34  1  0  0  0  0
 18 20  2  0  0  0  0
 18 39  1  0  0  0  0
 19 21  2  0  0  0  0
 19 40  1  0  0  0  0
 20 48  1  0  0  0  0
 21 41  1  0  0  0  0
 22 23  2  0  0  0  0
 22 57  1  0  0  0  0
 23 31  1  0  0  0  0
 23 51  1  0  0  0  0
 24 29  1  0  0  0  0
 24 31  2  0  0  0  0
 24 69  1  0  0  0  0
 25 79  1  0  0  0  0
 26 80  1  0  0  0  0
 27 30  2  0  0  0  0
 27 79  1  0  0  0  0
 28 81  1  0  0  0  0
 29 82  1  0  0  0  0
 30 83  1  0  0  0  0
 31 84  1  0  0  0  0
 32 63  2  0  0  0  0
 33 64  1  0  0  0  0
 33 67  1  0  0  0  0
 34 68  1  0  0  0  0
 34 74  2  0  0  0  0
 35 49  1  0  0  0  0
 35 70  1  0  0  0  0
 35 75  2  0  0  0  0
 36 60  1  0  0  0  0
 36 65  1  0  0  0  0
 36 76  2  0  0  0  0
 37 61  1  0  0  0  0
 37 71  1  0  0  0  0
 37 77  2  0  0  0  0
 38 66  1  0  0  0  0
 38 69  1  0  0  0  0
 38 78  2  0  0  0  0
 39 42  1  0  0  0  0
 40 49  1  0  0  0  0
 41 65  1  0  0  0  0
 42 44  1  0  0  0  0
 43 45  1  0  0  0  0
 43 46  1  0  0  0  0
 44 48  1  0  0  0  0
 45 50  1  0  0  0  0
 46 66  1  0  0  0  0
 47 50  1  0  0  0  0
 47 66  1  0  0  0  0
 48 70  1  0  0  0  0
 49 65  1  0  0  0  0
 50 64  1  0  0  0  0
 52 61  1  0  0  0  0
 53 62  1  0  0  0  0
 54 62  1  0  0  0  0
 55 62  1  0  0  0  0
 56 72  1  0  0  0  0
 57 73  1  0  0  0  0
 58 59  1  0  0  0  0
 58 73  1  0  0  0  0
 59 80  1  0  0  0  0
 60 62  1  0  0  0  0
 60 71  1  0  0  0  0
 61 72  1  0  0  0  0
 63 64  1  0  0  0  0
M  CHG  2  72   1  73   1
M  ISO  4  38 100  59 101  69 100  80 101
M  END
> <Batch ID>
0029

> <Smiles>
CNC(C)C(=O)NC(C(=O)N1Cc2cc([101O:1][101CH2:1]CNCc3cc(F)c([100NH:0][100C:0](=O)N4CCCC(n5nc(-c6ccc(Oc7ccc(F)cc7F)cc6)c(C(N)=O)c5N)C4)c(Cl)c3C)ccc2CC1C(=O)NC1CCCc2ccccc21)C(C)(C)C

> <Shape>
0.193

> <Color>
0.198

> <Negative vol penalty>
0.000

$$$$

  -OEChem-04052316363D

 81 89  0     1  0  0  0  0  0999 V2000
  -17.5102  -25.9109   21.9024 C   0  0  0  0  0  0  0  0  0  0  0  0
  -18.8040  -25.4005   21.8710 C   0  0  0  0  0  0  0  0  0  0  0  0
  -23.5051   -9.5848   20.3299 C   0  0  0  0  0  0  0  0  0  0  0  0
  -23.8897  -10.1778   22.6402 C   0  0  0  0  0  0  0  0  0  0  0  0
  -17.3007  -27.2593   22.1884 C   0  0  0  0  0  0  0  0  0  0  0  0
  -19.8892  -26.2387   22.1245 C   0  0  0  0  0  0  0  0  0  0  0  0
  -23.2765  -24.1397   25.2495 C   0  0  0  0  0  0  0  0  0  0  0  0
  -22.8746   -8.4090   20.7367 C   0  0  0  0  0  0  0  0  0  0  0  0
  -23.2592   -9.0020   23.0470 C   0  0  0  0  0  0  0  0  0  0  0  0
  -24.1438  -23.1933   24.7056 C   0  0  0  0  0  0  0  0  0  0  0  0
  -20.0954   -7.8674   23.3988 C   0  0  0  0  0  0  0  0  0  0  0  0
  -19.1745   -7.9554   24.4428 C   0  0  0  0  0  0  0  0  0  0  0  0
  -25.8712  -24.8705   24.5568 C   0  0  0  0  0  0  0  0  0  0  0  0
  -28.2353  -19.7276   21.2757 C   0  0  0  0  0  0  0  0  0  0  0  0
  -20.5079   -6.4207   25.7482 C   0  0  0  0  0  0  0  0  0  0  0  0
  -24.0127  -10.4693   21.2817 C   0  0  0  0  0  0  0  0  0  0  0  0
  -24.0645  -12.9378   20.6404 C   0  0  0  0  0  0  0  0  0  0  0  0
  -18.3833  -28.1123   22.4550 C   0  0  0  0  0  0  0  0  0  0  0  0
  -23.6973  -25.4636   25.4414 C   0  0  0  0  0  0  0  0  0  0  0  0
  -19.6941  -27.6001   22.4130 C   0  0  0  0  0  0  0  0  0  0  0  0
  -25.0082  -25.8312   25.1057 C   0  0  0  0  0  0  0  0  0  0  0  0
  -27.2227  -20.5541   21.7498 C   0  0  0  0  0  0  0  0  0  0  0  0
  -28.8552  -18.8316   22.1395 C   0  0  0  0  0  0  0  0  0  0  0  0
  -22.7516   -8.1176   22.0952 C   0  0  0  0  0  0  0  0  0  0  0  0
  -25.4404  -23.5593   24.3564 C   0  0  0  0  0  0  0  0  0  0  0  0
  -21.2225   -7.0560   23.5295 C   0  0  0  0  0  0  0  0  0  0  0  0
  -19.3808   -7.2320   25.6175 C   0  0  0  0  0  0  0  0  0  0  0  0
  -21.4287   -6.3327   24.7042 C   0  0  0  0  0  0  0  0  0  0  0  0
  -24.6646  -11.6838   20.8622 C   0  0  0  0  0  0  0  0  0  0  0  0
  -26.8696  -20.4466   23.0853 C   0  0  0  0  0  0  0  0  0  0  0  0
  -28.4292  -18.8013   23.4576 C   0  0  0  0  0  0  0  0  0  0  0  0
  -25.1025  -13.7526   20.2594 C   0  0  0  0  0  0  0  0  0  0  0  0
  -22.6916  -13.3310   20.7676 C   0  0  0  0  0  0  0  0  0  0  0  0
  -22.7842  -28.2929   24.3168 C   0  0  0  0  0  0  0  0  0  0  0  0
  -24.9484  -29.4074   26.4607 C   0  0  0  0  0  0  0  0  0  0  0  0
  -27.7465  -28.8210   28.3245 C   0  0  0  0  0  0  0  0  0  0  0  0
  -30.3271  -15.6040   20.9081 C   0  0  0  0  0  0  0  0  0  0  0  0
  -18.1102  -29.5730   22.7127 C   0  0  0  0  0  0  0  0  0  0  0  0
  -22.7582  -26.4661   26.0540 C   0  0  0  0  0  0  0  0  0  0  0  0
  -25.5153  -27.2346   25.3105 C   0  0  0  0  0  0  0  0  0  0  0  0
  -19.2901  -30.3120   23.3387 C   0  0  0  0  0  0  0  0  0  0  0  0
  -29.8713  -12.6360   18.9951 C   0  0  0  0  0  0  0  0  0  0  0  0
  -20.5836  -29.9701   22.6060 C   0  0  0  0  0  0  0  0  0  0  0  0
  -28.4294  -12.2241   19.2970 C   0  0  0  0  0  0  0  0  0  0  0  0
  -30.5558  -13.2348   20.2219 C   0  0  0  0  0  0  0  0  0  0  0  0
  -28.3865  -13.9399   21.1552 C   0  0  0  0  0  0  0  0  0  0  0  0
  -20.8954  -28.4721   22.7070 C   0  0  1  0  0  0  0  0  0  0  0  0
  -23.1293  -27.9095   25.7280 C   0  0  1  0  0  0  0  0  0  0  0  0
  -27.6370  -13.3819   19.9332 C   0  0  2  0  0  0  0  0  0  0  0  0
  -26.5551  -21.5165   20.8294 C   0  0  0  0  0  0  0  0  0  0  0  0
  -29.2991  -29.9350   29.9511 C   0  0  0  0  0  0  0  0  0  0  0  0
  -26.2354  -30.9557   24.1681 C   0  0  0  0  0  0  0  0  0  0  0  0
  -28.2635  -31.2596   25.6043 C   0  0  0  0  0  0  0  0  0  0  0  0
  -26.0752  -32.2196   26.3202 C   0  0  0  0  0  0  0  0  0  0  0  0
  -27.1171  -26.8580   30.4480 C   0  0  0  0  0  0  0  0  0  0  0  0
  -29.9405  -17.9477   21.6269 C   0  0  0  0  0  0  0  0  0  0  0  0
  -25.7843  -21.3140   23.6520 C   0  0  0  0  0  0  0  0  0  1  0  0
  -26.4253  -29.7179   26.4259 C   0  0  1  0  0  0  0  0  0  0  0  0
  -28.0534  -29.0778   29.7888 C   0  0  2  0  0  0  0  0  0  0  0  0
  -26.7400  -31.0122   25.6238 C   0  0  0  0  0  0  0  0  0  0  0  0
  -25.9817  -11.6960   20.6403 N   0  0  0  0  0  0  0  0  0  0  0  0
  -27.4488  -19.5884   23.9545 N   0  0  0  0  0  0  0  0  0  0  0  0
  -26.2177  -12.9676   20.2751 N   0  0  0  0  0  0  0  0  0  0  0  0
  -24.5572  -28.1801   25.9069 N   0  0  0  0  0  0  0  0  0  0  0  0
  -29.7541  -14.3284   20.7762 N   0  0  0  0  0  0  0  0  0  0  0  0
  -25.1609  -15.0567   19.9156 N   0  0  0  0  0  0  0  0  0  0  0  0
  -21.7555  -12.3686   21.1697 N   0  0  0  0  0  0  0  0  0  0  0  0
  -21.4441  -28.1566   24.0085 N   0  0  0  0  0  0  0  0  0  0  0  0
  -26.8677  -29.7538   27.8157 N   0  0  0  0  0  0  0  0  0  0  0  0
  -29.4966  -16.5849   21.4362 N   0  0  0  0  0  0  0  0  0  0  0  0
  -28.2727  -27.7898   30.5057 N   0  3  0  0  0  0  0  0  0  0  0  0
  -22.3038  -14.4971   20.5158 O   0  0  0  0  0  0  0  0  0  0  0  0
  -23.6680  -28.6848   23.5638 O   0  0  0  0  0  0  0  0  0  0  0  0
  -24.1712  -30.2204   26.9673 O   0  0  0  0  0  0  0  0  0  0  0  0
  -28.2400  -27.8886   27.6940 O   0  0  0  0  0  0  0  0  0  0  0  0
  -31.4909  -15.8518   20.5746 O   0  0  0  0  0  0  0  0  0  0  0  0
  -22.1362   -6.9704   22.4924 O   0  0  0  0  0  0  0  0  0  0  0  0
  -26.2887  -22.6376   23.8247 O   0  0  0  0  0  0  0  0  0  1  0  0
  -18.4972   -7.3178   26.6205 F   0  0  0  0  0  0  0  0  0  0  0  0
  -22.5103   -5.5525   24.8360 F   0  0  0  0  0  0  0  0  0  0  0  0
  -29.1178  -17.7381   24.6212 Cl  0  0  0  0  0  0  0  0  0  0  0  0
  1  2  1  0  0  0  0
  1  5  2  0  0  0  0
  2  6  2  0  0  0  0
  3  8  2  0  0  0  0
  3 16  1  0  0  0  0
  4  9  1  0  0  0  0
  4 16  2  0  0  0  0
  5 18  1  0  0  0  0
  6 20  1  0  0  0  0
  7 10  2  0  0  0  0
  7 19  1  0  0  0  0
  8 24  1  0  0  0  0
  9 24  2  0  0  0  0
 10 25  1  0  0  0  0
 11 12  2  0  0  0  0
 11 26  1  0  0  0  0
 12 27  1  0  0  0  0
 13 21  1  0  0  0  0
 13 25  2  0  0  0  0
 14 22  1  0  0  0  0
 14 23  2  0  0  0  0
 15 27  2  0  0  0  0
 15 28  1  0  0  0  0
 16 29  1  0  0  0  0
 17 29  1  0  0  0  0
 17 32  2  0  0  0  0
 17 33  1  0  0  0  0
 18 20  2  0  0  0  0
 18 38  1  0  0  0  0
 19 21  2  0  0  0  0
 19 39  1  0  0  0  0
 20 47  1  0  0  0  0
 21 40  1  0  0  0  0
 22 30  2  0  0  0  0
 22 50  1  0  0  0  0
 23 31  1  0  0  0  0
 23 56  1  0  0  0  0
 24 77  1  0  0  0  0
 25 78  1  0  0  0  0
 26 28  2  0  0  0  0
 26 77  1  0  0  0  0
 27 79  1  0  0  0  0
 28 80  1  0  0  0  0
 29 61  2  0  0  0  0
 30 57  1  0  0  0  0
 30 62  1  0  0  0  0
 31 62  2  0  0  0  0
 31 81  1  0  0  0  0
 32 63  1  0  0  0  0
 32 66  1  0  0  0  0
 33 67  1  0  0  0  0
 33 72  2  0  0  0  0
 34 48  1  0  0  0  0
 34 68  1  0  0  0  0
 34 73  2  0  0  0  0
 35 58  1  0  0  0  0
 35 64  1  0  0  0  0
 35 74  2  0  0  0  0
 36 59  1  0  0  0  0
 36 69  1  0  0  0  0
 36 75  2  0  0  0  0
 37 65  1  0  0  0  0
 37 70  1  0  0  0  0
 37 76  2  0  0  0  0
 38 41  1  0  0  0  0
 39 48  1  0  0  0  0
 40 64  1  0  0  0  0
 41 43  1  0  0  0  0
 42 44  1  0  0  0  0
 42 45  1  0  0  0  0
 43 47  1  0  0  0  0
 44 49  1  0  0  0  0
 45 65  1  0  0  0  0
 46 49  1  0  0  0  0
 46 65  1  0  0  0  0
 47 68  1  0  0  0  0
 48 64  1  0  0  0  0
 49 63  1  0  0  0  0
 51 59  1  0  0  0  0
 52 60  1  0  0  0  0
 53 60  1  0  0  0  0
 54 60  1  0  0  0  0
 55 71  1  0  0  0  0
 56 70  1  0  0  0  0
 57 78  1  0  0  0  0
 58 60  1  0  0  0  0
 58 69  1  0  0  0  0
 59 71  1  0  0  0  0
 61 63  1  0  0  0  0
M  CHG  1  71   1
M  ISO  4  37 100  57 101  70 100  78 101
M  END
> <Batch ID>
0029

> <Smiles>
CNC(C)C(=O)NC(C(=O)N1Cc2cc([101O:1][101CH2:1]c3nc(Cl)c(C[100NH:0][100C:0](=O)N4CCCC(n5nc(-c6ccc(Oc7ccc(F)cc7F)cc6)c(C(N)=O)c5N)C4)cc3C)ccc2CC1C(=O)NC1CCCc2ccccc21)C(C)(C)C

> <Shape>
0.282

> <Color>
0.190

> <Negative vol penalty>
0.000

$$$$

  -OEChem-04052316363D

 95105  0     1  0  0  0  0  0999 V2000
  -20.1671  -17.0692   24.1453 C   0  0  0  0  0  0  0  0  0  0  0  0
  -20.8762  -17.9214   23.3049 C   0  0  0  0  0  0  0  0  0  0  0  0
  -27.3210  -12.6400   21.5287 C   0  0  0  0  0  0  0  0  0  0  0  0
  -26.8206  -13.9572   19.5662 C   0  0  0  0  0  0  0  0  0  0  0  0
  -18.9063  -17.4407   24.6103 C   0  0  0  0  0  0  0  0  0  0  0  0
  -20.3244  -19.1454   22.9282 C   0  0  0  0  0  0  0  0  0  0  0  0
  -23.6532  -22.9502   23.2230 C   0  0  0  0  0  0  0  0  0  0  0  0
  -29.0251  -22.4766   19.1428 C   0  0  0  0  0  0  0  0  0  0  0  0
  -26.9559  -22.2994   17.9083 C   0  0  0  0  0  0  0  0  0  0  0  0
  -26.4621  -11.6387   21.0757 C   0  0  0  0  0  0  0  0  0  0  0  0
  -25.9618  -12.9559   19.1131 C   0  0  0  0  0  0  0  0  0  0  0  0
  -24.5857  -23.0617   22.1925 C   0  0  0  0  0  0  0  0  0  0  0  0
  -24.1242   -8.8925   20.6104 C   0  0  0  0  0  0  0  0  0  0  0  0
  -29.3687  -21.1823   18.7526 C   0  0  0  0  0  0  0  0  0  0  0  0
  -27.2996  -21.0051   17.5180 C   0  0  0  0  0  0  0  0  0  0  0  0
  -23.2420   -8.3271   21.5311 C   0  0  0  0  0  0  0  0  0  0  0  0
  -23.2512  -24.7980   21.1808 C   0  0  0  0  0  0  0  0  0  0  0  0
  -22.2484  -10.4963   21.9111 C   0  0  0  0  0  0  0  0  0  0  0  0
  -26.4923  -28.0403   21.3610 C   0  0  0  0  0  0  0  0  0  0  0  0
  -27.5002  -13.7994   20.7740 C   0  0  0  0  0  0  0  0  0  0  0  0
  -29.7633  -14.9594   20.9746 C   0  0  0  0  0  0  0  0  0  0  0  0
  -18.3429  -18.6740   24.2469 C   0  0  0  0  0  0  0  0  0  0  0  0
  -22.5053  -23.7556   23.2343 C   0  0  0  0  0  0  0  0  0  0  0  0
  -19.0543  -19.5332   23.3877 C   0  0  0  0  0  0  0  0  0  0  0  0
  -22.3070  -24.6966   22.2139 C   0  0  0  0  0  0  0  0  0  0  0  0
  -27.8186  -23.0351   18.7207 C   0  0  0  0  0  0  0  0  0  0  0  0
  -27.1310  -27.4991   22.5059 C   0  0  0  0  0  0  0  0  0  0  0  0
  -25.7825  -11.7966   19.8678 C   0  0  0  0  0  0  0  0  0  0  0  0
  -24.3833  -23.9836   21.1697 C   0  0  0  0  0  0  0  0  0  0  0  0
  -24.0686  -10.2599   20.3402 C   0  0  0  0  0  0  0  0  0  0  0  0
  -28.5060  -20.4466   17.9402 C   0  0  0  0  0  0  0  0  0  0  0  0
  -22.3041   -9.1290   22.1814 C   0  0  0  0  0  0  0  0  0  0  0  0
  -23.1306  -11.0617   20.9905 C   0  0  0  0  0  0  0  0  0  0  0  0
  -28.3868  -14.8343   21.2418 C   0  0  0  0  0  0  0  0  0  0  0  0
  -27.2596  -26.1410   22.3060 C   0  0  0  0  0  0  0  0  0  0  0  0
  -26.2503  -26.9819   20.4938 C   0  0  0  0  0  0  0  0  0  0  0  0
  -26.0804  -29.3027   20.9363 C   0  0  0  0  0  0  0  0  0  0  0  0
  -30.1405  -16.0989   21.6422 C   0  0  0  0  0  0  0  0  0  0  0  0
  -25.3092  -28.3189   18.9920 C   0  0  0  0  0  0  0  0  0  0  0  0
  -30.6240  -14.1206   20.1927 C   0  0  0  0  0  0  0  0  0  0  0  0
  -19.3771  -23.2041   23.1174 C   0  0  0  0  0  0  0  0  0  0  0  0
  -19.1887  -26.4021   23.6268 C   0  0  0  0  0  0  0  0  0  0  0  0
  -20.6745  -29.4655   23.3929 C   0  0  0  0  0  0  0  0  0  0  0  0
  -29.3014  -21.3477   22.9435 C   0  0  0  0  0  0  0  0  0  0  0  0
  -16.9569  -19.0114   24.7366 C   0  0  0  0  0  0  0  0  0  0  0  0
  -21.5224  -23.6418   24.3671 C   0  0  0  0  0  0  0  0  0  0  0  0
  -21.1012  -25.5988   22.1906 C   0  0  0  0  0  0  0  0  0  0  0  0
  -16.6028  -20.4893   24.5921 C   0  0  0  0  0  0  0  0  0  0  0  0
  -27.6542  -18.9016   25.0413 C   0  0  0  0  0  0  0  0  0  0  0  0
  -16.9884  -20.9977   23.2066 C   0  0  0  0  0  0  0  0  0  0  0  0
  -27.8152  -17.6287   24.2083 C   0  0  0  0  0  0  0  0  0  0  0  0
  -27.4006  -20.1156   24.1524 C   0  0  0  0  0  0  0  0  0  0  0  0
  -28.5988  -19.0681   22.2708 C   0  0  0  0  0  0  0  0  0  0  0  0
  -18.4999  -20.8799   22.9767 C   0  0  1  0  0  0  0  0  0  0  0  0
  -20.1314  -24.1532   24.0050 C   0  0  1  0  0  0  0  0  0  0  0  0
  -28.8802  -17.8087   23.1102 C   0  0  2  0  0  0  0  0  0  0  0  0
  -27.5870  -28.2309   23.7068 C   0  0  0  0  0  0  0  0  0  0  0  0
  -24.6425  -28.5145   17.6704 C   0  0  0  0  0  0  0  0  0  0  0  0
  -20.2590  -31.8968   23.8550 C   0  0  0  0  0  0  0  0  0  0  0  0
  -17.4036  -26.5639   21.1575 C   0  0  0  0  0  0  0  0  0  0  0  0
  -17.8029  -29.0351   21.1165 C   0  0  0  0  0  0  0  0  0  0  0  0
  -16.6643  -27.9898   23.0744 C   0  0  0  0  0  0  0  0  0  0  0  0
  -22.9332  -29.6084   25.3000 C   0  0  0  0  0  0  0  0  0  0  0  0
  -27.4459  -24.4376   19.1425 C   0  0  0  0  0  0  0  0  0  0  0  0
  -27.8501  -25.1022   23.1776 C   0  0  0  0  0  0  0  0  0  0  0  0
  -29.2832  -24.6669   22.7917 C   0  0  0  0  0  0  0  0  0  0  0  0
  -29.8928  -23.6261   23.7283 C   0  0  0  0  0  0  0  0  0  0  0  0
  -19.1440  -27.6247   22.7423 C   0  0  1  0  0  0  0  0  0  0  0  0
  -20.8220  -30.5929   24.3988 C   0  0  2  0  0  0  0  0  0  0  0  0
  -26.6538  -24.4514   20.4667 C   0  0  1  0  0  0  0  0  0  1  0  0
  -17.7756  -27.7852   22.0218 C   0  0  0  0  0  0  0  0  0  0  0  0
  -27.9211  -15.8159   22.0187 N   0  0  0  0  0  0  0  0  0  0  0  0
  -25.6600  -27.0509   19.2878 N   0  0  0  0  0  0  0  0  0  0  0  0
  -25.4798  -29.4380   19.7314 N   0  0  0  0  0  0  0  0  0  0  0  0
  -26.7209  -25.8379   21.0818 N   0  0  0  0  0  0  0  0  0  0  0  0
  -29.0111  -16.5686   22.2455 N   0  0  0  0  0  0  0  0  0  0  0  0
  -20.1657  -25.4453   23.3170 N   0  0  0  0  0  0  0  0  0  0  0  0
  -28.4595  -20.2406   23.1409 N   0  0  0  0  0  0  0  0  0  0  0  0
  -31.3248  -16.7349   21.7662 N   0  0  0  0  0  0  0  0  0  0  0  0
  -30.0734  -12.9895   19.5748 N   0  0  0  0  0  0  0  0  0  0  0  0
  -19.1997  -21.9460   23.6609 N   0  0  0  0  0  0  0  0  0  0  0  0
  -19.5093  -28.7549   23.5895 N   0  0  0  0  0  0  0  0  0  0  0  0
  -29.1000  -22.4192   23.8049 N   0  0  0  0  0  0  0  0  0  0  0  0
  -22.2589  -30.8044   24.7328 N   0  3  0  0  0  0  0  0  0  0  0  0
  -31.8486  -14.3578   20.0598 O   0  0  0  0  0  0  0  0  0  0  0  0
  -18.9836  -23.5854   22.0212 O   0  0  0  0  0  0  0  0  0  0  0  0
  -18.3911  -26.3031   24.5625 O   0  0  0  0  0  0  0  0  0  0  0  0
  -21.5077  -29.2403   22.5179 O   0  0  0  0  0  0  0  0  0  0  0  0
  -30.1724  -21.3771   22.0673 O   0  0  0  0  0  0  0  0  0  0  0  0
  -24.9446  -10.8196   19.4253 O   0  0  0  0  0  0  0  0  0  0  0  0
  -25.2916  -24.0940   20.1624 O   0  0  0  0  0  0  0  0  0  1  0  0
  -28.8372  -19.2046   17.5631 F   0  0  0  0  0  0  0  0  0  0  0  0
  -21.4560   -8.5856   23.0644 F   0  0  0  0  0  0  0  0  0  0  0  0
  -23.0716  -12.3757   20.7341 F   0  0  0  0  0  0  0  0  0  0  0  0
  -26.3149  -30.6749   21.8971 Cl  0  0  0  0  0  0  0  0  0  0  0  0
  1  2  1  0  0  0  0
  1  5  2  0  0  0  0
  2  6  2  0  0  0  0
  3 10  2  0  0  0  0
  3 20  1  0  0  0  0
  4 11  1  0  0  0  0
  4 20  2  0  0  0  0
  5 22  1  0  0  0  0
  6 24  1  0  0  0  0
  7 12  2  0  0  0  0
  7 23  1  0  0  0  0
  8 14  2  0  0  0  0
  8 26  1  0  0  0  0
  9 15  1  0  0  0  0
  9 26  2  0  0  0  0
 10 28  1  0  0  0  0
 11 28  2  0  0  0  0
 12 29  1  0  0  0  0
 13 16  2  0  0  0  0
 13 30  1  0  0  0  0
 14 31  1  0  0  0  0
 15 31  2  0  0  0  0
 16 32  1  0  0  0  0
 17 25  1  0  0  0  0
 17 29  2  0  0  0  0
 18 32  2  0  0  0  0
 18 33  1  0  0  0  0
 19 27  1  0  0  0  0
 19 36  2  0  0  0  0
 19 37  1  0  0  0  0
 20 34  1  0  0  0  0
 21 34  1  0  0  0  0
 21 38  2  0  0  0  0
 21 40  1  0  0  0  0
 22 24  2  0  0  0  0
 22 45  1  0  0  0  0
 23 25  2  0  0  0  0
 23 46  1  0  0  0  0
 24 54  1  0  0  0  0
 25 47  1  0  0  0  0
 26 64  1  0  0  0  0
 27 35  2  0  0  0  0
 27 57  1  0  0  0  0
 28 90  1  0  0  0  0
 29 91  1  0  0  0  0
 30 33  2  0  0  0  0
 30 90  1  0  0  0  0
 31 92  1  0  0  0  0
 32 93  1  0  0  0  0
 33 94  1  0  0  0  0
 34 72  2  0  0  0  0
 35 65  1  0  0  0  0
 35 75  1  0  0  0  0
 36 73  1  0  0  0  0
 36 75  1  0  0  0  0
 37 74  2  0  0  0  0
 37 95  1  0  0  0  0
 38 76  1  0  0  0  0
 38 79  1  0  0  0  0
 39 58  1  0  0  0  0
 39 73  2  0  0  0  0
 39 74  1  0  0  0  0
 40 80  1  0  0  0  0
 40 85  2  0  0  0  0
 41 55  1  0  0  0  0
 41 81  1  0  0  0  0
 41 86  2  0  0  0  0
 42 68  1  0  0  0  0
 42 77  1  0  0  0  0
 42 87  2  0  0  0  0
 43 69  1  0  0  0  0
 43 82  1  0  0  0  0
 43 88  2  0  0  0  0
 44 78  1  0  0  0  0
 44 83  1  0  0  0  0
 44 89  2  0  0  0  0
 45 48  1  0  0  0  0
 46 55  1  0  0  0  0
 47 77  1  0  0  0  0
 48 50  1  0  0  0  0
 49 51  1  0  0  0  0
 49 52  1  0  0  0  0
 50 54  1  0  0  0  0
 51 56  1  0  0  0  0
 52 78  1  0  0  0  0
 53 56  1  0  0  0  0
 53 78  1  0  0  0  0
 54 81  1  0  0  0  0
 55 77  1  0  0  0  0
 56 76  1  0  0  0  0
 59 69  1  0  0  0  0
 60 71  1  0  0  0  0
 61 71  1  0  0  0  0
 62 71  1  0  0  0  0
 63 84  1  0  0  0  0
 64 70  1  0  0  0  0
 65 66  1  0  0  0  0
 66 67  1  0  0  0  0
 67 83  1  0  0  0  0
 68 71  1  0  0  0  0
 68 82  1  0  0  0  0
 69 84  1  0  0  0  0
 70 75  1  0  0  0  0
 70 91  1  0  0  0  0
 72 76  1  0  0  0  0
M  CHG  1  84   1
M  ISO  4  44 100  70 101  83 100  91 101
M  END
> <Batch ID>
0029

> <Smiles>
CNC(C)C(=O)NC(C(=O)N1Cc2cc([101O:1][101CH:1](Cc3ccc(F)cc3)n3c(CCC[100NH:0][100C:0](=O)N4CCCC(n5nc(-c6ccc(Oc7ccc(F)cc7F)cc6)c(C(N)=O)c5N)C4)c(C)c4c(Cl)nc(C)nc43)ccc2CC1C(=O)NC1CCCc2ccccc21)C(C)(C)C

> <Shape>
0.223

> <Color>
0.052

> <Negative vol penalty>
0.000

$$$$

  -OEChem-04052316363D

 89 98  0     1  0  0  0  0  0999 V2000
  -26.0486  -35.7471   21.5974 C   0  0  0  0  0  0  0  0  0  0  0  0
  -26.5934  -34.4670   21.5971 C   0  0  0  0  0  0  0  0  0  0  0  0
  -23.8474  -18.2052   24.7873 C   0  0  0  0  0  0  0  0  0  0  0  0
  -24.0559  -19.8324   23.0137 C   0  0  0  0  0  0  0  0  0  0  0  0
  -24.7972  -35.9707   22.1700 C   0  0  0  0  0  0  0  0  0  0  0  0
  -25.8875  -33.4099   22.1702 C   0  0  0  0  0  0  0  0  0  0  0  0
  -25.9384  -29.2487   19.2847 C   0  0  0  0  0  0  0  0  0  0  0  0
  -23.2023  -19.1532   25.5813 C   0  0  0  0  0  0  0  0  0  0  0  0
  -23.4107  -20.7805   23.8078 C   0  0  0  0  0  0  0  0  0  0  0  0
  -27.0981  -28.4750   19.3035 C   0  0  0  0  0  0  0  0  0  0  0  0
  -20.1103  -20.4970   25.8404 C   0  0  0  0  0  0  0  0  0  0  0  0
  -18.9633  -20.0963   26.5255 C   0  0  0  0  0  0  0  0  0  0  0  0
  -28.9145  -21.0877   18.7387 C   0  0  0  0  0  0  0  0  0  0  0  0
  -26.0455  -26.9456   20.8437 C   0  0  0  0  0  0  0  0  0  0  0  0
  -29.6662  -23.0082   16.8986 C   0  0  0  0  0  0  0  0  0  0  0  0
  -20.0284  -20.6380   28.6254 C   0  0  0  0  0  0  0  0  0  0  0  0
  -24.2743  -18.5448   23.5035 C   0  0  0  0  0  0  0  0  0  0  0  0
  -24.3449  -16.6622   21.7834 C   0  0  0  0  0  0  0  0  0  0  0  0
  -24.0713  -34.9140   22.7419 C   0  0  0  0  0  0  0  0  0  0  0  0
  -24.8255  -28.8820   20.0550 C   0  0  0  0  0  0  0  0  0  0  0  0
  -24.6257  -33.6198   22.7522 C   0  0  0  0  0  0  0  0  0  0  0  0
  -28.8070  -22.4492   19.1028 C   0  0  0  0  0  0  0  0  0  0  0  0
  -24.8720  -27.7150   20.8309 C   0  0  0  0  0  0  0  0  0  0  0  0
  -29.1630  -23.4345   18.1488 C   0  0  0  0  0  0  0  0  0  0  0  0
  -29.3950  -20.6961   17.4910 C   0  0  0  0  0  0  0  0  0  0  0  0
  -22.9839  -20.4409   25.0916 C   0  0  0  0  0  0  0  0  0  0  0  0
  -27.1528  -27.3248   20.0853 C   0  0  0  0  0  0  0  0  0  0  0  0
  -21.2164  -20.9681   26.5477 C   0  0  0  0  0  0  0  0  0  0  0  0
  -18.9223  -20.1669   27.9180 C   0  0  0  0  0  0  0  0  0  0  0  0
  -21.1754  -21.0386   27.9402 C   0  0  0  0  0  0  0  0  0  0  0  0
  -29.7796  -21.6580   16.5724 C   0  0  0  0  0  0  0  0  0  0  0  0
  -24.9413  -17.5660   22.6830 C   0  0  0  0  0  0  0  0  0  0  0  0
  -25.3987  -15.9554   21.2576 C   0  0  0  0  0  0  0  0  0  0  0  0
  -22.9620  -16.4782   21.4525 C   0  0  0  0  0  0  0  0  0  0  0  0
  -23.2141  -30.2188   22.4466 C   0  0  0  0  0  0  0  0  0  0  0  0
  -21.2345  -27.6859   22.0125 C   0  0  0  0  0  0  0  0  0  0  0  0
  -20.8200  -24.4937   20.8791 C   0  0  0  0  0  0  0  0  0  0  0  0
  -31.2130  -17.2102   20.5721 C   0  0  0  0  0  0  0  0  0  0  0  0
  -22.7431  -35.2132   23.3909 C   0  0  0  0  0  0  0  0  0  0  0  0
  -23.5727  -29.7127   20.0030 C   0  0  0  0  0  0  0  0  0  0  0  0
  -23.6974  -27.2668   21.6602 C   0  0  0  0  0  0  0  0  0  0  0  0
  -21.8949  -33.9695   23.6439 C   0  0  0  0  0  0  0  0  0  0  0  0
  -29.8113  -14.4543   22.3376 C   0  0  0  0  0  0  0  0  0  0  0  0
  -22.7391  -32.8669   24.2752 C   0  0  0  0  0  0  0  0  0  0  0  0
  -28.3504  -14.8577   22.5451 C   0  0  0  0  0  0  0  0  0  0  0  0
  -28.5087  -24.2908   20.8372 C   0  0  0  0  0  0  0  0  0  0  0  0
  -30.7489  -15.6550   22.4436 C   0  0  0  0  0  0  0  0  0  0  0  0
  -28.9432  -17.1928   21.7739 C   0  0  0  0  0  0  0  0  0  0  0  0
  -23.8796  -32.4427   23.3421 C   0  0  1  0  0  0  0  0  0  0  0  0
  -22.6799  -29.5247   21.2257 C   0  0  1  0  0  0  0  0  0  0  0  0
  -27.9542  -16.0246   21.6207 C   0  0  2  0  0  0  0  0  0  0  0  0
  -28.1586  -25.2095   19.6750 C   0  0  2  0  0  0  0  0  0  1  0  0
  -28.2736  -22.8048   20.4959 C   0  0  0  0  0  0  0  0  0  0  0  0
  -29.0625  -24.9404   18.4419 C   0  0  0  0  0  0  0  0  0  0  0  0
  -28.9733  -21.9841   21.6054 C   0  0  0  0  0  0  0  0  0  0  0  0
  -26.7607  -22.4941   20.5428 C   0  0  0  0  0  0  0  0  0  0  0  0
  -30.4945  -25.4862   18.6606 C   0  0  0  0  0  0  0  0  0  0  0  0
  -28.4380  -25.7156   17.2531 C   0  0  0  0  0  0  0  0  0  0  0  0
  -19.0993  -22.6763   20.6959 C   0  0  0  0  0  0  0  0  0  0  0  0
  -21.5582  -27.0830   24.9860 C   0  0  0  0  0  0  0  0  0  0  0  0
  -20.6349  -24.7967   24.5517 C   0  0  0  0  0  0  0  0  0  0  0  0
  -19.2302  -26.8110   24.1138 C   0  0  0  0  0  0  0  0  0  0  0  0
  -20.9889  -24.4721   17.9245 C   0  0  0  0  0  0  0  0  0  0  0  0
  -29.4823  -19.2357   17.1868 C   0  0  0  0  0  0  0  0  0  0  0  0
  -30.8969  -18.6419   17.3234 C   0  0  0  0  0  0  0  0  0  0  0  0
  -31.5221  -18.8165   18.7058 C   0  0  0  0  0  0  0  0  0  0  0  0
  -21.1568  -26.2829   22.5643 C   0  0  1  0  0  0  0  0  0  0  0  0
  -19.7485  -23.8660   20.0060 C   0  0  2  0  0  0  0  0  0  0  0  0
  -20.6680  -26.2526   24.0399 C   0  0  0  0  0  0  0  0  0  0  0  0
  -26.2708  -17.4463   22.7287 N   0  0  0  0  0  0  0  0  0  0  0  0
  -26.5185  -16.4589   21.8513 N   0  0  0  0  0  0  0  0  0  0  0  0
  -22.4973  -28.1160   21.5809 N   0  0  0  0  0  0  0  0  0  0  0  0
  -30.3187  -16.7254   21.5407 N   0  0  0  0  0  0  0  0  0  0  0  0
  -25.4673  -14.9584   20.3500 N   0  0  0  0  0  0  0  0  0  0  0  0
  -22.0100  -17.2889   22.0855 N   0  0  0  0  0  0  0  0  0  0  0  0
  -23.3796  -31.5819   22.2917 N   0  0  0  0  0  0  0  0  0  0  0  0
  -20.3173  -25.5271   21.6411 N   0  0  0  0  0  0  0  0  0  0  0  0
  -30.7233  -18.2203   19.7532 N   0  0  0  0  0  0  0  0  0  0  0  0
  -20.3370  -23.3993   18.7188 N   0  3  0  0  0  0  0  0  0  0  0  0
  -22.5805  -15.6090   20.6325 O   0  0  0  0  0  0  0  0  0  0  0  0
  -23.4566  -29.5662   23.4551 O   0  0  0  0  0  0  0  0  0  0  0  0
  -20.2110  -28.3725   21.9596 O   0  0  0  0  0  0  0  0  0  0  0  0
  -21.9855  -24.1037   20.8874 O   0  0  0  0  0  0  0  0  0  0  0  0
  -32.3610  -16.7714   20.4430 O   0  0  0  0  0  0  0  0  0  0  0  0
  -22.3542  -21.3662   25.8660 O   0  0  0  0  0  0  0  0  0  0  0  0
  -28.2893  -26.5644   20.1061 O   0  0  0  0  0  0  0  0  0  1  0  0
  -17.8202  -19.7835   28.5757 F   0  0  0  0  0  0  0  0  0  0  0  0
  -22.2345  -21.4915   28.6251 F   0  0  0  0  0  0  0  0  0  0  0  0
  -30.3986  -21.2249   15.0209 Cl  0  0  0  0  0  0  0  0  0  0  0  0
  1  2  1  0  0  0  0
  1  5  2  0  0  0  0
  2  6  2  0  0  0  0
  3  8  2  0  0  0  0
  3 17  1  0  0  0  0
  4  9  1  0  0  0  0
  4 17  2  0  0  0  0
  5 19  1  0  0  0  0
  6 21  1  0  0  0  0
  7 10  2  0  0  0  0
  7 20  1  0  0  0  0
  8 26  1  0  0  0  0
  9 26  2  0  0  0  0
 10 27  1  0  0  0  0
 11 12  2  0  0  0  0
 11 28  1  0  0  0  0
 12 29  1  0  0  0  0
 13 22  1  0  0  0  0
 13 25  2  0  0  0  0
 14 23  1  0  0  0  0
 14 27  2  0  0  0  0
 15 24  1  0  0  0  0
 15 31  2  0  0  0  0
 16 29  2  0  0  0  0
 16 30  1  0  0  0  0
 17 32  1  0  0  0  0
 18 32  1  0  0  0  0
 18 33  2  0  0  0  0
 18 34  1  0  0  0  0
 19 21  2  0  0  0  0
 19 39  1  0  0  0  0
 20 23  2  0  0  0  0
 20 40  1  0  0  0  0
 21 49  1  0  0  0  0
 22 24  2  0  0  0  0
 22 53  1  0  0  0  0
 23 41  1  0  0  0  0
 24 54  1  0  0  0  0
 25 31  1  0  0  0  0
 25 64  1  0  0  0  0
 26 85  1  0  0  0  0
 27 86  1  0  0  0  0
 28 30  2  0  0  0  0
 28 85  1  0  0  0  0
 29 87  1  0  0  0  0
 30 88  1  0  0  0  0
 31 89  1  0  0  0  0
 32 70  2  0  0  0  0
 33 71  1  0  0  0  0
 33 74  1  0  0  0  0
 34 75  1  0  0  0  0
 34 80  2  0  0  0  0
 35 50  1  0  0  0  0
 35 76  1  0  0  0  0
 35 81  2  0  0  0  0
 36 67  1  0  0  0  0
 36 72  1  0  0  0  0
 36 82  2  0  0  0  0
 37 68  1  0  0  0  0
 37 77  1  0  0  0  0
 37 83  2  0  0  0  0
 38 73  1  0  0  0  0
 38 78  1  0  0  0  0
 38 84  2  0  0  0  0
 39 42  1  0  0  0  0
 40 50  1  0  0  0  0
 41 72  1  0  0  0  0
 42 44  1  0  0  0  0
 43 45  1  0  0  0  0
 43 47  1  0  0  0  0
 44 49  1  0  0  0  0
 45 51  1  0  0  0  0
 46 52  1  0  0  0  0
 46 53  1  0  0  0  0
 47 73  1  0  0  0  0
 48 51  1  0  0  0  0
 48 73  1  0  0  0  0
 49 76  1  0  0  0  0
 50 72  1  0  0  0  0
 51 71  1  0  0  0  0
 52 54  1  0  0  0  0
 52 86  1  0  0  0  0
 53 55  1  0  0  0  0
 53 56  1  0  0  0  0
 54 57  1  0  0  0  0
 54 58  1  0  0  0  0
 59 68  1  0  0  0  0
 60 69  1  0  0  0  0
 61 69  1  0  0  0  0
 62 69  1  0  0  0  0
 63 79  1  0  0  0  0
 64 65  1  0  0  0  0
 65 66  1  0  0  0  0
 66 78  1  0  0  0  0
 67 69  1  0  0  0  0
 67 77  1  0  0  0  0
 68 79  1  0  0  0  0
 70 71  1  0  0  0  0
M  CHG  1  79   1
M  ISO  4  38 100  52 101  78 100  86 101
M  END
> <Batch ID>
0029

> <Smiles>
CNC(C)C(=O)NC(C(=O)N1Cc2cc([101O:1][101CH:1]3CC(C)(C)c4cc(CCC[100NH:0][100C:0](=O)N5CCCC(n6nc(-c7ccc(Oc8ccc(F)cc8F)cc7)c(C(N)=O)c6N)C5)c(Cl)cc4C3(C)C)ccc2CC1C(=O)NC1CCCc2ccccc21)C(C)(C)C

> <Shape>
0.216

> <Color>
0.091

> <Negative vol penalty>
0.000

$$$$

  -OEChem-04052316363D

 85 93  0     1  0  0  0  0  0999 V2000
  -24.4632   -3.4489   25.0304 C   0  0  0  0  0  0  0  0  0  0  0  0
  -25.0908   -4.6876   24.9460 C   0  0  0  0  0  0  0  0  0  0  0  0
  -23.0714   -9.8705   19.9420 C   0  0  0  0  0  0  0  0  0  0  0  0
  -23.8338   -9.8782   22.2345 C   0  0  0  0  0  0  0  0  0  0  0  0
  -23.1901   -3.3505   25.5903 C   0  0  0  0  0  0  0  0  0  0  0  0
  -24.4452   -5.8289   25.4205 C   0  0  0  0  0  0  0  0  0  0  0  0
  -27.0447  -10.6833   28.1006 C   0  0  0  0  0  0  0  0  0  0  0  0
  -22.3276   -8.7176   20.1932 C   0  0  0  0  0  0  0  0  0  0  0  0
  -23.0900   -8.7253   22.4858 C   0  0  0  0  0  0  0  0  0  0  0  0
  -27.4173  -11.9357   27.6143 C   0  0  0  0  0  0  0  0  0  0  0  0
  -22.8997   -5.3991   20.4848 C   0  0  0  0  0  0  0  0  0  0  0  0
  -22.9654   -4.3692   19.5464 C   0  0  0  0  0  0  0  0  0  0  0  0
  -25.3269  -12.8534   28.3935 C   0  0  0  0  0  0  0  0  0  0  0  0
  -29.3666  -18.8916   22.1697 C   0  0  0  0  0  0  0  0  0  0  0  0
  -20.5805   -4.5352   19.1973 C   0  0  0  0  0  0  0  0  0  0  0  0
  -23.8245  -10.4508   20.9627 C   0  0  0  0  0  0  0  0  0  0  0  0
  -24.1666  -12.9759   20.8413 C   0  0  0  0  0  0  0  0  0  0  0  0
  -22.5325   -4.4897   26.0807 C   0  0  0  0  0  0  0  0  0  0  0  0
  -25.8037  -10.5039   28.7284 C   0  0  0  0  0  0  0  0  0  0  0  0
  -23.1616   -5.7458   25.9863 C   0  0  0  0  0  0  0  0  0  0  0  0
  -24.9420  -11.5983   28.8892 C   0  0  0  0  0  0  0  0  0  0  0  0
  -29.9417  -17.7608   22.7494 C   0  0  0  0  0  0  0  0  0  0  0  0
  -28.3087  -19.4321   24.2735 C   0  0  0  0  0  0  0  0  0  0  0  0
  -28.8837  -18.3012   24.8532 C   0  0  0  0  0  0  0  0  0  0  0  0
  -22.3369   -8.1450   21.4651 C   0  0  0  0  0  0  0  0  0  0  0  0
  -26.5571  -13.0203   27.7581 C   0  0  0  0  0  0  0  0  0  0  0  0
  -21.6744   -5.9971   20.7794 C   0  0  0  0  0  0  0  0  0  0  0  0
  -21.8058   -3.9372   18.9027 C   0  0  0  0  0  0  0  0  0  0  0  0
  -20.5149   -5.5652   20.1357 C   0  0  0  0  0  0  0  0  0  0  0  0
  -28.5501  -19.7273   22.9318 C   0  0  0  0  0  0  0  0  0  0  0  0
  -29.7002  -17.4655   24.0912 C   0  0  0  0  0  0  0  0  0  0  0  0
  -24.5935  -11.6415   20.7036 C   0  0  0  0  0  0  0  0  0  0  0  0
  -25.2585  -13.7251   20.4765 C   0  0  0  0  0  0  0  0  0  0  0  0
  -22.8967  -13.4920   21.2614 C   0  0  0  0  0  0  0  0  0  0  0  0
  -23.2170   -8.7574   28.1264 C   0  0  0  0  0  0  0  0  0  0  0  0
  -22.2591   -9.8882   31.0119 C   0  0  0  0  0  0  0  0  0  0  0  0
  -22.5050  -12.3138   33.4000 C   0  0  0  0  0  0  0  0  0  0  0  0
  -30.7426  -14.7433   20.6585 C   0  0  0  0  0  0  0  0  0  0  0  0
  -21.1376   -4.3407   26.6343 C   0  0  0  0  0  0  0  0  0  0  0  0
  -25.4281   -9.1524   29.2714 C   0  0  0  0  0  0  0  0  0  0  0  0
  -23.6073  -11.4628   29.5737 C   0  0  0  0  0  0  0  0  0  0  0  0
  -20.6764   -5.5424   27.4551 C   0  0  0  0  0  0  0  0  0  0  0  0
  -29.6020  -12.3581   18.2738 C   0  0  0  0  0  0  0  0  0  0  0  0
  -20.9934   -6.8424   26.7227 C   0  0  0  0  0  0  0  0  0  0  0  0
  -28.1650  -12.0648   18.7085 C   0  0  0  0  0  0  0  0  0  0  0  0
  -30.5205  -12.5792   19.4736 C   0  0  0  0  0  0  0  0  0  0  0  0
  -28.6204  -13.3111   20.8621 C   0  0  0  0  0  0  0  0  0  0  0  0
  -22.5039   -7.0030   26.5126 C   0  0  1  0  0  0  0  0  0  0  0  0
  -23.9222   -8.9720   29.4357 C   0  0  1  0  0  0  0  0  0  0  0  0
  -27.6449  -13.1362   19.6856 C   0  0  2  0  0  0  0  0  0  0  0  0
  -27.4352  -20.3227   25.1020 C   0  0  0  0  0  0  0  0  0  0  0  0
  -21.5698  -12.9848   35.6299 C   0  0  0  0  0  0  0  0  0  0  0  0
  -19.6991  -10.8376   29.6498 C   0  0  0  0  0  0  0  0  0  0  0  0
  -19.2620  -12.2917   31.6405 C   0  0  0  0  0  0  0  0  0  0  0  0
  -19.3621   -9.8134   31.9063 C   0  0  0  0  0  0  0  0  0  0  0  0
  -25.1620  -12.1511   34.6934 C   0  0  0  0  0  0  0  0  0  0  0  0
  -30.8101  -16.8944   21.8945 C   0  0  0  0  0  0  0  0  0  0  0  0
  -28.6135  -17.9982   26.2975 C   0  0  0  0  0  0  0  0  0  0  0  0
  -27.4137  -16.5125   27.9075 C   0  0  0  0  0  0  0  0  0  0  0  0
  -26.4033  -15.3841   27.9699 C   0  0  0  0  0  0  0  0  0  1  0  0
  -21.4961  -11.1020   31.4848 C   0  0  1  0  0  0  0  0  0  0  0  0
  -22.6746  -12.2308   34.9062 C   0  0  2  0  0  0  0  0  0  0  0  0
  -19.9791  -11.0137   31.1557 C   0  0  0  0  0  0  0  0  0  0  0  0
  -25.8579  -11.5453   20.2840 N   0  0  0  0  0  0  0  0  0  0  0  0
  -26.2348  -12.8288   20.1547 N   0  0  0  0  0  0  0  0  0  0  0  0
  -23.2826  -10.1198   30.0821 N   0  0  0  0  0  0  0  0  0  0  0  0
  -29.9710  -13.6082   20.3598 N   0  0  0  0  0  0  0  0  0  0  0  0
  -25.4690  -15.0565   20.4028 N   0  0  0  0  0  0  0  0  0  0  0  0
  -21.8850  -12.5832   21.6002 N   0  0  0  0  0  0  0  0  0  0  0  0
  -23.1417   -7.4333   27.7383 N   0  0  0  0  0  0  0  0  0  0  0  0
  -21.7920  -11.2417   32.9065 N   0  0  0  0  0  0  0  0  0  0  0  0
  -30.1445  -15.6726   21.5008 N   0  0  0  0  0  0  0  0  0  0  0  0
  -23.9850  -12.8128   35.3128 N   0  3  0  0  0  0  0  0  0  0  0  0
  -27.6557  -16.8757   26.4884 N   0  3  0  0  0  0  0  0  0  0  0  0
  -22.6607  -14.7227   21.3186 O   0  0  0  0  0  0  0  0  0  0  0  0
  -22.7728   -9.7216   27.5143 O   0  0  0  0  0  0  0  0  0  0  0  0
  -21.9627   -8.7765   31.4567 O   0  0  0  0  0  0  0  0  0  0  0  0
  -22.9565  -13.2391   32.7288 O   0  0  0  0  0  0  0  0  0  0  0  0
  -31.8780  -14.9185   20.2035 O   0  0  0  0  0  0  0  0  0  0  0  0
  -21.6110   -7.0201   21.7107 O   0  0  0  0  0  0  0  0  0  0  0  0
  -26.9179  -14.2437   27.2837 O   0  0  0  0  0  0  0  0  0  1  0  0
  -21.8693   -2.9492   18.0005 F   0  0  0  0  0  0  0  0  0  0  0  0
  -19.3350   -6.1366   20.4137 F   0  0  0  0  0  0  0  0  0  0  0  0
  -27.8595  -21.1183   22.1768 Cl  0  0  0  0  0  0  0  0  0  0  0  0
  -30.4157  -16.0593   24.8070 Cl  0  0  0  0  0  0  0  0  0  0  0  0
  1  2  1  0  0  0  0
  1  5  2  0  0  0  0
  2  6  2  0  0  0  0
  3  8  2  0  0  0  0
  3 16  1  0  0  0  0
  4  9  1  0  0  0  0
  4 16  2  0  0  0  0
  5 18  1  0  0  0  0
  6 20  1  0  0  0  0
  7 10  2  0  0  0  0
  7 19  1  0  0  0  0
  8 25  1  0  0  0  0
  9 25  2  0  0  0  0
 10 26  1  0  0  0  0
 11 12  2  0  0  0  0
 11 27  1  0  0  0  0
 12 28  1  0  0  0  0
 13 21  1  0  0  0  0
 13 26  2  0  0  0  0
 14 22  2  0  0  0  0
 14 30  1  0  0  0  0
 15 28  2  0  0  0  0
 15 29  1  0  0  0  0
 16 32  1  0  0  0  0
 17 32  1  0  0  0  0
 17 33  2  0  0  0  0
 17 34  1  0  0  0  0
 18 20  2  0  0  0  0
 18 39  1  0  0  0  0
 19 21  2  0  0  0  0
 19 40  1  0  0  0  0
 20 48  1  0  0  0  0
 21 41  1  0  0  0  0
 22 31  1  0  0  0  0
 22 57  1  0  0  0  0
 23 24  1  0  0  0  0
 23 30  2  0  0  0  0
 23 51  1  0  0  0  0
 24 31  2  0  0  0  0
 24 58  1  0  0  0  0
 25 80  1  0  0  0  0
 26 81  1  0  0  0  0
 27 29  2  0  0  0  0
 27 80  1  0  0  0  0
 28 82  1  0  0  0  0
 29 83  1  0  0  0  0
 30 84  1  0  0  0  0
 31 85  1  0  0  0  0
 32 64  2  0  0  0  0
 33 65  1  0  0  0  0
 33 68  1  0  0  0  0
 34 69  1  0  0  0  0
 34 75  2  0  0  0  0
 35 49  1  0  0  0  0
 35 70  1  0  0  0  0
 35 76  2  0  0  0  0
 36 61  1  0  0  0  0
 36 66  1  0  0  0  0
 36 77  2  0  0  0  0
 37 62  1  0  0  0  0
 37 71  1  0  0  0  0
 37 78  2  0  0  0  0
 38 67  1  0  0  0  0
 38 72  1  0  0  0  0
 38 79  2  0  0  0  0
 39 42  1  0  0  0  0
 40 49  1  0  0  0  0
 41 66  1  0  0  0  0
 42 44  1  0  0  0  0
 43 45  1  0  0  0  0
 43 46  1  0  0  0  0
 44 48  1  0  0  0  0
 45 50  1  0  0  0  0
 46 67  1  0  0  0  0
 47 50  1  0  0  0  0
 47 67  1  0  0  0  0
 48 70  1  0  0  0  0
 49 66  1  0  0  0  0
 50 65  1  0  0  0  0
 52 62  1  0  0  0  0
 53 63  1  0  0  0  0
 54 63  1  0  0  0  0
 55 63  1  0  0  0  0
 56 73  1  0  0  0  0
 57 72  1  0  0  0  0
 58 74  1  0  0  0  0
 59 60  1  0  0  0  0
 59 74  1  0  0  0  0
 60 81  1  0  0  0  0
 61 63  1  0  0  0  0
 61 71  1  0  0  0  0
 62 73  1  0  0  0  0
 64 65  1  0  0  0  0
M  CHG  2  73   1  74   1
M  ISO  4  38 100  60 101  72 100  81 101
M  END
> <Batch ID>
0029

> <Smiles>
CNC(C)C(=O)NC(C(=O)N1Cc2cc([101O:1][101CH2:1]CNCc3c(C)c(Cl)cc(C[100NH:0][100C:0](=O)N4CCCC(n5nc(-c6ccc(Oc7ccc(F)cc7F)cc6)c(C(N)=O)c5N)C4)c3Cl)ccc2CC1C(=O)NC1CCCc2ccccc21)C(C)(C)C

> <Shape>
0.165

> <Color>
0.191

> <Negative vol penalty>
0.000

$$$$

  -OEChem-04052316363D

 87 95  0     1  0  0  0  0  0999 V2000
  -16.4012  -23.0511   23.1703 C   0  0  0  0  0  0  0  0  0  0  0  0
  -17.3970  -22.5534   22.3359 C   0  0  0  0  0  0  0  0  0  0  0  0
  -25.6829  -15.8463   21.6279 C   0  0  0  0  0  0  0  0  0  0  0  0
  -25.0490  -16.8453   19.5214 C   0  0  0  0  0  0  0  0  0  0  0  0
  -16.2695  -24.4270   23.3529 C   0  0  0  0  0  0  0  0  0  0  0  0
  -18.2610  -23.4316   21.6827 C   0  0  0  0  0  0  0  0  0  0  0  0
  -24.1787  -22.5056   20.4064 C   0  0  0  0  0  0  0  0  0  0  0  0
  -24.3879  -15.3518   21.7831 C   0  0  0  0  0  0  0  0  0  0  0  0
  -23.7540  -16.3507   19.6765 C   0  0  0  0  0  0  0  0  0  0  0  0
  -24.8346  -22.0899   19.2485 C   0  0  0  0  0  0  0  0  0  0  0  0
  -22.5478  -12.7735   20.6002 C   0  0  0  0  0  0  0  0  0  0  0  0
  -22.4049  -11.4495   21.0151 C   0  0  0  0  0  0  0  0  0  0  0  0
  -25.2573  -24.3929   18.6683 C   0  0  0  0  0  0  0  0  0  0  0  0
  -29.2560  -20.7044   16.0344 C   0  0  0  0  0  0  0  0  0  0  0  0
  -28.4202  -22.8109   15.1973 C   0  0  0  0  0  0  0  0  0  0  0  0
  -21.2020  -12.1933   22.9740 C   0  0  0  0  0  0  0  0  0  0  0  0
  -26.0134  -16.5932   20.4971 C   0  0  0  0  0  0  0  0  0  0  0  0
  -28.4355  -16.4657   19.7067 C   0  0  0  0  0  0  0  0  0  0  0  0
  -17.1384  -25.3221   22.7091 C   0  0  0  0  0  0  0  0  0  0  0  0
  -24.0474  -23.8708   20.6989 C   0  0  0  0  0  0  0  0  0  0  0  0
  -18.1399  -24.8209   21.8558 C   0  0  0  0  0  0  0  0  0  0  0  0
  -24.6015  -24.8233   19.8318 C   0  0  0  0  0  0  0  0  0  0  0  0
  -28.1875  -21.5070   15.6346 C   0  0  0  0  0  0  0  0  0  0  0  0
  -30.7898  -22.5096   15.5597 C   0  0  0  0  0  0  0  0  0  0  0  0
  -23.4235  -15.6039   20.8074 C   0  0  0  0  0  0  0  0  0  0  0  0
  -25.3715  -23.0337   18.3778 C   0  0  0  0  0  0  0  0  0  0  0  0
  -22.0178  -13.8074   21.3721 C   0  0  0  0  0  0  0  0  0  0  0  0
  -21.7320  -11.1594   22.2020 C   0  0  0  0  0  0  0  0  0  0  0  0
  -21.3449  -13.5173   22.5590 C   0  0  0  0  0  0  0  0  0  0  0  0
  -30.5571  -21.2057   15.9970 C   0  0  0  0  0  0  0  0  0  0  0  0
  -29.7213  -23.3123   15.1598 C   0  0  0  0  0  0  0  0  0  0  0  0
  -27.3508  -17.1048   20.3365 C   0  0  0  0  0  0  0  0  0  0  0  0
  -29.4723  -17.3597   19.8178 C   0  0  0  0  0  0  0  0  0  0  0  0
  -28.5002  -15.1790   19.0776 C   0  0  0  0  0  0  0  0  0  0  0  0
  -21.5960  -25.8610   21.0639 C   0  0  0  0  0  0  0  0  0  0  0  0
  -23.9230  -27.9484   21.9298 C   0  0  0  0  0  0  0  0  0  0  0  0
  -27.2089  -28.8554   21.7661 C   0  0  0  0  0  0  0  0  0  0  0  0
  -29.5563  -23.2384   20.3556 C   0  0  0  0  0  0  0  0  0  0  0  0
  -16.9271  -26.8031   22.9002 C   0  0  0  0  0  0  0  0  0  0  0  0
  -23.3604  -24.3021   21.9655 C   0  0  0  0  0  0  0  0  0  0  0  0
  -24.5053  -26.3003   20.1105 C   0  0  0  0  0  0  0  0  0  0  0  0
  -18.1208  -27.6497   22.4658 C   0  0  0  0  0  0  0  0  0  0  0  0
  -31.0983  -20.8786   22.6251 C   0  0  0  0  0  0  0  0  0  0  0  0
  -18.6294  -27.1952   21.1014 C   0  0  0  0  0  0  0  0  0  0  0  0
  -30.4046  -19.5749   22.2259 C   0  0  0  0  0  0  0  0  0  0  0  0
  -30.1342  -22.0595   22.5622 C   0  0  0  0  0  0  0  0  0  0  0  0
  -28.7721  -20.9381   20.8415 C   0  0  0  0  0  0  0  0  0  0  0  0
  -19.1122  -25.7405   21.1493 C   0  0  1  0  0  0  0  0  0  0  0  0
  -22.8358  -25.7333   21.9031 C   0  0  1  0  0  0  0  0  0  0  0  0
  -29.6999  -19.7097   20.8631 C   0  0  2  0  0  0  0  0  0  0  0  0
  -28.8039  -30.6295   22.5445 C   0  0  0  0  0  0  0  0  0  0  0  0
  -22.8086  -29.8662   19.8345 C   0  0  0  0  0  0  0  0  0  0  0  0
  -24.9459  -31.1614   19.9843 C   0  0  0  0  0  0  0  0  0  0  0  0
  -23.4761  -30.9476   21.9885 C   0  0  0  0  0  0  0  0  0  0  0  0
  -28.8438  -26.8931   23.2612 C   0  0  0  0  0  0  0  0  0  0  0  0
  -26.7795  -20.9647   15.6758 C   0  0  0  0  0  0  0  0  0  0  0  0
  -32.1873  -23.0484   15.5201 C   0  0  0  0  0  0  0  0  0  0  0  0
  -31.8694  -25.8663   19.6995 C   0  0  0  0  0  0  0  0  0  0  0  0
  -32.5717  -24.7345   18.9401 C   0  0  0  0  0  0  0  0  0  0  0  0
  -30.4111  -25.5422   20.0108 C   0  0  0  0  0  0  0  0  0  0  0  0
  -31.9662  -24.4605   17.5684 C   0  0  0  0  0  0  0  0  0  0  0  0
  -26.0967  -21.2252   17.0141 C   0  0  0  0  0  0  0  0  0  1  0  0
  -24.7953  -28.9404   21.1991 C   0  0  1  0  0  0  0  0  0  0  0  0
  -28.1947  -29.2687   22.8440 C   0  0  2  0  0  0  0  0  0  0  0  0
  -24.0068  -30.2012   20.7451 C   0  0  0  0  0  0  0  0  0  0  0  0
  -27.6689  -18.3115   20.8125 N   0  0  0  0  0  0  0  0  0  0  0  0
  -28.9654  -18.4378   20.4817 N   0  0  0  0  0  0  0  0  0  0  0  0
  -23.8186  -26.6723   21.3585 N   0  0  0  0  0  0  0  0  0  0  0  0
  -29.5114  -22.1427   21.2335 N   0  0  0  0  0  0  0  0  0  0  0  0
  -30.7591  -17.3209   19.4114 N   0  0  0  0  0  0  0  0  0  0  0  0
  -27.3429  -14.3888   19.0520 N   0  0  0  0  0  0  0  0  0  0  0  0
  -20.4206  -25.6622   21.7628 N   0  0  0  0  0  0  0  0  0  0  0  0
  -25.9193  -29.2254   22.0844 N   0  0  0  0  0  0  0  0  0  0  0  0
  -30.2708  -24.3421   20.8051 N   0  0  0  0  0  0  0  0  0  0  0  0
  -29.2980  -28.2721   22.9465 N   0  3  0  0  0  0  0  0  0  0  0  0
  -32.7204  -23.3889   16.8651 N   0  3  0  0  0  0  0  0  0  0  0  0
  -29.5574  -14.7360   18.5681 O   0  0  0  0  0  0  0  0  0  0  0  0
  -21.6981  -26.1220   19.8710 O   0  0  0  0  0  0  0  0  0  0  0  0
  -23.3609  -28.2909   22.9731 O   0  0  0  0  0  0  0  0  0  0  0  0
  -27.5494  -28.2668   20.7423 O   0  0  0  0  0  0  0  0  0  0  0  0
  -29.0047  -23.2318   19.2498 O   0  0  0  0  0  0  0  0  0  0  0  0
  -22.1598  -15.1213   20.9583 O   0  0  0  0  0  0  0  0  0  0  0  0
  -26.0117  -22.6306   17.2466 O   0  0  0  0  0  0  0  0  0  1  0  0
  -21.5935   -9.8878   22.5996 F   0  0  0  0  0  0  0  0  0  0  0  0
  -20.8326  -14.5062   23.3042 F   0  0  0  0  0  0  0  0  0  0  0  0
  -31.8503  -20.1781   16.5014 Cl  0  0  0  0  0  0  0  0  0  0  0  0
  -29.9642  -24.9321   14.6125 Cl  0  0  0  0  0  0  0  0  0  0  0  0
  1  2  1  0  0  0  0
  1  5  2  0  0  0  0
  2  6  2  0  0  0  0
  3  8  2  0  0  0  0
  3 17  1  0  0  0  0
  4  9  1  0  0  0  0
  4 17  2  0  0  0  0
  5 19  1  0  0  0  0
  6 21  1  0  0  0  0
  7 10  2  0  0  0  0
  7 20  1  0  0  0  0
  8 25  1  0  0  0  0
  9 25  2  0  0  0  0
 10 26  1  0  0  0  0
 11 12  2  0  0  0  0
 11 27  1  0  0  0  0
 12 28  1  0  0  0  0
 13 22  1  0  0  0  0
 13 26  2  0  0  0  0
 14 23  1  0  0  0  0
 14 30  2  0  0  0  0
 15 23  2  0  0  0  0
 15 31  1  0  0  0  0
 16 28  2  0  0  0  0
 16 29  1  0  0  0  0
 17 32  1  0  0  0  0
 18 32  1  0  0  0  0
 18 33  2  0  0  0  0
 18 34  1  0  0  0  0
 19 21  2  0  0  0  0
 19 39  1  0  0  0  0
 20 22  2  0  0  0  0
 20 40  1  0  0  0  0
 21 48  1  0  0  0  0
 22 41  1  0  0  0  0
 23 56  1  0  0  0  0
 24 30  1  0  0  0  0
 24 31  2  0  0  0  0
 24 57  1  0  0  0  0
 25 82  1  0  0  0  0
 26 83  1  0  0  0  0
 27 29  2  0  0  0  0
 27 82  1  0  0  0  0
 28 84  1  0  0  0  0
 29 85  1  0  0  0  0
 30 86  1  0  0  0  0
 31 87  1  0  0  0  0
 32 66  2  0  0  0  0
 33 67  1  0  0  0  0
 33 70  1  0  0  0  0
 34 71  1  0  0  0  0
 34 77  2  0  0  0  0
 35 49  1  0  0  0  0
 35 72  1  0  0  0  0
 35 78  2  0  0  0  0
 36 63  1  0  0  0  0
 36 68  1  0  0  0  0
 36 79  2  0  0  0  0
 37 64  1  0  0  0  0
 37 73  1  0  0  0  0
 37 80  2  0  0  0  0
 38 69  1  0  0  0  0
 38 74  1  0  0  0  0
 38 81  2  0  0  0  0
 39 42  1  0  0  0  0
 40 49  1  0  0  0  0
 41 68  1  0  0  0  0
 42 44  1  0  0  0  0
 43 45  1  0  0  0  0
 43 46  1  0  0  0  0
 44 48  1  0  0  0  0
 45 50  1  0  0  0  0
 46 69  1  0  0  0  0
 47 50  1  0  0  0  0
 47 69  1  0  0  0  0
 48 72  1  0  0  0  0
 49 68  1  0  0  0  0
 50 67  1  0  0  0  0
 51 64  1  0  0  0  0
 52 65  1  0  0  0  0
 53 65  1  0  0  0  0
 54 65  1  0  0  0  0
 55 75  1  0  0  0  0
 56 62  1  0  0  0  0
 57 76  1  0  0  0  0
 58 59  1  0  0  0  0
 58 60  1  0  0  0  0
 59 61  1  0  0  0  0
 60 74  1  0  0  0  0
 61 76  1  0  0  0  0
 62 83  1  0  0  0  0
 63 65  1  0  0  0  0
 63 73  1  0  0  0  0
 64 75  1  0  0  0  0
 66 67  1  0  0  0  0
M  CHG  2  75   1  76   1
M  ISO  4  38 100  62 101  74 100  83 101
M  END
> <Batch ID>
0029

> <Smiles>
CNC(C)C(=O)NC(C(=O)N1Cc2cc([101O:1][101CH2:1]Cc3cc(Cl)c(CNCCCC[100NH:0][100C:0](=O)N4CCCC(n5nc(-c6ccc(Oc7ccc(F)cc7F)cc6)c(C(N)=O)c5N)C4)c(Cl)c3)ccc2CC1C(=O)NC1CCCc2ccccc21)C(C)(C)C

> <Shape>
0.210

> <Color>
0.051

> <Negative vol penalty>
0.000

$$$$

  -OEChem-04052316363D

 82 90  0     1  0  0  0  0  0999 V2000
  -24.0695  -31.6281   21.2274 C   0  0  0  0  0  0  0  0  0  0  0  0
  -24.2366  -30.2486   21.1603 C   0  0  0  0  0  0  0  0  0  0  0  0
  -23.0058   -9.9047   19.9132 C   0  0  0  0  0  0  0  0  0  0  0  0
  -23.8447   -9.7624   22.1744 C   0  0  0  0  0  0  0  0  0  0  0  0
  -24.9314  -32.4686   20.5242 C   0  0  0  0  0  0  0  0  0  0  0  0
  -25.2652  -29.7088   20.3890 C   0  0  0  0  0  0  0  0  0  0  0  0
  -28.5212  -24.6663   21.6050 C   0  0  0  0  0  0  0  0  0  0  0  0
  -22.2584   -8.7448   20.1175 C   0  0  0  0  0  0  0  0  0  0  0  0
  -23.0973   -8.6026   22.3788 C   0  0  0  0  0  0  0  0  0  0  0  0
  -28.4211  -23.3526   21.1491 C   0  0  0  0  0  0  0  0  0  0  0  0
  -23.3324   -5.3192   21.6073 C   0  0  0  0  0  0  0  0  0  0  0  0
  -23.9611   -4.2459   22.2384 C   0  0  0  0  0  0  0  0  0  0  0  0
  -30.0976  -23.8117   19.4764 C   0  0  0  0  0  0  0  0  0  0  0  0
  -22.3219   -4.3281   24.0113 C   0  0  0  0  0  0  0  0  0  0  0  0
  -23.7990  -10.4135   20.9417 C   0  0  0  0  0  0  0  0  0  0  0  0
  -24.1641  -12.9381   20.9659 C   0  0  0  0  0  0  0  0  0  0  0  0
  -25.9771  -31.9391   19.7516 C   0  0  0  0  0  0  0  0  0  0  0  0
  -29.4038  -25.5672   20.9919 C   0  0  0  0  0  0  0  0  0  0  0  0
  -26.1411  -30.5429   19.6737 C   0  0  0  0  0  0  0  0  0  0  0  0
  -30.2088  -25.1356   19.9280 C   0  0  0  0  0  0  0  0  0  0  0  0
  -22.3042   -8.0937   21.3503 C   0  0  0  0  0  0  0  0  0  0  0  0
  -29.2073  -22.9259   20.0828 C   0  0  0  0  0  0  0  0  0  0  0  0
  -22.1984   -5.8970   22.1783 C   0  0  0  0  0  0  0  0  0  0  0  0
  -23.4559   -3.7503   23.4403 C   0  0  0  0  0  0  0  0  0  0  0  0
  -21.6932   -5.4014   23.3802 C   0  0  0  0  0  0  0  0  0  0  0  0
  -24.5717  -11.6113   20.7311 C   0  0  0  0  0  0  0  0  0  0  0  0
  -25.2511  -13.6991   20.6114 C   0  0  0  0  0  0  0  0  0  0  0  0
  -22.9146  -13.4380   21.4605 C   0  0  0  0  0  0  0  0  0  0  0  0
  -29.0760  -28.3121   19.4228 C   0  0  0  0  0  0  0  0  0  0  0  0
  -32.3187  -28.2978   19.5070 C   0  0  0  0  0  0  0  0  0  0  0  0
  -35.2023  -26.4908   19.7651 C   0  0  0  0  0  0  0  0  0  0  0  0
  -30.7489  -14.6563   20.6688 C   0  0  0  0  0  0  0  0  0  0  0  0
  -26.8543  -32.8857   18.9711 C   0  0  0  0  0  0  0  0  0  0  0  0
  -29.5193  -26.9735   21.5127 C   0  0  0  0  0  0  0  0  0  0  0  0
  -31.1867  -26.0579   19.2486 C   0  0  0  0  0  0  0  0  0  0  0  0
  -28.1500  -32.2477   18.4766 C   0  0  0  0  0  0  0  0  0  0  0  0
  -29.5032  -12.4348   18.1809 C   0  0  0  0  0  0  0  0  0  0  0  0
  -27.8684  -30.8879   17.8452 C   0  0  0  0  0  0  0  0  0  0  0  0
  -28.0785  -12.1274   18.6452 C   0  0  0  0  0  0  0  0  0  0  0  0
  -29.0345  -18.1852   21.1746 C   0  0  0  0  0  0  0  0  0  0  0  0
  -30.9217  -20.3530   20.5087 C   0  0  0  0  0  0  0  0  0  0  0  0
  -30.4638  -12.5725   19.3600 C   0  0  0  0  0  0  0  0  0  0  0  0
  -28.6194  -13.2327   20.8553 C   0  0  0  0  0  0  0  0  0  0  0  0
  -27.2604  -29.9202   18.8677 C   0  0  1  0  0  0  0  0  0  0  0  0
  -30.0786  -27.9487   20.4814 C   0  0  1  0  0  0  0  0  0  0  0  0
  -30.5551  -17.9220   21.1304 C   0  0  1  0  0  0  0  0  0  0  0  0
  -27.6031  -13.1401   19.7043 C   0  0  2  0  0  0  0  0  0  0  0  0
  -29.4152  -20.6079   20.5722 C   0  0  2  0  0  0  0  0  0  1  0  0
  -31.3942  -19.2053   21.4362 C   0  0  0  0  0  0  0  0  0  0  0  0
  -28.6170  -19.3392   20.2591 C   0  0  2  0  0  0  0  0  0  0  0  0
  -32.8892  -18.9544   21.1412 C   0  0  0  0  0  0  0  0  0  0  0  0
  -31.2765  -19.6461   22.9103 C   0  0  0  0  0  0  0  0  0  0  0  0
  -27.1080  -19.5611   20.3270 C   0  0  0  0  0  0  0  0  0  0  0  0
  -37.6980  -26.7527   19.7626 C   0  0  0  0  0  0  0  0  0  0  0  0
  -32.2743  -28.6686   16.4788 C   0  0  0  0  0  0  0  0  0  0  0  0
  -34.6801  -27.9774   16.4288 C   0  0  0  0  0  0  0  0  0  0  0  0
  -33.9997  -30.0307   17.6713 C   0  0  0  0  0  0  0  0  0  0  0  0
  -35.4355  -25.4020   22.5072 C   0  0  0  0  0  0  0  0  0  0  0  0
  -30.8811  -16.7252   22.0331 C   0  0  0  0  0  0  0  0  0  0  0  0
  -33.4090  -27.7596   18.6123 C   0  0  1  0  0  0  0  0  0  0  0  0
  -36.4423  -26.6890   20.6181 C   0  0  2  0  0  0  0  0  0  0  0  0
  -33.5711  -28.5920   17.3091 C   0  0  0  0  0  0  0  0  0  0  0  0
  -25.8201  -11.5305   20.2633 N   0  0  0  0  0  0  0  0  0  0  0  0
  -26.2064  -12.8162   20.2013 N   0  0  0  0  0  0  0  0  0  0  0  0
  -31.2585  -27.4251   19.7901 N   0  0  0  0  0  0  0  0  0  0  0  0
  -29.9556  -13.5488   20.3267 N   0  0  0  0  0  0  0  0  0  0  0  0
  -25.4734  -15.0306   20.6134 N   0  0  0  0  0  0  0  0  0  0  0  0
  -21.9051  -12.5186   21.7764 N   0  0  0  0  0  0  0  0  0  0  0  0
  -28.2876  -29.4004   19.7446 N   0  0  0  0  0  0  0  0  0  0  0  0
  -34.6139  -27.6926   19.4322 N   0  0  0  0  0  0  0  0  0  0  0  0
  -30.1895  -15.5362   21.5872 N   0  0  0  0  0  0  0  0  0  0  0  0
  -36.5898  -25.5659   21.5865 N   0  3  0  0  0  0  0  0  0  0  0  0
  -22.6940  -14.6647   21.6021 O   0  0  0  0  0  0  0  0  0  0  0  0
  -29.0228  -27.6548   18.3900 O   0  0  0  0  0  0  0  0  0  0  0  0
  -32.4081  -29.4477   19.9446 O   0  0  0  0  0  0  0  0  0  0  0  0
  -34.7983  -25.3811   19.4248 O   0  0  0  0  0  0  0  0  0  0  0  0
  -31.8703  -14.8496   20.1871 O   0  0  0  0  0  0  0  0  0  0  0  0
  -21.5749   -6.9620   21.5501 O   0  0  0  0  0  0  0  0  0  0  0  0
  -29.1106  -21.6372   19.6329 O   0  0  0  0  0  0  0  0  0  1  0  0
  -24.0589   -2.7186   24.0454 F   0  0  0  0  0  0  0  0  0  0  0  0
  -20.6034   -5.9516   23.9330 F   0  0  0  0  0  0  0  0  0  0  0  0
  -28.9060  -18.9655   18.9739 F   0  0  0  0  0  0  0  0  0  0  0  0
  1  2  1  0  0  0  0
  1  5  2  0  0  0  0
  2  6  2  0  0  0  0
  3  8  2  0  0  0  0
  3 15  1  0  0  0  0
  4  9  1  0  0  0  0
  4 15  2  0  0  0  0
  5 17  1  0  0  0  0
  6 19  1  0  0  0  0
  7 10  2  0  0  0  0
  7 18  1  0  0  0  0
  8 21  1  0  0  0  0
  9 21  2  0  0  0  0
 10 22  1  0  0  0  0
 11 12  2  0  0  0  0
 11 23  1  0  0  0  0
 12 24  1  0  0  0  0
 13 20  1  0  0  0  0
 13 22  2  0  0  0  0
 14 24  2  0  0  0  0
 14 25  1  0  0  0  0
 15 26  1  0  0  0  0
 16 26  1  0  0  0  0
 16 27  2  0  0  0  0
 16 28  1  0  0  0  0
 17 19  2  0  0  0  0
 17 33  1  0  0  0  0
 18 20  2  0  0  0  0
 18 34  1  0  0  0  0
 19 44  1  0  0  0  0
 20 35  1  0  0  0  0
 21 78  1  0  0  0  0
 22 79  1  0  0  0  0
 23 25  2  0  0  0  0
 23 78  1  0  0  0  0
 24 80  1  0  0  0  0
 25 81  1  0  0  0  0
 26 63  2  0  0  0  0
 27 64  1  0  0  0  0
 27 67  1  0  0  0  0
 28 68  1  0  0  0  0
 28 73  2  0  0  0  0
 29 45  1  0  0  0  0
 29 69  1  0  0  0  0
 29 74  2  0  0  0  0
 30 60  1  0  0  0  0
 30 65  1  0  0  0  0
 30 75  2  0  0  0  0
 31 61  1  0  0  0  0
 31 70  1  0  0  0  0
 31 76  2  0  0  0  0
 32 66  1  0  0  0  0
 32 71  1  0  0  0  0
 32 77  2  0  0  0  0
 33 36  1  0  0  0  0
 34 45  1  0  0  0  0
 35 65  1  0  0  0  0
 36 38  1  0  0  0  0
 37 39  1  0  0  0  0
 37 42  1  0  0  0  0
 38 44  1  0  0  0  0
 39 47  1  0  0  0  0
 40 46  1  0  0  0  0
 40 50  1  0  0  0  0
 41 48  1  0  0  0  0
 41 49  1  0  0  0  0
 42 66  1  0  0  0  0
 43 47  1  0  0  0  0
 43 66  1  0  0  0  0
 44 69  1  0  0  0  0
 45 65  1  0  0  0  0
 46 49  1  0  0  0  0
 46 59  1  0  0  0  0
 47 64  1  0  0  0  0
 48 50  1  0  0  0  0
 48 79  1  0  0  0  0
 49 51  1  0  0  0  0
 49 52  1  0  0  0  0
 50 53  1  0  0  0  0
 50 82  1  0  0  0  0
 54 61  1  0  0  0  0
 55 62  1  0  0  0  0
 56 62  1  0  0  0  0
 57 62  1  0  0  0  0
 58 72  1  0  0  0  0
 59 71  1  0  0  0  0
 60 62  1  0  0  0  0
 60 70  1  0  0  0  0
 61 72  1  0  0  0  0
 63 64  1  0  0  0  0
M  CHG  1  72   1
M  ISO  4  32 100  48 101  71 100  79 101
M  END
> <Batch ID>
0029

> <Smiles>
CNC(C)C(=O)NC(C(=O)N1Cc2cc([101O:1][101CH:1]3CC(C)(C)C(C[100NH:0][100C:0](=O)N4CCCC(n5nc(-c6ccc(Oc7ccc(F)cc7F)cc6)c(C(N)=O)c5N)C4)CC3(C)F)ccc2CC1C(=O)NC1CCCc2ccccc21)C(C)(C)C

> <Shape>
0.324

> <Color>
0.209

> <Negative vol penalty>
0.000

$$$$

  -OEChem-04052316363D

 82 90  0     1  0  0  0  0  0999 V2000
  -17.5869  -23.9615   23.4820 C   0  0  0  0  0  0  0  0  0  0  0  0
  -18.9384  -23.6728   23.3216 C   0  0  0  0  0  0  0  0  0  0  0  0
  -23.0004   -9.8956   19.9807 C   0  0  0  0  0  0  0  0  0  0  0  0
  -23.7312   -9.9431   22.2831 C   0  0  0  0  0  0  0  0  0  0  0  0
  -16.6249  -23.1265   22.9152 C   0  0  0  0  0  0  0  0  0  0  0  0
  -19.3285  -22.5482   22.5952 C   0  0  0  0  0  0  0  0  0  0  0  0
  -24.2785  -22.0031   19.0306 C   0  0  0  0  0  0  0  0  0  0  0  0
  -22.2356   -8.7599   20.2469 C   0  0  0  0  0  0  0  0  0  0  0  0
  -22.9663   -8.8073   22.5492 C   0  0  0  0  0  0  0  0  0  0  0  0
  -25.5368  -21.4449   19.2518 C   0  0  0  0  0  0  0  0  0  0  0  0
  -23.2127   -5.4695   22.0706 C   0  0  0  0  0  0  0  0  0  0  0  0
  -23.8030   -4.4515   22.8194 C   0  0  0  0  0  0  0  0  0  0  0  0
  -24.7979  -19.3889   18.2290 C   0  0  0  0  0  0  0  0  0  0  0  0
  -31.6826  -18.2375   20.0264 C   0  0  0  0  0  0  0  0  0  0  0  0
  -22.0830   -4.6897   24.4993 C   0  0  0  0  0  0  0  0  0  0  0  0
  -23.7482  -10.4872   20.9988 C   0  0  0  0  0  0  0  0  0  0  0  0
  -24.1307  -13.0034   20.8265 C   0  0  0  0  0  0  0  0  0  0  0  0
  -17.0036  -21.9965   22.1734 C   0  0  0  0  0  0  0  0  0  0  0  0
  -23.2654  -21.2534   18.4158 C   0  0  0  0  0  0  0  0  0  0  0  0
  -18.3706  -21.6966   22.0192 C   0  0  0  0  0  0  0  0  0  0  0  0
  -23.5284  -19.9407   17.9988 C   0  0  0  0  0  0  0  0  0  0  0  0
  -30.6227  -17.9326   20.8802 C   0  0  0  0  0  0  0  0  0  0  0  0
  -30.3423  -19.9503   18.9742 C   0  0  0  0  0  0  0  0  0  0  0  0
  -29.2823  -19.6453   19.8281 C   0  0  0  0  0  0  0  0  0  0  0  0
  -22.2185   -8.2158   21.5311 C   0  0  0  0  0  0  0  0  0  0  0  0
  -25.7957  -20.1367   18.8536 C   0  0  0  0  0  0  0  0  0  0  0  0
  -22.0575   -6.0977   22.5362 C   0  0  0  0  0  0  0  0  0  0  0  0
  -23.2382   -4.0616   24.0337 C   0  0  0  0  0  0  0  0  0  0  0  0
  -21.4927   -5.7078   23.7505 C   0  0  0  0  0  0  0  0  0  0  0  0
  -31.5424  -19.2465   19.0734 C   0  0  0  0  0  0  0  0  0  0  0  0
  -29.4225  -18.6364   20.7811 C   0  0  0  0  0  0  0  0  0  0  0  0
  -24.5389  -11.6600   20.7244 C   0  0  0  0  0  0  0  0  0  0  0  0
  -25.2389  -13.7278   20.4607 C   0  0  0  0  0  0  0  0  0  0  0  0
  -22.8632  -13.5479   21.2171 C   0  0  0  0  0  0  0  0  0  0  0  0
  -20.3862  -20.2302   19.2915 C   0  0  0  0  0  0  0  0  0  0  0  0
  -20.2224  -19.2534   16.2026 C   0  0  0  0  0  0  0  0  0  0  0  0
  -21.8773  -18.3335   13.3633 C   0  0  0  0  0  0  0  0  0  0  0  0
  -30.7350  -14.6671   20.6975 C   0  0  0  0  0  0  0  0  0  0  0  0
  -15.9268  -21.0974   21.6196 C   0  0  0  0  0  0  0  0  0  0  0  0
  -21.9216  -21.8790   18.1602 C   0  0  0  0  0  0  0  0  0  0  0  0
  -22.4811  -19.1006   17.3163 C   0  0  0  0  0  0  0  0  0  0  0  0
  -16.4297  -20.1333   20.5481 C   0  0  0  0  0  0  0  0  0  0  0  0
  -29.5908  -12.2467   18.3503 C   0  0  0  0  0  0  0  0  0  0  0  0
  -17.7246  -19.4639   20.9977 C   0  0  0  0  0  0  0  0  0  0  0  0
  -28.1436  -11.9848   18.7710 C   0  0  0  0  0  0  0  0  0  0  0  0
  -30.4960  -12.4807   19.5578 C   0  0  0  0  0  0  0  0  0  0  0  0
  -28.5884  -13.2719   20.9027 C   0  0  0  0  0  0  0  0  0  0  0  0
  -18.8338  -20.4998   21.2172 C   0  0  1  0  0  0  0  0  0  0  0  0
  -20.8069  -20.8516   17.9898 C   0  0  1  0  0  0  0  0  0  0  0  0
  -27.6266  -13.0855   19.7167 C   0  0  2  0  0  0  0  0  0  0  0  0
  -30.1804  -21.0366   17.9562 C   0  0  0  0  0  0  0  0  0  0  0  0
  -21.4730  -17.5525   11.0130 C   0  0  0  0  0  0  0  0  0  0  0  0
  -19.5194  -16.4750   17.2494 C   0  0  0  0  0  0  0  0  0  0  0  0
  -20.0605  -15.5602   14.9825 C   0  0  0  0  0  0  0  0  0  0  0  0
  -18.2014  -17.2015   15.2520 C   0  0  0  0  0  0  0  0  0  0  0  0
  -23.2497  -20.6931   12.2197 C   0  0  0  0  0  0  0  0  0  0  0  0
  -30.8185  -16.8440   21.8864 C   0  0  0  0  0  0  0  0  0  0  0  0
  -27.9981  -20.4120   19.7079 C   0  0  0  0  0  0  0  0  0  1  0  0
  -20.5935  -17.9934   15.4587 C   0  0  1  0  0  0  0  0  0  0  0  0
  -21.7041  -18.7548   11.9152 C   0  0  2  0  0  0  0  0  0  0  0  0
  -19.6131  -16.8224   15.7502 C   0  0  0  0  0  0  0  0  0  0  0  0
  -25.8073  -11.5355   20.3249 N   0  0  0  0  0  0  0  0  0  0  0  0
  -26.2057  -12.8099   20.1726 N   0  0  0  0  0  0  0  0  0  0  0  0
  -21.1810  -19.7549   17.0944 N   0  0  0  0  0  0  0  0  0  0  0  0
  -29.9503  -13.5373   20.4132 N   0  0  0  0  0  0  0  0  0  0  0  0
  -25.4709  -15.0539   20.3605 N   0  0  0  0  0  0  0  0  0  0  0  0
  -21.8331  -12.6622   21.5615 N   0  0  0  0  0  0  0  0  0  0  0  0
  -19.3879  -20.9234   19.9492 N   0  0  0  0  0  0  0  0  0  0  0  0
  -20.6819  -18.3621   14.0499 N   0  0  0  0  0  0  0  0  0  0  0  0
  -30.1397  -15.6238   21.5105 N   0  0  0  0  0  0  0  0  0  0  0  0
  -22.9178  -19.4751   11.4366 N   0  3  0  0  0  0  0  0  0  0  0  0
  -22.6454  -14.7830   21.2437 O   0  0  0  0  0  0  0  0  0  0  0  0
  -20.9262  -19.1975   19.6705 O   0  0  0  0  0  0  0  0  0  0  0  0
  -19.1252  -19.7776   15.9946 O   0  0  0  0  0  0  0  0  0  0  0  0
  -22.9636  -18.0079   13.8369 O   0  0  0  0  0  0  0  0  0  0  0  0
  -31.8792  -14.8149   20.2548 O   0  0  0  0  0  0  0  0  0  0  0  0
  -21.4722   -7.1077   21.7912 O   0  0  0  0  0  0  0  0  0  0  0  0
  -27.0229  -19.5892   19.0689 O   0  0  0  0  0  0  0  0  0  1  0  0
  -23.8044   -3.0829   24.7520 F   0  0  0  0  0  0  0  0  0  0  0  0
  -20.3824   -6.3068   24.2023 F   0  0  0  0  0  0  0  0  0  0  0  0
  -32.8792  -19.5944   18.0373 Cl  0  0  0  0  0  0  0  0  0  0  0  0
  -28.1081  -18.2536   21.8430 Cl  0  0  0  0  0  0  0  0  0  0  0  0
  1  2  1  0  0  0  0
  1  5  2  0  0  0  0
  2  6  2  0  0  0  0
  3  8  2  0  0  0  0
  3 16  1  0  0  0  0
  4  9  1  0  0  0  0
  4 16  2  0  0  0  0
  5 18  1  0  0  0  0
  6 20  1  0  0  0  0
  7 10  2  0  0  0  0
  7 19  1  0  0  0  0
  8 25  1  0  0  0  0
  9 25  2  0  0  0  0
 10 26  1  0  0  0  0
 11 12  2  0  0  0  0
 11 27  1  0  0  0  0
 12 28  1  0  0  0  0
 13 21  1  0  0  0  0
 13 26  2  0  0  0  0
 14 22  2  0  0  0  0
 14 30  1  0  0  0  0
 15 28  2  0  0  0  0
 15 29  1  0  0  0  0
 16 32  1  0  0  0  0
 17 32  1  0  0  0  0
 17 33  2  0  0  0  0
 17 34  1  0  0  0  0
 18 20  2  0  0  0  0
 18 39  1  0  0  0  0
 19 21  2  0  0  0  0
 19 40  1  0  0  0  0
 20 48  1  0  0  0  0
 21 41  1  0  0  0  0
 22 31  1  0  0  0  0
 22 57  1  0  0  0  0
 23 24  1  0  0  0  0
 23 30  2  0  0  0  0
 23 51  1  0  0  0  0
 24 31  2  0  0  0  0
 24 58  1  0  0  0  0
 25 77  1  0  0  0  0
 26 78  1  0  0  0  0
 27 29  2  0  0  0  0
 27 77  1  0  0  0  0
 28 79  1  0  0  0  0
 29 80  1  0  0  0  0
 30 81  1  0  0  0  0
 31 82  1  0  0  0  0
 32 62  2  0  0  0  0
 33 63  1  0  0  0  0
 33 66  1  0  0  0  0
 34 67  1  0  0  0  0
 34 72  2  0  0  0  0
 35 49  1  0  0  0  0
 35 68  1  0  0  0  0
 35 73  2  0  0  0  0
 36 59  1  0  0  0  0
 36 64  1  0  0  0  0
 36 74  2  0  0  0  0
 37 60  1  0  0  0  0
 37 69  1  0  0  0  0
 37 75  2  0  0  0  0
 38 65  1  0  0  0  0
 38 70  1  0  0  0  0
 38 76  2  0  0  0  0
 39 42  1  0  0  0  0
 40 49  1  0  0  0  0
 41 64  1  0  0  0  0
 42 44  1  0  0  0  0
 43 45  1  0  0  0  0
 43 46  1  0  0  0  0
 44 48  1  0  0  0  0
 45 50  1  0  0  0  0
 46 65  1  0  0  0  0
 47 50  1  0  0  0  0
 47 65  1  0  0  0  0
 48 68  1  0  0  0  0
 49 64  1  0  0  0  0
 50 63  1  0  0  0  0
 52 60  1  0  0  0  0
 53 61  1  0  0  0  0
 54 61  1  0  0  0  0
 55 61  1  0  0  0  0
 56 71  1  0  0  0  0
 57 70  1  0  0  0  0
 58 78  1  0  0  0  0
 59 61  1  0  0  0  0
 59 69  1  0  0  0  0
 60 71  1  0  0  0  0
 62 63  1  0  0  0  0
M  CHG  1  71   1
M  ISO  4  38 100  58 101  70 100  78 101
M  END
> <Batch ID>
0029

> <Smiles>
CNC(C)C(=O)NC(C(=O)N1Cc2cc([101O:1][101CH2:1]c3c(C)c(Cl)cc(C[100NH:0][100C:0](=O)N4CCCC(n5nc(-c6ccc(Oc7ccc(F)cc7F)cc6)c(C(N)=O)c5N)C4)c3Cl)ccc2CC1C(=O)NC1CCCc2ccccc21)C(C)(C)C

> <Shape>
0.207

> <Color>
0.206

> <Negative vol penalty>
0.000

$$$$

  -OEChem-04052316363D

 85 93  0     1  0  0  0  0  0999 V2000
  -24.2677  -11.3080   20.4153 C   0  0  0  0  0  0  0  0  0  0  0  0
  -23.7802  -12.5759   20.1150 C   0  0  0  0  0  0  0  0  0  0  0  0
  -30.0529  -27.7220   19.8422 C   0  0  0  0  0  0  0  0  0  0  0  0
  -29.3307  -26.4070   21.7359 C   0  0  0  0  0  0  0  0  0  0  0  0
  -25.4561  -11.1710   21.1314 C   0  0  0  0  0  0  0  0  0  0  0  0
  -24.4803  -13.7076   20.5316 C   0  0  0  0  0  0  0  0  0  0  0  0
  -24.8494  -17.2120   16.8946 C   0  0  0  0  0  0  0  0  0  0  0  0
  -31.3756  -27.3573   20.0933 C   0  0  0  0  0  0  0  0  0  0  0  0
  -30.6534  -26.0423   21.9871 C   0  0  0  0  0  0  0  0  0  0  0  0
  -23.7265  -18.0032   16.6564 C   0  0  0  0  0  0  0  0  0  0  0  0
  -33.3892  -27.4211   23.4173 C   0  0  0  0  0  0  0  0  0  0  0  0
  -33.8365  -27.4741   24.7374 C   0  0  0  0  0  0  0  0  0  0  0  0
  -24.7110  -19.7810   17.9563 C   0  0  0  0  0  0  0  0  0  0  0  0
  -34.3260  -25.1093   24.6665 C   0  0  0  0  0  0  0  0  0  0  0  0
  -29.0304  -27.2469   20.6635 C   0  0  0  0  0  0  0  0  0  0  0  0
  -26.7374  -26.9517   19.5852 C   0  0  0  0  0  0  0  0  0  0  0  0
  -26.1762  -12.3015   21.5487 C   0  0  0  0  0  0  0  0  0  0  0  0
  -25.9086  -17.6961   17.6757 C   0  0  0  0  0  0  0  0  0  0  0  0
  -25.6788  -13.5855   21.2551 C   0  0  0  0  0  0  0  0  0  0  0  0
  -25.8474  -18.9948   18.2007 C   0  0  0  0  0  0  0  0  0  0  0  0
  -31.6759  -26.5175   21.1658 C   0  0  0  0  0  0  0  0  0  0  0  0
  -23.6559  -19.2868   17.1897 C   0  0  0  0  0  0  0  0  0  0  0  0
  -33.4101  -26.2121   22.7218 C   0  0  0  0  0  0  0  0  0  0  0  0
  -34.3050  -26.3182   25.3620 C   0  0  0  0  0  0  0  0  0  0  0  0
  -33.8786  -25.0562   23.3464 C   0  0  0  0  0  0  0  0  0  0  0  0
  -27.6640  -27.6237   20.4049 C   0  0  0  0  0  0  0  0  0  0  0  0
  -18.7506  -26.8334   22.7126 C   0  0  0  0  0  0  0  0  0  0  0  0
  -19.4321  -27.8166   22.0263 C   0  0  0  0  0  0  0  0  0  0  0  0
  -25.5922  -27.7050   19.6726 C   0  0  0  0  0  0  0  0  0  0  0  0
  -19.0121  -25.7831   20.8052 C   0  0  0  0  0  0  0  0  0  0  0  0
  -26.8976  -25.7538   18.8139 C   0  0  0  0  0  0  0  0  0  0  0  0
  -27.2554  -16.8209   20.4187 C   0  0  0  0  0  0  0  0  0  0  0  0
  -29.3710  -19.1657   19.6781 C   0  0  0  0  0  0  0  0  0  0  0  0
  -30.0154  -22.0573   17.9839 C   0  0  0  0  0  0  0  0  0  0  0  0
  -21.8762  -30.5802   22.6841 C   0  0  0  0  0  0  0  0  0  0  0  0
  -27.4312  -12.1036   22.3613 C   0  0  0  0  0  0  0  0  0  0  0  0
  -27.1246  -16.8400   17.9011 C   0  0  0  0  0  0  0  0  0  0  0  0
  -26.9666  -19.5689   19.0291 C   0  0  0  0  0  0  0  0  0  0  0  0
  -28.3078  -13.3507   22.4417 C   0  0  0  0  0  0  0  0  0  0  0  0
  -24.8153  -32.2986   21.6426 C   0  0  0  0  0  0  0  0  0  0  0  0
  -27.4617  -14.5779   22.7657 C   0  0  0  0  0  0  0  0  0  0  0  0
  -25.7437  -31.1800   21.1663 C   0  0  0  0  0  0  0  0  0  0  0  0
  -23.9858  -31.8678   22.8502 C   0  0  0  0  0  0  0  0  0  0  0  0
  -24.1529  -29.4997   22.1884 C   0  0  0  0  0  0  0  0  0  0  0  0
  -26.4225  -14.8370   21.6683 C   0  0  1  0  0  0  0  0  0  0  0  0
  -27.9191  -17.2445   19.1390 C   0  0  1  0  0  0  0  0  0  0  0  0
  -24.9694  -29.8680   20.9378 C   0  0  2  0  0  0  0  0  0  0  0  0
  -19.3840  -26.7372   25.1367 C   0  0  0  0  0  0  0  0  0  0  0  0
  -31.8216  -23.7576   17.6049 C   0  0  0  0  0  0  0  0  0  0  0  0
  -28.8257  -20.3558   22.4343 C   0  0  0  0  0  0  0  0  0  0  0  0
  -29.8791  -22.4858   21.6461 C   0  0  0  0  0  0  0  0  0  0  0  0
  -31.2280  -20.3896   21.7401 C   0  0  0  0  0  0  0  0  0  0  0  0
  -30.0955  -21.4953   15.0793 C   0  0  0  0  0  0  0  0  0  0  0  0
  -18.2664  -26.9222   24.1054 C   0  0  0  0  0  0  0  0  0  0  0  0
  -19.8501  -29.1644   22.4607 C   0  0  0  0  0  0  0  0  0  0  0  0
  -20.2843  -22.2447   19.0299 C   0  0  0  0  0  0  0  0  0  0  0  0
  -18.7771  -22.5129   18.9773 C   0  0  0  0  0  0  0  0  0  0  0  0
  -20.7074  -21.2499   17.9505 C   0  0  0  0  0  0  0  0  0  0  0  0
  -18.3196  -23.5128   20.0359 C   0  0  0  0  0  0  0  0  0  0  0  0
  -22.2111  -21.0082   17.9678 C   0  0  0  0  0  0  0  0  0  1  0  0
  -29.4623  -20.6479   19.9492 C   0  0  1  0  0  0  0  0  0  0  0  0
  -31.1821  -22.4714   17.1055 C   0  0  2  0  0  0  0  0  0  0  0  0
  -29.8267  -20.9585   21.4285 C   0  0  0  0  0  0  0  0  0  0  0  0
  -27.1517  -28.7196   20.9711 N   0  0  0  0  0  0  0  0  0  0  0  0
  -18.5085  -25.6668   22.0139 N   0  0  0  0  0  0  0  0  0  0  0  0
  -25.8909  -28.7421   20.5065 N   0  0  0  0  0  0  0  0  0  0  0  0
  -28.1316  -18.6907   19.2266 N   0  0  0  0  0  0  0  0  0  0  0  0
  -23.2754  -30.6183   22.5675 N   0  0  0  0  0  0  0  0  0  0  0  0
  -24.3690  -27.5748   19.1166 N   0  0  0  0  0  0  0  0  0  0  0  0
  -28.1400  -25.1056   18.8367 N   0  0  0  0  0  0  0  0  0  0  0  0
  -18.9494  -24.7955   19.8346 N   0  0  0  0  0  0  0  0  0  0  0  0
  -27.0452  -15.4588   20.5193 N   0  0  0  0  0  0  0  0  0  0  0  0
  -30.4078  -21.1835   18.9758 N   0  0  0  0  0  0  0  0  0  0  0  0
  -21.2813  -29.3589   22.3920 N   0  0  0  0  0  0  0  0  0  0  0  0
  -30.7240  -22.6877   15.7039 N   0  3  0  0  0  0  0  0  0  0  0  0
  -25.9715  -25.2814   18.1119 O   0  0  0  0  0  0  0  0  0  0  0  0
  -26.9575  -17.6669   21.2537 O   0  0  0  0  0  0  0  0  0  0  0  0
  -30.3650  -18.4565   19.8535 O   0  0  0  0  0  0  0  0  0  0  0  0
  -28.8711  -22.4706   17.8101 O   0  0  0  0  0  0  0  0  0  0  0  0
  -21.2062  -31.5632   23.0183 O   0  0  0  0  0  0  0  0  0  0  0  0
  -32.9664  -26.1612   21.4110 O   0  0  0  0  0  0  0  0  0  0  0  0
  -22.5607  -20.0610   16.9594 O   0  0  0  0  0  0  0  0  0  1  0  0
  -34.7360  -26.3696   26.6292 F   0  0  0  0  0  0  0  0  0  0  0  0
  -33.9023  -23.8921   22.6830 F   0  0  0  0  0  0  0  0  0  0  0  0
  -19.7911  -27.2683   20.4414 S   0  0  0  0  0  0  0  0  0  0  0  0
  1  2  1  0  0  0  0
  1  5  2  0  0  0  0
  2  6  2  0  0  0  0
  3  8  2  0  0  0  0
  3 15  1  0  0  0  0
  4  9  1  0  0  0  0
  4 15  2  0  0  0  0
  5 17  1  0  0  0  0
  6 19  1  0  0  0  0
  7 10  2  0  0  0  0
  7 18  1  0  0  0  0
  8 21  1  0  0  0  0
  9 21  2  0  0  0  0
 10 22  1  0  0  0  0
 11 12  2  0  0  0  0
 11 23  1  0  0  0  0
 12 24  1  0  0  0  0
 13 20  1  0  0  0  0
 13 22  2  0  0  0  0
 14 24  2  0  0  0  0
 14 25  1  0  0  0  0
 15 26  1  0  0  0  0
 16 26  1  0  0  0  0
 16 29  2  0  0  0  0
 16 31  1  0  0  0  0
 17 19  2  0  0  0  0
 17 36  1  0  0  0  0
 18 20  2  0  0  0  0
 18 37  1  0  0  0  0
 19 45  1  0  0  0  0
 20 38  1  0  0  0  0
 21 81  1  0  0  0  0
 22 82  1  0  0  0  0
 23 25  2  0  0  0  0
 23 81  1  0  0  0  0
 24 83  1  0  0  0  0
 25 84  1  0  0  0  0
 26 64  2  0  0  0  0
 27 28  2  0  0  0  0
 27 54  1  0  0  0  0
 27 65  1  0  0  0  0
 28 55  1  0  0  0  0
 28 85  1  0  0  0  0
 29 66  1  0  0  0  0
 29 69  1  0  0  0  0
 30 65  2  0  0  0  0
 30 71  1  0  0  0  0
 30 85  1  0  0  0  0
 31 70  1  0  0  0  0
 31 76  2  0  0  0  0
 32 46  1  0  0  0  0
 32 72  1  0  0  0  0
 32 77  2  0  0  0  0
 33 61  1  0  0  0  0
 33 67  1  0  0  0  0
 33 78  2  0  0  0  0
 34 62  1  0  0  0  0
 34 73  1  0  0  0  0
 34 79  2  0  0  0  0
 35 68  1  0  0  0  0
 35 74  1  0  0  0  0
 35 80  2  0  0  0  0
 36 39  1  0  0  0  0
 37 46  1  0  0  0  0
 38 67  1  0  0  0  0
 39 41  1  0  0  0  0
 40 42  1  0  0  0  0
 40 43  1  0  0  0  0
 41 45  1  0  0  0  0
 42 47  1  0  0  0  0
 43 68  1  0  0  0  0
 44 47  1  0  0  0  0
 44 68  1  0  0  0  0
 45 72  1  0  0  0  0
 46 67  1  0  0  0  0
 47 66  1  0  0  0  0
 48 54  1  0  0  0  0
 49 62  1  0  0  0  0
 50 63  1  0  0  0  0
 51 63  1  0  0  0  0
 52 63  1  0  0  0  0
 53 75  1  0  0  0  0
 55 74  1  0  0  0  0
 56 57  1  0  0  0  0
 56 58  1  0  0  0  0
 57 59  1  0  0  0  0
 58 60  1  0  0  0  0
 59 71  1  0  0  0  0
 60 82  1  0  0  0  0
 61 63  1  0  0  0  0
 61 73  1  0  0  0  0
 62 75  1  0  0  0  0
 64 66  1  0  0  0  0
M  CHG  1  75   1
M  ISO  4  35 100  60 101  74 100  82 101
M  END
> <Batch ID>
0029

> <Smiles>
CCc1nc(NCCCC[101CH2:1][101O:1]c2ccc3c(c2)CN(C(=O)C(NC(=O)C(C)NC)C(C)(C)C)C(C(=O)NC2CCCc4ccccc42)C3)sc1C[100NH:0][100C:0](=O)N1CCCC(n2nc(-c3ccc(Oc4ccc(F)cc4F)cc3)c(C(N)=O)c2N)C1

> <Shape>
0.249

> <Color>
0.071

> <Negative vol penalty>
0.000

$$$$

  -OEChem-04052316363D

 82 90  0     1  0  0  0  0  0999 V2000
  -26.4127  -18.5110   23.1364 C   0  0  0  0  0  0  0  0  0  0  0  0
  -26.8043  -19.6103   22.3791 C   0  0  0  0  0  0  0  0  0  0  0  0
  -26.1302  -13.7931   21.7058 C   0  0  0  0  0  0  0  0  0  0  0  0
  -25.9924  -13.8629   19.2947 C   0  0  0  0  0  0  0  0  0  0  0  0
  -25.0689  -18.3339   23.4629 C   0  0  0  0  0  0  0  0  0  0  0  0
  -25.8520  -20.5327   21.9469 C   0  0  0  0  0  0  0  0  0  0  0  0
  -27.3498  -25.3251   22.6062 C   0  0  0  0  0  0  0  0  0  0  0  0
  -24.7944  -13.3971   21.7707 C   0  0  0  0  0  0  0  0  0  0  0  0
  -24.6565  -13.4669   19.3597 C   0  0  0  0  0  0  0  0  0  0  0  0
  -28.2581  -25.8410   21.6829 C   0  0  0  0  0  0  0  0  0  0  0  0
  -21.7518  -14.8509   21.5393 C   0  0  0  0  0  0  0  0  0  0  0  0
  -20.9351  -15.4799   22.4790 C   0  0  0  0  0  0  0  0  0  0  0  0
  -26.4508  -26.9531   20.5356 C   0  0  0  0  0  0  0  0  0  0  0  0
  -31.0731  -25.6606   18.2837 C   0  0  0  0  0  0  0  0  0  0  0  0
  -29.5311  -24.9305   16.5731 C   0  0  0  0  0  0  0  0  0  0  0  0
  -20.4994  -13.3474   23.5277 C   0  0  0  0  0  0  0  0  0  0  0  0
  -26.7292  -14.0261   20.4678 C   0  0  0  0  0  0  0  0  0  0  0  0
  -29.2399  -13.6021   20.3111 C   0  0  0  0  0  0  0  0  0  0  0  0
  -24.1009  -19.2597   23.0427 C   0  0  0  0  0  0  0  0  0  0  0  0
  -25.9815  -25.6108   22.4947 C   0  0  0  0  0  0  0  0  0  0  0  0
  -24.4938  -20.3671   22.2670 C   0  0  0  0  0  0  0  0  0  0  0  0
  -25.5276  -26.4416   21.4603 C   0  0  0  0  0  0  0  0  0  0  0  0
  -30.0043  -25.9262   17.4277 C   0  0  0  0  0  0  0  0  0  0  0  0
  -31.1955  -23.4036   17.4306 C   0  0  0  0  0  0  0  0  0  0  0  0
  -24.0575  -13.2339   20.5977 C   0  0  0  0  0  0  0  0  0  0  0  0
  -27.8083  -26.6528   20.6457 C   0  0  0  0  0  0  0  0  0  0  0  0
  -21.9423  -13.4701   21.5938 C   0  0  0  0  0  0  0  0  0  0  0  0
  -20.3089  -14.7281   23.4732 C   0  0  0  0  0  0  0  0  0  0  0  0
  -21.3161  -12.7184   22.5880 C   0  0  0  0  0  0  0  0  0  0  0  0
  -31.6688  -24.3993   18.2851 C   0  0  0  0  0  0  0  0  0  0  0  0
  -30.1267  -23.6692   16.5746 C   0  0  0  0  0  0  0  0  0  0  0  0
  -28.1090  -14.4358   20.4001 C   0  0  0  0  0  0  0  0  0  0  0  0
  -30.3040  -14.4698   20.2745 C   0  0  0  0  0  0  0  0  0  0  0  0
  -29.3212  -12.1714   20.2654 C   0  0  0  0  0  0  0  0  0  0  0  0
  -23.3575  -23.8757   22.0391 C   0  0  0  0  0  0  0  0  0  0  0  0
  -21.8657  -26.7139   22.5304 C   0  0  0  0  0  0  0  0  0  0  0  0
  -22.0283  -30.1221   22.4637 C   0  0  0  0  0  0  0  0  0  0  0  0
  -30.7505  -20.0725   18.4674 C   0  0  0  0  0  0  0  0  0  0  0  0
  -22.6540  -19.0008   23.3802 C   0  0  0  0  0  0  0  0  0  0  0  0
  -25.0180  -25.0683   23.5143 C   0  0  0  0  0  0  0  0  0  0  0  0
  -24.0714  -26.7950   21.3082 C   0  0  0  0  0  0  0  0  0  0  0  0
  -21.7584  -20.2239   23.2007 C   0  0  0  0  0  0  0  0  0  0  0  0
  -31.6375  -18.8244   21.7466 C   0  0  0  0  0  0  0  0  0  0  0  0
  -22.0450  -20.9042   21.8659 C   0  0  0  0  0  0  0  0  0  0  0  0
  -30.9315  -17.4673   21.7567 C   0  0  0  0  0  0  0  0  0  0  0  0
  -30.8002  -19.8777   21.0272 C   0  0  0  0  0  0  0  0  0  0  0  0
  -29.7076  -18.1561   19.6430 C   0  0  0  0  0  0  0  0  0  0  0  0
  -23.4937  -21.4027   21.8006 C   0  0  1  0  0  0  0  0  0  0  0  0
  -23.5815  -25.0049   23.0047 C   0  0  1  0  0  0  0  0  0  0  0  0
  -30.5135  -17.0426   20.3364 C   0  0  2  0  0  0  0  0  0  0  0  0
  -20.6384  -32.1691   22.8821 C   0  0  0  0  0  0  0  0  0  0  0  0
  -20.4162  -26.2678   19.8828 C   0  0  0  0  0  0  0  0  0  0  0  0
  -19.8035  -28.6953   19.8893 C   0  0  0  0  0  0  0  0  0  0  0  0
  -18.9864  -27.1997   21.7109 C   0  0  0  0  0  0  0  0  0  0  0  0
  -23.8446  -31.0596   24.6041 C   0  0  0  0  0  0  0  0  0  0  0  0
  -29.3602  -27.2913   17.4257 C   0  0  0  0  0  0  0  0  0  0  0  0
  -31.8357  -22.0489   17.4316 C   0  0  0  0  0  0  0  0  0  0  0  0
  -28.2090  -27.3907   18.4206 C   0  0  0  0  0  0  0  0  0  1  0  0
  -21.4267  -27.8577   21.6484 C   0  0  1  0  0  0  0  0  0  0  0  0
  -21.6161  -31.1703   23.4814 C   0  0  2  0  0  0  0  0  0  0  0  0
  -20.1854  -27.4971   20.7843 C   0  0  0  0  0  0  0  0  0  0  0  0
  -28.4251  -15.7333   20.4191 N   0  0  0  0  0  0  0  0  0  0  0  0
  -29.7667  -15.7216   20.3416 N   0  0  0  0  0  0  0  0  0  0  0  0
  -23.1676  -26.2350   22.3265 N   0  0  0  0  0  0  0  0  0  0  0  0
  -30.4515  -19.4197   19.6749 N   0  0  0  0  0  0  0  0  0  0  0  0
  -31.6375  -14.2764   20.1919 N   0  0  0  0  0  0  0  0  0  0  0  0
  -28.1311  -11.4327   20.3128 N   0  0  0  0  0  0  0  0  0  0  0  0
  -23.6416  -22.6269   22.5582 N   0  0  0  0  0  0  0  0  0  0  0  0
  -21.2279  -29.0015   22.5319 N   0  0  0  0  0  0  0  0  0  0  0  0
  -31.4512  -21.2666   18.5853 N   0  0  0  0  0  0  0  0  0  0  0  0
  -22.8103  -31.9165   23.9693 N   0  3  0  0  0  0  0  0  0  0  0  0
  -30.4177  -11.5655   20.2015 O   0  0  0  0  0  0  0  0  0  0  0  0
  -22.9552  -24.1191   20.9075 O   0  0  0  0  0  0  0  0  0  0  0  0
  -21.0849  -26.2668   23.3742 O   0  0  0  0  0  0  0  0  0  0  0  0
  -22.9643  -30.2830   21.6836 O   0  0  0  0  0  0  0  0  0  0  0  0
  -30.4218  -19.6218   17.3648 O   0  0  0  0  0  0  0  0  0  0  0  0
  -22.7540  -12.8472   20.6607 O   0  0  0  0  0  0  0  0  0  0  0  0
  -28.6927  -27.1572   19.7427 O   0  0  0  0  0  0  0  0  0  1  0  0
  -19.5259  -15.3325   24.3764 F   0  0  0  0  0  0  0  0  0  0  0  0
  -21.4962  -11.3917   22.6461 F   0  0  0  0  0  0  0  0  0  0  0  0
  -32.9896  -24.1136   19.3604 Cl  0  0  0  0  0  0  0  0  0  0  0  0
  -29.5099  -22.4661   15.5000 Cl  0  0  0  0  0  0  0  0  0  0  0  0
  1  2  1  0  0  0  0
  1  5  2  0  0  0  0
  2  6  2  0  0  0  0
  3  8  2  0  0  0  0
  3 17  1  0  0  0  0
  4  9  1  0  0  0  0
  4 17  2  0  0  0  0
  5 19  1  0  0  0  0
  6 21  1  0  0  0  0
  7 10  2  0  0  0  0
  7 20  1  0  0  0  0
  8 25  1  0  0  0  0
  9 25  2  0  0  0  0
 10 26  1  0  0  0  0
 11 12  2  0  0  0  0
 11 27  1  0  0  0  0
 12 28  1  0  0  0  0
 13 22  1  0  0  0  0
 13 26  2  0  0  0  0
 14 23  1  0  0  0  0
 14 30  2  0  0  0  0
 15 23  2  0  0  0  0
 15 31  1  0  0  0  0
 16 28  2  0  0  0  0
 16 29  1  0  0  0  0
 17 32  1  0  0  0  0
 18 32  1  0  0  0  0
 18 33  2  0  0  0  0
 18 34  1  0  0  0  0
 19 21  2  0  0  0  0
 19 39  1  0  0  0  0
 20 22  2  0  0  0  0
 20 40  1  0  0  0  0
 21 48  1  0  0  0  0
 22 41  1  0  0  0  0
 23 56  1  0  0  0  0
 24 30  1  0  0  0  0
 24 31  2  0  0  0  0
 24 57  1  0  0  0  0
 25 77  1  0  0  0  0
 26 78  1  0  0  0  0
 27 29  2  0  0  0  0
 27 77  1  0  0  0  0
 28 79  1  0  0  0  0
 29 80  1  0  0  0  0
 30 81  1  0  0  0  0
 31 82  1  0  0  0  0
 32 62  2  0  0  0  0
 33 63  1  0  0  0  0
 33 66  1  0  0  0  0
 34 67  1  0  0  0  0
 34 72  2  0  0  0  0
 35 49  1  0  0  0  0
 35 68  1  0  0  0  0
 35 73  2  0  0  0  0
 36 59  1  0  0  0  0
 36 64  1  0  0  0  0
 36 74  2  0  0  0  0
 37 60  1  0  0  0  0
 37 69  1  0  0  0  0
 37 75  2  0  0  0  0
 38 65  1  0  0  0  0
 38 70  1  0  0  0  0
 38 76  2  0  0  0  0
 39 42  1  0  0  0  0
 40 49  1  0  0  0  0
 41 64  1  0  0  0  0
 42 44  1  0  0  0  0
 43 45  1  0  0  0  0
 43 46  1  0  0  0  0
 44 48  1  0  0  0  0
 45 50  1  0  0  0  0
 46 65  1  0  0  0  0
 47 50  1  0  0  0  0
 47 65  1  0  0  0  0
 48 68  1  0  0  0  0
 49 64  1  0  0  0  0
 50 63  1  0  0  0  0
 51 60  1  0  0  0  0
 52 61  1  0  0  0  0
 53 61  1  0  0  0  0
 54 61  1  0  0  0  0
 55 71  1  0  0  0  0
 56 58  1  0  0  0  0
 57 70  1  0  0  0  0
 58 78  1  0  0  0  0
 59 61  1  0  0  0  0
 59 69  1  0  0  0  0
 60 71  1  0  0  0  0
 62 63  1  0  0  0  0
M  CHG  1  71   1
M  ISO  4  38 100  58 101  70 100  78 101
M  END
> <Batch ID>
0029

> <Smiles>
CNC(C)C(=O)NC(C(=O)N1Cc2cc([101O:1][101CH2:1]Cc3cc(Cl)c(C[100NH:0][100C:0](=O)N4CCCC(n5nc(-c6ccc(Oc7ccc(F)cc7F)cc6)c(C(N)=O)c5N)C4)c(Cl)c3)ccc2CC1C(=O)NC1CCCc2ccccc21)C(C)(C)C

> <Shape>
0.220

> <Color>
0.055

> <Negative vol penalty>
0.000

$$$$

  -OEChem-04052316363D

 83 91  0     1  0  0  0  0  0999 V2000
  -22.1077  -12.3188   18.5279 C   0  0  0  0  0  0  0  0  0  0  0  0
  -21.8574  -13.6171   18.9606 C   0  0  0  0  0  0  0  0  0  0  0  0
  -30.3803  -27.7205   19.7140 C   0  0  0  0  0  0  0  0  0  0  0  0
  -30.0694  -27.4953   22.0993 C   0  0  0  0  0  0  0  0  0  0  0  0
  -23.2647  -11.6589   18.9398 C   0  0  0  0  0  0  0  0  0  0  0  0
  -22.7635  -14.2558   19.8064 C   0  0  0  0  0  0  0  0  0  0  0  0
  -24.1637  -20.2174   19.8740 C   0  0  0  0  0  0  0  0  0  0  0  0
  -31.7616  -27.7768   19.8993 C   0  0  0  0  0  0  0  0  0  0  0  0
  -31.4508  -27.5515   22.2846 C   0  0  0  0  0  0  0  0  0  0  0  0
  -23.7297  -21.2738   20.6737 C   0  0  0  0  0  0  0  0  0  0  0  0
  -35.3886  -27.6171   19.7126 C   0  0  0  0  0  0  0  0  0  0  0  0
  -36.1888  -26.8572   18.8596 C   0  0  0  0  0  0  0  0  0  0  0  0
  -25.6634  -20.9897   22.0878 C   0  0  0  0  0  0  0  0  0  0  0  0
  -20.5082  -26.1359   23.4854 C   0  0  0  0  0  0  0  0  0  0  0  0
  -19.1935  -26.6893   21.5355 C   0  0  0  0  0  0  0  0  0  0  0  0
  -35.0899  -24.8449   19.6213 C   0  0  0  0  0  0  0  0  0  0  0  0
  -29.5342  -27.5798   20.8140 C   0  0  0  0  0  0  0  0  0  0  0  0
  -27.3234  -26.3719   20.4126 C   0  0  0  0  0  0  0  0  0  0  0  0
  -24.1902  -12.2933   19.7834 C   0  0  0  0  0  0  0  0  0  0  0  0
  -25.3470  -19.5310   20.1821 C   0  0  0  0  0  0  0  0  0  0  0  0
  -23.9333  -13.6032   20.2311 C   0  0  0  0  0  0  0  0  0  0  0  0
  -26.1115  -19.9266   21.2890 C   0  0  0  0  0  0  0  0  0  0  0  0
  -19.9790  -27.0899   22.6163 C   0  0  0  0  0  0  0  0  0  0  0  0
  -20.2519  -24.7812   23.2737 C   0  0  0  0  0  0  0  0  0  0  0  0
  -19.4663  -24.3806   22.1929 C   0  0  0  0  0  0  0  0  0  0  0  0
  -32.2969  -27.6923   21.1846 C   0  0  0  0  0  0  0  0  0  0  0  0
  -24.4781  -21.6583   21.7824 C   0  0  0  0  0  0  0  0  0  0  0  0
  -34.4390  -26.9910   20.5201 C   0  0  0  0  0  0  0  0  0  0  0  0
  -36.0395  -25.4711   18.8139 C   0  0  0  0  0  0  0  0  0  0  0  0
  -34.2897  -25.6049   20.4744 C   0  0  0  0  0  0  0  0  0  0  0  0
  -18.9371  -25.3346   21.3238 C   0  0  0  0  0  0  0  0  0  0  0  0
  -28.1072  -27.5222   20.6232 C   0  0  0  0  0  0  0  0  0  0  0  0
  -26.0407  -26.8478   20.2912 C   0  0  0  0  0  0  0  0  0  0  0  0
  -27.7194  -24.9961   20.3339 C   0  0  0  0  0  0  0  0  0  0  0  0
  -26.0643  -16.5330   20.9577 C   0  0  0  0  0  0  0  0  0  0  0  0
  -29.1134  -17.6196   20.7466 C   0  0  0  0  0  0  0  0  0  0  0  0
  -31.2598  -20.2700   20.8707 C   0  0  0  0  0  0  0  0  0  0  0  0
  -21.9060  -30.1847   21.9984 C   0  0  0  0  0  0  0  0  0  0  0  0
  -25.4034  -11.5225   20.2401 C   0  0  0  0  0  0  0  0  0  0  0  0
  -25.8154  -18.4109   19.2941 C   0  0  0  0  0  0  0  0  0  0  0  0
  -27.3997  -19.2353   21.6509 C   0  0  0  0  0  0  0  0  0  0  0  0
  -26.4973  -12.4052   20.8355 C   0  0  0  0  0  0  0  0  0  0  0  0
  -24.3183  -31.5763   19.7800 C   0  0  0  0  0  0  0  0  0  0  0  0
  -25.9001  -13.4018   21.8239 C   0  0  0  0  0  0  0  0  0  0  0  0
  -25.4563  -30.5542   19.7893 C   0  0  0  0  0  0  0  0  0  0  0  0
  -23.6674  -31.7088   21.1551 C   0  0  0  0  0  0  0  0  0  0  0  0
  -24.3449  -29.4168   21.7565 C   0  0  0  0  0  0  0  0  0  0  0  0
  -24.9044  -14.3385   21.1292 C   0  0  1  0  0  0  0  0  0  0  0  0
  -26.7684  -17.4494   19.9974 C   0  0  1  0  0  0  0  0  0  0  0  0
  -24.9956  -29.2073   20.3784 C   0  0  2  0  0  0  0  0  0  0  0  0
  -19.2014  -22.9227   21.9796 C   0  0  0  0  0  0  0  0  0  0  0  0
  -33.6975  -20.8405   20.6988 C   0  0  0  0  0  0  0  0  0  0  0  0
  -29.5652  -16.5261   23.5591 C   0  0  0  0  0  0  0  0  0  0  0  0
  -31.6360  -17.9265   23.6956 C   0  0  0  0  0  0  0  0  0  0  0  0
  -31.4567  -16.1334   21.9708 C   0  0  0  0  0  0  0  0  0  0  0  0
  -30.8056  -22.0109   18.5208 C   0  0  0  0  0  0  0  0  0  0  0  0
  -20.8381  -23.7721   24.2284 C   0  0  0  0  0  0  0  0  0  0  0  0
  -20.2527  -28.5383   22.8439 C   0  0  0  0  0  0  0  0  0  0  0  0
  -22.3312  -23.5152   24.0129 C   0  0  0  0  0  0  0  0  0  0  0  0
  -22.6485  -22.9031   22.6535 C   0  0  0  0  0  0  0  0  0  1  0  0
  -30.0939  -18.2466   21.7081 C   0  0  1  0  0  0  0  0  0  0  0  0
  -32.3838  -20.7001   19.9455 C   0  0  2  0  0  0  0  0  0  0  0  0
  -30.6627  -17.2201   22.7280 C   0  0  0  0  0  0  0  0  0  0  0  0
  -27.3830  -28.6444   20.6353 N   0  0  0  0  0  0  0  0  0  0  0  0
  -26.1307  -28.2016   20.4307 N   0  0  0  0  0  0  0  0  0  0  0  0
  -27.8123  -18.1419   20.7555 N   0  0  0  0  0  0  0  0  0  0  0  0
  -23.2518  -30.3966   21.6565 N   0  0  0  0  0  0  0  0  0  0  0  0
  -24.8560  -26.2362   20.0798 N   0  0  0  0  0  0  0  0  0  0  0  0
  -29.0775  -24.6823   20.4806 N   0  0  0  0  0  0  0  0  0  0  0  0
  -25.6075  -15.3614   20.3850 N   0  0  0  0  0  0  0  0  0  0  0  0
  -31.1088  -18.8995   20.8883 N   0  0  0  0  0  0  0  0  0  0  0  0
  -21.5957  -28.9111   22.4591 N   0  0  0  0  0  0  0  0  0  0  0  0
  -32.0619  -22.0109   19.3138 N   0  3  0  0  0  0  0  0  0  0  0  0
  -26.8955  -24.0740   20.1230 O   0  0  0  0  0  0  0  0  0  0  0  0
  -25.9456  -16.8638   22.1316 O   0  0  0  0  0  0  0  0  0  0  0  0
  -29.4900  -16.7050   20.0095 O   0  0  0  0  0  0  0  0  0  0  0  0
  -30.5857  -21.0696   21.5163 O   0  0  0  0  0  0  0  0  0  0  0  0
  -21.0437  -31.0638   21.8952 O   0  0  0  0  0  0  0  0  0  0  0  0
  -33.6447  -27.7469   21.3658 O   0  0  0  0  0  0  0  0  0  0  0  0
  -24.0565  -22.6886   22.5650 O   0  0  0  0  0  0  0  0  0  1  0  0
  -36.8070  -24.7416   17.9936 F   0  0  0  0  0  0  0  0  0  0  0  0
  -33.3783  -24.9978   21.2469 F   0  0  0  0  0  0  0  0  0  0  0  0
  -17.9588  -24.8793   19.9759 Cl  0  0  0  0  0  0  0  0  0  0  0  0
  1  2  1  0  0  0  0
  1  5  2  0  0  0  0
  2  6  2  0  0  0  0
  3  8  2  0  0  0  0
  3 17  1  0  0  0  0
  4  9  1  0  0  0  0
  4 17  2  0  0  0  0
  5 19  1  0  0  0  0
  6 21  1  0  0  0  0
  7 10  2  0  0  0  0
  7 20  1  0  0  0  0
  8 26  1  0  0  0  0
  9 26  2  0  0  0  0
 10 27  1  0  0  0  0
 11 12  2  0  0  0  0
 11 28  1  0  0  0  0
 12 29  1  0  0  0  0
 13 22  1  0  0  0  0
 13 27  2  0  0  0  0
 14 23  2  0  0  0  0
 14 24  1  0  0  0  0
 15 23  1  0  0  0  0
 15 31  2  0  0  0  0
 16 29  2  0  0  0  0
 16 30  1  0  0  0  0
 17 32  1  0  0  0  0
 18 32  1  0  0  0  0
 18 33  2  0  0  0  0
 18 34  1  0  0  0  0
 19 21  2  0  0  0  0
 19 39  1  0  0  0  0
 20 22  2  0  0  0  0
 20 40  1  0  0  0  0
 21 48  1  0  0  0  0
 22 41  1  0  0  0  0
 23 58  1  0  0  0  0
 24 25  2  0  0  0  0
 24 57  1  0  0  0  0
 25 31  1  0  0  0  0
 25 51  1  0  0  0  0
 26 79  1  0  0  0  0
 27 80  1  0  0  0  0
 28 30  2  0  0  0  0
 28 79  1  0  0  0  0
 29 81  1  0  0  0  0
 30 82  1  0  0  0  0
 31 83  1  0  0  0  0
 32 64  2  0  0  0  0
 33 65  1  0  0  0  0
 33 68  1  0  0  0  0
 34 69  1  0  0  0  0
 34 74  2  0  0  0  0
 35 49  1  0  0  0  0
 35 70  1  0  0  0  0
 35 75  2  0  0  0  0
 36 61  1  0  0  0  0
 36 66  1  0  0  0  0
 36 76  2  0  0  0  0
 37 62  1  0  0  0  0
 37 71  1  0  0  0  0
 37 77  2  0  0  0  0
 38 67  1  0  0  0  0
 38 72  1  0  0  0  0
 38 78  2  0  0  0  0
 39 42  1  0  0  0  0
 40 49  1  0  0  0  0
 41 66  1  0  0  0  0
 42 44  1  0  0  0  0
 43 45  1  0  0  0  0
 43 46  1  0  0  0  0
 44 48  1  0  0  0  0
 45 50  1  0  0  0  0
 46 67  1  0  0  0  0
 47 50  1  0  0  0  0
 47 67  1  0  0  0  0
 48 70  1  0  0  0  0
 49 66  1  0  0  0  0
 50 65  1  0  0  0  0
 52 62  1  0  0  0  0
 53 63  1  0  0  0  0
 54 63  1  0  0  0  0
 55 63  1  0  0  0  0
 56 73  1  0  0  0  0
 57 59  1  0  0  0  0
 58 72  1  0  0  0  0
 59 60  1  0  0  0  0
 60 80  1  0  0  0  0
 61 63  1  0  0  0  0
 61 71  1  0  0  0  0
 62 73  1  0  0  0  0
 64 65  1  0  0  0  0
M  CHG  1  73   1
M  ISO  4  38 100  60 101  72 100  80 101
M  END
> <Batch ID>
0029

> <Smiles>
CNC(C)C(=O)NC(C(=O)N1Cc2cc([101O:1][101CH2:1]CCc3cc(C[100NH:0][100C:0](=O)N4CCCC(n5nc(-c6ccc(Oc7ccc(F)cc7F)cc6)c(C(N)=O)c5N)C4)cc(Cl)c3C)ccc2CC1C(=O)NC1CCCc2ccccc21)C(C)(C)C

> <Shape>
0.221

> <Color>
0.075

> <Negative vol penalty>
0.000

$$$$

  -OEChem-04052316363D

 87 95  0     1  0  0  0  0  0999 V2000
  -29.2330  -20.4970   14.2903 C   0  0  0  0  0  0  0  0  0  0  0  0
  -28.8246  -20.6344   15.6130 C   0  0  0  0  0  0  0  0  0  0  0  0
  -23.1005   -9.8968   19.8752 C   0  0  0  0  0  0  0  0  0  0  0  0
  -23.8891   -9.8049   22.1570 C   0  0  0  0  0  0  0  0  0  0  0  0
  -30.2619  -21.2957   13.7930 C   0  0  0  0  0  0  0  0  0  0  0  0
  -29.4456  -21.5700   16.4397 C   0  0  0  0  0  0  0  0  0  0  0  0
  -26.1320  -24.2366   19.1882 C   0  0  0  0  0  0  0  0  0  0  0  0
  -22.3793   -8.7201   20.0771 C   0  0  0  0  0  0  0  0  0  0  0  0
  -23.1679   -8.6282   22.3589 C   0  0  0  0  0  0  0  0  0  0  0  0
  -25.5902  -23.6142   20.3119 C   0  0  0  0  0  0  0  0  0  0  0  0
  -19.9614   -7.7461   22.9597 C   0  0  0  0  0  0  0  0  0  0  0  0
  -19.2201   -7.6360   24.1361 C   0  0  0  0  0  0  0  0  0  0  0  0
  -27.1495  -24.8046   21.7157 C   0  0  0  0  0  0  0  0  0  0  0  0
  -30.4905  -19.9376   21.7938 C   0  0  0  0  0  0  0  0  0  0  0  0
  -31.0562  -17.8046   20.8103 C   0  0  0  0  0  0  0  0  0  0  0  0
  -20.5029   -5.6867   24.7619 C   0  0  0  0  0  0  0  0  0  0  0  0
  -23.8555  -10.4392   20.9152 C   0  0  0  0  0  0  0  0  0  0  0  0
  -24.1535  -12.9727   20.9151 C   0  0  0  0  0  0  0  0  0  0  0  0
  -30.8894  -22.2483   14.6113 C   0  0  0  0  0  0  0  0  0  0  0  0
  -27.1957  -25.1410   19.3190 C   0  0  0  0  0  0  0  0  0  0  0  0
  -30.4848  -22.3814   15.9533 C   0  0  0  0  0  0  0  0  0  0  0  0
  -27.7014  -25.4391   20.5924 C   0  0  0  0  0  0  0  0  0  0  0  0
  -31.2151  -19.1893   20.8661 C   0  0  0  0  0  0  0  0  0  0  0  0
  -29.6070  -19.3012   22.6657 C   0  0  0  0  0  0  0  0  0  0  0  0
  -29.4481  -17.9166   22.6099 C   0  0  0  0  0  0  0  0  0  0  0  0
  -30.1727  -17.1682   21.6822 C   0  0  0  0  0  0  0  0  0  0  0  0
  -22.4129   -8.0858   21.3189 C   0  0  0  0  0  0  0  0  0  0  0  0
  -26.1008  -23.8959   21.5756 C   0  0  0  0  0  0  0  0  0  0  0  0
  -20.9734   -6.8265   22.6844 C   0  0  0  0  0  0  0  0  0  0  0  0
  -19.4909   -6.6063   25.0372 C   0  0  0  0  0  0  0  0  0  0  0  0
  -21.2442   -5.7968   23.5855 C   0  0  0  0  0  0  0  0  0  0  0  0
  -24.6013  -11.6544   20.7071 C   0  0  0  0  0  0  0  0  0  0  0  0
  -25.2283  -13.7579   20.5761 C   0  0  0  0  0  0  0  0  0  0  0  0
  -22.8800  -13.4454   21.3737 C   0  0  0  0  0  0  0  0  0  0  0  0
  -30.1973  -25.2394   18.2775 C   0  0  0  0  0  0  0  0  0  0  0  0
  -30.1438  -28.2059   19.5886 C   0  0  0  0  0  0  0  0  0  0  0  0
  -28.7586  -30.3462   21.8574 C   0  0  0  0  0  0  0  0  0  0  0  0
  -30.6780  -14.8883   20.7373 C   0  0  0  0  0  0  0  0  0  0  0  0
  -32.0290  -23.0561   14.0424 C   0  0  0  0  0  0  0  0  0  0  0  0
  -27.7514  -25.8242   18.0996 C   0  0  0  0  0  0  0  0  0  0  0  0
  -28.8292  -26.4179   20.7886 C   0  0  0  0  0  0  0  0  0  0  0  0
  -32.3817  -24.2840   14.8779 C   0  0  0  0  0  0  0  0  0  0  0  0
  -29.5743  -12.5740   18.2668 C   0  0  0  0  0  0  0  0  0  0  0  0
  -32.4654  -23.9178   16.3563 C   0  0  0  0  0  0  0  0  0  0  0  0
  -28.1452  -12.2369   18.6986 C   0  0  0  0  0  0  0  0  0  0  0  0
  -30.5005  -12.7597   19.4674 C   0  0  0  0  0  0  0  0  0  0  0  0
  -28.5993  -13.3827   20.9049 C   0  0  0  0  0  0  0  0  0  0  0  0
  -31.1172  -23.4022   16.8741 C   0  0  1  0  0  0  0  0  0  0  0  0
  -29.1736  -26.3390   18.2991 C   0  0  1  0  0  0  0  0  0  0  0  0
  -27.6147  -13.2503   19.7316 C   0  0  2  0  0  0  0  0  0  0  0  0
  -28.4995  -17.2386   23.5482 C   0  0  0  0  0  0  0  0  0  0  0  0
  -28.9502  -32.6939   22.7228 C   0  0  0  0  0  0  0  0  0  0  0  0
  -32.6407  -27.4214   21.1571 C   0  0  0  0  0  0  0  0  0  0  0  0
  -32.2288  -29.3820   22.6586 C   0  0  0  0  0  0  0  0  0  0  0  0
  -32.6772  -29.7444   20.2316 C   0  0  0  0  0  0  0  0  0  0  0  0
  -25.9945  -31.0014   21.0271 C   0  0  0  0  0  0  0  0  0  0  0  0
  -28.8413  -20.1294   23.6550 C   0  0  0  0  0  0  0  0  0  0  0  0
  -25.1710  -21.2104   23.8005 C   0  0  0  0  0  0  0  0  0  0  0  0
  -26.6103  -21.0678   24.2720 C   0  0  0  0  0  0  0  0  0  0  0  0
  -25.0271  -21.9835   22.4953 C   0  0  0  0  0  0  0  0  0  1  0  0
  -30.4541  -28.7786   20.9506 C   0  0  1  0  0  0  0  0  0  0  0  0
  -28.2650  -31.7755   21.7229 C   0  0  2  0  0  0  0  0  0  0  0  0
  -32.1609  -19.8694   19.9349 C   0  0  0  0  0  0  0  0  0  0  0  0
  -31.9802  -28.8116   21.2459 C   0  0  0  0  0  0  0  0  0  0  0  0
  -25.8621  -11.6010   20.2697 N   0  0  0  0  0  0  0  0  0  0  0  0
  -26.2159  -12.8957   20.2000 N   0  0  0  0  0  0  0  0  0  0  0  0
  -29.3430  -27.0553   19.5650 N   0  0  0  0  0  0  0  0  0  0  0  0
  -29.9355  -13.7366   20.4008 N   0  0  0  0  0  0  0  0  0  0  0  0
  -25.4154  -15.0948   20.5660 N   0  0  0  0  0  0  0  0  0  0  0  0
  -21.8878  -12.5034   21.6780 N   0  0  0  0  0  0  0  0  0  0  0  0
  -30.0256  -15.7609   21.6077 N   0  0  0  0  0  0  0  0  0  0  0  0
  -30.2099  -24.5054   17.1067 N   0  0  0  0  0  0  0  0  0  0  0  0
  -29.8072  -30.0853   21.0009 N   0  0  0  0  0  0  0  0  0  0  0  0
  -26.7946  -31.8399   21.9565 N   0  3  0  0  0  0  0  0  0  0  0  0
  -27.4104  -20.3075   23.2834 N   0  3  0  0  0  0  0  0  0  0  0  0
  -22.6239  -14.6675   21.4941 O   0  0  0  0  0  0  0  0  0  0  0  0
  -30.9230  -25.0703   19.2503 O   0  0  0  0  0  0  0  0  0  0  0  0
  -30.5895  -28.7632   18.5825 O   0  0  0  0  0  0  0  0  0  0  0  0
  -28.2658  -29.5428   22.6461 O   0  0  0  0  0  0  0  0  0  0  0  0
  -31.7981  -15.0992   20.2652 O   0  0  0  0  0  0  0  0  0  0  0  0
  -21.7090   -6.9377   21.5164 O   0  0  0  0  0  0  0  0  0  0  0  0
  -25.5742  -23.2893   22.6741 O   0  0  0  0  0  0  0  0  0  1  0  0
  -18.7799   -6.5015   26.1676 F   0  0  0  0  0  0  0  0  0  0  0  0
  -22.2161   -4.9111   23.3270 F   0  0  0  0  0  0  0  0  0  0  0  0
  -32.2155  -21.2240   20.1029 F   0  0  0  0  0  0  0  0  0  0  0  0
  -33.4525  -19.4430   20.0595 F   0  0  0  0  0  0  0  0  0  0  0  0
  -31.8364  -19.6762   18.6233 F   0  0  0  0  0  0  0  0  0  0  0  0
  1  2  1  0  0  0  0
  1  5  2  0  0  0  0
  2  6  2  0  0  0  0
  3  8  2  0  0  0  0
  3 17  1  0  0  0  0
  4  9  1  0  0  0  0
  4 17  2  0  0  0  0
  5 19  1  0  0  0  0
  6 21  1  0  0  0  0
  7 10  2  0  0  0  0
  7 20  1  0  0  0  0
  8 27  1  0  0  0  0
  9 27  2  0  0  0  0
 10 28  1  0  0  0  0
 11 12  2  0  0  0  0
 11 29  1  0  0  0  0
 12 30  1  0  0  0  0
 13 22  1  0  0  0  0
 13 28  2  0  0  0  0
 14 23  2  0  0  0  0
 14 24  1  0  0  0  0
 15 23  1  0  0  0  0
 15 26  2  0  0  0  0
 16 30  2  0  0  0  0
 16 31  1  0  0  0  0
 17 32  1  0  0  0  0
 18 32  1  0  0  0  0
 18 33  2  0  0  0  0
 18 34  1  0  0  0  0
 19 21  2  0  0  0  0
 19 39  1  0  0  0  0
 20 22  2  0  0  0  0
 20 40  1  0  0  0  0
 21 48  1  0  0  0  0
 22 41  1  0  0  0  0
 23 63  1  0  0  0  0
 24 25  2  0  0  0  0
 24 57  1  0  0  0  0
 25 26  1  0  0  0  0
 25 51  1  0  0  0  0
 26 71  1  0  0  0  0
 27 81  1  0  0  0  0
 28 82  1  0  0  0  0
 29 31  2  0  0  0  0
 29 81  1  0  0  0  0
 30 83  1  0  0  0  0
 31 84  1  0  0  0  0
 32 65  2  0  0  0  0
 33 66  1  0  0  0  0
 33 69  1  0  0  0  0
 34 70  1  0  0  0  0
 34 76  2  0  0  0  0
 35 49  1  0  0  0  0
 35 72  1  0  0  0  0
 35 77  2  0  0  0  0
 36 61  1  0  0  0  0
 36 67  1  0  0  0  0
 36 78  2  0  0  0  0
 37 62  1  0  0  0  0
 37 73  1  0  0  0  0
 37 79  2  0  0  0  0
 38 68  1  0  0  0  0
 38 71  1  0  0  0  0
 38 80  2  0  0  0  0
 39 42  1  0  0  0  0
 40 49  1  0  0  0  0
 41 67  1  0  0  0  0
 42 44  1  0  0  0  0
 43 45  1  0  0  0  0
 43 46  1  0  0  0  0
 44 48  1  0  0  0  0
 45 50  1  0  0  0  0
 46 68  1  0  0  0  0
 47 50  1  0  0  0  0
 47 68  1  0  0  0  0
 48 72  1  0  0  0  0
 49 67  1  0  0  0  0
 50 66  1  0  0  0  0
 52 62  1  0  0  0  0
 53 64  1  0  0  0  0
 54 64  1  0  0  0  0
 55 64  1  0  0  0  0
 56 74  1  0  0  0  0
 57 75  1  0  0  0  0
 58 59  1  0  0  0  0
 58 60  1  0  0  0  0
 59 75  1  0  0  0  0
 60 82  1  0  0  0  0
 61 64  1  0  0  0  0
 61 73  1  0  0  0  0
 62 74  1  0  0  0  0
 63 85  1  0  0  0  0
 63 86  1  0  0  0  0
 63 87  1  0  0  0  0
 65 66  1  0  0  0  0
M  CHG  2  74   1  75   1
M  ISO  4  38 100  60 101  71 100  82 101
M  END
> <Batch ID>
0029

> <Smiles>
CNC(C)C(=O)NC(C(=O)N1Cc2cc([101O:1][101CH2:1]CCNCc3cc(C(F)(F)F)cc([100NH:0][100C:0](=O)N4CCCC(n5nc(-c6ccc(Oc7ccc(F)cc7F)cc6)c(C(N)=O)c5N)C4)c3C)ccc2CC1C(=O)NC1CCCc2ccccc21)C(C)(C)C

> <Shape>
0.263

> <Color>
0.210

> <Negative vol penalty>
0.000

$$$$

  -OEChem-04052316363D

 82 90  0     1  0  0  0  0  0999 V2000
  -26.5419  -25.7722   24.2780 C   0  0  0  0  0  0  0  0  0  0  0  0
  -25.2580  -25.4483   23.8510 C   0  0  0  0  0  0  0  0  0  0  0  0
  -25.7372  -28.5121   21.5666 C   0  0  0  0  0  0  0  0  0  0  0  0
  -25.0900  -28.0178   19.2920 C   0  0  0  0  0  0  0  0  0  0  0  0
  -27.6418  -25.0969   23.7507 C   0  0  0  0  0  0  0  0  0  0  0  0
  -25.0735  -24.4495   22.8956 C   0  0  0  0  0  0  0  0  0  0  0  0
  -20.4054  -20.5001   22.5531 C   0  0  0  0  0  0  0  0  0  0  0  0
  -26.9854  -27.9333   21.3373 C   0  0  0  0  0  0  0  0  0  0  0  0
  -26.3383  -27.4391   19.0626 C   0  0  0  0  0  0  0  0  0  0  0  0
  -19.2405  -20.4889   21.7871 C   0  0  0  0  0  0  0  0  0  0  0  0
  -29.4854  -28.4850   18.4132 C   0  0  0  0  0  0  0  0  0  0  0  0
  -30.1423  -28.8135   17.2274 C   0  0  0  0  0  0  0  0  0  0  0  0
  -20.3253  -19.0662   20.1690 C   0  0  0  0  0  0  0  0  0  0  0  0
  -15.7072  -23.6647   18.8209 C   0  0  0  0  0  0  0  0  0  0  0  0
  -18.0262  -22.5779   17.7146 C   0  0  0  0  0  0  0  0  0  0  0  0
  -30.1417  -26.4853   16.5822 C   0  0  0  0  0  0  0  0  0  0  0  0
  -24.7895  -28.5543   20.5440 C   0  0  0  0  0  0  0  0  0  0  0  0
  -23.1390  -30.4989   20.5902 C   0  0  0  0  0  0  0  0  0  0  0  0
  -27.4699  -24.0827   22.7954 C   0  0  0  0  0  0  0  0  0  0  0  0
  -21.5444  -19.8021   22.1266 C   0  0  0  0  0  0  0  0  0  0  0  0
  -26.1722  -23.7609   22.3541 C   0  0  0  0  0  0  0  0  0  0  0  0
  -21.5026  -19.0680   20.9327 C   0  0  0  0  0  0  0  0  0  0  0  0
  -15.7812  -22.2962   18.5618 C   0  0  0  0  0  0  0  0  0  0  0  0
  -16.7927  -24.4899   18.5268 C   0  0  0  0  0  0  0  0  0  0  0  0
  -16.9406  -21.7527   18.0087 C   0  0  0  0  0  0  0  0  0  0  0  0
  -27.2860  -27.3969   20.0852 C   0  0  0  0  0  0  0  0  0  0  0  0
  -19.2013  -19.7742   20.5935 C   0  0  0  0  0  0  0  0  0  0  0  0
  -29.1568  -27.1566   18.6836 C   0  0  0  0  0  0  0  0  0  0  0  0
  -30.4704  -27.8137   16.3119 C   0  0  0  0  0  0  0  0  0  0  0  0
  -29.4849  -26.1568   17.7680 C   0  0  0  0  0  0  0  0  0  0  0  0
  -17.9522  -23.9465   17.9737 C   0  0  0  0  0  0  0  0  0  0  0  0
  -23.4997  -29.1515   20.7805 C   0  0  0  0  0  0  0  0  0  0  0  0
  -21.8157  -30.5547   20.9537 C   0  0  0  0  0  0  0  0  0  0  0  0
  -23.9295  -31.6014   20.1262 C   0  0  0  0  0  0  0  0  0  0  0  0
  -24.5114  -20.6219   21.3336 C   0  0  0  0  0  0  0  0  0  0  0  0
  -24.9408  -17.4104   21.1768 C   0  0  0  0  0  0  0  0  0  0  0  0
  -23.5563  -14.3193   20.7585 C   0  0  0  0  0  0  0  0  0  0  0  0
  -17.4564  -26.4535   21.1201 C   0  0  0  0  0  0  0  0  0  0  0  0
  -28.6925  -23.4132   22.2195 C   0  0  0  0  0  0  0  0  0  0  0  0
  -22.7847  -19.8024   22.9776 C   0  0  0  0  0  0  0  0  0  0  0  0
  -22.6918  -18.2856   20.4408 C   0  0  0  0  0  0  0  0  0  0  0  0
  -28.3850  -22.1097   21.4869 C   0  0  0  0  0  0  0  0  0  0  0  0
  -18.6305  -28.4410   23.8308 C   0  0  0  0  0  0  0  0  0  0  0  0
  -27.1924  -22.2907   20.5531 C   0  0  0  0  0  0  0  0  0  0  0  0
  -19.9790  -28.9701   23.3393 C   0  0  0  0  0  0  0  0  0  0  0  0
  -18.3754  -27.0138   23.3512 C   0  0  0  0  0  0  0  0  0  0  0  0
  -19.8474  -27.3476   21.4030 C   0  0  0  0  0  0  0  0  0  0  0  0
  -25.9295  -22.6663   21.3376 C   0  0  1  0  0  0  0  0  0  0  0  0
  -24.0499  -19.4767   22.1899 C   0  0  1  0  0  0  0  0  0  0  0  0
  -20.1246  -28.8036   21.8147 C   0  0  2  0  0  0  0  0  0  0  0  0
  -14.6062  -21.4317   18.8824 C   0  0  0  0  0  0  0  0  0  0  0  0
  -24.1650  -11.8876   20.6420 C   0  0  0  0  0  0  0  0  0  0  0  0
  -26.0227  -17.8189   18.3532 C   0  0  0  0  0  0  0  0  0  0  0  0
  -25.7153  -15.3662   17.9556 C   0  0  0  0  0  0  0  0  0  0  0  0
  -27.2881  -16.1537   19.7244 C   0  0  0  0  0  0  0  0  0  0  0  0
  -21.8815  -13.6682   23.1101 C   0  0  0  0  0  0  0  0  0  0  0  0
  -17.0426  -20.2752   17.7171 C   0  0  0  0  0  0  0  0  0  0  0  0
  -16.6735  -25.9508   18.8193 C   0  0  0  0  0  0  0  0  0  0  0  0
  -18.2211  -19.6231   18.4319 C   0  0  0  0  0  0  0  0  0  1  0  0
  -24.7965  -16.3640   20.0983 C   0  0  1  0  0  0  0  0  0  0  0  0
  -23.7175  -13.0290   21.5418 C   0  0  2  0  0  0  0  0  0  0  0  0
  -25.9337  -16.4419   19.0409 C   0  0  0  0  0  0  0  0  0  0  0  0
  -22.4873  -28.4053   21.2302 N   0  0  0  0  0  0  0  0  0  0  0  0
  -21.4775  -29.2869   21.3255 N   0  0  0  0  0  0  0  0  0  0  0  0
  -23.8832  -18.3220   21.3049 N   0  0  0  0  0  0  0  0  0  0  0  0
  -18.5277  -26.9244   21.8970 N   0  0  0  0  0  0  0  0  0  0  0  0
  -20.9201  -31.5642   20.9885 N   0  0  0  0  0  0  0  0  0  0  0  0
  -25.2715  -31.3690   19.7956 N   0  0  0  0  0  0  0  0  0  0  0  0
  -25.3654  -21.4971   21.9772 N   0  0  0  0  0  0  0  0  0  0  0  0
  -24.7061  -15.0799   20.7850 N   0  0  0  0  0  0  0  0  0  0  0  0
  -17.6821  -26.4064   19.7498 N   0  0  0  0  0  0  0  0  0  0  0  0
  -22.4265  -12.6459   22.1801 N   0  3  0  0  0  0  0  0  0  0  0  0
  -23.4641  -32.7618   20.0238 O   0  0  0  0  0  0  0  0  0  0  0  0
  -24.1227  -20.7045   20.1744 O   0  0  0  0  0  0  0  0  0  0  0  0
  -25.9513  -17.4144   21.8842 O   0  0  0  0  0  0  0  0  0  0  0  0
  -22.5158  -14.6205   20.1778 O   0  0  0  0  0  0  0  0  0  0  0  0
  -16.3768  -26.1062   21.6107 O   0  0  0  0  0  0  0  0  0  0  0  0
  -28.5039  -26.8322   19.8610 O   0  0  0  0  0  0  0  0  0  0  0  0
  -18.0657  -19.7622   19.8436 O   0  0  0  0  0  0  0  0  0  1  0  0
  -31.0999  -28.1294   15.1724 F   0  0  0  0  0  0  0  0  0  0  0  0
  -29.1707  -24.8790   18.0217 F   0  0  0  0  0  0  0  0  0  0  0  0
  -19.3151  -24.9362   17.5965 Cl  0  0  0  0  0  0  0  0  0  0  0  0
  1  2  1  0  0  0  0
  1  5  2  0  0  0  0
  2  6  2  0  0  0  0
  3  8  2  0  0  0  0
  3 17  1  0  0  0  0
  4  9  1  0  0  0  0
  4 17  2  0  0  0  0
  5 19  1  0  0  0  0
  6 21  1  0  0  0  0
  7 10  2  0  0  0  0
  7 20  1  0  0  0  0
  8 26  1  0  0  0  0
  9 26  2  0  0  0  0
 10 27  1  0  0  0  0
 11 12  2  0  0  0  0
 11 28  1  0  0  0  0
 12 29  1  0  0  0  0
 13 22  1  0  0  0  0
 13 27  2  0  0  0  0
 14 23  1  0  0  0  0
 14 24  2  0  0  0  0
 15 25  1  0  0  0  0
 15 31  2  0  0  0  0
 16 29  2  0  0  0  0
 16 30  1  0  0  0  0
 17 32  1  0  0  0  0
 18 32  1  0  0  0  0
 18 33  2  0  0  0  0
 18 34  1  0  0  0  0
 19 21  2  0  0  0  0
 19 39  1  0  0  0  0
 20 22  2  0  0  0  0
 20 40  1  0  0  0  0
 21 48  1  0  0  0  0
 22 41  1  0  0  0  0
 23 25  2  0  0  0  0
 23 51  1  0  0  0  0
 24 31  1  0  0  0  0
 24 58  1  0  0  0  0
 25 57  1  0  0  0  0
 26 78  1  0  0  0  0
 27 79  1  0  0  0  0
 28 30  2  0  0  0  0
 28 78  1  0  0  0  0
 29 80  1  0  0  0  0
 30 81  1  0  0  0  0
 31 82  1  0  0  0  0
 32 63  2  0  0  0  0
 33 64  1  0  0  0  0
 33 67  1  0  0  0  0
 34 68  1  0  0  0  0
 34 73  2  0  0  0  0
 35 49  1  0  0  0  0
 35 69  1  0  0  0  0
 35 74  2  0  0  0  0
 36 60  1  0  0  0  0
 36 65  1  0  0  0  0
 36 75  2  0  0  0  0
 37 61  1  0  0  0  0
 37 70  1  0  0  0  0
 37 76  2  0  0  0  0
 38 66  1  0  0  0  0
 38 71  1  0  0  0  0
 38 77  2  0  0  0  0
 39 42  1  0  0  0  0
 40 49  1  0  0  0  0
 41 65  1  0  0  0  0
 42 44  1  0  0  0  0
 43 45  1  0  0  0  0
 43 46  1  0  0  0  0
 44 48  1  0  0  0  0
 45 50  1  0  0  0  0
 46 66  1  0  0  0  0
 47 50  1  0  0  0  0
 47 66  1  0  0  0  0
 48 69  1  0  0  0  0
 49 65  1  0  0  0  0
 50 64  1  0  0  0  0
 52 61  1  0  0  0  0
 53 62  1  0  0  0  0
 54 62  1  0  0  0  0
 55 62  1  0  0  0  0
 56 72  1  0  0  0  0
 57 59  1  0  0  0  0
 58 71  1  0  0  0  0
 59 79  1  0  0  0  0
 60 62  1  0  0  0  0
 60 70  1  0  0  0  0
 61 72  1  0  0  0  0
 63 64  1  0  0  0  0
M  CHG  1  72   1
M  ISO  4  38 100  59 101  71 100  79 101
M  END
> <Batch ID>
0029

> <Smiles>
CNC(C)C(=O)NC(C(=O)N1Cc2cc([101O:1][101CH2:1]Cc3cc(Cl)c(C[100NH:0][100C:0](=O)N4CCCC(n5nc(-c6ccc(Oc7ccc(F)cc7F)cc6)c(C(N)=O)c5N)C4)cc3C)ccc2CC1C(=O)NC1CCCc2ccccc21)C(C)(C)C

> <Shape>
0.168

> <Color>
0.100

> <Negative vol penalty>
0.000

$$$$

  -OEChem-04052316363D

 82 91  0     1  0  0  0  0  0999 V2000
  -26.9435  -35.3028   24.5136 C   0  0  0  0  0  0  0  0  0  0  0  0
  -27.3328  -34.0601   24.0243 C   0  0  0  0  0  0  0  0  0  0  0  0
  -27.0380  -12.4721   20.9567 C   0  0  0  0  0  0  0  0  0  0  0  0
  -27.2991  -12.4748   18.5548 C   0  0  0  0  0  0  0  0  0  0  0  0
  -25.6847  -35.4597   25.0922 C   0  0  0  0  0  0  0  0  0  0  0  0
  -26.4640  -32.9732   24.1143 C   0  0  0  0  0  0  0  0  0  0  0  0
  -26.2600  -30.2886   19.8252 C   0  0  0  0  0  0  0  0  0  0  0  0
  -26.3823  -11.2432   20.8841 C   0  0  0  0  0  0  0  0  0  0  0  0
  -26.6434  -11.2458   18.4822 C   0  0  0  0  0  0  0  0  0  0  0  0
  -27.3157  -29.4143   19.5704 C   0  0  0  0  0  0  0  0  0  0  0  0
  -24.3210   -8.2758   21.2955 C   0  0  0  0  0  0  0  0  0  0  0  0
  -23.1573   -8.1145   22.0474 C   0  0  0  0  0  0  0  0  0  0  0  0
  -28.0986  -24.3496   18.1692 C   0  0  0  0  0  0  0  0  0  0  0  0
  -25.9703  -27.5713   20.3530 C   0  0  0  0  0  0  0  0  0  0  0  0
  -22.1309   -9.9459   20.8518 C   0  0  0  0  0  0  0  0  0  0  0  0
  -28.2750  -25.4180   16.0556 C   0  0  0  0  0  0  0  0  0  0  0  0
  -27.4964  -13.0880   19.7920 C   0  0  0  0  0  0  0  0  0  0  0  0
  -29.5558  -14.5767   20.0167 C   0  0  0  0  0  0  0  0  0  0  0  0
  -24.7963  -34.3765   25.1807 C   0  0  0  0  0  0  0  0  0  0  0  0
  -25.0532  -29.8116   20.3569 C   0  0  0  0  0  0  0  0  0  0  0  0
  -25.1926  -33.1154   24.6959 C   0  0  0  0  0  0  0  0  0  0  0  0
  -27.1460  -23.4828   17.6272 C   0  0  0  0  0  0  0  0  0  0  0  0
  -24.8999  -28.4412   20.6112 C   0  0  0  0  0  0  0  0  0  0  0  0
  -28.6775  -25.3326   17.3762 C   0  0  0  0  0  0  0  0  0  0  0  0
  -26.1850  -10.6300   19.6468 C   0  0  0  0  0  0  0  0  0  0  0  0
  -27.1719  -28.0559   19.8370 C   0  0  0  0  0  0  0  0  0  0  0  0
  -24.3897   -9.2723   20.3218 C   0  0  0  0  0  0  0  0  0  0  0  0
  -22.0622   -8.9495   21.8256 C   0  0  0  0  0  0  0  0  0  0  0  0
  -23.2946  -10.1073   20.1000 C   0  0  0  0  0  0  0  0  0  0  0  0
  -28.1733  -14.3578   19.8664 C   0  0  0  0  0  0  0  0  0  0  0  0
  -26.7950  -23.6593   16.2845 C   0  0  0  0  0  0  0  0  0  0  0  0
  -29.6874  -15.9437   20.0317 C   0  0  0  0  0  0  0  0  0  0  0  0
  -30.6254  -13.6289   20.1323 C   0  0  0  0  0  0  0  0  0  0  0  0
  -23.4217  -30.3300   23.0351 C   0  0  0  0  0  0  0  0  0  0  0  0
  -21.2006  -28.4650   21.5823 C   0  0  0  0  0  0  0  0  0  0  0  0
  -20.5079  -26.0510   19.2715 C   0  0  0  0  0  0  0  0  0  0  0  0
  -25.8785  -20.0823   17.7498 C   0  0  0  0  0  0  0  0  0  0  0  0
  -23.4643  -34.5834   25.8572 C   0  0  0  0  0  0  0  0  0  0  0  0
  -23.9147  -30.7637   20.6010 C   0  0  0  0  0  0  0  0  0  0  0  0
  -26.4998  -22.4310   18.4941 C   0  0  0  0  0  0  0  0  0  0  0  0
  -23.6177  -27.8757   21.1632 C   0  0  0  0  0  0  0  0  0  0  0  0
  -25.7887  -22.7472   15.6325 C   0  0  0  0  0  0  0  0  0  0  0  0
  -22.4586  -33.4701   25.5756 C   0  0  0  0  0  0  0  0  0  0  0  0
  -27.3273  -19.9312   21.1905 C   0  0  0  0  0  0  0  0  0  0  0  0
  -23.1141  -32.1032   25.7450 C   0  0  0  0  0  0  0  0  0  0  0  0
  -27.7658  -18.4690   21.2595 C   0  0  0  0  0  0  0  0  0  0  0  0
  -24.8871  -22.0705   16.6588 C   0  0  0  0  0  0  0  0  0  0  0  0
  -26.1299  -20.1042   20.2638 C   0  0  0  0  0  0  0  0  0  0  0  0
  -26.7927  -18.1226   18.9421 C   0  0  0  0  0  0  0  0  0  0  0  0
  -24.2687  -31.9183   24.7529 C   0  0  1  0  0  0  0  0  0  0  0  0
  -22.9102  -30.2440   21.6249 C   0  0  1  0  0  0  0  0  0  0  0  0
  -28.0132  -17.9011   19.8513 C   0  0  2  0  0  0  0  0  0  0  0  0
  -18.6066  -24.7050   18.3383 C   0  0  0  0  0  0  0  0  0  0  0  0
  -21.2103  -26.7203   24.0855 C   0  0  0  0  0  0  0  0  0  0  0  0
  -20.0637  -24.9328   22.7594 C   0  0  0  0  0  0  0  0  0  0  0  0
  -18.9445  -27.1343   23.1112 C   0  0  0  0  0  0  0  0  0  0  0  0
  -20.9111  -27.1504   16.5534 C   0  0  0  0  0  0  0  0  0  0  0  0
  -29.6963  -26.2636   17.9303 C   0  0  0  0  0  0  0  0  0  0  0  0
  -29.0865  -27.5390   18.5243 C   0  0  0  0  0  0  0  0  0  1  0  0
  -20.9148  -26.9834   21.5341 C   0  0  1  0  0  0  0  0  0  0  0  0
  -19.4442  -25.9658   18.1917 C   0  0  2  0  0  0  0  0  0  0  0  0
  -20.3083  -26.4533   22.8640 C   0  0  0  0  0  0  0  0  0  0  0  0
  -27.3531  -24.6071   15.4913 N   0  0  0  0  0  0  0  0  0  0  0  0
  -27.4764  -15.4948   19.7914 N   0  0  0  0  0  0  0  0  0  0  0  0
  -28.4248  -16.4413   19.8951 N   0  0  0  0  0  0  0  0  0  0  0  0
  -22.5358  -28.8478   21.3910 N   0  0  0  0  0  0  0  0  0  0  0  0
  -25.6954  -21.4733   17.7204 N   0  0  0  0  0  0  0  0  0  0  0  0
  -26.3856  -19.5295   18.9367 N   0  0  0  0  0  0  0  0  0  0  0  0
  -30.7587  -16.7568   20.1483 N   0  0  0  0  0  0  0  0  0  0  0  0
  -30.3143  -12.2628   20.0977 N   0  0  0  0  0  0  0  0  0  0  0  0
  -23.7577  -31.6095   23.4346 N   0  0  0  0  0  0  0  0  0  0  0  0
  -20.0698  -26.7685   20.3644 N   0  0  0  0  0  0  0  0  0  0  0  0
  -20.0760  -25.9561   16.8420 N   0  3  0  0  0  0  0  0  0  0  0  0
  -31.8198  -13.9830   20.2790 O   0  0  0  0  0  0  0  0  0  0  0  0
  -23.5038  -29.3113   23.7112 O   0  0  0  0  0  0  0  0  0  0  0  0
  -20.2722  -29.2540   21.7752 O   0  0  0  0  0  0  0  0  0  0  0  0
  -21.6151  -25.5298   19.1584 O   0  0  0  0  0  0  0  0  0  0  0  0
  -25.6184  -19.3750   16.7681 O   0  0  0  0  0  0  0  0  0  0  0  0
  -25.5454   -9.4307   19.5756 O   0  0  0  0  0  0  0  0  0  0  0  0
  -28.2083  -27.1945   19.5881 O   0  0  0  0  0  0  0  0  0  1  0  0
  -20.9443   -8.7934   22.5467 F   0  0  0  0  0  0  0  0  0  0  0  0
  -23.3543  -11.0655   19.1651 F   0  0  0  0  0  0  0  0  0  0  0  0
  1  2  1  0  0  0  0
  1  5  2  0  0  0  0
  2  6  2  0  0  0  0
  3  8  2  0  0  0  0
  3 17  1  0  0  0  0
  4  9  1  0  0  0  0
  4 17  2  0  0  0  0
  5 19  1  0  0  0  0
  6 21  1  0  0  0  0
  7 10  2  0  0  0  0
  7 20  1  0  0  0  0
  8 25  1  0  0  0  0
  9 25  2  0  0  0  0
 10 26  1  0  0  0  0
 11 12  2  0  0  0  0
 11 27  1  0  0  0  0
 12 28  1  0  0  0  0
 13 22  1  0  0  0  0
 13 24  2  0  0  0  0
 14 23  1  0  0  0  0
 14 26  2  0  0  0  0
 15 28  2  0  0  0  0
 15 29  1  0  0  0  0
 16 24  1  0  0  0  0
 16 63  2  0  0  0  0
 17 30  1  0  0  0  0
 18 30  1  0  0  0  0
 18 32  2  0  0  0  0
 18 33  1  0  0  0  0
 19 21  2  0  0  0  0
 19 38  1  0  0  0  0
 20 23  2  0  0  0  0
 20 39  1  0  0  0  0
 21 50  1  0  0  0  0
 22 31  2  0  0  0  0
 22 40  1  0  0  0  0
 23 41  1  0  0  0  0
 24 58  1  0  0  0  0
 25 79  1  0  0  0  0
 26 80  1  0  0  0  0
 27 29  2  0  0  0  0
 27 79  1  0  0  0  0
 28 81  1  0  0  0  0
 29 82  1  0  0  0  0
 30 64  2  0  0  0  0
 31 42  1  0  0  0  0
 31 63  1  0  0  0  0
 32 65  1  0  0  0  0
 32 69  1  0  0  0  0
 33 70  1  0  0  0  0
 33 74  2  0  0  0  0
 34 51  1  0  0  0  0
 34 71  1  0  0  0  0
 34 75  2  0  0  0  0
 35 60  1  0  0  0  0
 35 66  1  0  0  0  0
 35 76  2  0  0  0  0
 36 61  1  0  0  0  0
 36 72  1  0  0  0  0
 36 77  2  0  0  0  0
 37 67  1  0  0  0  0
 37 68  1  0  0  0  0
 37 78  2  0  0  0  0
 38 43  1  0  0  0  0
 39 51  1  0  0  0  0
 40 67  1  0  0  0  0
 41 66  1  0  0  0  0
 42 47  1  0  0  0  0
 43 45  1  0  0  0  0
 44 46  1  0  0  0  0
 44 48  1  0  0  0  0
 45 50  1  0  0  0  0
 46 52  1  0  0  0  0
 47 67  1  0  0  0  0
 48 68  1  0  0  0  0
 49 52  1  0  0  0  0
 49 68  1  0  0  0  0
 50 71  1  0  0  0  0
 51 66  1  0  0  0  0
 52 65  1  0  0  0  0
 53 61  1  0  0  0  0
 54 62  1  0  0  0  0
 55 62  1  0  0  0  0
 56 62  1  0  0  0  0
 57 73  1  0  0  0  0
 58 59  1  0  0  0  0
 59 80  1  0  0  0  0
 60 62  1  0  0  0  0
 60 72  1  0  0  0  0
 61 73  1  0  0  0  0
 64 65  1  0  0  0  0
M  CHG  1  73   1
M  ISO  4  37 100  59 101  67 100  80 101
M  END
> <Batch ID>
0029

> <Smiles>
CNC(C)C(=O)NC(C(=O)N1Cc2cc([101O:1][101CH2:1]Cc3cnc4c(c3)C[100N:0]([100C:0](=O)N3CCCC(n5nc(-c6ccc(Oc7ccc(F)cc7F)cc6)c(C(N)=O)c5N)C3)CC4)ccc2CC1C(=O)NC1CCCc2ccccc21)C(C)(C)C

> <Shape>
0.277

> <Color>
0.081

> <Negative vol penalty>
0.000

$$$$

  -OEChem-04052316363D

 83 91  0     1  0  0  0  0  0999 V2000
  -17.8642  -24.2045   22.7710 C   0  0  0  0  0  0  0  0  0  0  0  0
  -19.0664  -23.8796   22.1509 C   0  0  0  0  0  0  0  0  0  0  0  0
  -24.3152  -13.4988   24.1263 C   0  0  0  0  0  0  0  0  0  0  0  0
  -23.5824  -15.2971   22.6890 C   0  0  0  0  0  0  0  0  0  0  0  0
  -17.5921  -25.5291   23.1106 C   0  0  0  0  0  0  0  0  0  0  0  0
  -19.9967  -24.8793   21.8690 C   0  0  0  0  0  0  0  0  0  0  0  0
  -24.7228  -23.5377   23.0977 C   0  0  0  0  0  0  0  0  0  0  0  0
  -23.7695  -14.1572   25.2283 C   0  0  0  0  0  0  0  0  0  0  0  0
  -23.0367  -15.9555   23.7909 C   0  0  0  0  0  0  0  0  0  0  0  0
  -25.3892  -22.6808   22.2229 C   0  0  0  0  0  0  0  0  0  0  0  0
  -24.1453  -17.8575   26.3570 C   0  0  0  0  0  0  0  0  0  0  0  0
  -24.3872  -19.2257   26.4796 C   0  0  0  0  0  0  0  0  0  0  0  0
  -26.5639  -24.5657   21.2813 C   0  0  0  0  0  0  0  0  0  0  0  0
  -28.5782  -19.4801   20.0075 C   0  0  0  0  0  0  0  0  0  0  0  0
  -22.0105  -19.6529   26.4014 C   0  0  0  0  0  0  0  0  0  0  0  0
  -24.2217  -14.0688   22.8567 C   0  0  0  0  0  0  0  0  0  0  0  0
  -24.1436  -12.4582   20.8799 C   0  0  0  0  0  0  0  0  0  0  0  0
  -18.5236  -26.5442   22.8414 C   0  0  0  0  0  0  0  0  0  0  0  0
  -24.9642  -24.9186   23.0634 C   0  0  0  0  0  0  0  0  0  0  0  0
  -19.7362  -26.2189   22.2040 C   0  0  0  0  0  0  0  0  0  0  0  0
  -25.9011  -25.4376   22.1585 C   0  0  0  0  0  0  0  0  0  0  0  0
  -27.4876  -20.2200   19.5507 C   0  0  0  0  0  0  0  0  0  0  0  0
  -27.1888  -20.2535   18.1886 C   0  0  0  0  0  0  0  0  0  0  0  0
  -29.0714  -18.8071   17.7401 C   0  0  0  0  0  0  0  0  0  0  0  0
  -23.1303  -15.3855   25.0606 C   0  0  0  0  0  0  0  0  0  0  0  0
  -26.3078  -23.1951   21.3125 C   0  0  0  0  0  0  0  0  0  0  0  0
  -22.8360  -17.3869   26.2565 C   0  0  0  0  0  0  0  0  0  0  0  0
  -23.3198  -20.1234   26.5018 C   0  0  0  0  0  0  0  0  0  0  0  0
  -21.7686  -18.2846   26.2788 C   0  0  0  0  0  0  0  0  0  0  0  0
  -29.3701  -18.7737   19.1022 C   0  0  0  0  0  0  0  0  0  0  0  0
  -27.9808  -19.5470   17.2833 C   0  0  0  0  0  0  0  0  0  0  0  0
  -24.7857  -13.3894   21.7180 C   0  0  0  0  0  0  0  0  0  0  0  0
  -25.0995  -12.1110   19.9567 C   0  0  0  0  0  0  0  0  0  0  0  0
  -22.8031  -11.9524   20.9312 C   0  0  0  0  0  0  0  0  0  0  0  0
  -23.1957  -27.4908   22.4637 C   0  0  0  0  0  0  0  0  0  0  0  0
  -25.8844  -29.0687   23.3599 C   0  0  0  0  0  0  0  0  0  0  0  0
  -29.2770  -29.0342   23.7289 C   0  0  0  0  0  0  0  0  0  0  0  0
  -29.9635  -14.9128   17.8728 C   0  0  0  0  0  0  0  0  0  0  0  0
  -18.1647  -27.9684   23.1842 C   0  0  0  0  0  0  0  0  0  0  0  0
  -24.2569  -25.8264   24.0320 C   0  0  0  0  0  0  0  0  0  0  0  0
  -26.2112  -26.9101   22.0953 C   0  0  0  0  0  0  0  0  0  0  0  0
  -19.3631  -28.9140   23.1900 C   0  0  0  0  0  0  0  0  0  0  0  0
  -29.8400  -11.7190   19.4417 C   0  0  0  0  0  0  0  0  0  0  0  0
  -20.2196  -28.6980   21.9464 C   0  0  0  0  0  0  0  0  0  0  0  0
  -28.4727  -11.7009   20.1273 C   0  0  0  0  0  0  0  0  0  0  0  0
  -30.4765  -13.1063   19.4884 C   0  0  0  0  0  0  0  0  0  0  0  0
  -28.2622  -14.1762   19.6503 C   0  0  0  0  0  0  0  0  0  0  0  0
  -20.7812  -27.2717   21.9042 C   0  0  1  0  0  0  0  0  0  0  0  0
  -24.2005  -27.2760   23.5600 C   0  0  1  0  0  0  0  0  0  0  0  0
  -27.5561  -12.8114   19.5797 C   0  0  2  0  0  0  0  0  0  0  0  0
  -26.0132  -21.0544   17.7209 C   0  0  0  0  0  0  0  0  0  0  0  0
  -31.1951  -30.4837   24.4478 C   0  0  0  0  0  0  0  0  0  0  0  0
  -25.7215  -30.5896   20.7198 C   0  0  0  0  0  0  0  0  0  0  0  0
  -28.1011  -31.2908   21.0571 C   0  0  0  0  0  0  0  0  0  0  0  0
  -26.3528  -31.9901   22.6933 C   0  0  0  0  0  0  0  0  0  0  0  0
  -30.0067  -27.1823   25.9191 C   0  0  0  0  0  0  0  0  0  0  0  0
  -29.9257  -18.0462   16.7718 C   0  0  0  0  0  0  0  0  0  0  0  0
  -26.6532  -20.9701   20.5469 C   0  0  0  0  0  0  0  0  0  1  0  0
  -29.2982  -16.7270   16.3156 C   0  0  0  0  0  0  0  0  0  0  0  0
  -27.1126  -29.5792   22.6458 C   0  0  1  0  0  0  0  0  0  0  0  0
  -30.1688  -29.4501   24.8848 C   0  0  2  0  0  0  0  0  0  0  0  0
  -26.8150  -30.8349   21.7786 C   0  0  0  0  0  0  0  0  0  0  0  0
  -26.0516  -13.6191   21.3592 N   0  0  0  0  0  0  0  0  0  0  0  0
  -26.2127  -12.8271   20.2855 N   0  0  0  0  0  0  0  0  0  0  0  0
  -25.4891  -27.7577   23.0585 N   0  0  0  0  0  0  0  0  0  0  0  0
  -29.5565  -14.1131   18.9535 N   0  0  0  0  0  0  0  0  0  0  0  0
  -25.0880  -11.2659   18.9041 N   0  0  0  0  0  0  0  0  0  0  0  0
  -21.9527  -12.4150   21.9447 N   0  0  0  0  0  0  0  0  0  0  0  0
  -21.9035  -27.1435   22.8089 N   0  0  0  0  0  0  0  0  0  0  0  0
  -28.1250  -29.7900   23.6749 N   0  0  0  0  0  0  0  0  0  0  0  0
  -29.0288  -15.8374   17.4232 N   0  0  0  0  0  0  0  0  0  0  0  0
  -30.8947  -28.2683   25.4302 N   0  3  0  0  0  0  0  0  0  0  0  0
  -22.3771  -11.1026   20.1126 O   0  0  0  0  0  0  0  0  0  0  0  0
  -23.5651  -27.9398   21.3850 O   0  0  0  0  0  0  0  0  0  0  0  0
  -25.3015  -29.8035   24.1611 O   0  0  0  0  0  0  0  0  0  0  0  0
  -29.5744  -28.1317   22.9494 O   0  0  0  0  0  0  0  0  0  0  0  0
  -31.0754  -14.8067   17.3442 O   0  0  0  0  0  0  0  0  0  0  0  0
  -22.5975  -16.0282   26.1357 O   0  0  0  0  0  0  0  0  0  0  0  0
  -26.9593  -22.3610   20.4570 O   0  0  0  0  0  0  0  0  0  1  0  0
  -23.5522  -21.4371   26.6211 F   0  0  0  0  0  0  0  0  0  0  0  0
  -20.5086  -17.8384   26.1839 F   0  0  0  0  0  0  0  0  0  0  0  0
  -30.7105  -17.8709   19.7117 Cl  0  0  0  0  0  0  0  0  0  0  0  0
  -27.6072  -19.5904   15.5911 Cl  0  0  0  0  0  0  0  0  0  0  0  0
  1  2  1  0  0  0  0
  1  5  2  0  0  0  0
  2  6  2  0  0  0  0
  3  8  2  0  0  0  0
  3 16  1  0  0  0  0
  4  9  1  0  0  0  0
  4 16  2  0  0  0  0
  5 18  1  0  0  0  0
  6 20  1  0  0  0  0
  7 10  2  0  0  0  0
  7 19  1  0  0  0  0
  8 25  1  0  0  0  0
  9 25  2  0  0  0  0
 10 26  1  0  0  0  0
 11 12  2  0  0  0  0
 11 27  1  0  0  0  0
 12 28  1  0  0  0  0
 13 21  1  0  0  0  0
 13 26  2  0  0  0  0
 14 22  1  0  0  0  0
 14 30  2  0  0  0  0
 15 28  2  0  0  0  0
 15 29  1  0  0  0  0
 16 32  1  0  0  0  0
 17 32  1  0  0  0  0
 17 33  2  0  0  0  0
 17 34  1  0  0  0  0
 18 20  2  0  0  0  0
 18 39  1  0  0  0  0
 19 21  2  0  0  0  0
 19 40  1  0  0  0  0
 20 48  1  0  0  0  0
 21 41  1  0  0  0  0
 22 23  2  0  0  0  0
 22 58  1  0  0  0  0
 23 31  1  0  0  0  0
 23 51  1  0  0  0  0
 24 30  1  0  0  0  0
 24 31  2  0  0  0  0
 24 57  1  0  0  0  0
 25 78  1  0  0  0  0
 26 79  1  0  0  0  0
 27 29  2  0  0  0  0
 27 78  1  0  0  0  0
 28 80  1  0  0  0  0
 29 81  1  0  0  0  0
 30 82  1  0  0  0  0
 31 83  1  0  0  0  0
 32 63  2  0  0  0  0
 33 64  1  0  0  0  0
 33 67  1  0  0  0  0
 34 68  1  0  0  0  0
 34 73  2  0  0  0  0
 35 49  1  0  0  0  0
 35 69  1  0  0  0  0
 35 74  2  0  0  0  0
 36 60  1  0  0  0  0
 36 65  1  0  0  0  0
 36 75  2  0  0  0  0
 37 61  1  0  0  0  0
 37 70  1  0  0  0  0
 37 76  2  0  0  0  0
 38 66  1  0  0  0  0
 38 71  1  0  0  0  0
 38 77  2  0  0  0  0
 39 42  1  0  0  0  0
 40 49  1  0  0  0  0
 41 65  1  0  0  0  0
 42 44  1  0  0  0  0
 43 45  1  0  0  0  0
 43 46  1  0  0  0  0
 44 48  1  0  0  0  0
 45 50  1  0  0  0  0
 46 66  1  0  0  0  0
 47 50  1  0  0  0  0
 47 66  1  0  0  0  0
 48 69  1  0  0  0  0
 49 65  1  0  0  0  0
 50 64  1  0  0  0  0
 52 61  1  0  0  0  0
 53 62  1  0  0  0  0
 54 62  1  0  0  0  0
 55 62  1  0  0  0  0
 56 72  1  0  0  0  0
 57 59  1  0  0  0  0
 58 79  1  0  0  0  0
 59 71  1  0  0  0  0
 60 62  1  0  0  0  0
 60 70  1  0  0  0  0
 61 72  1  0  0  0  0
 63 64  1  0  0  0  0
M  CHG  1  72   1
M  ISO  4  38 100  58 101  71 100  79 101
M  END
> <Batch ID>
0029

> <Smiles>
CNC(C)C(=O)NC(C(=O)N1Cc2cc([101O:1][101CH2:1]c3cc(Cl)c(CC[100NH:0][100C:0](=O)N4CCCC(n5nc(-c6ccc(Oc7ccc(F)cc7F)cc6)c(C(N)=O)c5N)C4)c(Cl)c3C)ccc2CC1C(=O)NC1CCCc2ccccc21)C(C)(C)C

> <Shape>
0.202

> <Color>
0.076

> <Negative vol penalty>
0.000

$$$$

  -OEChem-04052316363D

 79 87  0     1  0  0  0  0  0999 V2000
  -17.6206  -24.5579   24.7122 C   0  0  0  0  0  0  0  0  0  0  0  0
  -18.8563  -23.9223   24.7784 C   0  0  0  0  0  0  0  0  0  0  0  0
  -26.6899  -12.2318   21.0763 C   0  0  0  0  0  0  0  0  0  0  0  0
  -25.5580  -13.9679   19.8346 C   0  0  0  0  0  0  0  0  0  0  0  0
  -17.4571  -25.6787   23.8992 C   0  0  0  0  0  0  0  0  0  0  0  0
  -19.9291  -24.4066   24.0308 C   0  0  0  0  0  0  0  0  0  0  0  0
  -27.0595  -25.0527   24.2683 C   0  0  0  0  0  0  0  0  0  0  0  0
  -25.4580  -11.7175   21.4804 C   0  0  0  0  0  0  0  0  0  0  0  0
  -24.3260  -13.4536   20.2387 C   0  0  0  0  0  0  0  0  0  0  0  0
  -28.1930  -24.7648   23.5092 C   0  0  0  0  0  0  0  0  0  0  0  0
  -22.6044   -9.7326   22.5445 C   0  0  0  0  0  0  0  0  0  0  0  0
  -22.4249   -8.3510   22.4775 C   0  0  0  0  0  0  0  0  0  0  0  0
  -27.8148  -26.7557   22.2005 C   0  0  0  0  0  0  0  0  0  0  0  0
  -22.8269   -8.4142   20.0960 C   0  0  0  0  0  0  0  0  0  0  0  0
  -30.6499  -22.4059   20.2508 C   0  0  0  0  0  0  0  0  0  0  0  0
  -26.7400  -13.3570   20.2534 C   0  0  0  0  0  0  0  0  0  0  0  0
  -28.7425  -13.5414   18.6839 C   0  0  0  0  0  0  0  0  0  0  0  0
  -18.5310  -26.1827   23.1487 C   0  0  0  0  0  0  0  0  0  0  0  0
  -26.2877  -26.1904   23.9917 C   0  0  0  0  0  0  0  0  0  0  0  0
  -19.7795  -25.5344   23.2059 C   0  0  0  0  0  0  0  0  0  0  0  0
  -26.6735  -27.0572   22.9592 C   0  0  0  0  0  0  0  0  0  0  0  0
  -29.9000  -21.2966   19.9450 C   0  0  0  0  0  0  0  0  0  0  0  0
  -24.2760  -12.3283   21.0615 C   0  0  0  0  0  0  0  0  0  0  0  0
  -28.5691  -25.6148   22.4733 C   0  0  0  0  0  0  0  0  0  0  0  0
  -22.8950  -10.4551   21.3872 C   0  0  0  0  0  0  0  0  0  0  0  0
  -22.5362   -7.6918   21.2533 C   0  0  0  0  0  0  0  0  0  0  0  0
  -23.0063   -9.7959   20.1630 C   0  0  0  0  0  0  0  0  0  0  0  0
  -28.0123  -13.8891   19.8362 C   0  0  0  0  0  0  0  0  0  0  0  0
  -28.9273  -21.7671   19.0426 C   0  0  0  0  0  0  0  0  0  0  0  0
  -29.8713  -14.3217   18.7442 C   0  0  0  0  0  0  0  0  0  0  0  0
  -28.4286  -12.5976   17.6513 C   0  0  0  0  0  0  0  0  0  0  0  0
  -23.2847  -26.6966   23.0809 C   0  0  0  0  0  0  0  0  0  0  0  0
  -24.0802  -29.8073   23.5422 C   0  0  0  0  0  0  0  0  0  0  0  0
  -26.5302  -32.1772   23.7094 C   0  0  0  0  0  0  0  0  0  0  0  0
  -31.0755  -19.5642   21.3462 C   0  0  0  0  0  0  0  0  0  0  0  0
  -18.2936  -27.3687   22.2477 C   0  0  0  0  0  0  0  0  0  0  0  0
  -25.0830  -26.5011   24.8370 C   0  0  0  0  0  0  0  0  0  0  0  0
  -25.8904  -28.3022   22.6350 C   0  0  0  0  0  0  0  0  0  0  0  0
  -19.5796  -28.0424   21.7761 C   0  0  0  0  0  0  0  0  0  0  0  0
  -32.7684  -16.4792   21.8884 C   0  0  0  0  0  0  0  0  0  0  0  0
  -20.5831  -26.9994   21.2944 C   0  0  0  0  0  0  0  0  0  0  0  0
  -31.8101  -15.4338   21.3133 C   0  0  0  0  0  0  0  0  0  0  0  0
  -32.0184  -17.6201   22.5736 C   0  0  0  0  0  0  0  0  0  0  0  0
  -30.0284  -17.2210   21.1772 C   0  0  0  0  0  0  0  0  0  0  0  0
  -20.9738  -26.0446   22.4290 C   0  0  1  0  0  0  0  0  0  0  0  0
  -24.0801  -27.4121   24.1359 C   0  0  1  0  0  0  0  0  0  0  0  0
  -30.7357  -16.0850   20.4204 C   0  0  2  0  0  0  0  0  0  0  0  0
  -27.8531  -20.9981   18.3887 C   0  0  0  0  0  0  0  0  0  0  0  0
  -26.8695  -34.6383   24.0633 C   0  0  0  0  0  0  0  0  0  0  0  0
  -23.1069  -30.3475   20.7013 C   0  0  0  0  0  0  0  0  0  0  0  0
  -24.3214  -32.5356   20.7758 C   0  0  0  0  0  0  0  0  0  0  0  0
  -22.4594  -32.0895   22.3748 C   0  0  0  0  0  0  0  0  0  0  0  0
  -28.1730  -31.7208   26.1285 C   0  0  0  0  0  0  0  0  0  0  0  0
  -30.5705  -24.8683   19.5371 C   0  0  0  0  0  0  0  0  0  0  0  0
  -29.6721  -25.7740   20.3723 C   0  0  0  0  0  0  0  0  0  1  0  0
  -24.6687  -30.8993   22.6818 C   0  0  1  0  0  0  0  0  0  0  0  0
  -26.8062  -33.2707   24.7255 C   0  0  2  0  0  0  0  0  0  0  0  0
  -23.6530  -31.4436   21.6380 C   0  0  0  0  0  0  0  0  0  0  0  0
  -28.6257  -14.8178   20.5746 N   0  0  0  0  0  0  0  0  0  0  0  0
  -29.0459  -23.0737   18.7917 N   0  0  0  0  0  0  0  0  0  0  0  0
  -30.1019  -23.4335   19.5410 N   0  0  0  0  0  0  0  0  0  0  0  0
  -29.7533  -15.0603   19.8847 N   0  0  0  0  0  0  0  0  0  0  0  0
  -24.7168  -28.5594   23.4859 N   0  0  0  0  0  0  0  0  0  0  0  0
  -31.0204  -18.1912   21.6666 N   0  0  0  0  0  0  0  0  0  0  0  0
  -30.9433  -14.4411   17.9325 N   0  0  0  0  0  0  0  0  0  0  0  0
  -27.2281  -11.8803   17.7442 N   0  0  0  0  0  0  0  0  0  0  0  0
  -30.0952  -19.9867   20.4490 N   0  0  0  0  0  0  0  0  0  0  0  0
  -21.9236  -26.6782   23.3183 N   0  0  0  0  0  0  0  0  0  0  0  0
  -25.1819  -31.9104   23.5997 N   0  0  0  0  0  0  0  0  0  0  0  0
  -28.1039  -33.0219   25.4147 N   0  3  0  0  0  0  0  0  0  0  0  0
  -29.1978  -12.3843   16.6836 O   0  0  0  0  0  0  0  0  0  0  0  0
  -23.8630  -26.1994   22.1217 O   0  0  0  0  0  0  0  0  0  0  0  0
  -23.0963  -30.0546   24.2440 O   0  0  0  0  0  0  0  0  0  0  0  0
  -27.4213  -31.6183   23.0736 O   0  0  0  0  0  0  0  0  0  0  0  0
  -31.9462  -20.3046   21.8108 O   0  0  0  0  0  0  0  0  0  0  0  0
  -23.0736  -11.8266   21.4554 O   0  0  0  0  0  0  0  0  0  0  0  0
  -29.6746  -25.3358   21.7304 O   0  0  0  0  0  0  0  0  0  1  0  0
  -22.3654   -6.3648   21.1894 F   0  0  0  0  0  0  0  0  0  0  0  0
  -23.2865  -10.4844   19.0480 F   0  0  0  0  0  0  0  0  0  0  0  0
  1  2  1  0  0  0  0
  1  5  2  0  0  0  0
  2  6  2  0  0  0  0
  3  8  2  0  0  0  0
  3 16  1  0  0  0  0
  4  9  1  0  0  0  0
  4 16  2  0  0  0  0
  5 18  1  0  0  0  0
  6 20  1  0  0  0  0
  7 10  2  0  0  0  0
  7 19  1  0  0  0  0
  8 23  1  0  0  0  0
  9 23  2  0  0  0  0
 10 24  1  0  0  0  0
 11 12  2  0  0  0  0
 11 25  1  0  0  0  0
 12 26  1  0  0  0  0
 13 21  1  0  0  0  0
 13 24  2  0  0  0  0
 14 26  2  0  0  0  0
 14 27  1  0  0  0  0
 15 22  2  0  0  0  0
 15 61  1  0  0  0  0
 16 28  1  0  0  0  0
 17 28  1  0  0  0  0
 17 30  2  0  0  0  0
 17 31  1  0  0  0  0
 18 20  2  0  0  0  0
 18 36  1  0  0  0  0
 19 21  2  0  0  0  0
 19 37  1  0  0  0  0
 20 45  1  0  0  0  0
 21 38  1  0  0  0  0
 22 29  1  0  0  0  0
 22 67  1  0  0  0  0
 23 76  1  0  0  0  0
 24 77  1  0  0  0  0
 25 27  2  0  0  0  0
 25 76  1  0  0  0  0
 26 78  1  0  0  0  0
 27 79  1  0  0  0  0
 28 59  2  0  0  0  0
 29 48  1  0  0  0  0
 29 60  2  0  0  0  0
 30 62  1  0  0  0  0
 30 65  1  0  0  0  0
 31 66  1  0  0  0  0
 31 71  2  0  0  0  0
 32 46  1  0  0  0  0
 32 68  1  0  0  0  0
 32 72  2  0  0  0  0
 33 56  1  0  0  0  0
 33 63  1  0  0  0  0
 33 73  2  0  0  0  0
 34 57  1  0  0  0  0
 34 69  1  0  0  0  0
 34 74  2  0  0  0  0
 35 64  1  0  0  0  0
 35 67  1  0  0  0  0
 35 75  2  0  0  0  0
 36 39  1  0  0  0  0
 37 46  1  0  0  0  0
 38 63  1  0  0  0  0
 39 41  1  0  0  0  0
 40 42  1  0  0  0  0
 40 43  1  0  0  0  0
 41 45  1  0  0  0  0
 42 47  1  0  0  0  0
 43 64  1  0  0  0  0
 44 47  1  0  0  0  0
 44 64  1  0  0  0  0
 45 68  1  0  0  0  0
 46 63  1  0  0  0  0
 47 62  1  0  0  0  0
 49 57  1  0  0  0  0
 50 58  1  0  0  0  0
 51 58  1  0  0  0  0
 52 58  1  0  0  0  0
 53 70  1  0  0  0  0
 54 55  1  0  0  0  0
 54 61  1  0  0  0  0
 55 77  1  0  0  0  0
 56 58  1  0  0  0  0
 56 69  1  0  0  0  0
 57 70  1  0  0  0  0
 59 62  1  0  0  0  0
 60 61  1  0  0  0  0
M  CHG  1  70   1
M  ISO  4  35 100  55 101  67 100  77 101
M  END
> <Batch ID>
0029

> <Smiles>
CNC(C)C(=O)NC(C(=O)N1Cc2cc([101O:1][101CH2:1]Cn3cc([100NH:0][100C:0](=O)N4CCCC(n5nc(-c6ccc(Oc7ccc(F)cc7F)cc6)c(C(N)=O)c5N)C4)c(C)n3)ccc2CC1C(=O)NC1CCCc2ccccc21)C(C)(C)C

> <Shape>
0.309

> <Color>
0.062

> <Negative vol penalty>
0.000

$$$$

  -OEChem-04052316363D

 81 89  0     1  0  0  0  0  0999 V2000
  -36.8007  -27.3180   18.7885 C   0  0  0  0  0  0  0  0  0  0  0  0
  -36.3251  -26.3657   19.6842 C   0  0  0  0  0  0  0  0  0  0  0  0
  -23.1842   -9.8836   20.0062 C   0  0  0  0  0  0  0  0  0  0  0  0
  -23.8692  -10.0332   22.3182 C   0  0  0  0  0  0  0  0  0  0  0  0
  -35.9091  -28.0104   17.9702 C   0  0  0  0  0  0  0  0  0  0  0  0
  -34.9573  -26.1059   19.7629 C   0  0  0  0  0  0  0  0  0  0  0  0
  -33.9273  -21.1504   19.9262 C   0  0  0  0  0  0  0  0  0  0  0  0
  -22.4809   -8.7130   20.2902 C   0  0  0  0  0  0  0  0  0  0  0  0
  -23.1660   -8.8626   22.6023 C   0  0  0  0  0  0  0  0  0  0  0  0
  -34.1135  -20.5012   21.1459 C   0  0  0  0  0  0  0  0  0  0  0  0
  -23.6116   -5.5332   22.2184 C   0  0  0  0  0  0  0  0  0  0  0  0
  -24.2456   -4.5708   23.0042 C   0  0  0  0  0  0  0  0  0  0  0  0
  -31.7424  -20.6315   21.5702 C   0  0  0  0  0  0  0  0  0  0  0  0
  -32.4563  -16.0202   22.8827 C   0  0  0  0  0  0  0  0  0  0  0  0
  -22.4847   -4.7531   24.6483 C   0  0  0  0  0  0  0  0  0  0  0  0
  -23.8783  -10.5437   21.0201 C   0  0  0  0  0  0  0  0  0  0  0  0
  -24.1192  -13.0725   20.7860 C   0  0  0  0  0  0  0  0  0  0  0  0
  -34.5306  -27.7521   18.0321 C   0  0  0  0  0  0  0  0  0  0  0  0
  -32.6466  -21.5554   19.5236 C   0  0  0  0  0  0  0  0  0  0  0  0
  -34.0463  -26.7964   18.9456 C   0  0  0  0  0  0  0  0  0  0  0  0
  -31.5423  -21.2834   20.3438 C   0  0  0  0  0  0  0  0  0  0  0  0
  -31.1413  -15.5163   23.0374 C   0  0  0  0  0  0  0  0  0  0  0  0
  -22.4718   -8.2025   21.5883 C   0  0  0  0  0  0  0  0  0  0  0  0
  -33.0213  -20.2443   21.9695 C   0  0  0  0  0  0  0  0  0  0  0  0
  -22.4142   -6.1056   22.6476 C   0  0  0  0  0  0  0  0  0  0  0  0
  -23.6822   -4.1808   24.2191 C   0  0  0  0  0  0  0  0  0  0  0  0
  -21.8507   -5.7155   23.8625 C   0  0  0  0  0  0  0  0  0  0  0  0
  -24.6054  -11.7527   20.7272 C   0  0  0  0  0  0  0  0  0  0  0  0
  -32.7162  -16.8307   23.9656 C   0  0  0  0  0  0  0  0  0  0  0  0
  -25.1905  -13.8498   20.4192 C   0  0  0  0  0  0  0  0  0  0  0  0
  -30.6375  -16.0345   24.2101 C   0  0  0  0  0  0  0  0  0  0  0  0
  -22.8157  -13.5529   21.1407 C   0  0  0  0  0  0  0  0  0  0  0  0
  -31.2778  -24.3503   18.8768 C   0  0  0  0  0  0  0  0  0  0  0  0
  -28.7840  -22.4799   17.9798 C   0  0  0  0  0  0  0  0  0  0  0  0
  -27.1611  -19.4898   18.2495 C   0  0  0  0  0  0  0  0  0  0  0  0
  -30.9351  -14.0983   20.9654 C   0  0  0  0  0  0  0  0  0  0  0  0
  -33.6010  -28.5595   17.1612 C   0  0  0  0  0  0  0  0  0  0  0  0
  -32.4590  -22.2307   18.1928 C   0  0  0  0  0  0  0  0  0  0  0  0
  -30.1440  -21.6796   19.9483 C   0  0  0  0  0  0  0  0  0  0  0  0
  -32.2032  -27.9578   17.0406 C   0  0  0  0  0  0  0  0  0  0  0  0
  -29.3929  -13.0429   17.9347 C   0  0  0  0  0  0  0  0  0  0  0  0
  -31.6796  -27.5449   18.4125 C   0  0  0  0  0  0  0  0  0  0  0  0
  -27.9533  -12.7313   18.3499 C   0  0  0  0  0  0  0  0  0  0  0  0
  -30.3938  -12.6501   19.0199 C   0  0  0  0  0  0  0  0  0  0  0  0
  -28.6736  -12.8893   20.7672 C   0  0  0  0  0  0  0  0  0  0  0  0
  -32.5721  -26.4688   19.0427 C   0  0  1  0  0  0  0  0  0  0  0  0
  -31.1791  -23.0576   18.1174 C   0  0  1  0  0  0  0  0  0  0  0  0
  -27.6240  -13.3272   19.7326 C   0  0  2  0  0  0  0  0  0  0  0  0
  -35.1670  -16.6953   24.5197 C   0  0  0  0  0  0  0  0  0  0  0  0
  -25.1294  -18.2698   17.4243 C   0  0  0  0  0  0  0  0  0  0  0  0
  -27.0342  -24.1273   19.8597 C   0  0  0  0  0  0  0  0  0  0  0  0
  -25.3085  -22.3184   19.7261 C   0  0  0  0  0  0  0  0  0  0  0  0
  -25.9688  -23.5643   17.6683 C   0  0  0  0  0  0  0  0  0  0  0  0
  -31.4869  -17.5716   26.0065 C   0  0  0  0  0  0  0  0  0  0  0  0
  -28.8009  -17.3674   16.9983 C   0  0  0  0  0  0  0  0  0  0  0  0
  -34.2836  -18.6867   23.2487 C   0  0  0  0  0  0  0  0  0  1  0  0
  -33.9674  -17.6235   24.3095 C   0  0  1  0  0  0  0  0  0  0  0  0
  -27.5791  -21.8973   18.6783 C   0  0  1  0  0  0  0  0  0  0  0  0
  -26.6076  -18.5457   17.1975 C   0  0  2  0  0  0  0  0  0  0  0  0
  -26.4991  -22.9709   18.9917 C   0  0  0  0  0  0  0  0  0  0  0  0
  -25.8859  -11.6912   20.3523 N   0  0  0  0  0  0  0  0  0  0  0  0
  -31.6035  -16.8322   24.7657 N   0  0  0  0  0  0  0  0  0  0  0  0
  -26.2134  -12.9820   20.1722 N   0  0  0  0  0  0  0  0  0  0  0  0
  -30.0130  -22.3430   18.6406 N   0  0  0  0  0  0  0  0  0  0  0  0
  -30.0203  -13.2545   20.3006 N   0  0  0  0  0  0  0  0  0  0  0  0
  -25.3480  -15.1840   20.2869 N   0  0  0  0  0  0  0  0  0  0  0  0
  -21.8319  -12.6185   21.4919 N   0  0  0  0  0  0  0  0  0  0  0  0
  -30.4573  -14.6410   22.1578 N   0  0  0  0  0  0  0  0  0  0  0  0
  -32.3002  -25.1765   18.4508 N   0  0  0  0  0  0  0  0  0  0  0  0
  -27.1076  -20.8039   17.8352 N   0  0  0  0  0  0  0  0  0  0  0  0
  -27.3385  -17.2474   17.2306 N   0  3  0  0  0  0  0  0  0  0  0  0
  -22.5271  -14.7736   21.1302 O   0  0  0  0  0  0  0  0  0  0  0  0
  -30.4840  -24.5818   19.7813 O   0  0  0  0  0  0  0  0  0  0  0  0
  -28.6411  -23.0297   16.8848 O   0  0  0  0  0  0  0  0  0  0  0  0
  -27.5939  -19.1008   19.3320 O   0  0  0  0  0  0  0  0  0  0  0  0
  -32.0494  -14.3446   20.4967 O   0  0  0  0  0  0  0  0  0  0  0  0
  -21.7855   -7.0603   21.8659 O   0  0  0  0  0  0  0  0  0  0  0  0
  -33.2003  -19.6114   23.1608 O   0  0  0  0  0  0  0  0  0  1  0  0
  -24.2903   -3.2555   24.9729 F   0  0  0  0  0  0  0  0  0  0  0  0
  -20.6999   -6.2610   24.2794 F   0  0  0  0  0  0  0  0  0  0  0  0
  -29.1313  -15.8343   24.9773 Cl  0  0  0  0  0  0  0  0  0  0  0  0
  1  2  1  0  0  0  0
  1  5  2  0  0  0  0
  2  6  2  0  0  0  0
  3  8  2  0  0  0  0
  3 16  1  0  0  0  0
  4  9  1  0  0  0  0
  4 16  2  0  0  0  0
  5 18  1  0  0  0  0
  6 20  1  0  0  0  0
  7 10  2  0  0  0  0
  7 19  1  0  0  0  0
  8 23  1  0  0  0  0
  9 23  2  0  0  0  0
 10 24  1  0  0  0  0
 11 12  2  0  0  0  0
 11 25  1  0  0  0  0
 12 26  1  0  0  0  0
 13 21  1  0  0  0  0
 13 24  2  0  0  0  0
 14 22  1  0  0  0  0
 14 29  2  0  0  0  0
 15 26  2  0  0  0  0
 15 27  1  0  0  0  0
 16 28  1  0  0  0  0
 17 28  1  0  0  0  0
 17 30  2  0  0  0  0
 17 32  1  0  0  0  0
 18 20  2  0  0  0  0
 18 37  1  0  0  0  0
 19 21  2  0  0  0  0
 19 38  1  0  0  0  0
 20 46  1  0  0  0  0
 21 39  1  0  0  0  0
 22 31  2  0  0  0  0
 22 68  1  0  0  0  0
 23 77  1  0  0  0  0
 24 78  1  0  0  0  0
 25 27  2  0  0  0  0
 25 77  1  0  0  0  0
 26 79  1  0  0  0  0
 27 80  1  0  0  0  0
 28 61  2  0  0  0  0
 29 57  1  0  0  0  0
 29 62  1  0  0  0  0
 30 63  1  0  0  0  0
 30 66  1  0  0  0  0
 31 62  1  0  0  0  0
 31 81  1  0  0  0  0
 32 67  1  0  0  0  0
 32 72  2  0  0  0  0
 33 47  1  0  0  0  0
 33 69  1  0  0  0  0
 33 73  2  0  0  0  0
 34 58  1  0  0  0  0
 34 64  1  0  0  0  0
 34 74  2  0  0  0  0
 35 59  1  0  0  0  0
 35 70  1  0  0  0  0
 35 75  2  0  0  0  0
 36 65  1  0  0  0  0
 36 68  1  0  0  0  0
 36 76  2  0  0  0  0
 37 40  1  0  0  0  0
 38 47  1  0  0  0  0
 39 64  1  0  0  0  0
 40 42  1  0  0  0  0
 41 43  1  0  0  0  0
 41 44  1  0  0  0  0
 42 46  1  0  0  0  0
 43 48  1  0  0  0  0
 44 65  1  0  0  0  0
 45 48  1  0  0  0  0
 45 65  1  0  0  0  0
 46 69  1  0  0  0  0
 47 64  1  0  0  0  0
 48 63  1  0  0  0  0
 49 57  1  0  0  0  0
 50 59  1  0  0  0  0
 51 60  1  0  0  0  0
 52 60  1  0  0  0  0
 53 60  1  0  0  0  0
 54 62  1  0  0  0  0
 55 71  1  0  0  0  0
 56 57  1  0  0  0  0
 56 78  1  0  0  0  0
 58 60  1  0  0  0  0
 58 70  1  0  0  0  0
 59 71  1  0  0  0  0
 61 63  1  0  0  0  0
M  CHG  1  71   1
M  ISO  4  36 100  56 101  68 100  78 101
M  END
> <Batch ID>
0029

> <Smiles>
CNC(C)C(=O)NC(C(=O)N1Cc2cc([101O:1][101CH2:1]C(C)c3cc([100NH:0][100C:0](=O)N4CCCC(n5nc(-c6ccc(Oc7ccc(F)cc7F)cc6)c(C(N)=O)c5N)C4)c(Cl)n3C)ccc2CC1C(=O)NC1CCCc2ccccc21)C(C)(C)C

> <Shape>
0.219

> <Color>
0.204

> <Negative vol penalty>
0.000

$$$$

  -OEChem-04052316363D

 81 89  0     1  0  0  0  0  0999 V2000
  -29.0738  -33.7116   25.4655 C   0  0  0  0  0  0  0  0  0  0  0  0
  -29.0746  -32.4729   24.8323 C   0  0  0  0  0  0  0  0  0  0  0  0
  -26.7814  -12.9923   20.9139 C   0  0  0  0  0  0  0  0  0  0  0  0
  -27.2787  -12.8367   18.5547 C   0  0  0  0  0  0  0  0  0  0  0  0
  -27.8886  -34.2233   25.9921 C   0  0  0  0  0  0  0  0  0  0  0  0
  -27.8902  -31.7446   24.7262 C   0  0  0  0  0  0  0  0  0  0  0  0
  -27.2231  -29.7830   20.1054 C   0  0  0  0  0  0  0  0  0  0  0  0
  -26.3162  -11.6774   20.9026 C   0  0  0  0  0  0  0  0  0  0  0  0
  -26.8135  -11.5217   18.5434 C   0  0  0  0  0  0  0  0  0  0  0  0
  -27.9487  -28.6350   19.7901 C   0  0  0  0  0  0  0  0  0  0  0  0
  -23.5156  -10.0346   19.9633 C   0  0  0  0  0  0  0  0  0  0  0  0
  -22.3156   -9.7668   20.6219 C   0  0  0  0  0  0  0  0  0  0  0  0
  -25.9996  -27.2867   20.2401 C   0  0  0  0  0  0  0  0  0  0  0  0
  -31.1015  -24.6334   19.5623 C   0  0  0  0  0  0  0  0  0  0  0  0
  -29.4500  -24.3206   17.8269 C   0  0  0  0  0  0  0  0  0  0  0  0
  -23.4601   -8.2127   22.0752 C   0  0  0  0  0  0  0  0  0  0  0  0
  -27.2626  -13.5720   19.7399 C   0  0  0  0  0  0  0  0  0  0  0  0
  -29.0585  -15.3651   19.9993 C   0  0  0  0  0  0  0  0  0  0  0  0
  -26.6872  -33.5053   25.8839 C   0  0  0  0  0  0  0  0  0  0  0  0
  -25.8811  -29.6904   20.5015 C   0  0  0  0  0  0  0  0  0  0  0  0
  -26.6880  -32.2466   25.2530 C   0  0  0  0  0  0  0  0  0  0  0  0
  -25.2584  -28.4353   20.5574 C   0  0  0  0  0  0  0  0  0  0  0  0
  -30.0000  -25.0998   18.8448 C   0  0  0  0  0  0  0  0  0  0  0  0
  -31.6531  -23.3880   19.2618 C   0  0  0  0  0  0  0  0  0  0  0  0
  -30.0015  -23.0751   17.5265 C   0  0  0  0  0  0  0  0  0  0  0  0
  -26.3322  -10.9421   19.7174 C   0  0  0  0  0  0  0  0  0  0  0  0
  -27.3378  -27.3864   19.8603 C   0  0  0  0  0  0  0  0  0  0  0  0
  -24.6879   -9.3914   20.3605 C   0  0  0  0  0  0  0  0  0  0  0  0
  -22.2878   -8.8559   21.6779 C   0  0  0  0  0  0  0  0  0  0  0  0
  -24.6601   -8.4805   21.4165 C   0  0  0  0  0  0  0  0  0  0  0  0
  -31.1031  -22.6088   18.2440 C   0  0  0  0  0  0  0  0  0  0  0  0
  -27.7428  -14.9305   19.7508 C   0  0  0  0  0  0  0  0  0  0  0  0
  -28.9938  -16.7330   19.8945 C   0  0  0  0  0  0  0  0  0  0  0  0
  -30.2341  -14.6006   20.2980 C   0  0  0  0  0  0  0  0  0  0  0  0
  -24.2631  -30.4343   23.1344 C   0  0  0  0  0  0  0  0  0  0  0  0
  -21.7006  -29.6116   21.3235 C   0  0  0  0  0  0  0  0  0  0  0  0
  -20.4735  -27.8503   18.6704 C   0  0  0  0  0  0  0  0  0  0  0  0
  -27.2418  -21.3355   17.2690 C   0  0  0  0  0  0  0  0  0  0  0  0
  -25.4404  -34.0779   26.5102 C   0  0  0  0  0  0  0  0  0  0  0  0
  -25.1045  -30.9405   20.8124 C   0  0  0  0  0  0  0  0  0  0  0  0
  -23.8143  -28.2835   20.9575 C   0  0  0  0  0  0  0  0  0  0  0  0
  -24.1547  -33.4128   26.0256 C   0  0  0  0  0  0  0  0  0  0  0  0
  -25.0033  -19.8266   19.5904 C   0  0  0  0  0  0  0  0  0  0  0  0
  -24.3004  -31.8944   26.0411 C   0  0  0  0  0  0  0  0  0  0  0  0
  -25.6216  -18.4525   19.8544 C   0  0  0  0  0  0  0  0  0  0  0  0
  -25.1870  -20.2582   18.1372 C   0  0  0  0  0  0  0  0  0  0  0  0
  -27.1978  -18.8504   17.9164 C   0  0  0  0  0  0  0  0  0  0  0  0
  -25.4185  -31.4379   25.0962 C   0  0  1  0  0  0  0  0  0  0  0  0
  -23.8907  -30.6845   21.7004 C   0  0  1  0  0  0  0  0  0  0  0  0
  -27.0868  -18.3968   19.3821 C   0  0  2  0  0  0  0  0  0  0  0  0
  -32.8333  -22.9288   20.0565 C   0  0  0  0  0  0  0  0  0  0  0  0
  -18.3331  -27.3455   17.4616 C   0  0  0  0  0  0  0  0  0  0  0  0
  -20.8898  -27.7025   23.5613 C   0  0  0  0  0  0  0  0  0  0  0  0
  -19.3492  -26.5718   21.9438 C   0  0  0  0  0  0  0  0  0  0  0  0
  -18.9946  -28.9696   22.5331 C   0  0  0  0  0  0  0  0  0  0  0  0
  -21.4788  -29.0399   16.1539 C   0  0  0  0  0  0  0  0  0  0  0  0
  -29.3795  -22.2745   16.4277 C   0  0  0  0  0  0  0  0  0  0  0  0
  -29.4066  -26.4395   19.1680 C   0  0  0  0  0  0  0  0  0  1  0  0
  -20.9460  -28.3314   21.0578 C   0  0  1  0  0  0  0  0  0  0  0  0
  -19.5513  -28.2530   17.5339 C   0  0  2  0  0  0  0  0  0  0  0  0
  -20.0727  -27.8962   22.2683 C   0  0  0  0  0  0  0  0  0  0  0  0
  -26.9036  -15.9405   19.5067 N   0  0  0  0  0  0  0  0  0  0  0  0
  -27.6938  -17.0233   19.6014 N   0  0  0  0  0  0  0  0  0  0  0  0
  -23.0991  -29.5348   21.2580 N   0  0  0  0  0  0  0  0  0  0  0  0
  -26.5986  -20.1842   17.7526 N   0  0  0  0  0  0  0  0  0  0  0  0
  -29.9227  -17.7038   20.0256 N   0  0  0  0  0  0  0  0  0  0  0  0
  -30.1238  -13.2051   20.3676 N   0  0  0  0  0  0  0  0  0  0  0  0
  -24.9639  -31.4698   23.7226 N   0  0  0  0  0  0  0  0  0  0  0  0
  -20.1947  -28.5485   19.8263 N   0  0  0  0  0  0  0  0  0  0  0  0
  -28.5812  -21.1800   16.9333 N   0  0  0  0  0  0  0  0  0  0  0  0
  -20.2713  -28.1779   16.2312 N   0  3  0  0  0  0  0  0  0  0  0  0
  -31.3459  -15.1400   20.5135 O   0  0  0  0  0  0  0  0  0  0  0  0
  -23.9372  -29.3805   23.6682 O   0  0  0  0  0  0  0  0  0  0  0  0
  -21.0722  -30.6434   21.5727 O   0  0  0  0  0  0  0  0  0  0  0  0
  -21.3509  -26.9986   18.5464 O   0  0  0  0  0  0  0  0  0  0  0  0
  -26.6667  -22.4227   17.1506 O   0  0  0  0  0  0  0  0  0  0  0  0
  -25.8786   -9.6589   19.7061 O   0  0  0  0  0  0  0  0  0  0  0  0
  -28.0440  -26.2642   19.5538 O   0  0  0  0  0  0  0  0  0  1  0  0
  -21.1357   -8.6000   22.3114 F   0  0  0  0  0  0  0  0  0  0  0  0
  -25.7833   -7.8603   21.8034 F   0  0  0  0  0  0  0  0  0  0  0  0
  -31.7880  -21.0626   17.8709 Cl  0  0  0  0  0  0  0  0  0  0  0  0
  1  2  1  0  0  0  0
  1  5  2  0  0  0  0
  2  6  2  0  0  0  0
  3  8  2  0  0  0  0
  3 17  1  0  0  0  0
  4  9  1  0  0  0  0
  4 17  2  0  0  0  0
  5 19  1  0  0  0  0
  6 21  1  0  0  0  0
  7 10  2  0  0  0  0
  7 20  1  0  0  0  0
  8 26  1  0  0  0  0
  9 26  2  0  0  0  0
 10 27  1  0  0  0  0
 11 12  2  0  0  0  0
 11 28  1  0  0  0  0
 12 29  1  0  0  0  0
 13 22  1  0  0  0  0
 13 27  2  0  0  0  0
 14 23  1  0  0  0  0
 14 24  2  0  0  0  0
 15 23  2  0  0  0  0
 15 25  1  0  0  0  0
 16 29  2  0  0  0  0
 16 30  1  0  0  0  0
 17 32  1  0  0  0  0
 18 32  1  0  0  0  0
 18 33  2  0  0  0  0
 18 34  1  0  0  0  0
 19 21  2  0  0  0  0
 19 39  1  0  0  0  0
 20 22  2  0  0  0  0
 20 40  1  0  0  0  0
 21 48  1  0  0  0  0
 22 41  1  0  0  0  0
 23 58  1  0  0  0  0
 24 31  1  0  0  0  0
 24 51  1  0  0  0  0
 25 31  2  0  0  0  0
 25 57  1  0  0  0  0
 26 77  1  0  0  0  0
 27 78  1  0  0  0  0
 28 30  2  0  0  0  0
 28 77  1  0  0  0  0
 29 79  1  0  0  0  0
 30 80  1  0  0  0  0
 31 81  1  0  0  0  0
 32 62  2  0  0  0  0
 33 63  1  0  0  0  0
 33 66  1  0  0  0  0
 34 67  1  0  0  0  0
 34 72  2  0  0  0  0
 35 49  1  0  0  0  0
 35 68  1  0  0  0  0
 35 73  2  0  0  0  0
 36 59  1  0  0  0  0
 36 64  1  0  0  0  0
 36 74  2  0  0  0  0
 37 60  1  0  0  0  0
 37 69  1  0  0  0  0
 37 75  2  0  0  0  0
 38 65  1  0  0  0  0
 38 70  1  0  0  0  0
 38 76  2  0  0  0  0
 39 42  1  0  0  0  0
 40 49  1  0  0  0  0
 41 64  1  0  0  0  0
 42 44  1  0  0  0  0
 43 45  1  0  0  0  0
 43 46  1  0  0  0  0
 44 48  1  0  0  0  0
 45 50  1  0  0  0  0
 46 65  1  0  0  0  0
 47 50  1  0  0  0  0
 47 65  1  0  0  0  0
 48 68  1  0  0  0  0
 49 64  1  0  0  0  0
 50 63  1  0  0  0  0
 52 60  1  0  0  0  0
 53 61  1  0  0  0  0
 54 61  1  0  0  0  0
 55 61  1  0  0  0  0
 56 71  1  0  0  0  0
 57 70  1  0  0  0  0
 58 78  1  0  0  0  0
 59 61  1  0  0  0  0
 59 69  1  0  0  0  0
 60 71  1  0  0  0  0
 62 63  1  0  0  0  0
M  CHG  1  71   1
M  ISO  4  38 100  58 101  70 100  78 101
M  END
> <Batch ID>
0029

> <Smiles>
CNC(C)C(=O)NC(C(=O)N1Cc2cc([101O:1][101CH2:1]c3cc(C)c(Cl)c(C[100NH:0][100C:0](=O)N4CCCC(n5nc(-c6ccc(Oc7ccc(F)cc7F)cc6)c(C(N)=O)c5N)C4)c3)ccc2CC1C(=O)NC1CCCc2ccccc21)C(C)(C)C

> <Shape>
0.314

> <Color>
0.097

> <Negative vol penalty>
0.000

$$$$

  -OEChem-04052316363D

 80 88  0     1  0  0  0  0  0999 V2000
  -33.8282  -31.7831   16.8959 C   0  0  0  0  0  0  0  0  0  0  0  0
  -33.3737  -30.5003   17.1845 C   0  0  0  0  0  0  0  0  0  0  0  0
  -24.6197   -9.1654   21.2028 C   0  0  0  0  0  0  0  0  0  0  0  0
  -24.2502  -10.5272   23.1640 C   0  0  0  0  0  0  0  0  0  0  0  0
  -33.5778  -32.8268   17.7858 C   0  0  0  0  0  0  0  0  0  0  0  0
  -32.6693  -30.2603   18.3638 C   0  0  0  0  0  0  0  0  0  0  0  0
  -28.0819  -26.2834   19.1676 C   0  0  0  0  0  0  0  0  0  0  0  0
  -24.4834   -8.0133   21.9771 C   0  0  0  0  0  0  0  0  0  0  0  0
  -24.1138   -9.3750   23.9383 C   0  0  0  0  0  0  0  0  0  0  0  0
  -28.0408  -24.9925   19.6926 C   0  0  0  0  0  0  0  0  0  0  0  0
  -21.9666   -6.1957   23.3168 C   0  0  0  0  0  0  0  0  0  0  0  0
  -21.1763   -5.1640   22.8103 C   0  0  0  0  0  0  0  0  0  0  0  0
  -27.3954  -25.8914   21.8361 C   0  0  0  0  0  0  0  0  0  0  0  0
  -23.0809   -3.6785   22.8643 C   0  0  0  0  0  0  0  0  0  0  0  0
  -24.5031  -10.4224   21.7962 C   0  0  0  0  0  0  0  0  0  0  0  0
  -23.6242  -12.3093   20.3215 C   0  0  0  0  0  0  0  0  0  0  0  0
  -32.8617  -32.6014   18.9719 C   0  0  0  0  0  0  0  0  0  0  0  0
  -27.7902  -27.3907   19.9771 C   0  0  0  0  0  0  0  0  0  0  0  0
  -32.4103  -31.3017   19.2710 C   0  0  0  0  0  0  0  0  0  0  0  0
  -27.4310  -27.1951   21.3183 C   0  0  0  0  0  0  0  0  0  0  0  0
  -27.0332  -19.3625   22.6184 C   0  0  0  0  0  0  0  0  0  0  0  0
  -24.2305   -8.1180   23.3448 C   0  0  0  0  0  0  0  0  0  0  0  0
  -27.7003  -24.7965   21.0278 C   0  0  0  0  0  0  0  0  0  0  0  0
  -23.3141   -5.9689   23.5971 C   0  0  0  0  0  0  0  0  0  0  0  0
  -21.7335   -3.9054   22.5841 C   0  0  0  0  0  0  0  0  0  0  0  0
  -23.8713   -4.7103   23.3708 C   0  0  0  0  0  0  0  0  0  0  0  0
  -26.7461  -20.6238   22.0210 C   0  0  0  0  0  0  0  0  0  0  0  0
  -24.6443  -11.6129   20.9970 C   0  0  0  0  0  0  0  0  0  0  0  0
  -28.3455  -18.9878   22.4311 C   0  0  0  0  0  0  0  0  0  0  0  0
  -27.8502  -21.1653   21.4000 C   0  0  0  0  0  0  0  0  0  0  0  0
  -24.2690  -13.3595   19.7149 C   0  0  0  0  0  0  0  0  0  0  0  0
  -22.2195  -12.0318   20.2490 C   0  0  0  0  0  0  0  0  0  0  0  0
  -29.4090  -29.9480   20.9482 C   0  0  0  0  0  0  0  0  0  0  0  0
  -26.5390  -30.8108   22.1895 C   0  0  0  0  0  0  0  0  0  0  0  0
  -23.4712  -29.8502   23.3353 C   0  0  0  0  0  0  0  0  0  0  0  0
  -29.3577  -16.2708   20.9314 C   0  0  0  0  0  0  0  0  0  0  0  0
  -32.6564  -33.7515   19.9257 C   0  0  0  0  0  0  0  0  0  0  0  0
  -27.8130  -28.7748   19.3887 C   0  0  0  0  0  0  0  0  0  0  0  0
  -27.0893  -28.3489   22.2241 C   0  0  0  0  0  0  0  0  0  0  0  0
  -31.5781  -33.4887   20.9738 C   0  0  0  0  0  0  0  0  0  0  0  0
  -28.5191  -14.5998   17.9014 C   0  0  0  0  0  0  0  0  0  0  0  0
  -31.7583  -32.1048   21.5896 C   0  0  0  0  0  0  0  0  0  0  0  0
  -27.3389  -13.7077   18.2902 C   0  0  0  0  0  0  0  0  0  0  0  0
  -29.5468  -14.6984   19.0267 C   0  0  0  0  0  0  0  0  0  0  0  0
  -27.8191  -14.2253   20.7193 C   0  0  0  0  0  0  0  0  0  0  0  0
  -31.6212  -31.0065   20.5282 C   0  0  1  0  0  0  0  0  0  0  0  0
  -27.9982  -29.8670   20.4376 C   0  0  1  0  0  0  0  0  0  0  0  0
  -26.7291  -14.1401   19.6372 C   0  0  2  0  0  0  0  0  0  0  0  0
  -26.0432  -18.5374   23.3575 C   0  0  0  0  0  0  0  0  0  0  0  0
  -21.3574  -30.7771   24.3201 C   0  0  0  0  0  0  0  0  0  0  0  0
  -27.9464  -31.1622   24.8738 C   0  0  0  0  0  0  0  0  0  0  0  0
  -25.6983  -31.1473   25.9756 C   0  0  0  0  0  0  0  0  0  0  0  0
  -26.2694  -32.9375   24.3349 C   0  0  0  0  0  0  0  0  0  0  0  0
  -21.8443  -28.8592   21.0704 C   0  0  0  0  0  0  0  0  0  0  0  0
  -29.0372  -17.7620   22.8892 C   0  0  0  0  0  0  0  0  0  0  0  0
  -27.9782  -22.4636   20.6588 C   0  0  0  0  0  0  0  0  0  1  0  0
  -25.8332  -30.5894   23.5055 C   0  0  1  0  0  0  0  0  0  0  0  0
  -22.0770  -30.3745   23.0423 C   0  0  2  0  0  0  0  0  0  0  0  0
  -26.4451  -31.4373   24.6562 C   0  0  0  0  0  0  0  0  0  0  0  0
  -25.8459  -12.1734   20.8349 N   0  0  0  0  0  0  0  0  0  0  0  0
  -25.5849  -13.2330   20.0505 N   0  0  0  0  0  0  0  0  0  0  0  0
  -27.1319  -29.6834   21.6038 N   0  0  0  0  0  0  0  0  0  0  0  0
  -28.9043  -15.1144   20.2757 N   0  0  0  0  0  0  0  0  0  0  0  0
  -23.8331  -14.3694   18.9324 N   0  0  0  0  0  0  0  0  0  0  0  0
  -21.7234  -10.9128   20.9316 N   0  0  0  0  0  0  0  0  0  0  0  0
  -30.2273  -30.7820   20.2104 N   0  0  0  0  0  0  0  0  0  0  0  0
  -24.4189  -30.8488   23.2590 N   0  0  0  0  0  0  0  0  0  0  0  0
  -28.6899  -16.5977   22.1053 N   0  0  0  0  0  0  0  0  0  0  0  0
  -21.2652  -29.3310   22.3545 N   0  3  0  0  0  0  0  0  0  0  0  0
  -21.4302  -12.7454   19.5847 O   0  0  0  0  0  0  0  0  0  0  0  0
  -29.7309  -29.3030   21.9392 O   0  0  0  0  0  0  0  0  0  0  0  0
  -26.5571  -31.9411   21.6957 O   0  0  0  0  0  0  0  0  0  0  0  0
  -23.6965  -28.6733   23.6085 O   0  0  0  0  0  0  0  0  0  0  0  0
  -30.2852  -16.9639   20.4998 O   0  0  0  0  0  0  0  0  0  0  0  0
  -24.0972   -6.9940   24.1006 O   0  0  0  0  0  0  0  0  0  0  0  0
  -27.6601  -23.5376   21.5429 O   0  0  0  0  0  0  0  0  0  1  0  0
  -20.9740   -2.9143   22.0991 F   0  0  0  0  0  0  0  0  0  0  0  0
  -25.1649   -4.4860   23.6392 F   0  0  0  0  0  0  0  0  0  0  0  0
  -29.2255  -20.1544   21.5382 S   0  0  0  0  0  0  0  0  0  0  0  0
  -25.1999  -21.3615   22.0804 Cl  0  0  0  0  0  0  0  0  0  0  0  0
  1  2  1  0  0  0  0
  1  5  2  0  0  0  0
  2  6  2  0  0  0  0
  3  8  2  0  0  0  0
  3 15  1  0  0  0  0
  4  9  1  0  0  0  0
  4 15  2  0  0  0  0
  5 17  1  0  0  0  0
  6 19  1  0  0  0  0
  7 10  2  0  0  0  0
  7 18  1  0  0  0  0
  8 22  1  0  0  0  0
  9 22  2  0  0  0  0
 10 23  1  0  0  0  0
 11 12  2  0  0  0  0
 11 24  1  0  0  0  0
 12 25  1  0  0  0  0
 13 20  1  0  0  0  0
 13 23  2  0  0  0  0
 14 25  2  0  0  0  0
 14 26  1  0  0  0  0
 15 28  1  0  0  0  0
 16 28  1  0  0  0  0
 16 31  2  0  0  0  0
 16 32  1  0  0  0  0
 17 19  2  0  0  0  0
 17 37  1  0  0  0  0
 18 20  2  0  0  0  0
 18 38  1  0  0  0  0
 19 46  1  0  0  0  0
 20 39  1  0  0  0  0
 21 27  1  0  0  0  0
 21 29  2  0  0  0  0
 21 49  1  0  0  0  0
 22 75  1  0  0  0  0
 23 76  1  0  0  0  0
 24 26  2  0  0  0  0
 24 75  1  0  0  0  0
 25 77  1  0  0  0  0
 26 78  1  0  0  0  0
 27 30  2  0  0  0  0
 27 80  1  0  0  0  0
 28 60  2  0  0  0  0
 29 55  1  0  0  0  0
 29 79  1  0  0  0  0
 30 56  1  0  0  0  0
 30 79  1  0  0  0  0
 31 61  1  0  0  0  0
 31 64  1  0  0  0  0
 32 65  1  0  0  0  0
 32 70  2  0  0  0  0
 33 47  1  0  0  0  0
 33 66  1  0  0  0  0
 33 71  2  0  0  0  0
 34 57  1  0  0  0  0
 34 62  1  0  0  0  0
 34 72  2  0  0  0  0
 35 58  1  0  0  0  0
 35 67  1  0  0  0  0
 35 73  2  0  0  0  0
 36 63  1  0  0  0  0
 36 68  1  0  0  0  0
 36 74  2  0  0  0  0
 37 40  1  0  0  0  0
 38 47  1  0  0  0  0
 39 62  1  0  0  0  0
 40 42  1  0  0  0  0
 41 43  1  0  0  0  0
 41 44  1  0  0  0  0
 42 46  1  0  0  0  0
 43 48  1  0  0  0  0
 44 63  1  0  0  0  0
 45 48  1  0  0  0  0
 45 63  1  0  0  0  0
 46 66  1  0  0  0  0
 47 62  1  0  0  0  0
 48 61  1  0  0  0  0
 50 58  1  0  0  0  0
 51 59  1  0  0  0  0
 52 59  1  0  0  0  0
 53 59  1  0  0  0  0
 54 69  1  0  0  0  0
 55 68  1  0  0  0  0
 56 76  1  0  0  0  0
 57 59  1  0  0  0  0
 57 67  1  0  0  0  0
 58 69  1  0  0  0  0
 60 61  1  0  0  0  0
M  CHG  1  69   1
M  ISO  4  36 100  56 101  68 100  76 101
M  END
> <Batch ID>
0029

> <Smiles>
CNC(C)C(=O)NC(C(=O)N1Cc2cc([101O:1][101CH2:1]c3sc(C[100NH:0][100C:0](=O)N4CCCC(n5nc(-c6ccc(Oc7ccc(F)cc7F)cc6)c(C(N)=O)c5N)C4)c(C)c3Cl)ccc2CC1C(=O)NC1CCCc2ccccc21)C(C)(C)C

> <Shape>
0.248

> <Color>
0.101

> <Negative vol penalty>
0.000

$$$$

  -OEChem-04052316363D

 86 95  0     1  0  0  0  0  0999 V2000
  -22.4063   -9.0304   20.5591 C   0  0  0  0  0  0  0  0  0  0  0  0
  -22.1393  -10.3915   20.4529 C   0  0  0  0  0  0  0  0  0  0  0  0
  -22.4163  -27.8752   22.1337 C   0  0  0  0  0  0  0  0  0  0  0  0
  -23.3262  -27.8359   24.3714 C   0  0  0  0  0  0  0  0  0  0  0  0
  -23.4871   -8.5907   21.3224 C   0  0  0  0  0  0  0  0  0  0  0  0
  -22.9523  -11.3138   21.1109 C   0  0  0  0  0  0  0  0  0  0  0  0
  -24.1770  -15.2602   18.1832 C   0  0  0  0  0  0  0  0  0  0  0  0
  -21.1281  -27.7574   22.6554 C   0  0  0  0  0  0  0  0  0  0  0  0
  -22.0380  -27.7181   24.8932 C   0  0  0  0  0  0  0  0  0  0  0  0
  -23.2091  -16.2484   18.0091 C   0  0  0  0  0  0  0  0  0  0  0  0
  -17.5738  -27.8302   23.4149 C   0  0  0  0  0  0  0  0  0  0  0  0
  -16.5827  -28.6586   22.8885 C   0  0  0  0  0  0  0  0  0  0  0  0
  -26.3300  -23.4745   17.6542 C   0  0  0  0  0  0  0  0  0  0  0  0
  -24.3100  -17.6104   19.6681 C   0  0  0  0  0  0  0  0  0  0  0  0
  -17.8410  -30.6024   23.5783 C   0  0  0  0  0  0  0  0  0  0  0  0
  -23.5154  -27.9144   22.9917 C   0  0  0  0  0  0  0  0  0  0  0  0
  -27.4952  -24.2033   17.8658 C   0  0  0  0  0  0  0  0  0  0  0  0
  -25.5511  -29.2250   22.1880 C   0  0  0  0  0  0  0  0  0  0  0  0
  -24.3195   -9.5085   21.9821 C   0  0  0  0  0  0  0  0  0  0  0  0
  -25.2142  -15.4353   19.1105 C   0  0  0  0  0  0  0  0  0  0  0  0
  -24.0444  -10.8859   21.8848 C   0  0  0  0  0  0  0  0  0  0  0  0
  -25.4345  -23.8763   16.6692 C   0  0  0  0  0  0  0  0  0  0  0  0
  -25.2912  -16.6239   19.8502 C   0  0  0  0  0  0  0  0  0  0  0  0
  -20.9389  -27.6789   24.0351 C   0  0  0  0  0  0  0  0  0  0  0  0
  -23.2738  -17.4225   18.7537 C   0  0  0  0  0  0  0  0  0  0  0  0
  -18.6985  -28.3879   24.0231 C   0  0  0  0  0  0  0  0  0  0  0  0
  -16.7163  -30.0446   22.9701 C   0  0  0  0  0  0  0  0  0  0  0  0
  -18.8321  -29.7740   24.1047 C   0  0  0  0  0  0  0  0  0  0  0  0
  -24.8464  -28.0355   22.4534 C   0  0  0  0  0  0  0  0  0  0  0  0
  -27.7166  -25.3171   17.0720 C   0  0  0  0  0  0  0  0  0  0  0  0
  -25.7482  -25.0047   15.9289 C   0  0  0  0  0  0  0  0  0  0  0  0
  -26.7600  -28.8040   21.6900 C   0  0  0  0  0  0  0  0  0  0  0  0
  -28.4412  -23.7811   18.9068 C   0  0  0  0  0  0  0  0  0  0  0  0
  -25.1490  -30.5884   22.3750 C   0  0  0  0  0  0  0  0  0  0  0  0
  -26.1471  -13.9210   21.7450 C   0  0  0  0  0  0  0  0  0  0  0  0
  -28.6421  -15.9875   21.5807 C   0  0  0  0  0  0  0  0  0  0  0  0
  -29.8603  -18.9764   20.4721 C   0  0  0  0  0  0  0  0  0  0  0  0
  -25.4477   -8.9832   22.8341 C   0  0  0  0  0  0  0  0  0  0  0  0
  -26.2656  -14.3711   19.2672 C   0  0  0  0  0  0  0  0  0  0  0  0
  -26.3960  -16.8694   20.8440 C   0  0  0  0  0  0  0  0  0  0  0  0
  -26.4838  -10.0446   23.1947 C   0  0  0  0  0  0  0  0  0  0  0  0
  -29.8361  -25.1433   21.8969 C   0  0  0  0  0  0  0  0  0  0  0  0
  -25.7972  -11.3215   23.6690 C   0  0  0  0  0  0  0  0  0  0  0  0
  -28.7728  -26.1378   22.3663 C   0  0  0  0  0  0  0  0  0  0  0  0
  -24.5183  -21.6583   16.0147 C   0  0  0  0  0  0  0  0  0  0  0  0
  -23.3093  -23.0996   17.7022 C   0  0  0  0  0  0  0  0  0  0  0  0
  -29.2086  -23.9095   21.2530 C   0  0  0  0  0  0  0  0  0  0  0  0
  -27.1990  -25.2007   20.6212 C   0  0  0  0  0  0  0  0  0  0  0  0
  -23.2609  -20.8145   15.8490 C   0  0  0  0  0  0  0  0  0  0  0  0
  -22.0610  -22.2449   17.5233 C   0  0  0  0  0  0  0  0  0  0  0  0
  -24.1802  -23.0976   16.4355 C   0  0  0  0  0  0  0  0  0  0  0  0
  -24.9181  -11.9184   22.5635 C   0  0  1  0  0  0  0  0  0  0  0  0
  -26.9863  -14.4364   20.6102 C   0  0  1  0  0  0  0  0  0  0  0  0
  -27.7910  -26.4822   21.2306 C   0  0  1  0  0  0  0  0  0  0  0  0
  -28.9504  -26.1405   17.2524 C   0  0  0  0  0  0  0  0  0  0  0  0
  -24.8239  -25.4832   14.8573 C   0  0  0  0  0  0  0  0  0  0  0  0
  -31.9221  -20.4058   20.5275 C   0  0  0  0  0  0  0  0  0  0  0  0
  -28.0100  -16.7837   24.4576 C   0  0  0  0  0  0  0  0  0  0  0  0
  -29.4327  -18.8182   24.1335 C   0  0  0  0  0  0  0  0  0  0  0  0
  -30.4479  -16.5468   23.9524 C   0  0  0  0  0  0  0  0  0  0  0  0
  -30.1398  -18.8902   17.5271 C   0  0  0  0  0  0  0  0  0  0  0  0
  -21.2755  -19.9237   17.0652 C   0  0  0  0  0  0  0  0  0  0  0  0
  -21.7339  -18.4970   17.2942 C   0  0  0  0  0  0  0  0  0  1  0  0
  -28.9205  -17.3719   22.1143 C   0  0  1  0  0  0  0  0  0  0  0  0
  -31.1545  -19.3369   19.7653 C   0  0  2  0  0  0  0  0  0  0  0  0
  -29.1807  -17.3750   23.6472 C   0  0  0  0  0  0  0  0  0  0  0  0
  -25.5490  -26.9411   22.1490 N   0  0  0  0  0  0  0  0  0  0  0  0
  -26.8701  -25.7381   16.1056 N   0  0  0  0  0  0  0  0  0  0  0  0
  -26.7078  -27.4412   21.6871 N   0  0  0  0  0  0  0  0  0  0  0  0
  -28.2759  -24.2959   20.1949 N   0  0  0  0  0  0  0  0  0  0  0  0
  -27.3967  -15.7963   20.9659 N   0  0  0  0  0  0  0  0  0  0  0  0
  -27.8518  -29.4705   21.2585 N   0  0  0  0  0  0  0  0  0  0  0  0
  -23.8736  -30.8432   22.8973 N   0  0  0  0  0  0  0  0  0  0  0  0
  -25.7329  -12.6120   21.5890 N   0  0  0  0  0  0  0  0  0  0  0  0
  -30.0237  -17.9014   21.3199 N   0  0  0  0  0  0  0  0  0  0  0  0
  -22.4483  -20.8317   17.1300 N   0  3  0  0  0  0  0  0  0  0  0  0
  -30.8709  -19.8491   18.3948 N   0  3  0  0  0  0  0  0  0  0  0  0
  -29.3266  -23.0037   18.5537 O   0  0  0  0  0  0  0  0  0  0  0  0
  -25.8922  -31.5525   22.0722 O   0  0  0  0  0  0  0  0  0  0  0  0
  -25.8954  -14.6561   22.6926 O   0  0  0  0  0  0  0  0  0  0  0  0
  -29.5010  -15.1099   21.6985 O   0  0  0  0  0  0  0  0  0  0  0  0
  -28.8104  -19.5897   20.2931 O   0  0  0  0  0  0  0  0  0  0  0  0
  -19.6820  -27.5642   24.5445 O   0  0  0  0  0  0  0  0  0  0  0  0
  -22.3300  -18.3885   18.5862 O   0  0  0  0  0  0  0  0  0  1  0  0
  -15.7652  -30.8400   22.4632 F   0  0  0  0  0  0  0  0  0  0  0  0
  -19.9108  -30.3155   24.6868 F   0  0  0  0  0  0  0  0  0  0  0  0
  1  2  1  0  0  0  0
  1  5  2  0  0  0  0
  2  6  2  0  0  0  0
  3  8  2  0  0  0  0
  3 16  1  0  0  0  0
  4  9  1  0  0  0  0
  4 16  2  0  0  0  0
  5 19  1  0  0  0  0
  6 21  1  0  0  0  0
  7 10  2  0  0  0  0
  7 20  1  0  0  0  0
  8 24  1  0  0  0  0
  9 24  2  0  0  0  0
 10 25  1  0  0  0  0
 11 12  2  0  0  0  0
 11 26  1  0  0  0  0
 12 27  1  0  0  0  0
 13 17  2  0  0  0  0
 13 22  1  0  0  0  0
 14 23  1  0  0  0  0
 14 25  2  0  0  0  0
 15 27  2  0  0  0  0
 15 28  1  0  0  0  0
 16 29  1  0  0  0  0
 17 30  1  0  0  0  0
 17 33  1  0  0  0  0
 18 29  1  0  0  0  0
 18 32  2  0  0  0  0
 18 34  1  0  0  0  0
 19 21  2  0  0  0  0
 19 38  1  0  0  0  0
 20 23  2  0  0  0  0
 20 39  1  0  0  0  0
 21 52  1  0  0  0  0
 22 31  2  0  0  0  0
 22 51  1  0  0  0  0
 23 40  1  0  0  0  0
 24 83  1  0  0  0  0
 25 84  1  0  0  0  0
 26 28  2  0  0  0  0
 26 83  1  0  0  0  0
 27 85  1  0  0  0  0
 28 86  1  0  0  0  0
 29 67  2  0  0  0  0
 30 55  1  0  0  0  0
 30 68  2  0  0  0  0
 31 56  1  0  0  0  0
 31 68  1  0  0  0  0
 32 69  1  0  0  0  0
 32 72  1  0  0  0  0
 33 70  1  0  0  0  0
 33 78  2  0  0  0  0
 34 73  1  0  0  0  0
 34 79  2  0  0  0  0
 35 53  1  0  0  0  0
 35 74  1  0  0  0  0
 35 80  2  0  0  0  0
 36 64  1  0  0  0  0
 36 71  1  0  0  0  0
 36 81  2  0  0  0  0
 37 65  1  0  0  0  0
 37 75  1  0  0  0  0
 37 82  2  0  0  0  0
 38 41  1  0  0  0  0
 39 53  1  0  0  0  0
 40 71  1  0  0  0  0
 41 43  1  0  0  0  0
 42 44  1  0  0  0  0
 42 47  1  0  0  0  0
 43 52  1  0  0  0  0
 44 54  1  0  0  0  0
 45 49  1  0  0  0  0
 45 51  1  0  0  0  0
 46 50  1  0  0  0  0
 46 51  1  0  0  0  0
 47 70  1  0  0  0  0
 48 54  1  0  0  0  0
 48 70  1  0  0  0  0
 49 76  1  0  0  0  0
 50 76  1  0  0  0  0
 52 74  1  0  0  0  0
 53 71  1  0  0  0  0
 54 69  1  0  0  0  0
 57 65  1  0  0  0  0
 58 66  1  0  0  0  0
 59 66  1  0  0  0  0
 60 66  1  0  0  0  0
 61 77  1  0  0  0  0
 62 63  1  0  0  0  0
 62 76  1  0  0  0  0
 63 84  1  0  0  0  0
 64 66  1  0  0  0  0
 64 75  1  0  0  0  0
 65 77  1  0  0  0  0
 67 69  1  0  0  0  0
M  CHG  2  76   1  77   1
M  ISO  4  17 100  33 100  63 101  84 101
M  END
> <Batch ID>
0029

> <Smiles>
CNC(C)C(=O)NC(C(=O)N1Cc2cc([101O:1][101CH2:1]CN3CCC(c4c[100c:0]([100C:0](=O)N5CCCC(n6nc(-c7ccc(Oc8ccc(F)cc8F)cc7)c(C(N)=O)c6N)C5)c(C)nc4C)CC3)ccc2CC1C(=O)NC1CCCc2ccccc21)C(C)(C)C

> <Shape>
0.223

> <Color>
0.050

> <Negative vol penalty>
0.000

$$$$

  -OEChem-04052316363D

 82 90  0     1  0  0  0  0  0999 V2000
  -27.4881  -22.8210   19.2876 C   0  0  0  0  0  0  0  0  0  0  0  0
  -26.2792  -23.4103   19.6433 C   0  0  0  0  0  0  0  0  0  0  0  0
  -23.7805  -14.2909   20.0530 C   0  0  0  0  0  0  0  0  0  0  0  0
  -26.0814  -14.5838   20.7293 C   0  0  0  0  0  0  0  0  0  0  0  0
  -28.6671  -23.2158   19.9187 C   0  0  0  0  0  0  0  0  0  0  0  0
  -26.2483  -24.3940   20.6311 C   0  0  0  0  0  0  0  0  0  0  0  0
  -23.3688  -28.3544   19.3394 C   0  0  0  0  0  0  0  0  0  0  0  0
  -23.9777  -12.9120   19.9794 C   0  0  0  0  0  0  0  0  0  0  0  0
  -26.2785  -13.2049   20.6558 C   0  0  0  0  0  0  0  0  0  0  0  0
  -21.9879  -28.2030   19.4572 C   0  0  0  0  0  0  0  0  0  0  0  0
  -24.1503  -10.3025   22.1228 C   0  0  0  0  0  0  0  0  0  0  0  0
  -23.1752   -9.4775   22.6831 C   0  0  0  0  0  0  0  0  0  0  0  0
  -22.0418  -29.3968   21.5527 C   0  0  0  0  0  0  0  0  0  0  0  0
  -20.7172  -25.7176   22.6319 C   0  0  0  0  0  0  0  0  0  0  0  0
  -18.7831  -24.2722   22.7158 C   0  0  0  0  0  0  0  0  0  0  0  0
  -22.8003   -8.4556   20.5262 C   0  0  0  0  0  0  0  0  0  0  0  0
  -24.8324  -15.1268   20.4279 C   0  0  0  0  0  0  0  0  0  0  0  0
  -24.2384  -17.4109   19.4595 C   0  0  0  0  0  0  0  0  0  0  0  0
  -28.6520  -24.2117   20.9079 C   0  0  0  0  0  0  0  0  0  0  0  0
  -24.0993  -29.0198   20.3344 C   0  0  0  0  0  0  0  0  0  0  0  0
  -27.4279  -24.8015   21.2769 C   0  0  0  0  0  0  0  0  0  0  0  0
  -23.4316  -29.5576   21.4439 C   0  0  0  0  0  0  0  0  0  0  0  0
  -19.3342  -25.5457   22.5734 C   0  0  0  0  0  0  0  0  0  0  0  0
  -21.5491  -24.6161   22.8326 C   0  0  0  0  0  0  0  0  0  0  0  0
  -19.6151  -23.1707   22.9165 C   0  0  0  0  0  0  0  0  0  0  0  0
  -20.9981  -23.3427   22.9749 C   0  0  0  0  0  0  0  0  0  0  0  0
  -25.2266  -12.3690   20.2808 C   0  0  0  0  0  0  0  0  0  0  0  0
  -21.3246  -28.7217   20.5654 C   0  0  0  0  0  0  0  0  0  0  0  0
  -24.4504  -10.2042   20.7641 C   0  0  0  0  0  0  0  0  0  0  0  0
  -22.5002   -8.5540   21.8849 C   0  0  0  0  0  0  0  0  0  0  0  0
  -23.7754   -9.2808   19.9658 C   0  0  0  0  0  0  0  0  0  0  0  0
  -24.6295  -16.5513   20.5035 C   0  0  0  0  0  0  0  0  0  0  0  0
  -24.1879  -18.6548   20.0397 C   0  0  0  0  0  0  0  0  0  0  0  0
  -23.9468  -17.1117   18.0880 C   0  0  0  0  0  0  0  0  0  0  0  0
  -26.4297  -28.1984   22.3341 C   0  0  0  0  0  0  0  0  0  0  0  0
  -26.3938  -31.3603   23.0575 C   0  0  0  0  0  0  0  0  0  0  0  0
  -24.6536  -34.2950   23.1354 C   0  0  0  0  0  0  0  0  0  0  0  0
  -22.7343  -22.0189   24.2317 C   0  0  0  0  0  0  0  0  0  0  0  0
  -29.9452  -24.5718   21.5952 C   0  0  0  0  0  0  0  0  0  0  0  0
  -25.5848  -29.1981   20.1794 C   0  0  0  0  0  0  0  0  0  0  0  0
  -24.1670  -30.2981   22.5299 C   0  0  0  0  0  0  0  0  0  0  0  0
  -29.8790  -25.8869   22.3675 C   0  0  0  0  0  0  0  0  0  0  0  0
  -25.8049  -20.2474   24.5641 C   0  0  0  0  0  0  0  0  0  0  0  0
  -28.6089  -25.9477   23.2101 C   0  0  0  0  0  0  0  0  0  0  0  0
  -25.7407  -19.1986   23.4514 C   0  0  0  0  0  0  0  0  0  0  0  0
  -24.4356  -20.4867   25.1977 C   0  0  0  0  0  0  0  0  0  0  0  0
  -23.2967  -19.7601   23.1376 C   0  0  0  0  0  0  0  0  0  0  0  0
  -27.3571  -25.8896   22.3263 C   0  0  1  0  0  0  0  0  0  0  0  0
  -26.2986  -29.4446   21.5049 C   0  0  1  0  0  0  0  0  0  0  0  0
  -24.6400  -19.5322   22.4254 C   0  0  2  0  0  0  0  0  0  0  0  0
  -23.0269  -24.8321   22.8901 C   0  0  0  0  0  0  0  0  0  0  0  0
  -18.9951  -21.8188   23.0661 C   0  0  0  0  0  0  0  0  0  0  0  0
  -24.2413  -36.7499   23.4533 C   0  0  0  0  0  0  0  0  0  0  0  0
  -26.0813  -30.5591   25.9850 C   0  0  0  0  0  0  0  0  0  0  0  0
  -25.3662  -32.9071   26.4790 C   0  0  0  0  0  0  0  0  0  0  0  0
  -27.6530  -32.4632   25.5867 C   0  0  0  0  0  0  0  0  0  0  0  0
  -25.4488  -34.9074   20.3512 C   0  0  0  0  0  0  0  0  0  0  0  0
  -18.4349  -26.7363   22.3561 C   0  0  0  0  0  0  0  0  0  0  0  0
  -18.1500  -27.0321   20.8820 C   0  0  0  0  0  0  0  0  0  0  0  0
  -19.3959  -27.4136   20.0910 C   0  0  0  0  0  0  0  0  0  1  0  0
  -25.6562  -32.2205   24.0550 C   0  0  1  0  0  0  0  0  0  0  0  0
  -25.0212  -35.6964   22.6822 C   0  0  2  0  0  0  0  0  0  0  0  0
  -26.1753  -32.0219   25.5071 C   0  0  0  0  0  0  0  0  0  0  0  0
  -24.8145  -17.1947   21.6593 N   0  0  0  0  0  0  0  0  0  0  0  0
  -24.5385  -18.4719   21.3450 N   0  0  0  0  0  0  0  0  0  0  0  0
  -25.6194  -30.4409   22.3359 N   0  0  0  0  0  0  0  0  0  0  0  0
  -23.4447  -20.8016   24.1662 N   0  0  0  0  0  0  0  0  0  0  0  0
  -23.8783  -19.8763   19.5555 N   0  0  0  0  0  0  0  0  0  0  0  0
  -24.9937  -17.1562   17.1572 N   0  0  0  0  0  0  0  0  0  0  0  0
  -21.8429  -22.2236   23.1790 N   0  0  0  0  0  0  0  0  0  0  0  0
  -27.1152  -27.1753   21.7075 N   0  0  0  0  0  0  0  0  0  0  0  0
  -25.7583  -33.5913   23.5662 N   0  0  0  0  0  0  0  0  0  0  0  0
  -24.7293  -35.8646   21.2304 N   0  3  0  0  0  0  0  0  0  0  0  0
  -22.7889  -16.8297   17.6965 O   0  0  0  0  0  0  0  0  0  0  0  0
  -25.9460  -28.1679   23.4596 O   0  0  0  0  0  0  0  0  0  0  0  0
  -27.6110  -31.5041   22.9185 O   0  0  0  0  0  0  0  0  0  0  0  0
  -23.5011  -33.8686   23.1132 O   0  0  0  0  0  0  0  0  0  0  0  0
  -22.9240  -22.8330   25.1390 O   0  0  0  0  0  0  0  0  0  0  0  0
  -25.4193  -11.0235   20.2094 O   0  0  0  0  0  0  0  0  0  0  0  0
  -19.9768  -28.5747   20.6832 O   0  0  0  0  0  0  0  0  0  1  0  0
  -21.5649   -7.7607   22.4235 F   0  0  0  0  0  0  0  0  0  0  0  0
  -24.0602   -9.1809   18.6602 F   0  0  0  0  0  0  0  0  0  0  0  0
  1  2  1  0  0  0  0
  1  5  2  0  0  0  0
  2  6  2  0  0  0  0
  3  8  2  0  0  0  0
  3 17  1  0  0  0  0
  4  9  1  0  0  0  0
  4 17  2  0  0  0  0
  5 19  1  0  0  0  0
  6 21  1  0  0  0  0
  7 10  2  0  0  0  0
  7 20  1  0  0  0  0
  8 27  1  0  0  0  0
  9 27  2  0  0  0  0
 10 28  1  0  0  0  0
 11 12  2  0  0  0  0
 11 29  1  0  0  0  0
 12 30  1  0  0  0  0
 13 22  1  0  0  0  0
 13 28  2  0  0  0  0
 14 23  1  0  0  0  0
 14 24  2  0  0  0  0
 15 23  2  0  0  0  0
 15 25  1  0  0  0  0
 16 30  2  0  0  0  0
 16 31  1  0  0  0  0
 17 32  1  0  0  0  0
 18 32  1  0  0  0  0
 18 33  2  0  0  0  0
 18 34  1  0  0  0  0
 19 21  2  0  0  0  0
 19 39  1  0  0  0  0
 20 22  2  0  0  0  0
 20 40  1  0  0  0  0
 21 48  1  0  0  0  0
 22 41  1  0  0  0  0
 23 58  1  0  0  0  0
 24 26  1  0  0  0  0
 24 51  1  0  0  0  0
 25 26  2  0  0  0  0
 25 52  1  0  0  0  0
 26 70  1  0  0  0  0
 27 79  1  0  0  0  0
 28 80  1  0  0  0  0
 29 31  2  0  0  0  0
 29 79  1  0  0  0  0
 30 81  1  0  0  0  0
 31 82  1  0  0  0  0
 32 64  2  0  0  0  0
 33 65  1  0  0  0  0
 33 68  1  0  0  0  0
 34 69  1  0  0  0  0
 34 74  2  0  0  0  0
 35 49  1  0  0  0  0
 35 71  1  0  0  0  0
 35 75  2  0  0  0  0
 36 61  1  0  0  0  0
 36 66  1  0  0  0  0
 36 76  2  0  0  0  0
 37 62  1  0  0  0  0
 37 72  1  0  0  0  0
 37 77  2  0  0  0  0
 38 67  1  0  0  0  0
 38 70  1  0  0  0  0
 38 78  2  0  0  0  0
 39 42  1  0  0  0  0
 40 49  1  0  0  0  0
 41 66  1  0  0  0  0
 42 44  1  0  0  0  0
 43 45  1  0  0  0  0
 43 46  1  0  0  0  0
 44 48  1  0  0  0  0
 45 50  1  0  0  0  0
 46 67  1  0  0  0  0
 47 50  1  0  0  0  0
 47 67  1  0  0  0  0
 48 71  1  0  0  0  0
 49 66  1  0  0  0  0
 50 65  1  0  0  0  0
 53 62  1  0  0  0  0
 54 63  1  0  0  0  0
 55 63  1  0  0  0  0
 56 63  1  0  0  0  0
 57 73  1  0  0  0  0
 58 59  1  0  0  0  0
 59 60  1  0  0  0  0
 60 80  1  0  0  0  0
 61 63  1  0  0  0  0
 61 72  1  0  0  0  0
 62 73  1  0  0  0  0
 64 65  1  0  0  0  0
M  CHG  1  73   1
M  ISO  4  38 100  60 101  70 100  80 101
M  END
> <Batch ID>
0029

> <Smiles>
CNC(C)C(=O)NC(C(=O)N1Cc2cc([101O:1][101CH2:1]CCc3cc(C)c([100NH:0][100C:0](=O)N4CCCC(n5nc(-c6ccc(Oc7ccc(F)cc7F)cc6)c(C(N)=O)c5N)C4)c(C)c3)ccc2CC1C(=O)NC1CCCc2ccccc21)C(C)(C)C

> <Shape>
0.239

> <Color>
0.067

> <Negative vol penalty>
0.000

$$$$

  -OEChem-04052316363D

 86 94  0     1  0  0  0  0  0999 V2000
  -26.5530  -35.7078   22.5716 C   0  0  0  0  0  0  0  0  0  0  0  0
  -27.0188  -34.4029   22.4464 C   0  0  0  0  0  0  0  0  0  0  0  0
  -26.4312  -12.3200   21.1167 C   0  0  0  0  0  0  0  0  0  0  0  0
  -24.8676  -13.6145   19.8066 C   0  0  0  0  0  0  0  0  0  0  0  0
  -25.2746  -35.9452   23.0747 C   0  0  0  0  0  0  0  0  0  0  0  0
  -26.2068  -33.3346   22.8254 C   0  0  0  0  0  0  0  0  0  0  0  0
  -26.2452  -29.5689   19.4396 C   0  0  0  0  0  0  0  0  0  0  0  0
  -25.4171  -11.4167   21.4346 C   0  0  0  0  0  0  0  0  0  0  0  0
  -23.8534  -12.7111   20.1244 C   0  0  0  0  0  0  0  0  0  0  0  0
  -27.3513  -28.7202   19.4438 C   0  0  0  0  0  0  0  0  0  0  0  0
  -23.8297   -8.8288   19.9459 C   0  0  0  0  0  0  0  0  0  0  0  0
  -24.1231   -7.4680   19.8589 C   0  0  0  0  0  0  0  0  0  0  0  0
  -26.0874  -27.0888   20.6928 C   0  0  0  0  0  0  0  0  0  0  0  0
  -28.2422  -23.7225   19.5230 C   0  0  0  0  0  0  0  0  0  0  0  0
  -27.9007  -22.7644   16.9253 C   0  0  0  0  0  0  0  0  0  0  0  0
  -23.6170   -7.2087   22.2070 C   0  0  0  0  0  0  0  0  0  0  0  0
  -26.1565  -13.4190   20.3028 C   0  0  0  0  0  0  0  0  0  0  0  0
  -28.0788  -14.2961   18.8734 C   0  0  0  0  0  0  0  0  0  0  0  0
  -24.4428  -34.8788   23.4509 C   0  0  0  0  0  0  0  0  0  0  0  0
  -25.0533  -29.1878   20.0725 C   0  0  0  0  0  0  0  0  0  0  0  0
  -24.9165  -33.5579   23.3352 C   0  0  0  0  0  0  0  0  0  0  0  0
  -24.9667  -27.9334   20.6931 C   0  0  0  0  0  0  0  0  0  0  0  0
  -28.9729  -24.2784   18.4729 C   0  0  0  0  0  0  0  0  0  0  0  0
  -27.3408  -22.6875   19.2742 C   0  0  0  0  0  0  0  0  0  0  0  0
  -28.8022  -23.7994   17.1741 C   0  0  0  0  0  0  0  0  0  0  0  0
  -24.1282  -11.6122   20.9384 C   0  0  0  0  0  0  0  0  0  0  0  0
  -27.2735  -27.4812   20.0729 C   0  0  0  0  0  0  0  0  0  0  0  0
  -23.4301   -9.3797   21.1635 C   0  0  0  0  0  0  0  0  0  0  0  0
  -27.1700  -22.2085   17.9753 C   0  0  0  0  0  0  0  0  0  0  0  0
  -24.0167   -6.6579   20.9894 C   0  0  0  0  0  0  0  0  0  0  0  0
  -23.3237   -8.5696   22.2941 C   0  0  0  0  0  0  0  0  0  0  0  0
  -27.2035  -14.3529   19.9746 C   0  0  0  0  0  0  0  0  0  0  0  0
  -28.8782  -15.4043   19.0128 C   0  0  0  0  0  0  0  0  0  0  0  0
  -28.1618  -13.3283   17.8189 C   0  0  0  0  0  0  0  0  0  0  0  0
  -23.3345  -30.3271   22.4915 C   0  0  0  0  0  0  0  0  0  0  0  0
  -21.2497  -28.0109   21.5908 C   0  0  0  0  0  0  0  0  0  0  0  0
  -20.7397  -25.0199   20.0285 C   0  0  0  0  0  0  0  0  0  0  0  0
  -28.0989  -20.6770   21.7409 C   0  0  0  0  0  0  0  0  0  0  0  0
  -23.0863  -35.1868   24.0338 C   0  0  0  0  0  0  0  0  0  0  0  0
  -23.8606  -30.1035   20.0361 C   0  0  0  0  0  0  0  0  0  0  0  0
  -23.7037  -27.4686   21.3693 C   0  0  0  0  0  0  0  0  0  0  0  0
  -22.1477  -33.9833   24.0616 C   0  0  0  0  0  0  0  0  0  0  0  0
  -30.6942  -18.3160   22.3467 C   0  0  0  0  0  0  0  0  0  0  0  0
  -22.8704  -32.7552   24.6060 C   0  0  0  0  0  0  0  0  0  0  0  0
  -30.1729  -17.0275   21.7081 C   0  0  0  0  0  0  0  0  0  0  0  0
  -29.5684  -19.1226   22.9902 C   0  0  0  0  0  0  0  0  0  0  0  0
  -27.9102  -18.1310   21.4602 C   0  0  0  0  0  0  0  0  0  0  0  0
  -24.0560  -32.3715   23.7123 C   0  0  1  0  0  0  0  0  0  0  0  0
  -22.8614  -29.8281   21.1555 C   0  0  1  0  0  0  0  0  0  0  0  0
  -29.0007  -17.3111   20.7495 C   0  0  2  0  0  0  0  0  0  0  0  0
  -26.0060  -18.8233   17.6005 C   0  0  0  0  0  0  0  0  0  0  0  0
  -18.9346  -23.3629   19.4870 C   0  0  0  0  0  0  0  0  0  0  0  0
  -21.2932  -27.0237   24.4776 C   0  0  0  0  0  0  0  0  0  0  0  0
  -20.2739  -24.8783   23.6859 C   0  0  0  0  0  0  0  0  0  0  0  0
  -19.0320  -27.0240   23.4091 C   0  0  0  0  0  0  0  0  0  0  0  0
  -21.1476  -25.3523   17.1161 C   0  0  0  0  0  0  0  0  0  0  0  0
  -29.9438  -25.3964   18.7662 C   0  0  0  0  0  0  0  0  0  0  0  0
  -26.5662  -22.1048   20.4100 C   0  0  0  0  0  0  0  0  0  0  0  0
  -26.8320  -20.0065   17.1430 C   0  0  0  0  0  0  0  0  0  0  0  0
  -29.2426  -26.7354   18.9673 C   0  0  0  0  0  0  0  0  0  1  0  0
  -29.5731  -24.3786   16.0336 C   0  0  0  0  0  0  0  0  0  0  0  0
  -21.0438  -26.5592   21.9501 C   0  0  1  0  0  0  0  0  0  0  0  0
  -19.7076  -24.5809   19.0056 C   0  0  2  0  0  0  0  0  0  0  0  0
  -20.4353  -26.3806   23.3697 C   0  0  0  0  0  0  0  0  0  0  0  0
  -27.4259  -15.4131   20.7559 N   0  0  0  0  0  0  0  0  0  0  0  0
  -28.4501  -16.0328   20.1450 N   0  0  0  0  0  0  0  0  0  0  0  0
  -22.5669  -28.4023   21.3121 N   0  0  0  0  0  0  0  0  0  0  0  0
  -28.4893  -19.3586   22.0281 N   0  0  0  0  0  0  0  0  0  0  0  0
  -29.8986  -15.8926   18.2761 N   0  0  0  0  0  0  0  0  0  0  0  0
  -27.2643  -12.2518   17.8278 N   0  0  0  0  0  0  0  0  0  0  0  0
  -23.5930  -31.6841   22.5260 N   0  0  0  0  0  0  0  0  0  0  0  0
  -20.2389  -25.9835   20.8782 N   0  0  0  0  0  0  0  0  0  0  0  0
  -27.0732  -20.8121   20.8133 N   0  0  0  0  0  0  0  0  0  0  0  0
  -20.3703  -24.2373   17.7157 N   0  3  0  0  0  0  0  0  0  0  0  0
  -29.0175  -13.4066   16.9050 O   0  0  0  0  0  0  0  0  0  0  0  0
  -23.4546  -29.5395   23.4226 O   0  0  0  0  0  0  0  0  0  0  0  0
  -20.2766  -28.7681   21.5517 O   0  0  0  0  0  0  0  0  0  0  0  0
  -21.8753  -24.5520   20.0721 O   0  0  0  0  0  0  0  0  0  0  0  0
  -28.6291  -21.6610   22.2678 O   0  0  0  0  0  0  0  0  0  0  0  0
  -23.1384  -10.7308   21.2481 O   0  0  0  0  0  0  0  0  0  0  0  0
  -28.3518  -26.6511   20.0790 O   0  0  0  0  0  0  0  0  0  1  0  0
  -26.2947  -21.1972   17.7152 O   0  0  0  0  0  0  0  0  0  0  0  0
  -24.2969   -5.3508   20.9053 F   0  0  0  0  0  0  0  0  0  0  0  0
  -22.9391   -9.0928   23.4663 F   0  0  0  0  0  0  0  0  0  0  0  0
  -29.2924  -25.6991   15.8839 F   0  0  0  0  0  0  0  0  0  0  0  0
  -29.2304  -23.7755   14.8659 F   0  0  0  0  0  0  0  0  0  0  0  0
  1  2  1  0  0  0  0
  1  5  2  0  0  0  0
  2  6  2  0  0  0  0
  3  8  2  0  0  0  0
  3 17  1  0  0  0  0
  4  9  1  0  0  0  0
  4 17  2  0  0  0  0
  5 19  1  0  0  0  0
  6 21  1  0  0  0  0
  7 10  2  0  0  0  0
  7 20  1  0  0  0  0
  8 26  1  0  0  0  0
  9 26  2  0  0  0  0
 10 27  1  0  0  0  0
 11 12  2  0  0  0  0
 11 28  1  0  0  0  0
 12 30  1  0  0  0  0
 13 22  1  0  0  0  0
 13 27  2  0  0  0  0
 14 23  2  0  0  0  0
 14 24  1  0  0  0  0
 15 25  2  0  0  0  0
 15 29  1  0  0  0  0
 16 30  2  0  0  0  0
 16 31  1  0  0  0  0
 17 32  1  0  0  0  0
 18 32  1  0  0  0  0
 18 33  2  0  0  0  0
 18 34  1  0  0  0  0
 19 21  2  0  0  0  0
 19 39  1  0  0  0  0
 20 22  2  0  0  0  0
 20 40  1  0  0  0  0
 21 48  1  0  0  0  0
 22 41  1  0  0  0  0
 23 25  1  0  0  0  0
 23 57  1  0  0  0  0
 24 29  2  0  0  0  0
 24 58  1  0  0  0  0
 25 61  1  0  0  0  0
 26 80  1  0  0  0  0
 27 81  1  0  0  0  0
 28 31  2  0  0  0  0
 28 80  1  0  0  0  0
 29 82  1  0  0  0  0
 30 83  1  0  0  0  0
 31 84  1  0  0  0  0
 32 65  2  0  0  0  0
 33 66  1  0  0  0  0
 33 69  1  0  0  0  0
 34 70  1  0  0  0  0
 34 75  2  0  0  0  0
 35 49  1  0  0  0  0
 35 71  1  0  0  0  0
 35 76  2  0  0  0  0
 36 62  1  0  0  0  0
 36 67  1  0  0  0  0
 36 77  2  0  0  0  0
 37 63  1  0  0  0  0
 37 72  1  0  0  0  0
 37 78  2  0  0  0  0
 38 68  1  0  0  0  0
 38 73  1  0  0  0  0
 38 79  2  0  0  0  0
 39 42  1  0  0  0  0
 40 49  1  0  0  0  0
 41 67  1  0  0  0  0
 42 44  1  0  0  0  0
 43 45  1  0  0  0  0
 43 46  1  0  0  0  0
 44 48  1  0  0  0  0
 45 50  1  0  0  0  0
 46 68  1  0  0  0  0
 47 50  1  0  0  0  0
 47 68  1  0  0  0  0
 48 71  1  0  0  0  0
 49 67  1  0  0  0  0
 50 66  1  0  0  0  0
 51 59  1  0  0  0  0
 52 63  1  0  0  0  0
 53 64  1  0  0  0  0
 54 64  1  0  0  0  0
 55 64  1  0  0  0  0
 56 74  1  0  0  0  0
 57 60  1  0  0  0  0
 58 73  1  0  0  0  0
 59 82  1  0  0  0  0
 60 81  1  0  0  0  0
 61 85  1  0  0  0  0
 61 86  1  0  0  0  0
 62 64  1  0  0  0  0
 62 72  1  0  0  0  0
 63 74  1  0  0  0  0
 65 66  1  0  0  0  0
M  CHG  1  74   1
M  ISO  4  38 100  60 101  73 100  81 101
M  END
> <Batch ID>
0029

> <Smiles>
CCOc1cc(C(F)F)c(C[101CH2:1][101O:1]c2ccc3c(c2)CN(C(=O)C(NC(=O)C(C)NC)C(C)(C)C)C(C(=O)NC2CCCc4ccccc42)C3)cc1C[100NH:0][100C:0](=O)N1CCCC(n2nc(-c3ccc(Oc4ccc(F)cc4F)cc3)c(C(N)=O)c2N)C1

> <Shape>
0.303

> <Color>
0.074

> <Negative vol penalty>
0.000

$$$$

  -OEChem-04052316363D

 85 93  0     1  0  0  0  0  0999 V2000
  -24.4181  -11.2641   20.1370 C   0  0  0  0  0  0  0  0  0  0  0  0
  -23.7439  -12.4404   20.4487 C   0  0  0  0  0  0  0  0  0  0  0  0
  -29.4469  -28.2336   17.9176 C   0  0  0  0  0  0  0  0  0  0  0  0
  -29.4920  -30.0736   19.4827 C   0  0  0  0  0  0  0  0  0  0  0  0
  -25.8061  -11.2053   20.2555 C   0  0  0  0  0  0  0  0  0  0  0  0
  -24.4572  -13.5583   20.8800 C   0  0  0  0  0  0  0  0  0  0  0  0
  -23.1581  -19.4288   19.7158 C   0  0  0  0  0  0  0  0  0  0  0  0
  -30.6855  -28.6312   17.4144 C   0  0  0  0  0  0  0  0  0  0  0  0
  -30.7307  -30.4712   18.9795 C   0  0  0  0  0  0  0  0  0  0  0  0
  -22.5095  -20.4118   20.4620 C   0  0  0  0  0  0  0  0  0  0  0  0
  -33.7367  -32.1831   17.8645 C   0  0  0  0  0  0  0  0  0  0  0  0
  -33.9283  -33.5415   17.6122 C   0  0  0  0  0  0  0  0  0  0  0  0
  -24.6448  -21.2263   21.2340 C   0  0  0  0  0  0  0  0  0  0  0  0
  -18.3671  -28.2180   22.6304 C   0  0  0  0  0  0  0  0  0  0  0  0
  -32.0976  -33.5069   16.0360 C   0  0  0  0  0  0  0  0  0  0  0  0
  -28.8501  -28.9549   18.9517 C   0  0  0  0  0  0  0  0  0  0  0  0
  -27.3303  -27.6498   20.5313 C   0  0  0  0  0  0  0  0  0  0  0  0
  -26.5377  -12.3259   20.6792 C   0  0  0  0  0  0  0  0  0  0  0  0
  -24.5569  -19.3302   19.7318 C   0  0  0  0  0  0  0  0  0  0  0  0
  -25.8561  -13.5139   21.0055 C   0  0  0  0  0  0  0  0  0  0  0  0
  -25.3089  -20.2428   20.4851 C   0  0  0  0  0  0  0  0  0  0  0  0
  -17.7436  -26.9711   22.6744 C   0  0  0  0  0  0  0  0  0  0  0  0
  -19.6483  -28.3761   23.1588 C   0  0  0  0  0  0  0  0  0  0  0  0
  -19.6823  -26.0404   23.7754 C   0  0  0  0  0  0  0  0  0  0  0  0
  -31.3275  -29.7500   17.9453 C   0  0  0  0  0  0  0  0  0  0  0  0
  -23.2527  -21.3089   21.2235 C   0  0  0  0  0  0  0  0  0  0  0  0
  -32.7257  -31.4865   17.2025 C   0  0  0  0  0  0  0  0  0  0  0  0
  -33.1087  -34.2034   16.6980 C   0  0  0  0  0  0  0  0  0  0  0  0
  -31.9061  -32.1484   16.2883 C   0  0  0  0  0  0  0  0  0  0  0  0
  -18.4011  -25.8823   23.2469 C   0  0  0  0  0  0  0  0  0  0  0  0
  -20.3059  -27.2874   23.7314 C   0  0  0  0  0  0  0  0  0  0  0  0
  -27.5703  -28.5450   19.4716 C   0  0  0  0  0  0  0  0  0  0  0  0
  -25.9617  -27.5976   20.6334 C   0  0  0  0  0  0  0  0  0  0  0  0
  -28.2614  -26.9299   21.3501 C   0  0  0  0  0  0  0  0  0  0  0  0
  -26.6386  -17.1066   20.6404 C   0  0  0  0  0  0  0  0  0  0  0  0
  -28.7978  -19.1576   19.3545 C   0  0  0  0  0  0  0  0  0  0  0  0
  -29.5761  -22.3562   18.4547 C   0  0  0  0  0  0  0  0  0  0  0  0
  -20.9895  -30.1296   20.7431 C   0  0  0  0  0  0  0  0  0  0  0  0
  -28.0323  -12.1998   20.8372 C   0  0  0  0  0  0  0  0  0  0  0  0
  -25.2427  -18.2811   18.9003 C   0  0  0  0  0  0  0  0  0  0  0  0
  -26.8138  -20.1922   20.5201 C   0  0  0  0  0  0  0  0  0  0  0  0
  -28.7492  -13.5434   20.9422 C   0  0  0  0  0  0  0  0  0  0  0  0
  -22.3605  -29.3592   17.5488 C   0  0  0  0  0  0  0  0  0  0  0  0
  -28.0258  -14.4592   21.9245 C   0  0  0  0  0  0  0  0  0  0  0  0
  -23.8191  -29.0112   17.8510 C   0  0  0  0  0  0  0  0  0  0  0  0
  -21.8507  -30.4837   18.4476 C   0  0  0  0  0  0  0  0  0  0  0  0
  -23.4884  -29.9027   20.1951 C   0  0  0  0  0  0  0  0  0  0  0  0
  -26.5970  -14.7553   21.4530 C   0  0  1  0  0  0  0  0  0  0  0  0
  -26.6467  -17.9491   19.3963 C   0  0  1  0  0  0  0  0  0  0  0  0
  -24.0304  -28.7358   19.3520 C   0  0  2  0  0  0  0  0  0  0  0  0
  -16.3712  -26.8486   22.0938 C   0  0  0  0  0  0  0  0  0  0  0  0
  -31.4287  -23.7284   17.4635 C   0  0  0  0  0  0  0  0  0  0  0  0
  -30.2979  -19.0456   22.0092 C   0  0  0  0  0  0  0  0  0  0  0  0
  -31.5455  -21.1009   21.3112 C   0  0  0  0  0  0  0  0  0  0  0  0
  -31.7611  -19.0013   19.9815 C   0  0  0  0  0  0  0  0  0  0  0  0
  -27.9032  -23.1615   16.1500 C   0  0  0  0  0  0  0  0  0  0  0  0
  -20.2778  -29.7306   23.0869 C   0  0  0  0  0  0  0  0  0  0  0  0
  -20.3891  -24.8698   24.3928 C   0  0  0  0  0  0  0  0  0  0  0  0
  -22.2239  -23.1945   24.1367 C   0  0  0  0  0  0  0  0  0  0  0  0
  -23.2652  -22.7012   23.1515 C   0  0  0  0  0  0  0  0  0  1  0  0
  -29.6075  -20.3213   19.8733 C   0  0  1  0  0  0  0  0  0  0  0  0
  -30.1672  -22.9282   17.1788 C   0  0  2  0  0  0  0  0  0  0  0  0
  -30.7745  -19.8673   20.7949 C   0  0  0  0  0  0  0  0  0  0  0  0
  -26.4443  -29.0267   18.9385 N   0  0  0  0  0  0  0  0  0  0  0  0
  -25.4836  -28.4319   19.6661 N   0  0  0  0  0  0  0  0  0  0  0  0
  -27.4379  -19.1445   19.6953 N   0  0  0  0  0  0  0  0  0  0  0  0
  -22.0795  -30.1595   19.8577 N   0  0  0  0  0  0  0  0  0  0  0  0
  -25.1325  -26.9198   21.4553 N   0  0  0  0  0  0  0  0  0  0  0  0
  -29.6319  -27.0991   21.1104 N   0  0  0  0  0  0  0  0  0  0  0  0
  -26.6079  -15.7464   20.3986 N   0  0  0  0  0  0  0  0  0  0  0  0
  -30.0319  -21.0783   18.7007 N   0  0  0  0  0  0  0  0  0  0  0  0
  -21.2931  -29.8075   22.0602 N   0  0  0  0  0  0  0  0  0  0  0  0
  -29.1833  -23.8246   16.5085 N   0  3  0  0  0  0  0  0  0  0  0  0
  -21.4659  -24.3166   23.5278 N   0  3  0  0  0  0  0  0  0  0  0  0
  -27.8888  -26.1468   22.2564 O   0  0  0  0  0  0  0  0  0  0  0  0
  -26.6602  -17.6502   21.7384 O   0  0  0  0  0  0  0  0  0  0  0  0
  -29.3501  -18.2958   18.6661 O   0  0  0  0  0  0  0  0  0  0  0  0
  -28.7916  -22.9820   19.1643 O   0  0  0  0  0  0  0  0  0  0  0  0
  -19.8308  -30.3669   20.3852 O   0  0  0  0  0  0  0  0  0  0  0  0
  -32.5363  -30.1381   17.4547 O   0  0  0  0  0  0  0  0  0  0  0  0
  -22.6220  -22.2689   21.9533 O   0  0  0  0  0  0  0  0  0  1  0  0
  -33.2918  -35.5082   16.4569 F   0  0  0  0  0  0  0  0  0  0  0  0
  -30.9323  -31.4848   15.6501 F   0  0  0  0  0  0  0  0  0  0  0  0
  -17.6200  -24.3364   23.2976 Cl  0  0  0  0  0  0  0  0  0  0  0  0
  -21.8977  -27.4911   24.3864 Cl  0  0  0  0  0  0  0  0  0  0  0  0
  1  2  1  0  0  0  0
  1  5  2  0  0  0  0
  2  6  2  0  0  0  0
  3  8  2  0  0  0  0
  3 16  1  0  0  0  0
  4  9  1  0  0  0  0
  4 16  2  0  0  0  0
  5 18  1  0  0  0  0
  6 20  1  0  0  0  0
  7 10  2  0  0  0  0
  7 19  1  0  0  0  0
  8 25  1  0  0  0  0
  9 25  2  0  0  0  0
 10 26  1  0  0  0  0
 11 12  2  0  0  0  0
 11 27  1  0  0  0  0
 12 28  1  0  0  0  0
 13 21  1  0  0  0  0
 13 26  2  0  0  0  0
 14 22  1  0  0  0  0
 14 23  2  0  0  0  0
 15 28  2  0  0  0  0
 15 29  1  0  0  0  0
 16 32  1  0  0  0  0
 17 32  1  0  0  0  0
 17 33  2  0  0  0  0
 17 34  1  0  0  0  0
 18 20  2  0  0  0  0
 18 39  1  0  0  0  0
 19 21  2  0  0  0  0
 19 40  1  0  0  0  0
 20 48  1  0  0  0  0
 21 41  1  0  0  0  0
 22 30  2  0  0  0  0
 22 51  1  0  0  0  0
 23 31  1  0  0  0  0
 23 57  1  0  0  0  0
 24 30  1  0  0  0  0
 24 31  2  0  0  0  0
 24 58  1  0  0  0  0
 25 80  1  0  0  0  0
 26 81  1  0  0  0  0
 27 29  2  0  0  0  0
 27 80  1  0  0  0  0
 28 82  1  0  0  0  0
 29 83  1  0  0  0  0
 30 84  1  0  0  0  0
 31 85  1  0  0  0  0
 32 64  2  0  0  0  0
 33 65  1  0  0  0  0
 33 68  1  0  0  0  0
 34 69  1  0  0  0  0
 34 75  2  0  0  0  0
 35 49  1  0  0  0  0
 35 70  1  0  0  0  0
 35 76  2  0  0  0  0
 36 61  1  0  0  0  0
 36 66  1  0  0  0  0
 36 77  2  0  0  0  0
 37 62  1  0  0  0  0
 37 71  1  0  0  0  0
 37 78  2  0  0  0  0
 38 67  1  0  0  0  0
 38 72  1  0  0  0  0
 38 79  2  0  0  0  0
 39 42  1  0  0  0  0
 40 49  1  0  0  0  0
 41 66  1  0  0  0  0
 42 44  1  0  0  0  0
 43 45  1  0  0  0  0
 43 46  1  0  0  0  0
 44 48  1  0  0  0  0
 45 50  1  0  0  0  0
 46 67  1  0  0  0  0
 47 50  1  0  0  0  0
 47 67  1  0  0  0  0
 48 70  1  0  0  0  0
 49 66  1  0  0  0  0
 50 65  1  0  0  0  0
 52 62  1  0  0  0  0
 53 63  1  0  0  0  0
 54 63  1  0  0  0  0
 55 63  1  0  0  0  0
 56 73  1  0  0  0  0
 57 72  1  0  0  0  0
 58 74  1  0  0  0  0
 59 60  1  0  0  0  0
 59 74  1  0  0  0  0
 60 81  1  0  0  0  0
 61 63  1  0  0  0  0
 61 71  1  0  0  0  0
 62 73  1  0  0  0  0
 64 65  1  0  0  0  0
M  CHG  2  73   1  74   1
M  ISO  4  38 100  60 101  72 100  81 101
M  END
> <Batch ID>
0029

> <Smiles>
CNC(C)C(=O)NC(C(=O)N1Cc2cc([101O:1][101CH2:1]CNCc3c(Cl)c(C)cc(C[100NH:0][100C:0](=O)N4CCCC(n5nc(-c6ccc(Oc7ccc(F)cc7F)cc6)c(C(N)=O)c5N)C4)c3Cl)ccc2CC1C(=O)NC1CCCc2ccccc21)C(C)(C)C

> <Shape>
0.218

> <Color>
0.076

> <Negative vol penalty>
0.000

$$$$

  -OEChem-04052316363D

 86 94  0     1  0  0  0  0  0999 V2000
  -27.8235  -24.5951   26.4866 C   0  0  0  0  0  0  0  0  0  0  0  0
  -26.6638  -24.3587   25.7553 C   0  0  0  0  0  0  0  0  0  0  0  0
  -28.5923  -26.3542   17.4180 C   0  0  0  0  0  0  0  0  0  0  0  0
  -27.0549  -24.7775   18.4118 C   0  0  0  0  0  0  0  0  0  0  0  0
  -29.0015  -23.9251   26.1591 C   0  0  0  0  0  0  0  0  0  0  0  0
  -26.6819  -23.4529   24.6954 C   0  0  0  0  0  0  0  0  0  0  0  0
  -22.6790  -20.3511   24.7223 C   0  0  0  0  0  0  0  0  0  0  0  0
  -29.5735  -25.3642   17.3652 C   0  0  0  0  0  0  0  0  0  0  0  0
  -28.0361  -23.7875   18.3589 C   0  0  0  0  0  0  0  0  0  0  0  0
  -21.4715  -20.8658   24.2524 C   0  0  0  0  0  0  0  0  0  0  0  0
  -29.3607  -21.7170   16.0397 C   0  0  0  0  0  0  0  0  0  0  0  0
  -28.9828  -20.4562   15.5779 C   0  0  0  0  0  0  0  0  0  0  0  0
  -21.8375  -19.7735   22.1330 C   0  0  0  0  0  0  0  0  0  0  0  0
  -29.6405  -19.4854   17.6903 C   0  0  0  0  0  0  0  0  0  0  0  0
  -27.3330  -26.0609   17.9413 C   0  0  0  0  0  0  0  0  0  0  0  0
  -25.3656  -27.3893   17.0074 C   0  0  0  0  0  0  0  0  0  0  0  0
  -29.0316  -23.0034   25.1007 C   0  0  0  0  0  0  0  0  0  0  0  0
  -23.4814  -19.5513   23.8959 C   0  0  0  0  0  0  0  0  0  0  0  0
  -27.8618  -22.7709   24.3526 C   0  0  0  0  0  0  0  0  0  0  0  0
  -23.0535  -19.2477   22.5956 C   0  0  0  0  0  0  0  0  0  0  0  0
  -19.4273  -27.2229   21.6473 C   0  0  0  0  0  0  0  0  0  0  0  0
  -19.6483  -28.0563   22.7714 C   0  0  0  0  0  0  0  0  0  0  0  0
  -29.2954  -24.0808   17.8356 C   0  0  0  0  0  0  0  0  0  0  0  0
  -21.0519  -20.5794   22.9566 C   0  0  0  0  0  0  0  0  0  0  0  0
  -29.8785  -21.8620   17.3267 C   0  0  0  0  0  0  0  0  0  0  0  0
  -29.1227  -19.3404   16.4032 C   0  0  0  0  0  0  0  0  0  0  0  0
  -30.0184  -20.7462   18.1520 C   0  0  0  0  0  0  0  0  0  0  0  0
  -26.3192  -27.0832   17.9967 C   0  0  0  0  0  0  0  0  0  0  0  0
  -18.8126  -26.0763   22.0998 C   0  0  0  0  0  0  0  0  0  0  0  0
  -24.6415  -28.4287   17.5382 C   0  0  0  0  0  0  0  0  0  0  0  0
  -19.1621  -27.3935   23.8767 C   0  0  0  0  0  0  0  0  0  0  0  0
  -25.1533  -26.7877   15.7233 C   0  0  0  0  0  0  0  0  0  0  0  0
  -26.4173  -19.7969   22.7027 C   0  0  0  0  0  0  0  0  0  0  0  0
  -25.8244  -16.7837   21.6580 C   0  0  0  0  0  0  0  0  0  0  0  0
  -23.5221  -14.4173   20.7943 C   0  0  0  0  0  0  0  0  0  0  0  0
  -22.5840  -30.3098   22.6119 C   0  0  0  0  0  0  0  0  0  0  0  0
  -30.3402  -22.3386   24.7541 C   0  0  0  0  0  0  0  0  0  0  0  0
  -24.7684  -18.9818   24.4268 C   0  0  0  0  0  0  0  0  0  0  0  0
  -23.8686  -18.3774   21.6755 C   0  0  0  0  0  0  0  0  0  0  0  0
  -30.1825  -21.1153   23.8548 C   0  0  0  0  0  0  0  0  0  0  0  0
  -25.4430  -31.7808   21.0827 C   0  0  0  0  0  0  0  0  0  0  0  0
  -29.2358  -21.4212   22.6985 C   0  0  0  0  0  0  0  0  0  0  0  0
  -25.8718  -30.7479   20.0390 C   0  0  0  0  0  0  0  0  0  0  0  0
  -24.9119  -31.1153   22.3504 C   0  0  0  0  0  0  0  0  0  0  0  0
  -24.2605  -29.1027   21.0859 C   0  0  0  0  0  0  0  0  0  0  0  0
  -27.8353  -21.7772   23.2115 C   0  0  1  0  0  0  0  0  0  0  0  0
  -25.7529  -18.6016   23.3252 C   0  0  1  0  0  0  0  0  0  0  0  0
  -24.7511  -29.7262   19.7680 C   0  0  2  0  0  0  0  0  0  0  0  0
  -18.5602  -27.6000   19.3107 C   0  0  0  0  0  0  0  0  0  0  0  0
  -20.8157  -26.5300   19.6607 C   0  0  0  0  0  0  0  0  0  0  0  0
  -23.3408  -12.0635   19.9432 C   0  0  0  0  0  0  0  0  0  0  0  0
  -26.5773  -17.7399   18.8599 C   0  0  0  0  0  0  0  0  0  0  0  0
  -25.4871  -15.6827   17.9393 C   0  0  0  0  0  0  0  0  0  0  0  0
  -27.4539  -15.4758   19.4597 C   0  0  0  0  0  0  0  0  0  0  0  0
  -18.0475  -25.1828   24.3006 C   0  0  0  0  0  0  0  0  0  0  0  0
  -22.0714  -13.5300   23.2165 C   0  0  0  0  0  0  0  0  0  0  0  0
  -20.2834  -29.3906   22.7594 C   0  0  0  0  0  0  0  0  0  0  0  0
  -18.3540  -24.8638   21.3445 C   0  0  0  0  0  0  0  0  0  0  0  0
  -18.7828  -22.4534   20.8495 C   0  0  0  0  0  0  0  0  0  0  0  0
  -19.7827  -21.3407   21.0951 C   0  0  0  0  0  0  0  0  0  1  0  0
  -19.7881  -27.5250   20.2467 C   0  0  0  0  0  0  0  0  0  0  0  0
  -25.2210  -16.1839   20.4109 C   0  0  1  0  0  0  0  0  0  0  0  0
  -23.3904  -12.9537   21.1752 C   0  0  2  0  0  0  0  0  0  0  0  0
  -26.1702  -16.2886   19.1839 C   0  0  0  0  0  0  0  0  0  0  0  0
  -26.2132  -27.8651   19.0744 N   0  0  0  0  0  0  0  0  0  0  0  0
  -18.6568  -26.1909   23.4566 N   0  0  0  0  0  0  0  0  0  0  0  0
  -25.1845  -28.6727   18.7653 N   0  0  0  0  0  0  0  0  0  0  0  0
  -25.1223  -17.8495   22.2385 N   0  0  0  0  0  0  0  0  0  0  0  0
  -23.8508  -30.1594   22.0241 N   0  0  0  0  0  0  0  0  0  0  0  0
  -23.5997  -29.1485   17.0704 N   0  0  0  0  0  0  0  0  0  0  0  0
  -25.9873  -25.7306   15.3346 N   0  0  0  0  0  0  0  0  0  0  0  0
  -27.1195  -20.5804   23.5986 N   0  0  0  0  0  0  0  0  0  0  0  0
  -24.8407  -14.8188   20.7574 N   0  0  0  0  0  0  0  0  0  0  0  0
  -21.6341  -29.3648   22.2438 N   0  0  0  0  0  0  0  0  0  0  0  0
  -22.1455  -12.7339   21.9644 N   0  3  0  0  0  0  0  0  0  0  0  0
  -19.2431  -23.6863   21.5368 N   0  3  0  0  0  0  0  0  0  0  0  0
  -24.2612  -27.1870   14.9370 O   0  0  0  0  0  0  0  0  0  0  0  0
  -26.3027  -19.9930   21.4985 O   0  0  0  0  0  0  0  0  0  0  0  0
  -26.8761  -16.3190   22.1047 O   0  0  0  0  0  0  0  0  0  0  0  0
  -22.5525  -15.1318   20.5499 O   0  0  0  0  0  0  0  0  0  0  0  0
  -22.3175  -31.2219   23.4018 O   0  0  0  0  0  0  0  0  0  0  0  0
  -30.2525  -23.1145   17.7840 O   0  0  0  0  0  0  0  0  0  0  0  0
  -19.8741  -21.0811   22.4953 O   0  0  0  0  0  0  0  0  0  1  0  0
  -28.7584  -18.1300   15.9601 F   0  0  0  0  0  0  0  0  0  0  0  0
  -30.5141  -20.8794   19.3899 F   0  0  0  0  0  0  0  0  0  0  0  0
  -19.1145  -27.8308   25.5202 Cl  0  0  0  0  0  0  0  0  0  0  0  0
  1  2  1  0  0  0  0
  1  5  2  0  0  0  0
  2  6  2  0  0  0  0
  3  8  2  0  0  0  0
  3 15  1  0  0  0  0
  4  9  1  0  0  0  0
  4 15  2  0  0  0  0
  5 17  1  0  0  0  0
  6 19  1  0  0  0  0
  7 10  2  0  0  0  0
  7 18  1  0  0  0  0
  8 23  1  0  0  0  0
  9 23  2  0  0  0  0
 10 24  1  0  0  0  0
 11 12  2  0  0  0  0
 11 25  1  0  0  0  0
 12 26  1  0  0  0  0
 13 20  1  0  0  0  0
 13 24  2  0  0  0  0
 14 26  2  0  0  0  0
 14 27  1  0  0  0  0
 15 28  1  0  0  0  0
 16 28  1  0  0  0  0
 16 30  2  0  0  0  0
 16 32  1  0  0  0  0
 17 19  2  0  0  0  0
 17 37  1  0  0  0  0
 18 20  2  0  0  0  0
 18 38  1  0  0  0  0
 19 46  1  0  0  0  0
 20 39  1  0  0  0  0
 21 22  1  0  0  0  0
 21 29  2  0  0  0  0
 21 61  1  0  0  0  0
 22 31  2  0  0  0  0
 22 57  1  0  0  0  0
 23 82  1  0  0  0  0
 24 83  1  0  0  0  0
 25 27  2  0  0  0  0
 25 82  1  0  0  0  0
 26 84  1  0  0  0  0
 27 85  1  0  0  0  0
 28 65  2  0  0  0  0
 29 58  1  0  0  0  0
 29 66  1  0  0  0  0
 30 67  1  0  0  0  0
 30 70  1  0  0  0  0
 31 66  1  0  0  0  0
 31 86  1  0  0  0  0
 32 71  1  0  0  0  0
 32 77  2  0  0  0  0
 33 47  1  0  0  0  0
 33 72  1  0  0  0  0
 33 78  2  0  0  0  0
 34 62  1  0  0  0  0
 34 68  1  0  0  0  0
 34 79  2  0  0  0  0
 35 63  1  0  0  0  0
 35 73  1  0  0  0  0
 35 80  2  0  0  0  0
 36 69  1  0  0  0  0
 36 74  1  0  0  0  0
 36 81  2  0  0  0  0
 37 40  1  0  0  0  0
 38 47  1  0  0  0  0
 39 68  1  0  0  0  0
 40 42  1  0  0  0  0
 41 43  1  0  0  0  0
 41 44  1  0  0  0  0
 42 46  1  0  0  0  0
 43 48  1  0  0  0  0
 44 69  1  0  0  0  0
 45 48  1  0  0  0  0
 45 69  1  0  0  0  0
 46 72  1  0  0  0  0
 47 68  1  0  0  0  0
 48 67  1  0  0  0  0
 49 61  1  0  0  0  0
 50 61  1  0  0  0  0
 51 63  1  0  0  0  0
 52 64  1  0  0  0  0
 53 64  1  0  0  0  0
 54 64  1  0  0  0  0
 55 66  1  0  0  0  0
 56 75  1  0  0  0  0
 57 74  1  0  0  0  0
 58 76  1  0  0  0  0
 59 60  1  0  0  0  0
 59 76  1  0  0  0  0
 60 83  1  0  0  0  0
 62 64  1  0  0  0  0
 62 73  1  0  0  0  0
 63 75  1  0  0  0  0
 65 67  1  0  0  0  0
M  CHG  2  75   1  76   1
M  ISO  4  36 100  60 101  74 100  83 101
M  END
> <Batch ID>
0029

> <Smiles>
CNC(C)C(=O)NC(C(=O)N1Cc2cc([101O:1][101CH2:1]CNCc3c(C(C)C)c(C[100NH:0][100C:0](=O)N4CCCC(n5nc(-c6ccc(Oc7ccc(F)cc7F)cc6)c(C(N)=O)c5N)C4)c(Cl)n3C)ccc2CC1C(=O)NC1CCCc2ccccc21)C(C)(C)C

> <Shape>
0.172

> <Color>
0.093

> <Negative vol penalty>
0.000

$$$$

  -OEChem-04052316363D

 84 92  0     1  0  0  0  0  0999 V2000
  -28.3226  -24.7906   16.5571 C   0  0  0  0  0  0  0  0  0  0  0  0
  -27.1396  -24.9308   17.2756 C   0  0  0  0  0  0  0  0  0  0  0  0
  -28.6530  -17.6634   21.3038 C   0  0  0  0  0  0  0  0  0  0  0  0
  -26.2752  -17.8665   20.9271 C   0  0  0  0  0  0  0  0  0  0  0  0
  -29.5062  -25.3368   17.0518 C   0  0  0  0  0  0  0  0  0  0  0  0
  -27.1397  -25.6162   18.4899 C   0  0  0  0  0  0  0  0  0  0  0  0
  -23.2470  -28.8283   18.9081 C   0  0  0  0  0  0  0  0  0  0  0  0
  -28.6298  -16.3800   20.7580 C   0  0  0  0  0  0  0  0  0  0  0  0
  -26.2520  -16.5831   20.3812 C   0  0  0  0  0  0  0  0  0  0  0  0
  -22.0032  -28.2835   19.2240 C   0  0  0  0  0  0  0  0  0  0  0  0
  -26.2554  -13.3957   21.5087 C   0  0  0  0  0  0  0  0  0  0  0  0
  -25.2320  -12.5382   21.9123 C   0  0  0  0  0  0  0  0  0  0  0  0
  -22.3091  -28.9354   21.5263 C   0  0  0  0  0  0  0  0  0  0  0  0
  -21.4261  -24.2675   26.0346 C   0  0  0  0  0  0  0  0  0  0  0  0
  -20.1895  -22.5087   24.2570 C   0  0  0  0  0  0  0  0  0  0  0  0
  -24.4769  -12.3626   19.6241 C   0  0  0  0  0  0  0  0  0  0  0  0
  -27.4756  -18.4066   21.3885 C   0  0  0  0  0  0  0  0  0  0  0  0
  -27.7106  -20.9439   21.2683 C   0  0  0  0  0  0  0  0  0  0  0  0
  -29.5189  -26.0376   18.2681 C   0  0  0  0  0  0  0  0  0  0  0  0
  -24.0374  -29.4220   19.9028 C   0  0  0  0  0  0  0  0  0  0  0  0
  -28.3248  -26.1711   19.0021 C   0  0  0  0  0  0  0  0  0  0  0  0
  -23.5615  -29.4892   21.2200 C   0  0  0  0  0  0  0  0  0  0  0  0
  -20.6211  -24.7637   25.0092 C   0  0  0  0  0  0  0  0  0  0  0  0
  -21.6129  -22.8919   26.1712 C   0  0  0  0  0  0  0  0  0  0  0  0
  -20.0028  -23.8843   24.1204 C   0  0  0  0  0  0  0  0  0  0  0  0
  -27.4294  -15.8399   20.2966 C   0  0  0  0  0  0  0  0  0  0  0  0
  -21.5353  -28.3345   20.5338 C   0  0  0  0  0  0  0  0  0  0  0  0
  -26.3895  -13.7368   20.1628 C   0  0  0  0  0  0  0  0  0  0  0  0
  -24.3428  -12.0216   20.9700 C   0  0  0  0  0  0  0  0  0  0  0  0
  -25.5002  -13.2202   19.2205 C   0  0  0  0  0  0  0  0  0  0  0  0
  -20.9945  -22.0125   25.2823 C   0  0  0  0  0  0  0  0  0  0  0  0
  -27.4988  -19.7322   21.9528 C   0  0  0  0  0  0  0  0  0  0  0  0
  -27.6373  -21.9072   22.2447 C   0  0  0  0  0  0  0  0  0  0  0  0
  -27.9519  -21.1779   19.8745 C   0  0  0  0  0  0  0  0  0  0  0  0
  -26.9067  -28.8325   21.1371 C   0  0  0  0  0  0  0  0  0  0  0  0
  -26.3674  -31.6129   22.7186 C   0  0  0  0  0  0  0  0  0  0  0  0
  -24.1080  -33.8638   23.9333 C   0  0  0  0  0  0  0  0  0  0  0  0
  -24.9290  -22.1062   27.5810 C   0  0  0  0  0  0  0  0  0  0  0  0
  -30.8319  -26.5695   18.7856 C   0  0  0  0  0  0  0  0  0  0  0  0
  -25.3652  -30.0288   19.5406 C   0  0  0  0  0  0  0  0  0  0  0  0
  -24.3626  -30.1337   22.3206 C   0  0  0  0  0  0  0  0  0  0  0  0
  -30.6743  -27.6043   19.8968 C   0  0  0  0  0  0  0  0  0  0  0  0
  -28.3981  -22.5626   26.9225 C   0  0  0  0  0  0  0  0  0  0  0  0
  -29.6667  -27.1227   20.9359 C   0  0  0  0  0  0  0  0  0  0  0  0
  -28.5801  -21.9983   25.5124 C   0  0  0  0  0  0  0  0  0  0  0  0
  -27.3774  -21.7585   27.7248 C   0  0  0  0  0  0  0  0  0  0  0  0
  -26.2487  -21.0281   25.6594 C   0  0  0  0  0  0  0  0  0  0  0  0
  -28.2798  -26.9291   20.3111 C   0  0  1  0  0  0  0  0  0  0  0  0
  -26.3110  -30.1510   20.7314 C   0  0  1  0  0  0  0  0  0  0  0  0
  -27.2271  -21.8395   24.7931 C   0  0  2  0  0  0  0  0  0  0  0  0
  -20.4369  -26.2401   24.8803 C   0  0  0  0  0  0  0  0  0  0  0  0
  -23.9665  -36.0174   25.2137 C   0  0  0  0  0  0  0  0  0  0  0  0
  -26.9609  -30.1102   25.3070 C   0  0  0  0  0  0  0  0  0  0  0  0
  -25.8991  -31.9971   26.5641 C   0  0  0  0  0  0  0  0  0  0  0  0
  -27.9383  -32.4091   25.1877 C   0  0  0  0  0  0  0  0  0  0  0  0
  -22.7984  -35.2559   21.6737 C   0  0  0  0  0  0  0  0  0  0  0  0
  -22.4829  -22.4007   27.2828 C   0  0  0  0  0  0  0  0  0  0  0  0
  -19.1349  -24.3951   23.0083 C   0  0  0  0  0  0  0  0  0  0  0  0
  -19.0424  -25.7684   20.9240 C   0  0  0  0  0  0  0  0  0  0  0  0
  -19.8784  -26.6947   20.0630 C   0  0  0  0  0  0  0  0  0  1  0  0
  -25.7284  -31.9880   24.0339 C   0  0  1  0  0  0  0  0  0  0  0  0
  -24.0423  -35.3773   23.8362 C   0  0  2  0  0  0  0  0  0  0  0  0
  -26.6172  -31.6122   25.2530 C   0  0  0  0  0  0  0  0  0  0  0  0
  -27.3057  -19.9069   23.2628 N   0  0  0  0  0  0  0  0  0  0  0  0
  -27.3959  -21.2398   23.4093 N   0  0  0  0  0  0  0  0  0  0  0  0
  -25.6573  -30.7073   21.9177 N   0  0  0  0  0  0  0  0  0  0  0  0
  -26.1164  -21.6464   26.9879 N   0  0  0  0  0  0  0  0  0  0  0  0
  -27.7566  -23.2515   22.2120 N   0  0  0  0  0  0  0  0  0  0  0  0
  -27.9955  -20.0758   19.0097 N   0  0  0  0  0  0  0  0  0  0  0  0
  -27.6223  -28.2062   20.1345 N   0  0  0  0  0  0  0  0  0  0  0  0
  -25.4096  -33.4087   23.9423 N   0  0  0  0  0  0  0  0  0  0  0  0
  -23.7799  -21.9683   26.8120 N   0  0  0  0  0  0  0  0  0  0  0  0
  -22.8422  -35.7948   23.0574 N   0  3  0  0  0  0  0  0  0  0  0  0
  -19.8592  -25.2939   22.0695 N   0  3  0  0  0  0  0  0  0  0  0  0
  -28.1400  -22.3288   19.4122 O   0  0  0  0  0  0  0  0  0  0  0  0
  -26.7314  -28.4152   22.2758 O   0  0  0  0  0  0  0  0  0  0  0  0
  -27.4530  -32.1106   22.4099 O   0  0  0  0  0  0  0  0  0  0  0  0
  -23.1052  -33.1563   23.9986 O   0  0  0  0  0  0  0  0  0  0  0  0
  -24.8963  -22.6077   28.7099 O   0  0  0  0  0  0  0  0  0  0  0  0
  -27.4065  -14.5877   19.7636 O   0  0  0  0  0  0  0  0  0  0  0  0
  -20.3218  -27.8030   20.8450 O   0  0  0  0  0  0  0  0  0  1  0  0
  -23.3610  -11.1968   21.3575 F   0  0  0  0  0  0  0  0  0  0  0  0
  -25.6247  -13.5433   17.9259 F   0  0  0  0  0  0  0  0  0  0  0  0
  -21.2026  -20.3046   25.4199 Cl  0  0  0  0  0  0  0  0  0  0  0  0
  1  2  1  0  0  0  0
  1  5  2  0  0  0  0
  2  6  2  0  0  0  0
  3  8  2  0  0  0  0
  3 17  1  0  0  0  0
  4  9  1  0  0  0  0
  4 17  2  0  0  0  0
  5 19  1  0  0  0  0
  6 21  1  0  0  0  0
  7 10  2  0  0  0  0
  7 20  1  0  0  0  0
  8 26  1  0  0  0  0
  9 26  2  0  0  0  0
 10 27  1  0  0  0  0
 11 12  2  0  0  0  0
 11 28  1  0  0  0  0
 12 29  1  0  0  0  0
 13 22  1  0  0  0  0
 13 27  2  0  0  0  0
 14 23  1  0  0  0  0
 14 24  2  0  0  0  0
 15 25  1  0  0  0  0
 15 31  2  0  0  0  0
 16 29  2  0  0  0  0
 16 30  1  0  0  0  0
 17 32  1  0  0  0  0
 18 32  1  0  0  0  0
 18 33  2  0  0  0  0
 18 34  1  0  0  0  0
 19 21  2  0  0  0  0
 19 39  1  0  0  0  0
 20 22  2  0  0  0  0
 20 40  1  0  0  0  0
 21 48  1  0  0  0  0
 22 41  1  0  0  0  0
 23 25  2  0  0  0  0
 23 51  1  0  0  0  0
 24 31  1  0  0  0  0
 24 57  1  0  0  0  0
 25 58  1  0  0  0  0
 26 80  1  0  0  0  0
 27 81  1  0  0  0  0
 28 30  2  0  0  0  0
 28 80  1  0  0  0  0
 29 82  1  0  0  0  0
 30 83  1  0  0  0  0
 31 84  1  0  0  0  0
 32 64  2  0  0  0  0
 33 65  1  0  0  0  0
 33 68  1  0  0  0  0
 34 69  1  0  0  0  0
 34 75  2  0  0  0  0
 35 49  1  0  0  0  0
 35 70  1  0  0  0  0
 35 76  2  0  0  0  0
 36 61  1  0  0  0  0
 36 66  1  0  0  0  0
 36 77  2  0  0  0  0
 37 62  1  0  0  0  0
 37 71  1  0  0  0  0
 37 78  2  0  0  0  0
 38 67  1  0  0  0  0
 38 72  1  0  0  0  0
 38 79  2  0  0  0  0
 39 42  1  0  0  0  0
 40 49  1  0  0  0  0
 41 66  1  0  0  0  0
 42 44  1  0  0  0  0
 43 45  1  0  0  0  0
 43 46  1  0  0  0  0
 44 48  1  0  0  0  0
 45 50  1  0  0  0  0
 46 67  1  0  0  0  0
 47 50  1  0  0  0  0
 47 67  1  0  0  0  0
 48 70  1  0  0  0  0
 49 66  1  0  0  0  0
 50 65  1  0  0  0  0
 52 62  1  0  0  0  0
 53 63  1  0  0  0  0
 54 63  1  0  0  0  0
 55 63  1  0  0  0  0
 56 73  1  0  0  0  0
 57 72  1  0  0  0  0
 58 74  1  0  0  0  0
 59 60  1  0  0  0  0
 59 74  1  0  0  0  0
 60 81  1  0  0  0  0
 61 63  1  0  0  0  0
 61 71  1  0  0  0  0
 62 73  1  0  0  0  0
 64 65  1  0  0  0  0
M  CHG  2  73   1  74   1
M  ISO  4  38 100  60 101  72 100  81 101
M  END
> <Batch ID>
0029

> <Smiles>
CNC(C)C(=O)NC(C(=O)N1Cc2cc([101O:1][101CH2:1]CNCc3cc(Cl)c(C[100NH:0][100C:0](=O)N4CCCC(n5nc(-c6ccc(Oc7ccc(F)cc7F)cc6)c(C(N)=O)c5N)C4)cc3C)ccc2CC1C(=O)NC1CCCc2ccccc21)C(C)(C)C

> <Shape>
0.269

> <Color>
0.078

> <Negative vol penalty>
0.000

$$$$

  -OEChem-04052316363D

 77 85  0     1  0  0  0  0  0999 V2000
  -17.4071  -25.9869   21.9299 C   0  0  0  0  0  0  0  0  0  0  0  0
  -18.7196  -25.5573   21.7623 C   0  0  0  0  0  0  0  0  0  0  0  0
  -24.6780  -14.1547   20.3991 C   0  0  0  0  0  0  0  0  0  0  0  0
  -26.4066  -12.4968   20.7159 C   0  0  0  0  0  0  0  0  0  0  0  0
  -17.1503  -27.2883   22.3592 C   0  0  0  0  0  0  0  0  0  0  0  0
  -19.7761  -26.4293   22.0227 C   0  0  0  0  0  0  0  0  0  0  0  0
  -23.4832  -24.2463   24.6943 C   0  0  0  0  0  0  0  0  0  0  0  0
  -23.7691  -13.1460   20.0793 C   0  0  0  0  0  0  0  0  0  0  0  0
  -25.4977  -11.4881   20.3962 C   0  0  0  0  0  0  0  0  0  0  0  0
  -24.3560  -23.4065   24.0039 C   0  0  0  0  0  0  0  0  0  0  0  0
  -22.9918   -9.8178   21.9295 C   0  0  0  0  0  0  0  0  0  0  0  0
  -22.9748   -8.6823   22.7394 C   0  0  0  0  0  0  0  0  0  0  0  0
  -25.9803  -25.1872   23.9035 C   0  0  0  0  0  0  0  0  0  0  0  0
  -23.5248   -7.3108   20.8279 C   0  0  0  0  0  0  0  0  0  0  0  0
  -28.7706  -22.4423   20.4608 C   0  0  0  0  0  0  0  0  0  0  0  0
  -25.9967  -13.8301   20.7173 C   0  0  0  0  0  0  0  0  0  0  0  0
  -27.2076  -15.3984   22.3241 C   0  0  0  0  0  0  0  0  0  0  0  0
  -18.2043  -28.1737   22.6343 C   0  0  0  0  0  0  0  0  0  0  0  0
  -23.8487  -25.5684   24.9854 C   0  0  0  0  0  0  0  0  0  0  0  0
  -19.5331  -27.7442   22.4548 C   0  0  0  0  0  0  0  0  0  0  0  0
  -25.1113  -26.0409   24.6000 C   0  0  0  0  0  0  0  0  0  0  0  0
  -24.1790  -11.8127   20.0779 C   0  0  0  0  0  0  0  0  0  0  0  0
  -25.6036  -23.8778   23.6058 C   0  0  0  0  0  0  0  0  0  0  0  0
  -23.2752   -9.6998   20.5688 C   0  0  0  0  0  0  0  0  0  0  0  0
  -23.2413   -7.4288   22.1886 C   0  0  0  0  0  0  0  0  0  0  0  0
  -23.5417   -8.4463   20.0180 C   0  0  0  0  0  0  0  0  0  0  0  0
  -26.9361  -14.8716   21.0472 C   0  0  0  0  0  0  0  0  0  0  0  0
  -29.5440  -21.2696   20.3695 C   0  0  0  0  0  0  0  0  0  0  0  0
  -28.4987  -22.5707   21.8010 C   0  0  0  0  0  0  0  0  0  0  0  0
  -28.1674  -16.3558   22.1036 C   0  0  0  0  0  0  0  0  0  0  0  0
  -26.6427  -15.0532   23.5959 C   0  0  0  0  0  0  0  0  0  0  0  0
  -30.1078  -20.6637   19.1562 C   0  0  0  0  0  0  0  0  0  0  0  0
  -22.7134  -28.4331   24.2053 C   0  0  0  0  0  0  0  0  0  0  0  0
  -24.9672  -29.4652   26.2976 C   0  0  0  0  0  0  0  0  0  0  0  0
  -27.9190  -28.8697   27.9035 C   0  0  0  0  0  0  0  0  0  0  0  0
  -17.8764  -29.5857   23.0507 C   0  0  0  0  0  0  0  0  0  0  0  0
  -22.9063  -26.4534   25.7544 C   0  0  0  0  0  0  0  0  0  0  0  0
  -25.5596  -27.4459   24.9059 C   0  0  0  0  0  0  0  0  0  0  0  0
  -19.0593  -30.3298   23.6651 C   0  0  0  0  0  0  0  0  0  0  0  0
  -30.9225  -17.3897   17.9905 C   0  0  0  0  0  0  0  0  0  0  0  0
  -20.3122  -30.1332   22.8175 C   0  0  0  0  0  0  0  0  0  0  0  0
  -29.9677  -16.4847   18.7711 C   0  0  0  0  0  0  0  0  0  0  0  0
  -30.2701  -18.7230   17.6339 C   0  0  0  0  0  0  0  0  0  0  0  0
  -28.7442  -18.5501   19.5695 C   0  0  0  0  0  0  0  0  0  0  0  0
  -20.7065  -28.6528   22.7510 C   0  0  1  0  0  0  0  0  0  0  0  0
  -23.1788  -27.9400   25.5462 C   0  0  1  0  0  0  0  0  0  0  0  0
  -29.3799  -17.2157   19.9928 C   0  0  1  0  0  0  0  0  0  0  0  0
  -29.5262  -29.9144   29.5229 C   0  0  0  0  0  0  0  0  0  0  0  0
  -26.0044  -31.2929   24.0853 C   0  0  0  0  0  0  0  0  0  0  0  0
  -28.1129  -31.5777   25.4050 C   0  0  0  0  0  0  0  0  0  0  0  0
  -25.9359  -32.3386   26.3561 C   0  0  0  0  0  0  0  0  0  0  0  0
  -29.1037  -21.2000   23.8185 C   0  0  0  0  0  0  0  0  0  0  0  0
  -27.5458  -26.6836   29.8633 C   0  0  0  0  0  0  0  0  0  0  0  0
  -27.7194  -23.6087   22.5538 C   0  0  0  0  0  0  0  0  0  1  0  0
  -26.4199  -29.8624   26.1942 C   0  0  1  0  0  0  0  0  0  0  0  0
  -28.3175  -29.0056   29.3619 C   0  0  2  0  0  0  0  0  0  0  0  0
  -26.6094  -31.2420   25.5025 C   0  0  0  0  0  0  0  0  0  0  0  0
  -27.6645  -15.4468   20.0866 N   0  0  0  0  0  0  0  0  0  0  0  0
  -29.7502  -20.6940   21.5569 N   0  0  0  0  0  0  0  0  0  0  0  0
  -29.1023  -21.5084   22.4073 N   0  0  0  0  0  0  0  0  0  0  0  0
  -28.4031  -16.3449   20.7603 N   0  0  0  0  0  0  0  0  0  0  0  0
  -29.7170  -19.3637   18.8265 N   0  0  0  0  0  0  0  0  0  0  0  0
  -24.6002  -28.2747   25.6544 N   0  0  0  0  0  0  0  0  0  0  0  0
  -28.8243  -17.1976   22.9297 N   0  0  0  0  0  0  0  0  0  0  0  0
  -25.6681  -14.0471   23.6431 N   0  0  0  0  0  0  0  0  0  0  0  0
  -21.3632  -28.2492   23.9759 N   0  0  0  0  0  0  0  0  0  0  0  0
  -26.9593  -29.7937   27.5480 N   0  0  0  0  0  0  0  0  0  0  0  0
  -28.6535  -27.6710   29.9337 N   0  3  0  0  0  0  0  0  0  0  0  0
  -26.9801  -15.6314   24.6567 O   0  0  0  0  0  0  0  0  0  0  0  0
  -30.9024  -21.3560   18.5219 O   0  0  0  0  0  0  0  0  0  0  0  0
  -23.5193  -28.9441   23.4365 O   0  0  0  0  0  0  0  0  0  0  0  0
  -24.1882  -30.1812   26.9318 O   0  0  0  0  0  0  0  0  0  0  0  0
  -28.4126  -28.0303   27.1535 O   0  0  0  0  0  0  0  0  0  0  0  0
  -23.2924  -10.8282   19.7662 O   0  0  0  0  0  0  0  0  0  0  0  0
  -26.4572  -23.0604   22.9312 O   0  0  0  0  0  0  0  0  0  1  0  0
  -23.2266   -6.3386   22.9667 F   0  0  0  0  0  0  0  0  0  0  0  0
  -23.8157   -8.3269   18.7117 F   0  0  0  0  0  0  0  0  0  0  0  0
  1  2  1  0  0  0  0
  1  5  2  0  0  0  0
  2  6  2  0  0  0  0
  3  8  2  0  0  0  0
  3 16  1  0  0  0  0
  4  9  1  0  0  0  0
  4 16  2  0  0  0  0
  5 18  1  0  0  0  0
  6 20  1  0  0  0  0
  7 10  2  0  0  0  0
  7 19  1  0  0  0  0
  8 22  1  0  0  0  0
  9 22  2  0  0  0  0
 10 23  1  0  0  0  0
 11 12  2  0  0  0  0
 11 24  1  0  0  0  0
 12 25  1  0  0  0  0
 13 21  1  0  0  0  0
 13 23  2  0  0  0  0
 14 25  2  0  0  0  0
 14 26  1  0  0  0  0
 15 28  1  0  0  0  0
 15 29  2  0  0  0  0
 16 27  1  0  0  0  0
 17 27  1  0  0  0  0
 17 30  2  0  0  0  0
 17 31  1  0  0  0  0
 18 20  2  0  0  0  0
 18 36  1  0  0  0  0
 19 21  2  0  0  0  0
 19 37  1  0  0  0  0
 20 45  1  0  0  0  0
 21 38  1  0  0  0  0
 22 74  1  0  0  0  0
 23 75  1  0  0  0  0
 24 26  2  0  0  0  0
 24 74  1  0  0  0  0
 25 76  1  0  0  0  0
 26 77  1  0  0  0  0
 27 58  2  0  0  0  0
 28 32  1  0  0  0  0
 28 59  2  0  0  0  0
 29 54  1  0  0  0  0
 29 60  1  0  0  0  0
 30 61  1  0  0  0  0
 30 64  1  0  0  0  0
 31 65  1  0  0  0  0
 31 69  2  0  0  0  0
 32 62  1  0  0  0  0
 32 70  2  0  0  0  0
 33 46  1  0  0  0  0
 33 66  1  0  0  0  0
 33 71  2  0  0  0  0
 34 55  1  0  0  0  0
 34 63  1  0  0  0  0
 34 72  2  0  0  0  0
 35 56  1  0  0  0  0
 35 67  1  0  0  0  0
 35 73  2  0  0  0  0
 36 39  1  0  0  0  0
 37 46  1  0  0  0  0
 38 63  1  0  0  0  0
 39 41  1  0  0  0  0
 40 42  1  0  0  0  0
 40 43  1  0  0  0  0
 41 45  1  0  0  0  0
 42 47  1  0  0  0  0
 43 62  1  0  0  0  0
 44 47  1  0  0  0  0
 44 62  1  0  0  0  0
 45 66  1  0  0  0  0
 46 63  1  0  0  0  0
 47 61  1  0  0  0  0
 48 56  1  0  0  0  0
 49 57  1  0  0  0  0
 50 57  1  0  0  0  0
 51 57  1  0  0  0  0
 52 60  1  0  0  0  0
 53 68  1  0  0  0  0
 54 75  1  0  0  0  0
 55 57  1  0  0  0  0
 55 67  1  0  0  0  0
 56 68  1  0  0  0  0
 58 61  1  0  0  0  0
 59 60  1  0  0  0  0
M  CHG  1  68   1
M  ISO  4  28 100  32 100  54 101  75 101
M  END
> <Batch ID>
0029

> <Smiles>
CNC(C)C(=O)NC(C(=O)N1Cc2cc([101O:1][101CH2:1]c3c[100c:0]([100C:0](=O)N4CCCC(n5nc(-c6ccc(Oc7ccc(F)cc7F)cc6)c(C(N)=O)c5N)C4)nn3C)ccc2CC1C(=O)NC1CCCc2ccccc21)C(C)(C)C

> <Shape>
0.240

> <Color>
0.078

> <Negative vol penalty>
0.000

$$$$

  -OEChem-04052316363D

 87 96  0     1  0  0  0  0  0999 V2000
  -28.8318  -33.1584   25.6483 C   0  0  0  0  0  0  0  0  0  0  0  0
  -28.7804  -31.9354   24.9871 C   0  0  0  0  0  0  0  0  0  0  0  0
  -24.5582   -8.8434   21.0250 C   0  0  0  0  0  0  0  0  0  0  0  0
  -22.9511  -10.6017   21.4283 C   0  0  0  0  0  0  0  0  0  0  0  0
  -27.6586  -33.7416   26.1250 C   0  0  0  0  0  0  0  0  0  0  0  0
  -27.5558  -31.2945   24.8032 C   0  0  0  0  0  0  0  0  0  0  0  0
  -27.6900  -21.2213   20.5132 C   0  0  0  0  0  0  0  0  0  0  0  0
  -27.0002  -29.4761   20.1096 C   0  0  0  0  0  0  0  0  0  0  0  0
  -27.7076  -20.0099   21.2044 C   0  0  0  0  0  0  0  0  0  0  0  0
  -23.5511   -7.8894   21.1704 C   0  0  0  0  0  0  0  0  0  0  0  0
  -21.9439   -9.6477   21.5737 C   0  0  0  0  0  0  0  0  0  0  0  0
  -27.6603  -28.2864   19.8054 C   0  0  0  0  0  0  0  0  0  0  0  0
  -21.8817   -6.3965   23.7020 C   0  0  0  0  0  0  0  0  0  0  0  0
  -22.1611   -5.2738   24.4810 C   0  0  0  0  0  0  0  0  0  0  0  0
  -27.7593  -20.0251   18.4152 C   0  0  0  0  0  0  0  0  0  0  0  0
  -25.6016  -27.0698   20.1229 C   0  0  0  0  0  0  0  0  0  0  0  0
  -21.7518   -3.8484   22.5736 C   0  0  0  0  0  0  0  0  0  0  0  0
  -24.2583  -10.1996   21.1540 C   0  0  0  0  0  0  0  0  0  0  0  0
  -26.1011  -11.4089   19.8698 C   0  0  0  0  0  0  0  0  0  0  0  0
  -27.7158  -21.2289   19.1185 C   0  0  0  0  0  0  0  0  0  0  0  0
  -26.4178  -33.1121   25.9384 C   0  0  0  0  0  0  0  0  0  0  0  0
  -25.6359  -29.4702   20.4340 C   0  0  0  0  0  0  0  0  0  0  0  0
  -26.3650  -31.8692   25.2791 C   0  0  0  0  0  0  0  0  0  0  0  0
  -24.9259  -28.2611   20.4284 C   0  0  0  0  0  0  0  0  0  0  0  0
  -27.7511  -18.8062   20.5011 C   0  0  0  0  0  0  0  0  0  0  0  0
  -22.2439   -8.2916   21.4447 C   0  0  0  0  0  0  0  0  0  0  0  0
  -26.9617  -27.0827   19.8149 C   0  0  0  0  0  0  0  0  0  0  0  0
  -21.5372   -6.2452   22.3588 C   0  0  0  0  0  0  0  0  0  0  0  0
  -27.7769  -18.8137   19.1065 C   0  0  0  0  0  0  0  0  0  0  0  0
  -22.0962   -3.9997   23.9169 C   0  0  0  0  0  0  0  0  0  0  0  0
  -21.4723   -4.9712   21.7946 C   0  0  0  0  0  0  0  0  0  0  0  0
  -25.2983  -11.1854   21.0045 C   0  0  0  0  0  0  0  0  0  0  0  0
  -26.9266  -12.4452   20.2319 C   0  0  0  0  0  0  0  0  0  0  0  0
  -26.1006  -10.7395   18.6019 C   0  0  0  0  0  0  0  0  0  0  0  0
  -23.9361  -30.2740   22.9969 C   0  0  0  0  0  0  0  0  0  0  0  0
  -21.4224  -29.6693   21.0378 C   0  0  0  0  0  0  0  0  0  0  0  0
  -20.2186  -28.0512   18.2847 C   0  0  0  0  0  0  0  0  0  0  0  0
  -27.7516  -17.4157   22.6018 C   0  0  0  0  0  0  0  0  0  0  0  0
  -25.1822  -33.7585   26.5130 C   0  0  0  0  0  0  0  0  0  0  0  0
  -24.9323  -30.7654   20.7337 C   0  0  0  0  0  0  0  0  0  0  0  0
  -23.4556  -28.2034   20.7500 C   0  0  0  0  0  0  0  0  0  0  0  0
  -23.8810  -33.1951   25.9474 C   0  0  0  0  0  0  0  0  0  0  0  0
  -27.7516  -14.5754   24.7489 C   0  0  0  0  0  0  0  0  0  0  0  0
  -28.9372  -23.4008   18.6778 C   0  0  0  0  0  0  0  0  0  0  0  0
  -26.4041  -23.3374   18.6306 C   0  0  0  0  0  0  0  0  0  0  0  0
  -23.9204  -31.6702   25.9349 C   0  0  0  0  0  0  0  0  0  0  0  0
  -27.1794  -13.4587   23.8728 C   0  0  0  0  0  0  0  0  0  0  0  0
  -28.9166  -24.7225   17.9049 C   0  0  0  0  0  0  0  0  0  0  0  0
  -26.3872  -24.6572   17.8551 C   0  0  0  0  0  0  0  0  0  0  0  0
  -27.0794  -15.9180   24.4673 C   0  0  0  0  0  0  0  0  0  0  0  0
  -26.5004  -15.2083   22.1803 C   0  0  0  0  0  0  0  0  0  0  0  0
  -27.6966  -22.5474   18.3666 C   0  0  0  0  0  0  0  0  0  0  0  0
  -25.0528  -31.1549   25.0384 C   0  0  1  0  0  0  0  0  0  0  0  0
  -23.6584  -30.5779   21.5518 C   0  0  1  0  0  0  0  0  0  0  0  0
  -27.1913  -13.8498   22.3820 C   0  0  2  0  0  0  0  0  0  0  0  0
  -27.6258  -25.5194   18.1456 C   0  0  0  0  0  0  0  0  0  1  0  0
  -27.6145  -26.7873   17.2897 C   0  0  0  0  0  0  0  0  0  0  0  0
  -26.5414  -15.9012   17.3791 C   0  0  0  0  0  0  0  0  0  0  0  0
  -18.1154  -27.7220   16.9559 C   0  0  0  0  0  0  0  0  0  0  0  0
  -20.3642  -27.7781   23.1857 C   0  0  0  0  0  0  0  0  0  0  0  0
  -18.8369  -26.7905   21.4652 C   0  0  0  0  0  0  0  0  0  0  0  0
  -18.6182  -29.1953   22.0913 C   0  0  0  0  0  0  0  0  0  0  0  0
  -21.4355  -29.2166   15.8516 C   0  0  0  0  0  0  0  0  0  0  0  0
  -26.7427  -17.3966   17.5008 C   0  0  0  0  0  0  0  0  0  0  0  0
  -20.5962  -28.4507   20.7038 C   0  0  1  0  0  0  0  0  0  0  0  0
  -19.3879  -28.5401   17.1119 C   0  0  2  0  0  0  0  0  0  0  0  0
  -19.6320  -28.0542   21.8573 C   0  0  0  0  0  0  0  0  0  0  0  0
  -25.5878  -12.0132   22.0120 N   0  0  0  0  0  0  0  0  0  0  0  0
  -26.5818  -12.7667   21.5117 N   0  0  0  0  0  0  0  0  0  0  0  0
  -22.8137  -29.4957   21.0425 N   0  0  0  0  0  0  0  0  0  0  0  0
  -27.1327  -16.2245   23.0362 N   0  0  0  0  0  0  0  0  0  0  0  0
  -27.9066  -13.1035   19.5773 N   0  0  0  0  0  0  0  0  0  0  0  0
  -25.2734  -11.2354   17.5850 N   0  0  0  0  0  0  0  0  0  0  0  0
  -27.7708  -17.5839   21.2177 N   0  0  0  0  0  0  0  0  0  0  0  0
  -24.6748  -31.2458   23.6444 N   0  0  0  0  0  0  0  0  0  0  0  0
  -19.9279  -28.7443   19.4407 N   0  0  0  0  0  0  0  0  0  0  0  0
  -20.1689  -28.4403   15.8466 N   0  3  0  0  0  0  0  0  0  0  0  0
  -26.8004   -9.7218   18.3826 O   0  0  0  0  0  0  0  0  0  0  0  0
  -23.5104  -29.2353   23.4884 O   0  0  0  0  0  0  0  0  0  0  0  0
  -20.8545  -30.7376   21.2783 O   0  0  0  0  0  0  0  0  0  0  0  0
  -21.0403  -27.1426   18.1861 O   0  0  0  0  0  0  0  0  0  0  0  0
  -28.2535  -18.2137   23.3976 O   0  0  0  0  0  0  0  0  0  0  0  0
  -21.2608   -7.3610   21.5864 O   0  0  0  0  0  0  0  0  0  0  0  0
  -27.6038  -25.9199   19.5189 O   0  0  0  0  0  0  0  0  0  1  0  0
  -27.8200  -17.6486   18.4003 O   0  0  0  0  0  0  0  0  0  0  0  0
  -22.3661   -2.9217   24.6647 F   0  0  0  0  0  0  0  0  0  0  0  0
  -21.1431   -4.8197   20.5045 F   0  0  0  0  0  0  0  0  0  0  0  0
  1  2  1  0  0  0  0
  1  5  2  0  0  0  0
  2  6  2  0  0  0  0
  3 10  2  0  0  0  0
  3 18  1  0  0  0  0
  4 11  1  0  0  0  0
  4 18  2  0  0  0  0
  5 21  1  0  0  0  0
  6 23  1  0  0  0  0
  7  9  2  0  0  0  0
  7 20  1  0  0  0  0
  8 12  2  0  0  0  0
  8 22  1  0  0  0  0
  9 25  1  0  0  0  0
 10 26  1  0  0  0  0
 11 26  2  0  0  0  0
 12 27  1  0  0  0  0
 13 14  2  0  0  0  0
 13 28  1  0  0  0  0
 14 30  1  0  0  0  0
 15 20  2  0  0  0  0
 15 29  1  0  0  0  0
 16 24  1  0  0  0  0
 16 27  2  0  0  0  0
 17 30  2  0  0  0  0
 17 31  1  0  0  0  0
 18 32  1  0  0  0  0
 19 32  1  0  0  0  0
 19 33  2  0  0  0  0
 19 34  1  0  0  0  0
 20 52  1  0  0  0  0
 21 23  2  0  0  0  0
 21 39  1  0  0  0  0
 22 24  2  0  0  0  0
 22 40  1  0  0  0  0
 23 53  1  0  0  0  0
 24 41  1  0  0  0  0
 25 29  2  0  0  0  0
 25 74  1  0  0  0  0
 26 83  1  0  0  0  0
 27 84  1  0  0  0  0
 28 31  2  0  0  0  0
 28 83  1  0  0  0  0
 29 85  1  0  0  0  0
 30 86  1  0  0  0  0
 31 87  1  0  0  0  0
 32 68  2  0  0  0  0
 33 69  1  0  0  0  0
 33 72  1  0  0  0  0
 34 73  1  0  0  0  0
 34 78  2  0  0  0  0
 35 54  1  0  0  0  0
 35 75  1  0  0  0  0
 35 79  2  0  0  0  0
 36 65  1  0  0  0  0
 36 70  1  0  0  0  0
 36 80  2  0  0  0  0
 37 66  1  0  0  0  0
 37 76  1  0  0  0  0
 37 81  2  0  0  0  0
 38 71  1  0  0  0  0
 38 74  1  0  0  0  0
 38 82  2  0  0  0  0
 39 42  1  0  0  0  0
 40 54  1  0  0  0  0
 41 70  1  0  0  0  0
 42 46  1  0  0  0  0
 43 47  1  0  0  0  0
 43 50  1  0  0  0  0
 44 48  1  0  0  0  0
 44 52  1  0  0  0  0
 45 49  1  0  0  0  0
 45 52  1  0  0  0  0
 46 53  1  0  0  0  0
 47 55  1  0  0  0  0
 48 56  1  0  0  0  0
 49 56  1  0  0  0  0
 50 71  1  0  0  0  0
 51 55  1  0  0  0  0
 51 71  1  0  0  0  0
 53 75  1  0  0  0  0
 54 70  1  0  0  0  0
 55 69  1  0  0  0  0
 56 57  1  0  0  0  0
 56 84  1  0  0  0  0
 58 64  1  0  0  0  0
 59 66  1  0  0  0  0
 60 67  1  0  0  0  0
 61 67  1  0  0  0  0
 62 67  1  0  0  0  0
 63 77  1  0  0  0  0
 64 85  1  0  0  0  0
 65 67  1  0  0  0  0
 65 76  1  0  0  0  0
 66 77  1  0  0  0  0
 68 69  1  0  0  0  0
M  CHG  1  77   1
M  ISO  4  38 100  56 101  74 100  84 101
M  END
> <Batch ID>
0029

> <Smiles>
CCOc1cc(C2CC[101C:1](C)([101O:1]c3ccc4c(c3)CN(C(=O)C(NC(=O)C(C)NC)C(C)(C)C)C(C(=O)NC3CCCc5ccccc53)C4)CC2)ccc1[100NH:0][100C:0](=O)N1CCCC(n2nc(-c3ccc(Oc4ccc(F)cc4F)cc3)c(C(N)=O)c2N)C1

> <Shape>
0.316

> <Color>
0.104

> <Negative vol penalty>
0.000

$$$$

  -OEChem-04052316363D

 83 91  0     1  0  0  0  0  0999 V2000
  -30.4247  -17.2671   18.6895 C   0  0  0  0  0  0  0  0  0  0  0  0
  -29.1278  -17.7433   18.5262 C   0  0  0  0  0  0  0  0  0  0  0  0
  -23.2220  -16.9442   23.3651 C   0  0  0  0  0  0  0  0  0  0  0  0
  -21.6072  -17.7676   21.7677 C   0  0  0  0  0  0  0  0  0  0  0  0
  -31.2790  -17.8755   19.6081 C   0  0  0  0  0  0  0  0  0  0  0  0
  -28.6841  -18.8276   19.2823 C   0  0  0  0  0  0  0  0  0  0  0  0
  -24.3272  -24.5001   18.8860 C   0  0  0  0  0  0  0  0  0  0  0  0
  -23.3033  -15.7417   22.6631 C   0  0  0  0  0  0  0  0  0  0  0  0
  -21.6886  -16.5650   21.0656 C   0  0  0  0  0  0  0  0  0  0  0  0
  -23.2792  -25.1038   19.5796 C   0  0  0  0  0  0  0  0  0  0  0  0
  -24.8119  -14.5876   19.8657 C   0  0  0  0  0  0  0  0  0  0  0  0
  -26.0811  -14.0597   19.6291 C   0  0  0  0  0  0  0  0  0  0  0  0
  -24.8684  -26.1258   21.0792 C   0  0  0  0  0  0  0  0  0  0  0  0
  -19.2557  -26.2973   22.4477 C   0  0  0  0  0  0  0  0  0  0  0  0
  -19.3722  -29.0778   22.6421 C   0  0  0  0  0  0  0  0  0  0  0  0
  -25.4785  -12.0639   20.8501 C   0  0  0  0  0  0  0  0  0  0  0  0
  -22.3739  -17.9571   22.9175 C   0  0  0  0  0  0  0  0  0  0  0  0
  -23.0711  -20.3533   23.4465 C   0  0  0  0  0  0  0  0  0  0  0  0
  -30.8486  -18.9740   20.3689 C   0  0  0  0  0  0  0  0  0  0  0  0
  -25.6552  -24.6963   19.2912 C   0  0  0  0  0  0  0  0  0  0  0  0
  -29.5329  -19.4505   20.2129 C   0  0  0  0  0  0  0  0  0  0  0  0
  -25.9316  -25.5255   20.3876 C   0  0  0  0  0  0  0  0  0  0  0  0
  -20.2297  -27.0054   21.7438 C   0  0  0  0  0  0  0  0  0  0  0  0
  -18.3399  -26.9794   23.2487 C   0  0  0  0  0  0  0  0  0  0  0  0
  -20.2880  -28.3957   21.8411 C   0  0  0  0  0  0  0  0  0  0  0  0
  -22.5367  -15.5521   21.5133 C   0  0  0  0  0  0  0  0  0  0  0  0
  -23.5495  -25.9145   20.6781 C   0  0  0  0  0  0  0  0  0  0  0  0
  -23.8759  -13.8537   20.5945 C   0  0  0  0  0  0  0  0  0  0  0  0
  -26.4144  -12.7978   20.1213 C   0  0  0  0  0  0  0  0  0  0  0  0
  -18.3981  -28.3697   23.3460 C   0  0  0  0  0  0  0  0  0  0  0  0
  -24.2093  -12.5918   21.0867 C   0  0  0  0  0  0  0  0  0  0  0  0
  -22.2890  -19.1994   23.6426 C   0  0  0  0  0  0  0  0  0  0  0  0
  -22.6037  -21.2474   24.3785 C   0  0  0  0  0  0  0  0  0  0  0  0
  -24.1257  -20.5955   22.5058 C   0  0  0  0  0  0  0  0  0  0  0  0
  -27.9842  -22.8030   20.3375 C   0  0  0  0  0  0  0  0  0  0  0  0
  -29.7485  -25.5181   20.1439 C   0  0  0  0  0  0  0  0  0  0  0  0
  -29.8223  -28.9300   20.1229 C   0  0  0  0  0  0  0  0  0  0  0  0
  -18.3796  -23.7341   27.0467 C   0  0  0  0  0  0  0  0  0  0  0  0
  -31.7928  -19.5690   21.3834 C   0  0  0  0  0  0  0  0  0  0  0  0
  -26.7760  -24.0595   18.5161 C   0  0  0  0  0  0  0  0  0  0  0  0
  -27.3412  -25.7845   20.8505 C   0  0  0  0  0  0  0  0  0  0  0  0
  -31.3665  -20.9496   21.8759 C   0  0  0  0  0  0  0  0  0  0  0  0
  -19.4732  -20.5845   28.2961 C   0  0  0  0  0  0  0  0  0  0  0  0
  -29.8821  -20.9563   22.2270 C   0  0  0  0  0  0  0  0  0  0  0  0
  -20.3622  -20.0363   27.1784 C   0  0  0  0  0  0  0  0  0  0  0  0
  -18.2797  -21.3579   27.7398 C   0  0  0  0  0  0  0  0  0  0  0  0
  -19.5150  -21.8844   25.6733 C   0  0  0  0  0  0  0  0  0  0  0  0
  -29.0228  -20.6402   20.9968 C   0  0  1  0  0  0  0  0  0  0  0  0
  -28.0584  -23.9150   19.3297 C   0  0  1  0  0  0  0  0  0  0  0  0
  -20.7623  -21.1444   26.1858 C   0  0  2  0  0  0  0  0  0  0  0  0
  -21.3215  -29.1755   21.0969 C   0  0  0  0  0  0  0  0  0  0  0  0
  -31.4144  -30.8651   19.9898 C   0  0  0  0  0  0  0  0  0  0  0  0
  -30.5498  -25.0558   23.0516 C   0  0  0  0  0  0  0  0  0  0  0  0
  -31.3231  -27.4352   23.1440 C   0  0  0  0  0  0  0  0  0  0  0  0
  -32.4073  -25.8335   21.5686 C   0  0  0  0  0  0  0  0  0  0  0  0
  -28.5892  -29.9224   17.6222 C   0  0  0  0  0  0  0  0  0  0  0  0
  -17.2988  -26.2198   23.9994 C   0  0  0  0  0  0  0  0  0  0  0  0
  -21.2045  -26.2496   20.8896 C   0  0  0  0  0  0  0  0  0  1  0  0
  -17.2922  -26.4778   25.5191 C   0  0  0  0  0  0  0  0  0  0  0  0
  -18.5800  -26.0695   26.2313 C   0  0  0  0  0  0  0  0  0  0  0  0
  -30.0662  -26.6559   21.0839 C   0  0  1  0  0  0  0  0  0  0  0  0
  -30.5213  -29.9168   19.2052 C   0  0  2  0  0  0  0  0  0  0  0  0
  -31.0598  -26.2389   22.2047 C   0  0  0  0  0  0  0  0  0  0  0  0
  -21.3928  -19.3442   24.6223 N   0  0  0  0  0  0  0  0  0  0  0  0
  -21.6090  -20.5997   25.0503 N   0  0  0  0  0  0  0  0  0  0  0  0
  -28.4024  -25.1343   20.0639 N   0  0  0  0  0  0  0  0  0  0  0  0
  -18.7277  -22.3946   26.8067 N   0  0  0  0  0  0  0  0  0  0  0  0
  -22.9506  -22.5165   24.6808 N   0  0  0  0  0  0  0  0  0  0  0  0
  -24.4797  -19.5687   21.6199 N   0  0  0  0  0  0  0  0  0  0  0  0
  -28.9175  -21.8030   20.1416 N   0  0  0  0  0  0  0  0  0  0  0  0
  -30.5352  -27.7564   20.2488 N   0  0  0  0  0  0  0  0  0  0  0  0
  -18.8500  -24.6536   26.1172 N   0  0  0  0  0  0  0  0  0  0  0  0
  -29.5193  -30.7266   18.4560 N   0  3  0  0  0  0  0  0  0  0  0  0
  -24.7472  -21.6843   22.4635 O   0  0  0  0  0  0  0  0  0  0  0  0
  -27.1435  -22.8495   21.2278 O   0  0  0  0  0  0  0  0  0  0  0  0
  -30.6601  -24.9940   19.4990 O   0  0  0  0  0  0  0  0  0  0  0  0
  -28.7529  -29.1771   20.6759 O   0  0  0  0  0  0  0  0  0  0  0  0
  -17.7045  -24.0853   28.0203 O   0  0  0  0  0  0  0  0  0  0  0  0
  -22.6160  -14.3789   20.8278 O   0  0  0  0  0  0  0  0  0  0  0  0
  -22.5284  -26.5044   21.3573 O   0  0  0  0  0  0  0  0  0  1  0  0
  -27.6327  -12.2903   19.8927 F   0  0  0  0  0  0  0  0  0  0  0  0
  -17.5223  -29.0340   24.1131 F   0  0  0  0  0  0  0  0  0  0  0  0
  -23.3140  -11.8816   21.7865 F   0  0  0  0  0  0  0  0  0  0  0  0
  1  2  1  0  0  0  0
  1  5  2  0  0  0  0
  2  6  2  0  0  0  0
  3  8  2  0  0  0  0
  3 17  1  0  0  0  0
  4  9  1  0  0  0  0
  4 17  2  0  0  0  0
  5 19  1  0  0  0  0
  6 21  1  0  0  0  0
  7 10  2  0  0  0  0
  7 20  1  0  0  0  0
  8 26  1  0  0  0  0
  9 26  2  0  0  0  0
 10 27  1  0  0  0  0
 11 12  2  0  0  0  0
 11 28  1  0  0  0  0
 12 29  1  0  0  0  0
 13 22  1  0  0  0  0
 13 27  2  0  0  0  0
 14 23  1  0  0  0  0
 14 24  2  0  0  0  0
 15 25  1  0  0  0  0
 15 30  2  0  0  0  0
 16 29  2  0  0  0  0
 16 31  1  0  0  0  0
 17 32  1  0  0  0  0
 18 32  1  0  0  0  0
 18 33  2  0  0  0  0
 18 34  1  0  0  0  0
 19 21  2  0  0  0  0
 19 39  1  0  0  0  0
 20 22  2  0  0  0  0
 20 40  1  0  0  0  0
 21 48  1  0  0  0  0
 22 41  1  0  0  0  0
 23 25  2  0  0  0  0
 23 58  1  0  0  0  0
 24 30  1  0  0  0  0
 24 57  1  0  0  0  0
 25 51  1  0  0  0  0
 26 79  1  0  0  0  0
 27 80  1  0  0  0  0
 28 31  2  0  0  0  0
 28 79  1  0  0  0  0
 29 81  1  0  0  0  0
 30 82  1  0  0  0  0
 31 83  1  0  0  0  0
 32 64  2  0  0  0  0
 33 65  1  0  0  0  0
 33 68  1  0  0  0  0
 34 69  1  0  0  0  0
 34 74  2  0  0  0  0
 35 49  1  0  0  0  0
 35 70  1  0  0  0  0
 35 75  2  0  0  0  0
 36 61  1  0  0  0  0
 36 66  1  0  0  0  0
 36 76  2  0  0  0  0
 37 62  1  0  0  0  0
 37 71  1  0  0  0  0
 37 77  2  0  0  0  0
 38 67  1  0  0  0  0
 38 72  1  0  0  0  0
 38 78  2  0  0  0  0
 39 42  1  0  0  0  0
 40 49  1  0  0  0  0
 41 66  1  0  0  0  0
 42 44  1  0  0  0  0
 43 45  1  0  0  0  0
 43 46  1  0  0  0  0
 44 48  1  0  0  0  0
 45 50  1  0  0  0  0
 46 67  1  0  0  0  0
 47 50  1  0  0  0  0
 47 67  1  0  0  0  0
 48 70  1  0  0  0  0
 49 66  1  0  0  0  0
 50 65  1  0  0  0  0
 52 62  1  0  0  0  0
 53 63  1  0  0  0  0
 54 63  1  0  0  0  0
 55 63  1  0  0  0  0
 56 73  1  0  0  0  0
 57 59  1  0  0  0  0
 58 80  1  0  0  0  0
 59 60  1  0  0  0  0
 60 72  1  0  0  0  0
 61 63  1  0  0  0  0
 61 71  1  0  0  0  0
 62 73  1  0  0  0  0
 64 65  1  0  0  0  0
M  CHG  1  73   1
M  ISO  4  38 100  58 101  72 100  80 101
M  END
> <Batch ID>
0029

> <Smiles>
CNC(C)C(=O)NC(C(=O)N1Cc2cc([101O:1][101CH2:1]c3cc(CCC[100NH:0][100C:0](=O)N4CCCC(n5nc(-c6ccc(Oc7ccc(F)cc7F)cc6)c(C(N)=O)c5N)C4)c(F)cc3C)ccc2CC1C(=O)NC1CCCc2ccccc21)C(C)(C)C

> <Shape>
0.188

> <Color>
0.066

> <Negative vol penalty>
0.000

$$$$

  -OEChem-04052316363D

 80 88  0     1  0  0  0  0  0999 V2000
  -30.9509  -34.0430   25.4329 C   0  0  0  0  0  0  0  0  0  0  0  0
  -31.0013  -32.9678   24.5517 C   0  0  0  0  0  0  0  0  0  0  0  0
  -26.5096  -13.0011   21.5738 C   0  0  0  0  0  0  0  0  0  0  0  0
  -26.0820  -13.8548   19.3544 C   0  0  0  0  0  0  0  0  0  0  0  0
  -29.9027  -34.1454   26.3467 C   0  0  0  0  0  0  0  0  0  0  0  0
  -30.0041  -31.9936   24.5844 C   0  0  0  0  0  0  0  0  0  0  0  0
  -27.7279  -28.8939   19.8182 C   0  0  0  0  0  0  0  0  0  0  0  0
  -25.2382  -12.4280   21.5982 C   0  0  0  0  0  0  0  0  0  0  0  0
  -24.8106  -13.2815   19.3789 C   0  0  0  0  0  0  0  0  0  0  0  0
  -27.9935  -27.6217   19.3134 C   0  0  0  0  0  0  0  0  0  0  0  0
  -23.7209   -9.6783   20.3452 C   0  0  0  0  0  0  0  0  0  0  0  0
  -23.6092   -8.3686   20.8120 C   0  0  0  0  0  0  0  0  0  0  0  0
  -26.1144  -26.7465   20.5473 C   0  0  0  0  0  0  0  0  0  0  0  0
  -29.1497  -22.7898   18.7265 C   0  0  0  0  0  0  0  0  0  0  0  0
  -22.1290   -9.1206   22.5672 C   0  0  0  0  0  0  0  0  0  0  0  0
  -26.9315  -13.7146   20.4519 C   0  0  0  0  0  0  0  0  0  0  0  0
  -29.4362  -13.7143   19.9683 C   0  0  0  0  0  0  0  0  0  0  0  0
  -28.8871  -33.1771   26.3841 C   0  0  0  0  0  0  0  0  0  0  0  0
  -26.6583  -29.1003   20.7013 C   0  0  0  0  0  0  0  0  0  0  0  0
  -28.9421  -32.0824   25.5003 C   0  0  0  0  0  0  0  0  0  0  0  0
  -25.8358  -28.0227   21.0598 C   0  0  0  0  0  0  0  0  0  0  0  0
  -28.8190  -21.1631   16.9861 C   0  0  0  0  0  0  0  0  0  0  0  0
  -29.2289  -21.4764   18.2773 C   0  0  0  0  0  0  0  0  0  0  0  0
  -24.3887  -12.5681   20.5008 C   0  0  0  0  0  0  0  0  0  0  0  0
  -27.1885  -26.5472   19.6802 C   0  0  0  0  0  0  0  0  0  0  0  0
  -23.0368  -10.7091   20.9894 C   0  0  0  0  0  0  0  0  0  0  0  0
  -22.8132   -8.0898   21.9230 C   0  0  0  0  0  0  0  0  0  0  0  0
  -22.2408  -10.4303   22.1004 C   0  0  0  0  0  0  0  0  0  0  0  0
  -28.2445  -14.3075   20.4262 C   0  0  0  0  0  0  0  0  0  0  0  0
  -28.6572  -23.7456   17.8525 C   0  0  0  0  0  0  0  0  0  0  0  0
  -28.3411  -22.1916   16.1901 C   0  0  0  0  0  0  0  0  0  0  0  0
  -30.3943  -14.6807   20.1545 C   0  0  0  0  0  0  0  0  0  0  0  0
  -29.6574  -12.4068   19.4232 C   0  0  0  0  0  0  0  0  0  0  0  0
  -26.3921  -30.0987   23.7073 C   0  0  0  0  0  0  0  0  0  0  0  0
  -23.2163  -29.9626   23.0607 C   0  0  0  0  0  0  0  0  0  0  0  0
  -20.6970  -28.6364   21.1789 C   0  0  0  0  0  0  0  0  0  0  0  0
  -30.1722  -20.6441   20.4600 C   0  0  0  0  0  0  0  0  0  0  0  0
  -27.7996  -33.3055   27.4212 C   0  0  0  0  0  0  0  0  0  0  0  0
  -26.3689  -30.4837   21.2159 C   0  0  0  0  0  0  0  0  0  0  0  0
  -24.6630  -28.1952   21.9888 C   0  0  0  0  0  0  0  0  0  0  0  0
  -26.5820  -32.4292   27.1387 C   0  0  0  0  0  0  0  0  0  0  0  0
  -31.4385  -18.4303   22.9445 C   0  0  0  0  0  0  0  0  0  0  0  0
  -27.0167  -31.0155   26.7653 C   0  0  0  0  0  0  0  0  0  0  0  0
  -30.8766  -17.0668   22.5355 C   0  0  0  0  0  0  0  0  0  0  0  0
  -30.4421  -19.5573   22.6783 C   0  0  0  0  0  0  0  0  0  0  0  0
  -29.3531  -18.2459   20.8998 C   0  0  0  0  0  0  0  0  0  0  0  0
  -27.8659  -31.0186   25.4885 C   0  0  1  0  0  0  0  0  0  0  0  0
  -25.5655  -30.4828   22.5128 C   0  0  1  0  0  0  0  0  0  0  0  0
  -30.3456  -17.0871   21.0887 C   0  0  2  0  0  0  0  0  0  0  0  0
  -28.8951  -19.7592   16.4824 C   0  0  0  0  0  0  0  0  0  0  0  0
  -18.2027  -28.6885   20.9090 C   0  0  0  0  0  0  0  0  0  0  0  0
  -22.9139  -28.2101   25.5400 C   0  0  0  0  0  0  0  0  0  0  0  0
  -20.6561  -27.5301   24.6986 C   0  0  0  0  0  0  0  0  0  0  0  0
  -21.1133  -29.9206   25.2456 C   0  0  0  0  0  0  0  0  0  0  0  0
  -20.9019  -29.6552   18.4078 C   0  0  0  0  0  0  0  0  0  0  0  0
  -28.5568  -25.1731   18.3035 C   0  0  0  0  0  0  0  0  0  1  0  0
  -22.1466  -28.9035   23.1744 C   0  0  1  0  0  0  0  0  0  0  0  0
  -19.5277  -29.2851   20.4604 C   0  0  2  0  0  0  0  0  0  0  0  0
  -21.7306  -28.6371   24.6486 C   0  0  0  0  0  0  0  0  0  0  0  0
  -28.4264  -15.5540   20.8701 N   0  0  0  0  0  0  0  0  0  0  0  0
  -28.2494  -23.4794   16.5914 N   0  0  0  0  0  0  0  0  0  0  0  0
  -29.7436  -15.7520   20.6920 N   0  0  0  0  0  0  0  0  0  0  0  0
  -24.4246  -29.5659   22.4704 N   0  0  0  0  0  0  0  0  0  0  0  0
  -29.9859  -19.5164   21.2873 N   0  0  0  0  0  0  0  0  0  0  0  0
  -31.7215  -14.7100   19.9093 N   0  0  0  0  0  0  0  0  0  0  0  0
  -28.5629  -11.5398   19.3014 N   0  0  0  0  0  0  0  0  0  0  0  0
  -29.7283  -20.4768   19.1487 N   0  0  0  0  0  0  0  0  0  0  0  0
  -27.0229  -31.1639   24.3212 N   0  0  0  0  0  0  0  0  0  0  0  0
  -21.0511  -29.3358   22.3132 N   0  0  0  0  0  0  0  0  0  0  0  0
  -19.6543  -29.0946   18.9878 N   0  3  0  0  0  0  0  0  0  0  0  0
  -30.7949  -12.0129   19.0704 O   0  0  0  0  0  0  0  0  0  0  0  0
  -26.4520  -28.9230   24.0478 O   0  0  0  0  0  0  0  0  0  0  0  0
  -22.9857  -31.1018   23.4737 O   0  0  0  0  0  0  0  0  0  0  0  0
  -21.2396  -27.6097   20.7762 O   0  0  0  0  0  0  0  0  0  0  0  0
  -30.7122  -21.6723   20.8763 O   0  0  0  0  0  0  0  0  0  0  0  0
  -23.1481  -12.0087   20.5242 O   0  0  0  0  0  0  0  0  0  0  0  0
  -27.4459  -25.3043   19.1896 O   0  0  0  0  0  0  0  0  0  1  0  0
  -22.7048   -6.8319   22.3703 F   0  0  0  0  0  0  0  0  0  0  0  0
  -21.5802  -11.4163   22.7227 F   0  0  0  0  0  0  0  0  0  0  0  0
  -27.8035  -21.9348   14.5760 Cl  0  0  0  0  0  0  0  0  0  0  0  0
  1  2  1  0  0  0  0
  1  5  2  0  0  0  0
  2  6  2  0  0  0  0
  3  8  2  0  0  0  0
  3 16  1  0  0  0  0
  4  9  1  0  0  0  0
  4 16  2  0  0  0  0
  5 18  1  0  0  0  0
  6 20  1  0  0  0  0
  7 10  2  0  0  0  0
  7 19  1  0  0  0  0
  8 24  1  0  0  0  0
  9 24  2  0  0  0  0
 10 25  1  0  0  0  0
 11 12  2  0  0  0  0
 11 26  1  0  0  0  0
 12 27  1  0  0  0  0
 13 21  1  0  0  0  0
 13 25  2  0  0  0  0
 14 23  2  0  0  0  0
 14 30  1  0  0  0  0
 15 27  2  0  0  0  0
 15 28  1  0  0  0  0
 16 29  1  0  0  0  0
 17 29  1  0  0  0  0
 17 32  2  0  0  0  0
 17 33  1  0  0  0  0
 18 20  2  0  0  0  0
 18 38  1  0  0  0  0
 19 21  2  0  0  0  0
 19 39  1  0  0  0  0
 20 47  1  0  0  0  0
 21 40  1  0  0  0  0
 22 23  1  0  0  0  0
 22 31  2  0  0  0  0
 22 50  1  0  0  0  0
 23 67  1  0  0  0  0
 24 76  1  0  0  0  0
 25 77  1  0  0  0  0
 26 28  2  0  0  0  0
 26 76  1  0  0  0  0
 27 78  1  0  0  0  0
 28 79  1  0  0  0  0
 29 60  2  0  0  0  0
 30 56  1  0  0  0  0
 30 61  2  0  0  0  0
 31 61  1  0  0  0  0
 31 80  1  0  0  0  0
 32 62  1  0  0  0  0
 32 65  1  0  0  0  0
 33 66  1  0  0  0  0
 33 71  2  0  0  0  0
 34 48  1  0  0  0  0
 34 68  1  0  0  0  0
 34 72  2  0  0  0  0
 35 57  1  0  0  0  0
 35 63  1  0  0  0  0
 35 73  2  0  0  0  0
 36 58  1  0  0  0  0
 36 69  1  0  0  0  0
 36 74  2  0  0  0  0
 37 64  1  0  0  0  0
 37 67  1  0  0  0  0
 37 75  2  0  0  0  0
 38 41  1  0  0  0  0
 39 48  1  0  0  0  0
 40 63  1  0  0  0  0
 41 43  1  0  0  0  0
 42 44  1  0  0  0  0
 42 45  1  0  0  0  0
 43 47  1  0  0  0  0
 44 49  1  0  0  0  0
 45 64  1  0  0  0  0
 46 49  1  0  0  0  0
 46 64  1  0  0  0  0
 47 68  1  0  0  0  0
 48 63  1  0  0  0  0
 49 62  1  0  0  0  0
 51 58  1  0  0  0  0
 52 59  1  0  0  0  0
 53 59  1  0  0  0  0
 54 59  1  0  0  0  0
 55 70  1  0  0  0  0
 56 77  1  0  0  0  0
 57 59  1  0  0  0  0
 57 69  1  0  0  0  0
 58 70  1  0  0  0  0
 60 62  1  0  0  0  0
M  CHG  1  70   1
M  ISO  4  37 100  56 101  67 100  77 101
M  END
> <Batch ID>
0029

> <Smiles>
CNC(C)C(=O)NC(C(=O)N1Cc2cc([101O:1][101CH2:1]c3cc([100NH:0][100C:0](=O)N4CCCC(n5nc(-c6ccc(Oc7ccc(F)cc7F)cc6)c(C(N)=O)c5N)C4)c(C)c(Cl)n3)ccc2CC1C(=O)NC1CCCc2ccccc21)C(C)(C)C

> <Shape>
0.308

> <Color>
0.083

> <Negative vol penalty>
0.000

$$$$

  -OEChem-04052316363D

 84 93  0     1  0  0  0  0  0999 V2000
  -26.5384  -35.1792   23.5463 C   0  0  0  0  0  0  0  0  0  0  0  0
  -26.9913  -33.8910   23.2806 C   0  0  0  0  0  0  0  0  0  0  0  0
  -26.4634  -14.2992   21.3007 C   0  0  0  0  0  0  0  0  0  0  0  0
  -24.3196  -14.2423   20.1879 C   0  0  0  0  0  0  0  0  0  0  0  0
  -25.2351  -35.3790   23.9997 C   0  0  0  0  0  0  0  0  0  0  0  0
  -26.1416  -32.8016   23.4693 C   0  0  0  0  0  0  0  0  0  0  0  0
  -26.3312  -29.5024   19.6320 C   0  0  0  0  0  0  0  0  0  0  0  0
  -26.5469  -12.9097   21.2108 C   0  0  0  0  0  0  0  0  0  0  0  0
  -24.4032  -12.8529   20.0980 C   0  0  0  0  0  0  0  0  0  0  0  0
  -27.4221  -28.6352   19.5913 C   0  0  0  0  0  0  0  0  0  0  0  0
  -23.9241  -10.1917   22.1277 C   0  0  0  0  0  0  0  0  0  0  0  0
  -22.7891   -9.4515   22.4585 C   0  0  0  0  0  0  0  0  0  0  0  0
  -30.1655  -22.3076   18.3736 C   0  0  0  0  0  0  0  0  0  0  0  0
  -26.0595  -26.8861   20.5416 C   0  0  0  0  0  0  0  0  0  0  0  0
  -22.7475   -8.5194   20.2299 C   0  0  0  0  0  0  0  0  0  0  0  0
  -29.2857  -23.8463   16.8024 C   0  0  0  0  0  0  0  0  0  0  0  0
  -25.3497  -14.9655   20.7893 C   0  0  0  0  0  0  0  0  0  0  0  0
  -25.2644  -17.1782   22.0560 C   0  0  0  0  0  0  0  0  0  0  0  0
  -24.3659  -34.2924   24.1848 C   0  0  0  0  0  0  0  0  0  0  0  0
  -25.0971  -29.0704   20.1389 C   0  0  0  0  0  0  0  0  0  0  0  0
  -24.8259  -32.9869   23.9269 C   0  0  0  0  0  0  0  0  0  0  0  0
  -30.5807  -23.3754   19.1833 C   0  0  0  0  0  0  0  0  0  0  0  0
  -24.9538  -27.7490   20.5853 C   0  0  0  0  0  0  0  0  0  0  0  0
  -29.5161  -22.5372   17.1670 C   0  0  0  0  0  0  0  0  0  0  0  0
  -25.5168  -12.1866   20.6094 C   0  0  0  0  0  0  0  0  0  0  0  0
  -27.2871  -27.3277   20.0487 C   0  0  0  0  0  0  0  0  0  0  0  0
  -24.4708  -10.0958   20.8479 C   0  0  0  0  0  0  0  0  0  0  0  0
  -22.2008   -8.6153   21.5096 C   0  0  0  0  0  0  0  0  0  0  0  0
  -23.8825   -9.2596   19.8991 C   0  0  0  0  0  0  0  0  0  0  0  0
  -25.2626  -16.4007   20.8823 C   0  0  0  0  0  0  0  0  0  0  0  0
  -30.2571  -24.6689   18.7444 C   0  0  0  0  0  0  0  0  0  0  0  0
  -25.1628  -18.4733   21.6100 C   0  0  0  0  0  0  0  0  0  0  0  0
  -25.3504  -16.7665   23.4266 C   0  0  0  0  0  0  0  0  0  0  0  0
  -23.2504  -29.9282   22.5797 C   0  0  0  0  0  0  0  0  0  0  0  0
  -21.1902  -27.7953   21.2650 C   0  0  0  0  0  0  0  0  0  0  0  0
  -20.7322  -25.0423   19.3007 C   0  0  0  0  0  0  0  0  0  0  0  0
  -26.6220  -21.1348   16.4488 C   0  0  0  0  0  0  0  0  0  0  0  0
  -22.9810  -34.5539   24.7218 C   0  0  0  0  0  0  0  0  0  0  0  0
  -23.9228  -30.0102   20.1513 C   0  0  0  0  0  0  0  0  0  0  0  0
  -23.6448  -27.2301   21.1199 C   0  0  0  0  0  0  0  0  0  0  0  0
  -22.0245  -33.3785   24.5380 C   0  0  0  0  0  0  0  0  0  0  0  0
  -23.4112  -21.0589   17.9855 C   0  0  0  0  0  0  0  0  0  0  0  0
  -31.9105  -24.3924   21.0921 C   0  0  0  0  0  0  0  0  0  0  0  0
  -22.6939  -32.0744   24.9601 C   0  0  0  0  0  0  0  0  0  0  0  0
  -30.9432  -25.5627   21.0124 C   0  0  0  0  0  0  0  0  0  0  0  0
  -23.5217  -19.9266   19.0081 C   0  0  0  0  0  0  0  0  0  0  0  0
  -24.1896  -20.7452   16.7097 C   0  0  0  0  0  0  0  0  0  0  0  0
  -25.7149  -19.2529   17.9427 C   0  0  0  0  0  0  0  0  0  0  0  0
  -31.2744  -23.1200   20.5100 C   0  0  2  0  0  0  0  0  0  0  0  0
  -23.9262  -31.7819   24.0956 C   0  0  1  0  0  0  0  0  0  0  0  0
  -30.6434  -25.8981   19.5466 C   0  0  2  0  0  0  0  0  0  0  0  0
  -22.8527  -29.6161   21.1647 C   0  0  1  0  0  0  0  0  0  0  0  0
  -24.9921  -19.5476   19.2683 C   0  0  2  0  0  0  0  0  0  0  0  0
  -32.3502  -22.0276   20.4445 C   0  0  0  0  0  0  0  0  0  0  0  0
  -18.9390  -23.5103   18.4434 C   0  0  0  0  0  0  0  0  0  0  0  0
  -21.0416  -26.4445   23.9969 C   0  0  0  0  0  0  0  0  0  0  0  0
  -20.0407  -24.4425   22.8750 C   0  0  0  0  0  0  0  0  0  0  0  0
  -18.8505  -26.6337   22.8061 C   0  0  0  0  0  0  0  0  0  0  0  0
  -21.3230  -25.7369   16.4851 C   0  0  0  0  0  0  0  0  0  0  0  0
  -29.0840  -21.4092   16.2998 C   0  0  0  0  0  0  0  0  0  0  0  0
  -29.5746  -26.9953   19.4894 C   0  0  0  0  0  0  0  0  0  1  0  0
  -20.9409  -26.3145   21.4202 C   0  0  1  0  0  0  0  0  0  0  0  0
  -19.7583  -24.7621   18.1704 C   0  0  2  0  0  0  0  0  0  0  0  0
  -20.2438  -25.9688   22.7663 C   0  0  0  0  0  0  0  0  0  0  0  0
  -29.6408  -24.9075   17.5554 N   0  0  0  0  0  0  0  0  0  0  0  0
  -25.1672  -17.1402   19.7741 N   0  0  0  0  0  0  0  0  0  0  0  0
  -25.1081  -18.3958   20.2494 N   0  0  0  0  0  0  0  0  0  0  0  0
  -22.5277  -28.1891   21.1174 N   0  0  0  0  0  0  0  0  0  0  0  0
  -25.5765  -20.3952   17.0258 N   0  0  0  0  0  0  0  0  0  0  0  0
  -25.1158  -19.6594   22.2529 N   0  0  0  0  0  0  0  0  0  0  0  0
  -24.1620  -16.4966   24.1190 N   0  0  0  0  0  0  0  0  0  0  0  0
  -23.5266  -31.2633   22.8050 N   0  0  0  0  0  0  0  0  0  0  0  0
  -20.1947  -25.8999   20.2371 N   0  0  0  0  0  0  0  0  0  0  0  0
  -27.9058  -20.7414   16.8063 N   0  0  0  0  0  0  0  0  0  0  0  0
  -20.4937  -24.5721   16.8882 N   0  3  0  0  0  0  0  0  0  0  0  0
  -26.4476  -16.6574   24.0247 O   0  0  0  0  0  0  0  0  0  0  0  0
  -23.3012  -29.0250   23.4062 O   0  0  0  0  0  0  0  0  0  0  0  0
  -20.2329  -28.5732   21.2671 O   0  0  0  0  0  0  0  0  0  0  0  0
  -21.8558  -24.5468   19.3500 O   0  0  0  0  0  0  0  0  0  0  0  0
  -26.4257  -22.0795   15.6768 O   0  0  0  0  0  0  0  0  0  0  0  0
  -25.5981  -10.8308   20.5213 O   0  0  0  0  0  0  0  0  0  0  0  0
  -28.3505  -26.4794   20.0106 O   0  0  0  0  0  0  0  0  0  1  0  0
  -21.1118   -7.9034   21.8279 F   0  0  0  0  0  0  0  0  0  0  0  0
  -24.4039   -9.1625   18.6684 F   0  0  0  0  0  0  0  0  0  0  0  0
  1  2  1  0  0  0  0
  1  5  2  0  0  0  0
  2  6  2  0  0  0  0
  3  8  2  0  0  0  0
  3 17  1  0  0  0  0
  4  9  1  0  0  0  0
  4 17  2  0  0  0  0
  5 19  1  0  0  0  0
  6 21  1  0  0  0  0
  7 10  2  0  0  0  0
  7 20  1  0  0  0  0
  8 25  1  0  0  0  0
  9 25  2  0  0  0  0
 10 26  1  0  0  0  0
 11 12  2  0  0  0  0
 11 27  1  0  0  0  0
 12 28  1  0  0  0  0
 13 22  1  0  0  0  0
 13 24  2  0  0  0  0
 14 23  1  0  0  0  0
 14 26  2  0  0  0  0
 15 28  2  0  0  0  0
 15 29  1  0  0  0  0
 16 24  1  0  0  0  0
 16 65  2  0  0  0  0
 17 30  1  0  0  0  0
 18 30  1  0  0  0  0
 18 32  2  0  0  0  0
 18 33  1  0  0  0  0
 19 21  2  0  0  0  0
 19 38  1  0  0  0  0
 20 23  2  0  0  0  0
 20 39  1  0  0  0  0
 21 50  1  0  0  0  0
 22 31  2  0  0  0  0
 22 49  1  0  0  0  0
 23 40  1  0  0  0  0
 24 60  1  0  0  0  0
 25 81  1  0  0  0  0
 26 82  1  0  0  0  0
 27 29  2  0  0  0  0
 27 81  1  0  0  0  0
 28 83  1  0  0  0  0
 29 84  1  0  0  0  0
 30 66  2  0  0  0  0
 31 51  1  0  0  0  0
 31 65  1  0  0  0  0
 32 67  1  0  0  0  0
 32 70  1  0  0  0  0
 33 71  1  0  0  0  0
 33 76  2  0  0  0  0
 34 52  1  0  0  0  0
 34 72  1  0  0  0  0
 34 77  2  0  0  0  0
 35 62  1  0  0  0  0
 35 68  1  0  0  0  0
 35 78  2  0  0  0  0
 36 63  1  0  0  0  0
 36 73  1  0  0  0  0
 36 79  2  0  0  0  0
 37 69  1  0  0  0  0
 37 74  1  0  0  0  0
 37 80  2  0  0  0  0
 38 41  1  0  0  0  0
 39 52  1  0  0  0  0
 40 68  1  0  0  0  0
 41 44  1  0  0  0  0
 42 46  1  0  0  0  0
 42 47  1  0  0  0  0
 43 45  1  0  0  0  0
 43 49  1  0  0  0  0
 44 50  1  0  0  0  0
 45 51  1  0  0  0  0
 46 53  1  0  0  0  0
 47 69  1  0  0  0  0
 48 53  1  0  0  0  0
 48 69  1  0  0  0  0
 49 54  1  0  0  0  0
 50 72  1  0  0  0  0
 51 61  1  0  0  0  0
 52 68  1  0  0  0  0
 53 67  1  0  0  0  0
 55 63  1  0  0  0  0
 56 64  1  0  0  0  0
 57 64  1  0  0  0  0
 58 64  1  0  0  0  0
 59 75  1  0  0  0  0
 60 74  1  0  0  0  0
 61 82  1  0  0  0  0
 62 64  1  0  0  0  0
 62 73  1  0  0  0  0
 63 75  1  0  0  0  0
 66 67  1  0  0  0  0
M  CHG  1  75   1
M  ISO  4  37 100  61 101  74 100  82 101
M  END
> <Batch ID>
0029

> <Smiles>
CNC(C)C(=O)NC(C(=O)N1Cc2cc([101O:1][101CH2:1]C3CCC(C)c4cc(C[100NH:0][100C:0](=O)N5CCCC(n6nc(-c7ccc(Oc8ccc(F)cc8F)cc7)c(C(N)=O)c6N)C5)cnc43)ccc2CC1C(=O)NC1CCCc2ccccc21)C(C)(C)C

> <Shape>
0.261

> <Color>
0.092

> <Negative vol penalty>
0.000

$$$$

  -OEChem-04052316363D

 82 90  0     1  0  0  0  0  0999 V2000
  -22.9441  -28.4943   27.4536 C   0  0  0  0  0  0  0  0  0  0  0  0
  -24.1271  -28.0019   26.9120 C   0  0  0  0  0  0  0  0  0  0  0  0
  -24.7147  -14.0485   21.1805 C   0  0  0  0  0  0  0  0  0  0  0  0
  -26.9075  -13.5735   20.2844 C   0  0  0  0  0  0  0  0  0  0  0  0
  -21.7714  -28.4725   26.6997 C   0  0  0  0  0  0  0  0  0  0  0  0
  -24.1380  -27.4863   25.6164 C   0  0  0  0  0  0  0  0  0  0  0  0
  -28.6984  -27.8549   21.5455 C   0  0  0  0  0  0  0  0  0  0  0  0
  -24.2572  -12.8160   20.7144 C   0  0  0  0  0  0  0  0  0  0  0  0
  -26.4500  -12.3409   19.8183 C   0  0  0  0  0  0  0  0  0  0  0  0
  -29.6971  -26.9567   21.1719 C   0  0  0  0  0  0  0  0  0  0  0  0
  -24.4344   -9.5741   21.6586 C   0  0  0  0  0  0  0  0  0  0  0  0
  -23.6597   -8.8010   22.5234 C   0  0  0  0  0  0  0  0  0  0  0  0
  -28.3406  -26.2305   19.3140 C   0  0  0  0  0  0  0  0  0  0  0  0
  -33.4759  -22.7064   19.8691 C   0  0  0  0  0  0  0  0  0  0  0  0
  -31.7639  -22.8181   18.1682 C   0  0  0  0  0  0  0  0  0  0  0  0
  -21.8328   -8.8646   20.9436 C   0  0  0  0  0  0  0  0  0  0  0  0
  -26.0398  -14.4273   20.9654 C   0  0  0  0  0  0  0  0  0  0  0  0
  -27.0860  -15.9754   22.7023 C   0  0  0  0  0  0  0  0  0  0  0  0
  -21.7700  -27.9653   25.3907 C   0  0  0  0  0  0  0  0  0  0  0  0
  -27.5068  -27.9401   20.8113 C   0  0  0  0  0  0  0  0  0  0  0  0
  -22.9639  -27.4564   24.8448 C   0  0  0  0  0  0  0  0  0  0  0  0
  -27.3294  -27.1324   19.6789 C   0  0  0  0  0  0  0  0  0  0  0  0
  -32.6717  -23.4577   19.0121 C   0  0  0  0  0  0  0  0  0  0  0  0
  -33.3724  -21.3154   19.8820 C   0  0  0  0  0  0  0  0  0  0  0  0
  -31.6603  -21.4271   18.1811 C   0  0  0  0  0  0  0  0  0  0  0  0
  -25.1248  -11.9622   20.0333 C   0  0  0  0  0  0  0  0  0  0  0  0
  -29.5171  -26.1423   20.0578 C   0  0  0  0  0  0  0  0  0  0  0  0
  -23.9082   -9.9925   20.4364 C   0  0  0  0  0  0  0  0  0  0  0  0
  -22.3590   -8.4462   22.1659 C   0  0  0  0  0  0  0  0  0  0  0  0
  -22.6075   -9.6377   20.0789 C   0  0  0  0  0  0  0  0  0  0  0  0
  -32.4646  -20.6758   19.0380 C   0  0  0  0  0  0  0  0  0  0  0  0
  -26.5129  -15.7005   21.4462 C   0  0  0  0  0  0  0  0  0  0  0  0
  -27.3635  -17.3200   22.6663 C   0  0  0  0  0  0  0  0  0  0  0  0
  -27.3444  -15.0939   23.8032 C   0  0  0  0  0  0  0  0  0  0  0  0
  -24.4347  -27.4384   21.4552 C   0  0  0  0  0  0  0  0  0  0  0  0
  -24.0177  -28.6048   18.4571 C   0  0  0  0  0  0  0  0  0  0  0  0
  -25.3308  -29.1634   15.3571 C   0  0  0  0  0  0  0  0  0  0  0  0
  -28.3996  -21.1509   18.1828 C   0  0  0  0  0  0  0  0  0  0  0  0
  -20.4677  -27.9191   24.6315 C   0  0  0  0  0  0  0  0  0  0  0  0
  -26.4503  -28.9331   21.2117 C   0  0  0  0  0  0  0  0  0  0  0  0
  -26.0770  -27.1997   18.8451 C   0  0  0  0  0  0  0  0  0  0  0  0
  -20.6447  -27.7001   23.1312 C   0  0  0  0  0  0  0  0  0  0  0  0
  -25.8635  -21.4008   20.6692 C   0  0  0  0  0  0  0  0  0  0  0  0
  -21.6367  -26.5712   22.8698 C   0  0  0  0  0  0  0  0  0  0  0  0
  -25.7941  -19.9930   21.2636 C   0  0  0  0  0  0  0  0  0  0  0  0
  -26.1366  -21.3663   19.1672 C   0  0  0  0  0  0  0  0  0  0  0  0
  -27.2552  -19.1793   19.3659 C   0  0  0  0  0  0  0  0  0  0  0  0
  -23.0213  -26.9119   23.4340 C   0  0  1  0  0  0  0  0  0  0  0  0
  -25.0623  -28.5708   20.6926 C   0  0  1  0  0  0  0  0  0  0  0  0
  -27.0372  -19.1640   20.8885 C   0  0  2  0  0  0  0  0  0  0  0  0
  -34.2543  -20.5510   20.8164 C   0  0  0  0  0  0  0  0  0  0  0  0
  -24.7371  -30.0995   13.1057 C   0  0  0  0  0  0  0  0  0  0  0  0
  -22.4160  -26.0836   17.8339 C   0  0  0  0  0  0  0  0  0  0  0  0
  -22.6687  -26.6090   15.3991 C   0  0  0  0  0  0  0  0  0  0  0  0
  -21.4513  -28.1912   16.8949 C   0  0  0  0  0  0  0  0  0  0  0  0
  -27.4277  -31.2439   15.5403 C   0  0  0  0  0  0  0  0  0  0  0  0
  -32.7838  -24.9629   18.9982 C   0  0  0  0  0  0  0  0  0  0  0  0
  -30.6739  -20.7845   17.2595 C   0  0  0  0  0  0  0  0  0  0  0  0
  -31.8373  -25.6240   19.9943 C   0  0  0  0  0  0  0  0  0  1  0  0
  -23.9662  -28.0032   17.0735 C   0  0  1  0  0  0  0  0  0  0  0  0
  -25.3347  -30.3968   14.4721 C   0  0  2  0  0  0  0  0  0  0  0  0
  -22.6484  -27.2189   16.8170 C   0  0  0  0  0  0  0  0  0  0  0  0
  -26.4305  -16.7837   20.6690 N   0  0  0  0  0  0  0  0  0  0  0  0
  -26.9553  -17.7521   21.4388 N   0  0  0  0  0  0  0  0  0  0  0  0
  -25.0706  -28.1820   19.2808 N   0  0  0  0  0  0  0  0  0  0  0  0
  -27.3291  -20.5658   18.8790 N   0  0  0  0  0  0  0  0  0  0  0  0
  -27.9143  -18.1632   23.5653 N   0  0  0  0  0  0  0  0  0  0  0  0
  -26.9974  -13.7423   23.6726 N   0  0  0  0  0  0  0  0  0  0  0  0
  -23.7088  -27.8388   22.5607 N   0  0  0  0  0  0  0  0  0  0  0  0
  -24.1988  -29.1016   16.1419 N   0  0  0  0  0  0  0  0  0  0  0  0
  -29.4936  -20.3246   17.9568 N   0  0  0  0  0  0  0  0  0  0  0  0
  -26.7273  -30.8910   14.2786 N   0  3  0  0  0  0  0  0  0  0  0  0
  -27.8525  -15.4963   24.8772 O   0  0  0  0  0  0  0  0  0  0  0  0
  -24.5958  -26.2869   21.0682 O   0  0  0  0  0  0  0  0  0  0  0  0
  -23.1595  -29.4251   18.7922 O   0  0  0  0  0  0  0  0  0  0  0  0
  -26.2391  -28.3355   15.3499 O   0  0  0  0  0  0  0  0  0  0  0  0
  -28.3839  -22.3245   17.7963 O   0  0  0  0  0  0  0  0  0  0  0  0
  -24.6788  -10.7594   19.5786 O   0  0  0  0  0  0  0  0  0  0  0  0
  -30.4901  -25.2642   19.6913 O   0  0  0  0  0  0  0  0  0  1  0  0
  -21.6157   -7.7025   22.9957 F   0  0  0  0  0  0  0  0  0  0  0  0
  -22.0969  -10.0357   18.9055 F   0  0  0  0  0  0  0  0  0  0  0  0
  -32.3362  -18.9488   19.0540 Cl  0  0  0  0  0  0  0  0  0  0  0  0
  1  2  1  0  0  0  0
  1  5  2  0  0  0  0
  2  6  2  0  0  0  0
  3  8  2  0  0  0  0
  3 17  1  0  0  0  0
  4  9  1  0  0  0  0
  4 17  2  0  0  0  0
  5 19  1  0  0  0  0
  6 21  1  0  0  0  0
  7 10  2  0  0  0  0
  7 20  1  0  0  0  0
  8 26  1  0  0  0  0
  9 26  2  0  0  0  0
 10 27  1  0  0  0  0
 11 12  2  0  0  0  0
 11 28  1  0  0  0  0
 12 29  1  0  0  0  0
 13 22  1  0  0  0  0
 13 27  2  0  0  0  0
 14 23  1  0  0  0  0
 14 24  2  0  0  0  0
 15 23  2  0  0  0  0
 15 25  1  0  0  0  0
 16 29  2  0  0  0  0
 16 30  1  0  0  0  0
 17 32  1  0  0  0  0
 18 32  1  0  0  0  0
 18 33  2  0  0  0  0
 18 34  1  0  0  0  0
 19 21  2  0  0  0  0
 19 39  1  0  0  0  0
 20 22  2  0  0  0  0
 20 40  1  0  0  0  0
 21 48  1  0  0  0  0
 22 41  1  0  0  0  0
 23 57  1  0  0  0  0
 24 31  1  0  0  0  0
 24 51  1  0  0  0  0
 25 31  2  0  0  0  0
 25 58  1  0  0  0  0
 26 78  1  0  0  0  0
 27 79  1  0  0  0  0
 28 30  2  0  0  0  0
 28 78  1  0  0  0  0
 29 80  1  0  0  0  0
 30 81  1  0  0  0  0
 31 82  1  0  0  0  0
 32 63  2  0  0  0  0
 33 64  1  0  0  0  0
 33 67  1  0  0  0  0
 34 68  1  0  0  0  0
 34 73  2  0  0  0  0
 35 49  1  0  0  0  0
 35 69  1  0  0  0  0
 35 74  2  0  0  0  0
 36 60  1  0  0  0  0
 36 65  1  0  0  0  0
 36 75  2  0  0  0  0
 37 61  1  0  0  0  0
 37 70  1  0  0  0  0
 37 76  2  0  0  0  0
 38 66  1  0  0  0  0
 38 71  1  0  0  0  0
 38 77  2  0  0  0  0
 39 42  1  0  0  0  0
 40 49  1  0  0  0  0
 41 65  1  0  0  0  0
 42 44  1  0  0  0  0
 43 45  1  0  0  0  0
 43 46  1  0  0  0  0
 44 48  1  0  0  0  0
 45 50  1  0  0  0  0
 46 66  1  0  0  0  0
 47 50  1  0  0  0  0
 47 66  1  0  0  0  0
 48 69  1  0  0  0  0
 49 65  1  0  0  0  0
 50 64  1  0  0  0  0
 52 61  1  0  0  0  0
 53 62  1  0  0  0  0
 54 62  1  0  0  0  0
 55 62  1  0  0  0  0
 56 72  1  0  0  0  0
 57 59  1  0  0  0  0
 58 71  1  0  0  0  0
 59 79  1  0  0  0  0
 60 62  1  0  0  0  0
 60 70  1  0  0  0  0
 61 72  1  0  0  0  0
 63 64  1  0  0  0  0
M  CHG  1  72   1
M  ISO  4  38 100  59 101  71 100  79 101
M  END
> <Batch ID>
0029

> <Smiles>
CNC(C)C(=O)NC(C(=O)N1Cc2cc([101O:1][101CH2:1]Cc3cc(C)c(Cl)c(C[100NH:0][100C:0](=O)N4CCCC(n5nc(-c6ccc(Oc7ccc(F)cc7F)cc6)c(C(N)=O)c5N)C4)c3)ccc2CC1C(=O)NC1CCCc2ccccc21)C(C)(C)C

> <Shape>
0.190

> <Color>
0.071

> <Negative vol penalty>
0.000

$$$$

  -OEChem-04052316363D

 81 89  0     1  0  0  0  0  0999 V2000
  -26.5612  -34.6245   22.9123 C   0  0  0  0  0  0  0  0  0  0  0  0
  -26.7950  -33.4089   22.2774 C   0  0  0  0  0  0  0  0  0  0  0  0
  -26.6593  -12.7591   21.7181 C   0  0  0  0  0  0  0  0  0  0  0  0
  -26.1370  -14.0146   19.7211 C   0  0  0  0  0  0  0  0  0  0  0  0
  -25.6090  -34.7077   23.9273 C   0  0  0  0  0  0  0  0  0  0  0  0
  -26.0774  -32.2754   22.6580 C   0  0  0  0  0  0  0  0  0  0  0  0
  -24.3936  -29.6188   18.6891 C   0  0  0  0  0  0  0  0  0  0  0  0
  -25.3634  -12.2431   21.7327 C   0  0  0  0  0  0  0  0  0  0  0  0
  -24.8412  -13.4986   19.7356 C   0  0  0  0  0  0  0  0  0  0  0  0
  -25.3146  -28.8055   18.0303 C   0  0  0  0  0  0  0  0  0  0  0  0
  -23.6259   -9.8277   20.1265 C   0  0  0  0  0  0  0  0  0  0  0  0
  -23.4749   -8.4612   20.3616 C   0  0  0  0  0  0  0  0  0  0  0  0
  -24.4544  -26.8855   19.2103 C   0  0  0  0  0  0  0  0  0  0  0  0
  -28.6127  -22.6589   17.8690 C   0  0  0  0  0  0  0  0  0  0  0  0
  -29.6279  -22.7878   20.4643 C   0  0  0  0  0  0  0  0  0  0  0  0
  -22.1515   -8.9450   22.3241 C   0  0  0  0  0  0  0  0  0  0  0  0
  -27.0460  -13.6449   20.7124 C   0  0  0  0  0  0  0  0  0  0  0  0
  -29.5113  -13.6295   20.0569 C   0  0  0  0  0  0  0  0  0  0  0  0
  -24.8725  -33.5769   24.3139 C   0  0  0  0  0  0  0  0  0  0  0  0
  -23.5018  -29.0723   19.6231 C   0  0  0  0  0  0  0  0  0  0  0  0
  -25.1153  -32.3433   23.6800 C   0  0  0  0  0  0  0  0  0  0  0  0
  -23.5212  -27.6936   19.8778 C   0  0  0  0  0  0  0  0  0  0  0  0
  -28.6324  -23.8757   18.5505 C   0  0  0  0  0  0  0  0  0  0  0  0
  -29.1006  -21.5065   18.4852 C   0  0  0  0  0  0  0  0  0  0  0  0
  -29.1400  -23.9402   19.8482 C   0  0  0  0  0  0  0  0  0  0  0  0
  -29.6082  -21.5709   19.7828 C   0  0  0  0  0  0  0  0  0  0  0  0
  -24.4544  -12.6128   20.7414 C   0  0  0  0  0  0  0  0  0  0  0  0
  -25.3471  -27.4392   18.2930 C   0  0  0  0  0  0  0  0  0  0  0  0
  -23.0398  -10.7530   20.9903 C   0  0  0  0  0  0  0  0  0  0  0  0
  -22.7377   -8.0198   21.4603 C   0  0  0  0  0  0  0  0  0  0  0  0
  -22.3025  -10.3116   22.0891 C   0  0  0  0  0  0  0  0  0  0  0  0
  -28.3843  -14.1787   20.6972 C   0  0  0  0  0  0  0  0  0  0  0  0
  -30.5292  -14.5067   20.3412 C   0  0  0  0  0  0  0  0  0  0  0  0
  -29.6277  -12.4333   19.2750 C   0  0  0  0  0  0  0  0  0  0  0  0
  -22.9820  -29.4791   22.7325 C   0  0  0  0  0  0  0  0  0  0  0  0
  -20.4676  -27.5074   22.1732 C   0  0  0  0  0  0  0  0  0  0  0  0
  -19.0676  -25.0782   20.2276 C   0  0  0  0  0  0  0  0  0  0  0  0
  -30.6432  -20.3220   21.7103 C   0  0  0  0  0  0  0  0  0  0  0  0
  -23.8873  -33.7053   25.4486 C   0  0  0  0  0  0  0  0  0  0  0  0
  -22.4964  -29.9588   20.3056 C   0  0  0  0  0  0  0  0  0  0  0  0
  -22.5716  -27.0544   20.8566 C   0  0  0  0  0  0  0  0  0  0  0  0
  -22.9038  -32.5411   25.5360 C   0  0  0  0  0  0  0  0  0  0  0  0
  -31.9462  -17.6479   23.6669 C   0  0  0  0  0  0  0  0  0  0  0  0
  -23.6387  -31.2106   25.4069 C   0  0  0  0  0  0  0  0  0  0  0  0
  -31.2879  -16.4042   23.0651 C   0  0  0  0  0  0  0  0  0  0  0  0
  -30.9960  -18.8440   23.6765 C   0  0  0  0  0  0  0  0  0  0  0  0
  -29.7279  -17.9193   21.7776 C   0  0  0  0  0  0  0  0  0  0  0  0
  -24.3395  -31.0971   24.0477 C   0  0  1  0  0  0  0  0  0  0  0  0
  -21.9798  -29.3767   21.6177 C   0  0  1  0  0  0  0  0  0  0  0  0
  -30.6676  -16.7059   21.6868 C   0  0  2  0  0  0  0  0  0  0  0  0
  -29.0673  -20.2166   17.7314 C   0  0  0  0  0  0  0  0  0  0  0  0
  -29.1710  -25.2318   20.5974 C   0  0  0  0  0  0  0  0  0  0  0  0
  -17.0207  -23.6381   20.0433 C   0  0  0  0  0  0  0  0  0  0  0  0
  -21.5063  -25.7456   24.4375 C   0  0  0  0  0  0  0  0  0  0  0  0
  -20.0295  -23.9090   23.5923 C   0  0  0  0  0  0  0  0  0  0  0  0
  -19.0234  -26.0432   24.4022 C   0  0  0  0  0  0  0  0  0  0  0  0
  -18.3599  -26.2200   17.5905 C   0  0  0  0  0  0  0  0  0  0  0  0
  -28.0987  -25.1092   17.8635 C   0  0  0  0  0  0  0  0  0  0  0  0
  -26.7043  -25.4871   18.3513 C   0  0  0  0  0  0  0  0  0  1  0  0
  -20.2555  -26.0129   22.1947 C   0  0  1  0  0  0  0  0  0  0  0  0
  -17.6798  -24.9439   19.6271 C   0  0  2  0  0  0  0  0  0  0  0  0
  -20.2230  -25.4397   23.6396 C   0  0  0  0  0  0  0  0  0  0  0  0
  -28.6599  -15.3166   21.3399 N   0  0  0  0  0  0  0  0  0  0  0  0
  -29.9718  -15.4896   21.1050 N   0  0  0  0  0  0  0  0  0  0  0  0
  -21.6114  -27.9641   21.5031 N   0  0  0  0  0  0  0  0  0  0  0  0
  -30.4506  -19.0725   22.3367 N   0  0  0  0  0  0  0  0  0  0  0  0
  -31.8378  -14.5255   20.0099 N   0  0  0  0  0  0  0  0  0  0  0  0
  -28.4834  -11.6477   19.0813 N   0  0  0  0  0  0  0  0  0  0  0  0
  -30.1085  -20.4115   20.4255 N   0  0  0  0  0  0  0  0  0  0  0  0
  -23.3831  -30.7716   23.0115 N   0  0  0  0  0  0  0  0  0  0  0  0
  -19.0420  -25.7618   21.4248 N   0  0  0  0  0  0  0  0  0  0  0  0
  -17.7537  -24.9796   18.1390 N   0  3  0  0  0  0  0  0  0  0  0  0
  -30.7180  -12.0633   18.7770 O   0  0  0  0  0  0  0  0  0  0  0  0
  -23.3621  -28.4609   23.2986 O   0  0  0  0  0  0  0  0  0  0  0  0
  -19.6449  -28.2430   22.7243 O   0  0  0  0  0  0  0  0  0  0  0  0
  -20.0731  -24.6191   19.6904 O   0  0  0  0  0  0  0  0  0  0  0  0
  -31.2623  -21.2357   22.2615 O   0  0  0  0  0  0  0  0  0  0  0  0
  -23.1899  -12.1094   20.7551 O   0  0  0  0  0  0  0  0  0  0  0  0
  -26.2455  -26.6432   17.6518 O   0  0  0  0  0  0  0  0  0  1  0  0
  -22.5915   -6.7074   21.6851 F   0  0  0  0  0  0  0  0  0  0  0  0
  -21.7361  -11.1957   22.9217 F   0  0  0  0  0  0  0  0  0  0  0  0
  1  2  1  0  0  0  0
  1  5  2  0  0  0  0
  2  6  2  0  0  0  0
  3  8  2  0  0  0  0
  3 17  1  0  0  0  0
  4  9  1  0  0  0  0
  4 17  2  0  0  0  0
  5 19  1  0  0  0  0
  6 21  1  0  0  0  0
  7 10  2  0  0  0  0
  7 20  1  0  0  0  0
  8 27  1  0  0  0  0
  9 27  2  0  0  0  0
 10 28  1  0  0  0  0
 11 12  2  0  0  0  0
 11 29  1  0  0  0  0
 12 30  1  0  0  0  0
 13 22  1  0  0  0  0
 13 28  2  0  0  0  0
 14 23  1  0  0  0  0
 14 24  2  0  0  0  0
 15 25  1  0  0  0  0
 15 26  2  0  0  0  0
 16 30  2  0  0  0  0
 16 31  1  0  0  0  0
 17 32  1  0  0  0  0
 18 32  1  0  0  0  0
 18 33  2  0  0  0  0
 18 34  1  0  0  0  0
 19 21  2  0  0  0  0
 19 39  1  0  0  0  0
 20 22  2  0  0  0  0
 20 40  1  0  0  0  0
 21 48  1  0  0  0  0
 22 41  1  0  0  0  0
 23 25  2  0  0  0  0
 23 58  1  0  0  0  0
 24 26  1  0  0  0  0
 24 51  1  0  0  0  0
 25 52  1  0  0  0  0
 26 69  1  0  0  0  0
 27 78  1  0  0  0  0
 28 79  1  0  0  0  0
 29 31  2  0  0  0  0
 29 78  1  0  0  0  0
 30 80  1  0  0  0  0
 31 81  1  0  0  0  0
 32 63  2  0  0  0  0
 33 64  1  0  0  0  0
 33 67  1  0  0  0  0
 34 68  1  0  0  0  0
 34 73  2  0  0  0  0
 35 49  1  0  0  0  0
 35 70  1  0  0  0  0
 35 74  2  0  0  0  0
 36 60  1  0  0  0  0
 36 65  1  0  0  0  0
 36 75  2  0  0  0  0
 37 61  1  0  0  0  0
 37 71  1  0  0  0  0
 37 76  2  0  0  0  0
 38 66  1  0  0  0  0
 38 69  1  0  0  0  0
 38 77  2  0  0  0  0
 39 42  1  0  0  0  0
 40 49  1  0  0  0  0
 41 65  1  0  0  0  0
 42 44  1  0  0  0  0
 43 45  1  0  0  0  0
 43 46  1  0  0  0  0
 44 48  1  0  0  0  0
 45 50  1  0  0  0  0
 46 66  1  0  0  0  0
 47 50  1  0  0  0  0
 47 66  1  0  0  0  0
 48 70  1  0  0  0  0
 49 65  1  0  0  0  0
 50 64  1  0  0  0  0
 53 61  1  0  0  0  0
 54 62  1  0  0  0  0
 55 62  1  0  0  0  0
 56 62  1  0  0  0  0
 57 72  1  0  0  0  0
 58 59  1  0  0  0  0
 59 79  1  0  0  0  0
 60 62  1  0  0  0  0
 60 71  1  0  0  0  0
 61 72  1  0  0  0  0
 63 64  1  0  0  0  0
M  CHG  1  72   1
M  ISO  4  38 100  59 101  69 100  79 101
M  END
> <Batch ID>
0029

> <Smiles>
CNC(C)C(=O)NC(C(=O)N1Cc2cc([101O:1][101CH2:1]Cc3cc(C)c([100NH:0][100C:0](=O)N4CCCC(n5nc(-c6ccc(Oc7ccc(F)cc7F)cc6)c(C(N)=O)c5N)C4)cc3C)ccc2CC1C(=O)NC1CCCc2ccccc21)C(C)(C)C

> <Shape>
0.333

> <Color>
0.067

> <Negative vol penalty>
0.000

$$$$

  -OEChem-04052316363D

 83 91  0     1  0  0  0  0  0999 V2000
  -16.9014  -27.9526   23.8516 C   0  0  0  0  0  0  0  0  0  0  0  0
  -17.8745  -27.0716   23.3908 C   0  0  0  0  0  0  0  0  0  0  0  0
  -24.5116   -9.8123   21.7384 C   0  0  0  0  0  0  0  0  0  0  0  0
  -24.9200  -11.3134   23.5868 C   0  0  0  0  0  0  0  0  0  0  0  0
  -28.4849  -20.4095   21.2987 C   0  0  0  0  0  0  0  0  0  0  0  0
  -17.0154  -29.3165   23.5858 C   0  0  0  0  0  0  0  0  0  0  0  0
  -18.9618  -27.5540   22.6630 C   0  0  0  0  0  0  0  0  0  0  0  0
  -24.7005  -25.4179   22.7666 C   0  0  0  0  0  0  0  0  0  0  0  0
  -29.0149  -19.1722   21.6644 C   0  0  0  0  0  0  0  0  0  0  0  0
  -24.3650   -8.7515   22.6322 C   0  0  0  0  0  0  0  0  0  0  0  0
  -24.7733  -10.2527   24.4807 C   0  0  0  0  0  0  0  0  0  0  0  0
  -25.3963  -24.5569   21.9191 C   0  0  0  0  0  0  0  0  0  0  0  0
  -21.9816   -7.5588   24.7130 C   0  0  0  0  0  0  0  0  0  0  0  0
  -20.9088   -6.6893   24.5167 C   0  0  0  0  0  0  0  0  0  0  0  0
  -26.3181  -26.4578   20.7547 C   0  0  0  0  0  0  0  0  0  0  0  0
  -22.4498   -4.8471   24.2545 C   0  0  0  0  0  0  0  0  0  0  0  0
  -24.7892  -11.0932   22.2157 C   0  0  0  0  0  0  0  0  0  0  0  0
  -29.1221  -21.1815   20.3272 C   0  0  0  0  0  0  0  0  0  0  0  0
  -23.9314  -13.0479   20.8189 C   0  0  0  0  0  0  0  0  0  0  0  0
  -18.1096  -29.8170   22.8627 C   0  0  0  0  0  0  0  0  0  0  0  0
  -24.7999  -26.8076   22.6073 C   0  0  0  0  0  0  0  0  0  0  0  0
  -19.0899  -28.9257   22.3862 C   0  0  0  0  0  0  0  0  0  0  0  0
  -25.6246  -27.3343   21.6031 C   0  0  0  0  0  0  0  0  0  0  0  0
  -30.1821  -18.7068   21.0588 C   0  0  0  0  0  0  0  0  0  0  0  0
  -24.4958   -8.9717   24.0034 C   0  0  0  0  0  0  0  0  0  0  0  0
  -26.2030  -25.0767   20.9111 C   0  0  0  0  0  0  0  0  0  0  0  0
  -23.2886   -7.0725   24.6800 C   0  0  0  0  0  0  0  0  0  0  0  0
  -21.1429   -5.3334   24.2875 C   0  0  0  0  0  0  0  0  0  0  0  0
  -23.5227   -5.7167   24.4508 C   0  0  0  0  0  0  0  0  0  0  0  0
  -30.2892  -20.7162   19.7215 C   0  0  0  0  0  0  0  0  0  0  0  0
  -30.8193  -19.4788   20.0873 C   0  0  0  0  0  0  0  0  0  0  0  0
  -24.9413  -12.1893   21.2929 C   0  0  0  0  0  0  0  0  0  0  0  0
  -24.5840  -13.9121   19.9740 C   0  0  0  0  0  0  0  0  0  0  0  0
  -28.5523  -22.5038   19.9391 C   0  0  0  0  0  0  0  0  0  0  0  0
  -22.5288  -13.0631   21.1159 C   0  0  0  0  0  0  0  0  0  0  0  0
  -22.7500  -29.1398   21.9272 C   0  0  0  0  0  0  0  0  0  0  0  0
  -25.3156  -31.0364   22.5127 C   0  0  0  0  0  0  0  0  0  0  0  0
  -28.7104  -31.3558   22.6535 C   0  0  0  0  0  0  0  0  0  0  0  0
  -30.2671  -15.7657   19.6313 C   0  0  0  0  0  0  0  0  0  0  0  0
  -18.1652  -31.2934   22.5595 C   0  0  0  0  0  0  0  0  0  0  0  0
  -24.0639  -27.7232   23.5467 C   0  0  0  0  0  0  0  0  0  0  0  0
  -25.7813  -28.8189   21.4031 C   0  0  0  0  0  0  0  0  0  0  0  0
  -19.5418  -31.7701   22.1034 C   0  0  0  0  0  0  0  0  0  0  0  0
  -28.3810  -14.1603   17.0736 C   0  0  0  0  0  0  0  0  0  0  0  0
  -20.1110  -30.8267   21.0485 C   0  0  0  0  0  0  0  0  0  0  0  0
  -27.1944  -13.5506   17.8222 C   0  0  0  0  0  0  0  0  0  0  0  0
  -29.6626  -14.0986   17.9016 C   0  0  0  0  0  0  0  0  0  0  0  0
  -28.3701  -14.0740   19.9999 C   0  0  0  0  0  0  0  0  0  0  0  0
  -20.2968  -29.4137   21.6146 C   0  0  1  0  0  0  0  0  0  0  0  0
  -23.8346  -29.1155   22.9668 C   0  0  1  0  0  0  0  0  0  0  0  0
  -27.0430  -14.1636   19.2273 C   0  0  2  0  0  0  0  0  0  0  0  0
  -30.5130  -33.0368   23.1248 C   0  0  0  0  0  0  0  0  0  0  0  0
  -24.8444  -32.3048   19.7779 C   0  0  0  0  0  0  0  0  0  0  0  0
  -27.1577  -33.2549   19.8974 C   0  0  0  0  0  0  0  0  0  0  0  0
  -25.4484  -33.9217   21.5876 C   0  0  0  0  0  0  0  0  0  0  0  0
  -29.7509  -29.7748   24.9287 C   0  0  0  0  0  0  0  0  0  0  0  0
  -30.7454  -17.3831   21.4519 C   0  0  0  0  0  0  0  0  0  0  0  0
  -27.2826  -22.9780   20.6183 C   0  0  0  0  0  0  0  0  0  1  0  0
  -26.4418  -31.5986   21.6793 C   0  0  1  0  0  0  0  0  0  0  0  0
  -29.6232  -31.9514   23.7102 C   0  0  2  0  0  0  0  0  0  0  0  0
  -25.9688  -32.7420   20.7378 C   0  0  0  0  0  0  0  0  0  0  0  0
  -26.1440  -12.4813   20.7907 N   0  0  0  0  0  0  0  0  0  0  0  0
  -25.8940  -13.5330   19.9923 N   0  0  0  0  0  0  0  0  0  0  0  0
  -25.0364  -29.6729   22.3430 N   0  0  0  0  0  0  0  0  0  0  0  0
  -29.4520  -14.6976   19.2218 N   0  0  0  0  0  0  0  0  0  0  0  0
  -24.1593  -14.9515   19.2246 N   0  0  0  0  0  0  0  0  0  0  0  0
  -22.0237  -12.1046   22.0049 N   0  0  0  0  0  0  0  0  0  0  0  0
  -21.4843  -29.3519   22.4396 N   0  0  0  0  0  0  0  0  0  0  0  0
  -27.4873  -31.9915   22.6179 N   0  0  0  0  0  0  0  0  0  0  0  0
  -29.9965  -16.2793   20.8937 N   0  0  0  0  0  0  0  0  0  0  0  0
  -30.4950  -30.8946   24.2969 N   0  3  0  0  0  0  0  0  0  0  0  0
  -29.1179  -23.1806   19.0833 O   0  0  0  0  0  0  0  0  0  0  0  0
  -21.7438  -13.8915   20.5952 O   0  0  0  0  0  0  0  0  0  0  0  0
  -23.0401  -28.9795   20.7475 O   0  0  0  0  0  0  0  0  0  0  0  0
  -24.7106  -31.7780   23.2909 O   0  0  0  0  0  0  0  0  0  0  0  0
  -29.0499  -30.4226   21.9293 O   0  0  0  0  0  0  0  0  0  0  0  0
  -31.1658  -16.2309   18.9221 O   0  0  0  0  0  0  0  0  0  0  0  0
  -24.3526   -7.9369   24.8758 O   0  0  0  0  0  0  0  0  0  0  0  0
  -26.8827  -24.2385   20.0821 O   0  0  0  0  0  0  0  0  0  1  0  0
  -20.1125   -4.4983   24.1006 F   0  0  0  0  0  0  0  0  0  0  0  0
  -24.7760   -5.2435   24.4192 F   0  0  0  0  0  0  0  0  0  0  0  0
  -30.9099  -21.4501   18.7868 F   0  0  0  0  0  0  0  0  0  0  0  0
  -31.9411  -19.0401   19.5000 F   0  0  0  0  0  0  0  0  0  0  0  0
  1  2  1  0  0  0  0
  1  6  2  0  0  0  0
  2  7  2  0  0  0  0
  3 10  2  0  0  0  0
  3 17  1  0  0  0  0
  4 11  1  0  0  0  0
  4 17  2  0  0  0  0
  5  9  2  0  0  0  0
  5 18  1  0  0  0  0
  6 20  1  0  0  0  0
  7 22  1  0  0  0  0
  8 12  2  0  0  0  0
  8 21  1  0  0  0  0
  9 24  1  0  0  0  0
 10 25  1  0  0  0  0
 11 25  2  0  0  0  0
 12 26  1  0  0  0  0
 13 14  2  0  0  0  0
 13 27  1  0  0  0  0
 14 28  1  0  0  0  0
 15 23  1  0  0  0  0
 15 26  2  0  0  0  0
 16 28  2  0  0  0  0
 16 29  1  0  0  0  0
 17 32  1  0  0  0  0
 18 30  2  0  0  0  0
 18 34  1  0  0  0  0
 19 32  1  0  0  0  0
 19 33  2  0  0  0  0
 19 35  1  0  0  0  0
 20 22  2  0  0  0  0
 20 40  1  0  0  0  0
 21 23  2  0  0  0  0
 21 41  1  0  0  0  0
 22 49  1  0  0  0  0
 23 42  1  0  0  0  0
 24 31  2  0  0  0  0
 24 57  1  0  0  0  0
 25 78  1  0  0  0  0
 26 79  1  0  0  0  0
 27 29  2  0  0  0  0
 27 78  1  0  0  0  0
 28 80  1  0  0  0  0
 29 81  1  0  0  0  0
 30 31  1  0  0  0  0
 30 82  1  0  0  0  0
 31 83  1  0  0  0  0
 32 62  2  0  0  0  0
 33 63  1  0  0  0  0
 33 66  1  0  0  0  0
 34 58  1  0  0  0  0
 34 72  2  0  0  0  0
 35 67  1  0  0  0  0
 35 73  2  0  0  0  0
 36 50  1  0  0  0  0
 36 68  1  0  0  0  0
 36 74  2  0  0  0  0
 37 59  1  0  0  0  0
 37 64  1  0  0  0  0
 37 75  2  0  0  0  0
 38 60  1  0  0  0  0
 38 69  1  0  0  0  0
 38 76  2  0  0  0  0
 39 65  1  0  0  0  0
 39 70  1  0  0  0  0
 39 77  2  0  0  0  0
 40 43  1  0  0  0  0
 41 50  1  0  0  0  0
 42 64  1  0  0  0  0
 43 45  1  0  0  0  0
 44 46  1  0  0  0  0
 44 47  1  0  0  0  0
 45 49  1  0  0  0  0
 46 51  1  0  0  0  0
 47 65  1  0  0  0  0
 48 51  1  0  0  0  0
 48 65  1  0  0  0  0
 49 68  1  0  0  0  0
 50 64  1  0  0  0  0
 51 63  1  0  0  0  0
 52 60  1  0  0  0  0
 53 61  1  0  0  0  0
 54 61  1  0  0  0  0
 55 61  1  0  0  0  0
 56 71  1  0  0  0  0
 57 70  1  0  0  0  0
 58 79  1  0  0  0  0
 59 61  1  0  0  0  0
 59 69  1  0  0  0  0
 60 71  1  0  0  0  0
 62 63  1  0  0  0  0
M  CHG  1  71   1
M  ISO  4  39 100  58 101  70 100  79 101
M  END
> <Batch ID>
0029

> <Smiles>
CNC(C)C(=O)NC(C(=O)N1Cc2cc([101O:1][101CH2:1]C(=O)c3ccc(C[100NH:0][100C:0](=O)N4CCCC(n5nc(-c6ccc(Oc7ccc(F)cc7F)cc6)c(C(N)=O)c5N)C4)c(F)c3F)ccc2CC1C(=O)NC1CCCc2ccccc21)C(C)(C)C

> <Shape>
0.280

> <Color>
0.103

> <Negative vol penalty>
0.000

$$$$

  -OEChem-04052316363D

 87 95  0     1  0  0  0  0  0999 V2000
  -17.2545  -24.3315   22.6698 C   0  0  0  0  0  0  0  0  0  0  0  0
  -18.1588  -24.0848   21.6418 C   0  0  0  0  0  0  0  0  0  0  0  0
  -26.3380  -12.2645   21.3463 C   0  0  0  0  0  0  0  0  0  0  0  0
  -24.9591  -13.2562   19.6280 C   0  0  0  0  0  0  0  0  0  0  0  0
  -17.2873  -25.5491   23.3483 C   0  0  0  0  0  0  0  0  0  0  0  0
  -19.0958  -25.0561   21.2909 C   0  0  0  0  0  0  0  0  0  0  0  0
  -23.7315  -23.1310   20.6210 C   0  0  0  0  0  0  0  0  0  0  0  0
  -25.2657  -11.4674   21.7468 C   0  0  0  0  0  0  0  0  0  0  0  0
  -23.8868  -12.4591   20.0286 C   0  0  0  0  0  0  0  0  0  0  0  0
  -23.9785  -22.4690   19.4191 C   0  0  0  0  0  0  0  0  0  0  0  0
  -21.5800  -12.4447   22.5003 C   0  0  0  0  0  0  0  0  0  0  0  0
  -20.3316  -13.0539   22.6274 C   0  0  0  0  0  0  0  0  0  0  0  0
  -25.0762  -24.4403   18.5658 C   0  0  0  0  0  0  0  0  0  0  0  0
  -26.8426  -21.0262   15.1911 C   0  0  0  0  0  0  0  0  0  0  0  0
  -25.8239  -18.9124   15.7661 C   0  0  0  0  0  0  0  0  0  0  0  0
  -19.4309  -11.5557   20.9596 C   0  0  0  0  0  0  0  0  0  0  0  0
  -26.1847  -13.1589   20.2869 C   0  0  0  0  0  0  0  0  0  0  0  0
  -28.2692  -13.6719   18.9088 C   0  0  0  0  0  0  0  0  0  0  0  0
  -18.2315  -26.5320   23.0121 C   0  0  0  0  0  0  0  0  0  0  0  0
  -24.1462  -24.4585   20.8006 C   0  0  0  0  0  0  0  0  0  0  0  0
  -19.1404  -26.2885   21.9647 C   0  0  0  0  0  0  0  0  0  0  0  0
  -24.8356  -25.1161   19.7718 C   0  0  0  0  0  0  0  0  0  0  0  0
  -25.7042  -20.2703   15.4707 C   0  0  0  0  0  0  0  0  0  0  0  0
  -28.1008  -20.4241   15.2069 C   0  0  0  0  0  0  0  0  0  0  0  0
  -24.0401  -11.5647   21.0880 C   0  0  0  0  0  0  0  0  0  0  0  0
  -24.6483  -23.1245   18.3903 C   0  0  0  0  0  0  0  0  0  0  0  0
  -21.7538  -11.3911   21.6028 C   0  0  0  0  0  0  0  0  0  0  0  0
  -19.2571  -12.6094   21.8571 C   0  0  0  0  0  0  0  0  0  0  0  0
  -20.6793  -10.9466   20.8325 C   0  0  0  0  0  0  0  0  0  0  0  0
  -27.0820  -18.3103   15.7820 C   0  0  0  0  0  0  0  0  0  0  0  0
  -28.2205  -19.0662   15.5024 C   0  0  0  0  0  0  0  0  0  0  0  0
  -27.2918  -13.9830   19.8730 C   0  0  0  0  0  0  0  0  0  0  0  0
  -29.0900  -14.7729   18.8844 C   0  0  0  0  0  0  0  0  0  0  0  0
  -28.4216  -12.4932   18.1069 C   0  0  0  0  0  0  0  0  0  0  0  0
  -22.6649  -27.2156   21.3555 C   0  0  0  0  0  0  0  0  0  0  0  0
  -25.6947  -28.3372   21.6465 C   0  0  0  0  0  0  0  0  0  0  0  0
  -29.0023  -27.9786   20.8864 C   0  0  0  0  0  0  0  0  0  0  0  0
  -28.1090  -20.4406   20.2150 C   0  0  0  0  0  0  0  0  0  0  0  0
  -18.1976  -27.8511   23.7424 C   0  0  0  0  0  0  0  0  0  0  0  0
  -23.8957  -25.1498   22.1128 C   0  0  0  0  0  0  0  0  0  0  0  0
  -25.3195  -26.5345   19.9218 C   0  0  0  0  0  0  0  0  0  0  0  0
  -19.4655  -28.6814   23.5594 C   0  0  0  0  0  0  0  0  0  0  0  0
  -30.6653  -18.3320   21.6699 C   0  0  0  0  0  0  0  0  0  0  0  0
  -19.8735  -28.7159   22.0900 C   0  0  0  0  0  0  0  0  0  0  0  0
  -30.1719  -16.9390   21.2746 C   0  0  0  0  0  0  0  0  0  0  0  0
  -29.4998  -19.2533   22.0175 C   0  0  0  0  0  0  0  0  0  0  0  0
  -27.9783  -17.9882   20.5485 C   0  0  0  0  0  0  0  0  0  0  0  0
  -20.1879  -27.3075   21.5715 C   0  0  1  0  0  0  0  0  0  0  0  0
  -23.9088  -26.6711   21.9988 C   0  0  1  0  0  0  0  0  0  0  0  0
  -29.1080  -17.0158   20.1635 C   0  0  2  0  0  0  0  0  0  0  0  0
  -31.4678  -28.4429   20.9416 C   0  0  0  0  0  0  0  0  0  0  0  0
  -24.9728  -30.4630   19.5802 C   0  0  0  0  0  0  0  0  0  0  0  0
  -27.4196  -30.8941   19.2713 C   0  0  0  0  0  0  0  0  0  0  0  0
  -26.3552  -31.2932   21.4917 C   0  0  0  0  0  0  0  0  0  0  0  0
  -29.4035  -26.1959   23.2145 C   0  0  0  0  0  0  0  0  0  0  0  0
  -24.3430  -20.9223   15.4542 C   0  0  0  0  0  0  0  0  0  0  0  0
  -29.2906  -21.2767   14.9005 C   0  0  0  0  0  0  0  0  0  0  0  0
  -29.5620  -23.5848   19.3847 C   0  0  0  0  0  0  0  0  0  0  0  0
  -30.2458  -22.7172   18.3214 C   0  0  0  0  0  0  0  0  0  0  0  0
  -28.3441  -22.9014   19.9998 C   0  0  0  0  0  0  0  0  0  0  0  0
  -29.3567  -22.4223   17.1190 C   0  0  0  0  0  0  0  0  0  0  0  0
  -23.9517  -21.4823   16.8174 C   0  0  0  0  0  0  0  0  0  1  0  0
  -26.7147  -28.9198   20.6983 C   0  0  1  0  0  0  0  0  0  0  0  0
  -30.2472  -28.0375   21.7531 C   0  0  2  0  0  0  0  0  0  0  0  0
  -26.3549  -30.3665   20.2565 C   0  0  0  0  0  0  0  0  0  0  0  0
  -27.4735  -15.1872   20.4215 N   0  0  0  0  0  0  0  0  0  0  0  0
  -28.5746  -15.6425   19.8000 N   0  0  0  0  0  0  0  0  0  0  0  0
  -25.0450  -27.1698   21.2212 N   0  0  0  0  0  0  0  0  0  0  0  0
  -28.5329  -19.2966   20.9114 N   0  0  0  0  0  0  0  0  0  0  0  0
  -30.1952  -15.0724   18.1693 N   0  0  0  0  0  0  0  0  0  0  0  0
  -27.4897  -11.4573   18.2580 N   0  0  0  0  0  0  0  0  0  0  0  0
  -21.4981  -26.8852   22.0180 N   0  0  0  0  0  0  0  0  0  0  0  0
  -28.0065  -28.8028   21.3661 N   0  0  0  0  0  0  0  0  0  0  0  0
  -28.6769  -21.6407   20.6249 N   0  0  0  0  0  0  0  0  0  0  0  0
  -30.5131  -26.7066   22.3689 N   0  3  0  0  0  0  0  0  0  0  0  0
  -30.0920  -21.6208   16.1053 N   0  3  0  0  0  0  0  0  0  0  0  0
  -29.3658  -12.3556   17.2927 O   0  0  0  0  0  0  0  0  0  0  0  0
  -22.7570  -27.8872   20.3346 O   0  0  0  0  0  0  0  0  0  0  0  0
  -25.4874  -28.8933   22.7279 O   0  0  0  0  0  0  0  0  0  0  0  0
  -28.9227  -27.2748   19.8819 O   0  0  0  0  0  0  0  0  0  0  0  0
  -27.2886  -20.3954   19.2920 O   0  0  0  0  0  0  0  0  0  0  0  0
  -22.9936  -10.7869   21.4784 O   0  0  0  0  0  0  0  0  0  0  0  0
  -24.8901  -22.4809   17.2159 O   0  0  0  0  0  0  0  0  0  1  0  0
  -18.0580  -13.1934   21.9803 F   0  0  0  0  0  0  0  0  0  0  0  0
  -20.8399   -9.9341   19.9695 F   0  0  0  0  0  0  0  0  0  0  0  0
  -27.1578  -16.6232   16.1561 Cl  0  0  0  0  0  0  0  0  0  0  0  0
  -29.7965  -18.3402   15.5137 Cl  0  0  0  0  0  0  0  0  0  0  0  0
  1  2  1  0  0  0  0
  1  5  2  0  0  0  0
  2  6  2  0  0  0  0
  3  8  2  0  0  0  0
  3 17  1  0  0  0  0
  4  9  1  0  0  0  0
  4 17  2  0  0  0  0
  5 19  1  0  0  0  0
  6 21  1  0  0  0  0
  7 10  2  0  0  0  0
  7 20  1  0  0  0  0
  8 25  1  0  0  0  0
  9 25  2  0  0  0  0
 10 26  1  0  0  0  0
 11 12  2  0  0  0  0
 11 27  1  0  0  0  0
 12 28  1  0  0  0  0
 13 22  1  0  0  0  0
 13 26  2  0  0  0  0
 14 23  2  0  0  0  0
 14 24  1  0  0  0  0
 15 23  1  0  0  0  0
 15 30  2  0  0  0  0
 16 28  2  0  0  0  0
 16 29  1  0  0  0  0
 17 32  1  0  0  0  0
 18 32  1  0  0  0  0
 18 33  2  0  0  0  0
 18 34  1  0  0  0  0
 19 21  2  0  0  0  0
 19 39  1  0  0  0  0
 20 22  2  0  0  0  0
 20 40  1  0  0  0  0
 21 48  1  0  0  0  0
 22 41  1  0  0  0  0
 23 56  1  0  0  0  0
 24 31  2  0  0  0  0
 24 57  1  0  0  0  0
 25 82  1  0  0  0  0
 26 83  1  0  0  0  0
 27 29  2  0  0  0  0
 27 82  1  0  0  0  0
 28 84  1  0  0  0  0
 29 85  1  0  0  0  0
 30 31  1  0  0  0  0
 30 86  1  0  0  0  0
 31 87  1  0  0  0  0
 32 66  2  0  0  0  0
 33 67  1  0  0  0  0
 33 70  1  0  0  0  0
 34 71  1  0  0  0  0
 34 77  2  0  0  0  0
 35 49  1  0  0  0  0
 35 72  1  0  0  0  0
 35 78  2  0  0  0  0
 36 63  1  0  0  0  0
 36 68  1  0  0  0  0
 36 79  2  0  0  0  0
 37 64  1  0  0  0  0
 37 73  1  0  0  0  0
 37 80  2  0  0  0  0
 38 69  1  0  0  0  0
 38 74  1  0  0  0  0
 38 81  2  0  0  0  0
 39 42  1  0  0  0  0
 40 49  1  0  0  0  0
 41 68  1  0  0  0  0
 42 44  1  0  0  0  0
 43 45  1  0  0  0  0
 43 46  1  0  0  0  0
 44 48  1  0  0  0  0
 45 50  1  0  0  0  0
 46 69  1  0  0  0  0
 47 50  1  0  0  0  0
 47 69  1  0  0  0  0
 48 72  1  0  0  0  0
 49 68  1  0  0  0  0
 50 67  1  0  0  0  0
 51 64  1  0  0  0  0
 52 65  1  0  0  0  0
 53 65  1  0  0  0  0
 54 65  1  0  0  0  0
 55 75  1  0  0  0  0
 56 62  1  0  0  0  0
 57 76  1  0  0  0  0
 58 59  1  0  0  0  0
 58 60  1  0  0  0  0
 59 61  1  0  0  0  0
 60 74  1  0  0  0  0
 61 76  1  0  0  0  0
 62 83  1  0  0  0  0
 63 65  1  0  0  0  0
 63 73  1  0  0  0  0
 64 75  1  0  0  0  0
 66 67  1  0  0  0  0
M  CHG  2  75   1  76   1
M  ISO  4  38 100  62 101  74 100  83 101
M  END
> <Batch ID>
0029

> <Smiles>
CNC(C)C(=O)NC(C(=O)N1Cc2cc([101O:1][101CH2:1]Cc3cc(Cl)c(Cl)c(CNCCCC[100NH:0][100C:0](=O)N4CCCC(n5nc(-c6ccc(Oc7ccc(F)cc7F)cc6)c(C(N)=O)c5N)C4)c3)ccc2CC1C(=O)NC1CCCc2ccccc21)C(C)(C)C

> <Shape>
0.267

> <Color>
0.046

> <Negative vol penalty>
0.000

$$$$

  -OEChem-04052316363D

 86 94  0     1  0  0  0  0  0999 V2000
  -16.3661  -30.4802   23.6688 C   0  0  0  0  0  0  0  0  0  0  0  0
  -16.9656  -29.2264   23.6055 C   0  0  0  0  0  0  0  0  0  0  0  0
  -23.1257   -9.7695   19.9517 C   0  0  0  0  0  0  0  0  0  0  0  0
  -23.8554   -9.8419   22.2538 C   0  0  0  0  0  0  0  0  0  0  0  0
  -17.0548  -31.6047   23.2160 C   0  0  0  0  0  0  0  0  0  0  0  0
  -18.2540  -29.0963   23.0882 C   0  0  0  0  0  0  0  0  0  0  0  0
  -22.5707  -25.1516   24.9080 C   0  0  0  0  0  0  0  0  0  0  0  0
  -22.3920   -8.6140   20.2206 C   0  0  0  0  0  0  0  0  0  0  0  0
  -23.1217   -8.6864   22.5227 C   0  0  0  0  0  0  0  0  0  0  0  0
  -22.9879  -23.9200   24.4052 C   0  0  0  0  0  0  0  0  0  0  0  0
  -19.8954   -7.8652   23.1034 C   0  0  0  0  0  0  0  0  0  0  0  0
  -19.1237   -7.8450   24.2651 C   0  0  0  0  0  0  0  0  0  0  0  0
  -24.7611  -25.0213   23.1959 C   0  0  0  0  0  0  0  0  0  0  0  0
  -20.3779   -5.9412   25.0651 C   0  0  0  0  0  0  0  0  0  0  0  0
  -28.4075  -17.3381   24.1876 C   0  0  0  0  0  0  0  0  0  0  0  0
  -23.8574  -10.3834   20.9683 C   0  0  0  0  0  0  0  0  0  0  0  0
  -24.1714  -12.9088   20.7903 C   0  0  0  0  0  0  0  0  0  0  0  0
  -18.3560  -31.4896   22.7018 C   0  0  0  0  0  0  0  0  0  0  0  0
  -23.2399  -26.3305   24.5493 C   0  0  0  0  0  0  0  0  0  0  0  0
  -18.9603  -30.2201   22.6268 C   0  0  0  0  0  0  0  0  0  0  0  0
  -24.3519  -26.2663   23.6975 C   0  0  0  0  0  0  0  0  0  0  0  0
  -22.3900   -8.0725   21.5060 C   0  0  0  0  0  0  0  0  0  0  0  0
  -24.0815  -23.8550   23.5467 C   0  0  0  0  0  0  0  0  0  0  0  0
  -20.9083   -6.9233   22.9224 C   0  0  0  0  0  0  0  0  0  0  0  0
  -19.3650   -6.8830   25.2460 C   0  0  0  0  0  0  0  0  0  0  0  0
  -21.1495   -5.9614   23.9033 C   0  0  0  0  0  0  0  0  0  0  0  0
  -24.6159  -11.5767   20.6911 C   0  0  0  0  0  0  0  0  0  0  0  0
  -29.6721  -17.4430   24.7300 C   0  0  0  0  0  0  0  0  0  0  0  0
  -27.5089  -18.3107   24.5758 C   0  0  0  0  0  0  0  0  0  0  0  0
  -25.2594  -13.6621   20.4226 C   0  0  0  0  0  0  0  0  0  0  0  0
  -29.0760  -19.3065   25.8872 C   0  0  0  0  0  0  0  0  0  0  0  0
  -22.8896  -13.4195   21.1800 C   0  0  0  0  0  0  0  0  0  0  0  0
  -22.4244  -28.9975   23.0241 C   0  0  0  0  0  0  0  0  0  0  0  0
  -25.4082  -29.9376   23.8818 C   0  0  0  0  0  0  0  0  0  0  0  0
  -28.5812  -29.0511   24.7724 C   0  0  0  0  0  0  0  0  0  0  0  0
  -30.7280  -14.7508   20.6558 C   0  0  0  0  0  0  0  0  0  0  0  0
  -19.0427  -32.7271   22.1806 C   0  0  0  0  0  0  0  0  0  0  0  0
  -22.7938  -27.6481   25.1214 C   0  0  0  0  0  0  0  0  0  0  0  0
  -25.1171  -27.5004   23.2978 C   0  0  0  0  0  0  0  0  0  0  0  0
  -20.5479  -32.5552   21.9931 C   0  0  0  0  0  0  0  0  0  0  0  0
  -29.6495  -12.2950   18.3144 C   0  0  0  0  0  0  0  0  0  0  0  0
  -20.8501  -31.2437   21.2753 C   0  0  0  0  0  0  0  0  0  0  0  0
  -28.2100  -11.9949   18.7360 C   0  0  0  0  0  0  0  0  0  0  0  0
  -30.5482  -12.5562   19.5210 C   0  0  0  0  0  0  0  0  0  0  0  0
  -28.6201  -13.2984   20.8647 C   0  0  0  0  0  0  0  0  0  0  0  0
  -20.3659  -30.0417   22.0952 C   0  0  1  0  0  0  0  0  0  0  0  0
  -23.2327  -28.8436   24.2814 C   0  0  1  0  0  0  0  0  0  0  0  0
  -27.6636  -13.0833   19.6794 C   0  0  2  0  0  0  0  0  0  0  0  0
  -29.4472  -20.3997   26.8307 C   0  0  0  0  0  0  0  0  0  0  0  0
  -30.8073  -30.0406   25.3747 C   0  0  0  0  0  0  0  0  0  0  0  0
  -25.9151  -30.5803   20.9424 C   0  0  0  0  0  0  0  0  0  0  0  0
  -28.3658  -30.6427   21.4507 C   0  0  0  0  0  0  0  0  0  0  0  0
  -26.8239  -32.2661   22.5506 C   0  0  0  0  0  0  0  0  0  0  0  0
  -25.8586  -17.1623   23.1205 C   0  0  0  0  0  0  0  0  0  0  0  0
  -28.5356  -27.8113   27.4594 C   0  0  0  0  0  0  0  0  0  0  0  0
  -30.7127  -16.4365   24.3694 C   0  0  0  0  0  0  0  0  0  0  0  0
  -31.5555  -16.8058   23.1329 C   0  0  0  0  0  0  0  0  0  0  0  0
  -25.3395  -20.4689   23.5664 C   0  0  0  0  0  0  0  0  0  0  0  0
  -30.7527  -16.9318   21.8399 C   0  0  0  0  0  0  0  0  0  0  0  0
  -25.1994  -19.2036   24.4039 C   0  0  0  0  0  0  0  0  0  0  0  0
  -24.2651  -21.5062   23.8710 C   0  0  0  0  0  0  0  0  0  1  0  0
  -26.7802  -29.8397   23.2595 C   0  0  1  0  0  0  0  0  0  0  0  0
  -29.4788  -29.5217   25.9026 C   0  0  2  0  0  0  0  0  0  0  0  0
  -26.9558  -30.8090   22.0566 C   0  0  0  0  0  0  0  0  0  0  0  0
  -25.8871  -11.4857   20.2915 N   0  0  0  0  0  0  0  0  0  0  0  0
  -30.0420  -18.4179   25.5861 N   0  0  0  0  0  0  0  0  0  0  0  0
  -27.8103  -19.3131   25.4271 N   0  0  0  0  0  0  0  0  0  0  0  0
  -26.2507  -12.7702   20.1363 N   0  0  0  0  0  0  0  0  0  0  0  0
  -24.6383  -28.7658   23.8785 N   0  0  0  0  0  0  0  0  0  0  0  0
  -29.9742  -13.5995   20.3742 N   0  0  0  0  0  0  0  0  0  0  0  0
  -25.4553  -14.9938   20.3194 N   0  0  0  0  0  0  0  0  0  0  0  0
  -21.8840  -12.5069   21.5267 N   0  0  0  0  0  0  0  0  0  0  0  0
  -21.2856  -29.7648   23.1778 N   0  0  0  0  0  0  0  0  0  0  0  0
  -27.7353  -30.0513   24.3418 N   0  0  0  0  0  0  0  0  0  0  0  0
  -30.1071  -15.6929   21.4669 N   0  0  0  0  0  0  0  0  0  0  0  0
  -26.2122  -18.2398   24.0466 N   0  0  3  0  0  0  0  0  0  0  0  0
  -29.7534  -28.4017   26.8466 N   0  3  0  0  0  0  0  0  0  0  0  0
  -22.6384  -14.6482   21.2039 O   0  0  0  0  0  0  0  0  0  0  0  0
  -22.8066  -28.4610   21.9907 O   0  0  0  0  0  0  0  0  0  0  0  0
  -25.0362  -31.0122   24.3597 O   0  0  0  0  0  0  0  0  0  0  0  0
  -28.6285  -27.9115   24.3147 O   0  0  0  0  0  0  0  0  0  0  0  0
  -31.8677  -14.9287   20.2125 O   0  0  0  0  0  0  0  0  0  0  0  0
  -21.6741   -6.9452   21.7688 O   0  0  0  0  0  0  0  0  0  0  0  0
  -24.4904  -22.6542   23.0540 O   0  0  0  0  0  0  0  0  0  1  0  0
  -18.6249   -6.8647   26.3623 F   0  0  0  0  0  0  0  0  0  0  0  0
  -22.1220   -5.0547   23.7356 F   0  0  0  0  0  0  0  0  0  0  0  0
  1  2  1  0  0  0  0
  1  5  2  0  0  0  0
  2  6  2  0  0  0  0
  3  8  2  0  0  0  0
  3 16  1  0  0  0  0
  4  9  1  0  0  0  0
  4 16  2  0  0  0  0
  5 18  1  0  0  0  0
  6 20  1  0  0  0  0
  7 10  2  0  0  0  0
  7 19  1  0  0  0  0
  8 22  1  0  0  0  0
  9 22  2  0  0  0  0
 10 23  1  0  0  0  0
 11 12  2  0  0  0  0
 11 24  1  0  0  0  0
 12 25  1  0  0  0  0
 13 21  1  0  0  0  0
 13 23  2  0  0  0  0
 14 25  2  0  0  0  0
 14 26  1  0  0  0  0
 15 28  2  0  0  0  0
 15 29  1  0  0  0  0
 16 27  1  0  0  0  0
 17 27  1  0  0  0  0
 17 30  2  0  0  0  0
 17 32  1  0  0  0  0
 18 20  2  0  0  0  0
 18 37  1  0  0  0  0
 19 21  2  0  0  0  0
 19 38  1  0  0  0  0
 20 46  1  0  0  0  0
 21 39  1  0  0  0  0
 22 83  1  0  0  0  0
 23 84  1  0  0  0  0
 24 26  2  0  0  0  0
 24 83  1  0  0  0  0
 25 85  1  0  0  0  0
 26 86  1  0  0  0  0
 27 65  2  0  0  0  0
 28 56  1  0  0  0  0
 28 66  1  0  0  0  0
 29 67  2  0  0  0  0
 29 76  1  0  0  0  0
 30 68  1  0  0  0  0
 30 71  1  0  0  0  0
 31 49  1  0  0  0  0
 31 66  2  0  0  0  0
 31 67  1  0  0  0  0
 32 72  1  0  0  0  0
 32 78  2  0  0  0  0
 33 47  1  0  0  0  0
 33 73  1  0  0  0  0
 33 79  2  0  0  0  0
 34 62  1  0  0  0  0
 34 69  1  0  0  0  0
 34 80  2  0  0  0  0
 35 63  1  0  0  0  0
 35 74  1  0  0  0  0
 35 81  2  0  0  0  0
 36 70  1  0  0  0  0
 36 75  1  0  0  0  0
 36 82  2  0  0  0  0
 37 40  1  0  0  0  0
 38 47  1  0  0  0  0
 39 69  1  0  0  0  0
 40 42  1  0  0  0  0
 41 43  1  0  0  0  0
 41 44  1  0  0  0  0
 42 46  1  0  0  0  0
 43 48  1  0  0  0  0
 44 70  1  0  0  0  0
 45 48  1  0  0  0  0
 45 70  1  0  0  0  0
 46 73  1  0  0  0  0
 47 69  1  0  0  0  0
 48 68  1  0  0  0  0
 50 63  1  0  0  0  0
 51 64  1  0  0  0  0
 52 64  1  0  0  0  0
 53 64  1  0  0  0  0
 54 76  1  0  0  0  0
 55 77  1  0  0  0  0
 56 57  1  0  0  0  0
 57 59  1  0  0  0  0
 58 60  1  0  0  0  0
 58 61  1  0  0  0  0
 59 75  1  0  0  0  0
 60 76  1  0  0  0  0
 61 84  1  0  0  0  0
 62 64  1  0  0  0  0
 62 74  1  0  0  0  0
 63 77  1  0  0  0  0
 65 68  1  0  0  0  0
M  CHG  1  77   1
M  ISO  4  36 100  61 101  75 100  84 101
M  END
> <Batch ID>
0029

> <Smiles>
CNC(C)C(=O)NC(C(=O)N1Cc2cc([101O:1][101CH2:1]CCN(C)c3cc(CCC[100NH:0][100C:0](=O)N4CCCC(n5nc(-c6ccc(Oc7ccc(F)cc7F)cc6)c(C(N)=O)c5N)C4)nc(C)n3)ccc2CC1C(=O)NC1CCCc2ccccc21)C(C)(C)C

> <Shape>
0.273

> <Color>
0.213

> <Negative vol penalty>
0.000

$$$$

  -OEChem-04052316363D

 82 90  0     1  0  0  0  0  0999 V2000
  -22.5276  -23.8149   19.5861 C   0  0  0  0  0  0  0  0  0  0  0  0
  -23.7035  -23.1326   19.8812 C   0  0  0  0  0  0  0  0  0  0  0  0
  -22.6207  -27.7733   20.6421 C   0  0  0  0  0  0  0  0  0  0  0  0
  -23.3790  -26.0492   22.1553 C   0  0  0  0  0  0  0  0  0  0  0  0
  -21.2977  -23.2779   19.9641 C   0  0  0  0  0  0  0  0  0  0  0  0
  -23.6502  -21.9132   20.5555 C   0  0  0  0  0  0  0  0  0  0  0  0
  -26.6950  -18.4246   18.5051 C   0  0  0  0  0  0  0  0  0  0  0  0
  -21.3316  -27.6639   21.1635 C   0  0  0  0  0  0  0  0  0  0  0  0
  -22.0899  -25.9399   22.6768 C   0  0  0  0  0  0  0  0  0  0  0  0
  -28.0555  -18.5173   18.7952 C   0  0  0  0  0  0  0  0  0  0  0  0
  -19.6581  -28.7098   23.9091 C   0  0  0  0  0  0  0  0  0  0  0  0
  -18.9758  -29.8901   24.2039 C   0  0  0  0  0  0  0  0  0  0  0  0
  -27.8118  -16.7903   20.4617 C   0  0  0  0  0  0  0  0  0  0  0  0
  -31.4378  -20.3451   20.3938 C   0  0  0  0  0  0  0  0  0  0  0  0
  -31.1303  -22.5022   21.4373 C   0  0  0  0  0  0  0  0  0  0  0  0
  -17.2376  -29.2752   22.6425 C   0  0  0  0  0  0  0  0  0  0  0  0
  -23.6444  -26.9659   21.1380 C   0  0  0  0  0  0  0  0  0  0  0  0
  -26.0064  -27.9255   21.0490 C   0  0  0  0  0  0  0  0  0  0  0  0
  -21.2288  -22.0466   20.6349 C   0  0  0  0  0  0  0  0  0  0  0  0
  -25.8791  -17.5202   19.2000 C   0  0  0  0  0  0  0  0  0  0  0  0
  -22.4183  -21.3598   20.9441 C   0  0  0  0  0  0  0  0  0  0  0  0
  -26.4417  -16.6862   20.1768 C   0  0  0  0  0  0  0  0  0  0  0  0
  -31.2781  -21.7266   20.2874 C   0  0  0  0  0  0  0  0  0  0  0  0
  -31.4496  -19.7390   21.6501 C   0  0  0  0  0  0  0  0  0  0  0  0
  -31.3018  -20.5146   22.8000 C   0  0  0  0  0  0  0  0  0  0  0  0
  -21.0662  -26.7473   22.1808 C   0  0  0  0  0  0  0  0  0  0  0  0
  -28.6136  -17.7021   19.7756 C   0  0  0  0  0  0  0  0  0  0  0  0
  -19.1303  -27.8122   22.9810 C   0  0  0  0  0  0  0  0  0  0  0  0
  -17.7656  -30.1728   23.5706 C   0  0  0  0  0  0  0  0  0  0  0  0
  -17.9200  -28.0949   22.3477 C   0  0  0  0  0  0  0  0  0  0  0  0
  -31.1421  -21.8962   22.6937 C   0  0  0  0  0  0  0  0  0  0  0  0
  -24.9762  -27.0780   20.5994 C   0  0  0  0  0  0  0  0  0  0  0  0
  -27.0624  -27.6553   20.2134 C   0  0  0  0  0  0  0  0  0  0  0  0
  -26.0087  -28.8722   22.1258 C   0  0  0  0  0  0  0  0  0  0  0  0
  -23.3529  -17.7889   21.1105 C   0  0  0  0  0  0  0  0  0  0  0  0
  -23.3595  -14.5502   20.9287 C   0  0  0  0  0  0  0  0  0  0  0  0
  -25.1224  -11.6839   20.3600 C   0  0  0  0  0  0  0  0  0  0  0  0
  -29.5197  -23.2305   17.4031 C   0  0  0  0  0  0  0  0  0  0  0  0
  -19.8791  -21.5290   21.0652 C   0  0  0  0  0  0  0  0  0  0  0  0
  -24.4186  -17.4135   18.8567 C   0  0  0  0  0  0  0  0  0  0  0  0
  -25.6130  -15.6845   20.9373 C   0  0  0  0  0  0  0  0  0  0  0  0
  -19.8867  -20.0505   21.4451 C   0  0  0  0  0  0  0  0  0  0  0  0
  -27.5239  -25.6500   15.7180 C   0  0  0  0  0  0  0  0  0  0  0  0
  -21.0685  -19.7400   22.3582 C   0  0  0  0  0  0  0  0  0  0  0  0
  -26.7592  -26.3436   16.8468 C   0  0  0  0  0  0  0  0  0  0  0  0
  -27.7068  -24.1591   15.9933 C   0  0  0  0  0  0  0  0  0  0  0  0
  -27.5567  -24.5343   18.4245 C   0  0  0  0  0  0  0  0  0  0  0  0
  -22.4002  -20.0226   21.6523 C   0  0  1  0  0  0  0  0  0  0  0  0
  -23.5813  -16.8196   19.9853 C   0  0  1  0  0  0  0  0  0  0  0  0
  -27.3962  -26.0502   18.2185 C   0  0  2  0  0  0  0  0  0  0  0  0
  -31.3160  -19.8484   24.1406 C   0  0  0  0  0  0  0  0  0  0  0  0
  -24.8651   -9.1879   20.3212 C   0  0  0  0  0  0  0  0  0  0  0  0
  -23.3722  -14.5038   23.9795 C   0  0  0  0  0  0  0  0  0  0  0  0
  -24.0664  -12.1008   23.8707 C   0  0  0  0  0  0  0  0  0  0  0  0
  -21.8726  -12.8079   22.9167 C   0  0  0  0  0  0  0  0  0  0  0  0
  -25.8580  -11.5364   17.4971 C   0  0  0  0  0  0  0  0  0  0  0  0
  -31.6226  -18.2420   21.7348 C   0  0  0  0  0  0  0  0  0  0  0  0
  -31.2667  -22.3740   18.9438 C   0  0  0  0  0  0  0  0  0  0  0  0
  -30.3396  -17.4900   21.3978 C   0  0  0  0  0  0  0  0  0  1  0  0
  -24.0069  -13.4365   21.7159 C   0  0  1  0  0  0  0  0  0  0  0  0
  -24.8197  -10.4686   19.5022 C   0  0  2  0  0  0  0  0  0  0  0  0
  -23.3450  -13.2324   23.1079 C   0  0  0  0  0  0  0  0  0  0  0  0
  -25.3443  -26.3259   19.5588 N   0  0  0  0  0  0  0  0  0  0  0  0
  -26.6177  -26.6999   19.3476 N   0  0  0  0  0  0  0  0  0  0  0  0
  -24.1887  -15.6223   20.5699 N   0  0  0  0  0  0  0  0  0  0  0  0
  -28.3167  -23.9495   17.3086 N   0  0  0  0  0  0  0  0  0  0  0  0
  -28.3187  -28.1443   20.1420 N   0  0  0  0  0  0  0  0  0  0  0  0
  -24.8398  -29.0245   22.8839 N   0  0  0  0  0  0  0  0  0  0  0  0
  -22.7187  -18.9555   20.7280 N   0  0  0  0  0  0  0  0  0  0  0  0
  -23.9714  -12.2566   20.8586 N   0  0  0  0  0  0  0  0  0  0  0  0
  -30.0332  -23.0831   18.6858 N   0  0  0  0  0  0  0  0  0  0  0  0
  -25.8123  -10.3548   18.3964 N   0  3  0  0  0  0  0  0  0  0  0  0
  -27.0121  -29.5744   22.3969 O   0  0  0  0  0  0  0  0  0  0  0  0
  -23.7232  -17.4991   22.2421 O   0  0  0  0  0  0  0  0  0  0  0  0
  -22.1638  -14.4684   20.6366 O   0  0  0  0  0  0  0  0  0  0  0  0
  -26.2657  -12.0829   20.5701 O   0  0  0  0  0  0  0  0  0  0  0  0
  -30.0964  -22.7598   16.4168 O   0  0  0  0  0  0  0  0  0  0  0  0
  -19.8085  -26.6405   22.6900 O   0  0  0  0  0  0  0  0  0  0  0  0
  -29.9411  -17.7911   20.0610 O   0  0  0  0  0  0  0  0  0  1  0  0
  -17.1097  -31.3056   23.8549 F   0  0  0  0  0  0  0  0  0  0  0  0
  -17.4074  -27.2359   21.4561 F   0  0  0  0  0  0  0  0  0  0  0  0
  -30.9580  -22.8909   24.0929 Cl  0  0  0  0  0  0  0  0  0  0  0  0
  1  2  1  0  0  0  0
  1  5  2  0  0  0  0
  2  6  2  0  0  0  0
  3  8  2  0  0  0  0
  3 17  1  0  0  0  0
  4  9  1  0  0  0  0
  4 17  2  0  0  0  0
  5 19  1  0  0  0  0
  6 21  1  0  0  0  0
  7 10  2  0  0  0  0
  7 20  1  0  0  0  0
  8 26  1  0  0  0  0
  9 26  2  0  0  0  0
 10 27  1  0  0  0  0
 11 12  2  0  0  0  0
 11 28  1  0  0  0  0
 12 29  1  0  0  0  0
 13 22  1  0  0  0  0
 13 27  2  0  0  0  0
 14 23  2  0  0  0  0
 14 24  1  0  0  0  0
 15 23  1  0  0  0  0
 15 31  2  0  0  0  0
 16 29  2  0  0  0  0
 16 30  1  0  0  0  0
 17 32  1  0  0  0  0
 18 32  1  0  0  0  0
 18 33  2  0  0  0  0
 18 34  1  0  0  0  0
 19 21  2  0  0  0  0
 19 39  1  0  0  0  0
 20 22  2  0  0  0  0
 20 40  1  0  0  0  0
 21 48  1  0  0  0  0
 22 41  1  0  0  0  0
 23 58  1  0  0  0  0
 24 25  2  0  0  0  0
 24 57  1  0  0  0  0
 25 31  1  0  0  0  0
 25 51  1  0  0  0  0
 26 78  1  0  0  0  0
 27 79  1  0  0  0  0
 28 30  2  0  0  0  0
 28 78  1  0  0  0  0
 29 80  1  0  0  0  0
 30 81  1  0  0  0  0
 31 82  1  0  0  0  0
 32 63  2  0  0  0  0
 33 64  1  0  0  0  0
 33 67  1  0  0  0  0
 34 68  1  0  0  0  0
 34 73  2  0  0  0  0
 35 49  1  0  0  0  0
 35 69  1  0  0  0  0
 35 74  2  0  0  0  0
 36 60  1  0  0  0  0
 36 65  1  0  0  0  0
 36 75  2  0  0  0  0
 37 61  1  0  0  0  0
 37 70  1  0  0  0  0
 37 76  2  0  0  0  0
 38 66  1  0  0  0  0
 38 71  1  0  0  0  0
 38 77  2  0  0  0  0
 39 42  1  0  0  0  0
 40 49  1  0  0  0  0
 41 65  1  0  0  0  0
 42 44  1  0  0  0  0
 43 45  1  0  0  0  0
 43 46  1  0  0  0  0
 44 48  1  0  0  0  0
 45 50  1  0  0  0  0
 46 66  1  0  0  0  0
 47 50  1  0  0  0  0
 47 66  1  0  0  0  0
 48 69  1  0  0  0  0
 49 65  1  0  0  0  0
 50 64  1  0  0  0  0
 52 61  1  0  0  0  0
 53 62  1  0  0  0  0
 54 62  1  0  0  0  0
 55 62  1  0  0  0  0
 56 72  1  0  0  0  0
 57 59  1  0  0  0  0
 58 71  1  0  0  0  0
 59 79  1  0  0  0  0
 60 62  1  0  0  0  0
 60 70  1  0  0  0  0
 61 72  1  0  0  0  0
 63 64  1  0  0  0  0
M  CHG  1  72   1
M  ISO  4  38 100  59 101  71 100  79 101
M  END
> <Batch ID>
0029

> <Smiles>
CNC(C)C(=O)NC(C(=O)N1Cc2cc([101O:1][101CH2:1]Cc3cc(C[100NH:0][100C:0](=O)N4CCCC(n5nc(-c6ccc(Oc7ccc(F)cc7F)cc6)c(C(N)=O)c5N)C4)cc(Cl)c3C)ccc2CC1C(=O)NC1CCCc2ccccc21)C(C)(C)C

> <Shape>
0.215

> <Color>
0.071

> <Negative vol penalty>
0.000

$$$$

  -OEChem-04052316363D

 85 93  0     1  0  0  0  0  0999 V2000
  -21.0897  -33.7000   15.2111 C   0  0  0  0  0  0  0  0  0  0  0  0
  -21.9628  -32.6245   15.3399 C   0  0  0  0  0  0  0  0  0  0  0  0
  -27.4879  -14.1066   21.9445 C   0  0  0  0  0  0  0  0  0  0  0  0
  -26.6497  -15.9091   23.3176 C   0  0  0  0  0  0  0  0  0  0  0  0
  -21.1615  -34.7658   16.1070 C   0  0  0  0  0  0  0  0  0  0  0  0
  -22.9091  -32.6149   16.3641 C   0  0  0  0  0  0  0  0  0  0  0  0
  -24.9372  -27.7335   19.4567 C   0  0  0  0  0  0  0  0  0  0  0  0
  -26.5417  -13.2444   22.4985 C   0  0  0  0  0  0  0  0  0  0  0  0
  -25.7035  -15.0469   23.8717 C   0  0  0  0  0  0  0  0  0  0  0  0
  -26.0830  -26.9500   19.3261 C   0  0  0  0  0  0  0  0  0  0  0  0
  -26.1490  -11.4831   25.3565 C   0  0  0  0  0  0  0  0  0  0  0  0
  -26.5790  -10.2151   25.7475 C   0  0  0  0  0  0  0  0  0  0  0  0
  -27.1655  -28.2581   21.0396 C   0  0  0  0  0  0  0  0  0  0  0  0
  -25.0137   -9.2091   24.2065 C   0  0  0  0  0  0  0  0  0  0  0  0
  -27.5420  -15.4389   22.3541 C   0  0  0  0  0  0  0  0  0  0  0  0
  -28.3699  -17.1336   20.6365 C   0  0  0  0  0  0  0  0  0  0  0  0
  -22.1027  -34.7648   17.1486 C   0  0  0  0  0  0  0  0  0  0  0  0
  -24.9007  -28.7939   20.3736 C   0  0  0  0  0  0  0  0  0  0  0  0
  -22.9944  -33.6824   17.2740 C   0  0  0  0  0  0  0  0  0  0  0  0
  -26.0171  -29.0520   21.1818 C   0  0  0  0  0  0  0  0  0  0  0  0
  -30.7348  -25.2070   18.4968 C   0  0  0  0  0  0  0  0  0  0  0  0
  -29.5877  -24.6597   19.0606 C   0  0  0  0  0  0  0  0  0  0  0  0
  -25.6495  -13.7146   23.4621 C   0  0  0  0  0  0  0  0  0  0  0  0
  -27.1984  -27.2141   20.1156 C   0  0  0  0  0  0  0  0  0  0  0  0
  -25.1512  -11.6141   24.3905 C   0  0  0  0  0  0  0  0  0  0  0  0
  -26.0114   -9.0781   25.1725 C   0  0  0  0  0  0  0  0  0  0  0  0
  -24.5836  -10.4771   23.8155 C   0  0  0  0  0  0  0  0  0  0  0  0
  -31.9302  -24.4981   18.5398 C   0  0  0  0  0  0  0  0  0  0  0  0
  -28.5195  -16.3299   21.7825 C   0  0  0  0  0  0  0  0  0  0  0  0
  -29.6879  -23.4100   19.6507 C   0  0  0  0  0  0  0  0  0  0  0  0
  -31.9256  -23.2558   19.1533 C   0  0  0  0  0  0  0  0  0  0  0  0
  -29.5724  -17.7862   20.5154 C   0  0  0  0  0  0  0  0  0  0  0  0
  -27.2446  -17.2776   19.7598 C   0  0  0  0  0  0  0  0  0  0  0  0
  -24.5340  -31.9432   20.1476 C   0  0  0  0  0  0  0  0  0  0  0  0
  -24.4906  -31.7788   23.3869 C   0  0  0  0  0  0  0  0  0  0  0  0
  -25.3689  -30.0803   26.2137 C   0  0  0  0  0  0  0  0  0  0  0  0
  -33.8295  -20.6032   22.7707 C   0  0  0  0  0  0  0  0  0  0  0  0
  -22.1739  -35.9613   18.0639 C   0  0  0  0  0  0  0  0  0  0  0  0
  -23.6477  -29.6128   20.5214 C   0  0  0  0  0  0  0  0  0  0  0  0
  -26.0218  -30.1658   22.1955 C   0  0  0  0  0  0  0  0  0  0  0  0
  -22.9568  -35.7001   19.3481 C   0  0  0  0  0  0  0  0  0  0  0  0
  -33.9733  -17.0480   22.8973 C   0  0  0  0  0  0  0  0  0  0  0  0
  -24.2702  -34.9895   19.0374 C   0  0  0  0  0  0  0  0  0  0  0  0
  -32.5540  -16.6112   22.5303 C   0  0  0  0  0  0  0  0  0  0  0  0
  -33.9721  -18.3255   23.7340 C   0  0  0  0  0  0  0  0  0  0  0  0
  -31.8099  -19.0165   22.7742 C   0  0  0  0  0  0  0  0  0  0  0  0
  -24.0182  -33.6239   18.3869 C   0  0  1  0  0  0  0  0  0  0  0  0
  -23.9024  -30.9912   21.1235 C   0  0  1  0  0  0  0  0  0  0  0  0
  -31.7624  -17.7635   21.8831 C   0  0  2  0  0  0  0  0  0  0  0  0
  -30.6649  -26.5551   17.8498 C   0  0  0  0  0  0  0  0  0  0  0  0
  -28.1584  -23.3693   21.6370 C   0  0  0  0  0  0  0  0  0  0  0  0
  -25.2278  -30.2133   28.7156 C   0  0  0  0  0  0  0  0  0  0  0  0
  -26.7084  -33.8743   23.3982 C   0  0  0  0  0  0  0  0  0  0  0  0
  -27.1704  -33.2715   25.7838 C   0  0  0  0  0  0  0  0  0  0  0  0
  -24.9488  -34.2082   25.1437 C   0  0  0  0  0  0  0  0  0  0  0  0
  -23.8084  -27.5708   26.3750 C   0  0  0  0  0  0  0  0  0  0  0  0
  -28.2812  -25.3968   19.0289 C   0  0  0  0  0  0  0  0  0  1  0  0
  -28.4895  -22.7713   20.2731 C   0  0  0  0  0  0  0  0  0  0  0  0
  -33.1702  -22.4324   19.2390 C   0  0  0  0  0  0  0  0  0  0  0  0
  -34.1408  -22.8634   20.3544 C   0  0  0  0  0  0  0  0  0  0  0  0
  -33.5352  -22.8490   21.7563 C   0  0  0  0  0  0  0  0  0  0  0  0
  -25.5355  -31.8417   24.4747 C   0  0  1  0  0  0  0  0  0  0  0  0
  -24.5708  -29.6946   27.4460 C   0  0  2  0  0  0  0  0  0  0  0  0
  -26.0917  -33.2791   24.6797 C   0  0  0  0  0  0  0  0  0  0  0  0
  -29.7223  -16.4583   22.3490 N   0  0  0  0  0  0  0  0  0  0  0  0
  -30.8314  -22.6914   19.7118 N   0  0  0  0  0  0  0  0  0  0  0  0
  -30.3394  -17.3503   21.5555 N   0  0  0  0  0  0  0  0  0  0  0  0
  -24.7752  -30.9424   22.2982 N   0  0  0  0  0  0  0  0  0  0  0  0
  -33.2062  -19.3791   23.0637 N   0  0  0  0  0  0  0  0  0  0  0  0
  -30.0379  -18.6845   19.6217 N   0  0  0  0  0  0  0  0  0  0  0  0
  -26.0880  -16.5333   20.0295 N   0  0  0  0  0  0  0  0  0  0  0  0
  -23.6256  -32.6530   19.3858 N   0  0  0  0  0  0  0  0  0  0  0  0
  -24.9211  -31.2633   25.6648 N   0  0  0  0  0  0  0  0  0  0  0  0
  -33.0343  -21.5448   22.1289 N   0  0  0  0  0  0  0  0  0  0  0  0
  -24.4581  -28.2120   27.5471 N   0  3  0  0  0  0  0  0  0  0  0  0
  -27.2698  -18.0311   18.7573 O   0  0  0  0  0  0  0  0  0  0  0  0
  -25.7552  -32.0285   20.0910 O   0  0  0  0  0  0  0  0  0  0  0  0
  -23.4567  -32.4416   23.5024 O   0  0  0  0  0  0  0  0  0  0  0  0
  -26.2991  -29.4021   25.7834 O   0  0  0  0  0  0  0  0  0  0  0  0
  -35.0090  -20.8377   23.0549 O   0  0  0  0  0  0  0  0  0  0  0  0
  -24.7259  -12.8736   24.0028 O   0  0  0  0  0  0  0  0  0  0  0  0
  -28.3183  -26.4513   19.9896 O   0  0  0  0  0  0  0  0  0  1  0  0
  -26.4255   -7.8606   25.5469 F   0  0  0  0  0  0  0  0  0  0  0  0
  -23.6255  -10.5966   22.8862 F   0  0  0  0  0  0  0  0  0  0  0  0
  -33.3748  -25.1469   17.8529 Cl  0  0  0  0  0  0  0  0  0  0  0  0
  1  2  1  0  0  0  0
  1  5  2  0  0  0  0
  2  6  2  0  0  0  0
  3  8  2  0  0  0  0
  3 15  1  0  0  0  0
  4  9  1  0  0  0  0
  4 15  2  0  0  0  0
  5 17  1  0  0  0  0
  6 19  1  0  0  0  0
  7 10  2  0  0  0  0
  7 18  1  0  0  0  0
  8 23  1  0  0  0  0
  9 23  2  0  0  0  0
 10 24  1  0  0  0  0
 11 12  2  0  0  0  0
 11 25  1  0  0  0  0
 12 26  1  0  0  0  0
 13 20  1  0  0  0  0
 13 24  2  0  0  0  0
 14 26  2  0  0  0  0
 14 27  1  0  0  0  0
 15 29  1  0  0  0  0
 16 29  1  0  0  0  0
 16 32  2  0  0  0  0
 16 33  1  0  0  0  0
 17 19  2  0  0  0  0
 17 38  1  0  0  0  0
 18 20  2  0  0  0  0
 18 39  1  0  0  0  0
 19 47  1  0  0  0  0
 20 40  1  0  0  0  0
 21 22  1  0  0  0  0
 21 28  2  0  0  0  0
 21 50  1  0  0  0  0
 22 30  2  0  0  0  0
 22 57  1  0  0  0  0
 23 81  1  0  0  0  0
 24 82  1  0  0  0  0
 25 27  2  0  0  0  0
 25 81  1  0  0  0  0
 26 83  1  0  0  0  0
 27 84  1  0  0  0  0
 28 31  1  0  0  0  0
 28 85  1  0  0  0  0
 29 65  2  0  0  0  0
 30 58  1  0  0  0  0
 30 66  1  0  0  0  0
 31 59  1  0  0  0  0
 31 66  2  0  0  0  0
 32 67  1  0  0  0  0
 32 70  1  0  0  0  0
 33 71  1  0  0  0  0
 33 76  2  0  0  0  0
 34 48  1  0  0  0  0
 34 72  1  0  0  0  0
 34 77  2  0  0  0  0
 35 62  1  0  0  0  0
 35 68  1  0  0  0  0
 35 78  2  0  0  0  0
 36 63  1  0  0  0  0
 36 73  1  0  0  0  0
 36 79  2  0  0  0  0
 37 69  1  0  0  0  0
 37 74  1  0  0  0  0
 37 80  2  0  0  0  0
 38 41  1  0  0  0  0
 39 48  1  0  0  0  0
 40 68  1  0  0  0  0
 41 43  1  0  0  0  0
 42 44  1  0  0  0  0
 42 45  1  0  0  0  0
 43 47  1  0  0  0  0
 44 49  1  0  0  0  0
 45 69  1  0  0  0  0
 46 49  1  0  0  0  0
 46 69  1  0  0  0  0
 47 72  1  0  0  0  0
 48 68  1  0  0  0  0
 49 67  1  0  0  0  0
 51 58  1  0  0  0  0
 52 63  1  0  0  0  0
 53 64  1  0  0  0  0
 54 64  1  0  0  0  0
 55 64  1  0  0  0  0
 56 75  1  0  0  0  0
 57 82  1  0  0  0  0
 59 60  1  0  0  0  0
 60 61  1  0  0  0  0
 61 74  1  0  0  0  0
 62 64  1  0  0  0  0
 62 73  1  0  0  0  0
 63 75  1  0  0  0  0
 65 67  1  0  0  0  0
M  CHG  1  75   1
M  ISO  4  37 100  57 101  74 100  82 101
M  END
> <Batch ID>
0029

> <Smiles>
CCc1nc(CCC[100NH:0][100C:0](=O)N2CCCC(n3nc(-c4ccc(Oc5ccc(F)cc5F)cc4)c(C(N)=O)c3N)C2)c(Cl)c(C)c1[101CH2:1][101O:1]c1ccc2c(c1)CN(C(=O)C(NC(=O)C(C)NC)C(C)(C)C)C(C(=O)NC1CCCc3ccccc31)C2

> <Shape>
0.217

> <Color>
0.077

> <Negative vol penalty>
0.000

$$$$

  -OEChem-04052316363D

 82 90  0     1  0  0  0  0  0999 V2000
  -20.0643  -25.5039   18.1887 C   0  0  0  0  0  0  0  0  0  0  0  0
  -20.8865  -24.6217   18.8823 C   0  0  0  0  0  0  0  0  0  0  0  0
  -23.0345   -9.9639   19.8194 C   0  0  0  0  0  0  0  0  0  0  0  0
  -23.8647   -9.7630   22.0794 C   0  0  0  0  0  0  0  0  0  0  0  0
  -20.6086  -26.3491   17.2226 C   0  0  0  0  0  0  0  0  0  0  0  0
  -22.2535  -24.5835   18.6095 C   0  0  0  0  0  0  0  0  0  0  0  0
  -26.7762  -23.5285   22.6017 C   0  0  0  0  0  0  0  0  0  0  0  0
  -22.2843   -8.8007   19.9916 C   0  0  0  0  0  0  0  0  0  0  0  0
  -23.1145   -8.5998   22.2516 C   0  0  0  0  0  0  0  0  0  0  0  0
  -27.5065  -22.3816   22.9102 C   0  0  0  0  0  0  0  0  0  0  0  0
  -19.8966   -7.7842   22.8847 C   0  0  0  0  0  0  0  0  0  0  0  0
  -19.1757   -7.6495   24.0712 C   0  0  0  0  0  0  0  0  0  0  0  0
  -29.2493  -23.0930   21.4017 C   0  0  0  0  0  0  0  0  0  0  0  0
  -31.9558  -17.3344   21.9098 C   0  0  0  0  0  0  0  0  0  0  0  0
  -20.4147   -5.6430   24.5964 C   0  0  0  0  0  0  0  0  0  0  0  0
  -30.0473  -17.5734   23.0804 C   0  0  0  0  0  0  0  0  0  0  0  0
  -23.8248  -10.4450   20.8633 C   0  0  0  0  0  0  0  0  0  0  0  0
  -24.1945  -12.9675   20.9527 C   0  0  0  0  0  0  0  0  0  0  0  0
  -21.9845  -26.3280   16.9447 C   0  0  0  0  0  0  0  0  0  0  0  0
  -27.2729  -24.4624   21.6811 C   0  0  0  0  0  0  0  0  0  0  0  0
  -22.8165  -25.4283   17.6379 C   0  0  0  0  0  0  0  0  0  0  0  0
  -28.5245  -24.2521   21.0852 C   0  0  0  0  0  0  0  0  0  0  0  0
  -30.6896  -16.7572   22.1757 C   0  0  0  0  0  0  0  0  0  0  0  0
  -22.3242   -8.1186   21.2077 C   0  0  0  0  0  0  0  0  0  0  0  0
  -28.7419  -22.1623   22.3080 C   0  0  0  0  0  0  0  0  0  0  0  0
  -20.8766   -6.8482   22.5541 C   0  0  0  0  0  0  0  0  0  0  0  0
  -19.4347   -6.5790   24.9270 C   0  0  0  0  0  0  0  0  0  0  0  0
  -21.1357   -5.7777   23.4099 C   0  0  0  0  0  0  0  0  0  0  0  0
  -24.6005  -11.6463   20.6859 C   0  0  0  0  0  0  0  0  0  0  0  0
  -32.0488  -18.4857   22.6603 C   0  0  0  0  0  0  0  0  0  0  0  0
  -25.2843  -13.7351   20.6215 C   0  0  0  0  0  0  0  0  0  0  0  0
  -22.9441  -13.4572   21.4551 C   0  0  0  0  0  0  0  0  0  0  0  0
  -26.2973  -25.5768   18.8686 C   0  0  0  0  0  0  0  0  0  0  0  0
  -28.8228  -27.5810   19.2256 C   0  0  0  0  0  0  0  0  0  0  0  0
  -31.8627  -28.1852   20.6541 C   0  0  0  0  0  0  0  0  0  0  0  0
  -30.7659  -14.7078   20.7126 C   0  0  0  0  0  0  0  0  0  0  0  0
  -22.5195  -27.2271   15.8584 C   0  0  0  0  0  0  0  0  0  0  0  0
  -26.4850  -25.7076   21.3793 C   0  0  0  0  0  0  0  0  0  0  0  0
  -29.1114  -25.2341   20.1055 C   0  0  0  0  0  0  0  0  0  0  0  0
  -24.0370  -27.3886   15.8937 C   0  0  0  0  0  0  0  0  0  0  0  0
  -29.5489  -12.5210   18.1800 C   0  0  0  0  0  0  0  0  0  0  0  0
  -24.7144  -26.0325   16.0635 C   0  0  0  0  0  0  0  0  0  0  0  0
  -28.1196  -12.2072   18.6281 C   0  0  0  0  0  0  0  0  0  0  0  0
  -30.5034  -12.6350   19.3673 C   0  0  0  0  0  0  0  0  0  0  0  0
  -28.6491  -13.2548   20.8662 C   0  0  0  0  0  0  0  0  0  0  0  0
  -24.3080  -25.3748   17.3878 C   0  0  1  0  0  0  0  0  0  0  0  0
  -26.8529  -26.3373   20.0393 C   0  0  1  0  0  0  0  0  0  0  0  0
  -27.6384  -13.1946   19.7093 C   0  0  2  0  0  0  0  0  0  0  0  0
  -33.7009  -29.8920   20.7267 C   0  0  0  0  0  0  0  0  0  0  0  0
  -34.3603  -19.0722   21.8488 C   0  0  0  0  0  0  0  0  0  0  0  0
  -33.6952  -19.5781   24.2232 C   0  0  0  0  0  0  0  0  0  0  0  0
  -32.7958  -20.9392   22.3471 C   0  0  0  0  0  0  0  0  0  0  0  0
  -29.7773  -26.6663   16.4756 C   0  0  0  0  0  0  0  0  0  0  0  0
  -32.0224  -27.6376   17.0088 C   0  0  0  0  0  0  0  0  0  0  0  0
  -30.0182  -29.1190   16.9009 C   0  0  0  0  0  0  0  0  0  0  0  0
  -31.5132  -28.6080   23.5624 C   0  0  0  0  0  0  0  0  0  0  0  0
  -30.5512  -19.7426   24.3218 C   0  0  0  0  0  0  0  0  0  0  0  0
  -29.2899  -20.4962   23.9142 C   0  0  0  0  0  0  0  0  0  1  0  0
  -30.2851  -27.5350   18.8533 C   0  0  1  0  0  0  0  0  0  0  0  0
  -32.4137  -29.4036   21.3727 C   0  0  2  0  0  0  0  0  0  0  0  0
  -33.1499  -19.4654   22.7601 C   0  0  0  0  0  0  0  0  0  0  0  0
  -30.5141  -27.7198   17.3266 C   0  0  0  0  0  0  0  0  0  0  0  0
  -25.8506  -11.5749   20.2208 N   0  0  0  0  0  0  0  0  0  0  0  0
  -30.8831  -18.6207   23.3681 N   0  0  0  0  0  0  0  0  0  0  0  0
  -26.2394  -12.8610   20.1928 N   0  0  0  0  0  0  0  0  0  0  0  0
  -28.3001  -26.4333   19.8382 N   0  0  0  0  0  0  0  0  0  0  0  0
  -29.9847  -13.5908   20.3483 N   0  0  0  0  0  0  0  0  0  0  0  0
  -25.5090  -15.0657   20.6580 N   0  0  0  0  0  0  0  0  0  0  0  0
  -21.9317  -12.5321   21.7439 N   0  0  0  0  0  0  0  0  0  0  0  0
  -30.1557  -15.5642   21.6285 N   0  0  0  0  0  0  0  0  0  0  0  0
  -25.0285  -25.9730   18.4912 N   0  0  0  0  0  0  0  0  0  0  0  0
  -30.9490  -28.5350   19.6825 N   0  0  0  0  0  0  0  0  0  0  0  0
  -32.6975  -29.0793   22.7993 N   0  3  0  0  0  0  0  0  0  0  0  0
  -22.7252  -14.6804   21.6268 O   0  0  0  0  0  0  0  0  0  0  0  0
  -26.9706  -24.6966   18.3454 O   0  0  0  0  0  0  0  0  0  0  0  0
  -28.1701  -28.6005   18.9882 O   0  0  0  0  0  0  0  0  0  0  0  0
  -32.2110  -27.0380   20.9250 O   0  0  0  0  0  0  0  0  0  0  0  0
  -31.8821  -14.9056   20.2258 O   0  0  0  0  0  0  0  0  0  0  0  0
  -21.5921   -6.9837   21.3762 O   0  0  0  0  0  0  0  0  0  0  0  0
  -29.4565  -21.0434   22.6068 O   0  0  0  0  0  0  0  0  0  1  0  0
  -18.7434   -6.4507   26.0671 F   0  0  0  0  0  0  0  0  0  0  0  0
  -22.0767   -4.8760   23.0982 F   0  0  0  0  0  0  0  0  0  0  0  0
  1  2  1  0  0  0  0
  1  5  2  0  0  0  0
  2  6  2  0  0  0  0
  3  8  2  0  0  0  0
  3 17  1  0  0  0  0
  4  9  1  0  0  0  0
  4 17  2  0  0  0  0
  5 19  1  0  0  0  0
  6 21  1  0  0  0  0
  7 10  2  0  0  0  0
  7 20  1  0  0  0  0
  8 24  1  0  0  0  0
  9 24  2  0  0  0  0
 10 25  1  0  0  0  0
 11 12  2  0  0  0  0
 11 26  1  0  0  0  0
 12 27  1  0  0  0  0
 13 22  1  0  0  0  0
 13 25  2  0  0  0  0
 14 23  1  0  0  0  0
 14 30  2  0  0  0  0
 15 27  2  0  0  0  0
 15 28  1  0  0  0  0
 16 23  2  0  0  0  0
 16 64  1  0  0  0  0
 17 29  1  0  0  0  0
 18 29  1  0  0  0  0
 18 31  2  0  0  0  0
 18 32  1  0  0  0  0
 19 21  2  0  0  0  0
 19 37  1  0  0  0  0
 20 22  2  0  0  0  0
 20 38  1  0  0  0  0
 21 46  1  0  0  0  0
 22 39  1  0  0  0  0
 23 70  1  0  0  0  0
 24 79  1  0  0  0  0
 25 80  1  0  0  0  0
 26 28  2  0  0  0  0
 26 79  1  0  0  0  0
 27 81  1  0  0  0  0
 28 82  1  0  0  0  0
 29 63  2  0  0  0  0
 30 61  1  0  0  0  0
 30 64  1  0  0  0  0
 31 65  1  0  0  0  0
 31 68  1  0  0  0  0
 32 69  1  0  0  0  0
 32 74  2  0  0  0  0
 33 47  1  0  0  0  0
 33 71  1  0  0  0  0
 33 75  2  0  0  0  0
 34 59  1  0  0  0  0
 34 66  1  0  0  0  0
 34 76  2  0  0  0  0
 35 60  1  0  0  0  0
 35 72  1  0  0  0  0
 35 77  2  0  0  0  0
 36 67  1  0  0  0  0
 36 70  1  0  0  0  0
 36 78  2  0  0  0  0
 37 40  1  0  0  0  0
 38 47  1  0  0  0  0
 39 66  1  0  0  0  0
 40 42  1  0  0  0  0
 41 43  1  0  0  0  0
 41 44  1  0  0  0  0
 42 46  1  0  0  0  0
 43 48  1  0  0  0  0
 44 67  1  0  0  0  0
 45 48  1  0  0  0  0
 45 67  1  0  0  0  0
 46 71  1  0  0  0  0
 47 66  1  0  0  0  0
 48 65  1  0  0  0  0
 49 60  1  0  0  0  0
 50 61  1  0  0  0  0
 51 61  1  0  0  0  0
 52 61  1  0  0  0  0
 53 62  1  0  0  0  0
 54 62  1  0  0  0  0
 55 62  1  0  0  0  0
 56 73  1  0  0  0  0
 57 58  1  0  0  0  0
 57 64  1  0  0  0  0
 58 80  1  0  0  0  0
 59 62  1  0  0  0  0
 59 72  1  0  0  0  0
 60 73  1  0  0  0  0
 63 65  1  0  0  0  0
M  CHG  1  73   1
M  ISO  4  36 100  58 101  70 100  80 101
M  END
> <Batch ID>
0029

> <Smiles>
CNC(C)C(=O)NC(C(=O)N1Cc2cc([101O:1][101CH2:1]Cn3cc([100NH:0][100C:0](=O)N4CCCC(n5nc(-c6ccc(Oc7ccc(F)cc7F)cc6)c(C(N)=O)c5N)C4)cc3C(C)(C)C)ccc2CC1C(=O)NC1CCCc2ccccc21)C(C)(C)C

> <Shape>
0.233

> <Color>
0.189

> <Negative vol penalty>
0.000

$$$$

  -OEChem-04052316363D

 82 90  0     1  0  0  0  0  0999 V2000
  -14.0174  -19.2716   22.8560 C   0  0  0  0  0  0  0  0  0  0  0  0
  -14.1321  -20.5517   22.3235 C   0  0  0  0  0  0  0  0  0  0  0  0
  -28.0238  -20.1810   19.7340 C   0  0  0  0  0  0  0  0  0  0  0  0
  -30.0654  -20.5596   18.4989 C   0  0  0  0  0  0  0  0  0  0  0  0
  -14.7408  -18.9248   23.9963 C   0  0  0  0  0  0  0  0  0  0  0  0
  -14.9694  -21.4862   22.9317 C   0  0  0  0  0  0  0  0  0  0  0  0
  -19.2322  -27.0232   21.3550 C   0  0  0  0  0  0  0  0  0  0  0  0
  -28.4789  -18.9138   20.0980 C   0  0  0  0  0  0  0  0  0  0  0  0
  -30.5206  -19.2924   18.8630 C   0  0  0  0  0  0  0  0  0  0  0  0
  -19.4501  -28.3520   21.7166 C   0  0  0  0  0  0  0  0  0  0  0  0
  -28.7197  -15.8531   18.6844 C   0  0  0  0  0  0  0  0  0  0  0  0
  -27.8230  -14.7895   18.5835 C   0  0  0  0  0  0  0  0  0  0  0  0
  -20.7120  -27.6163   23.6363 C   0  0  0  0  0  0  0  0  0  0  0  0
  -23.0864  -29.9808   20.7499 C   0  0  0  0  0  0  0  0  0  0  0  0
  -25.7521  -30.6709   21.1976 C   0  0  0  0  0  0  0  0  0  0  0  0
  -28.0513  -14.3725   20.9523 C   0  0  0  0  0  0  0  0  0  0  0  0
  -28.8170  -21.0040   18.9344 C   0  0  0  0  0  0  0  0  0  0  0  0
  -27.1843  -22.6207   17.8261 C   0  0  0  0  0  0  0  0  0  0  0  0
  -15.5948  -19.8525   24.6132 C   0  0  0  0  0  0  0  0  0  0  0  0
  -19.7443  -25.9792   22.1386 C   0  0  0  0  0  0  0  0  0  0  0  0
  -15.7039  -21.1519   24.0822 C   0  0  0  0  0  0  0  0  0  0  0  0
  -20.5015  -26.2752   23.2811 C   0  0  0  0  0  0  0  0  0  0  0  0
  -23.3968  -31.0983   21.5247 C   0  0  0  0  0  0  0  0  0  0  0  0
  -25.4417  -29.5533   20.4228 C   0  0  0  0  0  0  0  0  0  0  0  0
  -29.7274  -18.4695   19.6625 C   0  0  0  0  0  0  0  0  0  0  0  0
  -20.1876  -28.6486   22.8590 C   0  0  0  0  0  0  0  0  0  0  0  0
  -29.2824  -16.1763   19.9191 C   0  0  0  0  0  0  0  0  0  0  0  0
  -27.4887  -14.0492   19.7175 C   0  0  0  0  0  0  0  0  0  0  0  0
  -28.9481  -15.4361   21.0531 C   0  0  0  0  0  0  0  0  0  0  0  0
  -24.1088  -29.2082   20.1990 C   0  0  0  0  0  0  0  0  0  0  0  0
  -24.7297  -31.4434   21.7485 C   0  0  0  0  0  0  0  0  0  0  0  0
  -28.3471  -22.3129   18.5576 C   0  0  0  0  0  0  0  0  0  0  0  0
  -27.1888  -23.9911   17.7350 C   0  0  0  0  0  0  0  0  0  0  0  0
  -26.1892  -21.7460   17.2782 C   0  0  0  0  0  0  0  0  0  0  0  0
  -18.4693  -23.5859   23.7970 C   0  0  0  0  0  0  0  0  0  0  0  0
  -21.5704  -22.7144   24.1794 C   0  0  0  0  0  0  0  0  0  0  0  0
  -24.8543  -23.6414   24.2369 C   0  0  0  0  0  0  0  0  0  0  0  0
  -27.8712  -29.0226   20.0201 C   0  0  0  0  0  0  0  0  0  0  0  0
  -16.3203  -19.4463   25.8716 C   0  0  0  0  0  0  0  0  0  0  0  0
  -19.5232  -24.5514   21.7202 C   0  0  0  0  0  0  0  0  0  0  0  0
  -21.0901  -25.1910   24.1451 C   0  0  0  0  0  0  0  0  0  0  0  0
  -17.4725  -20.3782   26.2381 C   0  0  0  0  0  0  0  0  0  0  0  0
  -30.7977  -27.3559   18.8646 C   0  0  0  0  0  0  0  0  0  0  0  0
  -17.0344  -21.8356   26.1336 C   0  0  0  0  0  0  0  0  0  0  0  0
  -30.3253  -25.9206   18.6215 C   0  0  0  0  0  0  0  0  0  0  0  0
  -30.1237  -27.9753   20.0876 C   0  0  0  0  0  0  0  0  0  0  0  0
  -28.1843  -26.4757   19.8442 C   0  0  0  0  0  0  0  0  0  0  0  0
  -16.6208  -22.1858   24.6991 C   0  0  1  0  0  0  0  0  0  0  0  0
  -19.6554  -23.5631   22.8748 C   0  0  1  0  0  0  0  0  0  0  0  0
  -28.7870  -25.8322   18.5847 C   0  0  2  0  0  0  0  0  0  0  0  0
  -27.3468  -23.3764   24.3590 C   0  0  0  0  0  0  0  0  0  0  0  0
  -21.0531  -22.6567   27.1859 C   0  0  0  0  0  0  0  0  0  0  0  0
  -23.5312  -22.6728   27.5422 C   0  0  0  0  0  0  0  0  0  0  0  0
  -22.4591  -20.7725   26.3329 C   0  0  0  0  0  0  0  0  0  0  0  0
  -25.0734  -23.2589   21.3104 C   0  0  0  0  0  0  0  0  0  0  0  0
  -22.2627  -31.9073   22.1016 C   0  0  0  0  0  0  0  0  0  0  0  0
  -22.0302  -31.6647   23.5945 C   0  0  0  0  0  0  0  0  0  0  0  0
  -21.6097  -30.2352   23.9156 C   0  0  0  0  0  0  0  0  0  1  0  0
  -22.6498  -23.0195   25.1897 C   0  0  1  0  0  0  0  0  0  0  0  0
  -26.0836  -23.0357   23.5838 C   0  0  2  0  0  0  0  0  0  0  0  0
  -22.4107  -22.3010   26.5477 C   0  0  0  0  0  0  0  0  0  0  0  0
  -29.0400  -23.4003   18.9061 N   0  0  0  0  0  0  0  0  0  0  0  0
  -28.3104  -24.4048   18.3914 N   0  0  0  0  0  0  0  0  0  0  0  0
  -20.8409  -23.8107   23.6978 N   0  0  0  0  0  0  0  0  0  0  0  0
  -28.6677  -27.8586   19.9810 N   0  0  0  0  0  0  0  0  0  0  0  0
  -26.3426  -24.8707   17.1580 N   0  0  0  0  0  0  0  0  0  0  0  0
  -26.3666  -21.2664   15.9732 N   0  0  0  0  0  0  0  0  0  0  0  0
  -26.5036  -28.7905   19.8767 N   0  0  0  0  0  0  0  0  0  0  0  0
  -17.7904  -22.3845   23.8702 N   0  0  0  0  0  0  0  0  0  0  0  0
  -23.9160  -22.6805   24.5492 N   0  0  0  0  0  0  0  0  0  0  0  0
  -26.2346  -23.5453   22.1915 N   0  3  0  0  0  0  0  0  0  0  0  0
  -25.1645  -21.4131   17.9206 O   0  0  0  0  0  0  0  0  0  0  0  0
  -18.1916  -24.6166   24.3988 O   0  0  0  0  0  0  0  0  0  0  0  0
  -21.3862  -21.5473   23.8250 O   0  0  0  0  0  0  0  0  0  0  0  0
  -24.7397  -24.8460   24.4522 O   0  0  0  0  0  0  0  0  0  0  0  0
  -28.3681  -30.1452   20.1423 O   0  0  0  0  0  0  0  0  0  0  0  0
  -30.1719  -17.2330   20.0178 O   0  0  0  0  0  0  0  0  0  0  0  0
  -20.4012  -29.9447   23.2146 O   0  0  0  0  0  0  0  0  0  1  0  0
  -26.6263  -13.0289   19.6208 F   0  0  0  0  0  0  0  0  0  0  0  0
  -29.4844  -15.7426   22.2423 F   0  0  0  0  0  0  0  0  0  0  0  0
  -23.6805  -27.8323   19.2463 Cl  0  0  0  0  0  0  0  0  0  0  0  0
  -25.1509  -32.8186   22.7030 Cl  0  0  0  0  0  0  0  0  0  0  0  0
  1  2  1  0  0  0  0
  1  5  2  0  0  0  0
  2  6  2  0  0  0  0
  3  8  2  0  0  0  0
  3 17  1  0  0  0  0
  4  9  1  0  0  0  0
  4 17  2  0  0  0  0
  5 19  1  0  0  0  0
  6 21  1  0  0  0  0
  7 10  2  0  0  0  0
  7 20  1  0  0  0  0
  8 25  1  0  0  0  0
  9 25  2  0  0  0  0
 10 26  1  0  0  0  0
 11 12  2  0  0  0  0
 11 27  1  0  0  0  0
 12 28  1  0  0  0  0
 13 22  1  0  0  0  0
 13 26  2  0  0  0  0
 14 23  1  0  0  0  0
 14 30  2  0  0  0  0
 15 24  2  0  0  0  0
 15 31  1  0  0  0  0
 16 28  2  0  0  0  0
 16 29  1  0  0  0  0
 17 32  1  0  0  0  0
 18 32  1  0  0  0  0
 18 33  2  0  0  0  0
 18 34  1  0  0  0  0
 19 21  2  0  0  0  0
 19 39  1  0  0  0  0
 20 22  2  0  0  0  0
 20 40  1  0  0  0  0
 21 48  1  0  0  0  0
 22 41  1  0  0  0  0
 23 31  2  0  0  0  0
 23 56  1  0  0  0  0
 24 30  1  0  0  0  0
 24 68  1  0  0  0  0
 25 77  1  0  0  0  0
 26 78  1  0  0  0  0
 27 29  2  0  0  0  0
 27 77  1  0  0  0  0
 28 79  1  0  0  0  0
 29 80  1  0  0  0  0
 30 81  1  0  0  0  0
 31 82  1  0  0  0  0
 32 62  2  0  0  0  0
 33 63  1  0  0  0  0
 33 66  1  0  0  0  0
 34 67  1  0  0  0  0
 34 72  2  0  0  0  0
 35 49  1  0  0  0  0
 35 69  1  0  0  0  0
 35 73  2  0  0  0  0
 36 59  1  0  0  0  0
 36 64  1  0  0  0  0
 36 74  2  0  0  0  0
 37 60  1  0  0  0  0
 37 70  1  0  0  0  0
 37 75  2  0  0  0  0
 38 65  1  0  0  0  0
 38 68  1  0  0  0  0
 38 76  2  0  0  0  0
 39 42  1  0  0  0  0
 40 49  1  0  0  0  0
 41 64  1  0  0  0  0
 42 44  1  0  0  0  0
 43 45  1  0  0  0  0
 43 46  1  0  0  0  0
 44 48  1  0  0  0  0
 45 50  1  0  0  0  0
 46 65  1  0  0  0  0
 47 50  1  0  0  0  0
 47 65  1  0  0  0  0
 48 69  1  0  0  0  0
 49 64  1  0  0  0  0
 50 63  1  0  0  0  0
 51 60  1  0  0  0  0
 52 61  1  0  0  0  0
 53 61  1  0  0  0  0
 54 61  1  0  0  0  0
 55 71  1  0  0  0  0
 56 57  1  0  0  0  0
 57 58  1  0  0  0  0
 58 78  1  0  0  0  0
 59 61  1  0  0  0  0
 59 70  1  0  0  0  0
 60 71  1  0  0  0  0
 62 63  1  0  0  0  0
M  CHG  1  71   1
M  ISO  4  38 100  58 101  68 100  78 101
M  END
> <Batch ID>
0029

> <Smiles>
CNC(C)C(=O)NC(C(=O)N1Cc2cc([101O:1][101CH2:1]CCc3cc(Cl)c([100NH:0][100C:0](=O)N4CCCC(n5nc(-c6ccc(Oc7ccc(F)cc7F)cc6)c(C(N)=O)c5N)C4)cc3Cl)ccc2CC1C(=O)NC1CCCc2ccccc21)C(C)(C)C

> <Shape>
0.214

> <Color>
0.061

> <Negative vol penalty>
0.000

$$$$

  -OEChem-04052316363D

 81 89  0     1  0  0  0  0  0999 V2000
  -39.5458  -26.4665   17.3930 C   0  0  0  0  0  0  0  0  0  0  0  0
  -38.6767  -25.6817   18.1441 C   0  0  0  0  0  0  0  0  0  0  0  0
  -22.9335  -10.0081   20.0014 C   0  0  0  0  0  0  0  0  0  0  0  0
  -23.6881  -10.0043   22.2965 C   0  0  0  0  0  0  0  0  0  0  0  0
  -39.3080  -27.8336   17.2573 C   0  0  0  0  0  0  0  0  0  0  0  0
  -37.5699  -26.2638   18.7610 C   0  0  0  0  0  0  0  0  0  0  0  0
  -33.3481  -23.5337   18.1539 C   0  0  0  0  0  0  0  0  0  0  0  0
  -22.1347   -8.8947   20.2621 C   0  0  0  0  0  0  0  0  0  0  0  0
  -22.8893   -8.8909   22.5573 C   0  0  0  0  0  0  0  0  0  0  0  0
  -33.1967  -22.4073   18.9614 C   0  0  0  0  0  0  0  0  0  0  0  0
  -21.3255   -5.8297   23.7377 C   0  0  0  0  0  0  0  0  0  0  0  0
  -21.8882   -4.7856   24.4716 C   0  0  0  0  0  0  0  0  0  0  0  0
  -31.7371  -23.6567   20.4201 C   0  0  0  0  0  0  0  0  0  0  0  0
  -23.5853   -4.5074   22.7746 C   0  0  0  0  0  0  0  0  0  0  0  0
  -32.5258  -18.2105   21.8834 C   0  0  0  0  0  0  0  0  0  0  0  0
  -23.7102  -10.5628   21.0186 C   0  0  0  0  0  0  0  0  0  0  0  0
  -24.1728  -13.0672   20.8715 C   0  0  0  0  0  0  0  0  0  0  0  0
  -38.1924  -28.4310   17.8649 C   0  0  0  0  0  0  0  0  0  0  0  0
  -32.7028  -24.7352   18.4800 C   0  0  0  0  0  0  0  0  0  0  0  0
  -37.3177  -27.6404   18.6345 C   0  0  0  0  0  0  0  0  0  0  0  0
  -31.8799  -24.7962   19.6137 C   0  0  0  0  0  0  0  0  0  0  0  0
  -31.8547  -19.1167   22.6886 C   0  0  0  0  0  0  0  0  0  0  0  0
  -30.5700  -18.7885   23.1072 C   0  0  0  0  0  0  0  0  0  0  0  0
  -22.1126   -8.3362   21.5401 C   0  0  0  0  0  0  0  0  0  0  0  0
  -32.3934  -22.4695   20.0963 C   0  0  0  0  0  0  0  0  0  0  0  0
  -21.8925   -6.2126   22.5221 C   0  0  0  0  0  0  0  0  0  0  0  0
  -23.0181   -4.1245   23.9902 C   0  0  0  0  0  0  0  0  0  0  0  0
  -23.0224   -5.5514   22.0406 C   0  0  0  0  0  0  0  0  0  0  0  0
  -30.0036  -17.5813   22.7133 C   0  0  0  0  0  0  0  0  0  0  0  0
  -24.5360  -11.7126   20.7497 C   0  0  0  0  0  0  0  0  0  0  0  0
  -30.7575  -16.7440   21.9067 C   0  0  0  0  0  0  0  0  0  0  0  0
  -25.3004  -13.7595   20.5028 C   0  0  0  0  0  0  0  0  0  0  0  0
  -22.9277  -13.6479   21.2814 C   0  0  0  0  0  0  0  0  0  0  0  0
  -33.6693  -27.6719   19.2185 C   0  0  0  0  0  0  0  0  0  0  0  0
  -30.4938  -28.3247   19.1074 C   0  0  0  0  0  0  0  0  0  0  0  0
  -27.2895  -27.1730   19.3368 C   0  0  0  0  0  0  0  0  0  0  0  0
  -30.8100  -14.5441   20.6802 C   0  0  0  0  0  0  0  0  0  0  0  0
  -38.0029  -29.9211   17.7290 C   0  0  0  0  0  0  0  0  0  0  0  0
  -32.8550  -25.9337   17.5840 C   0  0  0  0  0  0  0  0  0  0  0  0
  -31.1492  -26.0563   19.9964 C   0  0  0  0  0  0  0  0  0  0  0  0
  -36.6007  -30.3936   18.1044 C   0  0  0  0  0  0  0  0  0  0  0  0
  -29.5862  -12.1601   18.3359 C   0  0  0  0  0  0  0  0  0  0  0  0
  -36.1573  -29.7581   19.4183 C   0  0  0  0  0  0  0  0  0  0  0  0
  -28.1334  -11.9426   18.7649 C   0  0  0  0  0  0  0  0  0  0  0  0
  -30.5087  -12.3583   19.5373 C   0  0  0  0  0  0  0  0  0  0  0  0
  -28.6358  -13.1886   20.9055 C   0  0  0  0  0  0  0  0  0  0  0  0
  -36.0926  -28.2307   19.2983 C   0  0  1  0  0  0  0  0  0  0  0  0
  -32.5618  -27.2517   18.2941 C   0  0  1  0  0  0  0  0  0  0  0  0
  -27.6582  -13.0489   19.7271 C   0  0  2  0  0  0  0  0  0  0  0  0
  -29.8181  -19.7456   23.9782 C   0  0  0  0  0  0  0  0  0  0  0  0
  -24.9053  -27.9498   19.2393 C   0  0  0  0  0  0  0  0  0  0  0  0
  -30.7648  -29.5003   21.9100 C   0  0  0  0  0  0  0  0  0  0  0  0
  -28.2735  -29.3779   22.1267 C   0  0  0  0  0  0  0  0  0  0  0  0
  -29.3015  -30.8138   20.3648 C   0  0  0  0  0  0  0  0  0  0  0  0
  -26.6996  -25.4438   17.0085 C   0  0  0  0  0  0  0  0  0  0  0  0
  -32.5222  -20.4112   23.0848 C   0  0  0  0  0  0  0  0  0  0  0  0
  -32.0110  -21.5984   22.2760 C   0  0  0  0  0  0  0  0  0  1  0  0
  -29.3616  -28.2996   20.1057 C   0  0  1  0  0  0  0  0  0  0  0  0
  -26.0764  -27.3865   18.4495 C   0  0  2  0  0  0  0  0  0  0  0  0
  -29.4405  -29.4746   21.1209 C   0  0  0  0  0  0  0  0  0  0  0  0
  -32.0084  -17.0284   21.4802 N   0  0  0  0  0  0  0  0  0  0  0  0
  -25.7957  -11.5517   20.3358 N   0  0  0  0  0  0  0  0  0  0  0  0
  -26.2339  -12.8142   20.1943 N   0  0  0  0  0  0  0  0  0  0  0  0
  -31.3350  -27.2031   19.0920 N   0  0  0  0  0  0  0  0  0  0  0  0
  -29.9979  -13.4244   20.4018 N   0  0  0  0  0  0  0  0  0  0  0  0
  -25.5745  -15.0785   20.4157 N   0  0  0  0  0  0  0  0  0  0  0  0
  -21.8727  -12.7920   21.6261 N   0  0  0  0  0  0  0  0  0  0  0  0
  -30.2060  -15.5082   21.4867 N   0  0  0  0  0  0  0  0  0  0  0  0
  -34.8927  -27.8294   18.5956 N   0  0  0  0  0  0  0  0  0  0  0  0
  -28.1297  -28.2662   19.3250 N   0  0  0  0  0  0  0  0  0  0  0  0
  -25.6516  -26.0975   17.8339 N   0  3  0  0  0  0  0  0  0  0  0  0
  -22.7505  -14.8890   21.3245 O   0  0  0  0  0  0  0  0  0  0  0  0
  -33.4312  -27.8422   20.4084 O   0  0  0  0  0  0  0  0  0  0  0  0
  -30.6227  -29.3003   18.3636 O   0  0  0  0  0  0  0  0  0  0  0  0
  -27.4715  -26.1411   19.9792 O   0  0  0  0  0  0  0  0  0  0  0  0
  -31.9469  -14.6534   20.2137 O   0  0  0  0  0  0  0  0  0  0  0  0
  -21.3331   -7.2499   21.7950 O   0  0  0  0  0  0  0  0  0  0  0  0
  -32.2444  -21.3717   20.8865 O   0  0  0  0  0  0  0  0  0  1  0  0
  -23.5594   -3.1228   24.6959 F   0  0  0  0  0  0  0  0  0  0  0  0
  -23.5724   -5.9156   20.8741 F   0  0  0  0  0  0  0  0  0  0  0  0
  -28.4069  -17.1533   23.2212 Cl  0  0  0  0  0  0  0  0  0  0  0  0
  1  2  1  0  0  0  0
  1  5  2  0  0  0  0
  2  6  2  0  0  0  0
  3  8  2  0  0  0  0
  3 16  1  0  0  0  0
  4  9  1  0  0  0  0
  4 16  2  0  0  0  0
  5 18  1  0  0  0  0
  6 20  1  0  0  0  0
  7 10  2  0  0  0  0
  7 19  1  0  0  0  0
  8 24  1  0  0  0  0
  9 24  2  0  0  0  0
 10 25  1  0  0  0  0
 11 12  2  0  0  0  0
 11 26  1  0  0  0  0
 12 27  1  0  0  0  0
 13 21  1  0  0  0  0
 13 25  2  0  0  0  0
 14 27  2  0  0  0  0
 14 28  1  0  0  0  0
 15 22  1  0  0  0  0
 15 61  2  0  0  0  0
 16 30  1  0  0  0  0
 17 30  1  0  0  0  0
 17 32  2  0  0  0  0
 17 33  1  0  0  0  0
 18 20  2  0  0  0  0
 18 38  1  0  0  0  0
 19 21  2  0  0  0  0
 19 39  1  0  0  0  0
 20 47  1  0  0  0  0
 21 40  1  0  0  0  0
 22 23  2  0  0  0  0
 22 56  1  0  0  0  0
 23 29  1  0  0  0  0
 23 50  1  0  0  0  0
 24 77  1  0  0  0  0
 25 78  1  0  0  0  0
 26 28  2  0  0  0  0
 26 77  1  0  0  0  0
 27 79  1  0  0  0  0
 28 80  1  0  0  0  0
 29 31  2  0  0  0  0
 29 81  1  0  0  0  0
 30 62  2  0  0  0  0
 31 61  1  0  0  0  0
 31 68  1  0  0  0  0
 32 63  1  0  0  0  0
 32 66  1  0  0  0  0
 33 67  1  0  0  0  0
 33 72  2  0  0  0  0
 34 48  1  0  0  0  0
 34 69  1  0  0  0  0
 34 73  2  0  0  0  0
 35 58  1  0  0  0  0
 35 64  1  0  0  0  0
 35 74  2  0  0  0  0
 36 59  1  0  0  0  0
 36 70  1  0  0  0  0
 36 75  2  0  0  0  0
 37 65  1  0  0  0  0
 37 68  1  0  0  0  0
 37 76  2  0  0  0  0
 38 41  1  0  0  0  0
 39 48  1  0  0  0  0
 40 64  1  0  0  0  0
 41 43  1  0  0  0  0
 42 44  1  0  0  0  0
 42 45  1  0  0  0  0
 43 47  1  0  0  0  0
 44 49  1  0  0  0  0
 45 65  1  0  0  0  0
 46 49  1  0  0  0  0
 46 65  1  0  0  0  0
 47 69  1  0  0  0  0
 48 64  1  0  0  0  0
 49 63  1  0  0  0  0
 51 59  1  0  0  0  0
 52 60  1  0  0  0  0
 53 60  1  0  0  0  0
 54 60  1  0  0  0  0
 55 71  1  0  0  0  0
 56 57  1  0  0  0  0
 57 78  1  0  0  0  0
 58 60  1  0  0  0  0
 58 70  1  0  0  0  0
 59 71  1  0  0  0  0
 62 63  1  0  0  0  0
M  CHG  1  71   1
M  ISO  4  37 100  57 101  68 100  78 101
M  END
> <Batch ID>
0029

> <Smiles>
CNC(C)C(=O)NC(C(=O)N1Cc2cc([101O:1][101CH2:1]Cc3cnc([100NH:0][100C:0](=O)N4CCCC(n5nc(-c6ccc(Oc7ccc(F)cc7F)cc6)c(C(N)=O)c5N)C4)c(Cl)c3C)ccc2CC1C(=O)NC1CCCc2ccccc21)C(C)(C)C

> <Shape>
0.245

> <Color>
0.207

> <Negative vol penalty>
0.000

$$$$

  -OEChem-04052316363D

 87 95  0     1  0  0  0  0  0999 V2000
  -31.2882  -22.5804   11.7904 C   0  0  0  0  0  0  0  0  0  0  0  0
  -30.6750  -23.2915   12.8170 C   0  0  0  0  0  0  0  0  0  0  0  0
  -22.9328  -17.2724   19.5306 C   0  0  0  0  0  0  0  0  0  0  0  0
  -21.5046  -17.3020   21.4790 C   0  0  0  0  0  0  0  0  0  0  0  0
  -31.2041  -21.1890   11.7607 C   0  0  0  0  0  0  0  0  0  0  0  0
  -29.9764  -22.6115   13.8140 C   0  0  0  0  0  0  0  0  0  0  0  0
  -31.0256  -24.3509   18.4528 C   0  0  0  0  0  0  0  0  0  0  0  0
  -23.0784  -15.8911   19.6583 C   0  0  0  0  0  0  0  0  0  0  0  0
  -21.6502  -15.9206   21.6067 C   0  0  0  0  0  0  0  0  0  0  0  0
  -30.4092  -25.5395   18.8416 C   0  0  0  0  0  0  0  0  0  0  0  0
  -24.8670  -13.7403   21.5555 C   0  0  0  0  0  0  0  0  0  0  0  0
  -26.1499  -13.2095   21.4215 C   0  0  0  0  0  0  0  0  0  0  0  0
  -28.7739  -24.2770   20.0871 C   0  0  0  0  0  0  0  0  0  0  0  0
  -27.0392  -28.3444   19.5875 C   0  0  0  0  0  0  0  0  0  0  0  0
  -25.4026  -11.8758   19.5508 C   0  0  0  0  0  0  0  0  0  0  0  0
  -26.4070  -26.9464   17.3312 C   0  0  0  0  0  0  0  0  0  0  0  0
  -22.1459  -17.9779   20.4410 C   0  0  0  0  0  0  0  0  0  0  0  0
  -21.0094  -20.0920   19.5770 C   0  0  0  0  0  0  0  0  0  0  0  0
  -30.5122  -20.4911   12.7631 C   0  0  0  0  0  0  0  0  0  0  0  0
  -30.5134  -23.1140   18.8700 C   0  0  0  0  0  0  0  0  0  0  0  0
  -29.8818  -21.2095   13.7969 C   0  0  0  0  0  0  0  0  0  0  0  0
  -29.3871  -23.0743   19.7043 C   0  0  0  0  0  0  0  0  0  0  0  0
  -26.0370  -28.8197   18.7490 C   0  0  0  0  0  0  0  0  0  0  0  0
  -22.4372  -15.2152   20.6963 C   0  0  0  0  0  0  0  0  0  0  0  0
  -29.2816  -25.5026   19.6565 C   0  0  0  0  0  0  0  0  0  0  0  0
  -23.8518  -13.3388   20.6872 C   0  0  0  0  0  0  0  0  0  0  0  0
  -26.4177  -12.2773   20.4192 C   0  0  0  0  0  0  0  0  0  0  0  0
  -24.1197  -12.4065   19.6848 C   0  0  0  0  0  0  0  0  0  0  0  0
  -25.7092  -28.1135   17.5969 C   0  0  0  0  0  0  0  0  0  0  0  0
  -21.9955  -19.4049   20.3100 C   0  0  0  0  0  0  0  0  0  0  0  0
  -27.6782  -27.1675   19.2322 C   0  0  0  0  0  0  0  0  0  1  0  0
  -21.3004  -21.4202   19.7712 C   0  0  0  0  0  0  0  0  0  0  0  0
  -19.9271  -19.5759   18.7910 C   0  0  0  0  0  0  0  0  0  0  0  0
  -29.3115  -20.5699   17.3912 C   0  0  0  0  0  0  0  0  0  0  0  0
  -29.3265  -19.3103   20.3804 C   0  0  0  0  0  0  0  0  0  0  0  0
  -29.2943  -19.8468   23.7506 C   0  0  0  0  0  0  0  0  0  0  0  0
  -22.7303  -25.6502   23.1190 C   0  0  0  0  0  0  0  0  0  0  0  0
  -30.4084  -18.9898   12.6628 C   0  0  0  0  0  0  0  0  0  0  0  0
  -31.2056  -21.8419   18.4638 C   0  0  0  0  0  0  0  0  0  0  0  0
  -28.8100  -21.7730   20.1961 C   0  0  0  0  0  0  0  0  0  0  0  0
  -29.9666  -18.3216   13.9622 C   0  0  0  0  0  0  0  0  0  0  0  0
  -25.3616  -23.6359   21.8167 C   0  0  0  0  0  0  0  0  0  0  0  0
  -28.7727  -19.0577   14.5619 C   0  0  0  0  0  0  0  0  0  0  0  0
  -24.6397  -22.4102   21.2542 C   0  0  0  0  0  0  0  0  0  0  0  0
  -24.6975  -24.1449   23.0942 C   0  0  0  0  0  0  0  0  0  0  0  0
  -22.5305  -23.1888   22.4134 C   0  0  0  0  0  0  0  0  0  0  0  0
  -29.1358  -20.5063   14.9101 C   0  0  1  0  0  0  0  0  0  0  0  0
  -30.2947  -20.6197   18.5263 C   0  0  1  0  0  0  0  0  0  0  0  0
  -23.1302  -22.6728   21.0941 C   0  0  2  0  0  0  0  0  0  0  0  0
  -29.2736  -18.6212   25.9403 C   0  0  0  0  0  0  0  0  0  0  0  0
  -26.3711  -18.6620   19.9868 C   0  0  0  0  0  0  0  0  0  0  0  0
  -26.1845  -18.3361   22.4621 C   0  0  0  0  0  0  0  0  0  0  0  0
  -27.6907  -16.8666   21.1224 C   0  0  0  0  0  0  0  0  0  0  0  0
  -18.9590  -26.5586   21.3199 C   0  0  0  0  0  0  0  0  0  0  0  0
  -19.2547  -28.8981   22.1278 C   0  0  0  0  0  0  0  0  0  0  0  0
  -31.8712  -21.0445   24.5778 C   0  0  0  0  0  0  0  0  0  0  0  0
  -25.3318  -30.1000   19.1201 C   0  0  0  0  0  0  0  0  0  0  0  0
  -24.3045  -29.9375   20.2461 C   0  0  0  0  0  0  0  0  0  0  0  0
  -23.1464  -29.0074   19.8709 C   0  0  0  0  0  0  0  0  0  0  0  0
  -22.1616  -28.8502   21.0344 C   0  0  0  0  0  0  0  0  0  0  0  0
  -21.0248  -27.8884   20.6662 C   0  0  0  0  0  0  0  0  0  0  0  0
  -20.6722  -27.0364   23.0787 C   0  0  0  0  0  0  0  0  0  0  0  0
  -28.3486  -19.2735   21.5299 C   0  0  1  0  0  0  0  0  0  0  0  0
  -30.1398  -19.2682   24.8708 C   0  0  2  0  0  0  0  0  0  0  0  0
  -27.1582  -18.3091   21.2646 C   0  0  0  0  0  0  0  0  0  0  0  0
  -20.0024  -27.5877   21.7986 C   0  0  0  0  0  0  0  0  0  0  0  0
  -27.3867  -26.4535   18.1218 N   0  0  0  0  0  0  0  0  0  0  0  0
  -22.8493  -20.2285   20.9238 N   0  0  0  0  0  0  0  0  0  0  0  0
  -22.4005  -21.4469   20.5770 N   0  0  0  0  0  0  0  0  0  0  0  0
  -29.5186  -20.5561   19.7664 N   0  0  0  0  0  0  0  0  0  0  0  0
  -23.2677  -24.3757   22.8745 N   0  0  0  0  0  0  0  0  0  0  0  0
  -20.7201  -22.5563   19.3295 N   0  0  0  0  0  0  0  0  0  0  0  0
  -19.7725  -18.1860   18.6978 N   0  0  0  0  0  0  0  0  0  0  0  0
  -29.8973  -20.5548   16.1398 N   0  0  0  0  0  0  0  0  0  0  0  0
  -29.1284  -18.9471   22.7189 N   0  0  0  0  0  0  0  0  0  0  0  0
  -21.3683  -25.7848   22.8794 N   0  0  0  0  0  0  0  0  0  0  0  0
  -30.9550  -20.3392   25.5106 N   0  3  0  0  0  0  0  0  0  0  0  0
  -19.1308  -20.3248   18.1757 O   0  0  0  0  0  0  0  0  0  0  0  0
  -28.1104  -20.5454   17.6328 O   0  0  0  0  0  0  0  0  0  0  0  0
  -29.9041  -18.2735   20.0444 O   0  0  0  0  0  0  0  0  0  0  0  0
  -28.8247  -20.9820   23.7887 O   0  0  0  0  0  0  0  0  0  0  0  0
  -23.4147  -26.5994   23.5160 O   0  0  0  0  0  0  0  0  0  0  0  0
  -22.5789  -13.8673   20.8211 O   0  0  0  0  0  0  0  0  0  0  0  0
  -28.6689  -26.6780   20.0424 O   0  0  0  0  0  0  0  0  0  1  0  0
  -27.6502  -11.7688   20.2896 F   0  0  0  0  0  0  0  0  0  0  0  0
  -23.1488  -12.0178   18.8469 F   0  0  0  0  0  0  0  0  0  0  0  0
  -24.4823  -28.6415   16.5141 Cl  0  0  0  0  0  0  0  0  0  0  0  0
  1  2  1  0  0  0  0
  1  5  2  0  0  0  0
  2  6  2  0  0  0  0
  3  8  2  0  0  0  0
  3 17  1  0  0  0  0
  4  9  1  0  0  0  0
  4 17  2  0  0  0  0
  5 19  1  0  0  0  0
  6 21  1  0  0  0  0
  7 10  2  0  0  0  0
  7 20  1  0  0  0  0
  8 24  1  0  0  0  0
  9 24  2  0  0  0  0
 10 25  1  0  0  0  0
 11 12  2  0  0  0  0
 11 26  1  0  0  0  0
 12 27  1  0  0  0  0
 13 22  1  0  0  0  0
 13 25  2  0  0  0  0
 14 23  2  0  0  0  0
 14 31  1  0  0  0  0
 15 27  2  0  0  0  0
 15 28  1  0  0  0  0
 16 29  2  0  0  0  0
 16 67  1  0  0  0  0
 17 30  1  0  0  0  0
 18 30  1  0  0  0  0
 18 32  2  0  0  0  0
 18 33  1  0  0  0  0
 19 21  2  0  0  0  0
 19 38  1  0  0  0  0
 20 22  2  0  0  0  0
 20 39  1  0  0  0  0
 21 47  1  0  0  0  0
 22 40  1  0  0  0  0
 23 29  1  0  0  0  0
 23 57  1  0  0  0  0
 24 83  1  0  0  0  0
 25 84  1  0  0  0  0
 26 28  2  0  0  0  0
 26 83  1  0  0  0  0
 27 85  1  0  0  0  0
 28 86  1  0  0  0  0
 29 87  1  0  0  0  0
 30 68  2  0  0  0  0
 31 67  2  0  0  0  0
 31 84  1  0  0  0  0
 32 69  1  0  0  0  0
 32 72  1  0  0  0  0
 33 73  1  0  0  0  0
 33 78  2  0  0  0  0
 34 48  1  0  0  0  0
 34 74  1  0  0  0  0
 34 79  2  0  0  0  0
 35 63  1  0  0  0  0
 35 70  1  0  0  0  0
 35 80  2  0  0  0  0
 36 64  1  0  0  0  0
 36 75  1  0  0  0  0
 36 81  2  0  0  0  0
 37 71  1  0  0  0  0
 37 76  1  0  0  0  0
 37 82  2  0  0  0  0
 38 41  1  0  0  0  0
 39 48  1  0  0  0  0
 40 70  1  0  0  0  0
 41 43  1  0  0  0  0
 42 44  1  0  0  0  0
 42 45  1  0  0  0  0
 43 47  1  0  0  0  0
 44 49  1  0  0  0  0
 45 71  1  0  0  0  0
 46 49  1  0  0  0  0
 46 71  1  0  0  0  0
 47 74  1  0  0  0  0
 48 70  1  0  0  0  0
 49 69  1  0  0  0  0
 50 64  1  0  0  0  0
 51 65  1  0  0  0  0
 52 65  1  0  0  0  0
 53 65  1  0  0  0  0
 54 66  1  0  0  0  0
 55 66  1  0  0  0  0
 56 77  1  0  0  0  0
 57 58  1  0  0  0  0
 58 59  1  0  0  0  0
 59 60  1  0  0  0  0
 60 61  1  0  0  0  0
 61 66  1  0  0  0  0
 62 66  1  0  0  0  0
 62 76  1  0  0  0  0
 63 65  1  0  0  0  0
 63 75  1  0  0  0  0
 64 77  1  0  0  0  0
 68 69  1  0  0  0  0
M  CHG  1  77   1
M  ISO  4  31 101  37 100  76 100  84 101
M  END
> <Batch ID>
0029

> <Smiles>
CNC(C)C(=O)NC(C(=O)N1Cc2cc([101O:1][101c:1]3cc(CCCCCC(C)(C)C[100NH:0][100C:0](=O)N4CCCC(n5nc(-c6ccc(Oc7ccc(F)cc7F)cc6)c(C(N)=O)c5N)C4)c(Cl)cn3)ccc2CC1C(=O)NC1CCCc2ccccc21)C(C)(C)C

> <Shape>
0.180

> <Color>
0.056

> <Negative vol penalty>
0.000

$$$$

  -OEChem-04052316363D

 82 90  0     1  0  0  0  0  0999 V2000
  -25.6311  -38.0416   26.6789 C   0  0  0  0  0  0  0  0  0  0  0  0
  -25.4437  -36.7866   27.2494 C   0  0  0  0  0  0  0  0  0  0  0  0
  -26.5980  -14.4041   18.7891 C   0  0  0  0  0  0  0  0  0  0  0  0
  -24.7503  -14.8941   20.2666 C   0  0  0  0  0  0  0  0  0  0  0  0
  -25.3362  -38.2445   25.3314 C   0  0  0  0  0  0  0  0  0  0  0  0
  -24.9603  -35.7341   26.4729 C   0  0  0  0  0  0  0  0  0  0  0  0
  -26.4601  -29.8156   26.9500 C   0  0  0  0  0  0  0  0  0  0  0  0
  -26.6472  -13.1006   19.2830 C   0  0  0  0  0  0  0  0  0  0  0  0
  -24.7994  -13.5906   20.7604 C   0  0  0  0  0  0  0  0  0  0  0  0
  -25.8327  -28.7361   27.5702 C   0  0  0  0  0  0  0  0  0  0  0  0
  -23.7858  -10.5185   19.7829 C   0  0  0  0  0  0  0  0  0  0  0  0
  -22.5781   -9.8357   19.9270 C   0  0  0  0  0  0  0  0  0  0  0  0
  -24.8221  -28.1230   25.4674 C   0  0  0  0  0  0  0  0  0  0  0  0
  -25.3560  -25.0743   25.9219 C   0  0  0  0  0  0  0  0  0  0  0  0
  -22.9928   -9.6020   22.2956 C   0  0  0  0  0  0  0  0  0  0  0  0
  -25.6496  -15.3009   19.2810 C   0  0  0  0  0  0  0  0  0  0  0  0
  -24.8468  -17.1148   17.6768 C   0  0  0  0  0  0  0  0  0  0  0  0
  -24.8580  -37.1916   24.5356 C   0  0  0  0  0  0  0  0  0  0  0  0
  -26.2642  -30.0638   25.5838 C   0  0  0  0  0  0  0  0  0  0  0  0
  -24.6574  -35.9236   25.1138 C   0  0  0  0  0  0  0  0  0  0  0  0
  -25.4502  -29.2049   24.8316 C   0  0  0  0  0  0  0  0  0  0  0  0
  -24.8863  -23.7928   25.5416 C   0  0  0  0  0  0  0  0  0  0  0  0
  -25.7479  -12.6938   20.2686 C   0  0  0  0  0  0  0  0  0  0  0  0
  -25.0112  -27.8913   26.8296 C   0  0  0  0  0  0  0  0  0  0  0  0
  -24.5971  -10.7430   20.8951 C   0  0  0  0  0  0  0  0  0  0  0  0
  -22.1816   -9.3775   21.1833 C   0  0  0  0  0  0  0  0  0  0  0  0
  -24.2006  -10.2848   22.1515 C   0  0  0  0  0  0  0  0  0  0  0  0
  -25.5986  -16.6478   18.7716 C   0  0  0  0  0  0  0  0  0  0  0  0
  -23.6817  -23.5907   26.1784 C   0  0  0  0  0  0  0  0  0  0  0  0
  -25.1424  -18.4541   17.6036 C   0  0  0  0  0  0  0  0  0  0  0  0
  -24.4240  -25.6164   26.7792 C   0  0  0  0  0  0  0  0  0  1  0  0
  -23.9605  -16.4017   16.8042 C   0  0  0  0  0  0  0  0  0  0  0  0
  -25.0312  -32.4562   23.8928 C   0  0  0  0  0  0  0  0  0  0  0  0
  -26.0961  -30.7097   21.3752 C   0  0  0  0  0  0  0  0  0  0  0  0
  -26.9885  -27.6572   20.1374 C   0  0  0  0  0  0  0  0  0  0  0  0
  -27.0206  -22.4425   21.6553 C   0  0  0  0  0  0  0  0  0  0  0  0
  -24.5083  -37.4710   23.0954 C   0  0  0  0  0  0  0  0  0  0  0  0
  -26.9694  -31.2169   24.9240 C   0  0  0  0  0  0  0  0  0  0  0  0
  -25.2235  -29.4160   23.3577 C   0  0  0  0  0  0  0  0  0  0  0  0
  -24.3550  -36.2093   22.2499 C   0  0  0  0  0  0  0  0  0  0  0  0
  -28.6260  -21.5796   18.5967 C   0  0  0  0  0  0  0  0  0  0  0  0
  -23.5008  -35.1779   22.9803 C   0  0  0  0  0  0  0  0  0  0  0  0
  -27.9644  -20.2599   18.1960 C   0  0  0  0  0  0  0  0  0  0  0  0
  -28.8026  -21.6857   20.1099 C   0  0  0  0  0  0  0  0  0  0  0  0
  -26.9093  -20.1551   20.4926 C   0  0  0  0  0  0  0  0  0  0  0  0
  -24.1582  -34.7507   24.2981 C   0  0  1  0  0  0  0  0  0  0  0  0
  -26.2896  -31.6759   23.6377 C   0  0  1  0  0  0  0  0  0  0  0  0
  -26.6592  -20.0262   18.9803 C   0  0  2  0  0  0  0  0  0  0  0  0
  -22.7651  -22.4309   26.1374 C   0  0  0  0  0  0  0  0  0  0  0  0
  -27.7791  -26.5386   18.0347 C   0  0  0  0  0  0  0  0  0  0  0  0
  -23.2707  -30.8642   20.2336 C   0  0  0  0  0  0  0  0  0  0  0  0
  -23.8684  -28.9888   18.6864 C   0  0  0  0  0  0  0  0  0  0  0  0
  -25.0946  -31.1567   18.5476 C   0  0  0  0  0  0  0  0  0  0  0  0
  -22.2346  -24.8957   27.7509 C   0  0  0  0  0  0  0  0  0  0  0  0
  -29.5101  -26.7798   21.4143 C   0  0  0  0  0  0  0  0  0  0  0  0
  -25.1520  -23.0655   23.1650 C   0  0  0  0  0  0  0  0  0  0  0  0
  -25.5152  -29.6181   20.5093 C   0  0  1  0  0  0  0  0  0  0  0  0
  -28.1963  -27.2099   19.3340 C   0  0  2  0  0  0  0  0  0  0  0  0
  -25.5686  -22.8529   24.6307 C   0  0  0  0  0  0  0  0  0  0  0  0
  -24.4397  -30.1538   19.5224 C   0  0  0  0  0  0  0  0  0  0  0  0
  -26.3178  -17.6121   19.3521 N   0  0  0  0  0  0  0  0  0  0  0  0
  -23.4106  -24.7057   26.9280 N   0  0  0  0  0  0  0  0  0  0  0  0
  -26.0193  -18.6983   18.6192 N   0  0  0  0  0  0  0  0  0  0  0  0
  -25.9299  -30.5608   22.7595 N   0  0  0  0  0  0  0  0  0  0  0  0
  -27.5280  -21.4555   20.7943 N   0  0  0  0  0  0  0  0  0  0  0  0
  -24.7351  -19.4349   16.7702 N   0  0  0  0  0  0  0  0  0  0  0  0
  -23.7705  -15.0300   17.0203 N   0  0  0  0  0  0  0  0  0  0  0  0
  -25.2329  -33.8146   24.0467 N   0  0  0  0  0  0  0  0  0  0  0  0
  -26.6475  -28.9645   19.8620 N   0  0  0  0  0  0  0  0  0  0  0  0
  -25.8043  -22.1470   22.2586 N   0  0  0  0  0  0  0  0  0  0  0  0
  -29.0131  -26.2434   20.1212 N   0  3  0  0  0  0  0  0  0  0  0  0
  -23.3676  -16.9608   15.8505 O   0  0  0  0  0  0  0  0  0  0  0  0
  -23.9566  -31.8696   23.9446 O   0  0  0  0  0  0  0  0  0  0  0  0
  -26.6822  -31.6560   20.8435 O   0  0  0  0  0  0  0  0  0  0  0  0
  -26.4035  -26.9193   20.9273 O   0  0  0  0  0  0  0  0  0  0  0  0
  -27.6054  -23.5104   21.8663 O   0  0  0  0  0  0  0  0  0  0  0  0
  -25.7955  -11.4217   20.7506 O   0  0  0  0  0  0  0  0  0  0  0  0
  -24.3971  -26.8372   27.4326 O   0  0  0  0  0  0  0  0  0  1  0  0
  -21.0210   -8.7232   21.3218 F   0  0  0  0  0  0  0  0  0  0  0  0
  -24.9752  -10.4985   23.2239 F   0  0  0  0  0  0  0  0  0  0  0  0
  -26.9428  -22.9506   24.6748 F   0  0  0  0  0  0  0  0  0  0  0  0
  -25.3237  -21.5296   24.9288 F   0  0  0  0  0  0  0  0  0  0  0  0
  1  2  1  0  0  0  0
  1  5  2  0  0  0  0
  2  6  2  0  0  0  0
  3  8  2  0  0  0  0
  3 16  1  0  0  0  0
  4  9  1  0  0  0  0
  4 16  2  0  0  0  0
  5 18  1  0  0  0  0
  6 20  1  0  0  0  0
  7 10  2  0  0  0  0
  7 19  1  0  0  0  0
  8 23  1  0  0  0  0
  9 23  2  0  0  0  0
 10 24  1  0  0  0  0
 11 12  2  0  0  0  0
 11 25  1  0  0  0  0
 12 26  1  0  0  0  0
 13 21  1  0  0  0  0
 13 24  2  0  0  0  0
 14 22  1  0  0  0  0
 14 31  2  0  0  0  0
 15 26  2  0  0  0  0
 15 27  1  0  0  0  0
 16 28  1  0  0  0  0
 17 28  1  0  0  0  0
 17 30  2  0  0  0  0
 17 32  1  0  0  0  0
 18 20  2  0  0  0  0
 18 37  1  0  0  0  0
 19 21  2  0  0  0  0
 19 38  1  0  0  0  0
 20 46  1  0  0  0  0
 21 39  1  0  0  0  0
 22 29  2  0  0  0  0
 22 59  1  0  0  0  0
 23 77  1  0  0  0  0
 24 78  1  0  0  0  0
 25 27  2  0  0  0  0
 25 77  1  0  0  0  0
 26 79  1  0  0  0  0
 27 80  1  0  0  0  0
 28 61  2  0  0  0  0
 29 49  1  0  0  0  0
 29 62  1  0  0  0  0
 30 63  1  0  0  0  0
 30 66  1  0  0  0  0
 31 62  1  0  0  0  0
 31 78  1  0  0  0  0
 32 67  1  0  0  0  0
 32 72  2  0  0  0  0
 33 47  1  0  0  0  0
 33 68  1  0  0  0  0
 33 73  2  0  0  0  0
 34 57  1  0  0  0  0
 34 64  1  0  0  0  0
 34 74  2  0  0  0  0
 35 58  1  0  0  0  0
 35 69  1  0  0  0  0
 35 75  2  0  0  0  0
 36 65  1  0  0  0  0
 36 70  1  0  0  0  0
 36 76  2  0  0  0  0
 37 40  1  0  0  0  0
 38 47  1  0  0  0  0
 39 64  1  0  0  0  0
 40 42  1  0  0  0  0
 41 43  1  0  0  0  0
 41 44  1  0  0  0  0
 42 46  1  0  0  0  0
 43 48  1  0  0  0  0
 44 65  1  0  0  0  0
 45 48  1  0  0  0  0
 45 65  1  0  0  0  0
 46 68  1  0  0  0  0
 47 64  1  0  0  0  0
 48 63  1  0  0  0  0
 50 58  1  0  0  0  0
 51 60  1  0  0  0  0
 52 60  1  0  0  0  0
 53 60  1  0  0  0  0
 54 62  1  0  0  0  0
 55 71  1  0  0  0  0
 56 59  1  0  0  0  0
 56 70  1  0  0  0  0
 57 60  1  0  0  0  0
 57 69  1  0  0  0  0
 58 71  1  0  0  0  0
 59 81  1  0  0  0  0
 59 82  1  0  0  0  0
 61 63  1  0  0  0  0
M  CHG  1  71   1
M  ISO  4  31 101  36 100  70 100  78 101
M  END
> <Batch ID>
0029

> <Smiles>
CNC(C)C(=O)NC(C(=O)N1Cc2cc([101O:1][101c:1]3cc(C(F)(F)C[100NH:0][100C:0](=O)N4CCCC(n5nc(-c6ccc(Oc7ccc(F)cc7F)cc6)c(C(N)=O)c5N)C4)c(C)n3C)ccc2CC1C(=O)NC1CCCc2ccccc21)C(C)(C)C

> <Shape>
0.240

> <Color>
0.060

> <Negative vol penalty>
0.000

$$$$

  -OEChem-04052316363D

 93102  0     1  0  0  0  0  0999 V2000
  -28.1993  -38.9966   22.9244 C   0  0  0  0  0  0  0  0  0  0  0  0
  -28.3993  -37.6311   22.7491 C   0  0  0  0  0  0  0  0  0  0  0  0
  -23.1688   -9.7121   19.8949 C   0  0  0  0  0  0  0  0  0  0  0  0
  -23.9133   -9.7337   22.1933 C   0  0  0  0  0  0  0  0  0  0  0  0
  -26.9913  -39.4622   23.4421 C   0  0  0  0  0  0  0  0  0  0  0  0
  -27.3918  -36.7303   23.0924 C   0  0  0  0  0  0  0  0  0  0  0  0
  -26.0461  -31.4624   20.2738 C   0  0  0  0  0  0  0  0  0  0  0  0
  -22.4787   -8.5229   20.1296 C   0  0  0  0  0  0  0  0  0  0  0  0
  -23.2231   -8.5445   22.4280 C   0  0  0  0  0  0  0  0  0  0  0  0
  -26.3759  -30.1372   20.5550 C   0  0  0  0  0  0  0  0  0  0  0  0
  -20.0326   -7.5897   23.0019 C   0  0  0  0  0  0  0  0  0  0  0  0
  -19.2711   -7.5033   24.1673 C   0  0  0  0  0  0  0  0  0  0  0  0
  -24.2652  -29.8589   21.6893 C   0  0  0  0  0  0  0  0  0  0  0  0
  -25.8600  -25.5741   23.7748 C   0  0  0  0  0  0  0  0  0  0  0  0
  -25.9528  -23.6796   21.7291 C   0  0  0  0  0  0  0  0  0  0  0  0
  -20.5980   -5.6198   24.8946 C   0  0  0  0  0  0  0  0  0  0  0  0
  -23.8862  -10.3175   20.9268 C   0  0  0  0  0  0  0  0  0  0  0  0
  -24.1091  -12.8570   20.8316 C   0  0  0  0  0  0  0  0  0  0  0  0
  -25.9649  -38.5673   23.7830 C   0  0  0  0  0  0  0  0  0  0  0  0
  -24.8260  -31.9998   20.7085 C   0  0  0  0  0  0  0  0  0  0  0  0
  -26.1695  -37.1842   23.6164 C   0  0  0  0  0  0  0  0  0  0  0  0
  -23.9212  -31.1904   21.4102 C   0  0  0  0  0  0  0  0  0  0  0  0
  -25.3932  -25.8995   22.5013 C   0  0  0  0  0  0  0  0  0  0  0  0
  -26.4196  -23.3543   23.0027 C   0  0  0  0  0  0  0  0  0  0  0  0
  -22.5058   -7.9391   21.3961 C   0  0  0  0  0  0  0  0  0  0  0  0
  -25.4867  -29.3361   21.2653 C   0  0  0  0  0  0  0  0  0  0  0  0
  -21.0767   -6.6912   22.7827 C   0  0  0  0  0  0  0  0  0  0  0  0
  -19.5538   -6.5184   25.1137 C   0  0  0  0  0  0  0  0  0  0  0  0
  -21.3595   -5.7063   23.7291 C   0  0  0  0  0  0  0  0  0  0  0  0
  -25.4396  -24.9522   21.4785 C   0  0  0  0  0  0  0  0  0  0  0  0
  -26.3732  -24.3015   24.0255 C   0  0  0  0  0  0  0  0  0  0  0  0
  -24.5998  -11.5457   20.6848 C   0  0  0  0  0  0  0  0  0  0  0  0
  -25.1669  -13.6605   20.4824 C   0  0  0  0  0  0  0  0  0  0  0  0
  -22.8131  -13.3084   21.2467 C   0  0  0  0  0  0  0  0  0  0  0  0
  -23.9843  -34.3616   22.6622 C   0  0  0  0  0  0  0  0  0  0  0  0
  -21.0017  -33.6538   21.6012 C   0  0  0  0  0  0  0  0  0  0  0  0
  -18.8811  -31.3523   20.2401 C   0  0  0  0  0  0  0  0  0  0  0  0
  -30.5951  -14.9352   20.7163 C   0  0  0  0  0  0  0  0  0  0  0  0
  -24.6942  -39.1146   24.3834 C   0  0  0  0  0  0  0  0  0  0  0  0
  -24.4736  -33.4233   20.3740 C   0  0  0  0  0  0  0  0  0  0  0  0
  -22.5898  -31.7135   21.8815 C   0  0  0  0  0  0  0  0  0  0  0  0
  -23.5369  -38.1192   24.3715 C   0  0  0  0  0  0  0  0  0  0  0  0
  -29.5863  -12.5219   18.3008 C   0  0  0  0  0  0  0  0  0  0  0  0
  -24.0023  -36.7536   24.8668 C   0  0  0  0  0  0  0  0  0  0  0  0
  -28.1616  -12.1567   18.7215 C   0  0  0  0  0  0  0  0  0  0  0  0
  -30.2381  -18.1804   20.9634 C   0  0  0  0  0  0  0  0  0  0  0  0
  -30.8285  -19.5235   21.3969 C   0  0  0  0  0  0  0  0  0  0  0  0
  -30.0986  -17.4528   23.3855 C   0  0  0  0  0  0  0  0  0  0  0  0
  -30.4845  -12.7746   19.5097 C   0  0  0  0  0  0  0  0  0  0  0  0
  -28.5417  -13.4023   20.8901 C   0  0  0  0  0  0  0  0  0  0  0  0
  -25.0913  -36.1774   23.9538 C   0  0  1  0  0  0  0  0  0  0  0  0
  -23.4255  -34.0154   21.3111 C   0  0  1  0  0  0  0  0  0  0  0  0
  -30.7054  -18.7941   23.8293 C   0  0  1  0  0  0  0  0  0  0  0  0
  -27.5842  -13.1929   19.7045 C   0  0  2  0  0  0  0  0  0  0  0  0
  -30.5516  -17.0750   21.9728 C   0  0  1  0  0  0  0  0  0  0  0  0
  -30.4257  -19.9231   22.8196 C   0  0  2  0  0  0  0  0  0  0  0  0
  -30.9219  -20.3951   25.7368 C   0  0  0  0  0  0  0  0  0  0  0  0
  -16.4945  -31.0536   19.5243 C   0  0  0  0  0  0  0  0  0  0  0  0
  -20.1615  -33.3869   24.5222 C   0  0  0  0  0  0  0  0  0  0  0  0
  -18.1033  -32.1897   23.7483 C   0  0  0  0  0  0  0  0  0  0  0  0
  -18.5010  -34.5547   23.0616 C   0  0  0  0  0  0  0  0  0  0  0  0
  -19.6661  -30.8338   17.4341 C   0  0  0  0  0  0  0  0  0  0  0  0
  -24.8485  -27.2789   22.2734 C   0  0  0  0  0  0  0  0  0  1  0  0
  -26.9628  -21.9804   23.2310 C   0  0  0  0  0  0  0  0  0  0  0  0
  -30.2691  -19.1429   25.2538 C   0  0  0  0  0  0  0  0  0  0  0  0
  -19.9047  -32.7154   22.0425 C   0  0  1  0  0  0  0  0  0  0  0  0
  -17.8974  -31.4465   19.0878 C   0  0  2  0  0  0  0  0  0  0  0  0
  -19.1935  -33.2021   23.3366 C   0  0  0  0  0  0  0  0  0  0  0  0
  -25.8703  -11.5135   20.2741 N   0  0  0  0  0  0  0  0  0  0  0  0
  -26.1870  -12.8145   20.1598 N   0  0  0  0  0  0  0  0  0  0  0  0
  -22.2939  -33.1135   21.5353 N   0  0  0  0  0  0  0  0  0  0  0  0
  -29.8804  -13.7678   20.4011 N   0  0  0  0  0  0  0  0  0  0  0  0
  -25.3146  -15.0010   20.4227 N   0  0  0  0  0  0  0  0  0  0  0  0
  -21.8432  -12.3494   21.5691 N   0  0  0  0  0  0  0  0  0  0  0  0
  -24.5049  -35.6389   22.7453 N   0  0  0  0  0  0  0  0  0  0  0  0
  -19.0166  -32.5576   20.8958 N   0  0  0  0  0  0  0  0  0  0  0  0
  -29.9475  -15.8269   21.5626 N   0  0  0  0  0  0  0  0  0  0  0  0
  -28.9960  -20.2814   22.8202 N   0  0  0  0  0  0  0  0  0  0  0  0
  -18.3135  -30.5451   17.9764 N   0  3  0  0  0  0  0  0  0  0  0  0
  -22.5187  -14.5259   21.3135 O   0  0  0  0  0  0  0  0  0  0  0  0
  -23.9446  -33.5318   23.5631 O   0  0  0  0  0  0  0  0  0  0  0  0
  -20.7214  -34.8213   21.3182 O   0  0  0  0  0  0  0  0  0  0  0  0
  -19.4676  -30.3124   20.5319 O   0  0  0  0  0  0  0  0  0  0  0  0
  -31.7243  -15.1683   20.2718 O   0  0  0  0  0  0  0  0  0  0  0  0
  -28.3654  -22.0315   21.0219 O   0  0  0  0  0  0  0  0  0  0  0  0
  -29.4439  -22.7842   23.1729 O   0  0  0  0  0  0  0  0  0  0  0  0
  -21.8323   -6.7788   21.6256 O   0  0  0  0  0  0  0  0  0  0  0  0
  -25.8064  -28.0426   21.5416 O   0  0  0  0  0  0  0  0  0  1  0  0
  -18.8234   -6.4365   26.2335 F   0  0  0  0  0  0  0  0  0  0  0  0
  -22.3621   -4.8409   23.5247 F   0  0  0  0  0  0  0  0  0  0  0  0
  -28.5446  -21.8907   22.4586 S   0  0  0  0  0  0  0  0  0  0  0  0
  -24.8697  -25.3190   19.8911 Cl  0  0  0  0  0  0  0  0  0  0  0  0
  -26.9418  -23.9347   25.6135 Cl  0  0  0  0  0  0  0  0  0  0  0  0
  1  2  1  0  0  0  0
  1  5  2  0  0  0  0
  2  6  2  0  0  0  0
  3  8  2  0  0  0  0
  3 17  1  0  0  0  0
  4  9  1  0  0  0  0
  4 17  2  0  0  0  0
  5 19  1  0  0  0  0
  6 21  1  0  0  0  0
  7 10  2  0  0  0  0
  7 20  1  0  0  0  0
  8 25  1  0  0  0  0
  9 25  2  0  0  0  0
 10 26  1  0  0  0  0
 11 12  2  0  0  0  0
 11 27  1  0  0  0  0
 12 28  1  0  0  0  0
 13 22  1  0  0  0  0
 13 26  2  0  0  0  0
 14 23  2  0  0  0  0
 14 31  1  0  0  0  0
 15 24  1  0  0  0  0
 15 30  2  0  0  0  0
 16 28  2  0  0  0  0
 16 29  1  0  0  0  0
 17 32  1  0  0  0  0
 18 32  1  0  0  0  0
 18 33  2  0  0  0  0
 18 34  1  0  0  0  0
 19 21  2  0  0  0  0
 19 39  1  0  0  0  0
 20 22  2  0  0  0  0
 20 40  1  0  0  0  0
 21 51  1  0  0  0  0
 22 41  1  0  0  0  0
 23 30  1  0  0  0  0
 23 63  1  0  0  0  0
 24 31  2  0  0  0  0
 24 64  1  0  0  0  0
 25 87  1  0  0  0  0
 26 88  1  0  0  0  0
 27 29  2  0  0  0  0
 27 87  1  0  0  0  0
 28 89  1  0  0  0  0
 29 90  1  0  0  0  0
 30 92  1  0  0  0  0
 31 93  1  0  0  0  0
 32 69  2  0  0  0  0
 33 70  1  0  0  0  0
 33 73  1  0  0  0  0
 34 74  1  0  0  0  0
 34 80  2  0  0  0  0
 35 52  1  0  0  0  0
 35 75  1  0  0  0  0
 35 81  2  0  0  0  0
 36 66  1  0  0  0  0
 36 71  1  0  0  0  0
 36 82  2  0  0  0  0
 37 67  1  0  0  0  0
 37 76  1  0  0  0  0
 37 83  2  0  0  0  0
 38 72  1  0  0  0  0
 38 77  1  0  0  0  0
 38 84  2  0  0  0  0
 39 42  1  0  0  0  0
 40 52  1  0  0  0  0
 41 71  1  0  0  0  0
 42 44  1  0  0  0  0
 43 45  1  0  0  0  0
 43 49  1  0  0  0  0
 44 51  1  0  0  0  0
 45 54  1  0  0  0  0
 46 47  1  0  0  0  0
 46 55  1  0  0  0  0
 47 56  1  0  0  0  0
 48 53  1  0  0  0  0
 48 55  1  0  0  0  0
 49 72  1  0  0  0  0
 50 54  1  0  0  0  0
 50 72  1  0  0  0  0
 51 75  1  0  0  0  0
 52 71  1  0  0  0  0
 53 56  1  0  0  0  0
 53 65  1  0  0  0  0
 54 70  1  0  0  0  0
 55 77  1  0  0  0  0
 56 78  1  0  0  0  0
 57 65  1  0  0  0  0
 58 67  1  0  0  0  0
 59 68  1  0  0  0  0
 60 68  1  0  0  0  0
 61 68  1  0  0  0  0
 62 79  1  0  0  0  0
 63 88  1  0  0  0  0
 64 91  1  0  0  0  0
 66 68  1  0  0  0  0
 66 76  1  0  0  0  0
 67 79  1  0  0  0  0
 69 70  1  0  0  0  0
 78 91  1  0  0  0  0
 85 91  2  0  0  0  0
 86 91  2  0  0  0  0
M  CHG  1  79   1
M  ISO  4  38 100  63 101  77 100  88 101
M  END
> <Batch ID>
0029

> <Smiles>
CCC1CC([100NH:0][100C:0](=O)N2CCCC(n3nc(-c4ccc(Oc5ccc(F)cc5F)cc4)c(C(N)=O)c3N)C2)CCC1NS(=O)(=O)Cc1cc(Cl)c([101CH2:1][101O:1]c2ccc3c(c2)CN(C(=O)C(NC(=O)C(C)NC)C(C)(C)C)C(C(=O)NC2CCCc4ccccc42)C3)cc1Cl

> <Shape>
0.281

> <Color>
0.190

> <Negative vol penalty>
0.000

$$$$

  -OEChem-04052316363D

 84 92  0     1  0  0  0  0  0999 V2000
  -30.1121  -35.3523   23.2323 C   0  0  0  0  0  0  0  0  0  0  0  0
  -30.1187  -34.0436   22.7601 C   0  0  0  0  0  0  0  0  0  0  0  0
  -22.9107  -10.2258   19.8918 C   0  0  0  0  0  0  0  0  0  0  0  0
  -23.8555   -9.8340   22.0806 C   0  0  0  0  0  0  0  0  0  0  0  0
  -29.0383  -35.8120   23.9935 C   0  0  0  0  0  0  0  0  0  0  0  0
  -29.0520  -33.1936   23.0500 C   0  0  0  0  0  0  0  0  0  0  0  0
  -26.7481  -28.8149   19.4410 C   0  0  0  0  0  0  0  0  0  0  0  0
  -22.1047   -9.0968   20.0376 C   0  0  0  0  0  0  0  0  0  0  0  0
  -23.0495   -8.7050   22.2264 C   0  0  0  0  0  0  0  0  0  0  0  0
  -26.9394  -27.4345   19.4020 C   0  0  0  0  0  0  0  0  0  0  0  0
  -19.8309   -8.0278   23.0027 C   0  0  0  0  0  0  0  0  0  0  0  0
  -19.1723   -7.8564   24.2202 C   0  0  0  0  0  0  0  0  0  0  0  0
  -24.9527  -27.1275   20.7354 C   0  0  0  0  0  0  0  0  0  0  0  0
  -27.7413  -22.4707   20.4627 C   0  0  0  0  0  0  0  0  0  0  0  0
  -20.3198   -5.7553   24.5452 C   0  0  0  0  0  0  0  0  0  0  0  0
  -23.7862  -10.5944   20.9133 C   0  0  0  0  0  0  0  0  0  0  0  0
  -24.3074  -13.0818   21.1345 C   0  0  0  0  0  0  0  0  0  0  0  0
  -27.9534  -34.9701   24.2847 C   0  0  0  0  0  0  0  0  0  0  0  0
  -25.6619  -29.3635   20.1378 C   0  0  0  0  0  0  0  0  0  0  0  0
  -27.9633  -33.6422   23.8170 C   0  0  0  0  0  0  0  0  0  0  0  0
  -24.7484  -28.5151   20.7796 C   0  0  0  0  0  0  0  0  0  0  0  0
  -27.3743  -23.2623   19.3466 C   0  0  0  0  0  0  0  0  0  0  0  0
  -22.1740   -8.3364   21.2049 C   0  0  0  0  0  0  0  0  0  0  0  0
  -26.0433  -26.5907   20.0517 C   0  0  0  0  0  0  0  0  0  0  0  0
  -20.7339   -7.0628   22.5563 C   0  0  0  0  0  0  0  0  0  0  0  0
  -19.4167   -6.7202   24.9915 C   0  0  0  0  0  0  0  0  0  0  0  0
  -20.9783   -5.9266   23.3276 C   0  0  0  0  0  0  0  0  0  0  0  0
  -24.6194  -11.7602   20.7630 C   0  0  0  0  0  0  0  0  0  0  0  0
  -27.6152  -21.1506   20.0901 C   0  0  0  0  0  0  0  0  0  0  0  0
  -27.0349  -22.4018   18.3259 C   0  0  0  0  0  0  0  0  0  0  0  0
  -25.4195  -13.8082   20.7854 C   0  0  0  0  0  0  0  0  0  0  0  0
  -23.1186  -13.6058   21.7410 C   0  0  0  0  0  0  0  0  0  0  0  0
  -25.3486  -31.3203   22.6231 C   0  0  0  0  0  0  0  0  0  0  0  0
  -22.2002  -31.1547   21.8602 C   0  0  0  0  0  0  0  0  0  0  0  0
  -19.6681  -29.4203   20.3676 C   0  0  0  0  0  0  0  0  0  0  0  0
  -30.9616  -14.4414   20.6107 C   0  0  0  0  0  0  0  0  0  0  0  0
  -26.8373  -35.4977   25.1512 C   0  0  0  0  0  0  0  0  0  0  0  0
  -25.4545  -30.8533   20.1479 C   0  0  0  0  0  0  0  0  0  0  0  0
  -23.5548  -29.0529   21.5243 C   0  0  0  0  0  0  0  0  0  0  0  0
  -25.5709  -34.6470   25.0980 C   0  0  0  0  0  0  0  0  0  0  0  0
  -29.4534  -12.5264   18.0156 C   0  0  0  0  0  0  0  0  0  0  0  0
  -25.9150  -33.1678   25.2400 C   0  0  0  0  0  0  0  0  0  0  0  0
  -28.0384  -12.2603   18.5324 C   0  0  0  0  0  0  0  0  0  0  0  0
  -30.4805  -12.5029   19.1454 C   0  0  0  0  0  0  0  0  0  0  0  0
  -28.7606  -13.1306   20.7951 C   0  0  0  0  0  0  0  0  0  0  0  0
  -26.8130  -32.6974   24.0895 C   0  0  1  0  0  0  0  0  0  0  0  0
  -24.6015  -31.3299   21.3195 C   0  0  1  0  0  0  0  0  0  0  0  0
  -27.6822  -13.1996   19.7004 C   0  0  2  0  0  0  0  0  0  0  0  0
  -26.5805  -22.6898   16.9487 C   0  0  0  0  0  0  0  0  0  0  0  0
  -17.1973  -29.5192   19.9401 C   0  0  0  0  0  0  0  0  0  0  0  0
  -21.6695  -30.3490   24.7549 C   0  0  0  0  0  0  0  0  0  0  0  0
  -19.4036  -29.5550   24.0453 C   0  0  0  0  0  0  0  0  0  0  0  0
  -20.0133  -31.9615   23.8004 C   0  0  0  0  0  0  0  0  0  0  0  0
  -26.9282  -19.9196   18.0227 C   0  0  0  0  0  0  0  0  0  0  0  0
  -20.0592  -29.4436   17.4341 C   0  0  0  0  0  0  0  0  0  0  0  0
  -27.3612  -24.7617   19.2940 C   0  0  0  0  0  0  0  0  0  1  0  0
  -27.8696  -19.9196   20.8663 C   0  0  0  0  0  0  0  0  0  0  0  0
  -29.3221  -19.4208   20.7327 C   0  0  0  0  0  0  0  0  0  0  0  0
  -29.5628  -18.1224   21.5056 C   0  0  0  0  0  0  0  0  0  0  0  0
  -31.0212  -17.6693   21.3894 C   0  0  0  0  0  0  0  0  0  0  0  0
  -31.2921  -16.3689   22.1388 C   0  0  0  0  0  0  0  0  0  0  0  0
  -21.0516  -30.2558   22.2498 C   0  0  1  0  0  0  0  0  0  0  0  0
  -18.5797  -29.8569   19.4037 C   0  0  2  0  0  0  0  0  0  0  0  0
  -20.5580  -30.5200   23.7003 C   0  0  0  0  0  0  0  0  0  0  0  0
  -25.8345  -11.6507   20.2194 N   0  0  0  0  0  0  0  0  0  0  0  0
  -27.1848  -21.1209   18.7893 N   0  0  0  0  0  0  0  0  0  0  0  0
  -26.2958  -12.9126   20.2467 N   0  0  0  0  0  0  0  0  0  0  0  0
  -23.3988  -30.5168   21.5107 N   0  0  0  0  0  0  0  0  0  0  0  0
  -30.0846  -13.4161   20.2202 N   0  0  0  0  0  0  0  0  0  0  0  0
  -25.7236  -15.1194   20.8896 N   0  0  0  0  0  0  0  0  0  0  0  0
  -22.0720  -12.7208   22.0336 N   0  0  0  0  0  0  0  0  0  0  0  0
  -26.0308  -32.4922   22.8893 N   0  0  0  0  0  0  0  0  0  0  0  0
  -20.0266  -30.4369   21.2275 N   0  0  0  0  0  0  0  0  0  0  0  0
  -30.5061  -15.2660   21.6322 N   0  0  0  0  0  0  0  0  0  0  0  0
  -18.7514  -29.1794   18.0874 N   0  3  0  0  0  0  0  0  0  0  0  0
  -22.9819  -14.8254   22.0003 O   0  0  0  0  0  0  0  0  0  0  0  0
  -25.3079  -30.3240   23.3355 O   0  0  0  0  0  0  0  0  0  0  0  0
  -22.0377  -32.3775   21.8589 O   0  0  0  0  0  0  0  0  0  0  0  0
  -20.1494  -28.2895   20.3611 O   0  0  0  0  0  0  0  0  0  0  0  0
  -32.0662  -14.6129   20.0842 O   0  0  0  0  0  0  0  0  0  0  0  0
  -21.3875   -7.2348   21.3476 O   0  0  0  0  0  0  0  0  0  0  0  0
  -26.2281  -25.2429   20.0158 O   0  0  0  0  0  0  0  0  0  1  0  0
  -18.7854   -6.5566   26.1615 F   0  0  0  0  0  0  0  0  0  0  0  0
  -21.8456   -4.9967   22.9046 F   0  0  0  0  0  0  0  0  0  0  0  0
  1  2  1  0  0  0  0
  1  5  2  0  0  0  0
  2  6  2  0  0  0  0
  3  8  2  0  0  0  0
  3 16  1  0  0  0  0
  4  9  1  0  0  0  0
  4 16  2  0  0  0  0
  5 18  1  0  0  0  0
  6 20  1  0  0  0  0
  7 10  2  0  0  0  0
  7 19  1  0  0  0  0
  8 23  1  0  0  0  0
  9 23  2  0  0  0  0
 10 24  1  0  0  0  0
 11 12  2  0  0  0  0
 11 25  1  0  0  0  0
 12 26  1  0  0  0  0
 13 21  1  0  0  0  0
 13 24  2  0  0  0  0
 14 22  1  0  0  0  0
 14 29  2  0  0  0  0
 15 26  2  0  0  0  0
 15 27  1  0  0  0  0
 16 28  1  0  0  0  0
 17 28  1  0  0  0  0
 17 31  2  0  0  0  0
 17 32  1  0  0  0  0
 18 20  2  0  0  0  0
 18 37  1  0  0  0  0
 19 21  2  0  0  0  0
 19 38  1  0  0  0  0
 20 46  1  0  0  0  0
 21 39  1  0  0  0  0
 22 30  2  0  0  0  0
 22 56  1  0  0  0  0
 23 81  1  0  0  0  0
 24 82  1  0  0  0  0
 25 27  2  0  0  0  0
 25 81  1  0  0  0  0
 26 83  1  0  0  0  0
 27 84  1  0  0  0  0
 28 65  2  0  0  0  0
 29 57  1  0  0  0  0
 29 66  1  0  0  0  0
 30 49  1  0  0  0  0
 30 66  1  0  0  0  0
 31 67  1  0  0  0  0
 31 70  1  0  0  0  0
 32 71  1  0  0  0  0
 32 76  2  0  0  0  0
 33 47  1  0  0  0  0
 33 72  1  0  0  0  0
 33 77  2  0  0  0  0
 34 62  1  0  0  0  0
 34 68  1  0  0  0  0
 34 78  2  0  0  0  0
 35 63  1  0  0  0  0
 35 73  1  0  0  0  0
 35 79  2  0  0  0  0
 36 69  1  0  0  0  0
 36 74  1  0  0  0  0
 36 80  2  0  0  0  0
 37 40  1  0  0  0  0
 38 47  1  0  0  0  0
 39 68  1  0  0  0  0
 40 42  1  0  0  0  0
 41 43  1  0  0  0  0
 41 44  1  0  0  0  0
 42 46  1  0  0  0  0
 43 48  1  0  0  0  0
 44 69  1  0  0  0  0
 45 48  1  0  0  0  0
 45 69  1  0  0  0  0
 46 72  1  0  0  0  0
 47 68  1  0  0  0  0
 48 67  1  0  0  0  0
 50 63  1  0  0  0  0
 51 64  1  0  0  0  0
 52 64  1  0  0  0  0
 53 64  1  0  0  0  0
 54 66  1  0  0  0  0
 55 75  1  0  0  0  0
 56 82  1  0  0  0  0
 57 58  1  0  0  0  0
 58 59  1  0  0  0  0
 59 60  1  0  0  0  0
 60 61  1  0  0  0  0
 61 74  1  0  0  0  0
 62 64  1  0  0  0  0
 62 73  1  0  0  0  0
 63 75  1  0  0  0  0
 65 67  1  0  0  0  0
M  CHG  1  75   1
M  ISO  4  36 100  56 101  74 100  82 101
M  END
> <Batch ID>
0029

> <Smiles>
CNC(C)C(=O)NC(C(=O)N1Cc2cc([101O:1][101CH2:1]c3cc(CCCCC[100NH:0][100C:0](=O)N4CCCC(n5nc(-c6ccc(Oc7ccc(F)cc7F)cc6)c(C(N)=O)c5N)C4)n(C)c3C)ccc2CC1C(=O)NC1CCCc2ccccc21)C(C)(C)C

> <Shape>
0.359

> <Color>
0.219

> <Negative vol penalty>
0.000

$$$$

  -OEChem-04052316363D

 81 89  0     1  0  0  0  0  0999 V2000
  -17.6992  -26.7875   22.6075 C   0  0  0  0  0  0  0  0  0  0  0  0
  -18.8349  -26.4373   21.8844 C   0  0  0  0  0  0  0  0  0  0  0  0
  -26.7886  -12.4763   21.0235 C   0  0  0  0  0  0  0  0  0  0  0  0
  -25.3449  -14.3806   21.3789 C   0  0  0  0  0  0  0  0  0  0  0  0
  -17.7151  -27.9175   23.4241 C   0  0  0  0  0  0  0  0  0  0  0  0
  -19.9870  -27.2175   21.9766 C   0  0  0  0  0  0  0  0  0  0  0  0
  -25.7859  -25.2588   21.7740 C   0  0  0  0  0  0  0  0  0  0  0  0
  -25.7765  -11.6259   21.4684 C   0  0  0  0  0  0  0  0  0  0  0  0
  -24.3327  -13.5302   21.8238 C   0  0  0  0  0  0  0  0  0  0  0  0
  -26.7270  -25.2186   20.7461 C   0  0  0  0  0  0  0  0  0  0  0  0
  -22.9364  -10.2723   20.2295 C   0  0  0  0  0  0  0  0  0  0  0  0
  -22.6886   -9.1166   19.4889 C   0  0  0  0  0  0  0  0  0  0  0  0
  -27.6513  -27.3086   21.5187 C   0  0  0  0  0  0  0  0  0  0  0  0
  -30.4842  -23.6625   18.6965 C   0  0  0  0  0  0  0  0  0  0  0  0
  -31.6840  -22.8995   21.0967 C   0  0  0  0  0  0  0  0  0  0  0  0
  -23.1991   -7.7659   21.4260 C   0  0  0  0  0  0  0  0  0  0  0  0
  -26.5728  -13.8537   20.9788 C   0  0  0  0  0  0  0  0  0  0  0  0
  -27.8526  -15.1574   19.1983 C   0  0  0  0  0  0  0  0  0  0  0  0
  -18.8710  -28.7065   23.5338 C   0  0  0  0  0  0  0  0  0  0  0  0
  -25.7635  -26.3315   22.6769 C   0  0  0  0  0  0  0  0  0  0  0  0
  -20.0179  -28.3599   22.7944 C   0  0  0  0  0  0  0  0  0  0  0  0
  -26.7105  -27.3588   22.5587 C   0  0  0  0  0  0  0  0  0  0  0  0
  -31.0239  -24.6294   19.5446 C   0  0  0  0  0  0  0  0  0  0  0  0
  -31.1443  -21.9326   20.2485 C   0  0  0  0  0  0  0  0  0  0  0  0
  -24.5485  -12.1528   21.8685 C   0  0  0  0  0  0  0  0  0  0  0  0
  -27.6580  -26.2450   20.6166 C   0  0  0  0  0  0  0  0  0  0  0  0
  -23.3157  -10.1749   21.5683 C   0  0  0  0  0  0  0  0  0  0  0  0
  -22.8199   -7.8634   20.0871 C   0  0  0  0  0  0  0  0  0  0  0  0
  -23.4470   -8.9217   22.1665 C   0  0  0  0  0  0  0  0  0  0  0  0
  -30.5443  -22.3141   19.0485 C   0  0  0  0  0  0  0  0  0  0  0  0
  -31.6238  -24.2480   20.7447 C   0  0  0  0  0  0  0  0  0  0  0  0
  -27.6182  -14.7328   20.5199 C   0  0  0  0  0  0  0  0  0  0  0  0
  -28.9524  -15.9751   19.2904 C   0  0  0  0  0  0  0  0  0  0  0  0
  -27.1400  -14.8411   17.9951 C   0  0  0  0  0  0  0  0  0  0  0  0
  -23.6502  -28.5818   23.4345 C   0  0  0  0  0  0  0  0  0  0  0  0
  -25.8244  -29.3017   25.7317 C   0  0  0  0  0  0  0  0  0  0  0  0
  -29.0668  -29.1860   26.7904 C   0  0  0  0  0  0  0  0  0  0  0  0
  -31.7920  -20.0553   21.7986 C   0  0  0  0  0  0  0  0  0  0  0  0
  -18.8253  -29.9455   24.3926 C   0  0  0  0  0  0  0  0  0  0  0  0
  -24.7589  -26.3467   23.7963 C   0  0  0  0  0  0  0  0  0  0  0  0
  -26.7416  -28.5225   23.5143 C   0  0  0  0  0  0  0  0  0  0  0  0
  -20.2052  -30.5072   24.7254 C   0  0  0  0  0  0  0  0  0  0  0  0
  -32.1512  -16.7732   23.1312 C   0  0  0  0  0  0  0  0  0  0  0  0
  -21.0735  -30.5670   23.4727 C   0  0  0  0  0  0  0  0  0  0  0  0
  -31.0232  -15.9847   22.4619 C   0  0  0  0  0  0  0  0  0  0  0  0
  -31.7276  -18.2047   23.4557 C   0  0  0  0  0  0  0  0  0  0  0  0
  -30.0466  -18.1715   21.6549 C   0  0  0  0  0  0  0  0  0  0  0  0
  -21.2946  -29.1670   22.8873 C   0  0  1  0  0  0  0  0  0  0  0  0
  -24.5005  -27.7452   24.3483 C   0  0  1  0  0  0  0  0  0  0  0  0
  -30.4472  -16.7434   21.2503 C   0  0  2  0  0  0  0  0  0  0  0  0
  -30.5444  -29.8910   28.6922 C   0  0  0  0  0  0  0  0  0  0  0  0
  -25.7761  -32.1733   24.7016 C   0  0  0  0  0  0  0  0  0  0  0  0
  -27.9010  -32.5866   25.9595 C   0  0  0  0  0  0  0  0  0  0  0  0
  -25.8253  -31.9594   27.1928 C   0  0  0  0  0  0  0  0  0  0  0  0
  -29.7956  -26.3863   27.4145 C   0  0  0  0  0  0  0  0  0  0  0  0
  -30.9390  -26.0774   19.1269 C   0  0  0  0  0  0  0  0  0  0  0  0
  -29.8371  -26.8300   19.8647 C   0  0  0  0  0  0  0  0  0  1  0  0
  -27.0269  -30.2102   25.8186 C   0  0  1  0  0  0  0  0  0  0  0  0
  -29.6787  -28.7798   28.1189 C   0  0  2  0  0  0  0  0  0  0  0  0
  -26.6308  -31.7116   25.8988 C   0  0  0  0  0  0  0  0  0  0  0  0
  -28.4983  -15.2387   21.3878 N   0  0  0  0  0  0  0  0  0  0  0  0
  -29.2966  -15.9896   20.6100 N   0  0  0  0  0  0  0  0  0  0  0  0
  -25.7350  -28.4952   24.5883 N   0  0  0  0  0  0  0  0  0  0  0  0
  -31.1962  -18.8624   22.2599 N   0  0  0  0  0  0  0  0  0  0  0  0
  -29.6489  -16.6758   18.3705 N   0  0  0  0  0  0  0  0  0  0  0  0
  -26.0332  -13.9854   18.0794 N   0  0  0  0  0  0  0  0  0  0  0  0
  -31.2228  -20.5716   20.6350 N   0  0  0  0  0  0  0  0  0  0  0  0
  -22.2921  -28.4508   23.6532 N   0  0  0  0  0  0  0  0  0  0  0  0
  -27.8139  -29.7384   26.9528 N   0  0  0  0  0  0  0  0  0  0  0  0
  -30.5249  -27.5648   27.9495 N   0  3  0  0  0  0  0  0  0  0  0  0
  -27.4846  -15.2906   16.8758 O   0  0  0  0  0  0  0  0  0  0  0  0
  -24.1867  -29.2946   22.5944 O   0  0  0  0  0  0  0  0  0  0  0  0
  -24.9987  -29.3022   26.6481 O   0  0  0  0  0  0  0  0  0  0  0  0
  -29.6440  -29.0322   25.7163 O   0  0  0  0  0  0  0  0  0  0  0  0
  -32.7550  -20.5655   22.3768 O   0  0  0  0  0  0  0  0  0  0  0  0
  -23.5606  -11.3232   22.3024 O   0  0  0  0  0  0  0  0  0  0  0  0
  -28.5773  -26.2085   19.6138 O   0  0  0  0  0  0  0  0  0  1  0  0
  -22.5804   -6.7537   19.3762 F   0  0  0  0  0  0  0  0  0  0  0  0
  -23.8098   -8.8217   23.4527 F   0  0  0  0  0  0  0  0  0  0  0  0
  -29.8633  -21.1493   17.9697 Cl  0  0  0  0  0  0  0  0  0  0  0  0
  -32.3009  -25.4171   21.8191 Cl  0  0  0  0  0  0  0  0  0  0  0  0
  1  2  1  0  0  0  0
  1  5  2  0  0  0  0
  2  6  2  0  0  0  0
  3  8  2  0  0  0  0
  3 17  1  0  0  0  0
  4  9  1  0  0  0  0
  4 17  2  0  0  0  0
  5 19  1  0  0  0  0
  6 21  1  0  0  0  0
  7 10  2  0  0  0  0
  7 20  1  0  0  0  0
  8 25  1  0  0  0  0
  9 25  2  0  0  0  0
 10 26  1  0  0  0  0
 11 12  2  0  0  0  0
 11 27  1  0  0  0  0
 12 28  1  0  0  0  0
 13 22  1  0  0  0  0
 13 26  2  0  0  0  0
 14 23  1  0  0  0  0
 14 30  2  0  0  0  0
 15 24  2  0  0  0  0
 15 31  1  0  0  0  0
 16 28  2  0  0  0  0
 16 29  1  0  0  0  0
 17 32  1  0  0  0  0
 18 32  1  0  0  0  0
 18 33  2  0  0  0  0
 18 34  1  0  0  0  0
 19 21  2  0  0  0  0
 19 39  1  0  0  0  0
 20 22  2  0  0  0  0
 20 40  1  0  0  0  0
 21 48  1  0  0  0  0
 22 41  1  0  0  0  0
 23 31  2  0  0  0  0
 23 56  1  0  0  0  0
 24 30  1  0  0  0  0
 24 67  1  0  0  0  0
 25 76  1  0  0  0  0
 26 77  1  0  0  0  0
 27 29  2  0  0  0  0
 27 76  1  0  0  0  0
 28 78  1  0  0  0  0
 29 79  1  0  0  0  0
 30 80  1  0  0  0  0
 31 81  1  0  0  0  0
 32 61  2  0  0  0  0
 33 62  1  0  0  0  0
 33 65  1  0  0  0  0
 34 66  1  0  0  0  0
 34 71  2  0  0  0  0
 35 49  1  0  0  0  0
 35 68  1  0  0  0  0
 35 72  2  0  0  0  0
 36 58  1  0  0  0  0
 36 63  1  0  0  0  0
 36 73  2  0  0  0  0
 37 59  1  0  0  0  0
 37 69  1  0  0  0  0
 37 74  2  0  0  0  0
 38 64  1  0  0  0  0
 38 67  1  0  0  0  0
 38 75  2  0  0  0  0
 39 42  1  0  0  0  0
 40 49  1  0  0  0  0
 41 63  1  0  0  0  0
 42 44  1  0  0  0  0
 43 45  1  0  0  0  0
 43 46  1  0  0  0  0
 44 48  1  0  0  0  0
 45 50  1  0  0  0  0
 46 64  1  0  0  0  0
 47 50  1  0  0  0  0
 47 64  1  0  0  0  0
 48 68  1  0  0  0  0
 49 63  1  0  0  0  0
 50 62  1  0  0  0  0
 51 59  1  0  0  0  0
 52 60  1  0  0  0  0
 53 60  1  0  0  0  0
 54 60  1  0  0  0  0
 55 70  1  0  0  0  0
 56 57  1  0  0  0  0
 57 77  1  0  0  0  0
 58 60  1  0  0  0  0
 58 69  1  0  0  0  0
 59 70  1  0  0  0  0
 61 62  1  0  0  0  0
M  CHG  1  70   1
M  ISO  4  38 100  57 101  67 100  77 101
M  END
> <Batch ID>
0029

> <Smiles>
CNC(C)C(=O)NC(C(=O)N1Cc2cc([101O:1][101CH2:1]Cc3cc(Cl)c([100NH:0][100C:0](=O)N4CCCC(n5nc(-c6ccc(Oc7ccc(F)cc7F)cc6)c(C(N)=O)c5N)C4)cc3Cl)ccc2CC1C(=O)NC1CCCc2ccccc21)C(C)(C)C

> <Shape>
0.275

> <Color>
0.069

> <Negative vol penalty>
0.000

$$$$

  -OEChem-04052316363D

 87 95  0     1  0  0  0  0  0999 V2000
  -20.8835  -17.3584   22.3101 C   0  0  0  0  0  0  0  0  0  0  0  0
  -22.1123  -18.0076   22.2465 C   0  0  0  0  0  0  0  0  0  0  0  0
  -21.6492  -24.5836   18.6769 C   0  0  0  0  0  0  0  0  0  0  0  0
  -22.7066  -23.5798   20.6034 C   0  0  0  0  0  0  0  0  0  0  0  0
  -20.8261  -15.9677   22.2281 C   0  0  0  0  0  0  0  0  0  0  0  0
  -23.2845  -17.2664   22.1018 C   0  0  0  0  0  0  0  0  0  0  0  0
  -26.4196  -19.2434   18.6511 C   0  0  0  0  0  0  0  0  0  0  0  0
  -21.6147  -23.3393   18.0475 C   0  0  0  0  0  0  0  0  0  0  0  0
  -22.6720  -22.3355   19.9740 C   0  0  0  0  0  0  0  0  0  0  0  0
  -27.1753  -20.3497   19.0370 C   0  0  0  0  0  0  0  0  0  0  0  0
  -21.5749  -20.4901   15.7883 C   0  0  0  0  0  0  0  0  0  0  0  0
  -21.9602  -20.4281   14.4492 C   0  0  0  0  0  0  0  0  0  0  0  0
  -29.0789  -18.9140   19.4033 C   0  0  0  0  0  0  0  0  0  0  0  0
  -24.1477  -21.2668   15.0397 C   0  0  0  0  0  0  0  0  0  0  0  0
  -22.1953  -24.7039   19.9548 C   0  0  0  0  0  0  0  0  0  0  0  0
  -21.2447  -26.5484   21.4387 C   0  0  0  0  0  0  0  0  0  0  0  0
  -21.9974  -15.2097   22.0727 C   0  0  0  0  0  0  0  0  0  0  0  0
  -26.9857  -17.9605   18.6488 C   0  0  0  0  0  0  0  0  0  0  0  0
  -23.2428  -15.8642   22.0190 C   0  0  0  0  0  0  0  0  0  0  0  0
  -28.3291  -17.7934   19.0144 C   0  0  0  0  0  0  0  0  0  0  0  0
  -29.5759  -23.5893   20.1950 C   0  0  0  0  0  0  0  0  0  0  0  0
  -30.8858  -24.7614   21.8366 C   0  0  0  0  0  0  0  0  0  0  0  0
  -22.1260  -22.2153   18.6961 C   0  0  0  0  0  0  0  0  0  0  0  0
  -28.5043  -20.1847   19.4159 C   0  0  0  0  0  0  0  0  0  0  0  0
  -22.4760  -20.9406   16.7531 C   0  0  0  0  0  0  0  0  0  0  0  0
  -23.2466  -20.8164   14.0748 C   0  0  0  0  0  0  0  0  0  0  0  0
  -23.7624  -21.3289   16.3788 C   0  0  0  0  0  0  0  0  0  0  0  0
  -29.9727  -23.7630   21.5163 C   0  0  0  0  0  0  0  0  0  0  0  0
  -22.2318  -25.9891   20.6053 C   0  0  0  0  0  0  0  0  0  0  0  0
  -30.1172  -24.4336   19.2390 C   0  0  0  0  0  0  0  0  0  0  0  0
  -31.3687  -25.5530   20.8071 C   0  0  0  0  0  0  0  0  0  0  0  0
  -21.7527  -27.7726   21.7988 C   0  0  0  0  0  0  0  0  0  0  0  0
  -19.9815  -26.0095   21.8506 C   0  0  0  0  0  0  0  0  0  0  0  0
  -26.3929  -15.2443   20.1898 C   0  0  0  0  0  0  0  0  0  0  0  0
  -28.6701  -14.0722   18.1991 C   0  0  0  0  0  0  0  0  0  0  0  0
  -31.3872  -14.6832   16.2266 C   0  0  0  0  0  0  0  0  0  0  0  0
  -27.3284  -29.9217   22.1786 C   0  0  0  0  0  0  0  0  0  0  0  0
  -21.8893  -13.7058   22.0361 C   0  0  0  0  0  0  0  0  0  0  0  0
  -26.1650  -16.7810   18.2042 C   0  0  0  0  0  0  0  0  0  0  0  0
  -28.9898  -16.4400   19.0097 C   0  0  0  0  0  0  0  0  0  0  0  0
  -23.1450  -13.0176   21.5070 C   0  0  0  0  0  0  0  0  0  0  0  0
  -24.6577  -31.2318   20.2222 C   0  0  0  0  0  0  0  0  0  0  0  0
  -24.3915  -13.6046   22.1616 C   0  0  0  0  0  0  0  0  0  0  0  0
  -23.6441  -30.0872   20.1737 C   0  0  0  0  0  0  0  0  0  0  0  0
  -26.0943  -30.7155   20.1827 C   0  0  0  0  0  0  0  0  0  0  0  0
  -25.4039  -28.5604   21.1588 C   0  0  0  0  0  0  0  0  0  0  0  0
  -24.5343  -15.0966   21.8374 C   0  0  1  0  0  0  0  0  0  0  0  0
  -26.6945  -15.4514   18.7325 C   0  0  1  0  0  0  0  0  0  0  0  0
  -23.9417  -29.0286   21.2527 C   0  0  2  0  0  0  0  0  0  0  0  0
  -33.0561  -13.5202   14.7570 C   0  0  0  0  0  0  0  0  0  0  0  0
  -27.9009  -29.7725   25.3787 C   0  0  0  0  0  0  0  0  0  0  0  0
  -30.1196  -13.0304   20.6738 C   0  0  0  0  0  0  0  0  0  0  0  0
  -32.1704  -12.7443   19.2665 C   0  0  0  0  0  0  0  0  0  0  0  0
  -30.1037  -11.4534   18.7329 C   0  0  0  0  0  0  0  0  0  0  0  0
  -30.5449  -16.2302   13.8483 C   0  0  0  0  0  0  0  0  0  0  0  0
  -31.3362  -24.9790   23.2445 C   0  0  0  0  0  0  0  0  0  0  0  0
  -28.5947  -22.5334   19.7783 C   0  0  0  0  0  0  0  0  0  1  0  0
  -28.9264  -27.6024   24.6119 C   0  0  0  0  0  0  0  0  0  0  0  0
  -29.9468  -27.0161   23.6425 C   0  0  0  0  0  0  0  0  0  0  0  0
  -30.1725  -13.9353   18.2562 C   0  0  1  0  0  0  0  0  0  0  0  0
  -31.7224  -14.2490   14.8111 C   0  0  2  0  0  0  0  0  0  0  0  0
  -28.4595  -29.0017   24.1870 C   0  0  1  0  0  0  0  0  0  0  0  0
  -30.6288  -12.8162   19.2344 C   0  0  0  0  0  0  0  0  0  0  0  0
  -23.2870  -26.7921   20.4452 N   0  0  0  0  0  0  0  0  0  0  0  0
  -31.0066  -25.4144   19.5120 N   0  0  0  0  0  0  0  0  0  0  0  0
  -22.9658  -27.8686   21.1829 N   0  0  0  0  0  0  0  0  0  0  0  0
  -28.1439  -15.3168   18.5731 N   0  0  0  0  0  0  0  0  0  0  0  0
  -26.3113  -29.7164   21.2319 N   0  0  0  0  0  0  0  0  0  0  0  0
  -21.2756  -28.7657   22.5790 N   0  0  0  0  0  0  0  0  0  0  0  0
  -19.6149  -24.7381   21.3885 N   0  0  0  0  0  0  0  0  0  0  0  0
  -25.0456  -15.2755   20.4954 N   0  0  0  0  0  0  0  0  0  0  0  0
  -30.6175  -13.7442   16.8801 N   0  0  0  0  0  0  0  0  0  0  0  0
  -27.4625  -28.9296   23.1422 N   0  0  0  0  0  0  0  0  0  0  0  0
  -31.7973  -15.4336   13.9100 N   0  3  0  0  0  0  0  0  0  0  0  0
  -30.3128  -25.6475   24.0929 N   0  3  0  0  0  0  0  0  0  0  0  0
  -19.1939  -26.6436   22.5929 O   0  0  0  0  0  0  0  0  0  0  0  0
  -27.3141  -15.0677   20.9783 O   0  0  0  0  0  0  0  0  0  0  0  0
  -27.9891  -13.1125   17.8293 O   0  0  0  0  0  0  0  0  0  0  0  0
  -31.7729  -15.7471   16.7060 O   0  0  0  0  0  0  0  0  0  0  0  0
  -28.0592  -30.9180   22.1691 O   0  0  0  0  0  0  0  0  0  0  0  0
  -22.0922  -21.0009   18.0823 O   0  0  0  0  0  0  0  0  0  0  0  0
  -29.2439  -21.2627   19.7937 O   0  0  0  0  0  0  0  0  0  1  0  0
  -23.6169  -20.7553   12.7890 F   0  0  0  0  0  0  0  0  0  0  0  0
  -24.6328  -21.7614   17.3014 F   0  0  0  0  0  0  0  0  0  0  0  0
  -29.7494  -24.2859   17.9558 F   0  0  0  0  0  0  0  0  0  0  0  0
  -29.3290  -22.7383   22.7543 Cl  0  0  0  0  0  0  0  0  0  0  0  0
  -32.5018  -26.8213   21.0701 Cl  0  0  0  0  0  0  0  0  0  0  0  0
  1  2  1  0  0  0  0
  1  5  2  0  0  0  0
  2  6  2  0  0  0  0
  3  8  2  0  0  0  0
  3 15  1  0  0  0  0
  4  9  1  0  0  0  0
  4 15  2  0  0  0  0
  5 17  1  0  0  0  0
  6 19  1  0  0  0  0
  7 10  2  0  0  0  0
  7 18  1  0  0  0  0
  8 23  1  0  0  0  0
  9 23  2  0  0  0  0
 10 24  1  0  0  0  0
 11 12  2  0  0  0  0
 11 25  1  0  0  0  0
 12 26  1  0  0  0  0
 13 20  1  0  0  0  0
 13 24  2  0  0  0  0
 14 26  2  0  0  0  0
 14 27  1  0  0  0  0
 15 29  1  0  0  0  0
 16 29  1  0  0  0  0
 16 32  2  0  0  0  0
 16 33  1  0  0  0  0
 17 19  2  0  0  0  0
 17 38  1  0  0  0  0
 18 20  2  0  0  0  0
 18 39  1  0  0  0  0
 19 47  1  0  0  0  0
 20 40  1  0  0  0  0
 21 28  2  0  0  0  0
 21 30  1  0  0  0  0
 21 57  1  0  0  0  0
 22 28  1  0  0  0  0
 22 31  2  0  0  0  0
 22 56  1  0  0  0  0
 23 81  1  0  0  0  0
 24 82  1  0  0  0  0
 25 27  2  0  0  0  0
 25 81  1  0  0  0  0
 26 83  1  0  0  0  0
 27 84  1  0  0  0  0
 28 86  1  0  0  0  0
 29 64  2  0  0  0  0
 30 65  2  0  0  0  0
 30 85  1  0  0  0  0
 31 65  1  0  0  0  0
 31 87  1  0  0  0  0
 32 66  1  0  0  0  0
 32 69  1  0  0  0  0
 33 70  1  0  0  0  0
 33 76  2  0  0  0  0
 34 48  1  0  0  0  0
 34 71  1  0  0  0  0
 34 77  2  0  0  0  0
 35 60  1  0  0  0  0
 35 67  1  0  0  0  0
 35 78  2  0  0  0  0
 36 61  1  0  0  0  0
 36 72  1  0  0  0  0
 36 79  2  0  0  0  0
 37 68  1  0  0  0  0
 37 73  1  0  0  0  0
 37 80  2  0  0  0  0
 38 41  1  0  0  0  0
 39 48  1  0  0  0  0
 40 67  1  0  0  0  0
 41 43  1  0  0  0  0
 42 44  1  0  0  0  0
 42 45  1  0  0  0  0
 43 47  1  0  0  0  0
 44 49  1  0  0  0  0
 45 68  1  0  0  0  0
 46 49  1  0  0  0  0
 46 68  1  0  0  0  0
 47 71  1  0  0  0  0
 48 67  1  0  0  0  0
 49 66  1  0  0  0  0
 50 61  1  0  0  0  0
 51 62  1  0  0  0  0
 52 63  1  0  0  0  0
 53 63  1  0  0  0  0
 54 63  1  0  0  0  0
 55 74  1  0  0  0  0
 56 75  1  0  0  0  0
 57 82  1  0  0  0  0
 58 59  1  0  0  0  0
 58 62  1  0  0  0  0
 59 75  1  0  0  0  0
 60 63  1  0  0  0  0
 60 72  1  0  0  0  0
 61 74  1  0  0  0  0
 62 73  1  0  0  0  0
 64 66  1  0  0  0  0
M  CHG  2  74   1  75   1
M  ISO  4  37 100  57 101  73 100  82 101
M  END
> <Batch ID>
0029

> <Smiles>
CNC(C)C(=O)NC(C(=O)N1Cc2cc([101O:1][101CH2:1]c3c(F)nc(Cl)c(CNCCC(C)[100NH:0][100C:0](=O)N4CCCC(n5nc(-c6ccc(Oc7ccc(F)cc7F)cc6)c(C(N)=O)c5N)C4)c3Cl)ccc2CC1C(=O)NC1CCCc2ccccc21)C(C)(C)C

> <Shape>
0.223

> <Color>
0.072

> <Negative vol penalty>
0.000

$$$$

  -OEChem-04052316363D

 81 89  0     1  0  0  0  0  0999 V2000
  -26.7834  -32.5679   28.2268 C   0  0  0  0  0  0  0  0  0  0  0  0
  -27.2102  -31.5769   27.3486 C   0  0  0  0  0  0  0  0  0  0  0  0
  -26.4897  -12.7419   21.6080 C   0  0  0  0  0  0  0  0  0  0  0  0
  -26.0088  -13.7411   19.4616 C   0  0  0  0  0  0  0  0  0  0  0  0
  -25.4350  -32.9185   28.2784 C   0  0  0  0  0  0  0  0  0  0  0  0
  -26.2884  -30.9352   26.5222 C   0  0  0  0  0  0  0  0  0  0  0  0
  -27.2398  -28.9113   20.8209 C   0  0  0  0  0  0  0  0  0  0  0  0
  -25.2361  -12.1303   21.6042 C   0  0  0  0  0  0  0  0  0  0  0  0
  -24.7552  -13.1295   19.4577 C   0  0  0  0  0  0  0  0  0  0  0  0
  -27.5369  -27.6480   20.3113 C   0  0  0  0  0  0  0  0  0  0  0  0
  -22.3050  -10.0152   21.9923 C   0  0  0  0  0  0  0  0  0  0  0  0
  -22.2369   -8.6734   22.3671 C   0  0  0  0  0  0  0  0  0  0  0  0
  -25.1958  -27.2887   19.8537 C   0  0  0  0  0  0  0  0  0  0  0  0
  -28.8124  -22.7840   19.4732 C   0  0  0  0  0  0  0  0  0  0  0  0
  -23.7156   -8.0902   20.5475 C   0  0  0  0  0  0  0  0  0  0  0  0
  -26.8760  -13.5473   20.5367 C   0  0  0  0  0  0  0  0  0  0  0  0
  -29.3733  -13.6577   20.0277 C   0  0  0  0  0  0  0  0  0  0  0  0
  -24.4977  -32.2875   27.4453 C   0  0  0  0  0  0  0  0  0  0  0  0
  -25.9150  -29.3691   20.8607 C   0  0  0  0  0  0  0  0  0  0  0  0
  -24.9260  -31.2767   26.5636 C   0  0  0  0  0  0  0  0  0  0  0  0
  -24.8848  -28.5592   20.3619 C   0  0  0  0  0  0  0  0  0  0  0  0
  -28.2854  -23.8369   18.7254 C   0  0  0  0  0  0  0  0  0  0  0  0
  -27.9673  -22.3464   16.8508 C   0  0  0  0  0  0  0  0  0  0  0  0
  -28.9169  -21.5122   18.9098 C   0  0  0  0  0  0  0  0  0  0  0  0
  -24.3688  -12.3241   20.5290 C   0  0  0  0  0  0  0  0  0  0  0  0
  -26.5145  -26.8353   19.8303 C   0  0  0  0  0  0  0  0  0  0  0  0
  -23.0783  -10.3946   20.8951 C   0  0  0  0  0  0  0  0  0  0  0  0
  -22.9422   -7.7109   21.6447 C   0  0  0  0  0  0  0  0  0  0  0  0
  -23.7836   -9.4321   20.1728 C   0  0  0  0  0  0  0  0  0  0  0  0
  -27.8628  -23.6181   17.4142 C   0  0  0  0  0  0  0  0  0  0  0  0
  -28.4943  -21.2934   17.5986 C   0  0  0  0  0  0  0  0  0  0  0  0
  -28.1707  -14.1798   20.5404 C   0  0  0  0  0  0  0  0  0  0  0  0
  -30.3050  -14.6365   20.2736 C   0  0  0  0  0  0  0  0  0  0  0  0
  -29.6257  -12.4004   19.3864 C   0  0  0  0  0  0  0  0  0  0  0  0
  -23.9069  -30.2277   23.1704 C   0  0  0  0  0  0  0  0  0  0  0  0
  -22.0079  -31.0597   20.6756 C   0  0  0  0  0  0  0  0  0  0  0  0
  -21.1893  -30.6348   17.3899 C   0  0  0  0  0  0  0  0  0  0  0  0
  -29.9120  -20.5525   21.0157 C   0  0  0  0  0  0  0  0  0  0  0  0
  -23.0435  -32.6673   27.5705 C   0  0  0  0  0  0  0  0  0  0  0  0
  -25.6142  -30.7450   21.3889 C   0  0  0  0  0  0  0  0  0  0  0  0
  -23.4484  -29.0121   20.3635 C   0  0  0  0  0  0  0  0  0  0  0  0
  -22.1889  -32.2013   26.3946 C   0  0  0  0  0  0  0  0  0  0  0  0
  -31.2745  -18.2034   23.3185 C   0  0  0  0  0  0  0  0  0  0  0  0
  -22.4958  -30.7461   26.0552 C   0  0  0  0  0  0  0  0  0  0  0  0
  -30.7476  -16.8569   22.8171 C   0  0  0  0  0  0  0  0  0  0  0  0
  -30.2422  -19.3162   23.1459 C   0  0  0  0  0  0  0  0  0  0  0  0
  -29.1693  -18.1051   21.2881 C   0  0  0  0  0  0  0  0  0  0  0  0
  -23.9602  -30.5750   25.6336 C   0  0  1  0  0  0  0  0  0  0  0  0
  -24.1701  -30.9038   21.8545 C   0  0  1  0  0  0  0  0  0  0  0  0
  -30.1977  -16.9661   21.3814 C   0  0  2  0  0  0  0  0  0  0  0  0
  -27.5006  -22.1547   15.4432 C   0  0  0  0  0  0  0  0  0  0  0  0
  -19.5685  -31.4264   15.6452 C   0  0  0  0  0  0  0  0  0  0  0  0
  -19.8244  -29.3321   21.9237 C   0  0  0  0  0  0  0  0  0  0  0  0
  -18.6219  -29.3885   19.7284 C   0  0  0  0  0  0  0  0  0  0  0  0
  -19.0239  -31.5067   20.9831 C   0  0  0  0  0  0  0  0  0  0  0  0
  -23.3626  -31.7069   15.6910 C   0  0  0  0  0  0  0  0  0  0  0  0
  -28.1720  -25.2035   19.3345 C   0  0  0  0  0  0  0  0  0  1  0  0
  -20.9643  -30.3534   19.8444 C   0  0  1  0  0  0  0  0  0  0  0  0
  -20.9357  -31.6360   16.2773 C   0  0  2  0  0  0  0  0  0  0  0  0
  -19.6353  -30.1356   20.6215 C   0  0  0  0  0  0  0  0  0  0  0  0
  -28.3216  -15.3958   21.0720 N   0  0  0  0  0  0  0  0  0  0  0  0
  -29.6301  -15.6458   20.8948 N   0  0  0  0  0  0  0  0  0  0  0  0
  -23.2044  -30.3629   20.8959 N   0  0  0  0  0  0  0  0  0  0  0  0
  -29.7696  -19.3626   21.7605 N   0  0  0  0  0  0  0  0  0  0  0  0
  -31.6275  -14.7235   20.0171 N   0  0  0  0  0  0  0  0  0  0  0  0
  -28.5556  -11.5120   19.2133 N   0  0  0  0  0  0  0  0  0  0  0  0
  -29.4565  -20.4676   19.7005 N   0  0  0  0  0  0  0  0  0  0  0  0
  -24.1501  -31.0262   24.2717 N   0  0  0  0  0  0  0  0  0  0  0  0
  -20.8198  -31.1345   18.6207 N   0  0  0  0  0  0  0  0  0  0  0  0
  -21.9709  -31.5016   15.2137 N   0  3  0  0  0  0  0  0  0  0  0  0
  -30.7696  -12.0677   18.9936 O   0  0  0  0  0  0  0  0  0  0  0  0
  -23.5111  -29.0681   23.1853 O   0  0  0  0  0  0  0  0  0  0  0  0
  -21.7729  -32.1911   21.1074 O   0  0  0  0  0  0  0  0  0  0  0  0
  -21.6640  -29.5195   17.1868 O   0  0  0  0  0  0  0  0  0  0  0  0
  -30.4270  -21.5636   21.5001 O   0  0  0  0  0  0  0  0  0  0  0  0
  -23.1456  -11.7273   20.5248 O   0  0  0  0  0  0  0  0  0  0  0  0
  -26.8016  -25.6016   19.3330 O   0  0  0  0  0  0  0  0  0  1  0  0
  -22.8779   -6.4226   22.0056 F   0  0  0  0  0  0  0  0  0  0  0  0
  -24.5292   -9.7906   19.1185 F   0  0  0  0  0  0  0  0  0  0  0  0
  -27.3551  -24.6316   16.6969 F   0  0  0  0  0  0  0  0  0  0  0  0
  -28.6214  -19.7147   16.8935 Cl  0  0  0  0  0  0  0  0  0  0  0  0
  1  2  1  0  0  0  0
  1  5  2  0  0  0  0
  2  6  2  0  0  0  0
  3  8  2  0  0  0  0
  3 16  1  0  0  0  0
  4  9  1  0  0  0  0
  4 16  2  0  0  0  0
  5 18  1  0  0  0  0
  6 20  1  0  0  0  0
  7 10  2  0  0  0  0
  7 19  1  0  0  0  0
  8 25  1  0  0  0  0
  9 25  2  0  0  0  0
 10 26  1  0  0  0  0
 11 12  2  0  0  0  0
 11 27  1  0  0  0  0
 12 28  1  0  0  0  0
 13 21  1  0  0  0  0
 13 26  2  0  0  0  0
 14 22  1  0  0  0  0
 14 24  2  0  0  0  0
 15 28  2  0  0  0  0
 15 29  1  0  0  0  0
 16 32  1  0  0  0  0
 17 32  1  0  0  0  0
 17 33  2  0  0  0  0
 17 34  1  0  0  0  0
 18 20  2  0  0  0  0
 18 39  1  0  0  0  0
 19 21  2  0  0  0  0
 19 40  1  0  0  0  0
 20 48  1  0  0  0  0
 21 41  1  0  0  0  0
 22 30  2  0  0  0  0
 22 57  1  0  0  0  0
 23 30  1  0  0  0  0
 23 31  2  0  0  0  0
 23 51  1  0  0  0  0
 24 31  1  0  0  0  0
 24 67  1  0  0  0  0
 25 76  1  0  0  0  0
 26 77  1  0  0  0  0
 27 29  2  0  0  0  0
 27 76  1  0  0  0  0
 28 78  1  0  0  0  0
 29 79  1  0  0  0  0
 30 80  1  0  0  0  0
 31 81  1  0  0  0  0
 32 61  2  0  0  0  0
 33 62  1  0  0  0  0
 33 65  1  0  0  0  0
 34 66  1  0  0  0  0
 34 71  2  0  0  0  0
 35 49  1  0  0  0  0
 35 68  1  0  0  0  0
 35 72  2  0  0  0  0
 36 58  1  0  0  0  0
 36 63  1  0  0  0  0
 36 73  2  0  0  0  0
 37 59  1  0  0  0  0
 37 69  1  0  0  0  0
 37 74  2  0  0  0  0
 38 64  1  0  0  0  0
 38 67  1  0  0  0  0
 38 75  2  0  0  0  0
 39 42  1  0  0  0  0
 40 49  1  0  0  0  0
 41 63  1  0  0  0  0
 42 44  1  0  0  0  0
 43 45  1  0  0  0  0
 43 46  1  0  0  0  0
 44 48  1  0  0  0  0
 45 50  1  0  0  0  0
 46 64  1  0  0  0  0
 47 50  1  0  0  0  0
 47 64  1  0  0  0  0
 48 68  1  0  0  0  0
 49 63  1  0  0  0  0
 50 62  1  0  0  0  0
 52 59  1  0  0  0  0
 53 60  1  0  0  0  0
 54 60  1  0  0  0  0
 55 60  1  0  0  0  0
 56 70  1  0  0  0  0
 57 77  1  0  0  0  0
 58 60  1  0  0  0  0
 58 69  1  0  0  0  0
 59 70  1  0  0  0  0
 61 62  1  0  0  0  0
M  CHG  1  70   1
M  ISO  4  38 100  57 101  67 100  77 101
M  END
> <Batch ID>
0029

> <Smiles>
CNC(C)C(=O)NC(C(=O)N1Cc2cc([101O:1][101CH2:1]c3cc([100NH:0][100C:0](=O)N4CCCC(n5nc(-c6ccc(Oc7ccc(F)cc7F)cc6)c(C(N)=O)c5N)C4)c(Cl)c(C)c3F)ccc2CC1C(=O)NC1CCCc2ccccc21)C(C)(C)C

> <Shape>
0.290

> <Color>
0.112

> <Negative vol penalty>
0.000

$$$$

  -OEChem-04052316363D

 83 91  0     1  0  0  0  0  0999 V2000
  -23.3382  -24.0535   13.6084 C   0  0  0  0  0  0  0  0  0  0  0  0
  -22.8239  -24.8022   14.6621 C   0  0  0  0  0  0  0  0  0  0  0  0
  -27.2334  -14.9521   21.8913 C   0  0  0  0  0  0  0  0  0  0  0  0
  -26.1974  -15.3785   19.7508 C   0  0  0  0  0  0  0  0  0  0  0  0
  -24.4889  -23.2885   13.7947 C   0  0  0  0  0  0  0  0  0  0  0  0
  -23.4595  -24.7856   15.9032 C   0  0  0  0  0  0  0  0  0  0  0  0
  -23.9192  -29.4318   19.8664 C   0  0  0  0  0  0  0  0  0  0  0  0
  -26.8758  -13.6072   21.7965 C   0  0  0  0  0  0  0  0  0  0  0  0
  -25.8398  -14.0336   19.6559 C   0  0  0  0  0  0  0  0  0  0  0  0
  -23.1973  -29.7620   21.0125 C   0  0  0  0  0  0  0  0  0  0  0  0
  -24.3389  -10.7859   19.0156 C   0  0  0  0  0  0  0  0  0  0  0  0
  -23.0423  -10.4878   18.5966 C   0  0  0  0  0  0  0  0  0  0  0  0
  -24.8691  -28.6765   22.3711 C   0  0  0  0  0  0  0  0  0  0  0  0
  -19.8786  -24.9226   22.4253 C   0  0  0  0  0  0  0  0  0  0  0  0
  -21.6531  -26.3076   23.3026 C   0  0  0  0  0  0  0  0  0  0  0  0
  -22.1525  -11.6976   20.4891 C   0  0  0  0  0  0  0  0  0  0  0  0
  -26.8942  -15.8378   20.8685 C   0  0  0  0  0  0  0  0  0  0  0  0
  -28.4525  -17.8253   20.5092 C   0  0  0  0  0  0  0  0  0  0  0  0
  -25.1444  -23.2701   15.0359 C   0  0  0  0  0  0  0  0  0  0  0  0
  -25.1180  -28.7108   19.9634 C   0  0  0  0  0  0  0  0  0  0  0  0
  -24.6193  -24.0187   16.1066 C   0  0  0  0  0  0  0  0  0  0  0  0
  -25.6057  -28.3406   21.2249 C   0  0  0  0  0  0  0  0  0  0  0  0
  -21.2217  -25.2984   22.4418 C   0  0  0  0  0  0  0  0  0  0  0  0
  -18.9667  -25.5562   23.2697 C   0  0  0  0  0  0  0  0  0  0  0  0
  -20.7413  -26.9412   24.1469 C   0  0  0  0  0  0  0  0  0  0  0  0
  -26.1790  -13.1479   20.6788 C   0  0  0  0  0  0  0  0  0  0  0  0
  -23.6707  -29.3818   22.2648 C   0  0  0  0  0  0  0  0  0  0  0  0
  -24.5423  -11.5398   20.1715 C   0  0  0  0  0  0  0  0  0  0  0  0
  -21.9491  -10.9437   19.3333 C   0  0  0  0  0  0  0  0  0  0  0  0
  -23.4491  -11.9957   20.9082 C   0  0  0  0  0  0  0  0  0  0  0  0
  -19.3981  -26.5654   24.1305 C   0  0  0  0  0  0  0  0  0  0  0  0
  -27.2628  -17.2273   20.9661 C   0  0  0  0  0  0  0  0  0  0  0  0
  -28.3180  -19.1521   20.8377 C   0  0  0  0  0  0  0  0  0  0  0  0
  -29.5785  -17.2342   19.8470 C   0  0  0  0  0  0  0  0  0  0  0  0
  -26.1254  -25.8827   18.9191 C   0  0  0  0  0  0  0  0  0  0  0  0
  -28.9666  -26.8880   20.1189 C   0  0  0  0  0  0  0  0  0  0  0  0
  -30.6364  -28.9063   22.3064 C   0  0  0  0  0  0  0  0  0  0  0  0
  -23.5515  -22.5442   21.6309 C   0  0  0  0  0  0  0  0  0  0  0  0
  -26.3584  -22.3909   15.2028 C   0  0  0  0  0  0  0  0  0  0  0  0
  -25.8986  -28.3856   18.7195 C   0  0  0  0  0  0  0  0  0  0  0  0
  -26.8976  -27.5831   21.3846 C   0  0  0  0  0  0  0  0  0  0  0  0
  -27.1847  -22.7224   16.4428 C   0  0  0  0  0  0  0  0  0  0  0  0
  -26.2080  -22.0237   24.0329 C   0  0  0  0  0  0  0  0  0  0  0  0
  -26.2793  -22.8875   17.6592 C   0  0  0  0  0  0  0  0  0  0  0  0
  -26.8935  -20.7802   23.4636 C   0  0  0  0  0  0  0  0  0  0  0  0
  -24.6946  -21.9520   23.8525 C   0  0  0  0  0  0  0  0  0  0  0  0
  -24.9348  -20.5022   21.8741 C   0  0  0  0  0  0  0  0  0  0  0  0
  -25.2944  -24.0460   17.4607 C   0  0  1  0  0  0  0  0  0  0  0  0
  -26.8442  -27.2020   18.8998 C   0  0  1  0  0  0  0  0  0  0  0  0
  -26.4686  -20.5242   22.0054 C   0  0  2  0  0  0  0  0  0  0  0  0
  -17.5373  -25.1211   23.2179 C   0  0  0  0  0  0  0  0  0  0  0  0
  -32.9529  -29.4780   23.0839 C   0  0  0  0  0  0  0  0  0  0  0  0
  -29.0693  -24.2899   21.7156 C   0  0  0  0  0  0  0  0  0  0  0  0
  -30.8502  -25.3191   23.1430 C   0  0  0  0  0  0  0  0  0  0  0  0
  -31.2501  -24.9798   20.7042 C   0  0  0  0  0  0  0  0  0  0  0  0
  -30.3525  -31.7256   21.4523 C   0  0  0  0  0  0  0  0  0  0  0  0
  -21.2526  -28.0265   25.0602 C   0  0  0  0  0  0  0  0  0  0  0  0
  -22.1966  -24.6210   21.5391 C   0  0  0  0  0  0  0  0  0  0  0  0
  -20.9086  -29.4410   24.5887 C   0  0  0  0  0  0  0  0  0  0  0  0
  -21.5503  -29.8056   23.2550 C   0  0  0  0  0  0  0  0  0  1  0  0
  -29.6557  -26.7911   21.4586 C   0  0  1  0  0  0  0  0  0  0  0  0
  -31.8300  -29.8253   22.1188 C   0  0  2  0  0  0  0  0  0  0  0  0
  -30.1809  -25.3576   21.7526 C   0  0  0  0  0  0  0  0  0  0  0  0
  -26.4336  -18.1024   21.5412 N   0  0  0  0  0  0  0  0  0  0  0  0
  -27.1034  -19.2638   21.4479 N   0  0  0  0  0  0  0  0  0  0  0  0
  -27.6214  -27.2830   20.1381 N   0  0  0  0  0  0  0  0  0  0  0  0
  -24.3567  -21.7256   22.4402 N   0  0  0  0  0  0  0  0  0  0  0  0
  -29.1215  -20.2225   20.6612 N   0  0  0  0  0  0  0  0  0  0  0  0
  -29.5530  -15.8575   19.5858 N   0  0  0  0  0  0  0  0  0  0  0  0
  -25.9579  -25.3149   17.6705 N   0  0  0  0  0  0  0  0  0  0  0  0
  -30.6911  -27.8189   21.4603 N   0  0  0  0  0  0  0  0  0  0  0  0
  -23.0372  -23.6796   22.2449 N   0  0  0  0  0  0  0  0  0  0  0  0
  -31.4335  -31.2431   22.3499 N   0  3  0  0  0  0  0  0  0  0  0  0
  -30.5847  -17.9041   19.5118 O   0  0  0  0  0  0  0  0  0  0  0  0
  -25.7519  -25.4137   19.9878 O   0  0  0  0  0  0  0  0  0  0  0  0
  -29.6005  -26.6299   19.0927 O   0  0  0  0  0  0  0  0  0  0  0  0
  -29.7466  -29.1287   23.1245 O   0  0  0  0  0  0  0  0  0  0  0  0
  -23.3127  -22.2852   20.4464 O   0  0  0  0  0  0  0  0  0  0  0  0
  -25.8301  -11.8356   20.5858 O   0  0  0  0  0  0  0  0  0  0  0  0
  -22.9676  -29.7023   23.3851 O   0  0  0  0  0  0  0  0  0  1  0  0
  -20.7040  -10.6586   18.9298 F   0  0  0  0  0  0  0  0  0  0  0  0
  -23.6381  -12.7214   22.0188 F   0  0  0  0  0  0  0  0  0  0  0  0
  -18.2660  -27.3521   25.1786 Cl  0  0  0  0  0  0  0  0  0  0  0  0
  1  2  1  0  0  0  0
  1  5  2  0  0  0  0
  2  6  2  0  0  0  0
  3  8  2  0  0  0  0
  3 17  1  0  0  0  0
  4  9  1  0  0  0  0
  4 17  2  0  0  0  0
  5 19  1  0  0  0  0
  6 21  1  0  0  0  0
  7 10  2  0  0  0  0
  7 20  1  0  0  0  0
  8 26  1  0  0  0  0
  9 26  2  0  0  0  0
 10 27  1  0  0  0  0
 11 12  2  0  0  0  0
 11 28  1  0  0  0  0
 12 29  1  0  0  0  0
 13 22  1  0  0  0  0
 13 27  2  0  0  0  0
 14 23  1  0  0  0  0
 14 24  2  0  0  0  0
 15 23  2  0  0  0  0
 15 25  1  0  0  0  0
 16 29  2  0  0  0  0
 16 30  1  0  0  0  0
 17 32  1  0  0  0  0
 18 32  1  0  0  0  0
 18 33  2  0  0  0  0
 18 34  1  0  0  0  0
 19 21  2  0  0  0  0
 19 39  1  0  0  0  0
 20 22  2  0  0  0  0
 20 40  1  0  0  0  0
 21 48  1  0  0  0  0
 22 41  1  0  0  0  0
 23 58  1  0  0  0  0
 24 31  1  0  0  0  0
 24 51  1  0  0  0  0
 25 31  2  0  0  0  0
 25 57  1  0  0  0  0
 26 79  1  0  0  0  0
 27 80  1  0  0  0  0
 28 30  2  0  0  0  0
 28 79  1  0  0  0  0
 29 81  1  0  0  0  0
 30 82  1  0  0  0  0
 31 83  1  0  0  0  0
 32 64  2  0  0  0  0
 33 65  1  0  0  0  0
 33 68  1  0  0  0  0
 34 69  1  0  0  0  0
 34 74  2  0  0  0  0
 35 49  1  0  0  0  0
 35 70  1  0  0  0  0
 35 75  2  0  0  0  0
 36 61  1  0  0  0  0
 36 66  1  0  0  0  0
 36 76  2  0  0  0  0
 37 62  1  0  0  0  0
 37 71  1  0  0  0  0
 37 77  2  0  0  0  0
 38 67  1  0  0  0  0
 38 72  1  0  0  0  0
 38 78  2  0  0  0  0
 39 42  1  0  0  0  0
 40 49  1  0  0  0  0
 41 66  1  0  0  0  0
 42 44  1  0  0  0  0
 43 45  1  0  0  0  0
 43 46  1  0  0  0  0
 44 48  1  0  0  0  0
 45 50  1  0  0  0  0
 46 67  1  0  0  0  0
 47 50  1  0  0  0  0
 47 67  1  0  0  0  0
 48 70  1  0  0  0  0
 49 66  1  0  0  0  0
 50 65  1  0  0  0  0
 52 62  1  0  0  0  0
 53 63  1  0  0  0  0
 54 63  1  0  0  0  0
 55 63  1  0  0  0  0
 56 73  1  0  0  0  0
 57 59  1  0  0  0  0
 58 72  1  0  0  0  0
 59 60  1  0  0  0  0
 60 80  1  0  0  0  0
 61 63  1  0  0  0  0
 61 71  1  0  0  0  0
 62 73  1  0  0  0  0
 64 65  1  0  0  0  0
M  CHG  1  73   1
M  ISO  4  38 100  60 101  72 100  80 101
M  END
> <Batch ID>
0029

> <Smiles>
CNC(C)C(=O)NC(C(=O)N1Cc2cc([101O:1][101CH2:1]CCc3cc(C[100NH:0][100C:0](=O)N4CCCC(n5nc(-c6ccc(Oc7ccc(F)cc7F)cc6)c(C(N)=O)c5N)C4)cc(C)c3Cl)ccc2CC1C(=O)NC1CCCc2ccccc21)C(C)(C)C

> <Shape>
0.201

> <Color>
0.078

> <Negative vol penalty>
0.000

$$$$

  -OEChem-04052316363D

 84 93  0     1  0  0  0  0  0999 V2000
  -27.1155  -38.0169   22.0893 C   0  0  0  0  0  0  0  0  0  0  0  0
  -27.6649  -36.9918   21.3259 C   0  0  0  0  0  0  0  0  0  0  0  0
  -26.0568   -8.9470   19.8790 C   0  0  0  0  0  0  0  0  0  0  0  0
  -26.9954   -9.5186   22.0306 C   0  0  0  0  0  0  0  0  0  0  0  0
  -26.4001  -37.7155   23.2474 C   0  0  0  0  0  0  0  0  0  0  0  0
  -27.5001  -35.6647   21.7209 C   0  0  0  0  0  0  0  0  0  0  0  0
  -26.7521  -29.0813   18.9978 C   0  0  0  0  0  0  0  0  0  0  0  0
  -26.7803   -7.7545   19.8801 C   0  0  0  0  0  0  0  0  0  0  0  0
  -27.7189   -8.3261   22.0318 C   0  0  0  0  0  0  0  0  0  0  0  0
  -27.3027  -27.8045   19.0999 C   0  0  0  0  0  0  0  0  0  0  0  0
  -28.6580   -4.7266   19.1523 C   0  0  0  0  0  0  0  0  0  0  0  0
  -29.3198   -4.3667   17.9785 C   0  0  0  0  0  0  0  0  0  0  0  0
  -25.9800  -27.3988   21.0761 C   0  0  0  0  0  0  0  0  0  0  0  0
  -30.6155   -6.4031   18.0846 C   0  0  0  0  0  0  0  0  0  0  0  0
  -26.1644   -9.8291   20.9542 C   0  0  0  0  0  0  0  0  0  0  0  0
  -24.1222  -11.2708   21.4630 C   0  0  0  0  0  0  0  0  0  0  0  0
  -26.2182  -36.3835   23.6516 C   0  0  0  0  0  0  0  0  0  0  0  0
  -25.8179  -29.5312   19.9418 C   0  0  0  0  0  0  0  0  0  0  0  0
  -26.7827  -35.3453   22.8862 C   0  0  0  0  0  0  0  0  0  0  0  0
  -25.4171  -28.6808   20.9822 C   0  0  0  0  0  0  0  0  0  0  0  0
  -28.9507  -21.1417   21.2417 C   0  0  0  0  0  0  0  0  0  0  0  0
  -29.7205  -22.3052   21.3655 C   0  0  0  0  0  0  0  0  0  0  0  0
  -29.1128  -23.5537   21.3978 C   0  0  0  0  0  0  0  0  0  0  0  0
  -27.6114   -7.4440   20.9565 C   0  0  0  0  0  0  0  0  0  0  0  0
  -26.9189  -26.9641   20.1408 C   0  0  0  0  0  0  0  0  0  0  0  0
  -28.9748   -5.9248   19.7923 C   0  0  0  0  0  0  0  0  0  0  0  0
  -30.2986   -5.2049   17.4446 C   0  0  0  0  0  0  0  0  0  0  0  0
  -29.9536   -6.7630   19.2585 C   0  0  0  0  0  0  0  0  0  0  0  0
  -25.4177  -11.0614   20.9533 C   0  0  0  0  0  0  0  0  0  0  0  0
  -27.5629  -21.2922   21.1633 C   0  0  0  0  0  0  0  0  0  0  0  0
  -27.7364  -23.5996   21.3071 C   0  0  0  0  0  0  0  0  0  0  0  0
  -23.8688  -12.5989   21.2217 C   0  0  0  0  0  0  0  0  0  0  0  0
  -23.2280  -10.3473   22.0980 C   0  0  0  0  0  0  0  0  0  0  0  0
  -25.7308  -31.9014   22.0580 C   0  0  0  0  0  0  0  0  0  0  0  0
  -22.6786  -30.8887   22.4834 C   0  0  0  0  0  0  0  0  0  0  0  0
  -20.4094  -28.3504   22.2513 C   0  0  0  0  0  0  0  0  0  0  0  0
  -27.9374  -17.0419   20.3230 C   0  0  0  0  0  0  0  0  0  0  0  0
  -25.4775  -36.1095   24.9364 C   0  0  0  0  0  0  0  0  0  0  0  0
  -25.2133  -30.9014   19.8023 C   0  0  0  0  0  0  0  0  0  0  0  0
  -29.6262  -19.7974   21.2025 C   0  0  0  0  0  0  0  0  0  0  0  0
  -24.4026  -29.1086   22.0099 C   0  0  0  0  0  0  0  0  0  0  0  0
  -26.6409  -20.1068   21.0573 C   0  0  0  0  0  0  0  0  0  0  0  0
  -25.0291  -34.6577   25.0833 C   0  0  0  0  0  0  0  0  0  0  0  0
  -24.9615  -16.1484   18.2267 C   0  0  0  0  0  0  0  0  0  0  0  0
  -26.1688  -33.7084   24.7273 C   0  0  0  0  0  0  0  0  0  0  0  0
  -24.6976  -14.7187   18.6960 C   0  0  0  0  0  0  0  0  0  0  0  0
  -29.3402  -19.0297   19.9122 C   0  0  0  0  0  0  0  0  0  0  0  0
  -26.8523  -19.2654   19.7958 C   0  0  0  0  0  0  0  0  0  0  0  0
  -26.4329  -16.5170   18.3747 C   0  0  0  0  0  0  0  0  0  0  0  0
  -26.7023  -14.9067   20.2361 C   0  0  0  0  0  0  0  0  0  0  0  0
  -26.6045  -33.8919   23.2685 C   0  0  1  0  0  0  0  0  0  0  0  0
  -24.6548  -31.4444   21.1140 C   0  0  1  0  0  0  0  0  0  0  0  0
  -25.2225  -14.5049   20.1255 C   0  0  2  0  0  0  0  0  0  0  0  0
  -31.2150  -22.2462   21.4604 C   0  0  0  0  0  0  0  0  0  0  0  0
  -29.9163  -24.8046   21.5253 C   0  0  0  0  0  0  0  0  0  0  0  0
  -18.0013  -27.8128   22.7094 C   0  0  0  0  0  0  0  0  0  0  0  0
  -23.2930  -30.6891   25.4655 C   0  0  0  0  0  0  0  0  0  0  0  0
  -21.2377  -29.2830   25.7238 C   0  0  0  0  0  0  0  0  0  0  0  0
  -21.0432  -31.6382   24.9251 C   0  0  0  0  0  0  0  0  0  0  0  0
  -19.8760  -27.7691   19.3989 C   0  0  0  0  0  0  0  0  0  0  0  0
  -27.0180  -24.9088   21.3333 C   0  0  0  0  0  0  0  0  0  1  0  0
  -22.0019  -29.8809   23.3808 C   0  0  1  0  0  0  0  0  0  0  0  0
  -19.0046  -28.3043   21.6777 C   0  0  2  0  0  0  0  0  0  0  0  0
  -21.9145  -30.3651   24.8557 C   0  0  0  0  0  0  0  0  0  0  0  0
  -25.9500  -12.1679   20.4277 N   0  0  0  0  0  0  0  0  0  0  0  0
  -26.9527  -22.5062   21.1929 N   0  0  0  0  0  0  0  0  0  0  0  0
  -24.9842  -13.0853   20.6058 N   0  0  0  0  0  0  0  0  0  0  0  0
  -23.8449  -30.4597   21.8342 N   0  0  0  0  0  0  0  0  0  0  0  0
  -28.0260  -18.3835   19.9060 N   0  0  0  0  0  0  0  0  0  0  0  0
  -26.9241  -16.2649   19.7366 N   0  0  0  0  0  0  0  0  0  0  0  0
  -22.8028  -13.3865   21.4783 N   0  0  0  0  0  0  0  0  0  0  0  0
  -23.6468   -9.0205   22.2669 N   0  0  0  0  0  0  0  0  0  0  0  0
  -25.6671  -33.2447   22.3758 N   0  0  0  0  0  0  0  0  0  0  0  0
  -20.7092  -29.5927   22.7690 N   0  0  0  0  0  0  0  0  0  0  0  0
  -18.9551  -27.3906   20.5014 N   0  3  0  0  0  0  0  0  0  0  0  0
  -22.0847  -10.6846   22.4887 O   0  0  0  0  0  0  0  0  0  0  0  0
  -26.5567  -31.0947   22.4688 O   0  0  0  0  0  0  0  0  0  0  0  0
  -22.1865  -32.0128   22.3574 O   0  0  0  0  0  0  0  0  0  0  0  0
  -21.1637  -27.3801   22.2446 O   0  0  0  0  0  0  0  0  0  0  0  0
  -28.7148  -16.5684   21.1611 O   0  0  0  0  0  0  0  0  0  0  0  0
  -28.3174   -6.2803   20.9581 O   0  0  0  0  0  0  0  0  0  0  0  0
  -27.4590  -25.7087   20.2440 O   0  0  0  0  0  0  0  0  0  1  0  0
  -30.9352   -4.8584   16.3182 F   0  0  0  0  0  0  0  0  0  0  0  0
  -30.2631   -7.9149   19.8695 F   0  0  0  0  0  0  0  0  0  0  0  0
  1  2  1  0  0  0  0
  1  5  2  0  0  0  0
  2  6  2  0  0  0  0
  3  8  2  0  0  0  0
  3 15  1  0  0  0  0
  4  9  1  0  0  0  0
  4 15  2  0  0  0  0
  5 17  1  0  0  0  0
  6 19  1  0  0  0  0
  7 10  2  0  0  0  0
  7 18  1  0  0  0  0
  8 24  1  0  0  0  0
  9 24  2  0  0  0  0
 10 25  1  0  0  0  0
 11 12  2  0  0  0  0
 11 26  1  0  0  0  0
 12 27  1  0  0  0  0
 13 20  1  0  0  0  0
 13 25  2  0  0  0  0
 14 27  2  0  0  0  0
 14 28  1  0  0  0  0
 15 29  1  0  0  0  0
 16 29  1  0  0  0  0
 16 32  2  0  0  0  0
 16 33  1  0  0  0  0
 17 19  2  0  0  0  0
 17 38  1  0  0  0  0
 18 20  2  0  0  0  0
 18 39  1  0  0  0  0
 19 51  1  0  0  0  0
 20 41  1  0  0  0  0
 21 22  2  0  0  0  0
 21 30  1  0  0  0  0
 21 40  1  0  0  0  0
 22 23  1  0  0  0  0
 22 54  1  0  0  0  0
 23 31  2  0  0  0  0
 23 55  1  0  0  0  0
 24 81  1  0  0  0  0
 25 82  1  0  0  0  0
 26 28  2  0  0  0  0
 26 81  1  0  0  0  0
 27 83  1  0  0  0  0
 28 84  1  0  0  0  0
 29 65  2  0  0  0  0
 30 42  1  0  0  0  0
 30 66  2  0  0  0  0
 31 61  1  0  0  0  0
 31 66  1  0  0  0  0
 32 67  1  0  0  0  0
 32 71  1  0  0  0  0
 33 72  1  0  0  0  0
 33 76  2  0  0  0  0
 34 52  1  0  0  0  0
 34 73  1  0  0  0  0
 34 77  2  0  0  0  0
 35 62  1  0  0  0  0
 35 68  1  0  0  0  0
 35 78  2  0  0  0  0
 36 63  1  0  0  0  0
 36 74  1  0  0  0  0
 36 79  2  0  0  0  0
 37 69  1  0  0  0  0
 37 70  1  0  0  0  0
 37 80  2  0  0  0  0
 38 43  1  0  0  0  0
 39 52  1  0  0  0  0
 40 47  1  0  0  0  0
 41 68  1  0  0  0  0
 42 48  1  0  0  0  0
 43 45  1  0  0  0  0
 44 46  1  0  0  0  0
 44 49  1  0  0  0  0
 45 51  1  0  0  0  0
 46 53  1  0  0  0  0
 47 69  1  0  0  0  0
 48 69  1  0  0  0  0
 49 70  1  0  0  0  0
 50 53  1  0  0  0  0
 50 70  1  0  0  0  0
 51 73  1  0  0  0  0
 52 68  1  0  0  0  0
 53 67  1  0  0  0  0
 56 63  1  0  0  0  0
 57 64  1  0  0  0  0
 58 64  1  0  0  0  0
 59 64  1  0  0  0  0
 60 75  1  0  0  0  0
 61 82  1  0  0  0  0
 62 64  1  0  0  0  0
 62 74  1  0  0  0  0
 63 75  1  0  0  0  0
 65 67  1  0  0  0  0
M  CHG  1  75   1
M  ISO  4  37 100  61 101  69 100  82 101
M  END
> <Batch ID>
0029

> <Smiles>
CNC(C)C(=O)NC(C(=O)N1Cc2cc([101O:1][101CH2:1]c3nc4c(c(C)c3C)CC[100N:0]([100C:0](=O)N3CCCC(n5nc(-c6ccc(Oc7ccc(F)cc7F)cc6)c(C(N)=O)c5N)C3)CC4)ccc2CC1C(=O)NC1CCCc2ccccc21)C(C)(C)C

> <Shape>
0.277

> <Color>
0.084

> <Negative vol penalty>
0.000

$$$$

  -OEChem-04052316363D

 84 92  0     1  0  0  0  0  0999 V2000
  -30.2601  -11.4489   19.7864 C   0  0  0  0  0  0  0  0  0  0  0  0
  -30.5067  -12.7955   19.5388 C   0  0  0  0  0  0  0  0  0  0  0  0
  -20.1182  -28.5147   23.4974 C   0  0  0  0  0  0  0  0  0  0  0  0
  -21.2674  -27.1155   21.8979 C   0  0  0  0  0  0  0  0  0  0  0  0
  -28.9535  -10.9634   19.7545 C   0  0  0  0  0  0  0  0  0  0  0  0
  -29.4470  -13.6572   19.2581 C   0  0  0  0  0  0  0  0  0  0  0  0
  -28.9685  -19.5486   20.8607 C   0  0  0  0  0  0  0  0  0  0  0  0
  -18.9078  -28.2556   22.8546 C   0  0  0  0  0  0  0  0  0  0  0  0
  -20.0569  -26.8562   21.2550 C   0  0  0  0  0  0  0  0  0  0  0  0
  -29.2113  -20.7324   20.1655 C   0  0  0  0  0  0  0  0  0  0  0  0
  -17.3623  -24.8723   21.7279 C   0  0  0  0  0  0  0  0  0  0  0  0
  -17.0907  -23.5522   21.3686 C   0  0  0  0  0  0  0  0  0  0  0  0
  -26.8680  -20.8809   19.6122 C   0  0  0  0  0  0  0  0  0  0  0  0
  -29.6942  -25.6116   18.6465 C   0  0  0  0  0  0  0  0  0  0  0  0
  -16.9460  -24.2131   19.0493 C   0  0  0  0  0  0  0  0  0  0  0  0
  -21.2981  -27.9447   23.0190 C   0  0  0  0  0  0  0  0  0  0  0  0
  -23.1256  -27.4801   24.7371 C   0  0  0  0  0  0  0  0  0  0  0  0
  -27.8762  -11.8214   19.4827 C   0  0  0  0  0  0  0  0  0  0  0  0
  -27.6733  -19.0153   20.9277 C   0  0  0  0  0  0  0  0  0  0  0  0
  -28.1249  -13.1824   19.2212 C   0  0  0  0  0  0  0  0  0  0  0  0
  -26.6110  -19.6915   20.3110 C   0  0  0  0  0  0  0  0  0  0  0  0
  -28.3145  -25.4513   18.5839 C   0  0  0  0  0  0  0  0  0  0  0  0
  -18.8771  -27.4263   21.7334 C   0  0  0  0  0  0  0  0  0  0  0  0
  -28.1615  -21.3973   19.5387 C   0  0  0  0  0  0  0  0  0  0  0  0
  -17.4256  -25.8629   20.7478 C   0  0  0  0  0  0  0  0  0  0  0  0
  -16.8826  -23.2226   20.0293 C   0  0  0  0  0  0  0  0  0  0  0  0
  -17.2175  -25.5333   19.4086 C   0  0  0  0  0  0  0  0  0  0  0  0
  -30.2444  -26.4992   19.5646 C   0  0  0  0  0  0  0  0  0  0  0  0
  -22.5488  -28.2126   23.6823 C   0  0  0  0  0  0  0  0  0  0  0  0
  -27.5349  -26.1960   19.4543 C   0  0  0  0  0  0  0  0  0  0  0  0
  -29.3785  -27.1971   20.3909 C   0  0  0  0  0  0  0  0  0  0  0  0
  -24.3019  -28.1357   25.0074 C   0  0  0  0  0  0  0  0  0  0  0  0
  -22.6414  -26.3115   25.4122 C   0  0  0  0  0  0  0  0  0  0  0  0
  -26.3071  -16.3132   19.9603 C   0  0  0  0  0  0  0  0  0  0  0  0
  -23.7457  -17.4903   21.5653 C   0  0  0  0  0  0  0  0  0  0  0  0
  -22.1022  -20.2146   22.7999 C   0  0  0  0  0  0  0  0  0  0  0  0
  -27.8683  -31.6381   21.7112 C   0  0  0  0  0  0  0  0  0  0  0  0
  -26.4859  -11.2412   19.4124 C   0  0  0  0  0  0  0  0  0  0  0  0
  -27.4235  -17.7515   21.7041 C   0  0  0  0  0  0  0  0  0  0  0  0
  -25.1987  -19.1715   20.3704 C   0  0  0  0  0  0  0  0  0  0  0  0
  -25.3825  -12.2942   19.4767 C   0  0  0  0  0  0  0  0  0  0  0  0
  -26.3031  -32.4764   24.7973 C   0  0  0  0  0  0  0  0  0  0  0  0
  -25.6953  -13.4534   18.5359 C   0  0  0  0  0  0  0  0  0  0  0  0
  -25.2155  -31.4126   24.9567 C   0  0  0  0  0  0  0  0  0  0  0  0
  -26.4798  -32.8886   23.3376 C   0  0  0  0  0  0  0  0  0  0  0  0
  -25.6306  -30.7086   22.5628 C   0  0  0  0  0  0  0  0  0  0  0  0
  -26.9993  -14.1533   18.9374 C   0  0  1  0  0  0  0  0  0  0  0  0
  -26.1519  -17.0271   21.2733 C   0  0  1  0  0  0  0  0  0  0  0  0
  -25.4544  -30.2203   24.0108 C   0  0  2  0  0  0  0  0  0  0  0  0
  -26.0470  -26.0640   19.4328 C   0  0  0  0  0  0  0  0  0  0  0  0
  -20.0142  -20.8649   24.0306 C   0  0  0  0  0  0  0  0  0  0  0  0
  -22.1195  -17.0850   19.0156 C   0  0  0  0  0  0  0  0  0  0  0  0
  -20.3666  -18.5919   19.9771 C   0  0  0  0  0  0  0  0  0  0  0  0
  -20.9318  -16.4493   21.1226 C   0  0  0  0  0  0  0  0  0  0  0  0
  -23.6461  -21.3537   25.0532 C   0  0  0  0  0  0  0  0  0  0  0  0
  -27.7101  -24.4896   17.5899 C   0  0  0  0  0  0  0  0  0  0  0  0
  -29.8983  -28.1688   21.4003 C   0  0  0  0  0  0  0  0  0  0  0  0
  -30.2871  -29.5412   20.8191 C   0  0  0  0  0  0  0  0  0  0  0  0
  -29.1528  -30.2620   20.0939 C   0  0  0  0  0  0  0  0  0  0  0  0
  -27.2739  -23.1813   18.2405 C   0  0  0  0  0  0  0  0  0  1  0  0
  -22.5726  -18.3708   21.2082 C   0  0  1  0  0  0  0  0  0  0  0  0
  -21.4815  -20.4864   24.1584 C   0  0  2  0  0  0  0  0  0  0  0  0
  -21.5244  -17.6333   20.3279 C   0  0  0  0  0  0  0  0  0  0  0  0
  -23.2970  -29.2539   23.3081 N   0  0  0  0  0  0  0  0  0  0  0  0
  -28.0331  -27.0679   20.3593 N   0  0  0  0  0  0  0  0  0  0  0  0
  -24.3559  -29.1805   24.1324 N   0  0  0  0  0  0  0  0  0  0  0  0
  -25.0064  -17.9289   21.1362 N   0  0  0  0  0  0  0  0  0  0  0  0
  -26.7044  -31.7121   22.4940 N   0  0  0  0  0  0  0  0  0  0  0  0
  -25.2849  -27.9147   25.9059 N   0  0  0  0  0  0  0  0  0  0  0  0
  -21.4148  -25.7668   25.0086 N   0  0  0  0  0  0  0  0  0  0  0  0
  -26.7783  -15.0194   20.0756 N   0  0  0  0  0  0  0  0  0  0  0  0
  -22.0432  -18.8771   22.4698 N   0  0  0  0  0  0  0  0  0  0  0  0
  -28.0063  -30.4866   20.9460 N   0  0  0  0  0  0  0  0  0  0  0  0
  -22.1968  -21.6015   24.8409 N   0  3  0  0  0  0  0  0  0  0  0  0
  -23.2698  -25.7762   26.3566 O   0  0  0  0  0  0  0  0  0  0  0  0
  -26.0192  -16.8929   18.9197 O   0  0  0  0  0  0  0  0  0  0  0  0
  -23.5516  -16.4554   22.2078 O   0  0  0  0  0  0  0  0  0  0  0  0
  -22.5872  -21.1007   22.0999 O   0  0  0  0  0  0  0  0  0  0  0  0
  -28.7238  -32.5297   21.6994 O   0  0  0  0  0  0  0  0  0  0  0  0
  -17.6961  -27.1730   21.1060 O   0  0  0  0  0  0  0  0  0  0  0  0
  -28.3958  -22.5527   18.8589 O   0  0  0  0  0  0  0  0  0  1  0  0
  -16.6234  -21.9545   19.6843 F   0  0  0  0  0  0  0  0  0  0  0  0
  -17.2783  -26.4804   18.4625 F   0  0  0  0  0  0  0  0  0  0  0  0
  -31.9518  -26.6962   19.6400 Cl  0  0  0  0  0  0  0  0  0  0  0  0
  1  2  1  0  0  0  0
  1  5  2  0  0  0  0
  2  6  2  0  0  0  0
  3  8  2  0  0  0  0
  3 16  1  0  0  0  0
  4  9  1  0  0  0  0
  4 16  2  0  0  0  0
  5 18  1  0  0  0  0
  6 20  1  0  0  0  0
  7 10  2  0  0  0  0
  7 19  1  0  0  0  0
  8 23  1  0  0  0  0
  9 23  2  0  0  0  0
 10 24  1  0  0  0  0
 11 12  2  0  0  0  0
 11 25  1  0  0  0  0
 12 26  1  0  0  0  0
 13 21  1  0  0  0  0
 13 24  2  0  0  0  0
 14 22  1  0  0  0  0
 14 28  2  0  0  0  0
 15 26  2  0  0  0  0
 15 27  1  0  0  0  0
 16 29  1  0  0  0  0
 17 29  1  0  0  0  0
 17 32  2  0  0  0  0
 17 33  1  0  0  0  0
 18 20  2  0  0  0  0
 18 38  1  0  0  0  0
 19 21  2  0  0  0  0
 19 39  1  0  0  0  0
 20 47  1  0  0  0  0
 21 40  1  0  0  0  0
 22 30  2  0  0  0  0
 22 56  1  0  0  0  0
 23 80  1  0  0  0  0
 24 81  1  0  0  0  0
 25 27  2  0  0  0  0
 25 80  1  0  0  0  0
 26 82  1  0  0  0  0
 27 83  1  0  0  0  0
 28 31  1  0  0  0  0
 28 84  1  0  0  0  0
 29 64  2  0  0  0  0
 30 50  1  0  0  0  0
 30 65  1  0  0  0  0
 31 57  1  0  0  0  0
 31 65  2  0  0  0  0
 32 66  1  0  0  0  0
 32 69  1  0  0  0  0
 33 70  1  0  0  0  0
 33 75  2  0  0  0  0
 34 48  1  0  0  0  0
 34 71  1  0  0  0  0
 34 76  2  0  0  0  0
 35 61  1  0  0  0  0
 35 67  1  0  0  0  0
 35 77  2  0  0  0  0
 36 62  1  0  0  0  0
 36 72  1  0  0  0  0
 36 78  2  0  0  0  0
 37 68  1  0  0  0  0
 37 73  1  0  0  0  0
 37 79  2  0  0  0  0
 38 41  1  0  0  0  0
 39 48  1  0  0  0  0
 40 67  1  0  0  0  0
 41 43  1  0  0  0  0
 42 44  1  0  0  0  0
 42 45  1  0  0  0  0
 43 47  1  0  0  0  0
 44 49  1  0  0  0  0
 45 68  1  0  0  0  0
 46 49  1  0  0  0  0
 46 68  1  0  0  0  0
 47 71  1  0  0  0  0
 48 67  1  0  0  0  0
 49 66  1  0  0  0  0
 51 62  1  0  0  0  0
 52 63  1  0  0  0  0
 53 63  1  0  0  0  0
 54 63  1  0  0  0  0
 55 74  1  0  0  0  0
 56 60  1  0  0  0  0
 57 58  1  0  0  0  0
 58 59  1  0  0  0  0
 59 73  1  0  0  0  0
 60 81  1  0  0  0  0
 61 63  1  0  0  0  0
 61 72  1  0  0  0  0
 62 74  1  0  0  0  0
 64 66  1  0  0  0  0
M  CHG  1  74   1
M  ISO  4  37 100  60 101  73 100  81 101
M  END
> <Batch ID>
0029

> <Smiles>
CNC(C)C(=O)NC(C(=O)N1Cc2cc([101O:1][101CH2:1]Cc3cc(Cl)c(CCC[100NH:0][100C:0](=O)N4CCCC(n5nc(-c6ccc(Oc7ccc(F)cc7F)cc6)c(C(N)=O)c5N)C4)nc3C)ccc2CC1C(=O)NC1CCCc2ccccc21)C(C)(C)C

> <Shape>
0.236

> <Color>
0.070

> <Negative vol penalty>
0.000

$$$$

  -OEChem-04052316363D

 82 90  0     1  0  0  0  0  0999 V2000
  -18.8038  -25.1737   19.7874 C   0  0  0  0  0  0  0  0  0  0  0  0
  -20.1404  -25.4831   19.5571 C   0  0  0  0  0  0  0  0  0  0  0  0
  -24.1386  -14.1526   20.8372 C   0  0  0  0  0  0  0  0  0  0  0  0
  -26.5517  -14.0431   20.8803 C   0  0  0  0  0  0  0  0  0  0  0  0
  -18.1181  -25.7866   20.8353 C   0  0  0  0  0  0  0  0  0  0  0  0
  -20.7919  -26.4066   20.3740 C   0  0  0  0  0  0  0  0  0  0  0  0
  -25.4013  -24.8476   21.7768 C   0  0  0  0  0  0  0  0  0  0  0  0
  -24.0839  -12.8069   20.4745 C   0  0  0  0  0  0  0  0  0  0  0  0
  -26.4971  -12.6973   20.5176 C   0  0  0  0  0  0  0  0  0  0  0  0
  -26.4260  -24.9652   20.8388 C   0  0  0  0  0  0  0  0  0  0  0  0
  -23.2984   -9.3061   19.8892 C   0  0  0  0  0  0  0  0  0  0  0  0
  -22.3745   -8.4942   20.5469 C   0  0  0  0  0  0  0  0  0  0  0  0
  -27.1818  -26.9815   21.9263 C   0  0  0  0  0  0  0  0  0  0  0  0
  -31.4474  -22.8265   21.3802 C   0  0  0  0  0  0  0  0  0  0  0  0
  -30.4158  -23.7927   18.9750 C   0  0  0  0  0  0  0  0  0  0  0  0
  -23.4417   -8.9893   22.6572 C   0  0  0  0  0  0  0  0  0  0  0  0
  -25.3725  -14.7708   21.0401 C   0  0  0  0  0  0  0  0  0  0  0  0
  -25.4306  -16.6910   22.7184 C   0  0  0  0  0  0  0  0  0  0  0  0
  -18.7642  -26.7108   21.6714 C   0  0  0  0  0  0  0  0  0  0  0  0
  -25.2522  -25.8036   22.7918 C   0  0  0  0  0  0  0  0  0  0  0  0
  -20.1138  -27.0335   21.4332 C   0  0  0  0  0  0  0  0  0  0  0  0
  -26.1559  -26.8723   22.8775 C   0  0  0  0  0  0  0  0  0  0  0  0
  -31.3475  -24.2013   21.1664 C   0  0  0  0  0  0  0  0  0  0  0  0
  -31.0316  -21.9349   20.3913 C   0  0  0  0  0  0  0  0  0  0  0  0
  -30.8317  -24.6844   19.9638 C   0  0  0  0  0  0  0  0  0  0  0  0
  -30.5158  -22.4180   19.1888 C   0  0  0  0  0  0  0  0  0  0  0  0
  -25.2631  -12.0792   20.3147 C   0  0  0  0  0  0  0  0  0  0  0  0
  -27.3148  -26.0339   20.9118 C   0  0  0  0  0  0  0  0  0  0  0  0
  -24.2941   -9.9596   20.6154 C   0  0  0  0  0  0  0  0  0  0  0  0
  -22.4460   -8.3358   21.9309 C   0  0  0  0  0  0  0  0  0  0  0  0
  -24.3657   -9.8012   21.9994 C   0  0  0  0  0  0  0  0  0  0  0  0
  -25.4296  -16.1610   21.4142 C   0  0  0  0  0  0  0  0  0  0  0  0
  -25.4965  -18.0508   22.5364 C   0  0  0  0  0  0  0  0  0  0  0  0
  -25.3770  -16.0147   23.9815 C   0  0  0  0  0  0  0  0  0  0  0  0
  -22.9783  -27.8671   23.6133 C   0  0  0  0  0  0  0  0  0  0  0  0
  -24.9156  -28.3892   26.1622 C   0  0  0  0  0  0  0  0  0  0  0  0
  -28.0596  -28.2696   27.4841 C   0  0  0  0  0  0  0  0  0  0  0  0
  -27.5835  -21.4728   18.0883 C   0  0  0  0  0  0  0  0  0  0  0  0
  -17.9684  -27.3830   22.7622 C   0  0  0  0  0  0  0  0  0  0  0  0
  -24.1578  -25.6478   23.8118 C   0  0  0  0  0  0  0  0  0  0  0  0
  -26.0514  -27.9144   23.9599 C   0  0  0  0  0  0  0  0  0  0  0  0
  -18.8358  -28.0701   23.8137 C   0  0  0  0  0  0  0  0  0  0  0  0
  -24.2827  -21.4750   19.4230 C   0  0  0  0  0  0  0  0  0  0  0  0
  -19.9287  -28.8985   23.1459 C   0  0  0  0  0  0  0  0  0  0  0  0
  -24.2025  -20.1611   20.2024 C   0  0  0  0  0  0  0  0  0  0  0  0
  -25.1114  -21.3257   18.1491 C   0  0  0  0  0  0  0  0  0  0  0  0
  -26.3822  -19.4559   19.1301 C   0  0  0  0  0  0  0  0  0  0  0  0
  -20.8619  -28.0115   22.3129 C   0  0  1  0  0  0  0  0  0  0  0  0
  -23.7878  -26.9600   24.4963 C   0  0  1  0  0  0  0  0  0  0  0  0
  -25.6033  -19.5705   20.4516 C   0  0  2  0  0  0  0  0  0  0  0  0
  -31.7983  -25.1367   22.2398 C   0  0  0  0  0  0  0  0  0  0  0  0
  -31.1490  -20.4673   20.6424 C   0  0  0  0  0  0  0  0  0  0  0  0
  -29.3374  -28.7979   29.5783 C   0  0  0  0  0  0  0  0  0  0  0  0
  -24.8172  -31.3592   25.4700 C   0  0  0  0  0  0  0  0  0  0  0  0
  -26.8071  -31.6989   26.9509 C   0  0  0  0  0  0  0  0  0  0  0  0
  -24.6676  -30.8522   27.9144 C   0  0  0  0  0  0  0  0  0  0  0  0
  -28.8659  -25.4447   27.8434 C   0  0  0  0  0  0  0  0  0  0  0  0
  -30.7133  -26.1676   19.7100 C   0  0  0  0  0  0  0  0  0  0  0  0
  -30.0651  -21.4825   18.1153 C   0  0  0  0  0  0  0  0  0  0  0  0
  -29.5189  -26.7853   20.4289 C   0  0  0  0  0  0  0  0  0  1  0  0
  -26.0620  -29.3252   26.4597 C   0  0  1  0  0  0  0  0  0  0  0  0
  -28.5767  -27.7313   28.8060 C   0  0  2  0  0  0  0  0  0  0  0  0
  -25.5895  -30.7905   26.6771 C   0  0  0  0  0  0  0  0  0  0  0  0
  -25.4899  -17.1070   20.4732 N   0  0  0  0  0  0  0  0  0  0  0  0
  -25.5293  -18.2451   21.1868 N   0  0  0  0  0  0  0  0  0  0  0  0
  -24.9608  -27.7217   24.9300 N   0  0  0  0  0  0  0  0  0  0  0  0
  -26.4286  -20.7623   18.4548 N   0  0  0  0  0  0  0  0  0  0  0  0
  -25.5289  -19.0873   23.4007 N   0  0  0  0  0  0  0  0  0  0  0  0
  -25.3125  -14.6146   23.9875 N   0  0  0  0  0  0  0  0  0  0  0  0
  -21.7930  -27.3111   23.1714 N   0  0  0  0  0  0  0  0  0  0  0  0
  -26.7727  -28.7515   27.5973 N   0  0  0  0  0  0  0  0  0  0  0  0
  -28.7909  -20.8710   18.4208 N   0  0  0  0  0  0  0  0  0  0  0  0
  -29.4909  -26.5776   28.5734 N   0  3  0  0  0  0  0  0  0  0  0  0
  -25.3693  -16.6343   25.0721 O   0  0  0  0  0  0  0  0  0  0  0  0
  -23.3973  -28.9890   23.3534 O   0  0  0  0  0  0  0  0  0  0  0  0
  -24.0168  -28.2497   26.9955 O   0  0  0  0  0  0  0  0  0  0  0  0
  -28.7315  -28.2664   26.4551 O   0  0  0  0  0  0  0  0  0  0  0  0
  -27.5416  -22.5654   17.5125 O   0  0  0  0  0  0  0  0  0  0  0  0
  -25.2102  -10.7660   19.9610 O   0  0  0  0  0  0  0  0  0  0  0  0
  -28.3155  -26.1514   19.9971 O   0  0  0  0  0  0  0  0  0  1  0  0
  -21.5578   -7.5573   22.5626 F   0  0  0  0  0  0  0  0  0  0  0  0
  -25.3192  -10.4274   22.7026 F   0  0  0  0  0  0  0  0  0  0  0  0
  1  2  1  0  0  0  0
  1  5  2  0  0  0  0
  2  6  2  0  0  0  0
  3  8  2  0  0  0  0
  3 17  1  0  0  0  0
  4  9  1  0  0  0  0
  4 17  2  0  0  0  0
  5 19  1  0  0  0  0
  6 21  1  0  0  0  0
  7 10  2  0  0  0  0
  7 20  1  0  0  0  0
  8 27  1  0  0  0  0
  9 27  2  0  0  0  0
 10 28  1  0  0  0  0
 11 12  2  0  0  0  0
 11 29  1  0  0  0  0
 12 30  1  0  0  0  0
 13 22  1  0  0  0  0
 13 28  2  0  0  0  0
 14 23  1  0  0  0  0
 14 24  2  0  0  0  0
 15 25  1  0  0  0  0
 15 26  2  0  0  0  0
 16 30  2  0  0  0  0
 16 31  1  0  0  0  0
 17 32  1  0  0  0  0
 18 32  1  0  0  0  0
 18 33  2  0  0  0  0
 18 34  1  0  0  0  0
 19 21  2  0  0  0  0
 19 39  1  0  0  0  0
 20 22  2  0  0  0  0
 20 40  1  0  0  0  0
 21 48  1  0  0  0  0
 22 41  1  0  0  0  0
 23 25  2  0  0  0  0
 23 51  1  0  0  0  0
 24 26  1  0  0  0  0
 24 52  1  0  0  0  0
 25 58  1  0  0  0  0
 26 59  1  0  0  0  0
 27 79  1  0  0  0  0
 28 80  1  0  0  0  0
 29 31  2  0  0  0  0
 29 79  1  0  0  0  0
 30 81  1  0  0  0  0
 31 82  1  0  0  0  0
 32 64  2  0  0  0  0
 33 65  1  0  0  0  0
 33 68  1  0  0  0  0
 34 69  1  0  0  0  0
 34 74  2  0  0  0  0
 35 49  1  0  0  0  0
 35 70  1  0  0  0  0
 35 75  2  0  0  0  0
 36 61  1  0  0  0  0
 36 66  1  0  0  0  0
 36 76  2  0  0  0  0
 37 62  1  0  0  0  0
 37 71  1  0  0  0  0
 37 77  2  0  0  0  0
 38 67  1  0  0  0  0
 38 72  1  0  0  0  0
 38 78  2  0  0  0  0
 39 42  1  0  0  0  0
 40 49  1  0  0  0  0
 41 66  1  0  0  0  0
 42 44  1  0  0  0  0
 43 45  1  0  0  0  0
 43 46  1  0  0  0  0
 44 48  1  0  0  0  0
 45 50  1  0  0  0  0
 46 67  1  0  0  0  0
 47 50  1  0  0  0  0
 47 67  1  0  0  0  0
 48 70  1  0  0  0  0
 49 66  1  0  0  0  0
 50 65  1  0  0  0  0
 53 62  1  0  0  0  0
 54 63  1  0  0  0  0
 55 63  1  0  0  0  0
 56 63  1  0  0  0  0
 57 73  1  0  0  0  0
 58 60  1  0  0  0  0
 59 72  1  0  0  0  0
 60 80  1  0  0  0  0
 61 63  1  0  0  0  0
 61 71  1  0  0  0  0
 62 73  1  0  0  0  0
 64 65  1  0  0  0  0
M  CHG  1  73   1
M  ISO  4  38 100  60 101  72 100  80 101
M  END
> <Batch ID>
0029

> <Smiles>
CNC(C)C(=O)NC(C(=O)N1Cc2cc([101O:1][101CH2:1]Cc3cc(C[100NH:0][100C:0](=O)N4CCCC(n5nc(-c6ccc(Oc7ccc(F)cc7F)cc6)c(C(N)=O)c5N)C4)c(C)cc3C)ccc2CC1C(=O)NC1CCCc2ccccc21)C(C)(C)C

> <Shape>
0.209

> <Color>
0.089

> <Negative vol penalty>
0.000

$$$$

  -OEChem-04052316363D

 82 90  0     1  0  0  0  0  0999 V2000
  -28.0372  -20.7217   27.1523 C   0  0  0  0  0  0  0  0  0  0  0  0
  -28.2132  -21.3640   25.9308 C   0  0  0  0  0  0  0  0  0  0  0  0
  -22.5175  -13.0246   20.3823 C   0  0  0  0  0  0  0  0  0  0  0  0
  -22.6750  -14.1823   22.4970 C   0  0  0  0  0  0  0  0  0  0  0  0
  -26.7570  -20.5802   27.6861 C   0  0  0  0  0  0  0  0  0  0  0  0
  -27.1088  -21.8642   25.2420 C   0  0  0  0  0  0  0  0  0  0  0  0
  -27.9016  -26.5227   23.4212 C   0  0  0  0  0  0  0  0  0  0  0  0
  -21.7690  -12.0166   20.9899 C   0  0  0  0  0  0  0  0  0  0  0  0
  -21.9264  -13.1743   23.1046 C   0  0  0  0  0  0  0  0  0  0  0  0
  -28.6658  -26.6310   22.2601 C   0  0  0  0  0  0  0  0  0  0  0  0
  -20.1216   -8.9571   22.0620 C   0  0  0  0  0  0  0  0  0  0  0  0
  -20.4493   -7.6345   21.7638 C   0  0  0  0  0  0  0  0  0  0  0  0
  -26.6472  -26.8672   20.9607 C   0  0  0  0  0  0  0  0  0  0  0  0
  -29.9443  -21.3443   18.9029 C   0  0  0  0  0  0  0  0  0  0  0  0
  -28.0658  -23.3635   19.3233 C   0  0  0  0  0  0  0  0  0  0  0  0
  -22.6737   -7.9886   22.6378 C   0  0  0  0  0  0  0  0  0  0  0  0
  -22.9706  -14.1075   21.1359 C   0  0  0  0  0  0  0  0  0  0  0  0
  -23.2570  -16.3223   19.9030 C   0  0  0  0  0  0  0  0  0  0  0  0
  -25.6374  -21.0875   27.0081 C   0  0  0  0  0  0  0  0  0  0  0  0
  -26.5017  -26.5750   23.3593 C   0  0  0  0  0  0  0  0  0  0  0  0
  -25.8123  -21.7282   25.7666 C   0  0  0  0  0  0  0  0  0  0  0  0
  -25.8676  -26.7619   22.1227 C   0  0  0  0  0  0  0  0  0  0  0  0
  -30.0914  -22.5771   18.2671 C   0  0  0  0  0  0  0  0  0  0  0  0
  -29.1522  -23.5867   18.4773 C   0  0  0  0  0  0  0  0  0  0  0  0
  -28.8579  -21.1211   19.7488 C   0  0  0  0  0  0  0  0  0  0  0  0
  -21.4734  -12.0914   22.3510 C   0  0  0  0  0  0  0  0  0  0  0  0
  -28.0385  -26.8003   21.0293 C   0  0  0  0  0  0  0  0  0  0  0  0
  -21.0700   -9.7955   22.6480 C   0  0  0  0  0  0  0  0  0  0  0  0
  -21.7253   -7.1502   22.0517 C   0  0  0  0  0  0  0  0  0  0  0  0
  -22.3460   -9.3112   22.9360 C   0  0  0  0  0  0  0  0  0  0  0  0
  -27.9186  -22.1307   19.9590 C   0  0  0  0  0  0  0  0  0  0  0  0
  -23.7443  -15.1488   20.5089 C   0  0  0  0  0  0  0  0  0  0  0  0
  -24.3829  -16.9745   19.4630 C   0  0  0  0  0  0  0  0  0  0  0  0
  -21.9074  -16.7818   19.7514 C   0  0  0  0  0  0  0  0  0  0  0  0
  -24.1477  -24.5657   24.0842 C   0  0  0  0  0  0  0  0  0  0  0  0
  -22.2758  -27.1215   23.3868 C   0  0  0  0  0  0  0  0  0  0  0  0
  -21.9175  -30.0849   21.7325 C   0  0  0  0  0  0  0  0  0  0  0  0
  -29.5958  -18.7654   20.2514 C   0  0  0  0  0  0  0  0  0  0  0  0
  -24.2684  -20.8688   27.6021 C   0  0  0  0  0  0  0  0  0  0  0  0
  -25.6927  -26.4834   24.6241 C   0  0  0  0  0  0  0  0  0  0  0  0
  -24.3684  -26.8448   22.0048 C   0  0  0  0  0  0  0  0  0  0  0  0
  -23.1894  -21.7578   26.9891 C   0  0  0  0  0  0  0  0  0  0  0  0
  -29.1851  -15.4065   19.1441 C   0  0  0  0  0  0  0  0  0  0  0  0
  -23.2912  -21.7487   25.4672 C   0  0  0  0  0  0  0  0  0  0  0  0
  -27.6929  -15.1365   19.3506 C   0  0  0  0  0  0  0  0  0  0  0  0
  -29.7611  -16.2859   20.2525 C   0  0  0  0  0  0  0  0  0  0  0  0
  -27.5473  -17.2736   20.6918 C   0  0  0  0  0  0  0  0  0  0  0  0
  -24.6417  -22.3061   25.0012 C   0  0  1  0  0  0  0  0  0  0  0  0
  -24.2548  -26.0345   24.3824 C   0  0  1  0  0  0  0  0  0  0  0  0
  -26.9079  -16.4454   19.5653 C   0  0  2  0  0  0  0  0  0  0  0  0
  -31.2608  -22.7914   17.3630 C   0  0  0  0  0  0  0  0  0  0  0  0
  -20.2613  -31.9255   21.3245 C   0  0  0  0  0  0  0  0  0  0  0  0
  -20.7574  -25.3217   21.4463 C   0  0  0  0  0  0  0  0  0  0  0  0
  -19.7866  -27.3811   20.4050 C   0  0  0  0  0  0  0  0  0  0  0  0
  -19.3130  -26.8530   22.7966 C   0  0  0  0  0  0  0  0  0  0  0  0
  -23.6937  -32.1119   22.9554 C   0  0  0  0  0  0  0  0  0  0  0  0
  -29.2900  -24.9272   17.8008 C   0  0  0  0  0  0  0  0  0  0  0  0
  -30.3516  -25.8299   18.4330 C   0  0  0  0  0  0  0  0  0  0  0  0
  -30.0333  -26.2200   19.8717 C   0  0  0  0  0  0  0  0  0  1  0  0
  -21.6181  -27.6557   22.1374 C   0  0  1  0  0  0  0  0  0  0  0  0
  -21.4121  -31.4405   22.1923 C   0  0  2  0  0  0  0  0  0  0  0  0
  -20.3970  -26.7994   21.6980 C   0  0  0  0  0  0  0  0  0  0  0  0
  -25.0760  -15.0579   20.4600 N   0  0  0  0  0  0  0  0  0  0  0  0
  -25.4351  -16.1827   19.8180 N   0  0  0  0  0  0  0  0  0  0  0  0
  -23.6208  -26.7436   23.2691 N   0  0  0  0  0  0  0  0  0  0  0  0
  -28.9691  -17.5095   20.3956 N   0  0  0  0  0  0  0  0  0  0  0  0
  -24.5656  -18.1423   18.8109 N   0  0  0  0  0  0  0  0  0  0  0  0
  -20.8704  -15.9890   20.2618 N   0  0  0  0  0  0  0  0  0  0  0  0
  -28.7362  -19.8564   20.3761 N   0  0  0  0  0  0  0  0  0  0  0  0
  -24.6471  -23.7510   25.0824 N   0  0  0  0  0  0  0  0  0  0  0  0
  -21.3009  -29.0536   22.4089 N   0  0  0  0  0  0  0  0  0  0  0  0
  -22.5065  -32.4501   22.1289 N   0  3  0  0  0  0  0  0  0  0  0  0
  -21.6281  -17.8554   19.1658 O   0  0  0  0  0  0  0  0  0  0  0  0
  -23.6476  -24.1987   23.0273 O   0  0  0  0  0  0  0  0  0  0  0  0
  -21.6223  -27.0490   24.4305 O   0  0  0  0  0  0  0  0  0  0  0  0
  -22.7711  -29.9538   20.8580 O   0  0  0  0  0  0  0  0  0  0  0  0
  -30.8007  -18.8650   20.0062 O   0  0  0  0  0  0  0  0  0  0  0  0
  -20.7428  -11.1081   22.9442 O   0  0  0  0  0  0  0  0  0  0  0  0
  -28.7820  -26.9057   19.8944 O   0  0  0  0  0  0  0  0  0  1  0  0
  -22.0394   -5.8797   21.7667 F   0  0  0  0  0  0  0  0  0  0  0  0
  -23.2609  -10.1116   23.5000 F   0  0  0  0  0  0  0  0  0  0  0  0
  -26.5587  -21.8968   20.9990 Cl  0  0  0  0  0  0  0  0  0  0  0  0
  1  2  1  0  0  0  0
  1  5  2  0  0  0  0
  2  6  2  0  0  0  0
  3  8  2  0  0  0  0
  3 17  1  0  0  0  0
  4  9  1  0  0  0  0
  4 17  2  0  0  0  0
  5 19  1  0  0  0  0
  6 21  1  0  0  0  0
  7 10  2  0  0  0  0
  7 20  1  0  0  0  0
  8 26  1  0  0  0  0
  9 26  2  0  0  0  0
 10 27  1  0  0  0  0
 11 12  2  0  0  0  0
 11 28  1  0  0  0  0
 12 29  1  0  0  0  0
 13 22  1  0  0  0  0
 13 27  2  0  0  0  0
 14 23  1  0  0  0  0
 14 25  2  0  0  0  0
 15 24  1  0  0  0  0
 15 31  2  0  0  0  0
 16 29  2  0  0  0  0
 16 30  1  0  0  0  0
 17 32  1  0  0  0  0
 18 32  1  0  0  0  0
 18 33  2  0  0  0  0
 18 34  1  0  0  0  0
 19 21  2  0  0  0  0
 19 39  1  0  0  0  0
 20 22  2  0  0  0  0
 20 40  1  0  0  0  0
 21 48  1  0  0  0  0
 22 41  1  0  0  0  0
 23 24  2  0  0  0  0
 23 51  1  0  0  0  0
 24 57  1  0  0  0  0
 25 31  1  0  0  0  0
 25 69  1  0  0  0  0
 26 78  1  0  0  0  0
 27 79  1  0  0  0  0
 28 30  2  0  0  0  0
 28 78  1  0  0  0  0
 29 80  1  0  0  0  0
 30 81  1  0  0  0  0
 31 82  1  0  0  0  0
 32 63  2  0  0  0  0
 33 64  1  0  0  0  0
 33 67  1  0  0  0  0
 34 68  1  0  0  0  0
 34 73  2  0  0  0  0
 35 49  1  0  0  0  0
 35 70  1  0  0  0  0
 35 74  2  0  0  0  0
 36 60  1  0  0  0  0
 36 65  1  0  0  0  0
 36 75  2  0  0  0  0
 37 61  1  0  0  0  0
 37 71  1  0  0  0  0
 37 76  2  0  0  0  0
 38 66  1  0  0  0  0
 38 69  1  0  0  0  0
 38 77  2  0  0  0  0
 39 42  1  0  0  0  0
 40 49  1  0  0  0  0
 41 65  1  0  0  0  0
 42 44  1  0  0  0  0
 43 45  1  0  0  0  0
 43 46  1  0  0  0  0
 44 48  1  0  0  0  0
 45 50  1  0  0  0  0
 46 66  1  0  0  0  0
 47 50  1  0  0  0  0
 47 66  1  0  0  0  0
 48 70  1  0  0  0  0
 49 65  1  0  0  0  0
 50 64  1  0  0  0  0
 52 61  1  0  0  0  0
 53 62  1  0  0  0  0
 54 62  1  0  0  0  0
 55 62  1  0  0  0  0
 56 72  1  0  0  0  0
 57 58  1  0  0  0  0
 58 59  1  0  0  0  0
 59 79  1  0  0  0  0
 60 62  1  0  0  0  0
 60 71  1  0  0  0  0
 61 72  1  0  0  0  0
 63 64  1  0  0  0  0
M  CHG  1  72   1
M  ISO  4  38 100  59 101  69 100  79 101
M  END
> <Batch ID>
0029

> <Smiles>
CNC(C)C(=O)NC(C(=O)N1Cc2cc([101O:1][101CH2:1]CCc3cc(Cl)c([100NH:0][100C:0](=O)N4CCCC(n5nc(-c6ccc(Oc7ccc(F)cc7F)cc6)c(C(N)=O)c5N)C4)cc3C)ccc2CC1C(=O)NC1CCCc2ccccc21)C(C)(C)C

> <Shape>
0.222

> <Color>
0.055

> <Negative vol penalty>
0.000

$$$$

  -OEChem-04052316363D

 83 91  0     1  0  0  0  0  0999 V2000
  -31.2000  -16.3516   15.7686 C   0  0  0  0  0  0  0  0  0  0  0  0
  -30.8687  -16.8905   17.0077 C   0  0  0  0  0  0  0  0  0  0  0  0
  -23.0488   -9.8287   20.0515 C   0  0  0  0  0  0  0  0  0  0  0  0
  -23.7737   -9.9695   22.3519 C   0  0  0  0  0  0  0  0  0  0  0  0
  -31.8879  -17.1253   14.8347 C   0  0  0  0  0  0  0  0  0  0  0  0
  -31.2260  -18.2032   17.3139 C   0  0  0  0  0  0  0  0  0  0  0  0
  -27.4593  -20.7804   19.5081 C   0  0  0  0  0  0  0  0  0  0  0  0
  -22.2813   -8.7062   20.3620 C   0  0  0  0  0  0  0  0  0  0  0  0
  -23.0062   -8.8469   22.6624 C   0  0  0  0  0  0  0  0  0  0  0  0
  -27.2242  -20.5366   20.8605 C   0  0  0  0  0  0  0  0  0  0  0  0
  -19.2980   -8.0521   21.8127 C   0  0  0  0  0  0  0  0  0  0  0  0
  -17.9980   -7.9964   21.3101 C   0  0  0  0  0  0  0  0  0  0  0  0
  -28.4334  -22.5456   21.4268 C   0  0  0  0  0  0  0  0  0  0  0  0
  -18.5440   -5.9641   20.1231 C   0  0  0  0  0  0  0  0  0  0  0  0
  -23.7951  -10.4604   21.0465 C   0  0  0  0  0  0  0  0  0  0  0  0
  -24.1825  -12.9668   20.7720 C   0  0  0  0  0  0  0  0  0  0  0  0
  -32.2453  -18.4512   15.1260 C   0  0  0  0  0  0  0  0  0  0  0  0
  -28.1938  -21.9048   19.1048 C   0  0  0  0  0  0  0  0  0  0  0  0
  -31.9205  -18.9948   16.3835 C   0  0  0  0  0  0  0  0  0  0  0  0
  -28.6742  -22.8029   20.0685 C   0  0  0  0  0  0  0  0  0  0  0  0
  -29.7911  -17.4641   24.5560 C   0  0  0  0  0  0  0  0  0  0  0  0
  -22.2600   -8.2153   21.6674 C   0  0  0  0  0  0  0  0  0  0  0  0
  -27.7138  -21.4177   21.8202 C   0  0  0  0  0  0  0  0  0  0  0  0
  -20.2210   -7.0638   21.4704 C   0  0  0  0  0  0  0  0  0  0  0  0
  -17.6210   -6.9524   20.4654 C   0  0  0  0  0  0  0  0  0  0  0  0
  -19.8440   -6.0198   20.6257 C   0  0  0  0  0  0  0  0  0  0  0  0
  -24.5886  -11.6197   20.7262 C   0  0  0  0  0  0  0  0  0  0  0  0
  -30.0003  -18.8050   24.7677 C   0  0  0  0  0  0  0  0  0  0  0  0
  -28.4016  -17.2965   24.7077 C   0  0  0  0  0  0  0  0  0  0  0  0
  -25.2929  -13.6736   20.3797 C   0  0  0  0  0  0  0  0  0  0  0  0
  -22.9149  -13.5290   21.1366 C   0  0  0  0  0  0  0  0  0  0  0  0
  -30.9281  -22.3580   17.5485 C   0  0  0  0  0  0  0  0  0  0  0  0
  -30.0481  -25.4763   17.7034 C   0  0  0  0  0  0  0  0  0  0  0  0
  -28.2364  -27.9005   19.2807 C   0  0  0  0  0  0  0  0  0  0  0  0
  -30.7900  -14.6128   20.5924 C   0  0  0  0  0  0  0  0  0  0  0  0
  -33.0299  -19.2331   14.1024 C   0  0  0  0  0  0  0  0  0  0  0  0
  -28.4158  -22.1680   17.6406 C   0  0  0  0  0  0  0  0  0  0  0  0
  -29.4511  -24.0354   19.6865 C   0  0  0  0  0  0  0  0  0  0  0  0
  -33.0424  -20.7371   14.3635 C   0  0  0  0  0  0  0  0  0  0  0  0
  -29.6477  -12.0999   18.3436 C   0  0  0  0  0  0  0  0  0  0  0  0
  -33.3461  -21.0217   15.8310 C   0  0  0  0  0  0  0  0  0  0  0  0
  -28.1989  -11.8580   18.7708 C   0  0  0  0  0  0  0  0  0  0  0  0
  -30.5501  -12.3818   19.5428 C   0  0  0  0  0  0  0  0  0  0  0  0
  -28.6404  -13.2308   20.8490 C   0  0  0  0  0  0  0  0  0  0  0  0
  -32.2689  -20.4228   16.7435 C   0  0  1  0  0  0  0  0  0  0  0  0
  -29.6167  -23.0695   17.3709 C   0  0  1  0  0  0  0  0  0  0  0  0
  -27.6814  -12.9975   19.6691 C   0  0  2  0  0  0  0  0  0  0  0  0
  -31.2347  -19.6125   24.7492 C   0  0  0  0  0  0  0  0  0  0  0  0
  -27.7487  -30.3608   19.2014 C   0  0  0  0  0  0  0  0  0  0  0  0
  -32.7745  -26.0543   18.9455 C   0  0  0  0  0  0  0  0  0  0  0  0
  -31.8835  -28.2690   19.7002 C   0  0  0  0  0  0  0  0  0  0  0  0
  -32.0144  -27.7435   17.2652 C   0  0  0  0  0  0  0  0  0  0  0  0
  -25.3522  -27.4316   18.8109 C   0  0  0  0  0  0  0  0  0  0  0  0
  -30.8030  -16.4397   24.2399 C   0  0  0  0  0  0  0  0  0  0  0  0
  -31.6694  -16.7378   22.9914 C   0  0  0  0  0  0  0  0  0  0  0  0
  -28.4517  -20.7836   25.3184 C   0  0  0  0  0  0  0  0  0  0  0  0
  -30.8743  -16.8365   21.6912 C   0  0  0  0  0  0  0  0  0  0  0  0
  -28.4699  -21.6490   24.0631 C   0  0  0  0  0  0  0  0  0  1  0  0
  -30.2643  -26.6006   18.6875 C   0  0  1  0  0  0  0  0  0  0  0  0
  -27.3124  -28.9781   18.7426 C   0  0  2  0  0  0  0  0  0  0  0  0
  -31.7213  -27.1427   18.6572 C   0  0  0  0  0  0  0  0  0  0  0  0
  -25.8578  -11.4767   20.3355 N   0  0  0  0  0  0  0  0  0  0  0  0
  -27.7725  -18.4395   24.9939 N   0  0  0  0  0  0  0  0  0  0  0  0
  -28.7713  -19.3381   25.0238 N   0  0  0  0  0  0  0  0  0  0  0  0
  -26.2588  -12.7431   20.1322 N   0  0  0  0  0  0  0  0  0  0  0  0
  -29.6475  -24.2457   18.2427 N   0  0  0  0  0  0  0  0  0  0  0  0
  -30.0040  -13.4736   20.3526 N   0  0  0  0  0  0  0  0  0  0  0  0
  -25.5275  -14.9941   20.2258 N   0  0  0  0  0  0  0  0  0  0  0  0
  -21.8823  -12.6598   21.5143 N   0  0  0  0  0  0  0  0  0  0  0  0
  -31.0823  -21.2512   16.7357 N   0  0  0  0  0  0  0  0  0  0  0  0
  -29.2473  -27.6036   18.3912 N   0  0  0  0  0  0  0  0  0  0  0  0
  -30.1943  -15.6031   21.3639 N   0  0  0  0  0  0  0  0  0  0  0  0
  -25.9171  -28.7457   19.2118 N   0  3  0  0  0  0  0  0  0  0  0  0
  -22.6992  -14.7645   21.1118 O   0  0  0  0  0  0  0  0  0  0  0  0
  -31.7406  -22.7826   18.3616 O   0  0  0  0  0  0  0  0  0  0  0  0
  -30.2212  -25.6844   16.4999 O   0  0  0  0  0  0  0  0  0  0  0  0
  -28.0794  -27.3772   20.3816 O   0  0  0  0  0  0  0  0  0  0  0  0
  -31.9356  -14.7404   20.1471 O   0  0  0  0  0  0  0  0  0  0  0  0
  -21.5110   -7.1201   21.9708 O   0  0  0  0  0  0  0  0  0  0  0  0
  -27.4863  -21.1816   23.1410 O   0  0  0  0  0  0  0  0  0  1  0  0
  -16.3722   -6.8982   19.9840 F   0  0  0  0  0  0  0  0  0  0  0  0
  -20.7260   -5.0668   20.2943 F   0  0  0  0  0  0  0  0  0  0  0  0
  -27.5378  -15.8439   24.5629 Cl  0  0  0  0  0  0  0  0  0  0  0  0
  1  2  1  0  0  0  0
  1  5  2  0  0  0  0
  2  6  2  0  0  0  0
  3  8  2  0  0  0  0
  3 15  1  0  0  0  0
  4  9  1  0  0  0  0
  4 15  2  0  0  0  0
  5 17  1  0  0  0  0
  6 19  1  0  0  0  0
  7 10  2  0  0  0  0
  7 18  1  0  0  0  0
  8 22  1  0  0  0  0
  9 22  2  0  0  0  0
 10 23  1  0  0  0  0
 11 12  2  0  0  0  0
 11 24  1  0  0  0  0
 12 25  1  0  0  0  0
 13 20  1  0  0  0  0
 13 23  2  0  0  0  0
 14 25  2  0  0  0  0
 14 26  1  0  0  0  0
 15 27  1  0  0  0  0
 16 27  1  0  0  0  0
 16 30  2  0  0  0  0
 16 31  1  0  0  0  0
 17 19  2  0  0  0  0
 17 36  1  0  0  0  0
 18 20  2  0  0  0  0
 18 37  1  0  0  0  0
 19 45  1  0  0  0  0
 20 38  1  0  0  0  0
 21 28  2  0  0  0  0
 21 29  1  0  0  0  0
 21 54  1  0  0  0  0
 22 79  1  0  0  0  0
 23 80  1  0  0  0  0
 24 26  2  0  0  0  0
 24 79  1  0  0  0  0
 25 81  1  0  0  0  0
 26 82  1  0  0  0  0
 27 62  2  0  0  0  0
 28 48  1  0  0  0  0
 28 64  1  0  0  0  0
 29 63  2  0  0  0  0
 29 83  1  0  0  0  0
 30 65  1  0  0  0  0
 30 68  1  0  0  0  0
 31 69  1  0  0  0  0
 31 74  2  0  0  0  0
 32 46  1  0  0  0  0
 32 70  1  0  0  0  0
 32 75  2  0  0  0  0
 33 59  1  0  0  0  0
 33 66  1  0  0  0  0
 33 76  2  0  0  0  0
 34 60  1  0  0  0  0
 34 71  1  0  0  0  0
 34 77  2  0  0  0  0
 35 67  1  0  0  0  0
 35 72  1  0  0  0  0
 35 78  2  0  0  0  0
 36 39  1  0  0  0  0
 37 46  1  0  0  0  0
 38 66  1  0  0  0  0
 39 41  1  0  0  0  0
 40 42  1  0  0  0  0
 40 43  1  0  0  0  0
 41 45  1  0  0  0  0
 42 47  1  0  0  0  0
 43 67  1  0  0  0  0
 44 47  1  0  0  0  0
 44 67  1  0  0  0  0
 45 70  1  0  0  0  0
 46 66  1  0  0  0  0
 47 65  1  0  0  0  0
 49 60  1  0  0  0  0
 50 61  1  0  0  0  0
 51 61  1  0  0  0  0
 52 61  1  0  0  0  0
 53 73  1  0  0  0  0
 54 55  1  0  0  0  0
 55 57  1  0  0  0  0
 56 58  1  0  0  0  0
 56 64  1  0  0  0  0
 57 72  1  0  0  0  0
 58 80  1  0  0  0  0
 59 61  1  0  0  0  0
 59 71  1  0  0  0  0
 60 73  1  0  0  0  0
 62 65  1  0  0  0  0
 63 64  1  0  0  0  0
M  CHG  1  73   1
M  ISO  4  35 100  58 101  72 100  80 101
M  END
> <Batch ID>
0029

> <Smiles>
CNC(C)C(=O)NC(C(=O)N1Cc2cc([101O:1][101CH2:1]Cn3nc(Cl)c(CCC[100NH:0][100C:0](=O)N4CCCC(n5nc(-c6ccc(Oc7ccc(F)cc7F)cc6)c(C(N)=O)c5N)C4)c3C)ccc2CC1C(=O)NC1CCCc2ccccc21)C(C)(C)C

> <Shape>
0.255

> <Color>
0.203

> <Negative vol penalty>
0.000

$$$$

  -OEChem-04052316363D

 86 94  0     1  0  0  0  0  0999 V2000
  -26.2771  -33.1329   18.4212 C   0  0  0  0  0  0  0  0  0  0  0  0
  -26.8781  -31.9807   18.9181 C   0  0  0  0  0  0  0  0  0  0  0  0
  -23.1004   -9.8381   19.9341 C   0  0  0  0  0  0  0  0  0  0  0  0
  -23.8693   -9.8465   22.2244 C   0  0  0  0  0  0  0  0  0  0  0  0
  -25.3944  -33.0488   17.3453 C   0  0  0  0  0  0  0  0  0  0  0  0
  -26.5958  -30.7436   18.3399 C   0  0  0  0  0  0  0  0  0  0  0  0
  -30.4440  -26.0259   17.6767 C   0  0  0  0  0  0  0  0  0  0  0  0
  -22.3815   -8.6683   20.1797 C   0  0  0  0  0  0  0  0  0  0  0  0
  -23.1503   -8.6767   22.4701 C   0  0  0  0  0  0  0  0  0  0  0  0
  -30.6365  -24.8610   18.4182 C   0  0  0  0  0  0  0  0  0  0  0  0
  -19.9418   -7.8086   23.0803 C   0  0  0  0  0  0  0  0  0  0  0  0
  -19.1906   -7.7458   24.2538 C   0  0  0  0  0  0  0  0  0  0  0  0
  -29.1947  -23.6633   16.8997 C   0  0  0  0  0  0  0  0  0  0  0  0
  -29.1458  -18.7538   21.0192 C   0  0  0  0  0  0  0  0  0  0  0  0
  -31.3595  -18.5642   20.0701 C   0  0  0  0  0  0  0  0  0  0  0  0
  -20.4747   -5.8299   24.9732 C   0  0  0  0  0  0  0  0  0  0  0  0
  -23.8443  -10.4272   20.9564 C   0  0  0  0  0  0  0  0  0  0  0  0
  -24.1335  -12.9595   20.8510 C   0  0  0  0  0  0  0  0  0  0  0  0
  -25.1085  -31.8112   16.7474 C   0  0  0  0  0  0  0  0  0  0  0  0
  -29.6153  -26.0207   16.5455 C   0  0  0  0  0  0  0  0  0  0  0  0
  -25.7074  -30.6427   17.2558 C   0  0  0  0  0  0  0  0  0  0  0  0
  -28.9953  -24.8288   16.1441 C   0  0  0  0  0  0  0  0  0  0  0  0
  -30.3944  -18.1331   20.9803 C   0  0  0  0  0  0  0  0  0  0  0  0
  -28.8623  -19.8054   20.1477 C   0  0  0  0  0  0  0  0  0  0  0  0
  -31.0760  -19.6158   19.1987 C   0  0  0  0  0  0  0  0  0  0  0  0
  -29.8274  -20.2365   19.2375 C   0  0  0  0  0  0  0  0  0  0  0  0
  -22.4064   -8.0876   21.4477 C   0  0  0  0  0  0  0  0  0  0  0  0
  -30.0095  -23.6802   18.0315 C   0  0  0  0  0  0  0  0  0  0  0  0
  -20.9594   -6.8820   22.8530 C   0  0  0  0  0  0  0  0  0  0  0  0
  -19.4571   -6.7564   25.2003 C   0  0  0  0  0  0  0  0  0  0  0  0
  -21.2259   -5.8927   23.7995 C   0  0  0  0  0  0  0  0  0  0  0  0
  -24.5876  -11.6353   20.7032 C   0  0  0  0  0  0  0  0  0  0  0  0
  -25.2085  -13.7337   20.4881 C   0  0  0  0  0  0  0  0  0  0  0  0
  -22.8544  -13.4464   21.2781 C   0  0  0  0  0  0  0  0  0  0  0  0
  -26.9286  -27.5087   15.7262 C   0  0  0  0  0  0  0  0  0  0  0  0
  -27.4643  -26.0727   12.8674 C   0  0  0  0  0  0  0  0  0  0  0  0
  -28.9288  -23.5228   11.1353 C   0  0  0  0  0  0  0  0  0  0  0  0
  -30.6707  -14.8646   20.6613 C   0  0  0  0  0  0  0  0  0  0  0  0
  -24.1114  -31.7642   15.6169 C   0  0  0  0  0  0  0  0  0  0  0  0
  -29.4392  -27.2793   15.7409 C   0  0  0  0  0  0  0  0  0  0  0  0
  -28.1121  -24.7655   14.9258 C   0  0  0  0  0  0  0  0  0  0  0  0
  -24.1543  -30.4625   14.8206 C   0  0  0  0  0  0  0  0  0  0  0  0
  -29.5729  -12.4720   18.2641 C   0  0  0  0  0  0  0  0  0  0  0  0
  -24.1888  -29.2622   15.7612 C   0  0  0  0  0  0  0  0  0  0  0  0
  -28.1436  -12.1459   18.7008 C   0  0  0  0  0  0  0  0  0  0  0  0
  -30.4902  -12.7042   19.4627 C   0  0  0  0  0  0  0  0  0  0  0  0
  -28.5794  -13.3872   20.8614 C   0  0  0  0  0  0  0  0  0  0  0  0
  -25.4455  -29.2856   16.6396 C   0  0  1  0  0  0  0  0  0  0  0  0
  -28.1644  -27.2793   14.9029 C   0  0  1  0  0  0  0  0  0  0  0  0
  -27.6042  -13.1999   19.6865 C   0  0  2  0  0  0  0  0  0  0  0  0
  -29.1563  -22.5925    8.8158 C   0  0  0  0  0  0  0  0  0  0  0  0
  -24.6340  -24.9466   13.0440 C   0  0  0  0  0  0  0  0  0  0  0  0
  -25.2469  -23.3127   11.2488 C   0  0  0  0  0  0  0  0  0  0  0  0
  -25.2929  -25.7610   10.7731 C   0  0  0  0  0  0  0  0  0  0  0  0
  -31.8661  -23.8847   11.1531 C   0  0  0  0  0  0  0  0  0  0  0  0
  -30.6972  -17.0083   21.9115 C   0  0  0  0  0  0  0  0  0  0  0  0
  -29.5223  -21.3680   18.3006 C   0  0  0  0  0  0  0  0  0  1  0  0
  -27.5180  -20.4539   20.2104 C   0  0  0  0  0  0  0  0  0  0  0  0
  -27.0818  -24.7508   12.2466 C   0  0  1  0  0  0  0  0  0  0  0  0
  -29.7588  -23.5146    9.8643 C   0  0  2  0  0  0  0  0  0  0  0  0
  -32.1267  -20.0586   18.2335 C   0  0  0  0  0  0  0  0  0  0  0  0
  -25.5789  -24.6941   11.8523 C   0  0  0  0  0  0  0  0  0  0  0  0
  -25.8525  -11.5682   20.2793 N   0  0  0  0  0  0  0  0  0  0  0  0
  -26.2023  -12.8600   20.1576 N   0  0  0  0  0  0  0  0  0  0  0  0
  -27.9660  -26.0239   14.1757 N   0  0  0  0  0  0  0  0  0  0  0  0
  -29.9221  -13.7156   20.3573 N   0  0  0  0  0  0  0  0  0  0  0  0
  -25.3911  -15.0696   20.4227 N   0  0  0  0  0  0  0  0  0  0  0  0
  -21.8628  -12.5144   21.6137 N   0  0  0  0  0  0  0  0  0  0  0  0
  -26.5978  -28.8409   15.8852 N   0  0  0  0  0  0  0  0  0  0  0  0
  -28.0002  -24.5421   11.1325 N   0  0  0  0  0  0  0  0  0  0  0  0
  -30.0560  -15.7756   21.5116 N   0  0  0  0  0  0  0  0  0  0  0  0
  -31.1459  -23.0535   10.1544 N   0  3  0  0  0  0  0  0  0  0  0  0
  -22.5930  -14.6715   21.3442 O   0  0  0  0  0  0  0  0  0  0  0  0
  -26.3194  -26.5482   16.1821 O   0  0  0  0  0  0  0  0  0  0  0  0
  -27.3299  -27.1096   12.2128 O   0  0  0  0  0  0  0  0  0  0  0  0
  -29.0858  -22.7043   12.0386 O   0  0  0  0  0  0  0  0  0  0  0  0
  -31.8010  -15.0663   20.2044 O   0  0  0  0  0  0  0  0  0  0  0  0
  -21.7049   -6.9462   21.6878 O   0  0  0  0  0  0  0  0  0  0  0  0
  -30.1952  -22.5420   18.7539 O   0  0  0  0  0  0  0  0  0  1  0  0
  -18.7367   -6.6972   26.3280 F   0  0  0  0  0  0  0  0  0  0  0  0
  -22.2030   -5.0005   23.5874 F   0  0  0  0  0  0  0  0  0  0  0  0
  -27.6327  -21.7697   20.5264 F   0  0  0  0  0  0  0  0  0  0  0  0
  -26.7561  -19.8876   21.1816 F   0  0  0  0  0  0  0  0  0  0  0  0
  -33.2878  -19.3471   18.3274 F   0  0  0  0  0  0  0  0  0  0  0  0
  -31.7457  -19.9515   16.9272 F   0  0  0  0  0  0  0  0  0  0  0  0
  -32.4800  -21.3644   18.4082 F   0  0  0  0  0  0  0  0  0  0  0  0
  1  2  1  0  0  0  0
  1  5  2  0  0  0  0
  2  6  2  0  0  0  0
  3  8  2  0  0  0  0
  3 17  1  0  0  0  0
  4  9  1  0  0  0  0
  4 17  2  0  0  0  0
  5 19  1  0  0  0  0
  6 21  1  0  0  0  0
  7 10  2  0  0  0  0
  7 20  1  0  0  0  0
  8 27  1  0  0  0  0
  9 27  2  0  0  0  0
 10 28  1  0  0  0  0
 11 12  2  0  0  0  0
 11 29  1  0  0  0  0
 12 30  1  0  0  0  0
 13 22  1  0  0  0  0
 13 28  2  0  0  0  0
 14 23  1  0  0  0  0
 14 24  2  0  0  0  0
 15 23  2  0  0  0  0
 15 25  1  0  0  0  0
 16 30  2  0  0  0  0
 16 31  1  0  0  0  0
 17 32  1  0  0  0  0
 18 32  1  0  0  0  0
 18 33  2  0  0  0  0
 18 34  1  0  0  0  0
 19 21  2  0  0  0  0
 19 39  1  0  0  0  0
 20 22  2  0  0  0  0
 20 40  1  0  0  0  0
 21 48  1  0  0  0  0
 22 41  1  0  0  0  0
 23 56  1  0  0  0  0
 24 26  1  0  0  0  0
 24 58  1  0  0  0  0
 25 26  2  0  0  0  0
 25 61  1  0  0  0  0
 26 57  1  0  0  0  0
 27 78  1  0  0  0  0
 28 79  1  0  0  0  0
 29 31  2  0  0  0  0
 29 78  1  0  0  0  0
 30 80  1  0  0  0  0
 31 81  1  0  0  0  0
 32 63  2  0  0  0  0
 33 64  1  0  0  0  0
 33 67  1  0  0  0  0
 34 68  1  0  0  0  0
 34 73  2  0  0  0  0
 35 49  1  0  0  0  0
 35 69  1  0  0  0  0
 35 74  2  0  0  0  0
 36 59  1  0  0  0  0
 36 65  1  0  0  0  0
 36 75  2  0  0  0  0
 37 60  1  0  0  0  0
 37 70  1  0  0  0  0
 37 76  2  0  0  0  0
 38 66  1  0  0  0  0
 38 71  1  0  0  0  0
 38 77  2  0  0  0  0
 39 42  1  0  0  0  0
 40 49  1  0  0  0  0
 41 65  1  0  0  0  0
 42 44  1  0  0  0  0
 43 45  1  0  0  0  0
 43 46  1  0  0  0  0
 44 48  1  0  0  0  0
 45 50  1  0  0  0  0
 46 66  1  0  0  0  0
 47 50  1  0  0  0  0
 47 66  1  0  0  0  0
 48 69  1  0  0  0  0
 49 65  1  0  0  0  0
 50 64  1  0  0  0  0
 51 60  1  0  0  0  0
 52 62  1  0  0  0  0
 53 62  1  0  0  0  0
 54 62  1  0  0  0  0
 55 72  1  0  0  0  0
 56 71  1  0  0  0  0
 57 79  1  0  0  0  0
 58 82  1  0  0  0  0
 58 83  1  0  0  0  0
 59 62  1  0  0  0  0
 59 70  1  0  0  0  0
 60 72  1  0  0  0  0
 61 84  1  0  0  0  0
 61 85  1  0  0  0  0
 61 86  1  0  0  0  0
 63 64  1  0  0  0  0
M  CHG  1  72   1
M  ISO  4  38 100  57 101  71 100  79 101
M  END
> <Batch ID>
0029

> <Smiles>
CNC(C)C(=O)NC(C(=O)N1Cc2cc([101O:1][101CH2:1]c3c(C(F)F)cc(C[100NH:0][100C:0](=O)N4CCCC(n5nc(-c6ccc(Oc7ccc(F)cc7F)cc6)c(C(N)=O)c5N)C4)cc3C(F)(F)F)ccc2CC1C(=O)NC1CCCc2ccccc21)C(C)(C)C

> <Shape>
0.239

> <Color>
0.203

> <Negative vol penalty>
0.000

$$$$

  -OEChem-04052316363D

 91100  0     1  0  0  0  0  0999 V2000
  -28.1622  -30.0202   19.7222 C   0  0  0  0  0  0  0  0  0  0  0  0
  -27.7532  -28.8363   20.3277 C   0  0  0  0  0  0  0  0  0  0  0  0
  -22.9734   -9.8864   20.0054 C   0  0  0  0  0  0  0  0  0  0  0  0
  -23.7187   -9.9334   22.3031 C   0  0  0  0  0  0  0  0  0  0  0  0
  -27.3616  -31.1585   19.8081 C   0  0  0  0  0  0  0  0  0  0  0  0
  -26.5439  -28.7903   21.0204 C   0  0  0  0  0  0  0  0  0  0  0  0
  -23.8415  -24.6466   19.9380 C   0  0  0  0  0  0  0  0  0  0  0  0
  -22.1988   -8.7593   20.2797 C   0  0  0  0  0  0  0  0  0  0  0  0
  -22.9441   -8.8063   22.5774 C   0  0  0  0  0  0  0  0  0  0  0  0
  -24.2292  -23.4556   20.5504 C   0  0  0  0  0  0  0  0  0  0  0  0
  -23.1537   -5.4647   22.1074 C   0  0  0  0  0  0  0  0  0  0  0  0
  -23.7383   -4.4430   22.8557 C   0  0  0  0  0  0  0  0  0  0  0  0
  -22.4703  -23.7272   22.1787 C   0  0  0  0  0  0  0  0  0  0  0  0
  -29.0777  -17.6587   16.5404 C   0  0  0  0  0  0  0  0  0  0  0  0
  -30.8787  -19.2671   16.4598 C   0  0  0  0  0  0  0  0  0  0  0  0
  -22.0312   -4.7036   24.5453 C   0  0  0  0  0  0  0  0  0  0  0  0
  -23.7334  -10.4734   21.0171 C   0  0  0  0  0  0  0  0  0  0  0  0
  -24.1402  -12.9852   20.8347 C   0  0  0  0  0  0  0  0  0  0  0  0
  -26.1373  -31.1238   20.4940 C   0  0  0  0  0  0  0  0  0  0  0  0
  -22.7703  -25.3937   20.4488 C   0  0  0  0  0  0  0  0  0  0  0  0
  -25.7269  -29.9296   21.1167 C   0  0  0  0  0  0  0  0  0  0  0  0
  -22.0693  -24.9260   21.5695 C   0  0  0  0  0  0  0  0  0  0  0  0
  -30.1443  -18.2447   15.8588 C   0  0  0  0  0  0  0  0  0  0  0  0
  -28.7453  -18.0952   17.8228 C   0  0  0  0  0  0  0  0  0  0  0  0
  -30.5463  -19.7036   17.7423 C   0  0  0  0  0  0  0  0  0  0  0  0
  -29.4796  -19.1176   18.4238 C   0  0  0  0  0  0  0  0  0  0  0  0
  -22.1841   -8.2193   21.5656 C   0  0  0  0  0  0  0  0  0  0  0  0
  -23.5455  -22.9972   21.6726 C   0  0  0  0  0  0  0  0  0  0  0  0
  -22.0079   -6.1060   22.5781 C   0  0  0  0  0  0  0  0  0  0  0  0
  -23.1771   -4.0624   24.0746 C   0  0  0  0  0  0  0  0  0  0  0  0
  -21.4466   -5.7254   23.7970 C   0  0  0  0  0  0  0  0  0  0  0  0
  -24.5342  -11.6374   20.7343 C   0  0  0  0  0  0  0  0  0  0  0  0
  -25.2534  -13.6971   20.4600 C   0  0  0  0  0  0  0  0  0  0  0  0
  -22.8807  -13.5437   21.2314 C   0  0  0  0  0  0  0  0  0  0  0  0
  -22.4493  -28.3135   21.6635 C   0  0  0  0  0  0  0  0  0  0  0  0
  -19.2949  -27.5581   21.6298 C   0  0  0  0  0  0  0  0  0  0  0  0
  -16.8971  -25.1297   21.6387 C   0  0  0  0  0  0  0  0  0  0  0  0
  -30.7601  -14.5815   20.6602 C   0  0  0  0  0  0  0  0  0  0  0  0
  -25.3285  -32.3924   20.6001 C   0  0  0  0  0  0  0  0  0  0  0  0
  -22.3475  -26.6626   19.7608 C   0  0  0  0  0  0  0  0  0  0  0  0
  -20.8995  -25.6805   22.1448 C   0  0  0  0  0  0  0  0  0  0  0  0
  -23.8837  -32.1590   21.0340 C   0  0  0  0  0  0  0  0  0  0  0  0
  -29.5771  -12.1658   18.3275 C   0  0  0  0  0  0  0  0  0  0  0  0
  -23.8308  -31.2050   22.2230 C   0  0  0  0  0  0  0  0  0  0  0  0
  -28.1299  -11.9198   18.7579 C   0  0  0  0  0  0  0  0  0  0  0  0
  -30.4615  -17.2216   23.2419 C   0  0  0  0  0  0  0  0  0  0  0  0
  -29.0420  -17.7849   23.2793 C   0  0  0  0  0  0  0  0  0  0  0  0
  -30.6509  -17.8658   20.8027 C   0  0  0  0  0  0  0  0  0  0  0  0
  -30.4920  -12.3942   19.5287 C   0  0  0  0  0  0  0  0  0  0  0  0
  -28.6008  -13.2088   20.8829 C   0  0  0  0  0  0  0  0  0  0  0  0
  -24.4099  -29.8333   21.8559 C   0  0  1  0  0  0  0  0  0  0  0  0
  -21.5689  -27.6059   20.6727 C   0  0  1  0  0  0  0  0  0  0  0  0
  -29.2256  -18.4515   20.8281 C   0  0  1  0  0  0  0  0  0  0  0  0
  -27.6299  -13.0286   19.7033 C   0  0  2  0  0  0  0  0  0  0  0  0
  -30.8729  -16.7609   21.8420 C   0  0  2  0  0  0  0  0  0  0  0  0
  -28.8676  -18.9065   22.2545 C   0  0  1  0  0  0  0  0  0  0  0  0
  -30.4992  -17.7785   14.4874 C   0  0  0  0  0  0  0  0  0  0  0  0
  -27.5992  -17.4504   18.5317 C   0  0  0  0  0  0  0  0  0  0  0  0
  -31.3485  -20.8000   18.3637 C   0  0  0  0  0  0  0  0  0  0  0  0
  -14.4068  -24.8203   21.6461 C   0  0  0  0  0  0  0  0  0  0  0  0
  -19.2140  -28.2992   24.5886 C   0  0  0  0  0  0  0  0  0  0  0  0
  -17.0257  -27.0948   24.7589 C   0  0  0  0  0  0  0  0  0  0  0  0
  -17.2419  -29.0796   23.2634 C   0  0  0  0  0  0  0  0  0  0  0  0
  -16.9521  -23.6873   19.0550 C   0  0  0  0  0  0  0  0  0  0  0  0
  -29.1217  -19.5872   19.8053 C   0  0  0  0  0  0  0  0  0  0  0  0
  -25.6708  -20.6631   23.4222 C   0  0  0  0  0  0  0  0  0  0  0  0
  -27.1311  -20.2383   23.4602 C   0  0  0  0  0  0  0  0  0  0  0  0
  -25.3016  -21.4791   22.1895 C   0  0  0  0  0  0  0  0  0  1  0  0
  -18.3422  -26.9022   22.6000 C   0  0  1  0  0  0  0  0  0  0  0  0
  -15.6558  -24.9366   20.7864 C   0  0  2  0  0  0  0  0  0  0  0  0
  -17.9792  -27.8305   23.7933 C   0  0  0  0  0  0  0  0  0  0  0  0
  -25.7988  -11.4988   20.3274 N   0  0  0  0  0  0  0  0  0  0  0  0
  -26.2091  -12.7687   20.1688 N   0  0  0  0  0  0  0  0  0  0  0  0
  -20.5283  -26.9189   21.4404 N   0  0  0  0  0  0  0  0  0  0  0  0
  -29.9622  -13.4589   20.3842 N   0  0  0  0  0  0  0  0  0  0  0  0
  -25.4982  -15.0205   20.3543 N   0  0  0  0  0  0  0  0  0  0  0  0
  -21.8438  -12.6694   21.5849 N   0  0  0  0  0  0  0  0  0  0  0  0
  -23.4515  -29.0697   21.0861 N   0  0  0  0  0  0  0  0  0  0  0  0
  -17.1946  -26.4648   21.8126 N   0  0  0  0  0  0  0  0  0  0  0  0
  -30.1795  -15.5466   21.4740 N   0  0  0  0  0  0  0  0  0  0  0  0
  -27.4500  -19.3625   22.3084 N   0  3  0  0  0  0  0  0  0  0  0  0
  -15.7784  -23.6987   19.9657 N   0  3  0  0  0  0  0  0  0  0  0  0
  -22.6756  -14.7809   21.2556 O   0  0  0  0  0  0  0  0  0  0  0  0
  -22.2344  -28.1843   22.8630 O   0  0  0  0  0  0  0  0  0  0  0  0
  -18.9543  -28.5953   21.0556 O   0  0  0  0  0  0  0  0  0  0  0  0
  -17.5364  -24.1902   22.1068 O   0  0  0  0  0  0  0  0  0  0  0  0
  -31.9030  -14.7164   20.2102 O   0  0  0  0  0  0  0  0  0  0  0  0
  -21.4282   -7.1196   21.8337 O   0  0  0  0  0  0  0  0  0  0  0  0
  -23.9223  -21.8354   22.2727 O   0  0  0  0  0  0  0  0  0  1  0  0
  -23.7377   -3.0802   24.7923 F   0  0  0  0  0  0  0  0  0  0  0  0
  -20.3452   -6.3369   24.2538 F   0  0  0  0  0  0  0  0  0  0  0  0
  1  2  1  0  0  0  0
  1  5  2  0  0  0  0
  2  6  2  0  0  0  0
  3  8  2  0  0  0  0
  3 17  1  0  0  0  0
  4  9  1  0  0  0  0
  4 17  2  0  0  0  0
  5 19  1  0  0  0  0
  6 21  1  0  0  0  0
  7 10  2  0  0  0  0
  7 20  1  0  0  0  0
  8 27  1  0  0  0  0
  9 27  2  0  0  0  0
 10 28  1  0  0  0  0
 11 12  2  0  0  0  0
 11 29  1  0  0  0  0
 12 30  1  0  0  0  0
 13 22  1  0  0  0  0
 13 28  2  0  0  0  0
 14 23  1  0  0  0  0
 14 24  2  0  0  0  0
 15 23  2  0  0  0  0
 15 25  1  0  0  0  0
 16 30  2  0  0  0  0
 16 31  1  0  0  0  0
 17 32  1  0  0  0  0
 18 32  1  0  0  0  0
 18 33  2  0  0  0  0
 18 34  1  0  0  0  0
 19 21  2  0  0  0  0
 19 39  1  0  0  0  0
 20 22  2  0  0  0  0
 20 40  1  0  0  0  0
 21 51  1  0  0  0  0
 22 41  1  0  0  0  0
 23 57  1  0  0  0  0
 24 26  1  0  0  0  0
 24 58  1  0  0  0  0
 25 26  2  0  0  0  0
 25 59  1  0  0  0  0
 26 65  1  0  0  0  0
 27 88  1  0  0  0  0
 28 89  1  0  0  0  0
 29 31  2  0  0  0  0
 29 88  1  0  0  0  0
 30 90  1  0  0  0  0
 31 91  1  0  0  0  0
 32 72  2  0  0  0  0
 33 73  1  0  0  0  0
 33 76  1  0  0  0  0
 34 77  1  0  0  0  0
 34 83  2  0  0  0  0
 35 52  1  0  0  0  0
 35 78  1  0  0  0  0
 35 84  2  0  0  0  0
 36 69  1  0  0  0  0
 36 74  1  0  0  0  0
 36 85  2  0  0  0  0
 37 70  1  0  0  0  0
 37 79  1  0  0  0  0
 37 86  2  0  0  0  0
 38 75  1  0  0  0  0
 38 80  1  0  0  0  0
 38 87  2  0  0  0  0
 39 42  1  0  0  0  0
 40 52  1  0  0  0  0
 41 74  1  0  0  0  0
 42 44  1  0  0  0  0
 43 45  1  0  0  0  0
 43 49  1  0  0  0  0
 44 51  1  0  0  0  0
 45 54  1  0  0  0  0
 46 47  1  0  0  0  0
 46 55  1  0  0  0  0
 47 56  1  0  0  0  0
 48 53  1  0  0  0  0
 48 55  1  0  0  0  0
 49 75  1  0  0  0  0
 50 54  1  0  0  0  0
 50 75  1  0  0  0  0
 51 78  1  0  0  0  0
 52 74  1  0  0  0  0
 53 56  1  0  0  0  0
 53 65  1  0  0  0  0
 54 73  1  0  0  0  0
 55 80  1  0  0  0  0
 56 81  1  0  0  0  0
 60 70  1  0  0  0  0
 61 71  1  0  0  0  0
 62 71  1  0  0  0  0
 63 71  1  0  0  0  0
 64 82  1  0  0  0  0
 66 67  1  0  0  0  0
 66 68  1  0  0  0  0
 67 81  1  0  0  0  0
 68 89  1  0  0  0  0
 69 71  1  0  0  0  0
 69 79  1  0  0  0  0
 70 82  1  0  0  0  0
 72 73  1  0  0  0  0
M  CHG  2  81   1  82   1
M  ISO  4  38 100  68 101  80 100  89 101
M  END
> <Batch ID>
0029

> <Smiles>
CNC(C)C(=O)NC(C(=O)N1Cc2cc([101O:1][101CH2:1]CCNC3CCC([100NH:0][100C:0](=O)N4CCCC(n5nc(-c6ccc(Oc7ccc(F)cc7F)cc6)c(C(N)=O)c5N)C4)CC3Cc3c(C)cc(C)cc3C)ccc2CC1C(=O)NC1CCCc2ccccc21)C(C)(C)C

> <Shape>
0.342

> <Color>
0.205

> <Negative vol penalty>
0.000

$$$$

  -OEChem-04052316363D

 85 93  0     1  0  0  0  0  0999 V2000
  -28.2540  -33.8912   26.3510 C   0  0  0  0  0  0  0  0  0  0  0  0
  -28.3728  -32.6832   25.6712 C   0  0  0  0  0  0  0  0  0  0  0  0
  -24.7761   -8.4062   20.7245 C   0  0  0  0  0  0  0  0  0  0  0  0
  -24.8450   -9.3730   22.9376 C   0  0  0  0  0  0  0  0  0  0  0  0
  -26.9914  -34.3874   26.6727 C   0  0  0  0  0  0  0  0  0  0  0  0
  -27.2290  -31.9702   25.3138 C   0  0  0  0  0  0  0  0  0  0  0  0
  -27.4303  -30.2304   20.5622 C   0  0  0  0  0  0  0  0  0  0  0  0
  -24.6760   -7.1325   21.2840 C   0  0  0  0  0  0  0  0  0  0  0  0
  -24.7448   -8.0992   23.4971 C   0  0  0  0  0  0  0  0  0  0  0  0
  -28.2025  -29.0925   20.3329 C   0  0  0  0  0  0  0  0  0  0  0  0
  -22.2745   -5.2100   22.6876 C   0  0  0  0  0  0  0  0  0  0  0  0
  -21.3309   -4.3367   22.1467 C   0  0  0  0  0  0  0  0  0  0  0  0
  -26.2047  -27.7405   20.3507 C   0  0  0  0  0  0  0  0  0  0  0  0
  -28.8413  -17.6279   25.1074 C   0  0  0  0  0  0  0  0  0  0  0  0
  -29.8848  -17.7011   22.5212 C   0  0  0  0  0  0  0  0  0  0  0  0
  -23.0920   -2.7801   21.5877 C   0  0  0  0  0  0  0  0  0  0  0  0
  -24.8606   -9.5265   21.5513 C   0  0  0  0  0  0  0  0  0  0  0  0
  -23.9072  -11.7059   20.6299 C   0  0  0  0  0  0  0  0  0  0  0  0
  -25.8313  -33.6849   26.3105 C   0  0  0  0  0  0  0  0  0  0  0  0
  -26.0382  -30.1303   20.6985 C   0  0  0  0  0  0  0  0  0  0  0  0
  -25.9498  -32.4569   25.6321 C   0  0  0  0  0  0  0  0  0  0  0  0
  -25.4168  -28.8790   20.5791 C   0  0  0  0  0  0  0  0  0  0  0  0
  -29.3240  -18.8272   24.5839 C   0  0  0  0  0  0  0  0  0  0  0  0
  -28.8805  -16.4651   24.3380 C   0  0  0  0  0  0  0  0  0  0  0  0
  -29.8457  -18.8639   23.2908 C   0  0  0  0  0  0  0  0  0  0  0  0
  -29.4022  -16.5017   23.0449 C   0  0  0  0  0  0  0  0  0  0  0  0
  -24.6603   -6.9789   22.6703 C   0  0  0  0  0  0  0  0  0  0  0  0
  -27.5901  -27.8469   20.2301 C   0  0  0  0  0  0  0  0  0  0  0  0
  -23.6269   -4.8684   22.6785 C   0  0  0  0  0  0  0  0  0  0  0  0
  -21.7397   -3.1218   21.5968 C   0  0  0  0  0  0  0  0  0  0  0  0
  -24.0357   -3.6534   22.1286 C   0  0  0  0  0  0  0  0  0  0  0  0
  -24.9646  -10.8425   20.9739 C   0  0  0  0  0  0  0  0  0  0  0  0
  -24.5265  -12.8225   20.1238 C   0  0  0  0  0  0  0  0  0  0  0  0
  -22.4918  -11.5156   20.7566 C   0  0  0  0  0  0  0  0  0  0  0  0
  -23.9602  -30.7643   23.0188 C   0  0  0  0  0  0  0  0  0  0  0  0
  -21.7779  -30.0471   20.7284 C   0  0  0  0  0  0  0  0  0  0  0  0
  -21.0644  -28.4205   17.8143 C   0  0  0  0  0  0  0  0  0  0  0  0
  -29.9399  -15.2147   20.9471 C   0  0  0  0  0  0  0  0  0  0  0  0
  -24.4897  -34.2378   26.7217 C   0  0  0  0  0  0  0  0  0  0  0  0
  -25.2166  -31.3708   20.9189 C   0  0  0  0  0  0  0  0  0  0  0  0
  -23.9237  -28.7205   20.6976 C   0  0  0  0  0  0  0  0  0  0  0  0
  -23.3164  -33.6063   25.9769 C   0  0  0  0  0  0  0  0  0  0  0  0
  -28.5148  -14.1865   17.8505 C   0  0  0  0  0  0  0  0  0  0  0  0
  -23.4578  -32.0877   25.9476 C   0  0  0  0  0  0  0  0  0  0  0  0
  -27.3427  -13.2957   18.2688 C   0  0  0  0  0  0  0  0  0  0  0  0
  -29.7149  -14.0185   18.7806 C   0  0  0  0  0  0  0  0  0  0  0  0
  -28.2504  -13.3019   20.6274 C   0  0  0  0  0  0  0  0  0  0  0  0
  -24.7318  -31.6665   25.2054 C   0  0  1  0  0  0  0  0  0  0  0  0
  -23.8596  -31.0837   21.5540 C   0  0  1  0  0  0  0  0  0  0  0  0
  -26.9952  -13.4843   19.7585 C   0  0  2  0  0  0  0  0  0  0  0  0
  -29.2721  -20.0593   25.4264 C   0  0  0  0  0  0  0  0  0  0  0  0
  -28.3565  -15.1944   24.9243 C   0  0  0  0  0  0  0  0  0  0  0  0
  -19.1851  -27.9896   16.2081 C   0  0  0  0  0  0  0  0  0  0  0  0
  -20.5681  -28.0428   22.6853 C   0  0  0  0  0  0  0  0  0  0  0  0
  -19.3544  -27.0007   20.7594 C   0  0  0  0  0  0  0  0  0  0  0  0
  -18.8951  -29.3714   21.3852 C   0  0  0  0  0  0  0  0  0  0  0  0
  -22.5173  -29.7175   15.5859 C   0  0  0  0  0  0  0  0  0  0  0  0
  -30.3708  -20.1422   22.7066 C   0  0  0  0  0  0  0  0  0  0  0  0
  -28.5841  -23.2617   21.4349 C   0  0  0  0  0  0  0  0  0  0  0  0
  -29.0355  -24.5965   20.8467 C   0  0  0  0  0  0  0  0  0  0  0  0
  -29.7785  -22.3841   21.7784 C   0  0  0  0  0  0  0  0  0  0  0  0
  -27.8527  -25.5033   20.5376 C   0  0  0  0  0  0  0  0  0  1  0  0
  -21.0864  -28.7866   20.2679 C   0  0  1  0  0  0  0  0  0  0  0  0
  -20.3682  -28.8829   16.5470 C   0  0  2  0  0  0  0  0  0  0  0  0
  -20.0044  -28.3028   21.2741 C   0  0  0  0  0  0  0  0  0  0  0  0
  -26.1646  -11.3657   20.7086 N   0  0  0  0  0  0  0  0  0  0  0  0
  -25.8650  -12.5698   20.1924 N   0  0  0  0  0  0  0  0  0  0  0  0
  -23.1644  -29.9621   20.9192 N   0  0  0  0  0  0  0  0  0  0  0  0
  -29.3110  -14.2155   20.1745 N   0  0  0  0  0  0  0  0  0  0  0  0
  -24.0512  -13.9860   19.6311 N   0  0  0  0  0  0  0  0  0  0  0  0
  -22.0256  -10.3095   21.2972 N   0  0  0  0  0  0  0  0  0  0  0  0
  -29.4505  -15.3313   22.2476 N   0  0  0  0  0  0  0  0  0  0  0  0
  -24.5394  -31.7657   23.7745 N   0  0  0  0  0  0  0  0  0  0  0  0
  -20.5759  -29.0666   18.9302 N   0  0  0  0  0  0  0  0  0  0  0  0
  -21.3170  -28.8626   15.3980 N   0  3  0  0  0  0  0  0  0  0  0  0
  -29.2921  -21.0852   22.3024 N   0  3  0  0  0  0  0  0  0  0  0  0
  -21.6646  -12.3826   20.3858 O   0  0  0  0  0  0  0  0  0  0  0  0
  -23.5419  -29.6895   23.4329 O   0  0  0  0  0  0  0  0  0  0  0  0
  -21.1135  -31.0712   20.9054 O   0  0  0  0  0  0  0  0  0  0  0  0
  -21.9501  -27.5685   17.8148 O   0  0  0  0  0  0  0  0  0  0  0  0
  -30.8272  -15.9335   20.4802 O   0  0  0  0  0  0  0  0  0  0  0  0
  -24.5624   -5.7361   23.2166 O   0  0  0  0  0  0  0  0  0  0  0  0
  -28.3415  -26.7345   20.0070 O   0  0  0  0  0  0  0  0  0  1  0  0
  -20.8332   -2.2825   21.0788 F   0  0  0  0  0  0  0  0  0  0  0  0
  -25.3333   -3.3192   22.1181 F   0  0  0  0  0  0  0  0  0  0  0  0
  1  2  1  0  0  0  0
  1  5  2  0  0  0  0
  2  6  2  0  0  0  0
  3  8  2  0  0  0  0
  3 17  1  0  0  0  0
  4  9  1  0  0  0  0
  4 17  2  0  0  0  0
  5 19  1  0  0  0  0
  6 21  1  0  0  0  0
  7 10  2  0  0  0  0
  7 20  1  0  0  0  0
  8 27  1  0  0  0  0
  9 27  2  0  0  0  0
 10 28  1  0  0  0  0
 11 12  2  0  0  0  0
 11 29  1  0  0  0  0
 12 30  1  0  0  0  0
 13 22  1  0  0  0  0
 13 28  2  0  0  0  0
 14 23  1  0  0  0  0
 14 24  2  0  0  0  0
 15 25  1  0  0  0  0
 15 26  2  0  0  0  0
 16 30  2  0  0  0  0
 16 31  1  0  0  0  0
 17 32  1  0  0  0  0
 18 32  1  0  0  0  0
 18 33  2  0  0  0  0
 18 34  1  0  0  0  0
 19 21  2  0  0  0  0
 19 39  1  0  0  0  0
 20 22  2  0  0  0  0
 20 40  1  0  0  0  0
 21 48  1  0  0  0  0
 22 41  1  0  0  0  0
 23 25  2  0  0  0  0
 23 51  1  0  0  0  0
 24 26  1  0  0  0  0
 24 52  1  0  0  0  0
 25 58  1  0  0  0  0
 26 72  1  0  0  0  0
 27 82  1  0  0  0  0
 28 83  1  0  0  0  0
 29 31  2  0  0  0  0
 29 82  1  0  0  0  0
 30 84  1  0  0  0  0
 31 85  1  0  0  0  0
 32 66  2  0  0  0  0
 33 67  1  0  0  0  0
 33 70  1  0  0  0  0
 34 71  1  0  0  0  0
 34 77  2  0  0  0  0
 35 49  1  0  0  0  0
 35 73  1  0  0  0  0
 35 78  2  0  0  0  0
 36 63  1  0  0  0  0
 36 68  1  0  0  0  0
 36 79  2  0  0  0  0
 37 64  1  0  0  0  0
 37 74  1  0  0  0  0
 37 80  2  0  0  0  0
 38 69  1  0  0  0  0
 38 72  1  0  0  0  0
 38 81  2  0  0  0  0
 39 42  1  0  0  0  0
 40 49  1  0  0  0  0
 41 68  1  0  0  0  0
 42 44  1  0  0  0  0
 43 45  1  0  0  0  0
 43 46  1  0  0  0  0
 44 48  1  0  0  0  0
 45 50  1  0  0  0  0
 46 69  1  0  0  0  0
 47 50  1  0  0  0  0
 47 69  1  0  0  0  0
 48 73  1  0  0  0  0
 49 68  1  0  0  0  0
 50 67  1  0  0  0  0
 53 64  1  0  0  0  0
 54 65  1  0  0  0  0
 55 65  1  0  0  0  0
 56 65  1  0  0  0  0
 57 75  1  0  0  0  0
 58 76  1  0  0  0  0
 59 60  1  0  0  0  0
 59 61  1  0  0  0  0
 60 62  1  0  0  0  0
 61 76  1  0  0  0  0
 62 83  1  0  0  0  0
 63 65  1  0  0  0  0
 63 74  1  0  0  0  0
 64 75  1  0  0  0  0
 66 67  1  0  0  0  0
M  CHG  2  75   1  76   1
M  ISO  4  38 100  62 101  72 100  83 101
M  END
> <Batch ID>
0029

> <Smiles>
CNC(C)C(=O)NC(C(=O)N1Cc2cc([101O:1][101CH2:1]CCCNCc3cc([100NH:0][100C:0](=O)N4CCCC(n5nc(-c6ccc(Oc7ccc(F)cc7F)cc6)c(C(N)=O)c5N)C4)c(C)cc3C)ccc2CC1C(=O)NC1CCCc2ccccc21)C(C)(C)C

> <Shape>
0.295

> <Color>
0.087

> <Negative vol penalty>
0.000

$$$$

  -OEChem-04052316363D

 84 93  0     1  0  0  0  0  0999 V2000
  -24.8077  -22.9445   20.0362 C   0  0  0  0  0  0  0  0  0  0  0  0
  -25.3788  -21.8787   19.3499 C   0  0  0  0  0  0  0  0  0  0  0  0
  -25.4733  -26.7830   21.2842 C   0  0  0  0  0  0  0  0  0  0  0  0
  -26.7881  -27.8071   23.0334 C   0  0  0  0  0  0  0  0  0  0  0  0
  -29.5723  -17.5891   21.4317 C   0  0  0  0  0  0  0  0  0  0  0  0
  -24.2830  -22.7462   21.3116 C   0  0  0  0  0  0  0  0  0  0  0  0
  -25.4148  -20.6120   19.9338 C   0  0  0  0  0  0  0  0  0  0  0  0
  -30.1527  -16.3694   21.7778 C   0  0  0  0  0  0  0  0  0  0  0  0
  -27.9336  -15.4194   17.9793 C   0  0  0  0  0  0  0  0  0  0  0  0
  -24.3461  -27.4757   21.7260 C   0  0  0  0  0  0  0  0  0  0  0  0
  -25.6609  -28.4999   23.4751 C   0  0  0  0  0  0  0  0  0  0  0  0
  -29.1523  -14.7546   18.1080 C   0  0  0  0  0  0  0  0  0  0  0  0
  -23.0821  -30.6010   21.4652 C   0  0  0  0  0  0  0  0  0  0  0  0
  -22.2809  -31.2160   20.5032 C   0  0  0  0  0  0  0  0  0  0  0  0
  -31.7492  -18.4577   20.8626 C   0  0  0  0  0  0  0  0  0  0  0  0
  -28.2304  -13.4233   19.8959 C   0  0  0  0  0  0  0  0  0  0  0  0
  -20.4028  -29.8683   21.2057 C   0  0  0  0  0  0  0  0  0  0  0  0
  -26.6943  -26.9487   21.9380 C   0  0  0  0  0  0  0  0  0  0  0  0
  -30.3701  -18.6323   20.9717 C   0  0  0  0  0  0  0  0  0  0  0  0
  -28.7991  -26.6603   20.5258 C   0  0  0  0  0  0  0  0  0  0  0  0
  -24.3243  -21.4789   21.9158 C   0  0  0  0  0  0  0  0  0  0  0  0
  -31.5385  -16.1772   21.6634 C   0  0  0  0  0  0  0  0  0  0  0  0
  -26.8557  -15.0982   18.8167 C   0  0  0  0  0  0  0  0  0  0  0  0
  -24.8691  -20.3866   21.2105 C   0  0  0  0  0  0  0  0  0  0  0  0
  -32.3468  -17.2387   21.2181 C   0  0  0  0  0  0  0  0  0  0  0  0
  -26.9983  -14.0838   19.7742 C   0  0  0  0  0  0  0  0  0  0  0  0
  -24.4398  -28.3342   22.8214 C   0  0  0  0  0  0  0  0  0  0  0  0
  -29.3018  -13.7584   19.0683 C   0  0  0  0  0  0  0  0  0  0  0  0
  -22.5437  -29.6196   22.2974 C   0  0  0  0  0  0  0  0  0  0  0  0
  -20.9413  -30.8497   20.3735 C   0  0  0  0  0  0  0  0  0  0  0  0
  -21.2040  -29.2533   22.1677 C   0  0  0  0  0  0  0  0  0  0  0  0
  -27.8589  -26.2329   21.4825 C   0  0  0  0  0  0  0  0  0  0  0  0
  -29.7042  -25.6300   20.4499 C   0  0  0  0  0  0  0  0  0  0  0  0
  -29.7602  -19.9153   20.6015 C   0  0  0  0  0  0  0  0  0  0  0  0
  -28.8499  -27.8796   19.7732 C   0  0  0  0  0  0  0  0  0  0  0  0
  -25.1456  -16.6808   20.9788 C   0  0  0  0  0  0  0  0  0  0  0  0
  -23.3775  -13.9613   21.0001 C   0  0  0  0  0  0  0  0  0  0  0  0
  -23.2214  -10.6024   20.4168 C   0  0  0  0  0  0  0  0  0  0  0  0
  -23.7349  -21.3189   23.2950 C   0  0  0  0  0  0  0  0  0  0  0  0
  -25.5395  -15.8061   18.6473 C   0  0  0  0  0  0  0  0  0  0  0  0
  -32.1255  -14.8476   22.0773 C   0  0  0  0  0  0  0  0  0  0  0  0
  -33.8367  -17.0810   21.0537 C   0  0  0  0  0  0  0  0  0  0  0  0
  -25.8655  -13.6872   20.6842 C   0  0  0  0  0  0  0  0  0  0  0  0
  -24.2149  -20.0566   24.0039 C   0  0  0  0  0  0  0  0  0  0  0  0
  -34.4041  -15.8922   21.8296 C   0  0  0  0  0  0  0  0  0  0  0  0
  -30.9798  -21.8776   23.3995 C   0  0  0  0  0  0  0  0  0  0  0  0
  -24.0645  -18.8545   23.0835 C   0  0  0  0  0  0  0  0  0  0  0  0
  -30.3670  -23.2464   23.1006 C   0  0  0  0  0  0  0  0  0  0  0  0
  -30.0394  -20.7469   22.9934 C   0  0  0  0  0  0  0  0  0  0  0  0
  -28.9899  -22.1690   21.2643 C   0  0  0  0  0  0  0  0  0  0  0  0
  -24.9470  -19.0065   21.8381 C   0  0  1  0  0  0  0  0  0  0  0  0
  -24.6673  -15.7532   19.8979 C   0  0  1  0  0  0  0  0  0  0  0  0
  -29.9117  -23.3444   21.6329 C   0  0  1  0  0  0  0  0  0  0  0  0
  -33.5685  -14.6354   21.6125 C   0  0  2  0  0  0  0  0  0  0  0  0
  -21.6537   -8.6484   20.5632 C   0  0  0  0  0  0  0  0  0  0  0  0
  -23.7548  -13.8884   24.0271 C   0  0  0  0  0  0  0  0  0  0  0  0
  -23.0195  -11.4954   23.9911 C   0  0  0  0  0  0  0  0  0  0  0  0
  -21.4549  -13.2905   23.2478 C   0  0  0  0  0  0  0  0  0  0  0  0
  -23.3858  -10.1039   17.5042 C   0  0  0  0  0  0  0  0  0  0  0  0
  -32.7940  -12.6884   18.6141 C   0  0  0  0  0  0  0  0  0  0  0  0
  -31.5421  -13.4977   18.3140 C   0  0  0  0  0  0  0  0  0  1  0  0
  -33.2882  -12.9109   20.0349 C   0  0  0  0  0  0  0  0  0  0  0  0
  -23.4151  -12.6677   21.7775 C   0  0  1  0  0  0  0  0  0  0  0  0
  -22.2028   -9.7549   19.6762 C   0  0  2  0  0  0  0  0  0  0  0  0
  -22.9332  -12.8441   23.2452 C   0  0  0  0  0  0  0  0  0  0  0  0
  -28.1406  -25.0252   21.9786 N   0  0  0  0  0  0  0  0  0  0  0  0
  -29.2679  -24.6848   21.3310 N   0  0  0  0  0  0  0  0  0  0  0  0
  -29.6284  -20.8925   21.5912 N   0  0  0  0  0  0  0  0  0  0  0  0
  -24.6003  -14.4130   20.4840 N   0  0  0  0  0  0  0  0  0  0  0  0
  -30.8227  -25.4493   19.7159 N   0  0  0  0  0  0  0  0  0  0  0  0
  -27.8405  -28.8311   19.9739 N   0  0  0  0  0  0  0  0  0  0  0  0
  -24.6215  -17.9568   20.8979 N   0  0  0  0  0  0  0  0  0  0  0  0
  -22.6379  -11.7046   21.0050 N   0  0  0  0  0  0  0  0  0  0  0  0
  -22.8247   -9.1294   18.4750 N   0  3  0  0  0  0  0  0  0  0  0  0
  -29.4171  -20.0337   19.4261 O   0  0  0  0  0  0  0  0  0  0  0  0
  -29.7542  -28.1112   18.9353 O   0  0  0  0  0  0  0  0  0  0  0  0
  -25.9309  -16.2689   21.8246 O   0  0  0  0  0  0  0  0  0  0  0  0
  -22.3015  -14.5456   20.8501 O   0  0  0  0  0  0  0  0  0  0  0  0
  -24.4147  -10.3134   20.4715 O   0  0  0  0  0  0  0  0  0  0  0  0
  -23.3402  -29.0105   23.2525 O   0  0  0  0  0  0  0  0  0  0  0  0
  -30.4904  -13.1083   19.1964 O   0  0  0  0  0  0  0  0  0  1  0  0
  -33.5917  -14.2855   20.2303 O   0  0  0  0  0  0  0  0  0  0  0  0
  -20.1716  -31.4415   19.4507 F   0  0  0  0  0  0  0  0  0  0  0  0
  -20.6808  -28.3119   22.9652 F   0  0  0  0  0  0  0  0  0  0  0  0
  1  2  1  0  0  0  0
  1  6  2  0  0  0  0
  2  7  2  0  0  0  0
  3 10  2  0  0  0  0
  3 18  1  0  0  0  0
  4 11  1  0  0  0  0
  4 18  2  0  0  0  0
  5  8  2  0  0  0  0
  5 19  1  0  0  0  0
  6 21  1  0  0  0  0
  7 24  1  0  0  0  0
  8 22  1  0  0  0  0
  9 12  2  0  0  0  0
  9 23  1  0  0  0  0
 10 27  1  0  0  0  0
 11 27  2  0  0  0  0
 12 28  1  0  0  0  0
 13 14  2  0  0  0  0
 13 29  1  0  0  0  0
 14 30  1  0  0  0  0
 15 19  2  0  0  0  0
 15 25  1  0  0  0  0
 16 26  1  0  0  0  0
 16 28  2  0  0  0  0
 17 30  2  0  0  0  0
 17 31  1  0  0  0  0
 18 32  1  0  0  0  0
 19 34  1  0  0  0  0
 20 32  1  0  0  0  0
 20 33  2  0  0  0  0
 20 35  1  0  0  0  0
 21 24  2  0  0  0  0
 21 39  1  0  0  0  0
 22 25  2  0  0  0  0
 22 41  1  0  0  0  0
 23 26  2  0  0  0  0
 23 40  1  0  0  0  0
 24 51  1  0  0  0  0
 25 42  1  0  0  0  0
 26 43  1  0  0  0  0
 27 80  1  0  0  0  0
 28 81  1  0  0  0  0
 29 31  2  0  0  0  0
 29 80  1  0  0  0  0
 30 83  1  0  0  0  0
 31 84  1  0  0  0  0
 32 66  2  0  0  0  0
 33 67  1  0  0  0  0
 33 70  1  0  0  0  0
 34 68  1  0  0  0  0
 34 75  2  0  0  0  0
 35 71  1  0  0  0  0
 35 76  2  0  0  0  0
 36 52  1  0  0  0  0
 36 72  1  0  0  0  0
 36 77  2  0  0  0  0
 37 63  1  0  0  0  0
 37 69  1  0  0  0  0
 37 78  2  0  0  0  0
 38 64  1  0  0  0  0
 38 73  1  0  0  0  0
 38 79  2  0  0  0  0
 39 44  1  0  0  0  0
 40 52  1  0  0  0  0
 41 54  1  0  0  0  0
 42 45  1  0  0  0  0
 43 69  1  0  0  0  0
 44 47  1  0  0  0  0
 45 54  1  0  0  0  0
 46 48  1  0  0  0  0
 46 49  1  0  0  0  0
 47 51  1  0  0  0  0
 48 53  1  0  0  0  0
 49 68  1  0  0  0  0
 50 53  1  0  0  0  0
 50 68  1  0  0  0  0
 51 72  1  0  0  0  0
 52 69  1  0  0  0  0
 53 67  1  0  0  0  0
 54 82  1  0  0  0  0
 55 64  1  0  0  0  0
 56 65  1  0  0  0  0
 57 65  1  0  0  0  0
 58 65  1  0  0  0  0
 59 74  1  0  0  0  0
 60 61  1  0  0  0  0
 60 62  1  0  0  0  0
 61 81  1  0  0  0  0
 62 82  1  0  0  0  0
 63 65  1  0  0  0  0
 63 73  1  0  0  0  0
 64 74  1  0  0  0  0
 66 67  1  0  0  0  0
M  CHG  1  74   1
M  ISO  4  19 100  34 100  61 101  81 101
M  END
> <Batch ID>
0029

> <Smiles>
CNC(C)C(=O)NC(C(=O)N1Cc2cc([101O:1][101CH2:1]CCOC3CCc4c[100c:0]([100C:0](=O)N5CCCC(n6nc(-c7ccc(Oc8ccc(F)cc8F)cc7)c(C(N)=O)c6N)C5)ccc4C3)ccc2CC1C(=O)NC1CCCc2ccccc21)C(C)(C)C

> <Shape>
0.236

> <Color>
0.072

> <Negative vol penalty>
0.000

$$$$

  -OEChem-04052316363D

 83 91  0     1  0  0  0  0  0999 V2000
  -25.8921  -13.3860   25.8473 C   0  0  0  0  0  0  0  0  0  0  0  0
  -26.7258  -12.9731   24.8130 C   0  0  0  0  0  0  0  0  0  0  0  0
  -23.1616   -9.8528   19.9151 C   0  0  0  0  0  0  0  0  0  0  0  0
  -23.8313   -9.9041   22.2358 C   0  0  0  0  0  0  0  0  0  0  0  0
  -26.3108  -14.3891   26.7204 C   0  0  0  0  0  0  0  0  0  0  0  0
  -27.9783  -13.5639   24.6504 C   0  0  0  0  0  0  0  0  0  0  0  0
  -34.6345  -12.0344   22.4890 C   0  0  0  0  0  0  0  0  0  0  0  0
  -22.4337   -8.6866   20.1508 C   0  0  0  0  0  0  0  0  0  0  0  0
  -23.1033   -8.7378   22.4716 C   0  0  0  0  0  0  0  0  0  0  0  0
  -35.6153  -12.4967   21.6126 C   0  0  0  0  0  0  0  0  0  0  0  0
  -20.1052   -5.8959   20.2220 C   0  0  0  0  0  0  0  0  0  0  0  0
  -18.8209   -5.8131   19.6843 C   0  0  0  0  0  0  0  0  0  0  0  0
  -36.2651  -14.1650   23.2292 C   0  0  0  0  0  0  0  0  0  0  0  0
  -34.9762  -16.3893   20.0919 C   0  0  0  0  0  0  0  0  0  0  0  0
  -35.5806  -17.2629   17.9221 C   0  0  0  0  0  0  0  0  0  0  0  0
  -18.1628   -7.7587   20.9566 C   0  0  0  0  0  0  0  0  0  0  0  0
  -23.8604  -10.4616   20.9575 C   0  0  0  0  0  0  0  0  0  0  0  0
  -24.1519  -12.9921   20.8184 C   0  0  0  0  0  0  0  0  0  0  0  0
  -27.5730  -14.9859   26.5743 C   0  0  0  0  0  0  0  0  0  0  0  0
  -34.4541  -12.6421   23.7399 C   0  0  0  0  0  0  0  0  0  0  0  0
  -28.4138  -14.5770   25.5216 C   0  0  0  0  0  0  0  0  0  0  0  0
  -35.2830  -13.7069   24.1207 C   0  0  0  0  0  0  0  0  0  0  0  0
  -35.9496  -16.6901   19.1392 C   0  0  0  0  0  0  0  0  0  0  0  0
  -33.6339  -16.6612   19.8275 C   0  0  0  0  0  0  0  0  0  0  0  0
  -33.2649  -17.2341   18.6104 C   0  0  0  0  0  0  0  0  0  0  0  0
  -22.4045   -8.1291   21.4291 C   0  0  0  0  0  0  0  0  0  0  0  0
  -36.4289  -13.5640   21.9814 C   0  0  0  0  0  0  0  0  0  0  0  0
  -20.4184   -6.9100   21.1272 C   0  0  0  0  0  0  0  0  0  0  0  0
  -17.8497   -6.7445   20.0515 C   0  0  0  0  0  0  0  0  0  0  0  0
  -19.4472   -7.8414   21.4944 C   0  0  0  0  0  0  0  0  0  0  0  0
  -34.2383  -17.5349   17.6576 C   0  0  0  0  0  0  0  0  0  0  0  0
  -24.6130  -11.6660   20.7145 C   0  0  0  0  0  0  0  0  0  0  0  0
  -25.2409  -13.7611   20.4881 C   0  0  0  0  0  0  0  0  0  0  0  0
  -22.8552  -13.4846   21.1813 C   0  0  0  0  0  0  0  0  0  0  0  0
  -32.0710  -14.1984   25.1548 C   0  0  0  0  0  0  0  0  0  0  0  0
  -34.0542  -14.1100   27.7202 C   0  0  0  0  0  0  0  0  0  0  0  0
  -37.2429  -13.8569   28.9097 C   0  0  0  0  0  0  0  0  0  0  0  0
  -30.5628  -14.9343   20.9860 C   0  0  0  0  0  0  0  0  0  0  0  0
  -27.9627  -16.0994   27.5140 C   0  0  0  0  0  0  0  0  0  0  0  0
  -33.4095  -12.1143   24.6846 C   0  0  0  0  0  0  0  0  0  0  0  0
  -35.1434  -14.3806   25.4606 C   0  0  0  0  0  0  0  0  0  0  0  0
  -29.4566  -16.4128   27.5007 C   0  0  0  0  0  0  0  0  0  0  0  0
  -29.7011  -12.4676   18.4819 C   0  0  0  0  0  0  0  0  0  0  0  0
  -29.9694  -16.5077   26.0672 C   0  0  0  0  0  0  0  0  0  0  0  0
  -28.2519  -12.1495   18.8544 C   0  0  0  0  0  0  0  0  0  0  0  0
  -30.5541  -12.6971   19.7261 C   0  0  0  0  0  0  0  0  0  0  0  0
  -28.5883  -13.4367   21.0154 C   0  0  0  0  0  0  0  0  0  0  0  0
  -29.7897  -15.1765   25.3277 C   0  0  1  0  0  0  0  0  0  0  0  0
  -32.9723  -13.1403   25.7256 C   0  0  1  0  0  0  0  0  0  0  0  0
  -27.6693  -13.2165   19.8001 C   0  0  2  0  0  0  0  0  0  0  0  0
  -31.8199  -17.5189   18.3422 C   0  0  0  0  0  0  0  0  0  0  0  0
  -38.5525  -13.8549   31.0504 C   0  0  0  0  0  0  0  0  0  0  0  0
  -33.7238  -17.1365   27.9223 C   0  0  0  0  0  0  0  0  0  0  0  0
  -35.7352  -17.1867   29.4123 C   0  0  0  0  0  0  0  0  0  0  0  0
  -33.6951  -15.9352   30.1156 C   0  0  0  0  0  0  0  0  0  0  0  0
  -38.2574  -11.1197   28.4221 C   0  0  0  0  0  0  0  0  0  0  0  0
  -37.4005  -16.3968   19.4262 C   0  0  0  0  0  0  0  0  0  0  0  0
  -32.6128  -16.3272   20.8657 C   0  0  0  0  0  0  0  0  0  0  0  0
  -37.8450  -14.9999   18.9872 C   0  0  0  0  0  0  0  0  0  0  0  0
  -37.1304  -13.8775   19.7308 C   0  0  0  0  0  0  0  0  0  1  0  0
  -35.1418  -15.0059   28.2621 C   0  0  1  0  0  0  0  0  0  0  0  0
  -37.8421  -13.0014   30.0113 C   0  0  2  0  0  0  0  0  0  0  0  0
  -34.5756  -16.3049   28.9020 C   0  0  0  0  0  0  0  0  0  0  0  0
  -25.8950  -11.5932   20.3467 N   0  0  0  0  0  0  0  0  0  0  0  0
  -26.2487  -12.8832   20.2166 N   0  0  0  0  0  0  0  0  0  0  0  0
  -34.1033  -13.8325   26.3467 N   0  0  0  0  0  0  0  0  0  0  0  0
  -29.9544  -13.7369   20.5742 N   0  0  0  0  0  0  0  0  0  0  0  0
  -25.4251  -15.0959   20.4062 N   0  0  0  0  0  0  0  0  0  0  0  0
  -21.8509  -12.5574   21.4908 N   0  0  0  0  0  0  0  0  0  0  0  0
  -30.8134  -14.2345   25.7265 N   0  0  0  0  0  0  0  0  0  0  0  0
  -35.9301  -14.1848   29.1746 N   0  0  0  0  0  0  0  0  0  0  0  0
  -31.8594  -15.1393   20.5305 N   0  0  0  0  0  0  0  0  0  0  0  0
  -38.8264  -12.0382   29.4417 N   0  3  0  0  0  0  0  0  0  0  0  0
  -22.5903  -14.7103   21.2136 O   0  0  0  0  0  0  0  0  0  0  0  0
  -32.4862  -14.9289   24.2629 O   0  0  0  0  0  0  0  0  0  0  0  0
  -33.1970  -13.6668   28.4886 O   0  0  0  0  0  0  0  0  0  0  0  0
  -37.8773  -14.2030   27.9156 O   0  0  0  0  0  0  0  0  0  0  0  0
  -29.9906  -15.7626   21.7027 O   0  0  0  0  0  0  0  0  0  0  0  0
  -21.6941   -6.9912   21.6596 O   0  0  0  0  0  0  0  0  0  0  0  0
  -37.3865  -14.0176   21.1276 O   0  0  0  0  0  0  0  0  0  1  0  0
  -16.6168   -6.6659   19.5338 F   0  0  0  0  0  0  0  0  0  0  0  0
  -19.7424   -8.8186   22.3626 F   0  0  0  0  0  0  0  0  0  0  0  0
  -33.8223  -18.2459   16.1402 Cl  0  0  0  0  0  0  0  0  0  0  0  0
  1  2  1  0  0  0  0
  1  5  2  0  0  0  0
  2  6  2  0  0  0  0
  3  8  2  0  0  0  0
  3 17  1  0  0  0  0
  4  9  1  0  0  0  0
  4 17  2  0  0  0  0
  5 19  1  0  0  0  0
  6 21  1  0  0  0  0
  7 10  2  0  0  0  0
  7 20  1  0  0  0  0
  8 26  1  0  0  0  0
  9 26  2  0  0  0  0
 10 27  1  0  0  0  0
 11 12  2  0  0  0  0
 11 28  1  0  0  0  0
 12 29  1  0  0  0  0
 13 22  1  0  0  0  0
 13 27  2  0  0  0  0
 14 23  2  0  0  0  0
 14 24  1  0  0  0  0
 15 23  1  0  0  0  0
 15 31  2  0  0  0  0
 16 29  2  0  0  0  0
 16 30  1  0  0  0  0
 17 32  1  0  0  0  0
 18 32  1  0  0  0  0
 18 33  2  0  0  0  0
 18 34  1  0  0  0  0
 19 21  2  0  0  0  0
 19 39  1  0  0  0  0
 20 22  2  0  0  0  0
 20 40  1  0  0  0  0
 21 48  1  0  0  0  0
 22 41  1  0  0  0  0
 23 57  1  0  0  0  0
 24 25  2  0  0  0  0
 24 58  1  0  0  0  0
 25 31  1  0  0  0  0
 25 51  1  0  0  0  0
 26 79  1  0  0  0  0
 27 80  1  0  0  0  0
 28 30  2  0  0  0  0
 28 79  1  0  0  0  0
 29 81  1  0  0  0  0
 30 82  1  0  0  0  0
 31 83  1  0  0  0  0
 32 64  2  0  0  0  0
 33 65  1  0  0  0  0
 33 68  1  0  0  0  0
 34 69  1  0  0  0  0
 34 74  2  0  0  0  0
 35 49  1  0  0  0  0
 35 70  1  0  0  0  0
 35 75  2  0  0  0  0
 36 61  1  0  0  0  0
 36 66  1  0  0  0  0
 36 76  2  0  0  0  0
 37 62  1  0  0  0  0
 37 71  1  0  0  0  0
 37 77  2  0  0  0  0
 38 67  1  0  0  0  0
 38 72  1  0  0  0  0
 38 78  2  0  0  0  0
 39 42  1  0  0  0  0
 40 49  1  0  0  0  0
 41 66  1  0  0  0  0
 42 44  1  0  0  0  0
 43 45  1  0  0  0  0
 43 46  1  0  0  0  0
 44 48  1  0  0  0  0
 45 50  1  0  0  0  0
 46 67  1  0  0  0  0
 47 50  1  0  0  0  0
 47 67  1  0  0  0  0
 48 70  1  0  0  0  0
 49 66  1  0  0  0  0
 50 65  1  0  0  0  0
 52 62  1  0  0  0  0
 53 63  1  0  0  0  0
 54 63  1  0  0  0  0
 55 63  1  0  0  0  0
 56 73  1  0  0  0  0
 57 59  1  0  0  0  0
 58 72  1  0  0  0  0
 59 60  1  0  0  0  0
 60 80  1  0  0  0  0
 61 63  1  0  0  0  0
 61 71  1  0  0  0  0
 62 73  1  0  0  0  0
 64 65  1  0  0  0  0
M  CHG  1  73   1
M  ISO  4  38 100  60 101  72 100  80 101
M  END
> <Batch ID>
0029

> <Smiles>
CNC(C)C(=O)NC(C(=O)N1Cc2cc([101O:1][101CH2:1]CCc3cc(Cl)c(C)c(C[100NH:0][100C:0](=O)N4CCCC(n5nc(-c6ccc(Oc7ccc(F)cc7F)cc6)c(C(N)=O)c5N)C4)c3)ccc2CC1C(=O)NC1CCCc2ccccc21)C(C)(C)C

> <Shape>
0.135

> <Color>
0.178

> <Negative vol penalty>
0.000

$$$$

  -OEChem-04052316362D

  0  0  0     0  0  0  0  0  0999 V2000
M  END
$$$$

  -OEChem-04052316363D

 83 91  0     1  0  0  0  0  0999 V2000
  -31.5834  -27.9507   17.3894 C   0  0  0  0  0  0  0  0  0  0  0  0
  -30.8090  -26.8636   17.7819 C   0  0  0  0  0  0  0  0  0  0  0  0
  -23.2883   -9.7988   19.9141 C   0  0  0  0  0  0  0  0  0  0  0  0
  -23.7411   -9.9398   22.2831 C   0  0  0  0  0  0  0  0  0  0  0  0
  -32.9709  -27.8298   17.3253 C   0  0  0  0  0  0  0  0  0  0  0  0
  -31.4218  -25.6546   18.1094 C   0  0  0  0  0  0  0  0  0  0  0  0
  -29.6230  -21.6549   22.3841 C   0  0  0  0  0  0  0  0  0  0  0  0
  -22.5626   -8.6260   20.1226 C   0  0  0  0  0  0  0  0  0  0  0  0
  -23.0153   -8.7671   22.4916 C   0  0  0  0  0  0  0  0  0  0  0  0
  -28.8896  -20.4714   22.3119 C   0  0  0  0  0  0  0  0  0  0  0  0
  -19.7688   -7.8548   22.7119 C   0  0  0  0  0  0  0  0  0  0  0  0
  -18.8673   -7.8329   23.7761 C   0  0  0  0  0  0  0  0  0  0  0  0
  -30.9444  -19.2089   22.2548 C   0  0  0  0  0  0  0  0  0  0  0  0
  -29.4246  -15.6357   23.7534 C   0  0  0  0  0  0  0  0  0  0  0  0
  -30.0514  -15.0399   26.0093 C   0  0  0  0  0  0  0  0  0  0  0  0
  -20.0747   -5.9862   24.7607 C   0  0  0  0  0  0  0  0  0  0  0  0
  -23.8776  -10.4557   20.9943 C   0  0  0  0  0  0  0  0  0  0  0  0
  -24.1358  -12.9858   20.7952 C   0  0  0  0  0  0  0  0  0  0  0  0
  -33.6016  -26.6216   17.6615 C   0  0  0  0  0  0  0  0  0  0  0  0
  -31.0249  -21.6249   22.3811 C   0  0  0  0  0  0  0  0  0  0  0  0
  -32.8189  -25.5170   18.0484 C   0  0  0  0  0  0  0  0  0  0  0  0
  -31.6932  -20.3933   22.3296 C   0  0  0  0  0  0  0  0  0  0  0  0
  -30.3551  -15.1100   24.6497 C   0  0  0  0  0  0  0  0  0  0  0  0
  -28.1903  -16.0914   24.2167 C   0  0  0  0  0  0  0  0  0  0  0  0
  -27.8865  -16.0213   25.5763 C   0  0  0  0  0  0  0  0  0  0  0  0
  -22.4260   -8.1101   21.4114 C   0  0  0  0  0  0  0  0  0  0  0  0
  -29.5503  -19.2483   22.2443 C   0  0  0  0  0  0  0  0  0  0  0  0
  -20.8231   -6.9424   22.6720 C   0  0  0  0  0  0  0  0  0  0  0  0
  -19.0203   -6.8986   24.8005 C   0  0  0  0  0  0  0  0  0  0  0  0
  -20.9761   -6.0081   23.6965 C   0  0  0  0  0  0  0  0  0  0  0  0
  -28.8171  -15.4955   26.4726 C   0  0  0  0  0  0  0  0  0  0  0  0
  -24.6279  -11.6669   20.7795 C   0  0  0  0  0  0  0  0  0  0  0  0
  -25.2368  -13.7661   20.5392 C   0  0  0  0  0  0  0  0  0  0  0  0
  -22.8028  -13.4629   21.0211 C   0  0  0  0  0  0  0  0  0  0  0  0
  -33.2887  -22.7544   20.4568 C   0  0  0  0  0  0  0  0  0  0  0  0
  -35.2659  -21.6777   22.7921 C   0  0  0  0  0  0  0  0  0  0  0  0
  -35.7670  -19.5450   25.4088 C   0  0  0  0  0  0  0  0  0  0  0  0
  -31.1088  -12.9254   21.3539 C   0  0  0  0  0  0  0  0  0  0  0  0
  -35.1011  -26.5247   17.5314 C   0  0  0  0  0  0  0  0  0  0  0  0
  -31.8013  -22.9089   22.4865 C   0  0  0  0  0  0  0  0  0  0  0  0
  -33.1967  -20.3056   22.3439 C   0  0  0  0  0  0  0  0  0  0  0  0
  -35.6988  -25.3211   18.2556 C   0  0  0  0  0  0  0  0  0  0  0  0
  -29.4570  -13.6638   18.2875 C   0  0  0  0  0  0  0  0  0  0  0  0
  -34.8962  -24.0608   17.9485 C   0  0  0  0  0  0  0  0  0  0  0  0
  -27.9876  -13.3548   18.5798 C   0  0  0  0  0  0  0  0  0  0  0  0
  -30.3912  -12.6849   18.9951 C   0  0  0  0  0  0  0  0  0  0  0  0
  -28.7063  -12.2551   20.7415 C   0  0  0  0  0  0  0  0  0  0  0  0
  -33.4484  -24.1964   18.4354 C   0  0  1  0  0  0  0  0  0  0  0  0
  -33.2273  -22.7900   21.9577 C   0  0  1  0  0  0  0  0  0  0  0  0
  -27.7274  -13.2498   20.0946 C   0  0  2  0  0  0  0  0  0  0  0  0
  -26.5576  -16.5152   26.0572 C   0  0  0  0  0  0  0  0  0  0  0  0
  -37.4967  -18.8711   27.0974 C   0  0  0  0  0  0  0  0  0  0  0  0
  -36.7627  -20.1232   20.6349 C   0  0  0  0  0  0  0  0  0  0  0  0
  -37.8298  -18.7684   22.4498 C   0  0  0  0  0  0  0  0  0  0  0  0
  -38.2298  -21.2278   22.3325 C   0  0  0  0  0  0  0  0  0  0  0  0
  -34.0370  -20.3462   27.6724 C   0  0  0  0  0  0  0  0  0  0  0  0
  -31.6742  -14.6220   24.1534 C   0  0  0  0  0  0  0  0  0  0  0  0
  -27.2035  -16.6567   23.2243 C   0  0  0  0  0  0  0  0  0  0  0  0
  -31.6727  -13.1397   23.7612 C   0  0  0  0  0  0  0  0  0  0  0  0
  -27.5560  -18.0788   22.8019 C   0  0  0  0  0  0  0  0  0  1  0  0
  -35.9704  -20.3738   23.0794 C   0  0  1  0  0  0  0  0  0  0  0  0
  -36.3099  -19.7767   26.8074 C   0  0  2  0  0  0  0  0  0  0  0  0
  -37.1699  -20.1247   22.1219 C   0  0  0  0  0  0  0  0  0  0  0  0
  -25.9393  -11.6087   20.5329 N   0  0  0  0  0  0  0  0  0  0  0  0
  -26.2806  -12.9008   20.3911 N   0  0  0  0  0  0  0  0  0  0  0  0
  -33.9113  -21.5891   22.4416 N   0  0  0  0  0  0  0  0  0  0  0  0
  -30.0932  -12.6335   20.4285 N   0  0  0  0  0  0  0  0  0  0  0  0
  -25.4041  -15.1010   20.4285 N   0  0  0  0  0  0  0  0  0  0  0  0
  -21.7908  -12.5256   21.2696 N   0  0  0  0  0  0  0  0  0  0  0  0
  -33.3765  -24.0013   19.8676 N   0  0  0  0  0  0  0  0  0  0  0  0
  -36.3310  -20.4075   24.4927 N   0  0  0  0  0  0  0  0  0  0  0  0
  -30.7403  -12.8599   22.6920 N   0  0  0  0  0  0  0  0  0  0  0  0
  -35.2540  -19.5078   27.8241 N   0  3  0  0  0  0  0  0  0  0  0  0
  -22.5144  -14.6832   20.9869 O   0  0  0  0  0  0  0  0  0  0  0  0
  -33.2602  -21.6756   19.8763 O   0  0  0  0  0  0  0  0  0  0  0  0
  -35.8926  -22.7363   22.8825 O   0  0  0  0  0  0  0  0  0  0  0  0
  -34.9294  -18.6825   25.1538 O   0  0  0  0  0  0  0  0  0  0  0  0
  -32.2574  -13.2276   21.0127 O   0  0  0  0  0  0  0  0  0  0  0  0
  -21.7177   -6.9659   21.6152 O   0  0  0  0  0  0  0  0  0  0  0  0
  -28.8370  -18.0916   22.1732 O   0  0  0  0  0  0  0  0  0  1  0  0
  -18.1555   -6.8787   25.8232 F   0  0  0  0  0  0  0  0  0  0  0  0
  -21.9877   -5.1299   23.6643 F   0  0  0  0  0  0  0  0  0  0  0  0
  -28.4783  -15.3900   28.1624 Cl  0  0  0  0  0  0  0  0  0  0  0  0
  1  2  1  0  0  0  0
  1  5  2  0  0  0  0
  2  6  2  0  0  0  0
  3  8  2  0  0  0  0
  3 17  1  0  0  0  0
  4  9  1  0  0  0  0
  4 17  2  0  0  0  0
  5 19  1  0  0  0  0
  6 21  1  0  0  0  0
  7 10  2  0  0  0  0
  7 20  1  0  0  0  0
  8 26  1  0  0  0  0
  9 26  2  0  0  0  0
 10 27  1  0  0  0  0
 11 12  2  0  0  0  0
 11 28  1  0  0  0  0
 12 29  1  0  0  0  0
 13 22  1  0  0  0  0
 13 27  2  0  0  0  0
 14 23  2  0  0  0  0
 14 24  1  0  0  0  0
 15 23  1  0  0  0  0
 15 31  2  0  0  0  0
 16 29  2  0  0  0  0
 16 30  1  0  0  0  0
 17 32  1  0  0  0  0
 18 32  1  0  0  0  0
 18 33  2  0  0  0  0
 18 34  1  0  0  0  0
 19 21  2  0  0  0  0
 19 39  1  0  0  0  0
 20 22  2  0  0  0  0
 20 40  1  0  0  0  0
 21 48  1  0  0  0  0
 22 41  1  0  0  0  0
 23 57  1  0  0  0  0
 24 25  2  0  0  0  0
 24 58  1  0  0  0  0
 25 31  1  0  0  0  0
 25 51  1  0  0  0  0
 26 79  1  0  0  0  0
 27 80  1  0  0  0  0
 28 30  2  0  0  0  0
 28 79  1  0  0  0  0
 29 81  1  0  0  0  0
 30 82  1  0  0  0  0
 31 83  1  0  0  0  0
 32 64  2  0  0  0  0
 33 65  1  0  0  0  0
 33 68  1  0  0  0  0
 34 69  1  0  0  0  0
 34 74  2  0  0  0  0
 35 49  1  0  0  0  0
 35 70  1  0  0  0  0
 35 75  2  0  0  0  0
 36 61  1  0  0  0  0
 36 66  1  0  0  0  0
 36 76  2  0  0  0  0
 37 62  1  0  0  0  0
 37 71  1  0  0  0  0
 37 77  2  0  0  0  0
 38 67  1  0  0  0  0
 38 72  1  0  0  0  0
 38 78  2  0  0  0  0
 39 42  1  0  0  0  0
 40 49  1  0  0  0  0
 41 66  1  0  0  0  0
 42 44  1  0  0  0  0
 43 45  1  0  0  0  0
 43 46  1  0  0  0  0
 44 48  1  0  0  0  0
 45 50  1  0  0  0  0
 46 67  1  0  0  0  0
 47 50  1  0  0  0  0
 47 67  1  0  0  0  0
 48 70  1  0  0  0  0
 49 66  1  0  0  0  0
 50 65  1  0  0  0  0
 52 62  1  0  0  0  0
 53 63  1  0  0  0  0
 54 63  1  0  0  0  0
 55 63  1  0  0  0  0
 56 73  1  0  0  0  0
 57 59  1  0  0  0  0
 58 60  1  0  0  0  0
 59 72  1  0  0  0  0
 60 80  1  0  0  0  0
 61 63  1  0  0  0  0
 61 71  1  0  0  0  0
 62 73  1  0  0  0  0
 64 65  1  0  0  0  0
M  CHG  1  73   1
M  ISO  4  38 100  60 101  72 100  80 101
M  END
> <Batch ID>
0029

> <Smiles>
CNC(C)C(=O)NC(C(=O)N1Cc2cc([101O:1][101CH2:1]Cc3cc(CC[100NH:0][100C:0](=O)N4CCCC(n5nc(-c6ccc(Oc7ccc(F)cc7F)cc6)c(C(N)=O)c5N)C4)cc(Cl)c3C)ccc2CC1C(=O)NC1CCCc2ccccc21)C(C)(C)C

> <Shape>
0.163

> <Color>
0.182

> <Negative vol penalty>
0.000

$$$$

  -OEChem-04052316363D

 83 91  0     1  0  0  0  0  0999 V2000
  -25.6256  -28.2211   32.8177 C   0  0  0  0  0  0  0  0  0  0  0  0
  -26.5336  -27.4448   32.1047 C   0  0  0  0  0  0  0  0  0  0  0  0
  -23.0752   -9.8684   19.9403 C   0  0  0  0  0  0  0  0  0  0  0  0
  -23.8346   -9.8745   22.2338 C   0  0  0  0  0  0  0  0  0  0  0  0
  -24.6086  -27.6079   33.5482 C   0  0  0  0  0  0  0  0  0  0  0  0
  -26.4257  -26.0546   32.1228 C   0  0  0  0  0  0  0  0  0  0  0  0
  -26.9596  -24.0048   27.5230 C   0  0  0  0  0  0  0  0  0  0  0  0
  -22.3309   -8.7154   20.1898 C   0  0  0  0  0  0  0  0  0  0  0  0
  -23.0903   -8.7215   22.4833 C   0  0  0  0  0  0  0  0  0  0  0  0
  -28.2561  -23.8905   27.0234 C   0  0  0  0  0  0  0  0  0  0  0  0
  -19.8617   -7.9246   23.0850 C   0  0  0  0  0  0  0  0  0  0  0  0
  -19.1045   -7.8846   24.2557 C   0  0  0  0  0  0  0  0  0  0  0  0
  -28.2893  -21.5636   27.6586 C   0  0  0  0  0  0  0  0  0  0  0  0
  -30.4005  -19.3395   22.0453 C   0  0  0  0  0  0  0  0  0  0  0  0
  -32.2317  -18.2162   23.1506 C   0  0  0  0  0  0  0  0  0  0  0  0
  -20.3451   -5.9465   24.9919 C   0  0  0  0  0  0  0  0  0  0  0  0
  -23.8271  -10.4479   20.9623 C   0  0  0  0  0  0  0  0  0  0  0  0
  -24.1698  -12.9729   20.8430 C   0  0  0  0  0  0  0  0  0  0  0  0
  -24.4824  -26.2099   33.5674 C   0  0  0  0  0  0  0  0  0  0  0  0
  -26.3211  -22.9002   28.1050 C   0  0  0  0  0  0  0  0  0  0  0  0
  -25.4069  -25.4221   32.8554 C   0  0  0  0  0  0  0  0  0  0  0  0
  -26.9837  -21.6658   28.1625 C   0  0  0  0  0  0  0  0  0  0  0  0
  -31.5593  -19.3927   22.8199 C   0  0  0  0  0  0  0  0  0  0  0  0
  -29.9140  -18.1097   21.6016 C   0  0  0  0  0  0  0  0  0  0  0  0
  -30.5864  -16.9333   21.9324 C   0  0  0  0  0  0  0  0  0  0  0  0
  -22.3384   -8.1420   21.4613 C   0  0  0  0  0  0  0  0  0  0  0  0
  -28.9223  -22.6705   27.0938 C   0  0  0  0  0  0  0  0  0  0  0  0
  -20.8606   -6.9755   22.8676 C   0  0  0  0  0  0  0  0  0  0  0  0
  -19.3462   -6.8956   25.2092 C   0  0  0  0  0  0  0  0  0  0  0  0
  -21.1023   -5.9865   23.8211 C   0  0  0  0  0  0  0  0  0  0  0  0
  -31.7453  -16.9865   22.7069 C   0  0  0  0  0  0  0  0  0  0  0  0
  -24.5966  -11.6386   20.7050 C   0  0  0  0  0  0  0  0  0  0  0  0
  -25.2623  -13.7222   20.4802 C   0  0  0  0  0  0  0  0  0  0  0  0
  -22.8994  -13.4891   21.2618 C   0  0  0  0  0  0  0  0  0  0  0  0
  -25.1716  -22.2390   30.9938 C   0  0  0  0  0  0  0  0  0  0  0  0
  -24.1039  -19.5504   29.5263 C   0  0  0  0  0  0  0  0  0  0  0  0
  -24.4380  -17.3204   26.9646 C   0  0  0  0  0  0  0  0  0  0  0  0
  -30.7288  -14.7659   20.6563 C   0  0  0  0  0  0  0  0  0  0  0  0
  -23.3954  -25.5906   34.4098 C   0  0  0  0  0  0  0  0  0  0  0  0
  -24.9124  -23.0331   28.6151 C   0  0  0  0  0  0  0  0  0  0  0  0
  -26.3349  -20.4445   28.7593 C   0  0  0  0  0  0  0  0  0  0  0  0
  -23.1241  -24.1265   34.0739 C   0  0  0  0  0  0  0  0  0  0  0  0
  -29.6140  -12.3531   18.2871 C   0  0  0  0  0  0  0  0  0  0  0  0
  -24.4341  -23.3533   33.9597 C   0  0  0  0  0  0  0  0  0  0  0  0
  -28.1742  -12.0619   18.7163 C   0  0  0  0  0  0  0  0  0  0  0  0
  -30.5290  -12.5812   19.4890 C   0  0  0  0  0  0  0  0  0  0  0  0
  -28.6220  -13.3060   20.8701 C   0  0  0  0  0  0  0  0  0  0  0  0
  -25.3079  -23.9122   32.8302 C   0  0  1  0  0  0  0  0  0  0  0  0
  -24.5499  -21.9742   29.6518 C   0  0  1  0  0  0  0  0  0  0  0  0
  -27.6494  -13.1334   19.6920 C   0  0  2  0  0  0  0  0  0  0  0  0
  -28.6701  -18.0874   20.7734 C   0  0  0  0  0  0  0  0  0  0  0  0
  -23.4427  -15.2055   26.0515 C   0  0  0  0  0  0  0  0  0  0  0  0
  -25.4996  -17.9504   31.7177 C   0  0  0  0  0  0  0  0  0  0  0  0
  -25.2945  -15.9191   30.2685 C   0  0  0  0  0  0  0  0  0  0  0  0
  -23.2426  -17.0877   31.0728 C   0  0  0  0  0  0  0  0  0  0  0  0
  -23.6937  -18.6327   24.4184 C   0  0  0  0  0  0  0  0  0  0  0  0
  -32.0831  -20.7154   23.2963 C   0  0  0  0  0  0  0  0  0  0  0  0
  -31.6266  -22.7380   24.6890 C   0  0  0  0  0  0  0  0  0  0  0  0
  -30.5429  -23.4028   25.5147 C   0  0  0  0  0  0  0  0  0  1  0  0
  -24.6647  -18.1698   29.2844 C   0  0  1  0  0  0  0  0  0  0  0  0
  -23.4205  -16.7254   26.0079 C   0  0  2  0  0  0  0  0  0  0  0  0
  -24.6886  -17.3050   30.5763 C   0  0  0  0  0  0  0  0  0  0  0  0
  -25.8615  -11.5424   20.2870 N   0  0  0  0  0  0  0  0  0  0  0  0
  -26.2389  -12.8259   20.1591 N   0  0  0  0  0  0  0  0  0  0  0  0
  -24.9589  -20.6267   29.2502 N   0  0  0  0  0  0  0  0  0  0  0  0
  -29.9702  -13.6120   20.3666 N   0  0  0  0  0  0  0  0  0  0  0  0
  -25.4731  -15.0536   20.4076 N   0  0  0  0  0  0  0  0  0  0  0  0
  -21.8871  -12.5801   21.5986 N   0  0  0  0  0  0  0  0  0  0  0  0
  -30.0816  -15.6909   21.4748 N   0  0  0  0  0  0  0  0  0  0  0  0
  -24.8236  -23.4577   31.5444 N   0  0  0  0  0  0  0  0  0  0  0  0
  -23.8813  -17.5960   28.1956 N   0  0  0  0  0  0  0  0  0  0  0  0
  -23.7068  -17.1598   24.6114 N   0  3  0  0  0  0  0  0  0  0  0  0
  -31.1145  -21.4517   24.1527 N   0  3  0  0  0  0  0  0  0  0  0  0
  -22.6636  -14.7198   21.3194 O   0  0  0  0  0  0  0  0  0  0  0  0
  -25.9111  -21.3992   31.4934 O   0  0  0  0  0  0  0  0  0  0  0  0
  -22.9472  -19.6696   29.9382 O   0  0  0  0  0  0  0  0  0  0  0  0
  -25.6102  -17.5173   26.6523 O   0  0  0  0  0  0  0  0  0  0  0  0
  -31.8580  -14.9343   20.1889 O   0  0  0  0  0  0  0  0  0  0  0  0
  -21.6120   -7.0170   21.7052 O   0  0  0  0  0  0  0  0  0  0  0  0
  -30.1882  -22.5564   26.6075 O   0  0  0  0  0  0  0  0  0  1  0  0
  -18.6201   -6.8582   26.3341 F   0  0  0  0  0  0  0  0  0  0  0  0
  -22.0614   -5.0728   23.6184 F   0  0  0  0  0  0  0  0  0  0  0  0
  -32.6117  -15.5553   23.1412 Cl  0  0  0  0  0  0  0  0  0  0  0  0
  1  2  1  0  0  0  0
  1  5  2  0  0  0  0
  2  6  2  0  0  0  0
  3  8  2  0  0  0  0
  3 17  1  0  0  0  0
  4  9  1  0  0  0  0
  4 17  2  0  0  0  0
  5 19  1  0  0  0  0
  6 21  1  0  0  0  0
  7 10  2  0  0  0  0
  7 20  1  0  0  0  0
  8 26  1  0  0  0  0
  9 26  2  0  0  0  0
 10 27  1  0  0  0  0
 11 12  2  0  0  0  0
 11 28  1  0  0  0  0
 12 29  1  0  0  0  0
 13 22  1  0  0  0  0
 13 27  2  0  0  0  0
 14 23  1  0  0  0  0
 14 24  2  0  0  0  0
 15 23  2  0  0  0  0
 15 31  1  0  0  0  0
 16 29  2  0  0  0  0
 16 30  1  0  0  0  0
 17 32  1  0  0  0  0
 18 32  1  0  0  0  0
 18 33  2  0  0  0  0
 18 34  1  0  0  0  0
 19 21  2  0  0  0  0
 19 39  1  0  0  0  0
 20 22  2  0  0  0  0
 20 40  1  0  0  0  0
 21 48  1  0  0  0  0
 22 41  1  0  0  0  0
 23 57  1  0  0  0  0
 24 25  1  0  0  0  0
 24 51  1  0  0  0  0
 25 31  2  0  0  0  0
 25 69  1  0  0  0  0
 26 79  1  0  0  0  0
 27 80  1  0  0  0  0
 28 30  2  0  0  0  0
 28 79  1  0  0  0  0
 29 81  1  0  0  0  0
 30 82  1  0  0  0  0
 31 83  1  0  0  0  0
 32 63  2  0  0  0  0
 33 64  1  0  0  0  0
 33 67  1  0  0  0  0
 34 68  1  0  0  0  0
 34 74  2  0  0  0  0
 35 49  1  0  0  0  0
 35 70  1  0  0  0  0
 35 75  2  0  0  0  0
 36 60  1  0  0  0  0
 36 65  1  0  0  0  0
 36 76  2  0  0  0  0
 37 61  1  0  0  0  0
 37 71  1  0  0  0  0
 37 77  2  0  0  0  0
 38 66  1  0  0  0  0
 38 69  1  0  0  0  0
 38 78  2  0  0  0  0
 39 42  1  0  0  0  0
 40 49  1  0  0  0  0
 41 65  1  0  0  0  0
 42 44  1  0  0  0  0
 43 45  1  0  0  0  0
 43 46  1  0  0  0  0
 44 48  1  0  0  0  0
 45 50  1  0  0  0  0
 46 66  1  0  0  0  0
 47 50  1  0  0  0  0
 47 66  1  0  0  0  0
 48 70  1  0  0  0  0
 49 65  1  0  0  0  0
 50 64  1  0  0  0  0
 52 61  1  0  0  0  0
 53 62  1  0  0  0  0
 54 62  1  0  0  0  0
 55 62  1  0  0  0  0
 56 72  1  0  0  0  0
 57 73  1  0  0  0  0
 58 59  1  0  0  0  0
 58 73  1  0  0  0  0
 59 80  1  0  0  0  0
 60 62  1  0  0  0  0
 60 71  1  0  0  0  0
 61 72  1  0  0  0  0
 63 64  1  0  0  0  0
M  CHG  2  72   1  73   1
M  ISO  4  38 100  59 101  69 100  80 101
M  END
> <Batch ID>
0029

> <Smiles>
CNC(C)C(=O)NC(C(=O)N1Cc2cc([101O:1][101CH2:1]CNCc3cc(C)c([100NH:0][100C:0](=O)N4CCCC(n5nc(-c6ccc(Oc7ccc(F)cc7F)cc6)c(C(N)=O)c5N)C4)c(Cl)c3)ccc2CC1C(=O)NC1CCCc2ccccc21)C(C)(C)C

> <Shape>
0.180

> <Color>
0.192

> <Negative vol penalty>
0.000

$$$$

  -OEChem-04052316363D

 82 90  0     1  0  0  0  0  0999 V2000
  -34.1581   -9.5596   21.8113 C   0  0  0  0  0  0  0  0  0  0  0  0
  -34.0844  -10.9438   21.6929 C   0  0  0  0  0  0  0  0  0  0  0  0
  -24.6998  -31.1533   20.2367 C   0  0  0  0  0  0  0  0  0  0  0  0
  -24.1807  -29.9528   22.2681 C   0  0  0  0  0  0  0  0  0  0  0  0
  -33.2270   -8.7546   21.1563 C   0  0  0  0  0  0  0  0  0  0  0  0
  -33.0803  -11.5238   20.9184 C   0  0  0  0  0  0  0  0  0  0  0  0
  -30.2015  -16.8219   21.9900 C   0  0  0  0  0  0  0  0  0  0  0  0
  -23.9663  -32.2472   20.6958 C   0  0  0  0  0  0  0  0  0  0  0  0
  -23.4473  -31.0468   22.7272 C   0  0  0  0  0  0  0  0  0  0  0  0
  -30.3822  -18.1072   21.4812 C   0  0  0  0  0  0  0  0  0  0  0  0
  -22.5307  -35.4913   21.4895 C   0  0  0  0  0  0  0  0  0  0  0  0
  -23.0953  -36.7583   21.3426 C   0  0  0  0  0  0  0  0  0  0  0  0
  -28.6459  -17.7018   19.8564 C   0  0  0  0  0  0  0  0  0  0  0  0
  -27.5662  -21.9160   19.1134 C   0  0  0  0  0  0  0  0  0  0  0  0
  -27.5106  -22.6875   21.4022 C   0  0  0  0  0  0  0  0  0  0  0  0
  -24.9704  -36.0809   22.7072 C   0  0  0  0  0  0  0  0  0  0  0  0
  -24.8070  -30.0060   21.0229 C   0  0  0  0  0  0  0  0  0  0  0  0
  -26.9345  -28.6248   20.7513 C   0  0  0  0  0  0  0  0  0  0  0  0
  -32.2051   -9.3253   20.3813 C   0  0  0  0  0  0  0  0  0  0  0  0
  -29.2474  -15.9615   21.4278 C   0  0  0  0  0  0  0  0  0  0  0  0
  -32.1355  -10.7256   20.2514 C   0  0  0  0  0  0  0  0  0  0  0  0
  -28.4532  -16.4069   20.3616 C   0  0  0  0  0  0  0  0  0  0  0  0
  -28.2340  -22.2621   20.2881 C   0  0  0  0  0  0  0  0  0  0  0  0
  -25.4514  -22.4207   20.1671 C   0  0  0  0  0  0  0  0  0  0  0  0
  -23.3401  -32.1940   21.9411 C   0  0  0  0  0  0  0  0  0  0  0  0
  -29.6064  -18.5464   20.4124 C   0  0  0  0  0  0  0  0  0  0  0  0
  -23.1859  -34.5191   22.2452 C   0  0  0  0  0  0  0  0  0  0  0  0
  -24.3151  -37.0531   21.9514 C   0  0  0  0  0  0  0  0  0  0  0  0
  -26.1748  -21.9954   19.0529 C   0  0  0  0  0  0  0  0  0  0  0  0
  -24.4058  -34.8139   22.8541 C   0  0  0  0  0  0  0  0  0  0  0  0
  -26.1193  -22.7668   21.3418 C   0  0  0  0  0  0  0  0  0  0  0  0
  -25.5640  -28.8753   20.5489 C   0  0  0  0  0  0  0  0  0  0  0  0
  -27.1645  -27.4337   20.1072 C   0  0  0  0  0  0  0  0  0  0  0  0
  -27.9121  -29.3994   21.4583 C   0  0  0  0  0  0  0  0  0  0  0  0
  -29.3558  -13.1428   19.9626 C   0  0  0  0  0  0  0  0  0  0  0  0
  -23.5184  -22.8763   18.6761 C   0  0  0  0  0  0  0  0  0  0  0  0
  -26.1240  -13.3844   20.1011 C   0  0  0  0  0  0  0  0  0  0  0  0
  -23.3764  -15.3950   20.3366 C   0  0  0  0  0  0  0  0  0  0  0  0
  -31.2500   -8.4127   19.6536 C   0  0  0  0  0  0  0  0  0  0  0  0
  -29.0462  -14.5874   22.0055 C   0  0  0  0  0  0  0  0  0  0  0  0
  -27.4014  -15.5292   19.7356 C   0  0  0  0  0  0  0  0  0  0  0  0
  -29.9917   -9.1194   19.1564 C   0  0  0  0  0  0  0  0  0  0  0  0
  -25.5971  -24.7762   16.4604 C   0  0  0  0  0  0  0  0  0  0  0  0
  -30.3532  -10.4314   18.4674 C   0  0  0  0  0  0  0  0  0  0  0  0
  -25.9254  -26.0329   17.2654 C   0  0  0  0  0  0  0  0  0  0  0  0
  -24.1846  -24.2794   16.7520 C   0  0  0  0  0  0  0  0  0  0  0  0
  -24.2405  -25.2928   19.0085 C   0  0  0  0  0  0  0  0  0  0  0  0
  -31.0459  -11.3930   19.4405 C   0  0  1  0  0  0  0  0  0  0  0  0
  -28.4014  -13.6147   21.0229 C   0  0  1  0  0  0  0  0  0  0  0  0
  -25.6695  -25.8103   18.7665 C   0  0  2  0  0  0  0  0  0  0  0  0
  -23.2649  -21.1892   20.4752 C   0  0  0  0  0  0  0  0  0  0  0  0
  -20.8690  -15.3064   20.3866 C   0  0  0  0  0  0  0  0  0  0  0  0
  -26.0836  -12.8964   17.0894 C   0  0  0  0  0  0  0  0  0  0  0  0
  -23.7302  -13.7499   17.0530 C   0  0  0  0  0  0  0  0  0  0  0  0
  -24.2927  -11.7033   18.3636 C   0  0  0  0  0  0  0  0  0  0  0  0
  -23.2720  -16.6009   23.0373 C   0  0  0  0  0  0  0  0  0  0  0  0
  -29.7394  -22.1745   20.3534 C   0  0  0  0  0  0  0  0  0  0  0  0
  -30.2207  -20.8066   20.8248 C   0  0  0  0  0  0  0  0  0  1  0  0
  -23.9618  -22.4925   20.0653 C   0  0  1  0  0  0  0  0  0  0  0  0
  -25.0557  -13.9623   19.2045 C   0  0  1  0  0  0  0  0  0  0  0  0
  -22.1427  -15.3156   21.2175 C   0  0  2  0  0  0  0  0  0  0  0  0
  -24.8116  -13.0941   17.9379 C   0  0  0  0  0  0  0  0  0  0  0  0
  -24.9656  -27.9203   19.8322 N   0  0  0  0  0  0  0  0  0  0  0  0
  -25.9647  -27.0580   19.5784 N   0  0  0  0  0  0  0  0  0  0  0  0
  -27.2467  -14.1919   20.3317 N   0  0  0  0  0  0  0  0  0  0  0  0
  -23.9742  -24.1018   18.1899 N   0  0  0  0  0  0  0  0  0  0  0  0
  -28.2741  -26.6816   19.9470 N   0  0  0  0  0  0  0  0  0  0  0  0
  -27.5062  -30.5975   22.0618 N   0  0  0  0  0  0  0  0  0  0  0  0
  -30.0740  -12.0156   20.3136 N   0  0  0  0  0  0  0  0  0  0  0  0
  -23.8745  -14.1436   20.0413 N   0  0  0  0  0  0  0  0  0  0  0  0
  -22.0914  -16.4823   22.1434 N   0  3  0  0  0  0  0  0  0  0  0  0
  -29.1136  -29.0480   21.5383 O   0  0  0  0  0  0  0  0  0  0  0  0
  -29.4337  -13.7550   18.9040 O   0  0  0  0  0  0  0  0  0  0  0  0
  -22.7911  -22.1072   18.0423 O   0  0  0  0  0  0  0  0  0  0  0  0
  -25.9647  -12.2610   20.5850 O   0  0  0  0  0  0  0  0  0  0  0  0
  -23.8487  -16.4604   19.9462 O   0  0  0  0  0  0  0  0  0  0  0  0
  -22.6245  -33.2615   22.3895 O   0  0  0  0  0  0  0  0  0  0  0  0
  -29.7813  -19.8003   19.9134 O   0  0  0  0  0  0  0  0  0  1  0  0
  -24.8579  -38.2694   21.8090 F   0  0  0  0  0  0  0  0  0  0  0  0
  -25.5430  -21.6617   17.9188 F   0  0  0  0  0  0  0  0  0  0  0  0
  -25.0405  -33.8836   23.5804 F   0  0  0  0  0  0  0  0  0  0  0  0
  -25.2571  -23.2968   22.7402 Cl  0  0  0  0  0  0  0  0  0  0  0  0
  1  2  1  0  0  0  0
  1  5  2  0  0  0  0
  2  6  2  0  0  0  0
  3  8  2  0  0  0  0
  3 17  1  0  0  0  0
  4  9  1  0  0  0  0
  4 17  2  0  0  0  0
  5 19  1  0  0  0  0
  6 21  1  0  0  0  0
  7 10  2  0  0  0  0
  7 20  1  0  0  0  0
  8 25  1  0  0  0  0
  9 25  2  0  0  0  0
 10 26  1  0  0  0  0
 11 12  2  0  0  0  0
 11 27  1  0  0  0  0
 12 28  1  0  0  0  0
 13 22  1  0  0  0  0
 13 26  2  0  0  0  0
 14 23  1  0  0  0  0
 14 29  2  0  0  0  0
 15 23  2  0  0  0  0
 15 31  1  0  0  0  0
 16 28  2  0  0  0  0
 16 30  1  0  0  0  0
 17 32  1  0  0  0  0
 18 32  1  0  0  0  0
 18 33  2  0  0  0  0
 18 34  1  0  0  0  0
 19 21  2  0  0  0  0
 19 39  1  0  0  0  0
 20 22  2  0  0  0  0
 20 40  1  0  0  0  0
 21 48  1  0  0  0  0
 22 41  1  0  0  0  0
 23 57  1  0  0  0  0
 24 29  1  0  0  0  0
 24 31  2  0  0  0  0
 24 59  1  0  0  0  0
 25 77  1  0  0  0  0
 26 78  1  0  0  0  0
 27 30  2  0  0  0  0
 27 77  1  0  0  0  0
 28 79  1  0  0  0  0
 29 80  1  0  0  0  0
 30 81  1  0  0  0  0
 31 82  1  0  0  0  0
 32 63  2  0  0  0  0
 33 64  1  0  0  0  0
 33 67  1  0  0  0  0
 34 68  1  0  0  0  0
 34 72  2  0  0  0  0
 35 49  1  0  0  0  0
 35 69  1  0  0  0  0
 35 73  2  0  0  0  0
 36 59  1  0  0  0  0
 36 66  1  0  0  0  0
 36 74  2  0  0  0  0
 37 60  1  0  0  0  0
 37 65  1  0  0  0  0
 37 75  2  0  0  0  0
 38 61  1  0  0  0  0
 38 70  1  0  0  0  0
 38 76  2  0  0  0  0
 39 42  1  0  0  0  0
 40 49  1  0  0  0  0
 41 65  1  0  0  0  0
 42 44  1  0  0  0  0
 43 45  1  0  0  0  0
 43 46  1  0  0  0  0
 44 48  1  0  0  0  0
 45 50  1  0  0  0  0
 46 66  1  0  0  0  0
 47 50  1  0  0  0  0
 47 66  1  0  0  0  0
 48 69  1  0  0  0  0
 49 65  1  0  0  0  0
 50 64  1  0  0  0  0
 51 59  1  0  0  0  0
 52 61  1  0  0  0  0
 53 62  1  0  0  0  0
 54 62  1  0  0  0  0
 55 62  1  0  0  0  0
 56 71  1  0  0  0  0
 57 58  1  0  0  0  0
 58 78  1  0  0  0  0
 60 62  1  0  0  0  0
 60 70  1  0  0  0  0
 61 71  1  0  0  0  0
 63 64  1  0  0  0  0
M  CHG  1  71   1
M  ISO  4  36 100  58 101  59 100  78 101
M  END
> <Batch ID>
0029

> <Smiles>
CNC(C)C(=O)NC(C(=O)N1Cc2cc([101O:1][101CH2:1]Cc3cc(F)c([100CH:0](C)[100C:0](=O)N4CCCC(n5nc(-c6ccc(Oc7ccc(F)cc7F)cc6)c(C(N)=O)c5N)C4)c(Cl)c3)ccc2CC1C(=O)NC1CCCc2ccccc21)C(C)(C)C

> <Shape>
0.232

> <Color>
0.068

> <Negative vol penalty>
0.000

$$$$

  -OEChem-04052316363D

 89 98  0     1  0  0  0  0  0999 V2000
  -26.8166  -16.8090   13.0231 C   0  0  0  0  0  0  0  0  0  0  0  0
  -27.3335  -18.0997   12.9766 C   0  0  0  0  0  0  0  0  0  0  0  0
  -23.9785  -13.0852   19.6707 C   0  0  0  0  0  0  0  0  0  0  0  0
  -24.9275  -13.5620   21.8408 C   0  0  0  0  0  0  0  0  0  0  0  0
  -26.2703  -16.3204   14.2092 C   0  0  0  0  0  0  0  0  0  0  0  0
  -27.3036  -18.9031   14.1159 C   0  0  0  0  0  0  0  0  0  0  0  0
  -31.0370  -24.0475   17.4194 C   0  0  0  0  0  0  0  0  0  0  0  0
  -24.9959  -12.1622   19.4286 C   0  0  0  0  0  0  0  0  0  0  0  0
  -25.9448  -12.6389   21.5987 C   0  0  0  0  0  0  0  0  0  0  0  0
  -30.8697  -25.3219   17.9593 C   0  0  0  0  0  0  0  0  0  0  0  0
  -28.9952  -10.6721   21.4068 C   0  0  0  0  0  0  0  0  0  0  0  0
  -30.3000  -11.0464   21.7278 C   0  0  0  0  0  0  0  0  0  0  0  0
  -23.9629  -25.7728   21.3024 C   0  0  0  0  0  0  0  0  0  0  0  0
  -29.9735  -24.3440   19.9742 C   0  0  0  0  0  0  0  0  0  0  0  0
  -30.1491  -12.8977   20.1828 C   0  0  0  0  0  0  0  0  0  0  0  0
  -23.9443  -13.7851   20.8768 C   0  0  0  0  0  0  0  0  0  0  0  0
  -21.6453  -14.4906   21.7281 C   0  0  0  0  0  0  0  0  0  0  0  0
  -26.2424  -17.1148   15.3663 C   0  0  0  0  0  0  0  0  0  0  0  0
  -30.6630  -22.9103   18.1497 C   0  0  0  0  0  0  0  0  0  0  0  0
  -26.7552  -18.4251   15.3183 C   0  0  0  0  0  0  0  0  0  0  0  0
  -23.6948  -27.0250   20.7496 C   0  0  0  0  0  0  0  0  0  0  0  0
  -30.1394  -23.0562   19.4422 C   0  0  0  0  0  0  0  0  0  0  0  0
  -22.9146  -24.9707   21.7537 C   0  0  0  0  0  0  0  0  0  0  0  0
  -21.3302  -26.6733   21.0996 C   0  0  0  0  0  0  0  0  0  0  0  0
  -25.9790  -11.9391   20.3925 C   0  0  0  0  0  0  0  0  0  0  0  0
  -30.3352  -25.4705   19.2358 C   0  0  0  0  0  0  0  0  0  0  0  0
  -28.2673  -11.4106   20.4737 C   0  0  0  0  0  0  0  0  0  0  0  0
  -30.8769  -12.1591   21.1159 C   0  0  0  0  0  0  0  0  0  0  0  0
  -28.8443  -12.5234   19.8618 C   0  0  0  0  0  0  0  0  0  0  0  0
  -21.5984  -25.4210   21.6523 C   0  0  0  0  0  0  0  0  0  0  0  0
  -22.3785  -27.4753   20.6483 C   0  0  0  0  0  0  0  0  0  0  0  0
  -22.8939  -14.7391   21.1273 C   0  0  0  0  0  0  0  0  0  0  0  0
  -21.0182  -15.7125   21.7348 C   0  0  0  0  0  0  0  0  0  0  0  0
  -21.1011  -13.2648   22.2349 C   0  0  0  0  0  0  0  0  0  0  0  0
  -28.5549  -20.5685   17.7308 C   0  0  0  0  0  0  0  0  0  0  0  0
  -29.9590  -19.3555   20.3915 C   0  0  0  0  0  0  0  0  0  0  0  0
  -31.7502  -19.9281   23.2393 C   0  0  0  0  0  0  0  0  0  0  0  0
  -23.1393  -21.2221   21.7565 C   0  0  0  0  0  0  0  0  0  0  0  0
  -25.5989  -16.5599   16.6124 C   0  0  0  0  0  0  0  0  0  0  0  0
  -30.8747  -21.5414   17.5636 C   0  0  0  0  0  0  0  0  0  0  0  0
  -29.7410  -21.8664   20.2754 C   0  0  0  0  0  0  0  0  0  0  0  0
  -25.9451  -17.3422   17.8767 C   0  0  0  0  0  0  0  0  0  0  0  0
  -20.8406  -19.8438   19.3248 C   0  0  0  0  0  0  0  0  0  0  0  0
  -25.8001  -18.8411   17.6335 C   0  0  0  0  0  0  0  0  0  0  0  0
  -20.9948  -18.3429   19.5770 C   0  0  0  0  0  0  0  0  0  0  0  0
  -25.7897  -28.1666   21.4533 C   0  0  0  0  0  0  0  0  0  0  0  0
  -25.6075  -27.1159   19.1621 C   0  0  0  0  0  0  0  0  0  0  0  0
  -22.1756  -20.5685   19.4681 C   0  0  0  0  0  0  0  0  0  0  0  0
  -23.0103  -18.8557   21.0313 C   0  0  0  0  0  0  0  0  0  0  0  0
  -27.0201  -28.9369   20.9916 C   0  0  0  0  0  0  0  0  0  0  0  0
  -26.8391  -27.8946   18.7178 C   0  0  0  0  0  0  0  0  0  0  0  0
  -24.8490  -27.8502   20.2795 C   0  0  0  0  0  0  0  0  0  0  0  0
  -26.7634  -19.3182   16.5399 C   0  0  1  0  0  0  0  0  0  0  0  0
  -29.9815  -20.4771   18.1935 C   0  0  1  0  0  0  0  0  0  0  0  0
  -21.6910  -18.0697   20.9235 C   0  0  2  0  0  0  0  0  0  0  0  0
  -19.9056  -27.1183   21.0092 C   0  0  0  0  0  0  0  0  0  0  0  0
  -32.7133  -18.7452   25.2320 C   0  0  0  0  0  0  0  0  0  0  0  0
  -27.1744  -19.1718   21.6252 C   0  0  0  0  0  0  0  0  0  0  0  0
  -28.2605  -18.9067   23.8654 C   0  0  0  0  0  0  0  0  0  0  0  0
  -28.6501  -17.2053   22.0832 C   0  0  0  0  0  0  0  0  0  0  0  0
  -34.5101  -20.7183   22.5200 C   0  0  0  0  0  0  0  0  0  0  0  0
  -23.2049  -23.6321   22.3439 C   0  0  0  0  0  0  0  0  0  0  0  0
  -29.0195  -28.8091   19.5080 C   0  0  0  0  0  0  0  0  0  0  0  0
  -29.9183  -27.7801   18.8512 C   0  0  0  0  0  0  0  0  0  1  0  0
  -29.7248  -19.4845   21.8772 C   0  0  1  0  0  0  0  0  0  0  0  0
  -32.9725  -19.2372   23.8165 C   0  0  2  0  0  0  0  0  0  0  0  0
  -28.4581  -18.7148   22.3466 C   0  0  0  0  0  0  0  0  0  0  0  0
  -23.0523  -16.0184   20.7775 N   0  0  0  0  0  0  0  0  0  0  0  0
  -21.8950  -16.5847   21.1597 N   0  0  0  0  0  0  0  0  0  0  0  0
  -29.9615  -20.5492   19.6559 N   0  0  0  0  0  0  0  0  0  0  0  0
  -22.7767  -20.2815   20.7782 N   0  0  0  0  0  0  0  0  0  0  0  0
  -19.8078  -16.1153   22.1764 N   0  0  0  0  0  0  0  0  0  0  0  0
  -21.8793  -12.1023   22.1491 N   0  0  0  0  0  0  0  0  0  0  0  0
  -28.1052  -19.4428   17.0675 N   0  0  0  0  0  0  0  0  0  0  0  0
  -30.9596  -19.0538   22.5240 N   0  0  0  0  0  0  0  0  0  0  0  0
  -22.8914  -22.5512   21.4359 N   0  0  0  0  0  0  0  0  0  0  0  0
  -27.7436  -28.1626   19.9060 N   0  3  0  0  0  0  0  0  0  0  0  0
  -34.1303  -20.1750   23.8495 N   0  3  0  0  0  0  0  0  0  0  0  0
  -19.9520  -13.1989   22.7337 O   0  0  0  0  0  0  0  0  0  0  0  0
  -27.9093  -21.5847   17.9599 O   0  0  0  0  0  0  0  0  0  0  0  0
  -30.1403  -18.2376   19.9027 O   0  0  0  0  0  0  0  0  0  0  0  0
  -31.5180  -21.1229   23.4094 O   0  0  0  0  0  0  0  0  0  0  0  0
  -23.6421  -20.9009   22.8387 O   0  0  0  0  0  0  0  0  0  0  0  0
  -26.9718  -11.0383   20.1567 O   0  0  0  0  0  0  0  0  0  0  0  0
  -30.1703  -26.7134   19.7650 O   0  0  0  0  0  0  0  0  0  1  0  0
  -32.1294  -12.5193   21.4254 F   0  0  0  0  0  0  0  0  0  0  0  0
  -28.1496  -13.2375   18.9656 F   0  0  0  0  0  0  0  0  0  0  0  0
  -20.5915  -24.6483   22.0867 F   0  0  0  0  0  0  0  0  0  0  0  0
  -22.0462  -29.0303   19.9620 Cl  0  0  0  0  0  0  0  0  0  0  0  0
  1  2  1  0  0  0  0
  1  5  2  0  0  0  0
  2  6  2  0  0  0  0
  3  8  2  0  0  0  0
  3 16  1  0  0  0  0
  4  9  1  0  0  0  0
  4 16  2  0  0  0  0
  5 18  1  0  0  0  0
  6 20  1  0  0  0  0
  7 10  2  0  0  0  0
  7 19  1  0  0  0  0
  8 25  1  0  0  0  0
  9 25  2  0  0  0  0
 10 26  1  0  0  0  0
 11 12  2  0  0  0  0
 11 27  1  0  0  0  0
 12 28  1  0  0  0  0
 13 21  1  0  0  0  0
 13 23  2  0  0  0  0
 14 22  1  0  0  0  0
 14 26  2  0  0  0  0
 15 28  2  0  0  0  0
 15 29  1  0  0  0  0
 16 32  1  0  0  0  0
 17 32  1  0  0  0  0
 17 33  2  0  0  0  0
 17 34  1  0  0  0  0
 18 20  2  0  0  0  0
 18 39  1  0  0  0  0
 19 22  2  0  0  0  0
 19 40  1  0  0  0  0
 20 53  1  0  0  0  0
 21 31  2  0  0  0  0
 21 52  1  0  0  0  0
 22 41  1  0  0  0  0
 23 30  1  0  0  0  0
 23 62  1  0  0  0  0
 24 30  2  0  0  0  0
 24 31  1  0  0  0  0
 24 56  1  0  0  0  0
 25 84  1  0  0  0  0
 26 85  1  0  0  0  0
 27 29  2  0  0  0  0
 27 84  1  0  0  0  0
 28 86  1  0  0  0  0
 29 87  1  0  0  0  0
 30 88  1  0  0  0  0
 31 89  1  0  0  0  0
 32 68  2  0  0  0  0
 33 69  1  0  0  0  0
 33 72  1  0  0  0  0
 34 73  1  0  0  0  0
 34 79  2  0  0  0  0
 35 54  1  0  0  0  0
 35 74  1  0  0  0  0
 35 80  2  0  0  0  0
 36 65  1  0  0  0  0
 36 70  1  0  0  0  0
 36 81  2  0  0  0  0
 37 66  1  0  0  0  0
 37 75  1  0  0  0  0
 37 82  2  0  0  0  0
 38 71  1  0  0  0  0
 38 76  1  0  0  0  0
 38 83  2  0  0  0  0
 39 42  1  0  0  0  0
 40 54  1  0  0  0  0
 41 70  1  0  0  0  0
 42 44  1  0  0  0  0
 43 45  1  0  0  0  0
 43 48  1  0  0  0  0
 44 53  1  0  0  0  0
 45 55  1  0  0  0  0
 46 50  1  0  0  0  0
 46 52  1  0  0  0  0
 47 51  1  0  0  0  0
 47 52  1  0  0  0  0
 48 71  1  0  0  0  0
 49 55  1  0  0  0  0
 49 71  1  0  0  0  0
 50 77  1  0  0  0  0
 51 77  1  0  0  0  0
 53 74  1  0  0  0  0
 54 70  1  0  0  0  0
 55 69  1  0  0  0  0
 57 66  1  0  0  0  0
 58 67  1  0  0  0  0
 59 67  1  0  0  0  0
 60 67  1  0  0  0  0
 61 78  1  0  0  0  0
 62 76  1  0  0  0  0
 63 64  1  0  0  0  0
 63 77  1  0  0  0  0
 64 85  1  0  0  0  0
 65 67  1  0  0  0  0
 65 75  1  0  0  0  0
 66 78  1  0  0  0  0
 68 69  1  0  0  0  0
M  CHG  2  77   1  78   1
M  ISO  4  38 100  64 101  76 100  85 101
M  END
> <Batch ID>
0029

> <Smiles>
CNC(C)C(=O)NC(C(=O)N1Cc2cc([101O:1][101CH2:1]CN3CCC(c4cc(C[100NH:0][100C:0](=O)N5CCCC(n6nc(-c7ccc(Oc8ccc(F)cc8F)cc7)c(C(N)=O)c6N)C5)c(F)c(C)c4Cl)CC3)ccc2CC1C(=O)NC1CCCc2ccccc21)C(C)(C)C

> <Shape>
0.203

> <Color>
0.066

> <Negative vol penalty>
0.000

$$$$

  -OEChem-04052316363D

 82 90  0     1  0  0  0  0  0999 V2000
  -26.1269  -17.7901   19.4183 C   0  0  0  0  0  0  0  0  0  0  0  0
  -25.2831  -18.8950   19.4689 C   0  0  0  0  0  0  0  0  0  0  0  0
  -23.2011  -13.9179   21.2881 C   0  0  0  0  0  0  0  0  0  0  0  0
  -25.0714  -14.8930   22.4665 C   0  0  0  0  0  0  0  0  0  0  0  0
  -27.3968  -17.8574   19.9899 C   0  0  0  0  0  0  0  0  0  0  0  0
  -25.7083  -20.0676   20.0922 C   0  0  0  0  0  0  0  0  0  0  0  0
  -24.3373  -25.8094   18.4618 C   0  0  0  0  0  0  0  0  0  0  0  0
  -24.0435  -12.9390   20.7612 C   0  0  0  0  0  0  0  0  0  0  0  0
  -25.9137  -13.9140   21.9396 C   0  0  0  0  0  0  0  0  0  0  0  0
  -23.3915  -26.7182   18.9343 C   0  0  0  0  0  0  0  0  0  0  0  0
  -28.6261  -11.8864   20.6199 C   0  0  0  0  0  0  0  0  0  0  0  0
  -29.8603  -12.2961   20.1155 C   0  0  0  0  0  0  0  0  0  0  0  0
  -25.0674  -27.7149   20.3545 C   0  0  0  0  0  0  0  0  0  0  0  0
  -18.9744  -26.0663   22.4820 C   0  0  0  0  0  0  0  0  0  0  0  0
  -21.0727  -27.1267   23.0381 C   0  0  0  0  0  0  0  0  0  0  0  0
  -28.7353  -13.7111   18.5125 C   0  0  0  0  0  0  0  0  0  0  0  0
  -23.7151  -14.8950   22.1407 C   0  0  0  0  0  0  0  0  0  0  0  0
  -22.1190  -15.8455   23.8891 C   0  0  0  0  0  0  0  0  0  0  0  0
  -27.8414  -19.0346   20.6121 C   0  0  0  0  0  0  0  0  0  0  0  0
  -25.6548  -25.8396   18.9410 C   0  0  0  0  0  0  0  0  0  0  0  0
  -26.9849  -20.1503   20.6739 C   0  0  0  0  0  0  0  0  0  0  0  0
  -26.0287  -26.8070   19.8846 C   0  0  0  0  0  0  0  0  0  0  0  0
  -20.2153  -26.0293   23.1177 C   0  0  0  0  0  0  0  0  0  0  0  0
  -18.5908  -27.2006   21.7665 C   0  0  0  0  0  0  0  0  0  0  0  0
  -20.6892  -28.2610   22.3226 C   0  0  0  0  0  0  0  0  0  0  0  0
  -25.3998  -12.9370   21.0869 C   0  0  0  0  0  0  0  0  0  0  0  0
  -23.7557  -27.6692   19.8829 C   0  0  0  0  0  0  0  0  0  0  0  0
  -27.4465  -12.3889   20.0707 C   0  0  0  0  0  0  0  0  0  0  0  0
  -29.9149  -13.2085   19.0618 C   0  0  0  0  0  0  0  0  0  0  0  0
  -27.5011  -13.3013   19.0170 C   0  0  0  0  0  0  0  0  0  0  0  0
  -19.4482  -28.2979   21.6868 C   0  0  0  0  0  0  0  0  0  0  0  0
  -22.8455  -15.9069   22.6848 C   0  0  0  0  0  0  0  0  0  0  0  0
  -21.4550  -17.0462   23.9511 C   0  0  0  0  0  0  0  0  0  0  0  0
  -22.0506  -14.7968   24.8645 C   0  0  0  0  0  0  0  0  0  0  0  0
  -27.5126  -23.8044   20.5254 C   0  0  0  0  0  0  0  0  0  0  0  0
  -29.7788  -26.0627   19.9901 C   0  0  0  0  0  0  0  0  0  0  0  0
  -30.5155  -29.3315   19.3425 C   0  0  0  0  0  0  0  0  0  0  0  0
  -21.4398  -22.5013   23.5175 C   0  0  0  0  0  0  0  0  0  0  0  0
  -29.2045  -19.0443   21.2575 C   0  0  0  0  0  0  0  0  0  0  0  0
  -26.6699  -24.8695   18.4015 C   0  0  0  0  0  0  0  0  0  0  0  0
  -27.4353  -26.8945   20.4160 C   0  0  0  0  0  0  0  0  0  0  0  0
  -29.7205  -20.4465   21.5701 C   0  0  0  0  0  0  0  0  0  0  0  0
  -20.8435  -20.6570   20.4612 C   0  0  0  0  0  0  0  0  0  0  0  0
  -28.6326  -21.2783   22.2419 C   0  0  0  0  0  0  0  0  0  0  0  0
  -21.2552  -19.2427   20.8742 C   0  0  0  0  0  0  0  0  0  0  0  0
  -21.7525  -21.7050   21.0965 C   0  0  0  0  0  0  0  0  0  0  0  0
  -22.2471  -20.2165   22.9974 C   0  0  0  0  0  0  0  0  0  0  0  0
  -27.4194  -21.4482   21.3195 C   0  0  1  0  0  0  0  0  0  0  0  0
  -27.8548  -24.6612   19.3395 C   0  0  1  0  0  0  0  0  0  0  0  0
  -21.3524  -19.1122   22.4058 C   0  0  2  0  0  0  0  0  0  0  0  0
  -17.2520  -27.1957   21.1010 C   0  0  0  0  0  0  0  0  0  0  0  0
  -32.4582  -30.8816   18.9957 C   0  0  0  0  0  0  0  0  0  0  0  0
  -30.3199  -26.0525   22.9930 C   0  0  0  0  0  0  0  0  0  0  0  0
  -31.5350  -28.2233   22.7109 C   0  0  0  0  0  0  0  0  0  0  0  0
  -32.3690  -26.1709   21.5642 C   0  0  0  0  0  0  0  0  0  0  0  0
  -29.6329  -30.0113   16.6006 C   0  0  0  0  0  0  0  0  0  0  0  0
  -21.6492  -29.4242   22.2635 C   0  0  0  0  0  0  0  0  0  0  0  0
  -20.6254  -24.8166   23.8828 C   0  0  0  0  0  0  0  0  0  0  0  0
  -23.0026  -29.0301   21.6821 C   0  0  0  0  0  0  0  0  0  1  0  0
  -30.2615  -27.2887   20.7271 C   0  0  1  0  0  0  0  0  0  0  0  0
  -31.4405  -29.9729   18.3240 C   0  0  2  0  0  0  0  0  0  0  0  0
  -31.0943  -26.9312   21.9904 C   0  0  0  0  0  0  0  0  0  0  0  0
  -22.6605  -17.0556   22.0290 N   0  0  0  0  0  0  0  0  0  0  0  0
  -21.8100  -17.7271   22.8240 N   0  0  0  0  0  0  0  0  0  0  0  0
  -28.3899  -25.9200   19.8623 N   0  0  0  0  0  0  0  0  0  0  0  0
  -21.7864  -21.5373   22.5563 N   0  0  0  0  0  0  0  0  0  0  0  0
  -20.6078  -17.5753   24.8593 N   0  0  0  0  0  0  0  0  0  0  0  0
  -22.7960  -13.6305   24.6450 N   0  0  0  0  0  0  0  0  0  0  0  0
  -27.6880  -22.4507   20.3108 N   0  0  0  0  0  0  0  0  0  0  0  0
  -30.9789  -28.0976   19.7476 N   0  0  0  0  0  0  0  0  0  0  0  0
  -21.0204  -23.7278   23.0170 N   0  0  0  0  0  0  0  0  0  0  0  0
  -30.6562  -30.7843   17.3506 N   0  3  0  0  0  0  0  0  0  0  0  0
  -21.3363  -14.8846   25.8919 O   0  0  0  0  0  0  0  0  0  0  0  0
  -27.1200  -24.3325   21.5592 O   0  0  0  0  0  0  0  0  0  0  0  0
  -30.6040  -25.2649   19.5381 O   0  0  0  0  0  0  0  0  0  0  0  0
  -29.4868  -29.8727   19.7418 O   0  0  0  0  0  0  0  0  0  0  0  0
  -21.4949  -22.2834   24.7326 O   0  0  0  0  0  0  0  0  0  0  0  0
  -26.2220  -11.9817   20.5731 O   0  0  0  0  0  0  0  0  0  0  0  0
  -22.8343  -28.5570   20.3463 O   0  0  0  0  0  0  0  0  0  1  0  0
  -31.1002  -13.6030   18.5784 F   0  0  0  0  0  0  0  0  0  0  0  0
  -26.3713  -13.7884   18.4860 F   0  0  0  0  0  0  0  0  0  0  0  0
  -18.9720  -29.7061   20.7983 Cl  0  0  0  0  0  0  0  0  0  0  0  0
  1  2  1  0  0  0  0
  1  5  2  0  0  0  0
  2  6  2  0  0  0  0
  3  8  2  0  0  0  0
  3 17  1  0  0  0  0
  4  9  1  0  0  0  0
  4 17  2  0  0  0  0
  5 19  1  0  0  0  0
  6 21  1  0  0  0  0
  7 10  2  0  0  0  0
  7 20  1  0  0  0  0
  8 26  1  0  0  0  0
  9 26  2  0  0  0  0
 10 27  1  0  0  0  0
 11 12  2  0  0  0  0
 11 28  1  0  0  0  0
 12 29  1  0  0  0  0
 13 22  1  0  0  0  0
 13 27  2  0  0  0  0
 14 23  1  0  0  0  0
 14 24  2  0  0  0  0
 15 23  2  0  0  0  0
 15 25  1  0  0  0  0
 16 29  2  0  0  0  0
 16 30  1  0  0  0  0
 17 32  1  0  0  0  0
 18 32  1  0  0  0  0
 18 33  2  0  0  0  0
 18 34  1  0  0  0  0
 19 21  2  0  0  0  0
 19 39  1  0  0  0  0
 20 22  2  0  0  0  0
 20 40  1  0  0  0  0
 21 48  1  0  0  0  0
 22 41  1  0  0  0  0
 23 58  1  0  0  0  0
 24 31  1  0  0  0  0
 24 51  1  0  0  0  0
 25 31  2  0  0  0  0
 25 57  1  0  0  0  0
 26 78  1  0  0  0  0
 27 79  1  0  0  0  0
 28 30  2  0  0  0  0
 28 78  1  0  0  0  0
 29 80  1  0  0  0  0
 30 81  1  0  0  0  0
 31 82  1  0  0  0  0
 32 63  2  0  0  0  0
 33 64  1  0  0  0  0
 33 67  1  0  0  0  0
 34 68  1  0  0  0  0
 34 73  2  0  0  0  0
 35 49  1  0  0  0  0
 35 69  1  0  0  0  0
 35 74  2  0  0  0  0
 36 60  1  0  0  0  0
 36 65  1  0  0  0  0
 36 75  2  0  0  0  0
 37 61  1  0  0  0  0
 37 70  1  0  0  0  0
 37 76  2  0  0  0  0
 38 66  1  0  0  0  0
 38 71  1  0  0  0  0
 38 77  2  0  0  0  0
 39 42  1  0  0  0  0
 40 49  1  0  0  0  0
 41 65  1  0  0  0  0
 42 44  1  0  0  0  0
 43 45  1  0  0  0  0
 43 46  1  0  0  0  0
 44 48  1  0  0  0  0
 45 50  1  0  0  0  0
 46 66  1  0  0  0  0
 47 50  1  0  0  0  0
 47 66  1  0  0  0  0
 48 69  1  0  0  0  0
 49 65  1  0  0  0  0
 50 64  1  0  0  0  0
 52 61  1  0  0  0  0
 53 62  1  0  0  0  0
 54 62  1  0  0  0  0
 55 62  1  0  0  0  0
 56 72  1  0  0  0  0
 57 59  1  0  0  0  0
 58 71  1  0  0  0  0
 59 79  1  0  0  0  0
 60 62  1  0  0  0  0
 60 70  1  0  0  0  0
 61 72  1  0  0  0  0
 63 64  1  0  0  0  0
M  CHG  1  72   1
M  ISO  4  38 100  59 101  71 100  79 101
M  END
> <Batch ID>
0029

> <Smiles>
CNC(C)C(=O)NC(C(=O)N1Cc2cc([101O:1][101CH2:1]Cc3cc(C[100NH:0][100C:0](=O)N4CCCC(n5nc(-c6ccc(Oc7ccc(F)cc7F)cc6)c(C(N)=O)c5N)C4)cc(C)c3Cl)ccc2CC1C(=O)NC1CCCc2ccccc21)C(C)(C)C

> <Shape>
0.221

> <Color>
0.066

> <Negative vol penalty>
0.000

$$$$

  -OEChem-04052316363D

 82 90  0     1  0  0  0  0  0999 V2000
  -28.6533  -21.8116   26.9565 C   0  0  0  0  0  0  0  0  0  0  0  0
  -28.1350  -22.9220   26.2978 C   0  0  0  0  0  0  0  0  0  0  0  0
  -29.8572  -17.4670   21.4096 C   0  0  0  0  0  0  0  0  0  0  0  0
  -31.4394  -18.2378   19.7544 C   0  0  0  0  0  0  0  0  0  0  0  0
  -28.3433  -20.5286   26.5074 C   0  0  0  0  0  0  0  0  0  0  0  0
  -27.3072  -22.7500   25.1890 C   0  0  0  0  0  0  0  0  0  0  0  0
  -23.2299  -25.7504   25.3244 C   0  0  0  0  0  0  0  0  0  0  0  0
  -30.2037  -16.1461   21.1257 C   0  0  0  0  0  0  0  0  0  0  0  0
  -31.7859  -16.9168   19.4705 C   0  0  0  0  0  0  0  0  0  0  0  0
  -23.4112  -27.0873   24.9727 C   0  0  0  0  0  0  0  0  0  0  0  0
  -30.4133  -12.5567   20.5816 C   0  0  0  0  0  0  0  0  0  0  0  0
  -29.3805  -11.6303   20.4379 C   0  0  0  0  0  0  0  0  0  0  0  0
  -22.5373  -26.6208   22.7731 C   0  0  0  0  0  0  0  0  0  0  0  0
  -25.1790  -29.4169   19.4193 C   0  0  0  0  0  0  0  0  0  0  0  0
  -28.4813  -12.9177   18.6018 C   0  0  0  0  0  0  0  0  0  0  0  0
  -30.4751  -18.5129   20.7239 C   0  0  0  0  0  0  0  0  0  0  0  0
  -30.7067  -20.7246   21.9740 C   0  0  0  0  0  0  0  0  0  0  0  0
  -27.5034  -20.3406   25.3983 C   0  0  0  0  0  0  0  0  0  0  0  0
  -22.7103  -24.8349   24.3980 C   0  0  0  0  0  0  0  0  0  0  0  0
  -26.9867  -21.4633   24.7238 C   0  0  0  0  0  0  0  0  0  0  0  0
  -22.3480  -25.2734   23.1164 C   0  0  0  0  0  0  0  0  0  0  0  0
  -24.6820  -30.0013   20.5790 C   0  0  0  0  0  0  0  0  0  0  0  0
  -25.4179  -29.9311   21.7566 C   0  0  0  0  0  0  0  0  0  0  0  0
  -31.1680  -15.8710   20.1561 C   0  0  0  0  0  0  0  0  0  0  0  0
  -23.0676  -27.5221   23.6959 C   0  0  0  0  0  0  0  0  0  0  0  0
  -30.4801  -13.6637   19.7355 C   0  0  0  0  0  0  0  0  0  0  0  0
  -28.4145  -11.8108   19.4480 C   0  0  0  0  0  0  0  0  0  0  0  0
  -29.5141  -13.8442   18.7456 C   0  0  0  0  0  0  0  0  0  0  0  0
  -30.1172  -19.8777   21.0163 C   0  0  0  0  0  0  0  0  0  0  0  0
  -26.4070  -28.7792   19.4894 C   0  0  0  0  0  0  0  0  0  0  0  0
  -26.6352  -29.2702   21.7221 C   0  0  0  0  0  0  0  0  0  0  0  0
  -30.0143  -21.9053   21.8607 C   0  0  0  0  0  0  0  0  0  0  0  0
  -31.7839  -20.4670   22.8844 C   0  0  0  0  0  0  0  0  0  0  0  0
  -23.7922  -22.1860   23.0135 C   0  0  0  0  0  0  0  0  0  0  0  0
  -20.7711  -22.0302   21.8424 C   0  0  0  0  0  0  0  0  0  0  0  0
  -17.8977  -23.6731   21.0113 C   0  0  0  0  0  0  0  0  0  0  0  0
  -27.8702  -25.8853   18.7769 C   0  0  0  0  0  0  0  0  0  0  0  0
  -27.2348  -18.9354   24.9211 C   0  0  0  0  0  0  0  0  0  0  0  0
  -22.4959  -23.4018   24.8016 C   0  0  0  0  0  0  0  0  0  0  0  0
  -21.7673  -24.3347   22.0917 C   0  0  0  0  0  0  0  0  0  0  0  0
  -26.0480  -18.8327   23.9665 C   0  0  0  0  0  0  0  0  0  0  0  0
  -25.7598  -23.0023   19.3532 C   0  0  0  0  0  0  0  0  0  0  0  0
  -26.1245  -19.9212   22.9006 C   0  0  0  0  0  0  0  0  0  0  0  0
  -26.7649  -21.9981   19.9202 C   0  0  0  0  0  0  0  0  0  0  0  0
  -26.3892  -23.8540   18.2546 C   0  0  0  0  0  0  0  0  0  0  0  0
  -28.6334  -23.5719   19.2332 C   0  0  0  0  0  0  0  0  0  0  0  0
  -26.0652  -21.3172   23.5324 C   0  0  1  0  0  0  0  0  0  0  0  0
  -22.4392  -22.4482   23.6122 C   0  0  1  0  0  0  0  0  0  0  0  0
  -28.0644  -22.6958   20.3640 C   0  0  2  0  0  0  0  0  0  0  0  0
  -23.3599  -30.6941   20.5339 C   0  0  0  0  0  0  0  0  0  0  0  0
  -15.6161  -23.2841   20.0416 C   0  0  0  0  0  0  0  0  0  0  0  0
  -21.9964  -21.8029   19.0572 C   0  0  0  0  0  0  0  0  0  0  0  0
  -19.7537  -22.3714   18.1003 C   0  0  0  0  0  0  0  0  0  0  0  0
  -20.0384  -20.3004   19.4614 C   0  0  0  0  0  0  0  0  0  0  0  0
  -16.5613  -24.6203   23.4763 C   0  0  0  0  0  0  0  0  0  0  0  0
  -24.8942  -30.5595   23.0252 C   0  0  0  0  0  0  0  0  0  0  0  0
  -26.9715  -28.1407   18.2643 C   0  0  0  0  0  0  0  0  0  0  0  0
  -24.3117  -29.5282   23.9854 C   0  0  0  0  0  0  0  0  0  1  0  0
  -20.0742  -22.5527   20.6094 C   0  0  1  0  0  0  0  0  0  0  0  0
  -16.4412  -23.3723   21.3160 C   0  0  2  0  0  0  0  0  0  0  0  0
  -20.4784  -21.7744   19.3255 C   0  0  0  0  0  0  0  0  0  0  0  0
  -29.1264  -20.4700   20.3444 N   0  0  0  0  0  0  0  0  0  0  0  0
  -27.1506  -28.6904   20.6149 N   0  0  0  0  0  0  0  0  0  0  0  0
  -29.0880  -21.7017   20.8806 N   0  0  0  0  0  0  0  0  0  0  0  0
  -21.5827  -22.9420   22.5321 N   0  0  0  0  0  0  0  0  0  0  0  0
  -27.6113  -24.5049   18.7473 N   0  0  0  0  0  0  0  0  0  0  0  0
  -30.1135  -23.0875   22.5050 N   0  0  0  0  0  0  0  0  0  0  0  0
  -32.3835  -19.2003   22.8687 N   0  0  0  0  0  0  0  0  0  0  0  0
  -24.7052  -21.6481   23.9003 N   0  0  0  0  0  0  0  0  0  0  0  0
  -18.6456  -22.5198   20.9032 N   0  0  0  0  0  0  0  0  0  0  0  0
  -26.8540  -26.6997   18.2925 N   0  0  0  0  0  0  0  0  0  0  0  0
  -15.8612  -24.4403   22.1784 N   0  3  0  0  0  0  0  0  0  0  0  0
  -32.1915  -21.3291   23.6993 O   0  0  0  0  0  0  0  0  0  0  0  0
  -23.9924  -22.4508   21.8339 O   0  0  0  0  0  0  0  0  0  0  0  0
  -20.5961  -20.8582   22.1851 O   0  0  0  0  0  0  0  0  0  0  0  0
  -18.3280  -24.8167   20.8786 O   0  0  0  0  0  0  0  0  0  0  0  0
  -28.9273  -26.3579   19.2085 O   0  0  0  0  0  0  0  0  0  0  0  0
  -31.5065  -14.5821   19.8790 O   0  0  0  0  0  0  0  0  0  0  0  0
  -23.2441  -28.8263   23.3498 O   0  0  0  0  0  0  0  0  0  1  0  0
  -27.4236  -10.9203   19.3091 F   0  0  0  0  0  0  0  0  0  0  0  0
  -29.5737  -14.9050   17.9290 F   0  0  0  0  0  0  0  0  0  0  0  0
  -27.6406  -29.1170   23.1098 Cl  0  0  0  0  0  0  0  0  0  0  0  0
  1  2  1  0  0  0  0
  1  5  2  0  0  0  0
  2  6  2  0  0  0  0
  3  8  2  0  0  0  0
  3 16  1  0  0  0  0
  4  9  1  0  0  0  0
  4 16  2  0  0  0  0
  5 18  1  0  0  0  0
  6 20  1  0  0  0  0
  7 10  2  0  0  0  0
  7 19  1  0  0  0  0
  8 24  1  0  0  0  0
  9 24  2  0  0  0  0
 10 25  1  0  0  0  0
 11 12  2  0  0  0  0
 11 26  1  0  0  0  0
 12 27  1  0  0  0  0
 13 21  1  0  0  0  0
 13 25  2  0  0  0  0
 14 22  2  0  0  0  0
 14 30  1  0  0  0  0
 15 27  2  0  0  0  0
 15 28  1  0  0  0  0
 16 29  1  0  0  0  0
 17 29  1  0  0  0  0
 17 32  2  0  0  0  0
 17 33  1  0  0  0  0
 18 20  2  0  0  0  0
 18 38  1  0  0  0  0
 19 21  2  0  0  0  0
 19 39  1  0  0  0  0
 20 47  1  0  0  0  0
 21 40  1  0  0  0  0
 22 23  1  0  0  0  0
 22 50  1  0  0  0  0
 23 31  2  0  0  0  0
 23 56  1  0  0  0  0
 24 78  1  0  0  0  0
 25 79  1  0  0  0  0
 26 28  2  0  0  0  0
 26 78  1  0  0  0  0
 27 80  1  0  0  0  0
 28 81  1  0  0  0  0
 29 62  2  0  0  0  0
 30 57  1  0  0  0  0
 30 63  2  0  0  0  0
 31 63  1  0  0  0  0
 31 82  1  0  0  0  0
 32 64  1  0  0  0  0
 32 67  1  0  0  0  0
 33 68  1  0  0  0  0
 33 73  2  0  0  0  0
 34 48  1  0  0  0  0
 34 69  1  0  0  0  0
 34 74  2  0  0  0  0
 35 59  1  0  0  0  0
 35 65  1  0  0  0  0
 35 75  2  0  0  0  0
 36 60  1  0  0  0  0
 36 70  1  0  0  0  0
 36 76  2  0  0  0  0
 37 66  1  0  0  0  0
 37 71  1  0  0  0  0
 37 77  2  0  0  0  0
 38 41  1  0  0  0  0
 39 48  1  0  0  0  0
 40 65  1  0  0  0  0
 41 43  1  0  0  0  0
 42 44  1  0  0  0  0
 42 45  1  0  0  0  0
 43 47  1  0  0  0  0
 44 49  1  0  0  0  0
 45 66  1  0  0  0  0
 46 49  1  0  0  0  0
 46 66  1  0  0  0  0
 47 69  1  0  0  0  0
 48 65  1  0  0  0  0
 49 64  1  0  0  0  0
 51 60  1  0  0  0  0
 52 61  1  0  0  0  0
 53 61  1  0  0  0  0
 54 61  1  0  0  0  0
 55 72  1  0  0  0  0
 56 58  1  0  0  0  0
 57 71  1  0  0  0  0
 58 79  1  0  0  0  0
 59 61  1  0  0  0  0
 59 70  1  0  0  0  0
 60 72  1  0  0  0  0
 62 64  1  0  0  0  0
M  CHG  1  72   1
M  ISO  4  37 100  58 101  71 100  79 101
M  END
> <Batch ID>
0029

> <Smiles>
CNC(C)C(=O)NC(C(=O)N1Cc2cc([101O:1][101CH2:1]Cc3c(C)cc(C[100NH:0][100C:0](=O)N4CCCC(n5nc(-c6ccc(Oc7ccc(F)cc7F)cc6)c(C(N)=O)c5N)C4)nc3Cl)ccc2CC1C(=O)NC1CCCc2ccccc21)C(C)(C)C

> <Shape>
0.166

> <Color>
0.083

> <Negative vol penalty>
0.000

$$$$

  -OEChem-04052316363D

 87 96  0     1  0  0  0  0  0999 V2000
  -19.6285  -10.6437   17.9748 C   0  0  0  0  0  0  0  0  0  0  0  0
  -19.2889  -11.9418   17.6077 C   0  0  0  0  0  0  0  0  0  0  0  0
  -29.9856  -24.9853   20.4813 C   0  0  0  0  0  0  0  0  0  0  0  0
  -27.8837  -24.3055   21.4596 C   0  0  0  0  0  0  0  0  0  0  0  0
  -20.2955  -10.4123   19.1771 C   0  0  0  0  0  0  0  0  0  0  0  0
  -19.6152  -13.0094   18.4433 C   0  0  0  0  0  0  0  0  0  0  0  0
  -21.4992  -19.9165   18.1993 C   0  0  0  0  0  0  0  0  0  0  0  0
  -30.6421  -23.9826   21.1949 C   0  0  0  0  0  0  0  0  0  0  0  0
  -28.5402  -23.3027   22.1732 C   0  0  0  0  0  0  0  0  0  0  0  0
  -21.1330  -21.1522   18.7310 C   0  0  0  0  0  0  0  0  0  0  0  0
  -32.9244  -21.8315   23.0354 C   0  0  0  0  0  0  0  0  0  0  0  0
  -34.1185  -22.1641   23.6750 C   0  0  0  0  0  0  0  0  0  0  0  0
  -22.3561  -20.6406   20.7464 C   0  0  0  0  0  0  0  0  0  0  0  0
  -17.2111  -30.4356   23.9299 C   0  0  0  0  0  0  0  0  0  0  0  0
  -32.9525  -23.8228   24.9890 C   0  0  0  0  0  0  0  0  0  0  0  0
  -28.6064  -25.1468   20.6137 C   0  0  0  0  0  0  0  0  0  0  0  0
  -27.8724  -26.3347   18.4788 C   0  0  0  0  0  0  0  0  0  0  0  0
  -20.6387  -11.4786   20.0233 C   0  0  0  0  0  0  0  0  0  0  0  0
  -22.2888  -19.0275   18.9427 C   0  0  0  0  0  0  0  0  0  0  0  0
  -20.2862  -12.7920   19.6587 C   0  0  0  0  0  0  0  0  0  0  0  0
  -22.7330  -19.3953   20.2208 C   0  0  0  0  0  0  0  0  0  0  0  0
  -18.9376  -28.9293   23.1876 C   0  0  0  0  0  0  0  0  0  0  0  0
  -18.5567  -30.1642   23.7126 C   0  0  0  0  0  0  0  0  0  0  0  0
  -29.9194  -23.1413   22.0408 C   0  0  0  0  0  0  0  0  0  0  0  0
  -21.5591  -21.5133   20.0059 C   0  0  0  0  0  0  0  0  0  0  0  0
  -31.7444  -22.4945   23.3725 C   0  0  0  0  0  0  0  0  0  0  0  0
  -34.1325  -23.1598   24.6518 C   0  0  0  0  0  0  0  0  0  0  0  0
  -31.7584  -23.4902   24.3493 C   0  0  0  0  0  0  0  0  0  0  0  0
  -27.9278  -26.1828   19.8772 C   0  0  0  0  0  0  0  0  0  0  0  0
  -17.9344  -28.0065   22.8918 C   0  0  0  0  0  0  0  0  0  0  0  0
  -16.2901  -29.4540   23.6057 C   0  0  0  0  0  0  0  0  0  0  0  0
  -27.1127  -27.4625   18.2858 C   0  0  0  0  0  0  0  0  0  0  0  0
  -28.4556  -25.5284   17.4465 C   0  0  0  0  0  0  0  0  0  0  0  0
  -21.8812  -16.0956   20.1008 C   0  0  0  0  0  0  0  0  0  0  0  0
  -25.0095  -16.3987   20.9035 C   0  0  0  0  0  0  0  0  0  0  0  0
  -27.6325  -18.4648   21.6089 C   0  0  0  0  0  0  0  0  0  0  0  0
  -22.9233  -30.1724   21.5959 C   0  0  0  0  0  0  0  0  0  0  0  0
  -21.3176  -11.1746   21.3353 C   0  0  0  0  0  0  0  0  0  0  0  0
  -22.6974  -17.7094   18.3443 C   0  0  0  0  0  0  0  0  0  0  0  0
  -23.5991  -18.4854   21.0516 C   0  0  0  0  0  0  0  0  0  0  0  0
  -18.3162  -26.7130   22.2366 C   0  0  0  0  0  0  0  0  0  0  0  0
  -21.9595  -12.3970   21.9865 C   0  0  0  0  0  0  0  0  0  0  0  0
  -25.9527  -31.6009   20.3879 C   0  0  0  0  0  0  0  0  0  0  0  0
  -20.9973  -13.5804   21.9649 C   0  0  0  0  0  0  0  0  0  0  0  0
  -26.7974  -30.3880   19.9939 C   0  0  0  0  0  0  0  0  0  0  0  0
  -25.1159  -31.3247   21.6351 C   0  0  0  0  0  0  0  0  0  0  0  0
  -25.1155  -28.9054   21.1652 C   0  0  0  0  0  0  0  0  0  0  0  0
  -20.6144  -27.1028   23.3367 C   0  0  0  0  0  0  0  0  0  0  0  0
  -20.3790  -28.5664   22.9428 C   0  0  1  0  0  0  0  0  0  0  0  0
  -20.6449  -13.9787   20.5266 C   0  0  1  0  0  0  0  0  0  0  0  0
  -23.0765  -16.6688   19.3935 C   0  0  1  0  0  0  0  0  0  0  0  0
  -25.9346  -29.1168   19.8804 C   0  0  2  0  0  0  0  0  0  0  0  0
  -19.5109  -31.2234   24.1406 C   0  0  0  0  0  0  0  0  0  0  0  0
  -14.8376  -29.7061   23.8424 C   0  0  0  0  0  0  0  0  0  0  0  0
  -30.0541  -18.4201   22.2658 C   0  0  0  0  0  0  0  0  0  0  0  0
  -24.2193  -15.6631   23.7573 C   0  0  0  0  0  0  0  0  0  0  0  0
  -26.4325  -16.5475   24.5239 C   0  0  0  0  0  0  0  0  0  0  0  0
  -26.3410  -14.6082   22.9576 C   0  0  0  0  0  0  0  0  0  0  0  0
  -28.4464  -19.8922   19.1474 C   0  0  0  0  0  0  0  0  0  0  0  0
  -20.8049  -28.8826   21.5090 C   0  0  0  0  0  0  0  0  0  0  0  0
  -19.3937  -24.1294   21.2280 C   0  0  0  0  0  0  0  0  0  0  0  0
  -20.2889  -25.3003   21.6046 C   0  0  0  0  0  0  0  0  0  0  0  0
  -19.9541  -23.2655   20.1049 C   0  0  0  0  0  0  0  0  0  1  0  0
  -25.7590  -16.9168   22.1071 C   0  0  1  0  0  0  0  0  0  0  0  0
  -29.0664  -18.4783   21.1108 C   0  0  2  0  0  0  0  0  0  0  0  0
  -25.6700  -15.9505   23.3219 C   0  0  0  0  0  0  0  0  0  0  0  0
  -27.2569  -27.1378   20.5266 N   0  0  0  0  0  0  0  0  0  0  0  0
  -16.6167  -28.2497   23.0860 N   0  0  0  0  0  0  0  0  0  0  0  0
  -26.7727  -27.9007   19.5318 N   0  0  0  0  0  0  0  0  0  0  0  0
  -23.9668  -17.2048   20.4252 N   0  0  0  0  0  0  0  0  0  0  0  0
  -24.3200  -30.1071   21.4618 N   0  0  0  0  0  0  0  0  0  0  0  0
  -26.7090  -28.1123   17.1735 N   0  0  0  0  0  0  0  0  0  0  0  0
  -27.7086  -24.4606   16.9307 N   0  0  0  0  0  0  0  0  0  0  0  0
  -21.7273  -14.7328   19.9314 N   0  0  0  0  0  0  0  0  0  0  0  0
  -27.1201  -17.1856   21.6558 N   0  0  0  0  0  0  0  0  0  0  0  0
  -22.2445  -28.9744   21.4097 N   0  0  0  0  0  0  0  0  0  0  0  0
  -19.6480  -26.1323   22.6825 N   0  3  2  0  0  0  0  0  0  0  0  0
  -29.3313  -19.7184   20.3280 N   0  3  0  0  0  0  0  0  0  0  0  0
  -29.6114  -25.7383   17.0065 O   0  0  0  0  0  0  0  0  0  0  0  0
  -21.1534  -16.8347   20.7533 O   0  0  0  0  0  0  0  0  0  0  0  0
  -25.3417  -15.3219   20.4017 O   0  0  0  0  0  0  0  0  0  0  0  0
  -27.0287  -19.4866   21.9282 O   0  0  0  0  0  0  0  0  0  0  0  0
  -22.3251  -31.2218   21.8566 O   0  0  0  0  0  0  0  0  0  0  0  0
  -30.5596  -22.1626   22.7371 O   0  0  0  0  0  0  0  0  0  0  0  0
  -21.2026  -22.7185   20.5275 O   0  0  0  0  0  0  0  0  0  1  0  0
  -35.2790  -23.4781   25.2670 F   0  0  0  0  0  0  0  0  0  0  0  0
  -30.6278  -24.1298   24.6782 F   0  0  0  0  0  0  0  0  0  0  0  0
  1  2  1  0  0  0  0
  1  5  2  0  0  0  0
  2  6  2  0  0  0  0
  3  8  2  0  0  0  0
  3 16  1  0  0  0  0
  4  9  1  0  0  0  0
  4 16  2  0  0  0  0
  5 18  1  0  0  0  0
  6 20  1  0  0  0  0
  7 10  2  0  0  0  0
  7 19  1  0  0  0  0
  8 24  1  0  0  0  0
  9 24  2  0  0  0  0
 10 25  1  0  0  0  0
 11 12  2  0  0  0  0
 11 26  1  0  0  0  0
 12 27  1  0  0  0  0
 13 21  1  0  0  0  0
 13 25  2  0  0  0  0
 14 23  2  0  0  0  0
 14 31  1  0  0  0  0
 15 27  2  0  0  0  0
 15 28  1  0  0  0  0
 16 29  1  0  0  0  0
 17 29  1  0  0  0  0
 17 32  2  0  0  0  0
 17 33  1  0  0  0  0
 18 20  2  0  0  0  0
 18 38  1  0  0  0  0
 19 21  2  0  0  0  0
 19 39  1  0  0  0  0
 20 50  1  0  0  0  0
 21 40  1  0  0  0  0
 22 23  1  0  0  0  0
 22 30  2  0  0  0  0
 22 49  1  0  0  0  0
 23 53  1  0  0  0  0
 24 84  1  0  0  0  0
 25 85  1  0  0  0  0
 26 28  2  0  0  0  0
 26 84  1  0  0  0  0
 27 86  1  0  0  0  0
 28 87  1  0  0  0  0
 29 67  2  0  0  0  0
 30 41  1  0  0  0  0
 30 68  1  0  0  0  0
 31 54  1  0  0  0  0
 31 68  2  0  0  0  0
 32 69  1  0  0  0  0
 32 72  1  0  0  0  0
 33 73  1  0  0  0  0
 33 79  2  0  0  0  0
 34 51  1  0  0  0  0
 34 74  1  0  0  0  0
 34 80  2  0  0  0  0
 35 64  1  0  0  0  0
 35 70  1  0  0  0  0
 35 81  2  0  0  0  0
 36 65  1  0  0  0  0
 36 75  1  0  0  0  0
 36 82  2  0  0  0  0
 37 71  1  0  0  0  0
 37 76  1  0  0  0  0
 37 83  2  0  0  0  0
 38 42  1  0  0  0  0
 39 51  1  0  0  0  0
 40 70  1  0  0  0  0
 41 77  1  0  0  0  0
 42 44  1  0  0  0  0
 43 45  1  0  0  0  0
 43 46  1  0  0  0  0
 44 50  1  0  0  0  0
 45 52  1  0  0  0  0
 46 71  1  0  0  0  0
 47 52  1  0  0  0  0
 47 71  1  0  0  0  0
 48 49  1  0  0  0  0
 48 77  1  0  0  0  0
 49 60  1  0  0  0  0
 50 74  1  0  0  0  0
 51 70  1  0  0  0  0
 52 69  1  0  0  0  0
 55 65  1  0  0  0  0
 56 66  1  0  0  0  0
 57 66  1  0  0  0  0
 58 66  1  0  0  0  0
 59 78  1  0  0  0  0
 60 76  1  0  0  0  0
 61 62  1  0  0  0  0
 61 63  1  0  0  0  0
 62 77  1  0  0  0  0
 63 85  1  0  0  0  0
 64 66  1  0  0  0  0
 64 75  1  0  0  0  0
 65 78  1  0  0  0  0
 67 69  1  0  0  0  0
M  CHG  2  77   1  78   1
M  ISO  4  37 100  63 101  76 100  85 101
M  END
> <Batch ID>
0029

> <Smiles>
CNC(C)C(=O)NC(C(=O)N1Cc2cc([101O:1][101CH2:1]CCN3Cc4nc(C)cc(C)c4C(C[100NH:0][100C:0](=O)N4CCCC(n5nc(-c6ccc(Oc7ccc(F)cc7F)cc6)c(C(N)=O)c5N)C4)C3)ccc2CC1C(=O)NC1CCCc2ccccc21)C(C)(C)C

> <Shape>
0.212

> <Color>
0.067

> <Negative vol penalty>
0.000

$$$$
