
  -OEChem-04052316393D

 89 99  0     1  0  0  0  0  0999 V2000
  -40.0468  -21.4105   28.8263 C   0  0  0  0  0  0  0  0  0  0  0  0
  -38.8762  -20.7561   28.4563 C   0  0  0  0  0  0  0  0  0  0  0  0
  -22.6930  -10.2028   20.1442 C   0  0  0  0  0  0  0  0  0  0  0  0
  -24.2952   -9.4229   21.7757 C   0  0  0  0  0  0  0  0  0  0  0  0
  -40.0018  -22.7465   29.2224 C   0  0  0  0  0  0  0  0  0  0  0  0
  -37.6597  -21.4371   28.4832 C   0  0  0  0  0  0  0  0  0  0  0  0
  -32.9451  -20.7050   24.6436 C   0  0  0  0  0  0  0  0  0  0  0  0
  -21.9439   -9.0400   20.3239 C   0  0  0  0  0  0  0  0  0  0  0  0
  -23.5461   -8.2601   21.9555 C   0  0  0  0  0  0  0  0  0  0  0  0
  -31.7561  -19.9839   24.7449 C   0  0  0  0  0  0  0  0  0  0  0  0
  -21.8660   -5.2492   23.1088 C   0  0  0  0  0  0  0  0  0  0  0  0
  -21.6421   -4.8167   24.4158 C   0  0  0  0  0  0  0  0  0  0  0  0
  -30.6152  -21.9795   25.4765 C   0  0  0  0  0  0  0  0  0  0  0  0
  -25.6518  -16.9918   26.9703 C   0  0  0  0  0  0  0  0  0  0  0  0
  -20.5206   -6.8982   24.9125 C   0  0  0  0  0  0  0  0  0  0  0  0
  -23.8687  -10.3943   20.8700 C   0  0  0  0  0  0  0  0  0  0  0  0
  -24.2217  -12.9205   20.9014 C   0  0  0  0  0  0  0  0  0  0  0  0
  -38.7855  -23.4471   29.2449 C   0  0  0  0  0  0  0  0  0  0  0  0
  -32.9804  -22.0686   24.9690 C   0  0  0  0  0  0  0  0  0  0  0  0
  -37.5982  -22.7834   28.8812 C   0  0  0  0  0  0  0  0  0  0  0  0
  -31.8052  -22.7162   25.3760 C   0  0  0  0  0  0  0  0  0  0  0  0
  -27.7627  -17.9028   27.6213 C   0  0  0  0  0  0  0  0  0  0  0  0
  -28.0470  -18.2048   26.2821 C   0  0  0  0  0  0  0  0  0  0  0  0
  -26.5687  -17.2963   27.9783 C   0  0  0  0  0  0  0  0  0  0  0  0
  -25.9392  -17.2876   25.6287 C   0  0  0  0  0  0  0  0  0  0  0  0
  -27.1470  -17.8935   25.2756 C   0  0  0  0  0  0  0  0  0  0  0  0
  -22.3705   -8.0686   21.2296 C   0  0  0  0  0  0  0  0  0  0  0  0
  -30.5916  -20.6205   25.1641 C   0  0  0  0  0  0  0  0  0  0  0  0
  -21.4173   -6.5063   22.7036 C   0  0  0  0  0  0  0  0  0  0  0  0
  -20.9694   -5.6411   25.3177 C   0  0  0  0  0  0  0  0  0  0  0  0
  -20.7445   -7.3307   23.6054 C   0  0  0  0  0  0  0  0  0  0  0  0
  -24.6432  -11.5950   20.6844 C   0  0  0  0  0  0  0  0  0  0  0  0
  -25.3174  -13.6855   20.5842 C   0  0  0  0  0  0  0  0  0  0  0  0
  -22.9531  -13.4160   21.3497 C   0  0  0  0  0  0  0  0  0  0  0  0
  -34.5082  -23.8179   27.1392 C   0  0  0  0  0  0  0  0  0  0  0  0
  -33.1613  -26.2893   25.5266 C   0  0  0  0  0  0  0  0  0  0  0  0
  -30.6602  -27.3976   23.4862 C   0  0  0  0  0  0  0  0  0  0  0  0
  -30.6852  -14.7576   20.6770 C   0  0  0  0  0  0  0  0  0  0  0  0
  -38.7799  -24.8766   29.7255 C   0  0  0  0  0  0  0  0  0  0  0  0
  -34.2650  -22.8384   24.8289 C   0  0  0  0  0  0  0  0  0  0  0  0
  -31.7857  -24.1830   25.7176 C   0  0  0  0  0  0  0  0  0  0  0  0
  -37.5041  -25.6346   29.3676 C   0  0  0  0  0  0  0  0  0  0  0  0
  -29.6568  -12.4600   18.3069 C   0  0  0  0  0  0  0  0  0  0  0  0
  -36.2742  -24.7925   29.6914 C   0  0  0  0  0  0  0  0  0  0  0  0
  -28.2225  -12.1301   18.7198 C   0  0  0  0  0  0  0  0  0  0  0  0
  -29.0614  -17.8468   21.9205 C   0  0  0  0  0  0  0  0  0  0  0  0
  -28.5865  -15.9683   23.5313 C   0  0  0  0  0  0  0  0  0  0  0  0
  -29.6633  -19.2768   27.6017 C   0  0  0  0  0  0  0  0  0  0  0  0
  -30.5649  -12.5677   19.5266 C   0  0  0  0  0  0  0  0  0  0  0  0
  -30.2772  -17.0778   21.4111 C   0  0  0  0  0  0  0  0  0  0  0  0
  -29.8135  -15.2377   22.9958 C   0  0  0  0  0  0  0  0  0  0  0  0
  -28.6683  -13.2484   20.9601 C   0  0  0  0  0  0  0  0  0  0  0  0
  -28.8984  -18.3031   28.5215 C   0  0  2  0  0  0  0  0  0  0  0  0
  -36.2628  -23.4953   28.8736 C   0  0  1  0  0  0  0  0  0  0  0  0
  -29.4097  -18.8153   26.1564 C   0  0  2  0  0  0  0  0  0  1  0  0
  -34.2986  -24.1046   25.6792 C   0  0  1  0  0  0  0  0  0  0  0  0
  -28.7317  -17.4881   23.3753 C   0  0  0  0  0  0  0  0  0  0  0  0
  -27.7029  -13.1350   19.7632 C   0  0  2  0  0  0  0  0  0  0  0  0
  -26.2100  -16.9869   29.3892 C   0  0  0  0  0  0  0  0  0  0  0  0
  -24.9230  -16.9478   24.5863 C   0  0  0  0  0  0  0  0  0  0  0  0
  -29.7446  -17.1073   28.9414 C   0  0  0  0  0  0  0  0  0  0  0  0
  -29.8033  -29.4757   22.3706 C   0  0  0  0  0  0  0  0  0  0  0  0
  -32.0453  -27.2591   28.1956 C   0  0  0  0  0  0  0  0  0  0  0  0
  -30.4662  -28.7269   26.9227 C   0  0  0  0  0  0  0  0  0  0  0  0
  -32.9282  -29.0702   26.7141 C   0  0  0  0  0  0  0  0  0  0  0  0
  -31.0058  -26.2312   20.7883 C   0  0  0  0  0  0  0  0  0  0  0  0
  -27.4661  -18.2052   23.8390 C   0  0  0  0  0  0  0  0  0  0  0  0
  -31.8620  -27.0510   25.6287 C   0  0  1  0  0  0  0  0  0  0  0  0
  -30.6883  -28.2471   22.2285 C   0  0  2  0  0  0  0  0  0  0  0  0
  -31.8259  -27.9987   26.8608 C   0  0  0  0  0  0  0  0  0  0  0  0
  -25.9080  -11.5187   20.2618 N   0  0  0  0  0  0  0  0  0  0  0  0
  -26.2906  -12.8060   20.2107 N   0  0  0  0  0  0  0  0  0  0  0  0
  -33.0681  -24.8910   25.5709 N   0  0  0  0  0  0  0  0  0  0  0  0
  -30.0350  -13.5276   20.4949 N   0  0  0  0  0  0  0  0  0  0  0  0
  -30.1248  -15.6382   21.6171 N   0  0  0  0  0  0  0  0  0  0  0  0
  -25.5337  -15.0181   20.5910 N   0  0  0  0  0  0  0  0  0  0  0  0
  -22.7480  -13.5784   22.7266 N   0  0  0  0  0  0  0  0  0  0  0  0
  -35.8364  -23.7577   27.5157 N   0  0  0  0  0  0  0  0  0  0  0  0
  -31.6840  -27.7281   24.3487 N   0  0  0  0  0  0  0  0  0  0  0  0
  -30.2107  -27.4567   21.0588 N   0  3  0  0  0  0  0  0  0  0  0  0
  -22.0232  -13.6906   20.5539 O   0  0  0  0  0  0  0  0  0  0  0  0
  -33.5368  -23.6643   27.8703 O   0  0  0  0  0  0  0  0  0  0  0  0
  -34.2193  -26.9117   25.4046 O   0  0  0  0  0  0  0  0  0  0  0  0
  -29.8125  -26.5303   23.6855 O   0  0  0  0  0  0  0  0  0  0  0  0
  -31.7015  -15.0553   20.0371 O   0  0  0  0  0  0  0  0  0  0  0  0
  -21.6397   -6.9339   21.4054 O   0  0  0  0  0  0  0  0  0  0  0  0
  -29.4201  -19.9129   25.2653 O   0  0  0  0  0  0  0  0  0  1  0  0
  -20.7531   -5.2250   26.5723 F   0  0  0  0  0  0  0  0  0  0  0  0
  -20.3100   -8.5389   23.2216 F   0  0  0  0  0  0  0  0  0  0  0  0
  1  2  1  0  0  0  0
  1  5  2  0  0  0  0
  2  6  2  0  0  0  0
  3  8  2  0  0  0  0
  3 16  1  0  0  0  0
  4  9  1  0  0  0  0
  4 16  2  0  0  0  0
  5 18  1  0  0  0  0
  6 20  1  0  0  0  0
  7 10  2  0  0  0  0
  7 19  1  0  0  0  0
  8 27  1  0  0  0  0
  9 27  2  0  0  0  0
 10 28  1  0  0  0  0
 11 12  2  0  0  0  0
 11 29  1  0  0  0  0
 12 30  1  0  0  0  0
 13 21  1  0  0  0  0
 13 28  2  0  0  0  0
 14 24  2  0  0  0  0
 14 25  1  0  0  0  0
 15 30  2  0  0  0  0
 15 31  1  0  0  0  0
 16 32  1  0  0  0  0
 17 32  1  0  0  0  0
 17 33  2  0  0  0  0
 17 34  1  0  0  0  0
 18 20  2  0  0  0  0
 18 39  1  0  0  0  0
 19 21  2  0  0  0  0
 19 40  1  0  0  0  0
 20 54  1  0  0  0  0
 21 41  1  0  0  0  0
 22 23  2  0  0  0  0
 22 24  1  0  0  0  0
 22 53  1  0  0  0  0
 23 26  1  0  0  0  0
 23 55  1  0  0  0  0
 24 59  1  0  0  0  0
 25 26  2  0  0  0  0
 25 60  1  0  0  0  0
 26 67  1  0  0  0  0
 27 86  1  0  0  0  0
 28 87  1  0  0  0  0
 29 31  2  0  0  0  0
 29 86  1  0  0  0  0
 30 88  1  0  0  0  0
 31 89  1  0  0  0  0
 32 71  2  0  0  0  0
 33 72  1  0  0  0  0
 33 76  1  0  0  0  0
 34 77  1  0  0  0  0
 34 81  2  0  0  0  0
 35 56  1  0  0  0  0
 35 78  1  0  0  0  0
 35 82  2  0  0  0  0
 36 68  1  0  0  0  0
 36 73  1  0  0  0  0
 36 83  2  0  0  0  0
 37 69  1  0  0  0  0
 37 79  1  0  0  0  0
 37 84  2  0  0  0  0
 38 74  1  0  0  0  0
 38 75  1  0  0  0  0
 38 85  2  0  0  0  0
 39 42  1  0  0  0  0
 40 56  1  0  0  0  0
 41 73  1  0  0  0  0
 42 44  1  0  0  0  0
 43 45  1  0  0  0  0
 43 49  1  0  0  0  0
 44 54  1  0  0  0  0
 45 58  1  0  0  0  0
 46 50  1  0  0  0  0
 46 57  1  0  0  0  0
 47 51  1  0  0  0  0
 47 57  1  0  0  0  0
 48 53  1  0  0  0  0
 48 55  1  0  0  0  0
 49 74  1  0  0  0  0
 50 75  1  0  0  0  0
 51 75  1  0  0  0  0
 52 58  1  0  0  0  0
 52 74  1  0  0  0  0
 53 61  1  0  0  0  0
 54 78  1  0  0  0  0
 55 87  1  0  0  0  0
 56 73  1  0  0  0  0
 57 67  1  0  0  0  0
 58 72  1  0  0  0  0
 62 69  1  0  0  0  0
 63 70  1  0  0  0  0
 64 70  1  0  0  0  0
 65 70  1  0  0  0  0
 66 80  1  0  0  0  0
 68 70  1  0  0  0  0
 68 79  1  0  0  0  0
 69 80  1  0  0  0  0
 71 72  1  0  0  0  0
M  CHG  1  80   1
M  ISO  4  38 100  55 101  75 100  87 101
M  END
> <Batch ID>
0030

> <Smiles>
CNC(C)C(=O)NC(C(=O)N1Cc2cc([101O:1][101CH:1]3CC(C)c4c(C)cc(C)c(CC5CC[100N:0]([100C:0](=O)N6CCCC(n7nc(-c8ccc(Oc9ccc(F)cc9F)cc8)c(C(N)=O)c7N)C6)CC5)c43)ccc2CC1C(=O)NC1CCCc2ccccc21)C(C)(C)C

> <Shape>
0.192

> <Color>
0.181

> <Negative vol penalty>
0.000

$$$$

  -OEChem-04052316393D

 82 90  0     1  0  0  0  0  0999 V2000
  -16.7382  -28.6356   22.9108 C   0  0  0  0  0  0  0  0  0  0  0  0
  -17.6211  -27.5628   22.8392 C   0  0  0  0  0  0  0  0  0  0  0  0
  -23.4897   -9.6643   20.2957 C   0  0  0  0  0  0  0  0  0  0  0  0
  -23.9734  -10.1669   22.6089 C   0  0  0  0  0  0  0  0  0  0  0  0
  -17.2302  -29.9367   23.0058 C   0  0  0  0  0  0  0  0  0  0  0  0
  -18.9966  -27.7906   22.8616 C   0  0  0  0  0  0  0  0  0  0  0  0
  -23.2772  -24.2283   25.4095 C   0  0  0  0  0  0  0  0  0  0  0  0
  -22.8837   -8.4689   20.6822 C   0  0  0  0  0  0  0  0  0  0  0  0
  -23.3674   -8.9715   22.9953 C   0  0  0  0  0  0  0  0  0  0  0  0
  -24.1407  -23.2721   24.8765 C   0  0  0  0  0  0  0  0  0  0  0  0
  -20.2280   -7.8024   23.4403 C   0  0  0  0  0  0  0  0  0  0  0  0
  -19.3539   -7.8422   24.5265 C   0  0  0  0  0  0  0  0  0  0  0  0
  -25.8788  -24.9376   24.7204 C   0  0  0  0  0  0  0  0  0  0  0  0
  -28.2136  -19.7831   21.4221 C   0  0  0  0  0  0  0  0  0  0  0  0
  -20.7515   -6.2656   25.7090 C   0  0  0  0  0  0  0  0  0  0  0  0
  -24.0346  -10.5133   21.2591 C   0  0  0  0  0  0  0  0  0  0  0  0
  -24.0456  -13.0059   20.7161 C   0  0  0  0  0  0  0  0  0  0  0  0
  -18.6124  -30.1798   23.0391 C   0  0  0  0  0  0  0  0  0  0  0  0
  -23.7054  -25.5510   25.5920 C   0  0  0  0  0  0  0  0  0  0  0  0
  -19.5076  -29.0963   22.9559 C   0  0  0  0  0  0  0  0  0  0  0  0
  -25.0196  -25.9080   25.2582 C   0  0  0  0  0  0  0  0  0  0  0  0
  -27.2093  -20.5986   21.9435 C   0  0  0  0  0  0  0  0  0  0  0  0
  -28.8644  -18.8648   22.2461 C   0  0  0  0  0  0  0  0  0  0  0  0
  -26.8557  -20.4958   23.2889 C   0  0  0  0  0  0  0  0  0  0  0  0
  -27.5064  -19.5775   24.1129 C   0  0  0  0  0  0  0  0  0  0  0  0
  -22.8225   -8.1225   22.0319 C   0  0  0  0  0  0  0  0  0  0  0  0
  -25.4408  -23.6274   24.5292 C   0  0  0  0  0  0  0  0  0  0  0  0
  -21.3638   -6.9940   23.4883 C   0  0  0  0  0  0  0  0  0  0  0  0
  -19.6156   -7.0738   25.6609 C   0  0  0  0  0  0  0  0  0  0  0  0
  -21.6256   -6.2257   24.6227 C   0  0  0  0  0  0  0  0  0  0  0  0
  -28.5108  -18.7620   23.5915 C   0  0  0  0  0  0  0  0  0  0  0  0
  -24.6612  -11.7481   20.8605 C   0  0  0  0  0  0  0  0  0  0  0  0
  -25.0616  -13.8422   20.3229 C   0  0  0  0  0  0  0  0  0  0  0  0
  -22.6778  -13.3844   20.9195 C   0  0  0  0  0  0  0  0  0  0  0  0
  -22.8136  -28.3765   24.4408 C   0  0  0  0  0  0  0  0  0  0  0  0
  -24.9766  -29.4955   26.5836 C   0  0  0  0  0  0  0  0  0  0  0  0
  -27.7643  -28.9076   28.4625 C   0  0  0  0  0  0  0  0  0  0  0  0
  -30.3006  -15.7015   20.8147 C   0  0  0  0  0  0  0  0  0  0  0  0
  -19.0973  -31.6069   23.0950 C   0  0  0  0  0  0  0  0  0  0  0  0
  -22.7701  -26.5643   26.1929 C   0  0  0  0  0  0  0  0  0  0  0  0
  -25.5345  -27.3099   25.4534 C   0  0  0  0  0  0  0  0  0  0  0  0
  -20.5660  -31.7361   23.4904 C   0  0  0  0  0  0  0  0  0  0  0  0
  -29.7752  -12.8094   18.8056 C   0  0  0  0  0  0  0  0  0  0  0  0
  -21.4198  -30.7471   22.7031 C   0  0  0  0  0  0  0  0  0  0  0  0
  -28.3501  -12.3760   19.1539 C   0  0  0  0  0  0  0  0  0  0  0  0
  -30.5104  -13.3632   20.0241 C   0  0  0  0  0  0  0  0  0  0  0  0
  -28.3812  -14.0157   21.0798 C   0  0  0  0  0  0  0  0  0  0  0  0
  -21.0062  -29.3011   23.0023 C   0  0  1  0  0  0  0  0  0  0  0  0
  -23.1512  -28.0026   25.8564 C   0  0  1  0  0  0  0  0  0  0  0  0
  -27.5810  -13.5021   19.8706 C   0  0  2  0  0  0  0  0  0  0  0  0
  -26.5284  -21.5735   21.0401 C   0  0  0  0  0  0  0  0  0  0  0  0
  -27.1118  -19.4813   25.5544 C   0  0  0  0  0  0  0  0  0  0  0  0
  -29.3177  -30.0255   30.0856 C   0  0  0  0  0  0  0  0  0  0  0  0
  -26.2814  -31.0171   24.2831 C   0  0  0  0  0  0  0  0  0  0  0  0
  -28.3061  -31.3205   25.7243 C   0  0  0  0  0  0  0  0  0  0  0  0
  -26.1211  -32.2996   26.4241 C   0  0  0  0  0  0  0  0  0  0  0  0
  -27.1152  -26.9659   30.5997 C   0  0  0  0  0  0  0  0  0  0  0  0
  -29.9346  -18.0119   21.6437 C   0  0  0  0  0  0  0  0  0  0  0  0
  -25.7736  -21.3743   23.8445 C   0  0  0  0  0  0  0  0  0  1  0  0
  -26.4555  -29.7968   26.5517 C   0  0  1  0  0  0  0  0  0  0  0  0
  -28.0675  -29.1745   29.9258 C   0  0  2  0  0  0  0  0  0  0  0  0
  -26.7811  -31.0825   25.7402 C   0  0  0  0  0  0  0  0  0  0  0  0
  -25.9671  -11.7780   20.5814 N   0  0  0  0  0  0  0  0  0  0  0  0
  -26.1804  -13.0648   20.2577 N   0  0  0  0  0  0  0  0  0  0  0  0
  -24.5801  -28.2661   26.0384 N   0  0  0  0  0  0  0  0  0  0  0  0
  -29.7286  -14.4283   20.6568 N   0  0  0  0  0  0  0  0  0  0  0  0
  -25.0983  -15.1595   20.0297 N   0  0  0  0  0  0  0  0  0  0  0  0
  -21.7652  -12.4003   21.3233 N   0  0  0  0  0  0  0  0  0  0  0  0
  -21.5360  -28.8781   24.2809 N   0  0  0  0  0  0  0  0  0  0  0  0
  -26.8931  -29.8415   27.9428 N   0  0  0  0  0  0  0  0  0  0  0  0
  -29.4895  -16.6548   21.4180 N   0  0  0  0  0  0  0  0  0  0  0  0
  -28.2763  -27.8911   30.6540 N   0  3  0  0  0  0  0  0  0  0  0  0
  -22.2734  -14.5569   20.7322 O   0  0  0  0  0  0  0  0  0  0  0  0
  -23.6507  -28.2227   23.5592 O   0  0  0  0  0  0  0  0  0  0  0  0
  -24.2026  -30.3174   27.0806 O   0  0  0  0  0  0  0  0  0  0  0  0
  -28.2544  -27.9670   27.8415 O   0  0  0  0  0  0  0  0  0  0  0  0
  -31.4472  -15.9703   20.4404 O   0  0  0  0  0  0  0  0  0  0  0  0
  -22.2311   -6.9562   22.4094 O   0  0  0  0  0  0  0  0  0  0  0  0
  -26.2855  -22.6963   24.0082 O   0  0  0  0  0  0  0  0  0  1  0  0
  -18.7770   -7.1134   26.7045 F   0  0  0  0  0  0  0  0  0  0  0  0
  -22.7157   -5.4481   24.6751 F   0  0  0  0  0  0  0  0  0  0  0  0
  -29.3219  -17.6210   24.6120 Cl  0  0  0  0  0  0  0  0  0  0  0  0
  1  2  1  0  0  0  0
  1  5  2  0  0  0  0
  2  6  2  0  0  0  0
  3  8  2  0  0  0  0
  3 16  1  0  0  0  0
  4  9  1  0  0  0  0
  4 16  2  0  0  0  0
  5 18  1  0  0  0  0
  6 20  1  0  0  0  0
  7 10  2  0  0  0  0
  7 19  1  0  0  0  0
  8 26  1  0  0  0  0
  9 26  2  0  0  0  0
 10 27  1  0  0  0  0
 11 12  2  0  0  0  0
 11 28  1  0  0  0  0
 12 29  1  0  0  0  0
 13 21  1  0  0  0  0
 13 27  2  0  0  0  0
 14 22  2  0  0  0  0
 14 23  1  0  0  0  0
 15 29  2  0  0  0  0
 15 30  1  0  0  0  0
 16 32  1  0  0  0  0
 17 32  1  0  0  0  0
 17 33  2  0  0  0  0
 17 34  1  0  0  0  0
 18 20  2  0  0  0  0
 18 39  1  0  0  0  0
 19 21  2  0  0  0  0
 19 40  1  0  0  0  0
 20 48  1  0  0  0  0
 21 41  1  0  0  0  0
 22 24  1  0  0  0  0
 22 51  1  0  0  0  0
 23 31  2  0  0  0  0
 23 58  1  0  0  0  0
 24 25  2  0  0  0  0
 24 59  1  0  0  0  0
 25 31  1  0  0  0  0
 25 52  1  0  0  0  0
 26 78  1  0  0  0  0
 27 79  1  0  0  0  0
 28 30  2  0  0  0  0
 28 78  1  0  0  0  0
 29 80  1  0  0  0  0
 30 81  1  0  0  0  0
 31 82  1  0  0  0  0
 32 63  2  0  0  0  0
 33 64  1  0  0  0  0
 33 67  1  0  0  0  0
 34 68  1  0  0  0  0
 34 73  2  0  0  0  0
 35 49  1  0  0  0  0
 35 69  1  0  0  0  0
 35 74  2  0  0  0  0
 36 60  1  0  0  0  0
 36 65  1  0  0  0  0
 36 75  2  0  0  0  0
 37 61  1  0  0  0  0
 37 70  1  0  0  0  0
 37 76  2  0  0  0  0
 38 66  1  0  0  0  0
 38 71  1  0  0  0  0
 38 77  2  0  0  0  0
 39 42  1  0  0  0  0
 40 49  1  0  0  0  0
 41 65  1  0  0  0  0
 42 44  1  0  0  0  0
 43 45  1  0  0  0  0
 43 46  1  0  0  0  0
 44 48  1  0  0  0  0
 45 50  1  0  0  0  0
 46 66  1  0  0  0  0
 47 50  1  0  0  0  0
 47 66  1  0  0  0  0
 48 69  1  0  0  0  0
 49 65  1  0  0  0  0
 50 64  1  0  0  0  0
 53 61  1  0  0  0  0
 54 62  1  0  0  0  0
 55 62  1  0  0  0  0
 56 62  1  0  0  0  0
 57 72  1  0  0  0  0
 58 71  1  0  0  0  0
 59 79  1  0  0  0  0
 60 62  1  0  0  0  0
 60 70  1  0  0  0  0
 61 72  1  0  0  0  0
 63 64  1  0  0  0  0
M  CHG  1  72   1
M  ISO  4  38 100  59 101  71 100  79 101
M  END
> <Batch ID>
0030

> <Smiles>
CNC(C)C(=O)NC(C(=O)N1Cc2cc([101O:1][101CH2:1]c3c(C)cc(C[100NH:0][100C:0](=O)N4CCCC(n5nc(-c6ccc(Oc7ccc(F)cc7F)cc6)c(C(N)=O)c5N)C4)c(Cl)c3C)ccc2CC1C(=O)NC1CCCc2ccccc21)C(C)(C)C

> <Shape>
0.269

> <Color>
0.198

> <Negative vol penalty>
0.000

$$$$

  -OEChem-04052316393D

 85 93  0     1  0  0  0  0  0999 V2000
  -30.2020  -23.6278   14.2960 C   0  0  0  0  0  0  0  0  0  0  0  0
  -29.9393  -24.9931   14.2896 C   0  0  0  0  0  0  0  0  0  0  0  0
  -26.1180  -13.5771   18.8967 C   0  0  0  0  0  0  0  0  0  0  0  0
  -25.2881  -13.9121   21.1408 C   0  0  0  0  0  0  0  0  0  0  0  0
  -29.4741  -22.7858   15.1341 C   0  0  0  0  0  0  0  0  0  0  0  0
  -28.9569  -25.5183   15.1298 C   0  0  0  0  0  0  0  0  0  0  0  0
  -24.2457  -30.1608   20.1948 C   0  0  0  0  0  0  0  0  0  0  0  0
  -25.9816  -12.1977   19.0522 C   0  0  0  0  0  0  0  0  0  0  0  0
  -25.1517  -12.5327   21.2963 C   0  0  0  0  0  0  0  0  0  0  0  0
  -23.4606  -29.8997   21.3169 C   0  0  0  0  0  0  0  0  0  0  0  0
  -24.2446   -9.1185   22.1559 C   0  0  0  0  0  0  0  0  0  0  0  0
  -23.0664   -8.6435   22.7318 C   0  0  0  0  0  0  0  0  0  0  0  0
  -25.1289  -28.3515   22.1165 C   0  0  0  0  0  0  0  0  0  0  0  0
  -25.0486  -24.4850   21.3207 C   0  0  0  0  0  0  0  0  0  0  0  0
  -23.4196  -23.6358   23.4201 C   0  0  0  0  0  0  0  0  0  0  0  0
  -21.7877   -9.6494   20.9458 C   0  0  0  0  0  0  0  0  0  0  0  0
  -25.7713  -14.4343   19.9410 C   0  0  0  0  0  0  0  0  0  0  0  0
  -24.9478  -16.7594   19.2903 C   0  0  0  0  0  0  0  0  0  0  0  0
  -28.4739  -23.3001   15.9756 C   0  0  0  0  0  0  0  0  0  0  0  0
  -25.4754  -29.5100   20.0194 C   0  0  0  0  0  0  0  0  0  0  0  0
  -28.2279  -24.6880   16.0004 C   0  0  0  0  0  0  0  0  0  0  0  0
  -25.9289  -28.6081   20.9925 C   0  0  0  0  0  0  0  0  0  0  0  0
  -25.6062  -23.8122   22.4078 C   0  0  0  0  0  0  0  0  0  0  0  0
  -22.8620  -24.3086   22.3329 C   0  0  0  0  0  0  0  0  0  0  0  0
  -25.4985  -11.6754   20.2520 C   0  0  0  0  0  0  0  0  0  0  0  0
  -23.9008  -28.9928   22.2765 C   0  0  0  0  0  0  0  0  0  0  0  0
  -24.1944   -9.8592   20.9749 C   0  0  0  0  0  0  0  0  0  0  0  0
  -21.8379   -8.9089   22.1268 C   0  0  0  0  0  0  0  0  0  0  0  0
  -22.9659  -10.1246   20.3699 C   0  0  0  0  0  0  0  0  0  0  0  0
  -24.7917  -23.3875   23.4576 C   0  0  0  0  0  0  0  0  0  0  0  0
  -23.6765  -24.7333   21.2832 C   0  0  0  0  0  0  0  0  0  0  0  0
  -25.9125  -15.8593   19.7812 C   0  0  0  0  0  0  0  0  0  0  0  0
  -25.5663  -17.9849   19.3370 C   0  0  0  0  0  0  0  0  0  0  0  0
  -23.6119  -16.5101   18.8331 C   0  0  0  0  0  0  0  0  0  0  0  0
  -26.6713  -27.5220   17.8465 C   0  0  0  0  0  0  0  0  0  0  0  0
  -29.4039  -27.9286   19.5465 C   0  0  0  0  0  0  0  0  0  0  0  0
  -30.3361  -28.1221   23.0266 C   0  0  0  0  0  0  0  0  0  0  0  0
  -28.7178  -21.7476   21.9931 C   0  0  0  0  0  0  0  0  0  0  0  0
  -27.7219  -22.3446   16.8681 C   0  0  0  0  0  0  0  0  0  0  0  0
  -26.3228  -29.8227   18.8167 C   0  0  0  0  0  0  0  0  0  0  0  0
  -27.2508  -27.8983   20.8613 C   0  0  0  0  0  0  0  0  0  0  0  0
  -26.4110  -22.9246   17.3892 C   0  0  0  0  0  0  0  0  0  0  0  0
  -30.4059  -19.2005   20.1659 C   0  0  0  0  0  0  0  0  0  0  0  0
  -26.6497  -24.3113   17.9676 C   0  0  0  0  0  0  0  0  0  0  0  0
  -29.3095  -18.1761   19.8682 C   0  0  0  0  0  0  0  0  0  0  0  0
  -30.2264  -19.8350   21.5433 C   0  0  0  0  0  0  0  0  0  0  0  0
  -27.8008  -19.4027   21.4862 C   0  0  0  0  0  0  0  0  0  0  0  0
  -27.1431  -25.2778   16.8834 C   0  0  1  0  0  0  0  0  0  0  0  0
  -27.3205  -28.7173   18.4850 C   0  0  1  0  0  0  0  0  0  0  0  0
  -27.9074  -18.7764   20.0853 C   0  0  2  0  0  0  0  0  0  0  0  0
  -32.2699  -29.2741   24.1360 C   0  0  0  0  0  0  0  0  0  0  0  0
  -30.7850  -25.2190   19.3000 C   0  0  0  0  0  0  0  0  0  0  0  0
  -31.8022  -25.6106   21.5538 C   0  0  0  0  0  0  0  0  0  0  0  0
  -32.3327  -27.1495   19.6636 C   0  0  0  0  0  0  0  0  0  0  0  0
  -28.5469  -29.6408   24.8297 C   0  0  0  0  0  0  0  0  0  0  0  0
  -27.0804  -23.5656   22.4093 C   0  0  0  0  0  0  0  0  0  0  0  0
  -21.3824  -24.5570   22.3304 C   0  0  0  0  0  0  0  0  0  0  0  0
  -21.0459  -27.8879   24.1886 C   0  0  0  0  0  0  0  0  0  0  0  0
  -21.4360  -26.4325   23.9791 C   0  0  0  0  0  0  0  0  0  0  0  0
  -21.7219  -28.8495   23.2189 C   0  0  0  0  0  0  0  0  0  1  0  0
  -30.0410  -27.2374   20.7277 C   0  0  1  0  0  0  0  0  0  0  0  0
  -30.7945  -29.3594   23.7771 C   0  0  2  0  0  0  0  0  0  0  0  0
  -31.2120  -26.3047   20.3079 C   0  0  0  0  0  0  0  0  0  0  0  0
  -27.0570  -16.4616   20.1151 N   0  0  0  0  0  0  0  0  0  0  0  0
  -26.8154  -17.7533   19.8334 N   0  0  0  0  0  0  0  0  0  0  0  0
  -28.0404  -28.2329   19.6646 N   0  0  0  0  0  0  0  0  0  0  0  0
  -28.8767  -20.3867   21.6840 N   0  0  0  0  0  0  0  0  0  0  0  0
  -25.1582  -19.2271   19.0014 N   0  0  0  0  0  0  0  0  0  0  0  0
  -23.1341  -15.1927   18.8523 N   0  0  0  0  0  0  0  0  0  0  0  0
  -27.5555  -26.5159   17.5068 N   0  0  0  0  0  0  0  0  0  0  0  0
  -30.4222  -28.2920   21.6609 N   0  0  0  0  0  0  0  0  0  0  0  0
  -27.4053  -22.1905   22.1022 N   0  0  0  0  0  0  0  0  0  0  0  0
  -30.0132  -29.5208   25.0359 N   0  3  0  0  0  0  0  0  0  0  0  0
  -21.0277  -25.9716   22.6314 N   0  3  0  0  0  0  0  0  0  0  0  0
  -22.8699  -17.4261   18.4043 O   0  0  0  0  0  0  0  0  0  0  0  0
  -25.4578  -27.5126   17.6761 O   0  0  0  0  0  0  0  0  0  0  0  0
  -30.0925  -28.1952   18.5583 O   0  0  0  0  0  0  0  0  0  0  0  0
  -29.9446  -27.1052   23.5949 O   0  0  0  0  0  0  0  0  0  0  0  0
  -29.6747  -22.5127   22.1544 O   0  0  0  0  0  0  0  0  0  0  0  0
  -25.3650  -10.3295   20.4040 O   0  0  0  0  0  0  0  0  0  0  0  0
  -23.1361  -28.7356   23.3724 O   0  0  0  0  0  0  0  0  0  1  0  0
  -20.7067   -8.4513   22.6791 F   0  0  0  0  0  0  0  0  0  0  0  0
  -22.9114  -10.8345   19.2346 F   0  0  0  0  0  0  0  0  0  0  0  0
  -25.4466  -22.5511   24.8180 Cl  0  0  0  0  0  0  0  0  0  0  0  0
  -23.0218  -25.5686   19.9219 Cl  0  0  0  0  0  0  0  0  0  0  0  0
  1  2  1  0  0  0  0
  1  5  2  0  0  0  0
  2  6  2  0  0  0  0
  3  8  2  0  0  0  0
  3 17  1  0  0  0  0
  4  9  1  0  0  0  0
  4 17  2  0  0  0  0
  5 19  1  0  0  0  0
  6 21  1  0  0  0  0
  7 10  2  0  0  0  0
  7 20  1  0  0  0  0
  8 25  1  0  0  0  0
  9 25  2  0  0  0  0
 10 26  1  0  0  0  0
 11 12  2  0  0  0  0
 11 27  1  0  0  0  0
 12 28  1  0  0  0  0
 13 22  1  0  0  0  0
 13 26  2  0  0  0  0
 14 23  2  0  0  0  0
 14 31  1  0  0  0  0
 15 24  1  0  0  0  0
 15 30  2  0  0  0  0
 16 28  2  0  0  0  0
 16 29  1  0  0  0  0
 17 32  1  0  0  0  0
 18 32  1  0  0  0  0
 18 33  2  0  0  0  0
 18 34  1  0  0  0  0
 19 21  2  0  0  0  0
 19 39  1  0  0  0  0
 20 22  2  0  0  0  0
 20 40  1  0  0  0  0
 21 48  1  0  0  0  0
 22 41  1  0  0  0  0
 23 30  1  0  0  0  0
 23 56  1  0  0  0  0
 24 31  2  0  0  0  0
 24 57  1  0  0  0  0
 25 80  1  0  0  0  0
 26 81  1  0  0  0  0
 27 29  2  0  0  0  0
 27 80  1  0  0  0  0
 28 82  1  0  0  0  0
 29 83  1  0  0  0  0
 30 84  1  0  0  0  0
 31 85  1  0  0  0  0
 32 64  2  0  0  0  0
 33 65  1  0  0  0  0
 33 68  1  0  0  0  0
 34 69  1  0  0  0  0
 34 75  2  0  0  0  0
 35 49  1  0  0  0  0
 35 70  1  0  0  0  0
 35 76  2  0  0  0  0
 36 61  1  0  0  0  0
 36 66  1  0  0  0  0
 36 77  2  0  0  0  0
 37 62  1  0  0  0  0
 37 71  1  0  0  0  0
 37 78  2  0  0  0  0
 38 67  1  0  0  0  0
 38 72  1  0  0  0  0
 38 79  2  0  0  0  0
 39 42  1  0  0  0  0
 40 49  1  0  0  0  0
 41 66  1  0  0  0  0
 42 44  1  0  0  0  0
 43 45  1  0  0  0  0
 43 46  1  0  0  0  0
 44 48  1  0  0  0  0
 45 50  1  0  0  0  0
 46 67  1  0  0  0  0
 47 50  1  0  0  0  0
 47 67  1  0  0  0  0
 48 70  1  0  0  0  0
 49 66  1  0  0  0  0
 50 65  1  0  0  0  0
 51 62  1  0  0  0  0
 52 63  1  0  0  0  0
 53 63  1  0  0  0  0
 54 63  1  0  0  0  0
 55 73  1  0  0  0  0
 56 72  1  0  0  0  0
 57 74  1  0  0  0  0
 58 59  1  0  0  0  0
 58 60  1  0  0  0  0
 59 74  1  0  0  0  0
 60 81  1  0  0  0  0
 61 63  1  0  0  0  0
 61 71  1  0  0  0  0
 62 73  1  0  0  0  0
 64 65  1  0  0  0  0
M  CHG  2  73   1  74   1
M  ISO  4  38 100  60 101  72 100  81 101
M  END
> <Batch ID>
0030

> <Smiles>
CNC(C)C(=O)NC(C(=O)N1Cc2cc([101O:1][101CH2:1]CCNCc3cc(Cl)c(C[100NH:0][100C:0](=O)N4CCCC(n5nc(-c6ccc(Oc7ccc(F)cc7F)cc6)c(C(N)=O)c5N)C4)cc3Cl)ccc2CC1C(=O)NC1CCCc2ccccc21)C(C)(C)C

> <Shape>
0.214

> <Color>
0.063

> <Negative vol penalty>
0.000

$$$$

  -OEChem-04052316393D

 84 92  0     1  0  0  0  0  0999 V2000
  -24.9888  -19.5422   27.6556 C   0  0  0  0  0  0  0  0  0  0  0  0
  -25.3107  -20.8941   27.6970 C   0  0  0  0  0  0  0  0  0  0  0  0
  -25.7629  -13.8555   21.4882 C   0  0  0  0  0  0  0  0  0  0  0  0
  -25.2394  -14.5436   19.2322 C   0  0  0  0  0  0  0  0  0  0  0  0
  -24.2641  -19.0348   26.5792 C   0  0  0  0  0  0  0  0  0  0  0  0
  -24.8978  -21.7412   26.6681 C   0  0  0  0  0  0  0  0  0  0  0  0
  -25.6924  -26.5571   27.2837 C   0  0  0  0  0  0  0  0  0  0  0  0
  -24.7179  -12.9325   21.4491 C   0  0  0  0  0  0  0  0  0  0  0  0
  -24.1944  -13.6205   19.1931 C   0  0  0  0  0  0  0  0  0  0  0  0
  -26.9633  -27.1262   27.2146 C   0  0  0  0  0  0  0  0  0  0  0  0
  -24.1581   -9.8567   20.1611 C   0  0  0  0  0  0  0  0  0  0  0  0
  -24.4089   -8.5727   20.6450 C   0  0  0  0  0  0  0  0  0  0  0  0
  -26.4604  -27.9669   25.0102 C   0  0  0  0  0  0  0  0  0  0  0  0
  -29.9693  -26.6445   20.5621 C   0  0  0  0  0  0  0  0  0  0  0  0
  -22.6684   -8.8550   22.2966 C   0  0  0  0  0  0  0  0  0  0  0  0
  -26.0236  -14.6612   20.3797 C   0  0  0  0  0  0  0  0  0  0  0  0
  -28.4419  -15.4003   20.0430 C   0  0  0  0  0  0  0  0  0  0  0  0
  -23.8532  -19.8745   25.5309 C   0  0  0  0  0  0  0  0  0  0  0  0
  -24.7984  -26.6796   26.2103 C   0  0  0  0  0  0  0  0  0  0  0  0
  -24.1449  -21.2527   25.5850 C   0  0  0  0  0  0  0  0  0  0  0  0
  -25.1779  -27.4007   25.0692 C   0  0  0  0  0  0  0  0  0  0  0  0
  -30.5275  -25.3768   20.7261 C   0  0  0  0  0  0  0  0  0  0  0  0
  -31.1211  -27.4081   22.5439 C   0  0  0  0  0  0  0  0  0  0  0  0
  -23.9337  -12.8149   20.3016 C   0  0  0  0  0  0  0  0  0  0  0  0
  -27.3485  -27.8288   26.0766 C   0  0  0  0  0  0  0  0  0  0  0  0
  -23.1624  -10.6399   20.7451 C   0  0  0  0  0  0  0  0  0  0  0  0
  -23.6641   -8.0719   21.7127 C   0  0  0  0  0  0  0  0  0  0  0  0
  -22.4176  -10.1390   21.8128 C   0  0  0  0  0  0  0  0  0  0  0  0
  -30.2662  -27.6602   21.4710 C   0  0  0  0  0  0  0  0  0  0  0  0
  -31.3825  -25.1247   21.7990 C   0  0  0  0  0  0  0  0  0  0  0  0
  -31.6793  -26.1403   22.7079 C   0  0  0  0  0  0  0  0  0  0  0  0
  -27.1026  -15.6153   20.4196 C   0  0  0  0  0  0  0  0  0  0  0  0
  -29.0593  -16.6066   20.2668 C   0  0  0  0  0  0  0  0  0  0  0  0
  -29.0715  -14.2161   19.5362 C   0  0  0  0  0  0  0  0  0  0  0  0
  -23.3575  -24.6369   24.2469 C   0  0  0  0  0  0  0  0  0  0  0  0
  -21.8345  -27.3082   23.2140 C   0  0  0  0  0  0  0  0  0  0  0  0
  -21.8440  -30.7051   22.8866 C   0  0  0  0  0  0  0  0  0  0  0  0
  -29.1671  -22.0567   19.7854 C   0  0  0  0  0  0  0  0  0  0  0  0
  -23.0644  -19.2741   24.3940 C   0  0  0  0  0  0  0  0  0  0  0  0
  -23.4215  -26.0827   26.3112 C   0  0  0  0  0  0  0  0  0  0  0  0
  -24.2480  -27.5782   23.8977 C   0  0  0  0  0  0  0  0  0  0  0  0
  -23.0566  -20.1522   23.1469 C   0  0  0  0  0  0  0  0  0  0  0  0
  -27.4294  -20.7452   22.6764 C   0  0  0  0  0  0  0  0  0  0  0  0
  -22.6865  -21.5802   23.5189 C   0  0  0  0  0  0  0  0  0  0  0  0
  -27.3015  -19.2657   22.3091 C   0  0  0  0  0  0  0  0  0  0  0  0
  -27.2576  -21.6362   21.4497 C   0  0  0  0  0  0  0  0  0  0  0  0
  -28.0599  -19.8460   19.9580 C   0  0  0  0  0  0  0  0  0  0  0  0
  -23.7327  -22.1874   24.4621 C   0  0  1  0  0  0  0  0  0  0  0  0
  -22.7781  -25.8311   24.9510 C   0  0  1  0  0  0  0  0  0  0  0  0
  -28.2465  -18.8920   21.1517 C   0  0  2  0  0  0  0  0  0  0  0  0
  -20.4795  -32.5992   21.9658 C   0  0  0  0  0  0  0  0  0  0  0  0
  -22.7186  -26.5685   20.3889 C   0  0  0  0  0  0  0  0  0  0  0  0
  -22.1756  -28.9079   19.6814 C   0  0  0  0  0  0  0  0  0  0  0  0
  -20.3740  -27.4220   20.5584 C   0  0  0  0  0  0  0  0  0  0  0  0
  -21.5558  -31.9487   25.5567 C   0  0  0  0  0  0  0  0  0  0  0  0
  -31.4356  -28.5127   23.5209 C   0  0  0  0  0  0  0  0  0  0  0  0
  -30.1779  -24.3220   19.7253 C   0  0  0  0  0  0  0  0  0  0  0  0
  -30.6923  -28.3871   24.8526 C   0  0  0  0  0  0  0  0  0  0  0  0
  -29.1784  -28.4953   24.7116 C   0  0  0  0  0  0  0  0  0  1  0  0
  -22.1022  -28.3491   22.1539 C   0  0  1  0  0  0  0  0  0  0  0  0
  -20.7845  -31.7492   23.1894 C   0  0  2  0  0  0  0  0  0  0  0  0
  -21.8611  -27.8070   20.7168 C   0  0  0  0  0  0  0  0  0  0  0  0
  -26.8815  -16.8602   20.8501 N   0  0  0  0  0  0  0  0  0  0  0  0
  -28.0902  -17.4383   20.7454 N   0  0  0  0  0  0  0  0  0  0  0  0
  -22.9147  -26.9707   24.0417 N   0  0  0  0  0  0  0  0  0  0  0  0
  -28.1986  -21.2400   20.3924 N   0  0  0  0  0  0  0  0  0  0  0  0
  -30.3314  -17.0264   20.0989 N   0  0  0  0  0  0  0  0  0  0  0  0
  -28.2908  -13.0645   19.3670 N   0  0  0  0  0  0  0  0  0  0  0  0
  -23.2437  -23.4560   24.9555 N   0  0  0  0  0  0  0  0  0  0  0  0
  -21.2836  -29.5056   22.5015 N   0  0  0  0  0  0  0  0  0  0  0  0
  -29.2288  -23.3651   20.2491 N   0  0  0  0  0  0  0  0  0  0  0  0
  -21.2428  -32.6498   24.2849 N   0  3  0  0  0  0  0  0  0  0  0  0
  -30.2939  -14.1754   19.2577 O   0  0  0  0  0  0  0  0  0  0  0  0
  -23.8686  -24.7762   23.1419 O   0  0  0  0  0  0  0  0  0  0  0  0
  -20.7066  -26.8179   23.3089 O   0  0  0  0  0  0  0  0  0  0  0  0
  -23.0484  -30.9322   22.9786 O   0  0  0  0  0  0  0  0  0  0  0  0
  -29.9250  -21.6484   18.8988 O   0  0  0  0  0  0  0  0  0  0  0  0
  -22.9141  -11.9141   20.2631 O   0  0  0  0  0  0  0  0  0  0  0  0
  -28.5887  -28.3847   26.0063 O   0  0  0  0  0  0  0  0  0  1  0  0
  -23.9040   -6.8383   22.1762 F   0  0  0  0  0  0  0  0  0  0  0  0
  -21.4589  -10.8863   22.3770 F   0  0  0  0  0  0  0  0  0  0  0  0
  -29.5539  -29.2147   21.2284 Cl  0  0  0  0  0  0  0  0  0  0  0  0
  -32.0590  -23.5353   21.9743 Cl  0  0  0  0  0  0  0  0  0  0  0  0
  -32.7407  -25.8521   24.0526 Cl  0  0  0  0  0  0  0  0  0  0  0  0
  1  2  1  0  0  0  0
  1  5  2  0  0  0  0
  2  6  2  0  0  0  0
  3  8  2  0  0  0  0
  3 16  1  0  0  0  0
  4  9  1  0  0  0  0
  4 16  2  0  0  0  0
  5 18  1  0  0  0  0
  6 20  1  0  0  0  0
  7 10  2  0  0  0  0
  7 19  1  0  0  0  0
  8 24  1  0  0  0  0
  9 24  2  0  0  0  0
 10 25  1  0  0  0  0
 11 12  2  0  0  0  0
 11 26  1  0  0  0  0
 12 27  1  0  0  0  0
 13 21  1  0  0  0  0
 13 25  2  0  0  0  0
 14 22  1  0  0  0  0
 14 29  2  0  0  0  0
 15 27  2  0  0  0  0
 15 28  1  0  0  0  0
 16 32  1  0  0  0  0
 17 32  1  0  0  0  0
 17 33  2  0  0  0  0
 17 34  1  0  0  0  0
 18 20  2  0  0  0  0
 18 39  1  0  0  0  0
 19 21  2  0  0  0  0
 19 40  1  0  0  0  0
 20 48  1  0  0  0  0
 21 41  1  0  0  0  0
 22 30  2  0  0  0  0
 22 57  1  0  0  0  0
 23 29  1  0  0  0  0
 23 31  2  0  0  0  0
 23 56  1  0  0  0  0
 24 78  1  0  0  0  0
 25 79  1  0  0  0  0
 26 28  2  0  0  0  0
 26 78  1  0  0  0  0
 27 80  1  0  0  0  0
 28 81  1  0  0  0  0
 29 82  1  0  0  0  0
 30 31  1  0  0  0  0
 30 83  1  0  0  0  0
 31 84  1  0  0  0  0
 32 63  2  0  0  0  0
 33 64  1  0  0  0  0
 33 67  1  0  0  0  0
 34 68  1  0  0  0  0
 34 73  2  0  0  0  0
 35 49  1  0  0  0  0
 35 69  1  0  0  0  0
 35 74  2  0  0  0  0
 36 60  1  0  0  0  0
 36 65  1  0  0  0  0
 36 75  2  0  0  0  0
 37 61  1  0  0  0  0
 37 70  1  0  0  0  0
 37 76  2  0  0  0  0
 38 66  1  0  0  0  0
 38 71  1  0  0  0  0
 38 77  2  0  0  0  0
 39 42  1  0  0  0  0
 40 49  1  0  0  0  0
 41 65  1  0  0  0  0
 42 44  1  0  0  0  0
 43 45  1  0  0  0  0
 43 46  1  0  0  0  0
 44 48  1  0  0  0  0
 45 50  1  0  0  0  0
 46 66  1  0  0  0  0
 47 50  1  0  0  0  0
 47 66  1  0  0  0  0
 48 69  1  0  0  0  0
 49 65  1  0  0  0  0
 50 64  1  0  0  0  0
 51 61  1  0  0  0  0
 52 62  1  0  0  0  0
 53 62  1  0  0  0  0
 54 62  1  0  0  0  0
 55 72  1  0  0  0  0
 56 58  1  0  0  0  0
 57 71  1  0  0  0  0
 58 59  1  0  0  0  0
 59 79  1  0  0  0  0
 60 62  1  0  0  0  0
 60 70  1  0  0  0  0
 61 72  1  0  0  0  0
 63 64  1  0  0  0  0
M  CHG  1  72   1
M  ISO  4  38 100  59 101  71 100  79 101
M  END
> <Batch ID>
0030

> <Smiles>
CNC(C)C(=O)NC(C(=O)N1Cc2cc([101O:1][101CH2:1]CCc3c(Cl)cc(C[100NH:0][100C:0](=O)N4CCCC(n5nc(-c6ccc(Oc7ccc(F)cc7F)cc6)c(C(N)=O)c5N)C4)c(Cl)c3Cl)ccc2CC1C(=O)NC1CCCc2ccccc21)C(C)(C)C

> <Shape>
0.201

> <Color>
0.059

> <Negative vol penalty>
0.000

$$$$

  -OEChem-04052316393D

 85 93  0     1  0  0  0  0  0999 V2000
  -17.3651  -31.3070   23.8679 C   0  0  0  0  0  0  0  0  0  0  0  0
  -18.7180  -31.6198   23.7824 C   0  0  0  0  0  0  0  0  0  0  0  0
  -22.9711  -17.4043   19.5725 C   0  0  0  0  0  0  0  0  0  0  0  0
  -24.6289  -17.0242   21.2883 C   0  0  0  0  0  0  0  0  0  0  0  0
  -16.9367  -30.0009   23.6342 C   0  0  0  0  0  0  0  0  0  0  0  0
  -19.6434  -30.6265   23.4641 C   0  0  0  0  0  0  0  0  0  0  0  0
  -25.8666  -29.6829   20.0439 C   0  0  0  0  0  0  0  0  0  0  0  0
  -31.8797  -27.4629   19.8062 C   0  0  0  0  0  0  0  0  0  0  0  0
  -22.6097  -16.0580   19.6234 C   0  0  0  0  0  0  0  0  0  0  0  0
  -24.2676  -15.6779   21.3392 C   0  0  0  0  0  0  0  0  0  0  0  0
  -27.1370  -29.1461   20.2477 C   0  0  0  0  0  0  0  0  0  0  0  0
  -24.0300  -12.0659   21.6665 C   0  0  0  0  0  0  0  0  0  0  0  0
  -25.0549  -11.1203   21.6983 C   0  0  0  0  0  0  0  0  0  0  0  0
  -33.0727  -26.7536   19.9444 C   0  0  0  0  0  0  0  0  0  0  0  0
  -26.2728  -26.9416   19.7867 C   0  0  0  0  0  0  0  0  0  0  0  0
  -31.1304  -26.6188   21.9424 C   0  0  0  0  0  0  0  0  0  0  0  0
  -25.8659  -11.9277   19.5705 C   0  0  0  0  0  0  0  0  0  0  0  0
  -23.9807  -17.8874   20.4050 C   0  0  0  0  0  0  0  0  0  0  0  0
  -23.8128  -20.3332   21.1103 C   0  0  0  0  0  0  0  0  0  0  0  0
  -17.8562  -28.9931   23.3034 C   0  0  0  0  0  0  0  0  0  0  0  0
  -24.7856  -28.8504   19.7201 C   0  0  0  0  0  0  0  0  0  0  0  0
  -19.2270  -29.3054   23.2271 C   0  0  0  0  0  0  0  0  0  0  0  0
  -24.9902  -27.4706   19.5767 C   0  0  0  0  0  0  0  0  0  0  0  0
  -30.9085  -27.3955   20.8053 C   0  0  0  0  0  0  0  0  0  0  0  0
  -32.3234  -25.9094   22.0805 C   0  0  0  0  0  0  0  0  0  0  0  0
  -23.2579  -15.1948   20.5067 C   0  0  0  0  0  0  0  0  0  0  0  0
  -27.3397  -27.7749   20.1220 C   0  0  0  0  0  0  0  0  0  0  0  0
  -23.9230  -12.9424   20.5866 C   0  0  0  0  0  0  0  0  0  0  0  0
  -25.9729  -11.0512   20.6504 C   0  0  0  0  0  0  0  0  0  0  0  0
  -24.8410  -12.8733   19.5387 C   0  0  0  0  0  0  0  0  0  0  0  0
  -33.2946  -25.9768   21.0815 C   0  0  0  0  0  0  0  0  0  0  0  0
  -24.3548  -19.2778   20.3525 C   0  0  0  0  0  0  0  0  0  0  0  0
  -24.5018  -21.4453   20.6921 C   0  0  0  0  0  0  0  0  0  0  0  0
  -22.7790  -20.3102   22.1034 C   0  0  0  0  0  0  0  0  0  0  0  0
  -22.0127  -28.1358   21.0999 C   0  0  0  0  0  0  0  0  0  0  0  0
  -21.5004  -26.5155   18.3368 C   0  0  0  0  0  0  0  0  0  0  0  0
  -22.8237  -24.9463   15.6104 C   0  0  0  0  0  0  0  0  0  0  0  0
  -29.9108  -22.2078   18.2399 C   0  0  0  0  0  0  0  0  0  0  0  0
  -17.3510  -27.5858   23.1059 C   0  0  0  0  0  0  0  0  0  0  0  0
  -23.4270  -29.4483   19.4771 C   0  0  0  0  0  0  0  0  0  0  0  0
  -23.8671  -26.5362   19.2108 C   0  0  0  0  0  0  0  0  0  0  0  0
  -18.3534  -26.6714   22.4063 C   0  0  0  0  0  0  0  0  0  0  0  0
  -26.7811  -23.2242   16.8801 C   0  0  0  0  0  0  0  0  0  0  0  0
  -19.7394  -26.8271   23.0239 C   0  0  0  0  0  0  0  0  0  0  0  0
  -25.7555  -22.4233   17.6842 C   0  0  0  0  0  0  0  0  0  0  0  0
  -28.0495  -22.4151   16.6184 C   0  0  0  0  0  0  0  0  0  0  0  0
  -27.6544  -21.0438   18.6277 C   0  0  0  0  0  0  0  0  0  0  0  0
  -20.2585  -28.2607   22.8600 C   0  0  1  0  0  0  0  0  0  0  0  0
  -22.2919  -28.4448   19.6562 C   0  0  1  0  0  0  0  0  0  0  0  0
  -26.3805  -21.8376   18.9647 C   0  0  2  0  0  0  0  0  0  0  0  0
  -22.1557  -23.6855   13.5460 C   0  0  0  0  0  0  0  0  0  0  0  0
  -20.8949  -24.0558   20.0379 C   0  0  0  0  0  0  0  0  0  0  0  0
  -21.1746  -22.6523   17.9836 C   0  0  0  0  0  0  0  0  0  0  0  0
  -19.3701  -24.3720   18.0809 C   0  0  0  0  0  0  0  0  0  0  0  0
  -24.0805  -26.9546   13.8367 C   0  0  0  0  0  0  0  0  0  0  0  0
  -32.5231  -25.0895   23.3141 C   0  0  0  0  0  0  0  0  0  0  0  0
  -29.6252  -28.1585   20.6562 C   0  0  0  0  0  0  0  0  0  1  0  0
  -31.9143  -21.2258   21.3010 C   0  0  0  0  0  0  0  0  0  0  0  0
  -30.9559  -21.7149   22.3934 C   0  0  0  0  0  0  0  0  0  0  0  0
  -31.6739  -21.9174   19.9622 C   0  0  0  0  0  0  0  0  0  0  0  0
  -31.0176  -23.2207   22.6213 C   0  0  0  0  0  0  0  0  0  0  0  0
  -21.7768  -25.1123   17.8534 C   0  0  1  0  0  0  0  0  0  0  0  0
  -22.4950  -25.0473   14.1318 C   0  0  2  0  0  0  0  0  0  0  0  0
  -20.8251  -24.0652   18.4977 C   0  0  0  0  0  0  0  0  0  0  0  0
  -25.3141  -19.6832   19.5161 N   0  0  0  0  0  0  0  0  0  0  0  0
  -25.3802  -21.0057   19.7458 N   0  0  0  0  0  0  0  0  0  0  0  0
  -22.5558  -27.1680   18.9896 N   0  0  0  0  0  0  0  0  0  0  0  0
  -28.5928  -21.8893   17.8731 N   0  0  0  0  0  0  0  0  0  0  0  0
  -24.4359  -22.7467   21.0451 N   0  0  0  0  0  0  0  0  0  0  0  0
  -22.1766  -19.0831   22.4126 N   0  0  0  0  0  0  0  0  0  0  0  0
  -20.7374  -28.4738   21.5111 N   0  0  0  0  0  0  0  0  0  0  0  0
  -21.7118  -25.1622   16.3968 N   0  0  0  0  0  0  0  0  0  0  0  0
  -30.3449  -21.6739   19.4471 N   0  0  0  0  0  0  0  0  0  0  0  0
  -23.6541  -25.6066   13.3805 N   0  3  0  0  0  0  0  0  0  0  0  0
  -32.3719  -23.6281   23.0794 N   0  3  0  0  0  0  0  0  0  0  0  0
  -22.3893  -21.3498   22.6873 O   0  0  0  0  0  0  0  0  0  0  0  0
  -22.8888  -27.6271   21.7893 O   0  0  0  0  0  0  0  0  0  0  0  0
  -20.3913  -27.0167   18.1362 O   0  0  0  0  0  0  0  0  0  0  0  0
  -23.9531  -24.6968   16.0261 O   0  0  0  0  0  0  0  0  0  0  0  0
  -30.6443  -22.9200   17.5459 O   0  0  0  0  0  0  0  0  0  0  0  0
  -22.9054  -13.8811   20.5568 O   0  0  0  0  0  0  0  0  0  0  0  0
  -28.5786  -27.2482   20.3210 O   0  0  0  0  0  0  0  0  0  1  0  0
  -26.9579  -10.1441   20.6819 F   0  0  0  0  0  0  0  0  0  0  0  0
  -24.7440  -13.7134   18.4992 F   0  0  0  0  0  0  0  0  0  0  0  0
  -34.7826  -25.1129   21.2184 Cl  0  0  0  0  0  0  0  0  0  0  0  0
  1  2  1  0  0  0  0
  1  5  2  0  0  0  0
  2  6  2  0  0  0  0
  3  9  2  0  0  0  0
  3 18  1  0  0  0  0
  4 10  1  0  0  0  0
  4 18  2  0  0  0  0
  5 20  1  0  0  0  0
  6 22  1  0  0  0  0
  7 11  2  0  0  0  0
  7 21  1  0  0  0  0
  8 14  2  0  0  0  0
  8 24  1  0  0  0  0
  9 26  1  0  0  0  0
 10 26  2  0  0  0  0
 11 27  1  0  0  0  0
 12 13  2  0  0  0  0
 12 28  1  0  0  0  0
 13 29  1  0  0  0  0
 14 31  1  0  0  0  0
 15 23  1  0  0  0  0
 15 27  2  0  0  0  0
 16 24  2  0  0  0  0
 16 25  1  0  0  0  0
 17 29  2  0  0  0  0
 17 30  1  0  0  0  0
 18 32  1  0  0  0  0
 19 32  1  0  0  0  0
 19 33  2  0  0  0  0
 19 34  1  0  0  0  0
 20 22  2  0  0  0  0
 20 39  1  0  0  0  0
 21 23  2  0  0  0  0
 21 40  1  0  0  0  0
 22 48  1  0  0  0  0
 23 41  1  0  0  0  0
 24 57  1  0  0  0  0
 25 31  2  0  0  0  0
 25 56  1  0  0  0  0
 26 81  1  0  0  0  0
 27 82  1  0  0  0  0
 28 30  2  0  0  0  0
 28 81  1  0  0  0  0
 29 83  1  0  0  0  0
 30 84  1  0  0  0  0
 31 85  1  0  0  0  0
 32 65  2  0  0  0  0
 33 66  1  0  0  0  0
 33 69  1  0  0  0  0
 34 70  1  0  0  0  0
 34 76  2  0  0  0  0
 35 49  1  0  0  0  0
 35 71  1  0  0  0  0
 35 77  2  0  0  0  0
 36 62  1  0  0  0  0
 36 67  1  0  0  0  0
 36 78  2  0  0  0  0
 37 63  1  0  0  0  0
 37 72  1  0  0  0  0
 37 79  2  0  0  0  0
 38 68  1  0  0  0  0
 38 73  1  0  0  0  0
 38 80  2  0  0  0  0
 39 42  1  0  0  0  0
 40 49  1  0  0  0  0
 41 67  1  0  0  0  0
 42 44  1  0  0  0  0
 43 45  1  0  0  0  0
 43 46  1  0  0  0  0
 44 48  1  0  0  0  0
 45 50  1  0  0  0  0
 46 68  1  0  0  0  0
 47 50  1  0  0  0  0
 47 68  1  0  0  0  0
 48 71  1  0  0  0  0
 49 67  1  0  0  0  0
 50 66  1  0  0  0  0
 51 63  1  0  0  0  0
 52 64  1  0  0  0  0
 53 64  1  0  0  0  0
 54 64  1  0  0  0  0
 55 74  1  0  0  0  0
 56 75  1  0  0  0  0
 57 82  1  0  0  0  0
 58 59  1  0  0  0  0
 58 60  1  0  0  0  0
 59 61  1  0  0  0  0
 60 73  1  0  0  0  0
 61 75  1  0  0  0  0
 62 64  1  0  0  0  0
 62 72  1  0  0  0  0
 63 74  1  0  0  0  0
 65 66  1  0  0  0  0
M  CHG  2  74   1  75   1
M  ISO  4  38 100  57 101  73 100  82 101
M  END
> <Batch ID>
0030

> <Smiles>
CNC(C)C(=O)NC(C(=O)N1Cc2cc([101O:1][101CH2:1]c3ccc(Cl)c(CNCCCC[100NH:0][100C:0](=O)N4CCCC(n5nc(-c6ccc(Oc7ccc(F)cc7F)cc6)c(C(N)=O)c5N)C4)c3)ccc2CC1C(=O)NC1CCCc2ccccc21)C(C)(C)C

> <Shape>
0.192

> <Color>
0.074

> <Negative vol penalty>
0.000

$$$$

  -OEChem-04052316393D

 88 97  0     1  0  0  0  0  0999 V2000
  -31.8652  -30.0977   27.7221 C   0  0  0  0  0  0  0  0  0  0  0  0
  -31.9676  -28.7281   27.5011 C   0  0  0  0  0  0  0  0  0  0  0  0
  -23.0746   -9.8687   19.9426 C   0  0  0  0  0  0  0  0  0  0  0  0
  -23.8385   -9.8763   22.2347 C   0  0  0  0  0  0  0  0  0  0  0  0
  -32.0632  -30.9894   26.6687 C   0  0  0  0  0  0  0  0  0  0  0  0
  -32.2671  -28.2492   26.2262 C   0  0  0  0  0  0  0  0  0  0  0  0
  -35.6072  -23.3064   24.8409 C   0  0  0  0  0  0  0  0  0  0  0  0
  -22.3317   -8.7153   20.1939 C   0  0  0  0  0  0  0  0  0  0  0  0
  -23.0955   -8.7228   22.4860 C   0  0  0  0  0  0  0  0  0  0  0  0
  -35.2543  -22.0023   24.4965 C   0  0  0  0  0  0  0  0  0  0  0  0
  -21.1141   -5.9849   23.8263 C   0  0  0  0  0  0  0  0  0  0  0  0
  -20.3599   -5.9411   24.9988 C   0  0  0  0  0  0  0  0  0  0  0  0
  -35.4584  -22.5704   22.1609 C   0  0  0  0  0  0  0  0  0  0  0  0
  -19.1132   -7.8778   24.2693 C   0  0  0  0  0  0  0  0  0  0  0  0
  -23.8281  -10.4492   20.9629 C   0  0  0  0  0  0  0  0  0  0  0  0
  -24.1686  -12.9745   20.8421 C   0  0  0  0  0  0  0  0  0  0  0  0
  -32.3747  -30.5216   25.3824 C   0  0  0  0  0  0  0  0  0  0  0  0
  -35.8781  -24.2568   23.8460 C   0  0  0  0  0  0  0  0  0  0  0  0
  -32.4682  -29.1353   25.1543 C   0  0  0  0  0  0  0  0  0  0  0  0
  -35.8170  -23.8852   22.4954 C   0  0  0  0  0  0  0  0  0  0  0  0
  -29.8379  -18.0451   22.0712 C   0  0  0  0  0  0  0  0  0  0  0  0
  -29.9441  -18.9384   23.1496 C   0  0  0  0  0  0  0  0  0  0  0  0
  -22.3421   -8.1423   21.4657 C   0  0  0  0  0  0  0  0  0  0  0  0
  -35.1771  -21.6349   23.1563 C   0  0  0  0  0  0  0  0  0  0  0  0
  -20.8680   -6.9752   22.8753 C   0  0  0  0  0  0  0  0  0  0  0  0
  -19.3595   -6.8875   25.2203 C   0  0  0  0  0  0  0  0  0  0  0  0
  -19.8675   -7.9216   23.0968 C   0  0  0  0  0  0  0  0  0  0  0  0
  -28.8561  -18.2838   21.0989 C   0  0  0  0  0  0  0  0  0  0  0  0
  -24.5962  -11.6404   20.7038 C   0  0  0  0  0  0  0  0  0  0  0  0
  -28.0082  -19.3690   21.2537 C   0  0  0  0  0  0  0  0  0  0  0  0
  -29.0360  -19.9982   23.2010 C   0  0  0  0  0  0  0  0  0  0  0  0
  -25.2598  -13.7244   20.4769 C   0  0  0  0  0  0  0  0  0  0  0  0
  -22.8986  -13.4898   21.2632 C   0  0  0  0  0  0  0  0  0  0  0  0
  -34.5842  -27.0276   22.9788 C   0  0  0  0  0  0  0  0  0  0  0  0
  -37.1231  -27.1369   20.9629 C   0  0  0  0  0  0  0  0  0  0  0  0
  -39.5214  -25.4369   19.2292 C   0  0  0  0  0  0  0  0  0  0  0  0
  -30.7434  -14.7459   20.6556 C   0  0  0  0  0  0  0  0  0  0  0  0
  -32.5335  -31.5219   24.2648 C   0  0  0  0  0  0  0  0  0  0  0  0
  -36.2834  -25.6522   24.2345 C   0  0  0  0  0  0  0  0  0  0  0  0
  -36.1181  -24.8624   21.3896 C   0  0  0  0  0  0  0  0  0  0  0  0
  -33.2167  -30.9480   23.0262 C   0  0  0  0  0  0  0  0  0  0  0  0
  -29.6027  -12.3607   18.2710 C   0  0  0  0  0  0  0  0  0  0  0  0
  -32.6126  -29.5956   22.6617 C   0  0  0  0  0  0  0  0  0  0  0  0
  -28.1662  -12.0664   18.7065 C   0  0  0  0  0  0  0  0  0  0  0  0
  -31.6730  -16.6164   23.1288 C   0  0  0  0  0  0  0  0  0  0  0  0
  -30.5218  -12.5820   19.4703 C   0  0  0  0  0  0  0  0  0  0  0  0
  -28.6222  -13.3124   20.8602 C   0  0  0  0  0  0  0  0  0  0  0  0
  -30.9820  -18.7837   24.2408 C   0  0  2  0  0  0  0  0  0  0  0  0
  -32.8159  -28.5782   23.7909 C   0  0  1  0  0  0  0  0  0  0  0  0
  -30.8104  -16.8966   21.8922 C   0  0  1  0  0  0  0  0  0  0  0  0
  -36.0370  -26.6754   23.1301 C   0  0  1  0  0  0  0  0  0  0  0  0
  -32.1741  -17.8991   23.8047 C   0  0  2  0  0  0  0  0  0  0  0  0
  -27.6460  -13.1373   19.6842 C   0  0  2  0  0  0  0  0  0  0  0  0
  -30.3184  -18.2327   25.5119 C   0  0  0  0  0  0  0  0  0  0  0  0
  -27.5069  -20.3418   18.9979 C   0  0  0  0  0  0  0  0  0  0  0  0
  -41.4287  -25.7955   17.6384 C   0  0  0  0  0  0  0  0  0  0  0  0
  -35.1389  -27.5859   18.6888 C   0  0  0  0  0  0  0  0  0  0  0  0
  -36.9591  -26.9902   17.0762 C   0  0  0  0  0  0  0  0  0  0  0  0
  -37.2099  -28.9818   18.5572 C   0  0  0  0  0  0  0  0  0  0  0  0
  -41.4755  -24.2857   21.1305 C   0  0  0  0  0  0  0  0  0  0  0  0
  -26.9432  -19.6816   20.2518 C   0  0  0  0  0  0  0  0  0  0  0  0
  -33.1499  -18.6705   22.9061 C   0  0  0  0  0  0  0  0  0  0  0  0
  -33.9657  -19.6639   23.7074 C   0  0  0  0  0  0  0  0  0  1  0  0
  -37.3906  -26.6654   19.5539 C   0  0  1  0  0  0  0  0  0  0  0  0
  -41.0169  -25.6604   19.0961 C   0  0  2  0  0  0  0  0  0  0  0  0
  -36.6670  -27.5377   18.4896 C   0  0  0  0  0  0  0  0  0  0  0  0
  -25.8604  -11.5451   20.2833 N   0  0  0  0  0  0  0  0  0  0  0  0
  -28.0709  -20.2331   22.2854 N   0  0  0  0  0  0  0  0  0  0  0  0
  -26.2365  -12.8288   20.1542 N   0  0  0  0  0  0  0  0  0  0  0  0
  -36.5037  -26.2165   21.8202 N   0  0  0  0  0  0  0  0  0  0  0  0
  -29.9724  -13.6104   20.3572 N   0  0  0  0  0  0  0  0  0  0  0  0
  -25.4695  -15.0560   20.4034 N   0  0  0  0  0  0  0  0  0  0  0  0
  -21.8877  -12.5802   21.6023 N   0  0  0  0  0  0  0  0  0  0  0  0
  -34.1729  -28.0756   23.7801 N   0  0  0  0  0  0  0  0  0  0  0  0
  -38.8414  -26.6234   19.4061 N   0  0  0  0  0  0  0  0  0  0  0  0
  -30.1453  -15.6746   21.4986 N   0  0  0  0  0  0  0  0  0  0  0  0
  -41.7664  -24.5186   19.6924 N   0  3  0  0  0  0  0  0  0  0  0  0
  -22.6619  -14.7203   21.3208 O   0  0  0  0  0  0  0  0  0  0  0  0
  -33.8882  -26.3963   22.1922 O   0  0  0  0  0  0  0  0  0  0  0  0
  -37.4581  -28.2774   21.2927 O   0  0  0  0  0  0  0  0  0  0  0  0
  -39.0073  -24.3218   19.1775 O   0  0  0  0  0  0  0  0  0  0  0  0
  -31.8785  -14.9219   20.2000 O   0  0  0  0  0  0  0  0  0  0  0  0
  -21.6171   -7.0169   21.7113 O   0  0  0  0  0  0  0  0  0  0  0  0
  -34.8298  -20.3535   22.8148 O   0  0  0  0  0  0  0  0  0  1  0  0
  -18.6342   -6.8444   26.3456 F   0  0  0  0  0  0  0  0  0  0  0  0
  -19.6256   -8.8746   22.1862 F   0  0  0  0  0  0  0  0  0  0  0  0
  -28.7216  -17.3576   19.6353 Cl  0  0  0  0  0  0  0  0  0  0  0  0
  -29.0496  -21.2238   24.4181 Cl  0  0  0  0  0  0  0  0  0  0  0  0
  1  2  1  0  0  0  0
  1  5  2  0  0  0  0
  2  6  2  0  0  0  0
  3  8  2  0  0  0  0
  3 15  1  0  0  0  0
  4  9  1  0  0  0  0
  4 15  2  0  0  0  0
  5 17  1  0  0  0  0
  6 19  1  0  0  0  0
  7 10  2  0  0  0  0
  7 18  1  0  0  0  0
  8 23  1  0  0  0  0
  9 23  2  0  0  0  0
 10 24  1  0  0  0  0
 11 12  2  0  0  0  0
 11 25  1  0  0  0  0
 12 26  1  0  0  0  0
 13 20  1  0  0  0  0
 13 24  2  0  0  0  0
 14 26  2  0  0  0  0
 14 27  1  0  0  0  0
 15 29  1  0  0  0  0
 16 29  1  0  0  0  0
 16 32  2  0  0  0  0
 16 33  1  0  0  0  0
 17 19  2  0  0  0  0
 17 38  1  0  0  0  0
 18 20  2  0  0  0  0
 18 39  1  0  0  0  0
 19 49  1  0  0  0  0
 20 40  1  0  0  0  0
 21 22  2  0  0  0  0
 21 28  1  0  0  0  0
 21 50  1  0  0  0  0
 22 31  1  0  0  0  0
 22 48  1  0  0  0  0
 23 83  1  0  0  0  0
 24 84  1  0  0  0  0
 25 27  2  0  0  0  0
 25 83  1  0  0  0  0
 26 85  1  0  0  0  0
 27 86  1  0  0  0  0
 28 30  2  0  0  0  0
 28 87  1  0  0  0  0
 29 67  2  0  0  0  0
 30 61  1  0  0  0  0
 30 68  1  0  0  0  0
 31 68  2  0  0  0  0
 31 88  1  0  0  0  0
 32 69  1  0  0  0  0
 32 72  1  0  0  0  0
 33 73  1  0  0  0  0
 33 78  2  0  0  0  0
 34 51  1  0  0  0  0
 34 74  1  0  0  0  0
 34 79  2  0  0  0  0
 35 64  1  0  0  0  0
 35 70  1  0  0  0  0
 35 80  2  0  0  0  0
 36 65  1  0  0  0  0
 36 75  1  0  0  0  0
 36 81  2  0  0  0  0
 37 71  1  0  0  0  0
 37 76  1  0  0  0  0
 37 82  2  0  0  0  0
 38 41  1  0  0  0  0
 39 51  1  0  0  0  0
 40 70  1  0  0  0  0
 41 43  1  0  0  0  0
 42 44  1  0  0  0  0
 42 46  1  0  0  0  0
 43 49  1  0  0  0  0
 44 53  1  0  0  0  0
 45 50  1  0  0  0  0
 45 52  1  0  0  0  0
 46 71  1  0  0  0  0
 47 53  1  0  0  0  0
 47 71  1  0  0  0  0
 48 52  1  0  0  0  0
 48 54  1  0  0  0  0
 49 74  1  0  0  0  0
 50 76  1  0  0  0  0
 51 70  1  0  0  0  0
 52 62  1  0  0  0  0
 53 69  1  0  0  0  0
 55 61  1  0  0  0  0
 56 65  1  0  0  0  0
 57 66  1  0  0  0  0
 58 66  1  0  0  0  0
 59 66  1  0  0  0  0
 60 77  1  0  0  0  0
 62 63  1  0  0  0  0
 63 84  1  0  0  0  0
 64 66  1  0  0  0  0
 64 75  1  0  0  0  0
 65 77  1  0  0  0  0
 67 69  1  0  0  0  0
M  CHG  1  77   1
M  ISO  4  37 100  63 101  76 100  84 101
M  END
> <Batch ID>
0030

> <Smiles>
CCc1nc(Cl)c2c(c1Cl)C([100NH:0][100C:0](=O)N1CCCC(n3nc(-c4ccc(Oc5ccc(F)cc5F)cc4)c(C(N)=O)c3N)C1)CC(C[101CH2:1][101O:1]c1ccc3c(c1)CN(C(=O)C(NC(=O)C(C)NC)C(C)(C)C)C(C(=O)NC1CCCc4ccccc41)C3)C2C

> <Shape>
0.188

> <Color>
0.187

> <Negative vol penalty>
0.000

$$$$

  -OEChem-04052316393D

100109  0     1  0  0  0  0  0999 V2000
  -25.0281  -10.8532   20.9338 C   0  0  0  0  0  0  0  0  0  0  0  0
  -24.0378  -11.6371   20.3504 C   0  0  0  0  0  0  0  0  0  0  0  0
  -25.2055  -27.9370   18.9780 C   0  0  0  0  0  0  0  0  0  0  0  0
  -25.4146  -28.2583   21.3634 C   0  0  0  0  0  0  0  0  0  0  0  0
  -26.1087  -11.4592   21.5733 C   0  0  0  0  0  0  0  0  0  0  0  0
  -24.1271  -13.0275   20.4072 C   0  0  0  0  0  0  0  0  0  0  0  0
  -22.3121  -17.0111   16.1243 C   0  0  0  0  0  0  0  0  0  0  0  0
  -26.5286  -27.4990   18.9210 C   0  0  0  0  0  0  0  0  0  0  0  0
  -26.7376  -27.8203   21.3064 C   0  0  0  0  0  0  0  0  0  0  0  0
  -21.1570  -17.7798   15.9875 C   0  0  0  0  0  0  0  0  0  0  0  0
  -29.6122  -28.8832   18.9167 C   0  0  0  0  0  0  0  0  0  0  0  0
  -30.4170  -29.3858   17.8943 C   0  0  0  0  0  0  0  0  0  0  0  0
  -22.2938  -19.6557   16.9915 C   0  0  0  0  0  0  0  0  0  0  0  0
  -17.0825  -20.4715   10.4966 C   0  0  0  0  0  0  0  0  0  0  0  0
  -30.7686  -27.1428   17.0684 C   0  0  0  0  0  0  0  0  0  0  0  0
  -24.6485  -28.3168   20.1991 C   0  0  0  0  0  0  0  0  0  0  0  0
  -22.7235  -29.8762   19.5908 C   0  0  0  0  0  0  0  0  0  0  0  0
  -26.2162  -12.8577   21.6296 C   0  0  0  0  0  0  0  0  0  0  0  0
  -23.4652  -17.5565   16.7066 C   0  0  0  0  0  0  0  0  0  0  0  0
  -25.2094  -13.6528   21.0492 C   0  0  0  0  0  0  0  0  0  0  0  0
  -23.4630  -18.8925   17.1322 C   0  0  0  0  0  0  0  0  0  0  0  0
  -18.1202  -20.4614   11.4286 C   0  0  0  0  0  0  0  0  0  0  0  0
  -19.4364  -20.2774   11.0050 C   0  0  0  0  0  0  0  0  0  0  0  0
  -18.6772  -20.1134    8.7173 C   0  0  0  0  0  0  0  0  0  0  0  0
  -27.2946  -27.4406   20.0852 C   0  0  0  0  0  0  0  0  0  0  0  0
  -21.1469  -19.1014   16.4238 C   0  0  0  0  0  0  0  0  0  0  0  0
  -29.3856  -27.5104   19.0149 C   0  0  0  0  0  0  0  0  0  0  0  0
  -30.9952  -28.5156   16.9702 C   0  0  0  0  0  0  0  0  0  0  0  0
  -17.3610  -20.2974    9.1409 C   0  0  0  0  0  0  0  0  0  0  0  0
  -29.9637  -26.6402   18.0908 C   0  0  0  0  0  0  0  0  0  0  0  0
  -19.7149  -20.1034    9.6493 C   0  0  0  0  0  0  0  0  0  0  0  0
  -23.2820  -28.7699   20.2585 C   0  0  0  0  0  0  0  0  0  0  0  0
  -21.4047  -29.8788   19.9745 C   0  0  0  0  0  0  0  0  0  0  0  0
  -23.3415  -30.8173   18.7030 C   0  0  0  0  0  0  0  0  0  0  0  0
  -25.1981  -16.9019   19.2897 C   0  0  0  0  0  0  0  0  0  0  0  0
  -17.7924  -25.5025   21.9522 C   0  0  0  0  0  0  0  0  0  0  0  0
  -27.1582  -19.1834   18.0752 C   0  0  0  0  0  0  0  0  0  0  0  0
  -27.5200  -21.9331   16.0864 C   0  0  0  0  0  0  0  0  0  0  0  0
  -27.3783  -13.4671   22.3730 C   0  0  0  0  0  0  0  0  0  0  0  0
  -24.7114  -16.7222   16.8226 C   0  0  0  0  0  0  0  0  0  0  0  0
  -24.6812  -19.5315   17.7455 C   0  0  0  0  0  0  0  0  0  0  0  0
  -27.5911  -14.9467   22.0633 C   0  0  0  0  0  0  0  0  0  0  0  0
  -18.5436  -28.6044   23.5812 C   0  0  0  0  0  0  0  0  0  0  0  0
  -26.2655  -15.6995   22.1176 C   0  0  0  0  0  0  0  0  0  0  0  0
  -19.8092  -29.0849   22.8723 C   0  0  0  0  0  0  0  0  0  0  0  0
  -15.3854  -20.8649   14.9546 C   0  0  0  0  0  0  0  0  0  0  0  0
  -18.5178  -27.0845   23.7087 C   0  0  0  0  0  0  0  0  0  0  0  0
  -19.9402  -26.8420   21.6988 C   0  0  0  0  0  0  0  0  0  0  0  0
  -15.0747  -21.2972   16.3803 C   0  0  0  0  0  0  0  0  0  0  0  0
  -17.4116  -20.7146   17.0724 C   0  0  0  0  0  0  0  0  0  0  0  0
  -25.2836  -15.1641   21.0684 C   0  0  1  0  0  0  0  0  0  0  0  0
  -25.6684  -17.2241   17.8995 C   0  0  1  0  0  0  0  0  0  0  0  0
  -17.7459  -20.2650   15.6426 C   0  0  2  0  0  0  0  0  0  0  0  0
  -19.9917  -28.3699   21.5218 C   0  0  2  0  0  0  0  0  0  0  0  0
  -16.4856  -19.7783   14.8591 C   0  0  2  0  0  0  0  0  0  0  0  0
  -18.9742  -19.9286    7.2673 C   0  0  0  0  0  0  0  0  0  0  0  0
  -23.8099  -23.0522   14.7222 C   0  0  0  0  0  0  0  0  0  0  0  0
  -29.2331  -23.6003   15.3229 C   0  0  0  0  0  0  0  0  0  0  0  0
  -26.9945  -20.5866   20.7797 C   0  0  0  0  0  0  0  0  0  0  0  0
  -27.8992  -22.6490   19.6861 C   0  0  0  0  0  0  0  0  0  0  0  0
  -29.2736  -20.5683   19.7502 C   0  0  0  0  0  0  0  0  0  0  0  0
  -27.1944  -21.1439   13.2527 C   0  0  0  0  0  0  0  0  0  0  0  0
  -17.7932  -20.6507   12.8884 C   0  0  0  0  0  0  0  0  0  0  0  0
  -20.5610  -20.2651   11.9881 C   0  0  0  0  0  0  0  0  0  0  0  0
  -18.0628  -24.8875   20.6022 C   0  0  0  0  0  0  0  0  0  0  0  0
  -18.8849  -19.2394   15.7024 C   0  0  0  0  0  0  0  0  0  1  0  0
  -16.8210  -19.5814   13.3649 C   0  0  0  0  0  0  0  0  0  0  0  0
  -22.5926  -23.0614   13.8113 C   0  0  0  0  0  0  0  0  0  0  0  0
  -20.9879  -21.6636   12.4504 C   0  0  0  0  0  0  0  0  0  0  0  0
  -16.9762  -23.8817   20.2316 C   0  0  0  0  0  0  0  0  0  0  0  0
  -22.1908  -21.6448   13.3990 C   0  0  0  0  0  0  0  0  0  0  0  0
  -17.1840  -23.2843   18.8345 C   0  0  0  0  0  0  0  0  0  0  0  0
  -16.0714  -22.3315   18.4135 C   0  0  0  0  0  0  0  0  0  0  0  0
  -27.2687  -20.6825   18.2142 C   0  0  1  0  0  0  0  0  0  0  0  0
  -28.5452  -22.2780   15.0213 C   0  0  2  0  0  0  0  0  0  0  0  0
  -15.9392  -18.4386   15.3961 C   0  0  0  0  0  0  0  0  0  0  0  0
  -27.8353  -21.1093   19.5978 C   0  0  0  0  0  0  0  0  0  0  0  0
  -22.3910  -28.1172   21.0096 N   0  0  0  0  0  0  0  0  0  0  0  0
  -21.2592  -28.8155   20.8162 N   0  0  0  0  0  0  0  0  0  0  0  0
  -25.8732  -18.6729   17.8430 N   0  0  0  0  0  0  0  0  0  0  0  0
  -18.7167  -26.4426   22.4081 N   0  0  0  0  0  0  0  0  0  0  0  0
  -20.3669  -30.6870   19.6707 N   0  0  0  0  0  0  0  0  0  0  0  0
  -23.9100  -31.9764   19.2485 N   0  0  0  0  0  0  0  0  0  0  0  0
  -25.6206  -15.6715   19.7556 N   0  0  0  0  0  0  0  0  0  0  0  0
  -28.0599  -21.1407   17.0774 N   0  0  0  0  0  0  0  0  0  0  0  0
  -16.3398  -21.7743   17.0418 N   0  3  2  0  0  0  0  0  0  0  0  0
  -27.8904  -22.3826   13.6867 N   0  3  0  0  0  0  0  0  0  0  0  0
  -23.3736  -30.6436   17.4611 O   0  0  0  0  0  0  0  0  0  0  0  0
  -24.5046  -17.7105   19.8955 O   0  0  0  0  0  0  0  0  0  0  0  0
  -16.7874  -25.1587   22.5800 O   0  0  0  0  0  0  0  0  0  0  0  0
  -28.1757  -18.4914   18.1620 O   0  0  0  0  0  0  0  0  0  0  0  0
  -26.3576  -22.3302   16.0456 O   0  0  0  0  0  0  0  0  0  0  0  0
  -28.5856  -27.0130   20.0300 O   0  0  0  0  0  0  0  0  0  0  0  0
  -20.0094  -19.8612   16.2908 O   0  0  0  0  0  0  0  0  0  1  0  0
  -31.7668  -28.9986   15.9875 F   0  0  0  0  0  0  0  0  0  0  0  0
  -16.3571  -20.3083    8.2529 F   0  0  0  0  0  0  0  0  0  0  0  0
  -29.7487  -25.3204   18.1794 F   0  0  0  0  0  0  0  0  0  0  0  0
  -20.9804  -19.9269    9.2410 F   0  0  0  0  0  0  0  0  0  0  0  0
  -16.9047  -17.5125   15.2678 F   0  0  0  0  0  0  0  0  0  0  0  0
  -14.9012  -18.0720   14.6254 F   0  0  0  0  0  0  0  0  0  0  0  0
  1  2  1  0  0  0  0
  1  5  2  0  0  0  0
  2  6  2  0  0  0  0
  3  8  2  0  0  0  0
  3 16  1  0  0  0  0
  4  9  1  0  0  0  0
  4 16  2  0  0  0  0
  5 18  1  0  0  0  0
  6 20  1  0  0  0  0
  7 10  2  0  0  0  0
  7 19  1  0  0  0  0
  8 25  1  0  0  0  0
  9 25  2  0  0  0  0
 10 26  1  0  0  0  0
 11 12  2  0  0  0  0
 11 27  1  0  0  0  0
 12 28  1  0  0  0  0
 13 21  1  0  0  0  0
 13 26  2  0  0  0  0
 14 22  2  0  0  0  0
 14 29  1  0  0  0  0
 15 28  2  0  0  0  0
 15 30  1  0  0  0  0
 16 32  1  0  0  0  0
 17 32  1  0  0  0  0
 17 33  2  0  0  0  0
 17 34  1  0  0  0  0
 18 20  2  0  0  0  0
 18 39  1  0  0  0  0
 19 21  2  0  0  0  0
 19 40  1  0  0  0  0
 20 51  1  0  0  0  0
 21 41  1  0  0  0  0
 22 23  1  0  0  0  0
 22 63  1  0  0  0  0
 23 31  2  0  0  0  0
 23 64  1  0  0  0  0
 24 29  2  0  0  0  0
 24 31  1  0  0  0  0
 24 56  1  0  0  0  0
 25 93  1  0  0  0  0
 26 94  1  0  0  0  0
 27 30  2  0  0  0  0
 27 93  1  0  0  0  0
 28 95  1  0  0  0  0
 29 96  1  0  0  0  0
 30 97  1  0  0  0  0
 31 98  1  0  0  0  0
 32 78  2  0  0  0  0
 33 79  1  0  0  0  0
 33 82  1  0  0  0  0
 34 83  1  0  0  0  0
 34 88  2  0  0  0  0
 35 52  1  0  0  0  0
 35 84  1  0  0  0  0
 35 89  2  0  0  0  0
 36 65  1  0  0  0  0
 36 81  1  0  0  0  0
 36 90  2  0  0  0  0
 37 74  1  0  0  0  0
 37 80  1  0  0  0  0
 37 91  2  0  0  0  0
 38 75  1  0  0  0  0
 38 85  1  0  0  0  0
 38 92  2  0  0  0  0
 39 42  1  0  0  0  0
 40 52  1  0  0  0  0
 41 80  1  0  0  0  0
 42 44  1  0  0  0  0
 43 45  1  0  0  0  0
 43 47  1  0  0  0  0
 44 51  1  0  0  0  0
 45 54  1  0  0  0  0
 46 49  1  0  0  0  0
 46 55  1  0  0  0  0
 47 81  1  0  0  0  0
 48 54  1  0  0  0  0
 48 81  1  0  0  0  0
 49 86  1  0  0  0  0
 50 53  1  0  0  0  0
 50 86  1  0  0  0  0
 51 84  1  0  0  0  0
 52 80  1  0  0  0  0
 53 55  1  0  0  0  0
 53 66  1  0  0  0  0
 54 79  1  0  0  0  0
 55 67  1  0  0  0  0
 55 76  1  0  0  0  0
 57 68  1  0  0  0  0
 58 75  1  0  0  0  0
 59 77  1  0  0  0  0
 60 77  1  0  0  0  0
 61 77  1  0  0  0  0
 62 87  1  0  0  0  0
 63 67  1  0  0  0  0
 64 69  1  0  0  0  0
 65 70  1  0  0  0  0
 66 94  1  0  0  0  0
 68 71  1  0  0  0  0
 69 71  1  0  0  0  0
 70 72  1  0  0  0  0
 72 73  1  0  0  0  0
 73 86  1  0  0  0  0
 74 77  1  0  0  0  0
 74 85  1  0  0  0  0
 75 87  1  0  0  0  0
 76 99  1  0  0  0  0
 76100  1  0  0  0  0
 78 79  1  0  0  0  0
M  CHG  2  86   1  87   1
M  ISO  4  36 100  65 100  66 101  94 101
M  END
> <Batch ID>
0030

> <Smiles>
CCCCCc1c(CCC2(C(F)F)CCN(CCC[100CH2:0][100C:0](=O)N3CCCC(n4nc(-c5ccc(Oc6ccc(F)cc6F)cc5)c(C(N)=O)c4N)C3)CC2[101CH2:1][101O:1]c2ccc3c(c2)CN(C(=O)C(NC(=O)C(C)NC)C(C)(C)C)C(C(=O)NC2CCCc4ccccc42)C3)cc(F)c(C)c1F

> <Shape>
0.167

> <Color>
0.074

> <Negative vol penalty>
0.000

$$$$

  -OEChem-04052316393D

 85 93  0     1  0  0  0  0  0999 V2000
  -20.4987  -24.7692   17.8982 C   0  0  0  0  0  0  0  0  0  0  0  0
  -21.3650  -23.6914   17.7455 C   0  0  0  0  0  0  0  0  0  0  0  0
  -27.4474  -23.4742   20.6872 C   0  0  0  0  0  0  0  0  0  0  0  0
  -28.7195  -23.3945   18.6348 C   0  0  0  0  0  0  0  0  0  0  0  0
  -20.1009  -25.1671   19.1738 C   0  0  0  0  0  0  0  0  0  0  0  0
  -21.8349  -23.0115   18.8686 C   0  0  0  0  0  0  0  0  0  0  0  0
  -23.0235  -17.0204   19.3153 C   0  0  0  0  0  0  0  0  0  0  0  0
  -27.5671  -24.8637   20.7075 C   0  0  0  0  0  0  0  0  0  0  0  0
  -28.8392  -24.7841   18.6550 C   0  0  0  0  0  0  0  0  0  0  0  0
  -24.2082  -16.2903   19.2306 C   0  0  0  0  0  0  0  0  0  0  0  0
  -26.1203  -27.5110   19.1806 C   0  0  0  0  0  0  0  0  0  0  0  0
  -24.9769  -28.2560   19.4692 C   0  0  0  0  0  0  0  0  0  0  0  0
  -24.3919  -16.3209   21.6357 C   0  0  0  0  0  0  0  0  0  0  0  0
  -24.8374  -10.9284   17.9869 C   0  0  0  0  0  0  0  0  0  0  0  0
  -26.0831  -29.2076   21.3948 C   0  0  0  0  0  0  0  0  0  0  0  0
  -28.0237  -22.7395   19.6509 C   0  0  0  0  0  0  0  0  0  0  0  0
  -26.8792  -20.5471   19.0256 C   0  0  0  0  0  0  0  0  0  0  0  0
  -20.5585  -24.4856   20.3127 C   0  0  0  0  0  0  0  0  0  0  0  0
  -22.5190  -17.4163   20.5623 C   0  0  0  0  0  0  0  0  0  0  0  0
  -21.4439  -23.4015   20.1608 C   0  0  0  0  0  0  0  0  0  0  0  0
  -23.1992  -17.0537   21.7336 C   0  0  0  0  0  0  0  0  0  0  0  0
  -24.5346  -10.8115   19.3434 C   0  0  0  0  0  0  0  0  0  0  0  0
  -25.8763  -11.7624   17.5735 C   0  0  0  0  0  0  0  0  0  0  0  0
  -25.2706  -11.5286   20.2866 C   0  0  0  0  0  0  0  0  0  0  0  0
  -26.6122  -12.4796   18.5168 C   0  0  0  0  0  0  0  0  0  0  0  0
  -26.3094  -12.3627   19.8733 C   0  0  0  0  0  0  0  0  0  0  0  0
  -28.2629  -25.5187   19.6914 C   0  0  0  0  0  0  0  0  0  0  0  0
  -24.8941  -15.9429   20.3907 C   0  0  0  0  0  0  0  0  0  0  0  0
  -27.2451  -27.6143   19.9991 C   0  0  0  0  0  0  0  0  0  0  0  0
  -24.9583  -29.1043   20.5763 C   0  0  0  0  0  0  0  0  0  0  0  0
  -27.2265  -28.4626   21.1061 C   0  0  0  0  0  0  0  0  0  0  0  0
  -27.9009  -21.3041   19.6297 C   0  0  0  0  0  0  0  0  0  0  0  0
  -27.2191  -19.2420   19.2859 C   0  0  0  0  0  0  0  0  0  0  0  0
  -25.7261  -20.9845   18.2944 C   0  0  0  0  0  0  0  0  0  0  0  0
  -21.9280  -20.2099   21.9587 C   0  0  0  0  0  0  0  0  0  0  0  0
  -20.6498  -18.3379   24.2791 C   0  0  0  0  0  0  0  0  0  0  0  0
  -20.5423  -15.2905   25.8116 C   0  0  0  0  0  0  0  0  0  0  0  0
  -31.0188  -15.1634   19.5551 C   0  0  0  0  0  0  0  0  0  0  0  0
  -20.1382  -24.9820   21.6734 C   0  0  0  0  0  0  0  0  0  0  0  0
  -21.2257  -18.1805   20.6381 C   0  0  0  0  0  0  0  0  0  0  0  0
  -22.6890  -17.4369   23.0979 C   0  0  0  0  0  0  0  0  0  0  0  0
  -20.3852  -23.9737   22.7926 C   0  0  0  0  0  0  0  0  0  0  0  0
  -30.7192  -17.3065   22.3826 C   0  0  0  0  0  0  0  0  0  0  0  0
  -21.7853  -23.3796   22.6765 C   0  0  0  0  0  0  0  0  0  0  0  0
  -29.8807  -18.4773   21.8668 C   0  0  0  0  0  0  0  0  0  0  0  0
  -31.6740  -16.7816   21.3125 C   0  0  0  0  0  0  0  0  0  0  0  0
  -30.1956  -17.5960   19.5168 C   0  0  0  0  0  0  0  0  0  0  0  0
  -21.9556  -22.6232   21.3535 C   0  0  1  0  0  0  0  0  0  0  0  0
  -21.0750  -18.9732   21.9328 C   0  0  1  0  0  0  0  0  0  0  0  0
  -29.1777  -18.1232   20.5426 C   0  0  2  0  0  0  0  0  0  0  0  0
  -23.4170   -9.9119   19.7594 C   0  0  0  0  0  0  0  0  0  0  0  0
  -26.1808  -11.8691   16.1150 C   0  0  0  0  0  0  0  0  0  0  0  0
  -24.9438  -11.4013   21.7410 C   0  0  0  0  0  0  0  0  0  0  0  0
  -19.4283  -14.0752   27.7035 C   0  0  0  0  0  0  0  0  0  0  0  0
  -22.4470  -19.7937   26.2693 C   0  0  0  0  0  0  0  0  0  0  0  0
  -22.0103  -17.9500   27.9058 C   0  0  0  0  0  0  0  0  0  0  0  0
  -20.1232  -19.3602   27.0855 C   0  0  0  0  0  0  0  0  0  0  0  0
  -19.3248  -13.3126   23.9774 C   0  0  0  0  0  0  0  0  0  0  0  0
  -27.7253  -13.3740   18.0705 C   0  0  0  0  0  0  0  0  0  0  0  0
  -27.1062  -13.1383   20.8941 C   0  0  0  0  0  0  0  0  0  0  0  0
  -29.1307  -12.7675   18.2367 C   0  0  0  0  0  0  0  0  0  0  0  0
  -30.2646  -13.6575   17.7323 C   0  0  0  0  0  0  0  0  0  0  0  0
  -26.3578  -14.3654   21.4032 C   0  0  0  0  0  0  0  0  0  1  0  0
  -21.1774  -17.6717   25.5268 C   0  0  1  0  0  0  0  0  0  0  0  0
  -19.3759  -14.4094   26.2208 C   0  0  2  0  0  0  0  0  0  0  0  0
  -21.4504  -18.6882   26.6712 C   0  0  0  0  0  0  0  0  0  0  0  0
  -28.8208  -20.5433   20.2288 N   0  0  0  0  0  0  0  0  0  0  0  0
  -28.3783  -19.2946   20.0025 N   0  0  0  0  0  0  0  0  0  0  0  0
  -21.4236  -18.1892   23.1194 N   0  0  0  0  0  0  0  0  0  0  0  0
  -30.9443  -16.4630   20.0830 N   0  0  0  0  0  0  0  0  0  0  0  0
  -26.6364  -18.0661   18.9696 N   0  0  0  0  0  0  0  0  0  0  0  0
  -25.5284  -22.3609   18.1193 N   0  0  0  0  0  0  0  0  0  0  0  0
  -21.3147  -21.3277   21.4258 N   0  0  0  0  0  0  0  0  0  0  0  0
  -20.2165  -16.6290   25.8703 N   0  0  0  0  0  0  0  0  0  0  0  0
  -30.2923  -14.9444   18.3911 N   0  0  0  0  0  0  0  0  0  0  0  0
  -19.3950  -13.1338   25.4505 N   0  3  0  0  0  0  0  0  0  0  0  0
  -24.8868  -20.1792   17.8247 O   0  0  0  0  0  0  0  0  0  0  0  0
  -23.0583  -20.1546   22.4288 O   0  0  0  0  0  0  0  0  0  0  0  0
  -19.5865  -18.9612   24.3299 O   0  0  0  0  0  0  0  0  0  0  0  0
  -21.6345  -14.8369   25.4771 O   0  0  0  0  0  0  0  0  0  0  0  0
  -31.6792  -14.2635   20.0851 O   0  0  0  0  0  0  0  0  0  0  0  0
  -28.3797  -26.8746   19.7107 O   0  0  0  0  0  0  0  0  0  0  0  0
  -26.0511  -15.2309   20.3108 O   0  0  0  0  0  0  0  0  0  1  0  0
  -23.8608  -29.8208   20.8525 F   0  0  0  0  0  0  0  0  0  0  0  0
  -28.3044  -28.5669   21.8954 F   0  0  0  0  0  0  0  0  0  0  0  0
  1  2  1  0  0  0  0
  1  5  2  0  0  0  0
  2  6  2  0  0  0  0
  3  8  2  0  0  0  0
  3 16  1  0  0  0  0
  4  9  1  0  0  0  0
  4 16  2  0  0  0  0
  5 18  1  0  0  0  0
  6 20  1  0  0  0  0
  7 10  2  0  0  0  0
  7 19  1  0  0  0  0
  8 27  1  0  0  0  0
  9 27  2  0  0  0  0
 10 28  1  0  0  0  0
 11 12  2  0  0  0  0
 11 29  1  0  0  0  0
 12 30  1  0  0  0  0
 13 21  1  0  0  0  0
 13 28  2  0  0  0  0
 14 22  1  0  0  0  0
 14 23  2  0  0  0  0
 15 30  2  0  0  0  0
 15 31  1  0  0  0  0
 16 32  1  0  0  0  0
 17 32  1  0  0  0  0
 17 33  2  0  0  0  0
 17 34  1  0  0  0  0
 18 20  2  0  0  0  0
 18 39  1  0  0  0  0
 19 21  2  0  0  0  0
 19 40  1  0  0  0  0
 20 48  1  0  0  0  0
 21 41  1  0  0  0  0
 22 24  2  0  0  0  0
 22 51  1  0  0  0  0
 23 25  1  0  0  0  0
 23 52  1  0  0  0  0
 24 26  1  0  0  0  0
 24 53  1  0  0  0  0
 25 26  2  0  0  0  0
 25 59  1  0  0  0  0
 26 60  1  0  0  0  0
 27 82  1  0  0  0  0
 28 83  1  0  0  0  0
 29 31  2  0  0  0  0
 29 82  1  0  0  0  0
 30 84  1  0  0  0  0
 31 85  1  0  0  0  0
 32 67  2  0  0  0  0
 33 68  1  0  0  0  0
 33 71  1  0  0  0  0
 34 72  1  0  0  0  0
 34 77  2  0  0  0  0
 35 49  1  0  0  0  0
 35 73  1  0  0  0  0
 35 78  2  0  0  0  0
 36 64  1  0  0  0  0
 36 69  1  0  0  0  0
 36 79  2  0  0  0  0
 37 65  1  0  0  0  0
 37 74  1  0  0  0  0
 37 80  2  0  0  0  0
 38 70  1  0  0  0  0
 38 75  1  0  0  0  0
 38 81  2  0  0  0  0
 39 42  1  0  0  0  0
 40 49  1  0  0  0  0
 41 69  1  0  0  0  0
 42 44  1  0  0  0  0
 43 45  1  0  0  0  0
 43 46  1  0  0  0  0
 44 48  1  0  0  0  0
 45 50  1  0  0  0  0
 46 70  1  0  0  0  0
 47 50  1  0  0  0  0
 47 70  1  0  0  0  0
 48 73  1  0  0  0  0
 49 69  1  0  0  0  0
 50 68  1  0  0  0  0
 54 65  1  0  0  0  0
 55 66  1  0  0  0  0
 56 66  1  0  0  0  0
 57 66  1  0  0  0  0
 58 76  1  0  0  0  0
 59 61  1  0  0  0  0
 60 63  1  0  0  0  0
 61 62  1  0  0  0  0
 62 75  1  0  0  0  0
 63 83  1  0  0  0  0
 64 66  1  0  0  0  0
 64 74  1  0  0  0  0
 65 76  1  0  0  0  0
 67 68  1  0  0  0  0
M  CHG  1  76   1
M  ISO  4  38 100  63 101  75 100  83 101
M  END
> <Batch ID>
0030

> <Smiles>
CNC(C)C(=O)NC(C(=O)N1Cc2cc([101O:1][101CH2:1]Cc3c(C)c(C)cc(C)c3CCC[100NH:0][100C:0](=O)N3CCCC(n4nc(-c5ccc(Oc6ccc(F)cc6F)cc5)c(C(N)=O)c4N)C3)ccc2CC1C(=O)NC1CCCc2ccccc21)C(C)(C)C

> <Shape>
0.196

> <Color>
0.081

> <Negative vol penalty>
0.000

$$$$

  -OEChem-04052316393D

 82 90  0     1  0  0  0  0  0999 V2000
  -27.3483  -34.8491   24.0042 C   0  0  0  0  0  0  0  0  0  0  0  0
  -27.7150  -33.5187   23.8287 C   0  0  0  0  0  0  0  0  0  0  0  0
  -26.5568  -12.3109   21.7561 C   0  0  0  0  0  0  0  0  0  0  0  0
  -25.7771  -13.8060   20.0258 C   0  0  0  0  0  0  0  0  0  0  0  0
  -26.0096  -35.1809   24.2083 C   0  0  0  0  0  0  0  0  0  0  0  0
  -26.7433  -32.5190   23.8584 C   0  0  0  0  0  0  0  0  0  0  0  0
  -26.6696  -27.3574   20.5632 C   0  0  0  0  0  0  0  0  0  0  0  0
  -25.3222  -11.6617   21.7515 C   0  0  0  0  0  0  0  0  0  0  0  0
  -24.5425  -13.1568   20.0212 C   0  0  0  0  0  0  0  0  0  0  0  0
  -27.0404  -26.0475   20.8636 C   0  0  0  0  0  0  0  0  0  0  0  0
  -23.7249   -9.3608   19.8575 C   0  0  0  0  0  0  0  0  0  0  0  0
  -23.7260   -7.9660   19.8692 C   0  0  0  0  0  0  0  0  0  0  0  0
  -24.7459  -25.5261   21.3950 C   0  0  0  0  0  0  0  0  0  0  0  0
  -22.4995   -7.9825   21.9507 C   0  0  0  0  0  0  0  0  0  0  0  0
  -27.1459  -21.8970   17.3158 C   0  0  0  0  0  0  0  0  0  0  0  0
  -26.7842  -13.3831   20.8933 C   0  0  0  0  0  0  0  0  0  0  0  0
  -29.1880  -13.7406   20.1178 C   0  0  0  0  0  0  0  0  0  0  0  0
  -25.0197  -34.1858   24.2309 C   0  0  0  0  0  0  0  0  0  0  0  0
  -25.3336  -27.7651   20.6872 C   0  0  0  0  0  0  0  0  0  0  0  0
  -25.3903  -32.8377   24.0644 C   0  0  0  0  0  0  0  0  0  0  0  0
  -24.3602  -26.8410   21.0932 C   0  0  0  0  0  0  0  0  0  0  0  0
  -26.9631  -21.7063   19.6795 C   0  0  0  0  0  0  0  0  0  0  0  0
  -28.3462  -21.8200   19.7651 C   0  0  0  0  0  0  0  0  0  0  0  0
  -24.3151  -12.0846   20.8840 C   0  0  0  0  0  0  0  0  0  0  0  0
  -26.0791  -25.1323   21.2823 C   0  0  0  0  0  0  0  0  0  0  0  0
  -23.1113  -10.0664   20.8925 C   0  0  0  0  0  0  0  0  0  0  0  0
  -23.1132   -7.2768   20.9157 C   0  0  0  0  0  0  0  0  0  0  0  0
  -22.4985   -9.3773   21.9390 C   0  0  0  0  0  0  0  0  0  0  0  0
  -26.3437  -21.7445   18.4352 C   0  0  0  0  0  0  0  0  0  0  0  0
  -28.0591  -14.0545   20.8980 C   0  0  0  0  0  0  0  0  0  0  0  0
  -29.0588  -21.9689   18.5862 C   0  0  0  0  0  0  0  0  0  0  0  0
  -30.1316  -14.6662   20.4912 C   0  0  0  0  0  0  0  0  0  0  0  0
  -29.3677  -12.7050   19.1426 C   0  0  0  0  0  0  0  0  0  0  0  0
  -23.7998  -29.9176   22.4531 C   0  0  0  0  0  0  0  0  0  0  0  0
  -21.2693  -29.0437   20.6214 C   0  0  0  0  0  0  0  0  0  0  0  0
  -19.7957  -26.6739   18.6569 C   0  0  0  0  0  0  0  0  0  0  0  0
  -29.7474  -20.1641   22.8315 C   0  0  0  0  0  0  0  0  0  0  0  0
  -23.5917  -34.5883   24.5020 C   0  0  0  0  0  0  0  0  0  0  0  0
  -24.9453  -29.1746   20.3337 C   0  0  0  0  0  0  0  0  0  0  0  0
  -22.9092  -27.2232   21.2229 C   0  0  0  0  0  0  0  0  0  0  0  0
  -22.5758  -33.5061   24.1459 C   0  0  0  0  0  0  0  0  0  0  0  0
  -31.4624  -17.3653   24.2107 C   0  0  0  0  0  0  0  0  0  0  0  0
  -23.0261  -32.1526   24.6864 C   0  0  0  0  0  0  0  0  0  0  0  0
  -30.8865  -16.1711   23.4477 C   0  0  0  0  0  0  0  0  0  0  0  0
  -30.4009  -18.4306   24.4760 C   0  0  0  0  0  0  0  0  0  0  0  0
  -29.0991  -17.6991   22.5154 C   0  0  0  0  0  0  0  0  0  0  0  0
  -24.3621  -31.7273   24.0654 C   0  0  1  0  0  0  0  0  0  0  0  0
  -23.6410  -29.6174   20.9894 C   0  0  1  0  0  0  0  0  0  0  0  0
  -30.1448  -16.6234   22.1755 C   0  0  2  0  0  0  0  0  0  0  0  0
  -17.7114  -26.2321   17.3312 C   0  0  0  0  0  0  0  0  0  0  0  0
  -19.7384  -28.5180   23.2079 C   0  0  0  0  0  0  0  0  0  0  0  0
  -18.0700  -27.2128   21.8733 C   0  0  0  0  0  0  0  0  0  0  0  0
  -18.4042  -29.6422   21.4162 C   0  0  0  0  0  0  0  0  0  0  0  0
  -21.3184  -26.4065   16.1333 C   0  0  0  0  0  0  0  0  0  0  0  0
  -26.1481  -21.5421   20.9393 C   0  0  0  0  0  0  0  0  0  0  0  0
  -29.0318  -21.7814   21.0904 C   0  0  0  0  0  0  0  0  0  0  0  0
  -25.4607  -22.8371   21.3581 C   0  0  0  0  0  0  0  0  0  1  0  0
  -20.1899  -27.9930   20.7206 C   0  0  1  0  0  0  0  0  0  0  0  0
  -19.1354  -26.7645   17.2930 C   0  0  2  0  0  0  0  0  0  0  0  0
  -19.1282  -28.3345   21.8040 C   0  0  0  0  0  0  0  0  0  0  0  0
  -28.4923  -22.0105   17.3594 N   0  0  0  0  0  0  0  0  0  0  0  0
  -28.2647  -15.0979   21.7062 N   0  0  0  0  0  0  0  0  0  0  0  0
  -29.5338  -15.4476   21.4359 N   0  0  0  0  0  0  0  0  0  0  0  0
  -22.5804  -28.6146   20.8718 N   0  0  0  0  0  0  0  0  0  0  0  0
  -29.7363  -18.8169   23.2290 N   0  0  0  0  0  0  0  0  0  0  0  0
  -31.4060  -14.8798   20.1005 N   0  0  0  0  0  0  0  0  0  0  0  0
  -28.2957  -11.8411   18.8802 N   0  0  0  0  0  0  0  0  0  0  0  0
  -24.1584  -31.2243   22.7237 N   0  0  0  0  0  0  0  0  0  0  0  0
  -19.6440  -27.8403   19.3763 N   0  0  0  0  0  0  0  0  0  0  0  0
  -29.1002  -20.4433   21.6341 N   0  0  0  0  0  0  0  0  0  0  0  0
  -19.9057  -25.9747   16.2911 N   0  3  0  0  0  0  0  0  0  0  0  0
  -30.4522  -12.5401   18.5342 O   0  0  0  0  0  0  0  0  0  0  0  0
  -23.6097  -29.0297   23.2760 O   0  0  0  0  0  0  0  0  0  0  0  0
  -20.9613  -30.2010   20.3254 O   0  0  0  0  0  0  0  0  0  0  0  0
  -20.3839  -25.6675   19.0467 O   0  0  0  0  0  0  0  0  0  0  0  0
  -30.2982  -21.0515   23.4920 O   0  0  0  0  0  0  0  0  0  0  0  0
  -23.1104  -11.4512   20.8791 O   0  0  0  0  0  0  0  0  0  0  0  0
  -26.4385  -23.8533   21.5768 O   0  0  0  0  0  0  0  0  0  1  0  0
  -23.1130   -5.9374   20.9260 F   0  0  0  0  0  0  0  0  0  0  0  0
  -21.9063  -10.0497   22.9355 F   0  0  0  0  0  0  0  0  0  0  0  0
  -24.6391  -21.6083   18.2490 Cl  0  0  0  0  0  0  0  0  0  0  0  0
  -30.7723  -22.1193   18.5573 Cl  0  0  0  0  0  0  0  0  0  0  0  0
  1  2  1  0  0  0  0
  1  5  2  0  0  0  0
  2  6  2  0  0  0  0
  3  8  2  0  0  0  0
  3 16  1  0  0  0  0
  4  9  1  0  0  0  0
  4 16  2  0  0  0  0
  5 18  1  0  0  0  0
  6 20  1  0  0  0  0
  7 10  2  0  0  0  0
  7 19  1  0  0  0  0
  8 24  1  0  0  0  0
  9 24  2  0  0  0  0
 10 25  1  0  0  0  0
 11 12  2  0  0  0  0
 11 26  1  0  0  0  0
 12 27  1  0  0  0  0
 13 21  1  0  0  0  0
 13 25  2  0  0  0  0
 14 27  2  0  0  0  0
 14 28  1  0  0  0  0
 15 29  2  0  0  0  0
 15 61  1  0  0  0  0
 16 30  1  0  0  0  0
 17 30  1  0  0  0  0
 17 32  2  0  0  0  0
 17 33  1  0  0  0  0
 18 20  2  0  0  0  0
 18 38  1  0  0  0  0
 19 21  2  0  0  0  0
 19 39  1  0  0  0  0
 20 47  1  0  0  0  0
 21 40  1  0  0  0  0
 22 23  2  0  0  0  0
 22 29  1  0  0  0  0
 22 55  1  0  0  0  0
 23 31  1  0  0  0  0
 23 56  1  0  0  0  0
 24 77  1  0  0  0  0
 25 78  1  0  0  0  0
 26 28  2  0  0  0  0
 26 77  1  0  0  0  0
 27 79  1  0  0  0  0
 28 80  1  0  0  0  0
 29 81  1  0  0  0  0
 30 62  2  0  0  0  0
 31 61  2  0  0  0  0
 31 82  1  0  0  0  0
 32 63  1  0  0  0  0
 32 66  1  0  0  0  0
 33 67  1  0  0  0  0
 33 72  2  0  0  0  0
 34 48  1  0  0  0  0
 34 68  1  0  0  0  0
 34 73  2  0  0  0  0
 35 58  1  0  0  0  0
 35 64  1  0  0  0  0
 35 74  2  0  0  0  0
 36 59  1  0  0  0  0
 36 69  1  0  0  0  0
 36 75  2  0  0  0  0
 37 65  1  0  0  0  0
 37 70  1  0  0  0  0
 37 76  2  0  0  0  0
 38 41  1  0  0  0  0
 39 48  1  0  0  0  0
 40 64  1  0  0  0  0
 41 43  1  0  0  0  0
 42 44  1  0  0  0  0
 42 45  1  0  0  0  0
 43 47  1  0  0  0  0
 44 49  1  0  0  0  0
 45 65  1  0  0  0  0
 46 49  1  0  0  0  0
 46 65  1  0  0  0  0
 47 68  1  0  0  0  0
 48 64  1  0  0  0  0
 49 63  1  0  0  0  0
 50 59  1  0  0  0  0
 51 60  1  0  0  0  0
 52 60  1  0  0  0  0
 53 60  1  0  0  0  0
 54 71  1  0  0  0  0
 55 57  1  0  0  0  0
 56 70  1  0  0  0  0
 57 78  1  0  0  0  0
 58 60  1  0  0  0  0
 58 69  1  0  0  0  0
 59 71  1  0  0  0  0
 62 63  1  0  0  0  0
M  CHG  1  71   1
M  ISO  4  37 100  57 101  70 100  78 101
M  END
> <Batch ID>
0030

> <Smiles>
CNC(C)C(=O)NC(C(=O)N1Cc2cc([101O:1][101CH2:1]Cc3c(Cl)cnc(Cl)c3C[100NH:0][100C:0](=O)N3CCCC(n4nc(-c5ccc(Oc6ccc(F)cc6F)cc5)c(C(N)=O)c4N)C3)ccc2CC1C(=O)NC1CCCc2ccccc21)C(C)(C)C

> <Shape>
0.287

> <Color>
0.065

> <Negative vol penalty>
0.000

$$$$

  -OEChem-04052316393D

 83 91  0     1  0  0  0  0  0999 V2000
  -22.1077  -12.3188   18.5279 C   0  0  0  0  0  0  0  0  0  0  0  0
  -21.8574  -13.6171   18.9606 C   0  0  0  0  0  0  0  0  0  0  0  0
  -30.3803  -27.7205   19.7140 C   0  0  0  0  0  0  0  0  0  0  0  0
  -30.0694  -27.4953   22.0993 C   0  0  0  0  0  0  0  0  0  0  0  0
  -23.2647  -11.6589   18.9398 C   0  0  0  0  0  0  0  0  0  0  0  0
  -22.7635  -14.2558   19.8064 C   0  0  0  0  0  0  0  0  0  0  0  0
  -24.1637  -20.2174   19.8740 C   0  0  0  0  0  0  0  0  0  0  0  0
  -31.7616  -27.7768   19.8993 C   0  0  0  0  0  0  0  0  0  0  0  0
  -31.4508  -27.5515   22.2846 C   0  0  0  0  0  0  0  0  0  0  0  0
  -23.7297  -21.2738   20.6737 C   0  0  0  0  0  0  0  0  0  0  0  0
  -35.3886  -27.6171   19.7126 C   0  0  0  0  0  0  0  0  0  0  0  0
  -36.1888  -26.8572   18.8596 C   0  0  0  0  0  0  0  0  0  0  0  0
  -25.6634  -20.9897   22.0878 C   0  0  0  0  0  0  0  0  0  0  0  0
  -20.5082  -26.1359   23.4854 C   0  0  0  0  0  0  0  0  0  0  0  0
  -19.1935  -26.6893   21.5355 C   0  0  0  0  0  0  0  0  0  0  0  0
  -35.0899  -24.8449   19.6213 C   0  0  0  0  0  0  0  0  0  0  0  0
  -29.5342  -27.5798   20.8140 C   0  0  0  0  0  0  0  0  0  0  0  0
  -27.3234  -26.3719   20.4126 C   0  0  0  0  0  0  0  0  0  0  0  0
  -24.1902  -12.2933   19.7834 C   0  0  0  0  0  0  0  0  0  0  0  0
  -25.3470  -19.5310   20.1821 C   0  0  0  0  0  0  0  0  0  0  0  0
  -23.9333  -13.6032   20.2311 C   0  0  0  0  0  0  0  0  0  0  0  0
  -26.1115  -19.9266   21.2890 C   0  0  0  0  0  0  0  0  0  0  0  0
  -19.9790  -27.0899   22.6163 C   0  0  0  0  0  0  0  0  0  0  0  0
  -20.2519  -24.7812   23.2737 C   0  0  0  0  0  0  0  0  0  0  0  0
  -19.4663  -24.3806   22.1929 C   0  0  0  0  0  0  0  0  0  0  0  0
  -32.2969  -27.6923   21.1846 C   0  0  0  0  0  0  0  0  0  0  0  0
  -24.4781  -21.6583   21.7824 C   0  0  0  0  0  0  0  0  0  0  0  0
  -34.4390  -26.9910   20.5201 C   0  0  0  0  0  0  0  0  0  0  0  0
  -36.0395  -25.4711   18.8139 C   0  0  0  0  0  0  0  0  0  0  0  0
  -34.2897  -25.6049   20.4744 C   0  0  0  0  0  0  0  0  0  0  0  0
  -18.9371  -25.3346   21.3238 C   0  0  0  0  0  0  0  0  0  0  0  0
  -28.1072  -27.5222   20.6232 C   0  0  0  0  0  0  0  0  0  0  0  0
  -26.0407  -26.8478   20.2912 C   0  0  0  0  0  0  0  0  0  0  0  0
  -27.7194  -24.9961   20.3339 C   0  0  0  0  0  0  0  0  0  0  0  0
  -26.0643  -16.5330   20.9577 C   0  0  0  0  0  0  0  0  0  0  0  0
  -29.1134  -17.6196   20.7466 C   0  0  0  0  0  0  0  0  0  0  0  0
  -31.2598  -20.2700   20.8707 C   0  0  0  0  0  0  0  0  0  0  0  0
  -21.9060  -30.1847   21.9984 C   0  0  0  0  0  0  0  0  0  0  0  0
  -25.4034  -11.5225   20.2401 C   0  0  0  0  0  0  0  0  0  0  0  0
  -25.8154  -18.4109   19.2941 C   0  0  0  0  0  0  0  0  0  0  0  0
  -27.3997  -19.2353   21.6509 C   0  0  0  0  0  0  0  0  0  0  0  0
  -26.4973  -12.4052   20.8355 C   0  0  0  0  0  0  0  0  0  0  0  0
  -24.3183  -31.5763   19.7800 C   0  0  0  0  0  0  0  0  0  0  0  0
  -25.9001  -13.4018   21.8239 C   0  0  0  0  0  0  0  0  0  0  0  0
  -25.4563  -30.5542   19.7893 C   0  0  0  0  0  0  0  0  0  0  0  0
  -23.6674  -31.7088   21.1551 C   0  0  0  0  0  0  0  0  0  0  0  0
  -24.3449  -29.4168   21.7565 C   0  0  0  0  0  0  0  0  0  0  0  0
  -24.9044  -14.3385   21.1292 C   0  0  1  0  0  0  0  0  0  0  0  0
  -26.7684  -17.4494   19.9974 C   0  0  1  0  0  0  0  0  0  0  0  0
  -24.9956  -29.2073   20.3784 C   0  0  2  0  0  0  0  0  0  0  0  0
  -19.2014  -22.9227   21.9796 C   0  0  0  0  0  0  0  0  0  0  0  0
  -33.6975  -20.8405   20.6988 C   0  0  0  0  0  0  0  0  0  0  0  0
  -29.5652  -16.5261   23.5591 C   0  0  0  0  0  0  0  0  0  0  0  0
  -31.6360  -17.9265   23.6956 C   0  0  0  0  0  0  0  0  0  0  0  0
  -31.4567  -16.1334   21.9708 C   0  0  0  0  0  0  0  0  0  0  0  0
  -30.8056  -22.0109   18.5208 C   0  0  0  0  0  0  0  0  0  0  0  0
  -20.8381  -23.7721   24.2284 C   0  0  0  0  0  0  0  0  0  0  0  0
  -20.2527  -28.5383   22.8439 C   0  0  0  0  0  0  0  0  0  0  0  0
  -22.3312  -23.5152   24.0129 C   0  0  0  0  0  0  0  0  0  0  0  0
  -22.6485  -22.9031   22.6535 C   0  0  0  0  0  0  0  0  0  1  0  0
  -30.0939  -18.2466   21.7081 C   0  0  1  0  0  0  0  0  0  0  0  0
  -32.3838  -20.7001   19.9455 C   0  0  2  0  0  0  0  0  0  0  0  0
  -30.6627  -17.2201   22.7280 C   0  0  0  0  0  0  0  0  0  0  0  0
  -27.3830  -28.6444   20.6353 N   0  0  0  0  0  0  0  0  0  0  0  0
  -26.1307  -28.2016   20.4307 N   0  0  0  0  0  0  0  0  0  0  0  0
  -27.8123  -18.1419   20.7555 N   0  0  0  0  0  0  0  0  0  0  0  0
  -23.2518  -30.3966   21.6565 N   0  0  0  0  0  0  0  0  0  0  0  0
  -24.8560  -26.2362   20.0798 N   0  0  0  0  0  0  0  0  0  0  0  0
  -29.0775  -24.6823   20.4806 N   0  0  0  0  0  0  0  0  0  0  0  0
  -25.6075  -15.3614   20.3850 N   0  0  0  0  0  0  0  0  0  0  0  0
  -31.1088  -18.8995   20.8883 N   0  0  0  0  0  0  0  0  0  0  0  0
  -21.5957  -28.9111   22.4591 N   0  0  0  0  0  0  0  0  0  0  0  0
  -32.0619  -22.0109   19.3138 N   0  3  0  0  0  0  0  0  0  0  0  0
  -26.8955  -24.0740   20.1230 O   0  0  0  0  0  0  0  0  0  0  0  0
  -25.9456  -16.8638   22.1316 O   0  0  0  0  0  0  0  0  0  0  0  0
  -29.4900  -16.7050   20.0095 O   0  0  0  0  0  0  0  0  0  0  0  0
  -30.5857  -21.0696   21.5163 O   0  0  0  0  0  0  0  0  0  0  0  0
  -21.0437  -31.0638   21.8952 O   0  0  0  0  0  0  0  0  0  0  0  0
  -33.6447  -27.7469   21.3658 O   0  0  0  0  0  0  0  0  0  0  0  0
  -24.0565  -22.6886   22.5650 O   0  0  0  0  0  0  0  0  0  1  0  0
  -36.8070  -24.7416   17.9936 F   0  0  0  0  0  0  0  0  0  0  0  0
  -33.3783  -24.9978   21.2469 F   0  0  0  0  0  0  0  0  0  0  0  0
  -17.9588  -24.8793   19.9759 Cl  0  0  0  0  0  0  0  0  0  0  0  0
  1  2  1  0  0  0  0
  1  5  2  0  0  0  0
  2  6  2  0  0  0  0
  3  8  2  0  0  0  0
  3 17  1  0  0  0  0
  4  9  1  0  0  0  0
  4 17  2  0  0  0  0
  5 19  1  0  0  0  0
  6 21  1  0  0  0  0
  7 10  2  0  0  0  0
  7 20  1  0  0  0  0
  8 26  1  0  0  0  0
  9 26  2  0  0  0  0
 10 27  1  0  0  0  0
 11 12  2  0  0  0  0
 11 28  1  0  0  0  0
 12 29  1  0  0  0  0
 13 22  1  0  0  0  0
 13 27  2  0  0  0  0
 14 23  2  0  0  0  0
 14 24  1  0  0  0  0
 15 23  1  0  0  0  0
 15 31  2  0  0  0  0
 16 29  2  0  0  0  0
 16 30  1  0  0  0  0
 17 32  1  0  0  0  0
 18 32  1  0  0  0  0
 18 33  2  0  0  0  0
 18 34  1  0  0  0  0
 19 21  2  0  0  0  0
 19 39  1  0  0  0  0
 20 22  2  0  0  0  0
 20 40  1  0  0  0  0
 21 48  1  0  0  0  0
 22 41  1  0  0  0  0
 23 58  1  0  0  0  0
 24 25  2  0  0  0  0
 24 57  1  0  0  0  0
 25 31  1  0  0  0  0
 25 51  1  0  0  0  0
 26 79  1  0  0  0  0
 27 80  1  0  0  0  0
 28 30  2  0  0  0  0
 28 79  1  0  0  0  0
 29 81  1  0  0  0  0
 30 82  1  0  0  0  0
 31 83  1  0  0  0  0
 32 64  2  0  0  0  0
 33 65  1  0  0  0  0
 33 68  1  0  0  0  0
 34 69  1  0  0  0  0
 34 74  2  0  0  0  0
 35 49  1  0  0  0  0
 35 70  1  0  0  0  0
 35 75  2  0  0  0  0
 36 61  1  0  0  0  0
 36 66  1  0  0  0  0
 36 76  2  0  0  0  0
 37 62  1  0  0  0  0
 37 71  1  0  0  0  0
 37 77  2  0  0  0  0
 38 67  1  0  0  0  0
 38 72  1  0  0  0  0
 38 78  2  0  0  0  0
 39 42  1  0  0  0  0
 40 49  1  0  0  0  0
 41 66  1  0  0  0  0
 42 44  1  0  0  0  0
 43 45  1  0  0  0  0
 43 46  1  0  0  0  0
 44 48  1  0  0  0  0
 45 50  1  0  0  0  0
 46 67  1  0  0  0  0
 47 50  1  0  0  0  0
 47 67  1  0  0  0  0
 48 70  1  0  0  0  0
 49 66  1  0  0  0  0
 50 65  1  0  0  0  0
 52 62  1  0  0  0  0
 53 63  1  0  0  0  0
 54 63  1  0  0  0  0
 55 63  1  0  0  0  0
 56 73  1  0  0  0  0
 57 59  1  0  0  0  0
 58 72  1  0  0  0  0
 59 60  1  0  0  0  0
 60 80  1  0  0  0  0
 61 63  1  0  0  0  0
 61 71  1  0  0  0  0
 62 73  1  0  0  0  0
 64 65  1  0  0  0  0
M  CHG  1  73   1
M  ISO  4  38 100  60 101  72 100  80 101
M  END
> <Batch ID>
0030

> <Smiles>
CNC(C)C(=O)NC(C(=O)N1Cc2cc([101O:1][101CH2:1]CCc3cc(C[100NH:0][100C:0](=O)N4CCCC(n5nc(-c6ccc(Oc7ccc(F)cc7F)cc6)c(C(N)=O)c5N)C4)cc(Cl)c3C)ccc2CC1C(=O)NC1CCCc2ccccc21)C(C)(C)C

> <Shape>
0.221

> <Color>
0.075

> <Negative vol penalty>
0.000

$$$$

  -OEChem-04052316393D

 85 93  0     1  0  0  0  0  0999 V2000
  -21.7004  -11.8583   21.1775 C   0  0  0  0  0  0  0  0  0  0  0  0
  -21.8558  -13.0818   21.8212 C   0  0  0  0  0  0  0  0  0  0  0  0
  -25.0000  -28.0142   19.1081 C   0  0  0  0  0  0  0  0  0  0  0  0
  -25.7659  -27.9479   21.3985 C   0  0  0  0  0  0  0  0  0  0  0  0
  -22.7932  -11.2547   20.5568 C   0  0  0  0  0  0  0  0  0  0  0  0
  -23.1046  -13.7019   21.8455 C   0  0  0  0  0  0  0  0  0  0  0  0
  -22.8352  -18.6535   20.8189 C   0  0  0  0  0  0  0  0  0  0  0  0
  -26.1756  -28.6649   18.7338 C   0  0  0  0  0  0  0  0  0  0  0  0
  -26.9416  -28.5985   21.0242 C   0  0  0  0  0  0  0  0  0  0  0  0
  -22.4059  -19.4940   21.8450 C   0  0  0  0  0  0  0  0  0  0  0  0
  -29.8732  -27.7898   19.5503 C   0  0  0  0  0  0  0  0  0  0  0  0
  -31.0753  -27.2941   20.0550 C   0  0  0  0  0  0  0  0  0  0  0  0
  -24.6971  -20.0911   22.3063 C   0  0  0  0  0  0  0  0  0  0  0  0
  -31.5071  -29.4215   21.1157 C   0  0  0  0  0  0  0  0  0  0  0  0
  -24.7951  -27.6558   20.4405 C   0  0  0  0  0  0  0  0  0  0  0  0
  -23.3516  -25.5956   20.8644 C   0  0  0  0  0  0  0  0  0  0  0  0
  -24.0538  -11.8723   20.5652 C   0  0  0  0  0  0  0  0  0  0  0  0
  -24.2018  -18.5169   20.5355 C   0  0  0  0  0  0  0  0  0  0  0  0
  -24.2156  -13.1053   21.2255 C   0  0  0  0  0  0  0  0  0  0  0  0
  -25.1410  -19.2502   21.2744 C   0  0  0  0  0  0  0  0  0  0  0  0
  -17.1790  -21.2834   24.8580 C   0  0  0  0  0  0  0  0  0  0  0  0
  -18.3559  -20.6993   25.3264 C   0  0  0  0  0  0  0  0  0  0  0  0
  -16.9299  -22.6356   25.0930 C   0  0  0  0  0  0  0  0  0  0  0  0
  -19.0345  -22.8195   26.2651 C   0  0  0  0  0  0  0  0  0  0  0  0
  -19.2836  -21.4674   26.0300 C   0  0  0  0  0  0  0  0  0  0  0  0
  -17.8576  -23.4036   25.7966 C   0  0  0  0  0  0  0  0  0  0  0  0
  -27.1465  -28.9570   19.6918 C   0  0  0  0  0  0  0  0  0  0  0  0
  -23.3370  -20.2108   22.5908 C   0  0  0  0  0  0  0  0  0  0  0  0
  -29.4880  -29.1013   19.8281 C   0  0  0  0  0  0  0  0  0  0  0  0
  -31.8922  -28.1100   20.8378 C   0  0  0  0  0  0  0  0  0  0  0  0
  -30.3049  -29.9172   20.6108 C   0  0  0  0  0  0  0  0  0  0  0  0
  -23.5807  -26.9841   20.8279 C   0  0  0  0  0  0  0  0  0  0  0  0
  -22.0535  -25.4730   21.2959 C   0  0  0  0  0  0  0  0  0  0  0  0
  -24.2336  -24.5134   20.5377 C   0  0  0  0  0  0  0  0  0  0  0  0
  -26.2742  -16.1074   20.5911 C   0  0  0  0  0  0  0  0  0  0  0  0
  -28.2712  -18.3072   19.2892 C   0  0  0  0  0  0  0  0  0  0  0  0
  -29.0630  -21.5968   18.8435 C   0  0  0  0  0  0  0  0  0  0  0  0
  -17.9092  -26.9365   24.7352 C   0  0  0  0  0  0  0  0  0  0  0  0
  -25.2162  -11.1587   19.9215 C   0  0  0  0  0  0  0  0  0  0  0  0
  -24.6469  -17.6265   19.4078 C   0  0  0  0  0  0  0  0  0  0  0  0
  -26.6182  -19.1543   20.9967 C   0  0  0  0  0  0  0  0  0  0  0  0
  -26.4214  -12.0611   19.6702 C   0  0  0  0  0  0  0  0  0  0  0  0
  -18.4245  -28.9535   21.8468 C   0  0  0  0  0  0  0  0  0  0  0  0
  -26.7261  -12.9014   20.9064 C   0  0  0  0  0  0  0  0  0  0  0  0
  -19.7950  -28.5109   21.3313 C   0  0  0  0  0  0  0  0  0  0  0  0
  -18.3687  -28.9538   23.3728 C   0  0  0  0  0  0  0  0  0  0  0  0
  -20.1360  -27.2402   23.4919 C   0  0  0  0  0  0  0  0  0  0  0  0
  -25.5487  -13.8210   21.2522 C   0  0  1  0  0  0  0  0  0  0  0  0
  -26.0962  -17.1698   19.5435 C   0  0  1  0  0  0  0  0  0  0  0  0
  -20.2235  -27.1702   21.9577 C   0  0  2  0  0  0  0  0  0  0  0  0
  -16.1846  -20.4601   24.1014 C   0  0  0  0  0  0  0  0  0  0  0  0
  -18.6238  -19.2492   25.0722 C   0  0  0  0  0  0  0  0  0  0  0  0
  -15.6679  -23.2626   24.5896 C   0  0  0  0  0  0  0  0  0  0  0  0
  -20.0301  -23.6430   27.0199 C   0  0  0  0  0  0  0  0  0  0  0  0
  -30.7734  -23.0826   17.7645 C   0  0  0  0  0  0  0  0  0  0  0  0
  -30.2439  -17.6551   21.5238 C   0  0  0  0  0  0  0  0  0  0  0  0
  -31.4616  -19.7718   20.9719 C   0  0  0  0  0  0  0  0  0  0  0  0
  -31.2838  -17.9571   19.2695 C   0  0  0  0  0  0  0  0  0  0  0  0
  -27.0323  -22.8678   17.1057 C   0  0  0  0  0  0  0  0  0  0  0  0
  -20.5553  -20.8355   26.5370 C   0  0  0  0  0  0  0  0  0  0  0  0
  -17.5914  -24.8545   26.0481 C   0  0  0  0  0  0  0  0  0  0  0  0
  -21.7909  -21.1843   25.7043 C   0  0  0  0  0  0  0  0  0  0  0  0
  -21.7181  -20.6702   24.2712 C   0  0  0  0  0  0  0  0  0  1  0  0
  -29.2377  -19.3299   19.8361 C   0  0  1  0  0  0  0  0  0  0  0  0
  -29.4326  -22.3843   17.5994 C   0  0  2  0  0  0  0  0  0  0  0  0
  -30.5291  -18.6790   20.4071 C   0  0  0  0  0  0  0  0  0  0  0  0
  -22.5135  -27.6929   21.2058 N   0  0  0  0  0  0  0  0  0  0  0  0
  -21.6013  -26.7459   21.4839 N   0  0  0  0  0  0  0  0  0  0  0  0
  -27.0042  -18.2656   19.8882 N   0  0  0  0  0  0  0  0  0  0  0  0
  -18.7852  -27.6534   23.9035 N   0  0  0  0  0  0  0  0  0  0  0  0
  -21.2660  -24.4015   21.5289 N   0  0  0  0  0  0  0  0  0  0  0  0
  -25.5337  -24.8166   20.1109 N   0  0  0  0  0  0  0  0  0  0  0  0
  -25.5261  -14.9670   20.3687 N   0  0  0  0  0  0  0  0  0  0  0  0
  -29.4757  -20.2839   18.7583 N   0  0  0  0  0  0  0  0  0  0  0  0
  -18.3795  -25.7105   25.1896 N   0  0  0  0  0  0  0  0  0  0  0  0
  -28.3969  -23.4170   17.3135 N   0  3  0  0  0  0  0  0  0  0  0  0
  -23.8739  -23.3136   20.6059 O   0  0  0  0  0  0  0  0  0  0  0  0
  -27.0351  -16.3068   21.5307 O   0  0  0  0  0  0  0  0  0  0  0  0
  -28.6250  -17.5772   18.3600 O   0  0  0  0  0  0  0  0  0  0  0  0
  -28.4710  -22.0973   19.7972 O   0  0  0  0  0  0  0  0  0  0  0  0
  -16.7888  -27.3554   25.0452 O   0  0  0  0  0  0  0  0  0  0  0  0
  -28.2939  -29.5917   19.3268 O   0  0  0  0  0  0  0  0  0  0  0  0
  -22.9207  -21.0315   23.5933 O   0  0  0  0  0  0  0  0  0  1  0  0
  -33.0459  -27.6334   21.3237 F   0  0  0  0  0  0  0  0  0  0  0  0
  -29.9396  -31.1777   20.8821 F   0  0  0  0  0  0  0  0  0  0  0  0
  1  2  1  0  0  0  0
  1  5  2  0  0  0  0
  2  6  2  0  0  0  0
  3  8  2  0  0  0  0
  3 15  1  0  0  0  0
  4  9  1  0  0  0  0
  4 15  2  0  0  0  0
  5 17  1  0  0  0  0
  6 19  1  0  0  0  0
  7 10  2  0  0  0  0
  7 18  1  0  0  0  0
  8 27  1  0  0  0  0
  9 27  2  0  0  0  0
 10 28  1  0  0  0  0
 11 12  2  0  0  0  0
 11 29  1  0  0  0  0
 12 30  1  0  0  0  0
 13 20  1  0  0  0  0
 13 28  2  0  0  0  0
 14 30  2  0  0  0  0
 14 31  1  0  0  0  0
 15 32  1  0  0  0  0
 16 32  1  0  0  0  0
 16 33  2  0  0  0  0
 16 34  1  0  0  0  0
 17 19  2  0  0  0  0
 17 39  1  0  0  0  0
 18 20  2  0  0  0  0
 18 40  1  0  0  0  0
 19 48  1  0  0  0  0
 20 41  1  0  0  0  0
 21 22  2  0  0  0  0
 21 23  1  0  0  0  0
 21 51  1  0  0  0  0
 22 25  1  0  0  0  0
 22 52  1  0  0  0  0
 23 26  2  0  0  0  0
 23 53  1  0  0  0  0
 24 25  2  0  0  0  0
 24 26  1  0  0  0  0
 24 54  1  0  0  0  0
 25 60  1  0  0  0  0
 26 61  1  0  0  0  0
 27 82  1  0  0  0  0
 28 83  1  0  0  0  0
 29 31  2  0  0  0  0
 29 82  1  0  0  0  0
 30 84  1  0  0  0  0
 31 85  1  0  0  0  0
 32 67  2  0  0  0  0
 33 68  1  0  0  0  0
 33 71  1  0  0  0  0
 34 72  1  0  0  0  0
 34 77  2  0  0  0  0
 35 49  1  0  0  0  0
 35 73  1  0  0  0  0
 35 78  2  0  0  0  0
 36 64  1  0  0  0  0
 36 69  1  0  0  0  0
 36 79  2  0  0  0  0
 37 65  1  0  0  0  0
 37 74  1  0  0  0  0
 37 80  2  0  0  0  0
 38 70  1  0  0  0  0
 38 75  1  0  0  0  0
 38 81  2  0  0  0  0
 39 42  1  0  0  0  0
 40 49  1  0  0  0  0
 41 69  1  0  0  0  0
 42 44  1  0  0  0  0
 43 45  1  0  0  0  0
 43 46  1  0  0  0  0
 44 48  1  0  0  0  0
 45 50  1  0  0  0  0
 46 70  1  0  0  0  0
 47 50  1  0  0  0  0
 47 70  1  0  0  0  0
 48 73  1  0  0  0  0
 49 69  1  0  0  0  0
 50 68  1  0  0  0  0
 55 65  1  0  0  0  0
 56 66  1  0  0  0  0
 57 66  1  0  0  0  0
 58 66  1  0  0  0  0
 59 76  1  0  0  0  0
 60 62  1  0  0  0  0
 61 75  1  0  0  0  0
 62 63  1  0  0  0  0
 63 83  1  0  0  0  0
 64 66  1  0  0  0  0
 64 74  1  0  0  0  0
 65 76  1  0  0  0  0
 67 68  1  0  0  0  0
M  CHG  1  76   1
M  ISO  4  38 100  63 101  75 100  83 101
M  END
> <Batch ID>
0030

> <Smiles>
CNC(C)C(=O)NC(C(=O)N1Cc2cc([101O:1][101CH2:1]CCc3c(C)c(C)c(C)c(C[100NH:0][100C:0](=O)N4CCCC(n5nc(-c6ccc(Oc7ccc(F)cc7F)cc6)c(C(N)=O)c5N)C4)c3C)ccc2CC1C(=O)NC1CCCc2ccccc21)C(C)(C)C

> <Shape>
0.202

> <Color>
0.078

> <Negative vol penalty>
0.000

$$$$

  -OEChem-04052316393D

 81 89  0     1  0  0  0  0  0999 V2000
  -17.4880  -25.8519   21.9878 C   0  0  0  0  0  0  0  0  0  0  0  0
  -18.7839  -25.3478   21.9433 C   0  0  0  0  0  0  0  0  0  0  0  0
  -23.5087   -9.5831   20.3807 C   0  0  0  0  0  0  0  0  0  0  0  0
  -23.8946  -10.2042   22.6833 C   0  0  0  0  0  0  0  0  0  0  0  0
  -17.2750  -27.2000   22.2726 C   0  0  0  0  0  0  0  0  0  0  0  0
  -19.8677  -26.1920   22.1826 C   0  0  0  0  0  0  0  0  0  0  0  0
  -23.2998  -24.1179   25.2752 C   0  0  0  0  0  0  0  0  0  0  0  0
  -22.8773   -8.4129   20.8021 C   0  0  0  0  0  0  0  0  0  0  0  0
  -23.2632   -9.0341   23.1048 C   0  0  0  0  0  0  0  0  0  0  0  0
  -24.1656  -23.1744   24.7241 C   0  0  0  0  0  0  0  0  0  0  0  0
  -20.0986   -7.9067   23.4717 C   0  0  0  0  0  0  0  0  0  0  0  0
  -19.1782   -8.0083   24.5148 C   0  0  0  0  0  0  0  0  0  0  0  0
  -25.8829  -24.8597   24.5518 C   0  0  0  0  0  0  0  0  0  0  0  0
  -20.5107   -6.4888   25.8387 C   0  0  0  0  0  0  0  0  0  0  0  0
  -27.2099  -20.5577   21.7387 C   0  0  0  0  0  0  0  0  0  0  0  0
  -24.0174  -10.4788   21.3213 C   0  0  0  0  0  0  0  0  0  0  0  0
  -24.0711  -12.9391   20.6495 C   0  0  0  0  0  0  0  0  0  0  0  0
  -18.3562  -28.0590   22.5250 C   0  0  0  0  0  0  0  0  0  0  0  0
  -23.7161  -25.4443   25.4590 C   0  0  0  0  0  0  0  0  0  0  0  0
  -19.6690  -27.5531   22.4697 C   0  0  0  0  0  0  0  0  0  0  0  0
  -25.0213  -25.8176   25.1078 C   0  0  0  0  0  0  0  0  0  0  0  0
  -28.8642  -18.8454   22.0792 C   0  0  0  0  0  0  0  0  0  0  0  0
  -22.7546   -8.1384   22.1642 C   0  0  0  0  0  0  0  0  0  0  0  0
  -25.4565  -23.5458   24.3596 C   0  0  0  0  0  0  0  0  0  0  0  0
  -21.2250   -7.0960   23.6120 C   0  0  0  0  0  0  0  0  0  0  0  0
  -19.3842   -7.2994   25.6983 C   0  0  0  0  0  0  0  0  0  0  0  0
  -21.4311   -6.3871   24.7955 C   0  0  0  0  0  0  0  0  0  0  0  0
  -28.2185  -19.7431   21.2362 C   0  0  0  0  0  0  0  0  0  0  0  0
  -24.6702  -11.6874   20.8865 C   0  0  0  0  0  0  0  0  0  0  0  0
  -26.8869  -20.4369   23.0807 C   0  0  0  0  0  0  0  0  0  0  0  0
  -28.4672  -18.8014   23.4059 C   0  0  0  0  0  0  0  0  0  0  0  0
  -25.1097  -13.7482   20.2581 C   0  0  0  0  0  0  0  0  0  0  0  0
  -22.6986  -13.3351   20.7723 C   0  0  0  0  0  0  0  0  0  0  0  0
  -22.7765  -28.2662   24.3373 C   0  0  0  0  0  0  0  0  0  0  0  0
  -24.9588  -29.3969   26.4542 C   0  0  0  0  0  0  0  0  0  0  0  0
  -27.7803  -28.8293   28.2883 C   0  0  0  0  0  0  0  0  0  0  0  0
  -30.3362  -15.6030   20.8821 C   0  0  0  0  0  0  0  0  0  0  0  0
  -18.0788  -29.5190   22.7819 C   0  0  0  0  0  0  0  0  0  0  0  0
  -22.7789  -26.4438   26.0794 C   0  0  0  0  0  0  0  0  0  0  0  0
  -25.5237  -27.2239   25.3034 C   0  0  0  0  0  0  0  0  0  0  0  0
  -19.2619  -30.2655   23.3929 C   0  0  0  0  0  0  0  0  0  0  0  0
  -29.8771  -12.6119   19.0061 C   0  0  0  0  0  0  0  0  0  0  0  0
  -20.5489  -29.9281   22.6468 C   0  0  0  0  0  0  0  0  0  0  0  0
  -28.4349  -12.2051   19.3135 C   0  0  0  0  0  0  0  0  0  0  0  0
  -30.5625  -13.2253   20.2251 C   0  0  0  0  0  0  0  0  0  0  0  0
  -28.3942  -13.9437   21.1504 C   0  0  0  0  0  0  0  0  0  0  0  0
  -20.8692  -28.4319   22.7481 C   0  0  1  0  0  0  0  0  0  0  0  0
  -23.1392  -27.8882   25.7456 C   0  0  1  0  0  0  0  0  0  0  0  0
  -27.6437  -13.3714   19.9356 C   0  0  2  0  0  0  0  0  0  0  0  0
  -29.3453  -29.9552   29.8947 C   0  0  0  0  0  0  0  0  0  0  0  0
  -26.2127  -30.9455   24.1435 C   0  0  0  0  0  0  0  0  0  0  0  0
  -28.2551  -31.2632   25.5563 C   0  0  0  0  0  0  0  0  0  0  0  0
  -26.0701  -32.2143   26.2939 C   0  0  0  0  0  0  0  0  0  0  0  0
  -27.1842  -26.8687   30.4237 C   0  0  0  0  0  0  0  0  0  0  0  0
  -29.9518  -17.9557   21.5720 C   0  0  0  0  0  0  0  0  0  0  0  0
  -25.8036  -21.3004   23.6572 C   0  0  0  0  0  0  0  0  0  1  0  0
  -26.4337  -29.7147   26.4023 C   0  0  1  0  0  0  0  0  0  0  0  0
  -28.1022  -29.0914   29.7485 C   0  0  2  0  0  0  0  0  0  0  0  0
  -26.7331  -31.0083   25.5934 C   0  0  0  0  0  0  0  0  0  0  0  0
  -25.9872  -11.6957   20.6641 N   0  0  0  0  0  0  0  0  0  0  0  0
  -27.4917  -19.5767   23.9303 N   0  0  0  0  0  0  0  0  0  0  0  0
  -26.2242  -12.9625   20.2831 N   0  0  0  0  0  0  0  0  0  0  0  0
  -24.5677  -28.1663   25.9079 N   0  0  0  0  0  0  0  0  0  0  0  0
  -29.7619  -14.3263   20.7661 N   0  0  0  0  0  0  0  0  0  0  0  0
  -25.1691  -15.0480   19.8982 N   0  0  0  0  0  0  0  0  0  0  0  0
  -21.7618  -12.3785   21.1866 N   0  0  0  0  0  0  0  0  0  0  0  0
  -21.4338  -28.1225   24.0443 N   0  0  0  0  0  0  0  0  0  0  0  0
  -26.8913  -29.7564   27.7869 N   0  0  0  0  0  0  0  0  0  0  0  0
  -29.5067  -16.5910   21.3983 N   0  0  0  0  0  0  0  0  0  0  0  0
  -28.3358  -27.8063   30.4662 N   0  3  0  0  0  0  0  0  0  0  0  0
  -22.3117  -14.4983   20.5062 O   0  0  0  0  0  0  0  0  0  0  0  0
  -23.6500  -28.6605   23.5736 O   0  0  0  0  0  0  0  0  0  0  0  0
  -24.1833  -30.2075   26.9673 O   0  0  0  0  0  0  0  0  0  0  0  0
  -28.2714  -27.8976   27.6548 O   0  0  0  0  0  0  0  0  0  0  0  0
  -31.5000  -15.8456   20.5451 O   0  0  0  0  0  0  0  0  0  0  0  0
  -22.1383   -6.9967   22.5758 O   0  0  0  0  0  0  0  0  0  0  0  0
  -26.3034  -22.6270   23.8209 O   0  0  0  0  0  0  0  0  0  1  0  0
  -18.5011   -7.3983   26.7005 F   0  0  0  0  0  0  0  0  0  0  0  0
  -22.5120   -5.6076   24.9366 F   0  0  0  0  0  0  0  0  0  0  0  0
  -28.6381  -19.8765   19.5678 Cl  0  0  0  0  0  0  0  0  0  0  0  0
  -29.1862  -17.7360   24.5501 Cl  0  0  0  0  0  0  0  0  0  0  0  0
  1  2  1  0  0  0  0
  1  5  2  0  0  0  0
  2  6  2  0  0  0  0
  3  8  2  0  0  0  0
  3 16  1  0  0  0  0
  4  9  1  0  0  0  0
  4 16  2  0  0  0  0
  5 18  1  0  0  0  0
  6 20  1  0  0  0  0
  7 10  2  0  0  0  0
  7 19  1  0  0  0  0
  8 23  1  0  0  0  0
  9 23  2  0  0  0  0
 10 24  1  0  0  0  0
 11 12  2  0  0  0  0
 11 25  1  0  0  0  0
 12 26  1  0  0  0  0
 13 21  1  0  0  0  0
 13 24  2  0  0  0  0
 14 26  2  0  0  0  0
 14 27  1  0  0  0  0
 15 28  2  0  0  0  0
 15 30  1  0  0  0  0
 16 29  1  0  0  0  0
 17 29  1  0  0  0  0
 17 32  2  0  0  0  0
 17 33  1  0  0  0  0
 18 20  2  0  0  0  0
 18 38  1  0  0  0  0
 19 21  2  0  0  0  0
 19 39  1  0  0  0  0
 20 47  1  0  0  0  0
 21 40  1  0  0  0  0
 22 28  1  0  0  0  0
 22 31  2  0  0  0  0
 22 55  1  0  0  0  0
 23 76  1  0  0  0  0
 24 77  1  0  0  0  0
 25 27  2  0  0  0  0
 25 76  1  0  0  0  0
 26 78  1  0  0  0  0
 27 79  1  0  0  0  0
 28 80  1  0  0  0  0
 29 60  2  0  0  0  0
 30 56  1  0  0  0  0
 30 61  2  0  0  0  0
 31 61  1  0  0  0  0
 31 81  1  0  0  0  0
 32 62  1  0  0  0  0
 32 65  1  0  0  0  0
 33 66  1  0  0  0  0
 33 71  2  0  0  0  0
 34 48  1  0  0  0  0
 34 67  1  0  0  0  0
 34 72  2  0  0  0  0
 35 57  1  0  0  0  0
 35 63  1  0  0  0  0
 35 73  2  0  0  0  0
 36 58  1  0  0  0  0
 36 68  1  0  0  0  0
 36 74  2  0  0  0  0
 37 64  1  0  0  0  0
 37 69  1  0  0  0  0
 37 75  2  0  0  0  0
 38 41  1  0  0  0  0
 39 48  1  0  0  0  0
 40 63  1  0  0  0  0
 41 43  1  0  0  0  0
 42 44  1  0  0  0  0
 42 45  1  0  0  0  0
 43 47  1  0  0  0  0
 44 49  1  0  0  0  0
 45 64  1  0  0  0  0
 46 49  1  0  0  0  0
 46 64  1  0  0  0  0
 47 67  1  0  0  0  0
 48 63  1  0  0  0  0
 49 62  1  0  0  0  0
 50 58  1  0  0  0  0
 51 59  1  0  0  0  0
 52 59  1  0  0  0  0
 53 59  1  0  0  0  0
 54 70  1  0  0  0  0
 55 69  1  0  0  0  0
 56 77  1  0  0  0  0
 57 59  1  0  0  0  0
 57 68  1  0  0  0  0
 58 70  1  0  0  0  0
 60 62  1  0  0  0  0
M  CHG  1  70   1
M  ISO  4  37 100  56 101  69 100  77 101
M  END
> <Batch ID>
0030

> <Smiles>
CNC(C)C(=O)NC(C(=O)N1Cc2cc([101O:1][101CH2:1]c3cc(Cl)c(C[100NH:0][100C:0](=O)N4CCCC(n5nc(-c6ccc(Oc7ccc(F)cc7F)cc6)c(C(N)=O)c5N)C4)c(Cl)n3)ccc2CC1C(=O)NC1CCCc2ccccc21)C(C)(C)C

> <Shape>
0.288

> <Color>
0.188

> <Negative vol penalty>
0.000

$$$$

  -OEChem-04052316393D

 85 94  0     1  0  0  0  0  0999 V2000
  -18.3262  -29.5039   26.2700 C   0  0  0  0  0  0  0  0  0  0  0  0
  -19.6959  -29.2730   26.3484 C   0  0  0  0  0  0  0  0  0  0  0  0
  -26.9147  -15.2021   21.2123 C   0  0  0  0  0  0  0  0  0  0  0  0
  -26.1283  -14.2148   23.2724 C   0  0  0  0  0  0  0  0  0  0  0  0
  -17.6368  -29.2085   25.0947 C   0  0  0  0  0  0  0  0  0  0  0  0
  -20.3767  -28.7454   25.2517 C   0  0  0  0  0  0  0  0  0  0  0  0
  -29.8054  -25.3410   23.7476 C   0  0  0  0  0  0  0  0  0  0  0  0
  -26.7501  -28.9933   21.9906 C   0  0  0  0  0  0  0  0  0  0  0  0
  -28.6637  -25.0767   24.4996 C   0  0  0  0  0  0  0  0  0  0  0  0
  -26.6511  -14.0088   20.5398 C   0  0  0  0  0  0  0  0  0  0  0  0
  -25.8646  -13.0215   22.5999 C   0  0  0  0  0  0  0  0  0  0  0  0
  -27.7537  -28.1467   21.5217 C   0  0  0  0  0  0  0  0  0  0  0  0
  -23.4623  -11.7873   20.5686 C   0  0  0  0  0  0  0  0  0  0  0  0
  -22.2456  -11.1555   20.8255 C   0  0  0  0  0  0  0  0  0  0  0  0
  -27.3550  -24.9669   22.4694 C   0  0  0  0  0  0  0  0  0  0  0  0
  -26.4731  -27.7490   19.5165 C   0  0  0  0  0  0  0  0  0  0  0  0
  -23.4269   -9.1996   21.6103 C   0  0  0  0  0  0  0  0  0  0  0  0
  -26.6533  -15.3051   22.5786 C   0  0  0  0  0  0  0  0  0  0  0  0
  -28.1697  -17.1842   23.4015 C   0  0  0  0  0  0  0  0  0  0  0  0
  -18.3112  -28.6862   23.9798 C   0  0  0  0  0  0  0  0  0  0  0  0
  -29.7305  -25.4060   22.3501 C   0  0  0  0  0  0  0  0  0  0  0  0
  -25.5936  -29.2159   21.2295 C   0  0  0  0  0  0  0  0  0  0  0  0
  -19.6954  -28.4415   24.0609 C   0  0  0  0  0  0  0  0  0  0  0  0
  -28.4954  -25.2200   21.6941 C   0  0  0  0  0  0  0  0  0  0  0  0
  -25.4574  -28.6009   19.9768 C   0  0  0  0  0  0  0  0  0  0  0  0
  -27.4409  -24.8915   23.8615 C   0  0  0  0  0  0  0  0  0  0  0  0
  -26.1261  -12.9186   21.2336 C   0  0  0  0  0  0  0  0  0  0  0  0
  -27.6140  -27.5221   20.2858 C   0  0  0  0  0  0  0  0  0  0  0  0
  -24.6614  -11.1252   20.8325 C   0  0  0  0  0  0  0  0  0  0  0  0
  -22.2279   -9.8617   21.3464 C   0  0  0  0  0  0  0  0  0  0  0  0
  -24.6437   -9.8314   21.3534 C   0  0  0  0  0  0  0  0  0  0  0  0
  -26.9259  -16.5372   23.2740 C   0  0  0  0  0  0  0  0  0  0  0  0
  -27.8985  -18.3058   24.1464 C   0  0  0  0  0  0  0  0  0  0  0  0
  -29.4552  -16.8052   22.8921 C   0  0  0  0  0  0  0  0  0  0  0  0
  -22.4900  -28.6770   21.6551 C   0  0  0  0  0  0  0  0  0  0  0  0
  -22.2215  -30.3102   18.8653 C   0  0  0  0  0  0  0  0  0  0  0  0
  -23.9679  -30.4391   15.7108 C   0  0  0  0  0  0  0  0  0  0  0  0
  -24.7059  -22.7406   25.2801 C   0  0  0  0  0  0  0  0  0  0  0  0
  -17.5150  -28.3383   22.7471 C   0  0  0  0  0  0  0  0  0  0  0  0
  -24.5322  -30.1529   21.7374 C   0  0  0  0  0  0  0  0  0  0  0  0
  -30.9491  -25.7619   21.5375 C   0  0  0  0  0  0  0  0  0  0  0  0
  -24.2444  -28.8228   19.1120 C   0  0  0  0  0  0  0  0  0  0  0  0
  -18.3763  -28.1324   21.5037 C   0  0  0  0  0  0  0  0  0  0  0  0
  -23.7467  -19.6270   26.7161 C   0  0  0  0  0  0  0  0  0  0  0  0
  -19.5743  -27.2446   21.8252 C   0  0  0  0  0  0  0  0  0  0  0  0
  -24.5859  -18.5992   25.9551 C   0  0  0  0  0  0  0  0  0  0  0  0
  -29.6913  -24.5270   19.6321 C   0  0  0  0  0  0  0  0  0  0  0  0
  -23.2988  -20.7720   25.8103 C   0  0  0  0  0  0  0  0  0  0  0  0
  -25.2274  -20.4173   24.3175 C   0  0  0  0  0  0  0  0  0  0  0  0
  -20.4735  -27.8936   22.8843 C   0  0  1  0  0  0  0  0  0  0  0  0
  -23.1646  -29.9036   21.1091 C   0  0  1  0  0  0  0  0  0  0  0  0
  -25.7493  -19.2721   25.2021 C   0  0  2  0  0  0  0  0  0  0  0  0
  -28.4772  -25.3111   20.1773 C   0  0  1  0  0  0  0  0  0  1  0  0
  -31.0701  -24.9651   20.2126 C   0  0  0  0  0  0  0  0  0  0  0  0
  -27.1995  -24.7830   19.5096 C   0  0  0  0  0  0  0  0  0  0  0  0
  -31.9211  -23.7001   20.4549 C   0  0  0  0  0  0  0  0  0  0  0  0
  -31.8148  -25.8389   19.1829 C   0  0  0  0  0  0  0  0  0  0  0  0
  -24.1853  -32.2998   14.0412 C   0  0  0  0  0  0  0  0  0  0  0  0
  -19.8253  -28.9893   17.5149 C   0  0  0  0  0  0  0  0  0  0  0  0
  -20.8657  -29.5252   15.3016 C   0  0  0  0  0  0  0  0  0  0  0  0
  -20.2160  -31.3687   16.8514 C   0  0  0  0  0  0  0  0  0  0  0  0
  -26.9240  -30.3195   15.7887 C   0  0  0  0  0  0  0  0  0  0  0  0
  -26.2163  -24.6124   24.6686 C   0  0  0  0  0  0  0  0  0  0  0  0
  -22.2248  -29.9360   17.4028 C   0  0  1  0  0  0  0  0  0  0  0  0
  -24.8431  -31.5703   15.2021 C   0  0  2  0  0  0  0  0  0  0  0  0
  -20.7971  -29.9394   16.7870 C   0  0  0  0  0  0  0  0  0  0  0  0
  -25.9381  -17.1932   23.8888 N   0  0  0  0  0  0  0  0  0  0  0  0
  -26.5610  -18.2640   24.4099 N   0  0  0  0  0  0  0  0  0  0  0  0
  -23.2314  -29.7427   19.6552 N   0  0  0  0  0  0  0  0  0  0  0  0
  -24.4494  -21.3681   25.1271 N   0  0  0  0  0  0  0  0  0  0  0  0
  -28.6761  -19.3139   24.5954 N   0  0  0  0  0  0  0  0  0  0  0  0
  -29.5563  -15.6227   22.1466 N   0  0  0  0  0  0  0  0  0  0  0  0
  -21.2884  -28.9307   22.2886 N   0  0  0  0  0  0  0  0  0  0  0  0
  -23.1591  -30.8469   16.7504 N   0  0  0  0  0  0  0  0  0  0  0  0
  -25.8195  -23.2235   24.6038 N   0  0  0  0  0  0  0  0  0  0  0  0
  -26.1574  -31.0409   14.7404 N   0  3  0  0  0  0  0  0  0  0  0  0
  -30.4867  -17.4861   23.1061 O   0  0  0  0  0  0  0  0  0  0  0  0
  -23.0196  -27.5814   21.5109 O   0  0  0  0  0  0  0  0  0  0  0  0
  -21.3591  -31.0834   19.2898 O   0  0  0  0  0  0  0  0  0  0  0  0
  -23.9959  -29.3078   15.2312 O   0  0  0  0  0  0  0  0  0  0  0  0
  -23.9982  -23.4798   25.9728 O   0  0  0  0  0  0  0  0  0  0  0  0
  -25.8685  -11.7541   20.5776 O   0  0  0  0  0  0  0  0  0  0  0  0
  -28.5952  -26.6919   19.8245 O   0  0  0  0  0  0  0  0  0  1  0  0
  -21.0594   -9.2557   21.5945 F   0  0  0  0  0  0  0  0  0  0  0  0
  -25.7923   -9.1907   21.6100 F   0  0  0  0  0  0  0  0  0  0  0  0
  1  2  1  0  0  0  0
  1  5  2  0  0  0  0
  2  6  2  0  0  0  0
  3 10  2  0  0  0  0
  3 18  1  0  0  0  0
  4 11  1  0  0  0  0
  4 18  2  0  0  0  0
  5 20  1  0  0  0  0
  6 23  1  0  0  0  0
  7  9  2  0  0  0  0
  7 21  1  0  0  0  0
  8 12  2  0  0  0  0
  8 22  1  0  0  0  0
  9 26  1  0  0  0  0
 10 27  1  0  0  0  0
 11 27  2  0  0  0  0
 12 28  1  0  0  0  0
 13 14  2  0  0  0  0
 13 29  1  0  0  0  0
 14 30  1  0  0  0  0
 15 24  1  0  0  0  0
 15 26  2  0  0  0  0
 16 25  1  0  0  0  0
 16 28  2  0  0  0  0
 17 30  2  0  0  0  0
 17 31  1  0  0  0  0
 18 32  1  0  0  0  0
 19 32  1  0  0  0  0
 19 33  2  0  0  0  0
 19 34  1  0  0  0  0
 20 23  2  0  0  0  0
 20 39  1  0  0  0  0
 21 24  2  0  0  0  0
 21 41  1  0  0  0  0
 22 25  2  0  0  0  0
 22 40  1  0  0  0  0
 23 50  1  0  0  0  0
 24 53  1  0  0  0  0
 25 42  1  0  0  0  0
 26 63  1  0  0  0  0
 27 82  1  0  0  0  0
 28 83  1  0  0  0  0
 29 31  2  0  0  0  0
 29 82  1  0  0  0  0
 30 84  1  0  0  0  0
 31 85  1  0  0  0  0
 32 67  2  0  0  0  0
 33 68  1  0  0  0  0
 33 71  1  0  0  0  0
 34 72  1  0  0  0  0
 34 77  2  0  0  0  0
 35 51  1  0  0  0  0
 35 73  1  0  0  0  0
 35 78  2  0  0  0  0
 36 64  1  0  0  0  0
 36 69  1  0  0  0  0
 36 79  2  0  0  0  0
 37 65  1  0  0  0  0
 37 74  1  0  0  0  0
 37 80  2  0  0  0  0
 38 70  1  0  0  0  0
 38 75  1  0  0  0  0
 38 81  2  0  0  0  0
 39 43  1  0  0  0  0
 40 51  1  0  0  0  0
 41 54  1  0  0  0  0
 42 69  1  0  0  0  0
 43 45  1  0  0  0  0
 44 46  1  0  0  0  0
 44 48  1  0  0  0  0
 45 50  1  0  0  0  0
 46 52  1  0  0  0  0
 47 53  1  0  0  0  0
 47 54  1  0  0  0  0
 48 70  1  0  0  0  0
 49 52  1  0  0  0  0
 49 70  1  0  0  0  0
 50 73  1  0  0  0  0
 51 69  1  0  0  0  0
 52 68  1  0  0  0  0
 53 55  1  0  0  0  0
 53 83  1  0  0  0  0
 54 56  1  0  0  0  0
 54 57  1  0  0  0  0
 58 65  1  0  0  0  0
 59 66  1  0  0  0  0
 60 66  1  0  0  0  0
 61 66  1  0  0  0  0
 62 76  1  0  0  0  0
 63 75  1  0  0  0  0
 64 66  1  0  0  0  0
 64 74  1  0  0  0  0
 65 76  1  0  0  0  0
 67 68  1  0  0  0  0
M  CHG  1  76   1
M  ISO  4  38 100  53 101  75 100  83 101
M  END
> <Batch ID>
0030

> <Smiles>
CNC(C)C(=O)NC(C(=O)N1Cc2cc([101O:1][101C:1]3(C)CC(C)(C)Cc4ccc(C[100NH:0][100C:0](=O)N5CCCC(n6nc(-c7ccc(Oc8ccc(F)cc8F)cc7)c(C(N)=O)c6N)C5)cc43)ccc2CC1C(=O)NC1CCCc2ccccc21)C(C)(C)C

> <Shape>
0.199

> <Color>
0.088

> <Negative vol penalty>
0.000

$$$$

  -OEChem-04052316393D

 84 92  0     1  0  0  0  0  0999 V2000
  -21.6943  -11.8568   21.1792 C   0  0  0  0  0  0  0  0  0  0  0  0
  -21.8508  -13.0801   21.8230 C   0  0  0  0  0  0  0  0  0  0  0  0
  -25.0042  -28.0178   19.1091 C   0  0  0  0  0  0  0  0  0  0  0  0
  -25.7661  -27.9579   21.4010 C   0  0  0  0  0  0  0  0  0  0  0  0
  -22.7867  -11.2519   20.5591 C   0  0  0  0  0  0  0  0  0  0  0  0
  -23.1002  -13.6988   21.8479 C   0  0  0  0  0  0  0  0  0  0  0  0
  -22.8368  -18.6507   20.8212 C   0  0  0  0  0  0  0  0  0  0  0  0
  -26.1789  -28.6705   18.7355 C   0  0  0  0  0  0  0  0  0  0  0  0
  -26.9409  -28.6106   21.0275 C   0  0  0  0  0  0  0  0  0  0  0  0
  -22.4080  -19.4917   21.8471 C   0  0  0  0  0  0  0  0  0  0  0  0
  -30.3000  -29.9393   20.6165 C   0  0  0  0  0  0  0  0  0  0  0  0
  -31.5037  -29.4510   21.1247 C   0  0  0  0  0  0  0  0  0  0  0  0
  -24.6997  -20.0863   22.3095 C   0  0  0  0  0  0  0  0  0  0  0  0
  -17.1827  -21.2828   24.8568 C   0  0  0  0  0  0  0  0  0  0  0  0
  -31.0840  -27.3184   20.0698 C   0  0  0  0  0  0  0  0  0  0  0  0
  -24.7977  -27.6615   20.4418 C   0  0  0  0  0  0  0  0  0  0  0  0
  -23.3584  -25.5988   20.8674 C   0  0  0  0  0  0  0  0  0  0  0  0
  -24.0480  -11.8681   20.5680 C   0  0  0  0  0  0  0  0  0  0  0  0
  -24.2033  -18.5125   20.5384 C   0  0  0  0  0  0  0  0  0  0  0  0
  -24.2108  -13.1009   21.2284 C   0  0  0  0  0  0  0  0  0  0  0  0
  -25.1431  -19.2448   21.2778 C   0  0  0  0  0  0  0  0  0  0  0  0
  -18.3592  -20.6995   25.3270 C   0  0  0  0  0  0  0  0  0  0  0  0
  -16.9330  -22.6352   25.0903 C   0  0  0  0  0  0  0  0  0  0  0  0
  -19.0364  -22.8208   26.2643 C   0  0  0  0  0  0  0  0  0  0  0  0
  -19.2861  -21.4685   26.0308 C   0  0  0  0  0  0  0  0  0  0  0  0
  -17.8598  -23.4042   25.7941 C   0  0  0  0  0  0  0  0  0  0  0  0
  -27.1473  -28.9669   19.6947 C   0  0  0  0  0  0  0  0  0  0  0  0
  -23.3396  -20.2074   22.5934 C   0  0  0  0  0  0  0  0  0  0  0  0
  -29.4882  -29.1171   19.8350 C   0  0  0  0  0  0  0  0  0  0  0  0
  -31.8958  -28.1406   20.8513 C   0  0  0  0  0  0  0  0  0  0  0  0
  -29.8802  -27.8066   19.5616 C   0  0  0  0  0  0  0  0  0  0  0  0
  -23.5841  -26.9878   20.8284 C   0  0  0  0  0  0  0  0  0  0  0  0
  -22.0597  -25.4740   21.2967 C   0  0  0  0  0  0  0  0  0  0  0  0
  -24.2435  -24.5181   20.5445 C   0  0  0  0  0  0  0  0  0  0  0  0
  -26.2731  -16.1007   20.5949 C   0  0  0  0  0  0  0  0  0  0  0  0
  -28.2731  -18.2984   19.2940 C   0  0  0  0  0  0  0  0  0  0  0  0
  -29.0688  -21.5871   18.8487 C   0  0  0  0  0  0  0  0  0  0  0  0
  -17.9057  -26.9346   24.7254 C   0  0  0  0  0  0  0  0  0  0  0  0
  -25.2098  -11.1532   19.9248 C   0  0  0  0  0  0  0  0  0  0  0  0
  -24.6480  -17.6217   19.4110 C   0  0  0  0  0  0  0  0  0  0  0  0
  -26.6203  -19.1472   21.0008 C   0  0  0  0  0  0  0  0  0  0  0  0
  -26.4162  -12.0543   19.6741 C   0  0  0  0  0  0  0  0  0  0  0  0
  -18.4214  -28.9469   21.8338 C   0  0  0  0  0  0  0  0  0  0  0  0
  -26.7212  -12.8942   20.9104 C   0  0  0  0  0  0  0  0  0  0  0  0
  -19.7940  -28.5065   21.3218 C   0  0  0  0  0  0  0  0  0  0  0  0
  -18.3628  -28.9502   23.3598 C   0  0  0  0  0  0  0  0  0  0  0  0
  -20.1340  -27.2411   23.4856 C   0  0  0  0  0  0  0  0  0  0  0  0
  -25.5447  -13.8152   21.2557 C   0  0  1  0  0  0  0  0  0  0  0  0
  -26.0967  -17.1634   19.5473 C   0  0  1  0  0  0  0  0  0  0  0  0
  -20.2245  -27.1681   21.9517 C   0  0  2  0  0  0  0  0  0  0  0  0
  -18.6024  -19.2493   25.0639 C   0  0  0  0  0  0  0  0  0  0  0  0
  -15.6655  -23.2355   24.5754 C   0  0  0  0  0  0  0  0  0  0  0  0
  -20.0308  -23.6457   27.0192 C   0  0  0  0  0  0  0  0  0  0  0  0
  -30.7814  -23.0709   17.7705 C   0  0  0  0  0  0  0  0  0  0  0  0
  -30.2440  -17.6440   21.5295 C   0  0  0  0  0  0  0  0  0  0  0  0
  -31.4644  -19.7594   20.9781 C   0  0  0  0  0  0  0  0  0  0  0  0
  -31.2853  -17.9449   19.2757 C   0  0  0  0  0  0  0  0  0  0  0  0
  -27.0403  -22.8603   17.1100 C   0  0  0  0  0  0  0  0  0  0  0  0
  -20.5568  -20.8352   26.5383 C   0  0  0  0  0  0  0  0  0  0  0  0
  -17.5904  -24.8546   26.0420 C   0  0  0  0  0  0  0  0  0  0  0  0
  -21.7932  -21.1827   25.7063 C   0  0  0  0  0  0  0  0  0  0  0  0
  -21.7204  -20.6687   24.2731 C   0  0  0  0  0  0  0  0  0  1  0  0
  -29.2405  -19.3200   19.8413 C   0  0  1  0  0  0  0  0  0  0  0  0
  -29.4398  -22.3742   17.6048 C   0  0  2  0  0  0  0  0  0  0  0  0
  -30.5309  -18.6676   20.4129 C   0  0  0  0  0  0  0  0  0  0  0  0
  -22.5146  -27.6948   21.2029 N   0  0  0  0  0  0  0  0  0  0  0  0
  -21.6042  -26.7462   21.4812 N   0  0  0  0  0  0  0  0  0  0  0  0
  -27.0058  -18.2582   19.8924 N   0  0  0  0  0  0  0  0  0  0  0  0
  -18.7815  -27.6519   23.8939 N   0  0  0  0  0  0  0  0  0  0  0  0
  -21.2744  -24.4011   21.5305 N   0  0  0  0  0  0  0  0  0  0  0  0
  -25.5436  -24.8235   20.1194 N   0  0  0  0  0  0  0  0  0  0  0  0
  -25.5238  -14.9612   20.3722 N   0  0  0  0  0  0  0  0  0  0  0  0
  -29.4800  -20.2737   18.7636 N   0  0  0  0  0  0  0  0  0  0  0  0
  -18.3781  -25.7107   25.1832 N   0  0  0  0  0  0  0  0  0  0  0  0
  -28.4054  -23.4081   17.3184 N   0  3  0  0  0  0  0  0  0  0  0  0
  -23.8866  -23.3175   20.6146 O   0  0  0  0  0  0  0  0  0  0  0  0
  -27.0338  -16.2993   21.5349 O   0  0  0  0  0  0  0  0  0  0  0  0
  -28.6265  -17.5680   18.3649 O   0  0  0  0  0  0  0  0  0  0  0  0
  -28.4769  -22.0882   19.8022 O   0  0  0  0  0  0  0  0  0  0  0  0
  -16.7837  -27.3514   25.0326 O   0  0  0  0  0  0  0  0  0  0  0  0
  -28.2938  -29.6035   19.3306 O   0  0  0  0  0  0  0  0  0  0  0  0
  -22.9238  -21.0286   23.5957 O   0  0  0  0  0  0  0  0  0  1  0  0
  -33.0525  -27.6724   21.3381 F   0  0  0  0  0  0  0  0  0  0  0  0
  -29.1051  -27.0124   18.8105 F   0  0  0  0  0  0  0  0  0  0  0  0
  1  2  1  0  0  0  0
  1  5  2  0  0  0  0
  2  6  2  0  0  0  0
  3  8  2  0  0  0  0
  3 16  1  0  0  0  0
  4  9  1  0  0  0  0
  4 16  2  0  0  0  0
  5 18  1  0  0  0  0
  6 20  1  0  0  0  0
  7 10  2  0  0  0  0
  7 19  1  0  0  0  0
  8 27  1  0  0  0  0
  9 27  2  0  0  0  0
 10 28  1  0  0  0  0
 11 12  2  0  0  0  0
 11 29  1  0  0  0  0
 12 30  1  0  0  0  0
 13 21  1  0  0  0  0
 13 28  2  0  0  0  0
 14 22  2  0  0  0  0
 14 23  1  0  0  0  0
 15 30  2  0  0  0  0
 15 31  1  0  0  0  0
 16 32  1  0  0  0  0
 17 32  1  0  0  0  0
 17 33  2  0  0  0  0
 17 34  1  0  0  0  0
 18 20  2  0  0  0  0
 18 39  1  0  0  0  0
 19 21  2  0  0  0  0
 19 40  1  0  0  0  0
 20 48  1  0  0  0  0
 21 41  1  0  0  0  0
 22 25  1  0  0  0  0
 22 51  1  0  0  0  0
 23 26  2  0  0  0  0
 23 52  1  0  0  0  0
 24 25  2  0  0  0  0
 24 26  1  0  0  0  0
 24 53  1  0  0  0  0
 25 59  1  0  0  0  0
 26 60  1  0  0  0  0
 27 81  1  0  0  0  0
 28 82  1  0  0  0  0
 29 31  2  0  0  0  0
 29 81  1  0  0  0  0
 30 83  1  0  0  0  0
 31 84  1  0  0  0  0
 32 66  2  0  0  0  0
 33 67  1  0  0  0  0
 33 70  1  0  0  0  0
 34 71  1  0  0  0  0
 34 76  2  0  0  0  0
 35 49  1  0  0  0  0
 35 72  1  0  0  0  0
 35 77  2  0  0  0  0
 36 63  1  0  0  0  0
 36 68  1  0  0  0  0
 36 78  2  0  0  0  0
 37 64  1  0  0  0  0
 37 73  1  0  0  0  0
 37 79  2  0  0  0  0
 38 69  1  0  0  0  0
 38 74  1  0  0  0  0
 38 80  2  0  0  0  0
 39 42  1  0  0  0  0
 40 49  1  0  0  0  0
 41 68  1  0  0  0  0
 42 44  1  0  0  0  0
 43 45  1  0  0  0  0
 43 46  1  0  0  0  0
 44 48  1  0  0  0  0
 45 50  1  0  0  0  0
 46 69  1  0  0  0  0
 47 50  1  0  0  0  0
 47 69  1  0  0  0  0
 48 72  1  0  0  0  0
 49 68  1  0  0  0  0
 50 67  1  0  0  0  0
 54 64  1  0  0  0  0
 55 65  1  0  0  0  0
 56 65  1  0  0  0  0
 57 65  1  0  0  0  0
 58 75  1  0  0  0  0
 59 61  1  0  0  0  0
 60 74  1  0  0  0  0
 61 62  1  0  0  0  0
 62 82  1  0  0  0  0
 63 65  1  0  0  0  0
 63 73  1  0  0  0  0
 64 75  1  0  0  0  0
 66 67  1  0  0  0  0
M  CHG  1  75   1
M  ISO  4  38 100  62 101  74 100  82 101
M  END
> <Batch ID>
0030

> <Smiles>
CNC(C)C(=O)NC(C(=O)N1Cc2cc([101O:1][101CH2:1]CCc3c(C)cc(C)c(C[100NH:0][100C:0](=O)N4CCCC(n5nc(-c6ccc(Oc7ccc(F)cc7F)cc6)c(C(N)=O)c5N)C4)c3C)ccc2CC1C(=O)NC1CCCc2ccccc21)C(C)(C)C

> <Shape>
0.207

> <Color>
0.078

> <Negative vol penalty>
0.000

$$$$

  -OEChem-04052316393D

 82 90  0     1  0  0  0  0  0999 V2000
  -17.5551  -23.7141   23.7275 C   0  0  0  0  0  0  0  0  0  0  0  0
  -18.9086  -23.4507   23.5426 C   0  0  0  0  0  0  0  0  0  0  0  0
  -23.0005   -9.8948   19.9811 C   0  0  0  0  0  0  0  0  0  0  0  0
  -23.7306   -9.9432   22.2836 C   0  0  0  0  0  0  0  0  0  0  0  0
  -16.5986  -22.8674   23.1689 C   0  0  0  0  0  0  0  0  0  0  0  0
  -19.3063  -22.3396   22.7999 C   0  0  0  0  0  0  0  0  0  0  0  0
  -24.2060  -21.9127   19.1506 C   0  0  0  0  0  0  0  0  0  0  0  0
  -22.2355   -8.7592   20.2475 C   0  0  0  0  0  0  0  0  0  0  0  0
  -22.9656   -8.8077   22.5501 C   0  0  0  0  0  0  0  0  0  0  0  0
  -25.4773  -21.3748   19.3463 C   0  0  0  0  0  0  0  0  0  0  0  0
  -23.2119   -5.4696   22.0730 C   0  0  0  0  0  0  0  0  0  0  0  0
  -23.8020   -4.4519   22.8225 C   0  0  0  0  0  0  0  0  0  0  0  0
  -24.7576  -19.3152   18.3170 C   0  0  0  0  0  0  0  0  0  0  0  0
  -31.6764  -18.2487   20.0194 C   0  0  0  0  0  0  0  0  0  0  0  0
  -22.0816   -4.6910   24.5018 C   0  0  0  0  0  0  0  0  0  0  0  0
  -23.7481  -10.4868   20.9991 C   0  0  0  0  0  0  0  0  0  0  0  0
  -24.1307  -13.0030   20.8258 C   0  0  0  0  0  0  0  0  0  0  0  0
  -16.9848  -21.7508   22.4108 C   0  0  0  0  0  0  0  0  0  0  0  0
  -23.1961  -21.1508   18.5455 C   0  0  0  0  0  0  0  0  0  0  0  0
  -18.3541  -21.4763   22.2317 C   0  0  0  0  0  0  0  0  0  0  0  0
  -23.4751  -19.8467   18.1125 C   0  0  0  0  0  0  0  0  0  0  0  0
  -30.6256  -17.9309   20.8800 C   0  0  0  0  0  0  0  0  0  0  0  0
  -29.4187  -18.6248   20.7930 C   0  0  0  0  0  0  0  0  0  0  0  0
  -29.2625  -19.6364   19.8454 C   0  0  0  0  0  0  0  0  0  0  0  0
  -30.3133  -19.9542   18.9848 C   0  0  0  0  0  0  0  0  0  0  0  0
  -22.2181   -8.2157   21.5320 C   0  0  0  0  0  0  0  0  0  0  0  0
  -25.7524  -20.0749   18.9321 C   0  0  0  0  0  0  0  0  0  0  0  0
  -22.0567   -6.0981   22.5380 C   0  0  0  0  0  0  0  0  0  0  0  0
  -23.2369   -4.0626   24.0368 C   0  0  0  0  0  0  0  0  0  0  0  0
  -21.4915   -5.7087   23.7523 C   0  0  0  0  0  0  0  0  0  0  0  0
  -31.5202  -19.2603   19.0718 C   0  0  0  0  0  0  0  0  0  0  0  0
  -24.5389  -11.6595   20.7244 C   0  0  0  0  0  0  0  0  0  0  0  0
  -25.2390  -13.7270   20.4599 C   0  0  0  0  0  0  0  0  0  0  0  0
  -22.8631  -13.5477   21.2158 C   0  0  0  0  0  0  0  0  0  0  0  0
  -20.3500  -20.0695   19.4586 C   0  0  0  0  0  0  0  0  0  0  0  0
  -20.1526  -19.1172   16.3640 C   0  0  0  0  0  0  0  0  0  0  0  0
  -21.7765  -18.2514   13.4900 C   0  0  0  0  0  0  0  0  0  0  0  0
  -30.7351  -14.6663   20.6978 C   0  0  0  0  0  0  0  0  0  0  0  0
  -15.9149  -20.8378   21.8664 C   0  0  0  0  0  0  0  0  0  0  0  0
  -21.8377  -21.7549   18.3175 C   0  0  0  0  0  0  0  0  0  0  0  0
  -22.4316  -18.9943   17.4394 C   0  0  0  0  0  0  0  0  0  0  0  0
  -16.4169  -19.8921   20.7783 C   0  0  0  0  0  0  0  0  0  0  0  0
  -29.5915  -12.2448   18.3514 C   0  0  0  0  0  0  0  0  0  0  0  0
  -17.7304  -19.2417   21.2007 C   0  0  0  0  0  0  0  0  0  0  0  0
  -28.1441  -11.9832   18.7718 C   0  0  0  0  0  0  0  0  0  0  0  0
  -30.4963  -12.4793   19.5590 C   0  0  0  0  0  0  0  0  0  0  0  0
  -28.5884  -13.2713   20.9031 C   0  0  0  0  0  0  0  0  0  0  0  0
  -18.8249  -20.2949   21.4116 C   0  0  1  0  0  0  0  0  0  0  0  0
  -20.7384  -20.7096   18.1558 C   0  0  1  0  0  0  0  0  0  0  0  0
  -27.6269  -13.0844   19.7169 C   0  0  2  0  0  0  0  0  0  0  0  0
  -28.2937  -18.2817   21.7177 C   0  0  0  0  0  0  0  0  0  0  0  0
  -30.1317  -21.0426   17.9723 C   0  0  0  0  0  0  0  0  0  0  0  0
  -21.3474  -17.4841   11.1395 C   0  0  0  0  0  0  0  0  0  0  0  0
  -19.5154  -16.3177   17.3968 C   0  0  0  0  0  0  0  0  0  0  0  0
  -20.0351  -15.4325   15.1133 C   0  0  0  0  0  0  0  0  0  0  0  0
  -18.1524  -17.0385   15.4278 C   0  0  0  0  0  0  0  0  0  0  0  0
  -23.0888  -20.6446   12.3457 C   0  0  0  0  0  0  0  0  0  0  0  0
  -30.8184  -16.8436   21.8858 C   0  0  0  0  0  0  0  0  0  0  0  0
  -27.9634  -20.3814   19.7529 C   0  0  0  0  0  0  0  0  0  1  0  0
  -20.5334  -17.8704   15.6028 C   0  0  1  0  0  0  0  0  0  0  0  0
  -21.5724  -18.6822   12.0487 C   0  0  2  0  0  0  0  0  0  0  0  0
  -19.5784  -16.6799   15.8996 C   0  0  0  0  0  0  0  0  0  0  0  0
  -25.8074  -11.5347   20.3253 N   0  0  0  0  0  0  0  0  0  0  0  0
  -26.2059  -12.8090   20.1726 N   0  0  0  0  0  0  0  0  0  0  0  0
  -21.1169  -19.6276   17.2446 N   0  0  0  0  0  0  0  0  0  0  0  0
  -29.9504  -13.5364   20.4138 N   0  0  0  0  0  0  0  0  0  0  0  0
  -25.4711  -15.0531   20.3592 N   0  0  0  0  0  0  0  0  0  0  0  0
  -21.8329  -12.6621   21.5604 N   0  0  0  0  0  0  0  0  0  0  0  0
  -19.3507  -20.7393   20.1386 N   0  0  0  0  0  0  0  0  0  0  0  0
  -20.5922  -18.2529   14.1961 N   0  0  0  0  0  0  0  0  0  0  0  0
  -30.1396  -15.6234   21.5102 N   0  0  0  0  0  0  0  0  0  0  0  0
  -22.7653  -19.4279   11.5570 N   0  3  0  0  0  0  0  0  0  0  0  0
  -22.6453  -14.7828   21.2417 O   0  0  0  0  0  0  0  0  0  0  0  0
  -20.9140  -19.0432   19.8194 O   0  0  0  0  0  0  0  0  0  0  0  0
  -19.0433  -19.6237   16.1786 O   0  0  0  0  0  0  0  0  0  0  0  0
  -22.8760  -17.9407   13.9429 O   0  0  0  0  0  0  0  0  0  0  0  0
  -31.8794  -14.8138   20.2554 O   0  0  0  0  0  0  0  0  0  0  0  0
  -21.4716   -7.1078   21.7924 O   0  0  0  0  0  0  0  0  0  0  0  0
  -26.9923  -19.5472   19.1224 O   0  0  0  0  0  0  0  0  0  1  0  0
  -23.8028   -3.0842   24.7556 F   0  0  0  0  0  0  0  0  0  0  0  0
  -20.3811   -6.3080   24.2036 F   0  0  0  0  0  0  0  0  0  0  0  0
  -32.8447  -19.6224   18.0249 Cl  0  0  0  0  0  0  0  0  0  0  0  0
  1  2  1  0  0  0  0
  1  5  2  0  0  0  0
  2  6  2  0  0  0  0
  3  8  2  0  0  0  0
  3 16  1  0  0  0  0
  4  9  1  0  0  0  0
  4 16  2  0  0  0  0
  5 18  1  0  0  0  0
  6 20  1  0  0  0  0
  7 10  2  0  0  0  0
  7 19  1  0  0  0  0
  8 26  1  0  0  0  0
  9 26  2  0  0  0  0
 10 27  1  0  0  0  0
 11 12  2  0  0  0  0
 11 28  1  0  0  0  0
 12 29  1  0  0  0  0
 13 21  1  0  0  0  0
 13 27  2  0  0  0  0
 14 22  2  0  0  0  0
 14 31  1  0  0  0  0
 15 29  2  0  0  0  0
 15 30  1  0  0  0  0
 16 32  1  0  0  0  0
 17 32  1  0  0  0  0
 17 33  2  0  0  0  0
 17 34  1  0  0  0  0
 18 20  2  0  0  0  0
 18 39  1  0  0  0  0
 19 21  2  0  0  0  0
 19 40  1  0  0  0  0
 20 48  1  0  0  0  0
 21 41  1  0  0  0  0
 22 23  1  0  0  0  0
 22 58  1  0  0  0  0
 23 24  2  0  0  0  0
 23 51  1  0  0  0  0
 24 25  1  0  0  0  0
 24 59  1  0  0  0  0
 25 31  2  0  0  0  0
 25 52  1  0  0  0  0
 26 78  1  0  0  0  0
 27 79  1  0  0  0  0
 28 30  2  0  0  0  0
 28 78  1  0  0  0  0
 29 80  1  0  0  0  0
 30 81  1  0  0  0  0
 31 82  1  0  0  0  0
 32 63  2  0  0  0  0
 33 64  1  0  0  0  0
 33 67  1  0  0  0  0
 34 68  1  0  0  0  0
 34 73  2  0  0  0  0
 35 49  1  0  0  0  0
 35 69  1  0  0  0  0
 35 74  2  0  0  0  0
 36 60  1  0  0  0  0
 36 65  1  0  0  0  0
 36 75  2  0  0  0  0
 37 61  1  0  0  0  0
 37 70  1  0  0  0  0
 37 76  2  0  0  0  0
 38 66  1  0  0  0  0
 38 71  1  0  0  0  0
 38 77  2  0  0  0  0
 39 42  1  0  0  0  0
 40 49  1  0  0  0  0
 41 65  1  0  0  0  0
 42 44  1  0  0  0  0
 43 45  1  0  0  0  0
 43 46  1  0  0  0  0
 44 48  1  0  0  0  0
 45 50  1  0  0  0  0
 46 66  1  0  0  0  0
 47 50  1  0  0  0  0
 47 66  1  0  0  0  0
 48 69  1  0  0  0  0
 49 65  1  0  0  0  0
 50 64  1  0  0  0  0
 53 61  1  0  0  0  0
 54 62  1  0  0  0  0
 55 62  1  0  0  0  0
 56 62  1  0  0  0  0
 57 72  1  0  0  0  0
 58 71  1  0  0  0  0
 59 79  1  0  0  0  0
 60 62  1  0  0  0  0
 60 70  1  0  0  0  0
 61 72  1  0  0  0  0
 63 64  1  0  0  0  0
M  CHG  1  72   1
M  ISO  4  38 100  59 101  71 100  79 101
M  END
> <Batch ID>
0030

> <Smiles>
CNC(C)C(=O)NC(C(=O)N1Cc2cc([101O:1][101CH2:1]c3c(C)c(Cl)cc(C[100NH:0][100C:0](=O)N4CCCC(n5nc(-c6ccc(Oc7ccc(F)cc7F)cc6)c(C(N)=O)c5N)C4)c3C)ccc2CC1C(=O)NC1CCCc2ccccc21)C(C)(C)C

> <Shape>
0.207

> <Color>
0.206

> <Negative vol penalty>
0.000

$$$$

  -OEChem-04052316393D

 81 89  0     1  0  0  0  0  0999 V2000
  -25.4732  -36.7010   25.7757 C   0  0  0  0  0  0  0  0  0  0  0  0
  -24.3409  -35.9804   25.4095 C   0  0  0  0  0  0  0  0  0  0  0  0
  -27.0901  -11.7047   20.3768 C   0  0  0  0  0  0  0  0  0  0  0  0
  -25.9651  -13.6551   19.5009 C   0  0  0  0  0  0  0  0  0  0  0  0
  -26.5632  -36.7722   24.9093 C   0  0  0  0  0  0  0  0  0  0  0  0
  -24.2976  -35.3314   24.1760 C   0  0  0  0  0  0  0  0  0  0  0  0
  -22.9796  -27.8106   22.5249 C   0  0  0  0  0  0  0  0  0  0  0  0
  -25.9424  -10.9435   20.1560 C   0  0  0  0  0  0  0  0  0  0  0  0
  -24.8173  -12.8939   19.2801 C   0  0  0  0  0  0  0  0  0  0  0  0
  -22.9159  -26.4777   22.1182 C   0  0  0  0  0  0  0  0  0  0  0  0
  -23.1887   -8.5684   20.1560 C   0  0  0  0  0  0  0  0  0  0  0  0
  -22.7766   -7.7044   21.1704 C   0  0  0  0  0  0  0  0  0  0  0  0
  -24.2330  -27.0015   20.1589 C   0  0  0  0  0  0  0  0  0  0  0  0
  -22.5416   -9.5812   22.6735 C   0  0  0  0  0  0  0  0  0  0  0  0
  -27.1015  -13.0605   20.0493 C   0  0  0  0  0  0  0  0  0  0  0  0
  -29.5642  -13.6409   19.7236 C   0  0  0  0  0  0  0  0  0  0  0  0
  -26.5370  -36.1158   23.6687 C   0  0  0  0  0  0  0  0  0  0  0  0
  -23.6841  -28.7421   21.7573 C   0  0  0  0  0  0  0  0  0  0  0  0
  -25.3878  -35.3950   23.2916 C   0  0  0  0  0  0  0  0  0  0  0  0
  -24.3108  -28.3355   20.5678 C   0  0  0  0  0  0  0  0  0  0  0  0
  -24.8060  -11.5380   19.6076 C   0  0  0  0  0  0  0  0  0  0  0  0
  -23.5409  -26.0743   20.9379 C   0  0  0  0  0  0  0  0  0  0  0  0
  -23.2774   -9.9389   20.4002 C   0  0  0  0  0  0  0  0  0  0  0  0
  -22.4530   -8.2108   22.4292 C   0  0  0  0  0  0  0  0  0  0  0  0
  -22.9538  -10.4453   21.6590 C   0  0  0  0  0  0  0  0  0  0  0  0
  -28.2867  -13.8475   20.2777 C   0  0  0  0  0  0  0  0  0  0  0  0
  -30.3338  -14.6498   20.2494 C   0  0  0  0  0  0  0  0  0  0  0  0
  -30.0149  -12.6276   18.8148 C   0  0  0  0  0  0  0  0  0  0  0  0
  -24.8183  -32.2963   21.3612 C   0  0  0  0  0  0  0  0  0  0  0  0
  -27.1695  -30.5122   20.5248 C   0  0  0  0  0  0  0  0  0  0  0  0
  -29.6466  -28.2069   20.0934 C   0  0  0  0  0  0  0  0  0  0  0  0
  -29.0222  -20.0854   22.3907 C   0  0  0  0  0  0  0  0  0  0  0  0
  -27.7209  -36.2607   22.7456 C   0  0  0  0  0  0  0  0  0  0  0  0
  -23.7272  -30.2004   22.1250 C   0  0  0  0  0  0  0  0  0  0  0  0
  -25.0281  -29.3792   19.7559 C   0  0  0  0  0  0  0  0  0  0  0  0
  -27.7418  -35.2341   21.6160 C   0  0  0  0  0  0  0  0  0  0  0  0
  -30.7020  -17.4565   24.1065 C   0  0  0  0  0  0  0  0  0  0  0  0
  -26.3666  -35.1295   20.9642 C   0  0  0  0  0  0  0  0  0  0  0  0
  -30.3888  -16.2148   23.2698 C   0  0  0  0  0  0  0  0  0  0  0  0
  -25.8518  -24.4661   20.6144 C   0  0  0  0  0  0  0  0  0  0  0  0
  -27.0569  -23.6509   20.1571 C   0  0  0  0  0  0  0  0  0  0  0  0
  -24.2534  -22.8311   19.3768 C   0  0  0  0  0  0  0  0  0  0  0  0
  -26.0306  -21.2709   20.3126 C   0  0  0  0  0  0  0  0  0  0  0  0
  -29.5168  -18.4182   24.1549 C   0  0  0  0  0  0  0  0  0  0  0  0
  -28.6720  -17.5711   22.0002 C   0  0  0  0  0  0  0  0  0  0  0  0
  -25.3125  -34.6570   21.9726 C   0  0  1  0  0  0  0  0  0  0  0  0
  -25.0648  -30.8734   21.7685 C   0  0  1  0  0  0  0  0  0  0  0  0
  -24.5749  -21.7615   20.4356 C   0  0  2  0  0  0  0  0  0  0  0  0
  -29.8565  -16.5977   21.8757 C   0  0  2  0  0  0  0  0  0  0  0  0
  -24.5823  -24.2643   19.7924 C   0  0  1  0  0  0  0  0  0  1  0  0
  -27.1172  -22.2486   20.7768 C   0  0  1  0  0  0  0  0  0  0  0  0
  -23.6342  -20.5631   20.2439 C   0  0  0  0  0  0  0  0  0  0  0  0
  -32.0715  -28.0130   19.4770 C   0  0  0  0  0  0  0  0  0  0  0  0
  -26.4591  -30.9855   17.5965 C   0  0  0  0  0  0  0  0  0  0  0  0
  -28.6120  -29.8727   16.9680 C   0  0  0  0  0  0  0  0  0  0  0  0
  -28.6420  -31.9730   18.3136 C   0  0  0  0  0  0  0  0  0  0  0  0
  -30.3349  -27.0040   22.7084 C   0  0  0  0  0  0  0  0  0  0  0  0
  -28.4954  -21.6312   20.5220 C   0  0  0  0  0  0  0  0  0  0  0  0
  -27.8913  -29.8164   19.3987 C   0  0  1  0  0  0  0  0  0  0  0  0
  -31.0713  -28.1493   20.6144 C   0  0  2  0  0  0  0  0  0  0  0  0
  -27.8819  -30.6483   18.0852 C   0  0  0  0  0  0  0  0  0  0  0  0
  -28.2431  -14.9045   21.0931 N   0  0  0  0  0  0  0  0  0  0  0  0
  -29.5029  -15.3711   21.0553 N   0  0  0  0  0  0  0  0  0  0  0  0
  -25.7963  -30.2659   20.6437 N   0  0  0  0  0  0  0  0  0  0  0  0
  -29.0614  -18.7425   22.8009 N   0  0  0  0  0  0  0  0  0  0  0  0
  -31.6334  -14.9813   20.0963 N   0  0  0  0  0  0  0  0  0  0  0  0
  -29.9286  -12.8782   17.4386 N   0  0  0  0  0  0  0  0  0  0  0  0
  -25.4197  -33.2293   22.1842 N   0  0  0  0  0  0  0  0  0  0  0  0
  -29.2258  -29.5056   19.8996 N   0  0  0  0  0  0  0  0  0  0  0  0
  -28.5844  -20.3046   21.0903 N   0  0  0  0  0  0  0  0  0  0  0  0
  -31.2409  -26.9867   21.5312 N   0  3  0  0  0  0  0  0  0  0  0  0
  -30.4652  -11.5260   19.2113 O   0  0  0  0  0  0  0  0  0  0  0  0
  -24.1342  -32.5318   20.3721 O   0  0  0  0  0  0  0  0  0  0  0  0
  -27.8024  -31.2589   21.2767 O   0  0  0  0  0  0  0  0  0  0  0  0
  -28.9756  -27.2003   19.8762 O   0  0  0  0  0  0  0  0  0  0  0  0
  -29.3580  -21.0193   23.1269 O   0  0  0  0  0  0  0  0  0  0  0  0
  -23.6859  -10.7955   19.3918 O   0  0  0  0  0  0  0  0  0  0  0  0
  -23.4786  -24.7706   20.5490 O   0  0  0  0  0  0  0  0  0  1  0  0
  -22.0558   -7.3811   23.4029 F   0  0  0  0  0  0  0  0  0  0  0  0
  -23.0359  -11.7611   21.8993 F   0  0  0  0  0  0  0  0  0  0  0  0
  -26.9992  -22.3833   22.1341 F   0  0  0  0  0  0  0  0  0  0  0  0
  1  2  1  0  0  0  0
  1  5  2  0  0  0  0
  2  6  2  0  0  0  0
  3  8  2  0  0  0  0
  3 15  1  0  0  0  0
  4  9  1  0  0  0  0
  4 15  2  0  0  0  0
  5 17  1  0  0  0  0
  6 19  1  0  0  0  0
  7 10  2  0  0  0  0
  7 18  1  0  0  0  0
  8 21  1  0  0  0  0
  9 21  2  0  0  0  0
 10 22  1  0  0  0  0
 11 12  2  0  0  0  0
 11 23  1  0  0  0  0
 12 24  1  0  0  0  0
 13 20  1  0  0  0  0
 13 22  2  0  0  0  0
 14 24  2  0  0  0  0
 14 25  1  0  0  0  0
 15 26  1  0  0  0  0
 16 26  1  0  0  0  0
 16 27  2  0  0  0  0
 16 28  1  0  0  0  0
 17 19  2  0  0  0  0
 17 33  1  0  0  0  0
 18 20  2  0  0  0  0
 18 34  1  0  0  0  0
 19 46  1  0  0  0  0
 20 35  1  0  0  0  0
 21 77  1  0  0  0  0
 22 78  1  0  0  0  0
 23 25  2  0  0  0  0
 23 77  1  0  0  0  0
 24 79  1  0  0  0  0
 25 80  1  0  0  0  0
 26 62  2  0  0  0  0
 27 63  1  0  0  0  0
 27 66  1  0  0  0  0
 28 67  1  0  0  0  0
 28 72  2  0  0  0  0
 29 47  1  0  0  0  0
 29 68  1  0  0  0  0
 29 73  2  0  0  0  0
 30 59  1  0  0  0  0
 30 64  1  0  0  0  0
 30 74  2  0  0  0  0
 31 60  1  0  0  0  0
 31 69  1  0  0  0  0
 31 75  2  0  0  0  0
 32 65  1  0  0  0  0
 32 70  1  0  0  0  0
 32 76  2  0  0  0  0
 33 36  1  0  0  0  0
 34 47  1  0  0  0  0
 35 64  1  0  0  0  0
 36 38  1  0  0  0  0
 37 39  1  0  0  0  0
 37 44  1  0  0  0  0
 38 46  1  0  0  0  0
 39 49  1  0  0  0  0
 40 41  1  0  0  0  0
 40 50  1  0  0  0  0
 41 51  1  0  0  0  0
 42 48  1  0  0  0  0
 42 50  1  0  0  0  0
 43 48  1  0  0  0  0
 43 51  1  0  0  0  0
 44 65  1  0  0  0  0
 45 49  1  0  0  0  0
 45 65  1  0  0  0  0
 46 68  1  0  0  0  0
 47 64  1  0  0  0  0
 48 52  1  0  0  0  0
 49 63  1  0  0  0  0
 50 78  1  0  0  0  0
 51 58  1  0  0  0  0
 51 81  1  0  0  0  0
 53 60  1  0  0  0  0
 54 61  1  0  0  0  0
 55 61  1  0  0  0  0
 56 61  1  0  0  0  0
 57 71  1  0  0  0  0
 58 70  1  0  0  0  0
 59 61  1  0  0  0  0
 59 69  1  0  0  0  0
 60 71  1  0  0  0  0
 62 63  1  0  0  0  0
M  CHG  1  71   1
M  ISO  4  32 100  50 101  70 100  78 101
M  END
> <Batch ID>
0030

> <Smiles>
CNC(C)C(=O)NC(C(=O)N1Cc2cc([101O:1][101CH:1]3CCC(F)(C[100NH:0][100C:0](=O)N4CCCC(n5nc(-c6ccc(Oc7ccc(F)cc7F)cc6)c(C(N)=O)c5N)C4)CC(C)C3)ccc2CC1C(=O)NC1CCCc2ccccc21)C(C)(C)C

> <Shape>
0.278

> <Color>
0.067

> <Negative vol penalty>
0.000

$$$$

  -OEChem-04052316393D

 84 92  0     1  0  0  0  0  0999 V2000
  -20.5518  -33.5825   15.3840 C   0  0  0  0  0  0  0  0  0  0  0  0
  -21.4145  -32.4964   15.4904 C   0  0  0  0  0  0  0  0  0  0  0  0
  -26.8243  -14.3592   20.9780 C   0  0  0  0  0  0  0  0  0  0  0  0
  -27.9887  -13.5340   19.0286 C   0  0  0  0  0  0  0  0  0  0  0  0
  -20.7326  -34.6976   16.2012 C   0  0  0  0  0  0  0  0  0  0  0  0
  -22.4594  -32.5251   16.4134 C   0  0  0  0  0  0  0  0  0  0  0  0
  -24.7049  -27.7891   19.5809 C   0  0  0  0  0  0  0  0  0  0  0  0
  -31.3863  -26.2522   19.3243 C   0  0  0  0  0  0  0  0  0  0  0  0
  -32.4067  -25.3689   18.9717 C   0  0  0  0  0  0  0  0  0  0  0  0
  -26.1726  -13.1328   21.1079 C   0  0  0  0  0  0  0  0  0  0  0  0
  -27.3370  -12.3076   19.1584 C   0  0  0  0  0  0  0  0  0  0  0  0
  -25.8177  -26.9725   19.3846 C   0  0  0  0  0  0  0  0  0  0  0  0
  -23.5630  -11.5351   19.6720 C   0  0  0  0  0  0  0  0  0  0  0  0
  -22.1917  -11.5546   19.9266 C   0  0  0  0  0  0  0  0  0  0  0  0
  -27.0909  -28.3539   20.8977 C   0  0  0  0  0  0  0  0  0  0  0  0
  -22.5586  -10.3597   21.9941 C   0  0  0  0  0  0  0  0  0  0  0  0
  -27.7323  -14.5598   19.9383 C   0  0  0  0  0  0  0  0  0  0  0  0
  -29.6344  -16.2018   20.3784 C   0  0  0  0  0  0  0  0  0  0  0  0
  -21.7744  -34.7361   17.1414 C   0  0  0  0  0  0  0  0  0  0  0  0
  -24.7800  -28.9025   20.4302 C   0  0  0  0  0  0  0  0  0  0  0  0
  -22.6551  -33.6423   17.2430 C   0  0  0  0  0  0  0  0  0  0  0  0
  -25.9769  -29.1816   21.1052 C   0  0  0  0  0  0  0  0  0  0  0  0
  -30.3758  -25.8397   20.1928 C   0  0  0  0  0  0  0  0  0  0  0  0
  -32.4164  -24.0730   19.4876 C   0  0  0  0  0  0  0  0  0  0  0  0
  -30.3856  -24.5437   20.7087 C   0  0  0  0  0  0  0  0  0  0  0  0
  -26.4289  -12.1070   20.1981 C   0  0  0  0  0  0  0  0  0  0  0  0
  -27.0118  -27.2565   20.0408 C   0  0  0  0  0  0  0  0  0  0  0  0
  -24.4321  -10.9279   20.5784 C   0  0  0  0  0  0  0  0  0  0  0  0
  -21.6895  -10.9669   21.0876 C   0  0  0  0  0  0  0  0  0  0  0  0
  -23.9299  -10.3402   21.7395 C   0  0  0  0  0  0  0  0  0  0  0  0
  -31.4059  -23.6604   20.3561 C   0  0  0  0  0  0  0  0  0  0  0  0
  -28.4055  -15.8266   19.8034 C   0  0  0  0  0  0  0  0  0  0  0  0
  -29.8341  -17.4916   19.9507 C   0  0  0  0  0  0  0  0  0  0  0  0
  -30.5167  -15.4514   21.2235 C   0  0  0  0  0  0  0  0  0  0  0  0
  -24.4474  -32.0406   20.0493 C   0  0  0  0  0  0  0  0  0  0  0  0
  -24.7296  -32.0695   23.2807 C   0  0  0  0  0  0  0  0  0  0  0  0
  -25.8600  -30.5212   26.1041 C   0  0  0  0  0  0  0  0  0  0  0  0
  -29.7664  -21.3465   15.9158 C   0  0  0  0  0  0  0  0  0  0  0  0
  -21.9588  -35.9828   17.9699 C   0  0  0  0  0  0  0  0  0  0  0  0
  -23.5630  -29.7580   20.6521 C   0  0  0  0  0  0  0  0  0  0  0  0
  -26.1037  -30.3532   22.0431 C   0  0  0  0  0  0  0  0  0  0  0  0
  -22.8631  -35.7797   19.1829 C   0  0  0  0  0  0  0  0  0  0  0  0
  -26.7045  -20.7081   17.6170 C   0  0  0  0  0  0  0  0  0  0  0  0
  -24.1257  -35.0212   18.7864 C   0  0  0  0  0  0  0  0  0  0  0  0
  -26.9735  -19.4095   18.3794 C   0  0  0  0  0  0  0  0  0  0  0  0
  -27.3948  -20.7162   16.2549 C   0  0  0  0  0  0  0  0  0  0  0  0
  -29.1118  -19.1397   17.0551 C   0  0  0  0  0  0  0  0  0  0  0  0
  -23.7852  -33.6258   18.2494 C   0  0  1  0  0  0  0  0  0  0  0  0
  -23.9013  -31.1633   21.1400 C   0  0  1  0  0  0  0  0  0  0  0  0
  -28.4822  -19.1079   18.4583 C   0  0  2  0  0  0  0  0  0  0  0  0
  -29.2899  -24.1213   21.6378 C   0  0  0  0  0  0  0  0  0  0  0  0
  -25.9755  -30.8054   28.5947 C   0  0  0  0  0  0  0  0  0  0  0  0
  -26.9733  -34.1092   22.9414 C   0  0  0  0  0  0  0  0  0  0  0  0
  -27.6641  -33.6380   25.3013 C   0  0  0  0  0  0  0  0  0  0  0  0
  -25.4058  -34.5872   24.8305 C   0  0  0  0  0  0  0  0  0  0  0  0
  -24.2802  -28.0631   26.5744 C   0  0  0  0  0  0  0  0  0  0  0  0
  -33.5293  -23.1611   19.0806 C   0  0  0  0  0  0  0  0  0  0  0  0
  -29.2907  -26.8109   20.5543 C   0  0  0  0  0  0  0  0  0  1  0  0
  -33.0842  -22.1436   18.0205 C   0  0  0  0  0  0  0  0  0  0  0  0
  -32.6196  -22.8354   16.7354 C   0  0  0  0  0  0  0  0  0  0  0  0
  -32.1842  -21.8446   15.6607 C   0  0  0  0  0  0  0  0  0  0  0  0
  -25.8803  -32.1721   24.2525 C   0  0  1  0  0  0  0  0  0  0  0  0
  -25.1842  -30.2281   27.4315 C   0  0  2  0  0  0  0  0  0  0  0  0
  -26.4794  -33.6056   24.3123 C   0  0  0  0  0  0  0  0  0  0  0  0
  -27.8625  -16.7995   19.0667 N   0  0  0  0  0  0  0  0  0  0  0  0
  -28.7545  -17.7988   19.1759 N   0  0  0  0  0  0  0  0  0  0  0  0
  -24.8877  -31.1636   22.2223 N   0  0  0  0  0  0  0  0  0  0  0  0
  -28.8232  -20.4251   16.3999 N   0  0  0  0  0  0  0  0  0  0  0  0
  -30.8261  -18.3817   20.1656 N   0  0  0  0  0  0  0  0  0  0  0  0
  -30.1593  -14.1402   21.5659 N   0  0  0  0  0  0  0  0  0  0  0  0
  -23.4790  -32.7253   19.3402 N   0  0  0  0  0  0  0  0  0  0  0  0
  -25.3796  -31.6798   25.5313 N   0  0  0  0  0  0  0  0  0  0  0  0
  -31.0984  -20.9964   16.0993 N   0  0  0  0  0  0  0  0  0  0  0  0
  -25.0565  -28.7572   27.6340 N   0  3  0  0  0  0  0  0  0  0  0  0
  -31.5822  -15.9352   21.6754 O   0  0  0  0  0  0  0  0  0  0  0  0
  -25.6578  -32.0937   19.8656 O   0  0  0  0  0  0  0  0  0  0  0  0
  -23.7244  -32.7621   23.4582 O   0  0  0  0  0  0  0  0  0  0  0  0
  -26.7299  -29.7970   25.6252 O   0  0  0  0  0  0  0  0  0  0  0  0
  -29.4451  -22.4055   15.3659 O   0  0  0  0  0  0  0  0  0  0  0  0
  -25.7933  -10.9101   20.3246 O   0  0  0  0  0  0  0  0  0  0  0  0
  -28.0997  -26.4614   19.8504 O   0  0  0  0  0  0  0  0  0  1  0  0
  -20.3728  -10.9869   21.3327 F   0  0  0  0  0  0  0  0  0  0  0  0
  -24.7601   -9.7564   22.6146 F   0  0  0  0  0  0  0  0  0  0  0  0
  -31.4191  -22.0488   20.9914 Cl  0  0  0  0  0  0  0  0  0  0  0  0
  1  2  1  0  0  0  0
  1  5  2  0  0  0  0
  2  6  2  0  0  0  0
  3 10  2  0  0  0  0
  3 17  1  0  0  0  0
  4 11  1  0  0  0  0
  4 17  2  0  0  0  0
  5 19  1  0  0  0  0
  6 21  1  0  0  0  0
  7 12  2  0  0  0  0
  7 20  1  0  0  0  0
  8  9  2  0  0  0  0
  8 23  1  0  0  0  0
  9 24  1  0  0  0  0
 10 26  1  0  0  0  0
 11 26  2  0  0  0  0
 12 27  1  0  0  0  0
 13 14  2  0  0  0  0
 13 28  1  0  0  0  0
 14 29  1  0  0  0  0
 15 22  1  0  0  0  0
 15 27  2  0  0  0  0
 16 29  2  0  0  0  0
 16 30  1  0  0  0  0
 17 32  1  0  0  0  0
 18 32  1  0  0  0  0
 18 33  2  0  0  0  0
 18 34  1  0  0  0  0
 19 21  2  0  0  0  0
 19 39  1  0  0  0  0
 20 22  2  0  0  0  0
 20 40  1  0  0  0  0
 21 48  1  0  0  0  0
 22 41  1  0  0  0  0
 23 25  2  0  0  0  0
 23 58  1  0  0  0  0
 24 31  2  0  0  0  0
 24 57  1  0  0  0  0
 25 31  1  0  0  0  0
 25 51  1  0  0  0  0
 26 80  1  0  0  0  0
 27 81  1  0  0  0  0
 28 30  2  0  0  0  0
 28 80  1  0  0  0  0
 29 82  1  0  0  0  0
 30 83  1  0  0  0  0
 31 84  1  0  0  0  0
 32 65  2  0  0  0  0
 33 66  1  0  0  0  0
 33 69  1  0  0  0  0
 34 70  1  0  0  0  0
 34 75  2  0  0  0  0
 35 49  1  0  0  0  0
 35 71  1  0  0  0  0
 35 76  2  0  0  0  0
 36 62  1  0  0  0  0
 36 67  1  0  0  0  0
 36 77  2  0  0  0  0
 37 63  1  0  0  0  0
 37 72  1  0  0  0  0
 37 78  2  0  0  0  0
 38 68  1  0  0  0  0
 38 73  1  0  0  0  0
 38 79  2  0  0  0  0
 39 42  1  0  0  0  0
 40 49  1  0  0  0  0
 41 67  1  0  0  0  0
 42 44  1  0  0  0  0
 43 45  1  0  0  0  0
 43 46  1  0  0  0  0
 44 48  1  0  0  0  0
 45 50  1  0  0  0  0
 46 68  1  0  0  0  0
 47 50  1  0  0  0  0
 47 68  1  0  0  0  0
 48 71  1  0  0  0  0
 49 67  1  0  0  0  0
 50 66  1  0  0  0  0
 52 63  1  0  0  0  0
 53 64  1  0  0  0  0
 54 64  1  0  0  0  0
 55 64  1  0  0  0  0
 56 74  1  0  0  0  0
 57 59  1  0  0  0  0
 58 81  1  0  0  0  0
 59 60  1  0  0  0  0
 60 61  1  0  0  0  0
 61 73  1  0  0  0  0
 62 64  1  0  0  0  0
 62 72  1  0  0  0  0
 63 74  1  0  0  0  0
 65 66  1  0  0  0  0
M  CHG  1  74   1
M  ISO  4  38 100  58 101  73 100  81 101
M  END
> <Batch ID>
0030

> <Smiles>
CNC(C)C(=O)NC(C(=O)N1Cc2cc([101O:1][101CH2:1]c3ccc(CCCC[100NH:0][100C:0](=O)N4CCCC(n5nc(-c6ccc(Oc7ccc(F)cc7F)cc6)c(C(N)=O)c5N)C4)c(Cl)c3C)ccc2CC1C(=O)NC1CCCc2ccccc21)C(C)(C)C

> <Shape>
0.284

> <Color>
0.087

> <Negative vol penalty>
0.000

$$$$

  -OEChem-04052316393D

 80 88  0     1  0  0  0  0  0999 V2000
  -18.0883  -25.6004   22.8239 C   0  0  0  0  0  0  0  0  0  0  0  0
  -19.4353  -25.2529   22.8314 C   0  0  0  0  0  0  0  0  0  0  0  0
  -25.8197  -13.0154   19.4370 C   0  0  0  0  0  0  0  0  0  0  0  0
  -24.0455  -14.6528   19.5270 C   0  0  0  0  0  0  0  0  0  0  0  0
  -17.6973  -26.8614   22.3755 C   0  0  0  0  0  0  0  0  0  0  0  0
  -20.3922  -26.1659   22.3894 C   0  0  0  0  0  0  0  0  0  0  0  0
  -26.0731  -26.8860   24.5608 C   0  0  0  0  0  0  0  0  0  0  0  0
  -24.8749  -11.9898   19.4696 C   0  0  0  0  0  0  0  0  0  0  0  0
  -23.1007  -13.6273   19.5595 C   0  0  0  0  0  0  0  0  0  0  0  0
  -27.3118  -26.4231   24.1190 C   0  0  0  0  0  0  0  0  0  0  0  0
  -22.9568  -10.4433   21.7833 C   0  0  0  0  0  0  0  0  0  0  0  0
  -23.1971   -9.3686   22.6394 C   0  0  0  0  0  0  0  0  0  0  0  0
  -27.6789  -28.5153   22.9755 C   0  0  0  0  0  0  0  0  0  0  0  0
  -29.9156  -23.8372   21.5113 C   0  0  0  0  0  0  0  0  0  0  0  0
  -23.1858   -7.8617   20.7509 C   0  0  0  0  0  0  0  0  0  0  0  0
  -25.4051  -14.3469   19.4658 C   0  0  0  0  0  0  0  0  0  0  0  0
  -26.9082  -16.0414   18.2923 C   0  0  0  0  0  0  0  0  0  0  0  0
  -18.6507  -27.7937   21.9369 C   0  0  0  0  0  0  0  0  0  0  0  0
  -25.6225  -28.1650   24.2036 C   0  0  0  0  0  0  0  0  0  0  0  0
  -20.0135  -27.4400   21.9335 C   0  0  0  0  0  0  0  0  0  0  0  0
  -26.4352  -28.9929   23.4162 C   0  0  0  0  0  0  0  0  0  0  0  0
  -29.1747  -22.8766   20.7797 C   0  0  0  0  0  0  0  0  0  0  0  0
  -23.5154  -12.2957   19.5308 C   0  0  0  0  0  0  0  0  0  0  0  0
  -28.1137  -27.2367   23.3239 C   0  0  0  0  0  0  0  0  0  0  0  0
  -22.8309  -10.2272   20.4110 C   0  0  0  0  0  0  0  0  0  0  0  0
  -23.3116   -8.0778   22.1232 C   0  0  0  0  0  0  0  0  0  0  0  0
  -22.9454   -8.9364   19.8948 C   0  0  0  0  0  0  0  0  0  0  0  0
  -26.3806  -15.4068   19.4328 C   0  0  0  0  0  0  0  0  0  0  0  0
  -30.0375  -24.9553   20.7162 C   0  0  0  0  0  0  0  0  0  0  0  0
  -28.8665  -23.4369   19.5597 C   0  0  0  0  0  0  0  0  0  0  0  0
  -27.7888  -16.9693   18.7922 C   0  0  0  0  0  0  0  0  0  0  0  0
  -26.6273  -15.8126   16.9051 C   0  0  0  0  0  0  0  0  0  0  0  0
  -23.1491  -29.2929   22.5562 C   0  0  0  0  0  0  0  0  0  0  0  0
  -24.2962  -32.1609   23.5467 C   0  0  0  0  0  0  0  0  0  0  0  0
  -26.9591  -33.9965   24.6358 C   0  0  0  0  0  0  0  0  0  0  0  0
  -29.0995  -20.9752   22.4306 C   0  0  0  0  0  0  0  0  0  0  0  0
  -18.1760  -29.1274   21.4168 C   0  0  0  0  0  0  0  0  0  0  0  0
  -24.2955  -28.6596   24.7104 C   0  0  0  0  0  0  0  0  0  0  0  0
  -26.0064  -30.3818   23.0218 C   0  0  0  0  0  0  0  0  0  0  0  0
  -19.2847  -30.1720   21.3171 C   0  0  0  0  0  0  0  0  0  0  0  0
  -29.5930  -17.6083   23.4782 C   0  0  0  0  0  0  0  0  0  0  0  0
  -20.5232  -29.5745   20.6569 C   0  0  0  0  0  0  0  0  0  0  0  0
  -28.8447  -16.7876   22.4253 C   0  0  0  0  0  0  0  0  0  0  0  0
  -28.8685  -18.9142   23.7996 C   0  0  0  0  0  0  0  0  0  0  0  0
  -27.7961  -18.9267   21.5817 C   0  0  0  0  0  0  0  0  0  0  0  0
  -21.0833  -28.4119   21.4851 C   0  0  1  0  0  0  0  0  0  0  0  0
  -23.7124  -29.7838   23.8598 C   0  0  1  0  0  0  0  0  0  0  0  0
  -28.5211  -17.6326   21.1776 C   0  0  2  0  0  0  0  0  0  0  0  0
  -28.1134  -22.8798   18.4149 C   0  0  0  0  0  0  0  0  0  0  0  0
  -27.5969  -36.3226   25.3286 C   0  0  0  0  0  0  0  0  0  0  0  0
  -24.3017  -33.0280   20.6213 C   0  0  0  0  0  0  0  0  0  0  0  0
  -25.7978  -34.9310   21.2606 C   0  0  0  0  0  0  0  0  0  0  0  0
  -23.5027  -34.7728   22.2251 C   0  0  0  0  0  0  0  0  0  0  0  0
  -29.2944  -25.6252   18.4225 C   0  0  0  0  0  0  0  0  0  0  0  0
  -27.7210  -33.1032   27.3525 C   0  0  0  0  0  0  0  0  0  0  0  0
  -30.7256  -26.2697   20.9943 C   0  0  0  0  0  0  0  0  0  0  0  0
  -29.7918  -27.2879   21.6395 C   0  0  0  0  0  0  0  0  0  1  0  0
  -25.2882  -33.1609   23.0036 C   0  0  1  0  0  0  0  0  0  0  0  0
  -27.1098  -34.9608   25.7986 C   0  0  2  0  0  0  0  0  0  0  0  0
  -24.7301  -33.9463   21.7833 C   0  0  0  0  0  0  0  0  0  0  0  0
  -26.8842  -15.8906   20.5714 N   0  0  0  0  0  0  0  0  0  0  0  0
  -29.3962  -24.7005   19.5321 N   0  0  0  0  0  0  0  0  0  0  0  0
  -27.7375  -16.8390   20.1489 N   0  0  0  0  0  0  0  0  0  0  0  0
  -24.6978  -30.8176   23.5369 N   0  0  0  0  0  0  0  0  0  0  0  0
  -28.5990  -19.6634   22.5704 N   0  0  0  0  0  0  0  0  0  0  0  0
  -28.5944  -17.8758   18.1992 N   0  0  0  0  0  0  0  0  0  0  0  0
  -25.6962  -14.8212   16.5666 N   0  0  0  0  0  0  0  0  0  0  0  0
  -28.8079  -21.5762   21.2065 N   0  0  0  0  0  0  0  0  0  0  0  0
  -21.8223  -28.9127   22.6242 N   0  0  0  0  0  0  0  0  0  0  0  0
  -25.6765  -34.0033   24.1296 N   0  0  0  0  0  0  0  0  0  0  0  0
  -28.0872  -34.4284   26.7896 N   0  3  0  0  0  0  0  0  0  0  0  0
  -27.1976  -16.4566   15.9921 O   0  0  0  0  0  0  0  0  0  0  0  0
  -23.8648  -29.2627   21.5619 O   0  0  0  0  0  0  0  0  0  0  0  0
  -23.2080  -32.5578   23.9709 O   0  0  0  0  0  0  0  0  0  0  0  0
  -27.8873  -33.3090   24.2160 O   0  0  0  0  0  0  0  0  0  0  0  0
  -29.7628  -21.5149   23.3198 O   0  0  0  0  0  0  0  0  0  0  0  0
  -22.5931  -11.2952   19.5622 O   0  0  0  0  0  0  0  0  0  0  0  0
  -29.3229  -26.7872   22.8908 O   0  0  0  0  0  0  0  0  0  1  0  0
  -23.5439   -7.0461   22.9453 F   0  0  0  0  0  0  0  0  0  0  0  0
  -22.8266   -8.7227   18.5772 F   0  0  0  0  0  0  0  0  0  0  0  0
  1  2  1  0  0  0  0
  1  5  2  0  0  0  0
  2  6  2  0  0  0  0
  3  8  2  0  0  0  0
  3 16  1  0  0  0  0
  4  9  1  0  0  0  0
  4 16  2  0  0  0  0
  5 18  1  0  0  0  0
  6 20  1  0  0  0  0
  7 10  2  0  0  0  0
  7 19  1  0  0  0  0
  8 23  1  0  0  0  0
  9 23  2  0  0  0  0
 10 24  1  0  0  0  0
 11 12  2  0  0  0  0
 11 25  1  0  0  0  0
 12 26  1  0  0  0  0
 13 21  1  0  0  0  0
 13 24  2  0  0  0  0
 14 22  1  0  0  0  0
 14 29  2  0  0  0  0
 15 26  2  0  0  0  0
 15 27  1  0  0  0  0
 16 28  1  0  0  0  0
 17 28  1  0  0  0  0
 17 31  2  0  0  0  0
 17 32  1  0  0  0  0
 18 20  2  0  0  0  0
 18 37  1  0  0  0  0
 19 21  2  0  0  0  0
 19 38  1  0  0  0  0
 20 46  1  0  0  0  0
 21 39  1  0  0  0  0
 22 30  2  0  0  0  0
 22 68  1  0  0  0  0
 23 77  1  0  0  0  0
 24 78  1  0  0  0  0
 25 27  2  0  0  0  0
 25 77  1  0  0  0  0
 26 79  1  0  0  0  0
 27 80  1  0  0  0  0
 28 61  2  0  0  0  0
 29 56  1  0  0  0  0
 29 62  1  0  0  0  0
 30 49  1  0  0  0  0
 30 62  1  0  0  0  0
 31 63  1  0  0  0  0
 31 66  1  0  0  0  0
 32 67  1  0  0  0  0
 32 72  2  0  0  0  0
 33 47  1  0  0  0  0
 33 69  1  0  0  0  0
 33 73  2  0  0  0  0
 34 58  1  0  0  0  0
 34 64  1  0  0  0  0
 34 74  2  0  0  0  0
 35 59  1  0  0  0  0
 35 70  1  0  0  0  0
 35 75  2  0  0  0  0
 36 65  1  0  0  0  0
 36 68  1  0  0  0  0
 36 76  2  0  0  0  0
 37 40  1  0  0  0  0
 38 47  1  0  0  0  0
 39 64  1  0  0  0  0
 40 42  1  0  0  0  0
 41 43  1  0  0  0  0
 41 44  1  0  0  0  0
 42 46  1  0  0  0  0
 43 48  1  0  0  0  0
 44 65  1  0  0  0  0
 45 48  1  0  0  0  0
 45 65  1  0  0  0  0
 46 69  1  0  0  0  0
 47 64  1  0  0  0  0
 48 63  1  0  0  0  0
 50 59  1  0  0  0  0
 51 60  1  0  0  0  0
 52 60  1  0  0  0  0
 53 60  1  0  0  0  0
 54 62  1  0  0  0  0
 55 71  1  0  0  0  0
 56 57  1  0  0  0  0
 57 78  1  0  0  0  0
 58 60  1  0  0  0  0
 58 70  1  0  0  0  0
 59 71  1  0  0  0  0
 61 63  1  0  0  0  0
M  CHG  1  71   1
M  ISO  4  36 100  57 101  68 100  78 101
M  END
> <Batch ID>
0030

> <Smiles>
CNC(C)C(=O)NC(C(=O)N1Cc2cc([101O:1][101CH2:1]Cc3cc([100NH:0][100C:0](=O)N4CCCC(n5nc(-c6ccc(Oc7ccc(F)cc7F)cc6)c(C(N)=O)c5N)C4)c(C)n3C)ccc2CC1C(=O)NC1CCCc2ccccc21)C(C)(C)C

> <Shape>
0.271

> <Color>
0.077

> <Negative vol penalty>
0.000

$$$$

  -OEChem-04052316393D

 85 94  0     1  0  0  0  0  0999 V2000
  -18.2372  -33.1429   23.1568 C   0  0  0  0  0  0  0  0  0  0  0  0
  -19.5769  -33.2450   22.7961 C   0  0  0  0  0  0  0  0  0  0  0  0
  -30.2232  -18.0726   21.7862 C   0  0  0  0  0  0  0  0  0  0  0  0
  -29.7073  -17.8172   19.4398 C   0  0  0  0  0  0  0  0  0  0  0  0
  -17.7620  -31.9711   23.7443 C   0  0  0  0  0  0  0  0  0  0  0  0
  -20.4425  -32.1757   23.0236 C   0  0  0  0  0  0  0  0  0  0  0  0
  -25.1700  -30.4584   19.5297 C   0  0  0  0  0  0  0  0  0  0  0  0
  -30.5169  -16.7116   21.8698 C   0  0  0  0  0  0  0  0  0  0  0  0
  -30.0010  -16.4562   19.5234 C   0  0  0  0  0  0  0  0  0  0  0  0
  -26.5410  -30.6928   19.6255 C   0  0  0  0  0  0  0  0  0  0  0  0
  -30.2677  -12.8458   19.2011 C   0  0  0  0  0  0  0  0  0  0  0  0
  -29.3858  -11.9536   18.5915 C   0  0  0  0  0  0  0  0  0  0  0  0
  -26.8210  -28.5673   20.7315 C   0  0  0  0  0  0  0  0  0  0  0  0
  -27.6000  -12.7488   20.0113 C   0  0  0  0  0  0  0  0  0  0  0  0
  -29.8183  -18.6254   20.5712 C   0  0  0  0  0  0  0  0  0  0  0  0
  -28.5274  -20.7333   21.2020 C   0  0  0  0  0  0  0  0  0  0  0  0
  -18.6201  -30.8834   23.9703 C   0  0  0  0  0  0  0  0  0  0  0  0
  -24.6117  -29.2797   20.0447 C   0  0  0  0  0  0  0  0  0  0  0  0
  -19.9787  -30.9888   23.6159 C   0  0  0  0  0  0  0  0  0  0  0  0
  -25.4430  -28.3192   20.6387 C   0  0  0  0  0  0  0  0  0  0  0  0
  -33.2420  -29.0041   22.3050 C   0  0  0  0  0  0  0  0  0  0  0  0
  -30.4058  -15.9034   20.7384 C   0  0  0  0  0  0  0  0  0  0  0  0
  -27.3663  -29.7485   20.2290 C   0  0  0  0  0  0  0  0  0  0  0  0
  -29.8159  -13.6895   20.2159 C   0  0  0  0  0  0  0  0  0  0  0  0
  -28.0519  -11.9051   18.9966 C   0  0  0  0  0  0  0  0  0  0  0  0
  -28.4820  -13.6411   20.6209 C   0  0  0  0  0  0  0  0  0  0  0  0
  -35.1321  -27.6135   21.7265 C   0  0  0  0  0  0  0  0  0  0  0  0
  -34.5980  -28.6864   22.4289 C   0  0  0  0  0  0  0  0  0  0  0  0
  -29.5142  -20.0311   20.4844 C   0  0  0  0  0  0  0  0  0  0  0  0
  -32.4682  -28.2231   21.4415 C   0  0  0  0  0  0  0  0  0  0  0  0
  -34.2830  -26.8916   20.9091 C   0  0  0  0  0  0  0  0  0  0  0  0
  -28.6409  -22.0298   20.7630 C   0  0  0  0  0  0  0  0  0  0  0  0
  -27.5919  -20.2564   22.1782 C   0  0  0  0  0  0  0  0  0  0  0  0
  -22.4838  -28.6081   22.3085 C   0  0  0  0  0  0  0  0  0  0  0  0
  -22.8281  -25.5829   21.1895 C   0  0  0  0  0  0  0  0  0  0  0  0
  -24.7676  -23.3038   19.5490 C   0  0  0  0  0  0  0  0  0  0  0  0
  -33.1638  -25.1463   18.3793 C   0  0  0  0  0  0  0  0  0  0  0  0
  -18.0710  -29.6548   24.6513 C   0  0  0  0  0  0  0  0  0  0  0  0
  -23.1347  -29.0298   19.9096 C   0  0  0  0  0  0  0  0  0  0  0  0
  -32.6799  -30.1933   23.0344 C   0  0  0  0  0  0  0  0  0  0  0  0
  -24.8959  -27.0284   21.1892 C   0  0  0  0  0  0  0  0  0  0  0  0
  -30.9915  -28.4763   21.2756 C   0  0  0  0  0  0  0  0  0  0  0  0
  -18.9712  -28.4295   24.5156 C   0  0  0  0  0  0  0  0  0  0  0  0
  -31.1511  -30.2107   23.0786 C   0  0  0  0  0  0  0  0  0  0  0  0
  -29.9562  -24.5866   16.9389 C   0  0  0  0  0  0  0  0  0  0  0  0
  -20.4209  -28.7961   24.8167 C   0  0  0  0  0  0  0  0  0  0  0  0
  -29.3901  -23.4190   17.7490 C   0  0  0  0  0  0  0  0  0  0  0  0
  -31.4612  -24.4458   16.7219 C   0  0  0  0  0  0  0  0  0  0  0  0
  -31.6829  -23.0834   18.7635 C   0  0  0  0  0  0  0  0  0  0  0  0
  -20.9433  -29.8415   23.8238 C   0  0  1  0  0  0  0  0  0  0  0  0
  -22.6028  -28.0264   20.9282 C   0  0  1  0  0  0  0  0  0  0  0  0
  -30.1780  -23.2094   19.0561 C   0  0  2  0  0  0  0  0  0  0  0  0
  -30.5732  -29.8896   21.6984 C   0  0  2  0  0  0  0  0  0  0  0  0
  -24.7966  -20.9022   18.8218 C   0  0  0  0  0  0  0  0  0  0  0  0
  -23.4294  -24.7250   24.0552 C   0  0  0  0  0  0  0  0  0  0  0  0
  -24.3618  -22.5869   23.1455 C   0  0  0  0  0  0  0  0  0  0  0  0
  -21.9596  -23.1524   22.7821 C   0  0  0  0  0  0  0  0  0  0  0  0
  -24.9541  -24.0506   16.6913 C   0  0  0  0  0  0  0  0  0  0  0  0
  -34.8146  -25.7297   20.1381 C   0  0  0  0  0  0  0  0  0  0  0  0
  -23.7379  -24.4216   21.5098 C   0  0  1  0  0  0  0  0  0  0  0  0
  -24.4483  -22.3296   18.4295 C   0  0  2  0  0  0  0  0  0  0  0  0
  -23.3825  -23.7465   22.8646 C   0  0  0  0  0  0  0  0  0  0  0  0
  -30.2037  -20.8164   19.6525 N   0  0  0  0  0  0  0  0  0  0  0  0
  -32.9698  -27.1673   20.7518 N   0  0  0  0  0  0  0  0  0  0  0  0
  -29.6493  -22.0255   19.8446 N   0  0  0  0  0  0  0  0  0  0  0  0
  -23.4444  -26.8332   21.0388 N   0  0  0  0  0  0  0  0  0  0  0  0
  -32.1497  -24.2514   18.0002 N   0  0  0  0  0  0  0  0  0  0  0  0
  -27.9755  -23.1617   21.0768 N   0  0  0  0  0  0  0  0  0  0  0  0
  -27.9712  -20.2656   23.5275 N   0  0  0  0  0  0  0  0  0  0  0  0
  -21.2697  -29.2185   22.5590 N   0  0  0  0  0  0  0  0  0  0  0  0
  -23.6751  -23.5248   20.3608 N   0  0  0  0  0  0  0  0  0  0  0  0
  -33.7605  -24.8937   19.6085 N   0  0  0  0  0  0  0  0  0  0  0  0
  -29.1152  -29.9834   21.7282 N   0  0  0  0  0  0  0  0  0  1  0  0
  -25.2174  -22.6807   17.2022 N   0  3  0  0  0  0  0  0  0  0  0  0
  -26.4596  -19.8191   21.8618 O   0  0  0  0  0  0  0  0  0  0  0  0
  -23.4234  -28.5091   23.0889 O   0  0  0  0  0  0  0  0  0  0  0  0
  -21.6161  -25.3866   21.0700 O   0  0  0  0  0  0  0  0  0  0  0  0
  -25.8763  -23.8146   19.6915 O   0  0  0  0  0  0  0  0  0  0  0  0
  -33.5080  -26.1029   17.6769 O   0  0  0  0  0  0  0  0  0  0  0  0
  -30.6926  -14.5753   20.8195 O   0  0  0  0  0  0  0  0  0  0  0  0
  -28.7048  -29.9750   20.3244 O   0  0  0  0  0  0  0  0  0  1  0  0
  -27.2047  -11.0493   18.4101 F   0  0  0  0  0  0  0  0  0  0  0  0
  -28.0419  -14.4500   21.5944 F   0  0  0  0  0  0  0  0  0  0  0  0
  -36.4278  -27.2865   21.8276 F   0  0  0  0  0  0  0  0  0  0  0  0
  -35.6743  -29.6053   23.4261 Cl  0  0  0  0  0  0  0  0  0  0  0  0
  1  2  1  0  0  0  0
  1  5  2  0  0  0  0
  2  6  2  0  0  0  0
  3  8  2  0  0  0  0
  3 15  1  0  0  0  0
  4  9  1  0  0  0  0
  4 15  2  0  0  0  0
  5 17  1  0  0  0  0
  6 19  1  0  0  0  0
  7 10  2  0  0  0  0
  7 18  1  0  0  0  0
  8 22  1  0  0  0  0
  9 22  2  0  0  0  0
 10 23  1  0  0  0  0
 11 12  2  0  0  0  0
 11 24  1  0  0  0  0
 12 25  1  0  0  0  0
 13 20  1  0  0  0  0
 13 23  2  0  0  0  0
 14 25  2  0  0  0  0
 14 26  1  0  0  0  0
 15 29  1  0  0  0  0
 16 29  1  0  0  0  0
 16 32  2  0  0  0  0
 16 33  1  0  0  0  0
 17 19  2  0  0  0  0
 17 38  1  0  0  0  0
 18 20  2  0  0  0  0
 18 39  1  0  0  0  0
 19 50  1  0  0  0  0
 20 41  1  0  0  0  0
 21 28  2  0  0  0  0
 21 30  1  0  0  0  0
 21 40  1  0  0  0  0
 22 80  1  0  0  0  0
 23 81  1  0  0  0  0
 24 26  2  0  0  0  0
 24 80  1  0  0  0  0
 25 82  1  0  0  0  0
 26 83  1  0  0  0  0
 27 28  1  0  0  0  0
 27 31  2  0  0  0  0
 27 84  1  0  0  0  0
 28 85  1  0  0  0  0
 29 63  2  0  0  0  0
 30 42  1  0  0  0  0
 30 64  2  0  0  0  0
 31 59  1  0  0  0  0
 31 64  1  0  0  0  0
 32 65  1  0  0  0  0
 32 68  1  0  0  0  0
 33 69  1  0  0  0  0
 33 75  2  0  0  0  0
 34 51  1  0  0  0  0
 34 70  1  0  0  0  0
 34 76  2  0  0  0  0
 35 60  1  0  0  0  0
 35 66  1  0  0  0  0
 35 77  2  0  0  0  0
 36 61  1  0  0  0  0
 36 71  1  0  0  0  0
 36 78  2  0  0  0  0
 37 67  1  0  0  0  0
 37 72  1  0  0  0  0
 37 79  2  0  0  0  0
 38 43  1  0  0  0  0
 39 51  1  0  0  0  0
 40 44  1  0  0  0  0
 41 66  1  0  0  0  0
 42 53  1  0  0  0  0
 43 46  1  0  0  0  0
 44 53  1  0  0  0  0
 45 47  1  0  0  0  0
 45 48  1  0  0  0  0
 46 50  1  0  0  0  0
 47 52  1  0  0  0  0
 48 67  1  0  0  0  0
 49 52  1  0  0  0  0
 49 67  1  0  0  0  0
 50 70  1  0  0  0  0
 51 66  1  0  0  0  0
 52 65  1  0  0  0  0
 53 73  1  0  0  0  0
 54 61  1  0  0  0  0
 55 62  1  0  0  0  0
 56 62  1  0  0  0  0
 57 62  1  0  0  0  0
 58 74  1  0  0  0  0
 59 72  1  0  0  0  0
 60 62  1  0  0  0  0
 60 71  1  0  0  0  0
 61 74  1  0  0  0  0
 63 65  1  0  0  0  0
 73 81  1  0  0  0  0
M  CHG  1  74   1
M  ISO  4  37 100  72 100  73 101  81 101
M  END
> <Batch ID>
0030

> <Smiles>
CNC(C)C(=O)NC(C(=O)N1Cc2cc([101O:1][101NH:1]C3CCc4c(nc(C[100NH:0][100C:0](=O)N5CCCC(n6nc(-c7ccc(Oc8ccc(F)cc8F)cc7)c(C(N)=O)c6N)C5)c(F)c4Cl)C3)ccc2CC1C(=O)NC1CCCc2ccccc21)C(C)(C)C

> <Shape>
0.232

> <Color>
0.071

> <Negative vol penalty>
0.000

$$$$

  -OEChem-04052316393D

 84 92  0     1  0  0  0  0  0999 V2000
  -32.2821  -24.7502   33.4468 C   0  0  0  0  0  0  0  0  0  0  0  0
  -31.7003  -24.1090   32.3578 C   0  0  0  0  0  0  0  0  0  0  0  0
  -23.0024   -9.8905   19.9844 C   0  0  0  0  0  0  0  0  0  0  0  0
  -23.7276   -9.9496   22.2882 C   0  0  0  0  0  0  0  0  0  0  0  0
  -31.8064  -25.9948   33.8572 C   0  0  0  0  0  0  0  0  0  0  0  0
  -30.6417  -24.7117   31.6793 C   0  0  0  0  0  0  0  0  0  0  0  0
  -31.1525  -24.4398   26.6484 C   0  0  0  0  0  0  0  0  0  0  0  0
  -22.2379   -8.7554   20.2541 C   0  0  0  0  0  0  0  0  0  0  0  0
  -22.9630   -8.8146   22.5580 C   0  0  0  0  0  0  0  0  0  0  0  0
  -30.8400  -23.2242   26.0414 C   0  0  0  0  0  0  0  0  0  0  0  0
  -23.2131   -5.4747   22.0961 C   0  0  0  0  0  0  0  0  0  0  0  0
  -23.8025   -4.4608   22.8512 C   0  0  0  0  0  0  0  0  0  0  0  0
  -28.6857  -24.1030   25.4043 C   0  0  0  0  0  0  0  0  0  0  0  0
  -27.5602  -17.8189   22.5907 C   0  0  0  0  0  0  0  0  0  0  0  0
  -22.0782   -4.7057   24.5258 C   0  0  0  0  0  0  0  0  0  0  0  0
  -23.7473  -10.4875   21.0014 C   0  0  0  0  0  0  0  0  0  0  0  0
  -24.1282  -13.0032   20.8178 C   0  0  0  0  0  0  0  0  0  0  0  0
  -30.7477  -26.6174   33.1774 C   0  0  0  0  0  0  0  0  0  0  0  0
  -30.2281  -25.4943   26.6473 C   0  0  0  0  0  0  0  0  0  0  0  0
  -30.1504  -25.9652   32.0818 C   0  0  0  0  0  0  0  0  0  0  0  0
  -28.9899  -25.3318   26.0097 C   0  0  0  0  0  0  0  0  0  0  0  0
  -28.3739  -18.7497   21.9447 C   0  0  0  0  0  0  0  0  0  0  0  0
  -28.5212  -20.0324   22.4725 C   0  0  0  0  0  0  0  0  0  0  0  0
  -27.8548  -20.3844   23.6463 C   0  0  0  0  0  0  0  0  0  0  0  0
  -27.0411  -19.4536   24.2923 C   0  0  0  0  0  0  0  0  0  0  0  0
  -22.2181   -8.2175   21.5409 C   0  0  0  0  0  0  0  0  0  0  0  0
  -29.6054  -23.0546   25.4218 C   0  0  0  0  0  0  0  0  0  0  0  0
  -22.0563   -6.1042   22.5558 C   0  0  0  0  0  0  0  0  0  0  0  0
  -23.2350   -4.0762   24.0660 C   0  0  0  0  0  0  0  0  0  0  0  0
  -21.4889   -5.7197   23.7706 C   0  0  0  0  0  0  0  0  0  0  0  0
  -26.8938  -18.1709   23.7644 C   0  0  0  0  0  0  0  0  0  0  0  0
  -24.5377  -11.6597   20.7232 C   0  0  0  0  0  0  0  0  0  0  0  0
  -25.2367  -13.7267   20.4513 C   0  0  0  0  0  0  0  0  0  0  0  0
  -22.8593  -13.5486   21.2028 C   0  0  0  0  0  0  0  0  0  0  0  0
  -28.6784  -27.1210   28.8959 C   0  0  0  0  0  0  0  0  0  0  0  0
  -27.7001  -28.9138   26.3757 C   0  0  0  0  0  0  0  0  0  0  0  0
  -27.1186  -29.1204   23.0193 C   0  0  0  0  0  0  0  0  0  0  0  0
  -30.7315  -14.6716   20.6968 C   0  0  0  0  0  0  0  0  0  0  0  0
  -30.2365  -27.9417   33.6872 C   0  0  0  0  0  0  0  0  0  0  0  0
  -30.5909  -26.8082   27.2832 C   0  0  0  0  0  0  0  0  0  0  0  0
  -27.9705  -26.4395   25.9632 C   0  0  0  0  0  0  0  0  0  0  0  0
  -29.3576  -28.6827   32.6829 C   0  0  0  0  0  0  0  0  0  0  0  0
  -29.5949  -12.2389   18.3586 C   0  0  0  0  0  0  0  0  0  0  0  0
  -28.3304  -27.7353   32.0713 C   0  0  0  0  0  0  0  0  0  0  0  0
  -28.1469  -11.9779   18.7770 C   0  0  0  0  0  0  0  0  0  0  0  0
  -30.4970  -12.4795   19.5671 C   0  0  0  0  0  0  0  0  0  0  0  0
  -28.5855  -13.2757   20.9036 C   0  0  0  0  0  0  0  0  0  0  0  0
  -29.0164  -26.5980   31.3048 C   0  0  1  0  0  0  0  0  0  0  0  0
  -29.3728  -27.6417   27.6693 C   0  0  1  0  0  0  0  0  0  0  0  0
  -27.6268  -13.0828   19.7162 C   0  0  2  0  0  0  0  0  0  0  0  0
  -29.3945  -21.0285   21.7771 C   0  0  0  0  0  0  0  0  0  0  0  0
  -26.3315  -19.8451   25.5516 C   0  0  0  0  0  0  0  0  0  0  0  0
  -26.2845  -30.7016   21.2582 C   0  0  0  0  0  0  0  0  0  0  0  0
  -24.8350  -28.4434   27.3137 C   0  0  0  0  0  0  0  0  0  0  0  0
  -24.0470  -29.2026   25.0619 C   0  0  0  0  0  0  0  0  0  0  0  0
  -25.3085  -30.7721   26.5344 C   0  0  0  0  0  0  0  0  0  0  0  0
  -29.6985  -29.0514   21.5707 C   0  0  0  0  0  0  0  0  0  0  0  0
  -29.0764  -18.3478   20.6894 C   0  0  0  0  0  0  0  0  0  0  0  0
  -28.0148  -21.7645   24.2128 C   0  0  0  0  0  0  0  0  0  1  0  0
  -30.5616  -17.9854   20.8800 C   0  0  0  0  0  0  0  0  0  0  0  0
  -30.8104  -16.8542   21.8754 C   0  0  0  0  0  0  0  0  0  0  0  0
  -26.5352  -28.8646   25.4169 C   0  0  1  0  0  0  0  0  0  0  0  0
  -27.5053  -30.1697   21.9927 C   0  0  2  0  0  0  0  0  0  0  0  0
  -25.1996  -29.2989   26.0841 C   0  0  0  0  0  0  0  0  0  0  0  0
  -25.8072  -11.5342   20.3274 N   0  0  0  0  0  0  0  0  0  0  0  0
  -26.2050  -12.8082   20.1700 N   0  0  0  0  0  0  0  0  0  0  0  0
  -28.3695  -27.7033   26.6045 N   0  0  0  0  0  0  0  0  0  0  0  0
  -29.9484  -13.5398   20.4160 N   0  0  0  0  0  0  0  0  0  0  0  0
  -25.4679  -15.0525   20.3452 N   0  0  0  0  0  0  0  0  0  0  0  0
  -21.8291  -12.6637   21.5490 N   0  0  0  0  0  0  0  0  0  0  0  0
  -29.4836  -27.0660   30.0175 N   0  0  0  0  0  0  0  0  0  0  0  0
  -26.9193  -29.6747   24.2660 N   0  0  0  0  0  0  0  0  0  0  0  0
  -30.1335  -15.6317   21.5038 N   0  0  0  0  0  0  0  0  0  0  0  0
  -28.4428  -29.5915   20.9888 N   0  3  0  0  0  0  0  0  0  0  0  0
  -22.6405  -14.7836   21.2228 O   0  0  0  0  0  0  0  0  0  0  0  0
  -27.4991  -26.7948   28.8299 O   0  0  0  0  0  0  0  0  0  0  0  0
  -28.0094  -29.9882   26.8969 O   0  0  0  0  0  0  0  0  0  0  0  0
  -27.0012  -27.9288   22.7421 O   0  0  0  0  0  0  0  0  0  0  0  0
  -31.8766  -14.8182   20.2562 O   0  0  0  0  0  0  0  0  0  0  0  0
  -21.4720   -7.1101   21.8046 O   0  0  0  0  0  0  0  0  0  0  0  0
  -29.2976  -21.8689   24.8291 O   0  0  0  0  0  0  0  0  0  1  0  0
  -23.8002   -3.1015   24.7903 F   0  0  0  0  0  0  0  0  0  0  0  0
  -20.3770   -6.3199   24.2169 F   0  0  0  0  0  0  0  0  0  0  0  0
  -25.8968  -16.9895   24.5337 Cl  0  0  0  0  0  0  0  0  0  0  0  0
  1  2  1  0  0  0  0
  1  5  2  0  0  0  0
  2  6  2  0  0  0  0
  3  8  2  0  0  0  0
  3 16  1  0  0  0  0
  4  9  1  0  0  0  0
  4 16  2  0  0  0  0
  5 18  1  0  0  0  0
  6 20  1  0  0  0  0
  7 10  2  0  0  0  0
  7 19  1  0  0  0  0
  8 26  1  0  0  0  0
  9 26  2  0  0  0  0
 10 27  1  0  0  0  0
 11 12  2  0  0  0  0
 11 28  1  0  0  0  0
 12 29  1  0  0  0  0
 13 21  1  0  0  0  0
 13 27  2  0  0  0  0
 14 22  2  0  0  0  0
 14 31  1  0  0  0  0
 15 29  2  0  0  0  0
 15 30  1  0  0  0  0
 16 32  1  0  0  0  0
 17 32  1  0  0  0  0
 17 33  2  0  0  0  0
 17 34  1  0  0  0  0
 18 20  2  0  0  0  0
 18 39  1  0  0  0  0
 19 21  2  0  0  0  0
 19 40  1  0  0  0  0
 20 48  1  0  0  0  0
 21 41  1  0  0  0  0
 22 23  1  0  0  0  0
 22 58  1  0  0  0  0
 23 24  2  0  0  0  0
 23 51  1  0  0  0  0
 24 25  1  0  0  0  0
 24 59  1  0  0  0  0
 25 31  2  0  0  0  0
 25 52  1  0  0  0  0
 26 80  1  0  0  0  0
 27 81  1  0  0  0  0
 28 30  2  0  0  0  0
 28 80  1  0  0  0  0
 29 82  1  0  0  0  0
 30 83  1  0  0  0  0
 31 84  1  0  0  0  0
 32 65  2  0  0  0  0
 33 66  1  0  0  0  0
 33 69  1  0  0  0  0
 34 70  1  0  0  0  0
 34 75  2  0  0  0  0
 35 49  1  0  0  0  0
 35 71  1  0  0  0  0
 35 76  2  0  0  0  0
 36 62  1  0  0  0  0
 36 67  1  0  0  0  0
 36 77  2  0  0  0  0
 37 63  1  0  0  0  0
 37 72  1  0  0  0  0
 37 78  2  0  0  0  0
 38 68  1  0  0  0  0
 38 73  1  0  0  0  0
 38 79  2  0  0  0  0
 39 42  1  0  0  0  0
 40 49  1  0  0  0  0
 41 67  1  0  0  0  0
 42 44  1  0  0  0  0
 43 45  1  0  0  0  0
 43 46  1  0  0  0  0
 44 48  1  0  0  0  0
 45 50  1  0  0  0  0
 46 68  1  0  0  0  0
 47 50  1  0  0  0  0
 47 68  1  0  0  0  0
 48 71  1  0  0  0  0
 49 67  1  0  0  0  0
 50 66  1  0  0  0  0
 53 63  1  0  0  0  0
 54 64  1  0  0  0  0
 55 64  1  0  0  0  0
 56 64  1  0  0  0  0
 57 74  1  0  0  0  0
 58 60  1  0  0  0  0
 59 81  1  0  0  0  0
 60 61  1  0  0  0  0
 61 73  1  0  0  0  0
 62 64  1  0  0  0  0
 62 72  1  0  0  0  0
 63 74  1  0  0  0  0
 65 66  1  0  0  0  0
M  CHG  1  74   1
M  ISO  4  38 100  59 101  73 100  81 101
M  END
> <Batch ID>
0030

> <Smiles>
CNC(C)C(=O)NC(C(=O)N1Cc2cc([101O:1][101CH2:1]c3c(C)c(Cl)cc(CCC[100NH:0][100C:0](=O)N4CCCC(n5nc(-c6ccc(Oc7ccc(F)cc7F)cc6)c(C(N)=O)c5N)C4)c3C)ccc2CC1C(=O)NC1CCCc2ccccc21)C(C)(C)C

> <Shape>
0.237

> <Color>
0.206

> <Negative vol penalty>
0.000

$$$$

  -OEChem-04052316393D

 82 90  0     1  0  0  0  0  0999 V2000
  -20.1325  -27.7509   15.2041 C   0  0  0  0  0  0  0  0  0  0  0  0
  -21.0194  -26.7198   15.4968 C   0  0  0  0  0  0  0  0  0  0  0  0
  -23.0427   -9.9057   19.9212 C   0  0  0  0  0  0  0  0  0  0  0  0
  -23.8304   -9.8448   22.2044 C   0  0  0  0  0  0  0  0  0  0  0  0
  -20.3247  -29.0138   15.7626 C   0  0  0  0  0  0  0  0  0  0  0  0
  -22.0998  -26.9514   16.3474 C   0  0  0  0  0  0  0  0  0  0  0  0
  -24.5610  -23.0044   20.3311 C   0  0  0  0  0  0  0  0  0  0  0  0
  -22.3078   -8.7413   20.1437 C   0  0  0  0  0  0  0  0  0  0  0  0
  -23.0954   -8.6804   22.4269 C   0  0  0  0  0  0  0  0  0  0  0  0
  -25.6804  -22.1763   20.2611 C   0  0  0  0  0  0  0  0  0  0  0  0
  -23.3963   -5.3791   21.7619 C   0  0  0  0  0  0  0  0  0  0  0  0
  -24.0257   -4.3352   22.4398 C   0  0  0  0  0  0  0  0  0  0  0  0
  -26.9869  -23.8563   21.3968 C   0  0  0  0  0  0  0  0  0  0  0  0
  -31.5550  -18.4164   20.2100 C   0  0  0  0  0  0  0  0  0  0  0  0
  -22.3443   -4.4459   24.1713 C   0  0  0  0  0  0  0  0  0  0  0  0
  -23.8041  -10.4575   20.9516 C   0  0  0  0  0  0  0  0  0  0  0  0
  -24.1317  -12.9870   20.9069 C   0  0  0  0  0  0  0  0  0  0  0  0
  -21.4025  -29.2585   16.6282 C   0  0  0  0  0  0  0  0  0  0  0  0
  -24.6490  -24.2713   20.9259 C   0  0  0  0  0  0  0  0  0  0  0  0
  -22.3074  -28.2192   16.9170 C   0  0  0  0  0  0  0  0  0  0  0  0
  -25.8665  -24.6975   21.4755 C   0  0  0  0  0  0  0  0  0  0  0  0
  -31.3707  -19.4716   19.3166 C   0  0  0  0  0  0  0  0  0  0  0  0
  -30.5231  -18.0435   21.0713 C   0  0  0  0  0  0  0  0  0  0  0  0
  -30.1547  -20.1540   19.2846 C   0  0  0  0  0  0  0  0  0  0  0  0
  -29.1228  -19.7812   20.1459 C   0  0  0  0  0  0  0  0  0  0  0  0
  -22.3341   -8.1286   21.3965 C   0  0  0  0  0  0  0  0  0  0  0  0
  -26.8943  -22.6034   20.7914 C   0  0  0  0  0  0  0  0  0  0  0  0
  -22.2410   -5.9566   22.2887 C   0  0  0  0  0  0  0  0  0  0  0  0
  -23.4997   -3.8685   23.6445 C   0  0  0  0  0  0  0  0  0  0  0  0
  -21.7150   -5.4899   23.4933 C   0  0  0  0  0  0  0  0  0  0  0  0
  -29.3070  -18.7259   21.0393 C   0  0  0  0  0  0  0  0  0  0  0  0
  -24.5640  -11.6600   20.7222 C   0  0  0  0  0  0  0  0  0  0  0  0
  -25.2155  -13.7534   20.5543 C   0  0  0  0  0  0  0  0  0  0  0  0
  -22.8638  -13.4825   21.3571 C   0  0  0  0  0  0  0  0  0  0  0  0
  -24.2414  -27.2572   19.9149 C   0  0  0  0  0  0  0  0  0  0  0  0
  -24.6527  -27.9630   23.0542 C   0  0  0  0  0  0  0  0  0  0  0  0
  -25.9252  -27.0501   26.0864 C   0  0  0  0  0  0  0  0  0  0  0  0
  -30.6960  -14.7958   20.7088 C   0  0  0  0  0  0  0  0  0  0  0  0
  -21.5963  -30.6525   17.1703 C   0  0  0  0  0  0  0  0  0  0  0  0
  -23.4257  -25.1417   21.0174 C   0  0  0  0  0  0  0  0  0  0  0  0
  -26.0085  -26.0404   22.1427 C   0  0  0  0  0  0  0  0  0  0  0  0
  -22.5524  -30.7165   18.3586 C   0  0  0  0  0  0  0  0  0  0  0  0
  -29.5415  -12.4812   18.2621 C   0  0  0  0  0  0  0  0  0  0  0  0
  -23.8123  -29.9049   18.0744 C   0  0  0  0  0  0  0  0  0  0  0  0
  -28.1109  -12.1663   18.7027 C   0  0  0  0  0  0  0  0  0  0  0  0
  -30.4720  -12.6692   19.4582 C   0  0  0  0  0  0  0  0  0  0  0  0
  -28.5836  -13.3461   20.8898 C   0  0  0  0  0  0  0  0  0  0  0  0
  -23.4772  -28.4247   17.8549 C   0  0  1  0  0  0  0  0  0  0  0  0
  -23.7565  -26.6213   21.1870 C   0  0  1  0  0  0  0  0  0  0  0  0
  -27.5961  -13.2032   19.7191 C   0  0  2  0  0  0  0  0  0  0  0  0
  -32.4914  -19.8509   18.4053 C   0  0  0  0  0  0  0  0  0  0  0  0
  -29.9616  -21.2843   18.3234 C   0  0  0  0  0  0  0  0  0  0  0  0
  -26.1353  -27.8492   28.4559 C   0  0  0  0  0  0  0  0  0  0  0  0
  -26.8416  -29.9099   22.2008 C   0  0  0  0  0  0  0  0  0  0  0  0
  -27.6357  -29.9489   24.5749 C   0  0  0  0  0  0  0  0  0  0  0  0
  -25.3425  -30.7556   24.0151 C   0  0  0  0  0  0  0  0  0  0  0  0
  -24.4129  -24.7282   27.1260 C   0  0  0  0  0  0  0  0  0  0  0  0
  -30.7660  -16.9068   22.0118 C   0  0  0  0  0  0  0  0  0  0  0  0
  -27.8217  -20.5269   20.0956 C   0  0  0  0  0  0  0  0  0  1  0  0
  -25.8394  -28.2781   23.9325 C   0  0  1  0  0  0  0  0  0  0  0  0
  -25.3091  -27.0336   27.4737 C   0  0  2  0  0  0  0  0  0  0  0  0
  -26.4129  -29.6986   23.6666 C   0  0  0  0  0  0  0  0  0  0  0  0
  -25.8241  -11.5842   20.2860 N   0  0  0  0  0  0  0  0  0  0  0  0
  -26.1929  -12.8732   20.1935 N   0  0  0  0  0  0  0  0  0  0  0  0
  -24.7854  -26.8577   22.2017 N   0  0  0  0  0  0  0  0  0  0  0  0
  -29.9271  -13.6664   20.3826 N   0  0  0  0  0  0  0  0  0  0  0  0
  -25.4183  -15.0876   20.5207 N   0  0  0  0  0  0  0  0  0  0  0  0
  -21.8607  -12.5577   21.6777 N   0  0  0  0  0  0  0  0  0  0  0  0
  -23.2323  -27.7687   19.1214 N   0  0  0  0  0  0  0  0  0  0  0  0
  -25.4001  -28.0585   25.3063 N   0  0  0  0  0  0  0  0  0  0  0  0
  -30.1024  -15.6945   21.5868 N   0  0  0  0  0  0  0  0  0  0  0  0
  -25.2177  -25.6361   27.9833 N   0  3  0  0  0  0  0  0  0  0  0  0
  -22.6221  -14.7094   21.4559 O   0  0  0  0  0  0  0  0  0  0  0  0
  -25.4422  -27.2832   19.6720 O   0  0  0  0  0  0  0  0  0  0  0  0
  -23.6425  -28.6671   23.1270 O   0  0  0  0  0  0  0  0  0  0  0  0
  -26.7887  -26.2508   25.7315 O   0  0  0  0  0  0  0  0  0  0  0  0
  -31.8254  -14.9916   20.2473 O   0  0  0  0  0  0  0  0  0  0  0  0
  -21.6169   -6.9924   21.6141 O   0  0  0  0  0  0  0  0  0  0  0  0
  -27.9886  -21.7973   20.7237 O   0  0  0  0  0  0  0  0  0  1  0  0
  -24.1033   -2.8649   24.2946 F   0  0  0  0  0  0  0  0  0  0  0  0
  -20.6046   -6.0399   24.0038 F   0  0  0  0  0  0  0  0  0  0  0  0
  -28.0280  -18.2607   22.1112 Cl  0  0  0  0  0  0  0  0  0  0  0  0
  1  2  1  0  0  0  0
  1  5  2  0  0  0  0
  2  6  2  0  0  0  0
  3  8  2  0  0  0  0
  3 16  1  0  0  0  0
  4  9  1  0  0  0  0
  4 16  2  0  0  0  0
  5 18  1  0  0  0  0
  6 20  1  0  0  0  0
  7 10  2  0  0  0  0
  7 19  1  0  0  0  0
  8 26  1  0  0  0  0
  9 26  2  0  0  0  0
 10 27  1  0  0  0  0
 11 12  2  0  0  0  0
 11 28  1  0  0  0  0
 12 29  1  0  0  0  0
 13 21  1  0  0  0  0
 13 27  2  0  0  0  0
 14 22  1  0  0  0  0
 14 23  2  0  0  0  0
 15 29  2  0  0  0  0
 15 30  1  0  0  0  0
 16 32  1  0  0  0  0
 17 32  1  0  0  0  0
 17 33  2  0  0  0  0
 17 34  1  0  0  0  0
 18 20  2  0  0  0  0
 18 39  1  0  0  0  0
 19 21  2  0  0  0  0
 19 40  1  0  0  0  0
 20 48  1  0  0  0  0
 21 41  1  0  0  0  0
 22 24  2  0  0  0  0
 22 51  1  0  0  0  0
 23 31  1  0  0  0  0
 23 58  1  0  0  0  0
 24 25  1  0  0  0  0
 24 52  1  0  0  0  0
 25 31  2  0  0  0  0
 25 59  1  0  0  0  0
 26 78  1  0  0  0  0
 27 79  1  0  0  0  0
 28 30  2  0  0  0  0
 28 78  1  0  0  0  0
 29 80  1  0  0  0  0
 30 81  1  0  0  0  0
 31 82  1  0  0  0  0
 32 63  2  0  0  0  0
 33 64  1  0  0  0  0
 33 67  1  0  0  0  0
 34 68  1  0  0  0  0
 34 73  2  0  0  0  0
 35 49  1  0  0  0  0
 35 69  1  0  0  0  0
 35 74  2  0  0  0  0
 36 60  1  0  0  0  0
 36 65  1  0  0  0  0
 36 75  2  0  0  0  0
 37 61  1  0  0  0  0
 37 70  1  0  0  0  0
 37 76  2  0  0  0  0
 38 66  1  0  0  0  0
 38 71  1  0  0  0  0
 38 77  2  0  0  0  0
 39 42  1  0  0  0  0
 40 49  1  0  0  0  0
 41 65  1  0  0  0  0
 42 44  1  0  0  0  0
 43 45  1  0  0  0  0
 43 46  1  0  0  0  0
 44 48  1  0  0  0  0
 45 50  1  0  0  0  0
 46 66  1  0  0  0  0
 47 50  1  0  0  0  0
 47 66  1  0  0  0  0
 48 69  1  0  0  0  0
 49 65  1  0  0  0  0
 50 64  1  0  0  0  0
 53 61  1  0  0  0  0
 54 62  1  0  0  0  0
 55 62  1  0  0  0  0
 56 62  1  0  0  0  0
 57 72  1  0  0  0  0
 58 71  1  0  0  0  0
 59 79  1  0  0  0  0
 60 62  1  0  0  0  0
 60 70  1  0  0  0  0
 61 72  1  0  0  0  0
 63 64  1  0  0  0  0
M  CHG  1  72   1
M  ISO  4  38 100  59 101  71 100  79 101
M  END
> <Batch ID>
0030

> <Smiles>
CNC(C)C(=O)NC(C(=O)N1Cc2cc([101O:1][101CH2:1]c3c(C)c(C)cc(C[100NH:0][100C:0](=O)N4CCCC(n5nc(-c6ccc(Oc7ccc(F)cc7F)cc6)c(C(N)=O)c5N)C4)c3Cl)ccc2CC1C(=O)NC1CCCc2ccccc21)C(C)(C)C

> <Shape>
0.270

> <Color>
0.227

> <Negative vol penalty>
0.000

$$$$

  -OEChem-04052316393D

 85 94  0     1  0  0  0  0  0999 V2000
  -19.1939  -33.5717   25.1752 C   0  0  0  0  0  0  0  0  0  0  0  0
  -20.5068  -33.6002   24.7162 C   0  0  0  0  0  0  0  0  0  0  0  0
  -20.5739  -17.3149   18.8088 C   0  0  0  0  0  0  0  0  0  0  0  0
  -21.8873  -19.3403   18.7088 C   0  0  0  0  0  0  0  0  0  0  0  0
  -18.5401  -32.3512   25.3388 C   0  0  0  0  0  0  0  0  0  0  0  0
  -21.1672  -32.4079   24.4217 C   0  0  0  0  0  0  0  0  0  0  0  0
  -26.0780  -29.6997   19.9644 C   0  0  0  0  0  0  0  0  0  0  0  0
  -19.5194  -17.9671   18.1699 C   0  0  0  0  0  0  0  0  0  0  0  0
  -20.8328  -19.9925   18.0697 C   0  0  0  0  0  0  0  0  0  0  0  0
  -27.2689  -28.9752   19.9857 C   0  0  0  0  0  0  0  0  0  0  0  0
  -18.6975  -18.8789   15.0193 C   0  0  0  0  0  0  0  0  0  0  0  0
  -18.0525  -18.2059   13.9817 C   0  0  0  0  0  0  0  0  0  0  0  0
  -26.0133  -26.9301   20.2311 C   0  0  0  0  0  0  0  0  0  0  0  0
  -29.7678  -21.0881   19.5516 C   0  0  0  0  0  0  0  0  0  0  0  0
  -15.9697  -18.3229   15.2004 C   0  0  0  0  0  0  0  0  0  0  0  0
  -21.7578  -18.0015   19.0783 C   0  0  0  0  0  0  0  0  0  0  0  0
  -23.5397  -16.1882   19.2893 C   0  0  0  0  0  0  0  0  0  0  0  0
  -19.1896  -31.1438   25.0369 C   0  0  0  0  0  0  0  0  0  0  0  0
  -24.8441  -29.0448   20.0874 C   0  0  0  0  0  0  0  0  0  0  0  0
  -20.5220  -31.1700   24.5827 C   0  0  0  0  0  0  0  0  0  0  0  0
  -24.8080  -27.6483   20.2085 C   0  0  0  0  0  0  0  0  0  0  0  0
  -29.8604  -22.4751   19.3523 C   0  0  0  0  0  0  0  0  0  0  0  0
  -29.6245  -23.3466   20.4329 C   0  0  0  0  0  0  0  0  0  0  0  0
  -29.1941  -21.4270   21.8686 C   0  0  0  0  0  0  0  0  0  0  0  0
  -19.6488  -19.3059   17.8003 C   0  0  0  0  0  0  0  0  0  0  0  0
  -27.2369  -27.5904   20.1220 C   0  0  0  0  0  0  0  0  0  0  0  0
  -17.9786  -19.2738   16.1476 C   0  0  0  0  0  0  0  0  0  0  0  0
  -29.2909  -22.8062   21.6869 C   0  0  0  0  0  0  0  0  0  0  0  0
  -16.6887  -17.9279   14.0722 C   0  0  0  0  0  0  0  0  0  0  0  0
  -16.6147  -18.9958   16.2381 C   0  0  0  0  0  0  0  0  0  0  0  0
  -29.4318  -20.5680   20.8008 C   0  0  0  0  0  0  0  0  0  0  0  0
  -22.8472  -17.3285   19.7389 C   0  0  0  0  0  0  0  0  0  0  0  0
  -24.4746  -15.9469   20.2662 C   0  0  0  0  0  0  0  0  0  0  0  0
  -23.3545  -15.4162   18.0955 C   0  0  0  0  0  0  0  0  0  0  0  0
  -22.4587  -29.1302   22.1866 C   0  0  0  0  0  0  0  0  0  0  0  0
  -21.0169  -27.1719   20.0398 C   0  0  0  0  0  0  0  0  0  0  0  0
  -21.3441  -24.9190   17.4974 C   0  0  0  0  0  0  0  0  0  0  0  0
  -27.1349  -19.4591   24.3206 C   0  0  0  0  0  0  0  0  0  0  0  0
  -18.4578  -29.8467   25.2747 C   0  0  0  0  0  0  0  0  0  0  0  0
  -23.5673  -29.8381   20.0358 C   0  0  0  0  0  0  0  0  0  0  0  0
  -30.2813  -22.9824   17.9959 C   0  0  0  0  0  0  0  0  0  0  0  0
  -23.5086  -26.8956   20.3236 C   0  0  0  0  0  0  0  0  0  0  0  0
  -19.1026  -28.6480   24.5836 C   0  0  0  0  0  0  0  0  0  0  0  0
  -30.0190  -24.4712   17.7896 C   0  0  0  0  0  0  0  0  0  0  0  0
  -25.2237  -16.5232   24.9564 C   0  0  0  0  0  0  0  0  0  0  0  0
  -30.4709  -25.2666   19.0084 C   0  0  0  0  0  0  0  0  0  0  0  0
  -20.6098  -28.6436   24.8185 C   0  0  0  0  0  0  0  0  0  0  0  0
  -24.4604  -16.2938   23.6507 C   0  0  0  0  0  0  0  0  0  0  0  0
  -25.3657  -18.0103   25.2732 C   0  0  0  0  0  0  0  0  0  0  0  0
  -25.1903  -18.5914   22.8846 C   0  0  0  0  0  0  0  0  0  0  0  0
  -29.6983  -24.8540   20.2722 C   0  0  1  0  0  0  0  0  0  0  0  0
  -21.2637  -29.8992   24.2290 C   0  0  1  0  0  0  0  0  0  0  0  0
  -22.3897  -29.1181   20.6856 C   0  0  1  0  0  0  0  0  0  0  0  0
  -25.0702  -17.1084   22.4941 C   0  0  2  0  0  0  0  0  0  0  0  0
  -19.9875  -23.4620   15.9697 C   0  0  0  0  0  0  0  0  0  0  0  0
  -20.5399  -25.2161   22.3327 C   0  0  0  0  0  0  0  0  0  0  0  0
  -20.0706  -23.4421   20.6295 C   0  0  0  0  0  0  0  0  0  0  0  0
  -18.6149  -25.4640   20.7555 C   0  0  0  0  0  0  0  0  0  0  0  0
  -22.3604  -26.3018   15.0862 C   0  0  0  0  0  0  0  0  0  0  0  0
  -28.8380  -20.8898   23.2198 C   0  0  0  0  0  0  0  0  0  0  0  0
  -28.2912  -25.4650   20.2861 C   0  0  0  0  0  0  0  0  0  1  0  0
  -20.9567  -25.6786   19.8271 C   0  0  1  0  0  0  0  0  0  0  0  0
  -20.6563  -24.8161   16.1480 C   0  0  2  0  0  0  0  0  0  0  0  0
  -20.0703  -24.9643   20.8860 C   0  0  0  0  0  0  0  0  0  0  0  0
  -23.3032  -17.7802   20.9103 N   0  0  0  0  0  0  0  0  0  0  0  0
  -24.2921  -16.9193   21.2051 N   0  0  0  0  0  0  0  0  0  0  0  0
  -22.2874  -27.7165   20.2742 N   0  0  0  0  0  0  0  0  0  0  0  0
  -25.9515  -18.7251   24.1366 N   0  0  0  0  0  0  0  0  0  0  0  0
  -25.4266  -15.0000   20.4051 N   0  0  0  0  0  0  0  0  0  0  0  0
  -24.0726  -15.7782   16.9476 N   0  0  0  0  0  0  0  0  0  0  0  0
  -21.3967  -29.7732   22.7934 N   0  0  0  0  0  0  0  0  0  0  0  0
  -20.5194  -25.4798   18.4495 N   0  0  0  0  0  0  0  0  0  0  0  0
  -27.6262  -20.1013   23.1907 N   0  0  0  0  0  0  0  0  0  0  0  0
  -21.6443  -25.0008   15.0476 N   0  3  0  0  0  0  0  0  0  0  0  0
  -22.5629  -14.4445   18.0434 O   0  0  0  0  0  0  0  0  0  0  0  0
  -23.4046  -28.5946   22.7522 O   0  0  0  0  0  0  0  0  0  0  0  0
  -19.9758  -27.8319   19.9925 O   0  0  0  0  0  0  0  0  0  0  0  0
  -22.4964  -24.5365   17.6886 O   0  0  0  0  0  0  0  0  0  0  0  0
  -27.7138  -19.5320   25.4099 O   0  0  0  0  0  0  0  0  0  0  0  0
  -29.0736  -23.6291   22.7567 O   0  0  0  0  0  0  0  0  0  0  0  0
  -18.6202  -19.9426   17.1766 O   0  0  0  0  0  0  0  0  0  0  0  0
  -28.3979  -26.8809   20.1437 O   0  0  0  0  0  0  0  0  0  1  0  0
  -16.0691  -17.2830   13.0750 F   0  0  0  0  0  0  0  0  0  0  0  0
  -15.9185  -19.3738   17.3190 F   0  0  0  0  0  0  0  0  0  0  0  0
  -29.3292  -18.8543   20.9822 Cl  0  0  0  0  0  0  0  0  0  0  0  0
  1  2  1  0  0  0  0
  1  5  2  0  0  0  0
  2  6  2  0  0  0  0
  3  8  2  0  0  0  0
  3 16  1  0  0  0  0
  4  9  1  0  0  0  0
  4 16  2  0  0  0  0
  5 18  1  0  0  0  0
  6 20  1  0  0  0  0
  7 10  2  0  0  0  0
  7 19  1  0  0  0  0
  8 25  1  0  0  0  0
  9 25  2  0  0  0  0
 10 26  1  0  0  0  0
 11 12  2  0  0  0  0
 11 27  1  0  0  0  0
 12 29  1  0  0  0  0
 13 21  1  0  0  0  0
 13 26  2  0  0  0  0
 14 22  1  0  0  0  0
 14 31  2  0  0  0  0
 15 29  2  0  0  0  0
 15 30  1  0  0  0  0
 16 32  1  0  0  0  0
 17 32  1  0  0  0  0
 17 33  2  0  0  0  0
 17 34  1  0  0  0  0
 18 20  2  0  0  0  0
 18 39  1  0  0  0  0
 19 21  2  0  0  0  0
 19 40  1  0  0  0  0
 20 52  1  0  0  0  0
 21 42  1  0  0  0  0
 22 23  2  0  0  0  0
 22 41  1  0  0  0  0
 23 28  1  0  0  0  0
 23 51  1  0  0  0  0
 24 28  2  0  0  0  0
 24 31  1  0  0  0  0
 24 60  1  0  0  0  0
 25 81  1  0  0  0  0
 26 82  1  0  0  0  0
 27 30  2  0  0  0  0
 27 81  1  0  0  0  0
 28 80  1  0  0  0  0
 29 83  1  0  0  0  0
 30 84  1  0  0  0  0
 31 85  1  0  0  0  0
 32 65  2  0  0  0  0
 33 66  1  0  0  0  0
 33 69  1  0  0  0  0
 34 70  1  0  0  0  0
 34 75  2  0  0  0  0
 35 53  1  0  0  0  0
 35 71  1  0  0  0  0
 35 76  2  0  0  0  0
 36 62  1  0  0  0  0
 36 67  1  0  0  0  0
 36 77  2  0  0  0  0
 37 63  1  0  0  0  0
 37 72  1  0  0  0  0
 37 78  2  0  0  0  0
 38 68  1  0  0  0  0
 38 73  1  0  0  0  0
 38 79  2  0  0  0  0
 39 43  1  0  0  0  0
 40 53  1  0  0  0  0
 41 44  1  0  0  0  0
 42 67  1  0  0  0  0
 43 47  1  0  0  0  0
 44 46  1  0  0  0  0
 45 48  1  0  0  0  0
 45 49  1  0  0  0  0
 46 51  1  0  0  0  0
 47 52  1  0  0  0  0
 48 54  1  0  0  0  0
 49 68  1  0  0  0  0
 50 54  1  0  0  0  0
 50 68  1  0  0  0  0
 51 61  1  0  0  0  0
 52 71  1  0  0  0  0
 53 67  1  0  0  0  0
 54 66  1  0  0  0  0
 55 63  1  0  0  0  0
 56 64  1  0  0  0  0
 57 64  1  0  0  0  0
 58 64  1  0  0  0  0
 59 74  1  0  0  0  0
 60 73  1  0  0  0  0
 61 82  1  0  0  0  0
 62 64  1  0  0  0  0
 62 72  1  0  0  0  0
 63 74  1  0  0  0  0
 65 66  1  0  0  0  0
M  CHG  1  74   1
M  ISO  4  38 100  61 101  73 100  82 101
M  END
> <Batch ID>
0030

> <Smiles>
CNC(C)C(=O)NC(C(=O)N1Cc2cc([101O:1][101CH2:1]C3CCCc4cc(Cl)c(C[100NH:0][100C:0](=O)N5CCCC(n6nc(-c7ccc(Oc8ccc(F)cc8F)cc7)c(C(N)=O)c6N)C5)c(O)c43)ccc2CC1C(=O)NC1CCCc2ccccc21)C(C)(C)C

> <Shape>
0.166

> <Color>
0.103

> <Negative vol penalty>
0.000

$$$$

  -OEChem-04052316393D

 92101  0     1  0  0  0  0  0999 V2000
  -29.9028  -26.4009   16.3923 C   0  0  0  0  0  0  0  0  0  0  0  0
  -28.5182  -26.5080   16.4755 C   0  0  0  0  0  0  0  0  0  0  0  0
  -24.1628  -13.1391   20.1474 C   0  0  0  0  0  0  0  0  0  0  0  0
  -26.0883  -13.1013   21.6062 C   0  0  0  0  0  0  0  0  0  0  0  0
  -30.6873  -26.6243   17.5230 C   0  0  0  0  0  0  0  0  0  0  0  0
  -27.9172  -26.8375   17.6898 C   0  0  0  0  0  0  0  0  0  0  0  0
  -22.8687  -30.2073   18.5044 C   0  0  0  0  0  0  0  0  0  0  0  0
  -24.4507  -11.8384   19.7338 C   0  0  0  0  0  0  0  0  0  0  0  0
  -26.3761  -11.8006   21.1926 C   0  0  0  0  0  0  0  0  0  0  0  0
  -21.5365  -29.8621   18.7276 C   0  0  0  0  0  0  0  0  0  0  0  0
  -24.4714   -8.3967   18.5636 C   0  0  0  0  0  0  0  0  0  0  0  0
  -23.4134   -7.4910   18.4886 C   0  0  0  0  0  0  0  0  0  0  0  0
  -21.8734  -30.1220   21.1021 C   0  0  0  0  0  0  0  0  0  0  0  0
  -19.4636  -25.7561   20.7874 C   0  0  0  0  0  0  0  0  0  0  0  0
  -24.2049  -22.6715   25.2799 C   0  0  0  0  0  0  0  0  0  0  0  0
  -25.0130  -24.5098   23.9366 C   0  0  0  0  0  0  0  0  0  0  0  0
  -19.1803  -26.4724   23.4687 C   0  0  0  0  0  0  0  0  0  0  0  0
  -22.9883   -7.7923   20.8478 C   0  0  0  0  0  0  0  0  0  0  0  0
  -24.9817  -13.7705   21.0836 C   0  0  0  0  0  0  0  0  0  0  0  0
  -23.8731  -15.5025   22.5931 C   0  0  0  0  0  0  0  0  0  0  0  0
  -30.0962  -26.9662   18.7496 C   0  0  0  0  0  0  0  0  0  0  0  0
  -23.7176  -30.5023   19.5809 C   0  0  0  0  0  0  0  0  0  0  0  0
  -28.6945  -27.0644   18.8384 C   0  0  0  0  0  0  0  0  0  0  0  0
  -23.2153  -30.4731   20.8897 C   0  0  0  0  0  0  0  0  0  0  0  0
  -20.0527  -24.9773   21.7833 C   0  0  0  0  0  0  0  0  0  0  0  0
  -18.7328  -26.8932   21.1321 C   0  0  0  0  0  0  0  0  0  0  0  0
  -25.2254  -23.2713   24.5421 C   0  0  0  0  0  0  0  0  0  0  0  0
  -22.7595  -24.5488   24.8068 C   0  0  0  0  0  0  0  0  0  0  0  0
  -25.5573  -11.1692   20.2564 C   0  0  0  0  0  0  0  0  0  0  0  0
  -21.0394  -29.8166   20.0268 C   0  0  0  0  0  0  0  0  0  0  0  0
  -24.7880   -9.0003   19.7806 C   0  0  0  0  0  0  0  0  0  0  0  0
  -19.9111  -25.3354   23.1239 C   0  0  0  0  0  0  0  0  0  0  0  0
  -22.6718   -7.1887   19.6307 C   0  0  0  0  0  0  0  0  0  0  0  0
  -24.0465   -8.6980   20.9227 C   0  0  0  0  0  0  0  0  0  0  0  0
  -22.9719  -23.3102   25.4123 C   0  0  0  0  0  0  0  0  0  0  0  0
  -23.7800  -25.1486   24.0690 C   0  0  0  0  0  0  0  0  0  0  0  0
  -18.5911  -27.2513   22.4727 C   0  0  0  0  0  0  0  0  0  0  0  0
  -24.6852  -15.1143   21.5108 C   0  0  0  0  0  0  0  0  0  0  0  0
  -23.9131  -16.8753   22.5773 C   0  0  0  0  0  0  0  0  0  0  0  0
  -23.1474  -14.6945   23.5292 C   0  0  0  0  0  0  0  0  0  0  0  0
  -26.3876  -29.2305   20.7460 C   0  0  0  0  0  0  0  0  0  0  0  0
  -26.3036  -31.8168   22.7022 C   0  0  0  0  0  0  0  0  0  0  0  0
  -24.4464  -34.2548   24.2035 C   0  0  0  0  0  0  0  0  0  0  0  0
  -26.7536  -21.6563   22.1094 C   0  0  0  0  0  0  0  0  0  0  0  0
  -30.9824  -27.1520   19.9557 C   0  0  0  0  0  0  0  0  0  0  0  0
  -25.1451  -30.8988   19.3216 C   0  0  0  0  0  0  0  0  0  0  0  0
  -24.0800  -30.8009   22.0785 C   0  0  0  0  0  0  0  0  0  0  0  0
  -30.2912  -27.8641   21.1156 C   0  0  0  0  0  0  0  0  0  0  0  0
  -25.7057  -20.0768   19.0954 C   0  0  0  0  0  0  0  0  0  0  0  0
  -28.9085  -27.2683   21.3600 C   0  0  0  0  0  0  0  0  0  0  0  0
  -25.2860  -18.6757   19.5435 C   0  0  0  0  0  0  0  0  0  0  0  0
  -26.9125  -20.5832   19.8824 C   0  0  0  0  0  0  0  0  0  0  0  0
  -26.3376  -19.1413   21.7966 C   0  0  0  0  0  0  0  0  0  0  0  0
  -28.0070  -27.4441   20.1320 C   0  0  1  0  0  0  0  0  0  0  0  0
  -26.0546  -30.6792   20.5265 C   0  0  1  0  0  0  0  0  0  0  0  0
  -25.0898  -18.6105   21.0701 C   0  0  2  0  0  0  0  0  0  0  0  0
  -20.8328  -23.7646   21.3964 C   0  0  0  0  0  0  0  0  0  0  0  0
  -24.6509  -36.1996   25.7761 C   0  0  0  0  0  0  0  0  0  0  0  0
  -26.5239  -29.8874   25.0557 C   0  0  0  0  0  0  0  0  0  0  0  0
  -25.7764  -31.7451   26.5586 C   0  0  0  0  0  0  0  0  0  0  0  0
  -27.9040  -31.9616   25.2743 C   0  0  0  0  0  0  0  0  0  0  0  0
  -23.4907  -36.1626   22.1527 C   0  0  0  0  0  0  0  0  0  0  0  0
  -18.1113  -27.7098   20.0252 C   0  0  0  0  0  0  0  0  0  0  0  0
  -26.5434  -22.5880   24.4000 C   0  0  0  0  0  0  0  0  0  0  0  0
  -21.4330  -25.2356   24.9487 C   0  0  0  0  0  0  0  0  0  0  0  0
  -19.1313  -28.5904   19.3116 C   0  0  0  0  0  0  0  0  0  1  0  0
  -25.6968  -32.1175   24.0514 C   0  0  1  0  0  0  0  0  0  0  0  0
  -24.6586  -35.7532   24.3223 C   0  0  2  0  0  0  0  0  0  0  0  0
  -26.4592  -31.4198   25.2129 C   0  0  0  0  0  0  0  0  0  0  0  0
  -25.2032  -16.1563   20.8550 N   0  0  0  0  0  0  0  0  0  0  0  0
  -24.7152  -17.2128   21.5271 N   0  0  0  0  0  0  0  0  0  0  0  0
  -25.4705  -31.1767   21.7737 N   0  0  0  0  0  0  0  0  0  0  0  0
  -26.6611  -20.4962   21.3229 N   0  0  0  0  0  0  0  0  0  0  0  0
  -23.3399  -17.8147   23.3593 N   0  0  0  0  0  0  0  0  0  0  0  0
  -23.2156  -13.3004   23.4019 N   0  0  0  0  0  0  0  0  0  0  0  0
  -27.5083  -28.8009   20.0612 N   0  0  0  0  0  0  0  0  0  0  0  0
  -25.6432  -33.5714   24.1600 N   0  0  0  0  0  0  0  0  0  0  0  0
  -26.4939  -21.4871   23.4639 N   0  0  0  0  0  0  0  0  0  0  0  0
  -23.5820  -36.4877   23.5994 N   0  3  0  0  0  0  0  0  0  0  0  0
  -22.4459  -15.1942   24.4411 O   0  0  0  0  0  0  0  0  0  0  0  0
  -25.6810  -28.5532   21.4833 O   0  0  0  0  0  0  0  0  0  0  0  0
  -27.4715  -32.1443   22.4779 O   0  0  0  0  0  0  0  0  0  0  0  0
  -23.3306  -33.7415   24.1578 O   0  0  0  0  0  0  0  0  0  0  0  0
  -27.0408  -22.7621   21.6384 O   0  0  0  0  0  0  0  0  0  0  0  0
  -25.8383   -9.8999   19.8532 O   0  0  0  0  0  0  0  0  0  0  0  0
  -20.4804  -24.5861   24.1092 O   0  0  0  0  0  0  0  0  0  0  0  0
  -19.7396  -29.4794   20.2476 O   0  0  0  0  0  0  0  0  0  1  0  0
  -21.6548   -6.3201   19.5583 F   0  0  0  0  0  0  0  0  0  0  0  0
  -24.3451   -9.2756   22.0945 F   0  0  0  0  0  0  0  0  0  0  0  0
  -21.7361  -22.5320   26.3342 Cl  0  0  0  0  0  0  0  0  0  0  0  0
  -23.5597  -26.6803   23.3023 Cl  0  0  0  0  0  0  0  0  0  0  0  0
  -17.6947  -28.6513   22.9373 Cl  0  0  0  0  0  0  0  0  0  0  0  0
  1  2  1  0  0  0  0
  1  5  2  0  0  0  0
  2  6  2  0  0  0  0
  3  8  2  0  0  0  0
  3 19  1  0  0  0  0
  4  9  1  0  0  0  0
  4 19  2  0  0  0  0
  5 21  1  0  0  0  0
  6 23  1  0  0  0  0
  7 10  2  0  0  0  0
  7 22  1  0  0  0  0
  8 29  1  0  0  0  0
  9 29  2  0  0  0  0
 10 30  1  0  0  0  0
 11 12  2  0  0  0  0
 11 31  1  0  0  0  0
 12 33  1  0  0  0  0
 13 24  1  0  0  0  0
 13 30  2  0  0  0  0
 14 25  2  0  0  0  0
 14 26  1  0  0  0  0
 15 27  1  0  0  0  0
 15 35  2  0  0  0  0
 16 27  2  0  0  0  0
 16 36  1  0  0  0  0
 17 32  2  0  0  0  0
 17 37  1  0  0  0  0
 18 33  2  0  0  0  0
 18 34  1  0  0  0  0
 19 38  1  0  0  0  0
 20 38  1  0  0  0  0
 20 39  2  0  0  0  0
 20 40  1  0  0  0  0
 21 23  2  0  0  0  0
 21 45  1  0  0  0  0
 22 24  2  0  0  0  0
 22 46  1  0  0  0  0
 23 54  1  0  0  0  0
 24 47  1  0  0  0  0
 25 32  1  0  0  0  0
 25 57  1  0  0  0  0
 26 37  2  0  0  0  0
 26 63  1  0  0  0  0
 27 64  1  0  0  0  0
 28 35  1  0  0  0  0
 28 36  2  0  0  0  0
 28 65  1  0  0  0  0
 29 85  1  0  0  0  0
 30 87  1  0  0  0  0
 31 34  2  0  0  0  0
 31 85  1  0  0  0  0
 32 86  1  0  0  0  0
 33 88  1  0  0  0  0
 34 89  1  0  0  0  0
 35 90  1  0  0  0  0
 36 91  1  0  0  0  0
 37 92  1  0  0  0  0
 38 70  2  0  0  0  0
 39 71  1  0  0  0  0
 39 74  1  0  0  0  0
 40 75  1  0  0  0  0
 40 80  2  0  0  0  0
 41 55  1  0  0  0  0
 41 76  1  0  0  0  0
 41 81  2  0  0  0  0
 42 67  1  0  0  0  0
 42 72  1  0  0  0  0
 42 82  2  0  0  0  0
 43 68  1  0  0  0  0
 43 77  1  0  0  0  0
 43 83  2  0  0  0  0
 44 73  1  0  0  0  0
 44 78  1  0  0  0  0
 44 84  2  0  0  0  0
 45 48  1  0  0  0  0
 46 55  1  0  0  0  0
 47 72  1  0  0  0  0
 48 50  1  0  0  0  0
 49 51  1  0  0  0  0
 49 52  1  0  0  0  0
 50 54  1  0  0  0  0
 51 56  1  0  0  0  0
 52 73  1  0  0  0  0
 53 56  1  0  0  0  0
 53 73  1  0  0  0  0
 54 76  1  0  0  0  0
 55 72  1  0  0  0  0
 56 71  1  0  0  0  0
 58 68  1  0  0  0  0
 59 69  1  0  0  0  0
 60 69  1  0  0  0  0
 61 69  1  0  0  0  0
 62 79  1  0  0  0  0
 63 66  1  0  0  0  0
 64 78  1  0  0  0  0
 65 86  1  0  0  0  0
 66 87  1  0  0  0  0
 67 69  1  0  0  0  0
 67 77  1  0  0  0  0
 68 79  1  0  0  0  0
 70 71  1  0  0  0  0
M  CHG  1  79   1
M  ISO  4  44 100  66 101  78 100  87 101
M  END
> <Batch ID>
0030

> <Smiles>
CNC(C)C(=O)NC(C(=O)N1Cc2cc([101O:1][101CH2:1]Cc3cc(C)c(OCc4c(Cl)cc(C[100NH:0][100C:0](=O)N5CCCC(n6nc(-c7ccc(Oc8ccc(F)cc8F)cc7)c(C(N)=O)c6N)C5)cc4Cl)cc3Cl)ccc2CC1C(=O)NC1CCCc2ccccc21)C(C)(C)C

> <Shape>
0.270

> <Color>
0.076

> <Negative vol penalty>
0.000

$$$$

  -OEChem-04052316393D

 86 94  0     1  0  0  0  0  0999 V2000
  -29.4228  -34.5767   29.8313 C   0  0  0  0  0  0  0  0  0  0  0  0
  -28.9241  -33.2814   29.9253 C   0  0  0  0  0  0  0  0  0  0  0  0
  -23.0044   -9.8741   20.0023 C   0  0  0  0  0  0  0  0  0  0  0  0
  -23.7180   -9.9679   22.3086 C   0  0  0  0  0  0  0  0  0  0  0  0
  -29.5222  -35.1954   28.5858 C   0  0  0  0  0  0  0  0  0  0  0  0
  -28.5235  -32.6044   28.7739 C   0  0  0  0  0  0  0  0  0  0  0  0
  -29.0297  -26.6021   27.6683 C   0  0  0  0  0  0  0  0  0  0  0  0
  -22.2393   -8.7426   20.2851 C   0  0  0  0  0  0  0  0  0  0  0  0
  -22.9529   -8.8364   22.5914 C   0  0  0  0  0  0  0  0  0  0  0  0
  -28.1213  -25.5495   27.7712 C   0  0  0  0  0  0  0  0  0  0  0  0
  -23.2076   -5.4903   22.1802 C   0  0  0  0  0  0  0  0  0  0  0  0
  -23.7939   -4.4881   22.9532 C   0  0  0  0  0  0  0  0  0  0  0  0
  -27.6248  -25.7560   25.4196 C   0  0  0  0  0  0  0  0  0  0  0  0
  -27.5415  -17.8574   22.5190 C   0  0  0  0  0  0  0  0  0  0  0  0
  -22.0611   -4.7565   24.6154 C   0  0  0  0  0  0  0  0  0  0  0  0
  -23.7438  -10.4868   21.0141 C   0  0  0  0  0  0  0  0  0  0  0  0
  -24.1238  -12.9998   20.7952 C   0  0  0  0  0  0  0  0  0  0  0  0
  -29.1317  -34.5222   27.4175 C   0  0  0  0  0  0  0  0  0  0  0  0
  -29.2348  -27.2478   26.4405 C   0  0  0  0  0  0  0  0  0  0  0  0
  -28.6166  -33.2152   27.5118 C   0  0  0  0  0  0  0  0  0  0  0  0
  -28.5382  -26.8149   25.3032 C   0  0  0  0  0  0  0  0  0  0  0  0
  -26.8780  -18.2456   23.6776 C   0  0  0  0  0  0  0  0  0  0  0  0
  -28.3582  -18.7657   21.8547 C   0  0  0  0  0  0  0  0  0  0  0  0
  -22.2135   -8.2238   21.5796 C   0  0  0  0  0  0  0  0  0  0  0  0
  -27.4165  -25.1282   26.6474 C   0  0  0  0  0  0  0  0  0  0  0  0
  -22.0481   -6.1256   22.6248 C   0  0  0  0  0  0  0  0  0  0  0  0
  -23.2207   -4.1212   24.1708 C   0  0  0  0  0  0  0  0  0  0  0  0
  -21.4749   -5.7587   23.8424 C   0  0  0  0  0  0  0  0  0  0  0  0
  -24.5348  -11.6553   20.7226 C   0  0  0  0  0  0  0  0  0  0  0  0
  -27.0630  -19.5431   24.1271 C   0  0  0  0  0  0  0  0  0  0  0  0
  -28.4768  -20.0400   22.3857 C   0  0  0  0  0  0  0  0  0  0  0  0
  -25.2336  -13.7186   20.4235 C   0  0  0  0  0  0  0  0  0  0  0  0
  -22.8527  -13.5498   21.1657 C   0  0  0  0  0  0  0  0  0  0  0  0
  -28.8247  -30.2122   25.3690 C   0  0  0  0  0  0  0  0  0  0  0  0
  -30.2664  -29.0350   22.7124 C   0  0  0  0  0  0  0  0  0  0  0  0
  -31.0306  -26.3184   20.7933 C   0  0  0  0  0  0  0  0  0  0  0  0
  -30.7264  -14.6713   20.6824 C   0  0  0  0  0  0  0  0  0  0  0  0
  -29.2135  -35.2494   26.0988 C   0  0  0  0  0  0  0  0  0  0  0  0
  -30.2379  -28.3641   26.3403 C   0  0  0  0  0  0  0  0  0  0  0  0
  -28.7371  -27.4615   23.9576 C   0  0  0  0  0  0  0  0  0  0  0  0
  -29.1181  -34.3260   24.8870 C   0  0  0  0  0  0  0  0  0  0  0  0
  -29.6033  -12.2034   18.3748 C   0  0  0  0  0  0  0  0  0  0  0  0
  -27.9707  -33.3358   25.0594 C   0  0  0  0  0  0  0  0  0  0  0  0
  -28.1534  -11.9475   18.7899 C   0  0  0  0  0  0  0  0  0  0  0  0
  -30.4991  -12.4625   19.5841 C   0  0  0  0  0  0  0  0  0  0  0  0
  -28.5804  -13.2769   20.8991 C   0  0  0  0  0  0  0  0  0  0  0  0
  -28.1950  -32.4391   26.2830 C   0  0  1  0  0  0  0  0  0  0  0  0
  -29.9883  -29.2868   25.1514 C   0  0  1  0  0  0  0  0  0  0  0  0
  -27.6278  -13.0657   19.7099 C   0  0  2  0  0  0  0  0  0  0  0  0
  -26.0013  -17.2772   24.3934 C   0  0  0  0  0  0  0  0  0  0  0  0
  -32.1864  -25.6754   18.6607 C   0  0  0  0  0  0  0  0  0  0  0  0
  -27.8877  -30.0784   21.1114 C   0  0  0  0  0  0  0  0  0  0  0  0
  -28.6109  -28.6132   19.2144 C   0  0  0  0  0  0  0  0  0  0  0  0
  -30.1124  -30.4328   20.0252 C   0  0  0  0  0  0  0  0  0  0  0  0
  -32.9857  -24.6223   22.2283 C   0  0  0  0  0  0  0  0  0  0  0  0
  -29.0673  -18.3451   20.6129 C   0  0  0  0  0  0  0  0  0  0  0  0
  -26.3680  -20.0198   25.3775 C   0  0  0  0  0  0  0  0  0  0  0  0
  -30.5533  -17.9873   20.8157 C   0  0  0  0  0  0  0  0  0  0  0  0
  -26.9181  -21.3410   25.9263 C   0  0  0  0  0  0  0  0  0  0  0  0
  -26.2535  -21.7684   27.2356 C   0  0  0  0  0  0  0  0  0  0  0  0
  -30.7980  -16.8712   21.8289 C   0  0  0  0  0  0  0  0  0  0  0  0
  -26.7966  -23.1027   27.7287 C   0  0  0  0  0  0  0  0  0  1  0  0
  -29.7909  -28.3660   21.4454 C   0  0  1  0  0  0  0  0  0  0  0  0
  -32.3349  -25.8657   20.1622 C   0  0  2  0  0  0  0  0  0  0  0  0
  -29.0951  -29.3614   20.4747 C   0  0  0  0  0  0  0  0  0  0  0  0
  -25.8063  -11.5250   20.3349 N   0  0  0  0  0  0  0  0  0  0  0  0
  -27.8481  -20.4536   23.5088 N   0  0  0  0  0  0  0  0  0  0  0  0
  -26.2039  -12.7968   20.1606 N   0  0  0  0  0  0  0  0  0  0  0  0
  -29.7241  -28.5529   23.9121 N   0  0  0  0  0  0  0  0  0  0  0  0
  -29.9455  -13.5349   20.4145 N   0  0  0  0  0  0  0  0  0  0  0  0
  -25.4644  -15.0428   20.2990 N   0  0  0  0  0  0  0  0  0  0  0  0
  -21.8213  -12.6693   21.5199 N   0  0  0  0  0  0  0  0  0  0  0  0
  -29.1609  -31.4045   25.9811 N   0  0  0  0  0  0  0  0  0  0  0  0
  -30.9541  -27.6925   20.8780 N   0  0  0  0  0  0  0  0  0  0  0  0
  -30.1237  -15.6428   21.4720 N   0  0  0  0  0  0  0  0  0  0  0  0
  -32.7776  -24.5735   20.7582 N   0  3  0  0  0  0  0  0  0  0  0  0
  -22.6328  -14.7848   21.1664 O   0  0  0  0  0  0  0  0  0  0  0  0
  -27.7049  -29.8704   25.0071 O   0  0  0  0  0  0  0  0  0  0  0  0
  -31.0941  -29.9469   22.6407 O   0  0  0  0  0  0  0  0  0  0  0  0
  -30.1644  -25.5319   21.1697 O   0  0  0  0  0  0  0  0  0  0  0  0
  -31.8737  -14.8122   20.2454 O   0  0  0  0  0  0  0  0  0  0  0  0
  -21.4668   -7.1198   21.8559 O   0  0  0  0  0  0  0  0  0  0  0  0
  -26.5288  -24.1015   26.7453 O   0  0  0  0  0  0  0  0  0  1  0  0
  -23.7829   -3.1577   24.9122 F   0  0  0  0  0  0  0  0  0  0  0  0
  -20.3603   -6.3646   24.2741 F   0  0  0  0  0  0  0  0  0  0  0  0
  -29.4554  -21.2517   21.6559 Cl  0  0  0  0  0  0  0  0  0  0  0  0
  1  2  1  0  0  0  0
  1  5  2  0  0  0  0
  2  6  2  0  0  0  0
  3  8  2  0  0  0  0
  3 16  1  0  0  0  0
  4  9  1  0  0  0  0
  4 16  2  0  0  0  0
  5 18  1  0  0  0  0
  6 20  1  0  0  0  0
  7 10  2  0  0  0  0
  7 19  1  0  0  0  0
  8 24  1  0  0  0  0
  9 24  2  0  0  0  0
 10 25  1  0  0  0  0
 11 12  2  0  0  0  0
 11 26  1  0  0  0  0
 12 27  1  0  0  0  0
 13 21  1  0  0  0  0
 13 25  2  0  0  0  0
 14 22  1  0  0  0  0
 14 23  2  0  0  0  0
 15 27  2  0  0  0  0
 15 28  1  0  0  0  0
 16 29  1  0  0  0  0
 17 29  1  0  0  0  0
 17 32  2  0  0  0  0
 17 33  1  0  0  0  0
 18 20  2  0  0  0  0
 18 38  1  0  0  0  0
 19 21  2  0  0  0  0
 19 39  1  0  0  0  0
 20 47  1  0  0  0  0
 21 40  1  0  0  0  0
 22 30  2  0  0  0  0
 22 50  1  0  0  0  0
 23 31  1  0  0  0  0
 23 56  1  0  0  0  0
 24 82  1  0  0  0  0
 25 83  1  0  0  0  0
 26 28  2  0  0  0  0
 26 82  1  0  0  0  0
 27 84  1  0  0  0  0
 28 85  1  0  0  0  0
 29 66  2  0  0  0  0
 30 57  1  0  0  0  0
 30 67  1  0  0  0  0
 31 67  2  0  0  0  0
 31 86  1  0  0  0  0
 32 68  1  0  0  0  0
 32 71  1  0  0  0  0
 33 72  1  0  0  0  0
 33 77  2  0  0  0  0
 34 48  1  0  0  0  0
 34 73  1  0  0  0  0
 34 78  2  0  0  0  0
 35 63  1  0  0  0  0
 35 69  1  0  0  0  0
 35 79  2  0  0  0  0
 36 64  1  0  0  0  0
 36 74  1  0  0  0  0
 36 80  2  0  0  0  0
 37 70  1  0  0  0  0
 37 75  1  0  0  0  0
 37 81  2  0  0  0  0
 38 41  1  0  0  0  0
 39 48  1  0  0  0  0
 40 69  1  0  0  0  0
 41 43  1  0  0  0  0
 42 44  1  0  0  0  0
 42 45  1  0  0  0  0
 43 47  1  0  0  0  0
 44 49  1  0  0  0  0
 45 70  1  0  0  0  0
 46 49  1  0  0  0  0
 46 70  1  0  0  0  0
 47 73  1  0  0  0  0
 48 69  1  0  0  0  0
 49 68  1  0  0  0  0
 51 64  1  0  0  0  0
 52 65  1  0  0  0  0
 53 65  1  0  0  0  0
 54 65  1  0  0  0  0
 55 76  1  0  0  0  0
 56 58  1  0  0  0  0
 57 59  1  0  0  0  0
 58 61  1  0  0  0  0
 59 60  1  0  0  0  0
 60 62  1  0  0  0  0
 61 75  1  0  0  0  0
 62 83  1  0  0  0  0
 63 65  1  0  0  0  0
 63 74  1  0  0  0  0
 64 76  1  0  0  0  0
 66 68  1  0  0  0  0
M  CHG  1  76   1
M  ISO  4  37 100  62 101  75 100  83 101
M  END
> <Batch ID>
0030

> <Smiles>
CNC(C)C(=O)NC(C(=O)N1Cc2cc([101O:1][101CH2:1]CCCc3nc(Cl)c(CCC[100NH:0][100C:0](=O)N4CCCC(n5nc(-c6ccc(Oc7ccc(F)cc7F)cc6)c(C(N)=O)c5N)C4)cc3C)ccc2CC1C(=O)NC1CCCc2ccccc21)C(C)(C)C

> <Shape>
0.253

> <Color>
0.202

> <Negative vol penalty>
0.000

$$$$

  -OEChem-04052316393D

 82 90  0     1  0  0  0  0  0999 V2000
  -27.8696  -21.6548   28.0594 C   0  0  0  0  0  0  0  0  0  0  0  0
  -28.0144  -22.1024   26.7502 C   0  0  0  0  0  0  0  0  0  0  0  0
  -25.0552  -12.8808   21.8115 C   0  0  0  0  0  0  0  0  0  0  0  0
  -25.7921  -13.2154   19.5351 C   0  0  0  0  0  0  0  0  0  0  0  0
  -26.6113  -21.6552   28.6599 C   0  0  0  0  0  0  0  0  0  0  0  0
  -26.9006  -22.5496   26.0402 C   0  0  0  0  0  0  0  0  0  0  0  0
  -27.8015  -26.8478   23.5186 C   0  0  0  0  0  0  0  0  0  0  0  0
  -24.3750  -11.7271   21.4218 C   0  0  0  0  0  0  0  0  0  0  0  0
  -25.1119  -12.0617   19.1454 C   0  0  0  0  0  0  0  0  0  0  0  0
  -28.5137  -26.7480   22.3242 C   0  0  0  0  0  0  0  0  0  0  0  0
  -25.1310   -8.5076   20.7177 C   0  0  0  0  0  0  0  0  0  0  0  0
  -25.2646   -7.3741   21.5196 C   0  0  0  0  0  0  0  0  0  0  0  0
  -26.4475  -26.8895   21.0873 C   0  0  0  0  0  0  0  0  0  0  0  0
  -29.3875  -23.2162   19.0841 C   0  0  0  0  0  0  0  0  0  0  0  0
  -30.9890  -21.4504   19.4765 C   0  0  0  0  0  0  0  0  0  0  0  0
  -22.8781   -7.3592   21.8962 C   0  0  0  0  0  0  0  0  0  0  0  0
  -25.7638  -13.6250   20.8682 C   0  0  0  0  0  0  0  0  0  0  0  0
  -27.7987  -14.9095   21.7148 C   0  0  0  0  0  0  0  0  0  0  0  0
  -25.4832  -22.1117   27.9603 C   0  0  0  0  0  0  0  0  0  0  0  0
  -26.4036  -26.9584   23.5066 C   0  0  0  0  0  0  0  0  0  0  0  0
  -25.6258  -22.5548   26.6315 C   0  0  0  0  0  0  0  0  0  0  0  0
  -25.7201  -26.9931   22.2828 C   0  0  0  0  0  0  0  0  0  0  0  0
  -30.3579  -23.9432   18.3946 C   0  0  0  0  0  0  0  0  0  0  0  0
  -31.6438  -23.4237   18.2460 C   0  0  0  0  0  0  0  0  0  0  0  0
  -29.7031  -21.9698   19.6251 C   0  0  0  0  0  0  0  0  0  0  0  0
  -24.4033  -11.3176   20.0887 C   0  0  0  0  0  0  0  0  0  0  0  0
  -27.8365  -26.7659   21.1084 C   0  0  0  0  0  0  0  0  0  0  0  0
  -23.8709   -9.0669   20.5051 C   0  0  0  0  0  0  0  0  0  0  0  0
  -24.1382   -6.7999   22.1088 C   0  0  0  0  0  0  0  0  0  0  0  0
  -31.9594  -22.1773   18.7869 C   0  0  0  0  0  0  0  0  0  0  0  0
  -22.7445   -8.4927   21.0943 C   0  0  0  0  0  0  0  0  0  0  0  0
  -26.4662  -14.8171   21.2701 C   0  0  0  0  0  0  0  0  0  0  0  0
  -27.9834  -16.2464   21.9702 C   0  0  0  0  0  0  0  0  0  0  0  0
  -28.7815  -13.8792   21.8820 C   0  0  0  0  0  0  0  0  0  0  0  0
  -24.0042  -25.1933   24.6162 C   0  0  0  0  0  0  0  0  0  0  0  0
  -22.2104  -27.7075   23.6245 C   0  0  0  0  0  0  0  0  0  0  0  0
  -21.8991  -30.4112   21.5654 C   0  0  0  0  0  0  0  0  0  0  0  0
  -27.3941  -21.6012   20.5627 C   0  0  0  0  0  0  0  0  0  0  0  0
  -24.1359  -22.0488   28.6352 C   0  0  0  0  0  0  0  0  0  0  0  0
  -25.6522  -27.0921   24.8028 C   0  0  0  0  0  0  0  0  0  0  0  0
  -24.2218  -27.1306   22.2149 C   0  0  0  0  0  0  0  0  0  0  0  0
  -23.0674  -22.8900   27.9417 C   0  0  0  0  0  0  0  0  0  0  0  0
  -24.6476  -20.0459   22.2104 C   0  0  0  0  0  0  0  0  0  0  0  0
  -23.0965  -22.6536   26.4350 C   0  0  0  0  0  0  0  0  0  0  0  0
  -24.9855  -18.5545   22.1492 C   0  0  0  0  0  0  0  0  0  0  0  0
  -25.0802  -20.7779   20.9412 C   0  0  0  0  0  0  0  0  0  0  0  0
  -26.8237  -19.0940   20.5009 C   0  0  0  0  0  0  0  0  0  0  0  0
  -24.4456  -23.0708   25.8371 C   0  0  1  0  0  0  0  0  0  0  0  0
  -24.1870  -26.6830   24.6890 C   0  0  1  0  0  0  0  0  0  0  0  0
  -26.4654  -18.3265   21.7839 C   0  0  2  0  0  0  0  0  0  0  0  0
  -32.6968  -24.1857   17.5102 C   0  0  0  0  0  0  0  0  0  0  0  0
  -20.3042  -32.2505   20.9568 C   0  0  0  0  0  0  0  0  0  0  0  0
  -20.5276  -25.7193   22.0354 C   0  0  0  0  0  0  0  0  0  0  0  0
  -19.5959  -27.6491   20.7408 C   0  0  0  0  0  0  0  0  0  0  0  0
  -19.2144  -27.4998   23.2015 C   0  0  0  0  0  0  0  0  0  0  0  0
  -23.8148  -32.5066   22.4012 C   0  0  0  0  0  0  0  0  0  0  0  0
  -29.9932  -25.2879   17.8181 C   0  0  0  0  0  0  0  0  0  0  0  0
  -30.5277  -26.4708   18.6284 C   0  0  0  0  0  0  0  0  0  0  0  0
  -29.9481  -26.5496   20.0360 C   0  0  0  0  0  0  0  0  0  1  0  0
  -21.5173  -28.0847   22.3375 C   0  0  1  0  0  0  0  0  0  0  0  0
  -21.4734  -31.8423   21.8394 C   0  0  2  0  0  0  0  0  0  0  0  0
  -20.2419  -27.2337   22.0798 C   0  0  0  0  0  0  0  0  0  0  0  0
  -25.8482  -16.0009   21.2435 N   0  0  0  0  0  0  0  0  0  0  0  0
  -26.7965  -16.8498   21.6748 N   0  0  0  0  0  0  0  0  0  0  0  0
  -23.5313  -27.2517   23.5096 N   0  0  0  0  0  0  0  0  0  0  0  0
  -26.4941  -20.5190   20.6604 N   0  0  0  0  0  0  0  0  0  0  0  0
  -29.0437  -16.9528   22.4165 N   0  0  0  0  0  0  0  0  0  0  0  0
  -28.4250  -12.5593   21.5733 N   0  0  0  0  0  0  0  0  0  0  0  0
  -28.7174  -21.2310   20.3254 N   0  0  0  0  0  0  0  0  0  0  0  0
  -24.5156  -24.5100   25.7030 N   0  0  0  0  0  0  0  0  0  0  0  0
  -21.2724  -29.5210   22.4116 N   0  0  0  0  0  0  0  0  0  0  0  0
  -22.6050  -32.7775   21.5827 N   0  3  0  0  0  0  0  0  0  0  0  0
  -29.9365  -14.1194   22.3084 O   0  0  0  0  0  0  0  0  0  0  0  0
  -23.4397  -24.7005   23.6466 O   0  0  0  0  0  0  0  0  0  0  0  0
  -21.6046  -27.8202   24.6931 O   0  0  0  0  0  0  0  0  0  0  0  0
  -22.7040  -30.1124   20.6860 O   0  0  0  0  0  0  0  0  0  0  0  0
  -27.0232  -22.7688   20.7080 O   0  0  0  0  0  0  0  0  0  0  0  0
  -23.7399  -10.1917   19.7081 O   0  0  0  0  0  0  0  0  0  0  0  0
  -28.5292  -26.6680   19.9412 O   0  0  0  0  0  0  0  0  0  1  0  0
  -24.2664   -5.7106   22.8776 F   0  0  0  0  0  0  0  0  0  0  0  0
  -33.1916  -21.6680   18.6474 F   0  0  0  0  0  0  0  0  0  0  0  0
  -21.5313   -9.0249   20.8927 F   0  0  0  0  0  0  0  0  0  0  0  0
  1  2  1  0  0  0  0
  1  5  2  0  0  0  0
  2  6  2  0  0  0  0
  3  8  2  0  0  0  0
  3 17  1  0  0  0  0
  4  9  1  0  0  0  0
  4 17  2  0  0  0  0
  5 19  1  0  0  0  0
  6 21  1  0  0  0  0
  7 10  2  0  0  0  0
  7 20  1  0  0  0  0
  8 26  1  0  0  0  0
  9 26  2  0  0  0  0
 10 27  1  0  0  0  0
 11 12  2  0  0  0  0
 11 28  1  0  0  0  0
 12 29  1  0  0  0  0
 13 22  1  0  0  0  0
 13 27  2  0  0  0  0
 14 23  1  0  0  0  0
 14 25  2  0  0  0  0
 15 25  1  0  0  0  0
 15 30  2  0  0  0  0
 16 29  2  0  0  0  0
 16 31  1  0  0  0  0
 17 32  1  0  0  0  0
 18 32  1  0  0  0  0
 18 33  2  0  0  0  0
 18 34  1  0  0  0  0
 19 21  2  0  0  0  0
 19 39  1  0  0  0  0
 20 22  2  0  0  0  0
 20 40  1  0  0  0  0
 21 48  1  0  0  0  0
 22 41  1  0  0  0  0
 23 24  2  0  0  0  0
 23 57  1  0  0  0  0
 24 30  1  0  0  0  0
 24 51  1  0  0  0  0
 25 69  1  0  0  0  0
 26 78  1  0  0  0  0
 27 79  1  0  0  0  0
 28 31  2  0  0  0  0
 28 78  1  0  0  0  0
 29 80  1  0  0  0  0
 30 81  1  0  0  0  0
 31 82  1  0  0  0  0
 32 63  2  0  0  0  0
 33 64  1  0  0  0  0
 33 67  1  0  0  0  0
 34 68  1  0  0  0  0
 34 73  2  0  0  0  0
 35 49  1  0  0  0  0
 35 70  1  0  0  0  0
 35 74  2  0  0  0  0
 36 60  1  0  0  0  0
 36 65  1  0  0  0  0
 36 75  2  0  0  0  0
 37 61  1  0  0  0  0
 37 71  1  0  0  0  0
 37 76  2  0  0  0  0
 38 66  1  0  0  0  0
 38 69  1  0  0  0  0
 38 77  2  0  0  0  0
 39 42  1  0  0  0  0
 40 49  1  0  0  0  0
 41 65  1  0  0  0  0
 42 44  1  0  0  0  0
 43 45  1  0  0  0  0
 43 46  1  0  0  0  0
 44 48  1  0  0  0  0
 45 50  1  0  0  0  0
 46 66  1  0  0  0  0
 47 50  1  0  0  0  0
 47 66  1  0  0  0  0
 48 70  1  0  0  0  0
 49 65  1  0  0  0  0
 50 64  1  0  0  0  0
 52 61  1  0  0  0  0
 53 62  1  0  0  0  0
 54 62  1  0  0  0  0
 55 62  1  0  0  0  0
 56 72  1  0  0  0  0
 57 58  1  0  0  0  0
 58 59  1  0  0  0  0
 59 79  1  0  0  0  0
 60 62  1  0  0  0  0
 60 71  1  0  0  0  0
 61 72  1  0  0  0  0
 63 64  1  0  0  0  0
M  CHG  1  72   1
M  ISO  4  38 100  59 101  69 100  79 101
M  END
> <Batch ID>
0030

> <Smiles>
CNC(C)C(=O)NC(C(=O)N1Cc2cc([101O:1][101CH2:1]CCc3cc([100NH:0][100C:0](=O)N4CCCC(n5nc(-c6ccc(Oc7ccc(F)cc7F)cc6)c(C(N)=O)c5N)C4)cc(F)c3C)ccc2CC1C(=O)NC1CCCc2ccccc21)C(C)(C)C

> <Shape>
0.224

> <Color>
0.062

> <Negative vol penalty>
0.000

$$$$

  -OEChem-04052316393D

 88 97  0     1  0  0  0  0  0999 V2000
  -29.6962  -25.7716   16.6726 C   0  0  0  0  0  0  0  0  0  0  0  0
  -28.5299  -25.6345   17.4185 C   0  0  0  0  0  0  0  0  0  0  0  0
  -28.1956  -16.4389   21.7758 C   0  0  0  0  0  0  0  0  0  0  0  0
  -27.1712  -17.2004   19.7246 C   0  0  0  0  0  0  0  0  0  0  0  0
  -30.7117  -26.6168   17.1178 C   0  0  0  0  0  0  0  0  0  0  0  0
  -28.3789  -26.3417   18.6107 C   0  0  0  0  0  0  0  0  0  0  0  0
  -23.8076  -28.4790   19.0359 C   0  0  0  0  0  0  0  0  0  0  0  0
  -29.4549  -16.7472   21.2614 C   0  0  0  0  0  0  0  0  0  0  0  0
  -28.4305  -17.5088   19.2101 C   0  0  0  0  0  0  0  0  0  0  0  0
  -22.7486  -27.6496   19.4022 C   0  0  0  0  0  0  0  0  0  0  0  0
  -31.3495  -18.8329   17.4942 C   0  0  0  0  0  0  0  0  0  0  0  0
  -31.5029  -20.0567   16.8428 C   0  0  0  0  0  0  0  0  0  0  0  0
  -18.6310  -17.9055   17.5589 C   0  0  0  0  0  0  0  0  0  0  0  0
  -22.9220  -28.4416   21.6742 C   0  0  0  0  0  0  0  0  0  0  0  0
  -20.4686  -18.7328   15.6459 C   0  0  0  0  0  0  0  0  0  0  0  0
  -30.8617  -21.2132   18.8647 C   0  0  0  0  0  0  0  0  0  0  0  0
  -27.0537  -16.6655   21.0074 C   0  0  0  0  0  0  0  0  0  0  0  0
  -25.1530  -16.8782   22.6954 C   0  0  0  0  0  0  0  0  0  0  0  0
  -30.5690  -27.3423   18.3112 C   0  0  0  0  0  0  0  0  0  0  0  0
  -24.4400  -29.2892   19.9899 C   0  0  0  0  0  0  0  0  0  0  0  0
  -29.3940  -27.1965   19.0730 C   0  0  0  0  0  0  0  0  0  0  0  0
  -18.7357  -19.2739   17.2551 C   0  0  0  0  0  0  0  0  0  0  0  0
  -23.9872  -29.2823   21.3169 C   0  0  0  0  0  0  0  0  0  0  0  0
  -19.6660  -19.6927   16.2863 C   0  0  0  0  0  0  0  0  0  0  0  0
  -19.4355  -16.9653   16.9165 C   0  0  0  0  0  0  0  0  0  0  0  0
  -29.5724  -17.2822   19.9786 C   0  0  0  0  0  0  0  0  0  0  0  0
  -22.3075  -27.6286   20.7221 C   0  0  0  0  0  0  0  0  0  0  0  0
  -30.9522  -18.7992   18.8308 C   0  0  0  0  0  0  0  0  0  0  0  0
  -31.2590  -21.2469   17.5280 C   0  0  0  0  0  0  0  0  0  0  0  0
  -30.7083  -19.9894   19.5161 C   0  0  0  0  0  0  0  0  0  0  0  0
  -20.3548  -17.3791   15.9598 C   0  0  0  0  0  0  0  0  0  0  0  0
  -25.7526  -16.3466   21.5380 C   0  0  0  0  0  0  0  0  0  0  0  0
  -23.9292  -16.2584   22.7637 C   0  0  0  0  0  0  0  0  0  0  0  0
  -25.6570  -17.8459   23.6255 C   0  0  0  0  0  0  0  0  0  0  0  0
  -27.3875  -29.4897   21.1630 C   0  0  0  0  0  0  0  0  0  0  0  0
  -26.1905  -32.0995   22.6724 C   0  0  0  0  0  0  0  0  0  0  0  0
  -24.2880  -34.5054   24.1687 C   0  0  0  0  0  0  0  0  0  0  0  0
  -20.3871  -13.7613   18.6322 C   0  0  0  0  0  0  0  0  0  0  0  0
  -31.7136  -28.2074   18.7761 C   0  0  0  0  0  0  0  0  0  0  0  0
  -25.5637  -30.1982   19.5731 C   0  0  0  0  0  0  0  0  0  0  0  0
  -17.8407  -20.2545   17.9711 C   0  0  0  0  0  0  0  0  0  0  0  0
  -19.8192  -21.1454   15.9101 C   0  0  0  0  0  0  0  0  0  0  0  0
  -24.6191  -30.1482   22.3749 C   0  0  0  0  0  0  0  0  0  0  0  0
  -31.3196  -29.2088   19.8588 C   0  0  0  0  0  0  0  0  0  0  0  0
  -18.6124  -21.2452   18.8449 C   0  0  0  0  0  0  0  0  0  0  0  0
  -20.3220  -22.0155   17.0637 C   0  0  0  0  0  0  0  0  0  0  0  0
  -21.7158  -12.1966   21.5414 C   0  0  0  0  0  0  0  0  0  0  0  0
  -30.4866  -28.5266   20.9393 C   0  0  0  0  0  0  0  0  0  0  0  0
  -22.8470  -13.1308   21.9748 C   0  0  0  0  0  0  0  0  0  0  0  0
  -21.6060  -12.1111   20.0207 C   0  0  0  0  0  0  0  0  0  0  0  0
  -22.6156  -14.3450   19.7679 C   0  0  0  0  0  0  0  0  0  0  0  0
  -29.1826  -27.9660   20.3588 C   0  0  1  0  0  0  0  0  0  0  0  0
  -26.4696  -30.5990   20.7333 C   0  0  1  0  0  0  0  0  0  0  0  0
  -22.7296  -14.5074   21.2933 C   0  0  2  0  0  0  0  0  0  0  0  0
  -19.2251  -22.4053   18.0570 C   0  0  2  0  0  0  0  0  0  0  0  0
  -24.4274  -36.3668   25.8460 C   0  0  0  0  0  0  0  0  0  0  0  0
  -26.2153  -30.0543   24.9365 C   0  0  0  0  0  0  0  0  0  0  0  0
  -25.4079  -31.8545   26.4779 C   0  0  0  0  0  0  0  0  0  0  0  0
  -27.6198  -32.0824   25.3473 C   0  0  0  0  0  0  0  0  0  0  0  0
  -23.5090  -36.5319   22.1574 C   0  0  0  0  0  0  0  0  0  0  0  0
  -19.2780  -15.5254   17.2843 C   0  0  0  0  0  0  0  0  0  0  0  0
  -19.5480  -25.2030   20.6562 C   0  0  0  0  0  0  0  0  0  0  0  0
  -18.8576  -24.2899   19.6542 C   0  0  0  0  0  0  0  0  0  0  0  0
  -20.6881  -26.0184   20.0584 C   0  0  0  0  0  0  0  0  0  1  0  0
  -25.5019  -32.3491   23.9924 C   0  0  1  0  0  0  0  0  0  0  0  0
  -24.5222  -35.9909   24.3754 C   0  0  2  0  0  0  0  0  0  0  0  0
  -26.1715  -31.5784   25.1651 C   0  0  0  0  0  0  0  0  0  0  0  0
  -24.9740  -15.4573   20.9159 N   0  0  0  0  0  0  0  0  0  0  0  0
  -23.8726  -15.4253   21.6853 N   0  0  0  0  0  0  0  0  0  0  0  0
  -25.7184  -31.0151   21.9193 N   0  0  0  0  0  0  0  0  0  0  0  0
  -21.4960  -13.4499   19.4363 N   0  0  0  0  0  0  0  0  0  0  0  0
  -22.9068  -16.3500   23.6405 N   0  0  0  0  0  0  0  0  0  0  0  0
  -25.3958  -19.2020   23.3862 N   0  0  0  0  0  0  0  0  0  0  0  0
  -28.2197  -29.0281   20.1611 N   0  0  0  0  0  0  0  0  0  0  0  0
  -25.4709  -33.7969   24.1694 N   0  0  0  0  0  0  0  0  0  0  0  0
  -20.3572  -15.0538   18.1232 N   0  0  0  0  0  0  0  0  0  0  0  0
  -19.8309  -23.3502   19.0469 N   0  3  0  0  0  0  0  0  0  0  0  0
  -23.5110  -36.7846   23.6213 N   0  3  0  0  0  0  0  0  0  0  0  0
  -26.3335  -17.5190   24.6301 O   0  0  0  0  0  0  0  0  0  0  0  0
  -27.3449  -29.0836   22.3184 O   0  0  0  0  0  0  0  0  0  0  0  0
  -27.1085  -32.8438   22.3190 O   0  0  0  0  0  0  0  0  0  0  0  0
  -23.1674  -34.0214   24.0251 O   0  0  0  0  0  0  0  0  0  0  0  0
  -19.4875  -12.9493   18.3905 O   0  0  0  0  0  0  0  0  0  0  0  0
  -30.8011  -17.5834   19.4764 O   0  0  0  0  0  0  0  0  0  0  0  0
  -21.2671  -26.8138   21.0850 O   0  0  0  0  0  0  0  0  0  1  0  0
  -31.4079  -22.4221   16.9028 F   0  0  0  0  0  0  0  0  0  0  0  0
  -30.3275  -19.9634   20.8007 F   0  0  0  0  0  0  0  0  0  0  0  0
  -21.3689  -16.2484   15.1403 Cl  0  0  0  0  0  0  0  0  0  0  0  0
  1  2  1  0  0  0  0
  1  5  2  0  0  0  0
  2  6  2  0  0  0  0
  3  8  2  0  0  0  0
  3 17  1  0  0  0  0
  4  9  1  0  0  0  0
  4 17  2  0  0  0  0
  5 19  1  0  0  0  0
  6 21  1  0  0  0  0
  7 10  2  0  0  0  0
  7 20  1  0  0  0  0
  8 26  1  0  0  0  0
  9 26  2  0  0  0  0
 10 27  1  0  0  0  0
 11 12  2  0  0  0  0
 11 28  1  0  0  0  0
 12 29  1  0  0  0  0
 13 22  1  0  0  0  0
 13 25  2  0  0  0  0
 14 23  1  0  0  0  0
 14 27  2  0  0  0  0
 15 24  1  0  0  0  0
 15 31  2  0  0  0  0
 16 29  2  0  0  0  0
 16 30  1  0  0  0  0
 17 32  1  0  0  0  0
 18 32  1  0  0  0  0
 18 33  2  0  0  0  0
 18 34  1  0  0  0  0
 19 21  2  0  0  0  0
 19 39  1  0  0  0  0
 20 23  2  0  0  0  0
 20 40  1  0  0  0  0
 21 52  1  0  0  0  0
 22 24  2  0  0  0  0
 22 41  1  0  0  0  0
 23 43  1  0  0  0  0
 24 42  1  0  0  0  0
 25 31  1  0  0  0  0
 25 61  1  0  0  0  0
 26 84  1  0  0  0  0
 27 85  1  0  0  0  0
 28 30  2  0  0  0  0
 28 84  1  0  0  0  0
 29 86  1  0  0  0  0
 30 87  1  0  0  0  0
 31 88  1  0  0  0  0
 32 68  2  0  0  0  0
 33 69  1  0  0  0  0
 33 72  1  0  0  0  0
 34 73  1  0  0  0  0
 34 79  2  0  0  0  0
 35 53  1  0  0  0  0
 35 74  1  0  0  0  0
 35 80  2  0  0  0  0
 36 65  1  0  0  0  0
 36 70  1  0  0  0  0
 36 81  2  0  0  0  0
 37 66  1  0  0  0  0
 37 75  1  0  0  0  0
 37 82  2  0  0  0  0
 38 71  1  0  0  0  0
 38 76  1  0  0  0  0
 38 83  2  0  0  0  0
 39 44  1  0  0  0  0
 40 53  1  0  0  0  0
 41 45  1  0  0  0  0
 42 46  1  0  0  0  0
 43 70  1  0  0  0  0
 44 48  1  0  0  0  0
 45 55  1  0  0  0  0
 46 55  1  0  0  0  0
 47 49  1  0  0  0  0
 47 50  1  0  0  0  0
 48 52  1  0  0  0  0
 49 54  1  0  0  0  0
 50 71  1  0  0  0  0
 51 54  1  0  0  0  0
 51 71  1  0  0  0  0
 52 74  1  0  0  0  0
 53 70  1  0  0  0  0
 54 69  1  0  0  0  0
 55 77  1  0  0  0  0
 56 66  1  0  0  0  0
 57 67  1  0  0  0  0
 58 67  1  0  0  0  0
 59 67  1  0  0  0  0
 60 78  1  0  0  0  0
 61 76  1  0  0  0  0
 62 63  1  0  0  0  0
 62 64  1  0  0  0  0
 63 77  1  0  0  0  0
 64 85  1  0  0  0  0
 65 67  1  0  0  0  0
 65 75  1  0  0  0  0
 66 78  1  0  0  0  0
 68 69  1  0  0  0  0
M  CHG  2  77   1  78   1
M  ISO  4  38 100  64 101  76 100  85 101
M  END
> <Batch ID>
0030

> <Smiles>
CNC(C)C(=O)NC(C(=O)N1Cc2cc([101O:1][101CH2:1]CCNC3CCc4cc(Cl)c(C[100NH:0][100C:0](=O)N5CCCC(n6nc(-c7ccc(Oc8ccc(F)cc8F)cc7)c(C(N)=O)c6N)C5)cc4CC3)ccc2CC1C(=O)NC1CCCc2ccccc21)C(C)(C)C

> <Shape>
0.234

> <Color>
0.076

> <Negative vol penalty>
0.000

$$$$

  -OEChem-04052316393D

 84 92  0     1  0  0  0  0  0999 V2000
  -28.3226  -24.7906   16.5571 C   0  0  0  0  0  0  0  0  0  0  0  0
  -27.1396  -24.9308   17.2756 C   0  0  0  0  0  0  0  0  0  0  0  0
  -28.6530  -17.6634   21.3038 C   0  0  0  0  0  0  0  0  0  0  0  0
  -26.2752  -17.8665   20.9271 C   0  0  0  0  0  0  0  0  0  0  0  0
  -29.5062  -25.3368   17.0518 C   0  0  0  0  0  0  0  0  0  0  0  0
  -27.1397  -25.6162   18.4899 C   0  0  0  0  0  0  0  0  0  0  0  0
  -23.2470  -28.8283   18.9081 C   0  0  0  0  0  0  0  0  0  0  0  0
  -28.6298  -16.3800   20.7580 C   0  0  0  0  0  0  0  0  0  0  0  0
  -26.2520  -16.5831   20.3812 C   0  0  0  0  0  0  0  0  0  0  0  0
  -22.0032  -28.2835   19.2240 C   0  0  0  0  0  0  0  0  0  0  0  0
  -26.2554  -13.3957   21.5087 C   0  0  0  0  0  0  0  0  0  0  0  0
  -25.2320  -12.5382   21.9123 C   0  0  0  0  0  0  0  0  0  0  0  0
  -22.3091  -28.9354   21.5263 C   0  0  0  0  0  0  0  0  0  0  0  0
  -21.4261  -24.2675   26.0346 C   0  0  0  0  0  0  0  0  0  0  0  0
  -20.1895  -22.5087   24.2570 C   0  0  0  0  0  0  0  0  0  0  0  0
  -24.4769  -12.3626   19.6241 C   0  0  0  0  0  0  0  0  0  0  0  0
  -27.4756  -18.4066   21.3885 C   0  0  0  0  0  0  0  0  0  0  0  0
  -27.7106  -20.9439   21.2683 C   0  0  0  0  0  0  0  0  0  0  0  0
  -29.5189  -26.0376   18.2681 C   0  0  0  0  0  0  0  0  0  0  0  0
  -24.0374  -29.4220   19.9028 C   0  0  0  0  0  0  0  0  0  0  0  0
  -28.3248  -26.1711   19.0021 C   0  0  0  0  0  0  0  0  0  0  0  0
  -23.5615  -29.4892   21.2200 C   0  0  0  0  0  0  0  0  0  0  0  0
  -20.6211  -24.7637   25.0092 C   0  0  0  0  0  0  0  0  0  0  0  0
  -21.6129  -22.8919   26.1712 C   0  0  0  0  0  0  0  0  0  0  0  0
  -20.0028  -23.8843   24.1204 C   0  0  0  0  0  0  0  0  0  0  0  0
  -27.4294  -15.8399   20.2966 C   0  0  0  0  0  0  0  0  0  0  0  0
  -21.5353  -28.3345   20.5338 C   0  0  0  0  0  0  0  0  0  0  0  0
  -26.3895  -13.7368   20.1628 C   0  0  0  0  0  0  0  0  0  0  0  0
  -24.3428  -12.0216   20.9700 C   0  0  0  0  0  0  0  0  0  0  0  0
  -25.5002  -13.2202   19.2205 C   0  0  0  0  0  0  0  0  0  0  0  0
  -20.9945  -22.0125   25.2823 C   0  0  0  0  0  0  0  0  0  0  0  0
  -27.4988  -19.7322   21.9528 C   0  0  0  0  0  0  0  0  0  0  0  0
  -27.6373  -21.9072   22.2447 C   0  0  0  0  0  0  0  0  0  0  0  0
  -27.9519  -21.1779   19.8745 C   0  0  0  0  0  0  0  0  0  0  0  0
  -26.9067  -28.8325   21.1371 C   0  0  0  0  0  0  0  0  0  0  0  0
  -26.3674  -31.6129   22.7186 C   0  0  0  0  0  0  0  0  0  0  0  0
  -24.1080  -33.8638   23.9333 C   0  0  0  0  0  0  0  0  0  0  0  0
  -24.9290  -22.1062   27.5810 C   0  0  0  0  0  0  0  0  0  0  0  0
  -30.8319  -26.5695   18.7856 C   0  0  0  0  0  0  0  0  0  0  0  0
  -25.3652  -30.0288   19.5406 C   0  0  0  0  0  0  0  0  0  0  0  0
  -24.3626  -30.1337   22.3206 C   0  0  0  0  0  0  0  0  0  0  0  0
  -30.6743  -27.6043   19.8968 C   0  0  0  0  0  0  0  0  0  0  0  0
  -28.3981  -22.5626   26.9225 C   0  0  0  0  0  0  0  0  0  0  0  0
  -29.6667  -27.1227   20.9359 C   0  0  0  0  0  0  0  0  0  0  0  0
  -28.5801  -21.9983   25.5124 C   0  0  0  0  0  0  0  0  0  0  0  0
  -27.3774  -21.7585   27.7248 C   0  0  0  0  0  0  0  0  0  0  0  0
  -26.2487  -21.0281   25.6594 C   0  0  0  0  0  0  0  0  0  0  0  0
  -28.2798  -26.9291   20.3111 C   0  0  1  0  0  0  0  0  0  0  0  0
  -26.3110  -30.1510   20.7314 C   0  0  1  0  0  0  0  0  0  0  0  0
  -27.2271  -21.8395   24.7931 C   0  0  2  0  0  0  0  0  0  0  0  0
  -20.4369  -26.2401   24.8803 C   0  0  0  0  0  0  0  0  0  0  0  0
  -23.9665  -36.0174   25.2137 C   0  0  0  0  0  0  0  0  0  0  0  0
  -26.9609  -30.1102   25.3070 C   0  0  0  0  0  0  0  0  0  0  0  0
  -25.8991  -31.9971   26.5641 C   0  0  0  0  0  0  0  0  0  0  0  0
  -27.9383  -32.4091   25.1877 C   0  0  0  0  0  0  0  0  0  0  0  0
  -22.7984  -35.2559   21.6737 C   0  0  0  0  0  0  0  0  0  0  0  0
  -22.4829  -22.4007   27.2828 C   0  0  0  0  0  0  0  0  0  0  0  0
  -19.1349  -24.3951   23.0083 C   0  0  0  0  0  0  0  0  0  0  0  0
  -19.0424  -25.7684   20.9240 C   0  0  0  0  0  0  0  0  0  0  0  0
  -19.8784  -26.6947   20.0630 C   0  0  0  0  0  0  0  0  0  1  0  0
  -25.7284  -31.9880   24.0339 C   0  0  1  0  0  0  0  0  0  0  0  0
  -24.0423  -35.3773   23.8362 C   0  0  2  0  0  0  0  0  0  0  0  0
  -26.6172  -31.6122   25.2530 C   0  0  0  0  0  0  0  0  0  0  0  0
  -27.3057  -19.9069   23.2628 N   0  0  0  0  0  0  0  0  0  0  0  0
  -27.3959  -21.2398   23.4093 N   0  0  0  0  0  0  0  0  0  0  0  0
  -25.6573  -30.7073   21.9177 N   0  0  0  0  0  0  0  0  0  0  0  0
  -26.1164  -21.6464   26.9879 N   0  0  0  0  0  0  0  0  0  0  0  0
  -27.7566  -23.2515   22.2120 N   0  0  0  0  0  0  0  0  0  0  0  0
  -27.9955  -20.0758   19.0097 N   0  0  0  0  0  0  0  0  0  0  0  0
  -27.6223  -28.2062   20.1345 N   0  0  0  0  0  0  0  0  0  0  0  0
  -25.4096  -33.4087   23.9423 N   0  0  0  0  0  0  0  0  0  0  0  0
  -23.7799  -21.9683   26.8120 N   0  0  0  0  0  0  0  0  0  0  0  0
  -22.8422  -35.7948   23.0574 N   0  3  0  0  0  0  0  0  0  0  0  0
  -19.8592  -25.2939   22.0695 N   0  3  0  0  0  0  0  0  0  0  0  0
  -28.1400  -22.3288   19.4122 O   0  0  0  0  0  0  0  0  0  0  0  0
  -26.7314  -28.4152   22.2758 O   0  0  0  0  0  0  0  0  0  0  0  0
  -27.4530  -32.1106   22.4099 O   0  0  0  0  0  0  0  0  0  0  0  0
  -23.1052  -33.1563   23.9986 O   0  0  0  0  0  0  0  0  0  0  0  0
  -24.8963  -22.6077   28.7099 O   0  0  0  0  0  0  0  0  0  0  0  0
  -27.4065  -14.5877   19.7636 O   0  0  0  0  0  0  0  0  0  0  0  0
  -20.3218  -27.8030   20.8450 O   0  0  0  0  0  0  0  0  0  1  0  0
  -23.3610  -11.1968   21.3575 F   0  0  0  0  0  0  0  0  0  0  0  0
  -25.6247  -13.5433   17.9259 F   0  0  0  0  0  0  0  0  0  0  0  0
  -21.2026  -20.3046   25.4199 Cl  0  0  0  0  0  0  0  0  0  0  0  0
  1  2  1  0  0  0  0
  1  5  2  0  0  0  0
  2  6  2  0  0  0  0
  3  8  2  0  0  0  0
  3 17  1  0  0  0  0
  4  9  1  0  0  0  0
  4 17  2  0  0  0  0
  5 19  1  0  0  0  0
  6 21  1  0  0  0  0
  7 10  2  0  0  0  0
  7 20  1  0  0  0  0
  8 26  1  0  0  0  0
  9 26  2  0  0  0  0
 10 27  1  0  0  0  0
 11 12  2  0  0  0  0
 11 28  1  0  0  0  0
 12 29  1  0  0  0  0
 13 22  1  0  0  0  0
 13 27  2  0  0  0  0
 14 23  1  0  0  0  0
 14 24  2  0  0  0  0
 15 25  1  0  0  0  0
 15 31  2  0  0  0  0
 16 29  2  0  0  0  0
 16 30  1  0  0  0  0
 17 32  1  0  0  0  0
 18 32  1  0  0  0  0
 18 33  2  0  0  0  0
 18 34  1  0  0  0  0
 19 21  2  0  0  0  0
 19 39  1  0  0  0  0
 20 22  2  0  0  0  0
 20 40  1  0  0  0  0
 21 48  1  0  0  0  0
 22 41  1  0  0  0  0
 23 25  2  0  0  0  0
 23 51  1  0  0  0  0
 24 31  1  0  0  0  0
 24 57  1  0  0  0  0
 25 58  1  0  0  0  0
 26 80  1  0  0  0  0
 27 81  1  0  0  0  0
 28 30  2  0  0  0  0
 28 80  1  0  0  0  0
 29 82  1  0  0  0  0
 30 83  1  0  0  0  0
 31 84  1  0  0  0  0
 32 64  2  0  0  0  0
 33 65  1  0  0  0  0
 33 68  1  0  0  0  0
 34 69  1  0  0  0  0
 34 75  2  0  0  0  0
 35 49  1  0  0  0  0
 35 70  1  0  0  0  0
 35 76  2  0  0  0  0
 36 61  1  0  0  0  0
 36 66  1  0  0  0  0
 36 77  2  0  0  0  0
 37 62  1  0  0  0  0
 37 71  1  0  0  0  0
 37 78  2  0  0  0  0
 38 67  1  0  0  0  0
 38 72  1  0  0  0  0
 38 79  2  0  0  0  0
 39 42  1  0  0  0  0
 40 49  1  0  0  0  0
 41 66  1  0  0  0  0
 42 44  1  0  0  0  0
 43 45  1  0  0  0  0
 43 46  1  0  0  0  0
 44 48  1  0  0  0  0
 45 50  1  0  0  0  0
 46 67  1  0  0  0  0
 47 50  1  0  0  0  0
 47 67  1  0  0  0  0
 48 70  1  0  0  0  0
 49 66  1  0  0  0  0
 50 65  1  0  0  0  0
 52 62  1  0  0  0  0
 53 63  1  0  0  0  0
 54 63  1  0  0  0  0
 55 63  1  0  0  0  0
 56 73  1  0  0  0  0
 57 72  1  0  0  0  0
 58 74  1  0  0  0  0
 59 60  1  0  0  0  0
 59 74  1  0  0  0  0
 60 81  1  0  0  0  0
 61 63  1  0  0  0  0
 61 71  1  0  0  0  0
 62 73  1  0  0  0  0
 64 65  1  0  0  0  0
M  CHG  2  73   1  74   1
M  ISO  4  38 100  60 101  72 100  81 101
M  END
> <Batch ID>
0030

> <Smiles>
CNC(C)C(=O)NC(C(=O)N1Cc2cc([101O:1][101CH2:1]CNCc3cc(Cl)c(C[100NH:0][100C:0](=O)N4CCCC(n5nc(-c6ccc(Oc7ccc(F)cc7F)cc6)c(C(N)=O)c5N)C4)cc3C)ccc2CC1C(=O)NC1CCCc2ccccc21)C(C)(C)C

> <Shape>
0.269

> <Color>
0.078

> <Negative vol penalty>
0.000

$$$$

  -OEChem-04052316393D

 84 93  0     1  0  0  0  0  0999 V2000
  -26.8186  -34.1513   25.8196 C   0  0  0  0  0  0  0  0  0  0  0  0
  -27.2258  -32.9684   25.2109 C   0  0  0  0  0  0  0  0  0  0  0  0
  -23.7791  -13.6550   21.0804 C   0  0  0  0  0  0  0  0  0  0  0  0
  -25.9539  -13.6840   20.0284 C   0  0  0  0  0  0  0  0  0  0  0  0
  -25.4781  -34.3352   26.1560 C   0  0  0  0  0  0  0  0  0  0  0  0
  -26.2928  -31.9684   24.9392 C   0  0  0  0  0  0  0  0  0  0  0  0
  -26.8341  -30.0153   20.2984 C   0  0  0  0  0  0  0  0  0  0  0  0
  -23.6239  -12.3158   20.7227 C   0  0  0  0  0  0  0  0  0  0  0  0
  -25.7987  -12.3447   19.6707 C   0  0  0  0  0  0  0  0  0  0  0  0
  -27.8644  -29.0949   20.1111 C   0  0  0  0  0  0  0  0  0  0  0  0
  -24.6942   -9.3033   21.8236 C   0  0  0  0  0  0  0  0  0  0  0  0
  -24.2057   -8.4261   22.7918 C   0  0  0  0  0  0  0  0  0  0  0  0
  -28.1345  -23.6796   17.0230 C   0  0  0  0  0  0  0  0  0  0  0  0
  -26.2744  -27.2890   20.2836 C   0  0  0  0  0  0  0  0  0  0  0  0
  -22.3208   -7.9085   21.3720 C   0  0  0  0  0  0  0  0  0  0  0  0
  -24.9441  -14.3392   20.7332 C   0  0  0  0  0  0  0  0  0  0  0  0
  -25.6721  -16.2261   22.2880 C   0  0  0  0  0  0  0  0  0  0  0  0
  -24.5266  -33.3409   25.8796 C   0  0  0  0  0  0  0  0  0  0  0  0
  -25.5156  -29.5783   20.4909 C   0  0  0  0  0  0  0  0  0  0  0  0
  -24.9385  -32.1386   25.2735 C   0  0  0  0  0  0  0  0  0  0  0  0
  -28.9165  -24.5793   17.7641 C   0  0  0  0  0  0  0  0  0  0  0  0
  -25.2288  -28.2059   20.4705 C   0  0  0  0  0  0  0  0  0  0  0  0
  -29.9577  -24.0851   18.5705 C   0  0  0  0  0  0  0  0  0  0  0  0
  -28.3649  -22.3064   17.0987 C   0  0  0  0  0  0  0  0  0  0  0  0
  -30.1722  -22.7002   18.6464 C   0  0  0  0  0  0  0  0  0  0  0  0
  -24.6336  -11.6606   20.0179 C   0  0  0  0  0  0  0  0  0  0  0  0
  -27.5851  -27.7314   20.1066 C   0  0  0  0  0  0  0  0  0  0  0  0
  -23.9959   -9.4831   20.6295 C   0  0  0  0  0  0  0  0  0  0  0  0
  -23.0190   -7.7287   22.5660 C   0  0  0  0  0  0  0  0  0  0  0  0
  -22.8092   -8.7857   20.4037 C   0  0  0  0  0  0  0  0  0  0  0  0
  -29.3820  -21.8166   17.9122 C   0  0  0  0  0  0  0  0  0  0  0  0
  -25.1048  -15.7227   21.1019 C   0  0  0  0  0  0  0  0  0  0  0  0
  -25.5907  -17.5907   22.1553 C   0  0  0  0  0  0  0  0  0  0  0  0
  -26.2233  -15.5229   23.4093 C   0  0  0  0  0  0  0  0  0  0  0  0
  -23.3909  -29.8267   22.8419 C   0  0  0  0  0  0  0  0  0  0  0  0
  -21.4164  -28.4300   20.6802 C   0  0  0  0  0  0  0  0  0  0  0  0
  -21.0804  -26.4818   17.8984 C   0  0  0  0  0  0  0  0  0  0  0  0
  -25.2967  -21.2146   17.3980 C   0  0  0  0  0  0  0  0  0  0  0  0
  -23.0971  -33.5658   26.3047 C   0  0  0  0  0  0  0  0  0  0  0  0
  -24.4114  -30.5848   20.6649 C   0  0  0  0  0  0  0  0  0  0  0  0
  -28.6489  -26.0602   17.6271 C   0  0  0  0  0  0  0  0  0  0  0  0
  -30.8123  -25.0029   19.4064 C   0  0  0  0  0  0  0  0  0  0  0  0
  -23.8270  -27.6860   20.6525 C   0  0  0  0  0  0  0  0  0  0  0  0
  -22.1073  -32.6105   25.6427 C   0  0  0  0  0  0  0  0  0  0  0  0
  -30.7577  -26.4595   18.9456 C   0  0  0  0  0  0  0  0  0  0  0  0
  -22.9575  -21.0000   20.0736 C   0  0  0  0  0  0  0  0  0  0  0  0
  -22.6277  -31.1778   25.7010 C   0  0  0  0  0  0  0  0  0  0  0  0
  -23.2937  -19.6686   20.7476 C   0  0  0  0  0  0  0  0  0  0  0  0
  -23.1272  -20.9240   18.5579 C   0  0  0  0  0  0  0  0  0  0  0  0
  -24.7823  -19.1115   18.7797 C   0  0  0  0  0  0  0  0  0  0  0  0
  -23.9520  -31.0406   24.9401 C   0  0  1  0  0  0  0  0  0  0  0  0
  -23.1839  -30.0100   21.3650 C   0  0  1  0  0  0  0  0  0  0  0  0
  -24.6799  -19.1549   20.3139 C   0  0  2  0  0  0  0  0  0  0  0  0
  -29.3223  -26.9141   18.7043 C   0  0  2  0  0  0  0  0  0  1  0  0
  -31.2425  -22.1244   19.5194 C   0  0  0  0  0  0  0  0  0  0  0  0
  -19.3401  -25.4843   16.3905 C   0  0  0  0  0  0  0  0  0  0  0  0
  -20.7918  -26.3243   22.7981 C   0  0  0  0  0  0  0  0  0  0  0  0
  -19.8435  -24.8821   20.9846 C   0  0  0  0  0  0  0  0  0  0  0  0
  -18.8118  -27.0983   21.4809 C   0  0  0  0  0  0  0  0  0  0  0  0
  -22.1138  -27.9472   15.5439 C   0  0  0  0  0  0  0  0  0  0  0  0
  -27.5202  -21.3668   16.3062 C   0  0  0  0  0  0  0  0  0  0  0  0
  -21.0574  -27.0080   20.3226 C   0  0  1  0  0  0  0  0  0  0  0  0
  -20.2651  -26.6671   16.6313 C   0  0  2  0  0  0  0  0  0  0  0  0
  -20.1529  -26.3376   21.3950 C   0  0  0  0  0  0  0  0  0  0  0  0
  -24.6934  -16.6890   20.2767 N   0  0  0  0  0  0  0  0  0  0  0  0
  -25.0023  -17.8131   20.9452 N   0  0  0  0  0  0  0  0  0  0  0  0
  -22.7827  -28.7092   20.8254 N   0  0  0  0  0  0  0  0  0  0  0  0
  -24.4631  -20.4315   18.2135 N   0  0  0  0  0  0  0  0  0  0  0  0
  -25.9657  -18.6101   22.9570 N   0  0  0  0  0  0  0  0  0  0  0  0
  -26.2282  -14.1216   23.3825 N   0  0  0  0  0  0  0  0  0  0  0  0
  -23.7126  -30.9906   23.5137 N   0  0  0  0  0  0  0  0  0  0  0  0
  -20.4664  -27.0590   18.9898 N   0  0  0  0  0  0  0  0  0  0  0  0
  -26.5486  -20.6769   17.1252 N   0  0  0  0  0  0  0  0  0  0  0  0
  -21.1654  -26.8074   15.4520 N   0  3  0  0  0  0  0  0  0  0  0  0
  -26.6826  -16.1194   24.4127 O   0  0  0  0  0  0  0  0  0  0  0  0
  -23.2663  -28.7120   23.3357 O   0  0  0  0  0  0  0  0  0  0  0  0
  -20.5181  -29.2641   20.8183 O   0  0  0  0  0  0  0  0  0  0  0  0
  -22.1527  -25.8816   17.9187 O   0  0  0  0  0  0  0  0  0  0  0  0
  -24.9529  -22.3140   16.9509 O   0  0  0  0  0  0  0  0  0  0  0  0
  -24.4826  -10.3538   19.6689 O   0  0  0  0  0  0  0  0  0  0  0  0
  -28.5890  -26.8309   19.9247 O   0  0  0  0  0  0  0  0  0  1  0  0
  -22.5509   -6.8852   23.4953 F   0  0  0  0  0  0  0  0  0  0  0  0
  -22.1346   -8.9534   19.2580 F   0  0  0  0  0  0  0  0  0  0  0  0
  -29.5992  -20.4952   17.9902 F   0  0  0  0  0  0  0  0  0  0  0  0
  1  2  1  0  0  0  0
  1  5  2  0  0  0  0
  2  6  2  0  0  0  0
  3  8  2  0  0  0  0
  3 16  1  0  0  0  0
  4  9  1  0  0  0  0
  4 16  2  0  0  0  0
  5 18  1  0  0  0  0
  6 20  1  0  0  0  0
  7 10  2  0  0  0  0
  7 19  1  0  0  0  0
  8 26  1  0  0  0  0
  9 26  2  0  0  0  0
 10 27  1  0  0  0  0
 11 12  2  0  0  0  0
 11 28  1  0  0  0  0
 12 29  1  0  0  0  0
 13 21  2  0  0  0  0
 13 24  1  0  0  0  0
 14 22  1  0  0  0  0
 14 27  2  0  0  0  0
 15 29  2  0  0  0  0
 15 30  1  0  0  0  0
 16 32  1  0  0  0  0
 17 32  1  0  0  0  0
 17 33  2  0  0  0  0
 17 34  1  0  0  0  0
 18 20  2  0  0  0  0
 18 39  1  0  0  0  0
 19 22  2  0  0  0  0
 19 40  1  0  0  0  0
 20 51  1  0  0  0  0
 21 23  1  0  0  0  0
 21 41  1  0  0  0  0
 22 43  1  0  0  0  0
 23 25  2  0  0  0  0
 23 42  1  0  0  0  0
 24 31  2  0  0  0  0
 24 61  1  0  0  0  0
 25 31  1  0  0  0  0
 25 55  1  0  0  0  0
 26 80  1  0  0  0  0
 27 81  1  0  0  0  0
 28 30  2  0  0  0  0
 28 80  1  0  0  0  0
 29 82  1  0  0  0  0
 30 83  1  0  0  0  0
 31 84  1  0  0  0  0
 32 65  2  0  0  0  0
 33 66  1  0  0  0  0
 33 69  1  0  0  0  0
 34 70  1  0  0  0  0
 34 75  2  0  0  0  0
 35 52  1  0  0  0  0
 35 71  1  0  0  0  0
 35 76  2  0  0  0  0
 36 62  1  0  0  0  0
 36 67  1  0  0  0  0
 36 77  2  0  0  0  0
 37 63  1  0  0  0  0
 37 72  1  0  0  0  0
 37 78  2  0  0  0  0
 38 68  1  0  0  0  0
 38 73  1  0  0  0  0
 38 79  2  0  0  0  0
 39 44  1  0  0  0  0
 40 52  1  0  0  0  0
 41 54  1  0  0  0  0
 42 45  1  0  0  0  0
 43 67  1  0  0  0  0
 44 47  1  0  0  0  0
 45 54  1  0  0  0  0
 46 48  1  0  0  0  0
 46 49  1  0  0  0  0
 47 51  1  0  0  0  0
 48 53  1  0  0  0  0
 49 68  1  0  0  0  0
 50 53  1  0  0  0  0
 50 68  1  0  0  0  0
 51 71  1  0  0  0  0
 52 67  1  0  0  0  0
 53 66  1  0  0  0  0
 54 81  1  0  0  0  0
 56 63  1  0  0  0  0
 57 64  1  0  0  0  0
 58 64  1  0  0  0  0
 59 64  1  0  0  0  0
 60 74  1  0  0  0  0
 61 73  1  0  0  0  0
 62 64  1  0  0  0  0
 62 72  1  0  0  0  0
 63 74  1  0  0  0  0
 65 66  1  0  0  0  0
M  CHG  1  74   1
M  ISO  4  38 100  54 101  73 100  81 101
M  END
> <Batch ID>
0030

> <Smiles>
CNC(C)C(=O)NC(C(=O)N1Cc2cc([101O:1][101CH:1]3CCc4c(cc(C[100NH:0][100C:0](=O)N5CCCC(n6nc(-c7ccc(Oc8ccc(F)cc8F)cc7)c(C(N)=O)c6N)C5)c(F)c4C)C3)ccc2CC1C(=O)NC1CCCc2ccccc21)C(C)(C)C

> <Shape>
0.266

> <Color>
0.080

> <Negative vol penalty>
0.000

$$$$

  -OEChem-04052316393D

 89 98  0     1  0  0  0  0  0999 V2000
  -25.0892  -31.2766   21.4944 C   0  0  0  0  0  0  0  0  0  0  0  0
  -23.8757  -30.6138   21.6390 C   0  0  0  0  0  0  0  0  0  0  0  0
  -28.2823  -21.2995   19.5157 C   0  0  0  0  0  0  0  0  0  0  0  0
  -30.6815  -21.0964   19.3164 C   0  0  0  0  0  0  0  0  0  0  0  0
  -26.1737  -30.6191   20.9177 C   0  0  0  0  0  0  0  0  0  0  0  0
  -23.7496  -29.2896   21.2179 C   0  0  0  0  0  0  0  0  0  0  0  0
  -21.7939  -21.2602   20.1665 C   0  0  0  0  0  0  0  0  0  0  0  0
  -28.3142  -22.4498   18.7274 C   0  0  0  0  0  0  0  0  0  0  0  0
  -30.7134  -22.2468   18.5281 C   0  0  0  0  0  0  0  0  0  0  0  0
  -22.5049  -20.1169   19.8041 C   0  0  0  0  0  0  0  0  0  0  0  0
  -30.5853  -25.5926   18.9970 C   0  0  0  0  0  0  0  0  0  0  0  0
  -31.5672  -26.5429   19.2768 C   0  0  0  0  0  0  0  0  0  0  0  0
  -24.3676  -20.8571   21.1463 C   0  0  0  0  0  0  0  0  0  0  0  0
  -32.4528  -26.2852   17.0437 C   0  0  0  0  0  0  0  0  0  0  0  0
  -29.4660  -20.6228   19.8102 C   0  0  0  0  0  0  0  0  0  0  0  0
  -28.9700  -19.3248   21.9495 C   0  0  0  0  0  0  0  0  0  0  0  0
  -26.0565  -29.2902   20.4781 C   0  0  0  0  0  0  0  0  0  0  0  0
  -22.3696  -22.2174   21.0143 C   0  0  0  0  0  0  0  0  0  0  0  0
  -24.8395  -28.6010   20.6552 C   0  0  0  0  0  0  0  0  0  0  0  0
  -23.6609  -22.0103   21.5201 C   0  0  0  0  0  0  0  0  0  0  0  0
  -25.4852  -11.9406   20.5103 C   0  0  0  0  0  0  0  0  0  0  0  0
  -29.5297  -22.9235   18.2336 C   0  0  0  0  0  0  0  0  0  0  0  0
  -23.7930  -19.9167   20.2916 C   0  0  0  0  0  0  0  0  0  0  0  0
  -30.5371  -24.9885   17.7406 C   0  0  0  0  0  0  0  0  0  0  0  0
  -32.5010  -26.8892   18.3001 C   0  0  0  0  0  0  0  0  0  0  0  0
  -31.4709  -25.3348   16.7640 C   0  0  0  0  0  0  0  0  0  0  0  0
  -29.4338  -19.4348   20.6249 C   0  0  0  0  0  0  0  0  0  0  0  0
  -24.3996  -12.5834   19.9397 C   0  0  0  0  0  0  0  0  0  0  0  0
  -26.2627  -12.9817   21.0606 C   0  0  0  0  0  0  0  0  0  0  0  0
  -29.1514  -18.0011   22.2679 C   0  0  0  0  0  0  0  0  0  0  0  0
  -22.9740  -10.5135   19.4615 C   0  0  0  0  0  0  0  0  0  0  0  0
  -22.5909   -9.6170   18.5352 C   0  0  0  0  0  0  0  0  0  0  0  0
  -28.4241  -20.3293   22.8148 C   0  0  0  0  0  0  0  0  0  0  0  0
  -23.1430  -25.2876   20.7329 C   0  0  0  0  0  0  0  0  0  0  0  0
  -28.7022  -12.6020   20.8758 C   0  0  0  0  0  0  0  0  0  0  0  0
  -23.8169  -25.0056   23.8934 C   0  0  0  0  0  0  0  0  0  0  0  0
  -25.4011  -22.5782   26.0418 C   0  0  0  0  0  0  0  0  0  0  0  0
  -27.2645  -28.6241   19.8680 C   0  0  0  0  0  0  0  0  0  0  0  0
  -21.5794  -23.4321   21.4173 C   0  0  0  0  0  0  0  0  0  0  0  0
  -24.3163  -22.9978   22.4495 C   0  0  0  0  0  0  0  0  0  0  0  0
  -23.2045  -10.0387   20.8864 C   0  0  0  0  0  0  0  0  0  0  0  0
  -26.9116  -27.3834   19.0540 C   0  0  0  0  0  0  0  0  0  0  0  0
  -31.6661  -14.3415   19.8612 C   0  0  0  0  0  0  0  0  0  0  0  0
  -25.9999  -26.4730   19.8631 C   0  0  0  0  0  0  0  0  0  0  0  0
  -31.3008  -15.8134   20.0496 C   0  0  0  0  0  0  0  0  0  0  0  0
  -30.4636  -13.5218   19.4041 C   0  0  0  0  0  0  0  0  0  0  0  0
  -28.9063  -15.1082   20.4902 C   0  0  0  0  0  0  0  0  0  0  0  0
  -24.6702  -27.1704   20.1765 C   0  0  1  0  0  0  0  0  0  0  0  0
  -25.7534  -10.4800   20.5127 C   0  0  1  0  0  0  0  0  0  0  0  0
  -22.4584  -24.5919   21.8753 C   0  0  1  0  0  0  0  0  0  0  0  0
  -24.6664   -9.6416   21.2148 C   0  0  1  0  0  0  0  0  0  0  0  0
  -30.0856  -15.9664   20.9814 C   0  0  2  0  0  0  0  0  0  0  0  0
  -23.1937  -12.0266   19.1916 C   0  0  0  0  0  0  0  0  0  0  0  0
  -24.8627   -9.6485   22.7348 C   0  0  0  0  0  0  0  0  0  0  0  0
  -21.9065  -12.7572   19.6447 C   0  0  0  0  0  0  0  0  0  0  0  0
  -23.4057  -12.3356   17.6882 C   0  0  0  0  0  0  0  0  0  0  0  0
  -25.0789  -22.1054   28.4851 C   0  0  0  0  0  0  0  0  0  0  0  0
  -26.1650  -26.9160   24.2762 C   0  0  0  0  0  0  0  0  0  0  0  0
  -26.9901  -25.4237   26.1093 C   0  0  0  0  0  0  0  0  0  0  0  0
  -24.7742  -26.5494   26.3221 C   0  0  0  0  0  0  0  0  0  0  0  0
  -24.8133  -19.7230   25.5306 C   0  0  0  0  0  0  0  0  0  0  0  0
  -27.5373  -12.8775   21.7929 C   0  0  0  0  0  0  0  0  0  0  0  0
  -24.5780  -16.4015   20.0052 C   0  0  0  0  0  0  0  0  0  0  0  0
  -23.8503  -15.0765   19.7673 C   0  0  0  0  0  0  0  0  0  0  0  0
  -23.7345  -17.6239   19.6625 C   0  0  0  0  0  0  0  0  0  1  0  0
  -25.0389  -24.6310   24.6967 C   0  0  1  0  0  0  0  0  0  0  0  0
  -24.7196  -21.6900   27.0670 C   0  0  2  0  0  0  0  0  0  0  0  0
  -25.7377  -25.8697   25.3249 C   0  0  0  0  0  0  0  0  0  0  0  0
  -29.8765  -18.2737   20.1354 N   0  0  0  0  0  0  0  0  0  0  0  0
  -25.7306  -14.1879   20.8585 N   0  0  0  0  0  0  0  0  0  0  0  0
  -24.6089  -13.9179   20.1729 N   0  0  0  0  0  0  0  0  0  0  0  0
  -29.6919  -17.4214   21.1580 N   0  0  0  0  0  0  0  0  0  0  0  0
  -23.5055  -24.1729   22.8092 N   0  0  0  0  0  0  0  0  0  0  0  0
  -29.3234  -13.7117   20.3024 N   0  0  0  0  0  0  0  0  0  0  0  0
  -28.8996  -17.2881   23.3862 N   0  0  0  0  0  0  0  0  0  0  0  0
  -29.3006  -21.0527   23.6351 N   0  0  0  0  0  0  0  0  0  0  0  0
  -23.9230  -26.3624   21.1149 N   0  0  0  0  0  0  0  0  0  0  0  0
  -24.5992  -23.6361   25.6689 N   0  0  0  0  0  0  0  0  0  0  0  0
  -25.1284  -20.2698   26.8754 N   0  3  0  0  0  0  0  0  0  0  0  0
  -27.1937  -20.5666   22.8712 O   0  0  0  0  0  0  0  0  0  0  0  0
  -22.9771  -24.8786   19.5897 O   0  0  0  0  0  0  0  0  0  0  0  0
  -29.0502  -11.4349   20.6784 O   0  0  0  0  0  0  0  0  0  0  0  0
  -23.1586  -25.9962   24.2203 O   0  0  0  0  0  0  0  0  0  0  0  0
  -26.5332  -22.3578   25.6171 O   0  0  0  0  0  0  0  0  0  0  0  0
  -29.5612  -24.0458   17.4642 O   0  0  0  0  0  0  0  0  0  0  0  0
  -24.4943  -18.7942   19.9364 O   0  0  0  0  0  0  0  0  0  1  0  0
  -33.4429  -27.8030   18.5684 F   0  0  0  0  0  0  0  0  0  0  0  0
  -31.4289  -24.7587   15.5548 F   0  0  0  0  0  0  0  0  0  0  0  0
  -25.8473  -10.0427   19.2199 F   0  0  0  0  0  0  0  0  0  0  0  0
  1  2  1  0  0  0  0
  1  5  2  0  0  0  0
  2  6  2  0  0  0  0
  3  8  2  0  0  0  0
  3 15  1  0  0  0  0
  4  9  1  0  0  0  0
  4 15  2  0  0  0  0
  5 17  1  0  0  0  0
  6 19  1  0  0  0  0
  7 10  2  0  0  0  0
  7 18  1  0  0  0  0
  8 22  1  0  0  0  0
  9 22  2  0  0  0  0
 10 23  1  0  0  0  0
 11 12  2  0  0  0  0
 11 24  1  0  0  0  0
 12 25  1  0  0  0  0
 13 20  1  0  0  0  0
 13 23  2  0  0  0  0
 14 25  2  0  0  0  0
 14 26  1  0  0  0  0
 15 27  1  0  0  0  0
 16 27  1  0  0  0  0
 16 30  2  0  0  0  0
 16 33  1  0  0  0  0
 17 19  2  0  0  0  0
 17 38  1  0  0  0  0
 18 20  2  0  0  0  0
 18 39  1  0  0  0  0
 19 48  1  0  0  0  0
 20 40  1  0  0  0  0
 21 28  2  0  0  0  0
 21 29  1  0  0  0  0
 21 49  1  0  0  0  0
 22 85  1  0  0  0  0
 23 86  1  0  0  0  0
 24 26  2  0  0  0  0
 24 85  1  0  0  0  0
 25 87  1  0  0  0  0
 26 88  1  0  0  0  0
 27 69  2  0  0  0  0
 28 53  1  0  0  0  0
 28 71  1  0  0  0  0
 29 62  1  0  0  0  0
 29 70  2  0  0  0  0
 30 72  1  0  0  0  0
 30 75  1  0  0  0  0
 31 32  2  0  0  0  0
 31 41  1  0  0  0  0
 31 53  1  0  0  0  0
 33 76  1  0  0  0  0
 33 80  2  0  0  0  0
 34 50  1  0  0  0  0
 34 77  1  0  0  0  0
 34 81  2  0  0  0  0
 35 62  1  0  0  0  0
 35 74  1  0  0  0  0
 35 82  2  0  0  0  0
 36 66  1  0  0  0  0
 36 73  1  0  0  0  0
 36 83  2  0  0  0  0
 37 67  1  0  0  0  0
 37 78  1  0  0  0  0
 37 84  2  0  0  0  0
 38 42  1  0  0  0  0
 39 50  1  0  0  0  0
 40 73  1  0  0  0  0
 41 51  1  0  0  0  0
 42 44  1  0  0  0  0
 43 45  1  0  0  0  0
 43 46  1  0  0  0  0
 44 48  1  0  0  0  0
 45 52  1  0  0  0  0
 46 74  1  0  0  0  0
 47 52  1  0  0  0  0
 47 74  1  0  0  0  0
 48 77  1  0  0  0  0
 49 51  1  0  0  0  0
 49 89  1  0  0  0  0
 50 73  1  0  0  0  0
 51 54  1  0  0  0  0
 52 72  1  0  0  0  0
 53 55  1  0  0  0  0
 53 56  1  0  0  0  0
 57 67  1  0  0  0  0
 58 68  1  0  0  0  0
 59 68  1  0  0  0  0
 60 68  1  0  0  0  0
 61 79  1  0  0  0  0
 63 64  1  0  0  0  0
 63 65  1  0  0  0  0
 64 71  1  0  0  0  0
 65 86  1  0  0  0  0
 66 68  1  0  0  0  0
 66 78  1  0  0  0  0
 67 79  1  0  0  0  0
 69 72  1  0  0  0  0
 70 71  1  0  0  0  0
M  CHG  1  79   1
M  ISO  4  35 100  62 100  65 101  86 101
M  END
> <Batch ID>
0030

> <Smiles>
C=C1CC(C)C(F)c2c([100CH2:0][100C:0](=O)N3CCCC(n4nc(-c5ccc(Oc6ccc(F)cc6F)cc5)c(C(N)=O)c4N)C3)nn(CC[101CH2:1][101O:1]c3ccc4c(c3)CN(C(=O)C(NC(=O)C(C)NC)C(C)(C)C)C(C(=O)NC3CCCc5ccccc53)C4)c2C1(C)C

> <Shape>
0.239

> <Color>
0.066

> <Negative vol penalty>
0.000

$$$$

  -OEChem-04052316393D

 84 92  0     1  0  0  0  0  0999 V2000
  -22.7512  -11.4063   18.3712 C   0  0  0  0  0  0  0  0  0  0  0  0
  -22.2764  -12.7046   18.5271 C   0  0  0  0  0  0  0  0  0  0  0  0
  -29.7124  -27.7720   18.9950 C   0  0  0  0  0  0  0  0  0  0  0  0
  -29.6453  -27.9431   21.4040 C   0  0  0  0  0  0  0  0  0  0  0  0
  -23.8953  -10.9968   19.0547 C   0  0  0  0  0  0  0  0  0  0  0  0
  -22.9450  -13.5940   19.3676 C   0  0  0  0  0  0  0  0  0  0  0  0
  -23.5787  -19.6342   18.5796 C   0  0  0  0  0  0  0  0  0  0  0  0
  -31.1067  -27.7763   19.0335 C   0  0  0  0  0  0  0  0  0  0  0  0
  -31.0396  -27.9474   21.4426 C   0  0  0  0  0  0  0  0  0  0  0  0
  -22.8928  -20.7263   19.1093 C   0  0  0  0  0  0  0  0  0  0  0  0
  -33.5813  -30.0511   19.3887 C   0  0  0  0  0  0  0  0  0  0  0  0
  -34.2516  -30.8634   18.4743 C   0  0  0  0  0  0  0  0  0  0  0  0
  -24.5849  -20.9547   20.8135 C   0  0  0  0  0  0  0  0  0  0  0  0
  -19.8190  -25.9665   23.7571 C   0  0  0  0  0  0  0  0  0  0  0  0
  -18.7025  -27.7772   21.9522 C   0  0  0  0  0  0  0  0  0  0  0  0
  -35.3549  -28.9198   17.5565 C   0  0  0  0  0  0  0  0  0  0  0  0
  -28.9817  -27.8555   20.1803 C   0  0  0  0  0  0  0  0  0  0  0  0
  -26.6924  -26.7301   20.1973 C   0  0  0  0  0  0  0  0  0  0  0  0
  -24.5838  -11.8846   19.8965 C   0  0  0  0  0  0  0  0  0  0  0  0
  -24.7692  -19.1866   19.1704 C   0  0  0  0  0  0  0  0  0  0  0  0
  -24.0987  -13.1957   20.0641 C   0  0  0  0  0  0  0  0  0  0  0  0
  -25.2853  -19.8583   20.2878 C   0  0  0  0  0  0  0  0  0  0  0  0
  -20.1890  -27.3107   23.7988 C   0  0  0  0  0  0  0  0  0  0  0  0
  -18.8908  -25.5276   22.8129 C   0  0  0  0  0  0  0  0  0  0  0  0
  -19.6307  -28.2161   22.8964 C   0  0  0  0  0  0  0  0  0  0  0  0
  -31.7703  -27.8639   20.2573 C   0  0  0  0  0  0  0  0  0  0  0  0
  -23.3943  -21.3849   20.2281 C   0  0  0  0  0  0  0  0  0  0  0  0
  -33.7978  -28.6731   19.3872 C   0  0  0  0  0  0  0  0  0  0  0  0
  -35.1384  -30.2978   17.5581 C   0  0  0  0  0  0  0  0  0  0  0  0
  -34.6846  -28.1075   18.4711 C   0  0  0  0  0  0  0  0  0  0  0  0
  -18.3325  -26.4329   21.9105 C   0  0  0  0  0  0  0  0  0  0  0  0
  -27.5414  -27.8517   20.1411 C   0  0  0  0  0  0  0  0  0  0  0  0
  -25.4251  -27.2549   20.1256 C   0  0  0  0  0  0  0  0  0  0  0  0
  -27.0200  -25.3385   20.3048 C   0  0  0  0  0  0  0  0  0  0  0  0
  -25.7070  -16.4853   20.5586 C   0  0  0  0  0  0  0  0  0  0  0  0
  -28.5937  -17.9644   20.5975 C   0  0  0  0  0  0  0  0  0  0  0  0
  -30.3511  -20.8896   20.5571 C   0  0  0  0  0  0  0  0  0  0  0  0
  -21.6363  -31.0535   21.6622 C   0  0  0  0  0  0  0  0  0  0  0  0
  -25.7890  -11.3821   20.6513 C   0  0  0  0  0  0  0  0  0  0  0  0
  -25.5111  -18.0236   18.5709 C   0  0  0  0  0  0  0  0  0  0  0  0
  -26.5700  -19.4299   20.9470 C   0  0  0  0  0  0  0  0  0  0  0  0
  -26.6532  -12.4986   21.2316 C   0  0  0  0  0  0  0  0  0  0  0  0
  -23.8577  -31.9362   19.0235 C   0  0  0  0  0  0  0  0  0  0  0  0
  -25.7834  -13.5376   21.9323 C   0  0  0  0  0  0  0  0  0  0  0  0
  -24.9466  -30.8638   19.0878 C   0  0  0  0  0  0  0  0  0  0  0  0
  -23.3614  -32.3209   20.4155 C   0  0  0  0  0  0  0  0  0  0  0  0
  -24.0019  -30.1165   21.3122 C   0  0  0  0  0  0  0  0  0  0  0  0
  -24.8104  -14.1971   20.9476 C   0  0  1  0  0  0  0  0  0  0  0  0
  -26.4440  -17.3349   19.5622 C   0  0  1  0  0  0  0  0  0  0  0  0
  -24.4945  -29.6555   19.9298 C   0  0  2  0  0  0  0  0  0  0  0  0
  -21.1862  -27.7583   24.8165 C   0  0  0  0  0  0  0  0  0  0  0  0
  -32.6957  -21.7803   20.6379 C   0  0  0  0  0  0  0  0  0  0  0  0
  -28.7019  -17.4009   23.5943 C   0  0  0  0  0  0  0  0  0  0  0  0
  -30.5354  -19.0960   23.7762 C   0  0  0  0  0  0  0  0  0  0  0  0
  -30.8643  -17.0497   22.3881 C   0  0  0  0  0  0  0  0  0  0  0  0
  -30.0850  -22.1570   17.8959 C   0  0  0  0  0  0  0  0  0  0  0  0
  -18.5178  -24.0665   22.8009 C   0  0  0  0  0  0  0  0  0  0  0  0
  -20.0139  -29.6595   22.9206 C   0  0  0  0  0  0  0  0  0  0  0  0
  -19.1691  -23.2705   21.6645 C   0  0  0  0  0  0  0  0  0  0  0  0
  -20.6949  -23.2303   21.7597 C   0  0  0  0  0  0  0  0  0  0  0  0
  -21.3078  -22.4659   20.5942 C   0  0  0  0  0  0  0  0  0  1  0  0
  -29.3173  -18.8714   21.5633 C   0  0  1  0  0  0  0  0  0  0  0  0
  -31.5523  -21.3318   19.7411 C   0  0  2  0  0  0  0  0  0  0  0  0
  -29.8295  -18.1116   22.8195 C   0  0  0  0  0  0  0  0  0  0  0  0
  -26.8701  -29.0021   20.0412 N   0  0  0  0  0  0  0  0  0  0  0  0
  -25.5858  -28.6062   20.0340 N   0  0  0  0  0  0  0  0  0  0  0  0
  -27.2554  -18.2836   20.3276 N   0  0  0  0  0  0  0  0  0  0  0  0
  -22.9464  -31.1303   21.1613 N   0  0  0  0  0  0  0  0  0  0  0  0
  -24.2001  -26.6876   20.1325 N   0  0  0  0  0  0  0  0  0  0  0  0
  -28.3716  -24.9732   20.3677 N   0  0  0  0  0  0  0  0  0  0  0  0
  -25.4976  -15.1843   20.1427 N   0  0  0  0  0  0  0  0  0  0  0  0
  -30.3671  -19.5315   20.7949 N   0  0  0  0  0  0  0  0  0  0  0  0
  -21.3233  -29.8883   22.3516 N   0  0  0  0  0  0  0  0  0  0  0  0
  -31.1827  -22.4661   18.8480 N   0  3  0  0  0  0  0  0  0  0  0  0
  -26.1407  -24.4442   20.3275 O   0  0  0  0  0  0  0  0  0  0  0  0
  -25.3557  -16.9735   21.6263 O   0  0  0  0  0  0  0  0  0  0  0  0
  -29.1959  -17.0120   20.0955 O   0  0  0  0  0  0  0  0  0  0  0  0
  -29.4870  -21.6713   20.9478 O   0  0  0  0  0  0  0  0  0  0  0  0
  -20.8055  -31.9541   21.5021 O   0  0  0  0  0  0  0  0  0  0  0  0
  -33.1309  -27.8679   20.2953 O   0  0  0  0  0  0  0  0  0  0  0  0
  -22.7265  -22.4508   20.7476 O   0  0  0  0  0  0  0  0  0  1  0  0
  -35.7809  -31.0778   16.6790 F   0  0  0  0  0  0  0  0  0  0  0  0
  -34.8958  -26.7842   18.4640 F   0  0  0  0  0  0  0  0  0  0  0  0
  -17.1813  -25.9265   20.7282 Cl  0  0  0  0  0  0  0  0  0  0  0  0
  1  2  1  0  0  0  0
  1  5  2  0  0  0  0
  2  6  2  0  0  0  0
  3  8  2  0  0  0  0
  3 17  1  0  0  0  0
  4  9  1  0  0  0  0
  4 17  2  0  0  0  0
  5 19  1  0  0  0  0
  6 21  1  0  0  0  0
  7 10  2  0  0  0  0
  7 20  1  0  0  0  0
  8 26  1  0  0  0  0
  9 26  2  0  0  0  0
 10 27  1  0  0  0  0
 11 12  2  0  0  0  0
 11 28  1  0  0  0  0
 12 29  1  0  0  0  0
 13 22  1  0  0  0  0
 13 27  2  0  0  0  0
 14 23  2  0  0  0  0
 14 24  1  0  0  0  0
 15 25  2  0  0  0  0
 15 31  1  0  0  0  0
 16 29  2  0  0  0  0
 16 30  1  0  0  0  0
 17 32  1  0  0  0  0
 18 32  1  0  0  0  0
 18 33  2  0  0  0  0
 18 34  1  0  0  0  0
 19 21  2  0  0  0  0
 19 39  1  0  0  0  0
 20 22  2  0  0  0  0
 20 40  1  0  0  0  0
 21 48  1  0  0  0  0
 22 41  1  0  0  0  0
 23 25  1  0  0  0  0
 23 51  1  0  0  0  0
 24 31  2  0  0  0  0
 24 57  1  0  0  0  0
 25 58  1  0  0  0  0
 26 80  1  0  0  0  0
 27 81  1  0  0  0  0
 28 30  2  0  0  0  0
 28 80  1  0  0  0  0
 29 82  1  0  0  0  0
 30 83  1  0  0  0  0
 31 84  1  0  0  0  0
 32 65  2  0  0  0  0
 33 66  1  0  0  0  0
 33 69  1  0  0  0  0
 34 70  1  0  0  0  0
 34 75  2  0  0  0  0
 35 49  1  0  0  0  0
 35 71  1  0  0  0  0
 35 76  2  0  0  0  0
 36 62  1  0  0  0  0
 36 67  1  0  0  0  0
 36 77  2  0  0  0  0
 37 63  1  0  0  0  0
 37 72  1  0  0  0  0
 37 78  2  0  0  0  0
 38 68  1  0  0  0  0
 38 73  1  0  0  0  0
 38 79  2  0  0  0  0
 39 42  1  0  0  0  0
 40 49  1  0  0  0  0
 41 67  1  0  0  0  0
 42 44  1  0  0  0  0
 43 45  1  0  0  0  0
 43 46  1  0  0  0  0
 44 48  1  0  0  0  0
 45 50  1  0  0  0  0
 46 68  1  0  0  0  0
 47 50  1  0  0  0  0
 47 68  1  0  0  0  0
 48 71  1  0  0  0  0
 49 67  1  0  0  0  0
 50 66  1  0  0  0  0
 52 63  1  0  0  0  0
 53 64  1  0  0  0  0
 54 64  1  0  0  0  0
 55 64  1  0  0  0  0
 56 74  1  0  0  0  0
 57 59  1  0  0  0  0
 58 73  1  0  0  0  0
 59 60  1  0  0  0  0
 60 61  1  0  0  0  0
 61 81  1  0  0  0  0
 62 64  1  0  0  0  0
 62 72  1  0  0  0  0
 63 74  1  0  0  0  0
 65 66  1  0  0  0  0
M  CHG  1  74   1
M  ISO  4  38 100  61 101  73 100  81 101
M  END
> <Batch ID>
0030

> <Smiles>
CNC(C)C(=O)NC(C(=O)N1Cc2cc([101O:1][101CH2:1]CCCc3cc(C)c(C[100NH:0][100C:0](=O)N4CCCC(n5nc(-c6ccc(Oc7ccc(F)cc7F)cc6)c(C(N)=O)c5N)C4)cc3Cl)ccc2CC1C(=O)NC1CCCc2ccccc21)C(C)(C)C

> <Shape>
0.227

> <Color>
0.086

> <Negative vol penalty>
0.000

$$$$

  -OEChem-04052316393D

 83 91  0     1  0  0  0  0  0999 V2000
  -29.1999  -28.6748   12.4694 C   0  0  0  0  0  0  0  0  0  0  0  0
  -28.8213  -27.3646   12.7441 C   0  0  0  0  0  0  0  0  0  0  0  0
  -23.0671   -9.8794   19.9385 C   0  0  0  0  0  0  0  0  0  0  0  0
  -23.8342   -9.8738   22.2295 C   0  0  0  0  0  0  0  0  0  0  0  0
  -29.7210  -29.4760   13.4846 C   0  0  0  0  0  0  0  0  0  0  0  0
  -28.9646  -26.8545   14.0339 C   0  0  0  0  0  0  0  0  0  0  0  0
  -25.2815  -22.8442   16.8372 C   0  0  0  0  0  0  0  0  0  0  0  0
  -22.3203   -8.7276   20.1857 C   0  0  0  0  0  0  0  0  0  0  0  0
  -23.0873   -8.7220   22.4767 C   0  0  0  0  0  0  0  0  0  0  0  0
  -25.3662  -21.4654   17.0251 C   0  0  0  0  0  0  0  0  0  0  0  0
  -19.8585   -7.9318   23.0859 C   0  0  0  0  0  0  0  0  0  0  0  0
  -19.1051   -7.8891   24.2590 C   0  0  0  0  0  0  0  0  0  0  0  0
  -26.3304  -21.8280   19.2064 C   0  0  0  0  0  0  0  0  0  0  0  0
  -30.6266  -18.7208   17.7856 C   0  0  0  0  0  0  0  0  0  0  0  0
  -28.5864  -17.8756   19.4902 C   0  0  0  0  0  0  0  0  0  0  0  0
  -20.3426   -5.9445   24.9829 C   0  0  0  0  0  0  0  0  0  0  0  0
  -23.8241  -10.4526   20.9604 C   0  0  0  0  0  0  0  0  0  0  0  0
  -24.1736  -12.9771   20.8505 C   0  0  0  0  0  0  0  0  0  0  0  0
  -29.8618  -28.9785   14.7897 C   0  0  0  0  0  0  0  0  0  0  0  0
  -25.7314  -23.7268   17.8297 C   0  0  0  0  0  0  0  0  0  0  0  0
  -29.4894  -27.6493   15.0672 C   0  0  0  0  0  0  0  0  0  0  0  0
  -26.2479  -23.2176   19.0297 C   0  0  0  0  0  0  0  0  0  0  0  0
  -30.8543  -18.6399   19.1593 C   0  0  0  0  0  0  0  0  0  0  0  0
  -29.3787  -18.3793   17.2642 C   0  0  0  0  0  0  0  0  0  0  0  0
  -29.8342  -18.2172   20.0117 C   0  0  0  0  0  0  0  0  0  0  0  0
  -28.3586  -17.9566   18.1165 C   0  0  0  0  0  0  0  0  0  0  0  0
  -22.3304   -8.1489   21.4548 C   0  0  0  0  0  0  0  0  0  0  0  0
  -25.8934  -20.9570   18.2087 C   0  0  0  0  0  0  0  0  0  0  0  0
  -20.8539   -6.9808   22.8613 C   0  0  0  0  0  0  0  0  0  0  0  0
  -19.3472   -6.8955   25.2075 C   0  0  0  0  0  0  0  0  0  0  0  0
  -21.0960   -5.9872   23.8098 C   0  0  0  0  0  0  0  0  0  0  0  0
  -24.5962  -11.6421   20.7055 C   0  0  0  0  0  0  0  0  0  0  0  0
  -25.2670  -13.7247   20.4871 C   0  0  0  0  0  0  0  0  0  0  0  0
  -22.9061  -13.4951   21.2757 C   0  0  0  0  0  0  0  0  0  0  0  0
  -27.9876  -25.9601   17.9902 C   0  0  0  0  0  0  0  0  0  0  0  0
  -26.6737  -26.5257   20.9015 C   0  0  0  0  0  0  0  0  0  0  0  0
  -24.8566  -25.3464   23.5386 C   0  0  0  0  0  0  0  0  0  0  0  0
  -30.7546  -14.7253   20.6626 C   0  0  0  0  0  0  0  0  0  0  0  0
  -30.4741  -29.8672   15.8432 C   0  0  0  0  0  0  0  0  0  0  0  0
  -25.6085  -25.2115   17.6226 C   0  0  0  0  0  0  0  0  0  0  0  0
  -26.7259  -24.1227   20.1346 C   0  0  0  0  0  0  0  0  0  0  0  0
  -30.2444  -29.3700   17.2681 C   0  0  0  0  0  0  0  0  0  0  0  0
  -29.6018  -12.3551   18.2690 C   0  0  0  0  0  0  0  0  0  0  0  0
  -30.5409  -27.8769   17.3668 C   0  0  0  0  0  0  0  0  0  0  0  0
  -28.1648  -12.0640   18.7051 C   0  0  0  0  0  0  0  0  0  0  0  0
  -30.5234  -12.5677   19.4679 C   0  0  0  0  0  0  0  0  0  0  0  0
  -28.6284  -13.2987   20.8637 C   0  0  0  0  0  0  0  0  0  0  0  0
  -29.6064  -27.0677   16.4593 C   0  0  1  0  0  0  0  0  0  0  0  0
  -26.5714  -26.0175   18.4889 C   0  0  1  0  0  0  0  0  0  0  0  0
  -27.6500  -13.1324   19.6884 C   0  0  2  0  0  0  0  0  0  0  0  0
  -32.1985  -19.0100   19.6946 C   0  0  0  0  0  0  0  0  0  0  0  0
  -29.1579  -18.4747   15.7902 C   0  0  0  0  0  0  0  0  0  0  0  0
  -23.9789  -26.0289   25.7883 C   0  0  0  0  0  0  0  0  0  0  0  0
  -29.4678  -26.2076   22.0855 C   0  0  0  0  0  0  0  0  0  0  0  0
  -28.4077  -25.9491   24.3389 C   0  0  0  0  0  0  0  0  0  0  0  0
  -28.1256  -28.0760   23.0663 C   0  0  0  0  0  0  0  0  0  0  0  0
  -22.0488  -24.9448   22.6939 C   0  0  0  0  0  0  0  0  0  0  0  0
  -30.0550  -18.1221   21.4857 C   0  0  0  0  0  0  0  0  0  0  0  0
  -27.0000  -17.5826   17.5755 C   0  0  0  0  0  0  0  0  0  0  0  0
  -30.8312  -16.8702   21.9088 C   0  0  0  0  0  0  0  0  0  0  0  0
  -26.1566  -18.8052   17.2307 C   0  0  0  0  0  0  0  0  0  1  0  0
  -26.9030  -26.0007   22.2982 C   0  0  1  0  0  0  0  0  0  0  0  0
  -23.6840  -25.9388   24.2991 C   0  0  2  0  0  0  0  0  0  0  0  0
  -28.2189  -26.5410   22.9258 C   0  0  0  0  0  0  0  0  0  0  0  0
  -25.8594  -11.5441   20.2828 N   0  0  0  0  0  0  0  0  0  0  0  0
  -26.2400  -12.8270   20.1590 N   0  0  0  0  0  0  0  0  0  0  0  0
  -26.5907  -25.5668   19.8820 N   0  0  0  0  0  0  0  0  0  0  0  0
  -29.9790  -13.5940   20.3602 N   0  0  0  0  0  0  0  0  0  0  0  0
  -25.4815  -15.0558   20.4193 N   0  0  0  0  0  0  0  0  0  0  0  0
  -21.8924  -12.5877   21.6121 N   0  0  0  0  0  0  0  0  0  0  0  0
  -28.2989  -26.9393   17.0663 N   0  0  0  0  0  0  0  0  0  0  0  0
  -25.7010  -26.3251   23.0587 N   0  0  0  0  0  0  0  0  0  0  0  0
  -30.1611  -15.6523   21.5107 N   0  0  0  0  0  0  0  0  0  0  0  0
  -22.4672  -25.0992   24.1109 N   0  3  0  0  0  0  0  0  0  0  0  0
  -22.6740  -14.7262   21.3392 O   0  0  0  0  0  0  0  0  0  0  0  0
  -28.7426  -25.0925   18.4135 O   0  0  0  0  0  0  0  0  0  0  0  0
  -26.5648  -27.7413   20.7227 O   0  0  0  0  0  0  0  0  0  0  0  0
  -25.0103  -24.1362   23.3887 O   0  0  0  0  0  0  0  0  0  0  0  0
  -31.8897  -14.8992   20.2062 O   0  0  0  0  0  0  0  0  0  0  0  0
  -21.6016   -7.0250   21.6965 O   0  0  0  0  0  0  0  0  0  0  0  0
  -25.9778  -19.6116   18.3944 O   0  0  0  0  0  0  0  0  0  1  0  0
  -18.6247   -6.8555   26.3347 F   0  0  0  0  0  0  0  0  0  0  0  0
  -22.0517   -5.0715   23.6001 F   0  0  0  0  0  0  0  0  0  0  0  0
  1  2  1  0  0  0  0
  1  5  2  0  0  0  0
  2  6  2  0  0  0  0
  3  8  2  0  0  0  0
  3 17  1  0  0  0  0
  4  9  1  0  0  0  0
  4 17  2  0  0  0  0
  5 19  1  0  0  0  0
  6 21  1  0  0  0  0
  7 10  2  0  0  0  0
  7 20  1  0  0  0  0
  8 27  1  0  0  0  0
  9 27  2  0  0  0  0
 10 28  1  0  0  0  0
 11 12  2  0  0  0  0
 11 29  1  0  0  0  0
 12 30  1  0  0  0  0
 13 22  1  0  0  0  0
 13 28  2  0  0  0  0
 14 23  2  0  0  0  0
 14 24  1  0  0  0  0
 15 25  2  0  0  0  0
 15 26  1  0  0  0  0
 16 30  2  0  0  0  0
 16 31  1  0  0  0  0
 17 32  1  0  0  0  0
 18 32  1  0  0  0  0
 18 33  2  0  0  0  0
 18 34  1  0  0  0  0
 19 21  2  0  0  0  0
 19 39  1  0  0  0  0
 20 22  2  0  0  0  0
 20 40  1  0  0  0  0
 21 48  1  0  0  0  0
 22 41  1  0  0  0  0
 23 25  1  0  0  0  0
 23 51  1  0  0  0  0
 24 26  2  0  0  0  0
 24 52  1  0  0  0  0
 25 58  1  0  0  0  0
 26 59  1  0  0  0  0
 27 80  1  0  0  0  0
 28 81  1  0  0  0  0
 29 31  2  0  0  0  0
 29 80  1  0  0  0  0
 30 82  1  0  0  0  0
 31 83  1  0  0  0  0
 32 65  2  0  0  0  0
 33 66  1  0  0  0  0
 33 69  1  0  0  0  0
 34 70  1  0  0  0  0
 34 75  2  0  0  0  0
 35 49  1  0  0  0  0
 35 71  1  0  0  0  0
 35 76  2  0  0  0  0
 36 62  1  0  0  0  0
 36 67  1  0  0  0  0
 36 77  2  0  0  0  0
 37 63  1  0  0  0  0
 37 72  1  0  0  0  0
 37 78  2  0  0  0  0
 38 68  1  0  0  0  0
 38 73  1  0  0  0  0
 38 79  2  0  0  0  0
 39 42  1  0  0  0  0
 40 49  1  0  0  0  0
 41 67  1  0  0  0  0
 42 44  1  0  0  0  0
 43 45  1  0  0  0  0
 43 46  1  0  0  0  0
 44 48  1  0  0  0  0
 45 50  1  0  0  0  0
 46 68  1  0  0  0  0
 47 50  1  0  0  0  0
 47 68  1  0  0  0  0
 48 71  1  0  0  0  0
 49 67  1  0  0  0  0
 50 66  1  0  0  0  0
 53 63  1  0  0  0  0
 54 64  1  0  0  0  0
 55 64  1  0  0  0  0
 56 64  1  0  0  0  0
 57 74  1  0  0  0  0
 58 60  1  0  0  0  0
 59 61  1  0  0  0  0
 60 73  1  0  0  0  0
 61 81  1  0  0  0  0
 62 64  1  0  0  0  0
 62 72  1  0  0  0  0
 63 74  1  0  0  0  0
 65 66  1  0  0  0  0
M  CHG  1  74   1
M  ISO  4  38 100  61 101  73 100  81 101
M  END
> <Batch ID>
0030

> <Smiles>
CNC(C)C(=O)NC(C(=O)N1Cc2cc([101O:1][101CH2:1]Cc3cc(CC[100NH:0][100C:0](=O)N4CCCC(n5nc(-c6ccc(Oc7ccc(F)cc7F)cc6)c(C(N)=O)c5N)C4)c(C)cc3C)ccc2CC1C(=O)NC1CCCc2ccccc21)C(C)(C)C

> <Shape>
0.232

> <Color>
0.201

> <Negative vol penalty>
0.000

$$$$

  -OEChem-04052316393D

 92101  0     1  0  0  0  0  0999 V2000
  -27.8804  -30.9977   28.0330 C   0  0  0  0  0  0  0  0  0  0  0  0
  -28.0132  -30.1341   26.9504 C   0  0  0  0  0  0  0  0  0  0  0  0
  -20.1516  -16.7159   21.5054 C   0  0  0  0  0  0  0  0  0  0  0  0
  -20.4372  -14.8886   23.0599 C   0  0  0  0  0  0  0  0  0  0  0  0
  -26.6185  -31.4605   28.4034 C   0  0  0  0  0  0  0  0  0  0  0  0
  -26.8838  -29.7320   26.2381 C   0  0  0  0  0  0  0  0  0  0  0  0
  -27.5790  -29.9213   21.2255 C   0  0  0  0  0  0  0  0  0  0  0  0
  -18.9391  -17.0429   22.1125 C   0  0  0  0  0  0  0  0  0  0  0  0
  -19.2247  -15.2156   23.6671 C   0  0  0  0  0  0  0  0  0  0  0  0
  -28.3063  -28.8837   20.6440 C   0  0  0  0  0  0  0  0  0  0  0  0
  -15.9303  -14.7688   23.0521 C   0  0  0  0  0  0  0  0  0  0  0  0
  -15.0502  -13.7269   23.3446 C   0  0  0  0  0  0  0  0  0  0  0  0
  -26.2468  -27.8390   19.9467 C   0  0  0  0  0  0  0  0  0  0  0  0
  -29.7785  -15.7606   18.7010 C   0  0  0  0  0  0  0  0  0  0  0  0
  -15.1486  -14.3019   25.6891 C   0  0  0  0  0  0  0  0  0  0  0  0
  -31.6095  -15.9569   20.6955 C   0  0  0  0  0  0  0  0  0  0  0  0
  -20.9006  -15.6387   21.9791 C   0  0  0  0  0  0  0  0  0  0  0  0
  -23.4307  -15.7857   21.6884 C   0  0  0  0  0  0  0  0  0  0  0  0
  -25.4741  -31.0715   27.6894 C   0  0  0  0  0  0  0  0  0  0  0  0
  -26.1774  -29.9199   21.1815 C   0  0  0  0  0  0  0  0  0  0  0  0
  -25.6052  -30.1890   26.6001 C   0  0  0  0  0  0  0  0  0  0  0  0
  -25.5041  -28.8790   20.5262 C   0  0  0  0  0  0  0  0  0  0  0  0
  -29.9246  -17.0042   19.3385 C   0  0  0  0  0  0  0  0  0  0  0  0
  -30.8591  -17.0934   20.3857 C   0  0  0  0  0  0  0  0  0  0  0  0
  -18.4756  -16.2927   23.1933 C   0  0  0  0  0  0  0  0  0  0  0  0
  -27.6401  -27.8409   20.0069 C   0  0  0  0  0  0  0  0  0  0  0  0
  -16.4196  -15.5772   24.0782 C   0  0  0  0  0  0  0  0  0  0  0  0
  -14.6594  -13.4935   24.6631 C   0  0  0  0  0  0  0  0  0  0  0  0
  -16.0288  -15.3438   25.3967 C   0  0  0  0  0  0  0  0  0  0  0  0
  -22.1529  -15.3001   21.3521 C   0  0  0  0  0  0  0  0  0  0  0  0
  -30.5697  -14.6933   19.0998 C   0  0  0  0  0  0  0  0  0  0  0  0
  -24.2780  -15.1644   20.8038 C   0  0  0  0  0  0  0  0  0  0  0  0
  -23.8173  -16.7152   22.7093 C   0  0  0  0  0  0  0  0  0  0  0  0
  -23.8647  -29.8321   23.3604 C   0  0  0  0  0  0  0  0  0  0  0  0
  -21.9496  -30.2682   20.7788 C   0  0  0  0  0  0  0  0  0  0  0  0
  -21.5144  -29.9558   17.4084 C   0  0  0  0  0  0  0  0  0  0  0  0
  -25.9800  -10.5972   18.0855 C   0  0  0  0  0  0  0  0  0  0  0  0
  -24.1260  -31.5605   28.1564 C   0  0  0  0  0  0  0  0  0  0  0  0
  -25.4083  -31.0602   21.7903 C   0  0  0  0  0  0  0  0  0  0  0  0
  -31.1235  -18.3615   21.1450 C   0  0  0  0  0  0  0  0  0  0  0  0
  -24.0013  -28.8411   20.4336 C   0  0  0  0  0  0  0  0  0  0  0  0
  -23.0208  -31.3837   27.1183 C   0  0  0  0  0  0  0  0  0  0  0  0
  -30.0014  -19.3805   21.0097 C   0  0  0  0  0  0  0  0  0  0  0  0
  -23.2887  -12.4401   16.6582 C   0  0  0  0  0  0  0  0  0  0  0  0
  -23.0761  -29.9848   26.5126 C   0  0  0  0  0  0  0  0  0  0  0  0
  -22.8550  -13.3835   17.7815 C   0  0  0  0  0  0  0  0  0  0  0  0
  -23.7173  -11.0778   17.1992 C   0  0  0  0  0  0  0  0  0  0  0  0
  -24.3165  -12.0697   19.3743 C   0  0  0  0  0  0  0  0  0  0  0  0
  -24.4066  -29.7498   25.7874 C   0  0  1  0  0  0  0  0  0  0  0  0
  -23.9678  -30.6935   22.1336 C   0  0  1  0  0  0  0  0  0  0  0  0
  -23.9284  -13.4747   18.8828 C   0  0  2  0  0  0  0  0  0  0  0  0
  -29.6206  -19.5267   19.5398 C   0  0  1  0  0  0  0  0  0  0  0  0
  -29.0485  -18.2059   18.9301 C   0  0  0  0  0  0  0  0  0  0  0  0
  -27.6061  -17.9164   19.4101 C   0  0  0  0  0  0  0  0  0  0  0  0
  -29.0251  -18.3602   17.3882 C   0  0  0  0  0  0  0  0  0  0  0  0
  -19.8301  -30.3636   15.5934 C   0  0  0  0  0  0  0  0  0  0  0  0
  -20.3887  -27.8052   21.6773 C   0  0  0  0  0  0  0  0  0  0  0  0
  -19.3680  -27.7049   19.3933 C   0  0  0  0  0  0  0  0  0  0  0  0
  -18.9726  -29.6924   20.8480 C   0  0  0  0  0  0  0  0  0  0  0  0
  -23.3090  -31.8473   16.0081 C   0  0  0  0  0  0  0  0  0  0  0  0
  -30.4143  -13.3738   18.4197 C   0  0  0  0  0  0  0  0  0  0  0  0
  -29.3653  -12.4865   19.1071 C   0  0  0  0  0  0  0  0  0  0  0  0
  -29.2420  -11.1221   18.4223 C   0  0  0  0  0  0  0  0  0  0  0  0
  -28.1990  -23.0652   19.4187 C   0  0  0  0  0  0  0  0  0  0  0  0
  -28.8032  -24.4672   19.4392 C   0  0  0  0  0  0  0  0  0  0  0  0
  -28.2147  -10.2184   19.0963 C   0  0  0  0  0  0  0  0  0  0  0  0
  -29.2835  -22.0015   19.5034 C   0  0  0  0  0  0  0  0  0  0  0  0
  -27.7278  -25.5435   19.3983 C   0  0  0  0  0  0  0  0  0  1  0  0
  -21.2492  -29.3560   19.8009 C   0  0  1  0  0  0  0  0  0  0  0  0
  -21.0112  -30.9345   16.3627 C   0  0  2  0  0  0  0  0  0  0  0  0
  -20.0229  -28.6390   20.4331 C   0  0  0  0  0  0  0  0  0  0  0  0
  -31.4886  -14.7615   20.0809 N   0  0  0  0  0  0  0  0  0  0  0  0
  -22.1811  -14.4370   20.3331 N   0  0  0  0  0  0  0  0  0  0  0  0
  -23.4869  -14.3754   20.0215 N   0  0  0  0  0  0  0  0  0  0  0  0
  -23.2937  -29.9756   21.0499 N   0  0  0  0  0  0  0  0  0  0  0  0
  -24.7377  -11.2346   18.2385 N   0  0  0  0  0  0  0  0  0  0  0  0
  -25.6150  -15.2215   20.6264 N   0  0  0  0  0  0  0  0  0  0  0  0
  -22.8200  -17.2588   23.5304 N   0  0  0  0  0  0  0  0  0  0  0  0
  -24.4016  -30.4055   24.4972 N   0  0  0  0  0  0  0  0  0  0  0  0
  -20.9280  -30.1748   18.6370 N   0  0  0  0  0  0  0  0  0  0  0  0
  -26.8922  -10.8029   19.1132 N   0  0  0  0  0  0  0  0  0  0  0  0
  -28.6539  -20.6584   19.4345 N   0  3  0  0  0  0  0  0  0  0  0  0
  -22.0941  -31.2560   15.3906 N   0  3  0  0  0  0  0  0  0  0  0  0
  -25.0098  -17.0662   22.8775 O   0  0  0  0  0  0  0  0  0  0  0  0
  -23.3358  -28.7295   23.2817 O   0  0  0  0  0  0  0  0  0  0  0  0
  -21.3290  -31.2101   21.2782 O   0  0  0  0  0  0  0  0  0  0  0  0
  -22.3419  -29.0819   17.1593 O   0  0  0  0  0  0  0  0  0  0  0  0
  -26.2577   -9.9010   17.1030 O   0  0  0  0  0  0  0  0  0  0  0  0
  -17.2927  -16.6117   23.7861 O   0  0  0  0  0  0  0  0  0  0  0  0
  -28.3528  -26.8191   19.4349 O   0  0  0  0  0  0  0  0  0  1  0  0
  -13.8130  -12.4939   24.9436 F   0  0  0  0  0  0  0  0  0  0  0  0
  -16.4946  -16.1178   26.3865 F   0  0  0  0  0  0  0  0  0  0  0  0
  1  2  1  0  0  0  0
  1  5  2  0  0  0  0
  2  6  2  0  0  0  0
  3  8  2  0  0  0  0
  3 17  1  0  0  0  0
  4  9  1  0  0  0  0
  4 17  2  0  0  0  0
  5 19  1  0  0  0  0
  6 21  1  0  0  0  0
  7 10  2  0  0  0  0
  7 20  1  0  0  0  0
  8 25  1  0  0  0  0
  9 25  2  0  0  0  0
 10 26  1  0  0  0  0
 11 12  2  0  0  0  0
 11 27  1  0  0  0  0
 12 28  1  0  0  0  0
 13 22  1  0  0  0  0
 13 26  2  0  0  0  0
 14 23  1  0  0  0  0
 14 31  2  0  0  0  0
 15 28  2  0  0  0  0
 15 29  1  0  0  0  0
 16 24  1  0  0  0  0
 16 72  2  0  0  0  0
 17 30  1  0  0  0  0
 18 30  1  0  0  0  0
 18 32  2  0  0  0  0
 18 33  1  0  0  0  0
 19 21  2  0  0  0  0
 19 38  1  0  0  0  0
 20 22  2  0  0  0  0
 20 39  1  0  0  0  0
 21 49  1  0  0  0  0
 22 41  1  0  0  0  0
 23 24  2  0  0  0  0
 23 53  1  0  0  0  0
 24 40  1  0  0  0  0
 25 89  1  0  0  0  0
 26 90  1  0  0  0  0
 27 29  2  0  0  0  0
 27 89  1  0  0  0  0
 28 91  1  0  0  0  0
 29 92  1  0  0  0  0
 30 73  2  0  0  0  0
 31 61  1  0  0  0  0
 31 72  1  0  0  0  0
 32 74  1  0  0  0  0
 32 77  1  0  0  0  0
 33 78  1  0  0  0  0
 33 84  2  0  0  0  0
 34 50  1  0  0  0  0
 34 79  1  0  0  0  0
 34 85  2  0  0  0  0
 35 69  1  0  0  0  0
 35 75  1  0  0  0  0
 35 86  2  0  0  0  0
 36 70  1  0  0  0  0
 36 80  1  0  0  0  0
 36 87  2  0  0  0  0
 37 76  1  0  0  0  0
 37 81  1  0  0  0  0
 37 88  2  0  0  0  0
 38 42  1  0  0  0  0
 39 50  1  0  0  0  0
 40 43  1  0  0  0  0
 41 75  1  0  0  0  0
 42 45  1  0  0  0  0
 43 52  1  0  0  0  0
 44 46  1  0  0  0  0
 44 47  1  0  0  0  0
 45 49  1  0  0  0  0
 46 51  1  0  0  0  0
 47 76  1  0  0  0  0
 48 51  1  0  0  0  0
 48 76  1  0  0  0  0
 49 79  1  0  0  0  0
 50 75  1  0  0  0  0
 51 74  1  0  0  0  0
 52 53  1  0  0  0  0
 52 82  1  0  0  0  0
 53 54  1  0  0  0  0
 53 55  1  0  0  0  0
 56 70  1  0  0  0  0
 57 71  1  0  0  0  0
 58 71  1  0  0  0  0
 59 71  1  0  0  0  0
 60 83  1  0  0  0  0
 61 62  1  0  0  0  0
 62 63  1  0  0  0  0
 63 66  1  0  0  0  0
 64 65  1  0  0  0  0
 64 67  1  0  0  0  0
 65 68  1  0  0  0  0
 66 81  1  0  0  0  0
 67 82  1  0  0  0  0
 68 90  1  0  0  0  0
 69 71  1  0  0  0  0
 69 80  1  0  0  0  0
 70 83  1  0  0  0  0
 73 74  1  0  0  0  0
M  CHG  2  82   1  83   1
M  ISO  4  37 100  68 101  81 100  90 101
M  END
> <Batch ID>
0030

> <Smiles>
CNC(C)C(=O)NC(C(=O)N1Cc2cc([101O:1][101CH2:1]CCCNC3CCc4cnc(CCCC[100NH:0][100C:0](=O)N5CCCC(n6nc(-c7ccc(Oc8ccc(F)cc8F)cc7)c(C(N)=O)c6N)C5)cc4C3(C)C)ccc2CC1C(=O)NC1CCCc2ccccc21)C(C)(C)C

> <Shape>
0.224

> <Color>
0.123

> <Negative vol penalty>
0.000

$$$$

  -OEChem-04052316393D

 82 90  0     1  0  0  0  0  0999 V2000
  -27.0965  -17.0956   28.8329 C   0  0  0  0  0  0  0  0  0  0  0  0
  -27.6570  -17.6560   27.6896 C   0  0  0  0  0  0  0  0  0  0  0  0
  -19.2617  -28.6411   22.0047 C   0  0  0  0  0  0  0  0  0  0  0  0
  -20.4855  -26.9906   23.2755 C   0  0  0  0  0  0  0  0  0  0  0  0
  -26.8799  -15.7199   28.8993 C   0  0  0  0  0  0  0  0  0  0  0  0
  -28.0023  -16.8408   26.6123 C   0  0  0  0  0  0  0  0  0  0  0  0
  -26.5485  -18.7785   22.1652 C   0  0  0  0  0  0  0  0  0  0  0  0
  -18.1748  -27.7709   21.9213 C   0  0  0  0  0  0  0  0  0  0  0  0
  -19.3986  -26.1203   23.1921 C   0  0  0  0  0  0  0  0  0  0  0  0
  -27.3293  -19.8026   21.6311 C   0  0  0  0  0  0  0  0  0  0  0  0
  -15.6333  -26.7618   23.9101 C   0  0  0  0  0  0  0  0  0  0  0  0
  -14.3637  -27.2850   24.1549 C   0  0  0  0  0  0  0  0  0  0  0  0
  -28.4028  -18.2131   20.1681 C   0  0  0  0  0  0  0  0  0  0  0  0
  -29.4194  -26.5123   20.1539 C   0  0  0  0  0  0  0  0  0  0  0  0
  -28.4940  -25.9481   22.3132 C   0  0  0  0  0  0  0  0  0  0  0  0
  -13.6714  -26.6465   21.9300 C   0  0  0  0  0  0  0  0  0  0  0  0
  -20.4171  -28.2509   22.6818 C   0  0  0  0  0  0  0  0  0  0  0  0
  -21.7893  -30.1054   23.7706 C   0  0  0  0  0  0  0  0  0  0  0  0
  -27.2139  -14.8886   27.8186 C   0  0  0  0  0  0  0  0  0  0  0  0
  -26.6969  -17.4599   21.7116 C   0  0  0  0  0  0  0  0  0  0  0  0
  -27.7913  -15.4525   26.6648 C   0  0  0  0  0  0  0  0  0  0  0  0
  -27.6208  -17.1745   20.6962 C   0  0  0  0  0  0  0  0  0  0  0  0
  -30.2631  -25.4038   20.2259 C   0  0  0  0  0  0  0  0  0  0  0  0
  -29.3376  -24.8397   22.3851 C   0  0  0  0  0  0  0  0  0  0  0  0
  -30.2222  -24.5675   21.3415 C   0  0  0  0  0  0  0  0  0  0  0  0
  -28.5349  -26.7845   21.1976 C   0  0  0  0  0  0  0  0  0  0  0  0
  -18.2432  -26.5105   22.5150 C   0  0  0  0  0  0  0  0  0  0  0  0
  -28.2587  -19.5196   20.6345 C   0  0  0  0  0  0  0  0  0  0  0  0
  -15.9220  -26.1810   22.6752 C   0  0  0  0  0  0  0  0  0  0  0  0
  -13.3828  -27.2273   23.1649 C   0  0  0  0  0  0  0  0  0  0  0  0
  -14.9411  -26.1233   21.6852 C   0  0  0  0  0  0  0  0  0  0  0  0
  -21.5404  -29.1491   22.7679 C   0  0  0  0  0  0  0  0  0  0  0  0
  -22.9727  -30.6943   23.3973 C   0  0  0  0  0  0  0  0  0  0  0  0
  -21.0197  -30.4321   24.9354 C   0  0  0  0  0  0  0  0  0  0  0  0
  -27.5602  -14.7103   23.0525 C   0  0  0  0  0  0  0  0  0  0  0  0
  -26.7403  -13.4913   20.1605 C   0  0  0  0  0  0  0  0  0  0  0  0
  -26.2884  -14.0145   16.8185 C   0  0  0  0  0  0  0  0  0  0  0  0
  -27.5899  -28.8396   20.0887 C   0  0  0  0  0  0  0  0  0  0  0  0
  -27.0049  -13.4012   27.9552 C   0  0  0  0  0  0  0  0  0  0  0  0
  -25.8282  -16.3710   22.2791 C   0  0  0  0  0  0  0  0  0  0  0  0
  -27.8043  -15.7789   20.1603 C   0  0  0  0  0  0  0  0  0  0  0  0
  -27.0525  -12.6547   26.6245 C   0  0  0  0  0  0  0  0  0  0  0  0
  -25.5824  -31.7240   19.5162 C   0  0  0  0  0  0  0  0  0  0  0  0
  -28.2518  -13.1105   25.7993 C   0  0  0  0  0  0  0  0  0  0  0  0
  -24.3434  -31.4809   20.3810 C   0  0  0  0  0  0  0  0  0  0  0  0
  -26.1014  -30.4297   18.8923 C   0  0  0  0  0  0  0  0  0  0  0  0
  -25.1062  -29.0937   20.7072 C   0  0  0  0  0  0  0  0  0  0  0  0
  -28.1563  -14.6043   25.4659 C   0  0  1  0  0  0  0  0  0  0  0  0
  -26.4256  -14.9781   22.1046 C   0  0  1  0  0  0  0  0  0  0  0  0
  -24.5853  -30.3584   21.4092 C   0  0  2  0  0  0  0  0  0  0  0  0
  -31.2015  -25.1348   19.0953 C   0  0  0  0  0  0  0  0  0  0  0  0
  -29.2741  -23.9600   23.5906 C   0  0  0  0  0  0  0  0  0  0  0  0
  -25.6523  -12.8191   14.7057 C   0  0  0  0  0  0  0  0  0  0  0  0
  -29.5057  -12.2061   20.0579 C   0  0  0  0  0  0  0  0  0  0  0  0
  -29.1737  -11.8523   17.6018 C   0  0  0  0  0  0  0  0  0  0  0  0
  -27.6469  -10.7484   19.2368 C   0  0  0  0  0  0  0  0  0  0  0  0
  -23.9286  -15.7529   16.4080 C   0  0  0  0  0  0  0  0  0  0  0  0
  -31.1339  -23.3690   21.4189 C   0  0  0  0  0  0  0  0  0  0  0  0
  -30.6819  -22.1941   20.5489 C   0  0  0  0  0  0  0  0  0  0  0  0
  -29.3382  -21.6117   20.9715 C   0  0  0  0  0  0  0  0  0  1  0  0
  -27.4663  -13.2420   18.8606 C   0  0  1  0  0  0  0  0  0  0  0  0
  -25.1519  -13.6390   15.8847 C   0  0  2  0  0  0  0  0  0  0  0  0
  -28.4463  -12.0383   18.9505 C   0  0  0  0  0  0  0  0  0  0  0  0
  -22.4893  -29.1285   21.8282 N   0  0  0  0  0  0  0  0  0  0  0  0
  -23.3460  -30.0791   22.2387 N   0  0  0  0  0  0  0  0  0  0  0  0
  -26.9360  -14.7475   20.7517 N   0  0  0  0  0  0  0  0  0  0  0  0
  -26.3114  -29.4139   19.9263 N   0  0  0  0  0  0  0  0  0  0  0  0
  -23.7199  -31.6731   23.9504 N   0  0  0  0  0  0  0  0  0  0  0  0
  -19.8293  -29.7299   25.1683 N   0  0  0  0  0  0  0  0  0  0  0  0
  -27.6769  -27.9098   21.1243 N   0  0  0  0  0  0  0  0  0  0  0  0
  -27.2173  -14.8222   24.3865 N   0  0  0  0  0  0  0  0  0  0  0  0
  -26.4355  -13.0982   17.8383 N   0  0  0  0  0  0  0  0  0  0  0  0
  -24.4886  -14.8647   15.3570 N   0  3  0  0  0  0  0  0  0  0  0  0
  -21.3686  -31.3318   25.7368 O   0  0  0  0  0  0  0  0  0  0  0  0
  -28.6647  -14.4219   22.6068 O   0  0  0  0  0  0  0  0  0  0  0  0
  -26.0202  -12.6067   20.6302 O   0  0  0  0  0  0  0  0  0  0  0  0
  -26.9792  -15.0182   16.6570 O   0  0  0  0  0  0  0  0  0  0  0  0
  -28.5444  -29.1699   19.3803 O   0  0  0  0  0  0  0  0  0  0  0  0
  -17.1827  -25.6612   22.4339 O   0  0  0  0  0  0  0  0  0  0  0  0
  -29.0225  -20.5172   20.1119 O   0  0  0  0  0  0  0  0  0  1  0  0
  -12.1631  -27.7285   23.4007 F   0  0  0  0  0  0  0  0  0  0  0  0
  -15.2122  -25.5654   20.4973 F   0  0  0  0  0  0  0  0  0  0  0  0
  1  2  1  0  0  0  0
  1  5  2  0  0  0  0
  2  6  2  0  0  0  0
  3  8  2  0  0  0  0
  3 17  1  0  0  0  0
  4  9  1  0  0  0  0
  4 17  2  0  0  0  0
  5 19  1  0  0  0  0
  6 21  1  0  0  0  0
  7 10  2  0  0  0  0
  7 20  1  0  0  0  0
  8 27  1  0  0  0  0
  9 27  2  0  0  0  0
 10 28  1  0  0  0  0
 11 12  2  0  0  0  0
 11 29  1  0  0  0  0
 12 30  1  0  0  0  0
 13 22  1  0  0  0  0
 13 28  2  0  0  0  0
 14 23  2  0  0  0  0
 14 26  1  0  0  0  0
 15 24  1  0  0  0  0
 15 26  2  0  0  0  0
 16 30  2  0  0  0  0
 16 31  1  0  0  0  0
 17 32  1  0  0  0  0
 18 32  1  0  0  0  0
 18 33  2  0  0  0  0
 18 34  1  0  0  0  0
 19 21  2  0  0  0  0
 19 39  1  0  0  0  0
 20 22  2  0  0  0  0
 20 40  1  0  0  0  0
 21 48  1  0  0  0  0
 22 41  1  0  0  0  0
 23 25  1  0  0  0  0
 23 51  1  0  0  0  0
 24 25  2  0  0  0  0
 24 52  1  0  0  0  0
 25 58  1  0  0  0  0
 26 70  1  0  0  0  0
 27 79  1  0  0  0  0
 28 80  1  0  0  0  0
 29 31  2  0  0  0  0
 29 79  1  0  0  0  0
 30 81  1  0  0  0  0
 31 82  1  0  0  0  0
 32 64  2  0  0  0  0
 33 65  1  0  0  0  0
 33 68  1  0  0  0  0
 34 69  1  0  0  0  0
 34 74  2  0  0  0  0
 35 49  1  0  0  0  0
 35 71  1  0  0  0  0
 35 75  2  0  0  0  0
 36 61  1  0  0  0  0
 36 66  1  0  0  0  0
 36 76  2  0  0  0  0
 37 62  1  0  0  0  0
 37 72  1  0  0  0  0
 37 77  2  0  0  0  0
 38 67  1  0  0  0  0
 38 70  1  0  0  0  0
 38 78  2  0  0  0  0
 39 42  1  0  0  0  0
 40 49  1  0  0  0  0
 41 66  1  0  0  0  0
 42 44  1  0  0  0  0
 43 45  1  0  0  0  0
 43 46  1  0  0  0  0
 44 48  1  0  0  0  0
 45 50  1  0  0  0  0
 46 67  1  0  0  0  0
 47 50  1  0  0  0  0
 47 67  1  0  0  0  0
 48 71  1  0  0  0  0
 49 66  1  0  0  0  0
 50 65  1  0  0  0  0
 53 62  1  0  0  0  0
 54 63  1  0  0  0  0
 55 63  1  0  0  0  0
 56 63  1  0  0  0  0
 57 73  1  0  0  0  0
 58 59  1  0  0  0  0
 59 60  1  0  0  0  0
 60 80  1  0  0  0  0
 61 63  1  0  0  0  0
 61 72  1  0  0  0  0
 62 73  1  0  0  0  0
 64 65  1  0  0  0  0
M  CHG  1  73   1
M  ISO  4  38 100  60 101  70 100  80 101
M  END
> <Batch ID>
0030

> <Smiles>
CNC(C)C(=O)NC(C(=O)N1Cc2cc([101O:1][101CH2:1]CCc3c(C)cc([100NH:0][100C:0](=O)N4CCCC(n5nc(-c6ccc(Oc7ccc(F)cc7F)cc6)c(C(N)=O)c5N)C4)cc3C)ccc2CC1C(=O)NC1CCCc2ccccc21)C(C)(C)C

> <Shape>
0.227

> <Color>
0.066

> <Negative vol penalty>
0.000

$$$$

  -OEChem-04052316393D

 87 96  0     1  0  0  0  0  0999 V2000
  -28.0172  -36.8504   23.8115 C   0  0  0  0  0  0  0  0  0  0  0  0
  -28.1654  -35.4760   23.9680 C   0  0  0  0  0  0  0  0  0  0  0  0
  -23.4630  -10.1473   22.3153 C   0  0  0  0  0  0  0  0  0  0  0  0
  -22.4647  -10.2411   20.1172 C   0  0  0  0  0  0  0  0  0  0  0  0
  -26.7427  -37.4049   23.7020 C   0  0  0  0  0  0  0  0  0  0  0  0
  -27.0390  -34.6554   24.0163 C   0  0  0  0  0  0  0  0  0  0  0  0
  -25.4585  -22.3876   19.8688 C   0  0  0  0  0  0  0  0  0  0  0  0
  -27.5464  -30.4905   21.1805 C   0  0  0  0  0  0  0  0  0  0  0  0
  -24.3224  -21.7612   19.3563 C   0  0  0  0  0  0  0  0  0  0  0  0
  -23.0356   -8.8267   22.4531 C   0  0  0  0  0  0  0  0  0  0  0  0
  -22.0373   -8.9205   20.2550 C   0  0  0  0  0  0  0  0  0  0  0  0
  -28.3159  -29.4529   21.7051 C   0  0  0  0  0  0  0  0  0  0  0  0
  -20.1659   -7.2028   23.1963 C   0  0  0  0  0  0  0  0  0  0  0  0
  -19.5784   -6.8355   24.4069 C   0  0  0  0  0  0  0  0  0  0  0  0
  -26.3019  -28.3051   22.3726 C   0  0  0  0  0  0  0  0  0  0  0  0
  -25.7047  -20.0053   18.4381 C   0  0  0  0  0  0  0  0  0  0  0  0
  -21.3054   -5.1797   24.7426 C   0  0  0  0  0  0  0  0  0  0  0  0
  -23.1776  -10.8545   21.1473 C   0  0  0  0  0  0  0  0  0  0  0  0
  -24.8409  -12.6655   20.4682 C   0  0  0  0  0  0  0  0  0  0  0  0
  -25.6005  -36.5897   23.7393 C   0  0  0  0  0  0  0  0  0  0  0  0
  -26.1469  -30.4482   21.2580 C   0  0  0  0  0  0  0  0  0  0  0  0
  -25.7479  -35.1997   23.9086 C   0  0  0  0  0  0  0  0  0  0  0  0
  -26.7177  -21.8228   19.6658 C   0  0  0  0  0  0  0  0  0  0  0  0
  -25.5169  -29.3422   21.8460 C   0  0  0  0  0  0  0  0  0  0  0  0
  -24.4455  -20.5701   18.6410 C   0  0  0  0  0  0  0  0  0  0  0  0
  -22.3227   -8.2133   21.4230 C   0  0  0  0  0  0  0  0  0  0  0  0
  -27.6937  -28.3614   22.3038 C   0  0  0  0  0  0  0  0  0  0  0  0
  -21.3231   -6.5584   22.7588 C   0  0  0  0  0  0  0  0  0  0  0  0
  -20.1482   -5.8240   25.1801 C   0  0  0  0  0  0  0  0  0  0  0  0
  -21.8929   -5.5469   23.5320 C   0  0  0  0  0  0  0  0  0  0  0  0
  -26.8408  -20.6317   18.9505 C   0  0  0  0  0  0  0  0  0  0  0  0
  -23.6184  -12.2188   21.0046 C   0  0  0  0  0  0  0  0  0  0  0  0
  -24.7746  -14.0346   20.5559 C   0  0  0  0  0  0  0  0  0  0  0  0
  -25.9384  -11.9103   19.9381 C   0  0  0  0  0  0  0  0  0  0  0  0
  -23.9213  -32.2499   22.6379 C   0  0  0  0  0  0  0  0  0  0  0  0
  -21.8942  -30.2762   21.0511 C   0  0  0  0  0  0  0  0  0  0  0  0
  -21.3623  -27.2423   19.5816 C   0  0  0  0  0  0  0  0  0  0  0  0
  -21.9716  -18.8206   19.9376 C   0  0  0  0  0  0  0  0  0  0  0  0
  -24.2417  -37.2400   23.6645 C   0  0  0  0  0  0  0  0  0  0  0  0
  -25.3304  -31.5629   20.6635 C   0  0  0  0  0  0  0  0  0  0  0  0
  -24.0170  -29.2391   21.9363 C   0  0  0  0  0  0  0  0  0  0  0  0
  -23.1142  -36.2605   23.3491 C   0  0  0  0  0  0  0  0  0  0  0  0
  -21.4861  -17.0233   22.9725 C   0  0  0  0  0  0  0  0  0  0  0  0
  -23.2348  -35.0108   24.2154 C   0  0  0  0  0  0  0  0  0  0  0  0
  -22.0925  -15.6488   22.6846 C   0  0  0  0  0  0  0  0  0  0  0  0
  -28.0416  -23.9281   19.6173 C   0  0  0  0  0  0  0  0  0  0  0  0
  -27.7976  -22.6141   21.7622 C   0  0  0  0  0  0  0  0  0  0  0  0
  -20.7906  -17.6022   21.7423 C   0  0  0  0  0  0  0  0  0  0  0  0
  -22.2320  -16.2835   20.2399 C   0  0  0  0  0  0  0  0  0  0  0  0
  -29.1997  -24.7018   20.2344 C   0  0  0  0  0  0  0  0  0  0  0  0
  -28.9578  -23.3976   22.3628 C   0  0  0  0  0  0  0  0  0  0  0  0
  -27.9097  -22.5251   20.2317 C   0  0  0  0  0  0  0  0  0  0  0  0
  -24.5513  -34.2740   23.9407 C   0  0  1  0  0  0  0  0  0  0  0  0
  -23.9281  -31.6583   21.2567 C   0  0  1  0  0  0  0  0  0  0  0  0
  -22.9926  -15.6836   21.4348 C   0  0  2  0  0  0  0  0  0  0  0  0
  -19.5939  -25.9068   18.4041 C   0  0  0  0  0  0  0  0  0  0  0  0
  -20.5209  -29.7433   23.7232 C   0  0  0  0  0  0  0  0  0  0  0  0
  -19.4296  -27.7438   22.6843 C   0  0  0  0  0  0  0  0  0  0  0  0
  -18.9628  -30.0241   21.7872 C   0  0  0  0  0  0  0  0  0  0  0  0
  -22.9867  -27.0487   17.1153 C   0  0  0  0  0  0  0  0  0  0  0  0
  -23.2304  -19.9014   18.0919 C   0  0  0  0  0  0  0  0  0  0  0  0
  -30.0674  -25.6300   22.3792 C   0  0  0  0  0  0  0  0  0  0  0  0
  -29.7000  -27.0891   22.1944 C   0  0  0  0  0  0  0  0  0  1  0  0
  -21.2180  -28.9630   21.3629 C   0  0  1  0  0  0  0  0  0  0  0  0
  -20.7635  -26.8646   18.2388 C   0  0  2  0  0  0  0  0  0  0  0  0
  -20.0612  -29.1211   22.3896 C   0  0  0  0  0  0  0  0  0  0  0  0
  -22.8330  -13.2227   21.4036 N   0  0  0  0  0  0  0  0  0  0  0  0
  -23.5636  -14.3138   21.1179 N   0  0  0  0  0  0  0  0  0  0  0  0
  -23.2625  -30.3571   21.3462 N   0  0  0  0  0  0  0  0  0  0  0  0
  -21.6987  -17.6085   20.5929 N   0  0  0  0  0  0  0  0  0  0  0  0
  -25.6345  -15.0147   20.2063 N   0  0  0  0  0  0  0  0  0  0  0  0
  -25.8420  -10.5122   19.9230 N   0  0  0  0  0  0  0  0  0  0  0  0
  -24.4609  -33.5201   22.7086 N   0  0  0  0  0  0  0  0  0  0  0  0
  -20.8066  -28.4012   20.0809 N   0  0  0  0  0  0  0  0  0  0  0  0
  -22.8475  -18.7390   18.8620 N   0  0  0  0  0  0  0  0  0  0  0  0
  -29.0320  -24.7792   21.7402 N   0  3  0  0  0  0  0  0  0  0  0  0
  -21.7899  -26.2092   17.3798 N   0  3  0  0  0  0  0  0  0  0  0  0
  -26.9807  -12.4585   19.5060 O   0  0  0  0  0  0  0  0  0  0  0  0
  -23.4591  -31.6026   23.5701 O   0  0  0  0  0  0  0  0  0  0  0  0
  -21.2343  -31.1939   20.5572 O   0  0  0  0  0  0  0  0  0  0  0  0
  -22.2332  -26.5739   20.1343 O   0  0  0  0  0  0  0  0  0  0  0  0
  -21.4759  -19.8967   20.2887 O   0  0  0  0  0  0  0  0  0  0  0  0
  -21.9056   -6.9247   21.5570 O   0  0  0  0  0  0  0  0  0  0  0  0
  -28.4424  -27.3476   22.8172 O   0  0  0  0  0  0  0  0  0  1  0  0
  -19.5848   -5.4725   26.3434 F   0  0  0  0  0  0  0  0  0  0  0  0
  -23.0052   -4.9250   23.1175 F   0  0  0  0  0  0  0  0  0  0  0  0
  -28.3830  -19.9052   18.6797 Cl  0  0  0  0  0  0  0  0  0  0  0  0
  1  2  1  0  0  0  0
  1  5  2  0  0  0  0
  2  6  2  0  0  0  0
  3 10  2  0  0  0  0
  3 18  1  0  0  0  0
  4 11  1  0  0  0  0
  4 18  2  0  0  0  0
  5 20  1  0  0  0  0
  6 22  1  0  0  0  0
  7  9  2  0  0  0  0
  7 23  1  0  0  0  0
  8 12  2  0  0  0  0
  8 21  1  0  0  0  0
  9 25  1  0  0  0  0
 10 26  1  0  0  0  0
 11 26  2  0  0  0  0
 12 27  1  0  0  0  0
 13 14  2  0  0  0  0
 13 28  1  0  0  0  0
 14 29  1  0  0  0  0
 15 24  1  0  0  0  0
 15 27  2  0  0  0  0
 16 25  2  0  0  0  0
 16 31  1  0  0  0  0
 17 29  2  0  0  0  0
 17 30  1  0  0  0  0
 18 32  1  0  0  0  0
 19 32  1  0  0  0  0
 19 33  2  0  0  0  0
 19 34  1  0  0  0  0
 20 22  2  0  0  0  0
 20 39  1  0  0  0  0
 21 24  2  0  0  0  0
 21 40  1  0  0  0  0
 22 53  1  0  0  0  0
 23 31  2  0  0  0  0
 23 52  1  0  0  0  0
 24 41  1  0  0  0  0
 25 61  1  0  0  0  0
 26 83  1  0  0  0  0
 27 84  1  0  0  0  0
 28 30  2  0  0  0  0
 28 83  1  0  0  0  0
 29 85  1  0  0  0  0
 30 86  1  0  0  0  0
 31 87  1  0  0  0  0
 32 67  2  0  0  0  0
 33 68  1  0  0  0  0
 33 71  1  0  0  0  0
 34 72  1  0  0  0  0
 34 78  2  0  0  0  0
 35 54  1  0  0  0  0
 35 73  1  0  0  0  0
 35 79  2  0  0  0  0
 36 64  1  0  0  0  0
 36 69  1  0  0  0  0
 36 80  2  0  0  0  0
 37 65  1  0  0  0  0
 37 74  1  0  0  0  0
 37 81  2  0  0  0  0
 38 70  1  0  0  0  0
 38 75  1  0  0  0  0
 38 82  2  0  0  0  0
 39 42  1  0  0  0  0
 40 54  1  0  0  0  0
 41 69  1  0  0  0  0
 42 44  1  0  0  0  0
 43 45  1  0  0  0  0
 43 48  1  0  0  0  0
 44 53  1  0  0  0  0
 45 55  1  0  0  0  0
 46 50  1  0  0  0  0
 46 52  1  0  0  0  0
 47 51  1  0  0  0  0
 47 52  1  0  0  0  0
 48 70  1  0  0  0  0
 49 55  1  0  0  0  0
 49 70  1  0  0  0  0
 50 76  1  0  0  0  0
 51 76  1  0  0  0  0
 53 73  1  0  0  0  0
 54 69  1  0  0  0  0
 55 68  1  0  0  0  0
 56 65  1  0  0  0  0
 57 66  1  0  0  0  0
 58 66  1  0  0  0  0
 59 66  1  0  0  0  0
 60 77  1  0  0  0  0
 61 75  1  0  0  0  0
 62 63  1  0  0  0  0
 62 76  1  0  0  0  0
 63 84  1  0  0  0  0
 64 66  1  0  0  0  0
 64 74  1  0  0  0  0
 65 77  1  0  0  0  0
 67 68  1  0  0  0  0
M  CHG  2  76   1  77   1
M  ISO  4  38 100  63 101  75 100  84 101
M  END
> <Batch ID>
0030

> <Smiles>
CNC(C)C(=O)NC(C(=O)N1Cc2cc([101O:1][101CH2:1]CN3CCC(c4ccc(C[100NH:0][100C:0](=O)N5CCCC(n6nc(-c7ccc(Oc8ccc(F)cc8F)cc7)c(C(N)=O)c6N)C5)cc4Cl)CC3)ccc2CC1C(=O)NC1CCCc2ccccc21)C(C)(C)C

> <Shape>
0.291

> <Color>
0.104

> <Negative vol penalty>
0.000

$$$$

  -OEChem-04052316393D

 86 94  0     1  0  0  0  0  0999 V2000
  -25.0992  -28.7076   20.1104 C   0  0  0  0  0  0  0  0  0  0  0  0
  -25.0752  -27.7216   19.1293 C   0  0  0  0  0  0  0  0  0  0  0  0
  -20.5423  -22.9055   21.5719 C   0  0  0  0  0  0  0  0  0  0  0  0
  -22.9223  -23.3190   21.6147 C   0  0  0  0  0  0  0  0  0  0  0  0
  -26.1987  -28.8166   20.9608 C   0  0  0  0  0  0  0  0  0  0  0  0
  -26.1513  -26.8446   18.9973 C   0  0  0  0  0  0  0  0  0  0  0  0
  -27.6490  -20.0786   17.1820 C   0  0  0  0  0  0  0  0  0  0  0  0
  -20.3303  -24.0451   22.3478 C   0  0  0  0  0  0  0  0  0  0  0  0
  -22.7103  -24.4586   22.3906 C   0  0  0  0  0  0  0  0  0  0  0  0
  -28.4789  -19.3504   16.3308 C   0  0  0  0  0  0  0  0  0  0  0  0
  -19.1332  -27.0458   24.0144 C   0  0  0  0  0  0  0  0  0  0  0  0
  -18.1029  -27.9062   23.6352 C   0  0  0  0  0  0  0  0  0  0  0  0
  -30.2898  -19.5826   17.9075 C   0  0  0  0  0  0  0  0  0  0  0  0
  -28.3742  -13.7146   18.6446 C   0  0  0  0  0  0  0  0  0  0  0  0
  -19.1786  -28.2528   21.4997 C   0  0  0  0  0  0  0  0  0  0  0  0
  -21.8383  -22.5425   21.2054 C   0  0  0  0  0  0  0  0  0  0  0  0
  -22.0968  -21.2880   18.9992 C   0  0  0  0  0  0  0  0  0  0  0  0
  -27.2845  -27.9344   20.8455 C   0  0  0  0  0  0  0  0  0  0  0  0
  -28.1372  -20.5745   18.3995 C   0  0  0  0  0  0  0  0  0  0  0  0
  -27.2669  -26.9427   19.8461 C   0  0  0  0  0  0  0  0  0  0  0  0
  -29.4633  -20.3146   18.7736 C   0  0  0  0  0  0  0  0  0  0  0  0
  -27.4747  -13.0795   19.5009 C   0  0  0  0  0  0  0  0  0  0  0  0
  -29.3022  -12.4389   20.9455 C   0  0  0  0  0  0  0  0  0  0  0  0
  -29.7377  -13.7117   18.9387 C   0  0  0  0  0  0  0  0  0  0  0  0
  -21.4143  -24.8216   22.7572 C   0  0  0  0  0  0  0  0  0  0  0  0
  -29.8003  -19.1047   16.6921 C   0  0  0  0  0  0  0  0  0  0  0  0
  -20.1862  -26.7889   23.1364 C   0  0  0  0  0  0  0  0  0  0  0  0
  -18.1256  -28.5097   22.3778 C   0  0  0  0  0  0  0  0  0  0  0  0
  -20.2088  -27.3924   21.8791 C   0  0  0  0  0  0  0  0  0  0  0  0
  -27.9387  -12.4417   20.6514 C   0  0  0  0  0  0  0  0  0  0  0  0
  -30.2017  -13.0739   20.0892 C   0  0  0  0  0  0  0  0  0  0  0  0
  -22.0579  -21.3651   20.4043 C   0  0  0  0  0  0  0  0  0  0  0  0
  -22.3330  -19.9611   18.7345 C   0  0  0  0  0  0  0  0  0  0  0  0
  -21.9341  -22.3233   18.0207 C   0  0  0  0  0  0  0  0  0  0  0  0
  -28.5186  -23.4717   19.6502 C   0  0  0  0  0  0  0  0  0  0  0  0
  -29.3479  -21.7931   22.2991 C   0  0  0  0  0  0  0  0  0  0  0  0
  -30.5332  -18.8836   23.6321 C   0  0  0  0  0  0  0  0  0  0  0  0
  -25.1259  -15.3484   19.6672 C   0  0  0  0  0  0  0  0  0  0  0  0
  -28.4717  -28.1212   21.7568 C   0  0  0  0  0  0  0  0  0  0  0  0
  -27.2215  -21.3354   19.3188 C   0  0  0  0  0  0  0  0  0  0  0  0
  -30.0301  -20.8076   20.0790 C   0  0  0  0  0  0  0  0  0  0  0  0
  -29.4061  -26.9147   21.7949 C   0  0  0  0  0  0  0  0  0  0  0  0
  -22.2498  -15.9273   21.7863 C   0  0  0  0  0  0  0  0  0  0  0  0
  -29.6921  -26.4161   20.3819 C   0  0  0  0  0  0  0  0  0  0  0  0
  -21.9480  -17.3983   21.4943 C   0  0  0  0  0  0  0  0  0  0  0  0
  -23.7529  -15.6662   21.8135 C   0  0  0  0  0  0  0  0  0  0  0  0
  -24.1728  -17.5518   20.2832 C   0  0  0  0  0  0  0  0  0  0  0  0
  -28.4042  -25.9569   19.6877 C   0  0  1  0  0  0  0  0  0  0  0  0
  -27.9703  -22.2326   20.2995 C   0  0  1  0  0  0  0  0  0  0  0  0
  -22.6691  -17.8760   20.2200 C   0  0  2  0  0  0  0  0  0  0  0  0
  -29.7576  -11.7423   22.1881 C   0  0  0  0  0  0  0  0  0  0  0  0
  -31.1389  -17.8244   25.8250 C   0  0  0  0  0  0  0  0  0  0  0  0
  -31.9286  -23.4194   22.3691 C   0  0  0  0  0  0  0  0  0  0  0  0
  -32.8772  -21.7164   23.9402 C   0  0  0  0  0  0  0  0  0  0  0  0
  -30.8718  -23.0431   24.6042 C   0  0  0  0  0  0  0  0  0  0  0  0
  -28.5070  -16.7530   23.2949 C   0  0  0  0  0  0  0  0  0  0  0  0
  -26.0175  -13.0840   19.1832 C   0  0  0  0  0  0  0  0  0  0  0  0
  -31.3729  -15.5777   16.0923 C   0  0  0  0  0  0  0  0  0  0  0  0
  -30.9653  -16.2617   14.7865 C   0  0  0  0  0  0  0  0  0  0  0  0
  -30.1768  -15.0260   16.8637 C   0  0  0  0  0  0  0  0  0  0  0  0
  -29.9951  -17.4097   15.0353 C   0  0  0  0  0  0  0  0  0  1  0  0
  -30.6377  -21.2361   22.8515 C   0  0  1  0  0  0  0  0  0  0  0  0
  -30.0438  -18.0335   24.7906 C   0  0  2  0  0  0  0  0  0  0  0  0
  -31.5690  -22.3460   23.4157 C   0  0  0  0  0  0  0  0  0  0  0  0
  -22.2535  -20.1814   20.9913 N   0  0  0  0  0  0  0  0  0  0  0  0
  -22.4175  -19.3479   19.9499 N   0  0  0  0  0  0  0  0  0  0  0  0
  -29.0972  -21.5522   20.9408 N   0  0  0  0  0  0  0  0  0  0  0  0
  -24.3760  -16.1267   20.5646 N   0  0  0  0  0  0  0  0  0  0  0  0
  -22.4743  -19.2707   17.5831 N   0  0  0  0  0  0  0  0  0  0  0  0
  -21.6981  -23.6314   18.4650 N   0  0  0  0  0  0  0  0  0  0  0  0
  -30.6039  -14.3518   18.0666 N   0  0  0  0  0  0  0  0  0  0  0  0
  -28.0110  -24.6489   20.1661 N   0  0  0  0  0  0  0  0  0  0  0  0
  -30.2588  -20.2206   23.8280 N   0  0  0  0  0  0  0  0  0  0  0  0
  -25.2772  -14.0105   20.0105 N   0  0  0  0  0  0  0  0  0  0  0  0
  -29.5984  -16.6982   24.3013 N   0  3  0  0  0  0  0  0  0  0  0  0
  -21.9798  -22.0922   16.7886 O   0  0  0  0  0  0  0  0  0  0  0  0
  -29.3424  -23.3676   18.7490 O   0  0  0  0  0  0  0  0  0  0  0  0
  -28.5874  -22.4127   23.0470 O   0  0  0  0  0  0  0  0  0  0  0  0
  -31.1054  -18.4095   22.6531 O   0  0  0  0  0  0  0  0  0  0  0  0
  -25.6199  -15.8105   18.6330 O   0  0  0  0  0  0  0  0  0  0  0  0
  -21.2078  -25.9338   23.5141 O   0  0  0  0  0  0  0  0  0  0  0  0
  -30.6127  -18.3947   15.8628 O   0  0  0  0  0  0  0  0  0  1  0  0
  -17.1354  -29.3347   22.0131 F   0  0  0  0  0  0  0  0  0  0  0  0
  -21.2172  -27.1485   21.0308 F   0  0  0  0  0  0  0  0  0  0  0  0
  -27.0719  -11.8312   21.4733 F   0  0  0  0  0  0  0  0  0  0  0  0
  -31.8953  -13.0668   20.4597 Cl  0  0  0  0  0  0  0  0  0  0  0  0
  1  2  1  0  0  0  0
  1  5  2  0  0  0  0
  2  6  2  0  0  0  0
  3  8  2  0  0  0  0
  3 16  1  0  0  0  0
  4  9  1  0  0  0  0
  4 16  2  0  0  0  0
  5 18  1  0  0  0  0
  6 20  1  0  0  0  0
  7 10  2  0  0  0  0
  7 19  1  0  0  0  0
  8 25  1  0  0  0  0
  9 25  2  0  0  0  0
 10 26  1  0  0  0  0
 11 12  2  0  0  0  0
 11 27  1  0  0  0  0
 12 28  1  0  0  0  0
 13 21  1  0  0  0  0
 13 26  2  0  0  0  0
 14 22  2  0  0  0  0
 14 24  1  0  0  0  0
 15 28  2  0  0  0  0
 15 29  1  0  0  0  0
 16 32  1  0  0  0  0
 17 32  1  0  0  0  0
 17 33  2  0  0  0  0
 17 34  1  0  0  0  0
 18 20  2  0  0  0  0
 18 39  1  0  0  0  0
 19 21  2  0  0  0  0
 19 40  1  0  0  0  0
 20 48  1  0  0  0  0
 21 41  1  0  0  0  0
 22 30  1  0  0  0  0
 22 57  1  0  0  0  0
 23 30  2  0  0  0  0
 23 31  1  0  0  0  0
 23 51  1  0  0  0  0
 24 31  2  0  0  0  0
 24 71  1  0  0  0  0
 25 81  1  0  0  0  0
 26 82  1  0  0  0  0
 27 29  2  0  0  0  0
 27 81  1  0  0  0  0
 28 83  1  0  0  0  0
 29 84  1  0  0  0  0
 30 85  1  0  0  0  0
 31 86  1  0  0  0  0
 32 65  2  0  0  0  0
 33 66  1  0  0  0  0
 33 69  1  0  0  0  0
 34 70  1  0  0  0  0
 34 76  2  0  0  0  0
 35 49  1  0  0  0  0
 35 72  1  0  0  0  0
 35 77  2  0  0  0  0
 36 62  1  0  0  0  0
 36 67  1  0  0  0  0
 36 78  2  0  0  0  0
 37 63  1  0  0  0  0
 37 73  1  0  0  0  0
 37 79  2  0  0  0  0
 38 68  1  0  0  0  0
 38 74  1  0  0  0  0
 38 80  2  0  0  0  0
 39 42  1  0  0  0  0
 40 49  1  0  0  0  0
 41 67  1  0  0  0  0
 42 44  1  0  0  0  0
 43 45  1  0  0  0  0
 43 46  1  0  0  0  0
 44 48  1  0  0  0  0
 45 50  1  0  0  0  0
 46 68  1  0  0  0  0
 47 50  1  0  0  0  0
 47 68  1  0  0  0  0
 48 72  1  0  0  0  0
 49 67  1  0  0  0  0
 50 66  1  0  0  0  0
 52 63  1  0  0  0  0
 53 64  1  0  0  0  0
 54 64  1  0  0  0  0
 55 64  1  0  0  0  0
 56 75  1  0  0  0  0
 57 74  1  0  0  0  0
 58 59  1  0  0  0  0
 58 60  1  0  0  0  0
 59 61  1  0  0  0  0
 60 71  1  0  0  0  0
 61 82  1  0  0  0  0
 62 64  1  0  0  0  0
 62 73  1  0  0  0  0
 63 75  1  0  0  0  0
 65 66  1  0  0  0  0
M  CHG  1  75   1
M  ISO  4  38 100  61 101  74 100  82 101
M  END
> <Batch ID>
0030

> <Smiles>
CNC(C)C(=O)NC(C(=O)N1Cc2cc([101O:1][101CH2:1]CCCNc3cc(C[100NH:0][100C:0](=O)N4CCCC(n5nc(-c6ccc(Oc7ccc(F)cc7F)cc6)c(C(N)=O)c5N)C4)c(F)c(C)c3Cl)ccc2CC1C(=O)NC1CCCc2ccccc21)C(C)(C)C

> <Shape>
0.209

> <Color>
0.070

> <Negative vol penalty>
0.000

$$$$

  -OEChem-04052316393D

 89 98  0     1  0  0  0  0  0999 V2000
  -33.0274  -29.0448   32.2403 C   0  0  0  0  0  0  0  0  0  0  0  0
  -32.6865  -28.3916   31.0602 C   0  0  0  0  0  0  0  0  0  0  0  0
  -22.6591  -10.2005   20.1750 C   0  0  0  0  0  0  0  0  0  0  0  0
  -24.3385   -9.4088   21.7210 C   0  0  0  0  0  0  0  0  0  0  0  0
  -34.3691  -29.2088   32.5823 C   0  0  0  0  0  0  0  0  0  0  0  0
  -33.6872  -27.9030   30.2209 C   0  0  0  0  0  0  0  0  0  0  0  0
  -32.7119  -23.2209   28.5560 C   0  0  0  0  0  0  0  0  0  0  0  0
  -21.9299   -9.0270   20.3661 C   0  0  0  0  0  0  0  0  0  0  0  0
  -23.6092   -8.2352   21.9122 C   0  0  0  0  0  0  0  0  0  0  0  0
  -31.7894  -23.0934   27.5184 C   0  0  0  0  0  0  0  0  0  0  0  0
  -20.8917   -7.2506   23.6633 C   0  0  0  0  0  0  0  0  0  0  0  0
  -20.7291   -6.7964   24.9721 C   0  0  0  0  0  0  0  0  0  0  0  0
  -33.6020  -22.8781   25.9413 C   0  0  0  0  0  0  0  0  0  0  0  0
  -33.3390  -18.8266   22.2790 C   0  0  0  0  0  0  0  0  0  0  0  0
  -21.8473   -4.7339   24.3951 C   0  0  0  0  0  0  0  0  0  0  0  0
  -33.4333  -20.8691   20.3811 C   0  0  0  0  0  0  0  0  0  0  0  0
  -23.8635  -10.3914   20.8524 C   0  0  0  0  0  0  0  0  0  0  0  0
  -24.1932  -12.9203   20.9139 C   0  0  0  0  0  0  0  0  0  0  0  0
  -35.3865  -28.7135   31.7516 C   0  0  0  0  0  0  0  0  0  0  0  0
  -34.0888  -23.1889   28.2921 C   0  0  0  0  0  0  0  0  0  0  0  0
  -35.0437  -28.0618   30.5515 C   0  0  0  0  0  0  0  0  0  0  0  0
  -34.5399  -23.0029   26.9776 C   0  0  0  0  0  0  0  0  0  0  0  0
  -32.1667  -19.2540   21.6556 C   0  0  0  0  0  0  0  0  0  0  0  0
  -22.4049   -8.0443   21.2347 C   0  0  0  0  0  0  0  0  0  0  0  0
  -32.2344  -22.9248   26.2105 C   0  0  0  0  0  0  0  0  0  0  0  0
  -21.5321   -6.4465   22.7204 C   0  0  0  0  0  0  0  0  0  0  0  0
  -21.2069   -5.5381   25.3380 C   0  0  0  0  0  0  0  0  0  0  0  0
  -22.0098   -5.1881   23.0864 C   0  0  0  0  0  0  0  0  0  0  0  0
  -34.5585  -19.4205   21.9535 C   0  0  0  0  0  0  0  0  0  0  0  0
  -32.2139  -20.2752   20.7066 C   0  0  0  0  0  0  0  0  0  0  0  0
  -34.6056  -20.4417   21.0045 C   0  0  0  0  0  0  0  0  0  0  0  0
  -24.6176  -11.6032   20.6549 C   0  0  0  0  0  0  0  0  0  0  0  0
  -25.2666  -13.7021   20.5632 C   0  0  0  0  0  0  0  0  0  0  0  0
  -22.9407  -13.3946   21.4258 C   0  0  0  0  0  0  0  0  0  0  0  0
  -30.7759  -14.6626   20.6844 C   0  0  0  0  0  0  0  0  0  0  0  0
  -36.4912  -25.2377   28.6589 C   0  0  0  0  0  0  0  0  0  0  0  0
  -38.2821  -22.7051   27.7095 C   0  0  0  0  0  0  0  0  0  0  0  0
  -38.4433  -19.7360   26.0347 C   0  0  0  0  0  0  0  0  0  0  0  0
  -36.8234  -28.9565   32.1399 C   0  0  0  0  0  0  0  0  0  0  0  0
  -35.0708  -23.3011   29.4259 C   0  0  0  0  0  0  0  0  0  0  0  0
  -36.0074  -22.9414   26.6441 C   0  0  0  0  0  0  0  0  0  0  0  0
  -37.8161  -28.0794   31.3812 C   0  0  0  0  0  0  0  0  0  0  0  0
  -29.5101  -12.5587   18.0746 C   0  0  0  0  0  0  0  0  0  0  0  0
  -37.4948  -28.0765   29.8900 C   0  0  0  0  0  0  0  0  0  0  0  0
  -29.3778  -16.6867   21.0457 C   0  0  0  0  0  0  0  0  0  0  0  0
  -31.3023  -16.1134   22.6332 C   0  0  0  0  0  0  0  0  0  0  0  0
  -28.1009  -12.2064   18.5491 C   0  0  0  0  0  0  0  0  0  0  0  0
  -30.2341  -17.9207   20.7590 C   0  0  0  0  0  0  0  0  0  0  0  0
  -30.9521  -17.4980   23.1746 C   0  0  0  0  0  0  0  0  0  0  0  0
  -30.4812  -12.6735   19.2454 C   0  0  0  0  0  0  0  0  0  0  0  0
  -28.6385  -13.2864   20.7784 C   0  0  0  0  0  0  0  0  0  0  0  0
  -36.1000  -27.4960   29.6273 C   0  0  1  0  0  0  0  0  0  0  0  0
  -30.1868  -15.5769   21.7289 C   0  0  0  0  0  0  0  0  0  0  0  0
  -36.4514  -23.7696   28.9763 C   0  0  1  0  0  0  0  0  0  0  0  0
  -27.6192  -13.1910   19.6294 C   0  0  2  0  0  0  0  0  0  0  0  0
  -30.8371  -18.5697   22.0448 C   0  0  0  0  0  0  0  0  0  0  0  0
  -40.0516  -17.9174   25.3995 C   0  0  0  0  0  0  0  0  0  0  0  0
  -39.4751  -24.5138   25.5612 C   0  0  0  0  0  0  0  0  0  0  0  0
  -40.3171  -22.4618   24.3998 C   0  0  0  0  0  0  0  0  0  0  0  0
  -41.1236  -23.0133   26.6950 C   0  0  0  0  0  0  0  0  0  0  0  0
  -36.8948  -17.6914   27.5114 C   0  0  0  0  0  0  0  0  0  0  0  0
  -29.8701  -19.6561   22.5833 C   0  0  0  0  0  0  0  0  0  0  0  0
  -30.4637  -20.3872   23.7878 C   0  0  0  0  0  0  0  0  0  0  0  0
  -29.5219  -21.4854   24.2900 C   0  0  0  0  0  0  0  0  0  0  0  0
  -30.0775  -22.2072   25.5116 C   0  0  0  0  0  0  0  0  0  1  0  0
  -38.7602  -22.1721   26.3805 C   0  0  1  0  0  0  0  0  0  0  0  0
  -39.0311  -18.3913   26.4227 C   0  0  2  0  0  0  0  0  0  0  0  0
  -39.8913  -23.0433   25.7648 C   0  0  0  0  0  0  0  0  0  0  0  0
  -25.8633  -11.5476   20.1764 N   0  0  0  0  0  0  0  0  0  0  0  0
  -26.2310  -12.8395   20.1319 N   0  0  0  0  0  0  0  0  0  0  0  0
  -29.9771  -13.6006   20.2600 N   0  0  0  0  0  0  0  0  0  0  0  0
  -36.9285  -23.0623   27.7863 N   0  0  0  0  0  0  0  0  0  0  0  0
  -25.4702  -15.0365   20.5846 N   0  0  0  0  0  0  0  0  0  0  0  0
  -22.7944  -13.5306   22.8131 N   0  0  0  0  0  0  0  0  0  0  0  0
  -36.1290  -26.0517   29.7151 N   0  0  0  0  0  0  0  0  0  0  0  0
  -39.1352  -20.7809   26.6097 N   0  0  0  0  0  0  0  0  0  0  0  0
  -37.9550  -17.3652   26.5232 N   0  3  0  0  0  0  0  0  0  0  0  0
  -21.9743  -13.6734   20.6763 O   0  0  0  0  0  0  0  0  0  0  0  0
  -31.9111  -14.8889   20.2575 O   0  0  0  0  0  0  0  0  0  0  0  0
  -36.8272  -25.6048   27.5390 O   0  0  0  0  0  0  0  0  0  0  0  0
  -39.0786  -22.7944   28.6472 O   0  0  0  0  0  0  0  0  0  0  0  0
  -37.4702  -19.8485   25.2924 O   0  0  0  0  0  0  0  0  0  0  0  0
  -21.6934   -6.8992   21.4217 O   0  0  0  0  0  0  0  0  0  0  0  0
  -31.3361  -22.8007   25.1958 O   0  0  0  0  0  0  0  0  0  1  0  0
  -21.0521   -5.1026   26.5952 F   0  0  0  0  0  0  0  0  0  0  0  0
  -22.6269   -4.4115   22.1852 F   0  0  0  0  0  0  0  0  0  0  0  0
  -35.9761  -18.8467   22.7600 Cl  0  0  0  0  0  0  0  0  0  0  0  0
  -30.7839  -20.8290   19.9143 Cl  0  0  0  0  0  0  0  0  0  0  0  0
  -36.0853  -21.2180   20.5605 Cl  0  0  0  0  0  0  0  0  0  0  0  0
  1  2  1  0  0  0  0
  1  5  2  0  0  0  0
  2  6  2  0  0  0  0
  3  8  2  0  0  0  0
  3 17  1  0  0  0  0
  4  9  1  0  0  0  0
  4 17  2  0  0  0  0
  5 19  1  0  0  0  0
  6 21  1  0  0  0  0
  7 10  2  0  0  0  0
  7 20  1  0  0  0  0
  8 24  1  0  0  0  0
  9 24  2  0  0  0  0
 10 25  1  0  0  0  0
 11 12  2  0  0  0  0
 11 26  1  0  0  0  0
 12 27  1  0  0  0  0
 13 22  1  0  0  0  0
 13 25  2  0  0  0  0
 14 23  1  0  0  0  0
 14 29  2  0  0  0  0
 15 27  2  0  0  0  0
 15 28  1  0  0  0  0
 16 30  1  0  0  0  0
 16 31  2  0  0  0  0
 17 32  1  0  0  0  0
 18 32  1  0  0  0  0
 18 33  2  0  0  0  0
 18 34  1  0  0  0  0
 19 21  2  0  0  0  0
 19 39  1  0  0  0  0
 20 22  2  0  0  0  0
 20 40  1  0  0  0  0
 21 52  1  0  0  0  0
 22 41  1  0  0  0  0
 23 30  2  0  0  0  0
 23 56  1  0  0  0  0
 24 83  1  0  0  0  0
 25 84  1  0  0  0  0
 26 28  2  0  0  0  0
 26 83  1  0  0  0  0
 27 85  1  0  0  0  0
 28 86  1  0  0  0  0
 29 31  1  0  0  0  0
 29 87  1  0  0  0  0
 30 88  1  0  0  0  0
 31 89  1  0  0  0  0
 32 69  2  0  0  0  0
 33 70  1  0  0  0  0
 33 73  1  0  0  0  0
 34 74  1  0  0  0  0
 34 78  2  0  0  0  0
 35 53  1  0  0  0  0
 35 71  1  0  0  0  0
 35 79  2  0  0  0  0
 36 54  1  0  0  0  0
 36 75  1  0  0  0  0
 36 80  2  0  0  0  0
 37 66  1  0  0  0  0
 37 72  1  0  0  0  0
 37 81  2  0  0  0  0
 38 67  1  0  0  0  0
 38 76  1  0  0  0  0
 38 82  2  0  0  0  0
 39 42  1  0  0  0  0
 40 54  1  0  0  0  0
 41 72  1  0  0  0  0
 42 44  1  0  0  0  0
 43 47  1  0  0  0  0
 43 50  1  0  0  0  0
 44 52  1  0  0  0  0
 45 48  1  0  0  0  0
 45 53  1  0  0  0  0
 46 49  1  0  0  0  0
 46 53  1  0  0  0  0
 47 55  1  0  0  0  0
 48 56  1  0  0  0  0
 49 56  1  0  0  0  0
 50 71  1  0  0  0  0
 51 55  1  0  0  0  0
 51 71  1  0  0  0  0
 52 75  1  0  0  0  0
 54 72  1  0  0  0  0
 55 70  1  0  0  0  0
 56 62  1  0  0  0  0
 57 67  1  0  0  0  0
 58 68  1  0  0  0  0
 59 68  1  0  0  0  0
 60 68  1  0  0  0  0
 61 77  1  0  0  0  0
 62 63  1  0  0  0  0
 63 64  1  0  0  0  0
 64 65  1  0  0  0  0
 65 84  1  0  0  0  0
 66 68  1  0  0  0  0
 66 76  1  0  0  0  0
 67 77  1  0  0  0  0
 69 70  1  0  0  0  0
M  CHG  1  77   1
M  ISO  4  35 100  53 100  65 101  84 101
M  END
> <Batch ID>
0030

> <Smiles>
CNC(C)C(=O)NC(C(=O)N1Cc2cc([101O:1][101CH2:1]CCCC3(c4cc(Cl)c(Cl)cc4Cl)CC[100CH:0]([100C:0](=O)N4CCCC(n5nc(-c6ccc(Oc7ccc(F)cc7F)cc6)c(C(N)=O)c5N)C4)CC3)ccc2CC1C(=O)NC1CCCc2ccccc21)C(C)(C)C

> <Shape>
0.195

> <Color>
0.186

> <Negative vol penalty>
0.000

$$$$

  -OEChem-04052316393D

 87 95  0     1  0  0  0  0  0999 V2000
  -29.6188  -23.4132   17.9492 C   0  0  0  0  0  0  0  0  0  0  0  0
  -28.3884  -23.5512   18.5835 C   0  0  0  0  0  0  0  0  0  0  0  0
  -27.7243  -16.4029   20.6767 C   0  0  0  0  0  0  0  0  0  0  0  0
  -26.5450  -16.1620   22.7715 C   0  0  0  0  0  0  0  0  0  0  0  0
  -30.7146  -24.1558   18.3869 C   0  0  0  0  0  0  0  0  0  0  0  0
  -28.2534  -24.4311   19.6568 C   0  0  0  0  0  0  0  0  0  0  0  0
  -24.0556  -27.2465   19.3448 C   0  0  0  0  0  0  0  0  0  0  0  0
  -28.7511  -17.0817   21.3328 C   0  0  0  0  0  0  0  0  0  0  0  0
  -27.5719  -16.8407   23.4276 C   0  0  0  0  0  0  0  0  0  0  0  0
  -22.8529  -26.6381   19.7016 C   0  0  0  0  0  0  0  0  0  0  0  0
  -31.5132  -19.1935   22.3981 C   0  0  0  0  0  0  0  0  0  0  0  0
  -32.0093  -20.3536   21.8035 C   0  0  0  0  0  0  0  0  0  0  0  0
  -22.9623  -27.7034   21.8631 C   0  0  0  0  0  0  0  0  0  0  0  0
  -16.8403  -23.9062   21.9465 C   0  0  0  0  0  0  0  0  0  0  0  0
  -29.8148  -21.3563   21.9286 C   0  0  0  0  0  0  0  0  0  0  0  0
  -26.6212  -15.9432   21.3960 C   0  0  0  0  0  0  0  0  0  0  0  0
  -25.4595  -13.8550   20.5029 C   0  0  0  0  0  0  0  0  0  0  0  0
  -30.5906  -25.0524   19.4600 C   0  0  0  0  0  0  0  0  0  0  0  0
  -24.7273  -28.0806   20.2500 C   0  0  0  0  0  0  0  0  0  0  0  0
  -29.3489  -25.1853   20.1103 C   0  0  0  0  0  0  0  0  0  0  0  0
  -24.1720  -28.3232   21.5145 C   0  0  0  0  0  0  0  0  0  0  0  0
  -18.0600  -23.3888   22.3826 C   0  0  0  0  0  0  0  0  0  0  0  0
  -19.2546  -23.8843   21.8601 C   0  0  0  0  0  0  0  0  0  0  0  0
  -19.2295  -24.8972   20.9015 C   0  0  0  0  0  0  0  0  0  0  0  0
  -18.0098  -25.4147   20.4653 C   0  0  0  0  0  0  0  0  0  0  0  0
  -28.6750  -17.3005   22.7083 C   0  0  0  0  0  0  0  0  0  0  0  0
  -22.3076  -26.8642   20.9619 C   0  0  0  0  0  0  0  0  0  0  0  0
  -30.1678  -19.1147   22.7579 C   0  0  0  0  0  0  0  0  0  0  0  0
  -31.1601  -21.4350   21.5687 C   0  0  0  0  0  0  0  0  0  0  0  0
  -29.3186  -20.1961   22.5232 C   0  0  0  0  0  0  0  0  0  0  0  0
  -16.8152  -24.9191   20.9878 C   0  0  0  0  0  0  0  0  0  0  0  0
  -25.5598  -15.2425   20.7187 C   0  0  0  0  0  0  0  0  0  0  0  0
  -24.2778  -13.6982   19.8206 C   0  0  0  0  0  0  0  0  0  0  0  0
  -26.3544  -12.8020   20.8851 C   0  0  0  0  0  0  0  0  0  0  0  0
  -27.5636  -28.0122   21.6833 C   0  0  0  0  0  0  0  0  0  0  0  0
  -26.6723  -30.9515   22.7264 C   0  0  0  0  0  0  0  0  0  0  0  0
  -24.1431  -33.1312   23.4330 C   0  0  0  0  0  0  0  0  0  0  0  0
  -19.2784  -16.9793   19.5173 C   0  0  0  0  0  0  0  0  0  0  0  0
  -31.8151  -25.7983   19.9279 C   0  0  0  0  0  0  0  0  0  0  0  0
  -26.0101  -28.7506   19.8401 C   0  0  0  0  0  0  0  0  0  0  0  0
  -24.8434  -29.2264   22.5154 C   0  0  0  0  0  0  0  0  0  0  0  0
  -31.4961  -26.9864   20.8317 C   0  0  0  0  0  0  0  0  0  0  0  0
  -21.3629  -15.9978   16.8028 C   0  0  0  0  0  0  0  0  0  0  0  0
  -30.4806  -26.5884   21.8981 C   0  0  0  0  0  0  0  0  0  0  0  0
  -22.6659  -15.5677   17.4792 C   0  0  0  0  0  0  0  0  0  0  0  0
  -20.7229  -17.1871   17.5156 C   0  0  0  0  0  0  0  0  0  0  0  0
  -21.8109  -16.5693   19.6389 C   0  0  0  0  0  0  0  0  0  0  0  0
  -29.1566  -26.1479   21.2621 C   0  0  1  0  0  0  0  0  0  0  0  0
  -26.8698  -29.1725   21.0277 C   0  0  1  0  0  0  0  0  0  0  0  0
  -22.4645  -15.3377   18.9891 C   0  0  2  0  0  0  0  0  0  0  0  0
  -20.5612  -23.3270   22.3299 C   0  0  0  0  0  0  0  0  0  0  0  0
  -17.9977  -26.5020   19.4356 C   0  0  0  0  0  0  0  0  0  0  0  0
  -23.7240  -35.4461   24.3064 C   0  0  0  0  0  0  0  0  0  0  0  0
  -27.2557  -29.9849   25.5611 C   0  0  0  0  0  0  0  0  0  0  0  0
  -25.9487  -31.9392   26.4218 C   0  0  0  0  0  0  0  0  0  0  0  0
  -28.0155  -32.3180   25.0774 C   0  0  0  0  0  0  0  0  0  0  0  0
  -22.8396  -33.9716   20.9123 C   0  0  0  0  0  0  0  0  0  0  0  0
  -18.0595  -22.3045   23.4100 C   0  0  0  0  0  0  0  0  0  0  0  0
  -20.5156  -25.4293   20.3409 C   0  0  0  0  0  0  0  0  0  1  0  0
  -17.6690  -18.0930   22.2002 C   0  0  0  0  0  0  0  0  0  0  0  0
  -18.7407  -18.5382   23.2023 C   0  0  0  0  0  0  0  0  0  0  0  0
  -17.9622  -16.7188   21.6051 C   0  0  0  0  0  0  0  0  0  0  0  0
  -18.4314  -19.8765   23.8629 C   0  0  0  0  0  0  0  0  0  0  0  0
  -25.9258  -31.4786   23.9281 C   0  0  1  0  0  0  0  0  0  0  0  0
  -23.9396  -34.5905   23.0678 C   0  0  2  0  0  0  0  0  0  0  0  0
  -26.7745  -31.4116   25.2291 C   0  0  0  0  0  0  0  0  0  0  0  0
  -24.5245  -15.9190   20.2143 N   0  0  0  0  0  0  0  0  0  0  0  0
  -23.7624  -14.9525   19.6746 N   0  0  0  0  0  0  0  0  0  0  0  0
  -26.0988  -29.8533   22.0700 N   0  0  0  0  0  0  0  0  0  0  0  0
  -20.5583  -16.9038   18.9434 N   0  0  0  0  0  0  0  0  0  0  0  0
  -23.6397  -12.6112   19.3372 N   0  0  0  0  0  0  0  0  0  0  0  0
  -27.5234  -13.1384   21.5810 N   0  0  0  0  0  0  0  0  0  0  0  0
  -28.3921  -27.3006   20.8366 N   0  0  0  0  0  0  0  0  0  0  0  0
  -25.4793  -32.8217   23.5745 N   0  0  0  0  0  0  0  0  0  0  0  0
  -19.2097  -16.6896   20.8745 N   0  0  0  0  0  0  0  0  0  0  0  0
  -22.7522  -34.7415   22.1799 N   0  3  0  0  0  0  0  0  0  0  0  0
  -18.3705  -20.9617   22.8489 N   0  3  0  0  0  0  0  0  0  0  0  0
  -26.1322  -11.6001   20.6029 O   0  0  0  0  0  0  0  0  0  0  0  0
  -27.3633  -27.7805   22.8699 O   0  0  0  0  0  0  0  0  0  0  0  0
  -27.7217  -31.4987   22.3786 O   0  0  0  0  0  0  0  0  0  0  0  0
  -23.2099  -32.3453   23.5818 O   0  0  0  0  0  0  0  0  0  0  0  0
  -18.2708  -17.2773   18.8670 O   0  0  0  0  0  0  0  0  0  0  0  0
  -29.6769  -17.9626   23.3489 O   0  0  0  0  0  0  0  0  0  0  0  0
  -21.1341  -26.2712   21.3130 O   0  0  0  0  0  0  0  0  0  1  0  0
  -31.6371  -22.5496   20.9991 F   0  0  0  0  0  0  0  0  0  0  0  0
  -28.0254  -20.1268   22.8678 F   0  0  0  0  0  0  0  0  0  0  0  0
  -15.2848  -25.5330   20.4753 Cl  0  0  0  0  0  0  0  0  0  0  0  0
  1  2  1  0  0  0  0
  1  5  2  0  0  0  0
  2  6  2  0  0  0  0
  3  8  2  0  0  0  0
  3 16  1  0  0  0  0
  4  9  1  0  0  0  0
  4 16  2  0  0  0  0
  5 18  1  0  0  0  0
  6 20  1  0  0  0  0
  7 10  2  0  0  0  0
  7 19  1  0  0  0  0
  8 26  1  0  0  0  0
  9 26  2  0  0  0  0
 10 27  1  0  0  0  0
 11 12  2  0  0  0  0
 11 28  1  0  0  0  0
 12 29  1  0  0  0  0
 13 21  1  0  0  0  0
 13 27  2  0  0  0  0
 14 22  2  0  0  0  0
 14 31  1  0  0  0  0
 15 29  2  0  0  0  0
 15 30  1  0  0  0  0
 16 32  1  0  0  0  0
 17 32  1  0  0  0  0
 17 33  2  0  0  0  0
 17 34  1  0  0  0  0
 18 20  2  0  0  0  0
 18 39  1  0  0  0  0
 19 21  2  0  0  0  0
 19 40  1  0  0  0  0
 20 48  1  0  0  0  0
 21 41  1  0  0  0  0
 22 23  1  0  0  0  0
 22 58  1  0  0  0  0
 23 24  2  0  0  0  0
 23 51  1  0  0  0  0
 24 25  1  0  0  0  0
 24 59  1  0  0  0  0
 25 31  2  0  0  0  0
 25 52  1  0  0  0  0
 26 83  1  0  0  0  0
 27 84  1  0  0  0  0
 28 30  2  0  0  0  0
 28 83  1  0  0  0  0
 29 85  1  0  0  0  0
 30 86  1  0  0  0  0
 31 87  1  0  0  0  0
 32 67  2  0  0  0  0
 33 68  1  0  0  0  0
 33 71  1  0  0  0  0
 34 72  1  0  0  0  0
 34 78  2  0  0  0  0
 35 49  1  0  0  0  0
 35 73  1  0  0  0  0
 35 79  2  0  0  0  0
 36 64  1  0  0  0  0
 36 69  1  0  0  0  0
 36 80  2  0  0  0  0
 37 65  1  0  0  0  0
 37 74  1  0  0  0  0
 37 81  2  0  0  0  0
 38 70  1  0  0  0  0
 38 75  1  0  0  0  0
 38 82  2  0  0  0  0
 39 42  1  0  0  0  0
 40 49  1  0  0  0  0
 41 69  1  0  0  0  0
 42 44  1  0  0  0  0
 43 45  1  0  0  0  0
 43 46  1  0  0  0  0
 44 48  1  0  0  0  0
 45 50  1  0  0  0  0
 46 70  1  0  0  0  0
 47 50  1  0  0  0  0
 47 70  1  0  0  0  0
 48 73  1  0  0  0  0
 49 69  1  0  0  0  0
 50 68  1  0  0  0  0
 53 65  1  0  0  0  0
 54 66  1  0  0  0  0
 55 66  1  0  0  0  0
 56 66  1  0  0  0  0
 57 76  1  0  0  0  0
 58 77  1  0  0  0  0
 59 84  1  0  0  0  0
 60 61  1  0  0  0  0
 60 62  1  0  0  0  0
 61 63  1  0  0  0  0
 62 75  1  0  0  0  0
 63 77  1  0  0  0  0
 64 66  1  0  0  0  0
 64 74  1  0  0  0  0
 65 76  1  0  0  0  0
 67 68  1  0  0  0  0
M  CHG  2  76   1  77   1
M  ISO  4  38 100  59 101  75 100  84 101
M  END
> <Batch ID>
0030

> <Smiles>
CNC(C)C(=O)NC(C(=O)N1Cc2cc([101O:1][101CH2:1]c3c(C)c(Cl)cc(CNCCCC[100NH:0][100C:0](=O)N4CCCC(n5nc(-c6ccc(Oc7ccc(F)cc7F)cc6)c(C(N)=O)c5N)C4)c3C)ccc2CC1C(=O)NC1CCCc2ccccc21)C(C)(C)C

> <Shape>
0.230

> <Color>
0.064

> <Negative vol penalty>
0.000

$$$$

  -OEChem-04052316393D

 83 91  0     1  0  0  0  0  0999 V2000
  -19.5985  -34.2159   22.9352 C   0  0  0  0  0  0  0  0  0  0  0  0
  -20.9205  -33.9286   22.6111 C   0  0  0  0  0  0  0  0  0  0  0  0
  -24.7502  -13.5637   21.4975 C   0  0  0  0  0  0  0  0  0  0  0  0
  -26.8636  -13.0176   20.4620 C   0  0  0  0  0  0  0  0  0  0  0  0
  -18.7977  -33.2376   23.5232 C   0  0  0  0  0  0  0  0  0  0  0  0
  -21.4429  -32.6631   22.8758 C   0  0  0  0  0  0  0  0  0  0  0  0
  -25.5730  -29.6132   19.5371 C   0  0  0  0  0  0  0  0  0  0  0  0
  -24.1827  -12.4157   20.9447 C   0  0  0  0  0  0  0  0  0  0  0  0
  -26.2961  -11.8696   19.9092 C   0  0  0  0  0  0  0  0  0  0  0  0
  -26.9517  -29.4529   19.6686 C   0  0  0  0  0  0  0  0  0  0  0  0
  -24.1513   -9.0959   21.5859 C   0  0  0  0  0  0  0  0  0  0  0  0
  -23.3552   -8.3036   22.4130 C   0  0  0  0  0  0  0  0  0  0  0  0
  -26.5932  -27.3569   20.8076 C   0  0  0  0  0  0  0  0  0  0  0  0
  -29.8970  -24.8373   17.3969 C   0  0  0  0  0  0  0  0  0  0  0  0
  -30.8811  -24.1491   19.4932 C   0  0  0  0  0  0  0  0  0  0  0  0
  -21.4773   -8.6441   20.9316 C   0  0  0  0  0  0  0  0  0  0  0  0
  -26.0907  -13.8647   21.2561 C   0  0  0  0  0  0  0  0  0  0  0  0
  -27.3188  -15.1663   23.0742 C   0  0  0  0  0  0  0  0  0  0  0  0
  -19.3078  -31.9565   23.7864 C   0  0  0  0  0  0  0  0  0  0  0  0
  -24.6923  -28.6503   20.0505 C   0  0  0  0  0  0  0  0  0  0  0  0
  -20.6486  -31.6672   23.4691 C   0  0  0  0  0  0  0  0  0  0  0  0
  -25.2039  -27.5061   20.6792 C   0  0  0  0  0  0  0  0  0  0  0  0
  -30.2820  -23.8251   18.2760 C   0  0  0  0  0  0  0  0  0  0  0  0
  -30.7104  -26.4975   18.9522 C   0  0  0  0  0  0  0  0  0  0  0  0
  -24.9557  -11.5686   20.1506 C   0  0  0  0  0  0  0  0  0  0  0  0
  -27.4619  -28.3260   20.3064 C   0  0  0  0  0  0  0  0  0  0  0  0
  -23.6104   -9.6624   20.4317 C   0  0  0  0  0  0  0  0  0  0  0  0
  -22.0183   -8.0777   22.0858 C   0  0  0  0  0  0  0  0  0  0  0  0
  -22.2734   -9.4364   20.1045 C   0  0  0  0  0  0  0  0  0  0  0  0
  -30.1113  -26.1735   17.7350 C   0  0  0  0  0  0  0  0  0  0  0  0
  -31.0954  -25.4853   19.8314 C   0  0  0  0  0  0  0  0  0  0  0  0
  -26.6773  -15.0508   21.8264 C   0  0  0  0  0  0  0  0  0  0  0  0
  -27.6956  -16.4851   23.1458 C   0  0  0  0  0  0  0  0  0  0  0  0
  -27.5531  -14.1704   24.0787 C   0  0  0  0  0  0  0  0  0  0  0  0
  -22.4086  -28.6511   22.2615 C   0  0  0  0  0  0  0  0  0  0  0  0
  -21.9099  -25.6305   21.1893 C   0  0  0  0  0  0  0  0  0  0  0  0
  -23.1640  -22.8650   19.6317 C   0  0  0  0  0  0  0  0  0  0  0  0
  -28.8886  -20.4681   18.9544 C   0  0  0  0  0  0  0  0  0  0  0  0
  -18.4179  -30.9465   24.4666 C   0  0  0  0  0  0  0  0  0  0  0  0
  -23.2084  -28.8250   19.8770 C   0  0  0  0  0  0  0  0  0  0  0  0
  -24.3014  -26.4332   21.2296 C   0  0  0  0  0  0  0  0  0  0  0  0
  -18.9378  -29.5145   24.3710 C   0  0  0  0  0  0  0  0  0  0  0  0
  -26.4323  -20.8306   21.5873 C   0  0  0  0  0  0  0  0  0  0  0  0
  -20.4246  -29.4627   24.7083 C   0  0  0  0  0  0  0  0  0  0  0  0
  -26.2823  -19.3849   22.0644 C   0  0  0  0  0  0  0  0  0  0  0  0
  -26.6183  -20.8969   20.0743 C   0  0  0  0  0  0  0  0  0  0  0  0
  -27.6084  -18.6405   20.0329 C   0  0  0  0  0  0  0  0  0  0  0  0
  -21.2444  -30.2986   23.7179 C   0  0  1  0  0  0  0  0  0  0  0  0
  -22.3907  -28.0326   20.8923 C   0  0  1  0  0  0  0  0  0  0  0  0
  -27.4396  -18.5044   21.5571 C   0  0  2  0  0  0  0  0  0  0  0  0
  -31.9019  -28.6251   18.3315 C   0  0  0  0  0  0  0  0  0  0  0  0
  -22.5301  -20.5391   18.9347 C   0  0  0  0  0  0  0  0  0  0  0  0
  -22.1765  -24.6939   24.0809 C   0  0  0  0  0  0  0  0  0  0  0  0
  -22.4876  -22.3622   23.2238 C   0  0  0  0  0  0  0  0  0  0  0  0
  -20.3524  -23.5756   22.7862 C   0  0  0  0  0  0  0  0  0  0  0  0
  -23.6213  -23.4728   16.7715 C   0  0  0  0  0  0  0  0  0  0  0  0
  -30.0535  -22.3964   17.9142 C   0  0  0  0  0  0  0  0  0  0  0  0
  -29.6300  -28.7399   19.4210 C   0  0  0  0  0  0  0  0  0  1  0  0
  -30.9446  -27.9542   19.3205 C   0  0  1  0  0  0  0  0  0  0  0  0
  -22.4465  -24.2661   21.5491 C   0  0  1  0  0  0  0  0  0  0  0  0
  -22.6088  -21.9989   18.5155 C   0  0  2  0  0  0  0  0  0  0  0  0
  -21.8830  -23.7454   22.9015 C   0  0  0  0  0  0  0  0  0  0  0  0
  -26.6464  -16.2043   21.1538 N   0  0  0  0  0  0  0  0  0  0  0  0
  -27.2731  -17.0572   21.9820 N   0  0  0  0  0  0  0  0  0  0  0  0
  -22.8579  -26.6528   21.0409 N   0  0  0  0  0  0  0  0  0  0  0  0
  -27.7468  -20.0519   19.6589 N   0  0  0  0  0  0  0  0  0  0  0  0
  -28.3437  -17.1997   24.0901 N   0  0  0  0  0  0  0  0  0  0  0  0
  -27.1000  -12.8651   23.8439 N   0  0  0  0  0  0  0  0  0  0  0  0
  -21.4110  -29.5842   22.4704 N   0  0  0  0  0  0  0  0  0  0  0  0
  -22.1598  -23.4012   20.4097 N   0  0  0  0  0  0  0  0  0  0  0  0
  -28.9391  -21.8188   18.6323 N   0  0  0  0  0  0  0  0  0  0  0  0
  -23.4745  -22.0945   17.3062 N   0  3  0  0  0  0  0  0  0  0  0  0
  -28.1323  -14.4342   25.1597 O   0  0  0  0  0  0  0  0  0  0  0  0
  -23.2632  -28.3062   23.0692 O   0  0  0  0  0  0  0  0  0  0  0  0
  -20.6951  -25.7820   21.0382 O   0  0  0  0  0  0  0  0  0  0  0  0
  -24.3683  -23.0447   19.7991 O   0  0  0  0  0  0  0  0  0  0  0  0
  -29.7990  -19.6939   18.6399 O   0  0  0  0  0  0  0  0  0  0  0  0
  -24.4023  -10.4481   19.6112 O   0  0  0  0  0  0  0  0  0  0  0  0
  -28.8072  -28.1673   20.4366 O   0  0  0  0  0  0  0  0  0  1  0  0
  -21.2543   -7.3155   22.8793 F   0  0  0  0  0  0  0  0  0  0  0  0
  -21.7485   -9.9770   18.9963 F   0  0  0  0  0  0  0  0  0  0  0  0
  -29.6198  -27.3948   16.6171 Cl  0  0  0  0  0  0  0  0  0  0  0  0
  -31.8410  -25.8416   21.3478 Cl  0  0  0  0  0  0  0  0  0  0  0  0
  1  2  1  0  0  0  0
  1  5  2  0  0  0  0
  2  6  2  0  0  0  0
  3  8  2  0  0  0  0
  3 17  1  0  0  0  0
  4  9  1  0  0  0  0
  4 17  2  0  0  0  0
  5 19  1  0  0  0  0
  6 21  1  0  0  0  0
  7 10  2  0  0  0  0
  7 20  1  0  0  0  0
  8 25  1  0  0  0  0
  9 25  2  0  0  0  0
 10 26  1  0  0  0  0
 11 12  2  0  0  0  0
 11 27  1  0  0  0  0
 12 28  1  0  0  0  0
 13 22  1  0  0  0  0
 13 26  2  0  0  0  0
 14 23  1  0  0  0  0
 14 30  2  0  0  0  0
 15 23  2  0  0  0  0
 15 31  1  0  0  0  0
 16 28  2  0  0  0  0
 16 29  1  0  0  0  0
 17 32  1  0  0  0  0
 18 32  1  0  0  0  0
 18 33  2  0  0  0  0
 18 34  1  0  0  0  0
 19 21  2  0  0  0  0
 19 39  1  0  0  0  0
 20 22  2  0  0  0  0
 20 40  1  0  0  0  0
 21 48  1  0  0  0  0
 22 41  1  0  0  0  0
 23 57  1  0  0  0  0
 24 30  1  0  0  0  0
 24 31  2  0  0  0  0
 24 59  1  0  0  0  0
 25 78  1  0  0  0  0
 26 79  1  0  0  0  0
 27 29  2  0  0  0  0
 27 78  1  0  0  0  0
 28 80  1  0  0  0  0
 29 81  1  0  0  0  0
 30 82  1  0  0  0  0
 31 83  1  0  0  0  0
 32 63  2  0  0  0  0
 33 64  1  0  0  0  0
 33 67  1  0  0  0  0
 34 68  1  0  0  0  0
 34 73  2  0  0  0  0
 35 49  1  0  0  0  0
 35 69  1  0  0  0  0
 35 74  2  0  0  0  0
 36 60  1  0  0  0  0
 36 65  1  0  0  0  0
 36 75  2  0  0  0  0
 37 61  1  0  0  0  0
 37 70  1  0  0  0  0
 37 76  2  0  0  0  0
 38 66  1  0  0  0  0
 38 71  1  0  0  0  0
 38 77  2  0  0  0  0
 39 42  1  0  0  0  0
 40 49  1  0  0  0  0
 41 65  1  0  0  0  0
 42 44  1  0  0  0  0
 43 45  1  0  0  0  0
 43 46  1  0  0  0  0
 44 48  1  0  0  0  0
 45 50  1  0  0  0  0
 46 66  1  0  0  0  0
 47 50  1  0  0  0  0
 47 66  1  0  0  0  0
 48 69  1  0  0  0  0
 49 65  1  0  0  0  0
 50 64  1  0  0  0  0
 51 59  1  0  0  0  0
 52 61  1  0  0  0  0
 53 62  1  0  0  0  0
 54 62  1  0  0  0  0
 55 62  1  0  0  0  0
 56 72  1  0  0  0  0
 57 71  1  0  0  0  0
 58 59  1  0  0  0  0
 58 79  1  0  0  0  0
 60 62  1  0  0  0  0
 60 70  1  0  0  0  0
 61 72  1  0  0  0  0
 63 64  1  0  0  0  0
M  CHG  1  72   1
M  ISO  4  38 100  58 101  71 100  79 101
M  END
> <Batch ID>
0030

> <Smiles>
CNC(C)C(=O)NC(C(=O)N1Cc2cc([101O:1][101CH2:1]C(C)c3c(Cl)cc(C[100NH:0][100C:0](=O)N4CCCC(n5nc(-c6ccc(Oc7ccc(F)cc7F)cc6)c(C(N)=O)c5N)C4)cc3Cl)ccc2CC1C(=O)NC1CCCc2ccccc21)C(C)(C)C

> <Shape>
0.240

> <Color>
0.090

> <Negative vol penalty>
0.000

$$$$

  -OEChem-04052316393D

 81 89  0     1  0  0  0  0  0999 V2000
  -17.5461  -25.9835   21.7869 C   0  0  0  0  0  0  0  0  0  0  0  0
  -18.8360  -25.4623   21.7822 C   0  0  0  0  0  0  0  0  0  0  0  0
  -23.4858   -9.5895   20.2589 C   0  0  0  0  0  0  0  0  0  0  0  0
  -23.8829  -10.1352   22.5788 C   0  0  0  0  0  0  0  0  0  0  0  0
  -17.3426  -27.3349   22.0631 C   0  0  0  0  0  0  0  0  0  0  0  0
  -19.9232  -26.2925   22.0527 C   0  0  0  0  0  0  0  0  0  0  0  0
  -23.2329  -24.1791   25.2503 C   0  0  0  0  0  0  0  0  0  0  0  0
  -22.8537   -8.4076   20.6451 C   0  0  0  0  0  0  0  0  0  0  0  0
  -23.2508   -8.9533   22.9650 C   0  0  0  0  0  0  0  0  0  0  0  0
  -24.1023  -23.2231   24.7270 C   0  0  0  0  0  0  0  0  0  0  0  0
  -20.0854   -7.8209   23.3090 C   0  0  0  0  0  0  0  0  0  0  0  0
  -19.1697   -7.8907   24.3589 C   0  0  0  0  0  0  0  0  0  0  0  0
  -25.8463  -24.8853   24.6039 C   0  0  0  0  0  0  0  0  0  0  0  0
  -28.2563  -19.6896   21.3692 C   0  0  0  0  0  0  0  0  0  0  0  0
  -27.4463  -19.5383   24.0345 C   0  0  0  0  0  0  0  0  0  0  0  0
  -20.5046   -6.3265   25.6272 C   0  0  0  0  0  0  0  0  0  0  0  0
  -24.0004  -10.4533   21.2257 C   0  0  0  0  0  0  0  0  0  0  0  0
  -24.0565  -12.9340   20.6335 C   0  0  0  0  0  0  0  0  0  0  0  0
  -18.4270  -28.1800   22.3466 C   0  0  0  0  0  0  0  0  0  0  0  0
  -23.6611  -25.5003   25.4445 C   0  0  0  0  0  0  0  0  0  0  0  0
  -19.7341  -27.6567   22.3317 C   0  0  0  0  0  0  0  0  0  0  0  0
  -24.9811  -25.8555   25.1323 C   0  0  0  0  0  0  0  0  0  0  0  0
  -28.8675  -18.7811   22.2334 C   0  0  0  0  0  0  0  0  0  0  0  0
  -26.8351  -20.4468   23.1704 C   0  0  0  0  0  0  0  0  0  0  0  0
  -22.7362   -8.0895   21.9981 C   0  0  0  0  0  0  0  0  0  0  0  0
  -25.4083  -23.5768   24.4010 C   0  0  0  0  0  0  0  0  0  0  0  0
  -21.2107   -7.0039   23.4182 C   0  0  0  0  0  0  0  0  0  0  0  0
  -19.3792   -7.1435   25.5179 C   0  0  0  0  0  0  0  0  0  0  0  0
  -21.4203   -6.2567   24.5773 C   0  0  0  0  0  0  0  0  0  0  0  0
  -28.4625  -18.7055   23.5660 C   0  0  0  0  0  0  0  0  0  0  0  0
  -27.2401  -20.5224   21.8378 C   0  0  0  0  0  0  0  0  0  0  0  0
  -24.6539  -11.6741   20.8274 C   0  0  0  0  0  0  0  0  0  0  0  0
  -25.0951  -13.7532   20.2639 C   0  0  0  0  0  0  0  0  0  0  0  0
  -22.6854  -13.3285   20.7750 C   0  0  0  0  0  0  0  0  0  0  0  0
  -22.7932  -28.3321   24.2908 C   0  0  0  0  0  0  0  0  0  0  0  0
  -24.9257  -29.4380   26.4708 C   0  0  0  0  0  0  0  0  0  0  0  0
  -27.6829  -28.8365   28.3898 C   0  0  0  0  0  0  0  0  0  0  0  0
  -30.3282  -15.5765   20.9248 C   0  0  0  0  0  0  0  0  0  0  0  0
  -18.1614  -29.6440   22.5929 C   0  0  0  0  0  0  0  0  0  0  0  0
  -22.7190  -26.5133   26.0350 C   0  0  0  0  0  0  0  0  0  0  0  0
  -25.4960  -27.2555   25.3407 C   0  0  0  0  0  0  0  0  0  0  0  0
  -19.3355  -30.3759   23.2380 C   0  0  0  0  0  0  0  0  0  0  0  0
  -29.8547  -12.6484   18.9552 C   0  0  0  0  0  0  0  0  0  0  0  0
  -20.6397  -30.0201   22.5315 C   0  0  0  0  0  0  0  0  0  0  0  0
  -28.4130  -12.2347   19.2556 C   0  0  0  0  0  0  0  0  0  0  0  0
  -30.5466  -13.2207   20.1904 C   0  0  0  0  0  0  0  0  0  0  0  0
  -28.3838  -13.9133   21.1478 C   0  0  0  0  0  0  0  0  0  0  0  0
  -20.9369  -28.5200   22.6447 C   0  0  1  0  0  0  0  0  0  0  0  0
  -23.1083  -27.9520   25.7099 C   0  0  1  0  0  0  0  0  0  0  0  0
  -27.6270  -13.3819   19.9185 C   0  0  2  0  0  0  0  0  0  0  0  0
  -29.2137  -29.9447   30.0408 C   0  0  0  0  0  0  0  0  0  0  0  0
  -26.2689  -30.9654   24.1964 C   0  0  0  0  0  0  0  0  0  0  0  0
  -28.2719  -31.2588   25.6696 C   0  0  0  0  0  0  0  0  0  0  0  0
  -26.0786  -32.2401   26.3397 C   0  0  0  0  0  0  0  0  0  0  0  0
  -26.9969  -26.8882   30.5093 C   0  0  0  0  0  0  0  0  0  0  0  0
  -29.9518  -17.9065   21.6919 C   0  0  0  0  0  0  0  0  0  0  0  0
  -25.7466  -21.3256   23.7127 C   0  0  0  0  0  0  0  0  0  1  0  0
  -26.4056  -29.7361   26.4627 C   0  0  1  0  0  0  0  0  0  0  0  0
  -27.9642  -29.0972   29.8586 C   0  0  2  0  0  0  0  0  0  0  0  0
  -26.7463  -31.0241   25.6612 C   0  0  0  0  0  0  0  0  0  0  0  0
  -25.9700  -11.6869   20.5996 N   0  0  0  0  0  0  0  0  0  0  0  0
  -26.2081  -12.9649   20.2587 N   0  0  0  0  0  0  0  0  0  0  0  0
  -24.5348  -28.2116   25.9148 N   0  0  0  0  0  0  0  0  0  0  0  0
  -29.7507  -14.3054   20.7702 N   0  0  0  0  0  0  0  0  0  0  0  0
  -25.1558  -15.0638   19.9460 N   0  0  0  0  0  0  0  0  0  0  0  0
  -21.7483  -12.3609   21.1622 N   0  0  0  0  0  0  0  0  0  0  0  0
  -21.4581  -28.2057   23.9577 N   0  0  0  0  0  0  0  0  0  0  0  0
  -26.8218  -29.7744   27.8605 N   0  0  0  0  0  0  0  0  0  0  0  0
  -29.5030  -16.5490   21.4762 N   0  0  0  0  0  0  0  0  0  0  0  0
  -28.1590  -27.8105   30.5849 N   0  3  0  0  0  0  0  0  0  0  0  0
  -22.2998  -14.5004   20.5483 O   0  0  0  0  0  0  0  0  0  0  0  0
  -23.6944  -28.7134   23.5531 O   0  0  0  0  0  0  0  0  0  0  0  0
  -24.1459  -30.2597   26.9590 O   0  0  0  0  0  0  0  0  0  0  0  0
  -28.1804  -27.8973   27.7727 O   0  0  0  0  0  0  0  0  0  0  0  0
  -31.4911  -15.8275   20.5908 O   0  0  0  0  0  0  0  0  0  0  0  0
  -22.1193   -6.9363   22.3754 O   0  0  0  0  0  0  0  0  0  0  0  0
  -26.2588  -22.6458   23.8894 O   0  0  0  0  0  0  0  0  0  1  0  0
  -18.5006   -7.2118   26.5266 F   0  0  0  0  0  0  0  0  0  0  0  0
  -22.5001   -5.4710   24.6884 F   0  0  0  0  0  0  0  0  0  0  0  0
  -29.1951  -17.5927   24.6633 Cl  0  0  0  0  0  0  0  0  0  0  0  0
  -26.5068  -21.6343   20.7397 Cl  0  0  0  0  0  0  0  0  0  0  0  0
  1  2  1  0  0  0  0
  1  5  2  0  0  0  0
  2  6  2  0  0  0  0
  3  8  2  0  0  0  0
  3 17  1  0  0  0  0
  4  9  1  0  0  0  0
  4 17  2  0  0  0  0
  5 19  1  0  0  0  0
  6 21  1  0  0  0  0
  7 10  2  0  0  0  0
  7 20  1  0  0  0  0
  8 25  1  0  0  0  0
  9 25  2  0  0  0  0
 10 26  1  0  0  0  0
 11 12  2  0  0  0  0
 11 27  1  0  0  0  0
 12 28  1  0  0  0  0
 13 22  1  0  0  0  0
 13 26  2  0  0  0  0
 14 23  2  0  0  0  0
 14 31  1  0  0  0  0
 15 24  1  0  0  0  0
 15 30  2  0  0  0  0
 16 28  2  0  0  0  0
 16 29  1  0  0  0  0
 17 32  1  0  0  0  0
 18 32  1  0  0  0  0
 18 33  2  0  0  0  0
 18 34  1  0  0  0  0
 19 21  2  0  0  0  0
 19 39  1  0  0  0  0
 20 22  2  0  0  0  0
 20 40  1  0  0  0  0
 21 48  1  0  0  0  0
 22 41  1  0  0  0  0
 23 30  1  0  0  0  0
 23 56  1  0  0  0  0
 24 31  2  0  0  0  0
 24 57  1  0  0  0  0
 25 76  1  0  0  0  0
 26 77  1  0  0  0  0
 27 29  2  0  0  0  0
 27 76  1  0  0  0  0
 28 78  1  0  0  0  0
 29 79  1  0  0  0  0
 30 80  1  0  0  0  0
 31 81  1  0  0  0  0
 32 61  2  0  0  0  0
 33 62  1  0  0  0  0
 33 65  1  0  0  0  0
 34 66  1  0  0  0  0
 34 71  2  0  0  0  0
 35 49  1  0  0  0  0
 35 67  1  0  0  0  0
 35 72  2  0  0  0  0
 36 58  1  0  0  0  0
 36 63  1  0  0  0  0
 36 73  2  0  0  0  0
 37 59  1  0  0  0  0
 37 68  1  0  0  0  0
 37 74  2  0  0  0  0
 38 64  1  0  0  0  0
 38 69  1  0  0  0  0
 38 75  2  0  0  0  0
 39 42  1  0  0  0  0
 40 49  1  0  0  0  0
 41 63  1  0  0  0  0
 42 44  1  0  0  0  0
 43 45  1  0  0  0  0
 43 46  1  0  0  0  0
 44 48  1  0  0  0  0
 45 50  1  0  0  0  0
 46 64  1  0  0  0  0
 47 50  1  0  0  0  0
 47 64  1  0  0  0  0
 48 67  1  0  0  0  0
 49 63  1  0  0  0  0
 50 62  1  0  0  0  0
 51 59  1  0  0  0  0
 52 60  1  0  0  0  0
 53 60  1  0  0  0  0
 54 60  1  0  0  0  0
 55 70  1  0  0  0  0
 56 69  1  0  0  0  0
 57 77  1  0  0  0  0
 58 60  1  0  0  0  0
 58 68  1  0  0  0  0
 59 70  1  0  0  0  0
 61 62  1  0  0  0  0
M  CHG  1  70   1
M  ISO  4  38 100  57 101  69 100  77 101
M  END
> <Batch ID>
0030

> <Smiles>
CNC(C)C(=O)NC(C(=O)N1Cc2cc([101O:1][101CH2:1]c3cc(Cl)c(C[100NH:0][100C:0](=O)N4CCCC(n5nc(-c6ccc(Oc7ccc(F)cc7F)cc6)c(C(N)=O)c5N)C4)cc3Cl)ccc2CC1C(=O)NC1CCCc2ccccc21)C(C)(C)C

> <Shape>
0.283

> <Color>
0.199

> <Negative vol penalty>
0.000

$$$$

  -OEChem-04052316393D

 83 91  0     1  0  0  0  0  0999 V2000
  -30.7098   -9.5185   29.4579 C   0  0  0  0  0  0  0  0  0  0  0  0
  -30.8748  -10.7999   28.9421 C   0  0  0  0  0  0  0  0  0  0  0  0
  -23.2884   -9.7995   19.9129 C   0  0  0  0  0  0  0  0  0  0  0  0
  -23.7391   -9.9398   22.2823 C   0  0  0  0  0  0  0  0  0  0  0  0
  -29.4277   -9.0160   29.6764 C   0  0  0  0  0  0  0  0  0  0  0  0
  -29.7578  -11.5793   28.6433 C   0  0  0  0  0  0  0  0  0  0  0  0
  -30.2281  -16.3523   30.2686 C   0  0  0  0  0  0  0  0  0  0  0  0
  -22.5621   -8.6269   20.1205 C   0  0  0  0  0  0  0  0  0  0  0  0
  -23.0127   -8.7673   22.4899 C   0  0  0  0  0  0  0  0  0  0  0  0
  -31.0208  -17.2093   29.5064 C   0  0  0  0  0  0  0  0  0  0  0  0
  -19.7657   -7.8560   22.7071 C   0  0  0  0  0  0  0  0  0  0  0  0
  -18.8634   -7.8342   23.7705 C   0  0  0  0  0  0  0  0  0  0  0  0
  -29.0361  -18.1390   28.4985 C   0  0  0  0  0  0  0  0  0  0  0  0
  -30.7873  -16.5688   25.1341 C   0  0  0  0  0  0  0  0  0  0  0  0
  -32.8219  -15.3341   23.6785 C   0  0  0  0  0  0  0  0  0  0  0  0
  -20.0692   -5.9869   24.7558 C   0  0  0  0  0  0  0  0  0  0  0  0
  -23.8770  -10.4559   20.9938 C   0  0  0  0  0  0  0  0  0  0  0  0
  -24.1362  -12.9860   20.7955 C   0  0  0  0  0  0  0  0  0  0  0  0
  -28.2945   -9.7932   29.3893 C   0  0  0  0  0  0  0  0  0  0  0  0
  -28.8315  -16.3747   30.1433 C   0  0  0  0  0  0  0  0  0  0  0  0
  -28.4593  -11.0862   28.8569 C   0  0  0  0  0  0  0  0  0  0  0  0
  -28.2278  -17.2830   29.2621 C   0  0  0  0  0  0  0  0  0  0  0  0
  -31.8873  -17.3115   24.7051 C   0  0  0  0  0  0  0  0  0  0  0  0
  -31.7219  -14.5915   24.1076 C   0  0  0  0  0  0  0  0  0  0  0  0
  -22.4242   -8.1108   21.4090 C   0  0  0  0  0  0  0  0  0  0  0  0
  -30.4250  -18.1008   28.6190 C   0  0  0  0  0  0  0  0  0  0  0  0
  -20.8198   -6.9433   22.6680 C   0  0  0  0  0  0  0  0  0  0  0  0
  -19.0151   -6.8997   24.7948 C   0  0  0  0  0  0  0  0  0  0  0  0
  -20.9716   -6.0087   23.6923 C   0  0  0  0  0  0  0  0  0  0  0  0
  -32.9046  -16.6942   23.9772 C   0  0  0  0  0  0  0  0  0  0  0  0
  -30.7046  -15.2088   24.8355 C   0  0  0  0  0  0  0  0  0  0  0  0
  -24.6278  -11.6669   20.7799 C   0  0  0  0  0  0  0  0  0  0  0  0
  -25.2377  -13.7660   20.5406 C   0  0  0  0  0  0  0  0  0  0  0  0
  -22.8032  -13.4635   21.0203 C   0  0  0  0  0  0  0  0  0  0  0  0
  -26.6269  -14.2723   29.2362 C   0  0  0  0  0  0  0  0  0  0  0  0
  -24.5766  -16.6036   30.1764 C   0  0  0  0  0  0  0  0  0  0  0  0
  -24.0339  -19.9218   30.7610 C   0  0  0  0  0  0  0  0  0  0  0  0
  -31.1087  -12.9231   21.3602 C   0  0  0  0  0  0  0  0  0  0  0  0
  -26.9283   -9.1894   29.5978 C   0  0  0  0  0  0  0  0  0  0  0  0
  -27.9892  -15.4624   30.9922 C   0  0  0  0  0  0  0  0  0  0  0  0
  -26.7318  -17.3607   29.1053 C   0  0  0  0  0  0  0  0  0  0  0  0
  -25.8019  -10.2196   29.6065 C   0  0  0  0  0  0  0  0  0  0  0  0
  -29.4598  -13.6628   18.2925 C   0  0  0  0  0  0  0  0  0  0  0  0
  -25.9571  -11.1901   28.4399 C   0  0  0  0  0  0  0  0  0  0  0  0
  -27.9901  -13.3542   18.5836 C   0  0  0  0  0  0  0  0  0  0  0  0
  -30.3931  -12.6834   19.0008 C   0  0  0  0  0  0  0  0  0  0  0  0
  -28.7065  -12.2537   20.7456 C   0  0  0  0  0  0  0  0  0  0  0  0
  -27.2726  -11.9714   28.5436 C   0  0  1  0  0  0  0  0  0  0  0  0
  -26.6024  -15.2134   30.4072 C   0  0  1  0  0  0  0  0  0  0  0  0
  -27.7285  -13.2490   20.0981 C   0  0  2  0  0  0  0  0  0  0  0  0
  -22.2472  -21.5278   31.4860 C   0  0  0  0  0  0  0  0  0  0  0  0
  -23.2800  -16.4007   27.4219 C   0  0  0  0  0  0  0  0  0  0  0  0
  -22.1800  -18.6079   27.8540 C   0  0  0  0  0  0  0  0  0  0  0  0
  -21.6684  -16.6536   29.3174 C   0  0  0  0  0  0  0  0  0  0  0  0
  -25.5937  -20.7686   33.1293 C   0  0  0  0  0  0  0  0  0  0  0  0
  -31.9380  -18.7788   25.0484 C   0  0  0  0  0  0  0  0  0  0  0  0
  -31.6705  -13.1366   23.7681 C   0  0  0  0  0  0  0  0  0  0  0  0
  -32.8991  -19.1110   26.1919 C   0  0  0  0  0  0  0  0  0  0  0  0
  -32.4999  -18.4773   27.5195 C   0  0  0  0  0  0  0  0  0  1  0  0
  -23.9212  -17.7858   29.5043 C   0  0  1  0  0  0  0  0  0  0  0  0
  -23.4031  -20.6477   31.9355 C   0  0  2  0  0  0  0  0  0  0  0  0
  -22.7907  -17.3594   28.5257 C   0  0  0  0  0  0  0  0  0  0  0  0
  -25.9394  -11.6084   20.5344 N   0  0  0  0  0  0  0  0  0  0  0  0
  -26.2813  -12.9004   20.3933 N   0  0  0  0  0  0  0  0  0  0  0  0
  -25.9515  -16.4438   29.9526 N   0  0  0  0  0  0  0  0  0  0  0  0
  -30.0938  -12.6318   20.4338 N   0  0  0  0  0  0  0  0  0  0  0  0
  -25.4056  -15.1009   20.4304 N   0  0  0  0  0  0  0  0  0  0  0  0
  -21.7906  -12.5265   21.2677 N   0  0  0  0  0  0  0  0  0  0  0  0
  -27.1564  -13.0290   29.5246 N   0  0  0  0  0  0  0  0  0  0  0  0
  -23.4809  -18.6723   30.5761 N   0  0  0  0  0  0  0  0  0  0  0  0
  -30.7390  -12.8574   22.6980 N   0  0  0  0  0  0  0  0  0  0  0  0
  -24.4123  -21.5081   32.6153 N   0  3  0  0  0  0  0  0  0  0  0  0
  -22.5152  -14.6839   20.9862 O   0  0  0  0  0  0  0  0  0  0  0  0
  -26.1958  -14.6459   28.1516 O   0  0  0  0  0  0  0  0  0  0  0  0
  -23.8953  -15.8537   30.8800 O   0  0  0  0  0  0  0  0  0  0  0  0
  -24.9253  -20.4154   30.0738 O   0  0  0  0  0  0  0  0  0  0  0  0
  -32.2577  -13.2250   21.0201 O   0  0  0  0  0  0  0  0  0  0  0  0
  -21.7153   -6.9668   21.6120 O   0  0  0  0  0  0  0  0  0  0  0  0
  -31.1964  -18.9379   27.8734 O   0  0  0  0  0  0  0  0  0  1  0  0
  -18.1494   -6.8798   25.8168 F   0  0  0  0  0  0  0  0  0  0  0  0
  -21.9829   -5.1301   23.6608 F   0  0  0  0  0  0  0  0  0  0  0  0
  -34.2795  -17.5818   23.4289 Cl  0  0  0  0  0  0  0  0  0  0  0  0
  -29.3288  -14.3217   25.3829 Cl  0  0  0  0  0  0  0  0  0  0  0  0
  1  2  1  0  0  0  0
  1  5  2  0  0  0  0
  2  6  2  0  0  0  0
  3  8  2  0  0  0  0
  3 17  1  0  0  0  0
  4  9  1  0  0  0  0
  4 17  2  0  0  0  0
  5 19  1  0  0  0  0
  6 21  1  0  0  0  0
  7 10  2  0  0  0  0
  7 20  1  0  0  0  0
  8 25  1  0  0  0  0
  9 25  2  0  0  0  0
 10 26  1  0  0  0  0
 11 12  2  0  0  0  0
 11 27  1  0  0  0  0
 12 28  1  0  0  0  0
 13 22  1  0  0  0  0
 13 26  2  0  0  0  0
 14 23  1  0  0  0  0
 14 31  2  0  0  0  0
 15 24  2  0  0  0  0
 15 30  1  0  0  0  0
 16 28  2  0  0  0  0
 16 29  1  0  0  0  0
 17 32  1  0  0  0  0
 18 32  1  0  0  0  0
 18 33  2  0  0  0  0
 18 34  1  0  0  0  0
 19 21  2  0  0  0  0
 19 39  1  0  0  0  0
 20 22  2  0  0  0  0
 20 40  1  0  0  0  0
 21 48  1  0  0  0  0
 22 41  1  0  0  0  0
 23 30  2  0  0  0  0
 23 56  1  0  0  0  0
 24 31  1  0  0  0  0
 24 57  1  0  0  0  0
 25 78  1  0  0  0  0
 26 79  1  0  0  0  0
 27 29  2  0  0  0  0
 27 78  1  0  0  0  0
 28 80  1  0  0  0  0
 29 81  1  0  0  0  0
 30 82  1  0  0  0  0
 31 83  1  0  0  0  0
 32 63  2  0  0  0  0
 33 64  1  0  0  0  0
 33 67  1  0  0  0  0
 34 68  1  0  0  0  0
 34 73  2  0  0  0  0
 35 49  1  0  0  0  0
 35 69  1  0  0  0  0
 35 74  2  0  0  0  0
 36 60  1  0  0  0  0
 36 65  1  0  0  0  0
 36 75  2  0  0  0  0
 37 61  1  0  0  0  0
 37 70  1  0  0  0  0
 37 76  2  0  0  0  0
 38 66  1  0  0  0  0
 38 71  1  0  0  0  0
 38 77  2  0  0  0  0
 39 42  1  0  0  0  0
 40 49  1  0  0  0  0
 41 65  1  0  0  0  0
 42 44  1  0  0  0  0
 43 45  1  0  0  0  0
 43 46  1  0  0  0  0
 44 48  1  0  0  0  0
 45 50  1  0  0  0  0
 46 66  1  0  0  0  0
 47 50  1  0  0  0  0
 47 66  1  0  0  0  0
 48 69  1  0  0  0  0
 49 65  1  0  0  0  0
 50 64  1  0  0  0  0
 51 61  1  0  0  0  0
 52 62  1  0  0  0  0
 53 62  1  0  0  0  0
 54 62  1  0  0  0  0
 55 72  1  0  0  0  0
 56 58  1  0  0  0  0
 57 71  1  0  0  0  0
 58 59  1  0  0  0  0
 59 79  1  0  0  0  0
 60 62  1  0  0  0  0
 60 70  1  0  0  0  0
 61 72  1  0  0  0  0
 63 64  1  0  0  0  0
M  CHG  1  72   1
M  ISO  4  38 100  59 101  71 100  79 101
M  END
> <Batch ID>
0030

> <Smiles>
CNC(C)C(=O)NC(C(=O)N1Cc2cc([101O:1][101CH2:1]CCc3cc(Cl)c(C[100NH:0][100C:0](=O)N4CCCC(n5nc(-c6ccc(Oc7ccc(F)cc7F)cc6)c(C(N)=O)c5N)C4)cc3Cl)ccc2CC1C(=O)NC1CCCc2ccccc21)C(C)(C)C

> <Shape>
0.136

> <Color>
0.182

> <Negative vol penalty>
0.000

$$$$

  -OEChem-04052316393D

 85 93  0     1  0  0  0  0  0999 V2000
  -20.5814  -16.6138   20.3581 C   0  0  0  0  0  0  0  0  0  0  0  0
  -21.3924  -17.2805   21.2708 C   0  0  0  0  0  0  0  0  0  0  0  0
  -29.1916  -17.4353   19.3284 C   0  0  0  0  0  0  0  0  0  0  0  0
  -30.5219  -17.9040   21.2899 C   0  0  0  0  0  0  0  0  0  0  0  0
  -20.4864  -17.0741   19.0455 C   0  0  0  0  0  0  0  0  0  0  0  0
  -22.1098  -18.4075   20.8712 C   0  0  0  0  0  0  0  0  0  0  0  0
  -21.8253  -22.1845   24.2324 C   0  0  0  0  0  0  0  0  0  0  0  0
  -29.7621  -16.1652   19.2449 C   0  0  0  0  0  0  0  0  0  0  0  0
  -31.0925  -16.6339   21.2065 C   0  0  0  0  0  0  0  0  0  0  0  0
  -22.6263  -22.0867   25.3693 C   0  0  0  0  0  0  0  0  0  0  0  0
  -29.3962  -13.1655   20.7617 C   0  0  0  0  0  0  0  0  0  0  0  0
  -28.5447  -12.0868   20.5231 C   0  0  0  0  0  0  0  0  0  0  0  0
  -24.2222  -23.5928   24.3672 C   0  0  0  0  0  0  0  0  0  0  0  0
  -25.9507  -27.1741   24.8768 C   0  0  0  0  0  0  0  0  0  0  0  0
  -27.9807  -26.5303   26.0175 C   0  0  0  0  0  0  0  0  0  0  0  0
  -29.7495  -11.5855   18.4897 C   0  0  0  0  0  0  0  0  0  0  0  0
  -29.5715  -18.3047   20.3509 C   0  0  0  0  0  0  0  0  0  0  0  0
  -27.8189  -19.9820   21.1399 C   0  0  0  0  0  0  0  0  0  0  0  0
  -21.1955  -18.2130   18.6320 C   0  0  0  0  0  0  0  0  0  0  0  0
  -22.2227  -22.9799   23.1480 C   0  0  0  0  0  0  0  0  0  0  0  0
  -22.0253  -18.8827   19.5514 C   0  0  0  0  0  0  0  0  0  0  0  0
  -23.4232  -23.7010   23.2187 C   0  0  0  0  0  0  0  0  0  0  0  0
  -26.5977  -26.7116   26.0227 C   0  0  0  0  0  0  0  0  0  0  0  0
  -28.0697  -27.2738   23.7205 C   0  0  0  0  0  0  0  0  0  0  0  0
  -30.7125  -15.7645   20.1839 C   0  0  0  0  0  0  0  0  0  0  0  0
  -23.8263  -22.7886   25.4357 C   0  0  0  0  0  0  0  0  0  0  0  0
  -30.4243  -13.4543   19.8642 C   0  0  0  0  0  0  0  0  0  0  0  0
  -28.7214  -11.2967   19.3872 C   0  0  0  0  0  0  0  0  0  0  0  0
  -26.6866  -27.4551   23.7256 C   0  0  0  0  0  0  0  0  0  0  0  0
  -30.6009  -12.6643   18.7283 C   0  0  0  0  0  0  0  0  0  0  0  0
  -28.7167  -26.8114   24.8664 C   0  0  0  0  0  0  0  0  0  0  0  0
  -28.9829  -19.6170   20.4374 C   0  0  0  0  0  0  0  0  0  0  0  0
  -27.6866  -21.3294   20.9087 C   0  0  0  0  0  0  0  0  0  0  0  0
  -26.9361  -19.1752   21.9308 C   0  0  0  0  0  0  0  0  0  0  0  0
  -22.9187  -22.4264   20.0963 C   0  0  0  0  0  0  0  0  0  0  0  0
  -23.0883  -25.6626   19.9524 C   0  0  0  0  0  0  0  0  0  0  0  0
  -23.0407  -28.3269   21.6285 C   0  0  0  0  0  0  0  0  0  0  0  0
  -29.8902  -26.4435   20.5405 C   0  0  0  0  0  0  0  0  0  0  0  0
  -21.0979  -18.6451   17.1904 C   0  0  0  0  0  0  0  0  0  0  0  0
  -21.3345  -23.0958   21.9397 C   0  0  0  0  0  0  0  0  0  0  0  0
  -23.8851  -24.5847   22.0899 C   0  0  0  0  0  0  0  0  0  0  0  0
  -21.5984  -20.0663   16.9453 C   0  0  0  0  0  0  0  0  0  0  0  0
  -30.0965  -24.3642   17.6577 C   0  0  0  0  0  0  0  0  0  0  0  0
  -22.9360  -20.2891   17.6440 C   0  0  0  0  0  0  0  0  0  0  0  0
  -29.7354  -22.9737   18.1830 C   0  0  0  0  0  0  0  0  0  0  0  0
  -30.9044  -25.1613   18.6794 C   0  0  0  0  0  0  0  0  0  0  0  0
  -29.9235  -23.8754   20.5389 C   0  0  0  0  0  0  0  0  0  0  0  0
  -22.7997  -20.1233   19.1623 C   0  0  1  0  0  0  0  0  0  0  0  0
  -22.0861  -23.5299   20.6851 C   0  0  1  0  0  0  0  0  0  0  0  0
  -29.0605  -23.0544   19.5655 C   0  0  2  0  0  0  0  0  0  0  0  0
  -23.3789  -30.7920   21.9550 C   0  0  0  0  0  0  0  0  0  0  0  0
  -25.8744  -25.3382   18.7514 C   0  0  0  0  0  0  0  0  0  0  0  0
  -26.3009  -27.7511   19.2654 C   0  0  0  0  0  0  0  0  0  0  0  0
  -24.4789  -27.1178   17.6837 C   0  0  0  0  0  0  0  0  0  0  0  0
  -20.1975  -28.7407   22.3388 C   0  0  0  0  0  0  0  0  0  0  0  0
  -28.8252  -27.5860   22.4691 C   0  0  0  0  0  0  0  0  0  0  0  0
  -25.8057  -26.4111   27.2610 C   0  0  0  0  0  0  0  0  0  0  0  0
  -24.7613  -23.1125   28.9010 C   0  0  0  0  0  0  0  0  0  0  0  0
  -24.9053  -24.6194   28.7503 C   0  0  0  0  0  0  0  0  0  0  0  0
  -23.9513  -22.4596   27.7877 C   0  0  0  0  0  0  0  0  0  1  0  0
  -24.1790  -26.6861   20.1567 C   0  0  1  0  0  0  0  0  0  0  0  0
  -22.3851  -29.6959   21.6033 C   0  0  2  0  0  0  0  0  0  0  0  0
  -25.2008  -26.7052   18.9850 C   0  0  0  0  0  0  0  0  0  0  0  0
  -29.5497  -20.6492   19.8070 N   0  0  0  0  0  0  0  0  0  0  0  0
  -28.7383  -21.6760   20.1125 N   0  0  0  0  0  0  0  0  0  0  0  0
  -22.9849  -24.6602   20.9273 N   0  0  0  0  0  0  0  0  0  0  0  0
  -30.2088  -25.2010   19.9679 N   0  0  0  0  0  0  0  0  0  0  0  0
  -26.7744  -22.2397   21.3108 N   0  0  0  0  0  0  0  0  0  0  0  0
  -27.2192  -17.8091   22.0643 N   0  0  0  0  0  0  0  0  0  0  0  0
  -22.1961  -21.3014   19.7473 N   0  0  0  0  0  0  0  0  0  0  0  0
  -23.5058  -27.9604   20.3833 N   0  0  0  0  0  0  0  0  0  0  0  0
  -29.2254  -26.3914   21.7595 N   0  0  0  0  0  0  0  0  0  0  0  0
  -21.2607  -29.7498   22.5799 N   0  3  0  0  0  0  0  0  0  0  0  0
  -25.6291  -24.9521   27.5009 N   0  3  0  0  0  0  0  0  0  0  0  0
  -25.9172  -19.6485   22.4887 O   0  0  0  0  0  0  0  0  0  0  0  0
  -24.1270  -22.5845   19.9668 O   0  0  0  0  0  0  0  0  0  0  0  0
  -22.3505  -25.7533   18.9680 O   0  0  0  0  0  0  0  0  0  0  0  0
  -23.1343  -27.6520   22.6514 O   0  0  0  0  0  0  0  0  0  0  0  0
  -30.1723  -27.5195   20.0024 O   0  0  0  0  0  0  0  0  0  0  0  0
  -31.2693  -14.5251   20.1029 O   0  0  0  0  0  0  0  0  0  0  0  0
  -24.6103  -22.6944   26.5440 O   0  0  0  0  0  0  0  0  0  1  0  0
  -27.9046  -10.2599   19.1590 F   0  0  0  0  0  0  0  0  0  0  0  0
  -26.0548  -27.8978   22.6294 F   0  0  0  0  0  0  0  0  0  0  0  0
  -31.5876  -12.9361   17.8632 F   0  0  0  0  0  0  0  0  0  0  0  0
  -30.4264  -26.5757   24.8970 Cl  0  0  0  0  0  0  0  0  0  0  0  0
  1  2  1  0  0  0  0
  1  5  2  0  0  0  0
  2  6  2  0  0  0  0
  3  8  2  0  0  0  0
  3 17  1  0  0  0  0
  4  9  1  0  0  0  0
  4 17  2  0  0  0  0
  5 19  1  0  0  0  0
  6 21  1  0  0  0  0
  7 10  2  0  0  0  0
  7 20  1  0  0  0  0
  8 25  1  0  0  0  0
  9 25  2  0  0  0  0
 10 26  1  0  0  0  0
 11 12  2  0  0  0  0
 11 27  1  0  0  0  0
 12 28  1  0  0  0  0
 13 22  1  0  0  0  0
 13 26  2  0  0  0  0
 14 23  1  0  0  0  0
 14 29  2  0  0  0  0
 15 23  2  0  0  0  0
 15 31  1  0  0  0  0
 16 28  2  0  0  0  0
 16 30  1  0  0  0  0
 17 32  1  0  0  0  0
 18 32  1  0  0  0  0
 18 33  2  0  0  0  0
 18 34  1  0  0  0  0
 19 21  2  0  0  0  0
 19 39  1  0  0  0  0
 20 22  2  0  0  0  0
 20 40  1  0  0  0  0
 21 48  1  0  0  0  0
 22 41  1  0  0  0  0
 23 57  1  0  0  0  0
 24 29  1  0  0  0  0
 24 31  2  0  0  0  0
 24 56  1  0  0  0  0
 25 80  1  0  0  0  0
 26 81  1  0  0  0  0
 27 30  2  0  0  0  0
 27 80  1  0  0  0  0
 28 82  1  0  0  0  0
 29 83  1  0  0  0  0
 30 84  1  0  0  0  0
 31 85  1  0  0  0  0
 32 64  2  0  0  0  0
 33 65  1  0  0  0  0
 33 68  1  0  0  0  0
 34 69  1  0  0  0  0
 34 75  2  0  0  0  0
 35 49  1  0  0  0  0
 35 70  1  0  0  0  0
 35 76  2  0  0  0  0
 36 61  1  0  0  0  0
 36 66  1  0  0  0  0
 36 77  2  0  0  0  0
 37 62  1  0  0  0  0
 37 71  1  0  0  0  0
 37 78  2  0  0  0  0
 38 67  1  0  0  0  0
 38 72  1  0  0  0  0
 38 79  2  0  0  0  0
 39 42  1  0  0  0  0
 40 49  1  0  0  0  0
 41 66  1  0  0  0  0
 42 44  1  0  0  0  0
 43 45  1  0  0  0  0
 43 46  1  0  0  0  0
 44 48  1  0  0  0  0
 45 50  1  0  0  0  0
 46 67  1  0  0  0  0
 47 50  1  0  0  0  0
 47 67  1  0  0  0  0
 48 70  1  0  0  0  0
 49 66  1  0  0  0  0
 50 65  1  0  0  0  0
 51 62  1  0  0  0  0
 52 63  1  0  0  0  0
 53 63  1  0  0  0  0
 54 63  1  0  0  0  0
 55 73  1  0  0  0  0
 56 72  1  0  0  0  0
 57 74  1  0  0  0  0
 58 59  1  0  0  0  0
 58 60  1  0  0  0  0
 59 74  1  0  0  0  0
 60 81  1  0  0  0  0
 61 63  1  0  0  0  0
 61 71  1  0  0  0  0
 62 73  1  0  0  0  0
 64 65  1  0  0  0  0
M  CHG  2  73   1  74   1
M  ISO  4  38 100  60 101  72 100  81 101
M  END
> <Batch ID>
0030

> <Smiles>
CNC(C)C(=O)NC(C(=O)N1Cc2cc([101O:1][101CH2:1]CCNCc3cc(F)c(C[100NH:0][100C:0](=O)N4CCCC(n5nc(-c6ccc(Oc7ccc(F)cc7F)cc6)c(C(N)=O)c5N)C4)c(Cl)c3)ccc2CC1C(=O)NC1CCCc2ccccc21)C(C)(C)C

> <Shape>
0.206

> <Color>
0.062

> <Negative vol penalty>
0.000

$$$$

  -OEChem-04052316393D

 85 93  0     1  0  0  0  0  0999 V2000
  -25.7527  -17.7633   22.2976 C   0  0  0  0  0  0  0  0  0  0  0  0
  -26.3234  -16.9240   23.2490 C   0  0  0  0  0  0  0  0  0  0  0  0
  -23.2884   -9.7997   19.9129 C   0  0  0  0  0  0  0  0  0  0  0  0
  -23.7392   -9.9399   22.2823 C   0  0  0  0  0  0  0  0  0  0  0  0
  -24.7845  -18.6912   22.6793 C   0  0  0  0  0  0  0  0  0  0  0  0
  -25.9270  -17.0128   24.5830 C   0  0  0  0  0  0  0  0  0  0  0  0
  -25.1356  -12.4723   26.6811 C   0  0  0  0  0  0  0  0  0  0  0  0
  -22.5620   -8.6271   20.1204 C   0  0  0  0  0  0  0  0  0  0  0  0
  -23.0128   -8.7674   22.4899 C   0  0  0  0  0  0  0  0  0  0  0  0
  -26.2602  -11.7463   27.0711 C   0  0  0  0  0  0  0  0  0  0  0  0
  -19.7657   -7.8564   22.7071 C   0  0  0  0  0  0  0  0  0  0  0  0
  -18.8633   -7.8346   23.7705 C   0  0  0  0  0  0  0  0  0  0  0  0
  -25.9156  -12.4497   29.3526 C   0  0  0  0  0  0  0  0  0  0  0  0
  -31.0664  -13.1322   26.1831 C   0  0  0  0  0  0  0  0  0  0  0  0
  -20.0690   -5.9872   24.7557 C   0  0  0  0  0  0  0  0  0  0  0  0
  -23.8771  -10.4561   20.9938 C   0  0  0  0  0  0  0  0  0  0  0  0
  -24.1366  -12.9861   20.7955 C   0  0  0  0  0  0  0  0  0  0  0  0
  -24.3692  -18.7849   24.0170 C   0  0  0  0  0  0  0  0  0  0  0  0
  -24.3976  -13.2025   27.6238 C   0  0  0  0  0  0  0  0  0  0  0  0
  -24.9534  -17.9438   24.9832 C   0  0  0  0  0  0  0  0  0  0  0  0
  -24.7805  -13.1821   28.9725 C   0  0  0  0  0  0  0  0  0  0  0  0
  -31.0100  -13.7651   24.9463 C   0  0  0  0  0  0  0  0  0  0  0  0
  -22.4242   -8.1110   21.4090 C   0  0  0  0  0  0  0  0  0  0  0  0
  -26.6520  -11.7373   28.4065 C   0  0  0  0  0  0  0  0  0  0  0  0
  -20.8197   -6.9436   22.6679 C   0  0  0  0  0  0  0  0  0  0  0  0
  -30.4512  -13.7156   27.2851 C   0  0  0  0  0  0  0  0  0  0  0  0
  -19.0150   -6.9001   24.7948 C   0  0  0  0  0  0  0  0  0  0  0  0
  -20.9714   -6.0090   23.6923 C   0  0  0  0  0  0  0  0  0  0  0  0
  -24.6281  -11.6670   20.7799 C   0  0  0  0  0  0  0  0  0  0  0  0
  -29.7976  -14.9231   27.0992 C   0  0  0  0  0  0  0  0  0  0  0  0
  -30.3312  -14.9702   24.8651 C   0  0  0  0  0  0  0  0  0  0  0  0
  -25.2381  -13.7660   20.5407 C   0  0  0  0  0  0  0  0  0  0  0  0
  -22.8035  -13.4637   21.0204 C   0  0  0  0  0  0  0  0  0  0  0  0
  -23.6987  -16.2763   28.0324 C   0  0  0  0  0  0  0  0  0  0  0  0
  -21.8255  -15.1313   30.4205 C   0  0  0  0  0  0  0  0  0  0  0  0
  -21.1880  -12.6359   32.6594 C   0  0  0  0  0  0  0  0  0  0  0  0
  -31.1090  -12.9227   21.3602 C   0  0  0  0  0  0  0  0  0  0  0  0
  -23.3537  -19.8358   24.3899 C   0  0  0  0  0  0  0  0  0  0  0  0
  -23.1715  -13.9588   27.1914 C   0  0  0  0  0  0  0  0  0  0  0  0
  -24.0106  -13.9329   30.0269 C   0  0  0  0  0  0  0  0  0  0  0  0
  -22.7182  -19.6099   25.7593 C   0  0  0  0  0  0  0  0  0  0  0  0
  -29.4601  -13.6626   18.2925 C   0  0  0  0  0  0  0  0  0  0  0  0
  -23.7877  -19.2843   26.7970 C   0  0  0  0  0  0  0  0  0  0  0  0
  -27.9904  -13.3540   18.5836 C   0  0  0  0  0  0  0  0  0  0  0  0
  -30.3934  -12.6830   19.0007 C   0  0  0  0  0  0  0  0  0  0  0  0
  -28.7068  -12.2535   20.7456 C   0  0  0  0  0  0  0  0  0  0  0  0
  -24.5319  -17.9930   26.4357 C   0  0  1  0  0  0  0  0  0  0  0  0
  -22.7935  -15.0829   28.1510 C   0  0  1  0  0  0  0  0  0  0  0  0
  -27.7288  -13.2488   20.0981 C   0  0  2  0  0  0  0  0  0  0  0  0
  -29.9312  -16.7628   28.7974 C   0  0  0  0  0  0  0  0  0  0  0  0
  -19.6111  -12.0009   34.5053 C   0  0  0  0  0  0  0  0  0  0  0  0
  -23.2352  -17.0845   32.2934 C   0  0  0  0  0  0  0  0  0  0  0  0
  -22.3326  -15.7741   34.2263 C   0  0  0  0  0  0  0  0  0  0  0  0
  -20.7661  -16.8999   32.6448 C   0  0  0  0  0  0  0  0  0  0  0  0
  -20.2747  -10.2245   31.2068 C   0  0  0  0  0  0  0  0  0  0  0  0
  -31.6709  -13.1360   23.7681 C   0  0  0  0  0  0  0  0  0  0  0  0
  -29.1207  -15.5917   28.2504 C   0  0  0  0  0  0  0  0  0  0  0  0
  -29.9464  -11.1330   29.7824 C   0  0  0  0  0  0  0  0  0  0  0  0
  -28.4827  -11.5249   29.9096 C   0  0  0  0  0  0  0  0  0  1  0  0
  -30.5735  -11.6808   28.5100 C   0  0  0  0  0  0  0  0  0  0  0  0
  -22.0234  -14.8410   31.8886 C   0  0  1  0  0  0  0  0  0  0  0  0
  -19.9056  -11.9062   33.0163 C   0  0  2  0  0  0  0  0  0  0  0  0
  -22.1052  -16.1372   32.7433 C   0  0  0  0  0  0  0  0  0  0  0  0
  -25.9397  -11.6083   20.5344 N   0  0  0  0  0  0  0  0  0  0  0  0
  -29.7214  -15.5677   25.9133 N   0  0  0  0  0  0  0  0  0  0  0  0
  -26.2817  -12.9003   20.3933 N   0  0  0  0  0  0  0  0  0  0  0  0
  -22.8227  -14.6625   29.5534 N   0  0  0  0  0  0  0  0  0  0  0  0
  -30.0941  -12.6314   20.4338 N   0  0  0  0  0  0  0  0  0  0  0  0
  -25.4060  -15.1009   20.4304 N   0  0  0  0  0  0  0  0  0  0  0  0
  -21.7909  -12.5268   21.2678 N   0  0  0  0  0  0  0  0  0  0  0  0
  -23.7286  -16.8365   26.7696 N   0  0  0  0  0  0  0  0  0  0  0  0
  -20.9450  -13.9375   32.2750 N   0  0  0  0  0  0  0  0  0  0  0  0
  -30.7393  -12.8569   22.6980 N   0  0  0  0  0  0  0  0  0  0  0  0
  -20.0097  -10.4657   32.6485 N   0  3  0  0  0  0  0  0  0  0  0  0
  -22.5157  -14.6842   20.9863 O   0  0  0  0  0  0  0  0  0  0  0  0
  -24.3227  -16.6613   29.0143 O   0  0  0  0  0  0  0  0  0  0  0  0
  -20.8196  -15.7451   30.0556 O   0  0  0  0  0  0  0  0  0  0  0  0
  -22.2951  -12.1054   32.7195 O   0  0  0  0  0  0  0  0  0  0  0  0
  -32.2580  -13.2245   21.0201 O   0  0  0  0  0  0  0  0  0  0  0  0
  -21.7152   -6.9670   21.6119 O   0  0  0  0  0  0  0  0  0  0  0  0
  -27.7497  -11.0301   28.7898 O   0  0  0  0  0  0  0  0  0  1  0  0
  -30.5008  -13.1001   28.5088 O   0  0  0  0  0  0  0  0  0  0  0  0
  -18.1493   -6.8802   25.8167 F   0  0  0  0  0  0  0  0  0  0  0  0
  -21.9827   -5.1303   23.6608 F   0  0  0  0  0  0  0  0  0  0  0  0
  -30.1917  -15.8481   23.3925 Cl  0  0  0  0  0  0  0  0  0  0  0  0
  1  2  1  0  0  0  0
  1  5  2  0  0  0  0
  2  6  2  0  0  0  0
  3  8  2  0  0  0  0
  3 16  1  0  0  0  0
  4  9  1  0  0  0  0
  4 16  2  0  0  0  0
  5 18  1  0  0  0  0
  6 20  1  0  0  0  0
  7 10  2  0  0  0  0
  7 19  1  0  0  0  0
  8 23  1  0  0  0  0
  9 23  2  0  0  0  0
 10 24  1  0  0  0  0
 11 12  2  0  0  0  0
 11 25  1  0  0  0  0
 12 27  1  0  0  0  0
 13 21  1  0  0  0  0
 13 24  2  0  0  0  0
 14 22  2  0  0  0  0
 14 26  1  0  0  0  0
 15 27  2  0  0  0  0
 15 28  1  0  0  0  0
 16 29  1  0  0  0  0
 17 29  1  0  0  0  0
 17 32  2  0  0  0  0
 17 33  1  0  0  0  0
 18 20  2  0  0  0  0
 18 38  1  0  0  0  0
 19 21  2  0  0  0  0
 19 39  1  0  0  0  0
 20 47  1  0  0  0  0
 21 40  1  0  0  0  0
 22 31  1  0  0  0  0
 22 56  1  0  0  0  0
 23 80  1  0  0  0  0
 24 81  1  0  0  0  0
 25 28  2  0  0  0  0
 25 80  1  0  0  0  0
 26 30  2  0  0  0  0
 26 82  1  0  0  0  0
 27 83  1  0  0  0  0
 28 84  1  0  0  0  0
 29 64  2  0  0  0  0
 30 57  1  0  0  0  0
 30 65  1  0  0  0  0
 31 65  2  0  0  0  0
 31 85  1  0  0  0  0
 32 66  1  0  0  0  0
 32 69  1  0  0  0  0
 33 70  1  0  0  0  0
 33 75  2  0  0  0  0
 34 48  1  0  0  0  0
 34 71  1  0  0  0  0
 34 76  2  0  0  0  0
 35 61  1  0  0  0  0
 35 67  1  0  0  0  0
 35 77  2  0  0  0  0
 36 62  1  0  0  0  0
 36 72  1  0  0  0  0
 36 78  2  0  0  0  0
 37 68  1  0  0  0  0
 37 73  1  0  0  0  0
 37 79  2  0  0  0  0
 38 41  1  0  0  0  0
 39 48  1  0  0  0  0
 40 67  1  0  0  0  0
 41 43  1  0  0  0  0
 42 44  1  0  0  0  0
 42 45  1  0  0  0  0
 43 47  1  0  0  0  0
 44 49  1  0  0  0  0
 45 68  1  0  0  0  0
 46 49  1  0  0  0  0
 46 68  1  0  0  0  0
 47 71  1  0  0  0  0
 48 67  1  0  0  0  0
 49 66  1  0  0  0  0
 50 57  1  0  0  0  0
 51 62  1  0  0  0  0
 52 63  1  0  0  0  0
 53 63  1  0  0  0  0
 54 63  1  0  0  0  0
 55 74  1  0  0  0  0
 56 73  1  0  0  0  0
 58 59  1  0  0  0  0
 58 60  1  0  0  0  0
 59 81  1  0  0  0  0
 60 82  1  0  0  0  0
 61 63  1  0  0  0  0
 61 72  1  0  0  0  0
 62 74  1  0  0  0  0
 64 66  1  0  0  0  0
M  CHG  1  74   1
M  ISO  4  37 100  59 101  73 100  81 101
M  END
> <Batch ID>
0030

> <Smiles>
CCc1nc(Cl)c(C[100NH:0][100C:0](=O)N2CCCC(n3nc(-c4ccc(Oc5ccc(F)cc5F)cc4)c(C(N)=O)c3N)C2)cc1OCC[101CH2:1][101O:1]c1ccc2c(c1)CN(C(=O)C(NC(=O)C(C)NC)C(C)(C)C)C(C(=O)NC1CCCc3ccccc31)C2

> <Shape>
0.136

> <Color>
0.170

> <Negative vol penalty>
0.000

$$$$

  -OEChem-04052316393D

 85 93  0     1  0  0  0  0  0999 V2000
  -27.1112  -37.8883   21.6545 C   0  0  0  0  0  0  0  0  0  0  0  0
  -27.7311  -36.7463   21.1575 C   0  0  0  0  0  0  0  0  0  0  0  0
  -22.8025  -10.5785   19.9860 C   0  0  0  0  0  0  0  0  0  0  0  0
  -23.9011   -9.6953   21.9481 C   0  0  0  0  0  0  0  0  0  0  0  0
  -26.0948  -37.7721   22.6017 C   0  0  0  0  0  0  0  0  0  0  0  0
  -27.3356  -35.4874   21.6083 C   0  0  0  0  0  0  0  0  0  0  0  0
  -26.6463  -28.7180   19.3688 C   0  0  0  0  0  0  0  0  0  0  0  0
  -21.9200   -9.4984   19.9938 C   0  0  0  0  0  0  0  0  0  0  0  0
  -23.0186   -8.6151   21.9560 C   0  0  0  0  0  0  0  0  0  0  0  0
  -27.0188  -27.4225   19.7248 C   0  0  0  0  0  0  0  0  0  0  0  0
  -19.8358   -8.0081   22.9161 C   0  0  0  0  0  0  0  0  0  0  0  0
  -19.2756   -7.6398   24.1392 C   0  0  0  0  0  0  0  0  0  0  0  0
  -25.1975  -27.3395   21.3045 C   0  0  0  0  0  0  0  0  0  0  0  0
  -27.8575  -21.1234   20.5419 C   0  0  0  0  0  0  0  0  0  0  0  0
  -28.7672  -22.0000   22.6012 C   0  0  0  0  0  0  0  0  0  0  0  0
  -20.2655   -5.4457   23.9319 C   0  0  0  0  0  0  0  0  0  0  0  0
  -23.7931  -10.6770   20.9631 C   0  0  0  0  0  0  0  0  0  0  0  0
  -24.5403  -13.0301   21.6051 C   0  0  0  0  0  0  0  0  0  0  0  0
  -25.6800  -36.5107   23.0572 C   0  0  0  0  0  0  0  0  0  0  0  0
  -25.5515  -29.3391   19.9867 C   0  0  0  0  0  0  0  0  0  0  0  0
  -26.3136  -35.3543   22.5635 C   0  0  0  0  0  0  0  0  0  0  0  0
  -24.8117  -28.6420   20.9526 C   0  0  0  0  0  0  0  0  0  0  0  0
  -28.4140  -20.9118   21.8032 C   0  0  0  0  0  0  0  0  0  0  0  0
  -27.6542  -22.4232   20.0784 C   0  0  0  0  0  0  0  0  0  0  0  0
  -28.5638  -23.2998   22.1377 C   0  0  0  0  0  0  0  0  0  0  0  0
  -28.0073  -23.5114   20.8763 C   0  0  0  0  0  0  0  0  0  0  0  0
  -22.0281   -8.5167   20.9788 C   0  0  0  0  0  0  0  0  0  0  0  0
  -26.2961  -26.7341   20.6949 C   0  0  0  0  0  0  0  0  0  0  0  0
  -20.6108   -7.0952   22.2007 C   0  0  0  0  0  0  0  0  0  0  0  0
  -19.4905   -6.3586   24.6471 C   0  0  0  0  0  0  0  0  0  0  0  0
  -20.8257   -5.8140   22.7087 C   0  0  0  0  0  0  0  0  0  0  0  0
  -24.7054  -11.7923   20.9552 C   0  0  0  0  0  0  0  0  0  0  0  0
  -25.6746  -13.7375   21.2894 C   0  0  0  0  0  0  0  0  0  0  0  0
  -23.4586  -13.4986   22.4211 C   0  0  0  0  0  0  0  0  0  0  0  0
  -25.1646  -31.9292   21.7882 C   0  0  0  0  0  0  0  0  0  0  0  0
  -22.0190  -31.2034   21.4713 C   0  0  0  0  0  0  0  0  0  0  0  0
  -19.6393  -28.8335   20.8649 C   0  0  0  0  0  0  0  0  0  0  0  0
  -31.2129  -14.0290   20.6672 C   0  0  0  0  0  0  0  0  0  0  0  0
  -24.6094  -36.4376   24.1170 C   0  0  0  0  0  0  0  0  0  0  0  0
  -25.1463  -30.7270   19.5723 C   0  0  0  0  0  0  0  0  0  0  0  0
  -23.6158  -29.2566   21.6314 C   0  0  0  0  0  0  0  0  0  0  0  0
  -23.9926  -35.0491   24.2649 C   0  0  0  0  0  0  0  0  0  0  0  0
  -29.3242  -12.7755   17.9217 C   0  0  0  0  0  0  0  0  0  0  0  0
  -25.0825  -33.9828   24.3097 C   0  0  0  0  0  0  0  0  0  0  0  0
  -27.9432  -12.5044   18.5212 C   0  0  0  0  0  0  0  0  0  0  0  0
  -30.4418  -12.4590   18.9131 C   0  0  0  0  0  0  0  0  0  0  0  0
  -28.9341  -12.8546   20.8221 C   0  0  0  0  0  0  0  0  0  0  0  0
  -25.8955  -33.9700   23.0096 C   0  0  1  0  0  0  0  0  0  0  0  0
  -24.3273  -31.4529   20.6352 C   0  0  1  0  0  0  0  0  0  0  0  0
  -27.7726  -13.2119   19.8790 C   0  0  2  0  0  0  0  0  0  0  0  0
  -27.0555  -22.6226   18.7243 C   0  0  0  0  0  0  0  0  0  0  0  0
  -28.9505  -24.4481   23.0117 C   0  0  0  0  0  0  0  0  0  0  0  0
  -17.1527  -28.5335   20.7096 C   0  0  0  0  0  0  0  0  0  0  0  0
  -21.8209  -31.2899   24.5149 C   0  0  0  0  0  0  0  0  0  0  0  0
  -19.6360  -30.0804   24.3375 C   0  0  0  0  0  0  0  0  0  0  0  0
  -19.8952  -32.3404   23.3138 C   0  0  0  0  0  0  0  0  0  0  0  0
  -19.8022  -27.9814   18.0353 C   0  0  0  0  0  0  0  0  0  0  0  0
  -28.6320  -19.5221   22.2985 C   0  0  0  0  0  0  0  0  0  0  0  0
  -27.7881  -24.9095   20.3777 C   0  0  0  0  0  0  0  0  0  1  0  0
  -30.0176  -18.9794   21.9171 C   0  0  0  0  0  0  0  0  0  0  0  0
  -30.2153  -17.5396   22.3957 C   0  0  0  0  0  0  0  0  0  0  0  0
  -31.6140  -17.0245   22.0438 C   0  0  0  0  0  0  0  0  0  0  0  0
  -31.8394  -15.5855   22.4960 C   0  0  0  0  0  0  0  0  0  0  0  0
  -21.0348  -30.3553   22.2401 C   0  0  1  0  0  0  0  0  0  0  0  0
  -18.4326  -28.8304   19.9438 C   0  0  2  0  0  0  0  0  0  0  0  0
  -20.6204  -31.0053   23.5904 C   0  0  0  0  0  0  0  0  0  0  0  0
  -25.8539  -11.7146   20.2778 N   0  0  0  0  0  0  0  0  0  0  0  0
  -26.4208  -12.9126   20.5002 N   0  0  0  0  0  0  0  0  0  0  0  0
  -23.2631  -30.6181   21.1964 N   0  0  0  0  0  0  0  0  0  0  0  0
  -30.2212  -13.1622   20.1791 N   0  0  0  0  0  0  0  0  0  0  0  0
  -26.0964  -14.9784   21.6127 N   0  0  0  0  0  0  0  0  0  0  0  0
  -22.3709  -12.6433   22.6442 N   0  0  0  0  0  0  0  0  0  0  0  0
  -25.1586  -33.3004   21.9593 N   0  0  0  0  0  0  0  0  0  0  0  0
  -19.9209  -30.0994   21.3334 N   0  0  0  0  0  0  0  0  0  0  0  0
  -30.9211  -14.6603   21.8702 N   0  0  0  0  0  0  0  0  0  0  0  0
  -18.5947  -27.7981   18.8812 N   0  3  0  0  0  0  0  0  0  0  0  0
  -23.4490  -14.6479   22.9237 O   0  0  0  0  0  0  0  0  0  0  0  0
  -25.7701  -31.1130   22.4730 O   0  0  0  0  0  0  0  0  0  0  0  0
  -21.6933  -32.3404   21.1212 O   0  0  0  0  0  0  0  0  0  0  0  0
  -20.2669  -27.8144   21.1440 O   0  0  0  0  0  0  0  0  0  0  0  0
  -32.2771  -14.2299   20.0722 O   0  0  0  0  0  0  0  0  0  0  0  0
  -21.1670   -7.4626   20.9869 O   0  0  0  0  0  0  0  0  0  0  0  0
  -26.6579  -25.4698   21.0448 O   0  0  0  0  0  0  0  0  0  1  0  0
  -18.9537   -6.0056   25.8225 F   0  0  0  0  0  0  0  0  0  0  0  0
  -21.5704   -4.9330   22.0266 F   0  0  0  0  0  0  0  0  0  0  0  0
  1  2  1  0  0  0  0
  1  5  2  0  0  0  0
  2  6  2  0  0  0  0
  3  8  2  0  0  0  0
  3 17  1  0  0  0  0
  4  9  1  0  0  0  0
  4 17  2  0  0  0  0
  5 19  1  0  0  0  0
  6 21  1  0  0  0  0
  7 10  2  0  0  0  0
  7 20  1  0  0  0  0
  8 27  1  0  0  0  0
  9 27  2  0  0  0  0
 10 28  1  0  0  0  0
 11 12  2  0  0  0  0
 11 29  1  0  0  0  0
 12 30  1  0  0  0  0
 13 22  1  0  0  0  0
 13 28  2  0  0  0  0
 14 23  1  0  0  0  0
 14 24  2  0  0  0  0
 15 23  2  0  0  0  0
 15 25  1  0  0  0  0
 16 30  2  0  0  0  0
 16 31  1  0  0  0  0
 17 32  1  0  0  0  0
 18 32  1  0  0  0  0
 18 33  2  0  0  0  0
 18 34  1  0  0  0  0
 19 21  2  0  0  0  0
 19 39  1  0  0  0  0
 20 22  2  0  0  0  0
 20 40  1  0  0  0  0
 21 48  1  0  0  0  0
 22 41  1  0  0  0  0
 23 58  1  0  0  0  0
 24 26  1  0  0  0  0
 24 51  1  0  0  0  0
 25 26  2  0  0  0  0
 25 52  1  0  0  0  0
 26 59  1  0  0  0  0
 27 82  1  0  0  0  0
 28 83  1  0  0  0  0
 29 31  2  0  0  0  0
 29 82  1  0  0  0  0
 30 84  1  0  0  0  0
 31 85  1  0  0  0  0
 32 67  2  0  0  0  0
 33 68  1  0  0  0  0
 33 71  1  0  0  0  0
 34 72  1  0  0  0  0
 34 77  2  0  0  0  0
 35 49  1  0  0  0  0
 35 73  1  0  0  0  0
 35 78  2  0  0  0  0
 36 64  1  0  0  0  0
 36 69  1  0  0  0  0
 36 79  2  0  0  0  0
 37 65  1  0  0  0  0
 37 74  1  0  0  0  0
 37 80  2  0  0  0  0
 38 70  1  0  0  0  0
 38 75  1  0  0  0  0
 38 81  2  0  0  0  0
 39 42  1  0  0  0  0
 40 49  1  0  0  0  0
 41 69  1  0  0  0  0
 42 44  1  0  0  0  0
 43 45  1  0  0  0  0
 43 46  1  0  0  0  0
 44 48  1  0  0  0  0
 45 50  1  0  0  0  0
 46 70  1  0  0  0  0
 47 50  1  0  0  0  0
 47 70  1  0  0  0  0
 48 73  1  0  0  0  0
 49 69  1  0  0  0  0
 50 68  1  0  0  0  0
 53 65  1  0  0  0  0
 54 66  1  0  0  0  0
 55 66  1  0  0  0  0
 56 66  1  0  0  0  0
 57 76  1  0  0  0  0
 58 60  1  0  0  0  0
 59 83  1  0  0  0  0
 60 61  1  0  0  0  0
 61 62  1  0  0  0  0
 62 63  1  0  0  0  0
 63 75  1  0  0  0  0
 64 66  1  0  0  0  0
 64 74  1  0  0  0  0
 65 76  1  0  0  0  0
 67 68  1  0  0  0  0
M  CHG  1  76   1
M  ISO  4  38 100  59 101  75 100  83 101
M  END
> <Batch ID>
0030

> <Smiles>
CNC(C)C(=O)NC(C(=O)N1Cc2cc([101O:1][101CH2:1]c3c(C)cc(CCCCC[100NH:0][100C:0](=O)N4CCCC(n5nc(-c6ccc(Oc7ccc(F)cc7F)cc6)c(C(N)=O)c5N)C4)cc3C)ccc2CC1C(=O)NC1CCCc2ccccc21)C(C)(C)C

> <Shape>
0.346

> <Color>
0.152

> <Negative vol penalty>
0.000

$$$$

  -OEChem-04052316393D

 84 92  0     1  0  0  0  0  0999 V2000
  -29.6993  -23.6888   17.6683 C   0  0  0  0  0  0  0  0  0  0  0  0
  -28.4599  -24.2825   17.8783 C   0  0  0  0  0  0  0  0  0  0  0  0
  -28.2305  -14.5795   19.7621 C   0  0  0  0  0  0  0  0  0  0  0  0
  -26.0286  -15.4814   20.1803 C   0  0  0  0  0  0  0  0  0  0  0  0
  -30.7545  -23.9612   18.5363 C   0  0  0  0  0  0  0  0  0  0  0  0
  -28.2784  -25.1581   18.9495 C   0  0  0  0  0  0  0  0  0  0  0  0
  -23.9786  -27.5368   19.1879 C   0  0  0  0  0  0  0  0  0  0  0  0
  -27.7479  -13.2921   19.9973 C   0  0  0  0  0  0  0  0  0  0  0  0
  -25.5459  -14.1940   20.4155 C   0  0  0  0  0  0  0  0  0  0  0  0
  -22.7847  -26.9033   19.5300 C   0  0  0  0  0  0  0  0  0  0  0  0
  -25.5906  -11.9380   22.9333 C   0  0  0  0  0  0  0  0  0  0  0  0
  -24.7663  -11.7475   24.0422 C   0  0  0  0  0  0  0  0  0  0  0  0
  -22.9098  -27.8718   21.7357 C   0  0  0  0  0  0  0  0  0  0  0  0
  -23.1148  -23.8981   22.4791 C   0  0  0  0  0  0  0  0  0  0  0  0
  -24.1579  -21.7318   22.4185 C   0  0  0  0  0  0  0  0  0  0  0  0
  -22.9895  -10.9895   22.5911 C   0  0  0  0  0  0  0  0  0  0  0  0
  -27.3709  -15.6741   19.8536 C   0  0  0  0  0  0  0  0  0  0  0  0
  -27.9132  -17.6841   18.3794 C   0  0  0  0  0  0  0  0  0  0  0  0
  -30.5816  -24.8310   19.6257 C   0  0  0  0  0  0  0  0  0  0  0  0
  -24.6539  -28.3352   20.1223 C   0  0  0  0  0  0  0  0  0  0  0  0
  -29.3377  -25.4644   19.8228 C   0  0  0  0  0  0  0  0  0  0  0  0
  -24.1108  -28.5165   21.4022 C   0  0  0  0  0  0  0  0  0  0  0  0
  -24.2599  -23.1175   22.3660 C   0  0  0  0  0  0  0  0  0  0  0  0
  -26.4056  -13.0993   20.3240 C   0  0  0  0  0  0  0  0  0  0  0  0
  -22.2516  -27.0684   20.8050 C   0  0  0  0  0  0  0  0  0  0  0  0
  -25.1144  -11.6543   21.6532 C   0  0  0  0  0  0  0  0  0  0  0  0
  -23.4657  -11.2732   23.8711 C   0  0  0  0  0  0  0  0  0  0  0  0
  -23.8138  -11.1800   21.4822 C   0  0  0  0  0  0  0  0  0  0  0  0
  -27.8689  -17.0043   19.6113 C   0  0  0  0  0  0  0  0  0  0  0  0
  -21.9013  -23.2495   22.6418 C   0  0  0  0  0  0  0  0  0  0  0  0
  -22.8977  -21.1802   22.5842 C   0  0  0  0  0  0  0  0  0  0  0  0
  -28.4689  -18.9037   18.6800 C   0  0  0  0  0  0  0  0  0  0  0  0
  -27.4898  -17.2519   17.0795 C   0  0  0  0  0  0  0  0  0  0  0  0
  -27.5063  -28.2260   21.5206 C   0  0  0  0  0  0  0  0  0  0  0  0
  -26.6040  -31.1085   22.7037 C   0  0  0  0  0  0  0  0  0  0  0  0
  -24.0660  -33.2335   23.5342 C   0  0  0  0  0  0  0  0  0  0  0  0
  -28.6857  -22.0096   23.8265 C   0  0  0  0  0  0  0  0  0  0  0  0
  -31.7597  -25.0966   20.5294 C   0  0  0  0  0  0  0  0  0  0  0  0
  -25.9268  -29.0333   19.7290 C   0  0  0  0  0  0  0  0  0  0  0  0
  -24.7862  -29.3796   22.4353 C   0  0  0  0  0  0  0  0  0  0  0  0
  -31.3541  -25.6805   21.8788 C   0  0  0  0  0  0  0  0  0  0  0  0
  -31.4590  -21.0148   21.7481 C   0  0  0  0  0  0  0  0  0  0  0  0
  -30.4076  -26.8539   21.6741 C   0  0  0  0  0  0  0  0  0  0  0  0
  -30.8630  -19.9067   20.8808 C   0  0  0  0  0  0  0  0  0  0  0  0
  -30.8553  -21.0139   23.1489 C   0  0  0  0  0  0  0  0  0  0  0  0
  -28.7595  -19.9991   22.2919 C   0  0  0  0  0  0  0  0  0  0  0  0
  -29.1084  -26.3963   20.9990 C   0  0  1  0  0  0  0  0  0  0  0  0
  -26.7963  -29.4088   20.9250 C   0  0  1  0  0  0  0  0  0  0  0  0
  -29.3261  -19.9868   20.8617 C   0  0  2  0  0  0  0  0  0  0  0  0
  -23.6388  -35.5036   24.5148 C   0  0  0  0  0  0  0  0  0  0  0  0
  -27.2262  -30.0210   25.4858 C   0  0  0  0  0  0  0  0  0  0  0  0
  -25.9138  -31.9241   26.4471 C   0  0  0  0  0  0  0  0  0  0  0  0
  -27.9626  -32.3795   25.0989 C   0  0  0  0  0  0  0  0  0  0  0  0
  -22.7283  -34.1750   21.0678 C   0  0  0  0  0  0  0  0  0  0  0  0
  -25.5912  -23.7647   22.1879 C   0  0  0  0  0  0  0  0  0  0  0  0
  -20.6388  -24.0637   22.7718 C   0  0  0  0  0  0  0  0  0  0  0  0
  -26.3226  -24.0798   23.5026 C   0  0  0  0  0  0  0  0  0  0  0  0
  -19.9540  -24.3561   21.4350 C   0  0  0  0  0  0  0  0  0  0  0  0
  -26.5310  -22.8513   24.3806 C   0  0  0  0  0  0  0  0  0  0  0  0
  -20.7997  -25.2101   20.4975 C   0  0  0  0  0  0  0  0  0  1  0  0
  -25.8669  -31.5751   23.9357 C   0  0  1  0  0  0  0  0  0  0  0  0
  -23.8472  -34.7060   23.2369 C   0  0  2  0  0  0  0  0  0  0  0  0
  -26.7304  -31.4570   25.2232 C   0  0  0  0  0  0  0  0  0  0  0  0
  -28.3577  -17.7315   20.6194 N   0  0  0  0  0  0  0  0  0  0  0  0
  -21.7627  -21.9059   22.6975 N   0  0  0  0  0  0  0  0  0  0  0  0
  -28.7144  -18.8809   20.0214 N   0  0  0  0  0  0  0  0  0  0  0  0
  -26.0318  -30.0360   22.0049 N   0  0  0  0  0  0  0  0  0  0  0  0
  -29.3944  -21.0512   23.0952 N   0  0  0  0  0  0  0  0  0  0  0  0
  -28.7667  -19.9825   17.9251 N   0  0  0  0  0  0  0  0  0  0  0  0
  -26.9403  -15.9693   16.9480 N   0  0  0  0  0  0  0  0  0  0  0  0
  -28.3308  -27.5599   20.6340 N   0  0  0  0  0  0  0  0  0  0  0  0
  -25.4061  -32.9290   23.6473 N   0  0  0  0  0  0  0  0  0  0  0  0
  -22.6490  -34.8868   22.3694 N   0  3  0  0  0  0  0  0  0  0  0  0
  -27.6108  -17.9753   16.0619 O   0  0  0  0  0  0  0  0  0  0  0  0
  -27.3210  -27.9399   22.6976 O   0  0  0  0  0  0  0  0  0  0  0  0
  -27.6452  -31.6792   22.3695 O   0  0  0  0  0  0  0  0  0  0  0  0
  -23.1407  -32.4342   23.6576 O   0  0  0  0  0  0  0  0  0  0  0  0
  -29.2093  -22.8613   24.5425 O   0  0  0  0  0  0  0  0  0  0  0  0
  -25.9343  -11.8432   20.5534 O   0  0  0  0  0  0  0  0  0  0  0  0
  -21.0868  -26.4506   21.1417 O   0  0  0  0  0  0  0  0  0  1  0  0
  -27.3299  -21.9035   23.6631 O   0  0  0  0  0  0  0  0  0  0  0  0
  -22.6747  -11.0888   24.9363 F   0  0  0  0  0  0  0  0  0  0  0  0
  -23.3512  -10.9046   20.2550 F   0  0  0  0  0  0  0  0  0  0  0  0
  -22.6771  -19.4802   22.6602 Cl  0  0  0  0  0  0  0  0  0  0  0  0
  1  2  1  0  0  0  0
  1  5  2  0  0  0  0
  2  6  2  0  0  0  0
  3  8  2  0  0  0  0
  3 17  1  0  0  0  0
  4  9  1  0  0  0  0
  4 17  2  0  0  0  0
  5 19  1  0  0  0  0
  6 21  1  0  0  0  0
  7 10  2  0  0  0  0
  7 20  1  0  0  0  0
  8 24  1  0  0  0  0
  9 24  2  0  0  0  0
 10 25  1  0  0  0  0
 11 12  2  0  0  0  0
 11 26  1  0  0  0  0
 12 27  1  0  0  0  0
 13 22  1  0  0  0  0
 13 25  2  0  0  0  0
 14 23  2  0  0  0  0
 14 30  1  0  0  0  0
 15 23  1  0  0  0  0
 15 31  2  0  0  0  0
 16 27  2  0  0  0  0
 16 28  1  0  0  0  0
 17 29  1  0  0  0  0
 18 29  1  0  0  0  0
 18 32  2  0  0  0  0
 18 33  1  0  0  0  0
 19 21  2  0  0  0  0
 19 38  1  0  0  0  0
 20 22  2  0  0  0  0
 20 39  1  0  0  0  0
 21 47  1  0  0  0  0
 22 40  1  0  0  0  0
 23 55  1  0  0  0  0
 24 79  1  0  0  0  0
 25 80  1  0  0  0  0
 26 28  2  0  0  0  0
 26 79  1  0  0  0  0
 27 82  1  0  0  0  0
 28 83  1  0  0  0  0
 29 64  2  0  0  0  0
 30 56  1  0  0  0  0
 30 65  2  0  0  0  0
 31 65  1  0  0  0  0
 31 84  1  0  0  0  0
 32 66  1  0  0  0  0
 32 69  1  0  0  0  0
 33 70  1  0  0  0  0
 33 74  2  0  0  0  0
 34 48  1  0  0  0  0
 34 71  1  0  0  0  0
 34 75  2  0  0  0  0
 35 61  1  0  0  0  0
 35 67  1  0  0  0  0
 35 76  2  0  0  0  0
 36 62  1  0  0  0  0
 36 72  1  0  0  0  0
 36 77  2  0  0  0  0
 37 68  1  0  0  0  0
 37 78  2  0  0  0  0
 37 81  1  0  0  0  0
 38 41  1  0  0  0  0
 39 48  1  0  0  0  0
 40 67  1  0  0  0  0
 41 43  1  0  0  0  0
 42 44  1  0  0  0  0
 42 45  1  0  0  0  0
 43 47  1  0  0  0  0
 44 49  1  0  0  0  0
 45 68  1  0  0  0  0
 46 49  1  0  0  0  0
 46 68  1  0  0  0  0
 47 71  1  0  0  0  0
 48 67  1  0  0  0  0
 49 66  1  0  0  0  0
 50 62  1  0  0  0  0
 51 63  1  0  0  0  0
 52 63  1  0  0  0  0
 53 63  1  0  0  0  0
 54 73  1  0  0  0  0
 55 57  1  0  0  0  0
 56 58  1  0  0  0  0
 57 59  1  0  0  0  0
 58 60  1  0  0  0  0
 59 81  1  0  0  0  0
 60 80  1  0  0  0  0
 61 63  1  0  0  0  0
 61 72  1  0  0  0  0
 62 73  1  0  0  0  0
 64 66  1  0  0  0  0
M  CHG  1  73   1
M  ISO  4  37 100  60 101  80 101  81 100
M  END
> <Batch ID>
0030

> <Smiles>
CNC(C)C(=O)NC(C(=O)N1Cc2cc([101O:1][101CH2:1]CCc3cc(CCC[100O:0][100C:0](=O)N4CCCC(n5nc(-c6ccc(Oc7ccc(F)cc7F)cc6)c(C(N)=O)c5N)C4)cc(Cl)n3)ccc2CC1C(=O)NC1CCCc2ccccc21)C(C)(C)C

> <Shape>
0.259

> <Color>
0.064

> <Negative vol penalty>
0.000

$$$$

  -OEChem-04052316393D

 91100  0     1  0  0  0  0  0999 V2000
  -26.3134  -37.2655   24.9263 C   0  0  0  0  0  0  0  0  0  0  0  0
  -26.8405  -35.9826   24.8174 C   0  0  0  0  0  0  0  0  0  0  0  0
  -25.3407   -9.2857   20.6673 C   0  0  0  0  0  0  0  0  0  0  0  0
  -24.3803   -9.9385   22.7859 C   0  0  0  0  0  0  0  0  0  0  0  0
  -24.9321  -37.4542   24.9092 C   0  0  0  0  0  0  0  0  0  0  0  0
  -25.9864  -34.8875   24.6923 C   0  0  0  0  0  0  0  0  0  0  0  0
  -27.5029  -31.6396   21.1151 C   0  0  0  0  0  0  0  0  0  0  0  0
  -25.0876   -7.9467   20.9652 C   0  0  0  0  0  0  0  0  0  0  0  0
  -24.1271   -8.5995   23.0838 C   0  0  0  0  0  0  0  0  0  0  0  0
  -28.5492  -30.7774   21.4402 C   0  0  0  0  0  0  0  0  0  0  0  0
  -21.8361   -6.2562   22.2590 C   0  0  0  0  0  0  0  0  0  0  0  0
  -20.5849   -5.9365   22.7862 C   0  0  0  0  0  0  0  0  0  0  0  0
  -26.9584  -29.0105   21.8484 C   0  0  0  0  0  0  0  0  0  0  0  0
  -28.8794  -18.8085   17.7328 C   0  0  0  0  0  0  0  0  0  0  0  0
  -21.6456   -5.0614   24.7727 C   0  0  0  0  0  0  0  0  0  0  0  0
  -30.6593  -18.2837   15.6497 C   0  0  0  0  0  0  0  0  0  0  0  0
  -24.9871  -10.2816   21.5777 C   0  0  0  0  0  0  0  0  0  0  0  0
  -24.3941  -12.5647   20.6064 C   0  0  0  0  0  0  0  0  0  0  0  0
  -24.0609  -36.3617   24.7742 C   0  0  0  0  0  0  0  0  0  0  0  0
  -26.1736  -31.1961   21.1649 C   0  0  0  0  0  0  0  0  0  0  0  0
  -24.5921  -35.0616   24.6747 C   0  0  0  0  0  0  0  0  0  0  0  0
  -25.8972  -29.8684   21.5210 C   0  0  0  0  0  0  0  0  0  0  0  0
  -29.2289  -19.8232   16.8419 C   0  0  0  0  0  0  0  0  0  0  0  0
  -24.4808   -7.6036   22.1733 C   0  0  0  0  0  0  0  0  0  0  0  0
  -28.2769  -29.4635   21.8096 C   0  0  0  0  0  0  0  0  0  0  0  0
  -22.9920   -5.9785   22.9886 C   0  0  0  0  0  0  0  0  0  0  0  0
  -29.4198  -17.5314   17.5823 C   0  0  0  0  0  0  0  0  0  0  0  0
  -20.4897   -5.3391   24.0431 C   0  0  0  0  0  0  0  0  0  0  0  0
  -22.8968   -5.3811   24.2455 C   0  0  0  0  0  0  0  0  0  0  0  0
  -30.3097  -17.2690   16.5407 C   0  0  0  0  0  0  0  0  0  0  0  0
  -30.1188  -19.5608   15.8003 C   0  0  0  0  0  0  0  0  0  0  0  0
  -25.2489  -11.6649   21.2709 C   0  0  0  0  0  0  0  0  0  0  0  0
  -25.1004  -13.7420   20.5647 C   0  0  0  0  0  0  0  0  0  0  0  0
  -23.0793  -12.3551   20.0744 C   0  0  0  0  0  0  0  0  0  0  0  0
  -23.5970  -32.0145   22.8368 C   0  0  0  0  0  0  0  0  0  0  0  0
  -22.1277  -29.8907   20.8739 C   0  0  0  0  0  0  0  0  0  0  0  0
  -22.3911  -27.1619   18.8415 C   0  0  0  0  0  0  0  0  0  0  0  0
  -29.9031  -16.4246   19.5949 C   0  0  0  0  0  0  0  0  0  0  0  0
  -22.5738  -36.6106   24.8083 C   0  0  0  0  0  0  0  0  0  0  0  0
  -25.0580  -32.1310   20.7855 C   0  0  0  0  0  0  0  0  0  0  0  0
  -24.4887  -29.3373   21.5704 C   0  0  0  0  0  0  0  0  0  0  0  0
  -21.7474  -35.4339   24.2958 C   0  0  0  0  0  0  0  0  0  0  0  0
  -29.3540  -15.1288   22.9081 C   0  0  0  0  0  0  0  0  0  0  0  0
  -22.2430  -34.1271   24.9070 C   0  0  0  0  0  0  0  0  0  0  0  0
  -28.1904  -14.1572   22.7129 C   0  0  0  0  0  0  0  0  0  0  0  0
  -30.0447  -24.1818   20.0722 C   0  0  0  0  0  0  0  0  0  0  0  0
  -30.2745  -15.1503   21.6919 C   0  0  0  0  0  0  0  0  0  0  0  0
  -28.4026  -14.4811   20.2084 C   0  0  0  0  0  0  0  0  0  0  0  0
  -30.9689  -25.1374   20.8112 C   0  0  0  0  0  0  0  0  0  0  0  0
  -30.5167  -26.9153   19.1087 C   0  0  0  0  0  0  0  0  0  0  0  0
  -23.6989  -33.8508   24.5126 C   0  0  1  0  0  0  0  0  0  0  0  0
  -23.7094  -31.7193   21.3678 C   0  0  1  0  0  0  0  0  0  0  0  0
  -29.9693  -24.4916   18.5688 C   0  0  2  0  0  0  0  0  0  0  0  0
  -27.4358  -14.4543   21.4047 C   0  0  1  0  0  0  0  0  0  0  0  0
  -29.5909  -25.9686   18.3500 C   0  0  2  0  0  0  0  0  0  0  0  0
  -21.0115  -25.6340   17.4063 C   0  0  0  0  0  0  0  0  0  0  0  0
  -21.0657  -28.5037   23.3756 C   0  0  0  0  0  0  0  0  0  0  0  0
  -20.5249  -26.5125   21.9574 C   0  0  0  0  0  0  0  0  0  0  0  0
  -19.4119  -28.6997   21.5098 C   0  0  0  0  0  0  0  0  0  0  0  0
  -23.9027  -27.8956   16.4051 C   0  0  0  0  0  0  0  0  0  0  0  0
  -28.6235  -21.1901   17.0394 C   0  0  0  0  0  0  0  0  0  0  0  0
  -28.9851  -23.5269   17.8994 C   0  0  0  0  0  0  0  0  0  0  0  0
  -29.6232  -22.1609   17.6741 C   0  0  0  0  0  0  0  0  0  0  0  0
  -31.3116  -27.5364   21.3888 C   0  0  0  0  0  0  0  0  0  0  0  0
  -30.5495  -28.8434   21.4834 C   0  0  0  0  0  0  0  0  0  1  0  0
  -21.8526  -28.4070   20.9185 C   0  0  1  0  0  0  0  0  0  0  0  0
  -21.8644  -26.8926   17.4434 C   0  0  2  0  0  0  0  0  0  0  0  0
  -20.7403  -28.0410   21.9414 C   0  0  0  0  0  0  0  0  0  0  0  0
  -26.4095  -12.2226   21.6257 N   0  0  0  0  0  0  0  0  0  0  0  0
  -26.2890  -13.4856   21.1825 N   0  0  0  0  0  0  0  0  0  0  0  0
  -23.4318  -30.2918   21.1967 N   0  0  0  0  0  0  0  0  0  0  0  0
  -29.5200  -15.3981   20.4641 N   0  0  0  0  0  0  0  0  0  0  0  0
  -24.8144  -14.9610   20.0602 N   0  0  0  0  0  0  0  0  0  0  0  0
  -22.5012  -11.0848   20.2029 N   0  0  0  0  0  0  0  0  0  0  0  0
  -23.7687  -33.3476   23.1575 N   0  0  0  0  0  0  0  0  0  0  0  0
  -21.5590  -28.0049   19.5471 N   0  0  0  0  0  0  0  0  0  0  0  0
  -30.5248  -26.5675   20.5847 N   0  3  2  0  0  0  0  0  0  0  0  0
  -22.9952  -26.7223   16.4877 N   0  3  0  0  0  0  0  0  0  0  0  0
  -22.4428  -13.2628   19.4875 O   0  0  0  0  0  0  0  0  0  0  0  0
  -23.3698  -31.1007   23.6210 O   0  0  0  0  0  0  0  0  0  0  0  0
  -21.2209  -30.6647   20.5573 O   0  0  0  0  0  0  0  0  0  0  0  0
  -23.4343  -26.6703   19.2664 O   0  0  0  0  0  0  0  0  0  0  0  0
  -30.8638  -17.1696   19.7846 O   0  0  0  0  0  0  0  0  0  0  0  0
  -24.2334   -6.2972   22.4642 O   0  0  0  0  0  0  0  0  0  0  0  0
  -29.0691  -16.5152   18.4769 O   0  0  0  0  0  0  0  0  0  0  0  0
  -29.2962  -28.6200   22.1280 O   0  0  0  0  0  0  0  0  0  1  0  0
  -19.2880   -5.0336   24.5499 F   0  0  0  0  0  0  0  0  0  0  0  0
  -24.0037   -5.1130   24.9517 F   0  0  0  0  0  0  0  0  0  0  0  0
  -30.8325  -16.0442   16.3911 F   0  0  0  0  0  0  0  0  0  0  0  0
  -30.5751  -20.7911   14.6791 Cl  0  0  0  0  0  0  0  0  0  0  0  0
  -29.6488  -26.4020   16.6116 Cl  0  0  0  0  0  0  0  0  0  0  0  0
  1  2  1  0  0  0  0
  1  5  2  0  0  0  0
  2  6  2  0  0  0  0
  3  8  2  0  0  0  0
  3 17  1  0  0  0  0
  4  9  1  0  0  0  0
  4 17  2  0  0  0  0
  5 19  1  0  0  0  0
  6 21  1  0  0  0  0
  7 10  2  0  0  0  0
  7 20  1  0  0  0  0
  8 24  1  0  0  0  0
  9 24  2  0  0  0  0
 10 25  1  0  0  0  0
 11 12  2  0  0  0  0
 11 26  1  0  0  0  0
 12 28  1  0  0  0  0
 13 22  1  0  0  0  0
 13 25  2  0  0  0  0
 14 23  1  0  0  0  0
 14 27  2  0  0  0  0
 15 28  2  0  0  0  0
 15 29  1  0  0  0  0
 16 30  2  0  0  0  0
 16 31  1  0  0  0  0
 17 32  1  0  0  0  0
 18 32  1  0  0  0  0
 18 33  2  0  0  0  0
 18 34  1  0  0  0  0
 19 21  2  0  0  0  0
 19 39  1  0  0  0  0
 20 22  2  0  0  0  0
 20 40  1  0  0  0  0
 21 51  1  0  0  0  0
 22 41  1  0  0  0  0
 23 31  2  0  0  0  0
 23 61  1  0  0  0  0
 24 84  1  0  0  0  0
 25 86  1  0  0  0  0
 26 29  2  0  0  0  0
 26 84  1  0  0  0  0
 27 30  1  0  0  0  0
 27 85  1  0  0  0  0
 28 87  1  0  0  0  0
 29 88  1  0  0  0  0
 30 89  1  0  0  0  0
 31 90  1  0  0  0  0
 32 69  2  0  0  0  0
 33 70  1  0  0  0  0
 33 73  1  0  0  0  0
 34 74  1  0  0  0  0
 34 79  2  0  0  0  0
 35 52  1  0  0  0  0
 35 75  1  0  0  0  0
 35 80  2  0  0  0  0
 36 66  1  0  0  0  0
 36 71  1  0  0  0  0
 36 81  2  0  0  0  0
 37 67  1  0  0  0  0
 37 76  1  0  0  0  0
 37 82  2  0  0  0  0
 38 72  1  0  0  0  0
 38 83  2  0  0  0  0
 38 85  1  0  0  0  0
 39 42  1  0  0  0  0
 40 52  1  0  0  0  0
 41 71  1  0  0  0  0
 42 44  1  0  0  0  0
 43 45  1  0  0  0  0
 43 47  1  0  0  0  0
 44 51  1  0  0  0  0
 45 54  1  0  0  0  0
 46 49  1  0  0  0  0
 46 53  1  0  0  0  0
 47 72  1  0  0  0  0
 48 54  1  0  0  0  0
 48 72  1  0  0  0  0
 49 77  1  0  0  0  0
 50 55  1  0  0  0  0
 50 77  1  0  0  0  0
 51 75  1  0  0  0  0
 52 71  1  0  0  0  0
 53 55  1  0  0  0  0
 53 62  1  0  0  0  0
 54 70  1  0  0  0  0
 55 91  1  0  0  0  0
 56 67  1  0  0  0  0
 57 68  1  0  0  0  0
 58 68  1  0  0  0  0
 59 68  1  0  0  0  0
 60 78  1  0  0  0  0
 61 63  1  0  0  0  0
 62 63  1  0  0  0  0
 64 65  1  0  0  0  0
 64 77  1  0  0  0  0
 65 86  1  0  0  0  0
 66 68  1  0  0  0  0
 66 76  1  0  0  0  0
 67 78  1  0  0  0  0
 69 70  1  0  0  0  0
M  CHG  2  77   1  78   1
M  ISO  4  38 100  65 101  85 100  86 101
M  END
> <Batch ID>
0030

> <Smiles>
CNC(C)C(=O)NC(C(=O)N1Cc2cc([101O:1][101CH2:1]CN3CCC(CCCc4cc([100O:0][100C:0](=O)N5CCCC(n6nc(-c7ccc(Oc8ccc(F)cc8F)cc7)c(C(N)=O)c6N)C5)c(F)cc4Cl)C(Cl)C3)ccc2CC1C(=O)NC1CCCc2ccccc21)C(C)(C)C

> <Shape>
0.316

> <Color>
0.090

> <Negative vol penalty>
0.000

$$$$

  -OEChem-04052316393D

 84 92  0     1  0  0  0  0  0999 V2000
  -20.8267  -23.8388   19.7701 C   0  0  0  0  0  0  0  0  0  0  0  0
  -20.9185  -22.5851   19.1742 C   0  0  0  0  0  0  0  0  0  0  0  0
  -26.2251  -27.9565   18.9230 C   0  0  0  0  0  0  0  0  0  0  0  0
  -26.1617  -27.2155   21.2216 C   0  0  0  0  0  0  0  0  0  0  0  0
  -21.6993  -24.1850   20.8009 C   0  0  0  0  0  0  0  0  0  0  0  0
  -21.8838  -21.6771   19.6081 C   0  0  0  0  0  0  0  0  0  0  0  0
  -22.9565  -14.6441   20.4463 C   0  0  0  0  0  0  0  0  0  0  0  0
  -25.1573  -28.8188   19.1714 C   0  0  0  0  0  0  0  0  0  0  0  0
  -25.0938  -28.0779   21.4701 C   0  0  0  0  0  0  0  0  0  0  0  0
  -23.8718  -13.6469   20.1124 C   0  0  0  0  0  0  0  0  0  0  0  0
  -24.6411  -31.3758   22.0523 C   0  0  0  0  0  0  0  0  0  0  0  0
  -24.6854  -32.1406   23.2179 C   0  0  0  0  0  0  0  0  0  0  0  0
  -25.2737  -14.3250   21.9547 C   0  0  0  0  0  0  0  0  0  0  0  0
  -30.8319  -15.7353   20.9613 C   0  0  0  0  0  0  0  0  0  0  0  0
  -22.6315  -31.1141   23.9696 C   0  0  0  0  0  0  0  0  0  0  0  0
  -26.7273  -27.1548   19.9481 C   0  0  0  0  0  0  0  0  0  0  0  0
  -29.2022  -26.5494   19.8222 C   0  0  0  0  0  0  0  0  0  0  0  0
  -22.6694  -23.2773   21.2542 C   0  0  0  0  0  0  0  0  0  0  0  0
  -23.1986  -15.4978   21.5322 C   0  0  0  0  0  0  0  0  0  0  0  0
  -22.7711  -22.0120   20.6450 C   0  0  0  0  0  0  0  0  0  0  0  0
  -24.3587  -15.3306   22.3019 C   0  0  0  0  0  0  0  0  0  0  0  0
  -30.4056  -14.4120   21.0734 C   0  0  0  0  0  0  0  0  0  0  0  0
  -30.9812  -16.3156   19.7016 C   0  0  0  0  0  0  0  0  0  0  0  0
  -30.1287  -13.6688   19.9260 C   0  0  0  0  0  0  0  0  0  0  0  0
  -30.2780  -14.2491   18.6663 C   0  0  0  0  0  0  0  0  0  0  0  0
  -24.5916  -28.8795   20.4450 C   0  0  0  0  0  0  0  0  0  0  0  0
  -25.0320  -13.4891   20.8648 C   0  0  0  0  0  0  0  0  0  0  0  0
  -23.5919  -30.4802   21.8453 C   0  0  0  0  0  0  0  0  0  0  0  0
  -23.6806  -32.0098   24.1766 C   0  0  0  0  0  0  0  0  0  0  0  0
  -22.5872  -30.3493   22.8039 C   0  0  0  0  0  0  0  0  0  0  0  0
  -30.7042  -15.5725   18.5541 C   0  0  0  0  0  0  0  0  0  0  0  0
  -27.8300  -26.2634   19.6919 C   0  0  0  0  0  0  0  0  0  0  0  0
  -29.8317  -25.3823   19.4642 C   0  0  0  0  0  0  0  0  0  0  0  0
  -29.8500  -27.7616   20.2304 C   0  0  0  0  0  0  0  0  0  0  0  0
  -23.6140  -18.6306   21.8734 C   0  0  0  0  0  0  0  0  0  0  0  0
  -23.5900  -17.8957   25.0328 C   0  0  0  0  0  0  0  0  0  0  0  0
  -24.0744  -15.5523   27.4660 C   0  0  0  0  0  0  0  0  0  0  0  0
  -30.3165  -19.9420   19.8032 C   0  0  0  0  0  0  0  0  0  0  0  0
  -23.6214  -23.7140   22.3395 C   0  0  0  0  0  0  0  0  0  0  0  0
  -22.1885  -16.5513   21.8957 C   0  0  0  0  0  0  0  0  0  0  0  0
  -24.6555  -16.2079   23.4896 C   0  0  0  0  0  0  0  0  0  0  0  0
  -24.3710  -22.5565   22.9942 C   0  0  0  0  0  0  0  0  0  0  0  0
  -28.0107  -21.1850   17.3060 C   0  0  0  0  0  0  0  0  0  0  0  0
  -24.9214  -21.6088   21.9332 C   0  0  0  0  0  0  0  0  0  0  0  0
  -27.8736  -22.6508   17.7215 C   0  0  0  0  0  0  0  0  0  0  0  0
  -28.1146  -20.2724   18.5244 C   0  0  0  0  0  0  0  0  0  0  0  0
  -29.0802  -22.0886   19.8820 C   0  0  0  0  0  0  0  0  0  0  0  0
  -23.7887  -20.9906   21.1047 C   0  0  1  0  0  0  0  0  0  0  0  0
  -22.7853  -17.6961   22.7086 C   0  0  1  0  0  0  0  0  0  0  0  0
  -28.9934  -23.0646   18.6946 C   0  0  2  0  0  0  0  0  0  0  0  0
  -30.2540  -13.8145   22.4337 C   0  0  0  0  0  0  0  0  0  0  0  0
  -29.9746  -13.4352   17.4463 C   0  0  0  0  0  0  0  0  0  0  0  0
  -24.0156  -15.2583   29.9575 C   0  0  0  0  0  0  0  0  0  0  0  0
  -26.2550  -19.3631   25.2664 C   0  0  0  0  0  0  0  0  0  0  0  0
  -26.5975  -18.2444   27.4798 C   0  0  0  0  0  0  0  0  0  0  0  0
  -24.6634  -19.7847   27.1489 C   0  0  0  0  0  0  0  0  0  0  0  0
  -21.9476  -13.5017   27.2903 C   0  0  0  0  0  0  0  0  0  0  0  0
  -29.6668  -12.2391   20.0528 C   0  0  0  0  0  0  0  0  0  0  0  0
  -31.4406  -17.7367   19.6301 C   0  0  0  0  0  0  0  0  0  0  0  0
  -28.1667  -12.0530   19.8149 C   0  0  0  0  0  0  0  0  0  0  0  0
  -27.2989  -12.7702   20.8425 C   0  0  0  0  0  0  0  0  0  1  0  0
  -24.6377  -17.5087   26.0484 C   0  0  1  0  0  0  0  0  0  0  0  0
  -23.2283  -15.1510   28.6608 C   0  0  2  0  0  0  0  0  0  0  0  0
  -25.5341  -18.7098   26.4624 C   0  0  0  0  0  0  0  0  0  0  0  0
  -27.6005  -25.0128   19.2829 N   0  0  0  0  0  0  0  0  0  0  0  0
  -28.8370  -24.5026   19.1530 N   0  0  0  0  0  0  0  0  0  0  0  0
  -23.6403  -17.2277   23.8011 N   0  0  0  0  0  0  0  0  0  0  0  0
  -29.2110  -20.7094   19.4003 N   0  0  0  0  0  0  0  0  0  0  0  0
  -31.1335  -25.0330   19.3883 N   0  0  0  0  0  0  0  0  0  0  0  0
  -29.0532  -28.8655   20.5634 N   0  0  0  0  0  0  0  0  0  0  0  0
  -23.1418  -19.9290   21.8457 N   0  0  0  0  0  0  0  0  0  0  0  0
  -23.9216  -16.8874   27.1572 N   0  0  0  0  0  0  0  0  0  0  0  0
  -30.3618  -18.6443   19.3085 N   0  0  0  0  0  0  0  0  0  0  0  0
  -22.7562  -13.7453   28.5125 N   0  3  0  0  0  0  0  0  0  0  0  0
  -31.0988  -27.8680   20.2820 O   0  0  0  0  0  0  0  0  0  0  0  0
  -24.6090  -18.2056   21.2981 O   0  0  0  0  0  0  0  0  0  0  0  0
  -22.7532  -18.7539   25.3243 O   0  0  0  0  0  0  0  0  0  0  0  0
  -24.8013  -14.7614   26.8688 O   0  0  0  0  0  0  0  0  0  0  0  0
  -31.2012  -20.3826   20.5449 O   0  0  0  0  0  0  0  0  0  0  0  0
  -23.5498  -29.7210   20.6879 O   0  0  0  0  0  0  0  0  0  0  0  0
  -25.9274  -12.5169   20.5407 O   0  0  0  0  0  0  0  0  0  1  0  0
  -23.7241  -32.7432   25.2966 F   0  0  0  0  0  0  0  0  0  0  0  0
  -21.5774  -29.4897   22.6111 F   0  0  0  0  0  0  0  0  0  0  0  0
  -30.8917  -16.2962   16.9913 Cl  0  0  0  0  0  0  0  0  0  0  0  0
  1  2  1  0  0  0  0
  1  5  2  0  0  0  0
  2  6  2  0  0  0  0
  3  8  2  0  0  0  0
  3 16  1  0  0  0  0
  4  9  1  0  0  0  0
  4 16  2  0  0  0  0
  5 18  1  0  0  0  0
  6 20  1  0  0  0  0
  7 10  2  0  0  0  0
  7 19  1  0  0  0  0
  8 26  1  0  0  0  0
  9 26  2  0  0  0  0
 10 27  1  0  0  0  0
 11 12  2  0  0  0  0
 11 28  1  0  0  0  0
 12 29  1  0  0  0  0
 13 21  1  0  0  0  0
 13 27  2  0  0  0  0
 14 22  2  0  0  0  0
 14 23  1  0  0  0  0
 15 29  2  0  0  0  0
 15 30  1  0  0  0  0
 16 32  1  0  0  0  0
 17 32  1  0  0  0  0
 17 33  2  0  0  0  0
 17 34  1  0  0  0  0
 18 20  2  0  0  0  0
 18 39  1  0  0  0  0
 19 21  2  0  0  0  0
 19 40  1  0  0  0  0
 20 48  1  0  0  0  0
 21 41  1  0  0  0  0
 22 24  1  0  0  0  0
 22 51  1  0  0  0  0
 23 31  2  0  0  0  0
 23 59  1  0  0  0  0
 24 25  2  0  0  0  0
 24 58  1  0  0  0  0
 25 31  1  0  0  0  0
 25 52  1  0  0  0  0
 26 80  1  0  0  0  0
 27 81  1  0  0  0  0
 28 30  2  0  0  0  0
 28 80  1  0  0  0  0
 29 82  1  0  0  0  0
 30 83  1  0  0  0  0
 31 84  1  0  0  0  0
 32 65  2  0  0  0  0
 33 66  1  0  0  0  0
 33 69  1  0  0  0  0
 34 70  1  0  0  0  0
 34 75  2  0  0  0  0
 35 49  1  0  0  0  0
 35 71  1  0  0  0  0
 35 76  2  0  0  0  0
 36 62  1  0  0  0  0
 36 67  1  0  0  0  0
 36 77  2  0  0  0  0
 37 63  1  0  0  0  0
 37 72  1  0  0  0  0
 37 78  2  0  0  0  0
 38 68  1  0  0  0  0
 38 73  1  0  0  0  0
 38 79  2  0  0  0  0
 39 42  1  0  0  0  0
 40 49  1  0  0  0  0
 41 67  1  0  0  0  0
 42 44  1  0  0  0  0
 43 45  1  0  0  0  0
 43 46  1  0  0  0  0
 44 48  1  0  0  0  0
 45 50  1  0  0  0  0
 46 68  1  0  0  0  0
 47 50  1  0  0  0  0
 47 68  1  0  0  0  0
 48 71  1  0  0  0  0
 49 67  1  0  0  0  0
 50 66  1  0  0  0  0
 53 63  1  0  0  0  0
 54 64  1  0  0  0  0
 55 64  1  0  0  0  0
 56 64  1  0  0  0  0
 57 74  1  0  0  0  0
 58 60  1  0  0  0  0
 59 73  1  0  0  0  0
 60 61  1  0  0  0  0
 61 81  1  0  0  0  0
 62 64  1  0  0  0  0
 62 72  1  0  0  0  0
 63 74  1  0  0  0  0
 65 66  1  0  0  0  0
M  CHG  1  74   1
M  ISO  4  38 100  61 101  73 100  81 101
M  END
> <Batch ID>
0030

> <Smiles>
CNC(C)C(=O)NC(C(=O)N1Cc2cc([101O:1][101CH2:1]CCc3c(C)cc(C[100NH:0][100C:0](=O)N4CCCC(n5nc(-c6ccc(Oc7ccc(F)cc7F)cc6)c(C(N)=O)c5N)C4)c(Cl)c3C)ccc2CC1C(=O)NC1CCCc2ccccc21)C(C)(C)C

> <Shape>
0.219

> <Color>
0.042

> <Negative vol penalty>
0.000

$$$$

  -OEChem-04052316393D

 83 91  0     1  0  0  0  0  0999 V2000
  -22.7870  -23.3990   20.8973 C   0  0  0  0  0  0  0  0  0  0  0  0
  -23.8868  -22.8445   20.2506 C   0  0  0  0  0  0  0  0  0  0  0  0
  -25.9405  -27.7747   19.1483 C   0  0  0  0  0  0  0  0  0  0  0  0
  -25.6744  -26.8788   21.3762 C   0  0  0  0  0  0  0  0  0  0  0  0
  -22.2622  -22.7812   22.0317 C   0  0  0  0  0  0  0  0  0  0  0  0
  -24.4633  -21.6723   20.7386 C   0  0  0  0  0  0  0  0  0  0  0  0
  -27.8151  -15.7489   18.5037 C   0  0  0  0  0  0  0  0  0  0  0  0
  -24.7914  -28.5462   19.3212 C   0  0  0  0  0  0  0  0  0  0  0  0
  -24.5253  -27.6503   21.5492 C   0  0  0  0  0  0  0  0  0  0  0  0
  -28.9774  -15.0155   18.7383 C   0  0  0  0  0  0  0  0  0  0  0  0
  -21.2758  -27.5217   20.6246 C   0  0  0  0  0  0  0  0  0  0  0  0
  -20.1595  -26.9043   21.1888 C   0  0  0  0  0  0  0  0  0  0  0  0
  -27.9372  -13.9926   20.6594 C   0  0  0  0  0  0  0  0  0  0  0  0
  -33.3958  -17.4143   22.6835 C   0  0  0  0  0  0  0  0  0  0  0  0
  -31.0277  -15.9450   22.5585 C   0  0  0  0  0  0  0  0  0  0  0  0
  -20.2012  -28.4922   23.0092 C   0  0  0  0  0  0  0  0  0  0  0  0
  -26.3820  -26.9410   20.1758 C   0  0  0  0  0  0  0  0  0  0  0  0
  -28.8714  -26.6055   19.7307 C   0  0  0  0  0  0  0  0  0  0  0  0
  -22.8266  -21.5956   22.5282 C   0  0  0  0  0  0  0  0  0  0  0  0
  -26.7070  -15.6175   19.3531 C   0  0  0  0  0  0  0  0  0  0  0  0
  -23.9464  -21.0388   21.8815 C   0  0  0  0  0  0  0  0  0  0  0  0
  -26.7611  -14.7235   20.4320 C   0  0  0  0  0  0  0  0  0  0  0  0
  -33.4367  -16.0480   22.4061 C   0  0  0  0  0  0  0  0  0  0  0  0
  -32.1709  -18.0461   22.8985 C   0  0  0  0  0  0  0  0  0  0  0  0
  -32.2527  -15.3133   22.3435 C   0  0  0  0  0  0  0  0  0  0  0  0
  -30.9868  -17.3114   22.8359 C   0  0  0  0  0  0  0  0  0  0  0  0
  -24.0838  -28.4840   20.5217 C   0  0  0  0  0  0  0  0  0  0  0  0
  -29.0396  -14.1394   19.8179 C   0  0  0  0  0  0  0  0  0  0  0  0
  -21.8548  -28.6244   21.2527 C   0  0  0  0  0  0  0  0  0  0  0  0
  -19.6222  -27.3895   22.3810 C   0  0  0  0  0  0  0  0  0  0  0  0
  -21.3175  -29.1097   22.4450 C   0  0  0  0  0  0  0  0  0  0  0  0
  -27.5687  -26.1434   19.9975 C   0  0  0  0  0  0  0  0  0  0  0  0
  -29.6309  -25.4640   19.6503 C   0  0  0  0  0  0  0  0  0  0  0  0
  -29.3520  -27.9468   19.5700 C   0  0  0  0  0  0  0  0  0  0  0  0
  -25.1023  -17.5835   21.2671 C   0  0  0  0  0  0  0  0  0  0  0  0
  -23.1292  -15.0292   21.5916 C   0  0  0  0  0  0  0  0  0  0  0  0
  -22.7201  -11.6450   21.4279 C   0  0  0  0  0  0  0  0  0  0  0  0
  -28.9456  -20.1074   22.0362 C   0  0  0  0  0  0  0  0  0  0  0  0
  -22.2539  -20.9899   23.7852 C   0  0  0  0  0  0  0  0  0  0  0  0
  -25.4512  -16.3957   19.0708 C   0  0  0  0  0  0  0  0  0  0  0  0
  -25.5918  -14.5309   21.3616 C   0  0  0  0  0  0  0  0  0  0  0  0
  -22.6910  -19.5462   24.0194 C   0  0  0  0  0  0  0  0  0  0  0  0
  -29.3125  -20.8269   18.5085 C   0  0  0  0  0  0  0  0  0  0  0  0
  -24.1947  -19.4024   23.8067 C   0  0  0  0  0  0  0  0  0  0  0  0
  -29.0272  -22.3294   18.4732 C   0  0  0  0  0  0  0  0  0  0  0  0
  -28.4199  -20.1184   19.5230 C   0  0  0  0  0  0  0  0  0  0  0  0
  -28.2161  -22.1704   20.8725 C   0  0  0  0  0  0  0  0  0  0  0  0
  -24.5842  -19.7548   22.3660 C   0  0  1  0  0  0  0  0  0  0  0  0
  -24.5648  -16.5662   20.3007 C   0  0  1  0  0  0  0  0  0  0  0  0
  -29.1024  -22.9473   19.8820 C   0  0  2  0  0  0  0  0  0  0  0  0
  -34.7597  -15.3935   22.1787 C   0  0  0  0  0  0  0  0  0  0  0  0
  -32.1520  -19.5097   23.1948 C   0  0  0  0  0  0  0  0  0  0  0  0
  -21.0048   -9.8486   21.7852 C   0  0  0  0  0  0  0  0  0  0  0  0
  -23.4688  -15.3088   24.6110 C   0  0  0  0  0  0  0  0  0  0  0  0
  -22.5512  -12.9926   24.8585 C   0  0  0  0  0  0  0  0  0  0  0  0
  -21.1377  -14.7928   23.8667 C   0  0  0  0  0  0  0  0  0  0  0  0
  -22.8753  -10.7737   18.6038 C   0  0  0  0  0  0  0  0  0  0  0  0
  -32.2719  -13.8355   22.0447 C   0  0  0  0  0  0  0  0  0  0  0  0
  -29.6638  -17.9659   23.0634 C   0  0  0  0  0  0  0  0  0  0  0  0
  -32.5138  -13.5086   20.5695 C   0  0  0  0  0  0  0  0  0  0  0  0
  -31.4086  -14.0147   19.6498 C   0  0  0  0  0  0  0  0  0  1  0  0
  -23.0589  -13.8444   22.5245 C   0  0  1  0  0  0  0  0  0  0  0  0
  -21.6467  -10.7904   20.7784 C   0  0  2  0  0  0  0  0  0  0  0  0
  -22.5770  -14.2395   23.9490 C   0  0  0  0  0  0  0  0  0  0  0  0
  -27.5008  -24.8121   20.0808 N   0  0  0  0  0  0  0  0  0  0  0  0
  -28.7704  -24.4278   19.8651 N   0  0  0  0  0  0  0  0  0  0  0  0
  -24.3886  -15.3191   21.0476 N   0  0  0  0  0  0  0  0  0  0  0  0
  -28.5523  -20.7430   20.8468 N   0  0  0  0  0  0  0  0  0  0  0  0
  -30.9442  -25.2555   19.4174 N   0  0  0  0  0  0  0  0  0  0  0  0
  -29.8009  -28.6361   20.7048 N   0  0  0  0  0  0  0  0  0  0  0  0
  -24.2630  -18.6615   21.4738 N   0  0  0  0  0  0  0  0  0  0  0  0
  -22.2175  -12.8532   21.8627 N   0  0  0  0  0  0  0  0  0  0  0  0
  -29.2397  -18.7537   21.9274 N   0  0  0  0  0  0  0  0  0  0  0  0
  -22.2307   -9.9739   19.6770 N   0  3  0  0  0  0  0  0  0  0  0  0
  -29.3671  -28.5228   18.4558 O   0  0  0  0  0  0  0  0  0  0  0  0
  -26.1968  -17.4029   21.7879 O   0  0  0  0  0  0  0  0  0  0  0  0
  -22.1032  -15.6695   21.3488 O   0  0  0  0  0  0  0  0  0  0  0  0
  -23.8870  -11.2761   21.5418 O   0  0  0  0  0  0  0  0  0  0  0  0
  -29.0335  -20.7036   23.1151 O   0  0  0  0  0  0  0  0  0  0  0  0
  -22.9625  -29.2368   20.6909 O   0  0  0  0  0  0  0  0  0  0  0  0
  -30.1731  -13.4229   20.0495 O   0  0  0  0  0  0  0  0  0  1  0  0
  -18.5494  -26.7974   22.9219 F   0  0  0  0  0  0  0  0  0  0  0  0
  -21.8687  -30.1694   23.0524 F   0  0  0  0  0  0  0  0  0  0  0  0
  1  2  1  0  0  0  0
  1  5  2  0  0  0  0
  2  6  2  0  0  0  0
  3  8  2  0  0  0  0
  3 17  1  0  0  0  0
  4  9  1  0  0  0  0
  4 17  2  0  0  0  0
  5 19  1  0  0  0  0
  6 21  1  0  0  0  0
  7 10  2  0  0  0  0
  7 20  1  0  0  0  0
  8 27  1  0  0  0  0
  9 27  2  0  0  0  0
 10 28  1  0  0  0  0
 11 12  2  0  0  0  0
 11 29  1  0  0  0  0
 12 30  1  0  0  0  0
 13 22  1  0  0  0  0
 13 28  2  0  0  0  0
 14 23  1  0  0  0  0
 14 24  2  0  0  0  0
 15 25  1  0  0  0  0
 15 26  2  0  0  0  0
 16 30  2  0  0  0  0
 16 31  1  0  0  0  0
 17 32  1  0  0  0  0
 18 32  1  0  0  0  0
 18 33  2  0  0  0  0
 18 34  1  0  0  0  0
 19 21  2  0  0  0  0
 19 39  1  0  0  0  0
 20 22  2  0  0  0  0
 20 40  1  0  0  0  0
 21 48  1  0  0  0  0
 22 41  1  0  0  0  0
 23 25  2  0  0  0  0
 23 51  1  0  0  0  0
 24 26  1  0  0  0  0
 24 52  1  0  0  0  0
 25 58  1  0  0  0  0
 26 59  1  0  0  0  0
 27 80  1  0  0  0  0
 28 81  1  0  0  0  0
 29 31  2  0  0  0  0
 29 80  1  0  0  0  0
 30 82  1  0  0  0  0
 31 83  1  0  0  0  0
 32 65  2  0  0  0  0
 33 66  1  0  0  0  0
 33 69  1  0  0  0  0
 34 70  1  0  0  0  0
 34 75  2  0  0  0  0
 35 49  1  0  0  0  0
 35 71  1  0  0  0  0
 35 76  2  0  0  0  0
 36 62  1  0  0  0  0
 36 67  1  0  0  0  0
 36 77  2  0  0  0  0
 37 63  1  0  0  0  0
 37 72  1  0  0  0  0
 37 78  2  0  0  0  0
 38 68  1  0  0  0  0
 38 73  1  0  0  0  0
 38 79  2  0  0  0  0
 39 42  1  0  0  0  0
 40 49  1  0  0  0  0
 41 67  1  0  0  0  0
 42 44  1  0  0  0  0
 43 45  1  0  0  0  0
 43 46  1  0  0  0  0
 44 48  1  0  0  0  0
 45 50  1  0  0  0  0
 46 68  1  0  0  0  0
 47 50  1  0  0  0  0
 47 68  1  0  0  0  0
 48 71  1  0  0  0  0
 49 67  1  0  0  0  0
 50 66  1  0  0  0  0
 53 63  1  0  0  0  0
 54 64  1  0  0  0  0
 55 64  1  0  0  0  0
 56 64  1  0  0  0  0
 57 74  1  0  0  0  0
 58 60  1  0  0  0  0
 59 73  1  0  0  0  0
 60 61  1  0  0  0  0
 61 81  1  0  0  0  0
 62 64  1  0  0  0  0
 62 72  1  0  0  0  0
 63 74  1  0  0  0  0
 65 66  1  0  0  0  0
M  CHG  1  74   1
M  ISO  4  38 100  61 101  73 100  81 101
M  END
> <Batch ID>
0030

> <Smiles>
CNC(C)C(=O)NC(C(=O)N1Cc2cc([101O:1][101CH2:1]CCc3cc(C[100NH:0][100C:0](=O)N4CCCC(n5nc(-c6ccc(Oc7ccc(F)cc7F)cc6)c(C(N)=O)c5N)C4)c(C)cc3C)ccc2CC1C(=O)NC1CCCc2ccccc21)C(C)(C)C

> <Shape>
0.252

> <Color>
0.050

> <Negative vol penalty>
0.000

$$$$

  -OEChem-04052316393D

 82 90  0     1  0  0  0  0  0999 V2000
  -16.4408  -26.3107   23.9478 C   0  0  0  0  0  0  0  0  0  0  0  0
  -17.6824  -25.9026   23.4712 C   0  0  0  0  0  0  0  0  0  0  0  0
  -24.5348  -10.2333   22.8626 C   0  0  0  0  0  0  0  0  0  0  0  0
  -24.5621  -11.8838   24.6267 C   0  0  0  0  0  0  0  0  0  0  0  0
  -16.0967  -27.6616   23.9260 C   0  0  0  0  0  0  0  0  0  0  0  0
  -18.5803  -26.8452   22.9715 C   0  0  0  0  0  0  0  0  0  0  0  0
  -23.3002  -26.1158   24.6553 C   0  0  0  0  0  0  0  0  0  0  0  0
  -24.1220   -9.2636   23.7762 C   0  0  0  0  0  0  0  0  0  0  0  0
  -24.1492  -10.9141   25.5404 C   0  0  0  0  0  0  0  0  0  0  0  0
  -24.0416  -25.1006   24.0524 C   0  0  0  0  0  0  0  0  0  0  0  0
  -21.2662   -9.3801   26.4097 C   0  0  0  0  0  0  0  0  0  0  0  0
  -20.2493   -9.7227   27.3008 C   0  0  0  0  0  0  0  0  0  0  0  0
  -25.1746  -26.7420   22.6956 C   0  0  0  0  0  0  0  0  0  0  0  0
  -25.8240  -21.1408   21.3789 C   0  0  0  0  0  0  0  0  0  0  0  0
  -27.7452  -22.2983   22.2767 C   0  0  0  0  0  0  0  0  0  0  0  0
  -21.7348   -9.2991   29.1586 C   0  0  0  0  0  0  0  0  0  0  0  0
  -24.7549  -11.5435   23.2879 C   0  0  0  0  0  0  0  0  0  0  0  0
  -24.3622  -13.3877   21.5697 C   0  0  0  0  0  0  0  0  0  0  0  0
  -16.9946  -28.6224   23.4347 C   0  0  0  0  0  0  0  0  0  0  0  0
  -23.4831  -27.4529   24.2745 C   0  0  0  0  0  0  0  0  0  0  0  0
  -18.2474  -28.2101   22.9418 C   0  0  0  0  0  0  0  0  0  0  0  0
  -24.4362  -27.7726   23.2970 C   0  0  0  0  0  0  0  0  0  0  0  0
  -26.3617  -22.1540   22.1726 C   0  0  0  0  0  0  0  0  0  0  0  0
  -28.0533  -20.4162   20.7936 C   0  0  0  0  0  0  0  0  0  0  0  0
  -23.9292   -9.6039   25.1151 C   0  0  0  0  0  0  0  0  0  0  0  0
  -24.9769  -25.4133   23.0704 C   0  0  0  0  0  0  0  0  0  0  0  0
  -22.5173   -8.9970   26.8929 C   0  0  0  0  0  0  0  0  0  0  0  0
  -20.4836   -9.6822   28.6753 C   0  0  0  0  0  0  0  0  0  0  0  0
  -22.7516   -8.9565   28.2674 C   0  0  0  0  0  0  0  0  0  0  0  0
  -26.6698  -20.2719   20.6894 C   0  0  0  0  0  0  0  0  0  0  0  0
  -28.5910  -21.4294   21.5872 C   0  0  0  0  0  0  0  0  0  0  0  0
  -25.1819  -12.5455   22.3447 C   0  0  0  0  0  0  0  0  0  0  0  0
  -25.2434  -14.1508   20.8433 C   0  0  0  0  0  0  0  0  0  0  0  0
  -22.9322  -13.4727   21.5117 C   0  0  0  0  0  0  0  0  0  0  0  0
  -21.6335  -29.6885   22.9763 C   0  0  0  0  0  0  0  0  0  0  0  0
  -24.2088  -31.5839   23.5220 C   0  0  0  0  0  0  0  0  0  0  0  0
  -27.5798  -31.8256   23.9962 C   0  0  0  0  0  0  0  0  0  0  0  0
  -29.8888  -17.2253   20.5061 C   0  0  0  0  0  0  0  0  0  0  0  0
  -16.5595  -30.0657   23.3876 C   0  0  0  0  0  0  0  0  0  0  0  0
  -22.6945  -28.5390   24.9534 C   0  0  0  0  0  0  0  0  0  0  0  0
  -24.6848  -29.1944   22.8669 C   0  0  0  0  0  0  0  0  0  0  0  0
  -17.7144  -31.0438   23.1882 C   0  0  0  0  0  0  0  0  0  0  0  0
  -30.2400  -13.6954   20.2009 C   0  0  0  0  0  0  0  0  0  0  0  0
  -18.6342  -30.5631   22.0703 C   0  0  0  0  0  0  0  0  0  0  0  0
  -28.8906  -13.1513   20.6732 C   0  0  0  0  0  0  0  0  0  0  0  0
  -30.6640  -14.9251   21.0009 C   0  0  0  0  0  0  0  0  0  0  0  0
  -28.3157  -15.4653   21.5182 C   0  0  0  0  0  0  0  0  0  0  0  0
  -19.2582  -29.2054   22.4148 C   0  0  1  0  0  0  0  0  0  0  0  0
  -22.5966  -29.8148   24.1227 C   0  0  1  0  0  0  0  0  0  0  0  0
  -27.8195  -14.2581   20.7040 C   0  0  2  0  0  0  0  0  0  0  0  0
  -28.7579  -19.5414   18.5353 C   0  0  0  0  0  0  0  0  0  0  0  0
  -29.3994  -33.5107   24.3791 C   0  0  0  0  0  0  0  0  0  0  0  0
  -24.0985  -32.3688   20.5755 C   0  0  0  0  0  0  0  0  0  0  0  0
  -26.4281  -33.2586   20.7972 C   0  0  0  0  0  0  0  0  0  0  0  0
  -24.5798  -34.2586   22.1412 C   0  0  0  0  0  0  0  0  0  0  0  0
  -28.2902  -30.6365   26.6116 C   0  0  0  0  0  0  0  0  0  0  0  0
  -25.4520  -23.0882   22.9148 C   0  0  0  0  0  0  0  0  0  1  0  0
  -28.9617  -19.4825   20.0535 C   0  0  2  0  0  0  0  0  0  0  0  0
  -25.4445  -31.9596   22.7404 C   0  0  1  0  0  0  0  0  0  0  0  0
  -28.4002  -32.5699   25.0342 C   0  0  2  0  0  0  0  0  0  0  0  0
  -25.1319  -32.9343   21.5701 C   0  0  0  0  0  0  0  0  0  0  0  0
  -26.4838  -12.7537   22.1305 N   0  0  0  0  0  0  0  0  0  0  0  0
  -26.4888  -13.7353   21.2126 N   0  0  0  0  0  0  0  0  0  0  0  0
  -23.8844  -30.2203   23.5557 N   0  0  0  0  0  0  0  0  0  0  0  0
  -29.6050  -15.9372   20.9891 N   0  0  0  0  0  0  0  0  0  0  0  0
  -25.0666  -15.1300   19.9309 N   0  0  0  0  0  0  0  0  0  0  0  0
  -22.1784  -12.6152   22.3246 N   0  0  0  0  0  0  0  0  0  0  0  0
  -20.3435  -29.3726   23.3576 N   0  0  0  0  0  0  0  0  0  0  0  0
  -26.3998  -32.4801   23.7125 N   0  0  0  0  0  0  0  0  0  0  0  0
  -28.8273  -18.1218   20.5240 N   0  0  0  0  0  0  0  0  0  0  0  0
  -29.1514  -31.6072   25.8884 N   0  3  0  0  0  0  0  0  0  0  0  0
  -22.3401  -14.2736   20.7491 O   0  0  0  0  0  0  0  0  0  0  0  0
  -22.0311  -29.8660   21.8308 O   0  0  0  0  0  0  0  0  0  0  0  0
  -23.5594  -32.4669   24.0879 O   0  0  0  0  0  0  0  0  0  0  0  0
  -27.9505  -30.7710   23.4853 O   0  0  0  0  0  0  0  0  0  0  0  0
  -31.0040  -17.5506   20.0848 O   0  0  0  0  0  0  0  0  0  0  0  0
  -23.5261   -8.6579   26.0068 O   0  0  0  0  0  0  0  0  0  0  0  0
  -25.7014  -24.4242   22.4798 O   0  0  0  0  0  0  0  0  0  1  0  0
  -19.5075  -10.0127   29.5309 F   0  0  0  0  0  0  0  0  0  0  0  0
  -23.9519   -8.5904   28.7376 F   0  0  0  0  0  0  0  0  0  0  0  0
  -25.9619  -19.0313   19.7186 Cl  0  0  0  0  0  0  0  0  0  0  0  0
  -30.2974  -21.6433   21.7450 Cl  0  0  0  0  0  0  0  0  0  0  0  0
  1  2  1  0  0  0  0
  1  5  2  0  0  0  0
  2  6  2  0  0  0  0
  3  8  2  0  0  0  0
  3 17  1  0  0  0  0
  4  9  1  0  0  0  0
  4 17  2  0  0  0  0
  5 19  1  0  0  0  0
  6 21  1  0  0  0  0
  7 10  2  0  0  0  0
  7 20  1  0  0  0  0
  8 25  1  0  0  0  0
  9 25  2  0  0  0  0
 10 26  1  0  0  0  0
 11 12  2  0  0  0  0
 11 27  1  0  0  0  0
 12 28  1  0  0  0  0
 13 22  1  0  0  0  0
 13 26  2  0  0  0  0
 14 23  1  0  0  0  0
 14 30  2  0  0  0  0
 15 23  2  0  0  0  0
 15 31  1  0  0  0  0
 16 28  2  0  0  0  0
 16 29  1  0  0  0  0
 17 32  1  0  0  0  0
 18 32  1  0  0  0  0
 18 33  2  0  0  0  0
 18 34  1  0  0  0  0
 19 21  2  0  0  0  0
 19 39  1  0  0  0  0
 20 22  2  0  0  0  0
 20 40  1  0  0  0  0
 21 48  1  0  0  0  0
 22 41  1  0  0  0  0
 23 57  1  0  0  0  0
 24 30  1  0  0  0  0
 24 31  2  0  0  0  0
 24 58  1  0  0  0  0
 25 77  1  0  0  0  0
 26 78  1  0  0  0  0
 27 29  2  0  0  0  0
 27 77  1  0  0  0  0
 28 79  1  0  0  0  0
 29 80  1  0  0  0  0
 30 81  1  0  0  0  0
 31 82  1  0  0  0  0
 32 62  2  0  0  0  0
 33 63  1  0  0  0  0
 33 66  1  0  0  0  0
 34 67  1  0  0  0  0
 34 72  2  0  0  0  0
 35 49  1  0  0  0  0
 35 68  1  0  0  0  0
 35 73  2  0  0  0  0
 36 59  1  0  0  0  0
 36 64  1  0  0  0  0
 36 74  2  0  0  0  0
 37 60  1  0  0  0  0
 37 69  1  0  0  0  0
 37 75  2  0  0  0  0
 38 65  1  0  0  0  0
 38 70  1  0  0  0  0
 38 76  2  0  0  0  0
 39 42  1  0  0  0  0
 40 49  1  0  0  0  0
 41 64  1  0  0  0  0
 42 44  1  0  0  0  0
 43 45  1  0  0  0  0
 43 46  1  0  0  0  0
 44 48  1  0  0  0  0
 45 50  1  0  0  0  0
 46 65  1  0  0  0  0
 47 50  1  0  0  0  0
 47 65  1  0  0  0  0
 48 68  1  0  0  0  0
 49 64  1  0  0  0  0
 50 63  1  0  0  0  0
 51 58  1  0  0  0  0
 52 60  1  0  0  0  0
 53 61  1  0  0  0  0
 54 61  1  0  0  0  0
 55 61  1  0  0  0  0
 56 71  1  0  0  0  0
 57 78  1  0  0  0  0
 58 70  1  0  0  0  0
 59 61  1  0  0  0  0
 59 69  1  0  0  0  0
 60 71  1  0  0  0  0
 62 63  1  0  0  0  0
M  CHG  1  71   1
M  ISO  4  38 100  57 101  70 100  78 101
M  END
> <Batch ID>
0030

> <Smiles>
CNC(C)C(=O)NC(C(=O)N1Cc2cc([101O:1][101CH2:1]c3cc(Cl)c(C(C)[100NH:0][100C:0](=O)N4CCCC(n5nc(-c6ccc(Oc7ccc(F)cc7F)cc6)c(C(N)=O)c5N)C4)c(Cl)c3)ccc2CC1C(=O)NC1CCCc2ccccc21)C(C)(C)C

> <Shape>
0.248

> <Color>
0.120

> <Negative vol penalty>
0.000

$$$$

  -OEChem-04052316393D

 82 90  0     1  0  0  0  0  0999 V2000
  -19.6411  -33.1207   23.9356 C   0  0  0  0  0  0  0  0  0  0  0  0
  -20.9849  -32.8948   23.6552 C   0  0  0  0  0  0  0  0  0  0  0  0
  -26.9662  -12.8504   21.2497 C   0  0  0  0  0  0  0  0  0  0  0  0
  -26.5925  -13.6140   18.9882 C   0  0  0  0  0  0  0  0  0  0  0  0
  -18.7775  -32.0416   24.1190 C   0  0  0  0  0  0  0  0  0  0  0  0
  -21.4662  -31.5896   23.5591 C   0  0  0  0  0  0  0  0  0  0  0  0
  -25.8630  -29.5532   19.8139 C   0  0  0  0  0  0  0  0  0  0  0  0
  -26.2438  -11.6888   20.9769 C   0  0  0  0  0  0  0  0  0  0  0  0
  -25.8701  -12.4524   18.7154 C   0  0  0  0  0  0  0  0  0  0  0  0
  -27.2211  -29.3056   20.0091 C   0  0  0  0  0  0  0  0  0  0  0  0
  -24.1917   -8.6867   20.9808 C   0  0  0  0  0  0  0  0  0  0  0  0
  -23.2566   -8.2656   21.9263 C   0  0  0  0  0  0  0  0  0  0  0  0
  -26.7332  -26.9768   20.4065 C   0  0  0  0  0  0  0  0  0  0  0  0
  -28.9744  -22.2370   17.5074 C   0  0  0  0  0  0  0  0  0  0  0  0
  -28.8044  -23.6806   19.4236 C   0  0  0  0  0  0  0  0  0  0  0  0
  -22.0626  -10.3508   21.6742 C   0  0  0  0  0  0  0  0  0  0  0  0
  -27.1405  -13.8131   20.2554 C   0  0  0  0  0  0  0  0  0  0  0  0
  -29.2704  -15.2120   20.3748 C   0  0  0  0  0  0  0  0  0  0  0  0
  -19.2464  -30.7225   24.0156 C   0  0  0  0  0  0  0  0  0  0  0  0
  -24.9271  -28.5148   19.9245 C   0  0  0  0  0  0  0  0  0  0  0  0
  -20.6083  -30.4918   23.7427 C   0  0  0  0  0  0  0  0  0  0  0  0
  -25.3641  -27.2133   20.2097 C   0  0  0  0  0  0  0  0  0  0  0  0
  -28.4532  -22.5057   18.7681 C   0  0  0  0  0  0  0  0  0  0  0  0
  -25.6958  -11.4898   19.7097 C   0  0  0  0  0  0  0  0  0  0  0  0
  -27.6561  -28.0178   20.3083 C   0  0  0  0  0  0  0  0  0  0  0  0
  -24.0623   -9.9400   20.3821 C   0  0  0  0  0  0  0  0  0  0  0  0
  -22.1921   -9.0976   22.2729 C   0  0  0  0  0  0  0  0  0  0  0  0
  -22.9978  -10.7720   20.7288 C   0  0  0  0  0  0  0  0  0  0  0  0
  -27.8861  -15.0135   20.5368 C   0  0  0  0  0  0  0  0  0  0  0  0
  -29.8360  -23.1680   16.9500 C   0  0  0  0  0  0  0  0  0  0  0  0
  -29.6737  -24.5469   18.7805 C   0  0  0  0  0  0  0  0  0  0  0  0
  -29.4807  -16.5083   20.7769 C   0  0  0  0  0  0  0  0  0  0  0  0
  -30.2762  -14.3056   19.9030 C   0  0  0  0  0  0  0  0  0  0  0  0
  -22.4431  -27.9261   21.8183 C   0  0  0  0  0  0  0  0  0  0  0  0
  -22.0166  -25.4040   19.8233 C   0  0  0  0  0  0  0  0  0  0  0  0
  -23.3840  -23.2043   17.6011 C   0  0  0  0  0  0  0  0  0  0  0  0
  -26.9610  -21.7036   20.6326 C   0  0  0  0  0  0  0  0  0  0  0  0
  -18.2849  -29.5884   24.2687 C   0  0  0  0  0  0  0  0  0  0  0  0
  -23.4685  -28.7932   19.6847 C   0  0  0  0  0  0  0  0  0  0  0  0
  -24.4019  -26.0599   20.3193 C   0  0  0  0  0  0  0  0  0  0  0  0
  -18.7963  -28.2357   23.7797 C   0  0  0  0  0  0  0  0  0  0  0  0
  -26.9975  -19.7292   23.5953 C   0  0  0  0  0  0  0  0  0  0  0  0
  -20.2435  -28.0238   24.2129 C   0  0  0  0  0  0  0  0  0  0  0  0
  -27.3657  -18.3307   23.0945 C   0  0  0  0  0  0  0  0  0  0  0  0
  -26.0961  -20.4666   22.6066 C   0  0  0  0  0  0  0  0  0  0  0  0
  -26.9742  -19.1334   20.7303 C   0  0  0  0  0  0  0  0  0  0  0  0
  -21.1629  -29.0905   23.6061 C   0  0  1  0  0  0  0  0  0  0  0  0
  -22.5493  -27.7600   20.3287 C   0  0  1  0  0  0  0  0  0  0  0  0
  -27.9342  -18.3765   21.6626 C   0  0  2  0  0  0  0  0  0  0  0  0
  -30.4139  -22.9127   15.5979 C   0  0  0  0  0  0  0  0  0  0  0  0
  -22.7946  -21.2327   16.1648 C   0  0  0  0  0  0  0  0  0  0  0  0
  -21.9962  -23.6135   22.2939 C   0  0  0  0  0  0  0  0  0  0  0  0
  -22.3626  -21.6482   20.7868 C   0  0  0  0  0  0  0  0  0  0  0  0
  -20.2921  -23.0211   20.5620 C   0  0  0  0  0  0  0  0  0  0  0  0
  -24.1184  -24.6438   15.1217 C   0  0  0  0  0  0  0  0  0  0  0  0
  -31.1846  -27.8246   19.5183 C   0  0  0  0  0  0  0  0  0  0  0  0
  -29.9031  -28.5976   19.7878 C   0  0  0  0  0  0  0  0  0  1  0  0
  -30.9290  -26.5653   18.7051 C   0  0  0  0  0  0  0  0  0  0  0  0
  -22.5018  -23.9749   19.7879 C   0  0  1  0  0  0  0  0  0  0  0  0
  -22.9286  -22.7463   16.2273 C   0  0  2  0  0  0  0  0  0  0  0  0
  -21.8064  -23.0863   20.8576 C   0  0  0  0  0  0  0  0  0  0  0  0
  -27.2612  -16.0969   21.0054 N   0  0  0  0  0  0  0  0  0  0  0  0
  -30.2004  -24.3201   17.5562 N   0  0  0  0  0  0  0  0  0  0  0  0
  -28.2573  -16.9887   21.1414 N   0  0  0  0  0  0  0  0  0  0  0  0
  -22.9854  -26.3839   20.0826 N   0  0  0  0  0  0  0  0  0  0  0  0
  -26.7008  -20.4735   21.2728 N   0  0  0  0  0  0  0  0  0  0  0  0
  -30.5909  -17.2728   20.8508 N   0  0  0  0  0  0  0  0  0  0  0  0
  -29.8878  -13.0114   19.5310 N   0  0  0  0  0  0  0  0  0  0  0  0
  -27.5674  -21.5860   19.3824 N   0  0  0  0  0  0  0  0  0  0  0  0
  -21.4401  -28.7884   22.2181 N   0  0  0  0  0  0  0  0  0  0  0  0
  -22.3160  -23.5146   18.4161 N   0  0  0  0  0  0  0  0  0  0  0  0
  -23.9066  -23.1749   15.1878 N   0  3  0  0  0  0  0  0  0  0  0  0
  -31.4861  -14.6285   19.8296 O   0  0  0  0  0  0  0  0  0  0  0  0
  -23.2130  -27.3158   22.5507 O   0  0  0  0  0  0  0  0  0  0  0  0
  -20.8234  -25.6428   19.6211 O   0  0  0  0  0  0  0  0  0  0  0  0
  -24.5686  -23.2759   17.9205 O   0  0  0  0  0  0  0  0  0  0  0  0
  -26.6922  -22.7827   21.1667 O   0  0  0  0  0  0  0  0  0  0  0  0
  -24.9910  -10.3563   19.4431 O   0  0  0  0  0  0  0  0  0  0  0  0
  -28.9810  -27.7735   20.5000 O   0  0  0  0  0  0  0  0  0  1  0  0
  -30.0355  -25.7112   19.4065 O   0  0  0  0  0  0  0  0  0  0  0  0
  -21.2933   -8.6925   23.1797 F   0  0  0  0  0  0  0  0  0  0  0  0
  -22.8676  -11.9765   20.1561 F   0  0  0  0  0  0  0  0  0  0  0  0
  1  2  1  0  0  0  0
  1  5  2  0  0  0  0
  2  6  2  0  0  0  0
  3  8  2  0  0  0  0
  3 17  1  0  0  0  0
  4  9  1  0  0  0  0
  4 17  2  0  0  0  0
  5 19  1  0  0  0  0
  6 21  1  0  0  0  0
  7 10  2  0  0  0  0
  7 20  1  0  0  0  0
  8 24  1  0  0  0  0
  9 24  2  0  0  0  0
 10 25  1  0  0  0  0
 11 12  2  0  0  0  0
 11 26  1  0  0  0  0
 12 27  1  0  0  0  0
 13 22  1  0  0  0  0
 13 25  2  0  0  0  0
 14 23  1  0  0  0  0
 14 30  2  0  0  0  0
 15 23  2  0  0  0  0
 15 31  1  0  0  0  0
 16 27  2  0  0  0  0
 16 28  1  0  0  0  0
 17 29  1  0  0  0  0
 18 29  1  0  0  0  0
 18 32  2  0  0  0  0
 18 33  1  0  0  0  0
 19 21  2  0  0  0  0
 19 38  1  0  0  0  0
 20 22  2  0  0  0  0
 20 39  1  0  0  0  0
 21 47  1  0  0  0  0
 22 40  1  0  0  0  0
 23 69  1  0  0  0  0
 24 78  1  0  0  0  0
 25 79  1  0  0  0  0
 26 28  2  0  0  0  0
 26 78  1  0  0  0  0
 27 81  1  0  0  0  0
 28 82  1  0  0  0  0
 29 62  2  0  0  0  0
 30 50  1  0  0  0  0
 30 63  1  0  0  0  0
 31 63  2  0  0  0  0
 31 80  1  0  0  0  0
 32 64  1  0  0  0  0
 32 67  1  0  0  0  0
 33 68  1  0  0  0  0
 33 73  2  0  0  0  0
 34 48  1  0  0  0  0
 34 70  1  0  0  0  0
 34 74  2  0  0  0  0
 35 59  1  0  0  0  0
 35 65  1  0  0  0  0
 35 75  2  0  0  0  0
 36 60  1  0  0  0  0
 36 71  1  0  0  0  0
 36 76  2  0  0  0  0
 37 66  1  0  0  0  0
 37 69  1  0  0  0  0
 37 77  2  0  0  0  0
 38 41  1  0  0  0  0
 39 48  1  0  0  0  0
 40 65  1  0  0  0  0
 41 43  1  0  0  0  0
 42 44  1  0  0  0  0
 42 45  1  0  0  0  0
 43 47  1  0  0  0  0
 44 49  1  0  0  0  0
 45 66  1  0  0  0  0
 46 49  1  0  0  0  0
 46 66  1  0  0  0  0
 47 70  1  0  0  0  0
 48 65  1  0  0  0  0
 49 64  1  0  0  0  0
 51 60  1  0  0  0  0
 52 61  1  0  0  0  0
 53 61  1  0  0  0  0
 54 61  1  0  0  0  0
 55 72  1  0  0  0  0
 56 57  1  0  0  0  0
 56 58  1  0  0  0  0
 57 79  1  0  0  0  0
 58 80  1  0  0  0  0
 59 61  1  0  0  0  0
 59 71  1  0  0  0  0
 60 72  1  0  0  0  0
 62 64  1  0  0  0  0
M  CHG  1  72   1
M  ISO  4  37 100  57 101  69 100  79 101
M  END
> <Batch ID>
0030

> <Smiles>
CNC(C)C(=O)NC(C(=O)N1Cc2cc([101O:1][101CH2:1]CCOc3cc([100NH:0][100C:0](=O)N4CCCC(n5nc(-c6ccc(Oc7ccc(F)cc7F)cc6)c(C(N)=O)c5N)C4)cc(C)n3)ccc2CC1C(=O)NC1CCCc2ccccc21)C(C)(C)C

> <Shape>
0.261

> <Color>
0.093

> <Negative vol penalty>
0.000

$$$$

  -OEChem-04052316393D

 85 93  0     1  0  0  0  0  0999 V2000
  -27.1112  -37.8883   21.6545 C   0  0  0  0  0  0  0  0  0  0  0  0
  -27.7311  -36.7463   21.1575 C   0  0  0  0  0  0  0  0  0  0  0  0
  -22.8025  -10.5785   19.9860 C   0  0  0  0  0  0  0  0  0  0  0  0
  -23.9011   -9.6953   21.9481 C   0  0  0  0  0  0  0  0  0  0  0  0
  -26.0948  -37.7721   22.6017 C   0  0  0  0  0  0  0  0  0  0  0  0
  -27.3356  -35.4874   21.6083 C   0  0  0  0  0  0  0  0  0  0  0  0
  -26.6463  -28.7180   19.3688 C   0  0  0  0  0  0  0  0  0  0  0  0
  -21.9200   -9.4984   19.9938 C   0  0  0  0  0  0  0  0  0  0  0  0
  -23.0186   -8.6151   21.9560 C   0  0  0  0  0  0  0  0  0  0  0  0
  -27.0188  -27.4225   19.7248 C   0  0  0  0  0  0  0  0  0  0  0  0
  -19.8358   -8.0081   22.9161 C   0  0  0  0  0  0  0  0  0  0  0  0
  -19.2756   -7.6398   24.1392 C   0  0  0  0  0  0  0  0  0  0  0  0
  -25.1975  -27.3395   21.3045 C   0  0  0  0  0  0  0  0  0  0  0  0
  -27.8575  -21.1234   20.5419 C   0  0  0  0  0  0  0  0  0  0  0  0
  -28.7672  -22.0000   22.6012 C   0  0  0  0  0  0  0  0  0  0  0  0
  -20.2655   -5.4457   23.9319 C   0  0  0  0  0  0  0  0  0  0  0  0
  -23.7931  -10.6770   20.9631 C   0  0  0  0  0  0  0  0  0  0  0  0
  -24.5403  -13.0301   21.6051 C   0  0  0  0  0  0  0  0  0  0  0  0
  -25.6800  -36.5107   23.0572 C   0  0  0  0  0  0  0  0  0  0  0  0
  -25.5515  -29.3391   19.9867 C   0  0  0  0  0  0  0  0  0  0  0  0
  -26.3136  -35.3543   22.5635 C   0  0  0  0  0  0  0  0  0  0  0  0
  -24.8117  -28.6420   20.9526 C   0  0  0  0  0  0  0  0  0  0  0  0
  -28.4140  -20.9118   21.8032 C   0  0  0  0  0  0  0  0  0  0  0  0
  -27.6542  -22.4232   20.0784 C   0  0  0  0  0  0  0  0  0  0  0  0
  -28.5638  -23.2998   22.1377 C   0  0  0  0  0  0  0  0  0  0  0  0
  -28.0073  -23.5114   20.8763 C   0  0  0  0  0  0  0  0  0  0  0  0
  -22.0281   -8.5167   20.9788 C   0  0  0  0  0  0  0  0  0  0  0  0
  -26.2961  -26.7341   20.6949 C   0  0  0  0  0  0  0  0  0  0  0  0
  -20.6108   -7.0952   22.2007 C   0  0  0  0  0  0  0  0  0  0  0  0
  -19.4905   -6.3586   24.6471 C   0  0  0  0  0  0  0  0  0  0  0  0
  -20.8257   -5.8140   22.7087 C   0  0  0  0  0  0  0  0  0  0  0  0
  -24.7054  -11.7923   20.9552 C   0  0  0  0  0  0  0  0  0  0  0  0
  -25.6746  -13.7375   21.2894 C   0  0  0  0  0  0  0  0  0  0  0  0
  -23.4586  -13.4986   22.4211 C   0  0  0  0  0  0  0  0  0  0  0  0
  -25.1646  -31.9292   21.7882 C   0  0  0  0  0  0  0  0  0  0  0  0
  -22.0190  -31.2034   21.4713 C   0  0  0  0  0  0  0  0  0  0  0  0
  -19.6393  -28.8335   20.8649 C   0  0  0  0  0  0  0  0  0  0  0  0
  -31.2129  -14.0290   20.6672 C   0  0  0  0  0  0  0  0  0  0  0  0
  -24.6094  -36.4376   24.1170 C   0  0  0  0  0  0  0  0  0  0  0  0
  -25.1463  -30.7270   19.5723 C   0  0  0  0  0  0  0  0  0  0  0  0
  -23.6158  -29.2566   21.6314 C   0  0  0  0  0  0  0  0  0  0  0  0
  -23.9926  -35.0491   24.2649 C   0  0  0  0  0  0  0  0  0  0  0  0
  -29.3242  -12.7755   17.9217 C   0  0  0  0  0  0  0  0  0  0  0  0
  -25.0825  -33.9828   24.3097 C   0  0  0  0  0  0  0  0  0  0  0  0
  -27.9432  -12.5044   18.5212 C   0  0  0  0  0  0  0  0  0  0  0  0
  -30.4418  -12.4590   18.9131 C   0  0  0  0  0  0  0  0  0  0  0  0
  -28.9341  -12.8546   20.8221 C   0  0  0  0  0  0  0  0  0  0  0  0
  -25.8955  -33.9700   23.0096 C   0  0  1  0  0  0  0  0  0  0  0  0
  -24.3273  -31.4529   20.6352 C   0  0  1  0  0  0  0  0  0  0  0  0
  -27.7726  -13.2119   19.8790 C   0  0  2  0  0  0  0  0  0  0  0  0
  -27.0555  -22.6226   18.7243 C   0  0  0  0  0  0  0  0  0  0  0  0
  -28.9505  -24.4481   23.0117 C   0  0  0  0  0  0  0  0  0  0  0  0
  -17.1527  -28.5335   20.7096 C   0  0  0  0  0  0  0  0  0  0  0  0
  -21.8209  -31.2899   24.5149 C   0  0  0  0  0  0  0  0  0  0  0  0
  -19.6360  -30.0804   24.3375 C   0  0  0  0  0  0  0  0  0  0  0  0
  -19.8952  -32.3404   23.3138 C   0  0  0  0  0  0  0  0  0  0  0  0
  -19.8022  -27.9814   18.0353 C   0  0  0  0  0  0  0  0  0  0  0  0
  -28.6320  -19.5221   22.2985 C   0  0  0  0  0  0  0  0  0  0  0  0
  -27.7881  -24.9095   20.3777 C   0  0  0  0  0  0  0  0  0  1  0  0
  -30.0176  -18.9794   21.9171 C   0  0  0  0  0  0  0  0  0  0  0  0
  -30.2153  -17.5396   22.3957 C   0  0  0  0  0  0  0  0  0  0  0  0
  -31.6140  -17.0245   22.0438 C   0  0  0  0  0  0  0  0  0  0  0  0
  -31.8394  -15.5855   22.4960 C   0  0  0  0  0  0  0  0  0  0  0  0
  -21.0348  -30.3553   22.2401 C   0  0  1  0  0  0  0  0  0  0  0  0
  -18.4326  -28.8304   19.9438 C   0  0  2  0  0  0  0  0  0  0  0  0
  -20.6204  -31.0053   23.5904 C   0  0  0  0  0  0  0  0  0  0  0  0
  -25.8539  -11.7146   20.2778 N   0  0  0  0  0  0  0  0  0  0  0  0
  -26.4208  -12.9126   20.5002 N   0  0  0  0  0  0  0  0  0  0  0  0
  -23.2631  -30.6181   21.1964 N   0  0  0  0  0  0  0  0  0  0  0  0
  -30.2212  -13.1622   20.1791 N   0  0  0  0  0  0  0  0  0  0  0  0
  -26.0964  -14.9784   21.6127 N   0  0  0  0  0  0  0  0  0  0  0  0
  -22.3709  -12.6433   22.6442 N   0  0  0  0  0  0  0  0  0  0  0  0
  -25.1586  -33.3004   21.9593 N   0  0  0  0  0  0  0  0  0  0  0  0
  -19.9209  -30.0994   21.3334 N   0  0  0  0  0  0  0  0  0  0  0  0
  -30.9211  -14.6603   21.8702 N   0  0  0  0  0  0  0  0  0  0  0  0
  -18.5947  -27.7981   18.8812 N   0  3  0  0  0  0  0  0  0  0  0  0
  -23.4490  -14.6479   22.9237 O   0  0  0  0  0  0  0  0  0  0  0  0
  -25.7701  -31.1130   22.4730 O   0  0  0  0  0  0  0  0  0  0  0  0
  -21.6933  -32.3404   21.1212 O   0  0  0  0  0  0  0  0  0  0  0  0
  -20.2669  -27.8144   21.1440 O   0  0  0  0  0  0  0  0  0  0  0  0
  -32.2771  -14.2299   20.0722 O   0  0  0  0  0  0  0  0  0  0  0  0
  -21.1670   -7.4626   20.9869 O   0  0  0  0  0  0  0  0  0  0  0  0
  -26.6579  -25.4698   21.0448 O   0  0  0  0  0  0  0  0  0  1  0  0
  -18.9537   -6.0056   25.8225 F   0  0  0  0  0  0  0  0  0  0  0  0
  -21.5704   -4.9330   22.0266 F   0  0  0  0  0  0  0  0  0  0  0  0
  1  2  1  0  0  0  0
  1  5  2  0  0  0  0
  2  6  2  0  0  0  0
  3  8  2  0  0  0  0
  3 17  1  0  0  0  0
  4  9  1  0  0  0  0
  4 17  2  0  0  0  0
  5 19  1  0  0  0  0
  6 21  1  0  0  0  0
  7 10  2  0  0  0  0
  7 20  1  0  0  0  0
  8 27  1  0  0  0  0
  9 27  2  0  0  0  0
 10 28  1  0  0  0  0
 11 12  2  0  0  0  0
 11 29  1  0  0  0  0
 12 30  1  0  0  0  0
 13 22  1  0  0  0  0
 13 28  2  0  0  0  0
 14 23  1  0  0  0  0
 14 24  2  0  0  0  0
 15 23  2  0  0  0  0
 15 25  1  0  0  0  0
 16 30  2  0  0  0  0
 16 31  1  0  0  0  0
 17 32  1  0  0  0  0
 18 32  1  0  0  0  0
 18 33  2  0  0  0  0
 18 34  1  0  0  0  0
 19 21  2  0  0  0  0
 19 39  1  0  0  0  0
 20 22  2  0  0  0  0
 20 40  1  0  0  0  0
 21 48  1  0  0  0  0
 22 41  1  0  0  0  0
 23 58  1  0  0  0  0
 24 26  1  0  0  0  0
 24 51  1  0  0  0  0
 25 26  2  0  0  0  0
 25 52  1  0  0  0  0
 26 59  1  0  0  0  0
 27 82  1  0  0  0  0
 28 83  1  0  0  0  0
 29 31  2  0  0  0  0
 29 82  1  0  0  0  0
 30 84  1  0  0  0  0
 31 85  1  0  0  0  0
 32 67  2  0  0  0  0
 33 68  1  0  0  0  0
 33 71  1  0  0  0  0
 34 72  1  0  0  0  0
 34 77  2  0  0  0  0
 35 49  1  0  0  0  0
 35 73  1  0  0  0  0
 35 78  2  0  0  0  0
 36 64  1  0  0  0  0
 36 69  1  0  0  0  0
 36 79  2  0  0  0  0
 37 65  1  0  0  0  0
 37 74  1  0  0  0  0
 37 80  2  0  0  0  0
 38 70  1  0  0  0  0
 38 75  1  0  0  0  0
 38 81  2  0  0  0  0
 39 42  1  0  0  0  0
 40 49  1  0  0  0  0
 41 69  1  0  0  0  0
 42 44  1  0  0  0  0
 43 45  1  0  0  0  0
 43 46  1  0  0  0  0
 44 48  1  0  0  0  0
 45 50  1  0  0  0  0
 46 70  1  0  0  0  0
 47 50  1  0  0  0  0
 47 70  1  0  0  0  0
 48 73  1  0  0  0  0
 49 69  1  0  0  0  0
 50 68  1  0  0  0  0
 53 65  1  0  0  0  0
 54 66  1  0  0  0  0
 55 66  1  0  0  0  0
 56 66  1  0  0  0  0
 57 76  1  0  0  0  0
 58 60  1  0  0  0  0
 59 83  1  0  0  0  0
 60 61  1  0  0  0  0
 61 62  1  0  0  0  0
 62 63  1  0  0  0  0
 63 75  1  0  0  0  0
 64 66  1  0  0  0  0
 64 74  1  0  0  0  0
 65 76  1  0  0  0  0
 67 68  1  0  0  0  0
M  CHG  1  76   1
M  ISO  4  38 100  59 101  75 100  83 101
M  END
> <Batch ID>
0030

> <Smiles>
CNC(C)C(=O)NC(C(=O)N1Cc2cc([101O:1][101CH2:1]c3c(C)cc(CCCCC[100NH:0][100C:0](=O)N4CCCC(n5nc(-c6ccc(Oc7ccc(F)cc7F)cc6)c(C(N)=O)c5N)C4)cc3C)ccc2CC1C(=O)NC1CCCc2ccccc21)C(C)(C)C

> <Shape>
0.346

> <Color>
0.152

> <Negative vol penalty>
0.000

$$$$

  -OEChem-04052316393D

 83 91  0     1  0  0  0  0  0999 V2000
  -23.3972  -17.6667   22.2947 C   0  0  0  0  0  0  0  0  0  0  0  0
  -24.4590  -18.5096   21.9822 C   0  0  0  0  0  0  0  0  0  0  0  0
  -25.9642  -15.4688   20.8492 C   0  0  0  0  0  0  0  0  0  0  0  0
  -27.6084  -14.7636   19.2255 C   0  0  0  0  0  0  0  0  0  0  0  0
  -22.0890  -18.0652   22.0229 C   0  0  0  0  0  0  0  0  0  0  0  0
  -24.2133  -19.7511   21.3967 C   0  0  0  0  0  0  0  0  0  0  0  0
  -27.3525  -24.9319   22.2968 C   0  0  0  0  0  0  0  0  0  0  0  0
  -25.6259  -14.1364   21.0854 C   0  0  0  0  0  0  0  0  0  0  0  0
  -27.2701  -13.4311   19.4617 C   0  0  0  0  0  0  0  0  0  0  0  0
  -28.3602  -25.5574   21.5640 C   0  0  0  0  0  0  0  0  0  0  0  0
  -23.7763  -11.7341   19.5913 C   0  0  0  0  0  0  0  0  0  0  0  0
  -22.4207  -11.4123   19.6572 C   0  0  0  0  0  0  0  0  0  0  0  0
  -26.7089  -26.9570   20.4994 C   0  0  0  0  0  0  0  0  0  0  0  0
  -31.4635  -25.8468   18.4349 C   0  0  0  0  0  0  0  0  0  0  0  0
  -30.0573  -25.5266   16.4966 C   0  0  0  0  0  0  0  0  0  0  0  0
  -22.7199  -10.6153   21.9183 C   0  0  0  0  0  0  0  0  0  0  0  0
  -26.9554  -15.7824   19.9192 C   0  0  0  0  0  0  0  0  0  0  0  0
  -28.2869  -17.9175   20.3389 C   0  0  0  0  0  0  0  0  0  0  0  0
  -21.8266  -19.3163   21.4427 C   0  0  0  0  0  0  0  0  0  0  0  0
  -26.0120  -25.3074   22.1281 C   0  0  0  0  0  0  0  0  0  0  0  0
  -22.9005  -20.1661   21.1157 C   0  0  0  0  0  0  0  0  0  0  0  0
  -25.6864  -26.3365   21.2331 C   0  0  0  0  0  0  0  0  0  0  0  0
  -30.4886  -26.3223   17.5580 C   0  0  0  0  0  0  0  0  0  0  0  0
  -32.0073  -24.5755   18.2504 C   0  0  0  0  0  0  0  0  0  0  0  0
  -30.6010  -24.2553   16.3122 C   0  0  0  0  0  0  0  0  0  0  0  0
  -26.2789  -13.1175   20.3917 C   0  0  0  0  0  0  0  0  0  0  0  0
  -28.0382  -26.5681   20.6630 C   0  0  0  0  0  0  0  0  0  0  0  0
  -24.6038  -11.4964   20.6889 C   0  0  0  0  0  0  0  0  0  0  0  0
  -21.8925  -10.8529   20.8208 C   0  0  0  0  0  0  0  0  0  0  0  0
  -24.0755  -10.9371   21.8524 C   0  0  0  0  0  0  0  0  0  0  0  0
  -31.5760  -23.7798   17.1891 C   0  0  0  0  0  0  0  0  0  0  0  0
  -27.3049  -17.1586   19.6744 C   0  0  0  0  0  0  0  0  0  0  0  0
  -28.2283  -19.1530   19.7418 C   0  0  0  0  0  0  0  0  0  0  0  0
  -29.1728  -17.5394   21.4009 C   0  0  0  0  0  0  0  0  0  0  0  0
  -23.3757  -23.8303   21.1423 C   0  0  0  0  0  0  0  0  0  0  0  0
  -21.9554  -26.6083   22.0298 C   0  0  0  0  0  0  0  0  0  0  0  0
  -22.2541  -29.9574   22.6138 C   0  0  0  0  0  0  0  0  0  0  0  0
  -27.8838  -22.3387   15.1725 C   0  0  0  0  0  0  0  0  0  0  0  0
  -20.3989  -19.6836   21.1241 C   0  0  0  0  0  0  0  0  0  0  0  0
  -24.9396  -24.6413   22.9458 C   0  0  0  0  0  0  0  0  0  0  0  0
  -24.2647  -26.7906   21.0302 C   0  0  0  0  0  0  0  0  0  0  0  0
  -20.2002  -21.1714   20.8463 C   0  0  0  0  0  0  0  0  0  0  0  0
  -24.8358  -21.1032   16.5365 C   0  0  0  0  0  0  0  0  0  0  0  0
  -21.2743  -21.6845   19.8926 C   0  0  0  0  0  0  0  0  0  0  0  0
  -25.2872  -20.0257   17.5240 C   0  0  0  0  0  0  0  0  0  0  0  0
  -25.7216  -21.1358   15.2929 C   0  0  0  0  0  0  0  0  0  0  0  0
  -27.6168  -20.1886   16.5518 C   0  0  0  0  0  0  0  0  0  0  0  0
  -22.6728  -21.5308   20.5026 C   0  0  1  0  0  0  0  0  0  0  0  0
  -23.5541  -24.7505   22.3167 C   0  0  1  0  0  0  0  0  0  0  0  0
  -26.7879  -20.1546   17.8473 C   0  0  2  0  0  0  0  0  0  0  0  0
  -32.4924  -23.1153   20.2301 C   0  0  0  0  0  0  0  0  0  0  0  0
  -20.9114  -31.9664   23.2908 C   0  0  0  0  0  0  0  0  0  0  0  0
  -20.7369  -26.7326   19.2352 C   0  0  0  0  0  0  0  0  0  0  0  0
  -20.2198  -29.1480   19.6440 C   0  0  0  0  0  0  0  0  0  0  0  0
  -19.1834  -27.3919   21.0809 C   0  0  0  0  0  0  0  0  0  0  0  0
  -23.9025  -30.3880   25.0338 C   0  0  0  0  0  0  0  0  0  0  0  0
  -29.9002  -27.6979   17.7577 C   0  0  0  0  0  0  0  0  0  0  0  0
  -33.0497  -24.1074   19.2145 C   0  0  0  0  0  0  0  0  0  0  0  0
  -30.1089  -23.4377   15.1613 C   0  0  0  0  0  0  0  0  0  0  0  0
  -28.6679  -27.6767   18.6554 C   0  0  0  0  0  0  0  0  0  1  0  0
  -21.6428  -27.9161   21.3435 C   0  0  1  0  0  0  0  0  0  0  0  0
  -21.7914  -30.8232   23.7717 C   0  0  2  0  0  0  0  0  0  0  0  0
  -20.4724  -27.7875   20.3281 C   0  0  0  0  0  0  0  0  0  0  0  0
  -26.6689  -17.8540   18.7277 N   0  0  0  0  0  0  0  0  0  0  0  0
  -27.2526  -19.0627   18.7931 N   0  0  0  0  0  0  0  0  0  0  0  0
  -23.2511  -26.1043   21.8482 N   0  0  0  0  0  0  0  0  0  0  0  0
  -27.1320  -21.2608   15.6686 N   0  0  0  0  0  0  0  0  0  0  0  0
  -28.9168  -20.2971   19.9410 N   0  0  0  0  0  0  0  0  0  0  0  0
  -29.1005  -16.2307   21.8973 N   0  0  0  0  0  0  0  0  0  0  0  0
  -22.9156  -22.5715   21.4786 N   0  0  0  0  0  0  0  0  0  0  0  0
  -21.4083  -28.8885   22.4055 N   0  0  0  0  0  0  0  0  0  0  0  0
  -29.2105  -22.3859   15.5826 N   0  0  0  0  0  0  0  0  0  0  0  0
  -22.9640  -31.4015   24.4869 N   0  3  0  0  0  0  0  0  0  0  0  0
  -29.9925  -18.3432   21.9062 O   0  0  0  0  0  0  0  0  0  0  0  0
  -23.6349  -24.2331   20.0143 O   0  0  0  0  0  0  0  0  0  0  0  0
  -21.0844  -26.0579   22.7081 O   0  0  0  0  0  0  0  0  0  0  0  0
  -23.2627  -30.2067   21.9572 O   0  0  0  0  0  0  0  0  0  0  0  0
  -27.4064  -23.1983   14.4241 O   0  0  0  0  0  0  0  0  0  0  0  0
  -25.9492  -11.8172   20.6221 O   0  0  0  0  0  0  0  0  0  0  0  0
  -29.0198  -27.1798   19.9459 O   0  0  0  0  0  0  0  0  0  1  0  0
  -20.5903  -10.5454   20.8845 F   0  0  0  0  0  0  0  0  0  0  0  0
  -24.8652  -10.7076   22.9104 F   0  0  0  0  0  0  0  0  0  0  0  0
  -32.2512  -22.2016   16.9600 Cl  0  0  0  0  0  0  0  0  0  0  0  0
  1  2  1  0  0  0  0
  1  5  2  0  0  0  0
  2  6  2  0  0  0  0
  3  8  2  0  0  0  0
  3 17  1  0  0  0  0
  4  9  1  0  0  0  0
  4 17  2  0  0  0  0
  5 19  1  0  0  0  0
  6 21  1  0  0  0  0
  7 10  2  0  0  0  0
  7 20  1  0  0  0  0
  8 26  1  0  0  0  0
  9 26  2  0  0  0  0
 10 27  1  0  0  0  0
 11 12  2  0  0  0  0
 11 28  1  0  0  0  0
 12 29  1  0  0  0  0
 13 22  1  0  0  0  0
 13 27  2  0  0  0  0
 14 23  2  0  0  0  0
 14 24  1  0  0  0  0
 15 23  1  0  0  0  0
 15 25  2  0  0  0  0
 16 29  2  0  0  0  0
 16 30  1  0  0  0  0
 17 32  1  0  0  0  0
 18 32  1  0  0  0  0
 18 33  2  0  0  0  0
 18 34  1  0  0  0  0
 19 21  2  0  0  0  0
 19 39  1  0  0  0  0
 20 22  2  0  0  0  0
 20 40  1  0  0  0  0
 21 48  1  0  0  0  0
 22 41  1  0  0  0  0
 23 57  1  0  0  0  0
 24 31  2  0  0  0  0
 24 58  1  0  0  0  0
 25 31  1  0  0  0  0
 25 59  1  0  0  0  0
 26 79  1  0  0  0  0
 27 80  1  0  0  0  0
 28 30  2  0  0  0  0
 28 79  1  0  0  0  0
 29 81  1  0  0  0  0
 30 82  1  0  0  0  0
 31 83  1  0  0  0  0
 32 64  2  0  0  0  0
 33 65  1  0  0  0  0
 33 68  1  0  0  0  0
 34 69  1  0  0  0  0
 34 74  2  0  0  0  0
 35 49  1  0  0  0  0
 35 70  1  0  0  0  0
 35 75  2  0  0  0  0
 36 61  1  0  0  0  0
 36 66  1  0  0  0  0
 36 76  2  0  0  0  0
 37 62  1  0  0  0  0
 37 71  1  0  0  0  0
 37 77  2  0  0  0  0
 38 67  1  0  0  0  0
 38 72  1  0  0  0  0
 38 78  2  0  0  0  0
 39 42  1  0  0  0  0
 40 49  1  0  0  0  0
 41 66  1  0  0  0  0
 42 44  1  0  0  0  0
 43 45  1  0  0  0  0
 43 46  1  0  0  0  0
 44 48  1  0  0  0  0
 45 50  1  0  0  0  0
 46 67  1  0  0  0  0
 47 50  1  0  0  0  0
 47 67  1  0  0  0  0
 48 70  1  0  0  0  0
 49 66  1  0  0  0  0
 50 65  1  0  0  0  0
 51 58  1  0  0  0  0
 52 62  1  0  0  0  0
 53 63  1  0  0  0  0
 54 63  1  0  0  0  0
 55 63  1  0  0  0  0
 56 73  1  0  0  0  0
 57 60  1  0  0  0  0
 59 72  1  0  0  0  0
 60 80  1  0  0  0  0
 61 63  1  0  0  0  0
 61 71  1  0  0  0  0
 62 73  1  0  0  0  0
 64 65  1  0  0  0  0
M  CHG  1  73   1
M  ISO  4  38 100  60 101  72 100  80 101
M  END
> <Batch ID>
0030

> <Smiles>
CCc1cc(C[101CH2:1][101O:1]c2ccc3c(c2)CN(C(=O)C(NC(=O)C(C)NC)C(C)(C)C)C(C(=O)NC2CCCc4ccccc42)C3)cc(C[100NH:0][100C:0](=O)N2CCCC(n3nc(-c4ccc(Oc5ccc(F)cc5F)cc4)c(C(N)=O)c3N)C2)c1Cl

> <Shape>
0.193

> <Color>
0.062

> <Negative vol penalty>
0.000

$$$$

  -OEChem-04052316393D

 81 89  0     1  0  0  0  0  0999 V2000
  -31.1752  -35.0192   19.2826 C   0  0  0  0  0  0  0  0  0  0  0  0
  -31.2102  -33.6502   19.0377 C   0  0  0  0  0  0  0  0  0  0  0  0
  -23.8885   -9.4873   20.3176 C   0  0  0  0  0  0  0  0  0  0  0  0
  -24.2506  -10.0544   22.6380 C   0  0  0  0  0  0  0  0  0  0  0  0
  -30.4290  -35.5162   20.3504 C   0  0  0  0  0  0  0  0  0  0  0  0
  -30.5000  -32.7773   19.8611 C   0  0  0  0  0  0  0  0  0  0  0  0
  -27.7139  -27.5860   18.1894 C   0  0  0  0  0  0  0  0  0  0  0  0
  -23.4131   -8.2324   20.6984 C   0  0  0  0  0  0  0  0  0  0  0  0
  -23.7752   -8.7995   23.0189 C   0  0  0  0  0  0  0  0  0  0  0  0
  -28.0987  -26.2482   18.2665 C   0  0  0  0  0  0  0  0  0  0  0  0
  -20.7794   -7.2812   23.3934 C   0  0  0  0  0  0  0  0  0  0  0  0
  -19.8782   -7.2266   24.4566 C   0  0  0  0  0  0  0  0  0  0  0  0
  -26.8790  -26.0228   20.3355 C   0  0  0  0  0  0  0  0  0  0  0  0
  -21.4152   -5.8267   25.6875 C   0  0  0  0  0  0  0  0  0  0  0  0
  -30.1723  -19.2920   21.5107 C   0  0  0  0  0  0  0  0  0  0  0  0
  -24.3073  -10.3982   21.2874 C   0  0  0  0  0  0  0  0  0  0  0  0
  -24.0477  -12.8727   20.7241 C   0  0  0  0  0  0  0  0  0  0  0  0
  -29.7016  -34.6499   21.1815 C   0  0  0  0  0  0  0  0  0  0  0  0
  -26.9165  -28.1562   19.1922 C   0  0  0  0  0  0  0  0  0  0  0  0
  -29.7446  -33.2631   20.9418 C   0  0  0  0  0  0  0  0  0  0  0  0
  -26.4834  -27.3674   20.2675 C   0  0  0  0  0  0  0  0  0  0  0  0
  -29.0684  -18.5105   21.7496 C   0  0  0  0  0  0  0  0  0  0  0  0
  -23.3565   -7.8886   22.0490 C   0  0  0  0  0  0  0  0  0  0  0  0
  -27.6836  -25.4671   19.3411 C   0  0  0  0  0  0  0  0  0  0  0  0
  -21.9985   -6.6085   23.4772 C   0  0  0  0  0  0  0  0  0  0  0  0
  -20.1961   -6.4994   25.6037 C   0  0  0  0  0  0  0  0  0  0  0  0
  -22.3164   -5.8812   24.6242 C   0  0  0  0  0  0  0  0  0  0  0  0
  -24.7990  -11.6944   20.8946 C   0  0  0  0  0  0  0  0  0  0  0  0
  -28.1216  -19.3969   22.2972 C   0  0  0  0  0  0  0  0  0  0  0  0
  -24.9715  -13.8177   20.3498 C   0  0  0  0  0  0  0  0  0  0  0  0
  -22.6407  -13.0933   20.8893 C   0  0  0  0  0  0  0  0  0  0  0  0
  -27.2918  -30.5208   21.2830 C   0  0  0  0  0  0  0  0  0  0  0  0
  -24.1717  -29.9182   21.9343 C   0  0  0  0  0  0  0  0  0  0  0  0
  -21.5791  -27.6992   21.8911 C   0  0  0  0  0  0  0  0  0  0  0  0
  -29.9278  -16.2855   20.9390 C   0  0  0  0  0  0  0  0  0  0  0  0
  -28.9476  -35.2296   22.3520 C   0  0  0  0  0  0  0  0  0  0  0  0
  -26.4879  -29.5937   19.0807 C   0  0  0  0  0  0  0  0  0  0  0  0
  -25.6097  -27.9264   21.3596 C   0  0  0  0  0  0  0  0  0  0  0  0
  -27.9216  -34.2709   22.9508 C   0  0  0  0  0  0  0  0  0  0  0  0
  -29.8158  -13.3225   18.9679 C   0  0  0  0  0  0  0  0  0  0  0  0
  -28.5321  -32.8859   23.1404 C   0  0  0  0  0  0  0  0  0  0  0  0
  -28.4388  -12.7317   19.2794 C   0  0  0  0  0  0  0  0  0  0  0  0
  -30.4465  -13.9707   20.1991 C   0  0  0  0  0  0  0  0  0  0  0  0
  -28.2271  -14.3724   21.1900 C   0  0  0  0  0  0  0  0  0  0  0  0
  -28.9675  -32.2865   21.7978 C   0  0  1  0  0  0  0  0  0  0  0  0
  -26.1005  -30.2074   20.4225 C   0  0  1  0  0  0  0  0  0  0  0  0
  -27.5240  -13.7656   19.9649 C   0  0  2  0  0  0  0  0  0  0  0  0
  -19.1605  -27.4831   22.5241 C   0  0  0  0  0  0  0  0  0  0  0  0
  -24.9663  -29.6444   24.8674 C   0  0  0  0  0  0  0  0  0  0  0  0
  -22.7685  -28.5207   25.2858 C   0  0  0  0  0  0  0  0  0  0  0  0
  -22.8271  -30.8797   24.4771 C   0  0  0  0  0  0  0  0  0  0  0  0
  -20.7717  -27.1884   19.0900 C   0  0  0  0  0  0  0  0  0  0  0  0
  -30.0956  -22.9397   21.0703 C   0  0  0  0  0  0  0  0  0  0  0  0
  -29.8894  -22.6192   19.5890 C   0  0  0  0  0  0  0  0  0  0  0  0
  -30.7096  -21.7755   21.8562 C   0  0  0  0  0  0  0  0  0  0  0  0
  -29.3116  -23.8091   18.8346 C   0  0  0  0  0  0  0  0  0  1  0  0
  -23.4348  -29.0093   22.8882 C   0  0  1  0  0  0  0  0  0  0  0  0
  -20.1431  -27.8371   21.4187 C   0  0  2  0  0  0  0  0  0  0  0  0
  -23.5173  -29.5032   24.3602 C   0  0  0  0  0  0  0  0  0  0  0  0
  -26.0997  -11.8721   20.6487 N   0  0  0  0  0  0  0  0  0  0  0  0
  -28.5838  -20.6458   22.4003 N   0  0  0  0  0  0  0  0  0  0  0  0
  -29.8331  -20.5498   21.9143 N   0  0  0  0  0  0  0  0  0  0  0  0
  -26.1730  -13.1730   20.3197 N   0  0  0  0  0  0  0  0  0  0  0  0
  -25.2224  -29.3387   21.2090 N   0  0  0  0  0  0  0  0  0  0  0  0
  -29.5245  -14.9414   20.7928 N   0  0  0  0  0  0  0  0  0  0  0  0
  -24.8651  -15.1289   20.0467 N   0  0  0  0  0  0  0  0  0  0  0  0
  -21.8362  -12.0134   21.2780 N   0  0  0  0  0  0  0  0  0  0  0  0
  -28.9559  -17.1229   21.4856 N   0  0  0  0  0  0  0  0  0  0  0  0
  -27.8207  -31.7802   21.0746 N   0  0  0  0  0  0  0  0  0  0  0  0
  -22.0751  -28.8923   22.3725 N   0  0  0  0  0  0  0  0  0  0  0  0
  -19.8905  -26.9358   20.2590 N   0  3  0  0  0  0  0  0  0  0  0  0
  -22.1100  -14.2108   20.6820 O   0  0  0  0  0  0  0  0  0  0  0  0
  -27.6999  -29.6825   22.0783 O   0  0  0  0  0  0  0  0  0  0  0  0
  -23.8230  -31.0969   21.8310 O   0  0  0  0  0  0  0  0  0  0  0  0
  -22.1977  -26.6384   21.8416 O   0  0  0  0  0  0  0  0  0  0  0  0
  -31.0429  -16.6713   20.5788 O   0  0  0  0  0  0  0  0  0  0  0  0
  -22.8924   -6.6643   22.4210 O   0  0  0  0  0  0  0  0  0  0  0  0
  -28.0582  -24.1612   19.4190 O   0  0  0  0  0  0  0  0  0  1  0  0
  -19.3313   -6.4483   26.6253 F   0  0  0  0  0  0  0  0  0  0  0  0
  -23.4865   -5.2339   24.7109 F   0  0  0  0  0  0  0  0  0  0  0  0
  -26.5468  -19.0119   22.7980 Cl  0  0  0  0  0  0  0  0  0  0  0  0
  1  2  1  0  0  0  0
  1  5  2  0  0  0  0
  2  6  2  0  0  0  0
  3  8  2  0  0  0  0
  3 16  1  0  0  0  0
  4  9  1  0  0  0  0
  4 16  2  0  0  0  0
  5 18  1  0  0  0  0
  6 20  1  0  0  0  0
  7 10  2  0  0  0  0
  7 19  1  0  0  0  0
  8 23  1  0  0  0  0
  9 23  2  0  0  0  0
 10 24  1  0  0  0  0
 11 12  2  0  0  0  0
 11 25  1  0  0  0  0
 12 26  1  0  0  0  0
 13 21  1  0  0  0  0
 13 24  2  0  0  0  0
 14 26  2  0  0  0  0
 14 27  1  0  0  0  0
 15 22  2  0  0  0  0
 15 62  1  0  0  0  0
 16 28  1  0  0  0  0
 17 28  1  0  0  0  0
 17 30  2  0  0  0  0
 17 31  1  0  0  0  0
 18 20  2  0  0  0  0
 18 36  1  0  0  0  0
 19 21  2  0  0  0  0
 19 37  1  0  0  0  0
 20 45  1  0  0  0  0
 21 38  1  0  0  0  0
 22 29  1  0  0  0  0
 22 68  1  0  0  0  0
 23 77  1  0  0  0  0
 24 78  1  0  0  0  0
 25 27  2  0  0  0  0
 25 77  1  0  0  0  0
 26 79  1  0  0  0  0
 27 80  1  0  0  0  0
 28 60  2  0  0  0  0
 29 61  2  0  0  0  0
 29 81  1  0  0  0  0
 30 63  1  0  0  0  0
 30 66  1  0  0  0  0
 31 67  1  0  0  0  0
 31 72  2  0  0  0  0
 32 46  1  0  0  0  0
 32 69  1  0  0  0  0
 32 73  2  0  0  0  0
 33 57  1  0  0  0  0
 33 64  1  0  0  0  0
 33 74  2  0  0  0  0
 34 58  1  0  0  0  0
 34 70  1  0  0  0  0
 34 75  2  0  0  0  0
 35 65  1  0  0  0  0
 35 68  1  0  0  0  0
 35 76  2  0  0  0  0
 36 39  1  0  0  0  0
 37 46  1  0  0  0  0
 38 64  1  0  0  0  0
 39 41  1  0  0  0  0
 40 42  1  0  0  0  0
 40 43  1  0  0  0  0
 41 45  1  0  0  0  0
 42 47  1  0  0  0  0
 43 65  1  0  0  0  0
 44 47  1  0  0  0  0
 44 65  1  0  0  0  0
 45 69  1  0  0  0  0
 46 64  1  0  0  0  0
 47 63  1  0  0  0  0
 48 58  1  0  0  0  0
 49 59  1  0  0  0  0
 50 59  1  0  0  0  0
 51 59  1  0  0  0  0
 52 71  1  0  0  0  0
 53 54  1  0  0  0  0
 53 55  1  0  0  0  0
 54 56  1  0  0  0  0
 55 62  1  0  0  0  0
 56 78  1  0  0  0  0
 57 59  1  0  0  0  0
 57 70  1  0  0  0  0
 58 71  1  0  0  0  0
 60 63  1  0  0  0  0
 61 62  1  0  0  0  0
M  CHG  1  71   1
M  ISO  4  35 100  56 101  68 100  78 101
M  END
> <Batch ID>
0030

> <Smiles>
CNC(C)C(=O)NC(C(=O)N1Cc2cc([101O:1][101CH2:1]CCCn3cc([100NH:0][100C:0](=O)N4CCCC(n5nc(-c6ccc(Oc7ccc(F)cc7F)cc6)c(C(N)=O)c5N)C4)c(Cl)n3)ccc2CC1C(=O)NC1CCCc2ccccc21)C(C)(C)C

> <Shape>
0.312

> <Color>
0.140

> <Negative vol penalty>
0.000

$$$$

  -OEChem-04052316393D

 91100  0     1  0  0  0  0  0999 V2000
  -16.5207  -28.8872   23.3962 C   0  0  0  0  0  0  0  0  0  0  0  0
  -17.1586  -29.1350   22.1849 C   0  0  0  0  0  0  0  0  0  0  0  0
  -24.7867  -16.4021   22.4750 C   0  0  0  0  0  0  0  0  0  0  0  0
  -26.2765  -17.5150   20.9327 C   0  0  0  0  0  0  0  0  0  0  0  0
  -17.0989  -29.3207   24.5886 C   0  0  0  0  0  0  0  0  0  0  0  0
  -18.3744  -29.8174   22.1653 C   0  0  0  0  0  0  0  0  0  0  0  0
  -25.2579  -27.6861   19.1484 C   0  0  0  0  0  0  0  0  0  0  0  0
  -24.7067  -17.5668   23.2383 C   0  0  0  0  0  0  0  0  0  0  0  0
  -26.1965  -18.6798   21.6959 C   0  0  0  0  0  0  0  0  0  0  0  0
  -26.5653  -27.3533   18.7933 C   0  0  0  0  0  0  0  0  0  0  0  0
  -27.5378  -19.8800   24.5580 C   0  0  0  0  0  0  0  0  0  0  0  0
  -28.7251  -20.5598   24.8293 C   0  0  0  0  0  0  0  0  0  0  0  0
  -27.4185  -28.8418   20.4975 C   0  0  0  0  0  0  0  0  0  0  0  0
  -32.8261  -18.3134   17.9671 C   0  0  0  0  0  0  0  0  0  0  0  0
  -27.8610  -22.5170   23.7069 C   0  0  0  0  0  0  0  0  0  0  0  0
  -25.5717  -16.3762   21.3223 C   0  0  0  0  0  0  0  0  0  0  0  0
  -24.5954  -14.4965   19.9004 C   0  0  0  0  0  0  0  0  0  0  0  0
  -18.3272  -30.0003   24.5844 C   0  0  0  0  0  0  0  0  0  0  0  0
  -25.0254  -28.5874   20.1910 C   0  0  0  0  0  0  0  0  0  0  0  0
  -18.9689  -30.2616   23.3586 C   0  0  0  0  0  0  0  0  0  0  0  0
  -26.1110  -29.1695   20.8660 C   0  0  0  0  0  0  0  0  0  0  0  0
  -33.0864  -18.1571   16.6102 C   0  0  0  0  0  0  0  0  0  0  0  0
  -25.4116  -18.7057   22.8487 C   0  0  0  0  0  0  0  0  0  0  0  0
  -27.6429  -27.9299   19.4660 C   0  0  0  0  0  0  0  0  0  0  0  0
  -26.5121  -20.5186   23.8610 C   0  0  0  0  0  0  0  0  0  0  0  0
  -28.8867  -21.8783   24.4038 C   0  0  0  0  0  0  0  0  0  0  0  0
  -26.6737  -21.8371   23.4355 C   0  0  0  0  0  0  0  0  0  0  0  0
  -32.5564  -19.5788   18.4764 C   0  0  0  0  0  0  0  0  0  0  0  0
  -25.6551  -15.1731   20.5337 C   0  0  0  0  0  0  0  0  0  0  0  0
  -32.5588  -20.6470   17.5940 C   0  0  0  0  0  0  0  0  0  0  0  0
  -33.0649  -19.2890   15.8114 C   0  0  0  0  0  0  0  0  0  0  0  0
  -25.1921  -13.4228   19.2860 C   0  0  0  0  0  0  0  0  0  0  0  0
  -23.1968  -14.8107   19.8701 C   0  0  0  0  0  0  0  0  0  0  0  0
  -22.5029  -30.4063   22.2897 C   0  0  0  0  0  0  0  0  0  0  0  0
  -24.7520  -29.5124   24.1747 C   0  0  0  0  0  0  0  0  0  0  0  0
  -26.7425  -27.6700   25.7704 C   0  0  0  0  0  0  0  0  0  0  0  0
  -30.7616  -12.4216   17.3291 C   0  0  0  0  0  0  0  0  0  0  0  0
  -18.8899  -30.4910   25.8948 C   0  0  0  0  0  0  0  0  0  0  0  0
  -23.6347  -29.0218   20.5666 C   0  0  0  0  0  0  0  0  0  0  0  0
  -25.8135  -30.1604   21.9580 C   0  0  0  0  0  0  0  0  0  0  0  0
  -20.3645  -30.8780   25.8177 C   0  0  0  0  0  0  0  0  0  0  0  0
  -28.9437  -10.4822   19.6977 C   0  0  0  0  0  0  0  0  0  0  0  0
  -20.6264  -31.7409   24.5874 C   0  0  0  0  0  0  0  0  0  0  0  0
  -30.9234  -24.7164   17.7785 C   0  0  0  0  0  0  0  0  0  0  0  0
  -29.0133  -23.8312   19.1800 C   0  0  0  0  0  0  0  0  0  0  0  0
  -27.7991  -11.4034   20.1234 C   0  0  0  0  0  0  0  0  0  0  0  0
  -30.5998  -26.1342   18.2397 C   0  0  0  0  0  0  0  0  0  0  0  0
  -28.6946  -25.2516   19.6368 C   0  0  0  0  0  0  0  0  0  0  0  0
  -30.2341  -11.2613   19.4532 C   0  0  0  0  0  0  0  0  0  0  0  0
  -28.9637  -13.3085   18.9346 C   0  0  0  0  0  0  0  0  0  0  0  0
  -20.3011  -30.9769   23.2983 C   0  0  1  0  0  0  0  0  0  0  0  0
  -23.4697  -29.2789   22.0752 C   0  0  1  0  0  0  0  0  0  0  0  0
  -30.4970  -23.6722   18.8198 C   0  0  0  0  0  0  0  0  0  0  0  0
  -27.6267  -12.5755   19.1386 C   0  0  2  0  0  0  0  0  0  0  0  0
  -29.1245  -26.2874   18.6001 C   0  0  0  0  0  0  0  0  0  1  0  0
  -28.1490  -27.0589   27.7568 C   0  0  0  0  0  0  0  0  0  0  0  0
  -25.9112  -32.3326   24.0942 C   0  0  0  0  0  0  0  0  0  0  0  0
  -27.4685  -31.6687   25.9387 C   0  0  0  0  0  0  0  0  0  0  0  0
  -25.0033  -31.6406   26.3193 C   0  0  0  0  0  0  0  0  0  0  0  0
  -25.2922  -25.1196   26.1587 C   0  0  0  0  0  0  0  0  0  0  0  0
  -33.3750  -16.7991   16.0686 C   0  0  0  0  0  0  0  0  0  0  0  0
  -32.2745  -22.0479   18.0740 C   0  0  0  0  0  0  0  0  0  0  0  0
  -30.7807  -22.2591   18.3140 C   0  0  0  0  0  0  0  0  0  0  0  0
  -32.1017  -15.9530   15.9081 C   0  0  0  0  0  0  0  0  0  0  0  0
  -32.4159  -14.5476   15.3867 C   0  0  0  0  0  0  0  0  0  0  0  0
  -31.1665  -13.6864   15.2325 C   0  0  0  0  0  0  0  0  0  0  0  0
  -26.0512  -29.8684   24.8519 C   0  0  1  0  0  0  0  0  0  0  0  0
  -26.8031  -26.8876   27.0698 C   0  0  2  0  0  0  0  0  0  0  0  0
  -26.1080  -31.3630   25.2766 C   0  0  0  0  0  0  0  0  0  0  0  0
  -26.8355  -14.5789   20.3397 N   0  0  0  0  0  0  0  0  0  0  0  0
  -32.8070  -20.5344   16.2699 N   0  0  0  0  0  0  0  0  0  0  0  0
  -26.5210  -13.5175   19.5776 N   0  0  0  0  0  0  0  0  0  0  0  0
  -24.6973  -29.6763   22.7852 N   0  0  0  0  0  0  0  0  0  0  0  0
  -30.0026  -12.3574   18.5093 N   0  0  0  0  0  0  0  0  0  0  0  0
  -24.7043  -12.4161   18.5303 N   0  0  0  0  0  0  0  0  0  0  0  0
  -22.7191  -15.6341   18.8415 N   0  0  0  0  0  0  0  0  0  0  0  0
  -21.3623  -30.0454   22.9813 N   0  0  0  0  0  0  0  0  0  0  0  0
  -26.2075  -28.9272   25.9557 N   0  0  0  0  0  0  0  0  0  0  0  0
  -30.4744  -13.4886   16.4866 N   0  0  0  0  0  0  0  0  0  0  0  0
  -26.5891  -25.4357   26.8107 N   0  3  0  0  0  0  0  0  0  0  0  0
  -22.3973  -14.3875   20.7392 O   0  0  0  0  0  0  0  0  0  0  0  0
  -22.7716  -31.5224   21.8611 O   0  0  0  0  0  0  0  0  0  0  0  0
  -23.8078  -29.1052   24.8573 O   0  0  0  0  0  0  0  0  0  0  0  0
  -27.1344  -27.2131   24.6988 O   0  0  0  0  0  0  0  0  0  0  0  0
  -31.6270  -11.5867   17.0445 O   0  0  0  0  0  0  0  0  0  0  0  0
  -25.3336  -19.8425   23.5931 O   0  0  0  0  0  0  0  0  0  0  0  0
  -28.9166  -27.5971   19.1173 O   0  0  0  0  0  0  0  0  0  1  0  0
  -30.0264  -22.5315   24.6658 F   0  0  0  0  0  0  0  0  0  0  0  0
  -25.6913  -22.4562   22.7666 F   0  0  0  0  0  0  0  0  0  0  0  0
  -32.2346  -19.7692   20.1556 Cl  0  0  0  0  0  0  0  0  0  0  0  0
  -33.3703  -19.2251   14.1199 Cl  0  0  0  0  0  0  0  0  0  0  0  0
  1  2  1  0  0  0  0
  1  5  2  0  0  0  0
  2  6  2  0  0  0  0
  3  8  2  0  0  0  0
  3 16  1  0  0  0  0
  4  9  1  0  0  0  0
  4 16  2  0  0  0  0
  5 18  1  0  0  0  0
  6 20  1  0  0  0  0
  7 10  2  0  0  0  0
  7 19  1  0  0  0  0
  8 23  1  0  0  0  0
  9 23  2  0  0  0  0
 10 24  1  0  0  0  0
 11 12  2  0  0  0  0
 11 25  1  0  0  0  0
 12 26  1  0  0  0  0
 13 21  1  0  0  0  0
 13 24  2  0  0  0  0
 14 22  2  0  0  0  0
 14 28  1  0  0  0  0
 15 26  2  0  0  0  0
 15 27  1  0  0  0  0
 16 29  1  0  0  0  0
 17 29  1  0  0  0  0
 17 32  2  0  0  0  0
 17 33  1  0  0  0  0
 18 20  2  0  0  0  0
 18 38  1  0  0  0  0
 19 21  2  0  0  0  0
 19 39  1  0  0  0  0
 20 51  1  0  0  0  0
 21 40  1  0  0  0  0
 22 31  1  0  0  0  0
 22 61  1  0  0  0  0
 23 86  1  0  0  0  0
 24 87  1  0  0  0  0
 25 27  2  0  0  0  0
 25 86  1  0  0  0  0
 26 88  1  0  0  0  0
 27 89  1  0  0  0  0
 28 30  2  0  0  0  0
 28 90  1  0  0  0  0
 29 70  2  0  0  0  0
 30 62  1  0  0  0  0
 30 71  1  0  0  0  0
 31 71  2  0  0  0  0
 31 91  1  0  0  0  0
 32 72  1  0  0  0  0
 32 75  1  0  0  0  0
 33 76  1  0  0  0  0
 33 81  2  0  0  0  0
 34 52  1  0  0  0  0
 34 77  1  0  0  0  0
 34 82  2  0  0  0  0
 35 67  1  0  0  0  0
 35 73  1  0  0  0  0
 35 83  2  0  0  0  0
 36 68  1  0  0  0  0
 36 78  1  0  0  0  0
 36 84  2  0  0  0  0
 37 74  1  0  0  0  0
 37 79  1  0  0  0  0
 37 85  2  0  0  0  0
 38 41  1  0  0  0  0
 39 52  1  0  0  0  0
 40 73  1  0  0  0  0
 41 43  1  0  0  0  0
 42 46  1  0  0  0  0
 42 49  1  0  0  0  0
 43 51  1  0  0  0  0
 44 47  1  0  0  0  0
 44 53  1  0  0  0  0
 45 48  1  0  0  0  0
 45 53  1  0  0  0  0
 46 54  1  0  0  0  0
 47 55  1  0  0  0  0
 48 55  1  0  0  0  0
 49 74  1  0  0  0  0
 50 54  1  0  0  0  0
 50 74  1  0  0  0  0
 51 77  1  0  0  0  0
 52 73  1  0  0  0  0
 53 63  1  0  0  0  0
 54 72  1  0  0  0  0
 55 87  1  0  0  0  0
 56 68  1  0  0  0  0
 57 69  1  0  0  0  0
 58 69  1  0  0  0  0
 59 69  1  0  0  0  0
 60 80  1  0  0  0  0
 61 64  1  0  0  0  0
 62 63  1  0  0  0  0
 64 65  1  0  0  0  0
 65 66  1  0  0  0  0
 66 79  1  0  0  0  0
 67 69  1  0  0  0  0
 67 78  1  0  0  0  0
 68 80  1  0  0  0  0
 70 72  1  0  0  0  0
M  CHG  1  80   1
M  ISO  4  37 100  55 101  79 100  87 101
M  END
> <Batch ID>
0030

> <Smiles>
CNC(C)C(=O)NC(C(=O)N1Cc2cc([101O:1][101CH:1]3CCC(CCc4nc(Cl)c(CCCC[100NH:0][100C:0](=O)N5CCCC(n6nc(-c7ccc(Oc8ccc(F)cc8F)cc7)c(C(N)=O)c6N)C5)cc4Cl)CC3)ccc2CC1C(=O)NC1CCCc2ccccc21)C(C)(C)C

> <Shape>
0.250

> <Color>
0.101

> <Negative vol penalty>
0.000

$$$$

  -OEChem-04052316393D

 86 95  0     1  0  0  0  0  0999 V2000
  -17.7310  -26.9902   19.4885 C   0  0  0  0  0  0  0  0  0  0  0  0
  -18.6569  -28.0138   19.3144 C   0  0  0  0  0  0  0  0  0  0  0  0
  -25.9665  -13.6111   19.1120 C   0  0  0  0  0  0  0  0  0  0  0  0
  -25.9051  -13.3281   21.5106 C   0  0  0  0  0  0  0  0  0  0  0  0
  -17.7692  -26.2058   20.6406 C   0  0  0  0  0  0  0  0  0  0  0  0
  -19.6209  -28.2543   20.2927 C   0  0  0  0  0  0  0  0  0  0  0  0
  -26.6465  -27.9360   18.7336 C   0  0  0  0  0  0  0  0  0  0  0  0
  -24.8264  -12.8170   18.9891 C   0  0  0  0  0  0  0  0  0  0  0  0
  -24.7650  -12.5340   21.3877 C   0  0  0  0  0  0  0  0  0  0  0  0
  -28.0056  -28.1012   18.4657 C   0  0  0  0  0  0  0  0  0  0  0  0
  -24.0300   -9.3440   20.5421 C   0  0  0  0  0  0  0  0  0  0  0  0
  -23.9815   -8.1612   21.2797 C   0  0  0  0  0  0  0  0  0  0  0  0
  -29.8812  -23.8015   19.7773 C   0  0  0  0  0  0  0  0  0  0  0  0
  -28.4260  -28.5301   20.8082 C   0  0  0  0  0  0  0  0  0  0  0  0
  -29.3332  -22.1881   18.0736 C   0  0  0  0  0  0  0  0  0  0  0  0
  -22.0006   -8.9507   22.4154 C   0  0  0  0  0  0  0  0  0  0  0  0
  -26.5059  -13.8666   20.3727 C   0  0  0  0  0  0  0  0  0  0  0  0
  -28.9525  -14.4449   19.9397 C   0  0  0  0  0  0  0  0  0  0  0  0
  -18.7402  -26.4306   21.6291 C   0  0  0  0  0  0  0  0  0  0  0  0
  -26.1738  -28.0522   20.0437 C   0  0  0  0  0  0  0  0  0  0  0  0
  -19.6713  -27.4731   21.4597 C   0  0  0  0  0  0  0  0  0  0  0  0
  -31.0546  -24.1588   19.0920 C   0  0  0  0  0  0  0  0  0  0  0  0
  -27.0677  -28.3534   21.0844 C   0  0  0  0  0  0  0  0  0  0  0  0
  -31.3631  -23.5193   17.8788 C   0  0  0  0  0  0  0  0  0  0  0  0
  -29.0260  -22.8238   19.2709 C   0  0  0  0  0  0  0  0  0  0  0  0
  -24.2256  -12.2784   20.1269 C   0  0  0  0  0  0  0  0  0  0  0  0
  -28.8931  -28.3978   19.5005 C   0  0  0  0  0  0  0  0  0  0  0  0
  -23.0638  -10.3303   20.7411 C   0  0  0  0  0  0  0  0  0  0  0  0
  -22.9668   -7.9645   22.2164 C   0  0  0  0  0  0  0  0  0  0  0  0
  -22.0491  -10.1336   21.6777 C   0  0  0  0  0  0  0  0  0  0  0  0
  -30.4944  -22.5321   17.3830 C   0  0  0  0  0  0  0  0  0  0  0  0
  -27.6839  -14.6864   20.5003 C   0  0  0  0  0  0  0  0  0  0  0  0
  -29.7181  -15.5081   20.3517 C   0  0  0  0  0  0  0  0  0  0  0  0
  -29.3988  -13.3567   19.1197 C   0  0  0  0  0  0  0  0  0  0  0  0
  -23.2274  -27.9120   22.3621 C   0  0  0  0  0  0  0  0  0  0  0  0
  -25.5676  -26.5588   23.8124 C   0  0  0  0  0  0  0  0  0  0  0  0
  -27.5525  -24.6091   25.7862 C   0  0  0  0  0  0  0  0  0  0  0  0
  -28.3724  -21.1035   22.0048 C   0  0  0  0  0  0  0  0  0  0  0  0
  -18.7124  -25.5872   22.8792 C   0  0  0  0  0  0  0  0  0  0  0  0
  -24.7089  -27.9431   20.3695 C   0  0  0  0  0  0  0  0  0  0  0  0
  -32.6089  -23.8614   17.1018 C   0  0  0  0  0  0  0  0  0  0  0  0
  -26.5090  -28.5032   22.4731 C   0  0  0  0  0  0  0  0  0  0  0  0
  -31.9548  -25.2136   19.6777 C   0  0  0  0  0  0  0  0  0  0  0  0
  -20.0000  -25.6651   23.6953 C   0  0  0  0  0  0  0  0  0  0  0  0
  -32.6454  -25.3165   16.6358 C   0  0  0  0  0  0  0  0  0  0  0  0
  -30.1260  -18.6682   23.9209 C   0  0  0  0  0  0  0  0  0  0  0  0
  -20.4468  -27.1153   23.8506 C   0  0  0  0  0  0  0  0  0  0  0  0
  -29.8134  -17.3498   23.2109 C   0  0  0  0  0  0  0  0  0  0  0  0
  -28.9281  -19.6152   23.9056 C   0  0  0  0  0  0  0  0  0  0  0  0
  -28.0508  -18.5595   21.8587 C   0  0  0  0  0  0  0  0  0  0  0  0
  -33.1026  -26.3098   17.6981 C   0  0  0  0  0  0  0  0  0  0  0  0
  -20.7478  -27.7489   22.4870 C   0  0  1  0  0  0  0  0  0  0  0  0
  -24.4420  -27.2904   21.7377 C   0  0  1  0  0  0  0  0  0  0  0  0
  -29.2466  -17.5937   21.7993 C   0  0  2  0  0  0  0  0  0  0  0  0
  -28.3499  -23.4515   27.8650 C   0  0  0  0  0  0  0  0  0  0  0  0
  -26.8531  -29.2644   24.3879 C   0  0  0  0  0  0  0  0  0  0  0  0
  -27.9817  -28.2274   26.3675 C   0  0  0  0  0  0  0  0  0  0  0  0
  -25.4915  -28.3348   26.2684 C   0  0  0  0  0  0  0  0  0  0  0  0
  -25.8527  -22.2441   25.2607 C   0  0  0  0  0  0  0  0  0  0  0  0
  -27.7840  -22.4607   20.0122 C   0  0  0  0  0  0  0  0  0  0  0  0
  -32.4168  -27.6660   19.6602 C   0  0  0  0  0  0  0  0  0  0  0  0
  -31.1365  -28.2049   20.2673 C   0  0  0  0  0  0  0  0  0  1  0  0
  -26.7228  -26.7141   24.7687 C   0  0  1  0  0  0  0  0  0  0  0  0
  -27.2156  -23.5923   26.8618 C   0  0  2  0  0  0  0  0  0  0  0  0
  -26.7659  -28.1243   25.4221 C   0  0  0  0  0  0  0  0  0  0  0  0
  -27.6420  -15.8145   21.2142 N   0  0  0  0  0  0  0  0  0  0  0  0
  -28.8938  -16.2912   21.1051 N   0  0  0  0  0  0  0  0  0  0  0  0
  -25.5169  -27.4481   22.7320 N   0  0  0  0  0  0  0  0  0  0  0  0
  -28.4397  -19.8055   22.5376 N   0  0  0  0  0  0  0  0  0  0  0  0
  -31.0092  -15.8402   20.1396 N   0  0  0  0  0  0  0  0  0  0  0  0
  -29.9336  -12.2231   19.7469 N   0  0  0  0  0  0  0  0  0  0  0  0
  -22.0377  -27.3099   21.9994 N   0  0  0  0  0  0  0  0  0  0  0  0
  -26.6129  -25.6163   25.7233 N   0  0  0  0  0  0  0  0  0  0  0  0
  -27.9043  -21.1944   20.6997 N   0  0  0  0  0  0  0  0  0  0  0  0
  -32.0972  -26.4553   18.8162 N   0  3  2  0  0  0  0  0  0  0  0  0
  -26.9602  -22.2572   26.2507 N   0  3  0  0  0  0  0  0  0  0  0  0
  -29.3408  -13.3954   17.8672 O   0  0  0  0  0  0  0  0  0  0  0  0
  -23.3587  -28.8668   23.1190 O   0  0  0  0  0  0  0  0  0  0  0  0
  -24.7283  -25.6776   24.0183 O   0  0  0  0  0  0  0  0  0  0  0  0
  -28.5513  -24.5209   25.0755 O   0  0  0  0  0  0  0  0  0  0  0  0
  -28.7098  -22.1064   22.6430 O   0  0  0  0  0  0  0  0  0  0  0  0
  -23.1129  -11.5037   20.0074 O   0  0  0  0  0  0  0  0  0  0  0  0
  -30.2288  -28.5545   19.2307 O   0  0  0  0  0  0  0  0  0  1  0  0
  -22.9194   -6.8280   22.9236 F   0  0  0  0  0  0  0  0  0  0  0  0
  -21.1174  -11.0769   21.8725 F   0  0  0  0  0  0  0  0  0  0  0  0
  -30.7610  -21.6764   15.8976 Cl  0  0  0  0  0  0  0  0  0  0  0  0
  1  2  1  0  0  0  0
  1  5  2  0  0  0  0
  2  6  2  0  0  0  0
  3  8  2  0  0  0  0
  3 17  1  0  0  0  0
  4  9  1  0  0  0  0
  4 17  2  0  0  0  0
  5 19  1  0  0  0  0
  6 21  1  0  0  0  0
  7 10  2  0  0  0  0
  7 20  1  0  0  0  0
  8 26  1  0  0  0  0
  9 26  2  0  0  0  0
 10 27  1  0  0  0  0
 11 12  2  0  0  0  0
 11 28  1  0  0  0  0
 12 29  1  0  0  0  0
 13 22  1  0  0  0  0
 13 25  2  0  0  0  0
 14 23  1  0  0  0  0
 14 27  2  0  0  0  0
 15 25  1  0  0  0  0
 15 31  2  0  0  0  0
 16 29  2  0  0  0  0
 16 30  1  0  0  0  0
 17 32  1  0  0  0  0
 18 32  1  0  0  0  0
 18 33  2  0  0  0  0
 18 34  1  0  0  0  0
 19 21  2  0  0  0  0
 19 39  1  0  0  0  0
 20 23  2  0  0  0  0
 20 40  1  0  0  0  0
 21 52  1  0  0  0  0
 22 24  2  0  0  0  0
 22 43  1  0  0  0  0
 23 42  1  0  0  0  0
 24 31  1  0  0  0  0
 24 41  1  0  0  0  0
 25 60  1  0  0  0  0
 26 82  1  0  0  0  0
 27 83  1  0  0  0  0
 28 30  2  0  0  0  0
 28 82  1  0  0  0  0
 29 84  1  0  0  0  0
 30 85  1  0  0  0  0
 31 86  1  0  0  0  0
 32 66  2  0  0  0  0
 33 67  1  0  0  0  0
 33 70  1  0  0  0  0
 34 71  1  0  0  0  0
 34 77  2  0  0  0  0
 35 53  1  0  0  0  0
 35 72  1  0  0  0  0
 35 78  2  0  0  0  0
 36 63  1  0  0  0  0
 36 68  1  0  0  0  0
 36 79  2  0  0  0  0
 37 64  1  0  0  0  0
 37 73  1  0  0  0  0
 37 80  2  0  0  0  0
 38 69  1  0  0  0  0
 38 74  1  0  0  0  0
 38 81  2  0  0  0  0
 39 44  1  0  0  0  0
 40 53  1  0  0  0  0
 41 45  1  0  0  0  0
 42 68  1  0  0  0  0
 43 75  1  0  0  0  0
 44 47  1  0  0  0  0
 45 51  1  0  0  0  0
 46 48  1  0  0  0  0
 46 49  1  0  0  0  0
 47 52  1  0  0  0  0
 48 54  1  0  0  0  0
 49 69  1  0  0  0  0
 50 54  1  0  0  0  0
 50 69  1  0  0  0  0
 51 75  1  0  0  0  0
 52 72  1  0  0  0  0
 53 68  1  0  0  0  0
 54 67  1  0  0  0  0
 55 64  1  0  0  0  0
 56 65  1  0  0  0  0
 57 65  1  0  0  0  0
 58 65  1  0  0  0  0
 59 76  1  0  0  0  0
 60 74  1  0  0  0  0
 61 62  1  0  0  0  0
 61 75  1  0  0  0  0
 62 83  1  0  0  0  0
 63 65  1  0  0  0  0
 63 73  1  0  0  0  0
 64 76  1  0  0  0  0
 66 67  1  0  0  0  0
M  CHG  2  75   1  76   1
M  ISO  4  38 100  62 101  74 100  83 101
M  END
> <Batch ID>
0030

> <Smiles>
CNC(C)C(=O)NC(C(=O)N1Cc2cc([101O:1][101CH2:1]CN3CCCc4c(Cl)cc(C[100NH:0][100C:0](=O)N5CCCC(n6nc(-c7ccc(Oc8ccc(F)cc8F)cc7)c(C(N)=O)c6N)C5)cc4C3)ccc2CC1C(=O)NC1CCCc2ccccc21)C(C)(C)C

> <Shape>
0.269

> <Color>
0.062

> <Negative vol penalty>
0.000

$$$$

  -OEChem-04052316393D

 89 98  0     1  0  0  0  0  0999 V2000
  -29.3542  -10.4479   23.6196 C   0  0  0  0  0  0  0  0  0  0  0  0
  -29.6985  -11.7584   23.3042 C   0  0  0  0  0  0  0  0  0  0  0  0
  -20.0652  -28.2315   23.5959 C   0  0  0  0  0  0  0  0  0  0  0  0
  -21.1181  -26.6786   22.0735 C   0  0  0  0  0  0  0  0  0  0  0  0
  -28.3075   -9.8215   22.9443 C   0  0  0  0  0  0  0  0  0  0  0  0
  -28.9969  -12.4430   22.3125 C   0  0  0  0  0  0  0  0  0  0  0  0
  -27.6782  -18.4224   22.1964 C   0  0  0  0  0  0  0  0  0  0  0  0
  -18.8235  -27.9459   23.0284 C   0  0  0  0  0  0  0  0  0  0  0  0
  -19.8762  -26.3930   21.5061 C   0  0  0  0  0  0  0  0  0  0  0  0
  -28.2785  -19.5030   21.5517 C   0  0  0  0  0  0  0  0  0  0  0  0
  -16.9352  -24.9858   19.8973 C   0  0  0  0  0  0  0  0  0  0  0  0
  -16.6225  -23.6474   19.6595 C   0  0  0  0  0  0  0  0  0  0  0  0
  -27.9079  -26.5009   17.6263 C   0  0  0  0  0  0  0  0  0  0  0  0
  -26.6885  -19.3028   19.7487 C   0  0  0  0  0  0  0  0  0  0  0  0
  -29.7059  -27.1099   19.6507 C   0  0  0  0  0  0  0  0  0  0  0  0
  -16.8546  -23.1741   22.0173 C   0  0  0  0  0  0  0  0  0  0  0  0
  -28.7431  -25.4992   18.1493 C   0  0  0  0  0  0  0  0  0  0  0  0
  -21.2126  -27.5979   23.1184 C   0  0  0  0  0  0  0  0  0  0  0  0
  -23.1044  -27.2388   24.7916 C   0  0  0  0  0  0  0  0  0  0  0  0
  -27.5865  -10.5020   21.9505 C   0  0  0  0  0  0  0  0  0  0  0  0
  -26.5835  -17.7659   21.6159 C   0  0  0  0  0  0  0  0  0  0  0  0
  -27.9405  -11.8247   21.6223 C   0  0  0  0  0  0  0  0  0  0  0  0
  -26.0744  -18.2158   20.3893 C   0  0  0  0  0  0  0  0  0  0  0  0
  -27.9752  -27.8015   18.1175 C   0  0  0  0  0  0  0  0  0  0  0  0
  -28.8755  -28.1060   19.1309 C   0  0  0  0  0  0  0  0  0  0  0  0
  -28.6961  -24.1819   17.6734 C   0  0  0  0  0  0  0  0  0  0  0  0
  -29.5341  -23.2154   18.2107 C   0  0  0  0  0  0  0  0  0  0  0  0
  -29.6594  -25.8011   19.1784 C   0  0  0  0  0  0  0  0  0  0  0  0
  -18.7289  -27.0266   21.9836 C   0  0  0  0  0  0  0  0  0  0  0  0
  -27.7855  -19.9415   20.3263 C   0  0  0  0  0  0  0  0  0  0  0  0
  -17.2078  -25.4183   21.1952 C   0  0  0  0  0  0  0  0  0  0  0  0
  -16.5821  -22.7416   20.7194 C   0  0  0  0  0  0  0  0  0  0  0  0
  -17.1674  -24.5125   22.2551 C   0  0  0  0  0  0  0  0  0  0  0  0
  -22.4957  -27.8929   23.7038 C   0  0  0  0  0  0  0  0  0  0  0  0
  -30.3972  -23.6058   19.2144 C   0  0  0  0  0  0  0  0  0  0  0  0
  -24.3031  -27.8889   24.9561 C   0  0  0  0  0  0  0  0  0  0  0  0
  -22.6289  -26.1416   25.5827 C   0  0  0  0  0  0  0  0  0  0  0  0
  -26.0301  -14.8115   20.5820 C   0  0  0  0  0  0  0  0  0  0  0  0
  -23.0123  -15.9332   20.1856 C   0  0  0  0  0  0  0  0  0  0  0  0
  -20.9571  -18.6174   19.7186 C   0  0  0  0  0  0  0  0  0  0  0  0
  -27.7858  -31.0249   21.2295 C   0  0  0  0  0  0  0  0  0  0  0  0
  -26.4937   -9.7675   21.2150 C   0  0  0  0  0  0  0  0  0  0  0  0
  -25.9304  -16.6187   22.3370 C   0  0  0  0  0  0  0  0  0  0  0  0
  -24.8887  -17.5581   19.7337 C   0  0  0  0  0  0  0  0  0  0  0  0
  -25.5568  -10.6888   20.4380 C   0  0  0  0  0  0  0  0  0  0  0  0
  -26.3719  -32.1522   24.2966 C   0  0  0  0  0  0  0  0  0  0  0  0
  -26.3565  -11.7146   19.6412 C   0  0  0  0  0  0  0  0  0  0  0  0
  -25.2731  -31.1295   24.5906 C   0  0  0  0  0  0  0  0  0  0  0  0
  -26.4924  -32.4369   22.8011 C   0  0  0  0  0  0  0  0  0  0  0  0
  -25.5707  -30.2189   22.2495 C   0  0  0  0  0  0  0  0  0  0  0  0
  -27.1870  -12.6087   20.5698 C   0  0  1  0  0  0  0  0  0  0  0  0
  -25.1432  -15.6996   21.4080 C   0  0  1  0  0  0  0  0  0  0  0  0
  -25.4489  -29.8573   23.7397 C   0  0  2  0  0  0  0  0  0  0  0  0
  -27.7513  -23.7833   16.5797 C   0  0  0  0  0  0  0  0  0  0  0  0
  -31.3257  -22.6162   19.8394 C   0  0  0  0  0  0  0  0  0  0  0  0
  -26.6285  -30.3780   15.5771 C   0  0  0  0  0  0  0  0  0  0  0  0
  -18.5421  -19.2161   19.3924 C   0  0  0  0  0  0  0  0  0  0  0  0
  -23.1629  -14.9577   17.2984 C   0  0  0  0  0  0  0  0  0  0  0  0
  -21.1769  -16.3925   16.7834 C   0  0  0  0  0  0  0  0  0  0  0  0
  -20.9746  -14.5305   18.4311 C   0  0  0  0  0  0  0  0  0  0  0  0
  -20.9111  -20.2578   22.1815 C   0  0  0  0  0  0  0  0  0  0  0  0
  -27.0757  -28.8462   17.5445 C   0  0  0  0  0  0  0  0  0  0  0  0
  -29.5059  -21.7894   17.7167 C   0  0  0  0  0  0  0  0  0  0  0  0
  -28.9734  -29.4907   19.6820 C   0  0  0  0  0  0  0  0  0  0  0  0
  -27.5640  -29.3387   16.1743 C   0  0  0  0  0  0  0  0  0  0  0  0
  -28.3185  -21.0080   18.2685 C   0  0  0  0  0  0  0  0  0  1  0  0
  -22.2626  -16.6117   19.0647 C   0  0  1  0  0  0  0  0  0  0  0  0
  -19.6645  -19.0271   20.4010 C   0  0  2  0  0  0  0  0  0  0  0  0
  -21.9178  -15.6345   17.9056 C   0  0  0  0  0  0  0  0  0  0  0  0
  -30.4739  -24.8653   19.7018 N   0  0  0  0  0  0  0  0  0  0  0  0
  -23.2457  -28.8827   23.2120 N   0  0  0  0  0  0  0  0  0  0  0  0
  -24.3379  -28.8555   23.9945 N   0  0  0  0  0  0  0  0  0  0  0  0
  -24.2886  -16.4365   20.4749 N   0  0  0  0  0  0  0  0  0  0  0  0
  -26.6586  -31.1895   22.0513 N   0  0  0  0  0  0  0  0  0  0  0  0
  -25.3200  -27.7224   25.8282 N   0  0  0  0  0  0  0  0  0  0  0  0
  -21.3761  -25.5919   25.2781 N   0  0  0  0  0  0  0  0  0  0  0  0
  -26.3477  -13.6117   21.1895 N   0  0  0  0  0  0  0  0  0  0  0  0
  -21.1003  -17.2466   19.6766 N   0  0  0  0  0  0  0  0  0  0  0  0
  -27.8694  -29.8107   20.5592 N   0  0  0  0  0  0  0  0  0  0  0  0
  -19.8523  -20.3072   21.1405 N   0  3  0  0  0  0  0  0  0  0  0  0
  -23.2879  -25.6735   26.5418 O   0  0  0  0  0  0  0  0  0  0  0  0
  -26.3978  -15.1864   19.4748 O   0  0  0  0  0  0  0  0  0  0  0  0
  -22.4821  -14.9959   20.7873 O   0  0  0  0  0  0  0  0  0  0  0  0
  -21.7579  -19.4318   19.2646 O   0  0  0  0  0  0  0  0  0  0  0  0
  -28.6561  -31.8935   21.1067 O   0  0  0  0  0  0  0  0  0  0  0  0
  -17.5173  -26.7475   21.4298 O   0  0  0  0  0  0  0  0  0  0  0  0
  -28.3700  -20.9956   19.6945 O   0  0  0  0  0  0  0  0  0  1  0  0
  -16.2802  -21.4567   20.4911 F   0  0  0  0  0  0  0  0  0  0  0  0
  -17.4271  -24.9224   23.5043 F   0  0  0  0  0  0  0  0  0  0  0  0
  1  2  1  0  0  0  0
  1  5  2  0  0  0  0
  2  6  2  0  0  0  0
  3  8  2  0  0  0  0
  3 18  1  0  0  0  0
  4  9  1  0  0  0  0
  4 18  2  0  0  0  0
  5 20  1  0  0  0  0
  6 22  1  0  0  0  0
  7 10  2  0  0  0  0
  7 21  1  0  0  0  0
  8 29  1  0  0  0  0
  9 29  2  0  0  0  0
 10 30  1  0  0  0  0
 11 12  2  0  0  0  0
 11 31  1  0  0  0  0
 12 32  1  0  0  0  0
 13 17  2  0  0  0  0
 13 24  1  0  0  0  0
 14 23  1  0  0  0  0
 14 30  2  0  0  0  0
 15 25  1  0  0  0  0
 15 28  2  0  0  0  0
 16 32  2  0  0  0  0
 16 33  1  0  0  0  0
 17 26  1  0  0  0  0
 17 28  1  0  0  0  0
 18 34  1  0  0  0  0
 19 34  1  0  0  0  0
 19 36  2  0  0  0  0
 19 37  1  0  0  0  0
 20 22  2  0  0  0  0
 20 42  1  0  0  0  0
 21 23  2  0  0  0  0
 21 43  1  0  0  0  0
 22 51  1  0  0  0  0
 23 44  1  0  0  0  0
 24 25  2  0  0  0  0
 24 62  1  0  0  0  0
 25 64  1  0  0  0  0
 26 27  2  0  0  0  0
 26 54  1  0  0  0  0
 27 35  1  0  0  0  0
 27 63  1  0  0  0  0
 28 70  1  0  0  0  0
 29 86  1  0  0  0  0
 30 87  1  0  0  0  0
 31 33  2  0  0  0  0
 31 86  1  0  0  0  0
 32 88  1  0  0  0  0
 33 89  1  0  0  0  0
 34 71  2  0  0  0  0
 35 55  1  0  0  0  0
 35 70  2  0  0  0  0
 36 72  1  0  0  0  0
 36 75  1  0  0  0  0
 37 76  1  0  0  0  0
 37 81  2  0  0  0  0
 38 52  1  0  0  0  0
 38 77  1  0  0  0  0
 38 82  2  0  0  0  0
 39 67  1  0  0  0  0
 39 73  1  0  0  0  0
 39 83  2  0  0  0  0
 40 68  1  0  0  0  0
 40 78  1  0  0  0  0
 40 84  2  0  0  0  0
 41 74  1  0  0  0  0
 41 79  1  0  0  0  0
 41 85  2  0  0  0  0
 42 45  1  0  0  0  0
 43 52  1  0  0  0  0
 44 73  1  0  0  0  0
 45 47  1  0  0  0  0
 46 48  1  0  0  0  0
 46 49  1  0  0  0  0
 47 51  1  0  0  0  0
 48 53  1  0  0  0  0
 49 74  1  0  0  0  0
 50 53  1  0  0  0  0
 50 74  1  0  0  0  0
 51 77  1  0  0  0  0
 52 73  1  0  0  0  0
 53 72  1  0  0  0  0
 56 65  1  0  0  0  0
 57 68  1  0  0  0  0
 58 69  1  0  0  0  0
 59 69  1  0  0  0  0
 60 69  1  0  0  0  0
 61 80  1  0  0  0  0
 62 65  1  0  0  0  0
 63 66  1  0  0  0  0
 64 79  1  0  0  0  0
 66 87  1  0  0  0  0
 67 69  1  0  0  0  0
 67 78  1  0  0  0  0
 68 80  1  0  0  0  0
 71 72  1  0  0  0  0
M  CHG  1  80   1
M  ISO  4  41 100  66 101  79 100  87 101
M  END
> <Batch ID>
0030

> <Smiles>
CCCc1cc2c(C)c(C[101CH2:1][101O:1]c3ccc4c(c3)CN(C(=O)C(NC(=O)C(C)NC)C(C)(C)C)C(C(=O)NC3CCCc5ccccc53)C4)c(C)nc2cc1C[100NH:0][100C:0](=O)N1CCCC(n2nc(-c3ccc(Oc4ccc(F)cc4F)cc3)c(C(N)=O)c2N)C1

> <Shape>
0.214

> <Color>
0.066

> <Negative vol penalty>
0.000

$$$$

  -OEChem-04052316393D

 82 90  0     1  0  0  0  0  0999 V2000
  -26.4518  -25.8301   24.3271 C   0  0  0  0  0  0  0  0  0  0  0  0
  -25.1721  -25.4978   23.8943 C   0  0  0  0  0  0  0  0  0  0  0  0
  -25.7329  -28.4713   21.5710 C   0  0  0  0  0  0  0  0  0  0  0  0
  -25.0836  -27.9821   19.2959 C   0  0  0  0  0  0  0  0  0  0  0  0
  -27.5589  -25.1652   23.8015 C   0  0  0  0  0  0  0  0  0  0  0  0
  -24.9988  -24.5010   22.9347 C   0  0  0  0  0  0  0  0  0  0  0  0
  -20.3628  -20.5168   22.5610 C   0  0  0  0  0  0  0  0  0  0  0  0
  -26.9782  -27.8864   21.3414 C   0  0  0  0  0  0  0  0  0  0  0  0
  -26.3289  -27.3973   19.0662 C   0  0  0  0  0  0  0  0  0  0  0  0
  -19.2008  -20.4993   21.7907 C   0  0  0  0  0  0  0  0  0  0  0  0
  -29.4687  -26.0977   17.7735 C   0  0  0  0  0  0  0  0  0  0  0  0
  -30.1288  -26.4203   16.5879 C   0  0  0  0  0  0  0  0  0  0  0  0
  -20.3026  -19.0908   20.1717 C   0  0  0  0  0  0  0  0  0  0  0  0
  -17.9944  -22.5792   17.7151 C   0  0  0  0  0  0  0  0  0  0  0  0
  -15.6795  -23.6759   18.8200 C   0  0  0  0  0  0  0  0  0  0  0  0
  -30.1438  -28.7494   17.2300 C   0  0  0  0  0  0  0  0  0  0  0  0
  -24.7856  -28.5191   20.5483 C   0  0  0  0  0  0  0  0  0  0  0  0
  -23.1449  -30.4720   20.5957 C   0  0  0  0  0  0  0  0  0  0  0  0
  -27.3984  -24.1531   22.8421 C   0  0  0  0  0  0  0  0  0  0  0  0
  -21.5087  -19.8292   22.1363 C   0  0  0  0  0  0  0  0  0  0  0  0
  -26.1048  -23.8228   22.3948 C   0  0  0  0  0  0  0  0  0  0  0  0
  -21.4770  -19.0990   20.9397 C   0  0  0  0  0  0  0  0  0  0  0  0
  -16.9052  -21.7587   18.0082 C   0  0  0  0  0  0  0  0  0  0  0  0
  -16.7688  -24.4964   18.5270 C   0  0  0  0  0  0  0  0  0  0  0  0
  -27.2762  -27.3495   20.0890 C   0  0  0  0  0  0  0  0  0  0  0  0
  -19.1715  -19.7886   20.5944 C   0  0  0  0  0  0  0  0  0  0  0  0
  -29.1460  -27.1009   18.6874 C   0  0  0  0  0  0  0  0  0  0  0  0
  -30.4663  -27.7461   16.3161 C   0  0  0  0  0  0  0  0  0  0  0  0
  -29.4836  -28.4267   18.4157 C   0  0  0  0  0  0  0  0  0  0  0  0
  -15.7477  -22.3070   18.5607 C   0  0  0  0  0  0  0  0  0  0  0  0
  -17.9262  -23.9481   17.9745 C   0  0  0  0  0  0  0  0  0  0  0  0
  -23.4988  -29.1227   20.7850 C   0  0  0  0  0  0  0  0  0  0  0  0
  -21.8218  -30.5342   20.9591 C   0  0  0  0  0  0  0  0  0  0  0  0
  -23.9410  -31.5709   20.1327 C   0  0  0  0  0  0  0  0  0  0  0  0
  -24.4722  -20.6747   21.3572 C   0  0  0  0  0  0  0  0  0  0  0  0
  -24.9270  -17.4672   21.1907 C   0  0  0  0  0  0  0  0  0  0  0  0
  -23.5680  -14.3670   20.7564 C   0  0  0  0  0  0  0  0  0  0  0  0
  -17.4419  -26.4549   21.1215 C   0  0  0  0  0  0  0  0  0  0  0  0
  -28.6282  -23.4951   22.2684 C   0  0  0  0  0  0  0  0  0  0  0  0
  -22.7458  -19.8360   22.9919 C   0  0  0  0  0  0  0  0  0  0  0  0
  -22.6741  -18.3275   20.4494 C   0  0  0  0  0  0  0  0  0  0  0  0
  -28.3335  -22.1919   21.5301 C   0  0  0  0  0  0  0  0  0  0  0  0
  -18.6256  -28.4344   23.8340 C   0  0  0  0  0  0  0  0  0  0  0  0
  -27.1431  -22.3670   20.5925 C   0  0  0  0  0  0  0  0  0  0  0  0
  -19.9768  -28.9570   23.3431 C   0  0  0  0  0  0  0  0  0  0  0  0
  -18.3633  -27.0088   23.3532 C   0  0  0  0  0  0  0  0  0  0  0  0
  -19.8373  -27.3367   21.4055 C   0  0  0  0  0  0  0  0  0  0  0  0
  -25.8744  -22.7300   21.3737 C   0  0  1  0  0  0  0  0  0  0  0  0
  -24.0164  -19.5229   22.2077 C   0  0  1  0  0  0  0  0  0  0  0  0
  -20.1218  -28.7910   21.8184 C   0  0  2  0  0  0  0  0  0  0  0  0
  -24.1960  -11.9405   20.6337 C   0  0  0  0  0  0  0  0  0  0  0  0
  -26.0161  -17.8941   18.3726 C   0  0  0  0  0  0  0  0  0  0  0  0
  -25.7292  -15.4405   17.9652 C   0  0  0  0  0  0  0  0  0  0  0  0
  -27.2893  -16.2339   19.7427 C   0  0  0  0  0  0  0  0  0  0  0  0
  -21.8897  -13.6947   23.0995 C   0  0  0  0  0  0  0  0  0  0  0  0
  -17.0196  -20.2831   17.7119 C   0  0  0  0  0  0  0  0  0  0  0  0
  -16.6568  -25.9580   18.8202 C   0  0  0  0  0  0  0  0  0  0  0  0
  -18.2005  -19.6376   18.4287 C   0  0  0  0  0  0  0  0  0  1  0  0
  -24.7948  -16.4235   20.1081 C   0  0  1  0  0  0  0  0  0  0  0  0
  -23.7363  -13.0753   21.5358 C   0  0  2  0  0  0  0  0  0  0  0  0
  -25.9352  -16.5140   19.0551 C   0  0  0  0  0  0  0  0  0  0  0  0
  -22.4826  -28.3812   21.2340 N   0  0  0  0  0  0  0  0  0  0  0  0
  -21.4772  -29.2678   21.3298 N   0  0  0  0  0  0  0  0  0  0  0  0
  -23.8619  -18.3701   21.3182 N   0  0  0  0  0  0  0  0  0  0  0  0
  -18.5154  -26.9198   21.8990 N   0  0  0  0  0  0  0  0  0  0  0  0
  -20.9313  -31.5482   20.9945 N   0  0  0  0  0  0  0  0  0  0  0  0
  -25.2819  -31.3320   19.8022 N   0  0  0  0  0  0  0  0  0  0  0  0
  -25.3170  -21.5542   22.0070 N   0  0  0  0  0  0  0  0  0  0  0  0
  -24.7118  -15.1364   20.7899 N   0  0  0  0  0  0  0  0  0  0  0  0
  -17.6676  -26.4078   19.7513 N   0  0  0  0  0  0  0  0  0  0  0  0
  -22.4460  -12.6799   22.1680 N   0  3  0  0  0  0  0  0  0  0  0  0
  -23.4815  -32.7337   20.0312 O   0  0  0  0  0  0  0  0  0  0  0  0
  -24.0872  -20.7584   20.1969 O   0  0  0  0  0  0  0  0  0  0  0  0
  -25.9349  -17.4765   21.9019 O   0  0  0  0  0  0  0  0  0  0  0  0
  -22.5274  -14.6622   20.1729 O   0  0  0  0  0  0  0  0  0  0  0  0
  -16.3604  -26.1127   21.6117 O   0  0  0  0  0  0  0  0  0  0  0  0
  -28.4914  -26.7789   19.8645 O   0  0  0  0  0  0  0  0  0  0  0  0
  -18.0389  -19.7704   19.8403 O   0  0  0  0  0  0  0  0  0  1  0  0
  -31.1016  -28.0556   15.1782 F   0  0  0  0  0  0  0  0  0  0  0  0
  -29.1774  -29.3947   19.2904 F   0  0  0  0  0  0  0  0  0  0  0  0
  -14.3802  -21.3227   18.9349 Cl  0  0  0  0  0  0  0  0  0  0  0  0
  -19.2936  -24.9324   17.5989 Cl  0  0  0  0  0  0  0  0  0  0  0  0
  1  2  1  0  0  0  0
  1  5  2  0  0  0  0
  2  6  2  0  0  0  0
  3  8  2  0  0  0  0
  3 17  1  0  0  0  0
  4  9  1  0  0  0  0
  4 17  2  0  0  0  0
  5 19  1  0  0  0  0
  6 21  1  0  0  0  0
  7 10  2  0  0  0  0
  7 20  1  0  0  0  0
  8 25  1  0  0  0  0
  9 25  2  0  0  0  0
 10 26  1  0  0  0  0
 11 12  2  0  0  0  0
 11 27  1  0  0  0  0
 12 28  1  0  0  0  0
 13 22  1  0  0  0  0
 13 26  2  0  0  0  0
 14 23  1  0  0  0  0
 14 31  2  0  0  0  0
 15 24  2  0  0  0  0
 15 30  1  0  0  0  0
 16 28  2  0  0  0  0
 16 29  1  0  0  0  0
 17 32  1  0  0  0  0
 18 32  1  0  0  0  0
 18 33  2  0  0  0  0
 18 34  1  0  0  0  0
 19 21  2  0  0  0  0
 19 39  1  0  0  0  0
 20 22  2  0  0  0  0
 20 40  1  0  0  0  0
 21 48  1  0  0  0  0
 22 41  1  0  0  0  0
 23 30  2  0  0  0  0
 23 56  1  0  0  0  0
 24 31  1  0  0  0  0
 24 57  1  0  0  0  0
 25 77  1  0  0  0  0
 26 78  1  0  0  0  0
 27 29  2  0  0  0  0
 27 77  1  0  0  0  0
 28 79  1  0  0  0  0
 29 80  1  0  0  0  0
 30 81  1  0  0  0  0
 31 82  1  0  0  0  0
 32 62  2  0  0  0  0
 33 63  1  0  0  0  0
 33 66  1  0  0  0  0
 34 67  1  0  0  0  0
 34 72  2  0  0  0  0
 35 49  1  0  0  0  0
 35 68  1  0  0  0  0
 35 73  2  0  0  0  0
 36 59  1  0  0  0  0
 36 64  1  0  0  0  0
 36 74  2  0  0  0  0
 37 60  1  0  0  0  0
 37 69  1  0  0  0  0
 37 75  2  0  0  0  0
 38 65  1  0  0  0  0
 38 70  1  0  0  0  0
 38 76  2  0  0  0  0
 39 42  1  0  0  0  0
 40 49  1  0  0  0  0
 41 64  1  0  0  0  0
 42 44  1  0  0  0  0
 43 45  1  0  0  0  0
 43 46  1  0  0  0  0
 44 48  1  0  0  0  0
 45 50  1  0  0  0  0
 46 65  1  0  0  0  0
 47 50  1  0  0  0  0
 47 65  1  0  0  0  0
 48 68  1  0  0  0  0
 49 64  1  0  0  0  0
 50 63  1  0  0  0  0
 51 60  1  0  0  0  0
 52 61  1  0  0  0  0
 53 61  1  0  0  0  0
 54 61  1  0  0  0  0
 55 71  1  0  0  0  0
 56 58  1  0  0  0  0
 57 70  1  0  0  0  0
 58 78  1  0  0  0  0
 59 61  1  0  0  0  0
 59 69  1  0  0  0  0
 60 71  1  0  0  0  0
 62 63  1  0  0  0  0
M  CHG  1  71   1
M  ISO  4  38 100  58 101  70 100  78 101
M  END
> <Batch ID>
0030

> <Smiles>
CNC(C)C(=O)NC(C(=O)N1Cc2cc([101O:1][101CH2:1]Cc3cc(Cl)c(C[100NH:0][100C:0](=O)N4CCCC(n5nc(-c6ccc(Oc7ccc(F)cc7F)cc6)c(C(N)=O)c5N)C4)cc3Cl)ccc2CC1C(=O)NC1CCCc2ccccc21)C(C)(C)C

> <Shape>
0.162

> <Color>
0.100

> <Negative vol penalty>
0.000

$$$$

  -OEChem-04052316393D

 83 91  0     1  0  0  0  0  0999 V2000
  -36.5037  -28.6143   19.6852 C   0  0  0  0  0  0  0  0  0  0  0  0
  -36.3883  -27.7988   20.8065 C   0  0  0  0  0  0  0  0  0  0  0  0
  -23.3309   -9.6966   20.0411 C   0  0  0  0  0  0  0  0  0  0  0  0
  -23.8144   -9.9790   22.3913 C   0  0  0  0  0  0  0  0  0  0  0  0
  -35.3600  -29.0177   18.9974 C   0  0  0  0  0  0  0  0  0  0  0  0
  -35.1290  -27.3872   21.2412 C   0  0  0  0  0  0  0  0  0  0  0  0
  -33.6933  -22.0118   23.8005 C   0  0  0  0  0  0  0  0  0  0  0  0
  -31.1134  -14.7641   25.8695 C   0  0  0  0  0  0  0  0  0  0  0  0
  -30.6346  -13.9328   24.8569 C   0  0  0  0  0  0  0  0  0  0  0  0
  -22.6500   -8.5125   20.3235 C   0  0  0  0  0  0  0  0  0  0  0  0
  -23.1335   -8.7948   22.6737 C   0  0  0  0  0  0  0  0  0  0  0  0
  -33.5182  -21.6218   25.1275 C   0  0  0  0  0  0  0  0  0  0  0  0
  -19.9247   -7.7850   22.9971 C   0  0  0  0  0  0  0  0  0  0  0  0
  -19.0409   -7.7889   24.0761 C   0  0  0  0  0  0  0  0  0  0  0  0
  -31.1381  -21.9436   24.9018 C   0  0  0  0  0  0  0  0  0  0  0  0
  -32.1245  -14.9958   23.2798 C   0  0  0  0  0  0  0  0  0  0  0  0
  -20.3271   -6.0397   25.1360 C   0  0  0  0  0  0  0  0  0  0  0  0
  -23.9132  -10.4299   21.0751 C   0  0  0  0  0  0  0  0  0  0  0  0
  -24.0794  -12.9531   20.7386 C   0  0  0  0  0  0  0  0  0  0  0  0
  -34.0866  -28.6029   19.4183 C   0  0  0  0  0  0  0  0  0  0  0  0
  -32.5913  -22.3818   23.0161 C   0  0  0  0  0  0  0  0  0  0  0  0
  -33.9671  -27.7865   20.5592 C   0  0  0  0  0  0  0  0  0  0  0  0
  -31.3016  -22.3356   23.5644 C   0  0  0  0  0  0  0  0  0  0  0  0
  -32.0977  -15.7113   25.5872 C   0  0  0  0  0  0  0  0  0  0  0  0
  -31.1402  -14.0487   23.5620 C   0  0  0  0  0  0  0  0  0  0  0  0
  -22.5513   -8.0616   21.6398 C   0  0  0  0  0  0  0  0  0  0  0  0
  -32.2408  -21.5904   25.6793 C   0  0  0  0  0  0  0  0  0  0  0  0
  -21.0097   -6.9084   22.9874 C   0  0  0  0  0  0  0  0  0  0  0  0
  -19.2421   -6.9163   25.1456 C   0  0  0  0  0  0  0  0  0  0  0  0
  -32.6033  -15.8271   24.2924 C   0  0  0  0  0  0  0  0  0  0  0  0
  -21.2109   -6.0358   24.0568 C   0  0  0  0  0  0  0  0  0  0  0  0
  -24.6171  -11.6529   20.7840 C   0  0  0  0  0  0  0  0  0  0  0  0
  -25.1483  -13.7559   20.4231 C   0  0  0  0  0  0  0  0  0  0  0  0
  -22.7340  -13.3957   20.9617 C   0  0  0  0  0  0  0  0  0  0  0  0
  -31.6909  -25.0408   21.5251 C   0  0  0  0  0  0  0  0  0  0  0  0
  -29.3190  -23.1391   20.3939 C   0  0  0  0  0  0  0  0  0  0  0  0
  -27.4014  -20.3458   20.8027 C   0  0  0  0  0  0  0  0  0  0  0  0
  -31.0465  -13.1905   21.1954 C   0  0  0  0  0  0  0  0  0  0  0  0
  -32.8762  -29.1033   18.6705 C   0  0  0  0  0  0  0  0  0  0  0  0
  -32.7942  -22.7745   21.5784 C   0  0  0  0  0  0  0  0  0  0  0  0
  -30.0837  -22.7037   22.7585 C   0  0  0  0  0  0  0  0  0  0  0  0
  -31.6038  -28.3168   18.9753 C   0  0  0  0  0  0  0  0  0  0  0  0
  -29.3397  -13.6723   18.1080 C   0  0  0  0  0  0  0  0  0  0  0  0
  -31.4504  -28.1116   20.4790 C   0  0  0  0  0  0  0  0  0  0  0  0
  -27.8850  -13.3333   18.4412 C   0  0  0  0  0  0  0  0  0  0  0  0
  -30.3183  -12.7695   18.8571 C   0  0  0  0  0  0  0  0  0  0  0  0
  -28.6695  -12.3766   20.6449 C   0  0  0  0  0  0  0  0  0  0  0  0
  -32.6201  -27.2988   21.0471 C   0  0  1  0  0  0  0  0  0  0  0  0
  -31.6548  -23.6245   21.0246 C   0  0  1  0  0  0  0  0  0  0  0  0
  -27.6482  -13.3022   19.9639 C   0  0  2  0  0  0  0  0  0  0  0  0
  -25.5205  -19.0739   19.7341 C   0  0  0  0  0  0  0  0  0  0  0  0
  -27.3342  -25.2172   21.4195 C   0  0  0  0  0  0  0  0  0  0  0  0
  -25.5267  -23.4993   21.1961 C   0  0  0  0  0  0  0  0  0  0  0  0
  -26.7776  -24.2609   19.1767 C   0  0  0  0  0  0  0  0  0  0  0  0
  -29.0836  -17.9387   20.4354 C   0  0  0  0  0  0  0  0  0  0  0  0
  -32.6113  -16.6021   26.6797 C   0  0  0  0  0  0  0  0  0  0  0  0
  -31.0723  -19.6184   28.4672 C   0  0  0  0  0  0  0  0  0  0  0  0
  -32.1043  -18.5407   28.1710 C   0  0  0  0  0  0  0  0  0  0  0  0
  -30.8333  -20.5744   27.3049 C   0  0  0  0  0  0  0  0  0  1  0  0
  -27.9317  -22.7686   20.8600 C   0  0  1  0  0  0  0  0  0  0  0  0
  -27.0293  -19.2301   19.8430 C   0  0  2  0  0  0  0  0  0  0  0  0
  -26.9155  -23.9314   20.6791 C   0  0  0  0  0  0  0  0  0  0  0  0
  -25.9259  -11.6266   20.5184 N   0  0  0  0  0  0  0  0  0  0  0  0
  -26.2195  -12.9202   20.3030 N   0  0  0  0  0  0  0  0  0  0  0  0
  -30.3344  -23.0869   21.3593 N   0  0  0  0  0  0  0  0  0  0  0  0
  -30.0362  -12.7935   20.2940 N   0  0  0  0  0  0  0  0  0  0  0  0
  -25.2670  -15.0880   20.2393 N   0  0  0  0  0  0  0  0  0  0  0  0
  -21.7595  -12.4389   21.2765 N   0  0  0  0  0  0  0  0  0  0  0  0
  -30.6524  -13.2056   22.5330 N   0  0  0  0  0  0  0  0  0  0  0  0
  -32.4514  -25.8931   20.7475 N   0  0  0  0  0  0  0  0  0  0  0  0
  -27.5745  -21.5466   20.1475 N   0  0  0  0  0  0  0  0  0  0  0  0
  -27.6036  -17.9353   20.3062 N   0  3  0  0  0  0  0  0  0  0  0  0
  -31.6545  -17.6811   27.0510 N   0  3  0  0  0  0  0  0  0  0  0  0
  -22.4025  -14.6019   20.8682 O   0  0  0  0  0  0  0  0  0  0  0  0
  -31.0733  -25.3386   22.5408 O   0  0  0  0  0  0  0  0  0  0  0  0
  -29.4964  -23.4559   19.2150 O   0  0  0  0  0  0  0  0  0  0  0  0
  -27.5223  -20.1705   22.0132 O   0  0  0  0  0  0  0  0  0  0  0  0
  -32.1698  -13.5207   20.8067 O   0  0  0  0  0  0  0  0  0  0  0  0
  -21.8867   -6.9062   21.9157 O   0  0  0  0  0  0  0  0  0  0  0  0
  -32.0672  -21.2107   26.9744 O   0  0  0  0  0  0  0  0  0  1  0  0
  -18.3942   -6.9213   26.1825 F   0  0  0  0  0  0  0  0  0  0  0  0
  -33.5492  -16.7342   24.0115 F   0  0  0  0  0  0  0  0  0  0  0  0
  -22.2521   -5.1922   24.0537 F   0  0  0  0  0  0  0  0  0  0  0  0
  1  2  1  0  0  0  0
  1  5  2  0  0  0  0
  2  6  2  0  0  0  0
  3 10  2  0  0  0  0
  3 18  1  0  0  0  0
  4 11  1  0  0  0  0
  4 18  2  0  0  0  0
  5 20  1  0  0  0  0
  6 22  1  0  0  0  0
  7 12  2  0  0  0  0
  7 21  1  0  0  0  0
  8  9  2  0  0  0  0
  8 24  1  0  0  0  0
  9 25  1  0  0  0  0
 10 26  1  0  0  0  0
 11 26  2  0  0  0  0
 12 27  1  0  0  0  0
 13 14  2  0  0  0  0
 13 28  1  0  0  0  0
 14 29  1  0  0  0  0
 15 23  1  0  0  0  0
 15 27  2  0  0  0  0
 16 25  2  0  0  0  0
 16 30  1  0  0  0  0
 17 29  2  0  0  0  0
 17 31  1  0  0  0  0
 18 32  1  0  0  0  0
 19 32  1  0  0  0  0
 19 33  2  0  0  0  0
 19 34  1  0  0  0  0
 20 22  2  0  0  0  0
 20 39  1  0  0  0  0
 21 23  2  0  0  0  0
 21 40  1  0  0  0  0
 22 48  1  0  0  0  0
 23 41  1  0  0  0  0
 24 30  2  0  0  0  0
 24 56  1  0  0  0  0
 25 69  1  0  0  0  0
 26 79  1  0  0  0  0
 27 80  1  0  0  0  0
 28 31  2  0  0  0  0
 28 79  1  0  0  0  0
 29 81  1  0  0  0  0
 30 82  1  0  0  0  0
 31 83  1  0  0  0  0
 32 63  2  0  0  0  0
 33 64  1  0  0  0  0
 33 67  1  0  0  0  0
 34 68  1  0  0  0  0
 34 74  2  0  0  0  0
 35 49  1  0  0  0  0
 35 70  1  0  0  0  0
 35 75  2  0  0  0  0
 36 60  1  0  0  0  0
 36 65  1  0  0  0  0
 36 76  2  0  0  0  0
 37 61  1  0  0  0  0
 37 71  1  0  0  0  0
 37 77  2  0  0  0  0
 38 66  1  0  0  0  0
 38 69  1  0  0  0  0
 38 78  2  0  0  0  0
 39 42  1  0  0  0  0
 40 49  1  0  0  0  0
 41 65  1  0  0  0  0
 42 44  1  0  0  0  0
 43 45  1  0  0  0  0
 43 46  1  0  0  0  0
 44 48  1  0  0  0  0
 45 50  1  0  0  0  0
 46 66  1  0  0  0  0
 47 50  1  0  0  0  0
 47 66  1  0  0  0  0
 48 70  1  0  0  0  0
 49 65  1  0  0  0  0
 50 64  1  0  0  0  0
 51 61  1  0  0  0  0
 52 62  1  0  0  0  0
 53 62  1  0  0  0  0
 54 62  1  0  0  0  0
 55 72  1  0  0  0  0
 56 73  1  0  0  0  0
 57 58  1  0  0  0  0
 57 59  1  0  0  0  0
 58 73  1  0  0  0  0
 59 80  1  0  0  0  0
 60 62  1  0  0  0  0
 60 71  1  0  0  0  0
 61 72  1  0  0  0  0
 63 64  1  0  0  0  0
M  CHG  2  72   1  73   1
M  ISO  4  38 100  59 101  69 100  80 101
M  END
> <Batch ID>
0030

> <Smiles>
CNC(C)C(=O)NC(C(=O)N1Cc2cc([101O:1][101CH2:1]CCNCc3ccc([100NH:0][100C:0](=O)N4CCCC(n5nc(-c6ccc(Oc7ccc(F)cc7F)cc6)c(C(N)=O)c5N)C4)cc3F)ccc2CC1C(=O)NC1CCCc2ccccc21)C(C)(C)C

> <Shape>
0.205

> <Color>
0.181

> <Negative vol penalty>
0.000

$$$$

  -OEChem-04052316393D

 90 99  0     1  0  0  0  0  0999 V2000
  -22.8062  -38.1494   23.4298 C   0  0  0  0  0  0  0  0  0  0  0  0
  -23.9323  -37.3458   23.5768 C   0  0  0  0  0  0  0  0  0  0  0  0
  -23.1386  -10.2071   21.9783 C   0  0  0  0  0  0  0  0  0  0  0  0
  -24.6687  -10.8242   23.7432 C   0  0  0  0  0  0  0  0  0  0  0  0
  -21.5337  -37.5843   23.5024 C   0  0  0  0  0  0  0  0  0  0  0  0
  -23.7865  -35.9768   23.7978 C   0  0  0  0  0  0  0  0  0  0  0  0
  -26.6704  -31.1636   19.2802 C   0  0  0  0  0  0  0  0  0  0  0  0
  -30.2327  -19.8437   23.2897 C   0  0  0  0  0  0  0  0  0  0  0  0
  -30.0946  -21.1979   22.9853 C   0  0  0  0  0  0  0  0  0  0  0  0
  -22.5754   -9.2359   22.8060 C   0  0  0  0  0  0  0  0  0  0  0  0
  -24.1055   -9.8530   24.5710 C   0  0  0  0  0  0  0  0  0  0  0  0
  -27.3701  -30.1813   18.5790 C   0  0  0  0  0  0  0  0  0  0  0  0
  -23.3325   -6.1126   23.8529 C   0  0  0  0  0  0  0  0  0  0  0  0
  -23.0956   -4.8524   23.3039 C   0  0  0  0  0  0  0  0  0  0  0  0
  -26.3410  -28.4645   19.9360 C   0  0  0  0  0  0  0  0  0  0  0  0
  -29.5737  -19.2701   21.0371 C   0  0  0  0  0  0  0  0  0  0  0  0
  -20.7390   -5.0872   23.7818 C   0  0  0  0  0  0  0  0  0  0  0  0
  -24.1852  -11.0012   22.4468 C   0  0  0  0  0  0  0  0  0  0  0  0
  -24.1148  -13.1050   21.0057 C   0  0  0  0  0  0  0  0  0  0  0  0
  -21.3724  -36.2060   23.7147 C   0  0  0  0  0  0  0  0  0  0  0  0
  -25.7906  -30.7986   20.3030 C   0  0  0  0  0  0  0  0  0  0  0  0
  -22.5106  -35.3929   23.8747 C   0  0  0  0  0  0  0  0  0  0  0  0
  -25.6280  -29.4432   20.6336 C   0  0  0  0  0  0  0  0  0  0  0  0
  -29.9723  -18.8798   22.3156 C   0  0  0  0  0  0  0  0  0  0  0  0
  -29.6960  -21.5882   21.7068 C   0  0  0  0  0  0  0  0  0  0  0  0
  -23.0588   -9.0588   24.1024 C   0  0  0  0  0  0  0  0  0  0  0  0
  -27.2060  -28.8352   18.9063 C   0  0  0  0  0  0  0  0  0  0  0  0
  -22.2726   -6.8601   24.3664 C   0  0  0  0  0  0  0  0  0  0  0  0
  -21.7988   -4.3397   23.2684 C   0  0  0  0  0  0  0  0  0  0  0  0
  -20.9759   -6.3474   24.3309 C   0  0  0  0  0  0  0  0  0  0  0  0
  -29.4356  -20.6243   20.7327 C   0  0  0  0  0  0  0  0  0  0  0  0
  -24.7678  -12.0043   21.5921 C   0  0  0  0  0  0  0  0  0  0  0  0
  -25.0974  -13.7473   20.2927 C   0  0  0  0  0  0  0  0  0  0  0  0
  -22.7426  -13.5106   21.0973 C   0  0  0  0  0  0  0  0  0  0  0  0
  -23.3434  -31.9233   22.9149 C   0  0  0  0  0  0  0  0  0  0  0  0
  -22.1761  -29.3939   21.6305 C   0  0  0  0  0  0  0  0  0  0  0  0
  -21.0449  -26.8373   19.6755 C   0  0  0  0  0  0  0  0  0  0  0  0
  -31.0569  -13.9512   20.8351 C   0  0  0  0  0  0  0  0  0  0  0  0
  -19.9761  -35.6483   23.8329 C   0  0  0  0  0  0  0  0  0  0  0  0
  -25.0628  -31.8268   21.1258 C   0  0  0  0  0  0  0  0  0  0  0  0
  -24.6972  -29.0995   21.7642 C   0  0  0  0  0  0  0  0  0  0  0  0
  -19.9133  -34.1293   23.6959 C   0  0  0  0  0  0  0  0  0  0  0  0
  -29.2014  -12.9091   17.9806 C   0  0  0  0  0  0  0  0  0  0  0  0
  -20.9941  -33.4713   24.5478 C   0  0  0  0  0  0  0  0  0  0  0  0
  -27.7958  -12.6584   18.5296 C   0  0  0  0  0  0  0  0  0  0  0  0
  -29.4408  -24.4871   18.6670 C   0  0  0  0  0  0  0  0  0  0  0  0
  -29.5933  -25.7811   20.8403 C   0  0  0  0  0  0  0  0  0  0  0  0
  -28.9466  -25.7450   17.9566 C   0  0  0  0  0  0  0  0  0  0  0  0
  -29.0984  -27.0357   20.1248 C   0  0  0  0  0  0  0  0  0  0  0  0
  -30.2795  -12.5019   18.9826 C   0  0  0  0  0  0  0  0  0  0  0  0
  -28.7348  -12.8543   20.8703 C   0  0  0  0  0  0  0  0  0  0  0  0
  -22.3938  -33.8997   24.0909 C   0  0  1  0  0  0  0  0  0  0  0  0
  -23.6569  -31.3708   21.5556 C   0  0  1  0  0  0  0  0  0  0  0  0
  -27.6129  -13.3014   19.9175 C   0  0  2  0  0  0  0  0  0  0  0  0
  -30.3129  -24.8493   19.8674 C   0  0  0  0  0  0  0  0  0  0  0  0
  -28.2264  -26.6900   18.9174 C   0  0  0  0  0  0  0  0  0  1  0  0
  -19.0937  -25.2837   19.3990 C   0  0  0  0  0  0  0  0  0  0  0  0
  -23.1425  -27.7610   24.0187 C   0  0  0  0  0  0  0  0  0  0  0  0
  -21.8263  -25.8228   23.1359 C   0  0  0  0  0  0  0  0  0  0  0  0
  -20.6562  -27.9227   23.8025 C   0  0  0  0  0  0  0  0  0  0  0  0
  -20.4670  -27.8600   16.9591 C   0  0  0  0  0  0  0  0  0  0  0  0
  -31.9464  -23.7599   21.3989 C   0  0  0  0  0  0  0  0  0  0  0  0
  -30.1198  -17.4318   22.6411 C   0  0  0  0  0  0  0  0  0  0  0  0
  -29.5584  -23.0544   21.4201 C   0  0  0  0  0  0  0  0  0  0  0  0
  -31.5258  -16.8582   22.3757 C   0  0  0  0  0  0  0  0  0  0  0  0
  -31.6872  -15.3884   22.7577 C   0  0  0  0  0  0  0  0  0  0  0  0
  -22.0409  -27.8933   21.6874 C   0  0  1  0  0  0  0  0  0  0  0  0
  -19.7119  -26.6103   18.9856 C   0  0  2  0  0  0  0  0  0  0  0  0
  -21.9363  -27.3625   23.1450 C   0  0  0  0  0  0  0  0  0  0  0  0
  -26.0649  -11.9474   21.2787 N   0  0  0  0  0  0  0  0  0  0  0  0
  -26.2349  -13.0204   20.4875 N   0  0  0  0  0  0  0  0  0  0  0  0
  -23.4753  -29.9141   21.6743 N   0  0  0  0  0  0  0  0  0  0  0  0
  -30.0491  -13.1472   20.2774 N   0  0  0  0  0  0  0  0  0  0  0  0
  -25.0908  -14.8572   19.5243 N   0  0  0  0  0  0  0  0  0  0  0  0
  -21.8676  -12.7372   21.8722 N   0  0  0  0  0  0  0  0  0  0  0  0
  -22.7758  -33.1830   22.8930 N   0  0  0  0  0  0  0  0  0  0  0  0
  -20.8995  -27.5540   20.8445 N   0  0  0  0  0  0  0  0  0  0  0  0
  -30.7545  -14.5304   22.0614 N   0  0  0  0  0  0  0  0  0  0  0  0
  -19.8887  -26.6056   17.5059 N   0  3  0  0  0  0  0  0  0  0  0  0
  -30.6876  -23.6015   20.5840 N   0  3  1  0  0  0  0  0  0  0  0  0
  -22.3019  -14.5195   20.4962 O   0  0  0  0  0  0  0  0  0  0  0  0
  -23.5960  -31.2561   23.9113 O   0  0  0  0  0  0  0  0  0  0  0  0
  -21.1588  -30.0886   21.5550 O   0  0  0  0  0  0  0  0  0  0  0  0
  -22.1084  -26.4175   19.2246 O   0  0  0  0  0  0  0  0  0  0  0  0
  -32.1434  -14.1432   20.2788 O   0  0  0  0  0  0  0  0  0  0  0  0
  -22.5094   -8.1114   24.9104 O   0  0  0  0  0  0  0  0  0  0  0  0
  -27.8887  -27.8810   18.2147 O   0  0  0  0  0  0  0  0  0  1  0  0
  -21.5713   -3.1302   22.7397 F   0  0  0  0  0  0  0  0  0  0  0  0
  -19.9535   -7.0614   24.8216 F   0  0  0  0  0  0  0  0  0  0  0  0
  -28.9396  -21.0701   19.1407 Cl  0  0  0  0  0  0  0  0  0  0  0  0
  1  2  1  0  0  0  0
  1  5  2  0  0  0  0
  2  6  2  0  0  0  0
  3 10  2  0  0  0  0
  3 18  1  0  0  0  0
  4 11  1  0  0  0  0
  4 18  2  0  0  0  0
  5 20  1  0  0  0  0
  6 22  1  0  0  0  0
  7 12  2  0  0  0  0
  7 21  1  0  0  0  0
  8  9  2  0  0  0  0
  8 24  1  0  0  0  0
  9 25  1  0  0  0  0
 10 26  1  0  0  0  0
 11 26  2  0  0  0  0
 12 27  1  0  0  0  0
 13 14  2  0  0  0  0
 13 28  1  0  0  0  0
 14 29  1  0  0  0  0
 15 23  1  0  0  0  0
 15 27  2  0  0  0  0
 16 24  2  0  0  0  0
 16 31  1  0  0  0  0
 17 29  2  0  0  0  0
 17 30  1  0  0  0  0
 18 32  1  0  0  0  0
 19 32  1  0  0  0  0
 19 33  2  0  0  0  0
 19 34  1  0  0  0  0
 20 22  2  0  0  0  0
 20 39  1  0  0  0  0
 21 23  2  0  0  0  0
 21 40  1  0  0  0  0
 22 52  1  0  0  0  0
 23 41  1  0  0  0  0
 24 63  1  0  0  0  0
 25 31  2  0  0  0  0
 25 64  1  0  0  0  0
 26 86  1  0  0  0  0
 27 87  1  0  0  0  0
 28 30  2  0  0  0  0
 28 86  1  0  0  0  0
 29 88  1  0  0  0  0
 30 89  1  0  0  0  0
 31 90  1  0  0  0  0
 32 70  2  0  0  0  0
 33 71  1  0  0  0  0
 33 74  1  0  0  0  0
 34 75  1  0  0  0  0
 34 81  2  0  0  0  0
 35 53  1  0  0  0  0
 35 76  1  0  0  0  0
 35 82  2  0  0  0  0
 36 67  1  0  0  0  0
 36 72  1  0  0  0  0
 36 83  2  0  0  0  0
 37 68  1  0  0  0  0
 37 77  1  0  0  0  0
 37 84  2  0  0  0  0
 38 73  1  0  0  0  0
 38 78  1  0  0  0  0
 38 85  2  0  0  0  0
 39 42  1  0  0  0  0
 40 53  1  0  0  0  0
 41 72  1  0  0  0  0
 42 44  1  0  0  0  0
 43 45  1  0  0  0  0
 43 50  1  0  0  0  0
 44 52  1  0  0  0  0
 45 54  1  0  0  0  0
 46 48  1  0  0  0  0
 46 55  1  0  0  0  0
 47 49  1  0  0  0  0
 47 55  1  0  0  0  0
 48 56  1  0  0  0  0
 49 56  1  0  0  0  0
 50 73  1  0  0  0  0
 51 54  1  0  0  0  0
 51 73  1  0  0  0  0
 52 76  1  0  0  0  0
 53 72  1  0  0  0  0
 54 71  1  0  0  0  0
 55 80  1  0  0  0  0
 56 87  1  0  0  0  0
 57 68  1  0  0  0  0
 58 69  1  0  0  0  0
 59 69  1  0  0  0  0
 60 69  1  0  0  0  0
 61 79  1  0  0  0  0
 62 80  1  0  0  0  0
 63 65  1  0  0  0  0
 64 80  1  0  0  0  0
 65 66  1  0  0  0  0
 66 78  1  0  0  0  0
 67 69  1  0  0  0  0
 67 77  1  0  0  0  0
 68 79  1  0  0  0  0
 70 71  1  0  0  0  0
M  CHG  2  79   1  80   1
M  ISO  4  38 100  56 101  78 100  87 101
M  END
> <Batch ID>
0030

> <Smiles>
CNC(C)C(=O)NC(C(=O)N1Cc2cc([101O:1][101CH:1]3CCC(N(C)Cc4ccc(CCC[100NH:0][100C:0](=O)N5CCCC(n6nc(-c7ccc(Oc8ccc(F)cc8F)cc7)c(C(N)=O)c6N)C5)cc4Cl)CC3)ccc2CC1C(=O)NC1CCCc2ccccc21)C(C)(C)C

> <Shape>
0.339

> <Color>
0.159

> <Negative vol penalty>
0.000

$$$$

  -OEChem-04052316393D

 82 90  0     1  0  0  0  0  0999 V2000
  -26.5419  -25.7722   24.2780 C   0  0  0  0  0  0  0  0  0  0  0  0
  -25.2580  -25.4483   23.8510 C   0  0  0  0  0  0  0  0  0  0  0  0
  -25.7372  -28.5121   21.5666 C   0  0  0  0  0  0  0  0  0  0  0  0
  -25.0900  -28.0178   19.2920 C   0  0  0  0  0  0  0  0  0  0  0  0
  -27.6418  -25.0969   23.7507 C   0  0  0  0  0  0  0  0  0  0  0  0
  -25.0735  -24.4495   22.8956 C   0  0  0  0  0  0  0  0  0  0  0  0
  -20.4054  -20.5001   22.5531 C   0  0  0  0  0  0  0  0  0  0  0  0
  -26.9854  -27.9333   21.3373 C   0  0  0  0  0  0  0  0  0  0  0  0
  -26.3383  -27.4391   19.0626 C   0  0  0  0  0  0  0  0  0  0  0  0
  -19.2405  -20.4889   21.7871 C   0  0  0  0  0  0  0  0  0  0  0  0
  -29.4854  -28.4850   18.4132 C   0  0  0  0  0  0  0  0  0  0  0  0
  -30.1423  -28.8135   17.2274 C   0  0  0  0  0  0  0  0  0  0  0  0
  -20.3253  -19.0662   20.1690 C   0  0  0  0  0  0  0  0  0  0  0  0
  -15.7072  -23.6647   18.8209 C   0  0  0  0  0  0  0  0  0  0  0  0
  -18.0262  -22.5779   17.7146 C   0  0  0  0  0  0  0  0  0  0  0  0
  -30.1417  -26.4853   16.5822 C   0  0  0  0  0  0  0  0  0  0  0  0
  -24.7895  -28.5543   20.5440 C   0  0  0  0  0  0  0  0  0  0  0  0
  -23.1390  -30.4989   20.5902 C   0  0  0  0  0  0  0  0  0  0  0  0
  -27.4699  -24.0827   22.7954 C   0  0  0  0  0  0  0  0  0  0  0  0
  -21.5444  -19.8021   22.1266 C   0  0  0  0  0  0  0  0  0  0  0  0
  -26.1722  -23.7609   22.3541 C   0  0  0  0  0  0  0  0  0  0  0  0
  -21.5026  -19.0680   20.9327 C   0  0  0  0  0  0  0  0  0  0  0  0
  -15.7812  -22.2962   18.5618 C   0  0  0  0  0  0  0  0  0  0  0  0
  -16.7927  -24.4899   18.5268 C   0  0  0  0  0  0  0  0  0  0  0  0
  -16.9406  -21.7527   18.0087 C   0  0  0  0  0  0  0  0  0  0  0  0
  -27.2860  -27.3969   20.0852 C   0  0  0  0  0  0  0  0  0  0  0  0
  -19.2013  -19.7742   20.5935 C   0  0  0  0  0  0  0  0  0  0  0  0
  -29.1568  -27.1566   18.6836 C   0  0  0  0  0  0  0  0  0  0  0  0
  -30.4704  -27.8137   16.3119 C   0  0  0  0  0  0  0  0  0  0  0  0
  -29.4849  -26.1568   17.7680 C   0  0  0  0  0  0  0  0  0  0  0  0
  -17.9522  -23.9465   17.9737 C   0  0  0  0  0  0  0  0  0  0  0  0
  -23.4997  -29.1515   20.7805 C   0  0  0  0  0  0  0  0  0  0  0  0
  -21.8157  -30.5547   20.9537 C   0  0  0  0  0  0  0  0  0  0  0  0
  -23.9295  -31.6014   20.1262 C   0  0  0  0  0  0  0  0  0  0  0  0
  -24.5114  -20.6219   21.3336 C   0  0  0  0  0  0  0  0  0  0  0  0
  -24.9408  -17.4104   21.1768 C   0  0  0  0  0  0  0  0  0  0  0  0
  -23.5563  -14.3193   20.7585 C   0  0  0  0  0  0  0  0  0  0  0  0
  -17.4564  -26.4535   21.1201 C   0  0  0  0  0  0  0  0  0  0  0  0
  -28.6925  -23.4132   22.2195 C   0  0  0  0  0  0  0  0  0  0  0  0
  -22.7847  -19.8024   22.9776 C   0  0  0  0  0  0  0  0  0  0  0  0
  -22.6918  -18.2856   20.4408 C   0  0  0  0  0  0  0  0  0  0  0  0
  -28.3850  -22.1097   21.4869 C   0  0  0  0  0  0  0  0  0  0  0  0
  -18.6305  -28.4410   23.8308 C   0  0  0  0  0  0  0  0  0  0  0  0
  -27.1924  -22.2907   20.5531 C   0  0  0  0  0  0  0  0  0  0  0  0
  -19.9790  -28.9701   23.3393 C   0  0  0  0  0  0  0  0  0  0  0  0
  -18.3754  -27.0138   23.3512 C   0  0  0  0  0  0  0  0  0  0  0  0
  -19.8474  -27.3476   21.4030 C   0  0  0  0  0  0  0  0  0  0  0  0
  -25.9295  -22.6663   21.3376 C   0  0  1  0  0  0  0  0  0  0  0  0
  -24.0499  -19.4767   22.1899 C   0  0  1  0  0  0  0  0  0  0  0  0
  -20.1246  -28.8036   21.8147 C   0  0  2  0  0  0  0  0  0  0  0  0
  -14.6062  -21.4317   18.8824 C   0  0  0  0  0  0  0  0  0  0  0  0
  -24.1650  -11.8876   20.6420 C   0  0  0  0  0  0  0  0  0  0  0  0
  -26.0227  -17.8189   18.3532 C   0  0  0  0  0  0  0  0  0  0  0  0
  -25.7153  -15.3662   17.9556 C   0  0  0  0  0  0  0  0  0  0  0  0
  -27.2881  -16.1537   19.7244 C   0  0  0  0  0  0  0  0  0  0  0  0
  -21.8815  -13.6682   23.1101 C   0  0  0  0  0  0  0  0  0  0  0  0
  -17.0426  -20.2752   17.7171 C   0  0  0  0  0  0  0  0  0  0  0  0
  -16.6735  -25.9508   18.8193 C   0  0  0  0  0  0  0  0  0  0  0  0
  -18.2211  -19.6231   18.4319 C   0  0  0  0  0  0  0  0  0  1  0  0
  -24.7965  -16.3640   20.0983 C   0  0  1  0  0  0  0  0  0  0  0  0
  -23.7175  -13.0290   21.5418 C   0  0  2  0  0  0  0  0  0  0  0  0
  -25.9337  -16.4419   19.0409 C   0  0  0  0  0  0  0  0  0  0  0  0
  -22.4873  -28.4053   21.2302 N   0  0  0  0  0  0  0  0  0  0  0  0
  -21.4775  -29.2869   21.3255 N   0  0  0  0  0  0  0  0  0  0  0  0
  -23.8832  -18.3220   21.3049 N   0  0  0  0  0  0  0  0  0  0  0  0
  -18.5277  -26.9244   21.8970 N   0  0  0  0  0  0  0  0  0  0  0  0
  -20.9201  -31.5642   20.9885 N   0  0  0  0  0  0  0  0  0  0  0  0
  -25.2715  -31.3690   19.7956 N   0  0  0  0  0  0  0  0  0  0  0  0
  -25.3654  -21.4971   21.9772 N   0  0  0  0  0  0  0  0  0  0  0  0
  -24.7061  -15.0799   20.7850 N   0  0  0  0  0  0  0  0  0  0  0  0
  -17.6821  -26.4064   19.7498 N   0  0  0  0  0  0  0  0  0  0  0  0
  -22.4265  -12.6459   22.1801 N   0  3  0  0  0  0  0  0  0  0  0  0
  -23.4641  -32.7618   20.0238 O   0  0  0  0  0  0  0  0  0  0  0  0
  -24.1227  -20.7045   20.1744 O   0  0  0  0  0  0  0  0  0  0  0  0
  -25.9513  -17.4144   21.8842 O   0  0  0  0  0  0  0  0  0  0  0  0
  -22.5158  -14.6205   20.1778 O   0  0  0  0  0  0  0  0  0  0  0  0
  -16.3768  -26.1062   21.6107 O   0  0  0  0  0  0  0  0  0  0  0  0
  -28.5039  -26.8322   19.8610 O   0  0  0  0  0  0  0  0  0  0  0  0
  -18.0657  -19.7622   19.8436 O   0  0  0  0  0  0  0  0  0  1  0  0
  -31.0999  -28.1294   15.1724 F   0  0  0  0  0  0  0  0  0  0  0  0
  -29.1707  -24.8790   18.0217 F   0  0  0  0  0  0  0  0  0  0  0  0
  -19.3151  -24.9362   17.5965 Cl  0  0  0  0  0  0  0  0  0  0  0  0
  1  2  1  0  0  0  0
  1  5  2  0  0  0  0
  2  6  2  0  0  0  0
  3  8  2  0  0  0  0
  3 17  1  0  0  0  0
  4  9  1  0  0  0  0
  4 17  2  0  0  0  0
  5 19  1  0  0  0  0
  6 21  1  0  0  0  0
  7 10  2  0  0  0  0
  7 20  1  0  0  0  0
  8 26  1  0  0  0  0
  9 26  2  0  0  0  0
 10 27  1  0  0  0  0
 11 12  2  0  0  0  0
 11 28  1  0  0  0  0
 12 29  1  0  0  0  0
 13 22  1  0  0  0  0
 13 27  2  0  0  0  0
 14 23  1  0  0  0  0
 14 24  2  0  0  0  0
 15 25  1  0  0  0  0
 15 31  2  0  0  0  0
 16 29  2  0  0  0  0
 16 30  1  0  0  0  0
 17 32  1  0  0  0  0
 18 32  1  0  0  0  0
 18 33  2  0  0  0  0
 18 34  1  0  0  0  0
 19 21  2  0  0  0  0
 19 39  1  0  0  0  0
 20 22  2  0  0  0  0
 20 40  1  0  0  0  0
 21 48  1  0  0  0  0
 22 41  1  0  0  0  0
 23 25  2  0  0  0  0
 23 51  1  0  0  0  0
 24 31  1  0  0  0  0
 24 58  1  0  0  0  0
 25 57  1  0  0  0  0
 26 78  1  0  0  0  0
 27 79  1  0  0  0  0
 28 30  2  0  0  0  0
 28 78  1  0  0  0  0
 29 80  1  0  0  0  0
 30 81  1  0  0  0  0
 31 82  1  0  0  0  0
 32 63  2  0  0  0  0
 33 64  1  0  0  0  0
 33 67  1  0  0  0  0
 34 68  1  0  0  0  0
 34 73  2  0  0  0  0
 35 49  1  0  0  0  0
 35 69  1  0  0  0  0
 35 74  2  0  0  0  0
 36 60  1  0  0  0  0
 36 65  1  0  0  0  0
 36 75  2  0  0  0  0
 37 61  1  0  0  0  0
 37 70  1  0  0  0  0
 37 76  2  0  0  0  0
 38 66  1  0  0  0  0
 38 71  1  0  0  0  0
 38 77  2  0  0  0  0
 39 42  1  0  0  0  0
 40 49  1  0  0  0  0
 41 65  1  0  0  0  0
 42 44  1  0  0  0  0
 43 45  1  0  0  0  0
 43 46  1  0  0  0  0
 44 48  1  0  0  0  0
 45 50  1  0  0  0  0
 46 66  1  0  0  0  0
 47 50  1  0  0  0  0
 47 66  1  0  0  0  0
 48 69  1  0  0  0  0
 49 65  1  0  0  0  0
 50 64  1  0  0  0  0
 52 61  1  0  0  0  0
 53 62  1  0  0  0  0
 54 62  1  0  0  0  0
 55 62  1  0  0  0  0
 56 72  1  0  0  0  0
 57 59  1  0  0  0  0
 58 71  1  0  0  0  0
 59 79  1  0  0  0  0
 60 62  1  0  0  0  0
 60 70  1  0  0  0  0
 61 72  1  0  0  0  0
 63 64  1  0  0  0  0
M  CHG  1  72   1
M  ISO  4  38 100  59 101  71 100  79 101
M  END
> <Batch ID>
0030

> <Smiles>
CNC(C)C(=O)NC(C(=O)N1Cc2cc([101O:1][101CH2:1]Cc3cc(Cl)c(C[100NH:0][100C:0](=O)N4CCCC(n5nc(-c6ccc(Oc7ccc(F)cc7F)cc6)c(C(N)=O)c5N)C4)cc3C)ccc2CC1C(=O)NC1CCCc2ccccc21)C(C)(C)C

> <Shape>
0.168

> <Color>
0.100

> <Negative vol penalty>
0.000

$$$$

  -OEChem-04052316393D

 83 91  0     1  0  0  0  0  0999 V2000
  -28.3832  -11.3568   20.9775 C   0  0  0  0  0  0  0  0  0  0  0  0
  -28.7206  -12.6169   20.4941 C   0  0  0  0  0  0  0  0  0  0  0  0
  -22.7412  -27.6292   22.9026 C   0  0  0  0  0  0  0  0  0  0  0  0
  -23.3077  -29.2670   21.2192 C   0  0  0  0  0  0  0  0  0  0  0  0
  -27.0424  -11.0039   21.1247 C   0  0  0  0  0  0  0  0  0  0  0  0
  -27.7173  -13.5246   20.1566 C   0  0  0  0  0  0  0  0  0  0  0  0
  -28.6536  -18.1893   21.8911 C   0  0  0  0  0  0  0  0  0  0  0  0
  -21.6357  -28.3941   23.2747 C   0  0  0  0  0  0  0  0  0  0  0  0
  -22.2021  -30.0319   21.5913 C   0  0  0  0  0  0  0  0  0  0  0  0
  -29.5770  -18.9581   21.1840 C   0  0  0  0  0  0  0  0  0  0  0  0
  -18.4595  -29.7367   24.4253 C   0  0  0  0  0  0  0  0  0  0  0  0
  -17.2496  -29.0726   24.6268 C   0  0  0  0  0  0  0  0  0  0  0  0
  -27.7657  -20.1250   20.0992 C   0  0  0  0  0  0  0  0  0  0  0  0
  -33.6346  -24.1593   19.1256 C   0  0  0  0  0  0  0  0  0  0  0  0
  -17.2924  -28.2999   22.3381 C   0  0  0  0  0  0  0  0  0  0  0  0
  -23.5772  -28.0657   21.8748 C   0  0  0  0  0  0  0  0  0  0  0  0
  -24.7623  -26.2608   20.5163 C   0  0  0  0  0  0  0  0  0  0  0  0
  -26.0223  -11.9112   20.7979 C   0  0  0  0  0  0  0  0  0  0  0  0
  -27.2770  -18.3754   21.6992 C   0  0  0  0  0  0  0  0  0  0  0  0
  -26.3616  -13.1830   20.2983 C   0  0  0  0  0  0  0  0  0  0  0  0
  -26.8269  -19.3590   20.8071 C   0  0  0  0  0  0  0  0  0  0  0  0
  -32.4834  -24.6172   18.4847 C   0  0  0  0  0  0  0  0  0  0  0  0
  -32.9860  -21.8788   18.6612 C   0  0  0  0  0  0  0  0  0  0  0  0
  -31.8349  -22.3367   18.0203 C   0  0  0  0  0  0  0  0  0  0  0  0
  -21.3662  -29.5954   22.6191 C   0  0  0  0  0  0  0  0  0  0  0  0
  -29.1331  -19.9242   20.2857 C   0  0  0  0  0  0  0  0  0  0  0  0
  -19.0858  -29.6826   23.1801 C   0  0  0  0  0  0  0  0  0  0  0  0
  -16.6661  -28.3542   23.5833 C   0  0  0  0  0  0  0  0  0  0  0  0
  -18.5023  -28.9642   22.1365 C   0  0  0  0  0  0  0  0  0  0  0  0
  -33.8859  -22.7901   19.2139 C   0  0  0  0  0  0  0  0  0  0  0  0
  -31.5836  -23.7059   17.9321 C   0  0  0  0  0  0  0  0  0  0  0  0
  -24.7197  -27.2764   21.4903 C   0  0  0  0  0  0  0  0  0  0  0  0
  -26.0651  -25.8260   20.5305 C   0  0  0  0  0  0  0  0  0  0  0  0
  -23.7178  -25.7557   19.6741 C   0  0  0  0  0  0  0  0  0  0  0  0
  -24.8925  -16.5553   20.6482 C   0  0  0  0  0  0  0  0  0  0  0  0
  -23.0807  -19.0967   21.5320 C   0  0  0  0  0  0  0  0  0  0  0  0
  -22.8961  -22.4476   22.1514 C   0  0  0  0  0  0  0  0  0  0  0  0
  -31.5449  -26.8755   20.6592 C   0  0  0  0  0  0  0  0  0  0  0  0
  -24.5868  -11.4675   20.9293 C   0  0  0  0  0  0  0  0  0  0  0  0
  -26.2937  -17.5563   22.4895 C   0  0  0  0  0  0  0  0  0  0  0  0
  -25.3596  -19.6120   20.5800 C   0  0  0  0  0  0  0  0  0  0  0  0
  -23.5878  -12.6215   20.9030 C   0  0  0  0  0  0  0  0  0  0  0  0
  -29.8236  -26.7931   23.7748 C   0  0  0  0  0  0  0  0  0  0  0  0
  -23.9120  -13.5824   19.7635 C   0  0  0  0  0  0  0  0  0  0  0  0
  -28.3468  -26.8340   23.3780 C   0  0  0  0  0  0  0  0  0  0  0  0
  -30.6811  -27.6513   22.8474 C   0  0  0  0  0  0  0  0  0  0  0  0
  -29.0542  -27.3923   21.0144 C   0  0  0  0  0  0  0  0  0  0  0  0
  -25.3020  -14.2041   19.9448 C   0  0  1  0  0  0  0  0  0  0  0  0
  -24.9184  -17.4777   21.8340 C   0  0  1  0  0  0  0  0  0  0  0  0
  -28.1573  -26.4973   21.8867 C   0  0  2  0  0  0  0  0  0  0  0  0
  -33.2459  -20.4065   18.7483 C   0  0  0  0  0  0  0  0  0  0  0  0
  -21.2728  -24.2409   22.8194 C   0  0  0  0  0  0  0  0  0  0  0  0
  -21.9084  -19.0815   18.7150 C   0  0  0  0  0  0  0  0  0  0  0  0
  -21.0503  -21.3957   19.1347 C   0  0  0  0  0  0  0  0  0  0  0  0
  -20.2441  -19.4954   20.5353 C   0  0  0  0  0  0  0  0  0  0  0  0
  -24.4230  -23.0768   24.6073 C   0  0  0  0  0  0  0  0  0  0  0  0
  -30.8715  -21.3369   17.4280 C   0  0  0  0  0  0  0  0  0  0  0  0
  -32.2557  -26.0933   18.4137 C   0  0  0  0  0  0  0  0  0  0  0  0
  -29.6380  -21.1330   18.3009 C   0  0  0  0  0  0  0  0  0  1  0  0
  -22.6004  -20.3556   20.8512 C   0  0  1  0  0  0  0  0  0  0  0  0
  -22.2954  -23.2267   23.3075 C   0  0  2  0  0  0  0  0  0  0  0  0
  -21.4785  -20.0762   19.8117 C   0  0  0  0  0  0  0  0  0  0  0  0
  -25.9014  -27.4749   22.0804 N   0  0  0  0  0  0  0  0  0  0  0  0
  -26.6988  -26.5780   21.4755 N   0  0  0  0  0  0  0  0  0  0  0  0
  -24.4373  -18.7812   21.3716 N   0  0  0  0  0  0  0  0  0  0  0  0
  -30.4557  -27.2807   21.4482 N   0  0  0  0  0  0  0  0  0  0  0  0
  -26.7190  -24.8775   19.8267 N   0  0  0  0  0  0  0  0  0  0  0  0
  -22.4378  -26.3151   19.7887 N   0  0  0  0  0  0  0  0  0  0  0  0
  -25.2599  -15.2552   20.9386 N   0  0  0  0  0  0  0  0  0  0  0  0
  -22.2125  -21.2733   21.9169 N   0  0  0  0  0  0  0  0  0  0  0  0
  -31.2429  -26.5354   19.3462 N   0  0  0  0  0  0  0  0  0  0  0  0
  -23.3620  -23.9552   24.0509 N   0  3  0  0  0  0  0  0  0  0  0  0
  -23.9097  -24.8243   18.8560 O   0  0  0  0  0  0  0  0  0  0  0  0
  -24.5621  -16.9905   19.5513 O   0  0  0  0  0  0  0  0  0  0  0  0
  -22.2831  -18.4220   22.1880 O   0  0  0  0  0  0  0  0  0  0  0  0
  -23.8717  -22.8432   21.5172 O   0  0  0  0  0  0  0  0  0  0  0  0
  -32.6999  -26.8157   21.0942 O   0  0  0  0  0  0  0  0  0  0  0  0
  -20.2874  -30.3418   22.9818 O   0  0  0  0  0  0  0  0  0  0  0  0
  -30.0323  -20.6755   19.5938 O   0  0  0  0  0  0  0  0  0  1  0  0
  -15.5050  -27.7151   23.7774 F   0  0  0  0  0  0  0  0  0  0  0  0
  -19.0999  -28.9075   20.9384 F   0  0  0  0  0  0  0  0  0  0  0  0
  -35.3234  -22.2648   20.0135 Cl  0  0  0  0  0  0  0  0  0  0  0  0
  -30.1544  -24.2790   17.1377 Cl  0  0  0  0  0  0  0  0  0  0  0  0
  1  2  1  0  0  0  0
  1  5  2  0  0  0  0
  2  6  2  0  0  0  0
  3  8  2  0  0  0  0
  3 16  1  0  0  0  0
  4  9  1  0  0  0  0
  4 16  2  0  0  0  0
  5 18  1  0  0  0  0
  6 20  1  0  0  0  0
  7 10  2  0  0  0  0
  7 19  1  0  0  0  0
  8 25  1  0  0  0  0
  9 25  2  0  0  0  0
 10 26  1  0  0  0  0
 11 12  2  0  0  0  0
 11 27  1  0  0  0  0
 12 28  1  0  0  0  0
 13 21  1  0  0  0  0
 13 26  2  0  0  0  0
 14 22  2  0  0  0  0
 14 30  1  0  0  0  0
 15 28  2  0  0  0  0
 15 29  1  0  0  0  0
 16 32  1  0  0  0  0
 17 32  1  0  0  0  0
 17 33  2  0  0  0  0
 17 34  1  0  0  0  0
 18 20  2  0  0  0  0
 18 39  1  0  0  0  0
 19 21  2  0  0  0  0
 19 40  1  0  0  0  0
 20 48  1  0  0  0  0
 21 41  1  0  0  0  0
 22 31  1  0  0  0  0
 22 58  1  0  0  0  0
 23 24  1  0  0  0  0
 23 30  2  0  0  0  0
 23 51  1  0  0  0  0
 24 31  2  0  0  0  0
 24 57  1  0  0  0  0
 25 78  1  0  0  0  0
 26 79  1  0  0  0  0
 27 29  2  0  0  0  0
 27 78  1  0  0  0  0
 28 80  1  0  0  0  0
 29 81  1  0  0  0  0
 30 82  1  0  0  0  0
 31 83  1  0  0  0  0
 32 63  2  0  0  0  0
 33 64  1  0  0  0  0
 33 67  1  0  0  0  0
 34 68  1  0  0  0  0
 34 73  2  0  0  0  0
 35 49  1  0  0  0  0
 35 69  1  0  0  0  0
 35 74  2  0  0  0  0
 36 60  1  0  0  0  0
 36 65  1  0  0  0  0
 36 75  2  0  0  0  0
 37 61  1  0  0  0  0
 37 70  1  0  0  0  0
 37 76  2  0  0  0  0
 38 66  1  0  0  0  0
 38 71  1  0  0  0  0
 38 77  2  0  0  0  0
 39 42  1  0  0  0  0
 40 49  1  0  0  0  0
 41 65  1  0  0  0  0
 42 44  1  0  0  0  0
 43 45  1  0  0  0  0
 43 46  1  0  0  0  0
 44 48  1  0  0  0  0
 45 50  1  0  0  0  0
 46 66  1  0  0  0  0
 47 50  1  0  0  0  0
 47 66  1  0  0  0  0
 48 69  1  0  0  0  0
 49 65  1  0  0  0  0
 50 64  1  0  0  0  0
 52 61  1  0  0  0  0
 53 62  1  0  0  0  0
 54 62  1  0  0  0  0
 55 62  1  0  0  0  0
 56 72  1  0  0  0  0
 57 59  1  0  0  0  0
 58 71  1  0  0  0  0
 59 79  1  0  0  0  0
 60 62  1  0  0  0  0
 60 70  1  0  0  0  0
 61 72  1  0  0  0  0
 63 64  1  0  0  0  0
M  CHG  1  72   1
M  ISO  4  38 100  59 101  71 100  79 101
M  END
> <Batch ID>
0030

> <Smiles>
CNC(C)C(=O)NC(C(=O)N1Cc2cc([101O:1][101CH2:1]Cc3c(C)c(Cl)cc(C[100NH:0][100C:0](=O)N4CCCC(n5nc(-c6ccc(Oc7ccc(F)cc7F)cc6)c(C(N)=O)c5N)C4)c3Cl)ccc2CC1C(=O)NC1CCCc2ccccc21)C(C)(C)C

> <Shape>
0.207

> <Color>
0.059

> <Negative vol penalty>
0.000

$$$$

  -OEChem-04052316393D

 89 98  0     1  0  0  0  0  0999 V2000
  -29.0194  -36.9627   26.1721 C   0  0  0  0  0  0  0  0  0  0  0  0
  -29.1171  -35.5759   26.1207 C   0  0  0  0  0  0  0  0  0  0  0  0
  -23.6609   -9.5655   20.9509 C   0  0  0  0  0  0  0  0  0  0  0  0
  -25.2211   -9.8066   22.7797 C   0  0  0  0  0  0  0  0  0  0  0  0
  -27.7862  -37.5814   25.9710 C   0  0  0  0  0  0  0  0  0  0  0  0
  -27.9813  -34.8069   25.8691 C   0  0  0  0  0  0  0  0  0  0  0  0
  -28.8334  -31.1303   22.4925 C   0  0  0  0  0  0  0  0  0  0  0  0
  -23.2794   -8.3166   21.4409 C   0  0  0  0  0  0  0  0  0  0  0  0
  -24.8395   -8.5577   23.2699 C   0  0  0  0  0  0  0  0  0  0  0  0
  -29.4959  -29.9905   22.9459 C   0  0  0  0  0  0  0  0  0  0  0  0
  -21.2890   -7.1040   23.8906 C   0  0  0  0  0  0  0  0  0  0  0  0
  -19.9251   -6.8162   23.9404 C   0  0  0  0  0  0  0  0  0  0  0  0
  -27.3837  -28.8376   23.1155 C   0  0  0  0  0  0  0  0  0  0  0  0
  -28.1822  -21.1132   24.2125 C   0  0  0  0  0  0  0  0  0  0  0  0
  -20.2679   -4.9356   22.4629 C   0  0  0  0  0  0  0  0  0  0  0  0
  -25.5877  -21.3620   25.1002 C   0  0  0  0  0  0  0  0  0  0  0  0
  -24.6318  -10.3105   21.6202 C   0  0  0  0  0  0  0  0  0  0  0  0
  -24.2049  -12.7278   20.9258 C   0  0  0  0  0  0  0  0  0  0  0  0
  -26.6366  -36.8201   25.7072 C   0  0  0  0  0  0  0  0  0  0  0  0
  -27.4376  -31.1359   22.3574 C   0  0  0  0  0  0  0  0  0  0  0  0
  -26.7314  -35.4160   25.6656 C   0  0  0  0  0  0  0  0  0  0  0  0
  -26.7061  -29.9780   22.6578 C   0  0  0  0  0  0  0  0  0  0  0  0
  -27.4333  -19.9716   24.4817 C   0  0  0  0  0  0  0  0  0  0  0  0
  -23.8687   -7.8127   22.6005 C   0  0  0  0  0  0  0  0  0  0  0  0
  -28.7708  -28.8448   23.2602 C   0  0  0  0  0  0  0  0  0  0  0  0
  -22.1424   -6.3076   23.1269 C   0  0  0  0  0  0  0  0  0  0  0  0
  -19.4146   -5.7320   23.2266 C   0  0  0  0  0  0  0  0  0  0  0  0
  -21.6319   -5.2234   22.4131 C   0  0  0  0  0  0  0  0  0  0  0  0
  -26.1217  -20.0925   24.9305 C   0  0  0  0  0  0  0  0  0  0  0  0
  -25.0268  -11.6005   21.1142 C   0  0  0  0  0  0  0  0  0  0  0  0
  -27.5961  -22.3569   24.4003 C   0  0  0  0  0  0  0  0  0  0  0  0
  -25.0500  -13.6897   20.4288 C   0  0  0  0  0  0  0  0  0  0  0  0
  -22.8029  -12.8909   21.1777 C   0  0  0  0  0  0  0  0  0  0  0  0
  -25.0630  -32.7874   23.6756 C   0  0  0  0  0  0  0  0  0  0  0  0
  -23.2621  -31.1805   21.5084 C   0  0  0  0  0  0  0  0  0  0  0  0
  -22.9020  -28.4456   19.4991 C   0  0  0  0  0  0  0  0  0  0  0  0
  -30.9624  -14.5357   20.8516 C   0  0  0  0  0  0  0  0  0  0  0  0
  -25.3168  -37.5313   25.5432 C   0  0  0  0  0  0  0  0  0  0  0  0
  -26.7405  -32.3649   21.8416 C   0  0  0  0  0  0  0  0  0  0  0  0
  -25.2081  -29.9259   22.5106 C   0  0  0  0  0  0  0  0  0  0  0  0
  -24.2318  -36.6637   24.9106 C   0  0  0  0  0  0  0  0  0  0  0  0
  -29.0576  -14.1899   17.8636 C   0  0  0  0  0  0  0  0  0  0  0  0
  -24.1977  -35.2877   25.5681 C   0  0  0  0  0  0  0  0  0  0  0  0
  -28.5066  -24.4943   25.4069 C   0  0  0  0  0  0  0  0  0  0  0  0
  -27.6842  -24.4685   23.0065 C   0  0  0  0  0  0  0  0  0  0  0  0
  -27.7344  -13.5888   18.3408 C   0  0  0  0  0  0  0  0  0  0  0  0
  -29.2667  -25.7880   25.1258 C   0  0  0  0  0  0  0  0  0  0  0  0
  -28.4490  -25.7620   22.7378 C   0  0  0  0  0  0  0  0  0  0  0  0
  -30.2437  -13.6437   18.6552 C   0  0  0  0  0  0  0  0  0  0  0  0
  -28.8005  -13.1728   20.5967 C   0  0  0  0  0  0  0  0  0  0  0  0
  -25.5268  -34.5488   25.3707 C   0  0  1  0  0  0  0  0  0  0  0  0
  -28.3439  -23.6499   24.1305 C   0  0  0  0  0  0  0  0  0  0  0  0
  -25.2669  -32.4241   22.2319 C   0  0  1  0  0  0  0  0  0  0  0  0
  -27.5695  -13.7352   19.8655 C   0  0  2  0  0  0  0  0  0  0  0  0
  -28.6118  -26.5955   24.0066 C   0  0  0  0  0  0  0  0  0  1  0  0
  -21.3068  -27.3918   17.8736 C   0  0  0  0  0  0  0  0  0  0  0  0
  -21.4926  -30.2869   23.8279 C   0  0  0  0  0  0  0  0  0  0  0  0
  -20.5337  -28.5272   22.3272 C   0  0  0  0  0  0  0  0  0  0  0  0
  -20.2492  -30.9393   21.7584 C   0  0  0  0  0  0  0  0  0  0  0  0
  -24.8753  -28.5791   17.2975 C   0  0  0  0  0  0  0  0  0  0  0  0
  -29.7372  -17.0653   23.7118 C   0  0  0  0  0  0  0  0  0  0  0  0
  -31.1756  -16.8512   23.2241 C   0  0  0  0  0  0  0  0  0  0  0  0
  -29.3734  -18.5438   23.8313 C   0  0  0  0  0  0  0  0  0  0  0  0
  -31.5419  -15.3742   23.1144 C   0  0  0  0  0  0  0  0  0  0  0  0
  -22.5227  -29.8644   21.4985 C   0  0  1  0  0  0  0  0  0  0  0  0
  -22.5053  -28.3130   18.0398 C   0  0  2  0  0  0  0  0  0  0  0  0
  -21.2276  -29.9057   22.3577 C   0  0  0  0  0  0  0  0  0  0  0  0
  -26.2965  -11.8240   20.7651 N   0  0  0  0  0  0  0  0  0  0  0  0
  -26.2788  -13.1028   20.3523 N   0  0  0  0  0  0  0  0  0  0  0  0
  -26.3311  -22.4445   24.8335 N   0  3  0  0  0  0  0  0  0  0  0  0
  -24.5716  -31.1549   22.0087 N   0  0  0  0  0  0  0  0  0  0  0  0
  -30.0252  -13.8146   20.0936 N   0  0  0  0  0  0  0  0  0  0  0  0
  -24.8545  -14.9718   20.0540 N   0  0  0  0  0  0  0  0  0  0  0  0
  -22.0847  -11.8013   21.6888 N   0  0  0  0  0  0  0  0  0  0  0  0
  -28.0300  -18.7053   24.2905 N   0  0  0  0  0  0  0  0  0  0  0  0
  -25.6091  -34.0058   24.0317 N   0  0  0  0  0  0  0  0  0  0  0  0
  -22.2987  -29.5326   20.0956 N   0  0  0  0  0  0  0  0  0  0  0  0
  -30.6761  -14.6560   22.2060 N   0  0  0  0  0  0  0  0  0  0  0  0
  -23.6371  -27.7599   17.2435 N   0  3  0  0  0  0  0  0  0  0  0  0
  -22.2014  -13.9659   20.9407 O   0  0  0  0  0  0  0  0  0  0  0  0
  -24.4541  -32.0198   24.4116 O   0  0  0  0  0  0  0  0  0  0  0  0
  -22.7011  -32.1926   21.0811 O   0  0  0  0  0  0  0  0  0  0  0  0
  -23.6672  -27.6610   20.0552 O   0  0  0  0  0  0  0  0  0  0  0  0
  -31.9764  -15.0398   20.3570 O   0  0  0  0  0  0  0  0  0  0  0  0
  -23.4964   -6.5941   23.0791 O   0  0  0  0  0  0  0  0  0  0  0  0
  -29.4150  -27.7311   23.7036 O   0  0  0  0  0  0  0  0  0  1  0  0
  -18.1050   -5.4549   23.2757 F   0  0  0  0  0  0  0  0  0  0  0  0
  -22.4470   -4.4540   21.6786 F   0  0  0  0  0  0  0  0  0  0  0  0
  -25.1406  -18.7205   25.2811 Cl  0  0  0  0  0  0  0  0  0  0  0  0
  1  2  1  0  0  0  0
  1  5  2  0  0  0  0
  2  6  2  0  0  0  0
  3  8  2  0  0  0  0
  3 17  1  0  0  0  0
  4  9  1  0  0  0  0
  4 17  2  0  0  0  0
  5 19  1  0  0  0  0
  6 21  1  0  0  0  0
  7 10  2  0  0  0  0
  7 20  1  0  0  0  0
  8 24  1  0  0  0  0
  9 24  2  0  0  0  0
 10 25  1  0  0  0  0
 11 12  2  0  0  0  0
 11 26  1  0  0  0  0
 12 27  1  0  0  0  0
 13 22  1  0  0  0  0
 13 25  2  0  0  0  0
 14 23  2  0  0  0  0
 14 31  1  0  0  0  0
 15 27  2  0  0  0  0
 15 28  1  0  0  0  0
 16 29  2  0  0  0  0
 16 70  1  0  0  0  0
 17 30  1  0  0  0  0
 18 30  1  0  0  0  0
 18 32  2  0  0  0  0
 18 33  1  0  0  0  0
 19 21  2  0  0  0  0
 19 38  1  0  0  0  0
 20 22  2  0  0  0  0
 20 39  1  0  0  0  0
 21 51  1  0  0  0  0
 22 40  1  0  0  0  0
 23 29  1  0  0  0  0
 23 75  1  0  0  0  0
 24 85  1  0  0  0  0
 25 86  1  0  0  0  0
 26 28  2  0  0  0  0
 26 85  1  0  0  0  0
 27 87  1  0  0  0  0
 28 88  1  0  0  0  0
 29 89  1  0  0  0  0
 30 68  2  0  0  0  0
 31 52  1  0  0  0  0
 31 70  2  0  0  0  0
 32 69  1  0  0  0  0
 32 73  1  0  0  0  0
 33 74  1  0  0  0  0
 33 80  2  0  0  0  0
 34 53  1  0  0  0  0
 34 76  1  0  0  0  0
 34 81  2  0  0  0  0
 35 65  1  0  0  0  0
 35 71  1  0  0  0  0
 35 82  2  0  0  0  0
 36 66  1  0  0  0  0
 36 77  1  0  0  0  0
 36 83  2  0  0  0  0
 37 72  1  0  0  0  0
 37 78  1  0  0  0  0
 37 84  2  0  0  0  0
 38 41  1  0  0  0  0
 39 53  1  0  0  0  0
 40 71  1  0  0  0  0
 41 43  1  0  0  0  0
 42 46  1  0  0  0  0
 42 49  1  0  0  0  0
 43 51  1  0  0  0  0
 44 47  1  0  0  0  0
 44 52  1  0  0  0  0
 45 48  1  0  0  0  0
 45 52  1  0  0  0  0
 46 54  1  0  0  0  0
 47 55  1  0  0  0  0
 48 55  1  0  0  0  0
 49 72  1  0  0  0  0
 50 54  1  0  0  0  0
 50 72  1  0  0  0  0
 51 76  1  0  0  0  0
 53 71  1  0  0  0  0
 54 69  1  0  0  0  0
 55 86  1  0  0  0  0
 56 66  1  0  0  0  0
 57 67  1  0  0  0  0
 58 67  1  0  0  0  0
 59 67  1  0  0  0  0
 60 79  1  0  0  0  0
 61 62  1  0  0  0  0
 61 63  1  0  0  0  0
 62 64  1  0  0  0  0
 63 75  1  0  0  0  0
 64 78  1  0  0  0  0
 65 67  1  0  0  0  0
 65 77  1  0  0  0  0
 66 79  1  0  0  0  0
 68 69  1  0  0  0  0
M  CHG  2  70   1  79   1
M  ISO  4  37 100  55 101  78 100  86 101
M  END
> <Batch ID>
0030

> <Smiles>
CNC(C)C(=O)NC(C(=O)N1Cc2cc([101O:1][101CH:1]3CCC(c4cc(NCCCC[100NH:0][100C:0](=O)N5CCCC(n6nc(-c7ccc(Oc8ccc(F)cc8F)cc7)c(C(N)=O)c6N)C5)c(Cl)cn4)CC3)ccc2CC1C(=O)NC1CCCc2ccccc21)C(C)(C)C

> <Shape>
0.293

> <Color>
0.134

> <Negative vol penalty>
0.000

$$$$

  -OEChem-04052316393D

 80 88  0     1  0  0  0  0  0999 V2000
  -21.8377  -11.8492   19.5683 C   0  0  0  0  0  0  0  0  0  0  0  0
  -21.6654  -13.1311   20.0808 C   0  0  0  0  0  0  0  0  0  0  0  0
  -25.0739  -28.8056   19.2994 C   0  0  0  0  0  0  0  0  0  0  0  0
  -25.8724  -27.3767   21.0764 C   0  0  0  0  0  0  0  0  0  0  0  0
  -23.0956  -11.2489   19.6036 C   0  0  0  0  0  0  0  0  0  0  0  0
  -22.7508  -13.8129   20.6299 C   0  0  0  0  0  0  0  0  0  0  0  0
  -22.9913  -18.6346   19.1008 C   0  0  0  0  0  0  0  0  0  0  0  0
  -26.3113  -29.4481   19.2600 C   0  0  0  0  0  0  0  0  0  0  0  0
  -27.1098  -28.0193   21.0371 C   0  0  0  0  0  0  0  0  0  0  0  0
  -22.1236  -19.5399   19.7102 C   0  0  0  0  0  0  0  0  0  0  0  0
  -30.5965  -29.0421   21.1583 C   0  0  0  0  0  0  0  0  0  0  0  0
  -31.7422  -28.2472   21.1924 C   0  0  0  0  0  0  0  0  0  0  0  0
  -23.9180  -20.2899   21.1373 C   0  0  0  0  0  0  0  0  0  0  0  0
  -17.6561  -23.5039   26.2657 C   0  0  0  0  0  0  0  0  0  0  0  0
  -31.0420  -27.1507   19.1566 C   0  0  0  0  0  0  0  0  0  0  0  0
  -18.8791  -21.6158   26.3606 C   0  0  0  0  0  0  0  0  0  0  0  0
  -24.8544  -27.7699   20.2076 C   0  0  0  0  0  0  0  0  0  0  0  0
  -23.1831  -25.9718   19.5139 C   0  0  0  0  0  0  0  0  0  0  0  0
  -24.1990  -11.9275   20.1446 C   0  0  0  0  0  0  0  0  0  0  0  0
  -24.3284  -18.5424   19.5132 C   0  0  0  0  0  0  0  0  0  0  0  0
  -24.0243  -13.2205   20.6736 C   0  0  0  0  0  0  0  0  0  0  0  0
  -24.8013  -19.3845   20.5298 C   0  0  0  0  0  0  0  0  0  0  0  0
  -17.7187  -22.2005   26.8175 C   0  0  0  0  0  0  0  0  0  0  0  0
  -27.3293  -29.0550   20.1289 C   0  0  0  0  0  0  0  0  0  0  0  0
  -22.5861  -20.3657   20.7306 C   0  0  0  0  0  0  0  0  0  0  0  0
  -29.6735  -28.8912   20.1234 C   0  0  0  0  0  0  0  0  0  0  0  0
  -31.9650  -27.3015   20.1915 C   0  0  0  0  0  0  0  0  0  0  0  0
  -29.8962  -27.9455   19.1226 C   0  0  0  0  0  0  0  0  0  0  0  0
  -23.5762  -27.1061   20.2491 C   0  0  0  0  0  0  0  0  0  0  0  0
  -18.7801  -23.6759   25.4883 C   0  0  0  0  0  0  0  0  0  0  0  0
  -21.8886  -25.7382   19.9089 C   0  0  0  0  0  0  0  0  0  0  0  0
  -23.9222  -25.1983   18.5593 C   0  0  0  0  0  0  0  0  0  0  0  0
  -26.1301  -16.2546   20.7873 C   0  0  0  0  0  0  0  0  0  0  0  0
  -28.5011  -18.4285   20.3693 C   0  0  0  0  0  0  0  0  0  0  0  0
  -29.4022  -21.7015   20.0196 C   0  0  0  0  0  0  0  0  0  0  0  0
  -18.5192  -26.0157   24.5919 C   0  0  0  0  0  0  0  0  0  0  0  0
  -25.5292  -11.2191   20.2037 C   0  0  0  0  0  0  0  0  0  0  0  0
  -25.2584  -17.5795   18.8275 C   0  0  0  0  0  0  0  0  0  0  0  0
  -26.2329  -19.3388   20.9954 C   0  0  0  0  0  0  0  0  0  0  0  0
  -26.7068  -12.1554   20.4624 C   0  0  0  0  0  0  0  0  0  0  0  0
  -18.3420  -28.4691   22.0178 C   0  0  0  0  0  0  0  0  0  0  0  0
  -26.3847  -13.1158   21.6028 C   0  0  0  0  0  0  0  0  0  0  0  0
  -19.6347  -28.2581   21.2262 C   0  0  0  0  0  0  0  0  0  0  0  0
  -18.5528  -28.2552   23.5156 C   0  0  0  0  0  0  0  0  0  0  0  0
  -20.4663  -26.7639   23.0871 C   0  0  0  0  0  0  0  0  0  0  0  0
  -25.1826  -14.0020   21.2549 C   0  0  1  0  0  0  0  0  0  0  0  0
  -26.4696  -17.2100   19.6784 C   0  0  1  0  0  0  0  0  0  0  0  0
  -20.2893  -26.9048   21.5664 C   0  0  2  0  0  0  0  0  0  0  0  0
  -16.7253  -21.5824   27.7161 C   0  0  0  0  0  0  0  0  0  0  0  0
  -31.4167  -23.1703   19.7336 C   0  0  0  0  0  0  0  0  0  0  0  0
  -29.1744  -18.0764   23.3244 C   0  0  0  0  0  0  0  0  0  0  0  0
  -30.5034  -20.1947   23.2024 C   0  0  0  0  0  0  0  0  0  0  0  0
  -31.1610  -18.2300   21.8130 C   0  0  0  0  0  0  0  0  0  0  0  0
  -28.4401  -22.7102   17.4088 C   0  0  0  0  0  0  0  0  0  0  0  0
  -20.6763  -21.9203   23.3702 C   0  0  0  0  0  0  0  0  0  0  0  0
  -20.8270  -22.2653   24.8535 C   0  0  0  0  0  0  0  0  0  0  0  0
  -21.9970  -21.5713   22.6941 C   0  0  0  0  0  0  0  0  0  1  0  0
  -29.0887  -19.5429   21.2012 C   0  0  1  0  0  0  0  0  0  0  0  0
  -30.3175  -22.3936   19.0257 C   0  0  2  0  0  0  0  0  0  0  0  0
  -29.9543  -19.0107   22.3780 C   0  0  0  0  0  0  0  0  0  0  0  0
  -22.6096  -27.5616   21.0504 N   0  0  0  0  0  0  0  0  0  0  0  0
  -19.5161  -22.5217   25.5531 N   0  0  0  0  0  0  0  0  0  0  0  0
  -21.5962  -26.7093   20.8209 N   0  0  0  0  0  0  0  0  0  0  0  0
  -27.1018  -18.3763   20.2982 N   0  0  0  0  0  0  0  0  0  0  0  0
  -19.1724  -26.9513   23.7620 N   0  0  0  0  0  0  0  0  0  0  0  0
  -20.9832  -24.7991   19.5615 N   0  0  0  0  0  0  0  0  0  0  0  0
  -25.2404  -25.5763   18.2700 N   0  0  0  0  0  0  0  0  0  0  0  0
  -19.1873  -24.7991   24.7265 N   0  0  0  0  0  0  0  0  0  0  0  0
  -25.5805  -15.0629   20.3546 N   0  0  0  0  0  0  0  0  0  0  0  0
  -29.8087  -20.4087   20.2736 N   0  0  0  0  0  0  0  0  0  0  0  0
  -29.5403  -23.3437   18.1804 N   0  3  0  0  0  0  0  0  0  0  0  0
  -23.4227  -24.2112   17.9679 O   0  0  0  0  0  0  0  0  0  0  0  0
  -26.3519  -16.5743   21.9493 O   0  0  0  0  0  0  0  0  0  0  0  0
  -29.2560  -17.6380   19.7977 O   0  0  0  0  0  0  0  0  0  0  0  0
  -28.4266  -22.2539   20.5232 O   0  0  0  0  0  0  0  0  0  0  0  0
  -17.4328  -26.2647   25.1208 O   0  0  0  0  0  0  0  0  0  0  0  0
  -28.5369  -29.6816   20.0906 O   0  0  0  0  0  0  0  0  0  0  0  0
  -21.7411  -21.2497   21.3275 O   0  0  0  0  0  0  0  0  0  1  0  0
  -33.0660  -26.5394   20.2235 F   0  0  0  0  0  0  0  0  0  0  0  0
  -29.0137  -27.7968   18.1252 F   0  0  0  0  0  0  0  0  0  0  0  0
  1  2  1  0  0  0  0
  1  5  2  0  0  0  0
  2  6  2  0  0  0  0
  3  8  2  0  0  0  0
  3 17  1  0  0  0  0
  4  9  1  0  0  0  0
  4 17  2  0  0  0  0
  5 19  1  0  0  0  0
  6 21  1  0  0  0  0
  7 10  2  0  0  0  0
  7 20  1  0  0  0  0
  8 24  1  0  0  0  0
  9 24  2  0  0  0  0
 10 25  1  0  0  0  0
 11 12  2  0  0  0  0
 11 26  1  0  0  0  0
 12 27  1  0  0  0  0
 13 22  1  0  0  0  0
 13 25  2  0  0  0  0
 14 23  1  0  0  0  0
 14 30  2  0  0  0  0
 15 27  2  0  0  0  0
 15 28  1  0  0  0  0
 16 23  2  0  0  0  0
 16 62  1  0  0  0  0
 17 29  1  0  0  0  0
 18 29  1  0  0  0  0
 18 31  2  0  0  0  0
 18 32  1  0  0  0  0
 19 21  2  0  0  0  0
 19 37  1  0  0  0  0
 20 22  2  0  0  0  0
 20 38  1  0  0  0  0
 21 46  1  0  0  0  0
 22 39  1  0  0  0  0
 23 49  1  0  0  0  0
 24 77  1  0  0  0  0
 25 78  1  0  0  0  0
 26 28  2  0  0  0  0
 26 77  1  0  0  0  0
 27 79  1  0  0  0  0
 28 80  1  0  0  0  0
 29 61  2  0  0  0  0
 30 62  1  0  0  0  0
 30 68  1  0  0  0  0
 31 63  1  0  0  0  0
 31 66  1  0  0  0  0
 32 67  1  0  0  0  0
 32 72  2  0  0  0  0
 33 47  1  0  0  0  0
 33 69  1  0  0  0  0
 33 73  2  0  0  0  0
 34 58  1  0  0  0  0
 34 64  1  0  0  0  0
 34 74  2  0  0  0  0
 35 59  1  0  0  0  0
 35 70  1  0  0  0  0
 35 75  2  0  0  0  0
 36 65  1  0  0  0  0
 36 68  1  0  0  0  0
 36 76  2  0  0  0  0
 37 40  1  0  0  0  0
 38 47  1  0  0  0  0
 39 64  1  0  0  0  0
 40 42  1  0  0  0  0
 41 43  1  0  0  0  0
 41 44  1  0  0  0  0
 42 46  1  0  0  0  0
 43 48  1  0  0  0  0
 44 65  1  0  0  0  0
 45 48  1  0  0  0  0
 45 65  1  0  0  0  0
 46 69  1  0  0  0  0
 47 64  1  0  0  0  0
 48 63  1  0  0  0  0
 50 59  1  0  0  0  0
 51 60  1  0  0  0  0
 52 60  1  0  0  0  0
 53 60  1  0  0  0  0
 54 71  1  0  0  0  0
 55 56  1  0  0  0  0
 55 57  1  0  0  0  0
 56 62  1  0  0  0  0
 57 78  1  0  0  0  0
 58 60  1  0  0  0  0
 58 70  1  0  0  0  0
 59 71  1  0  0  0  0
 61 63  1  0  0  0  0
M  CHG  1  71   1
M  ISO  4  36 100  57 101  68 100  78 101
M  END
> <Batch ID>
0030

> <Smiles>
CNC(C)C(=O)NC(C(=O)N1Cc2cc([101O:1][101CH2:1]CCn3cc(C)cc3[100NH:0][100C:0](=O)N3CCCC(n4nc(-c5ccc(Oc6ccc(F)cc6F)cc5)c(C(N)=O)c4N)C3)ccc2CC1C(=O)NC1CCCc2ccccc21)C(C)(C)C

> <Shape>
0.208

> <Color>
0.085

> <Negative vol penalty>
0.000

$$$$

  -OEChem-04052316393D

 85 94  0     1  0  0  0  0  0999 V2000
  -16.9445  -30.5229   23.4071 C   0  0  0  0  0  0  0  0  0  0  0  0
  -18.2124  -31.0361   23.1531 C   0  0  0  0  0  0  0  0  0  0  0  0
  -28.3543  -13.8941   19.6655 C   0  0  0  0  0  0  0  0  0  0  0  0
  -27.0264  -14.5582   21.5714 C   0  0  0  0  0  0  0  0  0  0  0  0
  -16.7683  -29.1486   23.5626 C   0  0  0  0  0  0  0  0  0  0  0  0
  -19.3051  -30.1753   23.0556 C   0  0  0  0  0  0  0  0  0  0  0  0
  -25.5500  -29.4479   19.6221 C   0  0  0  0  0  0  0  0  0  0  0  0
  -27.6260  -12.7083   19.5712 C   0  0  0  0  0  0  0  0  0  0  0  0
  -26.2979  -13.3724   21.4771 C   0  0  0  0  0  0  0  0  0  0  0  0
  -26.9016  -29.2245   19.8807 C   0  0  0  0  0  0  0  0  0  0  0  0
  -23.8510  -10.6837   21.5159 C   0  0  0  0  0  0  0  0  0  0  0  0
  -22.4630  -10.7636   21.6286 C   0  0  0  0  0  0  0  0  0  0  0  0
  -26.4650  -26.8611   20.0884 C   0  0  0  0  0  0  0  0  0  0  0  0
  -30.6377  -23.2616   17.8822 C   0  0  0  0  0  0  0  0  0  0  0  0
  -22.3903  -12.2190   19.7015 C   0  0  0  0  0  0  0  0  0  0  0  0
  -28.0546  -14.8191   20.6657 C   0  0  0  0  0  0  0  0  0  0  0  0
  -30.1929  -16.1758   20.9732 C   0  0  0  0  0  0  0  0  0  0  0  0
  -17.8579  -28.2696   23.4573 C   0  0  0  0  0  0  0  0  0  0  0  0
  -24.6423  -28.3792   19.6055 C   0  0  0  0  0  0  0  0  0  0  0  0
  -19.1435  -28.7881   23.2111 C   0  0  0  0  0  0  0  0  0  0  0  0
  -25.1027  -27.0734   19.8268 C   0  0  0  0  0  0  0  0  0  0  0  0
  -30.7038  -25.4381   18.9632 C   0  0  0  0  0  0  0  0  0  0  0  0
  -29.7694  -25.9252   18.0315 C   0  0  0  0  0  0  0  0  0  0  0  0
  -29.7289  -23.7486   16.9477 C   0  0  0  0  0  0  0  0  0  0  0  0
  -26.5977  -12.4475   20.4769 C   0  0  0  0  0  0  0  0  0  0  0  0
  -27.3588  -27.9313   20.1167 C   0  0  0  0  0  0  0  0  0  0  0  0
  -24.5087  -11.3715   20.4960 C   0  0  0  0  0  0  0  0  0  0  0  0
  -21.7327  -11.5312   20.7214 C   0  0  0  0  0  0  0  0  0  0  0  0
  -23.7783  -12.1391   19.5888 C   0  0  0  0  0  0  0  0  0  0  0  0
  -31.1206  -24.1002   18.8860 C   0  0  0  0  0  0  0  0  0  0  0  0
  -29.2989  -25.0731   17.0199 C   0  0  0  0  0  0  0  0  0  0  0  0
  -28.8070  -16.0440   20.7640 C   0  0  0  0  0  0  0  0  0  0  0  0
  -30.4103  -17.5319   20.9882 C   0  0  0  0  0  0  0  0  0  0  0  0
  -31.1941  -15.1631   21.1390 C   0  0  0  0  0  0  0  0  0  0  0  0
  -22.0728  -27.5918   21.3030 C   0  0  0  0  0  0  0  0  0  0  0  0
  -21.8415  -25.2048   19.1187 C   0  0  0  0  0  0  0  0  0  0  0  0
  -23.4031  -23.2041   16.8372 C   0  0  0  0  0  0  0  0  0  0  0  0
  -27.4534  -22.1622   18.6074 C   0  0  0  0  0  0  0  0  0  0  0  0
  -17.6259  -26.7961   23.6799 C   0  0  0  0  0  0  0  0  0  0  0  0
  -23.1920  -28.6337   19.2985 C   0  0  0  0  0  0  0  0  0  0  0  0
  -31.2242  -26.3011   20.0840 C   0  0  0  0  0  0  0  0  0  0  0  0
  -29.2964  -27.3602   18.0526 C   0  0  0  0  0  0  0  0  0  0  0  0
  -24.1724  -25.8892   19.7999 C   0  0  0  0  0  0  0  0  0  0  0  0
  -18.7743  -25.9179   23.1897 C   0  0  0  0  0  0  0  0  0  0  0  0
  -31.0237  -27.7959   19.8336 C   0  0  0  0  0  0  0  0  0  0  0  0
  -28.2368  -21.6613   22.0443 C   0  0  0  0  0  0  0  0  0  0  0  0
  -20.1136  -26.4836   23.6515 C   0  0  0  0  0  0  0  0  0  0  0  0
  -28.5968  -20.1767   22.1248 C   0  0  0  0  0  0  0  0  0  0  0  0
  -27.1077  -21.9150   21.0479 C   0  0  0  0  0  0  0  0  0  0  0  0
  -27.7014  -19.8889   19.7765 C   0  0  0  0  0  0  0  0  0  0  0  0
  -20.3495  -27.8843   23.0737 C   0  0  1  0  0  0  0  0  0  0  0  0
  -22.2700  -27.5333   19.8146 C   0  0  1  0  0  0  0  0  0  0  0  0
  -28.8732  -19.5902   20.7273 C   0  0  2  0  0  0  0  0  0  0  0  0
  -29.6061  -28.0959   19.3588 C   0  0  2  0  0  0  0  0  0  1  0  0
  -22.9597  -21.3224   15.2372 C   0  0  0  0  0  0  0  0  0  0  0  0
  -21.7348  -23.2460   21.4558 C   0  0  0  0  0  0  0  0  0  0  0  0
  -22.2490  -21.4016   19.8427 C   0  0  0  0  0  0  0  0  0  0  0  0
  -20.1528  -22.7298   19.5889 C   0  0  0  0  0  0  0  0  0  0  0  0
  -24.2338  -24.8329   14.5101 C   0  0  0  0  0  0  0  0  0  0  0  0
  -29.2456  -22.8113   15.8871 C   0  0  0  0  0  0  0  0  0  0  0  0
  -27.8453  -22.2531   16.1585 C   0  0  0  0  0  0  0  0  0  0  0  0
  -22.3725  -23.7955   19.0150 C   0  0  1  0  0  0  0  0  0  0  0  0
  -23.0423  -22.8310   15.4107 C   0  0  2  0  0  0  0  0  0  0  0  0
  -21.6448  -22.8155   19.9781 C   0  0  0  0  0  0  0  0  0  0  0  0
  -28.1876  -17.2223   20.6542 N   0  0  0  0  0  0  0  0  0  0  0  0
  -29.1890  -18.1075   20.7950 N   0  0  0  0  0  0  0  0  0  0  0  0
  -22.7625  -26.1903   19.5016 N   0  0  0  0  0  0  0  0  0  0  0  0
  -27.4331  -21.3351   19.7425 N   0  0  0  0  0  0  0  0  0  0  0  0
  -31.5252  -18.2763   21.1478 N   0  0  0  0  0  0  0  0  0  0  0  0
  -31.4753  -14.7073   22.4342 N   0  0  0  0  0  0  0  0  0  0  0  0
  -20.7621  -27.7971   21.6893 N   0  0  0  0  0  0  0  0  0  0  0  0
  -22.2806  -23.4273   17.6063 N   0  0  0  0  0  0  0  0  0  0  0  0
  -27.7774  -21.5340   17.4111 N   0  0  0  0  0  0  0  0  0  0  0  0
  -24.0647  -23.3577   14.4631 N   0  3  0  0  0  0  0  0  0  0  0  0
  -31.8324  -14.6885   20.1690 O   0  0  0  0  0  0  0  0  0  0  0  0
  -23.0383  -27.4590   22.0460 O   0  0  0  0  0  0  0  0  0  0  0  0
  -20.6551  -25.4244   18.8624 O   0  0  0  0  0  0  0  0  0  0  0  0
  -24.5645  -23.2854   17.2310 O   0  0  0  0  0  0  0  0  0  0  0  0
  -27.2066  -23.3720   18.6573 O   0  0  0  0  0  0  0  0  0  0  0  0
  -25.8866  -11.2906   20.3850 O   0  0  0  0  0  0  0  0  0  0  0  0
  -28.6775  -27.7104   20.3701 O   0  0  0  0  0  0  0  0  0  1  0  0
  -20.3996  -11.6066   20.8288 F   0  0  0  0  0  0  0  0  0  0  0  0
  -24.4045  -12.8011   18.6062 F   0  0  0  0  0  0  0  0  0  0  0  0
  -32.2226  -23.4023   20.0263 Cl  0  0  0  0  0  0  0  0  0  0  0  0
  -28.1866  -25.6401   15.8084 Cl  0  0  0  0  0  0  0  0  0  0  0  0
  1  2  1  0  0  0  0
  1  5  2  0  0  0  0
  2  6  2  0  0  0  0
  3  8  2  0  0  0  0
  3 16  1  0  0  0  0
  4  9  1  0  0  0  0
  4 16  2  0  0  0  0
  5 18  1  0  0  0  0
  6 20  1  0  0  0  0
  7 10  2  0  0  0  0
  7 19  1  0  0  0  0
  8 25  1  0  0  0  0
  9 25  2  0  0  0  0
 10 26  1  0  0  0  0
 11 12  2  0  0  0  0
 11 27  1  0  0  0  0
 12 28  1  0  0  0  0
 13 21  1  0  0  0  0
 13 26  2  0  0  0  0
 14 24  1  0  0  0  0
 14 30  2  0  0  0  0
 15 28  2  0  0  0  0
 15 29  1  0  0  0  0
 16 32  1  0  0  0  0
 17 32  1  0  0  0  0
 17 33  2  0  0  0  0
 17 34  1  0  0  0  0
 18 20  2  0  0  0  0
 18 39  1  0  0  0  0
 19 21  2  0  0  0  0
 19 40  1  0  0  0  0
 20 51  1  0  0  0  0
 21 43  1  0  0  0  0
 22 23  2  0  0  0  0
 22 30  1  0  0  0  0
 22 41  1  0  0  0  0
 23 31  1  0  0  0  0
 23 42  1  0  0  0  0
 24 31  2  0  0  0  0
 24 60  1  0  0  0  0
 25 80  1  0  0  0  0
 26 81  1  0  0  0  0
 27 29  2  0  0  0  0
 27 80  1  0  0  0  0
 28 82  1  0  0  0  0
 29 83  1  0  0  0  0
 30 84  1  0  0  0  0
 31 85  1  0  0  0  0
 32 65  2  0  0  0  0
 33 66  1  0  0  0  0
 33 69  1  0  0  0  0
 34 70  1  0  0  0  0
 34 75  2  0  0  0  0
 35 52  1  0  0  0  0
 35 71  1  0  0  0  0
 35 76  2  0  0  0  0
 36 62  1  0  0  0  0
 36 67  1  0  0  0  0
 36 77  2  0  0  0  0
 37 63  1  0  0  0  0
 37 72  1  0  0  0  0
 37 78  2  0  0  0  0
 38 68  1  0  0  0  0
 38 73  1  0  0  0  0
 38 79  2  0  0  0  0
 39 44  1  0  0  0  0
 40 52  1  0  0  0  0
 41 45  1  0  0  0  0
 42 54  1  0  0  0  0
 43 67  1  0  0  0  0
 44 47  1  0  0  0  0
 45 54  1  0  0  0  0
 46 48  1  0  0  0  0
 46 49  1  0  0  0  0
 47 51  1  0  0  0  0
 48 53  1  0  0  0  0
 49 68  1  0  0  0  0
 50 53  1  0  0  0  0
 50 68  1  0  0  0  0
 51 71  1  0  0  0  0
 52 67  1  0  0  0  0
 53 66  1  0  0  0  0
 54 81  1  0  0  0  0
 55 63  1  0  0  0  0
 56 64  1  0  0  0  0
 57 64  1  0  0  0  0
 58 64  1  0  0  0  0
 59 74  1  0  0  0  0
 60 61  1  0  0  0  0
 61 73  1  0  0  0  0
 62 64  1  0  0  0  0
 62 72  1  0  0  0  0
 63 74  1  0  0  0  0
 65 66  1  0  0  0  0
M  CHG  1  74   1
M  ISO  4  38 100  54 101  73 100  81 101
M  END
> <Batch ID>
0030

> <Smiles>
CNC(C)C(=O)NC(C(=O)N1Cc2cc([101O:1][101CH:1]3CCc4c(Cl)cc(CC[100NH:0][100C:0](=O)N5CCCC(n6nc(-c7ccc(Oc8ccc(F)cc8F)cc7)c(C(N)=O)c6N)C5)c(Cl)c4C3)ccc2CC1C(=O)NC1CCCc2ccccc21)C(C)(C)C

> <Shape>
0.292

> <Color>
0.090

> <Negative vol penalty>
0.000

$$$$

  -OEChem-04052316393D

 85 93  0     1  0  0  0  0  0999 V2000
  -27.4308  -35.4051   23.4195 C   0  0  0  0  0  0  0  0  0  0  0  0
  -27.7145  -34.0572   23.2244 C   0  0  0  0  0  0  0  0  0  0  0  0
  -23.8486  -11.9544   20.1979 C   0  0  0  0  0  0  0  0  0  0  0  0
  -25.0950  -13.4723   21.6047 C   0  0  0  0  0  0  0  0  0  0  0  0
  -26.1398  -35.8016   23.7659 C   0  0  0  0  0  0  0  0  0  0  0  0
  -26.7074  -33.1048   23.3767 C   0  0  0  0  0  0  0  0  0  0  0  0
  -26.7039  -29.6693   19.6561 C   0  0  0  0  0  0  0  0  0  0  0  0
  -25.0382  -11.3399   19.8069 C   0  0  0  0  0  0  0  0  0  0  0  0
  -26.2847  -12.8578   21.2138 C   0  0  0  0  0  0  0  0  0  0  0  0
  -27.6608  -28.6576   19.7228 C   0  0  0  0  0  0  0  0  0  0  0  0
  -29.6788  -11.9232   20.3102 C   0  0  0  0  0  0  0  0  0  0  0  0
  -30.7531  -12.7462   19.9725 C   0  0  0  0  0  0  0  0  0  0  0  0
  -25.9988  -27.1525   20.6126 C   0  0  0  0  0  0  0  0  0  0  0  0
  -27.9351  -23.3708   19.3851 C   0  0  0  0  0  0  0  0  0  0  0  0
  -29.4362  -13.7412   18.2081 C   0  0  0  0  0  0  0  0  0  0  0  0
  -28.5363  -23.9713   17.1637 C   0  0  0  0  0  0  0  0  0  0  0  0
  -23.8770  -13.0206   21.0968 C   0  0  0  0  0  0  0  0  0  0  0  0
  -21.8330  -13.3117   22.5951 C   0  0  0  0  0  0  0  0  0  0  0  0
  -25.1141  -34.8545   23.9130 C   0  0  0  0  0  0  0  0  0  0  0  0
  -25.3876  -29.4330   20.0781 C   0  0  0  0  0  0  0  0  0  0  0  0
  -25.4018  -33.4888   23.7267 C   0  0  0  0  0  0  0  0  0  0  0  0
  -25.0264  -28.1622   20.5479 C   0  0  0  0  0  0  0  0  0  0  0  0
  -28.7434  -24.1080   18.5268 C   0  0  0  0  0  0  0  0  0  0  0  0
  -26.9582  -22.5314   18.8613 C   0  0  0  0  0  0  0  0  0  0  0  0
  -26.2562  -11.7915   20.3149 C   0  0  0  0  0  0  0  0  0  0  0  0
  -27.3091  -27.3998   20.2038 C   0  0  0  0  0  0  0  0  0  0  0  0
  -28.4831  -12.0092   19.5968 C   0  0  0  0  0  0  0  0  0  0  0  0
  -30.6319  -13.6552   18.9215 C   0  0  0  0  0  0  0  0  0  0  0  0
  -28.3619  -12.9182   18.5458 C   0  0  0  0  0  0  0  0  0  0  0  0
  -22.6486  -13.6562   21.5005 C   0  0  0  0  0  0  0  0  0  0  0  0
  -26.8309  -22.4654   17.4832 C   0  0  0  0  0  0  0  0  0  0  0  0
  -20.7954  -14.2103   22.5464 C   0  0  0  0  0  0  0  0  0  0  0  0
  -21.9987  -12.2725   23.5688 C   0  0  0  0  0  0  0  0  0  0  0  0
  -23.5098  -30.6312   22.3457 C   0  0  0  0  0  0  0  0  0  0  0  0
  -21.2683  -28.7583   20.9348 C   0  0  0  0  0  0  0  0  0  0  0  0
  -20.5676  -26.0241   19.0164 C   0  0  0  0  0  0  0  0  0  0  0  0
  -20.2726  -19.7144   20.2481 C   0  0  0  0  0  0  0  0  0  0  0  0
  -23.7452  -35.3265   24.3347 C   0  0  0  0  0  0  0  0  0  0  0  0
  -24.3607  -30.5272   19.9748 C   0  0  0  0  0  0  0  0  0  0  0  0
  -23.6219  -27.8514   20.9942 C   0  0  0  0  0  0  0  0  0  0  0  0
  -22.6474  -34.2898   24.1098 C   0  0  0  0  0  0  0  0  0  0  0  0
  -18.2851  -16.8675   19.4596 C   0  0  0  0  0  0  0  0  0  0  0  0
  -23.0928  -32.9220   24.6173 C   0  0  0  0  0  0  0  0  0  0  0  0
  -19.1044  -15.6906   19.9920 C   0  0  0  0  0  0  0  0  0  0  0  0
  -19.1793  -17.9618   18.8808 C   0  0  0  0  0  0  0  0  0  0  0  0
  -21.0533  -17.2688   20.3236 C   0  0  0  0  0  0  0  0  0  0  0  0
  -24.3304  -32.4282   23.8584 C   0  0  1  0  0  0  0  0  0  0  0  0
  -23.1752  -30.3245   20.9133 C   0  0  1  0  0  0  0  0  0  0  0  0
  -20.1979  -16.1646   20.9682 C   0  0  2  0  0  0  0  0  0  0  0  0
  -18.6419  -24.7259   18.0657 C   0  0  0  0  0  0  0  0  0  0  0  0
  -20.7326  -27.5452   23.6828 C   0  0  0  0  0  0  0  0  0  0  0  0
  -19.5416  -25.6615   22.5420 C   0  0  0  0  0  0  0  0  0  0  0  0
  -18.6824  -27.9931   22.3225 C   0  0  0  0  0  0  0  0  0  0  0  0
  -21.4528  -26.5231   16.2368 C   0  0  0  0  0  0  0  0  0  0  0  0
  -29.8119  -25.0291   19.0636 C   0  0  0  0  0  0  0  0  0  0  0  0
  -26.0939  -21.7439   19.7853 C   0  0  0  0  0  0  0  0  0  0  0  0
  -22.4511  -22.1475   20.8450 C   0  0  0  0  0  0  0  0  0  0  0  0
  -21.4583  -21.3528   21.6865 C   0  0  0  0  0  0  0  0  0  0  0  0
  -23.8182  -21.4785   20.7801 C   0  0  0  0  0  0  0  0  0  0  0  0
  -29.2917  -26.4420   19.3050 C   0  0  0  0  0  0  0  0  0  1  0  0
  -20.8009  -27.3337   21.1105 C   0  0  1  0  0  0  0  0  0  0  0  0
  -19.6481  -25.8401   17.8227 C   0  0  2  0  0  0  0  0  0  0  0  0
  -19.9664  -27.1395   22.4079 C   0  0  0  0  0  0  0  0  0  0  0  0
  -27.5975  -23.1661   16.6178 N   0  0  0  0  0  0  0  0  0  0  0  0
  -22.1701  -14.6926   20.8071 N   0  0  0  0  0  0  0  0  0  0  0  0
  -21.0427  -15.0071   21.4674 N   0  0  0  0  0  0  0  0  0  0  0  0
  -22.6553  -28.9560   20.8799 N   0  0  0  0  0  0  0  0  0  0  0  0
  -20.1935  -18.3677   19.8569 N   0  0  0  0  0  0  0  0  0  0  0  0
  -19.7047  -14.3886   23.3215 N   0  0  0  0  0  0  0  0  0  0  0  0
  -23.1213  -11.4390   23.4722 N   0  0  0  0  0  0  0  0  0  0  0  0
  -23.9556  -31.9222   22.5553 N   0  0  0  0  0  0  0  0  0  0  0  0
  -20.0909  -26.9829   19.8852 N   0  0  0  0  0  0  0  0  0  0  0  0
  -21.2575  -20.0127   21.1818 N   0  0  0  0  0  0  0  0  0  0  0  0
  -20.4398  -25.5013   16.6064 N   0  3  0  0  0  0  0  0  0  0  0  0
  -24.7111  -22.2838   19.9069 N   0  3  0  0  0  0  0  0  0  0  0  0
  -21.1670  -12.0780   24.4875 O   0  0  0  0  0  0  0  0  0  0  0  0
  -23.3722  -29.7614   23.1978 O   0  0  0  0  0  0  0  0  0  0  0  0
  -20.4334  -29.6616   20.8423 O   0  0  0  0  0  0  0  0  0  0  0  0
  -21.6031  -25.3791   19.1653 O   0  0  0  0  0  0  0  0  0  0  0  0
  -19.5176  -20.5854   19.8026 O   0  0  0  0  0  0  0  0  0  0  0  0
  -27.4172  -11.1920   19.9338 O   0  0  0  0  0  0  0  0  0  0  0  0
  -28.2413  -26.4107   20.2705 O   0  0  0  0  0  0  0  0  0  1  0  0
  -31.6631  -14.4466   18.5983 F   0  0  0  0  0  0  0  0  0  0  0  0
  -27.2154  -13.0062   17.8576 F   0  0  0  0  0  0  0  0  0  0  0  0
  -25.6599  -21.4657   16.7161 Cl  0  0  0  0  0  0  0  0  0  0  0  0
  1  2  1  0  0  0  0
  1  5  2  0  0  0  0
  2  6  2  0  0  0  0
  3  8  2  0  0  0  0
  3 17  1  0  0  0  0
  4  9  1  0  0  0  0
  4 17  2  0  0  0  0
  5 19  1  0  0  0  0
  6 21  1  0  0  0  0
  7 10  2  0  0  0  0
  7 20  1  0  0  0  0
  8 25  1  0  0  0  0
  9 25  2  0  0  0  0
 10 26  1  0  0  0  0
 11 12  2  0  0  0  0
 11 27  1  0  0  0  0
 12 28  1  0  0  0  0
 13 22  1  0  0  0  0
 13 26  2  0  0  0  0
 14 23  2  0  0  0  0
 14 24  1  0  0  0  0
 15 28  2  0  0  0  0
 15 29  1  0  0  0  0
 16 23  1  0  0  0  0
 16 64  2  0  0  0  0
 17 30  1  0  0  0  0
 18 30  1  0  0  0  0
 18 32  2  0  0  0  0
 18 33  1  0  0  0  0
 19 21  2  0  0  0  0
 19 38  1  0  0  0  0
 20 22  2  0  0  0  0
 20 39  1  0  0  0  0
 21 47  1  0  0  0  0
 22 40  1  0  0  0  0
 23 55  1  0  0  0  0
 24 31  2  0  0  0  0
 24 56  1  0  0  0  0
 25 81  1  0  0  0  0
 26 82  1  0  0  0  0
 27 29  2  0  0  0  0
 27 81  1  0  0  0  0
 28 83  1  0  0  0  0
 29 84  1  0  0  0  0
 30 65  2  0  0  0  0
 31 64  1  0  0  0  0
 31 85  1  0  0  0  0
 32 66  1  0  0  0  0
 32 69  1  0  0  0  0
 33 70  1  0  0  0  0
 33 76  2  0  0  0  0
 34 48  1  0  0  0  0
 34 71  1  0  0  0  0
 34 77  2  0  0  0  0
 35 61  1  0  0  0  0
 35 67  1  0  0  0  0
 35 78  2  0  0  0  0
 36 62  1  0  0  0  0
 36 72  1  0  0  0  0
 36 79  2  0  0  0  0
 37 68  1  0  0  0  0
 37 73  1  0  0  0  0
 37 80  2  0  0  0  0
 38 41  1  0  0  0  0
 39 48  1  0  0  0  0
 40 67  1  0  0  0  0
 41 43  1  0  0  0  0
 42 44  1  0  0  0  0
 42 45  1  0  0  0  0
 43 47  1  0  0  0  0
 44 49  1  0  0  0  0
 45 68  1  0  0  0  0
 46 49  1  0  0  0  0
 46 68  1  0  0  0  0
 47 71  1  0  0  0  0
 48 67  1  0  0  0  0
 49 66  1  0  0  0  0
 50 62  1  0  0  0  0
 51 63  1  0  0  0  0
 52 63  1  0  0  0  0
 53 63  1  0  0  0  0
 54 74  1  0  0  0  0
 55 60  1  0  0  0  0
 56 75  1  0  0  0  0
 57 58  1  0  0  0  0
 57 59  1  0  0  0  0
 58 73  1  0  0  0  0
 59 75  1  0  0  0  0
 60 82  1  0  0  0  0
 61 63  1  0  0  0  0
 61 72  1  0  0  0  0
 62 74  1  0  0  0  0
 65 66  1  0  0  0  0
M  CHG  2  74   1  75   1
M  ISO  4  37 100  60 101  73 100  82 101
M  END
> <Batch ID>
0030

> <Smiles>
CNC(C)C(=O)NC(C(=O)N1Cc2cc([101O:1][101CH2:1]Cc3cnc(Cl)c(CNCCC[100NH:0][100C:0](=O)N4CCCC(n5nc(-c6ccc(Oc7ccc(F)cc7F)cc6)c(C(N)=O)c5N)C4)c3)ccc2CC1C(=O)NC1CCCc2ccccc21)C(C)(C)C

> <Shape>
0.270

> <Color>
0.094

> <Negative vol penalty>
0.000

$$$$

  -OEChem-04052316393D

 82 90  0     1  0  0  0  0  0999 V2000
  -22.5276  -23.8149   19.5861 C   0  0  0  0  0  0  0  0  0  0  0  0
  -23.7035  -23.1326   19.8812 C   0  0  0  0  0  0  0  0  0  0  0  0
  -22.6207  -27.7733   20.6421 C   0  0  0  0  0  0  0  0  0  0  0  0
  -23.3790  -26.0492   22.1553 C   0  0  0  0  0  0  0  0  0  0  0  0
  -21.2977  -23.2779   19.9641 C   0  0  0  0  0  0  0  0  0  0  0  0
  -23.6502  -21.9132   20.5555 C   0  0  0  0  0  0  0  0  0  0  0  0
  -26.6950  -18.4246   18.5051 C   0  0  0  0  0  0  0  0  0  0  0  0
  -21.3316  -27.6639   21.1635 C   0  0  0  0  0  0  0  0  0  0  0  0
  -22.0899  -25.9399   22.6768 C   0  0  0  0  0  0  0  0  0  0  0  0
  -28.0555  -18.5173   18.7952 C   0  0  0  0  0  0  0  0  0  0  0  0
  -19.6581  -28.7098   23.9091 C   0  0  0  0  0  0  0  0  0  0  0  0
  -18.9758  -29.8901   24.2039 C   0  0  0  0  0  0  0  0  0  0  0  0
  -27.8118  -16.7903   20.4617 C   0  0  0  0  0  0  0  0  0  0  0  0
  -31.4378  -20.3451   20.3938 C   0  0  0  0  0  0  0  0  0  0  0  0
  -31.1303  -22.5022   21.4373 C   0  0  0  0  0  0  0  0  0  0  0  0
  -17.2376  -29.2752   22.6425 C   0  0  0  0  0  0  0  0  0  0  0  0
  -23.6444  -26.9659   21.1380 C   0  0  0  0  0  0  0  0  0  0  0  0
  -26.0064  -27.9255   21.0490 C   0  0  0  0  0  0  0  0  0  0  0  0
  -21.2288  -22.0466   20.6349 C   0  0  0  0  0  0  0  0  0  0  0  0
  -25.8791  -17.5202   19.2000 C   0  0  0  0  0  0  0  0  0  0  0  0
  -22.4183  -21.3598   20.9441 C   0  0  0  0  0  0  0  0  0  0  0  0
  -26.4417  -16.6862   20.1768 C   0  0  0  0  0  0  0  0  0  0  0  0
  -31.2781  -21.7266   20.2874 C   0  0  0  0  0  0  0  0  0  0  0  0
  -31.4496  -19.7390   21.6501 C   0  0  0  0  0  0  0  0  0  0  0  0
  -31.3018  -20.5146   22.8000 C   0  0  0  0  0  0  0  0  0  0  0  0
  -21.0662  -26.7473   22.1808 C   0  0  0  0  0  0  0  0  0  0  0  0
  -28.6136  -17.7021   19.7756 C   0  0  0  0  0  0  0  0  0  0  0  0
  -19.1303  -27.8122   22.9810 C   0  0  0  0  0  0  0  0  0  0  0  0
  -17.7656  -30.1728   23.5706 C   0  0  0  0  0  0  0  0  0  0  0  0
  -17.9200  -28.0949   22.3477 C   0  0  0  0  0  0  0  0  0  0  0  0
  -31.1421  -21.8962   22.6937 C   0  0  0  0  0  0  0  0  0  0  0  0
  -24.9762  -27.0780   20.5994 C   0  0  0  0  0  0  0  0  0  0  0  0
  -27.0624  -27.6553   20.2134 C   0  0  0  0  0  0  0  0  0  0  0  0
  -26.0087  -28.8722   22.1258 C   0  0  0  0  0  0  0  0  0  0  0  0
  -23.3529  -17.7889   21.1105 C   0  0  0  0  0  0  0  0  0  0  0  0
  -23.3595  -14.5502   20.9287 C   0  0  0  0  0  0  0  0  0  0  0  0
  -25.1224  -11.6839   20.3600 C   0  0  0  0  0  0  0  0  0  0  0  0
  -29.5197  -23.2305   17.4031 C   0  0  0  0  0  0  0  0  0  0  0  0
  -19.8791  -21.5290   21.0652 C   0  0  0  0  0  0  0  0  0  0  0  0
  -24.4186  -17.4135   18.8567 C   0  0  0  0  0  0  0  0  0  0  0  0
  -25.6130  -15.6845   20.9373 C   0  0  0  0  0  0  0  0  0  0  0  0
  -19.8867  -20.0505   21.4451 C   0  0  0  0  0  0  0  0  0  0  0  0
  -27.5239  -25.6500   15.7180 C   0  0  0  0  0  0  0  0  0  0  0  0
  -21.0685  -19.7400   22.3582 C   0  0  0  0  0  0  0  0  0  0  0  0
  -26.7592  -26.3436   16.8468 C   0  0  0  0  0  0  0  0  0  0  0  0
  -27.7068  -24.1591   15.9933 C   0  0  0  0  0  0  0  0  0  0  0  0
  -27.5567  -24.5343   18.4245 C   0  0  0  0  0  0  0  0  0  0  0  0
  -22.4002  -20.0226   21.6523 C   0  0  1  0  0  0  0  0  0  0  0  0
  -23.5813  -16.8196   19.9853 C   0  0  1  0  0  0  0  0  0  0  0  0
  -27.3962  -26.0502   18.2185 C   0  0  2  0  0  0  0  0  0  0  0  0
  -31.3160  -19.8484   24.1406 C   0  0  0  0  0  0  0  0  0  0  0  0
  -24.8651   -9.1879   20.3212 C   0  0  0  0  0  0  0  0  0  0  0  0
  -23.3722  -14.5038   23.9795 C   0  0  0  0  0  0  0  0  0  0  0  0
  -24.0664  -12.1008   23.8707 C   0  0  0  0  0  0  0  0  0  0  0  0
  -21.8726  -12.8079   22.9167 C   0  0  0  0  0  0  0  0  0  0  0  0
  -25.8580  -11.5364   17.4971 C   0  0  0  0  0  0  0  0  0  0  0  0
  -31.6226  -18.2420   21.7348 C   0  0  0  0  0  0  0  0  0  0  0  0
  -31.2667  -22.3740   18.9438 C   0  0  0  0  0  0  0  0  0  0  0  0
  -30.3396  -17.4900   21.3978 C   0  0  0  0  0  0  0  0  0  1  0  0
  -24.0069  -13.4365   21.7159 C   0  0  1  0  0  0  0  0  0  0  0  0
  -24.8197  -10.4686   19.5022 C   0  0  2  0  0  0  0  0  0  0  0  0
  -23.3450  -13.2324   23.1079 C   0  0  0  0  0  0  0  0  0  0  0  0
  -25.3443  -26.3259   19.5588 N   0  0  0  0  0  0  0  0  0  0  0  0
  -26.6177  -26.6999   19.3476 N   0  0  0  0  0  0  0  0  0  0  0  0
  -24.1887  -15.6223   20.5699 N   0  0  0  0  0  0  0  0  0  0  0  0
  -28.3167  -23.9495   17.3086 N   0  0  0  0  0  0  0  0  0  0  0  0
  -28.3187  -28.1443   20.1420 N   0  0  0  0  0  0  0  0  0  0  0  0
  -24.8398  -29.0245   22.8839 N   0  0  0  0  0  0  0  0  0  0  0  0
  -22.7187  -18.9555   20.7280 N   0  0  0  0  0  0  0  0  0  0  0  0
  -23.9714  -12.2566   20.8586 N   0  0  0  0  0  0  0  0  0  0  0  0
  -30.0332  -23.0831   18.6858 N   0  0  0  0  0  0  0  0  0  0  0  0
  -25.8123  -10.3548   18.3964 N   0  3  0  0  0  0  0  0  0  0  0  0
  -27.0121  -29.5744   22.3969 O   0  0  0  0  0  0  0  0  0  0  0  0
  -23.7232  -17.4991   22.2421 O   0  0  0  0  0  0  0  0  0  0  0  0
  -22.1638  -14.4684   20.6366 O   0  0  0  0  0  0  0  0  0  0  0  0
  -26.2657  -12.0829   20.5701 O   0  0  0  0  0  0  0  0  0  0  0  0
  -30.0964  -22.7598   16.4168 O   0  0  0  0  0  0  0  0  0  0  0  0
  -19.8085  -26.6405   22.6900 O   0  0  0  0  0  0  0  0  0  0  0  0
  -29.9411  -17.7911   20.0610 O   0  0  0  0  0  0  0  0  0  1  0  0
  -17.1097  -31.3056   23.8549 F   0  0  0  0  0  0  0  0  0  0  0  0
  -17.4074  -27.2359   21.4561 F   0  0  0  0  0  0  0  0  0  0  0  0
  -30.9580  -22.8909   24.0929 Cl  0  0  0  0  0  0  0  0  0  0  0  0
  1  2  1  0  0  0  0
  1  5  2  0  0  0  0
  2  6  2  0  0  0  0
  3  8  2  0  0  0  0
  3 17  1  0  0  0  0
  4  9  1  0  0  0  0
  4 17  2  0  0  0  0
  5 19  1  0  0  0  0
  6 21  1  0  0  0  0
  7 10  2  0  0  0  0
  7 20  1  0  0  0  0
  8 26  1  0  0  0  0
  9 26  2  0  0  0  0
 10 27  1  0  0  0  0
 11 12  2  0  0  0  0
 11 28  1  0  0  0  0
 12 29  1  0  0  0  0
 13 22  1  0  0  0  0
 13 27  2  0  0  0  0
 14 23  2  0  0  0  0
 14 24  1  0  0  0  0
 15 23  1  0  0  0  0
 15 31  2  0  0  0  0
 16 29  2  0  0  0  0
 16 30  1  0  0  0  0
 17 32  1  0  0  0  0
 18 32  1  0  0  0  0
 18 33  2  0  0  0  0
 18 34  1  0  0  0  0
 19 21  2  0  0  0  0
 19 39  1  0  0  0  0
 20 22  2  0  0  0  0
 20 40  1  0  0  0  0
 21 48  1  0  0  0  0
 22 41  1  0  0  0  0
 23 58  1  0  0  0  0
 24 25  2  0  0  0  0
 24 57  1  0  0  0  0
 25 31  1  0  0  0  0
 25 51  1  0  0  0  0
 26 78  1  0  0  0  0
 27 79  1  0  0  0  0
 28 30  2  0  0  0  0
 28 78  1  0  0  0  0
 29 80  1  0  0  0  0
 30 81  1  0  0  0  0
 31 82  1  0  0  0  0
 32 63  2  0  0  0  0
 33 64  1  0  0  0  0
 33 67  1  0  0  0  0
 34 68  1  0  0  0  0
 34 73  2  0  0  0  0
 35 49  1  0  0  0  0
 35 69  1  0  0  0  0
 35 74  2  0  0  0  0
 36 60  1  0  0  0  0
 36 65  1  0  0  0  0
 36 75  2  0  0  0  0
 37 61  1  0  0  0  0
 37 70  1  0  0  0  0
 37 76  2  0  0  0  0
 38 66  1  0  0  0  0
 38 71  1  0  0  0  0
 38 77  2  0  0  0  0
 39 42  1  0  0  0  0
 40 49  1  0  0  0  0
 41 65  1  0  0  0  0
 42 44  1  0  0  0  0
 43 45  1  0  0  0  0
 43 46  1  0  0  0  0
 44 48  1  0  0  0  0
 45 50  1  0  0  0  0
 46 66  1  0  0  0  0
 47 50  1  0  0  0  0
 47 66  1  0  0  0  0
 48 69  1  0  0  0  0
 49 65  1  0  0  0  0
 50 64  1  0  0  0  0
 52 61  1  0  0  0  0
 53 62  1  0  0  0  0
 54 62  1  0  0  0  0
 55 62  1  0  0  0  0
 56 72  1  0  0  0  0
 57 59  1  0  0  0  0
 58 71  1  0  0  0  0
 59 79  1  0  0  0  0
 60 62  1  0  0  0  0
 60 70  1  0  0  0  0
 61 72  1  0  0  0  0
 63 64  1  0  0  0  0
M  CHG  1  72   1
M  ISO  4  38 100  59 101  71 100  79 101
M  END
> <Batch ID>
0030

> <Smiles>
CNC(C)C(=O)NC(C(=O)N1Cc2cc([101O:1][101CH2:1]Cc3cc(C[100NH:0][100C:0](=O)N4CCCC(n5nc(-c6ccc(Oc7ccc(F)cc7F)cc6)c(C(N)=O)c5N)C4)cc(Cl)c3C)ccc2CC1C(=O)NC1CCCc2ccccc21)C(C)(C)C

> <Shape>
0.215

> <Color>
0.071

> <Negative vol penalty>
0.000

$$$$

  -OEChem-04052316393D

 90 99  0     1  0  0  0  0  0999 V2000
  -22.0529   -7.5699   18.0560 C   0  0  0  0  0  0  0  0  0  0  0  0
  -21.4256   -8.7743   17.7541 C   0  0  0  0  0  0  0  0  0  0  0  0
  -21.7221  -29.2734   22.7508 C   0  0  0  0  0  0  0  0  0  0  0  0
  -23.1620  -27.3334   22.7345 C   0  0  0  0  0  0  0  0  0  0  0  0
  -22.8220   -7.4566   19.2134 C   0  0  0  0  0  0  0  0  0  0  0  0
  -21.5661   -9.8661   18.6102 C   0  0  0  0  0  0  0  0  0  0  0  0
  -21.9281  -17.0199   18.5212 C   0  0  0  0  0  0  0  0  0  0  0  0
  -20.7317  -28.5330   23.3962 C   0  0  0  0  0  0  0  0  0  0  0  0
  -22.1716  -26.5930   23.3801 C   0  0  0  0  0  0  0  0  0  0  0  0
  -21.3399  -18.1356   19.1155 C   0  0  0  0  0  0  0  0  0  0  0  0
  -18.3890  -26.2450   22.5590 C   0  0  0  0  0  0  0  0  0  0  0  0
  -17.0811  -26.3653   22.0893 C   0  0  0  0  0  0  0  0  0  0  0  0
  -27.6222  -24.0953   18.3531 C   0  0  0  0  0  0  0  0  0  0  0  0
  -22.7577  -17.8473   21.0458 C   0  0  0  0  0  0  0  0  0  0  0  0
  -29.5900  -23.5087   19.6158 C   0  0  0  0  0  0  0  0  0  0  0  0
  -16.3781  -27.1746   24.2545 C   0  0  0  0  0  0  0  0  0  0  0  0
  -22.9372  -28.6736   22.4198 C   0  0  0  0  0  0  0  0  0  0  0  0
  -24.5945  -30.6030   22.2237 C   0  0  0  0  0  0  0  0  0  0  0  0
  -22.9799   -8.5504   20.0791 C   0  0  0  0  0  0  0  0  0  0  0  0
  -22.9295  -16.3019   19.1905 C   0  0  0  0  0  0  0  0  0  0  0  0
  -22.3369   -9.7670   19.7810 C   0  0  0  0  0  0  0  0  0  0  0  0
  -26.7879  -23.3880   19.2441 C   0  0  0  0  0  0  0  0  0  0  0  0
  -23.3587  -16.7244   20.4568 C   0  0  0  0  0  0  0  0  0  0  0  0
  -27.3990  -22.7096   20.3207 C   0  0  0  0  0  0  0  0  0  0  0  0
  -29.0046  -24.1575   18.5377 C   0  0  0  0  0  0  0  0  0  0  0  0
  -28.7923  -22.7907   20.5018 C   0  0  0  0  0  0  0  0  0  0  0  0
  -20.9565  -27.1928   23.7109 C   0  0  0  0  0  0  0  0  0  0  0  0
  -21.7527  -18.5477   20.3792 C   0  0  0  0  0  0  0  0  0  0  0  0
  -18.6914  -26.5894   23.8764 C   0  0  0  0  0  0  0  0  0  0  0  0
  -16.0757  -26.8301   22.9370 C   0  0  0  0  0  0  0  0  0  0  0  0
  -17.6860  -27.0542   24.7242 C   0  0  0  0  0  0  0  0  0  0  0  0
  -23.9603  -29.4377   21.7525 C   0  0  0  0  0  0  0  0  0  0  0  0
  -25.4802  -30.9380   21.2288 C   0  0  0  0  0  0  0  0  0  0  0  0
  -24.4004  -31.3184   23.4509 C   0  0  0  0  0  0  0  0  0  0  0  0
  -23.2193  -13.3228   20.2607 C   0  0  0  0  0  0  0  0  0  0  0  0
  -26.2535  -14.2666   20.9129 C   0  0  0  0  0  0  0  0  0  0  0  0
  -28.4159  -16.8268   21.5579 C   0  0  0  0  0  0  0  0  0  0  0  0
  -28.2212  -27.7494   16.9660 C   0  0  0  0  0  0  0  0  0  0  0  0
  -23.7823   -8.3661   21.3428 C   0  0  0  0  0  0  0  0  0  0  0  0
  -23.5726  -15.1164   18.5246 C   0  0  0  0  0  0  0  0  0  0  0  0
  -26.6102  -21.9276   21.3382 C   0  0  0  0  0  0  0  0  0  0  0  0
  -24.4443  -16.0000   21.2087 C   0  0  0  0  0  0  0  0  0  0  0  0
  -24.1873   -9.6808   22.0043 C   0  0  0  0  0  0  0  0  0  0  0  0
  -25.2194  -21.5459   20.8548 C   0  0  0  0  0  0  0  0  0  0  0  0
  -26.1107  -30.5787   16.4997 C   0  0  0  0  0  0  0  0  0  0  0  0
  -22.9968  -10.6319   22.0749 C   0  0  0  0  0  0  0  0  0  0  0  0
  -25.3775  -30.7123   17.8355 C   0  0  0  0  0  0  0  0  0  0  0  0
  -26.3350  -29.1160   16.1228 C   0  0  0  0  0  0  0  0  0  0  0  0
  -26.2740  -28.4398   18.4919 C   0  0  0  0  0  0  0  0  0  0  0  0
  -22.4858  -10.9811   20.6719 C   0  0  1  0  0  0  0  0  0  0  0  0
  -24.2233  -14.1552   19.5145 C   0  0  1  0  0  0  0  0  0  0  0  0
  -26.0744  -29.8973   18.9416 C   0  0  2  0  0  0  0  0  0  0  0  0
  -24.5329  -22.7741   20.2684 C   0  0  1  0  0  0  0  0  0  0  0  0
  -25.2644  -23.3257   19.0026 C   0  0  0  0  0  0  0  0  0  0  0  0
  -29.4748  -22.1213   21.6542 C   0  0  0  0  0  0  0  0  0  0  0  0
  -24.7044  -24.7406   18.7070 C   0  0  0  0  0  0  0  0  0  0  0  0
  -25.0250  -22.4394   17.7567 C   0  0  0  0  0  0  0  0  0  0  0  0
  -30.8258  -17.2836   22.0881 C   0  0  0  0  0  0  0  0  0  0  0  0
  -25.8028  -13.3093   23.7748 C   0  0  0  0  0  0  0  0  0  0  0  0
  -27.8191  -14.6264   24.4589 C   0  0  0  0  0  0  0  0  0  0  0  0
  -28.0500  -12.7514   22.8299 C   0  0  0  0  0  0  0  0  0  0  0  0
  -28.7658  -18.4551   19.1115 C   0  0  0  0  0  0  0  0  0  0  0  0
  -29.8516  -24.9200   17.5754 C   0  0  0  0  0  0  0  0  0  0  0  0
  -20.8182  -22.0056   20.8025 C   0  0  0  0  0  0  0  0  0  0  0  0
  -30.0453  -26.3916   17.9601 C   0  0  0  0  0  0  0  0  0  0  0  0
  -22.2439  -22.3743   21.1843 C   0  0  0  0  0  0  0  0  0  0  0  0
  -20.7012  -20.6617   20.0940 C   0  0  0  0  0  0  0  0  0  1  0  0
  -26.9445  -14.9029   22.0947 C   0  0  1  0  0  0  0  0  0  0  0  0
  -29.7833  -17.1581   20.9880 C   0  0  2  0  0  0  0  0  0  0  0  0
  -27.1322  -13.9102   23.2765 C   0  0  0  0  0  0  0  0  0  0  0  0
  -24.4052  -29.0582   20.5517 N   0  0  0  0  0  0  0  0  0  0  0  0
  -25.3283  -29.9902   20.2598 N   0  0  0  0  0  0  0  0  0  0  0  0
  -25.0379  -14.8431   20.5182 N   0  0  0  0  0  0  0  0  0  0  0  0
  -27.0009  -28.3996   17.2133 N   0  0  0  0  0  0  0  0  0  0  0  0
  -26.3662  -31.9480   21.0970 N   0  0  0  0  0  0  0  0  0  0  0  0
  -25.1767  -30.9620   24.5620 N   0  0  0  0  0  0  0  0  0  0  0  0
  -23.3478  -11.9632   20.0500 N   0  0  0  0  0  0  0  0  0  0  0  0
  -28.1895  -15.4669   21.5845 N   0  0  0  0  0  0  0  0  0  0  0  0
  -28.7883  -27.0998   18.0556 N   0  0  0  0  0  0  0  0  0  0  0  0
  -23.1155  -22.4056   19.9826 N   0  3  0  0  0  0  0  0  0  0  0  0
  -29.7340  -18.4451   20.2382 N   0  3  0  0  0  0  0  0  0  0  0  0
  -23.5518  -32.2353   23.5635 O   0  0  0  0  0  0  0  0  0  0  0  0
  -22.3903  -13.8733   20.9759 O   0  0  0  0  0  0  0  0  0  0  0  0
  -26.7766  -13.2982   20.3560 O   0  0  0  0  0  0  0  0  0  0  0  0
  -27.6289  -17.6880   21.9446 O   0  0  0  0  0  0  0  0  0  0  0  0
  -28.7678  -27.7525   15.8578 O   0  0  0  0  0  0  0  0  0  0  0  0
  -19.9905  -26.4701   24.3410 O   0  0  0  0  0  0  0  0  0  0  0  0
  -21.1758  -19.6436   20.9659 O   0  0  0  0  0  0  0  0  0  1  0  0
  -14.8201  -26.9471   22.4854 F   0  0  0  0  0  0  0  0  0  0  0  0
  -17.9706  -27.3877   25.9905 F   0  0  0  0  0  0  0  0  0  0  0  0
  1  2  1  0  0  0  0
  1  5  2  0  0  0  0
  2  6  2  0  0  0  0
  3  8  2  0  0  0  0
  3 17  1  0  0  0  0
  4  9  1  0  0  0  0
  4 17  2  0  0  0  0
  5 19  1  0  0  0  0
  6 21  1  0  0  0  0
  7 10  2  0  0  0  0
  7 20  1  0  0  0  0
  8 27  1  0  0  0  0
  9 27  2  0  0  0  0
 10 28  1  0  0  0  0
 11 12  2  0  0  0  0
 11 29  1  0  0  0  0
 12 30  1  0  0  0  0
 13 22  1  0  0  0  0
 13 25  2  0  0  0  0
 14 23  1  0  0  0  0
 14 28  2  0  0  0  0
 15 25  1  0  0  0  0
 15 26  2  0  0  0  0
 16 30  2  0  0  0  0
 16 31  1  0  0  0  0
 17 32  1  0  0  0  0
 18 32  1  0  0  0  0
 18 33  2  0  0  0  0
 18 34  1  0  0  0  0
 19 21  2  0  0  0  0
 19 39  1  0  0  0  0
 20 23  2  0  0  0  0
 20 40  1  0  0  0  0
 21 50  1  0  0  0  0
 22 24  2  0  0  0  0
 22 54  1  0  0  0  0
 23 42  1  0  0  0  0
 24 26  1  0  0  0  0
 24 41  1  0  0  0  0
 25 63  1  0  0  0  0
 26 55  1  0  0  0  0
 27 87  1  0  0  0  0
 28 88  1  0  0  0  0
 29 31  2  0  0  0  0
 29 87  1  0  0  0  0
 30 89  1  0  0  0  0
 31 90  1  0  0  0  0
 32 71  2  0  0  0  0
 33 72  1  0  0  0  0
 33 75  1  0  0  0  0
 34 76  1  0  0  0  0
 34 82  2  0  0  0  0
 35 51  1  0  0  0  0
 35 77  1  0  0  0  0
 35 83  2  0  0  0  0
 36 68  1  0  0  0  0
 36 73  1  0  0  0  0
 36 84  2  0  0  0  0
 37 69  1  0  0  0  0
 37 78  1  0  0  0  0
 37 85  2  0  0  0  0
 38 74  1  0  0  0  0
 38 79  1  0  0  0  0
 38 86  2  0  0  0  0
 39 43  1  0  0  0  0
 40 51  1  0  0  0  0
 41 44  1  0  0  0  0
 42 73  1  0  0  0  0
 43 46  1  0  0  0  0
 44 53  1  0  0  0  0
 45 47  1  0  0  0  0
 45 48  1  0  0  0  0
 46 50  1  0  0  0  0
 47 52  1  0  0  0  0
 48 74  1  0  0  0  0
 49 52  1  0  0  0  0
 49 74  1  0  0  0  0
 50 77  1  0  0  0  0
 51 73  1  0  0  0  0
 52 72  1  0  0  0  0
 53 54  1  0  0  0  0
 53 80  1  0  0  0  0
 54 56  1  0  0  0  0
 54 57  1  0  0  0  0
 58 69  1  0  0  0  0
 59 70  1  0  0  0  0
 60 70  1  0  0  0  0
 61 70  1  0  0  0  0
 62 81  1  0  0  0  0
 63 65  1  0  0  0  0
 64 66  1  0  0  0  0
 64 67  1  0  0  0  0
 65 79  1  0  0  0  0
 66 80  1  0  0  0  0
 67 88  1  0  0  0  0
 68 70  1  0  0  0  0
 68 78  1  0  0  0  0
 69 81  1  0  0  0  0
 71 72  1  0  0  0  0
M  CHG  2  80   1  81   1
M  ISO  4  38 100  67 101  79 100  88 101
M  END
> <Batch ID>
0030

> <Smiles>
CNC(C)C(=O)NC(C(=O)N1Cc2cc([101O:1][101CH2:1]CCNC3CCc4c(C)cc(CC[100NH:0][100C:0](=O)N5CCCC(n6nc(-c7ccc(Oc8ccc(F)cc8F)cc7)c(C(N)=O)c6N)C5)cc4C3(C)C)ccc2CC1C(=O)NC1CCCc2ccccc21)C(C)(C)C

> <Shape>
0.252

> <Color>
0.060

> <Negative vol penalty>
0.000

$$$$

  -OEChem-04052316393D

 82 90  0     1  0  0  0  0  0999 V2000
  -29.2078  -11.5369   19.6256 C   0  0  0  0  0  0  0  0  0  0  0  0
  -29.2325  -12.9027   19.3618 C   0  0  0  0  0  0  0  0  0  0  0  0
  -21.7932  -25.0919   22.4760 C   0  0  0  0  0  0  0  0  0  0  0  0
  -21.4723  -26.8162   20.8145 C   0  0  0  0  0  0  0  0  0  0  0  0
  -28.0125  -10.9207   19.9937 C   0  0  0  0  0  0  0  0  0  0  0  0
  -28.0616  -13.6528   19.4649 C   0  0  0  0  0  0  0  0  0  0  0  0
  -28.7692  -18.0330   21.9059 C   0  0  0  0  0  0  0  0  0  0  0  0
  -20.5524  -25.3987   23.0342 C   0  0  0  0  0  0  0  0  0  0  0  0
  -20.2313  -27.1231   21.3727 C   0  0  0  0  0  0  0  0  0  0  0  0
  -29.3632  -19.0718   21.1906 C   0  0  0  0  0  0  0  0  0  0  0  0
  -19.0538  -28.8426   24.0350 C   0  0  0  0  0  0  0  0  0  0  0  0
  -18.7435  -30.1892   24.2243 C   0  0  0  0  0  0  0  0  0  0  0  0
  -27.1905  -20.0534   20.8235 C   0  0  0  0  0  0  0  0  0  0  0  0
  -16.8285  -29.9524   22.7704 C   0  0  0  0  0  0  0  0  0  0  0  0
  -30.7881  -24.6569   16.1863 C   0  0  0  0  0  0  0  0  0  0  0  0
  -22.2532  -25.8006   21.3661 C   0  0  0  0  0  0  0  0  0  0  0  0
  -23.8017  -24.5516   19.7693 C   0  0  0  0  0  0  0  0  0  0  0  0
  -26.8283  -11.6655   20.1107 C   0  0  0  0  0  0  0  0  0  0  0  0
  -27.3780  -17.9906   22.0764 C   0  0  0  0  0  0  0  0  0  0  0  0
  -26.8491  -13.0458   19.8336 C   0  0  0  0  0  0  0  0  0  0  0  0
  -26.5815  -19.0143   21.5436 C   0  0  0  0  0  0  0  0  0  0  0  0
  -31.2233  -25.8866   16.6162 C   0  0  0  0  0  0  0  0  0  0  0  0
  -19.7714  -26.4143   22.4826 C   0  0  0  0  0  0  0  0  0  0  0  0
  -28.5736  -20.0807   20.6468 C   0  0  0  0  0  0  0  0  0  0  0  0
  -18.2515  -28.0508   23.2132 C   0  0  0  0  0  0  0  0  0  0  0  0
  -17.6309  -30.7442   23.5920 C   0  0  0  0  0  0  0  0  0  0  0  0
  -17.1389  -28.6058   22.5810 C   0  0  0  0  0  0  0  0  0  0  0  0
  -23.5352  -25.4845   20.7894 C   0  0  0  0  0  0  0  0  0  0  0  0
  -32.5584  -25.6706   17.0070 C   0  0  0  0  0  0  0  0  0  0  0  0
  -25.1604  -24.6257   19.5826 C   0  0  0  0  0  0  0  0  0  0  0  0
  -22.9015  -23.6946   19.0545 C   0  0  0  0  0  0  0  0  0  0  0  0
  -25.0744  -15.9718   21.2270 C   0  0  0  0  0  0  0  0  0  0  0  0
  -23.2243  -17.9373   23.0260 C   0  0  0  0  0  0  0  0  0  0  0  0
  -22.7504  -21.0343   24.3792 C   0  0  0  0  0  0  0  0  0  0  0  0
  -29.8381  -27.6150   19.0091 C   0  0  0  0  0  0  0  0  0  0  0  0
  -25.5508  -10.9468   20.4657 C   0  0  0  0  0  0  0  0  0  0  0  0
  -26.7551  -16.8775   22.8735 C   0  0  0  0  0  0  0  0  0  0  0  0
  -25.0852  -19.0259   21.7157 C   0  0  0  0  0  0  0  0  0  0  0  0
  -24.4312  -11.8814   20.9165 C   0  0  0  0  0  0  0  0  0  0  0  0
  -28.7400  -26.9190   22.3237 C   0  0  0  0  0  0  0  0  0  0  0  0
  -24.3139  -13.0703   19.9680 C   0  0  0  0  0  0  0  0  0  0  0  0
  -27.3087  -26.4131   22.1362 C   0  0  0  0  0  0  0  0  0  0  0  0
  -29.0810  -28.0284   21.3312 C   0  0  0  0  0  0  0  0  0  0  0  0
  -27.4108  -27.1824   19.7286 C   0  0  0  0  0  0  0  0  0  0  0  0
  -25.6048  -13.8980   19.9587 C   0  0  1  0  0  0  0  0  0  0  0  0
  -25.2809  -16.6607   22.5463 C   0  0  1  0  0  0  0  0  0  0  0  0
  -27.0390  -26.0242   20.6701 C   0  0  2  0  0  0  0  0  0  0  0  0
  -21.6812  -22.8291   25.7693 C   0  0  0  0  0  0  0  0  0  0  0  0
  -21.3743  -18.1982   20.6137 C   0  0  0  0  0  0  0  0  0  0  0  0
  -20.3465  -20.2027   21.7064 C   0  0  0  0  0  0  0  0  0  0  0  0
  -20.1993  -17.9701   22.8095 C   0  0  0  0  0  0  0  0  0  0  0  0
  -24.3455  -20.3007   26.7617 C   0  0  0  0  0  0  0  0  0  0  0  0
  -30.4485  -27.1393   16.6510 C   0  0  0  0  0  0  0  0  0  0  0  0
  -31.7248  -21.4239   17.2205 C   0  0  0  0  0  0  0  0  0  0  0  0
  -30.4560  -21.7037   18.0275 C   0  0  0  0  0  0  0  0  0  0  0  0
  -31.8759  -22.3424   16.0026 C   0  0  0  0  0  0  0  0  0  0  0  0
  -30.3579  -20.7974   19.2473 C   0  0  0  0  0  0  0  0  0  1  0  0
  -22.4163  -19.1845   22.7602 C   0  0  1  0  0  0  0  0  0  0  0  0
  -22.3698  -21.4733   25.7816 C   0  0  2  0  0  0  0  0  0  0  0  0
  -21.1121  -18.8879   21.9674 C   0  0  0  0  0  0  0  0  0  0  0  0
  -24.6363  -26.1056   21.2205 N   0  0  0  0  0  0  0  0  0  0  0  0
  -32.9458  -24.4032   16.8402 N   0  0  0  0  0  0  0  0  0  0  0  0
  -31.8475  -23.8119   16.3400 N   0  0  0  0  0  0  0  0  0  0  0  0
  -25.6078  -25.5618   20.4679 N   0  0  0  0  0  0  0  0  0  0  0  0
  -24.5227  -17.9125   22.4976 N   0  0  0  0  0  0  0  0  0  0  0  0
  -28.8041  -27.5951   19.9596 N   0  0  0  0  0  0  0  0  0  0  0  0
  -26.0042  -23.9808   18.7492 N   0  0  0  0  0  0  0  0  0  0  0  0
  -21.5373  -23.7452   19.3717 N   0  0  0  0  0  0  0  0  0  0  0  0
  -25.6788  -14.7323   21.1389 N   0  0  0  0  0  0  0  0  0  0  0  0
  -22.1966  -19.8129   24.0583 N   0  0  0  0  0  0  0  0  0  0  0  0
  -29.4922  -27.1824   17.7347 N   0  0  0  0  0  0  0  0  0  0  0  0
  -23.5833  -21.5702   26.6413 N   0  3  0  0  0  0  0  0  0  0  0  0
  -23.2975  -22.8955   18.1724 O   0  0  0  0  0  0  0  0  0  0  0  0
  -24.4142  -16.5233   20.3543 O   0  0  0  0  0  0  0  0  0  0  0  0
  -22.7244  -17.0218   23.6845 O   0  0  0  0  0  0  0  0  0  0  0  0
  -23.4643  -21.7092   23.6407 O   0  0  0  0  0  0  0  0  0  0  0  0
  -30.9860  -27.9854   19.2777 O   0  0  0  0  0  0  0  0  0  0  0  0
  -18.5604  -26.7139   23.0269 O   0  0  0  0  0  0  0  0  0  0  0  0
  -29.1508  -21.0955   19.9475 O   0  0  0  0  0  0  0  0  0  1  0  0
  -17.3322  -32.0370   23.7752 F   0  0  0  0  0  0  0  0  0  0  0  0
  -16.3636  -27.8499   21.7914 F   0  0  0  0  0  0  0  0  0  0  0  0
  -33.6285  -26.8308   17.6276 Cl  0  0  0  0  0  0  0  0  0  0  0  0
  1  2  1  0  0  0  0
  1  5  2  0  0  0  0
  2  6  2  0  0  0  0
  3  8  2  0  0  0  0
  3 16  1  0  0  0  0
  4  9  1  0  0  0  0
  4 16  2  0  0  0  0
  5 18  1  0  0  0  0
  6 20  1  0  0  0  0
  7 10  2  0  0  0  0
  7 19  1  0  0  0  0
  8 23  1  0  0  0  0
  9 23  2  0  0  0  0
 10 24  1  0  0  0  0
 11 12  2  0  0  0  0
 11 25  1  0  0  0  0
 12 26  1  0  0  0  0
 13 21  1  0  0  0  0
 13 24  2  0  0  0  0
 14 26  2  0  0  0  0
 14 27  1  0  0  0  0
 15 22  2  0  0  0  0
 15 63  1  0  0  0  0
 16 28  1  0  0  0  0
 17 28  1  0  0  0  0
 17 30  2  0  0  0  0
 17 31  1  0  0  0  0
 18 20  2  0  0  0  0
 18 36  1  0  0  0  0
 19 21  2  0  0  0  0
 19 37  1  0  0  0  0
 20 45  1  0  0  0  0
 21 38  1  0  0  0  0
 22 29  1  0  0  0  0
 22 53  1  0  0  0  0
 23 78  1  0  0  0  0
 24 79  1  0  0  0  0
 25 27  2  0  0  0  0
 25 78  1  0  0  0  0
 26 80  1  0  0  0  0
 27 81  1  0  0  0  0
 28 61  2  0  0  0  0
 29 62  2  0  0  0  0
 29 82  1  0  0  0  0
 30 64  1  0  0  0  0
 30 67  1  0  0  0  0
 31 68  1  0  0  0  0
 31 73  2  0  0  0  0
 32 46  1  0  0  0  0
 32 69  1  0  0  0  0
 32 74  2  0  0  0  0
 33 58  1  0  0  0  0
 33 65  1  0  0  0  0
 33 75  2  0  0  0  0
 34 59  1  0  0  0  0
 34 70  1  0  0  0  0
 34 76  2  0  0  0  0
 35 66  1  0  0  0  0
 35 71  1  0  0  0  0
 35 77  2  0  0  0  0
 36 39  1  0  0  0  0
 37 46  1  0  0  0  0
 38 65  1  0  0  0  0
 39 41  1  0  0  0  0
 40 42  1  0  0  0  0
 40 43  1  0  0  0  0
 41 45  1  0  0  0  0
 42 47  1  0  0  0  0
 43 66  1  0  0  0  0
 44 47  1  0  0  0  0
 44 66  1  0  0  0  0
 45 69  1  0  0  0  0
 46 65  1  0  0  0  0
 47 64  1  0  0  0  0
 48 59  1  0  0  0  0
 49 60  1  0  0  0  0
 50 60  1  0  0  0  0
 51 60  1  0  0  0  0
 52 72  1  0  0  0  0
 53 71  1  0  0  0  0
 54 55  1  0  0  0  0
 54 56  1  0  0  0  0
 55 57  1  0  0  0  0
 56 63  1  0  0  0  0
 57 79  1  0  0  0  0
 58 60  1  0  0  0  0
 58 70  1  0  0  0  0
 59 72  1  0  0  0  0
 61 64  1  0  0  0  0
 62 63  1  0  0  0  0
M  CHG  1  72   1
M  ISO  4  35 100  57 101  71 100  79 101
M  END
> <Batch ID>
0030

> <Smiles>
CNC(C)C(=O)NC(C(=O)N1Cc2cc([101O:1][101CH2:1]CCCn3cc(C[100NH:0][100C:0](=O)N4CCCC(n5nc(-c6ccc(Oc7ccc(F)cc7F)cc6)c(C(N)=O)c5N)C4)c(Cl)n3)ccc2CC1C(=O)NC1CCCc2ccccc21)C(C)(C)C

> <Shape>
0.200

> <Color>
0.060

> <Negative vol penalty>
0.000

$$$$

  -OEChem-04052316393D

 84 92  0     1  0  0  0  0  0999 V2000
  -29.2105  -21.0170   36.9453 C   0  0  0  0  0  0  0  0  0  0  0  0
  -29.2586  -20.3783   35.7103 C   0  0  0  0  0  0  0  0  0  0  0  0
  -23.0743   -9.8689   19.9416 C   0  0  0  0  0  0  0  0  0  0  0  0
  -23.8385   -9.8749   22.2336 C   0  0  0  0  0  0  0  0  0  0  0  0
  -27.9985  -21.5098   37.4272 C   0  0  0  0  0  0  0  0  0  0  0  0
  -28.0944  -20.2310   34.9570 C   0  0  0  0  0  0  0  0  0  0  0  0
  -28.7893  -21.3520   30.0677 C   0  0  0  0  0  0  0  0  0  0  0  0
  -22.3317   -8.7150   20.1922 C   0  0  0  0  0  0  0  0  0  0  0  0
  -23.0959   -8.7210   22.4842 C   0  0  0  0  0  0  0  0  0  0  0  0
  -29.4145  -20.3894   29.2764 C   0  0  0  0  0  0  0  0  0  0  0  0
  -19.8694   -7.9205   23.0923 C   0  0  0  0  0  0  0  0  0  0  0  0
  -19.1147   -7.8792   24.2646 C   0  0  0  0  0  0  0  0  0  0  0  0
  -27.2642  -19.6969   28.4304 C   0  0  0  0  0  0  0  0  0  0  0  0
  -29.2782  -15.4856   26.5416 C   0  0  0  0  0  0  0  0  0  0  0  0
  -20.3589   -5.9422   24.9974 C   0  0  0  0  0  0  0  0  0  0  0  0
  -23.8277  -10.4488   20.9623 C   0  0  0  0  0  0  0  0  0  0  0  0
  -24.1675  -12.9742   20.8433 C   0  0  0  0  0  0  0  0  0  0  0  0
  -26.8207  -21.3770   36.6751 C   0  0  0  0  0  0  0  0  0  0  0  0
  -27.3936  -21.4873   30.0545 C   0  0  0  0  0  0  0  0  0  0  0  0
  -26.8653  -20.7213   35.4300 C   0  0  0  0  0  0  0  0  0  0  0  0
  -26.6239  -20.6637   29.2205 C   0  0  0  0  0  0  0  0  0  0  0  0
  -29.2648  -16.8169   26.1256 C   0  0  0  0  0  0  0  0  0  0  0  0
  -30.0584  -14.5503   25.8617 C   0  0  0  0  0  0  0  0  0  0  0  0
  -30.0314  -17.2129   25.0297 C   0  0  0  0  0  0  0  0  0  0  0  0
  -30.8116  -16.2776   24.3498 C   0  0  0  0  0  0  0  0  0  0  0  0
  -22.3425   -8.1411   21.4635 C   0  0  0  0  0  0  0  0  0  0  0  0
  -28.6518  -19.5597   28.4597 C   0  0  0  0  0  0  0  0  0  0  0  0
  -20.8688   -6.9725   22.8725 C   0  0  0  0  0  0  0  0  0  0  0  0
  -19.3594   -6.8901   25.2171 C   0  0  0  0  0  0  0  0  0  0  0  0
  -21.1136   -5.9834   23.8250 C   0  0  0  0  0  0  0  0  0  0  0  0
  -30.8251  -14.9463   24.7658 C   0  0  0  0  0  0  0  0  0  0  0  0
  -24.5955  -11.6404   20.7039 C   0  0  0  0  0  0  0  0  0  0  0  0
  -25.2585  -13.7247   20.4785 C   0  0  0  0  0  0  0  0  0  0  0  0
  -22.8975  -13.4889   21.2650 C   0  0  0  0  0  0  0  0  0  0  0  0
  -25.0894  -21.1778   32.2221 C   0  0  0  0  0  0  0  0  0  0  0  0
  -23.2158  -22.2928   29.8202 C   0  0  0  0  0  0  0  0  0  0  0  0
  -22.7433  -22.6998   26.4650 C   0  0  0  0  0  0  0  0  0  0  0  0
  -30.7418  -14.7476   20.6572 C   0  0  0  0  0  0  0  0  0  0  0  0
  -25.5256  -21.8838   37.2588 C   0  0  0  0  0  0  0  0  0  0  0  0
  -26.7365  -22.5484   30.8938 C   0  0  0  0  0  0  0  0  0  0  0  0
  -25.1239  -20.7822   29.1547 C   0  0  0  0  0  0  0  0  0  0  0  0
  -24.4057  -22.0191   36.2304 C   0  0  0  0  0  0  0  0  0  0  0  0
  -29.6014  -12.3639   18.2710 C   0  0  0  0  0  0  0  0  0  0  0  0
  -24.3279  -20.7700   35.3583 C   0  0  0  0  0  0  0  0  0  0  0  0
  -28.1650  -12.0688   18.7064 C   0  0  0  0  0  0  0  0  0  0  0  0
  -30.5207  -12.5845   19.4703 C   0  0  0  0  0  0  0  0  0  0  0  0
  -28.6210  -13.3133   20.8610 C   0  0  0  0  0  0  0  0  0  0  0  0
  -25.6284  -20.5641   34.5723 C   0  0  1  0  0  0  0  0  0  0  0  0
  -25.2690  -22.2535   31.1886 C   0  0  1  0  0  0  0  0  0  0  0  0
  -27.6448  -13.1388   19.6851 C   0  0  2  0  0  0  0  0  0  0  0  0
  -30.0146  -18.6425   24.5883 C   0  0  0  0  0  0  0  0  0  0  0  0
  -29.1820  -12.2356   25.4607 C   0  0  0  0  0  0  0  0  0  0  0  0
  -21.0992  -23.6132   24.8037 C   0  0  0  0  0  0  0  0  0  0  0  0
  -21.4339  -19.8528   30.2459 C   0  0  0  0  0  0  0  0  0  0  0  0
  -20.4015  -20.3034   28.0100 C   0  0  0  0  0  0  0  0  0  0  0  0
  -20.1983  -21.9885   29.8381 C   0  0  0  0  0  0  0  0  0  0  0  0
  -24.7029  -24.6610   25.4292 C   0  0  0  0  0  0  0  0  0  0  0  0
  -30.0414  -13.1348   26.3432 C   0  0  0  0  0  0  0  0  0  0  0  0
  -31.6287  -16.7225   23.1762 C   0  0  0  0  0  0  0  0  0  0  0  0
  -28.4169  -17.8029   26.8741 C   0  0  0  0  0  0  0  0  0  1  0  0
  -30.8085  -16.8973   21.8955 C   0  0  0  0  0  0  0  0  0  0  0  0
  -22.4302  -21.6616   28.6962 C   0  0  1  0  0  0  0  0  0  0  0  0
  -22.3308  -23.9091   25.6452 C   0  0  2  0  0  0  0  0  0  0  0  0
  -21.1441  -20.9478   29.2000 C   0  0  0  0  0  0  0  0  0  0  0  0
  -25.8596  -11.5457   20.2832 N   0  0  0  0  0  0  0  0  0  0  0  0
  -26.2354  -12.8296   20.1550 N   0  0  0  0  0  0  0  0  0  0  0  0
  -24.5275  -21.8307   29.9988 N   0  0  0  0  0  0  0  0  0  0  0  0
  -29.9710  -13.6121   20.3580 N   0  0  0  0  0  0  0  0  0  0  0  0
  -25.4678  -15.0564   20.4060 N   0  0  0  0  0  0  0  0  0  0  0  0
  -21.8868  -12.5788   21.6036 N   0  0  0  0  0  0  0  0  0  0  0  0
  -25.6810  -21.4615   33.4382 N   0  0  0  0  0  0  0  0  0  0  0  0
  -22.1836  -22.7219   27.7250 N   0  0  0  0  0  0  0  0  0  0  0  0
  -30.1436  -15.6754   21.5010 N   0  0  0  0  0  0  0  0  0  0  0  0
  -23.4361  -24.3180   24.7331 N   0  3  0  0  0  0  0  0  0  0  0  0
  -22.6605  -14.7193   21.3236 O   0  0  0  0  0  0  0  0  0  0  0  0
  -24.4593  -20.1659   31.9378 O   0  0  0  0  0  0  0  0  0  0  0  0
  -22.6876  -23.1687   30.5097 O   0  0  0  0  0  0  0  0  0  0  0  0
  -23.4846  -21.8215   26.0297 O   0  0  0  0  0  0  0  0  0  0  0  0
  -31.8768  -14.9242   20.2016 O   0  0  0  0  0  0  0  0  0  0  0  0
  -21.6178   -7.0153   21.7084 O   0  0  0  0  0  0  0  0  0  0  0  0
  -29.2595  -18.6189   27.6868 O   0  0  0  0  0  0  0  0  0  1  0  0
  -18.6357   -6.8516   26.3435 F   0  0  0  0  0  0  0  0  0  0  0  0
  -22.0732   -5.0708   23.6200 F   0  0  0  0  0  0  0  0  0  0  0  0
  -31.7921  -13.7817   23.9233 Cl  0  0  0  0  0  0  0  0  0  0  0  0
  1  2  1  0  0  0  0
  1  5  2  0  0  0  0
  2  6  2  0  0  0  0
  3  8  2  0  0  0  0
  3 16  1  0  0  0  0
  4  9  1  0  0  0  0
  4 16  2  0  0  0  0
  5 18  1  0  0  0  0
  6 20  1  0  0  0  0
  7 10  2  0  0  0  0
  7 19  1  0  0  0  0
  8 26  1  0  0  0  0
  9 26  2  0  0  0  0
 10 27  1  0  0  0  0
 11 12  2  0  0  0  0
 11 28  1  0  0  0  0
 12 29  1  0  0  0  0
 13 21  1  0  0  0  0
 13 27  2  0  0  0  0
 14 22  2  0  0  0  0
 14 23  1  0  0  0  0
 15 29  2  0  0  0  0
 15 30  1  0  0  0  0
 16 32  1  0  0  0  0
 17 32  1  0  0  0  0
 17 33  2  0  0  0  0
 17 34  1  0  0  0  0
 18 20  2  0  0  0  0
 18 39  1  0  0  0  0
 19 21  2  0  0  0  0
 19 40  1  0  0  0  0
 20 48  1  0  0  0  0
 21 41  1  0  0  0  0
 22 24  1  0  0  0  0
 22 60  1  0  0  0  0
 23 31  2  0  0  0  0
 23 58  1  0  0  0  0
 24 25  2  0  0  0  0
 24 51  1  0  0  0  0
 25 31  1  0  0  0  0
 25 59  1  0  0  0  0
 26 80  1  0  0  0  0
 27 81  1  0  0  0  0
 28 30  2  0  0  0  0
 28 80  1  0  0  0  0
 29 82  1  0  0  0  0
 30 83  1  0  0  0  0
 31 84  1  0  0  0  0
 32 65  2  0  0  0  0
 33 66  1  0  0  0  0
 33 69  1  0  0  0  0
 34 70  1  0  0  0  0
 34 75  2  0  0  0  0
 35 49  1  0  0  0  0
 35 71  1  0  0  0  0
 35 76  2  0  0  0  0
 36 62  1  0  0  0  0
 36 67  1  0  0  0  0
 36 77  2  0  0  0  0
 37 63  1  0  0  0  0
 37 72  1  0  0  0  0
 37 78  2  0  0  0  0
 38 68  1  0  0  0  0
 38 73  1  0  0  0  0
 38 79  2  0  0  0  0
 39 42  1  0  0  0  0
 40 49  1  0  0  0  0
 41 67  1  0  0  0  0
 42 44  1  0  0  0  0
 43 45  1  0  0  0  0
 43 46  1  0  0  0  0
 44 48  1  0  0  0  0
 45 50  1  0  0  0  0
 46 68  1  0  0  0  0
 47 50  1  0  0  0  0
 47 68  1  0  0  0  0
 48 71  1  0  0  0  0
 49 67  1  0  0  0  0
 50 66  1  0  0  0  0
 52 58  1  0  0  0  0
 53 63  1  0  0  0  0
 54 64  1  0  0  0  0
 55 64  1  0  0  0  0
 56 64  1  0  0  0  0
 57 74  1  0  0  0  0
 59 61  1  0  0  0  0
 60 81  1  0  0  0  0
 61 73  1  0  0  0  0
 62 64  1  0  0  0  0
 62 72  1  0  0  0  0
 63 74  1  0  0  0  0
 65 66  1  0  0  0  0
M  CHG  1  74   1
M  ISO  4  38 100  60 101  73 100  81 101
M  END
> <Batch ID>
0030

> <Smiles>
CCc1cc([101CH2:1][101O:1]c2ccc3c(c2)CN(C(=O)C(NC(=O)C(C)NC)C(C)(C)C)C(C(=O)NC2CCCc4ccccc42)C3)c(C)c(CC[100NH:0][100C:0](=O)N2CCCC(n3nc(-c4ccc(Oc5ccc(F)cc5F)cc4)c(C(N)=O)c3N)C2)c1Cl

> <Shape>
0.163

> <Color>
0.196

> <Negative vol penalty>
0.000

$$$$

  -OEChem-04052316393D

 89 98  0     1  0  0  0  0  0999 V2000
  -26.0452  -29.7522   27.7523 C   0  0  0  0  0  0  0  0  0  0  0  0
  -26.5004  -28.6623   27.0171 C   0  0  0  0  0  0  0  0  0  0  0  0
  -23.2349  -10.0956   22.1696 C   0  0  0  0  0  0  0  0  0  0  0  0
  -23.4974   -9.5009   19.8427 C   0  0  0  0  0  0  0  0  0  0  0  0
  -25.2953  -30.7483   27.1283 C   0  0  0  0  0  0  0  0  0  0  0  0
  -26.2049  -28.5674   25.6577 C   0  0  0  0  0  0  0  0  0  0  0  0
  -29.7685  -26.2072   21.2718 C   0  0  0  0  0  0  0  0  0  0  0  0
  -22.4763   -8.9439   22.3784 C   0  0  0  0  0  0  0  0  0  0  0  0
  -22.7388   -8.3491   20.0515 C   0  0  0  0  0  0  0  0  0  0  0  0
  -29.7887  -24.9596   20.6498 C   0  0  0  0  0  0  0  0  0  0  0  0
  -23.0359   -5.6387   22.8210 C   0  0  0  0  0  0  0  0  0  0  0  0
  -23.3166   -4.8740   23.9532 C   0  0  0  0  0  0  0  0  0  0  0  0
  -31.5313  -18.2750   20.2492 C   0  0  0  0  0  0  0  0  0  0  0  0
  -28.4614  -25.8464   18.8412 C   0  0  0  0  0  0  0  0  0  0  0  0
  -29.3321  -18.5013   21.2079 C   0  0  0  0  0  0  0  0  0  0  0  0
  -21.0565   -5.2082   24.7392 C   0  0  0  0  0  0  0  0  0  0  0  0
  -23.7454  -10.3741   20.9017 C   0  0  0  0  0  0  0  0  0  0  0  0
  -24.1211  -12.8973   20.8805 C   0  0  0  0  0  0  0  0  0  0  0  0
  -24.9987  -30.6704   25.7584 C   0  0  0  0  0  0  0  0  0  0  0  0
  -29.0842  -27.2828   20.6875 C   0  0  0  0  0  0  0  0  0  0  0  0
  -25.4492  -29.5628   25.0151 C   0  0  0  0  0  0  0  0  0  0  0  0
  -31.2974  -19.3718   19.4029 C   0  0  0  0  0  0  0  0  0  0  0  0
  -28.4362  -27.1073   19.4565 C   0  0  0  0  0  0  0  0  0  0  0  0
  -30.0597  -20.0379   19.4614 C   0  0  0  0  0  0  0  0  0  0  0  0
  -30.5569  -17.8460   21.1491 C   0  0  0  0  0  0  0  0  0  0  0  0
  -29.0844  -19.5877   20.3698 C   0  0  0  0  0  0  0  0  0  0  0  0
  -22.2282   -8.0706   21.3194 C   0  0  0  0  0  0  0  0  0  0  0  0
  -29.1326  -24.7783   19.4358 C   0  0  0  0  0  0  0  0  0  0  0  0
  -21.7655   -6.1882   22.6478 C   0  0  0  0  0  0  0  0  0  0  0  0
  -22.3269   -4.6587   24.9123 C   0  0  0  0  0  0  0  0  0  0  0  0
  -20.7759   -5.9729   23.6069 C   0  0  0  0  0  0  0  0  0  0  0  0
  -24.5287  -11.5640   20.6853 C   0  0  0  0  0  0  0  0  0  0  0  0
  -25.2204  -13.6460   20.5379 C   0  0  0  0  0  0  0  0  0  0  0  0
  -22.8615  -13.4128   21.3313 C   0  0  0  0  0  0  0  0  0  0  0  0
  -26.6260  -29.1077   21.5422 C   0  0  0  0  0  0  0  0  0  0  0  0
  -27.4025  -30.7391   18.8481 C   0  0  0  0  0  0  0  0  0  0  0  0
  -28.8852  -30.7181   15.7743 C   0  0  0  0  0  0  0  0  0  0  0  0
  -30.7191  -14.5827   20.7178 C   0  0  0  0  0  0  0  0  0  0  0  0
  -24.1447  -31.7477   25.1382 C   0  0  0  0  0  0  0  0  0  0  0  0
  -29.0944  -28.6292   21.3579 C   0  0  0  0  0  0  0  0  0  0  0  0
  -32.3613  -19.7424   18.4031 C   0  0  0  0  0  0  0  0  0  0  0  0
  -27.7044  -28.2352   18.7777 C   0  0  0  0  0  0  0  0  0  0  0  0
  -24.1932  -31.7605   23.6125 C   0  0  0  0  0  0  0  0  0  0  0  0
  -32.1263  -21.0777   17.7006 C   0  0  0  0  0  0  0  0  0  0  0  0
  -29.5285  -12.3122   18.2472 C   0  0  0  0  0  0  0  0  0  0  0  0
  -24.0304  -30.3475   23.0614 C   0  0  0  0  0  0  0  0  0  0  0  0
  -28.0908  -12.0206   18.6808 C   0  0  0  0  0  0  0  0  0  0  0  0
  -30.4587  -12.4719   19.4476 C   0  0  0  0  0  0  0  0  0  0  0  0
  -28.5791  -13.1718   20.8797 C   0  0  0  0  0  0  0  0  0  0  0  0
  -29.7559  -21.2515   18.5907 C   0  0  2  0  0  0  0  0  0  0  0  0
  -25.1703  -29.4366   23.5330 C   0  0  1  0  0  0  0  0  0  0  0  0
  -27.9334  -29.5201   20.9270 C   0  0  1  0  0  0  0  0  0  0  0  0
  -27.5926  -13.0582   19.7048 C   0  0  2  0  0  0  0  0  0  0  0  0
  -30.6506  -21.3046   17.3071 C   0  0  0  0  0  0  0  0  0  0  0  0
  -30.5409  -22.6639   16.5851 C   0  0  0  0  0  0  0  0  0  0  0  0
  -30.1848  -20.2258   16.2994 C   0  0  0  0  0  0  0  0  0  0  0  0
  -24.2280  -19.2699   19.0902 C   0  0  0  0  0  0  0  0  0  0  0  0
  -29.3263  -32.1895   13.7899 C   0  0  0  0  0  0  0  0  0  0  0  0
  -24.5003  -30.4131   17.9643 C   0  0  0  0  0  0  0  0  0  0  0  0
  -25.2109  -31.0283   15.6438 C   0  0  0  0  0  0  0  0  0  0  0  0
  -25.4838  -32.6662   17.5053 C   0  0  0  0  0  0  0  0  0  0  0  0
  -31.8167  -30.4769   16.1009 C   0  0  0  0  0  0  0  0  0  0  0  0
  -27.7340  -20.2274   20.4675 C   0  0  0  0  0  0  0  0  0  0  0  0
  -30.8251  -16.6804   22.0397 C   0  0  0  0  0  0  0  0  0  0  0  0
  -29.8511  -22.5114   19.4710 C   0  0  0  0  0  0  0  0  0  1  0  0
  -25.2862  -20.0743   19.8282 C   0  0  0  0  0  0  0  0  0  0  0  0
  -26.6550  -19.3974   19.7579 C   0  0  0  0  0  0  0  0  0  0  0  0
  -27.0071  -30.6515   17.3938 C   0  0  1  0  0  0  0  0  0  0  0  0
  -29.8601  -31.6801   15.1197 C   0  0  2  0  0  0  0  0  0  0  0  0
  -25.5626  -31.1678   17.1403 C   0  0  0  0  0  0  0  0  0  0  0  0
  -25.7885  -11.4681   20.2521 N   0  0  0  0  0  0  0  0  0  0  0  0
  -26.1820  -12.7507   20.1722 N   0  0  0  0  0  0  0  0  0  0  0  0
  -27.7377  -29.5310   19.4758 N   0  0  0  0  0  0  0  0  0  0  0  0
  -29.9299  -13.4711   20.3793 N   0  0  0  0  0  0  0  0  0  0  0  0
  -25.4486  -14.9764   20.5168 N   0  0  0  0  0  0  0  0  0  0  0  0
  -21.8776  -13.7023   20.3761 N   0  0  0  0  0  0  0  0  0  0  0  0
  -26.3716  -29.6929   22.7679 N   0  0  0  0  0  0  0  0  0  0  0  0
  -28.0367  -31.3660   16.6471 N   0  0  0  0  0  0  0  0  0  0  0  0
  -30.1400  -15.4847   21.6019 N   0  0  0  0  0  0  0  0  0  0  0  0
  -31.1667  -31.0064   14.8746 N   0  3  0  0  0  0  0  0  0  0  0  0
  -22.6215  -13.6262   22.5439 O   0  0  0  0  0  0  0  0  0  0  0  0
  -25.9010  -28.3183   20.9481 O   0  0  0  0  0  0  0  0  0  0  0  0
  -27.4204  -31.8398   19.4047 O   0  0  0  0  0  0  0  0  0  0  0  0
  -28.8746  -29.5131   15.5327 O   0  0  0  0  0  0  0  0  0  0  0  0
  -31.8535  -14.7611   20.2614 O   0  0  0  0  0  0  0  0  0  0  0  0
  -21.4882   -6.9466   21.5228 O   0  0  0  0  0  0  0  0  0  0  0  0
  -29.1504  -23.5481   18.8203 O   0  0  0  0  0  0  0  0  0  1  0  0
  -22.5962   -3.9231   25.9988 F   0  0  0  0  0  0  0  0  0  0  0  0
  -19.5532   -6.4973   23.4455 F   0  0  0  0  0  0  0  0  0  0  0  0
  1  2  1  0  0  0  0
  1  5  2  0  0  0  0
  2  6  2  0  0  0  0
  3  8  2  0  0  0  0
  3 17  1  0  0  0  0
  4  9  1  0  0  0  0
  4 17  2  0  0  0  0
  5 19  1  0  0  0  0
  6 21  1  0  0  0  0
  7 10  2  0  0  0  0
  7 20  1  0  0  0  0
  8 27  1  0  0  0  0
  9 27  2  0  0  0  0
 10 28  1  0  0  0  0
 11 12  2  0  0  0  0
 11 29  1  0  0  0  0
 12 30  1  0  0  0  0
 13 22  2  0  0  0  0
 13 25  1  0  0  0  0
 14 23  1  0  0  0  0
 14 28  2  0  0  0  0
 15 25  2  0  0  0  0
 15 26  1  0  0  0  0
 16 30  2  0  0  0  0
 16 31  1  0  0  0  0
 17 32  1  0  0  0  0
 18 32  1  0  0  0  0
 18 33  2  0  0  0  0
 18 34  1  0  0  0  0
 19 21  2  0  0  0  0
 19 39  1  0  0  0  0
 20 23  2  0  0  0  0
 20 40  1  0  0  0  0
 21 51  1  0  0  0  0
 22 24  1  0  0  0  0
 22 41  1  0  0  0  0
 23 42  1  0  0  0  0
 24 26  2  0  0  0  0
 24 50  1  0  0  0  0
 25 64  1  0  0  0  0
 26 63  1  0  0  0  0
 27 86  1  0  0  0  0
 28 87  1  0  0  0  0
 29 31  2  0  0  0  0
 29 86  1  0  0  0  0
 30 88  1  0  0  0  0
 31 89  1  0  0  0  0
 32 71  2  0  0  0  0
 33 72  1  0  0  0  0
 33 75  1  0  0  0  0
 34 76  1  0  0  0  0
 34 81  2  0  0  0  0
 35 52  1  0  0  0  0
 35 77  1  0  0  0  0
 35 82  2  0  0  0  0
 36 68  1  0  0  0  0
 36 73  1  0  0  0  0
 36 83  2  0  0  0  0
 37 69  1  0  0  0  0
 37 78  1  0  0  0  0
 37 84  2  0  0  0  0
 38 74  1  0  0  0  0
 38 79  1  0  0  0  0
 38 85  2  0  0  0  0
 39 43  1  0  0  0  0
 40 52  1  0  0  0  0
 41 44  1  0  0  0  0
 42 73  1  0  0  0  0
 43 46  1  0  0  0  0
 44 54  1  0  0  0  0
 45 47  1  0  0  0  0
 45 48  1  0  0  0  0
 46 51  1  0  0  0  0
 47 53  1  0  0  0  0
 48 74  1  0  0  0  0
 49 53  1  0  0  0  0
 49 74  1  0  0  0  0
 50 54  1  0  0  0  0
 50 65  1  0  0  0  0
 51 77  1  0  0  0  0
 52 73  1  0  0  0  0
 53 72  1  0  0  0  0
 54 55  1  0  0  0  0
 54 56  1  0  0  0  0
 57 66  1  0  0  0  0
 58 69  1  0  0  0  0
 59 70  1  0  0  0  0
 60 70  1  0  0  0  0
 61 70  1  0  0  0  0
 62 80  1  0  0  0  0
 63 67  1  0  0  0  0
 64 79  1  0  0  0  0
 65 87  1  0  0  0  0
 66 67  1  0  0  0  0
 68 70  1  0  0  0  0
 68 78  1  0  0  0  0
 69 80  1  0  0  0  0
 71 72  1  0  0  0  0
M  CHG  1  80   1
M  ISO  4  38 100  65 101  79 100  87 101
M  END
> <Batch ID>
0030

> <Smiles>
CCCCc1cc(C[100NH:0][100C:0](=O)N2CCCC(n3nc(-c4ccc(Oc5ccc(F)cc5F)cc4)c(C(N)=O)c3N)C2)cc2c1C([101CH2:1][101O:1]c1ccc3c(c1)CN(C(=O)C(NC(=O)C(C)NC)C(C)(C)C)C(C(=O)NC1CCCc4ccccc41)C3)C(C)(C)CC2

> <Shape>
0.328

> <Color>
0.190

> <Negative vol penalty>
0.000

$$$$

  -OEChem-04052316393D

 85 94  0     1  0  0  0  0  0999 V2000
  -25.2620   -8.9820   25.8617 C   0  0  0  0  0  0  0  0  0  0  0  0
  -26.4114   -9.7303   26.0947 C   0  0  0  0  0  0  0  0  0  0  0  0
  -23.1534   -9.8654   19.9609 C   0  0  0  0  0  0  0  0  0  0  0  0
  -23.8211   -9.9648   22.2807 C   0  0  0  0  0  0  0  0  0  0  0  0
  -24.0503   -9.3721   26.4304 C   0  0  0  0  0  0  0  0  0  0  0  0
  -26.3496  -10.8700   26.8958 C   0  0  0  0  0  0  0  0  0  0  0  0
  -30.1709  -11.1256   30.2089 C   0  0  0  0  0  0  0  0  0  0  0  0
  -22.4395   -8.6947   20.2165 C   0  0  0  0  0  0  0  0  0  0  0  0
  -23.1072   -8.7940   22.5363 C   0  0  0  0  0  0  0  0  0  0  0  0
  -31.4087  -11.5437   29.7222 C   0  0  0  0  0  0  0  0  0  0  0  0
  -21.7572   -5.6355   23.7243 C   0  0  0  0  0  0  0  0  0  0  0  0
  -22.3763   -4.6547   24.4990 C   0  0  0  0  0  0  0  0  0  0  0  0
  -30.9960  -13.7561   30.5906 C   0  0  0  0  0  0  0  0  0  0  0  0
  -32.0337  -17.0448   26.2573 C   0  0  0  0  0  0  0  0  0  0  0  0
  -24.1515   -4.4875   22.8688 C   0  0  0  0  0  0  0  0  0  0  0  0
  -23.8442  -10.5005   20.9930 C   0  0  0  0  0  0  0  0  0  0  0  0
  -24.1052  -13.0315   20.8104 C   0  0  0  0  0  0  0  0  0  0  0  0
  -23.9755  -10.5117   27.2468 C   0  0  0  0  0  0  0  0  0  0  0  0
  -29.3303  -12.0240   30.8817 C   0  0  0  0  0  0  0  0  0  0  0  0
  -25.1354  -11.2765   27.4749 C   0  0  0  0  0  0  0  0  0  0  0  0
  -29.7492  -13.3463   31.0871 C   0  0  0  0  0  0  0  0  0  0  0  0
  -31.8641  -15.8358   25.5826 C   0  0  0  0  0  0  0  0  0  0  0  0
  -33.6890  -16.0159   27.6850 C   0  0  0  0  0  0  0  0  0  0  0  0
  -33.5193  -14.8069   27.0104 C   0  0  0  0  0  0  0  0  0  0  0  0
  -22.4164   -8.1590   21.5042 C   0  0  0  0  0  0  0  0  0  0  0  0
  -31.8202  -12.8599   29.9105 C   0  0  0  0  0  0  0  0  0  0  0  0
  -22.3352   -6.0423   22.5217 C   0  0  0  0  0  0  0  0  0  0  0  0
  -23.5735   -4.0807   24.0713 C   0  0  0  0  0  0  0  0  0  0  0  0
  -23.5324   -5.4683   22.0940 C   0  0  0  0  0  0  0  0  0  0  0  0
  -32.9462  -17.1349   27.3085 C   0  0  0  0  0  0  0  0  0  0  0  0
  -32.6069  -14.7168   25.9592 C   0  0  0  0  0  0  0  0  0  0  0  0
  -24.5823  -11.7095   20.7295 C   0  0  0  0  0  0  0  0  0  0  0  0
  -25.1850  -13.8079   20.4672 C   0  0  0  0  0  0  0  0  0  0  0  0
  -22.8024  -13.5145   21.1642 C   0  0  0  0  0  0  0  0  0  0  0  0
  -26.4211  -13.1937   30.3602 C   0  0  0  0  0  0  0  0  0  0  0  0
  -26.8502  -14.5133   33.2922 C   0  0  0  0  0  0  0  0  0  0  0  0
  -29.0212  -15.5898   35.6952 C   0  0  0  0  0  0  0  0  0  0  0  0
  -30.9411  -13.9719   21.0620 C   0  0  0  0  0  0  0  0  0  0  0  0
  -22.6339  -10.9207   27.8011 C   0  0  0  0  0  0  0  0  0  0  0  0
  -28.0097  -11.5503   31.4240 C   0  0  0  0  0  0  0  0  0  0  0  0
  -28.8926  -14.3446   31.8206 C   0  0  0  0  0  0  0  0  0  0  0  0
  -22.7285  -11.9297   28.9428 C   0  0  0  0  0  0  0  0  0  0  0  0
  -29.3956  -13.0240   17.9978 C   0  0  0  0  0  0  0  0  0  0  0  0
  -23.6987  -13.0511   28.5851 C   0  0  0  0  0  0  0  0  0  0  0  0
  -27.9525  -12.7113   18.3973 C   0  0  0  0  0  0  0  0  0  0  0  0
  -30.9999  -16.7702   23.3347 C   0  0  0  0  0  0  0  0  0  0  0  0
  -30.3859  -12.5957   19.0785 C   0  0  0  0  0  0  0  0  0  0  0  0
  -28.6598  -12.8163   20.8237 C   0  0  0  0  0  0  0  0  0  0  0  0
  -30.8761  -15.7833   24.4619 C   0  0  1  0  0  0  0  0  0  0  0  0
  -25.1136  -12.5050   28.3584 C   0  0  1  0  0  0  0  0  0  0  0  0
  -27.0128  -12.6841   31.6438 C   0  0  1  0  0  0  0  0  0  0  0  0
  -27.6202  -13.2810   19.7896 C   0  0  2  0  0  0  0  0  0  0  0  0
  -31.3438  -15.3289   23.1005 C   0  0  1  0  0  0  0  0  0  0  0  0
  -34.6717  -16.1005   28.8119 C   0  0  0  0  0  0  0  0  0  0  0  0
  -29.0754  -16.6558   37.9663 C   0  0  0  0  0  0  0  0  0  0  0  0
  -26.1715  -17.2113   32.0393 C   0  0  0  0  0  0  0  0  0  0  0  0
  -27.1502  -18.3177   34.0608 C   0  0  0  0  0  0  0  0  0  0  0  0
  -25.1646  -16.8262   34.2959 C   0  0  0  0  0  0  0  0  0  0  0  0
  -30.4032  -13.2584   36.8843 C   0  0  0  0  0  0  0  0  0  0  0  0
  -34.3318  -13.6065   27.4313 C   0  0  0  0  0  0  0  0  0  0  0  0
  -33.5207  -12.6207   28.2651 C   0  0  0  0  0  0  0  0  0  1  0  0
  -27.4273  -15.8098   33.8070 C   0  0  1  0  0  0  0  0  0  0  0  0
  -29.0676  -15.3464   37.1929 C   0  0  2  0  0  0  0  0  0  0  0  0
  -26.4939  -17.0232   33.5352 C   0  0  0  0  0  0  0  0  0  0  0  0
  -25.8653  -11.6459   20.3635 N   0  0  0  0  0  0  0  0  0  0  0  0
  -26.2035  -12.9377   20.2113 N   0  0  0  0  0  0  0  0  0  0  0  0
  -27.6073  -13.8350   32.3265 N   0  0  0  0  0  0  0  0  0  0  0  0
  -30.0150  -13.1709   20.3737 N   0  0  0  0  0  0  0  0  0  0  0  0
  -25.3531  -15.1432   20.3624 N   0  0  0  0  0  0  0  0  0  0  0  0
  -21.8091  -12.5806   21.4893 N   0  0  0  0  0  0  0  0  0  0  0  0
  -25.7581  -12.2298   29.6246 N   0  0  0  0  0  0  0  0  0  0  0  0
  -27.7277  -15.5912   35.2178 N   0  0  0  0  0  0  0  0  0  0  0  0
  -30.5071  -14.4827   22.2791 N   0  0  0  0  0  0  0  0  0  0  0  0
  -30.2928  -14.5792   37.5553 N   0  3  0  0  0  0  0  0  0  0  0  0
  -22.5227  -14.7373   21.1753 O   0  0  0  0  0  0  0  0  0  0  0  0
  -26.5547  -14.3742   30.0600 O   0  0  0  0  0  0  0  0  0  0  0  0
  -25.7710  -14.1133   33.7359 O   0  0  0  0  0  0  0  0  0  0  0  0
  -30.0313  -15.7652   35.0173 O   0  0  0  0  0  0  0  0  0  0  0  0
  -32.0692  -14.2182   20.6218 O   0  0  0  0  0  0  0  0  0  0  0  0
  -21.7197   -7.0167   21.7540 O   0  0  0  0  0  0  0  0  0  0  0  0
  -33.0276  -13.2708   29.4359 O   0  0  0  0  0  0  0  0  0  1  0  0
  -24.1687   -3.1400   24.8162 F   0  0  0  0  0  0  0  0  0  0  0  0
  -24.0930   -5.8559   20.9402 F   0  0  0  0  0  0  0  0  0  0  0  0
  -33.1257  -18.6496   28.1180 Cl  0  0  0  0  0  0  0  0  0  0  0  0
  -32.3947  -13.2151   25.1205 Cl  0  0  0  0  0  0  0  0  0  0  0  0
  1  2  1  0  0  0  0
  1  5  2  0  0  0  0
  2  6  2  0  0  0  0
  3  8  2  0  0  0  0
  3 16  1  0  0  0  0
  4  9  1  0  0  0  0
  4 16  2  0  0  0  0
  5 18  1  0  0  0  0
  6 20  1  0  0  0  0
  7 10  2  0  0  0  0
  7 19  1  0  0  0  0
  8 25  1  0  0  0  0
  9 25  2  0  0  0  0
 10 26  1  0  0  0  0
 11 12  2  0  0  0  0
 11 27  1  0  0  0  0
 12 28  1  0  0  0  0
 13 21  1  0  0  0  0
 13 26  2  0  0  0  0
 14 22  2  0  0  0  0
 14 30  1  0  0  0  0
 15 28  2  0  0  0  0
 15 29  1  0  0  0  0
 16 32  1  0  0  0  0
 17 32  1  0  0  0  0
 17 33  2  0  0  0  0
 17 34  1  0  0  0  0
 18 20  2  0  0  0  0
 18 39  1  0  0  0  0
 19 21  2  0  0  0  0
 19 40  1  0  0  0  0
 20 50  1  0  0  0  0
 21 41  1  0  0  0  0
 22 31  1  0  0  0  0
 22 49  1  0  0  0  0
 23 24  1  0  0  0  0
 23 30  2  0  0  0  0
 23 54  1  0  0  0  0
 24 31  2  0  0  0  0
 24 60  1  0  0  0  0
 25 80  1  0  0  0  0
 26 81  1  0  0  0  0
 27 29  2  0  0  0  0
 27 80  1  0  0  0  0
 28 82  1  0  0  0  0
 29 83  1  0  0  0  0
 30 84  1  0  0  0  0
 31 85  1  0  0  0  0
 32 65  2  0  0  0  0
 33 66  1  0  0  0  0
 33 69  1  0  0  0  0
 34 70  1  0  0  0  0
 34 75  2  0  0  0  0
 35 51  1  0  0  0  0
 35 71  1  0  0  0  0
 35 76  2  0  0  0  0
 36 62  1  0  0  0  0
 36 67  1  0  0  0  0
 36 77  2  0  0  0  0
 37 63  1  0  0  0  0
 37 72  1  0  0  0  0
 37 78  2  0  0  0  0
 38 68  1  0  0  0  0
 38 73  1  0  0  0  0
 38 79  2  0  0  0  0
 39 42  1  0  0  0  0
 40 51  1  0  0  0  0
 41 67  1  0  0  0  0
 42 44  1  0  0  0  0
 43 45  1  0  0  0  0
 43 47  1  0  0  0  0
 44 50  1  0  0  0  0
 45 52  1  0  0  0  0
 46 49  1  0  0  0  0
 46 53  1  0  0  0  0
 47 68  1  0  0  0  0
 48 52  1  0  0  0  0
 48 68  1  0  0  0  0
 49 53  1  0  0  0  0
 50 71  1  0  0  0  0
 51 67  1  0  0  0  0
 52 66  1  0  0  0  0
 53 73  1  0  0  0  0
 55 63  1  0  0  0  0
 56 64  1  0  0  0  0
 57 64  1  0  0  0  0
 58 64  1  0  0  0  0
 59 74  1  0  0  0  0
 60 61  1  0  0  0  0
 61 81  1  0  0  0  0
 62 64  1  0  0  0  0
 62 72  1  0  0  0  0
 63 74  1  0  0  0  0
 65 66  1  0  0  0  0
M  CHG  1  74   1
M  ISO  4  38 100  61 101  73 100  81 101
M  END
> <Batch ID>
0030

> <Smiles>
CNC(C)C(=O)NC(C(=O)N1Cc2cc([101O:1][101CH2:1]Cc3c(C)c(Cl)cc(C4CC4[100NH:0][100C:0](=O)N4CCCC(n5nc(-c6ccc(Oc7ccc(F)cc7F)cc6)c(C(N)=O)c5N)C4)c3Cl)ccc2CC1C(=O)NC1CCCc2ccccc21)C(C)(C)C

> <Shape>
0.152

> <Color>
0.196

> <Negative vol penalty>
0.000

$$$$

  -OEChem-04052316393D

 77 84  0     1  0  0  0  0  0999 V2000
  -32.3728  -25.0442   22.7879 C   0  0  0  0  0  0  0  0  0  0  0  0
  -31.5084  -24.9763   21.7000 C   0  0  0  0  0  0  0  0  0  0  0  0
  -26.0839  -14.1159   20.8759 C   0  0  0  0  0  0  0  0  0  0  0  0
  -25.6176  -14.4826   18.5338 C   0  0  0  0  0  0  0  0  0  0  0  0
  -31.8588  -25.1043   24.0826 C   0  0  0  0  0  0  0  0  0  0  0  0
  -30.1293  -24.9673   21.9063 C   0  0  0  0  0  0  0  0  0  0  0  0
  -27.6716  -28.0653   18.7428 C   0  0  0  0  0  0  0  0  0  0  0  0
  -24.9046  -13.3808   20.9957 C   0  0  0  0  0  0  0  0  0  0  0  0
  -24.4382  -13.7475   18.6536 C   0  0  0  0  0  0  0  0  0  0  0  0
  -27.4722  -27.6157   17.4382 C   0  0  0  0  0  0  0  0  0  0  0  0
  -23.8280  -10.2612   20.2594 C   0  0  0  0  0  0  0  0  0  0  0  0
  -23.8837   -9.0558   20.9589 C   0  0  0  0  0  0  0  0  0  0  0  0
  -25.2093  -26.9995   18.0030 C   0  0  0  0  0  0  0  0  0  0  0  0
  -22.2545   -9.8943   22.5336 C   0  0  0  0  0  0  0  0  0  0  0  0
  -26.4404  -14.6668   19.6450 C   0  0  0  0  0  0  0  0  0  0  0  0
  -28.9359  -14.9368   19.1894 C   0  0  0  0  0  0  0  0  0  0  0  0
  -30.4727  -25.1058   24.3043 C   0  0  0  0  0  0  0  0  0  0  0  0
  -26.6432  -27.9751   19.6918 C   0  0  0  0  0  0  0  0  0  0  0  0
  -29.5963  -25.0261   23.2052 C   0  0  0  0  0  0  0  0  0  0  0  0
  -25.3974  -27.4509   19.3182 C   0  0  0  0  0  0  0  0  0  0  0  0
  -24.0817  -13.1966   19.8845 C   0  0  0  0  0  0  0  0  0  0  0  0
  -26.2419  -27.0801   17.0689 C   0  0  0  0  0  0  0  0  0  0  0  0
  -22.9856  -11.2833   20.6970 C   0  0  0  0  0  0  0  0  0  0  0  0
  -23.0970   -8.8723   22.0960 C   0  0  0  0  0  0  0  0  0  0  0  0
  -22.1988  -11.0998   21.8341 C   0  0  0  0  0  0  0  0  0  0  0  0
  -27.6583  -15.4267   19.5207 C   0  0  0  0  0  0  0  0  0  0  0  0
  -29.7434  -16.0478   19.2017 C   0  0  0  0  0  0  0  0  0  0  0  0
  -29.3552  -13.5974   18.8967 C   0  0  0  0  0  0  0  0  0  0  0  0
  -26.2730  -26.4598   22.4613 C   0  0  0  0  0  0  0  0  0  0  0  0
  -23.5034  -28.1451   22.5677 C   0  0  0  0  0  0  0  0  0  0  0  0
  -21.0499  -29.7969   20.8652 C   0  0  0  0  0  0  0  0  0  0  0  0
  -28.6598  -21.8848   18.4228 C   0  0  0  0  0  0  0  0  0  0  0  0
  -29.9646  -25.1244   25.7242 C   0  0  0  0  0  0  0  0  0  0  0  0
  -26.8657  -28.4891   21.0878 C   0  0  0  0  0  0  0  0  0  0  0  0
  -24.2544  -27.3507   20.2939 C   0  0  0  0  0  0  0  0  0  0  0  0
  -28.4865  -25.4883   25.8375 C   0  0  0  0  0  0  0  0  0  0  0  0
  -30.1663  -20.3468   21.2586 C   0  0  0  0  0  0  0  0  0  0  0  0
  -27.6640  -24.7039   24.8202 C   0  0  0  0  0  0  0  0  0  0  0  0
  -29.8097  -18.8673   21.1048 C   0  0  0  0  0  0  0  0  0  0  0  0
  -29.0303  -21.2529   20.7892 C   0  0  0  0  0  0  0  0  0  0  0  0
  -28.1922  -19.5049   19.2675 C   0  0  0  0  0  0  0  0  0  0  0  0
  -28.0940  -25.0391   23.3869 C   0  0  1  0  0  0  0  0  0  0  0  0
  -25.9131  -27.8755   22.1093 C   0  0  1  0  0  0  0  0  0  0  0  0
  -29.3287  -18.5520   19.6757 C   0  0  2  0  0  0  0  0  0  0  0  0
  -18.8972  -31.0365   21.2214 C   0  0  0  0  0  0  0  0  0  0  0  0
  -25.6046  -25.5549   13.1398 C   0  0  0  0  0  0  0  0  0  0  0  0
  -22.0550  -25.4968   23.0135 C   0  0  0  0  0  0  0  0  0  0  0  0
  -19.9134  -26.6475   22.4154 C   0  0  0  0  0  0  0  0  0  0  0  0
  -21.2136  -27.3939   24.4091 C   0  0  0  0  0  0  0  0  0  0  0  0
  -22.1598  -32.2884   19.7166 C   0  0  0  0  0  0  0  0  0  0  0  0
  -26.9193  -23.0853   15.8614 C   0  0  0  0  0  0  0  0  0  0  0  0
  -26.9009  -24.0166   14.6430 C   0  0  0  0  0  0  0  0  0  0  0  0
  -28.2533  -22.3613   16.0213 C   0  0  0  0  0  0  0  0  0  0  0  0
  -25.1203  -25.5680   15.6158 C   0  0  0  0  0  0  0  0  0  1  0  0
  -22.0896  -27.9092   22.0941 C   0  0  1  0  0  0  0  0  0  0  0  0
  -20.4076  -31.1541   21.0884 C   0  0  2  0  0  0  0  0  0  0  0  0
  -25.5422  -24.7080   14.4177 C   0  0  1  0  0  0  0  0  0  0  0  0
  -21.3399  -26.8618   22.9649 C   0  0  0  0  0  0  0  0  0  0  0  0
  -27.6499  -16.7461   19.7285 N   0  0  0  0  0  0  0  0  0  0  0  0
  -28.9321  -17.0947   19.5273 N   0  0  0  0  0  0  0  0  0  0  0  0
  -24.5233  -27.8607   21.6485 N   0  0  0  0  0  0  0  0  0  0  0  0
  -28.6221  -20.9029   19.4265 N   0  0  0  0  0  0  0  0  0  0  0  0
  -31.0611  -16.2216   18.9658 N   0  0  0  0  0  0  0  0  0  0  0  0
  -28.3967  -12.5753   18.9283 N   0  0  0  0  0  0  0  0  0  0  0  0
  -27.5456  -26.3152   22.9801 N   0  0  0  0  0  0  0  0  0  0  0  0
  -21.4493  -29.2194   22.0519 N   0  0  0  0  0  0  0  0  0  0  0  0
  -28.2628  -21.4678   17.1582 N   0  0  0  0  0  0  0  0  0  0  0  0
  -20.7095  -32.0640   19.9474 N   0  3  0  0  0  0  0  0  0  0  0  0
  -30.5477  -13.3127   18.6315 O   0  0  0  0  0  0  0  0  0  0  0  0
  -25.4561  -25.5651   22.2774 O   0  0  0  0  0  0  0  0  0  0  0  0
  -23.6956  -28.5729   23.7086 O   0  0  0  0  0  0  0  0  0  0  0  0
  -21.1806  -29.2971   19.7500 O   0  0  0  0  0  0  0  0  0  0  0  0
  -29.0257  -23.0456   18.6365 O   0  0  0  0  0  0  0  0  0  0  0  0
  -22.9309  -12.4792   20.0010 O   0  0  0  0  0  0  0  0  0  0  0  0
  -26.0447  -26.6399   15.7964 O   0  0  0  0  0  0  0  0  0  1  0  0
  -23.1494   -7.7140   22.7668 F   0  0  0  0  0  0  0  0  0  0  0  0
  -21.3867  -12.0776   22.2587 F   0  0  0  0  0  0  0  0  0  0  0  0
  1  2  1  0  0  0  0
  1  5  2  0  0  0  0
  2  6  2  0  0  0  0
  3  8  2  0  0  0  0
  3 15  1  0  0  0  0
  4  9  1  0  0  0  0
  4 15  2  0  0  0  0
  5 17  1  0  0  0  0
  6 19  1  0  0  0  0
  7 10  2  0  0  0  0
  7 18  1  0  0  0  0
  8 21  1  0  0  0  0
  9 21  2  0  0  0  0
 10 22  1  0  0  0  0
 11 12  2  0  0  0  0
 11 23  1  0  0  0  0
 12 24  1  0  0  0  0
 13 20  1  0  0  0  0
 13 22  2  0  0  0  0
 14 24  2  0  0  0  0
 14 25  1  0  0  0  0
 15 26  1  0  0  0  0
 16 26  1  0  0  0  0
 16 27  2  0  0  0  0
 16 28  1  0  0  0  0
 17 19  2  0  0  0  0
 17 33  1  0  0  0  0
 18 20  2  0  0  0  0
 18 34  1  0  0  0  0
 19 42  1  0  0  0  0
 20 35  1  0  0  0  0
 21 74  1  0  0  0  0
 22 75  1  0  0  0  0
 23 25  2  0  0  0  0
 23 74  1  0  0  0  0
 24 76  1  0  0  0  0
 25 77  1  0  0  0  0
 26 59  2  0  0  0  0
 27 60  1  0  0  0  0
 27 63  1  0  0  0  0
 28 64  1  0  0  0  0
 28 69  2  0  0  0  0
 29 43  1  0  0  0  0
 29 65  1  0  0  0  0
 29 70  2  0  0  0  0
 30 55  1  0  0  0  0
 30 61  1  0  0  0  0
 30 71  2  0  0  0  0
 31 56  1  0  0  0  0
 31 66  1  0  0  0  0
 31 72  2  0  0  0  0
 32 62  1  0  0  0  0
 32 67  1  0  0  0  0
 32 73  2  0  0  0  0
 33 36  1  0  0  0  0
 34 43  1  0  0  0  0
 35 61  1  0  0  0  0
 36 38  1  0  0  0  0
 37 39  1  0  0  0  0
 37 40  1  0  0  0  0
 38 42  1  0  0  0  0
 39 44  1  0  0  0  0
 40 62  1  0  0  0  0
 41 44  1  0  0  0  0
 41 62  1  0  0  0  0
 42 65  1  0  0  0  0
 43 61  1  0  0  0  0
 44 60  1  0  0  0  0
 45 56  1  0  0  0  0
 46 57  1  0  0  0  0
 47 58  1  0  0  0  0
 48 58  1  0  0  0  0
 49 58  1  0  0  0  0
 50 68  1  0  0  0  0
 51 52  1  0  0  0  0
 51 53  1  0  0  0  0
 52 57  1  0  0  0  0
 53 67  1  0  0  0  0
 54 57  1  0  0  0  0
 54 75  1  0  0  0  0
 55 58  1  0  0  0  0
 55 66  1  0  0  0  0
 56 68  1  0  0  0  0
 59 60  1  0  0  0  0
M  CHG  1  68   1
M  ISO  4  32 100  54 101  67 100  75 101
M  END
> <Batch ID>
0030

> <Smiles>
CNC(C)C(=O)NC(C(=O)N1Cc2cc([101O:1][101CH2:1]C(C)CCC[100NH:0][100C:0](=O)N3CCCC(n4nc(-c5ccc(Oc6ccc(F)cc6F)cc5)c(C(N)=O)c4N)C3)ccc2CC1C(=O)NC1CCCc2ccccc21)C(C)(C)C

> <Shape>
0.214

> <Color>
0.073

> <Negative vol penalty>
0.000

$$$$

  -OEChem-04052316393D

 88 97  0     1  0  0  0  0  0999 V2000
  -26.8138  -37.5330   26.6844 C   0  0  0  0  0  0  0  0  0  0  0  0
  -25.7608  -36.7076   27.0658 C   0  0  0  0  0  0  0  0  0  0  0  0
  -23.5865  -11.1277   23.5522 C   0  0  0  0  0  0  0  0  0  0  0  0
  -24.5550  -13.1885   24.3597 C   0  0  0  0  0  0  0  0  0  0  0  0
  -27.3484  -37.4308   25.4008 C   0  0  0  0  0  0  0  0  0  0  0  0
  -25.2412  -35.7803   26.1633 C   0  0  0  0  0  0  0  0  0  0  0  0
  -24.4197  -28.0428   26.8592 C   0  0  0  0  0  0  0  0  0  0  0  0
  -23.0922  -10.8598   24.8287 C   0  0  0  0  0  0  0  0  0  0  0  0
  -24.0607  -12.9206   25.6363 C   0  0  0  0  0  0  0  0  0  0  0  0
  -24.3689  -26.6499   26.8023 C   0  0  0  0  0  0  0  0  0  0  0  0
  -21.2676   -9.8101   27.7925 C   0  0  0  0  0  0  0  0  0  0  0  0
  -19.9506   -9.3629   27.8974 C   0  0  0  0  0  0  0  0  0  0  0  0
  -24.5243  -26.7320   24.3904 C   0  0  0  0  0  0  0  0  0  0  0  0
  -27.2456  -21.3905   21.0042 C   0  0  0  0  0  0  0  0  0  0  0  0
  -27.1515  -18.6028   20.9545 C   0  0  0  0  0  0  0  0  0  0  0  0
  -19.1757  -11.4017   26.8580 C   0  0  0  0  0  0  0  0  0  0  0  0
  -24.3179  -12.2921   23.3177 C   0  0  0  0  0  0  0  0  0  0  0  0
  -24.0852  -12.7255   20.8146 C   0  0  0  0  0  0  0  0  0  0  0  0
  -26.8414  -36.4951   24.4853 C   0  0  0  0  0  0  0  0  0  0  0  0
  -24.5387  -28.7859   25.6814 C   0  0  0  0  0  0  0  0  0  0  0  0
  -25.7686  -35.6664   24.8658 C   0  0  0  0  0  0  0  0  0  0  0  0
  -24.5882  -28.1270   24.4420 C   0  0  0  0  0  0  0  0  0  0  0  0
  -26.5474  -20.6986   21.9938 C   0  0  0  0  0  0  0  0  0  0  0  0
  -27.8497  -19.2948   19.9649 C   0  0  0  0  0  0  0  0  0  0  0  0
  -23.3293  -11.7562   25.8708 C   0  0  0  0  0  0  0  0  0  0  0  0
  -24.4208  -25.9961   25.5710 C   0  0  0  0  0  0  0  0  0  0  0  0
  -21.5388  -11.0531   27.2205 C   0  0  0  0  0  0  0  0  0  0  0  0
  -18.9046  -10.1587   27.4301 C   0  0  0  0  0  0  0  0  0  0  0  0
  -27.8968  -20.6887   19.9897 C   0  0  0  0  0  0  0  0  0  0  0  0
  -20.4928  -11.8488   26.7532 C   0  0  0  0  0  0  0  0  0  0  0  0
  -26.5003  -19.3047   21.9690 C   0  0  0  0  0  0  0  0  0  0  0  0
  -24.8292  -12.5691   21.9994 C   0  0  0  0  0  0  0  0  0  0  0  0
  -25.0283  -12.9727   19.8471 C   0  0  0  0  0  0  0  0  0  0  0  0
  -22.6684  -12.6539   20.6071 C   0  0  0  0  0  0  0  0  0  0  0  0
  -24.8226  -32.1772   24.1020 C   0  0  0  0  0  0  0  0  0  0  0  0
  -26.7420  -30.3251   22.5868 C   0  0  0  0  0  0  0  0  0  0  0  0
  -29.0367  -28.0687   21.4553 C   0  0  0  0  0  0  0  0  0  0  0  0
  -30.5635  -15.2479   20.0353 C   0  0  0  0  0  0  0  0  0  0  0  0
  -27.4206  -36.4539   23.0934 C   0  0  0  0  0  0  0  0  0  0  0  0
  -24.5350  -30.2905   25.6908 C   0  0  0  0  0  0  0  0  0  0  0  0
  -24.6814  -28.9687   23.1987 C   0  0  0  0  0  0  0  0  0  0  0  0
  -27.0607  -35.1873   22.3211 C   0  0  0  0  0  0  0  0  0  0  0  0
  -29.5979  -12.0692   18.7547 C   0  0  0  0  0  0  0  0  0  0  0  0
  -24.7521  -22.4090   22.5060 C   0  0  0  0  0  0  0  0  0  0  0  0
  -26.8559  -22.3105   23.9214 C   0  0  0  0  0  0  0  0  0  0  0  0
  -25.5724  -34.8828   22.4589 C   0  0  0  0  0  0  0  0  0  0  0  0
  -28.1991  -11.8510   19.3342 C   0  0  0  0  0  0  0  0  0  0  0  0
  -24.0560  -23.2044   23.6074 C   0  0  0  0  0  0  0  0  0  0  0  0
  -26.1486  -23.1058   25.0157 C   0  0  0  0  0  0  0  0  0  0  0  0
  -30.5125  -12.7885   19.7436 C   0  0  0  0  0  0  0  0  0  0  0  0
  -28.5781  -13.8384   20.8525 C   0  0  0  0  0  0  0  0  0  0  0  0
  -25.8537  -21.5003   23.0800 C   0  0  0  0  0  0  0  0  0  0  0  0
  -25.1942  -34.6310   23.9235 C   0  0  1  0  0  0  0  0  0  0  0  0
  -25.4360  -30.9030   24.6034 C   0  0  1  0  0  0  0  0  0  0  0  0
  -27.6030  -13.1663   19.8708 C   0  0  2  0  0  0  0  0  0  0  0  0
  -25.0542  -24.0035   24.4434 C   0  0  0  0  0  0  0  0  0  1  0  0
  -30.8907  -27.8147   19.7832 C   0  0  0  0  0  0  0  0  0  0  0  0
  -24.6841  -30.0567   20.3513 C   0  0  0  0  0  0  0  0  0  0  0  0
  -26.4297  -28.8990   18.9799 C   0  0  0  0  0  0  0  0  0  0  0  0
  -26.7780  -31.2608   19.7031 C   0  0  0  0  0  0  0  0  0  0  0  0
  -31.0354  -27.5533   23.5762 C   0  0  0  0  0  0  0  0  0  0  0  0
  -28.5453  -18.5418   18.8812 C   0  0  0  0  0  0  0  0  0  0  0  0
  -30.0661  -18.3927   19.0830 C   0  0  0  0  0  0  0  0  0  0  0  0
  -30.4625  -17.7026   20.3865 C   0  0  0  0  0  0  0  0  0  0  0  0
  -26.9463  -29.4039   21.4107 C   0  0  1  0  0  0  0  0  0  0  0  0
  -30.5308  -28.1863   21.2133 C   0  0  2  0  0  0  0  0  0  0  0  0
  -26.2023  -29.8951   20.1369 C   0  0  0  0  0  0  0  0  0  0  0  0
  -26.1436  -12.7053   21.8047 N   0  0  0  0  0  0  0  0  0  0  0  0
  -26.2329  -12.9498   20.4863 N   0  0  0  0  0  0  0  0  0  0  0  0
  -25.6365  -30.0682   23.4068 N   0  0  0  0  0  0  0  0  0  0  0  0
  -29.8895  -14.0284   20.2129 N   0  0  0  0  0  0  0  0  0  0  0  0
  -24.9363  -13.2050   18.5205 N   0  0  0  0  0  0  0  0  0  0  0  0
  -21.8440  -12.3916   21.7099 N   0  0  0  0  0  0  0  0  0  0  0  0
  -25.5953  -33.3004   24.3275 N   0  0  0  0  0  0  0  0  0  0  0  0
  -28.3894  -29.2678   21.2447 N   0  0  0  0  0  0  0  0  0  0  0  0
  -29.9000  -16.3757   20.5029 N   0  0  0  0  0  0  0  0  0  0  0  0
  -31.2773  -27.2844   22.1354 N   0  3  0  0  0  0  0  0  0  0  0  0
  -22.1499  -12.8013   19.4744 O   0  0  0  0  0  0  0  0  0  0  0  0
  -23.7293  -32.1449   23.5495 O   0  0  0  0  0  0  0  0  0  0  0  0
  -27.5361  -31.2514   22.7724 O   0  0  0  0  0  0  0  0  0  0  0  0
  -28.4974  -27.0174   21.7933 O   0  0  0  0  0  0  0  0  0  0  0  0
  -31.6719  -15.3265   19.4947 O   0  0  0  0  0  0  0  0  0  0  0  0
  -22.8469  -11.4952   27.1165 O   0  0  0  0  0  0  0  0  0  0  0  0
  -24.3752  -24.6359   25.5230 O   0  0  0  0  0  0  0  0  0  1  0  0
  -17.6400   -9.7285   27.5294 F   0  0  0  0  0  0  0  0  0  0  0  0
  -28.5655  -21.3616   19.0429 F   0  0  0  0  0  0  0  0  0  0  0  0
  -20.7472  -13.0434   26.2017 F   0  0  0  0  0  0  0  0  0  0  0  0
  -25.6447  -18.4162   23.1763 Cl  0  0  0  0  0  0  0  0  0  0  0  0
  1  2  1  0  0  0  0
  1  5  2  0  0  0  0
  2  6  2  0  0  0  0
  3  8  2  0  0  0  0
  3 17  1  0  0  0  0
  4  9  1  0  0  0  0
  4 17  2  0  0  0  0
  5 19  1  0  0  0  0
  6 21  1  0  0  0  0
  7 10  2  0  0  0  0
  7 20  1  0  0  0  0
  8 25  1  0  0  0  0
  9 25  2  0  0  0  0
 10 26  1  0  0  0  0
 11 12  2  0  0  0  0
 11 27  1  0  0  0  0
 12 28  1  0  0  0  0
 13 22  1  0  0  0  0
 13 26  2  0  0  0  0
 14 23  1  0  0  0  0
 14 29  2  0  0  0  0
 15 24  2  0  0  0  0
 15 31  1  0  0  0  0
 16 28  2  0  0  0  0
 16 30  1  0  0  0  0
 17 32  1  0  0  0  0
 18 32  1  0  0  0  0
 18 33  2  0  0  0  0
 18 34  1  0  0  0  0
 19 21  2  0  0  0  0
 19 39  1  0  0  0  0
 20 22  2  0  0  0  0
 20 40  1  0  0  0  0
 21 53  1  0  0  0  0
 22 41  1  0  0  0  0
 23 31  2  0  0  0  0
 23 52  1  0  0  0  0
 24 29  1  0  0  0  0
 24 62  1  0  0  0  0
 25 83  1  0  0  0  0
 26 84  1  0  0  0  0
 27 30  2  0  0  0  0
 27 83  1  0  0  0  0
 28 85  1  0  0  0  0
 29 86  1  0  0  0  0
 30 87  1  0  0  0  0
 31 88  1  0  0  0  0
 32 68  2  0  0  0  0
 33 69  1  0  0  0  0
 33 72  1  0  0  0  0
 34 73  1  0  0  0  0
 34 78  2  0  0  0  0
 35 54  1  0  0  0  0
 35 74  1  0  0  0  0
 35 79  2  0  0  0  0
 36 65  1  0  0  0  0
 36 70  1  0  0  0  0
 36 80  2  0  0  0  0
 37 66  1  0  0  0  0
 37 75  1  0  0  0  0
 37 81  2  0  0  0  0
 38 71  1  0  0  0  0
 38 76  1  0  0  0  0
 38 82  2  0  0  0  0
 39 42  1  0  0  0  0
 40 54  1  0  0  0  0
 41 70  1  0  0  0  0
 42 46  1  0  0  0  0
 43 47  1  0  0  0  0
 43 50  1  0  0  0  0
 44 48  1  0  0  0  0
 44 52  1  0  0  0  0
 45 49  1  0  0  0  0
 45 52  1  0  0  0  0
 46 53  1  0  0  0  0
 47 55  1  0  0  0  0
 48 56  1  0  0  0  0
 49 56  1  0  0  0  0
 50 71  1  0  0  0  0
 51 55  1  0  0  0  0
 51 71  1  0  0  0  0
 53 74  1  0  0  0  0
 54 70  1  0  0  0  0
 55 69  1  0  0  0  0
 56 84  1  0  0  0  0
 57 66  1  0  0  0  0
 58 67  1  0  0  0  0
 59 67  1  0  0  0  0
 60 67  1  0  0  0  0
 61 77  1  0  0  0  0
 62 63  1  0  0  0  0
 63 64  1  0  0  0  0
 64 76  1  0  0  0  0
 65 67  1  0  0  0  0
 65 75  1  0  0  0  0
 66 77  1  0  0  0  0
 68 69  1  0  0  0  0
M  CHG  1  77   1
M  ISO  4  38 100  56 101  76 100  84 101
M  END
> <Batch ID>
0030

> <Smiles>
CNC(C)C(=O)NC(C(=O)N1Cc2cc([101O:1][101CH:1]3CCC(c4cc(F)c(CCC[100NH:0][100C:0](=O)N5CCCC(n6nc(-c7ccc(Oc8ccc(F)cc8F)cc7)c(C(N)=O)c6N)C5)cc4Cl)CC3)ccc2CC1C(=O)NC1CCCc2ccccc21)C(C)(C)C

> <Shape>
0.258

> <Color>
0.095

> <Negative vol penalty>
0.000

$$$$

  -OEChem-04052316393D

 84 92  0     1  0  0  0  0  0999 V2000
  -25.1895  -33.1906   26.1120 C   0  0  0  0  0  0  0  0  0  0  0  0
  -25.1833  -31.8335   26.4180 C   0  0  0  0  0  0  0  0  0  0  0  0
  -22.9379   -9.9076   19.9956 C   0  0  0  0  0  0  0  0  0  0  0  0
  -23.6710   -9.9278   22.2976 C   0  0  0  0  0  0  0  0  0  0  0  0
  -25.0300  -33.6069   24.7910 C   0  0  0  0  0  0  0  0  0  0  0  0
  -25.0165  -30.8918   25.4032 C   0  0  0  0  0  0  0  0  0  0  0  0
  -27.5801  -25.3397   25.0750 C   0  0  0  0  0  0  0  0  0  0  0  0
  -22.1450   -8.7904   20.2579 C   0  0  0  0  0  0  0  0  0  0  0  0
  -22.8781   -8.8106   22.5599 C   0  0  0  0  0  0  0  0  0  0  0  0
  -27.1053  -24.0672   25.3898 C   0  0  0  0  0  0  0  0  0  0  0  0
  -23.0403   -5.4695   22.0683 C   0  0  0  0  0  0  0  0  0  0  0  0
  -23.6054   -4.4342   22.8128 C   0  0  0  0  0  0  0  0  0  0  0  0
  -26.5040  -23.7264   23.0786 C   0  0  0  0  0  0  0  0  0  0  0  0
  -27.7054  -17.7059   22.6618 C   0  0  0  0  0  0  0  0  0  0  0  0
  -21.8929   -4.7090   24.4948 C   0  0  0  0  0  0  0  0  0  0  0  0
  -23.7010  -10.4763   21.0154 C   0  0  0  0  0  0  0  0  0  0  0  0
  -24.1464  -12.9828   20.8524 C   0  0  0  0  0  0  0  0  0  0  0  0
  -24.8708  -32.6695   23.7582 C   0  0  0  0  0  0  0  0  0  0  0  0
  -27.5103  -25.8201   23.7594 C   0  0  0  0  0  0  0  0  0  0  0  0
  -24.8533  -31.2960   24.0673 C   0  0  0  0  0  0  0  0  0  0  0  0
  -26.9809  -25.0044   22.7493 C   0  0  0  0  0  0  0  0  0  0  0  0
  -27.0612  -18.0840   23.8345 C   0  0  0  0  0  0  0  0  0  0  0  0
  -28.5411  -18.6077   22.0124 C   0  0  0  0  0  0  0  0  0  0  0  0
  -22.1151   -8.2419   21.5400 C   0  0  0  0  0  0  0  0  0  0  0  0
  -26.5645  -23.2615   24.3921 C   0  0  0  0  0  0  0  0  0  0  0  0
  -21.9016   -6.1247   22.5371 C   0  0  0  0  0  0  0  0  0  0  0  0
  -23.0317   -4.0539   24.0260 C   0  0  0  0  0  0  0  0  0  0  0  0
  -21.3279   -5.7444   23.7503 C   0  0  0  0  0  0  0  0  0  0  0  0
  -24.5207  -11.6300   20.7449 C   0  0  0  0  0  0  0  0  0  0  0  0
  -27.2842  -19.3651   24.3128 C   0  0  0  0  0  0  0  0  0  0  0  0
  -28.6976  -19.8654   22.5721 C   0  0  0  0  0  0  0  0  0  0  0  0
  -25.2722  -13.6805   20.4886 C   0  0  0  0  0  0  0  0  0  0  0  0
  -22.8932  -13.5574   21.2460 C   0  0  0  0  0  0  0  0  0  0  0  0
  -26.0504  -28.2589   22.3364 C   0  0  0  0  0  0  0  0  0  0  0  0
  -27.7420  -27.2595   19.7554 C   0  0  0  0  0  0  0  0  0  0  0  0
  -29.3640  -24.7139   18.1629 C   0  0  0  0  0  0  0  0  0  0  0  0
  -30.7902  -14.4807   20.7251 C   0  0  0  0  0  0  0  0  0  0  0  0
  -24.6544  -33.1689   22.3516 C   0  0  0  0  0  0  0  0  0  0  0  0
  -28.0513  -27.1847   23.4312 C   0  0  0  0  0  0  0  0  0  0  0  0
  -26.9018  -25.4654   21.3176 C   0  0  0  0  0  0  0  0  0  0  0  0
  -24.8584  -32.0952   21.2859 C   0  0  0  0  0  0  0  0  0  0  0  0
  -29.5843  -12.0988   18.3696 C   0  0  0  0  0  0  0  0  0  0  0  0
  -24.1399  -30.8086   21.6800 C   0  0  0  0  0  0  0  0  0  0  0  0
  -28.1312  -11.8717   18.7902 C   0  0  0  0  0  0  0  0  0  0  0  0
  -30.4958  -12.3054   19.5773 C   0  0  0  0  0  0  0  0  0  0  0  0
  -28.6094  -13.1391   20.9265 C   0  0  0  0  0  0  0  0  0  0  0  0
  -24.6998  -30.2434   22.9909 C   0  0  1  0  0  0  0  0  0  0  0  0
  -27.4595  -27.7705   22.1530 C   0  0  1  0  0  0  0  0  0  0  0  0
  -27.6426  -12.9814   19.7405 C   0  0  2  0  0  0  0  0  0  0  0  0
  -26.1644  -17.1225   24.5345 C   0  0  0  0  0  0  0  0  0  0  0  0
  -30.6139  -24.1906   16.0507 C   0  0  0  0  0  0  0  0  0  0  0  0
  -25.1054  -27.1587   18.2230 C   0  0  0  0  0  0  0  0  0  0  0  0
  -26.2476  -25.7610   16.4880 C   0  0  0  0  0  0  0  0  0  0  0  0
  -27.0310  -28.0884   16.9260 C   0  0  0  0  0  0  0  0  0  0  0  0
  -31.8306  -24.0386   19.6525 C   0  0  0  0  0  0  0  0  0  0  0  0
  -29.2293  -18.1979   20.7553 C   0  0  0  0  0  0  0  0  0  0  0  0
  -26.6109  -19.8309   25.5809 C   0  0  0  0  0  0  0  0  0  0  0  0
  -30.7067  -17.7961   20.9376 C   0  0  0  0  0  0  0  0  0  0  0  0
  -30.9291  -16.6502   21.9223 C   0  0  0  0  0  0  0  0  0  0  0  0
  -26.7298  -21.3379   25.7807 C   0  0  0  0  0  0  0  0  0  1  0  0
  -27.4992  -26.2816   18.6313 C   0  0  1  0  0  0  0  0  0  0  0  0
  -30.7264  -24.6483   17.4966 C   0  0  2  0  0  0  0  0  0  0  0  0
  -26.4704  -26.8142   17.5943 C   0  0  0  0  0  0  0  0  0  0  0  0
  -25.7853  -11.4752   20.3440 N   0  0  0  0  0  0  0  0  0  0  0  0
  -28.0887  -20.2688   23.7097 N   0  0  0  0  0  0  0  0  0  0  0  0
  -26.2155  -12.7398   20.1964 N   0  0  0  0  0  0  0  0  0  0  0  0
  -27.4380  -26.8098   21.0481 N   0  0  0  0  0  0  0  0  0  0  0  0
  -29.9772  -13.3721   20.4371 N   0  0  0  0  0  0  0  0  0  0  0  0
  -25.5373  -15.0007   20.3933 N   0  0  0  0  0  0  0  0  0  0  0  0
  -21.8414  -12.6965   21.5878 N   0  0  0  0  0  0  0  0  0  0  0  0
  -25.9603  -29.5728   22.7546 N   0  0  0  0  0  0  0  0  0  0  0  0
  -28.8094  -25.9727   18.0687 N   0  0  0  0  0  0  0  0  0  0  0  0
  -30.2196  -15.4490   21.5423 N   0  0  0  0  0  0  0  0  0  0  0  0
  -31.6132  -23.6962   18.2233 N   0  3  0  0  0  0  0  0  0  0  0  0
  -22.7064  -14.7974   21.2775 O   0  0  0  0  0  0  0  0  0  0  0  0
  -25.1142  -27.5003   22.1136 O   0  0  0  0  0  0  0  0  0  0  0  0
  -28.1919  -28.3786   19.4967 O   0  0  0  0  0  0  0  0  0  0  0  0
  -28.8422  -23.7443   18.7089 O   0  0  0  0  0  0  0  0  0  0  0  0
  -31.9375  -14.6015   20.2823 O   0  0  0  0  0  0  0  0  0  0  0  0
  -21.3413   -7.1519   21.7964 O   0  0  0  0  0  0  0  0  0  0  0  0
  -26.0997  -22.0193   24.6968 O   0  0  0  0  0  0  0  0  0  1  0  0
  -23.5735   -3.0585   24.7401 F   0  0  0  0  0  0  0  0  0  0  0  0
  -20.2332   -6.3693   24.2052 F   0  0  0  0  0  0  0  0  0  0  0  0
  -29.7027  -21.0677   21.8630 Cl  0  0  0  0  0  0  0  0  0  0  0  0
  1  2  1  0  0  0  0
  1  5  2  0  0  0  0
  2  6  2  0  0  0  0
  3  8  2  0  0  0  0
  3 16  1  0  0  0  0
  4  9  1  0  0  0  0
  4 16  2  0  0  0  0
  5 18  1  0  0  0  0
  6 20  1  0  0  0  0
  7 10  2  0  0  0  0
  7 19  1  0  0  0  0
  8 24  1  0  0  0  0
  9 24  2  0  0  0  0
 10 25  1  0  0  0  0
 11 12  2  0  0  0  0
 11 26  1  0  0  0  0
 12 27  1  0  0  0  0
 13 21  1  0  0  0  0
 13 25  2  0  0  0  0
 14 22  1  0  0  0  0
 14 23  2  0  0  0  0
 15 27  2  0  0  0  0
 15 28  1  0  0  0  0
 16 29  1  0  0  0  0
 17 29  1  0  0  0  0
 17 32  2  0  0  0  0
 17 33  1  0  0  0  0
 18 20  2  0  0  0  0
 18 38  1  0  0  0  0
 19 21  2  0  0  0  0
 19 39  1  0  0  0  0
 20 47  1  0  0  0  0
 21 40  1  0  0  0  0
 22 30  2  0  0  0  0
 22 50  1  0  0  0  0
 23 31  1  0  0  0  0
 23 56  1  0  0  0  0
 24 80  1  0  0  0  0
 25 81  1  0  0  0  0
 26 28  2  0  0  0  0
 26 80  1  0  0  0  0
 27 82  1  0  0  0  0
 28 83  1  0  0  0  0
 29 64  2  0  0  0  0
 30 57  1  0  0  0  0
 30 65  1  0  0  0  0
 31 65  2  0  0  0  0
 31 84  1  0  0  0  0
 32 66  1  0  0  0  0
 32 69  1  0  0  0  0
 33 70  1  0  0  0  0
 33 75  2  0  0  0  0
 34 48  1  0  0  0  0
 34 71  1  0  0  0  0
 34 76  2  0  0  0  0
 35 61  1  0  0  0  0
 35 67  1  0  0  0  0
 35 77  2  0  0  0  0
 36 62  1  0  0  0  0
 36 72  1  0  0  0  0
 36 78  2  0  0  0  0
 37 68  1  0  0  0  0
 37 73  1  0  0  0  0
 37 79  2  0  0  0  0
 38 41  1  0  0  0  0
 39 48  1  0  0  0  0
 40 67  1  0  0  0  0
 41 43  1  0  0  0  0
 42 44  1  0  0  0  0
 42 45  1  0  0  0  0
 43 47  1  0  0  0  0
 44 49  1  0  0  0  0
 45 68  1  0  0  0  0
 46 49  1  0  0  0  0
 46 68  1  0  0  0  0
 47 71  1  0  0  0  0
 48 67  1  0  0  0  0
 49 66  1  0  0  0  0
 51 62  1  0  0  0  0
 52 63  1  0  0  0  0
 53 63  1  0  0  0  0
 54 63  1  0  0  0  0
 55 74  1  0  0  0  0
 56 58  1  0  0  0  0
 57 60  1  0  0  0  0
 58 59  1  0  0  0  0
 59 73  1  0  0  0  0
 60 81  1  0  0  0  0
 61 63  1  0  0  0  0
 61 72  1  0  0  0  0
 62 74  1  0  0  0  0
 64 66  1  0  0  0  0
M  CHG  1  74   1
M  ISO  4  37 100  60 101  73 100  81 101
M  END
> <Batch ID>
0030

> <Smiles>
CNC(C)C(=O)NC(C(=O)N1Cc2cc([101O:1][101CH2:1]Cc3nc(Cl)c(CCC[100NH:0][100C:0](=O)N4CCCC(n5nc(-c6ccc(Oc7ccc(F)cc7F)cc6)c(C(N)=O)c5N)C4)cc3C)ccc2CC1C(=O)NC1CCCc2ccccc21)C(C)(C)C

> <Shape>
0.324

> <Color>
0.215

> <Negative vol penalty>
0.000

$$$$

  -OEChem-04052316393D

 88 96  0     1  0  0  0  0  0999 V2000
  -28.0236   -9.3180   16.3223 C   0  0  0  0  0  0  0  0  0  0  0  0
  -27.1269   -9.9627   17.1682 C   0  0  0  0  0  0  0  0  0  0  0  0
  -25.2061  -29.8499   20.6244 C   0  0  0  0  0  0  0  0  0  0  0  0
  -23.7149  -28.4298   21.8881 C   0  0  0  0  0  0  0  0  0  0  0  0
  -29.3868   -9.5966   16.4104 C   0  0  0  0  0  0  0  0  0  0  0  0
  -27.5931  -10.8858   18.1036 C   0  0  0  0  0  0  0  0  0  0  0  0
  -24.7822  -15.0957   18.2463 C   0  0  0  0  0  0  0  0  0  0  0  0
  -24.8515  -30.9352   21.4256 C   0  0  0  0  0  0  0  0  0  0  0  0
  -23.3603  -29.5151   22.6893 C   0  0  0  0  0  0  0  0  0  0  0  0
  -23.5684  -15.0280   18.9288 C   0  0  0  0  0  0  0  0  0  0  0  0
  -24.6104  -33.9988   23.3675 C   0  0  0  0  0  0  0  0  0  0  0  0
  -25.6346  -34.8241   23.8318 C   0  0  0  0  0  0  0  0  0  0  0  0
  -24.5903  -16.0888   20.8392 C   0  0  0  0  0  0  0  0  0  0  0  0
  -26.6373  -32.9414   24.9663 C   0  0  0  0  0  0  0  0  0  0  0  0
  -24.6377  -28.5972   20.8556 C   0  0  0  0  0  0  0  0  0  0  0  0
  -26.2888  -26.9282   19.8576 C   0  0  0  0  0  0  0  0  0  0  0  0
  -29.8690  -10.5307   17.3408 C   0  0  0  0  0  0  0  0  0  0  0  0
  -25.9139  -15.6515   18.8602 C   0  0  0  0  0  0  0  0  0  0  0  0
  -28.9642  -11.1762   18.2052 C   0  0  0  0  0  0  0  0  0  0  0  0
  -25.8167  -16.1647   20.1614 C   0  0  0  0  0  0  0  0  0  0  0  0
  -23.9286  -30.7679   22.4581 C   0  0  0  0  0  0  0  0  0  0  0  0
  -23.4730  -15.5220   20.2265 C   0  0  0  0  0  0  0  0  0  0  0  0
  -24.5997  -32.6448   23.7026 C   0  0  0  0  0  0  0  0  0  0  0  0
  -26.6481  -34.2954   24.6312 C   0  0  0  0  0  0  0  0  0  0  0  0
  -25.6131  -32.1161   24.5020 C   0  0  0  0  0  0  0  0  0  0  0  0
  -25.0032  -27.4757   20.0280 C   0  0  0  0  0  0  0  0  0  0  0  0
  -26.1054  -25.8879   18.9797 C   0  0  0  0  0  0  0  0  0  0  0  0
  -27.5373  -27.3245   20.4408 C   0  0  0  0  0  0  0  0  0  0  0  0
  -28.7869  -14.5620   19.6742 C   0  0  0  0  0  0  0  0  0  0  0  0
  -20.3174  -17.5094   21.4081 C   0  0  0  0  0  0  0  0  0  0  0  0
  -29.3221  -17.6708   20.4301 C   0  0  0  0  0  0  0  0  0  0  0  0
  -27.5025  -20.3417   22.0341 C   0  0  0  0  0  0  0  0  0  0  0  0
  -23.4798  -21.5319   17.2212 C   0  0  0  0  0  0  0  0  0  0  0  0
  -31.3563  -10.7640   17.4312 C   0  0  0  0  0  0  0  0  0  0  0  0
  -27.2091  -15.7413   18.1007 C   0  0  0  0  0  0  0  0  0  0  0  0
  -26.9970  -16.7895   20.8577 C   0  0  0  0  0  0  0  0  0  0  0  0
  -31.7286  -12.0323   18.1948 C   0  0  0  0  0  0  0  0  0  0  0  0
  -17.3414  -20.4779   19.0705 C   0  0  0  0  0  0  0  0  0  0  0  0
  -17.0711  -19.4011   20.1160 C   0  0  0  0  0  0  0  0  0  0  0  0
  -22.1203  -24.6119   16.1545 C   0  0  0  0  0  0  0  0  0  0  0  0
  -30.9348  -12.1256   19.4940 C   0  0  0  0  0  0  0  0  0  0  0  0
  -18.8337  -20.6332   18.7873 C   0  0  0  0  0  0  0  0  0  0  0  0
  -17.7103  -18.0662   19.7345 C   0  0  0  0  0  0  0  0  0  0  0  0
  -22.8516  -25.5971   17.0652 C   0  0  0  0  0  0  0  0  0  0  0  0
  -21.7219  -23.3331   16.8937 C   0  0  0  0  0  0  0  0  0  0  0  0
  -23.5797  -23.6522   18.4967 C   0  0  0  0  0  0  0  0  0  0  0  0
  -29.4287  -12.2021   19.2161 C   0  0  1  0  0  0  0  0  0  0  0  0
  -28.4280  -15.8613   19.0103 C   0  0  1  0  0  0  0  0  0  0  0  0
  -19.4732  -19.2962   18.3835 C   0  0  2  0  0  0  0  0  0  0  0  0
  -19.2045  -18.1956   19.4257 C   0  0  1  0  0  0  0  0  0  0  0  0
  -24.0438  -24.9200   17.7633 C   0  0  2  0  0  0  0  0  0  0  0  0
  -21.0604  -17.6574   22.7151 C   0  0  0  0  0  0  0  0  0  0  0  0
  -27.6893  -22.8304   21.7718 C   0  0  0  0  0  0  0  0  0  0  0  0
  -31.2130  -17.4895   22.8179 C   0  0  0  0  0  0  0  0  0  0  0  0
  -30.2311  -19.6293   23.6693 C   0  0  0  0  0  0  0  0  0  0  0  0
  -31.4229  -19.5908   21.4782 C   0  0  0  0  0  0  0  0  0  0  0  0
  -24.1686  -18.6648   16.9049 C   0  0  0  0  0  0  0  0  0  0  0  0
  -22.1694  -18.5148   15.3986 C   0  0  0  0  0  0  0  0  0  0  0  0
  -24.1040  -19.9761   14.7685 C   0  0  0  0  0  0  0  0  0  0  0  0
  -24.6266  -20.6060   21.3872 C   0  0  0  0  0  0  0  0  0  0  0  0
  -19.9730  -16.1026   20.9499 C   0  0  0  0  0  0  0  0  0  0  0  0
  -20.9661  -19.4726   18.1009 C   0  0  0  0  0  0  0  0  0  0  0  0
  -21.2304  -20.4090   16.9314 C   0  0  0  0  0  0  0  0  0  0  0  0
  -21.0975  -15.5140   20.1128 C   0  0  0  0  0  0  0  0  0  1  0  0
  -29.1421  -18.5164   21.6677 C   0  0  1  0  0  0  0  0  0  0  0  0
  -26.9274  -21.5781   21.3670 C   0  0  2  0  0  0  0  0  0  0  0  0
  -30.4856  -18.7840   22.4031 C   0  0  0  0  0  0  0  0  0  0  0  0
  -23.2684  -19.4386   15.9361 C   0  0  0  0  0  0  0  0  0  0  0  0
  -24.0718  -26.8363   19.3154 N   0  0  0  0  0  0  0  0  0  0  0  0
  -19.9178  -18.4945   20.6764 N   0  0  0  0  0  0  0  0  0  0  0  0
  -24.7730  -25.8763   18.6887 N   0  0  0  0  0  0  0  0  0  0  0  0
  -28.2431  -16.8485   20.0759 N   0  0  0  0  0  0  0  0  0  0  0  0
  -22.8780  -22.7458   17.5845 N   0  0  0  0  0  0  0  0  0  0  0  0
  -26.9555  -24.9912   18.4360 N   0  0  0  0  0  0  0  0  0  0  0  0
  -27.5470  -28.4142   21.3220 N   0  0  0  0  0  0  0  0  0  0  0  0
  -29.0604  -13.5354   18.7906 N   0  0  0  0  0  0  0  0  0  0  0  0
  -28.4446  -19.7239   21.2391 N   0  0  0  0  0  0  0  0  0  0  0  0
  -22.6559  -20.5543   16.6434 N   0  0  0  0  0  0  0  0  0  0  0  0
  -25.4974  -21.7543   21.7478 N   0  3  0  0  0  0  0  0  0  0  0  0
  -28.6150  -26.7401   20.1751 O   0  0  0  0  0  0  0  0  0  0  0  0
  -28.8151  -14.4962   20.8975 O   0  0  0  0  0  0  0  0  0  0  0  0
  -30.3782  -17.7427   19.7968 O   0  0  0  0  0  0  0  0  0  0  0  0
  -27.1538  -19.9639   23.1504 O   0  0  0  0  0  0  0  0  0  0  0  0
  -24.6860  -21.3282   17.4097 O   0  0  0  0  0  0  0  0  0  0  0  0
  -23.5826  -31.8266   23.2402 O   0  0  0  0  0  0  0  0  0  0  0  0
  -22.2896  -15.4566   20.8951 O   0  0  0  0  0  0  0  0  0  1  0  0
  -27.6323  -35.0877   25.0757 F   0  0  0  0  0  0  0  0  0  0  0  0
  -25.6088  -30.8159   24.8263 F   0  0  0  0  0  0  0  0  0  0  0  0
  1  2  1  0  0  0  0
  1  5  2  0  0  0  0
  2  6  2  0  0  0  0
  3  8  2  0  0  0  0
  3 15  1  0  0  0  0
  4  9  1  0  0  0  0
  4 15  2  0  0  0  0
  5 17  1  0  0  0  0
  6 19  1  0  0  0  0
  7 10  2  0  0  0  0
  7 18  1  0  0  0  0
  8 21  1  0  0  0  0
  9 21  2  0  0  0  0
 10 22  1  0  0  0  0
 11 12  2  0  0  0  0
 11 23  1  0  0  0  0
 12 24  1  0  0  0  0
 13 20  1  0  0  0  0
 13 22  2  0  0  0  0
 14 24  2  0  0  0  0
 14 25  1  0  0  0  0
 15 26  1  0  0  0  0
 16 26  1  0  0  0  0
 16 27  2  0  0  0  0
 16 28  1  0  0  0  0
 17 19  2  0  0  0  0
 17 34  1  0  0  0  0
 18 20  2  0  0  0  0
 18 35  1  0  0  0  0
 19 47  1  0  0  0  0
 20 36  1  0  0  0  0
 21 85  1  0  0  0  0
 22 86  1  0  0  0  0
 23 25  2  0  0  0  0
 23 85  1  0  0  0  0
 24 87  1  0  0  0  0
 25 88  1  0  0  0  0
 26 69  2  0  0  0  0
 27 71  1  0  0  0  0
 27 74  1  0  0  0  0
 28 75  1  0  0  0  0
 28 80  2  0  0  0  0
 29 48  1  0  0  0  0
 29 76  1  0  0  0  0
 29 81  2  0  0  0  0
 30 52  1  0  0  0  0
 30 61  1  0  0  0  0
 30 70  2  0  0  0  0
 31 65  1  0  0  0  0
 31 72  1  0  0  0  0
 31 82  2  0  0  0  0
 32 66  1  0  0  0  0
 32 77  1  0  0  0  0
 32 83  2  0  0  0  0
 33 73  1  0  0  0  0
 33 78  1  0  0  0  0
 33 84  2  0  0  0  0
 34 37  1  0  0  0  0
 35 48  1  0  0  0  0
 36 72  1  0  0  0  0
 37 41  1  0  0  0  0
 38 39  1  0  0  0  0
 38 42  1  0  0  0  0
 39 43  1  0  0  0  0
 40 44  1  0  0  0  0
 40 45  1  0  0  0  0
 41 47  1  0  0  0  0
 42 49  1  0  0  0  0
 43 50  1  0  0  0  0
 44 51  1  0  0  0  0
 45 73  1  0  0  0  0
 46 51  1  0  0  0  0
 46 73  1  0  0  0  0
 47 76  1  0  0  0  0
 48 72  1  0  0  0  0
 49 50  1  0  0  0  0
 49 62  1  0  0  0  0
 50 70  1  0  0  0  0
 51 71  1  0  0  0  0
 53 66  1  0  0  0  0
 54 67  1  0  0  0  0
 55 67  1  0  0  0  0
 56 67  1  0  0  0  0
 57 68  1  0  0  0  0
 58 68  1  0  0  0  0
 59 68  1  0  0  0  0
 60 79  1  0  0  0  0
 61 64  1  0  0  0  0
 62 63  1  0  0  0  0
 63 78  1  0  0  0  0
 64 86  1  0  0  0  0
 65 67  1  0  0  0  0
 65 77  1  0  0  0  0
 66 79  1  0  0  0  0
 68 78  1  0  0  0  0
 69 71  1  0  0  0  0
M  CHG  1  79   1
M  ISO  4  33 100  64 101  78 100  86 101
M  END
> <Batch ID>
0030

> <Smiles>
C=C(C[101CH2:1][101O:1]c1ccc2c(c1)CN(C(=O)C(NC(=O)C(C)NC)C(C)(C)C)C(C(=O)NC1CCCc3ccccc31)C2)NC1CCCCC1CC[100N:0]([100C:0](=O)N1CCCC(n2nc(-c3ccc(Oc4ccc(F)cc4F)cc3)c(C(N)=O)c2N)C1)C(C)(C)C

> <Shape>
0.210

> <Color>
0.067

> <Negative vol penalty>
0.000

$$$$

  -OEChem-04052316393D

 82 90  0     1  0  0  0  0  0999 V2000
  -26.2625  -10.7463   17.7031 C   0  0  0  0  0  0  0  0  0  0  0  0
  -25.4537  -11.5993   18.4471 C   0  0  0  0  0  0  0  0  0  0  0  0
  -25.2441  -28.0869   19.5846 C   0  0  0  0  0  0  0  0  0  0  0  0
  -25.6572  -26.0077   20.7438 C   0  0  0  0  0  0  0  0  0  0  0  0
  -27.6462  -10.7762   17.8718 C   0  0  0  0  0  0  0  0  0  0  0  0
  -26.0280  -12.4819   19.3611 C   0  0  0  0  0  0  0  0  0  0  0  0
  -24.0838  -18.1196   20.7550 C   0  0  0  0  0  0  0  0  0  0  0  0
  -26.6046  -28.3892   19.6420 C   0  0  0  0  0  0  0  0  0  0  0  0
  -27.0177  -26.3100   20.8011 C   0  0  0  0  0  0  0  0  0  0  0  0
  -23.3160  -18.6132   21.8089 C   0  0  0  0  0  0  0  0  0  0  0  0
  -30.0195  -29.5403   19.1637 C   0  0  0  0  0  0  0  0  0  0  0  0
  -30.6240  -30.0313   18.0066 C   0  0  0  0  0  0  0  0  0  0  0  0
  -25.3325  -19.2136   22.9888 C   0  0  0  0  0  0  0  0  0  0  0  0
  -21.2712  -23.0005   26.7452 C   0  0  0  0  0  0  0  0  0  0  0  0
  -19.6203  -21.6604   25.5983 C   0  0  0  0  0  0  0  0  0  0  0  0
  -30.0287  -28.0038   16.8353 C   0  0  0  0  0  0  0  0  0  0  0  0
  -24.7704  -26.8962   20.1356 C   0  0  0  0  0  0  0  0  0  0  0  0
  -22.6918  -25.8821   19.0591 C   0  0  0  0  0  0  0  0  0  0  0  0
  -28.2385  -11.6664   18.7813 C   0  0  0  0  0  0  0  0  0  0  0  0
  -25.4842  -18.1595   20.8150 C   0  0  0  0  0  0  0  0  0  0  0  0
  -27.4208  -12.5228   19.5431 C   0  0  0  0  0  0  0  0  0  0  0  0
  -26.1158  -18.7222   21.9333 C   0  0  0  0  0  0  0  0  0  0  0  0
  -20.0177  -22.8804   26.1453 C   0  0  0  0  0  0  0  0  0  0  0  0
  -21.7300  -20.6805   26.2510 C   0  0  0  0  0  0  0  0  0  0  0  0
  -27.4914  -27.5007   20.2502 C   0  0  0  0  0  0  0  0  0  0  0  0
  -23.9404  -19.1577   22.9273 C   0  0  0  0  0  0  0  0  0  0  0  0
  -29.4196  -28.2810   19.1567 C   0  0  0  0  0  0  0  0  0  0  0  0
  -30.6287  -29.2630   16.8423 C   0  0  0  0  0  0  0  0  0  0  0  0
  -29.4242  -27.5128   17.9925 C   0  0  0  0  0  0  0  0  0  0  0  0
  -22.1274  -21.9005   26.7980 C   0  0  0  0  0  0  0  0  0  0  0  0
  -20.4764  -20.5604   25.6511 C   0  0  0  0  0  0  0  0  0  0  0  0
  -23.3651  -26.5836   20.0771 C   0  0  0  0  0  0  0  0  0  0  0  0
  -21.3822  -25.8510   19.4718 C   0  0  0  0  0  0  0  0  0  0  0  0
  -23.2045  -25.3096   17.8486 C   0  0  0  0  0  0  0  0  0  0  0  0
  -27.7928  -15.9745   20.8083 C   0  0  0  0  0  0  0  0  0  0  0  0
  -29.7222  -18.5783   20.6679 C   0  0  0  0  0  0  0  0  0  0  0  0
  -30.1430  -21.9089   21.2818 C   0  0  0  0  0  0  0  0  0  0  0  0
  -18.7963  -26.1921   24.8614 C   0  0  0  0  0  0  0  0  0  0  0  0
  -29.7352  -11.6292   18.9635 C   0  0  0  0  0  0  0  0  0  0  0  0
  -26.2978  -17.6473   19.6582 C   0  0  0  0  0  0  0  0  0  0  0  0
  -27.6159  -18.8071   22.0377 C   0  0  0  0  0  0  0  0  0  0  0  0
  -30.2922  -12.8562   19.6808 C   0  0  0  0  0  0  0  0  0  0  0  0
  -18.2151  -28.3235   22.0693 C   0  0  0  0  0  0  0  0  0  0  0  0
  -29.4544  -13.1798   20.9138 C   0  0  0  0  0  0  0  0  0  0  0  0
  -19.4083  -28.0560   21.1502 C   0  0  0  0  0  0  0  0  0  0  0  0
  -18.6164  -28.2810   23.5421 C   0  0  0  0  0  0  0  0  0  0  0  0
  -20.5075  -26.7827   23.0395 C   0  0  0  0  0  0  0  0  0  0  0  0
  -28.0082  -13.5118   20.5265 C   0  0  1  0  0  0  0  0  0  0  0  0
  -27.7230  -17.2701   20.0506 C   0  0  1  0  0  0  0  0  0  0  0  0
  -20.1411  -26.7599   21.5456 C   0  0  2  0  0  0  0  0  0  0  0  0
  -31.2569  -24.1575   21.2632 C   0  0  0  0  0  0  0  0  0  0  0  0
  -31.1857  -17.4700   23.1051 C   0  0  0  0  0  0  0  0  0  0  0  0
  -32.2004  -19.7344   23.4386 C   0  0  0  0  0  0  0  0  0  0  0  0
  -32.6743  -18.4523   21.3519 C   0  0  0  0  0  0  0  0  0  0  0  0
  -28.9633  -22.6007   18.6571 C   0  0  0  0  0  0  0  0  0  0  0  0
  -22.6567  -19.4904   26.3075 C   0  0  0  0  0  0  0  0  0  0  0  0
  -19.1026  -24.0567   26.0883 C   0  0  0  0  0  0  0  0  0  0  0  0
  -23.7650  -19.5685   25.2632 C   0  0  0  0  0  0  0  0  0  1  0  0
  -30.3857  -19.4734   21.6865 C   0  0  1  0  0  0  0  0  0  0  0  0
  -30.6836  -23.0324   20.4157 C   0  0  2  0  0  0  0  0  0  0  0  0
  -31.5833  -18.7793   22.3947 C   0  0  0  0  0  0  0  0  0  0  0  0
  -22.5504  -26.9704   21.0623 N   0  0  0  0  0  0  0  0  0  0  0  0
  -21.3517  -26.5104   20.6653 N   0  0  0  0  0  0  0  0  0  0  0  0
  -28.3678  -18.2872   20.8836 N   0  0  0  0  0  0  0  0  0  0  0  0
  -19.3052  -27.0258   23.8519 N   0  0  0  0  0  0  0  0  0  0  0  0
  -20.2652  -25.3242   18.9265 N   0  0  0  0  0  0  0  0  0  0  0  0
  -24.5744  -25.4325   17.5793 N   0  0  0  0  0  0  0  0  0  0  0  0
  -27.9214  -14.8584   20.0037 N   0  0  0  0  0  0  0  0  0  0  0  0
  -30.7382  -20.7017   20.9825 N   0  0  0  0  0  0  0  0  0  0  0  0
  -19.5056  -25.0188   25.0870 N   0  0  0  0  0  0  0  0  0  0  0  0
  -29.6005  -23.5937   19.5598 N   0  3  0  0  0  0  0  0  0  0  0  0
  -22.4667  -24.7212   17.0222 O   0  0  0  0  0  0  0  0  0  0  0  0
  -27.7358  -15.9866   22.0323 O   0  0  0  0  0  0  0  0  0  0  0  0
  -30.3795  -18.1589   19.7121 O   0  0  0  0  0  0  0  0  0  0  0  0
  -29.2816  -22.0854   22.1406 O   0  0  0  0  0  0  0  0  0  0  0  0
  -17.7817  -26.4701   25.5097 O   0  0  0  0  0  0  0  0  0  0  0  0
  -28.8191  -27.7953   20.3061 O   0  0  0  0  0  0  0  0  0  0  0  0
  -23.1933  -19.6395   23.9576 O   0  0  0  0  0  0  0  0  0  1  0  0
  -31.2079  -29.7353   15.7308 F   0  0  0  0  0  0  0  0  0  0  0  0
  -28.8484  -26.3027   17.9793 F   0  0  0  0  0  0  0  0  0  0  0  0
  -23.6703  -22.0934   27.5495 Cl  0  0  0  0  0  0  0  0  0  0  0  0
  -19.9448  -19.0693   24.9608 Cl  0  0  0  0  0  0  0  0  0  0  0  0
  1  2  1  0  0  0  0
  1  5  2  0  0  0  0
  2  6  2  0  0  0  0
  3  8  2  0  0  0  0
  3 17  1  0  0  0  0
  4  9  1  0  0  0  0
  4 17  2  0  0  0  0
  5 19  1  0  0  0  0
  6 21  1  0  0  0  0
  7 10  2  0  0  0  0
  7 20  1  0  0  0  0
  8 25  1  0  0  0  0
  9 25  2  0  0  0  0
 10 26  1  0  0  0  0
 11 12  2  0  0  0  0
 11 27  1  0  0  0  0
 12 28  1  0  0  0  0
 13 22  1  0  0  0  0
 13 26  2  0  0  0  0
 14 23  1  0  0  0  0
 14 30  2  0  0  0  0
 15 23  2  0  0  0  0
 15 31  1  0  0  0  0
 16 28  2  0  0  0  0
 16 29  1  0  0  0  0
 17 32  1  0  0  0  0
 18 32  1  0  0  0  0
 18 33  2  0  0  0  0
 18 34  1  0  0  0  0
 19 21  2  0  0  0  0
 19 39  1  0  0  0  0
 20 22  2  0  0  0  0
 20 40  1  0  0  0  0
 21 48  1  0  0  0  0
 22 41  1  0  0  0  0
 23 57  1  0  0  0  0
 24 30  1  0  0  0  0
 24 31  2  0  0  0  0
 24 56  1  0  0  0  0
 25 77  1  0  0  0  0
 26 78  1  0  0  0  0
 27 29  2  0  0  0  0
 27 77  1  0  0  0  0
 28 79  1  0  0  0  0
 29 80  1  0  0  0  0
 30 81  1  0  0  0  0
 31 82  1  0  0  0  0
 32 62  2  0  0  0  0
 33 63  1  0  0  0  0
 33 66  1  0  0  0  0
 34 67  1  0  0  0  0
 34 72  2  0  0  0  0
 35 49  1  0  0  0  0
 35 68  1  0  0  0  0
 35 73  2  0  0  0  0
 36 59  1  0  0  0  0
 36 64  1  0  0  0  0
 36 74  2  0  0  0  0
 37 60  1  0  0  0  0
 37 69  1  0  0  0  0
 37 75  2  0  0  0  0
 38 65  1  0  0  0  0
 38 70  1  0  0  0  0
 38 76  2  0  0  0  0
 39 42  1  0  0  0  0
 40 49  1  0  0  0  0
 41 64  1  0  0  0  0
 42 44  1  0  0  0  0
 43 45  1  0  0  0  0
 43 46  1  0  0  0  0
 44 48  1  0  0  0  0
 45 50  1  0  0  0  0
 46 65  1  0  0  0  0
 47 50  1  0  0  0  0
 47 65  1  0  0  0  0
 48 68  1  0  0  0  0
 49 64  1  0  0  0  0
 50 63  1  0  0  0  0
 51 60  1  0  0  0  0
 52 61  1  0  0  0  0
 53 61  1  0  0  0  0
 54 61  1  0  0  0  0
 55 71  1  0  0  0  0
 56 58  1  0  0  0  0
 57 70  1  0  0  0  0
 58 78  1  0  0  0  0
 59 61  1  0  0  0  0
 59 69  1  0  0  0  0
 60 71  1  0  0  0  0
 62 63  1  0  0  0  0
M  CHG  1  71   1
M  ISO  4  38 100  58 101  70 100  78 101
M  END
> <Batch ID>
0030

> <Smiles>
CNC(C)C(=O)NC(C(=O)N1Cc2cc([101O:1][101CH2:1]Cc3c(Cl)cc(C[100NH:0][100C:0](=O)N4CCCC(n5nc(-c6ccc(Oc7ccc(F)cc7F)cc6)c(C(N)=O)c5N)C4)cc3Cl)ccc2CC1C(=O)NC1CCCc2ccccc21)C(C)(C)C

> <Shape>
0.185

> <Color>
0.064

> <Negative vol penalty>
0.000

$$$$

  -OEChem-04052316393D

 91100  0     1  0  0  0  0  0999 V2000
  -31.5150  -26.0530   17.4281 C   0  0  0  0  0  0  0  0  0  0  0  0
  -30.1464  -25.8184   17.5132 C   0  0  0  0  0  0  0  0  0  0  0  0
  -28.7857  -20.8647   21.6070 C   0  0  0  0  0  0  0  0  0  0  0  0
  -27.0070  -19.5324   20.6591 C   0  0  0  0  0  0  0  0  0  0  0  0
  -32.1830  -26.6672   18.4867 C   0  0  0  0  0  0  0  0  0  0  0  0
  -29.4451  -26.1970   18.6575 C   0  0  0  0  0  0  0  0  0  0  0  0
  -23.6871  -28.2651   18.9307 C   0  0  0  0  0  0  0  0  0  0  0  0
  -29.7252  -19.9535   21.1247 C   0  0  0  0  0  0  0  0  0  0  0  0
  -27.9466  -18.6212   20.1768 C   0  0  0  0  0  0  0  0  0  0  0  0
  -22.4790  -27.6391   19.2346 C   0  0  0  0  0  0  0  0  0  0  0  0
  -29.8509  -15.7557   19.0055 C   0  0  0  0  0  0  0  0  0  0  0  0
  -29.5865  -14.3975   19.1813 C   0  0  0  0  0  0  0  0  0  0  0  0
  -22.6671  -28.3974   21.5169 C   0  0  0  0  0  0  0  0  0  0  0  0
  -29.5409  -14.7163   21.5757 C   0  0  0  0  0  0  0  0  0  0  0  0
  -27.4266  -20.6541   21.3743 C   0  0  0  0  0  0  0  0  0  0  0  0
  -25.9561  -22.7322   21.2106 C   0  0  0  0  0  0  0  0  0  0  0  0
  -31.4878  -27.0622   19.6405 C   0  0  0  0  0  0  0  0  0  0  0  0
  -24.4009  -28.9540   19.9220 C   0  0  0  0  0  0  0  0  0  0  0  0
  -30.1046  -26.8158   19.7330 C   0  0  0  0  0  0  0  0  0  0  0  0
  -23.8827  -29.0335   21.2224 C   0  0  0  0  0  0  0  0  0  0  0  0
  -19.2233  -19.6464   24.4366 C   0  0  0  0  0  0  0  0  0  0  0  0
  -18.1725  -20.5090   24.0513 C   0  0  0  0  0  0  0  0  0  0  0  0
  -29.3057  -18.8318   20.4096 C   0  0  0  0  0  0  0  0  0  0  0  0
  -21.9703  -27.7027   20.5285 C   0  0  0  0  0  0  0  0  0  0  0  0
  -29.9604  -16.5942   20.1148 C   0  0  0  0  0  0  0  0  0  0  0  0
  -29.4314  -13.8778   20.4664 C   0  0  0  0  0  0  0  0  0  0  0  0
  -29.8054  -16.0745   21.3999 C   0  0  0  0  0  0  0  0  0  0  0  0
  -26.4555  -21.5947   21.8727 C   0  0  0  0  0  0  0  0  0  0  0  0
  -19.4374  -18.7675   23.3966 C   0  0  0  0  0  0  0  0  0  0  0  0
  -17.7705  -20.1361   22.7876 C   0  0  0  0  0  0  0  0  0  0  0  0
  -25.0672  -23.2846   22.1001 C   0  0  0  0  0  0  0  0  0  0  0  0
  -20.3430  -17.6878   23.1936 C   0  0  0  0  0  0  0  0  0  0  0  0
  -19.3577  -17.3337   20.9852 C   0  0  0  0  0  0  0  0  0  0  0  0
  -20.3042  -17.0004   22.0370 C   0  0  0  0  0  0  0  0  0  0  0  0
  -18.4915  -18.3535   21.1584 C   0  0  0  0  0  0  0  0  0  0  0  0
  -26.2677  -23.2437   19.9079 C   0  0  0  0  0  0  0  0  0  0  0  0
  -27.2688  -28.6316   21.2542 C   0  0  0  0  0  0  0  0  0  0  0  0
  -26.4753  -31.4193   22.7106 C   0  0  0  0  0  0  0  0  0  0  0  0
  -24.0181  -33.5347   23.7756 C   0  0  0  0  0  0  0  0  0  0  0  0
  -21.8614  -20.9996   26.6115 C   0  0  0  0  0  0  0  0  0  0  0  0
  -32.2614  -27.6799   20.7783 C   0  0  0  0  0  0  0  0  0  0  0  0
  -25.6893  -29.6466   19.5717 C   0  0  0  0  0  0  0  0  0  0  0  0
  -24.6002  -29.7777   22.3178 C   0  0  0  0  0  0  0  0  0  0  0  0
  -31.3778  -28.3895   21.8011 C   0  0  0  0  0  0  0  0  0  0  0  0
  -24.2138  -23.6661   26.7923 C   0  0  0  0  0  0  0  0  0  0  0  0
  -30.1835  -27.5161   22.1721 C   0  0  0  0  0  0  0  0  0  0  0  0
  -25.0100  -23.5402   25.4923 C   0  0  0  0  0  0  0  0  0  0  0  0
  -23.8347  -22.2986   27.3566 C   0  0  0  0  0  0  0  0  0  0  0  0
  -23.9262  -21.2865   25.1113 C   0  0  0  0  0  0  0  0  0  0  0  0
  -29.3046  -27.2343   20.9475 C   0  0  1  0  0  0  0  0  0  0  0  0
  -26.5878  -29.8847   20.7814 C   0  0  1  0  0  0  0  0  0  0  0  0
  -24.2833  -22.6405   24.4745 C   0  0  2  0  0  0  0  0  0  0  0  0
  -16.6960  -20.7571   21.9795 C   0  0  0  0  0  0  0  0  0  0  0  0
  -16.2320  -17.9196   20.2574 C   0  0  0  0  0  0  0  0  0  0  0  0
  -23.6772  -35.7172   24.9663 C   0  0  0  0  0  0  0  0  0  0  0  0
  -27.1039  -30.0635   25.3708 C   0  0  0  0  0  0  0  0  0  0  0  0
  -25.8664  -31.9091   26.5243 C   0  0  0  0  0  0  0  0  0  0  0  0
  -27.9085  -32.4243   25.1874 C   0  0  0  0  0  0  0  0  0  0  0  0
  -22.6745  -34.7379   21.4291 C   0  0  0  0  0  0  0  0  0  0  0  0
  -17.5954  -21.6334   24.8739 C   0  0  0  0  0  0  0  0  0  0  0  0
  -19.9569  -19.6819   25.7195 C   0  0  0  0  0  0  0  0  0  0  0  0
  -17.5154  -18.6968   20.0716 C   0  0  0  0  0  0  0  0  0  0  0  0
  -18.4490  -22.9067   24.8679 C   0  0  0  0  0  0  0  0  0  0  0  0
  -18.6310  -23.4999   23.4663 C   0  0  0  0  0  0  0  0  0  0  0  0
  -19.4632  -24.7839   23.5140 C   0  0  0  0  0  0  0  0  0  0  0  0
  -19.7339  -25.3809   22.1326 C   0  0  0  0  0  0  0  0  0  0  0  0
  -20.6292  -26.6123   22.1621 C   0  0  0  0  0  0  0  0  0  1  0  0
  -25.7715  -31.7932   23.9927 C   0  0  1  0  0  0  0  0  0  0  0  0
  -23.8415  -35.0341   23.6175 C   0  0  2  0  0  0  0  0  0  0  0  0
  -26.6498  -31.5318   25.2488 C   0  0  0  0  0  0  0  0  0  0  0  0
  -25.9278  -21.4329   23.0890 N   0  0  0  0  0  0  0  0  0  0  0  0
  -18.5396  -19.0668   22.3727 N   0  0  0  0  0  0  0  0  0  0  0  0
  -25.0877  -22.4760   23.1983 N   0  0  0  0  0  0  0  0  0  0  0  0
  -25.8593  -30.4331   21.9272 N   0  0  0  0  0  0  0  0  0  0  0  0
  -23.1476  -21.4956   26.3421 N   0  0  0  0  0  0  0  0  0  0  0  0
  -24.2779  -24.3782   22.0422 N   0  0  0  0  0  0  0  0  0  0  0  0
  -27.2030  -22.5532   19.1252 N   0  0  0  0  0  0  0  0  0  0  0  0
  -28.4819  -28.3847   20.6403 N   0  0  0  0  0  0  0  0  0  0  0  0
  -25.3494  -33.1810   23.8370 N   0  0  0  0  0  0  0  0  0  0  0  0
  -21.2791  -20.2536   25.5941 N   0  0  0  0  0  0  0  0  0  0  0  0
  -22.6369  -35.3295   22.7913 N   0  3  0  0  0  0  0  0  0  0  0  0
  -25.7448  -24.2915   19.4581 O   0  0  0  0  0  0  0  0  0  0  0  0
  -26.7340  -27.9407   22.1135 O   0  0  0  0  0  0  0  0  0  0  0  0
  -27.5290  -31.9868   22.4115 O   0  0  0  0  0  0  0  0  0  0  0  0
  -23.0699  -32.7556   23.8420 O   0  0  0  0  0  0  0  0  0  0  0  0
  -21.2732  -21.2107   27.6775 O   0  0  0  0  0  0  0  0  0  0  0  0
  -30.2222  -17.9426   19.9386 O   0  0  0  0  0  0  0  0  0  0  0  0
  -20.7916  -27.0920   20.8280 O   0  0  0  0  0  0  0  0  0  1  0  0
  -29.1760  -12.5738   20.6350 F   0  0  0  0  0  0  0  0  0  0  0  0
  -29.9083  -16.8754   22.4694 F   0  0  0  0  0  0  0  0  0  0  0  0
  -21.3885  -15.6860   21.7602 Cl  0  0  0  0  0  0  0  0  0  0  0  0
  1  2  1  0  0  0  0
  1  5  2  0  0  0  0
  2  6  2  0  0  0  0
  3  8  2  0  0  0  0
  3 15  1  0  0  0  0
  4  9  1  0  0  0  0
  4 15  2  0  0  0  0
  5 17  1  0  0  0  0
  6 19  1  0  0  0  0
  7 10  2  0  0  0  0
  7 18  1  0  0  0  0
  8 23  1  0  0  0  0
  9 23  2  0  0  0  0
 10 24  1  0  0  0  0
 11 12  2  0  0  0  0
 11 25  1  0  0  0  0
 12 26  1  0  0  0  0
 13 20  1  0  0  0  0
 13 24  2  0  0  0  0
 14 26  2  0  0  0  0
 14 27  1  0  0  0  0
 15 28  1  0  0  0  0
 16 28  1  0  0  0  0
 16 31  2  0  0  0  0
 16 36  1  0  0  0  0
 17 19  2  0  0  0  0
 17 41  1  0  0  0  0
 18 20  2  0  0  0  0
 18 42  1  0  0  0  0
 19 50  1  0  0  0  0
 20 43  1  0  0  0  0
 21 22  1  0  0  0  0
 21 29  2  0  0  0  0
 21 61  1  0  0  0  0
 22 30  2  0  0  0  0
 22 60  1  0  0  0  0
 23 87  1  0  0  0  0
 24 88  1  0  0  0  0
 25 27  2  0  0  0  0
 25 87  1  0  0  0  0
 26 89  1  0  0  0  0
 27 90  1  0  0  0  0
 28 71  2  0  0  0  0
 29 32  1  0  0  0  0
 29 72  1  0  0  0  0
 30 53  1  0  0  0  0
 30 72  1  0  0  0  0
 31 73  1  0  0  0  0
 31 76  1  0  0  0  0
 32 34  2  0  0  0  0
 33 34  1  0  0  0  0
 33 35  2  0  0  0  0
 34 91  1  0  0  0  0
 35 62  1  0  0  0  0
 35 72  1  0  0  0  0
 36 77  1  0  0  0  0
 36 82  2  0  0  0  0
 37 51  1  0  0  0  0
 37 78  1  0  0  0  0
 37 83  2  0  0  0  0
 38 68  1  0  0  0  0
 38 74  1  0  0  0  0
 38 84  2  0  0  0  0
 39 69  1  0  0  0  0
 39 79  1  0  0  0  0
 39 85  2  0  0  0  0
 40 75  1  0  0  0  0
 40 80  1  0  0  0  0
 40 86  2  0  0  0  0
 41 44  1  0  0  0  0
 42 51  1  0  0  0  0
 43 74  1  0  0  0  0
 44 46  1  0  0  0  0
 45 47  1  0  0  0  0
 45 48  1  0  0  0  0
 46 50  1  0  0  0  0
 47 52  1  0  0  0  0
 48 75  1  0  0  0  0
 49 52  1  0  0  0  0
 49 75  1  0  0  0  0
 50 78  1  0  0  0  0
 51 74  1  0  0  0  0
 52 73  1  0  0  0  0
 54 62  1  0  0  0  0
 55 69  1  0  0  0  0
 56 70  1  0  0  0  0
 57 70  1  0  0  0  0
 58 70  1  0  0  0  0
 59 81  1  0  0  0  0
 60 63  1  0  0  0  0
 61 80  1  0  0  0  0
 63 64  1  0  0  0  0
 64 65  1  0  0  0  0
 65 66  1  0  0  0  0
 66 67  1  0  0  0  0
 67 88  1  0  0  0  0
 68 70  1  0  0  0  0
 68 79  1  0  0  0  0
 69 81  1  0  0  0  0
 71 73  1  0  0  0  0
M  CHG  1  81   1
M  ISO  4  40 100  67 101  80 100  88 101
M  END
> <Batch ID>
0030

> <Smiles>
CCc1cc(Cl)cc2c(C[100NH:0][100C:0](=O)N3CCCC(n4nc(-c5ccc(Oc6ccc(F)cc6F)cc5)c(C(N)=O)c4N)C3)c(CCCCC[101CH2:1][101O:1]c3ccc4c(c3)CN(C(=O)C(NC(=O)C(C)NC)C(C)(C)C)C(C(=O)NC3CCCc5ccccc53)C4)c(C)n12

> <Shape>
0.245

> <Color>
0.066

> <Negative vol penalty>
0.000

$$$$

  -OEChem-04052316393D

 83 91  0     1  0  0  0  0  0999 V2000
  -18.7755  -33.4644   21.4566 C   0  0  0  0  0  0  0  0  0  0  0  0
  -20.0999  -33.2767   21.0744 C   0  0  0  0  0  0  0  0  0  0  0  0
  -26.7923  -18.0777   21.2728 C   0  0  0  0  0  0  0  0  0  0  0  0
  -28.9622  -17.6210   22.2319 C   0  0  0  0  0  0  0  0  0  0  0  0
  -18.2239  -32.6761   22.4656 C   0  0  0  0  0  0  0  0  0  0  0  0
  -20.8739  -32.3011   21.7018 C   0  0  0  0  0  0  0  0  0  0  0  0
  -25.2495  -28.8646   19.1426 C   0  0  0  0  0  0  0  0  0  0  0  0
  -26.3811  -16.7822   21.5859 C   0  0  0  0  0  0  0  0  0  0  0  0
  -28.5510  -16.3254   22.5451 C   0  0  0  0  0  0  0  0  0  0  0  0
  -26.6393  -28.9747   19.1263 C   0  0  0  0  0  0  0  0  0  0  0  0
  -24.8793  -13.4780   21.8103 C   0  0  0  0  0  0  0  0  0  0  0  0
  -24.1878  -12.7615   20.8336 C   0  0  0  0  0  0  0  0  0  0  0  0
  -26.7764  -27.4426   20.9846 C   0  0  0  0  0  0  0  0  0  0  0  0
  -33.3574  -27.6649   18.1038 C   0  0  0  0  0  0  0  0  0  0  0  0
  -26.0855  -12.9515   19.3505 C   0  0  0  0  0  0  0  0  0  0  0  0
  -28.0828  -18.4972   21.5957 C   0  0  0  0  0  0  0  0  0  0  0  0
  -28.3932  -20.9826   22.0794 C   0  0  0  0  0  0  0  0  0  0  0  0
  -18.9886  -31.6838   23.0991 C   0  0  0  0  0  0  0  0  0  0  0  0
  -24.6111  -28.0498   20.0886 C   0  0  0  0  0  0  0  0  0  0  0  0
  -20.3324  -31.4996   22.7212 C   0  0  0  0  0  0  0  0  0  0  0  0
  -25.3786  -27.3219   21.0091 C   0  0  0  0  0  0  0  0  0  0  0  0
  -32.6337  -28.8487   17.9603 C   0  0  0  0  0  0  0  0  0  0  0  0
  -33.2354  -26.9098   19.2702 C   0  0  0  0  0  0  0  0  0  0  0  0
  -31.7881  -29.2775   18.9834 C   0  0  0  0  0  0  0  0  0  0  0  0
  -32.3898  -27.3386   20.2933 C   0  0  0  0  0  0  0  0  0  0  0  0
  -31.6661  -28.5224   20.1499 C   0  0  0  0  0  0  0  0  0  0  0  0
  -27.2605  -15.9060   22.2221 C   0  0  0  0  0  0  0  0  0  0  0  0
  -27.4028  -28.2659   20.0492 C   0  0  0  0  0  0  0  0  0  0  0  0
  -26.1740  -13.9313   21.5571 C   0  0  0  0  0  0  0  0  0  0  0  0
  -24.7908  -12.4982   19.6037 C   0  0  0  0  0  0  0  0  0  0  0  0
  -26.7771  -13.6681   20.3272 C   0  0  0  0  0  0  0  0  0  0  0  0
  -28.5083  -19.8352   21.2720 C   0  0  0  0  0  0  0  0  0  0  0  0
  -28.9403  -21.9905   21.3236 C   0  0  0  0  0  0  0  0  0  0  0  0
  -27.8411  -21.1246   23.3949 C   0  0  0  0  0  0  0  0  0  0  0  0
  -22.5426  -28.5510   22.4494 C   0  0  0  0  0  0  0  0  0  0  0  0
  -22.5537  -25.3120   22.6241 C   0  0  0  0  0  0  0  0  0  0  0  0
  -24.1945  -22.3831   22.0109 C   0  0  0  0  0  0  0  0  0  0  0  0
  -32.9551  -23.9236   17.9635 C   0  0  0  0  0  0  0  0  0  0  0  0
  -18.3628  -30.8882   24.2171 C   0  0  0  0  0  0  0  0  0  0  0  0
  -23.1126  -27.9210   20.0758 C   0  0  0  0  0  0  0  0  0  0  0  0
  -24.7428  -26.4177   22.0322 C   0  0  0  0  0  0  0  0  0  0  0  0
  -19.1392  -29.6230   24.5731 C   0  0  0  0  0  0  0  0  0  0  0  0
  -30.3065  -22.0842   16.4542 C   0  0  0  0  0  0  0  0  0  0  0  0
  -20.6293  -29.9268   24.6919 C   0  0  0  0  0  0  0  0  0  0  0  0
  -29.5975  -21.4252   17.6387 C   0  0  0  0  0  0  0  0  0  0  0  0
  -31.8177  -22.1470   16.6649 C   0  0  0  0  0  0  0  0  0  0  0  0
  -31.5320  -22.1206   19.1127 C   0  0  0  0  0  0  0  0  0  0  0  0
  -21.1967  -30.4348   23.3609 C   0  0  1  0  0  0  0  0  0  0  0  0
  -22.5408  -27.4624   21.4138 C   0  0  1  0  0  0  0  0  0  0  0  0
  -30.0007  -22.0848   18.9712 C   0  0  2  0  0  0  0  0  0  0  0  0
  -32.7829  -29.6388   16.7015 C   0  0  0  0  0  0  0  0  0  0  0  0
  -31.0129  -30.5474   18.8269 C   0  0  0  0  0  0  0  0  0  0  0  0
  -32.2614  -26.5272   21.5436 C   0  0  0  0  0  0  0  0  0  0  0  0
  -23.9681  -19.9005   22.2993 C   0  0  0  0  0  0  0  0  0  0  0  0
  -23.2117  -25.5990   25.5897 C   0  0  0  0  0  0  0  0  0  0  0  0
  -23.8991  -23.1916   25.5987 C   0  0  0  0  0  0  0  0  0  0  0  0
  -21.5440  -23.8124   25.0593 C   0  0  0  0  0  0  0  0  0  0  0  0
  -24.3102  -21.9163   19.0907 C   0  0  0  0  0  0  0  0  0  0  0  0
  -30.7506  -28.9861   21.2568 C   0  0  0  0  0  0  0  0  0  0  0  0
  -34.0206  -25.6456   19.3983 C   0  0  0  0  0  0  0  0  0  0  0  0
  -29.4354  -28.2148   21.2828 C   0  0  0  0  0  0  0  0  0  1  0  0
  -23.3676  -24.2845   23.3730 C   0  0  1  0  0  0  0  0  0  0  0  0
  -23.7335  -21.0844   21.3741 C   0  0  2  0  0  0  0  0  0  0  0  0
  -23.0178  -24.2403   24.8873 C   0  0  0  0  0  0  0  0  0  0  0  0
  -29.0833  -20.0895   20.0935 N   0  0  0  0  0  0  0  0  0  0  0  0
  -29.3343  -21.4083   20.1549 N   0  0  0  0  0  0  0  0  0  0  0  0
  -23.2740  -26.3300   21.9834 N   0  0  0  0  0  0  0  0  0  0  0  0
  -32.1329  -22.7849   17.9454 N   0  0  0  0  0  0  0  0  0  0  0  0
  -29.1180  -23.3092   21.5514 N   0  0  0  0  0  0  0  0  0  0  0  0
  -27.3211  -19.9872   24.0277 N   0  0  0  0  0  0  0  0  0  0  0  0
  -21.4030  -29.3327   22.4460 N   0  0  0  0  0  0  0  0  0  0  0  0
  -23.1674  -23.0184   22.6763 N   0  0  0  0  0  0  0  0  0  0  0  0
  -33.1988  -24.4697   19.2178 N   0  0  0  0  0  0  0  0  0  0  0  0
  -24.4713  -20.8406   20.1025 N   0  3  0  0  0  0  0  0  0  0  0  0
  -27.7948  -22.2306   23.9851 O   0  0  0  0  0  0  0  0  0  0  0  0
  -23.5058  -28.6720   23.1973 O   0  0  0  0  0  0  0  0  0  0  0  0
  -21.3245  -25.2108   22.6023 O   0  0  0  0  0  0  0  0  0  0  0  0
  -25.3510  -22.7910   21.9295 O   0  0  0  0  0  0  0  0  0  0  0  0
  -33.4321  -24.4201   16.9374 O   0  0  0  0  0  0  0  0  0  0  0  0
  -26.8596  -14.6418   22.5281 O   0  0  0  0  0  0  0  0  0  0  0  0
  -28.7594  -28.3721   20.0359 O   0  0  0  0  0  0  0  0  0  1  0  0
  -24.1272  -11.8088   18.6664 F   0  0  0  0  0  0  0  0  0  0  0  0
  -28.0210  -14.1000   20.0786 F   0  0  0  0  0  0  0  0  0  0  0  0
  1  2  1  0  0  0  0
  1  5  2  0  0  0  0
  2  6  2  0  0  0  0
  3  8  2  0  0  0  0
  3 16  1  0  0  0  0
  4  9  1  0  0  0  0
  4 16  2  0  0  0  0
  5 18  1  0  0  0  0
  6 20  1  0  0  0  0
  7 10  2  0  0  0  0
  7 19  1  0  0  0  0
  8 27  1  0  0  0  0
  9 27  2  0  0  0  0
 10 28  1  0  0  0  0
 11 12  2  0  0  0  0
 11 29  1  0  0  0  0
 12 30  1  0  0  0  0
 13 21  1  0  0  0  0
 13 28  2  0  0  0  0
 14 22  1  0  0  0  0
 14 23  2  0  0  0  0
 15 30  2  0  0  0  0
 15 31  1  0  0  0  0
 16 32  1  0  0  0  0
 17 32  1  0  0  0  0
 17 33  2  0  0  0  0
 17 34  1  0  0  0  0
 18 20  2  0  0  0  0
 18 39  1  0  0  0  0
 19 21  2  0  0  0  0
 19 40  1  0  0  0  0
 20 48  1  0  0  0  0
 21 41  1  0  0  0  0
 22 24  2  0  0  0  0
 22 51  1  0  0  0  0
 23 25  1  0  0  0  0
 23 60  1  0  0  0  0
 24 26  1  0  0  0  0
 24 52  1  0  0  0  0
 25 26  2  0  0  0  0
 25 53  1  0  0  0  0
 26 59  1  0  0  0  0
 27 80  1  0  0  0  0
 28 81  1  0  0  0  0
 29 31  2  0  0  0  0
 29 80  1  0  0  0  0
 30 82  1  0  0  0  0
 31 83  1  0  0  0  0
 32 65  2  0  0  0  0
 33 66  1  0  0  0  0
 33 69  1  0  0  0  0
 34 70  1  0  0  0  0
 34 75  2  0  0  0  0
 35 49  1  0  0  0  0
 35 71  1  0  0  0  0
 35 76  2  0  0  0  0
 36 62  1  0  0  0  0
 36 67  1  0  0  0  0
 36 77  2  0  0  0  0
 37 63  1  0  0  0  0
 37 72  1  0  0  0  0
 37 78  2  0  0  0  0
 38 68  1  0  0  0  0
 38 73  1  0  0  0  0
 38 79  2  0  0  0  0
 39 42  1  0  0  0  0
 40 49  1  0  0  0  0
 41 67  1  0  0  0  0
 42 44  1  0  0  0  0
 43 45  1  0  0  0  0
 43 46  1  0  0  0  0
 44 48  1  0  0  0  0
 45 50  1  0  0  0  0
 46 68  1  0  0  0  0
 47 50  1  0  0  0  0
 47 68  1  0  0  0  0
 48 71  1  0  0  0  0
 49 67  1  0  0  0  0
 50 66  1  0  0  0  0
 54 63  1  0  0  0  0
 55 64  1  0  0  0  0
 56 64  1  0  0  0  0
 57 64  1  0  0  0  0
 58 74  1  0  0  0  0
 59 61  1  0  0  0  0
 60 73  1  0  0  0  0
 61 81  1  0  0  0  0
 62 64  1  0  0  0  0
 62 72  1  0  0  0  0
 63 74  1  0  0  0  0
 65 66  1  0  0  0  0
M  CHG  1  74   1
M  ISO  4  38 100  61 101  73 100  81 101
M  END
> <Batch ID>
0030

> <Smiles>
CNC(C)C(=O)NC(C(=O)N1Cc2cc([101O:1][101CH2:1]Cc3c(C)c(C)cc(C[100NH:0][100C:0](=O)N4CCCC(n5nc(-c6ccc(Oc7ccc(F)cc7F)cc6)c(C(N)=O)c5N)C4)c3C)ccc2CC1C(=O)NC1CCCc2ccccc21)C(C)(C)C

> <Shape>
0.172

> <Color>
0.091

> <Negative vol penalty>
0.000

$$$$

  -OEChem-04052316393D

 83 91  0     1  0  0  0  0  0999 V2000
  -22.7976  -23.6715   19.2334 C   0  0  0  0  0  0  0  0  0  0  0  0
  -24.0181  -23.0716   18.9399 C   0  0  0  0  0  0  0  0  0  0  0  0
  -22.3627  -28.0040   19.5629 C   0  0  0  0  0  0  0  0  0  0  0  0
  -22.7169  -27.8227   21.9459 C   0  0  0  0  0  0  0  0  0  0  0  0
  -21.9863  -23.1439   20.2370 C   0  0  0  0  0  0  0  0  0  0  0  0
  -24.4284  -21.9443   19.6508 C   0  0  0  0  0  0  0  0  0  0  0  0
  -27.6623  -17.2101   17.4980 C   0  0  0  0  0  0  0  0  0  0  0  0
  -20.9841  -27.9322   19.7623 C   0  0  0  0  0  0  0  0  0  0  0  0
  -21.3382  -27.7510   22.1453 C   0  0  0  0  0  0  0  0  0  0  0  0
  -29.0187  -16.8943   17.5618 C   0  0  0  0  0  0  0  0  0  0  0  0
  -17.8974  -27.8828   23.3121 C   0  0  0  0  0  0  0  0  0  0  0  0
  -17.3488  -28.6523   24.3380 C   0  0  0  0  0  0  0  0  0  0  0  0
  -28.5970  -15.4981   19.4834 C   0  0  0  0  0  0  0  0  0  0  0  0
  -33.3481  -19.0958   21.1313 C   0  0  0  0  0  0  0  0  0  0  0  0
  -31.0494  -18.3715   20.9631 C   0  0  0  0  0  0  0  0  0  0  0  0
  -18.1719  -30.6587   23.2731 C   0  0  0  0  0  0  0  0  0  0  0  0
  -23.2291  -27.9492   20.6547 C   0  0  0  0  0  0  0  0  0  0  0  0
  -25.4492  -29.1836   20.4195 C   0  0  0  0  0  0  0  0  0  0  0  0
  -22.3825  -22.0039   20.9539 C   0  0  0  0  0  0  0  0  0  0  0  0
  -26.7632  -16.6800   18.4346 C   0  0  0  0  0  0  0  0  0  0  0  0
  -23.6222  -21.4018   20.6658 C   0  0  0  0  0  0  0  0  0  0  0  0
  -27.2293  -15.8068   19.4277 C   0  0  0  0  0  0  0  0  0  0  0  0
  -32.4130  -18.0985   20.8547 C   0  0  0  0  0  0  0  0  0  0  0  0
  -31.5560  -20.6391   21.6251 C   0  0  0  0  0  0  0  0  0  0  0  0
  -20.4718  -27.8057   21.0535 C   0  0  0  0  0  0  0  0  0  0  0  0
  -29.4868  -16.0405   18.5564 C   0  0  0  0  0  0  0  0  0  0  0  0
  -18.5832  -28.5012   22.2667 C   0  0  0  0  0  0  0  0  0  0  0  0
  -17.4860  -30.0402   24.3185 C   0  0  0  0  0  0  0  0  0  0  0  0
  -32.9196  -20.3661   21.5166 C   0  0  0  0  0  0  0  0  0  0  0  0
  -18.7204  -29.8892   22.2472 C   0  0  0  0  0  0  0  0  0  0  0  0
  -30.6209  -19.6418   21.3483 C   0  0  0  0  0  0  0  0  0  0  0  0
  -24.6534  -28.0227   20.4493 C   0  0  0  0  0  0  0  0  0  0  0  0
  -26.7230  -28.7210   20.1959 C   0  0  0  0  0  0  0  0  0  0  0  0
  -25.0708  -30.5572   20.5798 C   0  0  0  0  0  0  0  0  0  0  0  0
  -24.8393  -17.9131   20.6440 C   0  0  0  0  0  0  0  0  0  0  0  0
  -23.8552  -14.8369   20.9453 C   0  0  0  0  0  0  0  0  0  0  0  0
  -24.5523  -11.5198   20.5476 C   0  0  0  0  0  0  0  0  0  0  0  0
  -29.2921  -23.5406   21.3866 C   0  0  0  0  0  0  0  0  0  0  0  0
  -21.4933  -21.4979   22.0621 C   0  0  0  0  0  0  0  0  0  0  0  0
  -25.2989  -17.0093   18.3358 C   0  0  0  0  0  0  0  0  0  0  0  0
  -26.3019  -15.1951   20.4447 C   0  0  0  0  0  0  0  0  0  0  0  0
  -21.8302  -20.0792   22.5137 C   0  0  0  0  0  0  0  0  0  0  0  0
  -29.0861  -25.1074   18.1308 C   0  0  0  0  0  0  0  0  0  0  0  0
  -23.3349  -19.9249   22.7108 C   0  0  0  0  0  0  0  0  0  0  0  0
  -27.9912  -26.1500   18.3638 C   0  0  0  0  0  0  0  0  0  0  0  0
  -28.7875  -23.8144   18.8840 C   0  0  0  0  0  0  0  0  0  0  0  0
  -27.4820  -25.0310   20.5838 C   0  0  0  0  0  0  0  0  0  0  0  0
  -24.0907  -20.1630   21.3979 C   0  0  1  0  0  0  0  0  0  0  0  0
  -24.5537  -16.8200   19.6535 C   0  0  1  0  0  0  0  0  0  0  0  0
  -27.7369  -26.3693   19.8669 C   0  0  2  0  0  0  0  0  0  0  0  0
  -23.5676   -9.2417   20.9184 C   0  0  0  0  0  0  0  0  0  0  0  0
  -24.4322  -15.0762   23.9319 C   0  0  0  0  0  0  0  0  0  0  0  0
  -24.3525  -12.5780   24.0766 C   0  0  0  0  0  0  0  0  0  0  0  0
  -22.3259  -13.8500   23.3713 C   0  0  0  0  0  0  0  0  0  0  0  0
  -24.6546  -10.8783   17.6602 C   0  0  0  0  0  0  0  0  0  0  0  0
  -32.8769  -16.7260   20.4367 C   0  0  0  0  0  0  0  0  0  0  0  0
  -31.1343  -22.0119   22.0397 C   0  0  0  0  0  0  0  0  0  0  0  0
  -33.0396  -16.5651   18.9237 C   0  0  0  0  0  0  0  0  0  0  0  0
  -31.7314  -16.7168   18.1562 C   0  0  0  0  0  0  0  0  0  1  0  0
  -24.2822  -13.6549   21.7817 C   0  0  1  0  0  0  0  0  0  0  0  0
  -23.7475  -10.3878   19.9351 C   0  0  2  0  0  0  0  0  0  0  0  0
  -23.8662  -13.8027   23.2726 C   0  0  0  0  0  0  0  0  0  0  0  0
  -25.3622  -26.9067   20.2595 N   0  0  0  0  0  0  0  0  0  0  0  0
  -26.6168  -27.3641   20.1083 N   0  0  0  0  0  0  0  0  0  0  0  0
  -24.8801  -15.5526   20.3103 N   0  0  0  0  0  0  0  0  0  0  0  0
  -28.5740  -24.0904   20.3117 N   0  0  0  0  0  0  0  0  0  0  0  0
  -27.9123  -29.3467   20.0674 N   0  0  0  0  0  0  0  0  0  0  0  0
  -23.7199  -30.8565   20.8026 N   0  0  0  0  0  0  0  0  0  0  0  0
  -23.9934  -19.0009   20.5409 N   0  0  0  0  0  0  0  0  0  0  0  0
  -23.7381  -12.4717   21.1241 N   0  0  0  0  0  0  0  0  0  0  0  0
  -30.3052  -22.6535   21.0438 N   0  0  0  0  0  0  0  0  0  0  0  0
  -24.4337   -9.8621   18.7211 N   0  3  0  0  0  0  0  0  0  0  0  0
  -25.9036  -31.4928   20.5107 O   0  0  0  0  0  0  0  0  0  0  0  0
  -25.7581  -17.7789   21.4438 O   0  0  0  0  0  0  0  0  0  0  0  0
  -22.6560  -15.1106   20.8528 O   0  0  0  0  0  0  0  0  0  0  0  0
  -25.7806  -11.5543   20.5208 O   0  0  0  0  0  0  0  0  0  0  0  0
  -29.0518  -23.8236   22.5653 O   0  0  0  0  0  0  0  0  0  0  0  0
  -19.1266  -27.7359   21.2484 O   0  0  0  0  0  0  0  0  0  0  0  0
  -30.8104  -15.7311   18.6214 O   0  0  0  0  0  0  0  0  0  1  0  0
  -16.9579  -30.7792   25.3030 F   0  0  0  0  0  0  0  0  0  0  0  0
  -33.8266  -21.3170   21.7815 F   0  0  0  0  0  0  0  0  0  0  0  0
  -19.3772  -30.4891   21.2449 F   0  0  0  0  0  0  0  0  0  0  0  0
  -28.9258  -19.9434   21.4714 Cl  0  0  0  0  0  0  0  0  0  0  0  0
  1  2  1  0  0  0  0
  1  5  2  0  0  0  0
  2  6  2  0  0  0  0
  3  8  2  0  0  0  0
  3 17  1  0  0  0  0
  4  9  1  0  0  0  0
  4 17  2  0  0  0  0
  5 19  1  0  0  0  0
  6 21  1  0  0  0  0
  7 10  2  0  0  0  0
  7 20  1  0  0  0  0
  8 25  1  0  0  0  0
  9 25  2  0  0  0  0
 10 26  1  0  0  0  0
 11 12  2  0  0  0  0
 11 27  1  0  0  0  0
 12 28  1  0  0  0  0
 13 22  1  0  0  0  0
 13 26  2  0  0  0  0
 14 23  1  0  0  0  0
 14 29  2  0  0  0  0
 15 23  2  0  0  0  0
 15 31  1  0  0  0  0
 16 28  2  0  0  0  0
 16 30  1  0  0  0  0
 17 32  1  0  0  0  0
 18 32  1  0  0  0  0
 18 33  2  0  0  0  0
 18 34  1  0  0  0  0
 19 21  2  0  0  0  0
 19 39  1  0  0  0  0
 20 22  2  0  0  0  0
 20 40  1  0  0  0  0
 21 48  1  0  0  0  0
 22 41  1  0  0  0  0
 23 56  1  0  0  0  0
 24 29  1  0  0  0  0
 24 31  2  0  0  0  0
 24 57  1  0  0  0  0
 25 78  1  0  0  0  0
 26 79  1  0  0  0  0
 27 30  2  0  0  0  0
 27 78  1  0  0  0  0
 28 80  1  0  0  0  0
 29 81  1  0  0  0  0
 30 82  1  0  0  0  0
 31 83  1  0  0  0  0
 32 63  2  0  0  0  0
 33 64  1  0  0  0  0
 33 67  1  0  0  0  0
 34 68  1  0  0  0  0
 34 73  2  0  0  0  0
 35 49  1  0  0  0  0
 35 69  1  0  0  0  0
 35 74  2  0  0  0  0
 36 60  1  0  0  0  0
 36 65  1  0  0  0  0
 36 75  2  0  0  0  0
 37 61  1  0  0  0  0
 37 70  1  0  0  0  0
 37 76  2  0  0  0  0
 38 66  1  0  0  0  0
 38 71  1  0  0  0  0
 38 77  2  0  0  0  0
 39 42  1  0  0  0  0
 40 49  1  0  0  0  0
 41 65  1  0  0  0  0
 42 44  1  0  0  0  0
 43 45  1  0  0  0  0
 43 46  1  0  0  0  0
 44 48  1  0  0  0  0
 45 50  1  0  0  0  0
 46 66  1  0  0  0  0
 47 50  1  0  0  0  0
 47 66  1  0  0  0  0
 48 69  1  0  0  0  0
 49 65  1  0  0  0  0
 50 64  1  0  0  0  0
 51 61  1  0  0  0  0
 52 62  1  0  0  0  0
 53 62  1  0  0  0  0
 54 62  1  0  0  0  0
 55 72  1  0  0  0  0
 56 58  1  0  0  0  0
 57 71  1  0  0  0  0
 58 59  1  0  0  0  0
 59 79  1  0  0  0  0
 60 62  1  0  0  0  0
 60 70  1  0  0  0  0
 61 72  1  0  0  0  0
 63 64  1  0  0  0  0
M  CHG  1  72   1
M  ISO  4  38 100  59 101  71 100  79 101
M  END
> <Batch ID>
0030

> <Smiles>
CNC(C)C(=O)NC(C(=O)N1Cc2cc([101O:1][101CH2:1]CCc3cc(F)c(C[100NH:0][100C:0](=O)N4CCCC(n5nc(-c6ccc(Oc7ccc(F)cc7F)cc6)c(C(N)=O)c5N)C4)c(Cl)c3)ccc2CC1C(=O)NC1CCCc2ccccc21)C(C)(C)C

> <Shape>
0.208

> <Color>
0.069

> <Negative vol penalty>
0.000

$$$$

  -OEChem-04052316393D

 86 94  0     1  0  0  0  0  0999 V2000
  -18.9939  -28.6363   22.2135 C   0  0  0  0  0  0  0  0  0  0  0  0
  -19.6621  -27.7615   21.3628 C   0  0  0  0  0  0  0  0  0  0  0  0
  -28.2364  -23.9107   20.6029 C   0  0  0  0  0  0  0  0  0  0  0  0
  -27.5785  -23.0189   18.4561 C   0  0  0  0  0  0  0  0  0  0  0  0
  -18.7813  -28.2850   23.5459 C   0  0  0  0  0  0  0  0  0  0  0  0
  -20.1189  -26.5352   21.8444 C   0  0  0  0  0  0  0  0  0  0  0  0
  -21.1961  -19.7680   19.7561 C   0  0  0  0  0  0  0  0  0  0  0  0
  -28.1380  -25.2061   20.0951 C   0  0  0  0  0  0  0  0  0  0  0  0
  -27.4801  -24.3143   17.9482 C   0  0  0  0  0  0  0  0  0  0  0  0
  -22.1909  -18.7914   19.7394 C   0  0  0  0  0  0  0  0  0  0  0  0
  -25.6886  -27.4357   19.4153 C   0  0  0  0  0  0  0  0  0  0  0  0
  -25.0408  -28.3914   20.1980 C   0  0  0  0  0  0  0  0  0  0  0  0
  -21.6968  -18.2573   22.0393 C   0  0  0  0  0  0  0  0  0  0  0  0
  -27.0594  -29.7180   20.2490 C   0  0  0  0  0  0  0  0  0  0  0  0
  -27.9567  -22.8171   19.7834 C   0  0  0  0  0  0  0  0  0  0  0  0
  -27.0423  -20.7297   20.9298 C   0  0  0  0  0  0  0  0  0  0  0  0
  -19.2273  -27.0497   24.0416 C   0  0  0  0  0  0  0  0  0  0  0  0
  -20.4503  -20.0045   20.9199 C   0  0  0  0  0  0  0  0  0  0  0  0
  -19.9132  -26.1676   23.1851 C   0  0  0  0  0  0  0  0  0  0  0  0
  -20.6914  -19.2357   22.0675 C   0  0  0  0  0  0  0  0  0  0  0  0
  -24.8868  -12.2883   21.0080 C   0  0  0  0  0  0  0  0  0  0  0  0
  -25.4736  -13.4984   20.6818 C   0  0  0  0  0  0  0  0  0  0  0  0
  -27.7598  -25.4079   18.7677 C   0  0  0  0  0  0  0  0  0  0  0  0
  -22.4434  -18.0378   20.8819 C   0  0  0  0  0  0  0  0  0  0  0  0
  -27.0219  -27.6211   19.0496 C   0  0  0  0  0  0  0  0  0  0  0  0
  -25.7261  -29.5325   20.6148 C   0  0  0  0  0  0  0  0  0  0  0  0
  -27.7072  -28.7622   19.4664 C   0  0  0  0  0  0  0  0  0  0  0  0
  -28.0588  -21.4788   20.3073 C   0  0  0  0  0  0  0  0  0  0  0  0
  -23.5207  -12.1692   20.8495 C   0  0  0  0  0  0  0  0  0  0  0  0
  -24.6555  -14.5091   20.2185 C   0  0  0  0  0  0  0  0  0  0  0  0
  -27.6399  -19.5333   21.2426 C   0  0  0  0  0  0  0  0  0  0  0  0
  -25.6796  -21.0837   21.2008 C   0  0  0  0  0  0  0  0  0  0  0  0
  -20.0495  -22.4894   22.8610 C   0  0  0  0  0  0  0  0  0  0  0  0
  -17.8335  -20.5609   24.2366 C   0  0  0  0  0  0  0  0  0  0  0  0
  -16.7090  -17.3905   24.8122 C   0  0  0  0  0  0  0  0  0  0  0  0
  -30.9197  -15.2284   19.8802 C   0  0  0  0  0  0  0  0  0  0  0  0
  -19.0158  -26.7342   25.5012 C   0  0  0  0  0  0  0  0  0  0  0  0
  -19.3625  -21.0433   20.9135 C   0  0  0  0  0  0  0  0  0  0  0  0
  -19.9049  -19.4366   23.3362 C   0  0  0  0  0  0  0  0  0  0  0  0
  -19.2014  -25.2569   25.8381 C   0  0  0  0  0  0  0  0  0  0  0  0
  -32.5063  -18.1573   21.1374 C   0  0  0  0  0  0  0  0  0  0  0  0
  -20.4740  -24.7179   25.1925 C   0  0  0  0  0  0  0  0  0  0  0  0
  -31.4091  -19.2215   21.0789 C   0  0  0  0  0  0  0  0  0  0  0  0
  -32.4234  -17.1955   19.9541 C   0  0  0  0  0  0  0  0  0  0  0  0
  -30.0091  -17.6236   19.7057 C   0  0  0  0  0  0  0  0  0  0  0  0
  -20.4021  -24.8179   23.6640 C   0  0  1  0  0  0  0  0  0  0  0  0
  -19.0136  -21.5515   22.3090 C   0  0  1  0  0  0  0  0  0  0  0  0
  -30.0174  -18.5832   20.9080 C   0  0  2  0  0  0  0  0  0  0  0  0
  -25.7055  -11.1491   21.5154 C   0  0  0  0  0  0  0  0  0  0  0  0
  -20.6617   -9.8417   21.9956 C   0  0  0  0  0  0  0  0  0  0  0  0
  -14.8953  -16.1295   26.0030 C   0  0  0  0  0  0  0  0  0  0  0  0
  -19.2505  -21.0393   26.8962 C   0  0  0  0  0  0  0  0  0  0  0  0
  -18.0223  -19.0657   27.8260 C   0  0  0  0  0  0  0  0  0  0  0  0
  -16.7531  -21.0588   27.0264 C   0  0  0  0  0  0  0  0  0  0  0  0
  -15.6913  -16.2366   22.2840 C   0  0  0  0  0  0  0  0  0  0  0  0
  -26.9444  -13.7029   20.8257 C   0  0  0  0  0  0  0  0  0  0  0  0
  -22.8170  -10.8962   21.1807 C   0  0  0  0  0  0  0  0  0  0  0  0
  -25.2220  -15.8562   19.8409 C   0  0  0  0  0  0  0  0  0  0  0  0
  -21.3891  -11.1417   21.6910 C   0  0  0  0  0  0  0  0  0  0  0  0
  -27.7861  -13.1059   19.6808 C   0  0  0  0  0  0  0  0  0  0  0  0
  -29.2867  -13.3611   19.8047 C   0  0  0  0  0  0  0  0  0  0  0  0
  -24.1357  -16.9091   19.6498 C   0  0  0  0  0  0  0  0  0  1  0  0
  -17.8504  -19.5293   25.3387 C   0  0  1  0  0  0  0  0  0  0  0  0
  -15.3260  -16.7756   24.6954 C   0  0  2  0  0  0  0  0  0  0  0  0
  -17.9854  -20.1706   26.7486 C   0  0  0  0  0  0  0  0  0  0  0  0
  -29.2146  -20.8140   20.2287 N   0  0  0  0  0  0  0  0  0  0  0  0
  -22.7445  -13.1753   20.3939 N   0  0  0  0  0  0  0  0  0  0  0  0
  -23.3213  -14.3644   20.0730 N   0  0  0  0  0  0  0  0  0  0  0  0
  -28.9280  -19.6347   20.8059 N   0  0  0  0  0  0  0  0  0  0  0  0
  -18.8563  -20.4685   23.2820 N   0  0  0  0  0  0  0  0  0  0  0  0
  -31.0789  -16.6236   19.8488 N   0  0  0  0  0  0  0  0  0  0  0  0
  -27.1841  -18.4150   21.8460 N   0  0  0  0  0  0  0  0  0  0  0  0
  -25.2290  -22.3528   20.8126 N   0  0  0  0  0  0  0  0  0  0  0  0
  -19.5742  -23.7594   23.1266 N   0  0  0  0  0  0  0  0  0  0  0  0
  -16.6476  -18.7230   25.1616 N   0  0  0  0  0  0  0  0  0  0  0  0
  -29.6118  -14.7698   19.7810 N   0  0  0  0  0  0  0  0  0  0  0  0
  -15.3104  -15.7344   23.6293 N   0  3  0  0  0  0  0  0  0  0  0  0
  -24.8895  -20.3040   21.7852 O   0  0  0  0  0  0  0  0  0  0  0  0
  -21.1950  -22.0900   23.0346 O   0  0  0  0  0  0  0  0  0  0  0  0
  -16.9415  -21.4127   24.2192 O   0  0  0  0  0  0  0  0  0  0  0  0
  -17.7406  -16.7518   24.6169 O   0  0  0  0  0  0  0  0  0  0  0  0
  -31.8720  -14.4492   19.9939 O   0  0  0  0  0  0  0  0  0  0  0  0
  -27.6634  -26.6718   18.2718 O   0  0  0  0  0  0  0  0  0  0  0  0
  -23.4143  -17.0844   20.8685 O   0  0  0  0  0  0  0  0  0  1  0  0
  -25.1034  -30.4509   21.3651 F   0  0  0  0  0  0  0  0  0  0  0  0
  -28.9878  -28.9464   19.1172 F   0  0  0  0  0  0  0  0  0  0  0  0
  1  2  1  0  0  0  0
  1  5  2  0  0  0  0
  2  6  2  0  0  0  0
  3  8  2  0  0  0  0
  3 15  1  0  0  0  0
  4  9  1  0  0  0  0
  4 15  2  0  0  0  0
  5 17  1  0  0  0  0
  6 19  1  0  0  0  0
  7 10  2  0  0  0  0
  7 18  1  0  0  0  0
  8 23  1  0  0  0  0
  9 23  2  0  0  0  0
 10 24  1  0  0  0  0
 11 12  2  0  0  0  0
 11 25  1  0  0  0  0
 12 26  1  0  0  0  0
 13 20  1  0  0  0  0
 13 24  2  0  0  0  0
 14 26  2  0  0  0  0
 14 27  1  0  0  0  0
 15 28  1  0  0  0  0
 16 28  1  0  0  0  0
 16 31  2  0  0  0  0
 16 32  1  0  0  0  0
 17 19  2  0  0  0  0
 17 37  1  0  0  0  0
 18 20  2  0  0  0  0
 18 38  1  0  0  0  0
 19 46  1  0  0  0  0
 20 39  1  0  0  0  0
 21 22  1  0  0  0  0
 21 29  2  0  0  0  0
 21 49  1  0  0  0  0
 22 30  2  0  0  0  0
 22 56  1  0  0  0  0
 23 83  1  0  0  0  0
 24 84  1  0  0  0  0
 25 27  2  0  0  0  0
 25 83  1  0  0  0  0
 26 85  1  0  0  0  0
 27 86  1  0  0  0  0
 28 66  2  0  0  0  0
 29 57  1  0  0  0  0
 29 67  1  0  0  0  0
 30 58  1  0  0  0  0
 30 68  1  0  0  0  0
 31 69  1  0  0  0  0
 31 72  1  0  0  0  0
 32 73  1  0  0  0  0
 32 78  2  0  0  0  0
 33 47  1  0  0  0  0
 33 74  1  0  0  0  0
 33 79  2  0  0  0  0
 34 63  1  0  0  0  0
 34 70  1  0  0  0  0
 34 80  2  0  0  0  0
 35 64  1  0  0  0  0
 35 75  1  0  0  0  0
 35 81  2  0  0  0  0
 36 71  1  0  0  0  0
 36 76  1  0  0  0  0
 36 82  2  0  0  0  0
 37 40  1  0  0  0  0
 38 47  1  0  0  0  0
 39 70  1  0  0  0  0
 40 42  1  0  0  0  0
 41 43  1  0  0  0  0
 41 44  1  0  0  0  0
 42 46  1  0  0  0  0
 43 48  1  0  0  0  0
 44 71  1  0  0  0  0
 45 48  1  0  0  0  0
 45 71  1  0  0  0  0
 46 74  1  0  0  0  0
 47 70  1  0  0  0  0
 48 69  1  0  0  0  0
 50 59  1  0  0  0  0
 51 64  1  0  0  0  0
 52 65  1  0  0  0  0
 53 65  1  0  0  0  0
 54 65  1  0  0  0  0
 55 77  1  0  0  0  0
 56 60  1  0  0  0  0
 57 59  1  0  0  0  0
 58 62  1  0  0  0  0
 60 61  1  0  0  0  0
 61 76  1  0  0  0  0
 62 84  1  0  0  0  0
 63 65  1  0  0  0  0
 63 75  1  0  0  0  0
 64 77  1  0  0  0  0
 66 69  1  0  0  0  0
 67 68  2  0  0  0  0
M  CHG  1  77   1
M  ISO  4  36 100  62 101  76 100  84 101
M  END
> <Batch ID>
0030

> <Smiles>
CCCc1nnc(C[101CH2:1][101O:1]c2ccc3c(c2)CN(C(=O)C(NC(=O)C(C)NC)C(C)(C)C)C(C(=O)NC2CCCc4ccccc42)C3)c(CCC[100NH:0][100C:0](=O)N2CCCC(n3nc(-c4ccc(Oc5ccc(F)cc5F)cc4)c(C(N)=O)c3N)C2)c1C

> <Shape>
0.203

> <Color>
0.075

> <Negative vol penalty>
0.000

$$$$

  -OEChem-04052316393D

 84 92  0     1  0  0  0  0  0999 V2000
  -31.5990  -25.1407   15.6257 C   0  0  0  0  0  0  0  0  0  0  0  0
  -30.5836  -24.6523   16.4417 C   0  0  0  0  0  0  0  0  0  0  0  0
  -25.3720  -12.8604   19.1857 C   0  0  0  0  0  0  0  0  0  0  0  0
  -25.9350  -13.9150   21.2852 C   0  0  0  0  0  0  0  0  0  0  0  0
  -32.3119  -26.2769   16.0064 C   0  0  0  0  0  0  0  0  0  0  0  0
  -30.2812  -25.2992   17.6394 C   0  0  0  0  0  0  0  0  0  0  0  0
  -25.2974  -25.8631   18.3385 C   0  0  0  0  0  0  0  0  0  0  0  0
  -25.8089  -21.5751   21.0676 C   0  0  0  0  0  0  0  0  0  0  0  0
  -25.1980  -11.6430   19.8439 C   0  0  0  0  0  0  0  0  0  0  0  0
  -25.7610  -12.6976   21.9434 C   0  0  0  0  0  0  0  0  0  0  0  0
  -24.5845  -24.7455   18.7705 C   0  0  0  0  0  0  0  0  0  0  0  0
  -27.1476  -21.1850   21.0987 C   0  0  0  0  0  0  0  0  0  0  0  0
  -24.2541   -8.3372   21.0254 C   0  0  0  0  0  0  0  0  0  0  0  0
  -23.1283   -7.5800   20.7016 C   0  0  0  0  0  0  0  0  0  0  0  0
  -24.6232  -25.6002   21.0259 C   0  0  0  0  0  0  0  0  0  0  0  0
  -25.9306  -21.8017   18.6654 C   0  0  0  0  0  0  0  0  0  0  0  0
  -21.7022   -9.3944   21.4167 C   0  0  0  0  0  0  0  0  0  0  0  0
  -25.7406  -13.9964   19.9064 C   0  0  0  0  0  0  0  0  0  0  0  0
  -24.9453  -16.2416   18.9928 C   0  0  0  0  0  0  0  0  0  0  0  0
  -32.0116  -26.9436   17.2047 C   0  0  0  0  0  0  0  0  0  0  0  0
  -25.6886  -26.8540   19.2503 C   0  0  0  0  0  0  0  0  0  0  0  0
  -30.9916  -26.4445   18.0371 C   0  0  0  0  0  0  0  0  0  0  0  0
  -25.3387  -26.7306   20.6025 C   0  0  0  0  0  0  0  0  0  0  0  0
  -25.2003  -21.8834   19.8509 C   0  0  0  0  0  0  0  0  0  0  0  0
  -25.3925  -11.5616   21.2227 C   0  0  0  0  0  0  0  0  0  0  0  0
  -24.2499  -24.6125   20.1149 C   0  0  0  0  0  0  0  0  0  0  0  0
  -24.1039   -9.6230   21.5450 C   0  0  0  0  0  0  0  0  0  0  0  0
  -27.8780  -21.1032   19.9131 C   0  0  0  0  0  0  0  0  0  0  0  0
  -21.8524   -8.1086   20.8971 C   0  0  0  0  0  0  0  0  0  0  0  0
  -22.8280  -10.1516   21.7406 C   0  0  0  0  0  0  0  0  0  0  0  0
  -27.2695  -21.4116   18.6964 C   0  0  0  0  0  0  0  0  0  0  0  0
  -25.9210  -15.2542   19.2269 C   0  0  0  0  0  0  0  0  0  0  0  0
  -25.6146  -17.2322   18.3167 C   0  0  0  0  0  0  0  0  0  0  0  0
  -23.5580  -16.2616   19.3543 C   0  0  0  0  0  0  0  0  0  0  0  0
  -28.4764  -28.0161   20.2409 C   0  0  0  0  0  0  0  0  0  0  0  0
  -26.5911  -30.1350   21.8151 C   0  0  0  0  0  0  0  0  0  0  0  0
  -23.5458  -30.8450   23.1823 C   0  0  0  0  0  0  0  0  0  0  0  0
  -31.3783  -18.8387   18.0931 C   0  0  0  0  0  0  0  0  0  0  0  0
  -32.8413  -28.1404   17.5971 C   0  0  0  0  0  0  0  0  0  0  0  0
  -26.4339  -28.0665   18.7639 C   0  0  0  0  0  0  0  0  0  0  0  0
  -25.7174  -27.7763   21.6182 C   0  0  0  0  0  0  0  0  0  0  0  0
  -32.2083  -28.9853   18.6997 C   0  0  0  0  0  0  0  0  0  0  0  0
  -29.3085  -17.9039   15.3511 C   0  0  0  0  0  0  0  0  0  0  0  0
  -31.7024  -28.0951   19.8304 C   0  0  0  0  0  0  0  0  0  0  0  0
  -28.1176  -17.2079   16.0124 C   0  0  0  0  0  0  0  0  0  0  0  0
  -30.6145  -17.6064   16.0845 C   0  0  0  0  0  0  0  0  0  0  0  0
  -29.4021  -17.2012   18.1915 C   0  0  0  0  0  0  0  0  0  0  0  0
  -30.6175  -27.1329   19.3318 C   0  0  1  0  0  0  0  0  0  0  0  0
  -27.2273  -28.7621   19.8658 C   0  0  1  0  0  0  0  0  0  0  0  0
  -28.0544  -17.5165   17.5204 C   0  0  2  0  0  0  0  0  0  0  0  0
  -22.8276  -21.2440   20.4027 C   0  0  0  0  0  0  0  0  0  0  0  0
  -22.3185  -32.6415   24.4328 C   0  0  0  0  0  0  0  0  0  0  0  0
  -28.0775  -29.3703   24.3677 C   0  0  0  0  0  0  0  0  0  0  0  0
  -26.2312  -30.4375   25.6795 C   0  0  0  0  0  0  0  0  0  0  0  0
  -27.6117  -31.8154   24.1244 C   0  0  0  0  0  0  0  0  0  0  0  0
  -21.5461  -31.1446   21.0212 C   0  0  0  0  0  0  0  0  0  0  0  0
  -31.4672  -21.4292   20.1648 C   0  0  0  0  0  0  0  0  0  0  0  0
  -32.0167  -20.0093   20.1863 C   0  0  0  0  0  0  0  0  0  0  0  0
  -30.0632  -21.5304   20.7486 C   0  0  0  0  0  0  0  0  0  0  0  0
  -23.7495  -22.3065   19.8180 C   0  0  1  0  0  0  0  0  0  1  0  0
  -25.9354  -30.1786   23.1742 C   0  0  1  0  0  0  0  0  0  0  0  0
  -22.6486  -32.0640   23.0652 C   0  0  2  0  0  0  0  0  0  0  0  0
  -26.9584  -30.4296   24.3179 C   0  0  0  0  0  0  0  0  0  0  0  0
  -27.1190  -15.5871   18.7390 N   0  0  0  0  0  0  0  0  0  0  0  0
  -26.9004  -16.7948   18.1915 N   0  0  0  0  0  0  0  0  0  0  0  0
  -26.4511  -28.9404   21.0946 N   0  0  0  0  0  0  0  0  0  0  0  0
  -30.4882  -17.9222   17.5094 N   0  0  0  0  0  0  0  0  0  0  0  0
  -25.2229  -18.4260   17.8229 N   0  0  0  0  0  0  0  0  0  0  0  0
  -23.0321  -15.1623   20.0467 N   0  0  0  0  0  0  0  0  0  0  0  0
  -29.3542  -27.8248   19.1910 N   0  0  0  0  0  0  0  0  0  0  0  0
  -24.8796  -31.1814   23.0862 N   0  0  0  0  0  0  0  0  0  0  0  0
  -31.1851  -19.0861   19.4467 N   0  0  0  0  0  0  0  0  0  0  0  0
  -21.3717  -31.7040   22.3864 N   0  3  0  0  0  0  0  0  0  0  0  0
  -22.8032  -17.2184   19.0573 O   0  0  0  0  0  0  0  0  0  0  0  0
  -28.6329  -27.6430   21.3976 O   0  0  0  0  0  0  0  0  0  0  0  0
  -27.1988  -31.1269   21.4048 O   0  0  0  0  0  0  0  0  0  0  0  0
  -23.1075  -29.7086   23.3466 O   0  0  0  0  0  0  0  0  0  0  0  0
  -32.2752  -19.3992   17.4541 O   0  0  0  0  0  0  0  0  0  0  0  0
  -25.2225  -10.3738   21.8653 O   0  0  0  0  0  0  0  0  0  0  0  0
  -29.1842  -20.7182   19.9736 O   0  0  0  0  0  0  0  0  0  0  0  0
  -23.5547  -23.5223   20.5393 O   0  0  0  0  0  0  0  0  0  1  0  0
  -20.7715   -7.3819   20.5846 F   0  0  0  0  0  0  0  0  0  0  0  0
  -22.6774  -11.3867   22.2383 F   0  0  0  0  0  0  0  0  0  0  0  0
  -28.1490  -21.3183   17.2151 Cl  0  0  0  0  0  0  0  0  0  0  0  0
  1  2  1  0  0  0  0
  1  5  2  0  0  0  0
  2  6  2  0  0  0  0
  3  9  2  0  0  0  0
  3 18  1  0  0  0  0
  4 10  1  0  0  0  0
  4 18  2  0  0  0  0
  5 20  1  0  0  0  0
  6 22  1  0  0  0  0
  7 11  2  0  0  0  0
  7 21  1  0  0  0  0
  8 12  2  0  0  0  0
  8 24  1  0  0  0  0
  9 25  1  0  0  0  0
 10 25  2  0  0  0  0
 11 26  1  0  0  0  0
 12 28  1  0  0  0  0
 13 14  2  0  0  0  0
 13 27  1  0  0  0  0
 14 29  1  0  0  0  0
 15 23  1  0  0  0  0
 15 26  2  0  0  0  0
 16 24  2  0  0  0  0
 16 31  1  0  0  0  0
 17 29  2  0  0  0  0
 17 30  1  0  0  0  0
 18 32  1  0  0  0  0
 19 32  1  0  0  0  0
 19 33  2  0  0  0  0
 19 34  1  0  0  0  0
 20 22  2  0  0  0  0
 20 39  1  0  0  0  0
 21 23  2  0  0  0  0
 21 40  1  0  0  0  0
 22 48  1  0  0  0  0
 23 41  1  0  0  0  0
 24 60  1  0  0  0  0
 25 79  1  0  0  0  0
 26 81  1  0  0  0  0
 27 30  2  0  0  0  0
 27 79  1  0  0  0  0
 28 31  2  0  0  0  0
 28 80  1  0  0  0  0
 29 82  1  0  0  0  0
 30 83  1  0  0  0  0
 31 84  1  0  0  0  0
 32 64  2  0  0  0  0
 33 65  1  0  0  0  0
 33 68  1  0  0  0  0
 34 69  1  0  0  0  0
 34 74  2  0  0  0  0
 35 49  1  0  0  0  0
 35 70  1  0  0  0  0
 35 75  2  0  0  0  0
 36 61  1  0  0  0  0
 36 66  1  0  0  0  0
 36 76  2  0  0  0  0
 37 62  1  0  0  0  0
 37 71  1  0  0  0  0
 37 77  2  0  0  0  0
 38 67  1  0  0  0  0
 38 72  1  0  0  0  0
 38 78  2  0  0  0  0
 39 42  1  0  0  0  0
 40 49  1  0  0  0  0
 41 66  1  0  0  0  0
 42 44  1  0  0  0  0
 43 45  1  0  0  0  0
 43 46  1  0  0  0  0
 44 48  1  0  0  0  0
 45 50  1  0  0  0  0
 46 67  1  0  0  0  0
 47 50  1  0  0  0  0
 47 67  1  0  0  0  0
 48 70  1  0  0  0  0
 49 66  1  0  0  0  0
 50 65  1  0  0  0  0
 51 60  1  0  0  0  0
 52 62  1  0  0  0  0
 53 63  1  0  0  0  0
 54 63  1  0  0  0  0
 55 63  1  0  0  0  0
 56 73  1  0  0  0  0
 57 58  1  0  0  0  0
 57 59  1  0  0  0  0
 58 72  1  0  0  0  0
 59 80  1  0  0  0  0
 60 81  1  0  0  0  0
 61 63  1  0  0  0  0
 61 71  1  0  0  0  0
 62 73  1  0  0  0  0
 64 65  1  0  0  0  0
M  CHG  1  73   1
M  ISO  4  38 100  60 101  72 100  81 101
M  END
> <Batch ID>
0030

> <Smiles>
CNC(C)C(=O)NC(C(=O)N1Cc2cc([101O:1][101CH:1](C)c3ccc(OCCC[100NH:0][100C:0](=O)N4CCCC(n5nc(-c6ccc(Oc7ccc(F)cc7F)cc6)c(C(N)=O)c5N)C4)c(Cl)c3)ccc2CC1C(=O)NC1CCCc2ccccc21)C(C)(C)C

> <Shape>
0.234

> <Color>
0.081

> <Negative vol penalty>
0.000

$$$$

  -OEChem-04052316393D

 86 94  0     1  0  0  0  0  0999 V2000
  -17.4240  -28.6722   25.0448 C   0  0  0  0  0  0  0  0  0  0  0  0
  -18.4543  -28.1094   25.7914 C   0  0  0  0  0  0  0  0  0  0  0  0
  -25.5505  -13.9898   21.2221 C   0  0  0  0  0  0  0  0  0  0  0  0
  -25.3369  -14.2996   18.8356 C   0  0  0  0  0  0  0  0  0  0  0  0
  -17.4636  -28.6177   23.6522 C   0  0  0  0  0  0  0  0  0  0  0  0
  -19.5242  -27.4908   25.1457 C   0  0  0  0  0  0  0  0  0  0  0  0
  -26.5610  -26.3464   25.8462 C   0  0  0  0  0  0  0  0  0  0  0  0
  -24.5549  -13.0137   21.1846 C   0  0  0  0  0  0  0  0  0  0  0  0
  -24.3412  -13.3234   18.7980 C   0  0  0  0  0  0  0  0  0  0  0  0
  -27.4895  -25.3064   25.8349 C   0  0  0  0  0  0  0  0  0  0  0  0
  -24.2948   -9.7523   20.3309 C   0  0  0  0  0  0  0  0  0  0  0  0
  -24.5170   -8.5721   21.0404 C   0  0  0  0  0  0  0  0  0  0  0  0
  -27.4907  -25.3418   23.4228 C   0  0  0  0  0  0  0  0  0  0  0  0
  -33.0516  -25.2301   22.1575 C   0  0  0  0  0  0  0  0  0  0  0  0
  -32.1192  -25.1162   24.3834 C   0  0  0  0  0  0  0  0  0  0  0  0
  -22.5462   -9.0009   22.3706 C   0  0  0  0  0  0  0  0  0  0  0  0
  -25.9415  -14.6328   20.0476 C   0  0  0  0  0  0  0  0  0  0  0  0
  -28.3560  -15.4486   19.9364 C   0  0  0  0  0  0  0  0  0  0  0  0
  -18.5394  -28.0066   22.9889 C   0  0  0  0  0  0  0  0  0  0  0  0
  -26.0814  -26.8855   24.6437 C   0  0  0  0  0  0  0  0  0  0  0  0
  -19.5776  -27.4269   23.7429 C   0  0  0  0  0  0  0  0  0  0  0  0
  -26.5582  -26.3903   23.4216 C   0  0  0  0  0  0  0  0  0  0  0  0
  -32.7672  -25.8374   23.3805 C   0  0  0  0  0  0  0  0  0  0  0  0
  -32.6879  -23.9015   21.9372 C   0  0  0  0  0  0  0  0  0  0  0  0
  -31.7556  -23.7876   24.1631 C   0  0  0  0  0  0  0  0  0  0  0  0
  -32.0400  -23.1803   22.9400 C   0  0  0  0  0  0  0  0  0  0  0  0
  -23.9502  -12.6805   19.9725 C   0  0  0  0  0  0  0  0  0  0  0  0
  -27.9523  -24.8020   24.6231 C   0  0  0  0  0  0  0  0  0  0  0  0
  -23.1984  -10.5569   20.6413 C   0  0  0  0  0  0  0  0  0  0  0  0
  -23.6427   -8.1964   22.0602 C   0  0  0  0  0  0  0  0  0  0  0  0
  -22.3241  -10.1811   21.6611 C   0  0  0  0  0  0  0  0  0  0  0  0
  -26.9696  -15.6416   20.0858 C   0  0  0  0  0  0  0  0  0  0  0  0
  -28.8923  -16.7078   20.0510 C   0  0  0  0  0  0  0  0  0  0  0  0
  -29.0932  -14.2391   19.7139 C   0  0  0  0  0  0  0  0  0  0  0  0
  -23.2266  -27.1000   23.2626 C   0  0  0  0  0  0  0  0  0  0  0  0
  -24.8415  -28.8960   21.0972 C   0  0  0  0  0  0  0  0  0  0  0  0
  -27.8210  -29.6797   19.6291 C   0  0  0  0  0  0  0  0  0  0  0  0
  -28.8290  -22.1539   18.8335 C   0  0  0  0  0  0  0  0  0  0  0  0
  -18.5149  -27.9305   21.4829 C   0  0  0  0  0  0  0  0  0  0  0  0
  -25.1002  -28.0251   24.6732 C   0  0  0  0  0  0  0  0  0  0  0  0
  -26.0900  -26.9481   22.1032 C   0  0  0  0  0  0  0  0  0  0  0  0
  -19.8693  -27.5869   20.8682 C   0  0  0  0  0  0  0  0  0  0  0  0
  -26.7868  -21.0603   21.5373 C   0  0  0  0  0  0  0  0  0  0  0  0
  -20.5101  -26.4172   21.6083 C   0  0  0  0  0  0  0  0  0  0  0  0
  -26.7617  -19.5385   21.3845 C   0  0  0  0  0  0  0  0  0  0  0  0
  -26.7878  -21.7636   20.1818 C   0  0  0  0  0  0  0  0  0  0  0  0
  -27.8265  -19.8049   19.1054 C   0  0  0  0  0  0  0  0  0  0  0  0
  -20.7675  -26.7690   23.0785 C   0  0  1  0  0  0  0  0  0  0  0  0
  -24.2927  -28.1517   23.3851 C   0  0  1  0  0  0  0  0  0  0  0  0
  -27.8810  -19.0507   20.4450 C   0  0  2  0  0  0  0  0  0  0  0  0
  -33.1553  -27.2580   23.6158 C   0  0  0  0  0  0  0  0  0  0  0  0
  -32.5951  -20.7779   23.3945 C   0  0  0  0  0  0  0  0  0  0  0  0
  -28.8189  -31.1596   17.8652 C   0  0  0  0  0  0  0  0  0  0  0  0
  -23.7262  -27.0607   18.9298 C   0  0  0  0  0  0  0  0  0  0  0  0
  -25.4626  -27.9642   17.3688 C   0  0  0  0  0  0  0  0  0  0  0  0
  -23.7408  -29.4895   18.3341 C   0  0  0  0  0  0  0  0  0  0  0  0
  -29.5528  -31.0535   21.5970 C   0  0  0  0  0  0  0  0  0  0  0  0
  -33.0050  -23.2742   20.6190 C   0  0  0  0  0  0  0  0  0  0  0  0
  -31.0556  -23.0293   25.2646 C   0  0  0  0  0  0  0  0  0  0  0  0
  -31.6507  -21.7558   22.7037 C   0  0  0  0  0  0  0  0  0  0  0  0
  -31.7701  -23.1790   19.7110 C   0  0  0  0  0  0  0  0  0  0  0  0
  -32.1003  -22.5011   18.3779 C   0  0  0  0  0  0  0  0  0  0  0  0
  -30.8855  -22.3829   17.4633 C   0  0  0  0  0  0  0  0  0  0  0  0
  -29.7654  -23.7103   25.7080 C   0  0  0  0  0  0  0  0  0  1  0  0
  -25.5901  -28.6111   19.8176 C   0  0  1  0  0  0  0  0  0  0  0  0
  -28.4813  -31.0159   19.3410 C   0  0  2  0  0  0  0  0  0  0  0  0
  -24.6375  -28.2693   18.6373 C   0  0  0  0  0  0  0  0  0  0  0  0
  -26.6454  -16.9226   20.2806 N   0  0  0  0  0  0  0  0  0  0  0  0
  -27.8358  -17.5459   20.2545 N   0  0  0  0  0  0  0  0  0  0  0  0
  -25.1255  -28.0574   22.1843 N   0  0  0  0  0  0  0  0  0  0  0  0
  -27.8740  -21.2567   19.3396 N   0  0  0  0  0  0  0  0  0  0  0  0
  -30.1600  -17.1689   19.9966 N   0  0  0  0  0  0  0  0  0  0  0  0
  -28.3856  -13.0328   19.6214 N   0  0  0  0  0  0  0  0  0  0  0  0
  -21.9421  -27.6056   23.1999 N   0  0  0  0  0  0  0  0  0  0  0  0
  -26.4459  -29.7683   19.5790 N   0  0  0  0  0  0  0  0  0  0  0  0
  -29.8282  -21.5899   18.0497 N   0  0  0  0  0  0  0  0  0  0  0  0
  -29.7405  -31.1515   20.1265 N   0  3  0  0  0  0  0  0  0  0  0  0
  -30.3437  -14.2263   19.6168 O   0  0  0  0  0  0  0  0  0  0  0  0
  -23.5459  -25.9175   23.2260 O   0  0  0  0  0  0  0  0  0  0  0  0
  -24.0397  -29.8328   21.1330 O   0  0  0  0  0  0  0  0  0  0  0  0
  -28.4611  -28.6587   19.8705 O   0  0  0  0  0  0  0  0  0  0  0  0
  -28.7969  -23.3668   19.0676 O   0  0  0  0  0  0  0  0  0  0  0  0
  -22.9788  -11.7279   19.9355 O   0  0  0  0  0  0  0  0  0  0  0  0
  -28.8580  -23.7864   24.6092 O   0  0  0  0  0  0  0  0  0  1  0  0
  -23.8553   -7.0622   22.7405 F   0  0  0  0  0  0  0  0  0  0  0  0
  -21.2684  -10.9493   21.9631 F   0  0  0  0  0  0  0  0  0  0  0  0
  1  2  1  0  0  0  0
  1  5  2  0  0  0  0
  2  6  2  0  0  0  0
  3  8  2  0  0  0  0
  3 17  1  0  0  0  0
  4  9  1  0  0  0  0
  4 17  2  0  0  0  0
  5 19  1  0  0  0  0
  6 21  1  0  0  0  0
  7 10  2  0  0  0  0
  7 20  1  0  0  0  0
  8 27  1  0  0  0  0
  9 27  2  0  0  0  0
 10 28  1  0  0  0  0
 11 12  2  0  0  0  0
 11 29  1  0  0  0  0
 12 30  1  0  0  0  0
 13 22  1  0  0  0  0
 13 28  2  0  0  0  0
 14 23  1  0  0  0  0
 14 24  2  0  0  0  0
 15 23  2  0  0  0  0
 15 25  1  0  0  0  0
 16 30  2  0  0  0  0
 16 31  1  0  0  0  0
 17 32  1  0  0  0  0
 18 32  1  0  0  0  0
 18 33  2  0  0  0  0
 18 34  1  0  0  0  0
 19 21  2  0  0  0  0
 19 39  1  0  0  0  0
 20 22  2  0  0  0  0
 20 40  1  0  0  0  0
 21 48  1  0  0  0  0
 22 41  1  0  0  0  0
 23 51  1  0  0  0  0
 24 26  1  0  0  0  0
 24 58  1  0  0  0  0
 25 26  2  0  0  0  0
 25 59  1  0  0  0  0
 26 60  1  0  0  0  0
 27 83  1  0  0  0  0
 28 84  1  0  0  0  0
 29 31  2  0  0  0  0
 29 83  1  0  0  0  0
 30 85  1  0  0  0  0
 31 86  1  0  0  0  0
 32 68  2  0  0  0  0
 33 69  1  0  0  0  0
 33 72  1  0  0  0  0
 34 73  1  0  0  0  0
 34 78  2  0  0  0  0
 35 49  1  0  0  0  0
 35 74  1  0  0  0  0
 35 79  2  0  0  0  0
 36 65  1  0  0  0  0
 36 70  1  0  0  0  0
 36 80  2  0  0  0  0
 37 66  1  0  0  0  0
 37 75  1  0  0  0  0
 37 81  2  0  0  0  0
 38 71  1  0  0  0  0
 38 76  1  0  0  0  0
 38 82  2  0  0  0  0
 39 42  1  0  0  0  0
 40 49  1  0  0  0  0
 41 70  1  0  0  0  0
 42 44  1  0  0  0  0
 43 45  1  0  0  0  0
 43 46  1  0  0  0  0
 44 48  1  0  0  0  0
 45 50  1  0  0  0  0
 46 71  1  0  0  0  0
 47 50  1  0  0  0  0
 47 71  1  0  0  0  0
 48 74  1  0  0  0  0
 49 70  1  0  0  0  0
 50 69  1  0  0  0  0
 52 60  1  0  0  0  0
 53 66  1  0  0  0  0
 54 67  1  0  0  0  0
 55 67  1  0  0  0  0
 56 67  1  0  0  0  0
 57 77  1  0  0  0  0
 58 61  1  0  0  0  0
 59 64  1  0  0  0  0
 61 62  1  0  0  0  0
 62 63  1  0  0  0  0
 63 76  1  0  0  0  0
 64 84  1  0  0  0  0
 65 67  1  0  0  0  0
 65 75  1  0  0  0  0
 66 77  1  0  0  0  0
 68 69  1  0  0  0  0
M  CHG  1  77   1
M  ISO  4  38 100  64 101  76 100  84 101
M  END
> <Batch ID>
0030

> <Smiles>
CCc1c(CCCC[100NH:0][100C:0](=O)N2CCCC(n3nc(-c4ccc(Oc5ccc(F)cc5F)cc4)c(C(N)=O)c3N)C2)cc(C)cc1C[101CH2:1][101O:1]c1ccc2c(c1)CN(C(=O)C(NC(=O)C(C)NC)C(C)(C)C)C(C(=O)NC1CCCc3ccccc31)C2

> <Shape>
0.220

> <Color>
0.071

> <Negative vol penalty>
0.000

$$$$

  -OEChem-04052316393D

 82 90  0     1  0  0  0  0  0999 V2000
  -14.0174  -19.2716   22.8560 C   0  0  0  0  0  0  0  0  0  0  0  0
  -14.1321  -20.5517   22.3235 C   0  0  0  0  0  0  0  0  0  0  0  0
  -28.0238  -20.1810   19.7340 C   0  0  0  0  0  0  0  0  0  0  0  0
  -30.0654  -20.5596   18.4989 C   0  0  0  0  0  0  0  0  0  0  0  0
  -14.7408  -18.9248   23.9963 C   0  0  0  0  0  0  0  0  0  0  0  0
  -14.9694  -21.4862   22.9317 C   0  0  0  0  0  0  0  0  0  0  0  0
  -19.2322  -27.0232   21.3550 C   0  0  0  0  0  0  0  0  0  0  0  0
  -28.4789  -18.9138   20.0980 C   0  0  0  0  0  0  0  0  0  0  0  0
  -30.5206  -19.2924   18.8630 C   0  0  0  0  0  0  0  0  0  0  0  0
  -19.4501  -28.3520   21.7166 C   0  0  0  0  0  0  0  0  0  0  0  0
  -28.7197  -15.8531   18.6844 C   0  0  0  0  0  0  0  0  0  0  0  0
  -27.8230  -14.7895   18.5835 C   0  0  0  0  0  0  0  0  0  0  0  0
  -20.7120  -27.6163   23.6363 C   0  0  0  0  0  0  0  0  0  0  0  0
  -23.0864  -29.9808   20.7499 C   0  0  0  0  0  0  0  0  0  0  0  0
  -25.7521  -30.6709   21.1976 C   0  0  0  0  0  0  0  0  0  0  0  0
  -28.0513  -14.3725   20.9523 C   0  0  0  0  0  0  0  0  0  0  0  0
  -28.8170  -21.0040   18.9344 C   0  0  0  0  0  0  0  0  0  0  0  0
  -27.1843  -22.6207   17.8261 C   0  0  0  0  0  0  0  0  0  0  0  0
  -15.5948  -19.8525   24.6132 C   0  0  0  0  0  0  0  0  0  0  0  0
  -19.7443  -25.9792   22.1386 C   0  0  0  0  0  0  0  0  0  0  0  0
  -15.7039  -21.1519   24.0822 C   0  0  0  0  0  0  0  0  0  0  0  0
  -20.5015  -26.2752   23.2811 C   0  0  0  0  0  0  0  0  0  0  0  0
  -23.3968  -31.0983   21.5247 C   0  0  0  0  0  0  0  0  0  0  0  0
  -25.4417  -29.5533   20.4228 C   0  0  0  0  0  0  0  0  0  0  0  0
  -29.7274  -18.4695   19.6625 C   0  0  0  0  0  0  0  0  0  0  0  0
  -20.1876  -28.6486   22.8590 C   0  0  0  0  0  0  0  0  0  0  0  0
  -29.2824  -16.1763   19.9191 C   0  0  0  0  0  0  0  0  0  0  0  0
  -27.4887  -14.0492   19.7175 C   0  0  0  0  0  0  0  0  0  0  0  0
  -28.9481  -15.4361   21.0531 C   0  0  0  0  0  0  0  0  0  0  0  0
  -24.1088  -29.2082   20.1990 C   0  0  0  0  0  0  0  0  0  0  0  0
  -24.7297  -31.4434   21.7485 C   0  0  0  0  0  0  0  0  0  0  0  0
  -28.3471  -22.3129   18.5576 C   0  0  0  0  0  0  0  0  0  0  0  0
  -27.1888  -23.9911   17.7350 C   0  0  0  0  0  0  0  0  0  0  0  0
  -26.1892  -21.7460   17.2782 C   0  0  0  0  0  0  0  0  0  0  0  0
  -18.4693  -23.5859   23.7970 C   0  0  0  0  0  0  0  0  0  0  0  0
  -21.5704  -22.7144   24.1794 C   0  0  0  0  0  0  0  0  0  0  0  0
  -24.8543  -23.6414   24.2369 C   0  0  0  0  0  0  0  0  0  0  0  0
  -27.8712  -29.0226   20.0201 C   0  0  0  0  0  0  0  0  0  0  0  0
  -16.3203  -19.4463   25.8716 C   0  0  0  0  0  0  0  0  0  0  0  0
  -19.5232  -24.5514   21.7202 C   0  0  0  0  0  0  0  0  0  0  0  0
  -21.0901  -25.1910   24.1451 C   0  0  0  0  0  0  0  0  0  0  0  0
  -17.4725  -20.3782   26.2381 C   0  0  0  0  0  0  0  0  0  0  0  0
  -30.7977  -27.3559   18.8646 C   0  0  0  0  0  0  0  0  0  0  0  0
  -17.0344  -21.8356   26.1336 C   0  0  0  0  0  0  0  0  0  0  0  0
  -30.3253  -25.9206   18.6215 C   0  0  0  0  0  0  0  0  0  0  0  0
  -30.1237  -27.9753   20.0876 C   0  0  0  0  0  0  0  0  0  0  0  0
  -28.1843  -26.4757   19.8442 C   0  0  0  0  0  0  0  0  0  0  0  0
  -16.6208  -22.1858   24.6991 C   0  0  1  0  0  0  0  0  0  0  0  0
  -19.6554  -23.5631   22.8748 C   0  0  1  0  0  0  0  0  0  0  0  0
  -28.7870  -25.8322   18.5847 C   0  0  2  0  0  0  0  0  0  0  0  0
  -27.3468  -23.3764   24.3590 C   0  0  0  0  0  0  0  0  0  0  0  0
  -21.0531  -22.6567   27.1859 C   0  0  0  0  0  0  0  0  0  0  0  0
  -23.5312  -22.6728   27.5422 C   0  0  0  0  0  0  0  0  0  0  0  0
  -22.4591  -20.7725   26.3329 C   0  0  0  0  0  0  0  0  0  0  0  0
  -25.0734  -23.2589   21.3104 C   0  0  0  0  0  0  0  0  0  0  0  0
  -22.2627  -31.9073   22.1016 C   0  0  0  0  0  0  0  0  0  0  0  0
  -22.0302  -31.6647   23.5945 C   0  0  0  0  0  0  0  0  0  0  0  0
  -21.6097  -30.2352   23.9156 C   0  0  0  0  0  0  0  0  0  1  0  0
  -22.6498  -23.0195   25.1897 C   0  0  1  0  0  0  0  0  0  0  0  0
  -26.0836  -23.0357   23.5838 C   0  0  2  0  0  0  0  0  0  0  0  0
  -22.4107  -22.3010   26.5477 C   0  0  0  0  0  0  0  0  0  0  0  0
  -29.0400  -23.4003   18.9061 N   0  0  0  0  0  0  0  0  0  0  0  0
  -28.3104  -24.4048   18.3914 N   0  0  0  0  0  0  0  0  0  0  0  0
  -20.8409  -23.8107   23.6978 N   0  0  0  0  0  0  0  0  0  0  0  0
  -28.6677  -27.8586   19.9810 N   0  0  0  0  0  0  0  0  0  0  0  0
  -26.3426  -24.8707   17.1580 N   0  0  0  0  0  0  0  0  0  0  0  0
  -26.3666  -21.2664   15.9732 N   0  0  0  0  0  0  0  0  0  0  0  0
  -26.5036  -28.7905   19.8767 N   0  0  0  0  0  0  0  0  0  0  0  0
  -17.7904  -22.3845   23.8702 N   0  0  0  0  0  0  0  0  0  0  0  0
  -23.9160  -22.6805   24.5492 N   0  0  0  0  0  0  0  0  0  0  0  0
  -26.2346  -23.5453   22.1915 N   0  3  0  0  0  0  0  0  0  0  0  0
  -25.1645  -21.4131   17.9206 O   0  0  0  0  0  0  0  0  0  0  0  0
  -18.1916  -24.6166   24.3988 O   0  0  0  0  0  0  0  0  0  0  0  0
  -21.3862  -21.5473   23.8250 O   0  0  0  0  0  0  0  0  0  0  0  0
  -24.7397  -24.8460   24.4522 O   0  0  0  0  0  0  0  0  0  0  0  0
  -28.3681  -30.1452   20.1423 O   0  0  0  0  0  0  0  0  0  0  0  0
  -30.1719  -17.2330   20.0178 O   0  0  0  0  0  0  0  0  0  0  0  0
  -20.4012  -29.9447   23.2146 O   0  0  0  0  0  0  0  0  0  1  0  0
  -26.6263  -13.0289   19.6208 F   0  0  0  0  0  0  0  0  0  0  0  0
  -29.4844  -15.7426   22.2423 F   0  0  0  0  0  0  0  0  0  0  0  0
  -23.6805  -27.8323   19.2463 Cl  0  0  0  0  0  0  0  0  0  0  0  0
  -25.1509  -32.8186   22.7030 Cl  0  0  0  0  0  0  0  0  0  0  0  0
  1  2  1  0  0  0  0
  1  5  2  0  0  0  0
  2  6  2  0  0  0  0
  3  8  2  0  0  0  0
  3 17  1  0  0  0  0
  4  9  1  0  0  0  0
  4 17  2  0  0  0  0
  5 19  1  0  0  0  0
  6 21  1  0  0  0  0
  7 10  2  0  0  0  0
  7 20  1  0  0  0  0
  8 25  1  0  0  0  0
  9 25  2  0  0  0  0
 10 26  1  0  0  0  0
 11 12  2  0  0  0  0
 11 27  1  0  0  0  0
 12 28  1  0  0  0  0
 13 22  1  0  0  0  0
 13 26  2  0  0  0  0
 14 23  1  0  0  0  0
 14 30  2  0  0  0  0
 15 24  2  0  0  0  0
 15 31  1  0  0  0  0
 16 28  2  0  0  0  0
 16 29  1  0  0  0  0
 17 32  1  0  0  0  0
 18 32  1  0  0  0  0
 18 33  2  0  0  0  0
 18 34  1  0  0  0  0
 19 21  2  0  0  0  0
 19 39  1  0  0  0  0
 20 22  2  0  0  0  0
 20 40  1  0  0  0  0
 21 48  1  0  0  0  0
 22 41  1  0  0  0  0
 23 31  2  0  0  0  0
 23 56  1  0  0  0  0
 24 30  1  0  0  0  0
 24 68  1  0  0  0  0
 25 77  1  0  0  0  0
 26 78  1  0  0  0  0
 27 29  2  0  0  0  0
 27 77  1  0  0  0  0
 28 79  1  0  0  0  0
 29 80  1  0  0  0  0
 30 81  1  0  0  0  0
 31 82  1  0  0  0  0
 32 62  2  0  0  0  0
 33 63  1  0  0  0  0
 33 66  1  0  0  0  0
 34 67  1  0  0  0  0
 34 72  2  0  0  0  0
 35 49  1  0  0  0  0
 35 69  1  0  0  0  0
 35 73  2  0  0  0  0
 36 59  1  0  0  0  0
 36 64  1  0  0  0  0
 36 74  2  0  0  0  0
 37 60  1  0  0  0  0
 37 70  1  0  0  0  0
 37 75  2  0  0  0  0
 38 65  1  0  0  0  0
 38 68  1  0  0  0  0
 38 76  2  0  0  0  0
 39 42  1  0  0  0  0
 40 49  1  0  0  0  0
 41 64  1  0  0  0  0
 42 44  1  0  0  0  0
 43 45  1  0  0  0  0
 43 46  1  0  0  0  0
 44 48  1  0  0  0  0
 45 50  1  0  0  0  0
 46 65  1  0  0  0  0
 47 50  1  0  0  0  0
 47 65  1  0  0  0  0
 48 69  1  0  0  0  0
 49 64  1  0  0  0  0
 50 63  1  0  0  0  0
 51 60  1  0  0  0  0
 52 61  1  0  0  0  0
 53 61  1  0  0  0  0
 54 61  1  0  0  0  0
 55 71  1  0  0  0  0
 56 57  1  0  0  0  0
 57 58  1  0  0  0  0
 58 78  1  0  0  0  0
 59 61  1  0  0  0  0
 59 70  1  0  0  0  0
 60 71  1  0  0  0  0
 62 63  1  0  0  0  0
M  CHG  1  71   1
M  ISO  4  38 100  58 101  68 100  78 101
M  END
> <Batch ID>
0030

> <Smiles>
CNC(C)C(=O)NC(C(=O)N1Cc2cc([101O:1][101CH2:1]CCc3cc(Cl)c([100NH:0][100C:0](=O)N4CCCC(n5nc(-c6ccc(Oc7ccc(F)cc7F)cc6)c(C(N)=O)c5N)C4)cc3Cl)ccc2CC1C(=O)NC1CCCc2ccccc21)C(C)(C)C

> <Shape>
0.214

> <Color>
0.061

> <Negative vol penalty>
0.000

$$$$

  -OEChem-04052316393D

 85 93  0     1  0  0  0  0  0999 V2000
  -28.0779  -28.8754   17.0329 C   0  0  0  0  0  0  0  0  0  0  0  0
  -27.7256  -27.5587   16.7592 C   0  0  0  0  0  0  0  0  0  0  0  0
  -28.8753  -20.0798   20.7425 C   0  0  0  0  0  0  0  0  0  0  0  0
  -30.8956  -20.3305   19.4415 C   0  0  0  0  0  0  0  0  0  0  0  0
  -27.6503  -29.4760   18.2151 C   0  0  0  0  0  0  0  0  0  0  0  0
  -26.9356  -26.8459   17.6619 C   0  0  0  0  0  0  0  0  0  0  0  0
  -25.1242  -21.0284   17.6064 C   0  0  0  0  0  0  0  0  0  0  0  0
  -28.4140  -21.3054   20.2624 C   0  0  0  0  0  0  0  0  0  0  0  0
  -30.4342  -21.5561   18.9613 C   0  0  0  0  0  0  0  0  0  0  0  0
  -25.5755  -19.8053   18.1005 C   0  0  0  0  0  0  0  0  0  0  0  0
  -30.2169  -24.7433   20.0683 C   0  0  0  0  0  0  0  0  0  0  0  0
  -31.1145  -25.8108   20.0482 C   0  0  0  0  0  0  0  0  0  0  0  0
  -24.1260  -20.0500   20.0131 C   0  0  0  0  0  0  0  0  0  0  0  0
  -24.0236  -13.3688   20.6597 C   0  0  0  0  0  0  0  0  0  0  0  0
  -26.4377  -13.3044   20.5884 C   0  0  0  0  0  0  0  0  0  0  0  0
  -30.8480  -25.9897   17.6536 C   0  0  0  0  0  0  0  0  0  0  0  0
  -30.1162  -19.5923   20.3321 C   0  0  0  0  0  0  0  0  0  0  0  0
  -30.8313  -17.9746   22.1704 C   0  0  0  0  0  0  0  0  0  0  0  0
  -26.8651  -28.7656   19.1380 C   0  0  0  0  0  0  0  0  0  0  0  0
  -24.1769  -21.7779   18.3186 C   0  0  0  0  0  0  0  0  0  0  0  0
  -26.4741  -27.4423   18.8493 C   0  0  0  0  0  0  0  0  0  0  0  0
  -23.6624  -21.2811   19.5246 C   0  0  0  0  0  0  0  0  0  0  0  0
  -23.9928  -11.9894   20.8638 C   0  0  0  0  0  0  0  0  0  0  0  0
  -26.4069  -11.9249   20.7926 C   0  0  0  0  0  0  0  0  0  0  0  0
  -29.1934  -22.0436   19.3717 C   0  0  0  0  0  0  0  0  0  0  0  0
  -25.0786  -19.3173   19.3054 C   0  0  0  0  0  0  0  0  0  0  0  0
  -29.6349  -24.2989   18.8810 C   0  0  0  0  0  0  0  0  0  0  0  0
  -25.2461  -14.0264   20.5219 C   0  0  0  0  0  0  0  0  0  0  0  0
  -31.4300  -26.4340   18.8408 C   0  0  0  0  0  0  0  0  0  0  0  0
  -29.9505  -24.9221   17.6737 C   0  0  0  0  0  0  0  0  0  0  0  0
  -25.1844  -11.2674   20.9303 C   0  0  0  0  0  0  0  0  0  0  0  0
  -30.5935  -18.3266   20.8283 C   0  0  0  0  0  0  0  0  0  0  0  0
  -31.2718  -16.6750   22.1117 C   0  0  0  0  0  0  0  0  0  0  0  0
  -30.6685  -18.7528   23.3635 C   0  0  0  0  0  0  0  0  0  0  0  0
  -24.1503  -24.6527   19.6746 C   0  0  0  0  0  0  0  0  0  0  0  0
  -21.0152  -23.9696   20.1511 C   0  0  0  0  0  0  0  0  0  0  0  0
  -18.5845  -21.5969   20.4804 C   0  0  0  0  0  0  0  0  0  0  0  0
  -30.4731  -12.2751   18.1299 C   0  0  0  0  0  0  0  0  0  0  0  0
  -26.4232  -29.4669   20.3982 C   0  0  0  0  0  0  0  0  0  0  0  0
  -23.6804  -23.0827   17.7587 C   0  0  0  0  0  0  0  0  0  0  0  0
  -22.6291  -22.0375   20.3174 C   0  0  0  0  0  0  0  0  0  0  0  0
  -25.9703  -28.5012   21.4884 C   0  0  0  0  0  0  0  0  0  0  0  0
  -33.5767  -13.6290   19.2306 C   0  0  0  0  0  0  0  0  0  0  0  0
  -24.9806  -27.4978   20.9155 C   0  0  0  0  0  0  0  0  0  0  0  0
  -33.1855  -14.9547   19.8859 C   0  0  0  0  0  0  0  0  0  0  0  0
  -32.7125  -13.3271   18.0083 C   0  0  0  0  0  0  0  0  0  0  0  0
  -30.8674  -14.6906   18.9085 C   0  0  0  0  0  0  0  0  0  0  0  0
  -25.6411  -26.6376   19.8307 C   0  0  1  0  0  0  0  0  0  0  0  0
  -23.0949  -24.0054   18.8232 C   0  0  1  0  0  0  0  0  0  0  0  0
  -31.6740  -15.0112   20.1785 C   0  0  2  0  0  0  0  0  0  0  0  0
  -22.6600  -11.3269   21.0062 C   0  0  0  0  0  0  0  0  0  0  0  0
  -16.1235  -21.3429   20.9003 C   0  0  0  0  0  0  0  0  0  0  0  0
  -21.4575  -24.5922   23.1052 C   0  0  0  0  0  0  0  0  0  0  0  0
  -19.2958  -23.4310   23.6019 C   0  0  0  0  0  0  0  0  0  0  0  0
  -19.3129  -25.4693   22.1639 C   0  0  0  0  0  0  0  0  0  0  0  0
  -18.1600  -20.2592   17.8747 C   0  0  0  0  0  0  0  0  0  0  0  0
  -27.7085  -11.1919   20.8570 C   0  0  0  0  0  0  0  0  0  0  0  0
  -28.0869  -10.4559   19.5583 C   0  0  0  0  0  0  0  0  0  0  0  0
  -28.1764  -11.3557   18.3276 C   0  0  0  0  0  0  0  0  0  0  0  0
  -25.9214  -17.1438   18.8351 C   0  0  0  0  0  0  0  0  0  1  0  0
  -26.3682  -15.8933   19.5674 C   0  0  0  0  0  0  0  0  0  0  0  0
  -20.2220  -23.2965   21.2449 C   0  0  1  0  0  0  0  0  0  0  0  0
  -17.2119  -21.4661   19.8453 C   0  0  2  0  0  0  0  0  0  0  0  0
  -20.0930  -24.1837   22.5152 C   0  0  0  0  0  0  0  0  0  0  0  0
  -30.8610  -17.3310   19.9789 N   0  0  0  0  0  0  0  0  0  0  0  0
  -31.2714  -16.3407   20.7894 N   0  0  0  0  0  0  0  0  0  0  0  0
  -22.1799  -23.3113   19.7316 N   0  0  0  0  0  0  0  0  0  0  0  0
  -31.2905  -13.3953   18.3536 N   0  0  0  0  0  0  0  0  0  0  0  0
  -31.6555  -15.7970   23.0626 N   0  0  0  0  0  0  0  0  0  0  0  0
  -31.7541  -19.5137   23.8183 N   0  0  0  0  0  0  0  0  0  0  0  0
  -24.6249  -25.8484   19.1701 N   0  0  0  0  0  0  0  0  0  0  0  0
  -18.9455  -22.9169   20.6490 N   0  0  0  0  0  0  0  0  0  0  0  0
  -29.1394  -12.4219   18.4911 N   0  0  0  0  0  0  0  0  0  0  0  0
  -17.1582  -20.2599   18.9717 N   0  3  0  0  0  0  0  0  0  0  0  0
  -29.5974  -18.7599   24.0165 O   0  0  0  0  0  0  0  0  0  0  0  0
  -24.5066  -24.1083   20.7130 O   0  0  0  0  0  0  0  0  0  0  0  0
  -20.6124  -25.0366   19.6810 O   0  0  0  0  0  0  0  0  0  0  0  0
  -19.2666  -20.6252   20.7986 O   0  0  0  0  0  0  0  0  0  0  0  0
  -30.9014  -11.2203   17.6493 O   0  0  0  0  0  0  0  0  0  0  0  0
  -28.7434  -23.2395   18.9028 O   0  0  0  0  0  0  0  0  0  0  0  0
  -25.5179  -18.1241   19.7903 O   0  0  0  0  0  0  0  0  0  1  0  0
  -25.2762  -15.3814   20.3215 O   0  0  0  0  0  0  0  0  0  0  0  0
  -32.2908  -27.4601   18.8219 F   0  0  0  0  0  0  0  0  0  0  0  0
  -29.3937  -24.5004   16.5301 F   0  0  0  0  0  0  0  0  0  0  0  0
  -25.1460   -9.5547   21.1836 Cl  0  0  0  0  0  0  0  0  0  0  0  0
  1  2  1  0  0  0  0
  1  5  2  0  0  0  0
  2  6  2  0  0  0  0
  3  8  2  0  0  0  0
  3 17  1  0  0  0  0
  4  9  1  0  0  0  0
  4 17  2  0  0  0  0
  5 19  1  0  0  0  0
  6 21  1  0  0  0  0
  7 10  2  0  0  0  0
  7 20  1  0  0  0  0
  8 25  1  0  0  0  0
  9 25  2  0  0  0  0
 10 26  1  0  0  0  0
 11 12  2  0  0  0  0
 11 27  1  0  0  0  0
 12 29  1  0  0  0  0
 13 22  1  0  0  0  0
 13 26  2  0  0  0  0
 14 23  2  0  0  0  0
 14 28  1  0  0  0  0
 15 24  1  0  0  0  0
 15 28  2  0  0  0  0
 16 29  2  0  0  0  0
 16 30  1  0  0  0  0
 17 32  1  0  0  0  0
 18 32  1  0  0  0  0
 18 33  2  0  0  0  0
 18 34  1  0  0  0  0
 19 21  2  0  0  0  0
 19 39  1  0  0  0  0
 20 22  2  0  0  0  0
 20 40  1  0  0  0  0
 21 48  1  0  0  0  0
 22 41  1  0  0  0  0
 23 31  1  0  0  0  0
 23 51  1  0  0  0  0
 24 31  2  0  0  0  0
 24 57  1  0  0  0  0
 25 80  1  0  0  0  0
 26 81  1  0  0  0  0
 27 30  2  0  0  0  0
 27 80  1  0  0  0  0
 28 82  1  0  0  0  0
 29 83  1  0  0  0  0
 30 84  1  0  0  0  0
 31 85  1  0  0  0  0
 32 65  2  0  0  0  0
 33 66  1  0  0  0  0
 33 69  1  0  0  0  0
 34 70  1  0  0  0  0
 34 75  2  0  0  0  0
 35 49  1  0  0  0  0
 35 71  1  0  0  0  0
 35 76  2  0  0  0  0
 36 62  1  0  0  0  0
 36 67  1  0  0  0  0
 36 77  2  0  0  0  0
 37 63  1  0  0  0  0
 37 72  1  0  0  0  0
 37 78  2  0  0  0  0
 38 68  1  0  0  0  0
 38 73  1  0  0  0  0
 38 79  2  0  0  0  0
 39 42  1  0  0  0  0
 40 49  1  0  0  0  0
 41 67  1  0  0  0  0
 42 44  1  0  0  0  0
 43 45  1  0  0  0  0
 43 46  1  0  0  0  0
 44 48  1  0  0  0  0
 45 50  1  0  0  0  0
 46 68  1  0  0  0  0
 47 50  1  0  0  0  0
 47 68  1  0  0  0  0
 48 71  1  0  0  0  0
 49 67  1  0  0  0  0
 50 66  1  0  0  0  0
 52 63  1  0  0  0  0
 53 64  1  0  0  0  0
 54 64  1  0  0  0  0
 55 64  1  0  0  0  0
 56 74  1  0  0  0  0
 57 58  1  0  0  0  0
 58 59  1  0  0  0  0
 59 73  1  0  0  0  0
 60 61  1  0  0  0  0
 60 81  1  0  0  0  0
 61 82  1  0  0  0  0
 62 64  1  0  0  0  0
 62 72  1  0  0  0  0
 63 74  1  0  0  0  0
 65 66  1  0  0  0  0
M  CHG  1  74   1
M  ISO  4  38 100  60 101  73 100  81 101
M  END
> <Batch ID>
0030

> <Smiles>
CNC(C)C(=O)NC(C(=O)N1Cc2cc([101O:1][101CH2:1]COc3cc(C)c(Cl)c(CCC[100NH:0][100C:0](=O)N4CCCC(n5nc(-c6ccc(Oc7ccc(F)cc7F)cc6)c(C(N)=O)c5N)C4)c3)ccc2CC1C(=O)NC1CCCc2ccccc21)C(C)(C)C

> <Shape>
0.219

> <Color>
0.088

> <Negative vol penalty>
0.000

$$$$

  -OEChem-04052316393D

 82 90  0     1  0  0  0  0  0999 V2000
  -26.4518  -25.8301   24.3271 C   0  0  0  0  0  0  0  0  0  0  0  0
  -25.1721  -25.4978   23.8943 C   0  0  0  0  0  0  0  0  0  0  0  0
  -25.7329  -28.4713   21.5710 C   0  0  0  0  0  0  0  0  0  0  0  0
  -25.0836  -27.9821   19.2959 C   0  0  0  0  0  0  0  0  0  0  0  0
  -27.5589  -25.1652   23.8015 C   0  0  0  0  0  0  0  0  0  0  0  0
  -24.9988  -24.5010   22.9347 C   0  0  0  0  0  0  0  0  0  0  0  0
  -20.3628  -20.5168   22.5610 C   0  0  0  0  0  0  0  0  0  0  0  0
  -26.9782  -27.8864   21.3414 C   0  0  0  0  0  0  0  0  0  0  0  0
  -26.3289  -27.3973   19.0662 C   0  0  0  0  0  0  0  0  0  0  0  0
  -19.2008  -20.4993   21.7907 C   0  0  0  0  0  0  0  0  0  0  0  0
  -29.4687  -26.0977   17.7735 C   0  0  0  0  0  0  0  0  0  0  0  0
  -30.1288  -26.4203   16.5879 C   0  0  0  0  0  0  0  0  0  0  0  0
  -20.3026  -19.0908   20.1717 C   0  0  0  0  0  0  0  0  0  0  0  0
  -17.9944  -22.5792   17.7151 C   0  0  0  0  0  0  0  0  0  0  0  0
  -15.6795  -23.6759   18.8200 C   0  0  0  0  0  0  0  0  0  0  0  0
  -30.1438  -28.7494   17.2300 C   0  0  0  0  0  0  0  0  0  0  0  0
  -24.7856  -28.5191   20.5483 C   0  0  0  0  0  0  0  0  0  0  0  0
  -23.1449  -30.4720   20.5957 C   0  0  0  0  0  0  0  0  0  0  0  0
  -27.3984  -24.1531   22.8421 C   0  0  0  0  0  0  0  0  0  0  0  0
  -21.5087  -19.8292   22.1363 C   0  0  0  0  0  0  0  0  0  0  0  0
  -26.1048  -23.8228   22.3948 C   0  0  0  0  0  0  0  0  0  0  0  0
  -21.4770  -19.0990   20.9397 C   0  0  0  0  0  0  0  0  0  0  0  0
  -16.9052  -21.7587   18.0082 C   0  0  0  0  0  0  0  0  0  0  0  0
  -16.7688  -24.4964   18.5270 C   0  0  0  0  0  0  0  0  0  0  0  0
  -27.2762  -27.3495   20.0890 C   0  0  0  0  0  0  0  0  0  0  0  0
  -19.1715  -19.7886   20.5944 C   0  0  0  0  0  0  0  0  0  0  0  0
  -29.1460  -27.1009   18.6874 C   0  0  0  0  0  0  0  0  0  0  0  0
  -30.4663  -27.7461   16.3161 C   0  0  0  0  0  0  0  0  0  0  0  0
  -29.4836  -28.4267   18.4157 C   0  0  0  0  0  0  0  0  0  0  0  0
  -15.7477  -22.3070   18.5607 C   0  0  0  0  0  0  0  0  0  0  0  0
  -17.9262  -23.9481   17.9745 C   0  0  0  0  0  0  0  0  0  0  0  0
  -23.4988  -29.1227   20.7850 C   0  0  0  0  0  0  0  0  0  0  0  0
  -21.8218  -30.5342   20.9591 C   0  0  0  0  0  0  0  0  0  0  0  0
  -23.9410  -31.5709   20.1327 C   0  0  0  0  0  0  0  0  0  0  0  0
  -24.4722  -20.6747   21.3572 C   0  0  0  0  0  0  0  0  0  0  0  0
  -24.9270  -17.4672   21.1907 C   0  0  0  0  0  0  0  0  0  0  0  0
  -23.5680  -14.3670   20.7564 C   0  0  0  0  0  0  0  0  0  0  0  0
  -17.4419  -26.4549   21.1215 C   0  0  0  0  0  0  0  0  0  0  0  0
  -28.6282  -23.4951   22.2684 C   0  0  0  0  0  0  0  0  0  0  0  0
  -22.7458  -19.8360   22.9919 C   0  0  0  0  0  0  0  0  0  0  0  0
  -22.6741  -18.3275   20.4494 C   0  0  0  0  0  0  0  0  0  0  0  0
  -28.3335  -22.1919   21.5301 C   0  0  0  0  0  0  0  0  0  0  0  0
  -18.6256  -28.4344   23.8340 C   0  0  0  0  0  0  0  0  0  0  0  0
  -27.1431  -22.3670   20.5925 C   0  0  0  0  0  0  0  0  0  0  0  0
  -19.9768  -28.9570   23.3431 C   0  0  0  0  0  0  0  0  0  0  0  0
  -18.3633  -27.0088   23.3532 C   0  0  0  0  0  0  0  0  0  0  0  0
  -19.8373  -27.3367   21.4055 C   0  0  0  0  0  0  0  0  0  0  0  0
  -25.8744  -22.7300   21.3737 C   0  0  1  0  0  0  0  0  0  0  0  0
  -24.0164  -19.5229   22.2077 C   0  0  1  0  0  0  0  0  0  0  0  0
  -20.1218  -28.7910   21.8184 C   0  0  2  0  0  0  0  0  0  0  0  0
  -24.1960  -11.9405   20.6337 C   0  0  0  0  0  0  0  0  0  0  0  0
  -26.0161  -17.8941   18.3726 C   0  0  0  0  0  0  0  0  0  0  0  0
  -25.7292  -15.4405   17.9652 C   0  0  0  0  0  0  0  0  0  0  0  0
  -27.2893  -16.2339   19.7427 C   0  0  0  0  0  0  0  0  0  0  0  0
  -21.8897  -13.6947   23.0995 C   0  0  0  0  0  0  0  0  0  0  0  0
  -17.0196  -20.2831   17.7119 C   0  0  0  0  0  0  0  0  0  0  0  0
  -16.6568  -25.9580   18.8202 C   0  0  0  0  0  0  0  0  0  0  0  0
  -18.2005  -19.6376   18.4287 C   0  0  0  0  0  0  0  0  0  1  0  0
  -24.7948  -16.4235   20.1081 C   0  0  1  0  0  0  0  0  0  0  0  0
  -23.7363  -13.0753   21.5358 C   0  0  2  0  0  0  0  0  0  0  0  0
  -25.9352  -16.5140   19.0551 C   0  0  0  0  0  0  0  0  0  0  0  0
  -22.4826  -28.3812   21.2340 N   0  0  0  0  0  0  0  0  0  0  0  0
  -21.4772  -29.2678   21.3298 N   0  0  0  0  0  0  0  0  0  0  0  0
  -23.8619  -18.3701   21.3182 N   0  0  0  0  0  0  0  0  0  0  0  0
  -18.5154  -26.9198   21.8990 N   0  0  0  0  0  0  0  0  0  0  0  0
  -20.9313  -31.5482   20.9945 N   0  0  0  0  0  0  0  0  0  0  0  0
  -25.2819  -31.3320   19.8022 N   0  0  0  0  0  0  0  0  0  0  0  0
  -25.3170  -21.5542   22.0070 N   0  0  0  0  0  0  0  0  0  0  0  0
  -24.7118  -15.1364   20.7899 N   0  0  0  0  0  0  0  0  0  0  0  0
  -17.6676  -26.4078   19.7513 N   0  0  0  0  0  0  0  0  0  0  0  0
  -22.4460  -12.6799   22.1680 N   0  3  0  0  0  0  0  0  0  0  0  0
  -23.4815  -32.7337   20.0312 O   0  0  0  0  0  0  0  0  0  0  0  0
  -24.0872  -20.7584   20.1969 O   0  0  0  0  0  0  0  0  0  0  0  0
  -25.9349  -17.4765   21.9019 O   0  0  0  0  0  0  0  0  0  0  0  0
  -22.5274  -14.6622   20.1729 O   0  0  0  0  0  0  0  0  0  0  0  0
  -16.3604  -26.1127   21.6117 O   0  0  0  0  0  0  0  0  0  0  0  0
  -28.4914  -26.7789   19.8645 O   0  0  0  0  0  0  0  0  0  0  0  0
  -18.0389  -19.7704   19.8403 O   0  0  0  0  0  0  0  0  0  1  0  0
  -31.1016  -28.0556   15.1782 F   0  0  0  0  0  0  0  0  0  0  0  0
  -29.1774  -29.3947   19.2904 F   0  0  0  0  0  0  0  0  0  0  0  0
  -14.3802  -21.3227   18.9349 Cl  0  0  0  0  0  0  0  0  0  0  0  0
  -19.2936  -24.9324   17.5989 Cl  0  0  0  0  0  0  0  0  0  0  0  0
  1  2  1  0  0  0  0
  1  5  2  0  0  0  0
  2  6  2  0  0  0  0
  3  8  2  0  0  0  0
  3 17  1  0  0  0  0
  4  9  1  0  0  0  0
  4 17  2  0  0  0  0
  5 19  1  0  0  0  0
  6 21  1  0  0  0  0
  7 10  2  0  0  0  0
  7 20  1  0  0  0  0
  8 25  1  0  0  0  0
  9 25  2  0  0  0  0
 10 26  1  0  0  0  0
 11 12  2  0  0  0  0
 11 27  1  0  0  0  0
 12 28  1  0  0  0  0
 13 22  1  0  0  0  0
 13 26  2  0  0  0  0
 14 23  1  0  0  0  0
 14 31  2  0  0  0  0
 15 24  2  0  0  0  0
 15 30  1  0  0  0  0
 16 28  2  0  0  0  0
 16 29  1  0  0  0  0
 17 32  1  0  0  0  0
 18 32  1  0  0  0  0
 18 33  2  0  0  0  0
 18 34  1  0  0  0  0
 19 21  2  0  0  0  0
 19 39  1  0  0  0  0
 20 22  2  0  0  0  0
 20 40  1  0  0  0  0
 21 48  1  0  0  0  0
 22 41  1  0  0  0  0
 23 30  2  0  0  0  0
 23 56  1  0  0  0  0
 24 31  1  0  0  0  0
 24 57  1  0  0  0  0
 25 77  1  0  0  0  0
 26 78  1  0  0  0  0
 27 29  2  0  0  0  0
 27 77  1  0  0  0  0
 28 79  1  0  0  0  0
 29 80  1  0  0  0  0
 30 81  1  0  0  0  0
 31 82  1  0  0  0  0
 32 62  2  0  0  0  0
 33 63  1  0  0  0  0
 33 66  1  0  0  0  0
 34 67  1  0  0  0  0
 34 72  2  0  0  0  0
 35 49  1  0  0  0  0
 35 68  1  0  0  0  0
 35 73  2  0  0  0  0
 36 59  1  0  0  0  0
 36 64  1  0  0  0  0
 36 74  2  0  0  0  0
 37 60  1  0  0  0  0
 37 69  1  0  0  0  0
 37 75  2  0  0  0  0
 38 65  1  0  0  0  0
 38 70  1  0  0  0  0
 38 76  2  0  0  0  0
 39 42  1  0  0  0  0
 40 49  1  0  0  0  0
 41 64  1  0  0  0  0
 42 44  1  0  0  0  0
 43 45  1  0  0  0  0
 43 46  1  0  0  0  0
 44 48  1  0  0  0  0
 45 50  1  0  0  0  0
 46 65  1  0  0  0  0
 47 50  1  0  0  0  0
 47 65  1  0  0  0  0
 48 68  1  0  0  0  0
 49 64  1  0  0  0  0
 50 63  1  0  0  0  0
 51 60  1  0  0  0  0
 52 61  1  0  0  0  0
 53 61  1  0  0  0  0
 54 61  1  0  0  0  0
 55 71  1  0  0  0  0
 56 58  1  0  0  0  0
 57 70  1  0  0  0  0
 58 78  1  0  0  0  0
 59 61  1  0  0  0  0
 59 69  1  0  0  0  0
 60 71  1  0  0  0  0
 62 63  1  0  0  0  0
M  CHG  1  71   1
M  ISO  4  38 100  58 101  70 100  78 101
M  END
> <Batch ID>
0030

> <Smiles>
CNC(C)C(=O)NC(C(=O)N1Cc2cc([101O:1][101CH2:1]Cc3cc(Cl)c(C[100NH:0][100C:0](=O)N4CCCC(n5nc(-c6ccc(Oc7ccc(F)cc7F)cc6)c(C(N)=O)c5N)C4)cc3Cl)ccc2CC1C(=O)NC1CCCc2ccccc21)C(C)(C)C

> <Shape>
0.162

> <Color>
0.100

> <Negative vol penalty>
0.000

$$$$

  -OEChem-04052316393D

 86 94  0     1  0  0  0  0  0999 V2000
  -17.4045  -25.9859   25.2802 C   0  0  0  0  0  0  0  0  0  0  0  0
  -17.9110  -24.8309   24.6931 C   0  0  0  0  0  0  0  0  0  0  0  0
  -26.4477  -12.5550   21.0555 C   0  0  0  0  0  0  0  0  0  0  0  0
  -24.6363  -14.0257   20.4284 C   0  0  0  0  0  0  0  0  0  0  0  0
  -17.7459  -27.2358   24.7651 C   0  0  0  0  0  0  0  0  0  0  0  0
  -18.7585  -24.9250   23.5897 C   0  0  0  0  0  0  0  0  0  0  0  0
  -24.3479  -21.6364   20.5468 C   0  0  0  0  0  0  0  0  0  0  0  0
  -25.5357  -11.5202   21.2627 C   0  0  0  0  0  0  0  0  0  0  0  0
  -23.7243  -12.9908   20.6356 C   0  0  0  0  0  0  0  0  0  0  0  0
  -24.7503  -21.1086   19.3207 C   0  0  0  0  0  0  0  0  0  0  0  0
  -23.8002   -9.3146   19.3769 C   0  0  0  0  0  0  0  0  0  0  0  0
  -24.1193   -8.0571   18.8647 C   0  0  0  0  0  0  0  0  0  0  0  0
  -25.3347  -23.3239   18.5656 C   0  0  0  0  0  0  0  0  0  0  0  0
  -29.1062  -20.8149   17.1960 C   0  0  0  0  0  0  0  0  0  0  0  0
  -24.0410   -7.1291   21.0940 C   0  0  0  0  0  0  0  0  0  0  0  0
  -25.9979  -13.8079   20.6384 C   0  0  0  0  0  0  0  0  0  0  0  0
  -27.6099  -15.1933   19.2278 C   0  0  0  0  0  0  0  0  0  0  0  0
  -18.6057  -27.3456   23.6609 C   0  0  0  0  0  0  0  0  0  0  0  0
  -24.4259  -23.0156   20.7880 C   0  0  0  0  0  0  0  0  0  0  0  0
  -19.1107  -26.1775   23.0586 C   0  0  0  0  0  0  0  0  0  0  0  0
  -24.9351  -23.8664   19.7965 C   0  0  0  0  0  0  0  0  0  0  0  0
  -28.2998  -20.8588   16.0588 C   0  0  0  0  0  0  0  0  0  0  0  0
  -30.2072  -21.6646   17.3037 C   0  0  0  0  0  0  0  0  0  0  0  0
  -28.5944  -21.7524   15.0291 C   0  0  0  0  0  0  0  0  0  0  0  0
  -29.6953  -22.6022   15.1366 C   0  0  0  0  0  0  0  0  0  0  0  0
  -24.1741  -11.7380   21.0528 C   0  0  0  0  0  0  0  0  0  0  0  0
  -25.2410  -21.9527   18.3288 C   0  0  0  0  0  0  0  0  0  0  0  0
  -23.6015   -9.4794   20.7478 C   0  0  0  0  0  0  0  0  0  0  0  0
  -24.2397   -6.9643   19.7232 C   0  0  0  0  0  0  0  0  0  0  0  0
  -23.7219   -8.3866   21.6063 C   0  0  0  0  0  0  0  0  0  0  0  0
  -30.5017  -22.5582   16.2739 C   0  0  0  0  0  0  0  0  0  0  0  0
  -26.9394  -14.8775   20.4247 C   0  0  0  0  0  0  0  0  0  0  0  0
  -28.3837  -16.2829   19.5450 C   0  0  0  0  0  0  0  0  0  0  0  0
  -27.5396  -14.5586   17.9441 C   0  0  0  0  0  0  0  0  0  0  0  0
  -22.3160  -25.3011   21.4428 C   0  0  0  0  0  0  0  0  0  0  0  0
  -24.9802  -27.1133   21.8175 C   0  0  0  0  0  0  0  0  0  0  0  0
  -28.2761  -27.6058   21.0820 C   0  0  0  0  0  0  0  0  0  0  0  0
  -29.0189  -21.2488   22.0112 C   0  0  0  0  0  0  0  0  0  0  0  0
  -18.9085  -28.7166   23.1102 C   0  0  0  0  0  0  0  0  0  0  0  0
  -24.0129  -23.5660   22.1255 C   0  0  0  0  0  0  0  0  0  0  0  0
  -25.0581  -25.3519   20.0128 C   0  0  0  0  0  0  0  0  0  0  0  0
  -20.1112  -28.7436   22.1705 C   0  0  0  0  0  0  0  0  0  0  0  0
  -29.4763  -18.3517   24.0297 C   0  0  0  0  0  0  0  0  0  0  0  0
  -20.0297  -27.5986   21.1660 C   0  0  0  0  0  0  0  0  0  0  0  0
  -28.9069  -17.2173   23.1759 C   0  0  0  0  0  0  0  0  0  0  0  0
  -28.6742  -19.6405   23.8635 C   0  0  0  0  0  0  0  0  0  0  0  0
  -27.9349  -18.9543   21.6149 C   0  0  0  0  0  0  0  0  0  0  0  0
  -20.0526  -26.2394   21.8757 C   0  0  1  0  0  0  0  0  0  0  0  0
  -23.6545  -25.0481   22.0768 C   0  0  1  0  0  0  0  0  0  0  0  0
  -28.7441  -17.6493   21.7061 C   0  0  2  0  0  0  0  0  0  0  0  0
  -27.7254  -21.7966   13.8118 C   0  0  0  0  0  0  0  0  0  0  0  0
  -30.6497  -22.8613   12.8326 C   0  0  0  0  0  0  0  0  0  0  0  0
  -30.5537  -28.6542   21.1864 C   0  0  0  0  0  0  0  0  0  0  0  0
  -23.7635  -29.0886   19.8356 C   0  0  0  0  0  0  0  0  0  0  0  0
  -26.0315  -30.1164   19.5745 C   0  0  0  0  0  0  0  0  0  0  0  0
  -24.8995  -30.1450   21.7972 C   0  0  0  0  0  0  0  0  0  0  0  0
  -29.0977  -25.8732   23.3363 C   0  0  0  0  0  0  0  0  0  0  0  0
  -27.1147  -19.9285   15.9674 C   0  0  0  0  0  0  0  0  0  0  0  0
  -31.0430  -21.5822   18.5407 C   0  0  0  0  0  0  0  0  0  0  0  0
  -29.9945  -23.5553   14.0209 C   0  0  0  0  0  0  0  0  0  0  0  0
  -30.7586  -22.6887   19.5732 C   0  0  0  0  0  0  0  0  0  0  0  0
  -29.3098  -22.7451   20.0528 C   0  0  0  0  0  0  0  0  0  0  0  0
  -26.1455  -20.1081   17.1308 C   0  0  0  0  0  0  0  0  0  1  0  0
  -25.8282  -27.9684   20.9072 C   0  0  1  0  0  0  0  0  0  0  0  0
  -29.4681  -27.9278   21.9652 C   0  0  2  0  0  0  0  0  0  0  0  0
  -25.1267  -29.3019   20.5236 C   0  0  0  0  0  0  0  0  0  0  0  0
  -27.2593  -15.6998   21.4274 N   0  0  0  0  0  0  0  0  0  0  0  0
  -28.1394  -16.5431   20.8613 N   0  0  0  0  0  0  0  0  0  0  0  0
  -24.6355  -25.8428   21.3349 N   0  0  0  0  0  0  0  0  0  0  0  0
  -28.5580  -19.9955   22.4471 N   0  0  0  0  0  0  0  0  0  0  0  0
  -29.2424  -17.0342   18.8235 N   0  0  0  0  0  0  0  0  0  0  0  0
  -26.6942  -13.4512   17.7918 N   0  0  0  0  0  0  0  0  0  0  0  0
  -21.4003  -25.9047   22.2833 N   0  0  0  0  0  0  0  0  0  0  0  0
  -27.1087  -28.1404   21.5847 N   0  0  0  0  0  0  0  0  0  0  0  0
  -28.8770  -21.5026   20.6525 N   0  0  0  0  0  0  0  0  0  0  0  0
  -30.0500  -26.6759   22.5266 N   0  3  0  0  0  0  0  0  0  0  0  0
  -28.2190  -14.9515   16.9656 O   0  0  0  0  0  0  0  0  0  0  0  0
  -22.1284  -24.9742   20.2767 O   0  0  0  0  0  0  0  0  0  0  0  0
  -24.6422  -27.5535   22.9191 O   0  0  0  0  0  0  0  0  0  0  0  0
  -28.3717  -26.9492   20.0475 O   0  0  0  0  0  0  0  0  0  0  0  0
  -29.5245  -22.0778   22.7754 O   0  0  0  0  0  0  0  0  0  0  0  0
  -23.2839  -10.7283   21.2547 O   0  0  0  0  0  0  0  0  0  0  0  0
  -25.6338  -21.4402   17.1309 O   0  0  0  0  0  0  0  0  0  1  0  0
  -24.5446   -5.7565   19.2310 F   0  0  0  0  0  0  0  0  0  0  0  0
  -23.5310   -8.5386   22.9240 F   0  0  0  0  0  0  0  0  0  0  0  0
  -31.8704  -23.6114   16.4107 Cl  0  0  0  0  0  0  0  0  0  0  0  0
  1  2  1  0  0  0  0
  1  5  2  0  0  0  0
  2  6  2  0  0  0  0
  3  8  2  0  0  0  0
  3 16  1  0  0  0  0
  4  9  1  0  0  0  0
  4 16  2  0  0  0  0
  5 18  1  0  0  0  0
  6 20  1  0  0  0  0
  7 10  2  0  0  0  0
  7 19  1  0  0  0  0
  8 26  1  0  0  0  0
  9 26  2  0  0  0  0
 10 27  1  0  0  0  0
 11 12  2  0  0  0  0
 11 28  1  0  0  0  0
 12 29  1  0  0  0  0
 13 21  1  0  0  0  0
 13 27  2  0  0  0  0
 14 22  1  0  0  0  0
 14 23  2  0  0  0  0
 15 29  2  0  0  0  0
 15 30  1  0  0  0  0
 16 32  1  0  0  0  0
 17 32  1  0  0  0  0
 17 33  2  0  0  0  0
 17 34  1  0  0  0  0
 18 20  2  0  0  0  0
 18 39  1  0  0  0  0
 19 21  2  0  0  0  0
 19 40  1  0  0  0  0
 20 48  1  0  0  0  0
 21 41  1  0  0  0  0
 22 24  2  0  0  0  0
 22 58  1  0  0  0  0
 23 31  1  0  0  0  0
 23 59  1  0  0  0  0
 24 25  1  0  0  0  0
 24 51  1  0  0  0  0
 25 31  2  0  0  0  0
 25 60  1  0  0  0  0
 26 82  1  0  0  0  0
 27 83  1  0  0  0  0
 28 30  2  0  0  0  0
 28 82  1  0  0  0  0
 29 84  1  0  0  0  0
 30 85  1  0  0  0  0
 31 86  1  0  0  0  0
 32 67  2  0  0  0  0
 33 68  1  0  0  0  0
 33 71  1  0  0  0  0
 34 72  1  0  0  0  0
 34 77  2  0  0  0  0
 35 49  1  0  0  0  0
 35 73  1  0  0  0  0
 35 78  2  0  0  0  0
 36 64  1  0  0  0  0
 36 69  1  0  0  0  0
 36 79  2  0  0  0  0
 37 65  1  0  0  0  0
 37 74  1  0  0  0  0
 37 80  2  0  0  0  0
 38 70  1  0  0  0  0
 38 75  1  0  0  0  0
 38 81  2  0  0  0  0
 39 42  1  0  0  0  0
 40 49  1  0  0  0  0
 41 69  1  0  0  0  0
 42 44  1  0  0  0  0
 43 45  1  0  0  0  0
 43 46  1  0  0  0  0
 44 48  1  0  0  0  0
 45 50  1  0  0  0  0
 46 70  1  0  0  0  0
 47 50  1  0  0  0  0
 47 70  1  0  0  0  0
 48 73  1  0  0  0  0
 49 69  1  0  0  0  0
 50 68  1  0  0  0  0
 52 60  1  0  0  0  0
 53 65  1  0  0  0  0
 54 66  1  0  0  0  0
 55 66  1  0  0  0  0
 56 66  1  0  0  0  0
 57 76  1  0  0  0  0
 58 63  1  0  0  0  0
 59 61  1  0  0  0  0
 61 62  1  0  0  0  0
 62 75  1  0  0  0  0
 63 83  1  0  0  0  0
 64 66  1  0  0  0  0
 64 74  1  0  0  0  0
 65 76  1  0  0  0  0
 67 68  1  0  0  0  0
M  CHG  1  76   1
M  ISO  4  38 100  63 101  75 100  83 101
M  END
> <Batch ID>
0030

> <Smiles>
CCc1c(C)c(C[101CH2:1][101O:1]c2ccc3c(c2)CN(C(=O)C(NC(=O)C(C)NC)C(C)(C)C)C(C(=O)NC2CCCc4ccccc42)C3)cc(CCC[100NH:0][100C:0](=O)N2CCCC(n3nc(-c4ccc(Oc5ccc(F)cc5F)cc4)c(C(N)=O)c3N)C2)c1Cl

> <Shape>
0.213

> <Color>
0.058

> <Negative vol penalty>
0.000

$$$$

  -OEChem-04052316393D

 88 97  0     1  0  0  0  0  0999 V2000
  -32.3476  -14.5199   20.6862 C   0  0  0  0  0  0  0  0  0  0  0  0
  -31.4631  -15.5811   20.8503 C   0  0  0  0  0  0  0  0  0  0  0  0
  -28.1307  -25.4198   18.1467 C   0  0  0  0  0  0  0  0  0  0  0  0
  -26.3331  -24.6087   19.5424 C   0  0  0  0  0  0  0  0  0  0  0  0
  -31.8834  -13.2942   20.2107 C   0  0  0  0  0  0  0  0  0  0  0  0
  -30.1140  -15.4175   20.5380 C   0  0  0  0  0  0  0  0  0  0  0  0
  -25.3385  -17.9879   23.3830 C   0  0  0  0  0  0  0  0  0  0  0  0
  -28.8295  -24.2309   18.3557 C   0  0  0  0  0  0  0  0  0  0  0  0
  -27.0319  -23.4197   19.7513 C   0  0  0  0  0  0  0  0  0  0  0  0
  -24.5614  -19.1068   23.0868 C   0  0  0  0  0  0  0  0  0  0  0  0
  -27.6192  -20.5489   18.0678 C   0  0  0  0  0  0  0  0  0  0  0  0
  -26.9067  -19.3540   17.9673 C   0  0  0  0  0  0  0  0  0  0  0  0
  -22.9295  -17.6841   22.0228 C   0  0  0  0  0  0  0  0  0  0  0  0
  -27.4658  -18.8280   20.2581 C   0  0  0  0  0  0  0  0  0  0  0  0
  -26.8825  -25.6088   18.7401 C   0  0  0  0  0  0  0  0  0  0  0  0
  -25.7221  -27.3611   17.2943 C   0  0  0  0  0  0  0  0  0  0  0  0
  -30.5262  -13.1126   19.9015 C   0  0  0  0  0  0  0  0  0  0  0  0
  -24.9216  -16.7077   22.9912 C   0  0  0  0  0  0  0  0  0  0  0  0
  -29.6314  -14.1887   20.0566 C   0  0  0  0  0  0  0  0  0  0  0  0
  -23.7019  -16.5503   22.3176 C   0  0  0  0  0  0  0  0  0  0  0  0
  -20.2317  -24.6018   22.2632 C   0  0  0  0  0  0  0  0  0  0  0  0
  -19.2749  -25.6219   22.1890 C   0  0  0  0  0  0  0  0  0  0  0  0
  -28.2800  -23.2308   19.1579 C   0  0  0  0  0  0  0  0  0  0  0  0
  -23.3580  -18.9554   22.4040 C   0  0  0  0  0  0  0  0  0  0  0  0
  -28.2551  -20.8833   19.2634 C   0  0  0  0  0  0  0  0  0  0  0  0
  -26.8299  -18.4936   19.0625 C   0  0  0  0  0  0  0  0  0  0  0  0
  -28.1784  -20.0229   20.3586 C   0  0  0  0  0  0  0  0  0  0  0  0
  -17.9302  -25.3431   22.3979 C   0  0  0  0  0  0  0  0  0  0  0  0
  -26.1605  -26.8370   18.5251 C   0  0  0  0  0  0  0  0  0  0  0  0
  -19.7759  -23.3116   22.5534 C   0  0  0  0  0  0  0  0  0  0  0  0
  -17.5807  -24.0369   22.6792 C   0  0  0  0  0  0  0  0  0  0  0  0
  -25.0927  -28.5360   17.6260 C   0  0  0  0  0  0  0  0  0  0  0  0
  -25.8706  -26.8332   15.9695 C   0  0  0  0  0  0  0  0  0  0  0  0
  -26.0895  -14.4570   21.0743 C   0  0  0  0  0  0  0  0  0  0  0  0
  -23.6012  -12.7279   22.2323 C   0  0  0  0  0  0  0  0  0  0  0  0
  -20.4998  -12.7094   23.6562 C   0  0  0  0  0  0  0  0  0  0  0  0
  -22.4338  -30.4648   22.6321 C   0  0  0  0  0  0  0  0  0  0  0  0
  -30.0797  -11.7836   19.3457 C   0  0  0  0  0  0  0  0  0  0  0  0
  -25.7584  -15.5080   23.3419 C   0  0  0  0  0  0  0  0  0  0  0  0
  -23.1996  -15.1954   21.8927 C   0  0  0  0  0  0  0  0  0  0  0  0
  -20.7302  -22.1592   22.7248 C   0  0  0  0  0  0  0  0  0  0  0  0
  -28.5675  -11.5805   19.3931 C   0  0  0  0  0  0  0  0  0  0  0  0
  -25.1417  -32.0114   20.9139 C   0  0  0  0  0  0  0  0  0  0  0  0
  -27.8458  -12.8217   18.8781 C   0  0  0  0  0  0  0  0  0  0  0  0
  -25.6703  -30.9079   19.9958 C   0  0  0  0  0  0  0  0  0  0  0  0
  -22.6189  -23.7906   22.5131 C   0  0  0  0  0  0  0  0  0  0  0  0
  -24.6741  -31.4529   22.2561 C   0  0  0  0  0  0  0  0  0  0  0  0
  -24.2223  -29.2516   21.2443 C   0  0  0  0  0  0  0  0  0  0  0  0
  -21.6908  -24.9090   22.0071 C   0  0  1  0  0  0  0  0  0  0  0  0
  -28.1562  -14.0428   19.7522 C   0  0  1  0  0  0  0  0  0  0  0  0
  -25.4865  -14.3062   22.4423 C   0  0  1  0  0  0  0  0  0  0  0  0
  -22.1114  -22.4026   22.1048 C   0  0  1  0  0  0  0  0  0  0  0  0
  -24.6538  -29.7586   19.8575 C   0  0  2  0  0  0  0  0  0  0  0  0
  -16.1569  -23.6505   22.9179 C   0  0  0  0  0  0  0  0  0  0  0  0
  -21.9284  -25.1922   20.5182 C   0  0  0  0  0  0  0  0  0  0  0  0
  -18.7062  -11.1444   24.4506 C   0  0  0  0  0  0  0  0  0  0  0  0
  -22.7859  -12.1982   19.3402 C   0  0  0  0  0  0  0  0  0  0  0  0
  -20.5398  -11.4769   20.1787 C   0  0  0  0  0  0  0  0  0  0  0  0
  -22.5853  -10.2217   20.8593 C   0  0  0  0  0  0  0  0  0  0  0  0
  -20.6891  -13.7164   26.4327 C   0  0  0  0  0  0  0  0  0  0  0  0
  -19.6944  -27.0362   21.9173 C   0  0  0  0  0  0  0  0  0  0  0  0
  -23.0936  -21.3151   22.5370 C   0  0  0  0  0  0  0  0  0  1  0  0
  -19.7520  -27.9273   23.1694 C   0  0  0  0  0  0  0  0  0  0  0  0
  -20.2321  -29.3533   22.9081 C   0  0  0  0  0  0  0  0  0  0  0  0
  -22.1626  -12.5197   21.8249 C   0  0  1  0  0  0  0  0  0  0  0  0
  -19.9399  -11.9432   24.8410 C   0  0  2  0  0  0  0  0  0  0  0  0
  -22.0285  -11.6300   20.5569 C   0  0  0  0  0  0  0  0  0  0  0  0
  -25.8371  -27.6151   19.5614 N   0  0  0  0  0  0  0  0  0  0  0  0
  -18.4663  -23.0211   22.7662 N   0  0  0  0  0  0  0  0  0  0  0  0
  -25.1889  -28.6402   18.9825 N   0  0  0  0  0  0  0  0  0  0  0  0
  -24.0566  -14.0538   22.2531 N   0  0  0  0  0  0  0  0  0  0  0  0
  -23.7107  -30.3679   22.0547 N   0  0  0  0  0  0  0  0  0  0  0  0
  -24.4720  -29.4797   16.8868 N   0  0  0  0  0  0  0  0  0  0  0  0
  -24.8737  -25.9817   15.4741 N   0  0  0  0  0  0  0  0  0  0  0  0
  -27.3883  -13.9953   20.9780 N   0  0  0  0  0  0  0  0  0  0  0  0
  -21.4778  -11.9922   23.0002 N   0  0  0  0  0  0  0  0  0  0  0  0
  -21.5802  -29.3962   22.3869 N   0  0  0  0  0  0  0  0  0  0  0  0
  -19.5644  -12.8831   25.9350 N   0  3  0  0  0  0  0  0  0  0  0  0
  -26.8661  -27.0952   15.2528 O   0  0  0  0  0  0  0  0  0  0  0  0
  -25.4251  -14.9541   20.1726 O   0  0  0  0  0  0  0  0  0  0  0  0
  -24.2934  -11.7507   22.5283 O   0  0  0  0  0  0  0  0  0  0  0  0
  -20.1060  -13.8304   23.3416 O   0  0  0  0  0  0  0  0  0  0  0  0
  -22.0790  -31.4343   23.3111 O   0  0  0  0  0  0  0  0  0  0  0  0
  -28.9615  -22.0703   19.3618 O   0  0  0  0  0  0  0  0  0  0  0  0
  -22.5979  -20.0459   22.1130 O   0  0  0  0  0  0  0  0  0  1  0  0
  -26.1443  -17.3469   18.9663 F   0  0  0  0  0  0  0  0  0  0  0  0
  -28.7862  -20.3393   21.5102 F   0  0  0  0  0  0  0  0  0  0  0  0
  -16.7324  -26.5841   22.3142 Cl  0  0  0  0  0  0  0  0  0  0  0  0
  1  2  1  0  0  0  0
  1  5  2  0  0  0  0
  2  6  2  0  0  0  0
  3  8  2  0  0  0  0
  3 15  1  0  0  0  0
  4  9  1  0  0  0  0
  4 15  2  0  0  0  0
  5 17  1  0  0  0  0
  6 19  1  0  0  0  0
  7 10  2  0  0  0  0
  7 18  1  0  0  0  0
  8 23  1  0  0  0  0
  9 23  2  0  0  0  0
 10 24  1  0  0  0  0
 11 12  2  0  0  0  0
 11 25  1  0  0  0  0
 12 26  1  0  0  0  0
 13 20  1  0  0  0  0
 13 24  2  0  0  0  0
 14 26  2  0  0  0  0
 14 27  1  0  0  0  0
 15 29  1  0  0  0  0
 16 29  1  0  0  0  0
 16 32  2  0  0  0  0
 16 33  1  0  0  0  0
 17 19  2  0  0  0  0
 17 38  1  0  0  0  0
 18 20  2  0  0  0  0
 18 39  1  0  0  0  0
 19 50  1  0  0  0  0
 20 40  1  0  0  0  0
 21 22  1  0  0  0  0
 21 30  2  0  0  0  0
 21 49  1  0  0  0  0
 22 28  2  0  0  0  0
 22 61  1  0  0  0  0
 23 84  1  0  0  0  0
 24 85  1  0  0  0  0
 25 27  2  0  0  0  0
 25 84  1  0  0  0  0
 26 86  1  0  0  0  0
 27 87  1  0  0  0  0
 28 31  1  0  0  0  0
 28 88  1  0  0  0  0
 29 68  2  0  0  0  0
 30 41  1  0  0  0  0
 30 69  1  0  0  0  0
 31 54  1  0  0  0  0
 31 69  2  0  0  0  0
 32 70  1  0  0  0  0
 32 73  1  0  0  0  0
 33 74  1  0  0  0  0
 33 79  2  0  0  0  0
 34 51  1  0  0  0  0
 34 75  1  0  0  0  0
 34 80  2  0  0  0  0
 35 65  1  0  0  0  0
 35 71  1  0  0  0  0
 35 81  2  0  0  0  0
 36 66  1  0  0  0  0
 36 76  1  0  0  0  0
 36 82  2  0  0  0  0
 37 72  1  0  0  0  0
 37 77  1  0  0  0  0
 37 83  2  0  0  0  0
 38 42  1  0  0  0  0
 39 51  1  0  0  0  0
 40 71  1  0  0  0  0
 41 52  1  0  0  0  0
 42 44  1  0  0  0  0
 43 45  1  0  0  0  0
 43 47  1  0  0  0  0
 44 50  1  0  0  0  0
 45 53  1  0  0  0  0
 46 49  1  0  0  0  0
 46 52  1  0  0  0  0
 47 72  1  0  0  0  0
 48 53  1  0  0  0  0
 48 72  1  0  0  0  0
 49 55  1  0  0  0  0
 50 75  1  0  0  0  0
 51 71  1  0  0  0  0
 52 62  1  0  0  0  0
 53 70  1  0  0  0  0
 56 66  1  0  0  0  0
 57 67  1  0  0  0  0
 58 67  1  0  0  0  0
 59 67  1  0  0  0  0
 60 78  1  0  0  0  0
 61 63  1  0  0  0  0
 62 85  1  0  0  0  0
 63 64  1  0  0  0  0
 64 77  1  0  0  0  0
 65 67  1  0  0  0  0
 65 76  1  0  0  0  0
 66 78  1  0  0  0  0
 68 70  1  0  0  0  0
M  CHG  1  78   1
M  ISO  4  37 100  62 101  77 100  85 101
M  END
> <Batch ID>
0030

> <Smiles>
CNC(C)C(=O)NC(C(=O)N1Cc2cc([101O:1][101CH2:1]C3Cc4nc(C)c(Cl)c(CCC[100NH:0][100C:0](=O)N5CCCC(n6nc(-c7ccc(Oc8ccc(F)cc8F)cc7)c(C(N)=O)c6N)C5)c4C(C)C3)ccc2CC1C(=O)NC1CCCc2ccccc21)C(C)(C)C

> <Shape>
0.246

> <Color>
0.081

> <Negative vol penalty>
0.000

$$$$

  -OEChem-04052316393D

 84 92  0     1  0  0  0  0  0999 V2000
  -18.6940  -27.3276   23.4900 C   0  0  0  0  0  0  0  0  0  0  0  0
  -19.0789  -26.1992   22.7731 C   0  0  0  0  0  0  0  0  0  0  0  0
  -29.3040  -18.2535   24.1597 C   0  0  0  0  0  0  0  0  0  0  0  0
  -31.2280  -18.7178   22.7741 C   0  0  0  0  0  0  0  0  0  0  0  0
  -19.3450  -28.5422   23.2784 C   0  0  0  0  0  0  0  0  0  0  0  0
  -20.1145  -26.2851   21.8432 C   0  0  0  0  0  0  0  0  0  0  0  0
  -23.3707  -22.4231   22.1997 C   0  0  0  0  0  0  0  0  0  0  0  0
  -29.9656  -18.7972   25.2607 C   0  0  0  0  0  0  0  0  0  0  0  0
  -31.8896  -19.2616   23.8751 C   0  0  0  0  0  0  0  0  0  0  0  0
  -22.9798  -21.2070   21.6412 C   0  0  0  0  0  0  0  0  0  0  0  0
  -33.9489  -21.1004   26.2408 C   0  0  0  0  0  0  0  0  0  0  0  0
  -34.6254  -22.3068   26.0609 C   0  0  0  0  0  0  0  0  0  0  0  0
  -24.3230  -21.6766   19.6933 C   0  0  0  0  0  0  0  0  0  0  0  0
  -23.1319  -13.7385   22.4440 C   0  0  0  0  0  0  0  0  0  0  0  0
  -24.8665  -11.8179   21.4026 C   0  0  0  0  0  0  0  0  0  0  0  0
  -32.5532  -23.3739   25.4247 C   0  0  0  0  0  0  0  0  0  0  0  0
  -29.9352  -18.2136   22.9164 C   0  0  0  0  0  0  0  0  0  0  0  0
  -28.4283  -18.3302   20.8614 C   0  0  0  0  0  0  0  0  0  0  0  0
  -20.3955  -28.6407   22.3524 C   0  0  0  0  0  0  0  0  0  0  0  0
  -24.2336  -23.2815   21.5033 C   0  0  0  0  0  0  0  0  0  0  0  0
  -20.7793  -27.5024   21.6180 C   0  0  0  0  0  0  0  0  0  0  0  0
  -24.7254  -22.9019   20.2462 C   0  0  0  0  0  0  0  0  0  0  0  0
  -23.5833  -12.6952   23.2521 C   0  0  0  0  0  0  0  0  0  0  0  0
  -24.4150  -12.8613   20.5944 C   0  0  0  0  0  0  0  0  0  0  0  0
  -31.2584  -19.3014   25.1184 C   0  0  0  0  0  0  0  0  0  0  0  0
  -23.4536  -20.8349   20.3866 C   0  0  0  0  0  0  0  0  0  0  0  0
  -32.5746  -21.0306   26.0126 C   0  0  0  0  0  0  0  0  0  0  0  0
  -23.5476  -13.8216   21.1151 C   0  0  0  0  0  0  0  0  0  0  0  0
  -33.9276  -23.4436   25.6529 C   0  0  0  0  0  0  0  0  0  0  0  0
  -31.8767  -22.1674   25.6046 C   0  0  0  0  0  0  0  0  0  0  0  0
  -24.4507  -11.7348   22.7315 C   0  0  0  0  0  0  0  0  0  0  0  0
  -29.2525  -17.6515   21.7789 C   0  0  0  0  0  0  0  0  0  0  0  0
  -28.0267  -17.3591   19.9769 C   0  0  0  0  0  0  0  0  0  0  0  0
  -28.0587  -19.7146   20.8129 C   0  0  0  0  0  0  0  0  0  0  0  0
  -24.0091  -26.2343   20.3481 C   0  0  0  0  0  0  0  0  0  0  0  0
  -27.1581  -25.8023   19.7003 C   0  0  0  0  0  0  0  0  0  0  0  0
  -29.7234  -23.6299   19.1114 C   0  0  0  0  0  0  0  0  0  0  0  0
  -26.1145  -12.4361   18.8275 C   0  0  0  0  0  0  0  0  0  0  0  0
  -21.0378  -29.9861   22.1237 C   0  0  0  0  0  0  0  0  0  0  0  0
  -24.6671  -24.5778   22.1311 C   0  0  0  0  0  0  0  0  0  0  0  0
  -25.6699  -23.7785   19.4665 C   0  0  0  0  0  0  0  0  0  0  0  0
  -22.3749  -29.9061   21.3916 C   0  0  0  0  0  0  0  0  0  0  0  0
  -29.6298  -12.6137   19.3320 C   0  0  0  0  0  0  0  0  0  0  0  0
  -22.2687  -28.9777   20.1859 C   0  0  0  0  0  0  0  0  0  0  0  0
  -29.7774  -14.0022   19.9532 C   0  0  0  0  0  0  0  0  0  0  0  0
  -28.3849  -11.8875   19.8428 C   0  0  0  0  0  0  0  0  0  0  0  0
  -27.2793  -14.0514   20.3111 C   0  0  0  0  0  0  0  0  0  0  0  0
  -21.9146  -27.5498   20.6186 C   0  0  1  0  0  0  0  0  0  0  0  0
  -25.1421  -25.6069   21.1099 C   0  0  1  0  0  0  0  0  0  0  0  0
  -28.4912  -14.8276   19.7725 C   0  0  1  0  0  0  0  0  0  0  0  0
  -23.1135  -12.6407   24.6700 C   0  0  0  0  0  0  0  0  0  0  0  0
  -32.0792  -22.8612   18.7154 C   0  0  0  0  0  0  0  0  0  0  0  0
  -26.5440  -26.5860   16.8161 C   0  0  0  0  0  0  0  0  0  0  0  0
  -28.7535  -25.6121   16.1544 C   0  0  0  0  0  0  0  0  0  0  0  0
  -28.6657  -27.5452   17.7286 C   0  0  0  0  0  0  0  0  0  0  0  0
  -23.8752  -13.3065   18.1927 C   0  0  0  0  0  0  0  0  0  0  0  0
  -30.2516  -23.3768   22.0124 C   0  0  0  0  0  0  0  0  0  0  0  0
  -23.0746  -17.2473   20.0742 C   0  0  0  0  0  0  0  0  0  0  0  0
  -22.7783  -18.5821   20.7399 C   0  0  0  0  0  0  0  0  0  1  0  0
  -22.7956  -16.0749   21.0014 C   0  0  0  0  0  0  0  0  0  0  0  0
  -27.9445  -25.2590   18.5318 C   0  0  1  0  0  0  0  0  0  0  0  0
  -31.1287  -23.5527   19.6803 C   0  0  2  0  0  0  0  0  0  0  0  0
  -27.9576  -26.2347   17.3213 C   0  0  0  0  0  0  0  0  0  0  0  0
  -29.3686  -16.3498   21.5029 N   0  0  0  0  0  0  0  0  0  0  0  0
  -28.6118  -16.2028   20.4021 N   0  0  0  0  0  0  0  0  0  0  0  0
  -26.0595  -25.0389   20.1199 N   0  0  0  0  0  0  0  0  0  0  0  0
  -27.1901  -12.7291   19.6871 N   0  0  0  0  0  0  0  0  0  0  0  0
  -27.2337  -17.3900   18.8849 N   0  0  0  0  0  0  0  0  0  0  0  0
  -28.5603  -20.5750   21.7990 N   0  0  0  0  0  0  0  0  0  0  0  0
  -23.0824  -26.8774   21.1463 N   0  0  0  0  0  0  0  0  0  0  0  0
  -29.2686  -24.9301   19.0485 N   0  0  0  0  0  0  0  0  0  0  0  0
  -24.8530  -12.9328   19.2203 N   0  0  0  0  0  0  0  0  0  0  0  0
  -31.1272  -22.7942   20.9632 N   0  3  0  0  0  0  0  0  0  0  0  0
  -27.2927  -20.1719   19.9310 O   0  0  0  0  0  0  0  0  0  0  0  0
  -23.9788  -26.1430   19.1264 O   0  0  0  0  0  0  0  0  0  0  0  0
  -27.5101  -26.8612   20.2261 O   0  0  0  0  0  0  0  0  0  0  0  0
  -29.0937  -22.6366   18.7547 O   0  0  0  0  0  0  0  0  0  0  0  0
  -26.2731  -11.8025   17.7771 O   0  0  0  0  0  0  0  0  0  0  0  0
  -31.9042  -19.8323   26.1924 O   0  0  0  0  0  0  0  0  0  0  0  0
  -23.0730  -19.6487   19.8389 O   0  0  0  0  0  0  0  0  0  1  0  0
  -23.0912  -14.8537   20.3373 O   0  0  0  0  0  0  0  0  0  0  0  0
  -34.5771  -24.6025   25.4817 F   0  0  0  0  0  0  0  0  0  0  0  0
  -30.5562  -22.1068   25.3850 F   0  0  0  0  0  0  0  0  0  0  0  0
  -25.0288  -10.4293   23.7014 Cl  0  0  0  0  0  0  0  0  0  0  0  0
  1  2  1  0  0  0  0
  1  5  2  0  0  0  0
  2  6  2  0  0  0  0
  3  8  2  0  0  0  0
  3 17  1  0  0  0  0
  4  9  1  0  0  0  0
  4 17  2  0  0  0  0
  5 19  1  0  0  0  0
  6 21  1  0  0  0  0
  7 10  2  0  0  0  0
  7 20  1  0  0  0  0
  8 25  1  0  0  0  0
  9 25  2  0  0  0  0
 10 26  1  0  0  0  0
 11 12  2  0  0  0  0
 11 27  1  0  0  0  0
 12 29  1  0  0  0  0
 13 22  1  0  0  0  0
 13 26  2  0  0  0  0
 14 23  2  0  0  0  0
 14 28  1  0  0  0  0
 15 24  1  0  0  0  0
 15 31  2  0  0  0  0
 16 29  2  0  0  0  0
 16 30  1  0  0  0  0
 17 32  1  0  0  0  0
 18 32  1  0  0  0  0
 18 33  2  0  0  0  0
 18 34  1  0  0  0  0
 19 21  2  0  0  0  0
 19 39  1  0  0  0  0
 20 22  2  0  0  0  0
 20 40  1  0  0  0  0
 21 48  1  0  0  0  0
 22 41  1  0  0  0  0
 23 31  1  0  0  0  0
 23 51  1  0  0  0  0
 24 28  2  0  0  0  0
 24 72  1  0  0  0  0
 25 79  1  0  0  0  0
 26 80  1  0  0  0  0
 27 30  2  0  0  0  0
 27 79  1  0  0  0  0
 28 81  1  0  0  0  0
 29 82  1  0  0  0  0
 30 83  1  0  0  0  0
 31 84  1  0  0  0  0
 32 64  2  0  0  0  0
 33 65  1  0  0  0  0
 33 68  1  0  0  0  0
 34 69  1  0  0  0  0
 34 74  2  0  0  0  0
 35 49  1  0  0  0  0
 35 70  1  0  0  0  0
 35 75  2  0  0  0  0
 36 61  1  0  0  0  0
 36 66  1  0  0  0  0
 36 76  2  0  0  0  0
 37 62  1  0  0  0  0
 37 71  1  0  0  0  0
 37 77  2  0  0  0  0
 38 67  1  0  0  0  0
 38 72  1  0  0  0  0
 38 78  2  0  0  0  0
 39 42  1  0  0  0  0
 40 49  1  0  0  0  0
 41 66  1  0  0  0  0
 42 44  1  0  0  0  0
 43 45  1  0  0  0  0
 43 46  1  0  0  0  0
 44 48  1  0  0  0  0
 45 50  1  0  0  0  0
 46 67  1  0  0  0  0
 47 50  1  0  0  0  0
 47 67  1  0  0  0  0
 48 70  1  0  0  0  0
 49 66  1  0  0  0  0
 50 65  1  0  0  0  0
 52 62  1  0  0  0  0
 53 63  1  0  0  0  0
 54 63  1  0  0  0  0
 55 63  1  0  0  0  0
 56 72  1  0  0  0  0
 57 73  1  0  0  0  0
 58 59  1  0  0  0  0
 58 60  1  0  0  0  0
 59 80  1  0  0  0  0
 60 81  1  0  0  0  0
 61 63  1  0  0  0  0
 61 71  1  0  0  0  0
 62 73  1  0  0  0  0
 64 65  1  0  0  0  0
M  CHG  1  73   1
M  ISO  4  38 100  59 101  72 100  80 101
M  END
> <Batch ID>
0030

> <Smiles>
CNC(C)C(=O)NC(C(=O)N1Cc2cc([101O:1][101CH2:1]CCOc3cc(C)c(Cl)cc3[100N:0](C)[100C:0](=O)N3CCCC(n4nc(-c5ccc(Oc6ccc(F)cc6F)cc5)c(C(N)=O)c4N)C3)ccc2CC1C(=O)NC1CCCc2ccccc21)C(C)(C)C

> <Shape>
0.210

> <Color>
0.062

> <Negative vol penalty>
0.000

$$$$

  -OEChem-04052316393D

 88 97  0     1  0  0  0  0  0999 V2000
  -36.1825  -30.6508   25.1351 C   0  0  0  0  0  0  0  0  0  0  0  0
  -35.1299  -30.0580   24.4451 C   0  0  0  0  0  0  0  0  0  0  0  0
  -23.3585   -9.6109   19.9768 C   0  0  0  0  0  0  0  0  0  0  0  0
  -23.8512   -9.9102   22.3230 C   0  0  0  0  0  0  0  0  0  0  0  0
  -35.9603  -31.2197   26.3885 C   0  0  0  0  0  0  0  0  0  0  0  0
  -33.8547  -30.0329   25.0085 C   0  0  0  0  0  0  0  0  0  0  0  0
  -30.2394  -31.2815   21.6895 C   0  0  0  0  0  0  0  0  0  0  0  0
  -22.6991   -8.4167   20.2676 C   0  0  0  0  0  0  0  0  0  0  0  0
  -23.1918   -8.7160   22.6139 C   0  0  0  0  0  0  0  0  0  0  0  0
  -29.8475  -30.3031   20.7768 C   0  0  0  0  0  0  0  0  0  0  0  0
  -20.0022   -7.6543   22.9603 C   0  0  0  0  0  0  0  0  0  0  0  0
  -19.1249   -7.6476   24.0446 C   0  0  0  0  0  0  0  0  0  0  0  0
  -27.9152  -29.8171   22.1367 C   0  0  0  0  0  0  0  0  0  0  0  0
  -20.4463   -5.9241   25.1032 C   0  0  0  0  0  0  0  0  0  0  0  0
  -23.9346  -10.3577   21.0045 C   0  0  0  0  0  0  0  0  0  0  0  0
  -24.0569  -12.8820   20.6576 C   0  0  0  0  0  0  0  0  0  0  0  0
  -34.6796  -31.2101   26.9633 C   0  0  0  0  0  0  0  0  0  0  0  0
  -29.4766  -31.5279   22.8401 C   0  0  0  0  0  0  0  0  0  0  0  0
  -33.6154  -30.6011   26.2714 C   0  0  0  0  0  0  0  0  0  0  0  0
  -28.2982  -30.8009   23.0611 C   0  0  0  0  0  0  0  0  0  0  0  0
  -22.6157   -7.9692   21.5862 C   0  0  0  0  0  0  0  0  0  0  0  0
  -28.6868  -29.5688   21.0018 C   0  0  0  0  0  0  0  0  0  0  0  0
  -21.1016   -6.7957   22.9473 C   0  0  0  0  0  0  0  0  0  0  0  0
  -19.3469   -6.7826   25.1161 C   0  0  0  0  0  0  0  0  0  0  0  0
  -21.3236   -5.9307   24.0187 C   0  0  0  0  0  0  0  0  0  0  0  0
  -24.6164  -11.5911   20.7046 C   0  0  0  0  0  0  0  0  0  0  0  0
  -25.1104  -13.7012   20.3327 C   0  0  0  0  0  0  0  0  0  0  0  0
  -22.7057  -13.3030   20.8873 C   0  0  0  0  0  0  0  0  0  0  0  0
  -30.0038  -31.3202   25.9679 C   0  0  0  0  0  0  0  0  0  0  0  0
  -27.0613  -32.6721   26.1590 C   0  0  0  0  0  0  0  0  0  0  0  0
  -24.0346  -33.2438   24.6897 C   0  0  0  0  0  0  0  0  0  0  0  0
  -30.4225  -15.2855   20.9781 C   0  0  0  0  0  0  0  0  0  0  0  0
  -34.4981  -31.7958   28.3413 C   0  0  0  0  0  0  0  0  0  0  0  0
  -29.8986  -32.6052   23.8013 C   0  0  0  0  0  0  0  0  0  0  0  0
  -27.4333  -31.0409   24.2706 C   0  0  0  0  0  0  0  0  0  0  0  0
  -33.0388  -32.0592   28.7037 C   0  0  0  0  0  0  0  0  0  0  0  0
  -29.7826  -12.5844   18.7486 C   0  0  0  0  0  0  0  0  0  0  0  0
  -32.1740  -30.8546   28.3460 C   0  0  0  0  0  0  0  0  0  0  0  0
  -28.6104  -25.7439   20.3710 C   0  0  0  0  0  0  0  0  0  0  0  0
  -29.9291  -25.8001   18.2114 C   0  0  0  0  0  0  0  0  0  0  0  0
  -30.7998  -19.7502   20.9787 C   0  0  0  0  0  0  0  0  0  0  0  0
  -28.3382  -12.1880   19.0593 C   0  0  0  0  0  0  0  0  0  0  0  0
  -28.2074  -24.2970   20.0869 C   0  0  0  0  0  0  0  0  0  0  0  0
  -29.5258  -24.3531   17.9280 C   0  0  0  0  0  0  0  0  0  0  0  0
  -30.4948  -20.8097   19.9200 C   0  0  0  0  0  0  0  0  0  0  0  0
  -30.5347  -13.0090   20.0080 C   0  0  0  0  0  0  0  0  0  0  0  0
  -28.4302  -13.6698   21.1073 C   0  0  0  0  0  0  0  0  0  0  0  0
  -32.2126  -30.5760   26.8385 C   0  0  1  0  0  0  0  0  0  0  0  0
  -29.3210  -32.4170   25.2008 C   0  0  1  0  0  0  0  0  0  0  0  0
  -28.8845  -26.5212   19.0754 C   0  0  0  0  0  0  0  0  0  0  0  0
  -29.8629  -18.5393   20.8655 C   0  0  2  0  0  0  0  0  0  0  0  0
  -28.0519  -20.0356   19.8317 C   0  0  2  0  0  0  0  0  0  0  0  0
  -27.6149  -13.2874   19.8602 C   0  0  2  0  0  0  0  0  0  0  0  0
  -29.2575  -23.5987   19.2272 C   0  0  0  0  0  0  0  0  0  0  0  0
  -29.0245  -21.2241   19.9660 C   0  0  2  0  0  0  0  0  0  0  0  0
  -28.3917  -18.9787   20.8968 C   0  0  2  0  0  0  0  0  0  0  0  0
  -28.0141  -19.4082   18.4334 C   0  0  0  0  0  0  0  0  0  0  0  0
  -21.8200  -34.3483   25.1059 C   0  0  0  0  0  0  0  0  0  0  0  0
  -26.2588  -30.3674   27.9904 C   0  0  0  0  0  0  0  0  0  0  0  0
  -23.8637  -30.9842   27.6015 C   0  0  0  0  0  0  0  0  0  0  0  0
  -25.4058  -32.6089   28.6994 C   0  0  0  0  0  0  0  0  0  0  0  0
  -24.3888  -35.0808   22.3964 C   0  0  0  0  0  0  0  0  0  0  0  0
  -30.1529  -17.5382   21.9842 C   0  0  0  0  0  0  0  0  0  0  0  0
  -29.3356  -27.9468   19.3880 C   0  0  0  0  0  0  0  0  0  1  0  0
  -25.6467  -32.1491   26.2250 C   0  0  1  0  0  0  0  0  0  0  0  0
  -23.2171  -34.5126   24.5278 C   0  0  2  0  0  0  0  0  0  0  0  0
  -25.3109  -31.5213   27.6072 C   0  0  0  0  0  0  0  0  0  0  0  0
  -25.9238  -11.5855   20.4313 N   0  0  0  0  0  0  0  0  0  0  0  0
  -26.1946  -12.8830   20.2093 N   0  0  0  0  0  0  0  0  0  0  0  0
  -27.8914  -32.1005   25.1843 N   0  0  0  0  0  0  0  0  0  0  0  0
  -29.7966  -14.0548   20.7204 N   0  0  0  0  0  0  0  0  0  0  0  0
  -25.2058  -15.0344   20.1433 N   0  0  0  0  0  0  0  0  0  0  0  0
  -21.7491  -12.3314   21.2114 N   0  0  0  0  0  0  0  0  0  0  0  0
  -31.3630  -31.5091   26.1302 N   0  0  0  0  0  0  0  0  0  0  0  0
  -24.7820  -33.2621   25.8482 N   0  0  0  0  0  0  0  0  0  0  0  0
  -29.6504  -16.2235   21.6524 N   0  0  0  0  0  0  0  0  0  0  0  0
  -28.7781  -22.2299   18.8989 N   0  3  0  0  0  0  0  0  0  0  0  0
  -23.0904  -34.8668   23.0858 N   0  3  0  0  0  0  0  0  0  0  0  0
  -22.3537  -14.5032   20.7913 O   0  0  0  0  0  0  0  0  0  0  0  0
  -29.3459  -30.3734   26.3831 O   0  0  0  0  0  0  0  0  0  0  0  0
  -27.4146  -33.5603   26.9387 O   0  0  0  0  0  0  0  0  0  0  0  0
  -24.0096  -32.3265   23.8721 O   0  0  0  0  0  0  0  0  0  0  0  0
  -31.5817  -15.5322   20.6282 O   0  0  0  0  0  0  0  0  0  0  0  0
  -21.9721   -6.8041   21.8703 O   0  0  0  0  0  0  0  0  0  0  0  0
  -28.3024  -28.6128   20.1129 O   0  0  0  0  0  0  0  0  0  1  0  0
  -18.5052   -6.7774   26.1580 F   0  0  0  0  0  0  0  0  0  0  0  0
  -22.3787   -5.1045   24.0125 F   0  0  0  0  0  0  0  0  0  0  0  0
  -28.1361  -19.5301   22.1212 F   0  0  0  0  0  0  0  0  0  0  0  0
  1  2  1  0  0  0  0
  1  5  2  0  0  0  0
  2  6  2  0  0  0  0
  3  8  2  0  0  0  0
  3 15  1  0  0  0  0
  4  9  1  0  0  0  0
  4 15  2  0  0  0  0
  5 17  1  0  0  0  0
  6 19  1  0  0  0  0
  7 10  2  0  0  0  0
  7 18  1  0  0  0  0
  8 21  1  0  0  0  0
  9 21  2  0  0  0  0
 10 22  1  0  0  0  0
 11 12  2  0  0  0  0
 11 23  1  0  0  0  0
 12 24  1  0  0  0  0
 13 20  1  0  0  0  0
 13 22  2  0  0  0  0
 14 24  2  0  0  0  0
 14 25  1  0  0  0  0
 15 26  1  0  0  0  0
 16 26  1  0  0  0  0
 16 27  2  0  0  0  0
 16 28  1  0  0  0  0
 17 19  2  0  0  0  0
 17 33  1  0  0  0  0
 18 20  2  0  0  0  0
 18 34  1  0  0  0  0
 19 48  1  0  0  0  0
 20 35  1  0  0  0  0
 21 84  1  0  0  0  0
 22 85  1  0  0  0  0
 23 25  2  0  0  0  0
 23 84  1  0  0  0  0
 24 86  1  0  0  0  0
 25 87  1  0  0  0  0
 26 68  2  0  0  0  0
 27 69  1  0  0  0  0
 27 72  1  0  0  0  0
 28 73  1  0  0  0  0
 28 79  2  0  0  0  0
 29 49  1  0  0  0  0
 29 74  1  0  0  0  0
 29 80  2  0  0  0  0
 30 65  1  0  0  0  0
 30 70  1  0  0  0  0
 30 81  2  0  0  0  0
 31 66  1  0  0  0  0
 31 75  1  0  0  0  0
 31 82  2  0  0  0  0
 32 71  1  0  0  0  0
 32 76  1  0  0  0  0
 32 83  2  0  0  0  0
 33 36  1  0  0  0  0
 34 49  1  0  0  0  0
 35 70  1  0  0  0  0
 36 38  1  0  0  0  0
 37 42  1  0  0  0  0
 37 46  1  0  0  0  0
 38 48  1  0  0  0  0
 39 43  1  0  0  0  0
 39 50  1  0  0  0  0
 40 44  1  0  0  0  0
 40 50  1  0  0  0  0
 41 45  1  0  0  0  0
 41 51  1  0  0  0  0
 42 53  1  0  0  0  0
 43 54  1  0  0  0  0
 44 54  1  0  0  0  0
 45 55  1  0  0  0  0
 46 71  1  0  0  0  0
 47 53  1  0  0  0  0
 47 71  1  0  0  0  0
 48 74  1  0  0  0  0
 49 70  1  0  0  0  0
 50 64  1  0  0  0  0
 51 56  1  0  0  0  0
 51 63  1  0  0  0  0
 52 55  1  0  0  0  0
 52 56  1  0  0  0  0
 52 57  1  0  0  0  0
 53 69  1  0  0  0  0
 54 77  1  0  0  0  0
 55 77  1  0  0  0  0
 56 88  1  0  0  0  0
 58 66  1  0  0  0  0
 59 67  1  0  0  0  0
 60 67  1  0  0  0  0
 61 67  1  0  0  0  0
 62 78  1  0  0  0  0
 63 76  1  0  0  0  0
 64 85  1  0  0  0  0
 65 67  1  0  0  0  0
 65 75  1  0  0  0  0
 66 78  1  0  0  0  0
 68 69  1  0  0  0  0
M  CHG  2  77   1  78   1
M  ISO  4  32 100  64 101  76 100  85 101
M  END
> <Batch ID>
0030

> <Smiles>
CNC(C)C(=O)NC(C(=O)N1Cc2cc([101O:1][101CH2:1]C3CCC(NC4CCC(C[100NH:0][100C:0](=O)N5CCCC(n6nc(-c7ccc(Oc8ccc(F)cc8F)cc7)c(C(N)=O)c6N)C5)C(F)C4C)CC3)ccc2CC1C(=O)NC1CCCc2ccccc21)C(C)(C)C

> <Shape>
0.330

> <Color>
0.180

> <Negative vol penalty>
0.000

$$$$

  -OEChem-04052316393D

 88 97  0     1  0  0  0  0  0999 V2000
  -24.5767  -14.6866   25.1017 C   0  0  0  0  0  0  0  0  0  0  0  0
  -25.9048  -15.0966   25.1611 C   0  0  0  0  0  0  0  0  0  0  0  0
  -22.9275   -9.9770   19.9873 C   0  0  0  0  0  0  0  0  0  0  0  0
  -23.7129   -9.9442   22.2719 C   0  0  0  0  0  0  0  0  0  0  0  0
  -23.5960  -15.5676   24.6479 C   0  0  0  0  0  0  0  0  0  0  0  0
  -26.2531  -16.3876   24.7657 C   0  0  0  0  0  0  0  0  0  0  0  0
  -30.9072  -21.6220   26.2679 C   0  0  0  0  0  0  0  0  0  0  0  0
  -22.1434   -8.8515   20.2407 C   0  0  0  0  0  0  0  0  0  0  0  0
  -22.9288   -8.8187   22.5253 C   0  0  0  0  0  0  0  0  0  0  0  0
  -31.8333  -22.4530   25.6390 C   0  0  0  0  0  0  0  0  0  0  0  0
  -23.0876   -5.4909   21.9500 C   0  0  0  0  0  0  0  0  0  0  0  0
  -23.6719   -4.4396   22.6564 C   0  0  0  0  0  0  0  0  0  0  0  0
  -30.0432  -23.9145   24.9473 C   0  0  0  0  0  0  0  0  0  0  0  0
  -21.9977   -4.6691   24.3830 C   0  0  0  0  0  0  0  0  0  0  0  0
  -23.7123  -10.5233   21.0029 C   0  0  0  0  0  0  0  0  0  0  0  0
  -24.1480  -13.0343   20.8901 C   0  0  0  0  0  0  0  0  0  0  0  0
  -23.9310  -16.8732   24.2559 C   0  0  0  0  0  0  0  0  0  0  0  0
  -29.5387  -21.9257   26.2318 C   0  0  0  0  0  0  0  0  0  0  0  0
  -25.2761  -17.2865   24.3050 C   0  0  0  0  0  0  0  0  0  0  0  0
  -29.1020  -23.0871   25.5786 C   0  0  0  0  0  0  0  0  0  0  0  0
  -31.4454  -22.4159   19.4475 C   0  0  0  0  0  0  0  0  0  0  0  0
  -22.1440   -8.2724   21.5097 C   0  0  0  0  0  0  0  0  0  0  0  0
  -31.4011  -23.5979   24.9761 C   0  0  0  0  0  0  0  0  0  0  0  0
  -21.9583   -6.1313   22.4602 C   0  0  0  0  0  0  0  0  0  0  0  0
  -23.1270   -4.0287   23.8728 C   0  0  0  0  0  0  0  0  0  0  0  0
  -21.4133   -5.7204   23.6766 C   0  0  0  0  0  0  0  0  0  0  0  0
  -24.5229  -11.6855   20.7416 C   0  0  0  0  0  0  0  0  0  0  0  0
  -32.1613  -23.5076   19.8353 C   0  0  0  0  0  0  0  0  0  0  0  0
  -31.7124  -21.4502   20.4127 C   0  0  0  0  0  0  0  0  0  0  0  0
  -25.2635  -13.7437   20.5176 C   0  0  0  0  0  0  0  0  0  0  0  0
  -22.9027  -13.5957   21.3258 C   0  0  0  0  0  0  0  0  0  0  0  0
  -26.9522  -20.4895   25.0695 C   0  0  0  0  0  0  0  0  0  0  0  0
  -25.4087  -22.9228   26.5592 C   0  0  0  0  0  0  0  0  0  0  0  0
  -25.5264  -26.0994   27.8011 C   0  0  0  0  0  0  0  0  0  0  0  0
  -30.7836  -14.5541   20.6477 C   0  0  0  0  0  0  0  0  0  0  0  0
  -22.8430  -17.7743   23.7277 C   0  0  0  0  0  0  0  0  0  0  0  0
  -28.5551  -21.0333   26.9379 C   0  0  0  0  0  0  0  0  0  0  0  0
  -30.6932  -22.6720   18.2091 C   0  0  0  0  0  0  0  0  0  0  0  0
  -27.6458  -23.4686   25.5282 C   0  0  0  0  0  0  0  0  0  0  0  0
  -23.2410  -19.2473   23.6815 C   0  0  0  0  0  0  0  0  0  0  0  0
  -31.3521  -24.0150   17.7091 C   0  0  0  0  0  0  0  0  0  0  0  0
  -29.5299  -12.2258   18.2636 C   0  0  0  0  0  0  0  0  0  0  0  0
  -24.6282  -19.4065   23.0674 C   0  0  0  0  0  0  0  0  0  0  0  0
  -28.0873  -11.9844   18.7117 C   0  0  0  0  0  0  0  0  0  0  0  0
  -30.4682  -12.4060   19.4549 C   0  0  0  0  0  0  0  0  0  0  0  0
  -28.6112  -13.2017   20.8664 C   0  0  0  0  0  0  0  0  0  0  0  0
  -25.6897  -18.6871   23.9083 C   0  0  1  0  0  0  0  0  0  0  0  0
  -27.1341  -21.1659   26.3988 C   0  0  1  0  0  0  0  0  0  0  0  0
  -27.6179  -13.0697   19.6992 C   0  0  2  0  0  0  0  0  0  0  0  0
  -32.0310  -24.6843   18.9621 C   0  0  2  0  0  0  0  0  0  0  0  0
  -33.3313  -25.3861   18.6364 C   0  0  0  0  0  0  0  0  0  0  0  0
  -24.0976  -27.8292   28.9252 C   0  0  0  0  0  0  0  0  0  0  0  0
  -24.0386  -23.5166   23.8984 C   0  0  0  0  0  0  0  0  0  0  0  0
  -23.3928  -25.7570   24.8105 C   0  0  0  0  0  0  0  0  0  0  0  0
  -22.5466  -23.6781   25.8989 C   0  0  0  0  0  0  0  0  0  0  0  0
  -27.2702  -26.1540   30.1917 C   0  0  0  0  0  0  0  0  0  0  0  0
  -33.0382  -25.3594   22.2836 C   0  0  0  0  0  0  0  0  0  0  0  0
  -30.6963  -17.8622   20.9408 C   0  0  0  0  0  0  0  0  0  0  0  0
  -33.7028  -24.0627   21.8160 C   0  0  0  0  0  0  0  0  0  0  0  0
  -31.4076  -19.1543   21.3411 C   0  0  0  0  0  0  0  0  0  0  0  0
  -30.9447  -16.6946   21.8932 C   0  0  0  0  0  0  0  0  0  0  0  0
  -31.8525  -25.1293   23.2134 C   0  0  0  0  0  0  0  0  0  1  0  0
  -24.9785  -24.3155   26.1665 C   0  0  1  0  0  0  0  0  0  0  0  0
  -25.0721  -26.6795   29.1283 C   0  0  2  0  0  0  0  0  0  0  0  0
  -23.7664  -24.3089   25.1927 C   0  0  0  0  0  0  0  0  0  0  0  0
  -25.7784  -11.5440   20.3085 N   0  0  0  0  0  0  0  0  0  0  0  0
  -32.5500  -21.9128   21.3594 N   0  0  0  0  0  0  0  0  0  0  0  0
  -32.8054  -23.1896   20.9758 N   0  0  0  0  0  0  0  0  0  0  0  0
  -26.2021  -12.8130   20.1815 N   0  0  0  0  0  0  0  0  0  0  0  0
  -26.7222  -22.5606   26.2282 N   0  0  0  0  0  0  0  0  0  0  0  0
  -29.9669  -13.4503   20.3517 N   0  0  0  0  0  0  0  0  0  0  0  0
  -25.5233  -15.0666   20.4481 N   0  0  0  0  0  0  0  0  0  0  0  0
  -21.8610  -12.7237   21.6706 N   0  0  0  0  0  0  0  0  0  0  0  0
  -31.1667  -20.2090   20.3607 N   0  0  0  0  0  0  0  0  0  0  0  0
  -26.0210  -19.4686   25.0804 N   0  0  0  0  0  0  0  0  0  0  0  0
  -24.7398  -25.0356   27.4126 N   0  0  0  0  0  0  0  0  0  0  0  0
  -30.2296  -15.5008   21.5006 N   0  0  0  0  0  0  0  0  0  0  0  0
  -26.2422  -27.1860   29.9000 N   0  3  0  0  0  0  0  0  0  0  0  0
  -22.7138  -14.8340   21.3912 O   0  0  0  0  0  0  0  0  0  0  0  0
  -27.6070  -20.8670   24.1049 O   0  0  0  0  0  0  0  0  0  0  0  0
  -24.6112  -22.1860   27.1447 O   0  0  0  0  0  0  0  0  0  0  0  0
  -26.4812  -26.5476   27.1701 O   0  0  0  0  0  0  0  0  0  0  0  0
  -31.9202  -14.6887   20.1819 O   0  0  0  0  0  0  0  0  0  0  0  0
  -21.3789   -7.1744   21.7573 O   0  0  0  0  0  0  0  0  0  0  0  0
  -32.3029  -24.4105   24.3610 O   0  0  0  0  0  0  0  0  0  1  0  0
  -23.6873   -3.0181   24.5503 F   0  0  0  0  0  0  0  0  0  0  0  0
  -20.3278   -6.3311   24.1712 F   0  0  0  0  0  0  0  0  0  0  0  0
  -31.1600  -25.5814   19.4970 F   0  0  0  0  0  0  0  0  0  0  0  0
  1  2  1  0  0  0  0
  1  5  2  0  0  0  0
  2  6  2  0  0  0  0
  3  8  2  0  0  0  0
  3 15  1  0  0  0  0
  4  9  1  0  0  0  0
  4 15  2  0  0  0  0
  5 17  1  0  0  0  0
  6 19  1  0  0  0  0
  7 10  2  0  0  0  0
  7 18  1  0  0  0  0
  8 22  1  0  0  0  0
  9 22  2  0  0  0  0
 10 23  1  0  0  0  0
 11 12  2  0  0  0  0
 11 24  1  0  0  0  0
 12 25  1  0  0  0  0
 13 20  1  0  0  0  0
 13 23  2  0  0  0  0
 14 25  2  0  0  0  0
 14 26  1  0  0  0  0
 15 27  1  0  0  0  0
 16 27  1  0  0  0  0
 16 30  2  0  0  0  0
 16 31  1  0  0  0  0
 17 19  2  0  0  0  0
 17 36  1  0  0  0  0
 18 20  2  0  0  0  0
 18 37  1  0  0  0  0
 19 47  1  0  0  0  0
 20 39  1  0  0  0  0
 21 28  2  0  0  0  0
 21 29  1  0  0  0  0
 21 38  1  0  0  0  0
 22 84  1  0  0  0  0
 23 85  1  0  0  0  0
 24 26  2  0  0  0  0
 24 84  1  0  0  0  0
 25 86  1  0  0  0  0
 26 87  1  0  0  0  0
 27 66  2  0  0  0  0
 28 50  1  0  0  0  0
 28 68  1  0  0  0  0
 29 67  2  0  0  0  0
 29 74  1  0  0  0  0
 30 69  1  0  0  0  0
 30 72  1  0  0  0  0
 31 73  1  0  0  0  0
 31 79  2  0  0  0  0
 32 48  1  0  0  0  0
 32 75  1  0  0  0  0
 32 80  2  0  0  0  0
 33 63  1  0  0  0  0
 33 70  1  0  0  0  0
 33 81  2  0  0  0  0
 34 64  1  0  0  0  0
 34 76  1  0  0  0  0
 34 82  2  0  0  0  0
 35 71  1  0  0  0  0
 35 77  1  0  0  0  0
 35 83  2  0  0  0  0
 36 40  1  0  0  0  0
 37 48  1  0  0  0  0
 38 41  1  0  0  0  0
 39 70  1  0  0  0  0
 40 43  1  0  0  0  0
 41 50  1  0  0  0  0
 42 44  1  0  0  0  0
 42 45  1  0  0  0  0
 43 47  1  0  0  0  0
 44 49  1  0  0  0  0
 45 71  1  0  0  0  0
 46 49  1  0  0  0  0
 46 71  1  0  0  0  0
 47 75  1  0  0  0  0
 48 70  1  0  0  0  0
 49 69  1  0  0  0  0
 50 51  1  0  0  0  0
 50 88  1  0  0  0  0
 52 64  1  0  0  0  0
 53 65  1  0  0  0  0
 54 65  1  0  0  0  0
 55 65  1  0  0  0  0
 56 78  1  0  0  0  0
 57 59  1  0  0  0  0
 57 62  1  0  0  0  0
 58 60  1  0  0  0  0
 58 61  1  0  0  0  0
 59 68  1  0  0  0  0
 60 74  1  0  0  0  0
 61 77  1  0  0  0  0
 62 85  1  0  0  0  0
 63 65  1  0  0  0  0
 63 76  1  0  0  0  0
 64 78  1  0  0  0  0
 66 69  1  0  0  0  0
 67 68  1  0  0  0  0
M  CHG  1  78   1
M  ISO  4  35 100  62 101  77 100  85 101
M  END
> <Batch ID>
0030

> <Smiles>
CNC(C)C(=O)NC(C(=O)N1Cc2cc([101O:1][101CH2:1]CCn3nc(NCCC[100NH:0][100C:0](=O)N4CCCC(n5nc(-c6ccc(Oc7ccc(F)cc7F)cc6)c(C(N)=O)c5N)C4)c4c3C(C)(F)CC4)ccc2CC1C(=O)NC1CCCc2ccccc21)C(C)(C)C

> <Shape>
0.195

> <Color>
0.191

> <Negative vol penalty>
0.000

$$$$

  -OEChem-04052316393D

 85 93  0     1  0  0  0  0  0999 V2000
  -28.2797  -24.6495   17.1277 C   0  0  0  0  0  0  0  0  0  0  0  0
  -27.0827  -24.8544   17.8063 C   0  0  0  0  0  0  0  0  0  0  0  0
  -27.2921  -16.9983   19.2877 C   0  0  0  0  0  0  0  0  0  0  0  0
  -25.6018  -16.6756   20.9834 C   0  0  0  0  0  0  0  0  0  0  0  0
  -29.4628  -25.1965   17.6227 C   0  0  0  0  0  0  0  0  0  0  0  0
  -27.0682  -25.6056   18.9810 C   0  0  0  0  0  0  0  0  0  0  0  0
  -23.2409  -28.9188   19.1213 C   0  0  0  0  0  0  0  0  0  0  0  0
  -27.3443  -15.6203   19.0774 C   0  0  0  0  0  0  0  0  0  0  0  0
  -25.6539  -15.2977   20.7732 C   0  0  0  0  0  0  0  0  0  0  0  0
  -21.9774  -28.4192   19.4338 C   0  0  0  0  0  0  0  0  0  0  0  0
  -28.7240  -12.9230   20.5758 C   0  0  0  0  0  0  0  0  0  0  0  0
  -29.9828  -12.3308   20.4743 C   0  0  0  0  0  0  0  0  0  0  0  0
  -22.2406  -29.1903   21.7043 C   0  0  0  0  0  0  0  0  0  0  0  0
  -20.1145  -25.7241   24.7938 C   0  0  0  0  0  0  0  0  0  0  0  0
  -20.5579  -24.5252   22.3141 C   0  0  0  0  0  0  0  0  0  0  0  0
  -29.4431  -11.5655   18.2472 C   0  0  0  0  0  0  0  0  0  0  0  0
  -26.4209  -17.5259   20.2407 C   0  0  0  0  0  0  0  0  0  0  0  0
  -25.5347  -19.8782   19.8061 C   0  0  0  0  0  0  0  0  0  0  0  0
  -29.4613  -25.9629   18.7988 C   0  0  0  0  0  0  0  0  0  0  0  0
  -24.0196  -29.5493   20.1024 C   0  0  0  0  0  0  0  0  0  0  0  0
  -28.2526  -26.1623   19.4929 C   0  0  0  0  0  0  0  0  0  0  0  0
  -23.5127  -29.6993   21.4011 C   0  0  0  0  0  0  0  0  0  0  0  0
  -19.4278  -26.1770   23.6674 C   0  0  0  0  0  0  0  0  0  0  0  0
  -21.0230  -24.6717   24.6804 C   0  0  0  0  0  0  0  0  0  0  0  0
  -19.6494  -25.5776   22.4276 C   0  0  0  0  0  0  0  0  0  0  0  0
  -26.5251  -14.7700   19.8202 C   0  0  0  0  0  0  0  0  0  0  0  0
  -21.4782  -28.5523   20.7261 C   0  0  0  0  0  0  0  0  0  0  0  0
  -27.8247  -12.8363   19.5131 C   0  0  0  0  0  0  0  0  0  0  0  0
  -30.3424  -11.6521   19.3100 C   0  0  0  0  0  0  0  0  0  0  0  0
  -28.1842  -12.1576   18.3487 C   0  0  0  0  0  0  0  0  0  0  0  0
  -21.2447  -24.0722   23.4406 C   0  0  0  0  0  0  0  0  0  0  0  0
  -26.3670  -18.9492   20.4587 C   0  0  0  0  0  0  0  0  0  0  0  0
  -25.8648  -21.0879   20.3666 C   0  0  0  0  0  0  0  0  0  0  0  0
  -24.5511  -19.6667   18.7847 C   0  0  0  0  0  0  0  0  0  0  0  0
  -26.8429  -28.9673   21.4417 C   0  0  0  0  0  0  0  0  0  0  0  0
  -27.4315  -23.2827   25.5120 C   0  0  0  0  0  0  0  0  0  0  0  0
  -26.3281  -31.8416   22.8545 C   0  0  0  0  0  0  0  0  0  0  0  0
  -24.0913  -34.2041   23.8850 C   0  0  0  0  0  0  0  0  0  0  0  0
  -30.7727  -26.4943   19.3207 C   0  0  0  0  0  0  0  0  0  0  0  0
  -25.3695  -30.1066   19.7425 C   0  0  0  0  0  0  0  0  0  0  0  0
  -24.3005  -30.3862   22.4855 C   0  0  0  0  0  0  0  0  0  0  0  0
  -30.6112  -27.5919   20.3693 C   0  0  0  0  0  0  0  0  0  0  0  0
  -29.7638  -22.8510   22.8261 C   0  0  0  0  0  0  0  0  0  0  0  0
  -29.5673  -27.1900   21.4063 C   0  0  0  0  0  0  0  0  0  0  0  0
  -29.0592  -21.8666   21.8936 C   0  0  0  0  0  0  0  0  0  0  0  0
  -29.4535  -22.5534   24.2897 C   0  0  0  0  0  0  0  0  0  0  0  0
  -27.2867  -21.5300   23.6740 C   0  0  0  0  0  0  0  0  0  0  0  0
  -28.1923  -26.9921   20.7570 C   0  0  1  0  0  0  0  0  0  0  0  0
  -26.2879  -30.2739   20.9492 C   0  0  1  0  0  0  0  0  0  0  0  0
  -27.5489  -21.8141   22.1844 C   0  0  2  0  0  0  0  0  0  0  0  0
  -18.4614  -27.3066   23.8114 C   0  0  0  0  0  0  0  0  0  0  0  0
  -23.9673  -36.4276   25.0417 C   0  0  0  0  0  0  0  0  0  0  0  0
  -26.8224  -30.4715   25.5356 C   0  0  0  0  0  0  0  0  0  0  0  0
  -25.7730  -32.4472   26.6597 C   0  0  0  0  0  0  0  0  0  0  0  0
  -27.8548  -32.7388   25.3167 C   0  0  0  0  0  0  0  0  0  0  0  0
  -22.8707  -35.4973   21.5192 C   0  0  0  0  0  0  0  0  0  0  0  0
  -18.9200  -26.0526   21.1945 C   0  0  0  0  0  0  0  0  0  0  0  0
  -21.7385  -24.2160   25.9110 C   0  0  0  0  0  0  0  0  0  0  0  0
  -25.9385  -23.1651   25.6879 C   0  0  0  0  0  0  0  0  0  0  0  0
  -25.4457  -24.0841   26.8008 C   0  0  0  0  0  0  0  0  0  0  0  0
  -23.9482  -23.9432   27.0431 C   0  0  0  0  0  0  0  0  0  0  0  0
  -19.7965  -26.9250   20.3024 C   0  0  0  0  0  0  0  0  0  1  0  0
  -25.6654  -32.3023   24.1302 C   0  0  1  0  0  0  0  0  0  0  0  0
  -24.0627  -35.7111   23.7038 C   0  0  2  0  0  0  0  0  0  0  0  0
  -26.5146  -31.9753   25.3908 C   0  0  0  0  0  0  0  0  0  0  0  0
  -27.1659  -19.5197   21.3644 N   0  0  0  0  0  0  0  0  0  0  0  0
  -26.8372  -20.8204   21.2848 N   0  0  0  0  0  0  0  0  0  0  0  0
  -25.6177  -30.9087   22.0859 N   0  0  0  0  0  0  0  0  0  0  0  0
  -28.0093  -22.4896   24.5204 N   0  0  0  0  0  0  0  0  0  0  0  0
  -25.4154  -22.3438   20.1585 N   0  0  0  0  0  0  0  0  0  0  0  0
  -24.3379  -18.3608   18.3226 N   0  0  0  0  0  0  0  0  0  0  0  0
  -27.5688  -28.2714   20.4939 N   0  0  0  0  0  0  0  0  0  0  0  0
  -25.3815  -33.7223   23.9528 N   0  0  0  0  0  0  0  0  0  0  0  0
  -22.8923  -36.1106   22.8721 N   0  3  0  0  0  0  0  0  0  0  0  0
  -23.2178  -24.3372   25.8096 N   0  3  0  0  0  0  0  0  0  0  0  0
  -23.8926  -20.6100   18.2845 O   0  0  0  0  0  0  0  0  0  0  0  0
  -26.6298  -28.6173   22.5965 O   0  0  0  0  0  0  0  0  0  0  0  0
  -28.0634  -24.0591   26.2333 O   0  0  0  0  0  0  0  0  0  0  0  0
  -27.4322  -32.2981   22.5475 O   0  0  0  0  0  0  0  0  0  0  0  0
  -23.0712  -33.5230   23.9625 O   0  0  0  0  0  0  0  0  0  0  0  0
  -26.5756  -13.4254   19.6151 O   0  0  0  0  0  0  0  0  0  0  0  0
  -20.2455  -28.0650   21.0340 O   0  0  0  0  0  0  0  0  0  1  0  0
  -31.5518  -11.0848   19.2120 F   0  0  0  0  0  0  0  0  0  0  0  0
  -27.3250  -12.0720   17.3240 F   0  0  0  0  0  0  0  0  0  0  0  0
  -22.3612  -22.7681   23.2617 Cl  0  0  0  0  0  0  0  0  0  0  0  0
  1  2  1  0  0  0  0
  1  5  2  0  0  0  0
  2  6  2  0  0  0  0
  3  8  2  0  0  0  0
  3 17  1  0  0  0  0
  4  9  1  0  0  0  0
  4 17  2  0  0  0  0
  5 19  1  0  0  0  0
  6 21  1  0  0  0  0
  7 10  2  0  0  0  0
  7 20  1  0  0  0  0
  8 26  1  0  0  0  0
  9 26  2  0  0  0  0
 10 27  1  0  0  0  0
 11 12  2  0  0  0  0
 11 28  1  0  0  0  0
 12 29  1  0  0  0  0
 13 22  1  0  0  0  0
 13 27  2  0  0  0  0
 14 23  1  0  0  0  0
 14 24  2  0  0  0  0
 15 25  1  0  0  0  0
 15 31  2  0  0  0  0
 16 29  2  0  0  0  0
 16 30  1  0  0  0  0
 17 32  1  0  0  0  0
 18 32  1  0  0  0  0
 18 33  2  0  0  0  0
 18 34  1  0  0  0  0
 19 21  2  0  0  0  0
 19 39  1  0  0  0  0
 20 22  2  0  0  0  0
 20 40  1  0  0  0  0
 21 48  1  0  0  0  0
 22 41  1  0  0  0  0
 23 25  2  0  0  0  0
 23 51  1  0  0  0  0
 24 31  1  0  0  0  0
 24 58  1  0  0  0  0
 25 57  1  0  0  0  0
 26 81  1  0  0  0  0
 27 82  1  0  0  0  0
 28 30  2  0  0  0  0
 28 81  1  0  0  0  0
 29 83  1  0  0  0  0
 30 84  1  0  0  0  0
 31 85  1  0  0  0  0
 32 66  2  0  0  0  0
 33 67  1  0  0  0  0
 33 70  1  0  0  0  0
 34 71  1  0  0  0  0
 34 76  2  0  0  0  0
 35 49  1  0  0  0  0
 35 72  1  0  0  0  0
 35 77  2  0  0  0  0
 36 59  1  0  0  0  0
 36 69  1  0  0  0  0
 36 78  2  0  0  0  0
 37 63  1  0  0  0  0
 37 68  1  0  0  0  0
 37 79  2  0  0  0  0
 38 64  1  0  0  0  0
 38 73  1  0  0  0  0
 38 80  2  0  0  0  0
 39 42  1  0  0  0  0
 40 49  1  0  0  0  0
 41 68  1  0  0  0  0
 42 44  1  0  0  0  0
 43 45  1  0  0  0  0
 43 46  1  0  0  0  0
 44 48  1  0  0  0  0
 45 50  1  0  0  0  0
 46 69  1  0  0  0  0
 47 50  1  0  0  0  0
 47 69  1  0  0  0  0
 48 72  1  0  0  0  0
 49 68  1  0  0  0  0
 50 67  1  0  0  0  0
 52 64  1  0  0  0  0
 53 65  1  0  0  0  0
 54 65  1  0  0  0  0
 55 65  1  0  0  0  0
 56 74  1  0  0  0  0
 57 62  1  0  0  0  0
 58 75  1  0  0  0  0
 59 60  1  0  0  0  0
 60 61  1  0  0  0  0
 61 75  1  0  0  0  0
 62 82  1  0  0  0  0
 63 65  1  0  0  0  0
 63 73  1  0  0  0  0
 64 74  1  0  0  0  0
 66 67  1  0  0  0  0
M  CHG  2  74   1  75   1
M  ISO  4  36 100  59 100  62 101  82 101
M  END
> <Batch ID>
0030

> <Smiles>
CNC(C)C(=O)NC(C(=O)N1Cc2cc([101O:1][101CH2:1]Cc3cc(Cl)c(CNCC[100CH2:0][100C:0](=O)N4CCCC(n5nc(-c6ccc(Oc7ccc(F)cc7F)cc6)c(C(N)=O)c5N)C4)cc3C)ccc2CC1C(=O)NC1CCCc2ccccc21)C(C)(C)C

> <Shape>
0.297

> <Color>
0.066

> <Negative vol penalty>
0.000

$$$$

  -OEChem-04052316393D

 85 93  0     1  0  0  0  0  0999 V2000
  -20.3384  -19.3493   17.8570 C   0  0  0  0  0  0  0  0  0  0  0  0
  -21.3475  -19.2706   18.8113 C   0  0  0  0  0  0  0  0  0  0  0  0
  -25.5839  -13.9323   21.1327 C   0  0  0  0  0  0  0  0  0  0  0  0
  -25.5587  -14.1234   18.7244 C   0  0  0  0  0  0  0  0  0  0  0  0
  -20.1451  -20.5320   17.1444 C   0  0  0  0  0  0  0  0  0  0  0  0
  -22.1648  -20.3743   19.0529 C   0  0  0  0  0  0  0  0  0  0  0  0
  -25.7594  -23.6094   24.3377 C   0  0  0  0  0  0  0  0  0  0  0  0
  -24.5828  -12.9634   21.0664 C   0  0  0  0  0  0  0  0  0  0  0  0
  -24.5576  -13.1544   18.6580 C   0  0  0  0  0  0  0  0  0  0  0  0
  -27.0334  -24.0901   24.6368 C   0  0  0  0  0  0  0  0  0  0  0  0
  -24.3512   -9.6653   20.3577 C   0  0  0  0  0  0  0  0  0  0  0  0
  -24.5041   -8.5206   21.1398 C   0  0  0  0  0  0  0  0  0  0  0  0
  -26.5561  -26.1064   23.4016 C   0  0  0  0  0  0  0  0  0  0  0  0
  -30.6120  -27.1110   22.3373 C   0  0  0  0  0  0  0  0  0  0  0  0
  -31.3387  -24.8952   21.7055 C   0  0  0  0  0  0  0  0  0  0  0  0
  -22.4417   -9.0311   22.2901 C   0  0  0  0  0  0  0  0  0  0  0  0
  -26.0719  -14.5124   19.9618 C   0  0  0  0  0  0  0  0  0  0  0  0
  -28.4971  -15.3026   19.9982 C   0  0  0  0  0  0  0  0  0  0  0  0
  -20.9543  -21.6539   17.3841 C   0  0  0  0  0  0  0  0  0  0  0  0
  -24.8765  -24.3702   23.5578 C   0  0  0  0  0  0  0  0  0  0  0  0
  -21.9831  -21.5727   18.3418 C   0  0  0  0  0  0  0  0  0  0  0  0
  -25.2705  -25.6342   23.0961 C   0  0  0  0  0  0  0  0  0  0  0  0
  -30.9951  -25.8180   22.6935 C   0  0  0  0  0  0  0  0  0  0  0  0
  -30.5723  -27.4813   20.9930 C   0  0  0  0  0  0  0  0  0  0  0  0
  -31.2991  -25.2655   20.3612 C   0  0  0  0  0  0  0  0  0  0  0  0
  -24.0696  -12.5744   19.8290 C   0  0  0  0  0  0  0  0  0  0  0  0
  -27.4330  -25.3375   24.1663 C   0  0  0  0  0  0  0  0  0  0  0  0
  -23.2436  -10.4930   20.5417 C   0  0  0  0  0  0  0  0  0  0  0  0
  -23.5494   -8.2035   22.1060 C   0  0  0  0  0  0  0  0  0  0  0  0
  -22.2889  -10.1759   21.5079 C   0  0  0  0  0  0  0  0  0  0  0  0
  -30.9159  -26.5586   20.0050 C   0  0  0  0  0  0  0  0  0  0  0  0
  -27.1057  -15.5138   20.0297 C   0  0  0  0  0  0  0  0  0  0  0  0
  -29.0377  -16.5618   20.0916 C   0  0  0  0  0  0  0  0  0  0  0  0
  -29.2351  -14.0777   19.8938 C   0  0  0  0  0  0  0  0  0  0  0  0
  -23.4459  -23.9646   20.7485 C   0  0  0  0  0  0  0  0  0  0  0  0
  -21.9451  -26.7254   21.5535 C   0  0  0  0  0  0  0  0  0  0  0  0
  -21.9732  -29.6157   23.3680 C   0  0  0  0  0  0  0  0  0  0  0  0
  -29.1323  -21.9400   18.6047 C   0  0  0  0  0  0  0  0  0  0  0  0
  -20.7380  -22.8953   16.5554 C   0  0  0  0  0  0  0  0  0  0  0  0
  -23.4960  -23.8490   23.2664 C   0  0  0  0  0  0  0  0  0  0  0  0
  -24.3530  -26.4988   22.2720 C   0  0  0  0  0  0  0  0  0  0  0  0
  -21.4051  -24.1394   17.1365 C   0  0  0  0  0  0  0  0  0  0  0  0
  -26.8748  -20.9998   21.1924 C   0  0  0  0  0  0  0  0  0  0  0  0
  -22.8388  -23.8299   17.5554 C   0  0  0  0  0  0  0  0  0  0  0  0
  -26.8438  -19.4725   21.1137 C   0  0  0  0  0  0  0  0  0  0  0  0
  -26.9887  -21.6341   19.8080 C   0  0  0  0  0  0  0  0  0  0  0  0
  -28.0843  -19.6157   18.9139 C   0  0  0  0  0  0  0  0  0  0  0  0
  -22.8743  -22.7564   18.6499 C   0  0  1  0  0  0  0  0  0  0  0  0
  -22.8649  -24.4862   22.0323 C   0  0  1  0  0  0  0  0  0  0  0  0
  -28.0265  -18.9294   20.2894 C   0  0  2  0  0  0  0  0  0  0  0  0
  -30.1612  -28.8644   20.6153 C   0  0  0  0  0  0  0  0  0  0  0  0
  -20.6264  -31.6910   23.7882 C   0  0  0  0  0  0  0  0  0  0  0  0
  -22.8537  -27.8556   18.8688 C   0  0  0  0  0  0  0  0  0  0  0  0
  -22.3283  -30.1455   19.7339 C   0  0  0  0  0  0  0  0  0  0  0  0
  -20.5114  -28.4507   19.5123 C   0  0  0  0  0  0  0  0  0  0  0  0
  -21.6643  -28.9735   26.2405 C   0  0  0  0  0  0  0  0  0  0  0  0
  -31.0393  -25.4175   24.1481 C   0  0  0  0  0  0  0  0  0  0  0  0
  -32.4341  -22.2383   18.3894 C   0  0  0  0  0  0  0  0  0  0  0  0
  -32.0494  -22.9907   19.6627 C   0  0  0  0  0  0  0  0  0  0  0  0
  -31.2909  -22.0838   17.3886 C   0  0  0  0  0  0  0  0  0  0  0  0
  -29.7122  -24.8433   24.6320 C   0  0  0  0  0  0  0  0  0  1  0  0
  -22.2280  -28.1944   21.3507 C   0  0  1  0  0  0  0  0  0  0  0  0
  -20.9154  -30.2679   24.2399 C   0  0  2  0  0  0  0  0  0  0  0  0
  -21.9986  -28.6447   19.8803 C   0  0  0  0  0  0  0  0  0  0  0  0
  -26.7824  -16.8054   20.1351 N   0  0  0  0  0  0  0  0  0  0  0  0
  -27.9784  -17.4172   20.1707 N   0  0  0  0  0  0  0  0  0  0  0  0
  -23.0156  -25.9426   22.0085 N   0  0  0  0  0  0  0  0  0  0  0  0
  -28.1306  -21.0770   19.0789 N   0  0  0  0  0  0  0  0  0  0  0  0
  -30.3111  -17.0096   20.1131 N   0  0  0  0  0  0  0  0  0  0  0  0
  -28.5227  -12.8739   19.8065 N   0  0  0  0  0  0  0  0  0  0  0  0
  -31.6477  -24.3304   19.3644 N   0  0  0  0  0  0  0  0  0  0  0  0
  -22.5285  -23.3306   19.9325 N   0  0  0  0  0  0  0  0  0  0  0  0
  -21.4112  -28.9060   22.3279 N   0  0  0  0  0  0  0  0  0  0  0  0
  -30.1823  -21.3295   17.9298 N   0  0  0  0  0  0  0  0  0  0  0  0
  -21.3670  -30.3081   25.6596 N   0  3  0  0  0  0  0  0  0  0  0  0
  -30.4892  -14.0503   19.8949 O   0  0  0  0  0  0  0  0  0  0  0  0
  -24.6378  -24.1268   20.5148 O   0  0  0  0  0  0  0  0  0  0  0  0
  -20.8141  -26.2900   21.3236 O   0  0  0  0  0  0  0  0  0  0  0  0
  -23.1776  -29.7277   23.5856 O   0  0  0  0  0  0  0  0  0  0  0  0
  -29.0964  -23.1634   18.7751 O   0  0  0  0  0  0  0  0  0  0  0  0
  -23.0928  -11.6287   19.7639 O   0  0  0  0  0  0  0  0  0  0  0  0
  -28.6763  -25.8088   24.4563 O   0  0  0  0  0  0  0  0  0  1  0  0
  -23.6956   -7.1033   22.8560 F   0  0  0  0  0  0  0  0  0  0  0  0
  -21.2221  -10.9665   21.6885 F   0  0  0  0  0  0  0  0  0  0  0  0
  -30.8755  -26.9156   18.7123 F   0  0  0  0  0  0  0  0  0  0  0  0
  1  2  1  0  0  0  0
  1  5  2  0  0  0  0
  2  6  2  0  0  0  0
  3  8  2  0  0  0  0
  3 17  1  0  0  0  0
  4  9  1  0  0  0  0
  4 17  2  0  0  0  0
  5 19  1  0  0  0  0
  6 21  1  0  0  0  0
  7 10  2  0  0  0  0
  7 20  1  0  0  0  0
  8 26  1  0  0  0  0
  9 26  2  0  0  0  0
 10 27  1  0  0  0  0
 11 12  2  0  0  0  0
 11 28  1  0  0  0  0
 12 29  1  0  0  0  0
 13 22  1  0  0  0  0
 13 27  2  0  0  0  0
 14 23  1  0  0  0  0
 14 24  2  0  0  0  0
 15 23  2  0  0  0  0
 15 25  1  0  0  0  0
 16 29  2  0  0  0  0
 16 30  1  0  0  0  0
 17 32  1  0  0  0  0
 18 32  1  0  0  0  0
 18 33  2  0  0  0  0
 18 34  1  0  0  0  0
 19 21  2  0  0  0  0
 19 39  1  0  0  0  0
 20 22  2  0  0  0  0
 20 40  1  0  0  0  0
 21 48  1  0  0  0  0
 22 41  1  0  0  0  0
 23 57  1  0  0  0  0
 24 31  1  0  0  0  0
 24 51  1  0  0  0  0
 25 31  2  0  0  0  0
 25 71  1  0  0  0  0
 26 81  1  0  0  0  0
 27 82  1  0  0  0  0
 28 30  2  0  0  0  0
 28 81  1  0  0  0  0
 29 83  1  0  0  0  0
 30 84  1  0  0  0  0
 31 85  1  0  0  0  0
 32 65  2  0  0  0  0
 33 66  1  0  0  0  0
 33 69  1  0  0  0  0
 34 70  1  0  0  0  0
 34 76  2  0  0  0  0
 35 49  1  0  0  0  0
 35 72  1  0  0  0  0
 35 77  2  0  0  0  0
 36 62  1  0  0  0  0
 36 67  1  0  0  0  0
 36 78  2  0  0  0  0
 37 63  1  0  0  0  0
 37 73  1  0  0  0  0
 37 79  2  0  0  0  0
 38 68  1  0  0  0  0
 38 74  1  0  0  0  0
 38 80  2  0  0  0  0
 39 42  1  0  0  0  0
 40 49  1  0  0  0  0
 41 67  1  0  0  0  0
 42 44  1  0  0  0  0
 43 45  1  0  0  0  0
 43 46  1  0  0  0  0
 44 48  1  0  0  0  0
 45 50  1  0  0  0  0
 46 68  1  0  0  0  0
 47 50  1  0  0  0  0
 47 68  1  0  0  0  0
 48 72  1  0  0  0  0
 49 67  1  0  0  0  0
 50 66  1  0  0  0  0
 52 63  1  0  0  0  0
 53 64  1  0  0  0  0
 54 64  1  0  0  0  0
 55 64  1  0  0  0  0
 56 75  1  0  0  0  0
 57 61  1  0  0  0  0
 58 59  1  0  0  0  0
 58 60  1  0  0  0  0
 59 71  1  0  0  0  0
 60 74  1  0  0  0  0
 61 82  1  0  0  0  0
 62 64  1  0  0  0  0
 62 73  1  0  0  0  0
 63 75  1  0  0  0  0
 65 66  1  0  0  0  0
M  CHG  1  75   1
M  ISO  4  38 100  61 101  74 100  82 101
M  END
> <Batch ID>
0030

> <Smiles>
CNC(C)C(=O)NC(C(=O)N1Cc2cc([101O:1][101CH2:1]Cc3cc(C)c(F)c(NCCC[100NH:0][100C:0](=O)N4CCCC(n5nc(-c6ccc(Oc7ccc(F)cc7F)cc6)c(C(N)=O)c5N)C4)c3)ccc2CC1C(=O)NC1CCCc2ccccc21)C(C)(C)C

> <Shape>
0.201

> <Color>
0.080

> <Negative vol penalty>
0.000

$$$$

  -OEChem-04052316393D

 91100  0     1  0  0  0  0  0999 V2000
  -28.9896  -34.0489    7.9626 C   0  0  0  0  0  0  0  0  0  0  0  0
  -28.3479  -32.9610    8.5459 C   0  0  0  0  0  0  0  0  0  0  0  0
  -23.0023   -9.8936   19.9797 C   0  0  0  0  0  0  0  0  0  0  0  0
  -23.7330   -9.9413   22.2821 C   0  0  0  0  0  0  0  0  0  0  0  0
  -29.5428  -35.0440    8.7673 C   0  0  0  0  0  0  0  0  0  0  0  0
  -28.2600  -32.8671    9.9343 C   0  0  0  0  0  0  0  0  0  0  0  0
  -23.6267  -30.5209   13.1797 C   0  0  0  0  0  0  0  0  0  0  0  0
  -22.2382   -8.7574   20.2457 C   0  0  0  0  0  0  0  0  0  0  0  0
  -22.9689   -8.8051   22.5481 C   0  0  0  0  0  0  0  0  0  0  0  0
  -23.4339  -29.2741   13.7732 C   0  0  0  0  0  0  0  0  0  0  0  0
  -23.2173   -5.4674   22.0693 C   0  0  0  0  0  0  0  0  0  0  0  0
  -23.8083   -4.4497   22.8180 C   0  0  0  0  0  0  0  0  0  0  0  0
  -24.2182  -30.1601   15.8753 C   0  0  0  0  0  0  0  0  0  0  0  0
  -22.0881   -4.6867   24.4978 C   0  0  0  0  0  0  0  0  0  0  0  0
  -23.7498  -10.4855   20.9979 C   0  0  0  0  0  0  0  0  0  0  0  0
  -24.1307  -13.0020   20.8257 C   0  0  0  0  0  0  0  0  0  0  0  0
  -29.4533  -34.9672   10.1661 C   0  0  0  0  0  0  0  0  0  0  0  0
  -24.1278  -31.5956   13.9283 C   0  0  0  0  0  0  0  0  0  0  0  0
  -28.8138  -33.8615   10.7585 C   0  0  0  0  0  0  0  0  0  0  0  0
  -24.4141  -31.4202   15.2897 C   0  0  0  0  0  0  0  0  0  0  0  0
  -23.8565  -24.7219   16.1163 C   0  0  0  0  0  0  0  0  0  0  0  0
  -22.8402  -25.5993   15.6579 C   0  0  0  0  0  0  0  0  0  0  0  0
  -22.2215   -8.2131   21.5299 C   0  0  0  0  0  0  0  0  0  0  0  0
  -23.7324  -29.0928   15.1204 C   0  0  0  0  0  0  0  0  0  0  0  0
  -22.0617   -6.0949   22.5348 C   0  0  0  0  0  0  0  0  0  0  0  0
  -23.2436   -4.0594   24.0323 C   0  0  0  0  0  0  0  0  0  0  0  0
  -21.4971   -5.7045   23.7491 C   0  0  0  0  0  0  0  0  0  0  0  0
  -24.5397  -11.6589   20.7236 C   0  0  0  0  0  0  0  0  0  0  0  0
  -23.2337  -23.7069   16.8090 C   0  0  0  0  0  0  0  0  0  0  0  0
  -21.6281  -25.0963   16.0831 C   0  0  0  0  0  0  0  0  0  0  0  0
  -25.2384  -13.7271   20.4600 C   0  0  0  0  0  0  0  0  0  0  0  0
  -21.5354  -21.9939   18.0375 C   0  0  0  0  0  0  0  0  0  0  0  0
  -21.0107  -23.0639   17.4139 C   0  0  0  0  0  0  0  0  0  0  0  0
  -23.7118  -22.5274   17.5052 C   0  0  0  0  0  0  0  0  0  0  0  0
  -22.8628  -13.5457   21.2164 C   0  0  0  0  0  0  0  0  0  0  0  0
  -26.7308  -33.4137   13.7774 C   0  0  0  0  0  0  0  0  0  0  0  0
  -25.2514  -35.0503   16.1555 C   0  0  0  0  0  0  0  0  0  0  0  0
  -22.9845  -35.0367   18.7066 C   0  0  0  0  0  0  0  0  0  0  0  0
  -30.7339  -14.6699   20.6970 C   0  0  0  0  0  0  0  0  0  0  0  0
  -30.1079  -36.0432   10.9956 C   0  0  0  0  0  0  0  0  0  0  0  0
  -24.3049  -32.9412   13.2799 C   0  0  0  0  0  0  0  0  0  0  0  0
  -24.9352  -32.5473   16.1421 C   0  0  0  0  0  0  0  0  0  0  0  0
  -29.6440  -36.0581   12.4499 C   0  0  0  0  0  0  0  0  0  0  0  0
  -29.5913  -12.2489   18.3497 C   0  0  0  0  0  0  0  0  0  0  0  0
  -29.6462  -34.6454   13.0254 C   0  0  0  0  0  0  0  0  0  0  0  0
  -28.1443  -11.9861   18.7703 C   0  0  0  0  0  0  0  0  0  0  0  0
  -30.4963  -12.4834   19.5572 C   0  0  0  0  0  0  0  0  0  0  0  0
  -28.5882  -13.2734   20.9021 C   0  0  0  0  0  0  0  0  0  0  0  0
  -28.6764  -33.7366   12.2604 C   0  0  1  0  0  0  0  0  0  0  0  0
  -25.3061  -33.8299   14.0114 C   0  0  1  0  0  0  0  0  0  0  0  0
  -27.6266  -13.0864   19.7161 C   0  0  2  0  0  0  0  0  0  0  0  0
  -25.3046  -24.8940   15.8772 C   0  0  0  0  0  0  0  0  0  0  0  0
  -20.2608  -25.6222   15.8770 C   0  0  0  0  0  0  0  0  0  0  0  0
  -22.0214  -36.5117   20.4938 C   0  0  0  0  0  0  0  0  0  0  0  0
  -27.8003  -34.7186   17.7995 C   0  0  0  0  0  0  0  0  0  0  0  0
  -26.4838  -35.3384   19.8369 C   0  0  0  0  0  0  0  0  0  0  0  0
  -26.7347  -36.9746   17.9707 C   0  0  0  0  0  0  0  0  0  0  0  0
  -20.2535  -34.8020   17.5908 C   0  0  0  0  0  0  0  0  0  0  0  0
  -23.0399  -26.8318   14.8669 C   0  0  0  0  0  0  0  0  0  1  0  0
  -25.1740  -22.2319   17.5576 C   0  0  0  0  0  0  0  0  0  0  0  0
  -25.4751  -21.1316   18.5718 C   0  0  0  0  0  0  0  0  0  0  0  0
  -26.9720  -20.8171   18.6657 C   0  0  0  0  0  0  0  0  0  0  0  0
  -27.2982  -19.7075   19.6704 C   0  0  0  0  0  0  0  0  0  0  0  0
  -28.7897  -19.3741   19.7483 C   0  0  0  0  0  0  0  0  0  0  0  0
  -29.0587  -18.2775   20.7816 C   0  0  0  0  0  0  0  0  0  0  0  0
  -30.5516  -17.9655   20.8858 C   0  0  0  0  0  0  0  0  0  0  0  0
  -30.8160  -16.8467   21.8861 C   0  0  0  0  0  0  0  0  0  0  0  0
  -25.2338  -34.9636   17.6625 C   0  0  1  0  0  0  0  0  0  0  0  0
  -21.8702  -36.0018   19.0690 C   0  0  2  0  0  0  0  0  0  0  0  0
  -26.5552  -35.4768   18.3011 C   0  0  0  0  0  0  0  0  0  0  0  0
  -25.8082  -11.5352   20.3241 N   0  0  0  0  0  0  0  0  0  0  0  0
  -22.8887  -21.7024   18.0976 N   0  0  0  0  0  0  0  0  0  0  0  0
  -21.8750  -23.9440   16.7835 N   0  0  0  0  0  0  0  0  0  0  0  0
  -26.2058  -12.8099   20.1719 N   0  0  0  0  0  0  0  0  0  0  0  0
  -25.0974  -33.8422   15.4607 N   0  0  0  0  0  0  0  0  0  0  0  0
  -29.9499  -13.5396   20.4126 N   0  0  0  0  0  0  0  0  0  0  0  0
  -25.4695  -15.0533   20.3599 N   0  0  0  0  0  0  0  0  0  0  0  0
  -21.8332  -12.6593   21.5607 N   0  0  0  0  0  0  0  0  0  0  0  0
  -27.3122  -33.9967   12.6677 N   0  0  0  0  0  0  0  0  0  0  0  0
  -24.0410  -35.6815   18.0988 N   0  0  0  0  0  0  0  0  0  0  0  0
  -30.1380  -15.6262   21.5101 N   0  0  0  0  0  0  0  0  0  0  0  0
  -20.5447  -35.3315   18.9479 N   0  3  0  0  0  0  0  0  0  0  0  0
  -22.6442  -14.7806   21.2430 O   0  0  0  0  0  0  0  0  0  0  0  0
  -27.2636  -32.6233   14.5476 O   0  0  0  0  0  0  0  0  0  0  0  0
  -25.3893  -36.1503   15.6146 O   0  0  0  0  0  0  0  0  0  0  0  0
  -22.9254  -33.8320   18.9426 O   0  0  0  0  0  0  0  0  0  0  0  0
  -31.8780  -14.8184   20.2544 O   0  0  0  0  0  0  0  0  0  0  0  0
  -21.4758   -7.1046   21.7899 O   0  0  0  0  0  0  0  0  0  0  0  0
  -23.5448  -27.8702   15.7051 O   0  0  0  0  0  0  0  0  0  1  0  0
  -23.8104   -3.0810   24.7504 F   0  0  0  0  0  0  0  0  0  0  0  0
  -20.3864   -6.3028   24.2009 F   0  0  0  0  0  0  0  0  0  0  0  0
  1  2  1  0  0  0  0
  1  5  2  0  0  0  0
  2  6  2  0  0  0  0
  3  8  2  0  0  0  0
  3 15  1  0  0  0  0
  4  9  1  0  0  0  0
  4 15  2  0  0  0  0
  5 17  1  0  0  0  0
  6 19  1  0  0  0  0
  7 10  2  0  0  0  0
  7 18  1  0  0  0  0
  8 23  1  0  0  0  0
  9 23  2  0  0  0  0
 10 24  1  0  0  0  0
 11 12  2  0  0  0  0
 11 25  1  0  0  0  0
 12 26  1  0  0  0  0
 13 20  1  0  0  0  0
 13 24  2  0  0  0  0
 14 26  2  0  0  0  0
 14 27  1  0  0  0  0
 15 28  1  0  0  0  0
 16 28  1  0  0  0  0
 16 31  2  0  0  0  0
 16 35  1  0  0  0  0
 17 19  2  0  0  0  0
 17 40  1  0  0  0  0
 18 20  2  0  0  0  0
 18 41  1  0  0  0  0
 19 49  1  0  0  0  0
 20 42  1  0  0  0  0
 21 22  1  0  0  0  0
 21 29  2  0  0  0  0
 21 52  1  0  0  0  0
 22 30  2  0  0  0  0
 22 59  1  0  0  0  0
 23 88  1  0  0  0  0
 24 89  1  0  0  0  0
 25 27  2  0  0  0  0
 25 88  1  0  0  0  0
 26 90  1  0  0  0  0
 27 91  1  0  0  0  0
 28 71  2  0  0  0  0
 29 34  1  0  0  0  0
 29 73  1  0  0  0  0
 30 53  1  0  0  0  0
 30 73  1  0  0  0  0
 31 74  1  0  0  0  0
 31 77  1  0  0  0  0
 32 33  2  0  0  0  0
 32 72  1  0  0  0  0
 33 73  1  0  0  0  0
 34 60  1  0  0  0  0
 34 72  2  0  0  0  0
 35 78  1  0  0  0  0
 35 83  2  0  0  0  0
 36 50  1  0  0  0  0
 36 79  1  0  0  0  0
 36 84  2  0  0  0  0
 37 68  1  0  0  0  0
 37 75  1  0  0  0  0
 37 85  2  0  0  0  0
 38 69  1  0  0  0  0
 38 80  1  0  0  0  0
 38 86  2  0  0  0  0
 39 76  1  0  0  0  0
 39 81  1  0  0  0  0
 39 87  2  0  0  0  0
 40 43  1  0  0  0  0
 41 50  1  0  0  0  0
 42 75  1  0  0  0  0
 43 45  1  0  0  0  0
 44 46  1  0  0  0  0
 44 47  1  0  0  0  0
 45 49  1  0  0  0  0
 46 51  1  0  0  0  0
 47 76  1  0  0  0  0
 48 51  1  0  0  0  0
 48 76  1  0  0  0  0
 49 79  1  0  0  0  0
 50 75  1  0  0  0  0
 51 74  1  0  0  0  0
 54 69  1  0  0  0  0
 55 70  1  0  0  0  0
 56 70  1  0  0  0  0
 57 70  1  0  0  0  0
 58 82  1  0  0  0  0
 59 89  1  0  0  0  0
 60 61  1  0  0  0  0
 61 62  1  0  0  0  0
 62 63  1  0  0  0  0
 63 64  1  0  0  0  0
 64 65  1  0  0  0  0
 65 66  1  0  0  0  0
 66 67  1  0  0  0  0
 67 81  1  0  0  0  0
 68 70  1  0  0  0  0
 68 80  1  0  0  0  0
 69 82  1  0  0  0  0
 71 74  1  0  0  0  0
M  CHG  1  82   1
M  ISO  4  39 100  59 101  81 100  89 101
M  END
> <Batch ID>
0030

> <Smiles>
CNC(C)C(=O)NC(C(=O)N1Cc2cc([101O:1][101CH2:1]c3c(C)c4c(CCCCCCCC[100NH:0][100C:0](=O)N5CCCC(n6nc(-c7ccc(Oc8ccc(F)cc8F)cc7)c(C(N)=O)c6N)C5)nccn4c3C)ccc2CC1C(=O)NC1CCCc2ccccc21)C(C)(C)C

> <Shape>
0.185

> <Color>
0.197

> <Negative vol penalty>
0.000

$$$$

  -OEChem-04052316393D

 81 89  0     1  0  0  0  0  0999 V2000
  -17.5461  -25.9835   21.7869 C   0  0  0  0  0  0  0  0  0  0  0  0
  -18.8360  -25.4623   21.7822 C   0  0  0  0  0  0  0  0  0  0  0  0
  -23.4858   -9.5895   20.2589 C   0  0  0  0  0  0  0  0  0  0  0  0
  -23.8829  -10.1352   22.5788 C   0  0  0  0  0  0  0  0  0  0  0  0
  -17.3426  -27.3349   22.0631 C   0  0  0  0  0  0  0  0  0  0  0  0
  -19.9232  -26.2925   22.0527 C   0  0  0  0  0  0  0  0  0  0  0  0
  -23.2329  -24.1791   25.2503 C   0  0  0  0  0  0  0  0  0  0  0  0
  -22.8537   -8.4076   20.6451 C   0  0  0  0  0  0  0  0  0  0  0  0
  -23.2508   -8.9533   22.9650 C   0  0  0  0  0  0  0  0  0  0  0  0
  -24.1023  -23.2231   24.7270 C   0  0  0  0  0  0  0  0  0  0  0  0
  -20.0854   -7.8209   23.3090 C   0  0  0  0  0  0  0  0  0  0  0  0
  -19.1697   -7.8907   24.3589 C   0  0  0  0  0  0  0  0  0  0  0  0
  -25.8463  -24.8853   24.6039 C   0  0  0  0  0  0  0  0  0  0  0  0
  -28.2563  -19.6896   21.3692 C   0  0  0  0  0  0  0  0  0  0  0  0
  -27.4463  -19.5383   24.0345 C   0  0  0  0  0  0  0  0  0  0  0  0
  -20.5046   -6.3265   25.6272 C   0  0  0  0  0  0  0  0  0  0  0  0
  -24.0004  -10.4533   21.2257 C   0  0  0  0  0  0  0  0  0  0  0  0
  -24.0565  -12.9340   20.6335 C   0  0  0  0  0  0  0  0  0  0  0  0
  -18.4270  -28.1800   22.3466 C   0  0  0  0  0  0  0  0  0  0  0  0
  -23.6611  -25.5003   25.4445 C   0  0  0  0  0  0  0  0  0  0  0  0
  -19.7341  -27.6567   22.3317 C   0  0  0  0  0  0  0  0  0  0  0  0
  -24.9811  -25.8555   25.1323 C   0  0  0  0  0  0  0  0  0  0  0  0
  -28.8675  -18.7811   22.2334 C   0  0  0  0  0  0  0  0  0  0  0  0
  -26.8351  -20.4468   23.1704 C   0  0  0  0  0  0  0  0  0  0  0  0
  -22.7362   -8.0895   21.9981 C   0  0  0  0  0  0  0  0  0  0  0  0
  -25.4083  -23.5768   24.4010 C   0  0  0  0  0  0  0  0  0  0  0  0
  -21.2107   -7.0039   23.4182 C   0  0  0  0  0  0  0  0  0  0  0  0
  -19.3792   -7.1435   25.5179 C   0  0  0  0  0  0  0  0  0  0  0  0
  -21.4203   -6.2567   24.5773 C   0  0  0  0  0  0  0  0  0  0  0  0
  -28.4625  -18.7055   23.5660 C   0  0  0  0  0  0  0  0  0  0  0  0
  -27.2401  -20.5224   21.8378 C   0  0  0  0  0  0  0  0  0  0  0  0
  -24.6539  -11.6741   20.8274 C   0  0  0  0  0  0  0  0  0  0  0  0
  -25.0951  -13.7532   20.2639 C   0  0  0  0  0  0  0  0  0  0  0  0
  -22.6854  -13.3285   20.7750 C   0  0  0  0  0  0  0  0  0  0  0  0
  -22.7932  -28.3321   24.2908 C   0  0  0  0  0  0  0  0  0  0  0  0
  -24.9257  -29.4380   26.4708 C   0  0  0  0  0  0  0  0  0  0  0  0
  -27.6829  -28.8365   28.3898 C   0  0  0  0  0  0  0  0  0  0  0  0
  -30.3282  -15.5765   20.9248 C   0  0  0  0  0  0  0  0  0  0  0  0
  -18.1614  -29.6440   22.5929 C   0  0  0  0  0  0  0  0  0  0  0  0
  -22.7190  -26.5133   26.0350 C   0  0  0  0  0  0  0  0  0  0  0  0
  -25.4960  -27.2555   25.3407 C   0  0  0  0  0  0  0  0  0  0  0  0
  -19.3355  -30.3759   23.2380 C   0  0  0  0  0  0  0  0  0  0  0  0
  -29.8547  -12.6484   18.9552 C   0  0  0  0  0  0  0  0  0  0  0  0
  -20.6397  -30.0201   22.5315 C   0  0  0  0  0  0  0  0  0  0  0  0
  -28.4130  -12.2347   19.2556 C   0  0  0  0  0  0  0  0  0  0  0  0
  -30.5466  -13.2207   20.1904 C   0  0  0  0  0  0  0  0  0  0  0  0
  -28.3838  -13.9133   21.1478 C   0  0  0  0  0  0  0  0  0  0  0  0
  -20.9369  -28.5200   22.6447 C   0  0  1  0  0  0  0  0  0  0  0  0
  -23.1083  -27.9520   25.7099 C   0  0  1  0  0  0  0  0  0  0  0  0
  -27.6270  -13.3819   19.9185 C   0  0  2  0  0  0  0  0  0  0  0  0
  -29.2137  -29.9447   30.0408 C   0  0  0  0  0  0  0  0  0  0  0  0
  -26.2689  -30.9654   24.1964 C   0  0  0  0  0  0  0  0  0  0  0  0
  -28.2719  -31.2588   25.6696 C   0  0  0  0  0  0  0  0  0  0  0  0
  -26.0786  -32.2401   26.3397 C   0  0  0  0  0  0  0  0  0  0  0  0
  -26.9969  -26.8882   30.5093 C   0  0  0  0  0  0  0  0  0  0  0  0
  -29.9518  -17.9065   21.6919 C   0  0  0  0  0  0  0  0  0  0  0  0
  -25.7466  -21.3256   23.7127 C   0  0  0  0  0  0  0  0  0  1  0  0
  -26.4056  -29.7361   26.4627 C   0  0  1  0  0  0  0  0  0  0  0  0
  -27.9642  -29.0972   29.8586 C   0  0  2  0  0  0  0  0  0  0  0  0
  -26.7463  -31.0241   25.6612 C   0  0  0  0  0  0  0  0  0  0  0  0
  -25.9700  -11.6869   20.5996 N   0  0  0  0  0  0  0  0  0  0  0  0
  -26.2081  -12.9649   20.2587 N   0  0  0  0  0  0  0  0  0  0  0  0
  -24.5348  -28.2116   25.9148 N   0  0  0  0  0  0  0  0  0  0  0  0
  -29.7507  -14.3054   20.7702 N   0  0  0  0  0  0  0  0  0  0  0  0
  -25.1558  -15.0638   19.9460 N   0  0  0  0  0  0  0  0  0  0  0  0
  -21.7483  -12.3609   21.1622 N   0  0  0  0  0  0  0  0  0  0  0  0
  -21.4581  -28.2057   23.9577 N   0  0  0  0  0  0  0  0  0  0  0  0
  -26.8218  -29.7744   27.8605 N   0  0  0  0  0  0  0  0  0  0  0  0
  -29.5030  -16.5490   21.4762 N   0  0  0  0  0  0  0  0  0  0  0  0
  -28.1590  -27.8105   30.5849 N   0  3  0  0  0  0  0  0  0  0  0  0
  -22.2998  -14.5004   20.5483 O   0  0  0  0  0  0  0  0  0  0  0  0
  -23.6944  -28.7134   23.5531 O   0  0  0  0  0  0  0  0  0  0  0  0
  -24.1459  -30.2597   26.9590 O   0  0  0  0  0  0  0  0  0  0  0  0
  -28.1804  -27.8973   27.7727 O   0  0  0  0  0  0  0  0  0  0  0  0
  -31.4911  -15.8275   20.5908 O   0  0  0  0  0  0  0  0  0  0  0  0
  -22.1193   -6.9363   22.3754 O   0  0  0  0  0  0  0  0  0  0  0  0
  -26.2588  -22.6458   23.8894 O   0  0  0  0  0  0  0  0  0  1  0  0
  -18.5006   -7.2118   26.5266 F   0  0  0  0  0  0  0  0  0  0  0  0
  -22.5001   -5.4710   24.6884 F   0  0  0  0  0  0  0  0  0  0  0  0
  -29.1951  -17.5927   24.6633 Cl  0  0  0  0  0  0  0  0  0  0  0  0
  -26.5068  -21.6343   20.7397 Cl  0  0  0  0  0  0  0  0  0  0  0  0
  1  2  1  0  0  0  0
  1  5  2  0  0  0  0
  2  6  2  0  0  0  0
  3  8  2  0  0  0  0
  3 17  1  0  0  0  0
  4  9  1  0  0  0  0
  4 17  2  0  0  0  0
  5 19  1  0  0  0  0
  6 21  1  0  0  0  0
  7 10  2  0  0  0  0
  7 20  1  0  0  0  0
  8 25  1  0  0  0  0
  9 25  2  0  0  0  0
 10 26  1  0  0  0  0
 11 12  2  0  0  0  0
 11 27  1  0  0  0  0
 12 28  1  0  0  0  0
 13 22  1  0  0  0  0
 13 26  2  0  0  0  0
 14 23  2  0  0  0  0
 14 31  1  0  0  0  0
 15 24  1  0  0  0  0
 15 30  2  0  0  0  0
 16 28  2  0  0  0  0
 16 29  1  0  0  0  0
 17 32  1  0  0  0  0
 18 32  1  0  0  0  0
 18 33  2  0  0  0  0
 18 34  1  0  0  0  0
 19 21  2  0  0  0  0
 19 39  1  0  0  0  0
 20 22  2  0  0  0  0
 20 40  1  0  0  0  0
 21 48  1  0  0  0  0
 22 41  1  0  0  0  0
 23 30  1  0  0  0  0
 23 56  1  0  0  0  0
 24 31  2  0  0  0  0
 24 57  1  0  0  0  0
 25 76  1  0  0  0  0
 26 77  1  0  0  0  0
 27 29  2  0  0  0  0
 27 76  1  0  0  0  0
 28 78  1  0  0  0  0
 29 79  1  0  0  0  0
 30 80  1  0  0  0  0
 31 81  1  0  0  0  0
 32 61  2  0  0  0  0
 33 62  1  0  0  0  0
 33 65  1  0  0  0  0
 34 66  1  0  0  0  0
 34 71  2  0  0  0  0
 35 49  1  0  0  0  0
 35 67  1  0  0  0  0
 35 72  2  0  0  0  0
 36 58  1  0  0  0  0
 36 63  1  0  0  0  0
 36 73  2  0  0  0  0
 37 59  1  0  0  0  0
 37 68  1  0  0  0  0
 37 74  2  0  0  0  0
 38 64  1  0  0  0  0
 38 69  1  0  0  0  0
 38 75  2  0  0  0  0
 39 42  1  0  0  0  0
 40 49  1  0  0  0  0
 41 63  1  0  0  0  0
 42 44  1  0  0  0  0
 43 45  1  0  0  0  0
 43 46  1  0  0  0  0
 44 48  1  0  0  0  0
 45 50  1  0  0  0  0
 46 64  1  0  0  0  0
 47 50  1  0  0  0  0
 47 64  1  0  0  0  0
 48 67  1  0  0  0  0
 49 63  1  0  0  0  0
 50 62  1  0  0  0  0
 51 59  1  0  0  0  0
 52 60  1  0  0  0  0
 53 60  1  0  0  0  0
 54 60  1  0  0  0  0
 55 70  1  0  0  0  0
 56 69  1  0  0  0  0
 57 77  1  0  0  0  0
 58 60  1  0  0  0  0
 58 68  1  0  0  0  0
 59 70  1  0  0  0  0
 61 62  1  0  0  0  0
M  CHG  1  70   1
M  ISO  4  38 100  57 101  69 100  77 101
M  END
> <Batch ID>
0030

> <Smiles>
CNC(C)C(=O)NC(C(=O)N1Cc2cc([101O:1][101CH2:1]c3cc(Cl)c(C[100NH:0][100C:0](=O)N4CCCC(n5nc(-c6ccc(Oc7ccc(F)cc7F)cc6)c(C(N)=O)c5N)C4)cc3Cl)ccc2CC1C(=O)NC1CCCc2ccccc21)C(C)(C)C

> <Shape>
0.283

> <Color>
0.199

> <Negative vol penalty>
0.000

$$$$

  -OEChem-04052316393D

 84 92  0     1  0  0  0  0  0999 V2000
  -24.6589  -32.5841   28.6550 C   0  0  0  0  0  0  0  0  0  0  0  0
  -25.4829  -31.7698   27.8847 C   0  0  0  0  0  0  0  0  0  0  0  0
  -26.3156  -12.2858   21.4688 C   0  0  0  0  0  0  0  0  0  0  0  0
  -25.5417  -13.6187   19.6083 C   0  0  0  0  0  0  0  0  0  0  0  0
  -23.2852  -32.6075   28.4178 C   0  0  0  0  0  0  0  0  0  0  0  0
  -24.9334  -30.9776   26.8773 C   0  0  0  0  0  0  0  0  0  0  0  0
  -27.5015  -29.5488   21.5043 C   0  0  0  0  0  0  0  0  0  0  0  0
  -25.0046  -12.1695   21.9308 C   0  0  0  0  0  0  0  0  0  0  0  0
  -24.2307  -13.5023   20.0702 C   0  0  0  0  0  0  0  0  0  0  0  0
  -28.1913  -28.4196   21.0652 C   0  0  0  0  0  0  0  0  0  0  0  0
  -22.2543  -10.3482   21.1882 C   0  0  0  0  0  0  0  0  0  0  0  0
  -21.8206   -9.0872   21.5972 C   0  0  0  0  0  0  0  0  0  0  0  0
  -26.1515  -27.5506   20.1148 C   0  0  0  0  0  0  0  0  0  0  0  0
  -29.8709  -19.8902   16.7649 C   0  0  0  0  0  0  0  0  0  0  0  0
  -31.3258  -21.0144   18.3321 C   0  0  0  0  0  0  0  0  0  0  0  0
  -21.3836   -9.9550   23.8092 C   0  0  0  0  0  0  0  0  0  0  0  0
  -26.5842  -13.0105   20.3076 C   0  0  0  0  0  0  0  0  0  0  0  0
  -28.6047  -12.2716   18.9368 C   0  0  0  0  0  0  0  0  0  0  0  0
  -22.7198  -31.8225   27.4006 C   0  0  0  0  0  0  0  0  0  0  0  0
  -26.1270  -29.6825   21.2611 C   0  0  0  0  0  0  0  0  0  0  0  0
  -23.5506  -30.9895   26.6271 C   0  0  0  0  0  0  0  0  0  0  0  0
  -25.4471  -28.6836   20.5497 C   0  0  0  0  0  0  0  0  0  0  0  0
  -30.0888  -22.2955   16.6994 C   0  0  0  0  0  0  0  0  0  0  0  0
  -30.7682  -19.8379   17.8315 C   0  0  0  0  0  0  0  0  0  0  0  0
  -23.9622  -12.7777   21.2315 C   0  0  0  0  0  0  0  0  0  0  0  0
  -27.5157  -27.4189   20.3728 C   0  0  0  0  0  0  0  0  0  0  0  0
  -22.2527  -11.4126   22.0897 C   0  0  0  0  0  0  0  0  0  0  0  0
  -21.3853   -8.8905   22.9077 C   0  0  0  0  0  0  0  0  0  0  0  0
  -21.8173  -11.2160   23.4002 C   0  0  0  0  0  0  0  0  0  0  0  0
  -29.5312  -21.1190   16.1987 C   0  0  0  0  0  0  0  0  0  0  0  0
  -30.9861  -22.2432   17.7660 C   0  0  0  0  0  0  0  0  0  0  0  0
  -27.9383  -13.1315   19.8302 C   0  0  0  0  0  0  0  0  0  0  0  0
  -29.8582  -12.8175   18.8054 C   0  0  0  0  0  0  0  0  0  0  0  0
  -28.1329  -11.0855   18.2839 C   0  0  0  0  0  0  0  0  0  0  0  0
  -23.5382  -29.9209   23.0900 C   0  0  0  0  0  0  0  0  0  0  0  0
  -22.0545  -30.4240   20.2496 C   0  0  0  0  0  0  0  0  0  0  0  0
  -22.0606  -30.0020   16.8630 C   0  0  0  0  0  0  0  0  0  0  0  0
  -31.9864  -18.3614   19.4692 C   0  0  0  0  0  0  0  0  0  0  0  0
  -21.2236  -31.8455   27.2126 C   0  0  0  0  0  0  0  0  0  0  0  0
  -25.4029  -30.9192   21.7181 C   0  0  0  0  0  0  0  0  0  0  0  0
  -23.9758  -28.7887   20.2452 C   0  0  0  0  0  0  0  0  0  0  0  0
  -20.7681  -31.2589   25.8790 C   0  0  0  0  0  0  0  0  0  0  0  0
  -33.0687  -15.4437   21.1992 C   0  0  0  0  0  0  0  0  0  0  0  0
  -21.4778  -29.9363   25.6073 C   0  0  0  0  0  0  0  0  0  0  0  0
  -31.9393  -14.4394   20.9581 C   0  0  0  0  0  0  0  0  0  0  0  0
  -32.5360  -16.8647   21.3751 C   0  0  0  0  0  0  0  0  0  0  0  0
  -30.5234  -16.3299   20.0590 C   0  0  0  0  0  0  0  0  0  0  0  0
  -22.9952  -30.1345   25.5088 C   0  0  1  0  0  0  0  0  0  0  0  0
  -23.8986  -30.7112   21.8640 C   0  0  1  0  0  0  0  0  0  0  0  0
  -31.0157  -14.8946   19.8112 C   0  0  2  0  0  0  0  0  0  0  0  0
  -20.6952  -30.4894   14.8148 C   0  0  0  0  0  0  0  0  0  0  0  0
  -27.8790  -25.2865   15.7334 C   0  0  0  0  0  0  0  0  0  0  0  0
  -20.1383  -28.1691   20.9935 C   0  0  0  0  0  0  0  0  0  0  0  0
  -19.4390  -28.0649   18.5918 C   0  0  0  0  0  0  0  0  0  0  0  0
  -19.0534  -30.1459   19.9121 C   0  0  0  0  0  0  0  0  0  0  0  0
  -24.2175  -31.6430   15.6739 C   0  0  0  0  0  0  0  0  0  0  0  0
  -29.7213  -23.6253   16.0863 C   0  0  0  0  0  0  0  0  0  0  0  0
  -28.8774  -25.0062   18.0558 C   0  0  0  0  0  0  0  0  0  0  0  0
  -27.7054  -25.6831   18.7582 C   0  0  0  0  0  0  0  0  0  1  0  0
  -21.4059  -29.5409   19.2111 C   0  0  1  0  0  0  0  0  0  0  0  0
  -21.8109  -30.9765   15.7261 C   0  0  2  0  0  0  0  0  0  0  0  0
  -28.4947  -24.3048   16.7370 C   0  0  1  0  0  0  0  0  0  0  0  0
  -20.0365  -28.9770   19.6844 C   0  0  0  0  0  0  0  0  0  0  0  0
  -28.7050  -14.1464   20.2378 N   0  0  0  0  0  0  0  0  0  0  0  0
  -29.8662  -13.9277   19.5976 N   0  0  0  0  0  0  0  0  0  0  0  0
  -23.3107  -30.0140   20.7184 N   0  0  0  0  0  0  0  0  0  0  0  0
  -31.6727  -17.2284   20.2494 N   0  0  0  0  0  0  0  0  0  0  0  0
  -30.9434  -12.4513   18.0908 N   0  0  0  0  0  0  0  0  0  0  0  0
  -26.8188  -10.6651   18.5302 N   0  0  0  0  0  0  0  0  0  0  0  0
  -31.1126  -18.5896   18.4066 N   0  0  0  0  0  0  0  0  0  0  0  0
  -23.3495  -30.6920   24.2211 N   0  0  0  0  0  0  0  0  0  0  0  0
  -21.3354  -30.3332   17.9881 N   0  0  0  0  0  0  0  0  0  0  0  0
  -23.0453  -31.1458   14.9085 N   0  3  0  0  0  0  0  0  0  0  0  0
  -28.8605  -10.4092   17.5179 O   0  0  0  0  0  0  0  0  0  0  0  0
  -23.4372  -28.7019   23.0150 O   0  0  0  0  0  0  0  0  0  0  0  0
  -21.4714  -31.4439   20.6256 O   0  0  0  0  0  0  0  0  0  0  0  0
  -22.8199  -29.0409   16.7619 O   0  0  0  0  0  0  0  0  0  0  0  0
  -32.9741  -19.0609   19.7084 O   0  0  0  0  0  0  0  0  0  0  0  0
  -22.6828  -12.6642   21.6818 O   0  0  0  0  0  0  0  0  0  0  0  0
  -28.1864  -26.3154   19.9436 O   0  0  0  0  0  0  0  0  0  1  0  0
  -20.9674   -7.6799   23.3000 F   0  0  0  0  0  0  0  0  0  0  0  0
  -21.8124  -12.2351   24.2704 F   0  0  0  0  0  0  0  0  0  0  0  0
  -28.4183  -21.1378   14.8783 Cl  0  0  0  0  0  0  0  0  0  0  0  0
  -31.6997  -23.6751   18.4165 Cl  0  0  0  0  0  0  0  0  0  0  0  0
  1  2  1  0  0  0  0
  1  5  2  0  0  0  0
  2  6  2  0  0  0  0
  3  8  2  0  0  0  0
  3 17  1  0  0  0  0
  4  9  1  0  0  0  0
  4 17  2  0  0  0  0
  5 19  1  0  0  0  0
  6 21  1  0  0  0  0
  7 10  2  0  0  0  0
  7 20  1  0  0  0  0
  8 25  1  0  0  0  0
  9 25  2  0  0  0  0
 10 26  1  0  0  0  0
 11 12  2  0  0  0  0
 11 27  1  0  0  0  0
 12 28  1  0  0  0  0
 13 22  1  0  0  0  0
 13 26  2  0  0  0  0
 14 24  1  0  0  0  0
 14 30  2  0  0  0  0
 15 24  2  0  0  0  0
 15 31  1  0  0  0  0
 16 28  2  0  0  0  0
 16 29  1  0  0  0  0
 17 32  1  0  0  0  0
 18 32  1  0  0  0  0
 18 33  2  0  0  0  0
 18 34  1  0  0  0  0
 19 21  2  0  0  0  0
 19 39  1  0  0  0  0
 20 22  2  0  0  0  0
 20 40  1  0  0  0  0
 21 48  1  0  0  0  0
 22 41  1  0  0  0  0
 23 30  1  0  0  0  0
 23 31  2  0  0  0  0
 23 57  1  0  0  0  0
 24 70  1  0  0  0  0
 25 79  1  0  0  0  0
 26 80  1  0  0  0  0
 27 29  2  0  0  0  0
 27 79  1  0  0  0  0
 28 81  1  0  0  0  0
 29 82  1  0  0  0  0
 30 83  1  0  0  0  0
 31 84  1  0  0  0  0
 32 64  2  0  0  0  0
 33 65  1  0  0  0  0
 33 68  1  0  0  0  0
 34 69  1  0  0  0  0
 34 74  2  0  0  0  0
 35 49  1  0  0  0  0
 35 71  1  0  0  0  0
 35 75  2  0  0  0  0
 36 60  1  0  0  0  0
 36 66  1  0  0  0  0
 36 76  2  0  0  0  0
 37 61  1  0  0  0  0
 37 72  1  0  0  0  0
 37 77  2  0  0  0  0
 38 67  1  0  0  0  0
 38 70  1  0  0  0  0
 38 78  2  0  0  0  0
 39 42  1  0  0  0  0
 40 49  1  0  0  0  0
 41 66  1  0  0  0  0
 42 44  1  0  0  0  0
 43 45  1  0  0  0  0
 43 46  1  0  0  0  0
 44 48  1  0  0  0  0
 45 50  1  0  0  0  0
 46 67  1  0  0  0  0
 47 50  1  0  0  0  0
 47 67  1  0  0  0  0
 48 71  1  0  0  0  0
 49 66  1  0  0  0  0
 50 65  1  0  0  0  0
 51 61  1  0  0  0  0
 52 62  1  0  0  0  0
 53 63  1  0  0  0  0
 54 63  1  0  0  0  0
 55 63  1  0  0  0  0
 56 73  1  0  0  0  0
 57 62  1  0  0  0  0
 58 59  1  0  0  0  0
 58 62  1  0  0  0  0
 59 80  1  0  0  0  0
 60 63  1  0  0  0  0
 60 72  1  0  0  0  0
 61 73  1  0  0  0  0
 64 65  1  0  0  0  0
M  CHG  1  73   1
M  ISO  4  38 100  59 101  70 100  80 101
M  END
> <Batch ID>
0030

> <Smiles>
CNC(C)C(=O)NC(C(=O)N1Cc2cc([101O:1][101CH2:1]CC(C)Cc3c(Cl)cc([100NH:0][100C:0](=O)N4CCCC(n5nc(-c6ccc(Oc7ccc(F)cc7F)cc6)c(C(N)=O)c5N)C4)cc3Cl)ccc2CC1C(=O)NC1CCCc2ccccc21)C(C)(C)C

> <Shape>
0.244

> <Color>
0.092

> <Negative vol penalty>
0.000

$$$$

  -OEChem-04052316393D

 83 91  0     1  0  0  0  0  0999 V2000
  -22.1190  -10.9581   20.4120 C   0  0  0  0  0  0  0  0  0  0  0  0
  -21.8487  -12.0767   21.1937 C   0  0  0  0  0  0  0  0  0  0  0  0
  -25.1010  -27.8538   19.4005 C   0  0  0  0  0  0  0  0  0  0  0  0
  -25.4114  -25.7317   20.5130 C   0  0  0  0  0  0  0  0  0  0  0  0
  -23.4078  -10.7443   19.9250 C   0  0  0  0  0  0  0  0  0  0  0  0
  -22.8675  -12.9817   21.4898 C   0  0  0  0  0  0  0  0  0  0  0  0
  -22.3347  -19.0510   22.1108 C   0  0  0  0  0  0  0  0  0  0  0  0
  -26.4809  -28.0574   19.4038 C   0  0  0  0  0  0  0  0  0  0  0  0
  -26.7913  -25.9353   20.5162 C   0  0  0  0  0  0  0  0  0  0  0  0
  -22.2195  -19.8727   23.2311 C   0  0  0  0  0  0  0  0  0  0  0  0
  -29.8980  -29.3004   19.4422 C   0  0  0  0  0  0  0  0  0  0  0  0
  -30.3685  -30.5593   19.8155 C   0  0  0  0  0  0  0  0  0  0  0  0
  -24.5983  -20.2698   23.1771 C   0  0  0  0  0  0  0  0  0  0  0  0
  -29.3197  -30.3101   21.9777 C   0  0  0  0  0  0  0  0  0  0  0  0
  -23.1699  -25.3753   27.2502 C   0  0  0  0  0  0  0  0  0  0  0  0
  -24.5662  -26.6910   19.9552 C   0  0  0  0  0  0  0  0  0  0  0  0
  -22.3771  -25.8454   18.9549 C   0  0  0  0  0  0  0  0  0  0  0  0
  -24.4407  -11.6522   20.2072 C   0  0  0  0  0  0  0  0  0  0  0  0
  -23.5863  -18.8234   21.5207 C   0  0  0  0  0  0  0  0  0  0  0  0
  -24.1716  -12.7791   21.0072 C   0  0  0  0  0  0  0  0  0  0  0  0
  -24.7264  -19.4468   22.0478 C   0  0  0  0  0  0  0  0  0  0  0  0
  -23.1691  -22.9972   27.2132 C   0  0  0  0  0  0  0  0  0  0  0  0
  -27.3260  -27.0981   19.9616 C   0  0  0  0  0  0  0  0  0  0  0  0
  -23.3517  -20.4800   23.7662 C   0  0  0  0  0  0  0  0  0  0  0  0
  -29.1383  -28.5463   20.3366 C   0  0  0  0  0  0  0  0  0  0  0  0
  -30.0794  -31.0642   21.0832 C   0  0  0  0  0  0  0  0  0  0  0  0
  -28.8492  -29.0512   21.6043 C   0  0  0  0  0  0  0  0  0  0  0  0
  -23.8840  -24.1895   27.1888 C   0  0  0  0  0  0  0  0  0  0  0  0
  -21.7815  -23.0267   27.2973 C   0  0  0  0  0  0  0  0  0  0  0  0
  -23.1408  -26.4804   19.9526 C   0  0  0  0  0  0  0  0  0  0  0  0
  -21.1615  -24.2645   27.3541 C   0  0  0  0  0  0  0  0  0  0  0  0
  -21.0869  -25.9010   19.4227 C   0  0  0  0  0  0  0  0  0  0  0  0
  -22.7964  -25.2578   17.7162 C   0  0  0  0  0  0  0  0  0  0  0  0
  -25.4050  -16.2621   21.0354 C   0  0  0  0  0  0  0  0  0  0  0  0
  -27.2402  -18.3611   19.3776 C   0  0  0  0  0  0  0  0  0  0  0  0
  -28.1901  -21.5975   18.8580 C   0  0  0  0  0  0  0  0  0  0  0  0
  -18.7588  -26.3369   24.9219 C   0  0  0  0  0  0  0  0  0  0  0  0
  -25.8286  -11.3539   19.6980 C   0  0  0  0  0  0  0  0  0  0  0  0
  -23.6899  -17.9557   20.2965 C   0  0  0  0  0  0  0  0  0  0  0  0
  -26.0901  -19.2510   21.4393 C   0  0  0  0  0  0  0  0  0  0  0  0
  -26.7665  -12.5575   19.7454 C   0  0  0  0  0  0  0  0  0  0  0  0
  -18.2166  -28.5499   22.1860 C   0  0  0  0  0  0  0  0  0  0  0  0
  -26.6625  -13.2625   21.0941 C   0  0  0  0  0  0  0  0  0  0  0  0
  -19.3482  -28.2132   21.2133 C   0  0  0  0  0  0  0  0  0  0  0  0
  -18.6748  -28.4547   23.6396 C   0  0  0  0  0  0  0  0  0  0  0  0
  -20.4307  -26.8339   23.0367 C   0  0  0  0  0  0  0  0  0  0  0  0
  -25.2445  -13.7966   21.3295 C   0  0  1  0  0  0  0  0  0  0  0  0
  -25.0883  -17.3832   20.0865 C   0  0  1  0  0  0  0  0  0  0  0  0
  -20.0018  -26.8618   21.5597 C   0  0  2  0  0  0  0  0  0  0  0  0
  -29.3439  -23.5384   17.7630 C   0  0  0  0  0  0  0  0  0  0  0  0
  -29.6001  -17.4548   21.0864 C   0  0  0  0  0  0  0  0  0  0  0  0
  -30.8395  -19.4955   20.3331 C   0  0  0  0  0  0  0  0  0  0  0  0
  -30.1307  -17.7821   18.6644 C   0  0  0  0  0  0  0  0  0  0  0  0
  -25.9507  -22.0120   16.9680 C   0  0  0  0  0  0  0  0  0  0  0  0
  -23.9009  -21.6786   27.1494 C   0  0  0  0  0  0  0  0  0  0  0  0
  -19.6740  -24.3799   27.4451 C   0  0  0  0  0  0  0  0  0  0  0  0
  -18.9615  -24.1652   26.1059 C   0  0  0  0  0  0  0  0  0  0  0  0
  -24.3664  -21.3416   25.7370 C   0  0  0  0  0  0  0  0  0  1  0  0
  -28.3883  -19.2797   19.7197 C   0  0  1  0  0  0  0  0  0  0  0  0
  -28.3376  -22.4121   17.5855 C   0  0  2  0  0  0  0  0  0  0  0  0
  -29.7144  -18.5054   19.9638 C   0  0  0  0  0  0  0  0  0  0  0  0
  -21.8222  -25.4437   27.3325 N   0  0  0  0  0  0  0  0  0  0  0  0
  -22.3977  -26.9080   20.9768 N   0  0  0  0  0  0  0  0  0  0  0  0
  -21.1536  -26.5412   20.6252 N   0  0  0  0  0  0  0  0  0  0  0  0
  -26.1407  -18.3886   20.2471 N   0  0  0  0  0  0  0  0  0  0  0  0
  -19.2839  -27.1487   23.9029 N   0  0  0  0  0  0  0  0  0  0  0  0
  -19.9132  -25.4642   18.9186 N   0  0  0  0  0  0  0  0  0  0  0  0
  -24.1592  -25.2872   17.3903 N   0  0  0  0  0  0  0  0  0  0  0  0
  -25.0312  -15.0136   20.5760 N   0  0  0  0  0  0  0  0  0  0  0  0
  -28.4595  -20.2623   18.6438 N   0  0  0  0  0  0  0  0  0  0  0  0
  -19.3907  -25.1125   25.1012 N   0  0  0  0  0  0  0  0  0  0  0  0
  -27.0281  -23.0087   17.1977 N   0  3  0  0  0  0  0  0  0  0  0  0
  -21.9845  -24.7372   16.9141 O   0  0  0  0  0  0  0  0  0  0  0  0
  -25.9496  -16.5111   22.1046 O   0  0  0  0  0  0  0  0  0  0  0  0
  -27.3132  -17.6507   18.3718 O   0  0  0  0  0  0  0  0  0  0  0  0
  -27.8716  -22.0964   19.9351 O   0  0  0  0  0  0  0  0  0  0  0  0
  -17.7947  -26.6758   25.6166 O   0  0  0  0  0  0  0  0  0  0  0  0
  -28.6726  -27.2963   19.9648 O   0  0  0  0  0  0  0  0  0  0  0  0
  -23.2421  -21.2820   24.8601 O   0  0  0  0  0  0  0  0  0  1  0  0
  -30.5325  -32.2725   21.4421 F   0  0  0  0  0  0  0  0  0  0  0  0
  -28.1208  -28.3309   22.4683 F   0  0  0  0  0  0  0  0  0  0  0  0
  -25.6005  -24.2368   27.0851 Cl  0  0  0  0  0  0  0  0  0  0  0  0
  -20.8579  -21.5682   27.3314 Cl  0  0  0  0  0  0  0  0  0  0  0  0
  1  2  1  0  0  0  0
  1  5  2  0  0  0  0
  2  6  2  0  0  0  0
  3  8  2  0  0  0  0
  3 16  1  0  0  0  0
  4  9  1  0  0  0  0
  4 16  2  0  0  0  0
  5 18  1  0  0  0  0
  6 20  1  0  0  0  0
  7 10  2  0  0  0  0
  7 19  1  0  0  0  0
  8 23  1  0  0  0  0
  9 23  2  0  0  0  0
 10 24  1  0  0  0  0
 11 12  2  0  0  0  0
 11 25  1  0  0  0  0
 12 26  1  0  0  0  0
 13 21  1  0  0  0  0
 13 24  2  0  0  0  0
 14 26  2  0  0  0  0
 14 27  1  0  0  0  0
 15 28  2  0  0  0  0
 15 62  1  0  0  0  0
 16 30  1  0  0  0  0
 17 30  1  0  0  0  0
 17 32  2  0  0  0  0
 17 33  1  0  0  0  0
 18 20  2  0  0  0  0
 18 38  1  0  0  0  0
 19 21  2  0  0  0  0
 19 39  1  0  0  0  0
 20 47  1  0  0  0  0
 21 40  1  0  0  0  0
 22 28  1  0  0  0  0
 22 29  2  0  0  0  0
 22 55  1  0  0  0  0
 23 78  1  0  0  0  0
 24 79  1  0  0  0  0
 25 27  2  0  0  0  0
 25 78  1  0  0  0  0
 26 80  1  0  0  0  0
 27 81  1  0  0  0  0
 28 82  1  0  0  0  0
 29 31  1  0  0  0  0
 29 83  1  0  0  0  0
 30 63  2  0  0  0  0
 31 56  1  0  0  0  0
 31 62  2  0  0  0  0
 32 64  1  0  0  0  0
 32 67  1  0  0  0  0
 33 68  1  0  0  0  0
 33 73  2  0  0  0  0
 34 48  1  0  0  0  0
 34 69  1  0  0  0  0
 34 74  2  0  0  0  0
 35 59  1  0  0  0  0
 35 65  1  0  0  0  0
 35 75  2  0  0  0  0
 36 60  1  0  0  0  0
 36 70  1  0  0  0  0
 36 76  2  0  0  0  0
 37 66  1  0  0  0  0
 37 71  1  0  0  0  0
 37 77  2  0  0  0  0
 38 41  1  0  0  0  0
 39 48  1  0  0  0  0
 40 65  1  0  0  0  0
 41 43  1  0  0  0  0
 42 44  1  0  0  0  0
 42 45  1  0  0  0  0
 43 47  1  0  0  0  0
 44 49  1  0  0  0  0
 45 66  1  0  0  0  0
 46 49  1  0  0  0  0
 46 66  1  0  0  0  0
 47 69  1  0  0  0  0
 48 65  1  0  0  0  0
 49 64  1  0  0  0  0
 50 60  1  0  0  0  0
 51 61  1  0  0  0  0
 52 61  1  0  0  0  0
 53 61  1  0  0  0  0
 54 72  1  0  0  0  0
 55 58  1  0  0  0  0
 56 57  1  0  0  0  0
 57 71  1  0  0  0  0
 58 79  1  0  0  0  0
 59 61  1  0  0  0  0
 59 70  1  0  0  0  0
 60 72  1  0  0  0  0
 63 64  1  0  0  0  0
M  CHG  1  72   1
M  ISO  4  37 100  58 101  71 100  79 101
M  END
> <Batch ID>
0030

> <Smiles>
CNC(C)C(=O)NC(C(=O)N1Cc2cc([101O:1][101CH2:1]Cc3c(Cl)cnc(CC[100NH:0][100C:0](=O)N4CCCC(n5nc(-c6ccc(Oc7ccc(F)cc7F)cc6)c(C(N)=O)c5N)C4)c3Cl)ccc2CC1C(=O)NC1CCCc2ccccc21)C(C)(C)C

> <Shape>
0.190

> <Color>
0.070

> <Negative vol penalty>
0.000

$$$$

  -OEChem-04052316393D

 81 89  0     1  0  0  0  0  0999 V2000
  -27.3769  -36.5420   19.2336 C   0  0  0  0  0  0  0  0  0  0  0  0
  -27.8095  -35.2463   19.4970 C   0  0  0  0  0  0  0  0  0  0  0  0
  -26.3018  -12.3099   21.1272 C   0  0  0  0  0  0  0  0  0  0  0  0
  -24.6468  -13.7922   20.1778 C   0  0  0  0  0  0  0  0  0  0  0  0
  -26.2991  -37.0732   19.9407 C   0  0  0  0  0  0  0  0  0  0  0  0
  -27.1650  -34.4813   20.4686 C   0  0  0  0  0  0  0  0  0  0  0  0
  -26.2749  -29.7387   18.9323 C   0  0  0  0  0  0  0  0  0  0  0  0
  -25.2986  -11.3957   21.4487 C   0  0  0  0  0  0  0  0  0  0  0  0
  -23.6436  -12.8779   20.4994 C   0  0  0  0  0  0  0  0  0  0  0  0
  -27.3488  -28.8499   18.9552 C   0  0  0  0  0  0  0  0  0  0  0  0
  -23.4605   -9.0503   19.8509 C   0  0  0  0  0  0  0  0  0  0  0  0
  -23.6930   -7.7052   19.5641 C   0  0  0  0  0  0  0  0  0  0  0  0
  -26.5392  -27.9347   21.0351 C   0  0  0  0  0  0  0  0  0  0  0  0
  -28.3442  -23.8324   20.6333 C   0  0  0  0  0  0  0  0  0  0  0  0
  -23.4481   -7.1636   21.9059 C   0  0  0  0  0  0  0  0  0  0  0  0
  -25.9759  -13.5082   20.4918 C   0  0  0  0  0  0  0  0  0  0  0  0
  -27.7535  -14.5167   18.9652 C   0  0  0  0  0  0  0  0  0  0  0  0
  -25.6349  -36.3110   20.9146 C   0  0  0  0  0  0  0  0  0  0  0  0
  -25.3295  -29.7396   19.9680 C   0  0  0  0  0  0  0  0  0  0  0  0
  -26.0781  -35.0033   21.1903 C   0  0  0  0  0  0  0  0  0  0  0  0
  -25.4528  -28.8228   21.0217 C   0  0  0  0  0  0  0  0  0  0  0  0
  -27.3653  -22.8167   20.5021 C   0  0  0  0  0  0  0  0  0  0  0  0
  -23.9695  -11.6797   21.1348 C   0  0  0  0  0  0  0  0  0  0  0  0
  -27.4827  -27.9496   20.0081 C   0  0  0  0  0  0  0  0  0  0  0  0
  -23.2218   -9.4521   21.1652 C   0  0  0  0  0  0  0  0  0  0  0  0
  -23.6868   -6.7618   20.5916 C   0  0  0  0  0  0  0  0  0  0  0  0
  -23.2156   -8.5087   22.1927 C   0  0  0  0  0  0  0  0  0  0  0  0
  -27.0117  -14.4532   20.1599 C   0  0  0  0  0  0  0  0  0  0  0  0
  -28.6950  -24.2322   19.3627 C   0  0  0  0  0  0  0  0  0  0  0  0
  -28.6028  -15.5811   19.1444 C   0  0  0  0  0  0  0  0  0  0  0  0
  -27.1479  -22.6266   19.1553 C   0  0  0  0  0  0  0  0  0  0  0  0
  -27.6814  -13.6875   17.7977 C   0  0  0  0  0  0  0  0  0  0  0  0
  -24.3782  -31.8615   22.1350 C   0  0  0  0  0  0  0  0  0  0  0  0
  -22.1641  -29.5910   22.8168 C   0  0  0  0  0  0  0  0  0  0  0  0
  -21.2724  -26.2977   22.7383 C   0  0  0  0  0  0  0  0  0  0  0  0
  -28.3283  -20.4844   22.5699 C   0  0  0  0  0  0  0  0  0  0  0  0
  -24.5047  -36.9448   21.6863 C   0  0  0  0  0  0  0  0  0  0  0  0
  -24.1621  -30.6866   19.9149 C   0  0  0  0  0  0  0  0  0  0  0  0
  -24.4537  -28.7695   22.1475 C   0  0  0  0  0  0  0  0  0  0  0  0
  -23.6385  -35.9363   22.4364 C   0  0  0  0  0  0  0  0  0  0  0  0
  -30.8892  -18.0109   22.5737 C   0  0  0  0  0  0  0  0  0  0  0  0
  -24.5121  -34.9366   23.1876 C   0  0  0  0  0  0  0  0  0  0  0  0
  -30.2528  -16.8243   21.8477 C   0  0  0  0  0  0  0  0  0  0  0  0
  -29.8735  -18.7540   23.4386 C   0  0  0  0  0  0  0  0  0  0  0  0
  -28.0177  -17.9985   22.0037 C   0  0  0  0  0  0  0  0  0  0  0  0
  -25.3890  -34.1335   22.2193 C   0  0  1  0  0  0  0  0  0  0  0  0
  -23.5421  -30.9480   21.2841 C   0  0  1  0  0  0  0  0  0  0  0  0
  -28.9902  -17.2513   21.0751 C   0  0  2  0  0  0  0  0  0  0  0  0
  -19.4191  -24.7423   23.4038 C   0  0  0  0  0  0  0  0  0  0  0  0
  -23.0739  -29.7550   25.7246 C   0  0  0  0  0  0  0  0  0  0  0  0
  -21.9068  -27.5792   26.1396 C   0  0  0  0  0  0  0  0  0  0  0  0
  -20.5988  -29.5757   25.4145 C   0  0  0  0  0  0  0  0  0  0  0  0
  -28.0485  -23.6210   17.0315 C   0  0  0  0  0  0  0  0  0  0  0  0
  -20.7985  -25.4763   19.9348 C   0  0  0  0  0  0  0  0  0  0  0  0
  -26.7065  -22.1008   21.6127 C   0  0  0  0  0  0  0  0  0  0  0  0
  -29.6882  -25.2787   18.9191 C   0  0  0  0  0  0  0  0  0  0  0  0
  -29.0525  -26.6571   18.7748 C   0  0  0  0  0  0  0  0  0  1  0  0
  -22.1002  -28.4062   23.7501 C   0  0  1  0  0  0  0  0  0  0  0  0
  -19.9932  -25.6108   22.2953 C   0  0  2  0  0  0  0  0  0  0  0  0
  -21.9400  -28.8311   25.2371 C   0  0  0  0  0  0  0  0  0  0  0  0
  -27.3593  -15.4018   21.0337 N   0  0  0  0  0  0  0  0  0  0  0  0
  -27.9617  -23.4922   18.4723 N   0  0  0  0  0  0  0  0  0  0  0  0
  -28.3289  -16.0713   20.3874 N   0  0  0  0  0  0  0  0  0  0  0  0
  -23.3333  -29.7199   22.0537 N   0  0  0  0  0  0  0  0  0  0  0  0
  -28.7012  -19.1323   22.6458 N   0  0  0  0  0  0  0  0  0  0  0  0
  -29.5498  -16.1362   18.3586 N   0  0  0  0  0  0  0  0  0  0  0  0
  -26.7527  -12.6380   17.7799 N   0  0  0  0  0  0  0  0  0  0  0  0
  -24.6101  -33.1010   21.5699 N   0  0  0  0  0  0  0  0  0  0  0  0
  -21.0262  -27.5528   23.2535 N   0  0  0  0  0  0  0  0  0  0  0  0
  -27.2093  -20.7570   21.7925 N   0  0  0  0  0  0  0  0  0  0  0  0
  -20.2531  -24.7474   21.1087 N   0  3  0  0  0  0  0  0  0  0  0  0
  -28.4299  -13.8618   16.8063 O   0  0  0  0  0  0  0  0  0  0  0  0
  -24.7817  -31.4713   23.2243 O   0  0  0  0  0  0  0  0  0  0  0  0
  -21.2087  -30.3694   22.7614 O   0  0  0  0  0  0  0  0  0  0  0  0
  -22.3791  -25.7720   22.6407 O   0  0  0  0  0  0  0  0  0  0  0  0
  -28.9499  -21.3827   23.1475 O   0  0  0  0  0  0  0  0  0  0  0  0
  -22.9903  -10.7877   21.4482 O   0  0  0  0  0  0  0  0  0  0  0  0
  -28.5303  -27.0814   20.0332 O   0  0  0  0  0  0  0  0  0  1  0  0
  -23.9086   -5.4700   20.3159 F   0  0  0  0  0  0  0  0  0  0  0  0
  -22.9858   -8.8885   23.4571 F   0  0  0  0  0  0  0  0  0  0  0  0
  -26.1094  -21.5675   18.3221 Cl  0  0  0  0  0  0  0  0  0  0  0  0
  1  2  1  0  0  0  0
  1  5  2  0  0  0  0
  2  6  2  0  0  0  0
  3  8  2  0  0  0  0
  3 16  1  0  0  0  0
  4  9  1  0  0  0  0
  4 16  2  0  0  0  0
  5 18  1  0  0  0  0
  6 20  1  0  0  0  0
  7 10  2  0  0  0  0
  7 19  1  0  0  0  0
  8 23  1  0  0  0  0
  9 23  2  0  0  0  0
 10 24  1  0  0  0  0
 11 12  2  0  0  0  0
 11 25  1  0  0  0  0
 12 26  1  0  0  0  0
 13 21  1  0  0  0  0
 13 24  2  0  0  0  0
 14 22  1  0  0  0  0
 14 29  2  0  0  0  0
 15 26  2  0  0  0  0
 15 27  1  0  0  0  0
 16 28  1  0  0  0  0
 17 28  1  0  0  0  0
 17 30  2  0  0  0  0
 17 32  1  0  0  0  0
 18 20  2  0  0  0  0
 18 37  1  0  0  0  0
 19 21  2  0  0  0  0
 19 38  1  0  0  0  0
 20 46  1  0  0  0  0
 21 39  1  0  0  0  0
 22 31  2  0  0  0  0
 22 55  1  0  0  0  0
 23 77  1  0  0  0  0
 24 78  1  0  0  0  0
 25 27  2  0  0  0  0
 25 77  1  0  0  0  0
 26 79  1  0  0  0  0
 27 80  1  0  0  0  0
 28 61  2  0  0  0  0
 29 56  1  0  0  0  0
 29 62  1  0  0  0  0
 30 63  1  0  0  0  0
 30 66  1  0  0  0  0
 31 62  1  0  0  0  0
 31 81  1  0  0  0  0
 32 67  1  0  0  0  0
 32 72  2  0  0  0  0
 33 47  1  0  0  0  0
 33 68  1  0  0  0  0
 33 73  2  0  0  0  0
 34 58  1  0  0  0  0
 34 64  1  0  0  0  0
 34 74  2  0  0  0  0
 35 59  1  0  0  0  0
 35 69  1  0  0  0  0
 35 75  2  0  0  0  0
 36 65  1  0  0  0  0
 36 70  1  0  0  0  0
 36 76  2  0  0  0  0
 37 40  1  0  0  0  0
 38 47  1  0  0  0  0
 39 64  1  0  0  0  0
 40 42  1  0  0  0  0
 41 43  1  0  0  0  0
 41 44  1  0  0  0  0
 42 46  1  0  0  0  0
 43 48  1  0  0  0  0
 44 65  1  0  0  0  0
 45 48  1  0  0  0  0
 45 65  1  0  0  0  0
 46 68  1  0  0  0  0
 47 64  1  0  0  0  0
 48 63  1  0  0  0  0
 49 59  1  0  0  0  0
 50 60  1  0  0  0  0
 51 60  1  0  0  0  0
 52 60  1  0  0  0  0
 53 62  1  0  0  0  0
 54 71  1  0  0  0  0
 55 70  1  0  0  0  0
 56 57  1  0  0  0  0
 57 78  1  0  0  0  0
 58 60  1  0  0  0  0
 58 69  1  0  0  0  0
 59 71  1  0  0  0  0
 61 63  1  0  0  0  0
M  CHG  1  71   1
M  ISO  4  36 100  57 101  70 100  78 101
M  END
> <Batch ID>
0030

> <Smiles>
CNC(C)C(=O)NC(C(=O)N1Cc2cc([101O:1][101CH2:1]Cc3cc(C[100NH:0][100C:0](=O)N4CCCC(n5nc(-c6ccc(Oc7ccc(F)cc7F)cc6)c(C(N)=O)c5N)C4)c(Cl)n3C)ccc2CC1C(=O)NC1CCCc2ccccc21)C(C)(C)C

> <Shape>
0.270

> <Color>
0.070

> <Negative vol penalty>
0.000

$$$$

  -OEChem-04052316393D

 83 91  0     1  0  0  0  0  0999 V2000
  -34.1808  -28.1963   20.2733 C   0  0  0  0  0  0  0  0  0  0  0  0
  -33.3587  -27.4857   21.1420 C   0  0  0  0  0  0  0  0  0  0  0  0
  -22.9023  -10.0468   20.0151 C   0  0  0  0  0  0  0  0  0  0  0  0
  -23.6706  -10.0219   22.3055 C   0  0  0  0  0  0  0  0  0  0  0  0
  -33.6345  -28.8215   19.1532 C   0  0  0  0  0  0  0  0  0  0  0  0
  -31.9895  -27.4009   20.8916 C   0  0  0  0  0  0  0  0  0  0  0  0
  -30.1878  -22.7093   21.5140 C   0  0  0  0  0  0  0  0  0  0  0  0
  -30.4669  -18.1212   25.7113 C   0  0  0  0  0  0  0  0  0  0  0  0
  -29.5710  -19.1242   26.0813 C   0  0  0  0  0  0  0  0  0  0  0  0
  -22.0896   -8.9436   20.2757 C   0  0  0  0  0  0  0  0  0  0  0  0
  -22.8578   -8.9187   22.5662 C   0  0  0  0  0  0  0  0  0  0  0  0
  -29.9679  -22.2800   22.8221 C   0  0  0  0  0  0  0  0  0  0  0  0
  -22.9405   -5.5814   22.0305 C   0  0  0  0  0  0  0  0  0  0  0  0
  -23.4943   -4.5248   22.7532 C   0  0  0  0  0  0  0  0  0  0  0  0
  -27.6153  -22.7530   22.5754 C   0  0  0  0  0  0  0  0  0  0  0  0
  -28.7766  -17.1336   24.2954 C   0  0  0  0  0  0  0  0  0  0  0  0
  -21.8140   -4.8146   24.4648 C   0  0  0  0  0  0  0  0  0  0  0  0
  -23.6929  -10.5860   21.0300 C   0  0  0  0  0  0  0  0  0  0  0  0
  -24.1897  -13.0843   20.8914 C   0  0  0  0  0  0  0  0  0  0  0  0
  -32.2595  -28.7362   18.8838 C   0  0  0  0  0  0  0  0  0  0  0  0
  -29.1230  -23.1747   20.7291 C   0  0  0  0  0  0  0  0  0  0  0  0
  -31.4241  -28.0267   19.7676 C   0  0  0  0  0  0  0  0  0  0  0  0
  -27.8240  -23.1853   21.2568 C   0  0  0  0  0  0  0  0  0  0  0  0
  -30.0697  -17.1259   24.8183 C   0  0  0  0  0  0  0  0  0  0  0  0
  -28.2779  -19.1319   25.5584 C   0  0  0  0  0  0  0  0  0  0  0  0
  -22.0673   -8.3795   21.5512 C   0  0  0  0  0  0  0  0  0  0  0  0
  -28.6820  -22.3045   23.3540 C   0  0  0  0  0  0  0  0  0  0  0  0
  -21.8234   -6.2548   22.5250 C   0  0  0  0  0  0  0  0  0  0  0  0
  -22.9311   -4.1413   23.9703 C   0  0  0  0  0  0  0  0  0  0  0  0
  -21.2601   -5.8713   23.7421 C   0  0  0  0  0  0  0  0  0  0  0  0
  -27.8806  -18.1366   24.6655 C   0  0  0  0  0  0  0  0  0  0  0  0
  -24.5331  -11.7253   20.7613 C   0  0  0  0  0  0  0  0  0  0  0  0
  -25.3246  -13.7624   20.5190 C   0  0  0  0  0  0  0  0  0  0  0  0
  -22.9553  -13.6805   21.3115 C   0  0  0  0  0  0  0  0  0  0  0  0
  -28.4075  -25.9381   19.3308 C   0  0  0  0  0  0  0  0  0  0  0  0
  -25.9454  -24.2274   18.0925 C   0  0  0  0  0  0  0  0  0  0  0  0
  -23.8581  -21.5411   18.3643 C   0  0  0  0  0  0  0  0  0  0  0  0
  -30.8616  -14.4414   20.6801 C   0  0  0  0  0  0  0  0  0  0  0  0
  -31.7076  -29.4683   17.6862 C   0  0  0  0  0  0  0  0  0  0  0  0
  -29.3727  -23.6092   19.3109 C   0  0  0  0  0  0  0  0  0  0  0  0
  -26.6436  -23.6566   20.4488 C   0  0  0  0  0  0  0  0  0  0  0  0
  -30.3047  -29.0162   17.2892 C   0  0  0  0  0  0  0  0  0  0  0  0
  -29.5689  -12.1161   18.3139 C   0  0  0  0  0  0  0  0  0  0  0  0
  -29.4053  -28.9257   18.5179 C   0  0  0  0  0  0  0  0  0  0  0  0
  -28.1179  -11.9148   18.7542 C   0  0  0  0  0  0  0  0  0  0  0  0
  -30.5029  -12.2877   19.5099 C   0  0  0  0  0  0  0  0  0  0  0  0
  -28.6557  -13.1442   20.8984 C   0  0  0  0  0  0  0  0  0  0  0  0
  -29.9380  -27.8911   19.5166 C   0  0  1  0  0  0  0  0  0  0  0  0
  -28.2952  -24.5468   18.7748 C   0  0  1  0  0  0  0  0  0  0  0  0
  -27.6678  -13.0224   19.7256 C   0  0  2  0  0  0  0  0  0  0  0  0
  -21.9226  -20.4266   17.2202 C   0  0  0  0  0  0  0  0  0  0  0  0
  -24.0714  -26.3806   19.1704 C   0  0  0  0  0  0  0  0  0  0  0  0
  -22.1686  -24.7845   18.8543 C   0  0  0  0  0  0  0  0  0  0  0  0
  -23.4959  -25.5460   16.8842 C   0  0  0  0  0  0  0  0  0  0  0  0
  -25.3996  -19.0529   17.9270 C   0  0  0  0  0  0  0  0  0  0  0  0
  -31.0275  -16.0533   24.4227 C   0  0  0  0  0  0  0  0  0  0  0  0
  -27.3389  -20.2341   25.9849 C   0  0  0  0  0  0  0  0  0  0  0  0
  -31.8765  -16.3829   23.1790 C   0  0  0  0  0  0  0  0  0  0  0  0
  -31.0654  -16.5919   21.9020 C   0  0  0  0  0  0  0  0  0  0  0  0
  -27.1898  -21.3137   24.9185 C   0  0  0  0  0  0  0  0  0  1  0  0
  -24.5310  -23.9236   18.5239 C   0  0  1  0  0  0  0  0  0  0  0  0
  -23.4360  -20.4874   17.3564 C   0  0  2  0  0  0  0  0  0  0  0  0
  -23.5890  -25.1516   18.3743 C   0  0  0  0  0  0  0  0  0  0  0  0
  -25.7879  -11.5486   20.3390 N   0  0  0  0  0  0  0  0  0  0  0  0
  -26.2429  -12.8055   20.2005 N   0  0  0  0  0  0  0  0  0  0  0  0
  -26.9398  -24.0773   19.0694 N   0  0  0  0  0  0  0  0  0  0  0  0
  -30.0206  -13.3542   20.3908 N   0  0  0  0  0  0  0  0  0  0  0  0
  -25.6167  -15.0777   20.4361 N   0  0  0  0  0  0  0  0  0  0  0  0
  -21.8905  -12.8379   21.6587 N   0  0  0  0  0  0  0  0  0  0  0  0
  -29.6192  -26.5506   19.0739 N   0  0  0  0  0  0  0  0  0  0  0  0
  -24.1133  -22.7535   17.7592 N   0  0  0  0  0  0  0  0  0  0  0  0
  -30.3245  -15.4111   21.5179 N   0  0  0  0  0  0  0  0  0  0  0  0
  -23.9244  -19.1436   17.7767 N   0  3  0  0  0  0  0  0  0  0  0  0
  -22.7958  -14.9237   21.3613 O   0  0  0  0  0  0  0  0  0  0  0  0
  -27.4641  -26.4208   19.9461 O   0  0  0  0  0  0  0  0  0  0  0  0
  -26.1608  -24.5779   16.9295 O   0  0  0  0  0  0  0  0  0  0  0  0
  -23.9484  -21.3127   19.5686 O   0  0  0  0  0  0  0  0  0  0  0  0
  -32.0044  -14.5433   20.2211 O   0  0  0  0  0  0  0  0  0  0  0  0
  -21.2742   -7.3031   21.8059 O   0  0  0  0  0  0  0  0  0  0  0  0
  -28.4646  -21.8867   24.6307 O   0  0  0  0  0  0  0  0  0  1  0  0
  -23.4621   -3.1256   24.6635 F   0  0  0  0  0  0  0  0  0  0  0  0
  -20.1862   -6.5136   24.2216 F   0  0  0  0  0  0  0  0  0  0  0  0
  -26.2884  -18.1137   23.9993 Cl  0  0  0  0  0  0  0  0  0  0  0  0
  1  2  1  0  0  0  0
  1  5  2  0  0  0  0
  2  6  2  0  0  0  0
  3 10  2  0  0  0  0
  3 18  1  0  0  0  0
  4 11  1  0  0  0  0
  4 18  2  0  0  0  0
  5 20  1  0  0  0  0
  6 22  1  0  0  0  0
  7 12  2  0  0  0  0
  7 21  1  0  0  0  0
  8  9  2  0  0  0  0
  8 24  1  0  0  0  0
  9 25  1  0  0  0  0
 10 26  1  0  0  0  0
 11 26  2  0  0  0  0
 12 27  1  0  0  0  0
 13 14  2  0  0  0  0
 13 28  1  0  0  0  0
 14 29  1  0  0  0  0
 15 23  1  0  0  0  0
 15 27  2  0  0  0  0
 16 24  2  0  0  0  0
 16 31  1  0  0  0  0
 17 29  2  0  0  0  0
 17 30  1  0  0  0  0
 18 32  1  0  0  0  0
 19 32  1  0  0  0  0
 19 33  2  0  0  0  0
 19 34  1  0  0  0  0
 20 22  2  0  0  0  0
 20 39  1  0  0  0  0
 21 23  2  0  0  0  0
 21 40  1  0  0  0  0
 22 48  1  0  0  0  0
 23 41  1  0  0  0  0
 24 56  1  0  0  0  0
 25 31  2  0  0  0  0
 25 57  1  0  0  0  0
 26 79  1  0  0  0  0
 27 80  1  0  0  0  0
 28 30  2  0  0  0  0
 28 79  1  0  0  0  0
 29 81  1  0  0  0  0
 30 82  1  0  0  0  0
 31 83  1  0  0  0  0
 32 64  2  0  0  0  0
 33 65  1  0  0  0  0
 33 68  1  0  0  0  0
 34 69  1  0  0  0  0
 34 74  2  0  0  0  0
 35 49  1  0  0  0  0
 35 70  1  0  0  0  0
 35 75  2  0  0  0  0
 36 61  1  0  0  0  0
 36 66  1  0  0  0  0
 36 76  2  0  0  0  0
 37 62  1  0  0  0  0
 37 71  1  0  0  0  0
 37 77  2  0  0  0  0
 38 67  1  0  0  0  0
 38 72  1  0  0  0  0
 38 78  2  0  0  0  0
 39 42  1  0  0  0  0
 40 49  1  0  0  0  0
 41 66  1  0  0  0  0
 42 44  1  0  0  0  0
 43 45  1  0  0  0  0
 43 46  1  0  0  0  0
 44 48  1  0  0  0  0
 45 50  1  0  0  0  0
 46 67  1  0  0  0  0
 47 50  1  0  0  0  0
 47 67  1  0  0  0  0
 48 70  1  0  0  0  0
 49 66  1  0  0  0  0
 50 65  1  0  0  0  0
 51 62  1  0  0  0  0
 52 63  1  0  0  0  0
 53 63  1  0  0  0  0
 54 63  1  0  0  0  0
 55 73  1  0  0  0  0
 56 58  1  0  0  0  0
 57 60  1  0  0  0  0
 58 59  1  0  0  0  0
 59 72  1  0  0  0  0
 60 80  1  0  0  0  0
 61 63  1  0  0  0  0
 61 71  1  0  0  0  0
 62 73  1  0  0  0  0
 64 65  1  0  0  0  0
M  CHG  1  73   1
M  ISO  4  38 100  60 101  72 100  80 101
M  END
> <Batch ID>
0030

> <Smiles>
CNC(C)C(=O)NC(C(=O)N1Cc2cc([101O:1][101CH2:1]Cc3ccc(CCC[100NH:0][100C:0](=O)N4CCCC(n5nc(-c6ccc(Oc7ccc(F)cc7F)cc6)c(C(N)=O)c5N)C4)cc3Cl)ccc2CC1C(=O)NC1CCCc2ccccc21)C(C)(C)C

> <Shape>
0.236

> <Color>
0.210

> <Negative vol penalty>
0.000

$$$$

  -OEChem-04052316393D

 85 94  0     1  0  0  0  0  0999 V2000
  -31.9804  -15.5157   20.8005 C   0  0  0  0  0  0  0  0  0  0  0  0
  -30.9600  -16.4610   20.8253 C   0  0  0  0  0  0  0  0  0  0  0  0
  -28.7237  -26.1886   19.9224 C   0  0  0  0  0  0  0  0  0  0  0  0
  -26.7322  -25.3991   18.8054 C   0  0  0  0  0  0  0  0  0  0  0  0
  -31.6927  -14.1893   20.4812 C   0  0  0  0  0  0  0  0  0  0  0  0
  -29.6514  -16.0806   20.5298 C   0  0  0  0  0  0  0  0  0  0  0  0
  -24.5178  -18.3220   23.0053 C   0  0  0  0  0  0  0  0  0  0  0  0
  -29.3595  -24.9787   19.6441 C   0  0  0  0  0  0  0  0  0  0  0  0
  -27.3681  -24.1891   18.5271 C   0  0  0  0  0  0  0  0  0  0  0  0
  -23.6060  -19.2811   22.5665 C   0  0  0  0  0  0  0  0  0  0  0  0
  -28.3430  -20.7567   17.8360 C   0  0  0  0  0  0  0  0  0  0  0  0
  -27.6247  -19.5813   18.0556 C   0  0  0  0  0  0  0  0  0  0  0  0
  -22.1999  -17.5315   21.6830 C   0  0  0  0  0  0  0  0  0  0  0  0
  -27.3991  -20.1555   20.3915 C   0  0  0  0  0  0  0  0  0  0  0  0
  -27.4100  -26.3988   19.5031 C   0  0  0  0  0  0  0  0  0  0  0  0
  -26.7414  -28.8068   18.9912 C   0  0  0  0  0  0  0  0  0  0  0  0
  -30.3784  -13.7905   20.1911 C   0  0  0  0  0  0  0  0  0  0  0  0
  -24.2824  -16.9587   22.7762 C   0  0  0  0  0  0  0  0  0  0  0  0
  -29.3461  -14.7479   20.2050 C   0  0  0  0  0  0  0  0  0  0  0  0
  -23.1090  -16.5569   22.1221 C   0  0  0  0  0  0  0  0  0  0  0  0
  -20.7135  -22.2877   19.8063 C   0  0  0  0  0  0  0  0  0  0  0  0
  -28.6817  -23.9790   18.9464 C   0  0  0  0  0  0  0  0  0  0  0  0
  -22.4483  -18.8861   21.9027 C   0  0  0  0  0  0  0  0  0  0  0  0
  -28.5894  -21.6314   18.8942 C   0  0  0  0  0  0  0  0  0  0  0  0
  -27.1528  -19.2807   19.3333 C   0  0  0  0  0  0  0  0  0  0  0  0
  -28.1174  -21.3309   20.1719 C   0  0  0  0  0  0  0  0  0  0  0  0
  -26.7525  -27.6482   19.7907 C   0  0  0  0  0  0  0  0  0  0  0  0
  -19.3869  -22.0088   20.2109 C   0  0  0  0  0  0  0  0  0  0  0  0
  -20.7675  -23.6575   19.7263 C   0  0  0  0  0  0  0  0  0  0  0  0
  -25.9851  -29.7069   19.7014 C   0  0  0  0  0  0  0  0  0  0  0  0
  -27.3593  -29.0478   17.7200 C   0  0  0  0  0  0  0  0  0  0  0  0
  -25.7787  -14.6640   21.1641 C   0  0  0  0  0  0  0  0  0  0  0  0
  -23.5167  -12.7748   22.5194 C   0  0  0  0  0  0  0  0  0  0  0  0
  -20.4151  -12.5184   23.9196 C   0  0  0  0  0  0  0  0  0  0  0  0
  -21.6850  -29.0672   23.8186 C   0  0  0  0  0  0  0  0  0  0  0  0
  -30.1238  -12.3549   19.8054 C   0  0  0  0  0  0  0  0  0  0  0  0
  -25.2628  -15.9350   23.2794 C   0  0  0  0  0  0  0  0  0  0  0  0
  -21.7373  -21.2443   19.5330 C   0  0  0  0  0  0  0  0  0  0  0  0
  -22.7997  -15.1047   21.8693 C   0  0  0  0  0  0  0  0  0  0  0  0
  -18.8695  -20.6386   20.4535 C   0  0  0  0  0  0  0  0  0  0  0  0
  -28.6511  -11.9586   19.8709 C   0  0  0  0  0  0  0  0  0  0  0  0
  -19.7969  -19.5855   19.8146 C   0  0  0  0  0  0  0  0  0  0  0  0
  -24.7475  -30.8467   24.1802 C   0  0  0  0  0  0  0  0  0  0  0  0
  -27.7827  -13.0182   19.2001 C   0  0  0  0  0  0  0  0  0  0  0  0
  -25.6077  -30.3333   23.0241 C   0  0  0  0  0  0  0  0  0  0  0  0
  -23.8721  -29.7414   24.7665 C   0  0  0  0  0  0  0  0  0  0  0  0
  -23.8932  -28.5160   22.6284 C   0  0  0  0  0  0  0  0  0  0  0  0
  -27.9100  -14.3690   19.9146 C   0  0  1  0  0  0  0  0  0  0  0  0
  -25.1717  -14.6052   22.5374 C   0  0  1  0  0  0  0  0  0  0  0  0
  -24.7523  -29.6078   21.9680 C   0  0  2  0  0  0  0  0  0  0  0  0
  -21.2918  -19.8686   20.0709 C   0  0  2  0  0  0  0  0  0  1  0  0
  -21.8645  -24.5690   19.3521 C   0  0  0  0  0  0  0  0  0  0  0  0
  -18.8276  -10.8384   24.8967 C   0  0  0  0  0  0  0  0  0  0  0  0
  -22.8410  -11.7849   19.7134 C   0  0  0  0  0  0  0  0  0  0  0  0
  -20.6926  -10.8793   20.6257 C   0  0  0  0  0  0  0  0  0  0  0  0
  -22.8710  -10.0039   21.4688 C   0  0  0  0  0  0  0  0  0  0  0  0
  -20.4097  -13.8793   26.5477 C   0  0  0  0  0  0  0  0  0  0  0  0
  -19.5876  -26.1671   21.4115 C   0  0  0  0  0  0  0  0  0  0  0  0
  -19.0749  -27.6080   21.4940 C   0  0  0  0  0  0  0  0  0  0  0  0
  -19.0785  -25.4707   20.1470 C   0  0  0  0  0  0  0  0  0  0  0  0
  -19.5739  -28.3375   22.7370 C   0  0  0  0  0  0  0  0  0  0  0  0
  -22.1274  -12.3267   22.1348 C   0  0  1  0  0  0  0  0  0  0  0  0
  -19.9361  -11.8376   25.1891 C   0  0  2  0  0  0  0  0  0  0  0  0
  -22.1395  -11.2763   20.9886 C   0  0  0  0  0  0  0  0  0  0  0  0
  -26.0586  -27.7960   20.9224 N   0  0  0  0  0  0  0  0  0  0  0  0
  -18.6563  -23.1129   20.3828 N   0  0  0  0  0  0  0  0  0  0  0  0
  -19.5226  -24.0977   20.0779 N   0  0  0  0  0  0  0  0  0  0  0  0
  -25.6044  -29.0581   20.8391 N   0  0  0  0  0  0  0  0  0  0  0  0
  -23.7921  -14.1419   22.3749 N   0  0  0  0  0  0  0  0  0  0  0  0
  -23.0855  -29.0946   23.7135 N   0  0  0  0  0  0  0  0  0  0  0  0
  -25.6154  -30.9821   19.4576 N   0  0  0  0  0  0  0  0  0  0  0  0
  -28.1004  -28.0145   17.1307 N   0  0  0  0  0  0  0  0  0  0  0  0
  -27.1290  -14.3719   21.1329 N   0  0  0  0  0  0  0  0  0  0  0  0
  -21.4932  -11.8626   23.3640 N   0  0  0  0  0  0  0  0  0  0  0  0
  -21.0157  -28.4403   22.7747 N   0  0  0  0  0  0  0  0  0  0  0  0
  -19.4162  -12.8474   26.1539 N   0  3  0  0  0  0  0  0  0  0  0  0
  -27.2709  -30.1524   17.1321 O   0  0  0  0  0  0  0  0  0  0  0  0
  -25.0739  -14.9514   20.2038 O   0  0  0  0  0  0  0  0  0  0  0  0
  -24.3256  -11.9436   22.9395 O   0  0  0  0  0  0  0  0  0  0  0  0
  -19.8834  -13.5286   23.4643 O   0  0  0  0  0  0  0  0  0  0  0  0
  -21.0760  -29.5691   24.7694 O   0  0  0  0  0  0  0  0  0  0  0  0
  -29.3019  -22.7983   18.6745 O   0  0  0  0  0  0  0  0  0  0  0  0
  -21.5570  -19.8203   21.4729 O   0  0  0  0  0  0  0  0  0  1  0  0
  -26.4617  -18.1527   19.5436 F   0  0  0  0  0  0  0  0  0  0  0  0
  -28.3500  -22.1679   21.1922 F   0  0  0  0  0  0  0  0  0  0  0  0
  1  2  1  0  0  0  0
  1  5  2  0  0  0  0
  2  6  2  0  0  0  0
  3  8  2  0  0  0  0
  3 15  1  0  0  0  0
  4  9  1  0  0  0  0
  4 15  2  0  0  0  0
  5 17  1  0  0  0  0
  6 19  1  0  0  0  0
  7 10  2  0  0  0  0
  7 18  1  0  0  0  0
  8 22  1  0  0  0  0
  9 22  2  0  0  0  0
 10 23  1  0  0  0  0
 11 12  2  0  0  0  0
 11 24  1  0  0  0  0
 12 25  1  0  0  0  0
 13 20  1  0  0  0  0
 13 23  2  0  0  0  0
 14 25  2  0  0  0  0
 14 26  1  0  0  0  0
 15 27  1  0  0  0  0
 16 27  1  0  0  0  0
 16 30  2  0  0  0  0
 16 31  1  0  0  0  0
 17 19  2  0  0  0  0
 17 36  1  0  0  0  0
 18 20  2  0  0  0  0
 18 37  1  0  0  0  0
 19 48  1  0  0  0  0
 20 39  1  0  0  0  0
 21 28  1  0  0  0  0
 21 29  2  0  0  0  0
 21 38  1  0  0  0  0
 22 82  1  0  0  0  0
 23 83  1  0  0  0  0
 24 26  2  0  0  0  0
 24 82  1  0  0  0  0
 25 84  1  0  0  0  0
 26 85  1  0  0  0  0
 27 65  2  0  0  0  0
 28 40  1  0  0  0  0
 28 66  2  0  0  0  0
 29 52  1  0  0  0  0
 29 67  1  0  0  0  0
 30 68  1  0  0  0  0
 30 71  1  0  0  0  0
 31 72  1  0  0  0  0
 31 77  2  0  0  0  0
 32 49  1  0  0  0  0
 32 73  1  0  0  0  0
 32 78  2  0  0  0  0
 33 62  1  0  0  0  0
 33 69  1  0  0  0  0
 33 79  2  0  0  0  0
 34 63  1  0  0  0  0
 34 74  1  0  0  0  0
 34 80  2  0  0  0  0
 35 70  1  0  0  0  0
 35 75  1  0  0  0  0
 35 81  2  0  0  0  0
 36 41  1  0  0  0  0
 37 49  1  0  0  0  0
 38 51  1  0  0  0  0
 39 69  1  0  0  0  0
 40 42  1  0  0  0  0
 41 44  1  0  0  0  0
 42 51  1  0  0  0  0
 43 45  1  0  0  0  0
 43 46  1  0  0  0  0
 44 48  1  0  0  0  0
 45 50  1  0  0  0  0
 46 70  1  0  0  0  0
 47 50  1  0  0  0  0
 47 70  1  0  0  0  0
 48 73  1  0  0  0  0
 49 69  1  0  0  0  0
 50 68  1  0  0  0  0
 51 83  1  0  0  0  0
 53 63  1  0  0  0  0
 54 64  1  0  0  0  0
 55 64  1  0  0  0  0
 56 64  1  0  0  0  0
 57 76  1  0  0  0  0
 58 59  1  0  0  0  0
 58 60  1  0  0  0  0
 59 61  1  0  0  0  0
 60 67  1  0  0  0  0
 61 75  1  0  0  0  0
 62 64  1  0  0  0  0
 62 74  1  0  0  0  0
 63 76  1  0  0  0  0
 65 68  1  0  0  0  0
 66 67  1  0  0  0  0
M  CHG  1  76   1
M  ISO  4  35 100  51 101  75 100  83 101
M  END
> <Batch ID>
0030

> <Smiles>
CNC(C)C(=O)NC(C(=O)N1Cc2cc([101O:1][101CH:1]3CCc4nn(CCCC[100NH:0][100C:0](=O)N5CCCC(n6nc(-c7ccc(Oc8ccc(F)cc8F)cc7)c(C(N)=O)c6N)C5)c(C)c4C3)ccc2CC1C(=O)NC1CCCc2ccccc21)C(C)(C)C

> <Shape>
0.240

> <Color>
0.067

> <Negative vol penalty>
0.000

$$$$

  -OEChem-04052316393D

 82 90  0     1  0  0  0  0  0999 V2000
  -26.4518  -25.8301   24.3271 C   0  0  0  0  0  0  0  0  0  0  0  0
  -25.1721  -25.4978   23.8943 C   0  0  0  0  0  0  0  0  0  0  0  0
  -25.7329  -28.4713   21.5710 C   0  0  0  0  0  0  0  0  0  0  0  0
  -25.0836  -27.9821   19.2959 C   0  0  0  0  0  0  0  0  0  0  0  0
  -27.5589  -25.1652   23.8015 C   0  0  0  0  0  0  0  0  0  0  0  0
  -24.9988  -24.5010   22.9347 C   0  0  0  0  0  0  0  0  0  0  0  0
  -20.3628  -20.5168   22.5610 C   0  0  0  0  0  0  0  0  0  0  0  0
  -26.9782  -27.8864   21.3414 C   0  0  0  0  0  0  0  0  0  0  0  0
  -26.3289  -27.3973   19.0662 C   0  0  0  0  0  0  0  0  0  0  0  0
  -19.2008  -20.4993   21.7907 C   0  0  0  0  0  0  0  0  0  0  0  0
  -29.4687  -26.0977   17.7735 C   0  0  0  0  0  0  0  0  0  0  0  0
  -30.1288  -26.4203   16.5879 C   0  0  0  0  0  0  0  0  0  0  0  0
  -20.3026  -19.0908   20.1717 C   0  0  0  0  0  0  0  0  0  0  0  0
  -17.9944  -22.5792   17.7151 C   0  0  0  0  0  0  0  0  0  0  0  0
  -15.6795  -23.6759   18.8200 C   0  0  0  0  0  0  0  0  0  0  0  0
  -30.1438  -28.7494   17.2300 C   0  0  0  0  0  0  0  0  0  0  0  0
  -24.7856  -28.5191   20.5483 C   0  0  0  0  0  0  0  0  0  0  0  0
  -23.1449  -30.4720   20.5957 C   0  0  0  0  0  0  0  0  0  0  0  0
  -27.3984  -24.1531   22.8421 C   0  0  0  0  0  0  0  0  0  0  0  0
  -21.5087  -19.8292   22.1363 C   0  0  0  0  0  0  0  0  0  0  0  0
  -26.1048  -23.8228   22.3948 C   0  0  0  0  0  0  0  0  0  0  0  0
  -21.4770  -19.0990   20.9397 C   0  0  0  0  0  0  0  0  0  0  0  0
  -16.9052  -21.7587   18.0082 C   0  0  0  0  0  0  0  0  0  0  0  0
  -16.7688  -24.4964   18.5270 C   0  0  0  0  0  0  0  0  0  0  0  0
  -27.2762  -27.3495   20.0890 C   0  0  0  0  0  0  0  0  0  0  0  0
  -19.1715  -19.7886   20.5944 C   0  0  0  0  0  0  0  0  0  0  0  0
  -29.1460  -27.1009   18.6874 C   0  0  0  0  0  0  0  0  0  0  0  0
  -30.4663  -27.7461   16.3161 C   0  0  0  0  0  0  0  0  0  0  0  0
  -29.4836  -28.4267   18.4157 C   0  0  0  0  0  0  0  0  0  0  0  0
  -15.7477  -22.3070   18.5607 C   0  0  0  0  0  0  0  0  0  0  0  0
  -17.9262  -23.9481   17.9745 C   0  0  0  0  0  0  0  0  0  0  0  0
  -23.4988  -29.1227   20.7850 C   0  0  0  0  0  0  0  0  0  0  0  0
  -21.8218  -30.5342   20.9591 C   0  0  0  0  0  0  0  0  0  0  0  0
  -23.9410  -31.5709   20.1327 C   0  0  0  0  0  0  0  0  0  0  0  0
  -24.4722  -20.6747   21.3572 C   0  0  0  0  0  0  0  0  0  0  0  0
  -24.9270  -17.4672   21.1907 C   0  0  0  0  0  0  0  0  0  0  0  0
  -23.5680  -14.3670   20.7564 C   0  0  0  0  0  0  0  0  0  0  0  0
  -17.4419  -26.4549   21.1215 C   0  0  0  0  0  0  0  0  0  0  0  0
  -28.6282  -23.4951   22.2684 C   0  0  0  0  0  0  0  0  0  0  0  0
  -22.7458  -19.8360   22.9919 C   0  0  0  0  0  0  0  0  0  0  0  0
  -22.6741  -18.3275   20.4494 C   0  0  0  0  0  0  0  0  0  0  0  0
  -28.3335  -22.1919   21.5301 C   0  0  0  0  0  0  0  0  0  0  0  0
  -18.6256  -28.4344   23.8340 C   0  0  0  0  0  0  0  0  0  0  0  0
  -27.1431  -22.3670   20.5925 C   0  0  0  0  0  0  0  0  0  0  0  0
  -19.9768  -28.9570   23.3431 C   0  0  0  0  0  0  0  0  0  0  0  0
  -18.3633  -27.0088   23.3532 C   0  0  0  0  0  0  0  0  0  0  0  0
  -19.8373  -27.3367   21.4055 C   0  0  0  0  0  0  0  0  0  0  0  0
  -25.8744  -22.7300   21.3737 C   0  0  1  0  0  0  0  0  0  0  0  0
  -24.0164  -19.5229   22.2077 C   0  0  1  0  0  0  0  0  0  0  0  0
  -20.1218  -28.7910   21.8184 C   0  0  2  0  0  0  0  0  0  0  0  0
  -24.1960  -11.9405   20.6337 C   0  0  0  0  0  0  0  0  0  0  0  0
  -26.0161  -17.8941   18.3726 C   0  0  0  0  0  0  0  0  0  0  0  0
  -25.7292  -15.4405   17.9652 C   0  0  0  0  0  0  0  0  0  0  0  0
  -27.2893  -16.2339   19.7427 C   0  0  0  0  0  0  0  0  0  0  0  0
  -21.8897  -13.6947   23.0995 C   0  0  0  0  0  0  0  0  0  0  0  0
  -17.0196  -20.2831   17.7119 C   0  0  0  0  0  0  0  0  0  0  0  0
  -16.6568  -25.9580   18.8202 C   0  0  0  0  0  0  0  0  0  0  0  0
  -18.2005  -19.6376   18.4287 C   0  0  0  0  0  0  0  0  0  1  0  0
  -24.7948  -16.4235   20.1081 C   0  0  1  0  0  0  0  0  0  0  0  0
  -23.7363  -13.0753   21.5358 C   0  0  2  0  0  0  0  0  0  0  0  0
  -25.9352  -16.5140   19.0551 C   0  0  0  0  0  0  0  0  0  0  0  0
  -22.4826  -28.3812   21.2340 N   0  0  0  0  0  0  0  0  0  0  0  0
  -21.4772  -29.2678   21.3298 N   0  0  0  0  0  0  0  0  0  0  0  0
  -23.8619  -18.3701   21.3182 N   0  0  0  0  0  0  0  0  0  0  0  0
  -18.5154  -26.9198   21.8990 N   0  0  0  0  0  0  0  0  0  0  0  0
  -20.9313  -31.5482   20.9945 N   0  0  0  0  0  0  0  0  0  0  0  0
  -25.2819  -31.3320   19.8022 N   0  0  0  0  0  0  0  0  0  0  0  0
  -25.3170  -21.5542   22.0070 N   0  0  0  0  0  0  0  0  0  0  0  0
  -24.7118  -15.1364   20.7899 N   0  0  0  0  0  0  0  0  0  0  0  0
  -17.6676  -26.4078   19.7513 N   0  0  0  0  0  0  0  0  0  0  0  0
  -22.4460  -12.6799   22.1680 N   0  3  0  0  0  0  0  0  0  0  0  0
  -23.4815  -32.7337   20.0312 O   0  0  0  0  0  0  0  0  0  0  0  0
  -24.0872  -20.7584   20.1969 O   0  0  0  0  0  0  0  0  0  0  0  0
  -25.9349  -17.4765   21.9019 O   0  0  0  0  0  0  0  0  0  0  0  0
  -22.5274  -14.6622   20.1729 O   0  0  0  0  0  0  0  0  0  0  0  0
  -16.3604  -26.1127   21.6117 O   0  0  0  0  0  0  0  0  0  0  0  0
  -28.4914  -26.7789   19.8645 O   0  0  0  0  0  0  0  0  0  0  0  0
  -18.0389  -19.7704   19.8403 O   0  0  0  0  0  0  0  0  0  1  0  0
  -31.1016  -28.0556   15.1782 F   0  0  0  0  0  0  0  0  0  0  0  0
  -29.1774  -29.3947   19.2904 F   0  0  0  0  0  0  0  0  0  0  0  0
  -14.3802  -21.3227   18.9349 Cl  0  0  0  0  0  0  0  0  0  0  0  0
  -19.2936  -24.9324   17.5989 Cl  0  0  0  0  0  0  0  0  0  0  0  0
  1  2  1  0  0  0  0
  1  5  2  0  0  0  0
  2  6  2  0  0  0  0
  3  8  2  0  0  0  0
  3 17  1  0  0  0  0
  4  9  1  0  0  0  0
  4 17  2  0  0  0  0
  5 19  1  0  0  0  0
  6 21  1  0  0  0  0
  7 10  2  0  0  0  0
  7 20  1  0  0  0  0
  8 25  1  0  0  0  0
  9 25  2  0  0  0  0
 10 26  1  0  0  0  0
 11 12  2  0  0  0  0
 11 27  1  0  0  0  0
 12 28  1  0  0  0  0
 13 22  1  0  0  0  0
 13 26  2  0  0  0  0
 14 23  1  0  0  0  0
 14 31  2  0  0  0  0
 15 24  2  0  0  0  0
 15 30  1  0  0  0  0
 16 28  2  0  0  0  0
 16 29  1  0  0  0  0
 17 32  1  0  0  0  0
 18 32  1  0  0  0  0
 18 33  2  0  0  0  0
 18 34  1  0  0  0  0
 19 21  2  0  0  0  0
 19 39  1  0  0  0  0
 20 22  2  0  0  0  0
 20 40  1  0  0  0  0
 21 48  1  0  0  0  0
 22 41  1  0  0  0  0
 23 30  2  0  0  0  0
 23 56  1  0  0  0  0
 24 31  1  0  0  0  0
 24 57  1  0  0  0  0
 25 77  1  0  0  0  0
 26 78  1  0  0  0  0
 27 29  2  0  0  0  0
 27 77  1  0  0  0  0
 28 79  1  0  0  0  0
 29 80  1  0  0  0  0
 30 81  1  0  0  0  0
 31 82  1  0  0  0  0
 32 62  2  0  0  0  0
 33 63  1  0  0  0  0
 33 66  1  0  0  0  0
 34 67  1  0  0  0  0
 34 72  2  0  0  0  0
 35 49  1  0  0  0  0
 35 68  1  0  0  0  0
 35 73  2  0  0  0  0
 36 59  1  0  0  0  0
 36 64  1  0  0  0  0
 36 74  2  0  0  0  0
 37 60  1  0  0  0  0
 37 69  1  0  0  0  0
 37 75  2  0  0  0  0
 38 65  1  0  0  0  0
 38 70  1  0  0  0  0
 38 76  2  0  0  0  0
 39 42  1  0  0  0  0
 40 49  1  0  0  0  0
 41 64  1  0  0  0  0
 42 44  1  0  0  0  0
 43 45  1  0  0  0  0
 43 46  1  0  0  0  0
 44 48  1  0  0  0  0
 45 50  1  0  0  0  0
 46 65  1  0  0  0  0
 47 50  1  0  0  0  0
 47 65  1  0  0  0  0
 48 68  1  0  0  0  0
 49 64  1  0  0  0  0
 50 63  1  0  0  0  0
 51 60  1  0  0  0  0
 52 61  1  0  0  0  0
 53 61  1  0  0  0  0
 54 61  1  0  0  0  0
 55 71  1  0  0  0  0
 56 58  1  0  0  0  0
 57 70  1  0  0  0  0
 58 78  1  0  0  0  0
 59 61  1  0  0  0  0
 59 69  1  0  0  0  0
 60 71  1  0  0  0  0
 62 63  1  0  0  0  0
M  CHG  1  71   1
M  ISO  4  38 100  58 101  70 100  78 101
M  END
> <Batch ID>
0030

> <Smiles>
CNC(C)C(=O)NC(C(=O)N1Cc2cc([101O:1][101CH2:1]Cc3cc(Cl)c(C[100NH:0][100C:0](=O)N4CCCC(n5nc(-c6ccc(Oc7ccc(F)cc7F)cc6)c(C(N)=O)c5N)C4)cc3Cl)ccc2CC1C(=O)NC1CCCc2ccccc21)C(C)(C)C

> <Shape>
0.162

> <Color>
0.100

> <Negative vol penalty>
0.000

$$$$
