
  -OEChem-04052316423D

 85 93  0     1  0  0  0  0  0999 V2000
  -28.4833  -32.9692   14.8338 C   0  0  0  0  0  0  0  0  0  0  0  0
  -28.5651  -31.6500   14.3996 C   0  0  0  0  0  0  0  0  0  0  0  0
  -23.0027   -9.8933   19.9776 C   0  0  0  0  0  0  0  0  0  0  0  0
  -23.7336   -9.9376   22.2799 C   0  0  0  0  0  0  0  0  0  0  0  0
  -29.4408  -33.4732   15.7131 C   0  0  0  0  0  0  0  0  0  0  0  0
  -29.6053  -30.8344   14.8436 C   0  0  0  0  0  0  0  0  0  0  0  0
  -29.3421  -24.8216   15.9762 C   0  0  0  0  0  0  0  0  0  0  0  0
  -22.2390   -8.7564   20.2419 C   0  0  0  0  0  0  0  0  0  0  0  0
  -22.9699   -8.8007   22.5442 C   0  0  0  0  0  0  0  0  0  0  0  0
  -29.7115  -23.7081   15.2229 C   0  0  0  0  0  0  0  0  0  0  0  0
  -23.2194   -5.4639   22.0600 C   0  0  0  0  0  0  0  0  0  0  0  0
  -23.8108   -4.4452   22.8071 C   0  0  0  0  0  0  0  0  0  0  0  0
  -31.8345  -23.6461   16.3666 C   0  0  0  0  0  0  0  0  0  0  0  0
  -22.0907   -4.6790   24.4875 C   0  0  0  0  0  0  0  0  0  0  0  0
  -23.7501  -10.4839   20.9966 C   0  0  0  0  0  0  0  0  0  0  0  0
  -24.1301  -13.0008   20.8284 C   0  0  0  0  0  0  0  0  0  0  0  0
  -30.4878  -32.6605   16.1756 C   0  0  0  0  0  0  0  0  0  0  0  0
  -30.2219  -25.3632   16.9244 C   0  0  0  0  0  0  0  0  0  0  0  0
  -30.5785  -31.3283   15.7288 C   0  0  0  0  0  0  0  0  0  0  0  0
  -31.4729  -24.7649   17.1325 C   0  0  0  0  0  0  0  0  0  0  0  0
  -29.2772  -19.1662   18.4083 C   0  0  0  0  0  0  0  0  0  0  0  0
  -22.2226   -8.2101   21.5252 C   0  0  0  0  0  0  0  0  0  0  0  0
  -30.9590  -23.1220   15.4159 C   0  0  0  0  0  0  0  0  0  0  0  0
  -22.0637   -6.0902   22.5268 C   0  0  0  0  0  0  0  0  0  0  0  0
  -23.2464   -4.0528   24.0208 C   0  0  0  0  0  0  0  0  0  0  0  0
  -21.4993   -5.6978   23.7405 C   0  0  0  0  0  0  0  0  0  0  0  0
  -24.5396  -11.6579   20.7240 C   0  0  0  0  0  0  0  0  0  0  0  0
  -28.6379  -18.3584   17.4489 C   0  0  0  0  0  0  0  0  0  0  0  0
  -25.2376  -13.7268   20.4637 C   0  0  0  0  0  0  0  0  0  0  0  0
  -30.4198  -19.6025   17.7834 C   0  0  0  0  0  0  0  0  0  0  0  0
  -22.8621  -13.5434   21.2200 C   0  0  0  0  0  0  0  0  0  0  0  0
  -31.6775  -28.1651   17.2906 C   0  0  0  0  0  0  0  0  0  0  0  0
  -32.6088  -26.8716   20.1158 C   0  0  0  0  0  0  0  0  0  0  0  0
  -33.2188  -24.0622   21.9549 C   0  0  0  0  0  0  0  0  0  0  0  0
  -30.7328  -14.6710   20.7015 C   0  0  0  0  0  0  0  0  0  0  0  0
  -31.5260  -33.2635   17.0883 C   0  0  0  0  0  0  0  0  0  0  0  0
  -29.7979  -26.5483   17.7478 C   0  0  0  0  0  0  0  0  0  0  0  0
  -32.4459  -25.2957   18.1523 C   0  0  0  0  0  0  0  0  0  0  0  0
  -32.3842  -32.2244   17.8052 C   0  0  0  0  0  0  0  0  0  0  0  0
  -29.5907  -12.2533   18.3504 C   0  0  0  0  0  0  0  0  0  0  0  0
  -32.8625  -31.1585   16.8244 C   0  0  0  0  0  0  0  0  0  0  0  0
  -28.1438  -11.9894   18.7708 C   0  0  0  0  0  0  0  0  0  0  0  0
  -30.4958  -12.4862   19.5582 C   0  0  0  0  0  0  0  0  0  0  0  0
  -28.5876  -13.2734   20.9046 C   0  0  0  0  0  0  0  0  0  0  0  0
  -31.6779  -30.4051   16.2075 C   0  0  1  0  0  0  0  0  0  0  0  0
  -30.9759  -27.3286   18.3229 C   0  0  1  0  0  0  0  0  0  0  0  0
  -27.6259  -13.0881   19.7184 C   0  0  2  0  0  0  0  0  0  0  0  0
  -34.0063  -23.3231   24.2201 C   0  0  0  0  0  0  0  0  0  0  0  0
  -35.4803  -27.5462   19.3350 C   0  0  0  0  0  0  0  0  0  0  0  0
  -36.2613  -25.9763   21.1221 C   0  0  0  0  0  0  0  0  0  0  0  0
  -34.9194  -27.9889   21.7316 C   0  0  0  0  0  0  0  0  0  0  0  0
  -30.6604  -22.6875   22.5238 C   0  0  0  0  0  0  0  0  0  0  0  0
  -28.8298  -19.4793   19.7777 C   0  0  0  0  0  0  0  0  0  0  0  0
  -29.0756  -18.3210   20.7675 C   0  0  0  0  0  0  0  0  0  0  0  0
  -30.5625  -17.9813   20.9072 C   0  0  0  0  0  0  0  0  0  0  0  0
  -30.8405  -19.7506   14.1306 C   0  0  0  0  0  0  0  0  0  0  0  0
  -31.4198  -19.2121   15.4406 C   0  0  0  0  0  0  0  0  0  0  0  0
  -30.8144  -16.8459   21.8940 C   0  0  0  0  0  0  0  0  0  0  0  0
  -30.2781  -21.1619   14.2538 C   0  0  0  0  0  0  0  0  0  1  0  0
  -33.7855  -26.0462   20.5775 C   0  0  1  0  0  0  0  0  0  0  0  0
  -32.8005  -23.6674   23.3598 C   0  0  2  0  0  0  0  0  0  0  0  0
  -35.0943  -26.8803   20.6709 C   0  0  0  0  0  0  0  0  0  0  0  0
  -25.8081  -11.5352   20.3242 N   0  0  0  0  0  0  0  0  0  0  0  0
  -29.3178  -18.2844   16.3016 N   0  0  0  0  0  0  0  0  0  0  0  0
  -26.2052  -12.8103   20.1740 N   0  0  0  0  0  0  0  0  0  0  0  0
  -30.3962  -19.0514   16.5361 N   0  0  0  0  0  0  0  0  0  0  0  0
  -31.9877  -26.4600   18.9281 N   0  0  0  0  0  0  0  0  0  0  0  0
  -29.9491  -13.5409   20.4153 N   0  0  0  0  0  0  0  0  0  0  0  0
  -25.4683  -15.0533   20.3656 N   0  0  0  0  0  0  0  0  0  0  0  0
  -21.8329  -12.6561   21.5631 N   0  0  0  0  0  0  0  0  0  0  0  0
  -31.1528  -29.4350   17.1443 N   0  0  0  0  0  0  0  0  0  0  0  0
  -33.3810  -25.4262   21.8347 N   0  0  0  0  0  0  0  0  0  0  0  0
  -30.1367  -15.6258   21.5162 N   0  0  0  0  0  0  0  0  0  0  0  0
  -31.8991  -22.4814   23.3177 N   0  3  0  0  0  0  0  0  0  0  0  0
  -22.6431  -14.7782   21.2487 O   0  0  0  0  0  0  0  0  0  0  0  0
  -32.6257  -27.6939   16.6737 O   0  0  0  0  0  0  0  0  0  0  0  0
  -32.2494  -27.8414   20.7881 O   0  0  0  0  0  0  0  0  0  0  0  0
  -33.3886  -23.2423   21.0553 O   0  0  0  0  0  0  0  0  0  0  0  0
  -31.8768  -14.8206   20.2590 O   0  0  0  0  0  0  0  0  0  0  0  0
  -21.4773   -7.1009   21.7836 O   0  0  0  0  0  0  0  0  0  0  0  0
  -31.3223  -22.0355   14.6815 O   0  0  0  0  0  0  0  0  0  1  0  0
  -23.8136   -3.0734   24.7373 F   0  0  0  0  0  0  0  0  0  0  0  0
  -20.3885   -6.2949   24.1934 F   0  0  0  0  0  0  0  0  0  0  0  0
  -27.1683  -17.5334   17.6407 Cl  0  0  0  0  0  0  0  0  0  0  0  0
  -31.6932  -20.6039   18.2834 Cl  0  0  0  0  0  0  0  0  0  0  0  0
  1  2  1  0  0  0  0
  1  5  2  0  0  0  0
  2  6  2  0  0  0  0
  3  8  2  0  0  0  0
  3 15  1  0  0  0  0
  4  9  1  0  0  0  0
  4 15  2  0  0  0  0
  5 17  1  0  0  0  0
  6 19  1  0  0  0  0
  7 10  2  0  0  0  0
  7 18  1  0  0  0  0
  8 22  1  0  0  0  0
  9 22  2  0  0  0  0
 10 23  1  0  0  0  0
 11 12  2  0  0  0  0
 11 24  1  0  0  0  0
 12 25  1  0  0  0  0
 13 20  1  0  0  0  0
 13 23  2  0  0  0  0
 14 25  2  0  0  0  0
 14 26  1  0  0  0  0
 15 27  1  0  0  0  0
 16 27  1  0  0  0  0
 16 29  2  0  0  0  0
 16 31  1  0  0  0  0
 17 19  2  0  0  0  0
 17 36  1  0  0  0  0
 18 20  2  0  0  0  0
 18 37  1  0  0  0  0
 19 45  1  0  0  0  0
 20 38  1  0  0  0  0
 21 28  1  0  0  0  0
 21 30  2  0  0  0  0
 21 53  1  0  0  0  0
 22 80  1  0  0  0  0
 23 81  1  0  0  0  0
 24 26  2  0  0  0  0
 24 80  1  0  0  0  0
 25 82  1  0  0  0  0
 26 83  1  0  0  0  0
 27 63  2  0  0  0  0
 28 64  2  0  0  0  0
 28 84  1  0  0  0  0
 29 65  1  0  0  0  0
 29 69  1  0  0  0  0
 30 66  1  0  0  0  0
 30 85  1  0  0  0  0
 31 70  1  0  0  0  0
 31 75  2  0  0  0  0
 32 46  1  0  0  0  0
 32 71  1  0  0  0  0
 32 76  2  0  0  0  0
 33 60  1  0  0  0  0
 33 67  1  0  0  0  0
 33 77  2  0  0  0  0
 34 61  1  0  0  0  0
 34 72  1  0  0  0  0
 34 78  2  0  0  0  0
 35 68  1  0  0  0  0
 35 73  1  0  0  0  0
 35 79  2  0  0  0  0
 36 39  1  0  0  0  0
 37 46  1  0  0  0  0
 38 67  1  0  0  0  0
 39 41  1  0  0  0  0
 40 42  1  0  0  0  0
 40 43  1  0  0  0  0
 41 45  1  0  0  0  0
 42 47  1  0  0  0  0
 43 68  1  0  0  0  0
 44 47  1  0  0  0  0
 44 68  1  0  0  0  0
 45 71  1  0  0  0  0
 46 67  1  0  0  0  0
 47 65  1  0  0  0  0
 48 61  1  0  0  0  0
 49 62  1  0  0  0  0
 50 62  1  0  0  0  0
 51 62  1  0  0  0  0
 52 74  1  0  0  0  0
 53 54  1  0  0  0  0
 54 55  1  0  0  0  0
 55 58  1  0  0  0  0
 56 57  1  0  0  0  0
 56 59  1  0  0  0  0
 57 66  1  0  0  0  0
 58 73  1  0  0  0  0
 59 81  1  0  0  0  0
 60 62  1  0  0  0  0
 60 72  1  0  0  0  0
 61 74  1  0  0  0  0
 63 65  1  0  0  0  0
 64 66  1  0  0  0  0
M  CHG  1  74   1
M  ISO  4  35 100  59 101  73 100  81 101
M  END
> <Batch ID>
0031

> <Smiles>
CNC(C)C(=O)NC(C(=O)N1Cc2cc([101O:1][101CH2:1]CCn3nc(Cl)c(CCCC[100NH:0][100C:0](=O)N4CCCC(n5nc(-c6ccc(Oc7ccc(F)cc7F)cc6)c(C(N)=O)c5N)C4)c3Cl)ccc2CC1C(=O)NC1CCCc2ccccc21)C(C)(C)C

> <Shape>
0.231

> <Color>
0.202

> <Negative vol penalty>
0.000

$$$$

  -OEChem-04052316423D

 85 94  0     1  0  0  0  0  0999 V2000
  -18.2924  -33.7211   18.0287 C   0  0  0  0  0  0  0  0  0  0  0  0
  -19.6638  -33.7815   17.8031 C   0  0  0  0  0  0  0  0  0  0  0  0
  -23.5859  -11.1100   23.1315 C   0  0  0  0  0  0  0  0  0  0  0  0
  -24.5143   -9.3264   21.7922 C   0  0  0  0  0  0  0  0  0  0  0  0
  -17.8077  -33.5180   19.3201 C   0  0  0  0  0  0  0  0  0  0  0  0
  -20.5515  -33.6399   18.8692 C   0  0  0  0  0  0  0  0  0  0  0  0
  -25.4925  -28.3982   18.9096 C   0  0  0  0  0  0  0  0  0  0  0  0
  -23.1232  -10.1744   24.0568 C   0  0  0  0  0  0  0  0  0  0  0  0
  -24.0517   -8.3907   22.7175 C   0  0  0  0  0  0  0  0  0  0  0  0
  -26.6021  -27.5527   18.8940 C   0  0  0  0  0  0  0  0  0  0  0  0
  -21.1224   -6.8904   23.4915 C   0  0  0  0  0  0  0  0  0  0  0  0
  -20.4891   -5.7497   22.9983 C   0  0  0  0  0  0  0  0  0  0  0  0
  -27.9352  -20.4854   19.3600 C   0  0  0  0  0  0  0  0  0  0  0  0
  -27.2365  -28.3270   21.0953 C   0  0  0  0  0  0  0  0  0  0  0  0
  -30.1713  -18.8183   19.3010 C   0  0  0  0  0  0  0  0  0  0  0  0
  -22.1667   -4.3642   24.0486 C   0  0  0  0  0  0  0  0  0  0  0  0
  -24.2814  -10.6860   21.9992 C   0  0  0  0  0  0  0  0  0  0  0  0
  -23.9879  -12.5668   20.3009 C   0  0  0  0  0  0  0  0  0  0  0  0
  -18.6901  -33.3643   20.4011 C   0  0  0  0  0  0  0  0  0  0  0  0
  -25.2420  -29.2010   20.0259 C   0  0  0  0  0  0  0  0  0  0  0  0
  -20.0782  -33.4360   20.1765 C   0  0  0  0  0  0  0  0  0  0  0  0
  -29.2145  -21.0305   19.4684 C   0  0  0  0  0  0  0  0  0  0  0  0
  -26.1198  -29.1667   21.1219 C   0  0  0  0  0  0  0  0  0  0  0  0
  -27.7739  -19.1067   19.2221 C   0  0  0  0  0  0  0  0  0  0  0  0
  -28.8919  -18.2732   19.1926 C   0  0  0  0  0  0  0  0  0  0  0  0
  -23.3562   -8.8148   23.8499 C   0  0  0  0  0  0  0  0  0  0  0  0
  -27.4720  -27.5174   19.9841 C   0  0  0  0  0  0  0  0  0  0  0  0
  -22.2779   -6.7681   24.2631 C   0  0  0  0  0  0  0  0  0  0  0  0
  -21.0112   -4.4866   23.2769 C   0  0  0  0  0  0  0  0  0  0  0  0
  -22.8001   -5.5050   24.5417 C   0  0  0  0  0  0  0  0  0  0  0  0
  -30.3326  -20.1970   19.4389 C   0  0  0  0  0  0  0  0  0  0  0  0
  -24.7590  -11.6519   21.0427 C   0  0  0  0  0  0  0  0  0  0  0  0
  -24.9048  -13.2538   19.5434 C   0  0  0  0  0  0  0  0  0  0  0  0
  -22.5696  -12.7768   20.2970 C   0  0  0  0  0  0  0  0  0  0  0  0
  -23.0096  -31.7394   21.6534 C   0  0  0  0  0  0  0  0  0  0  0  0
  -23.8422  -29.7537   23.8385 C   0  0  0  0  0  0  0  0  0  0  0  0
  -24.0176  -27.7487   26.5928 C   0  0  0  0  0  0  0  0  0  0  0  0
  -29.7654  -15.9173   19.0106 C   0  0  0  0  0  0  0  0  0  0  0  0
  -18.1184  -33.1940   21.7863 C   0  0  0  0  0  0  0  0  0  0  0  0
  -24.0932  -30.1720   20.0610 C   0  0  0  0  0  0  0  0  0  0  0  0
  -25.8298  -30.0732   22.2868 C   0  0  0  0  0  0  0  0  0  0  0  0
  -19.1323  -32.6793   22.8047 C   0  0  0  0  0  0  0  0  0  0  0  0
  -29.8199  -12.3692   18.7179 C   0  0  0  0  0  0  0  0  0  0  0  0
  -28.6869  -23.0417   20.9132 C   0  0  0  0  0  0  0  0  0  0  0  0
  -28.7981  -23.2826   18.3896 C   0  0  0  0  0  0  0  0  0  0  0  0
  -20.4436  -33.4499   22.6889 C   0  0  0  0  0  0  0  0  0  0  0  0
  -28.4447  -11.9416   19.2356 C   0  0  0  0  0  0  0  0  0  0  0  0
  -28.8324  -24.5544   21.0576 C   0  0  0  0  0  0  0  0  0  0  0  0
  -28.9436  -24.7939   18.5472 C   0  0  0  0  0  0  0  0  0  0  0  0
  -30.3754  -13.5585   19.4995 C   0  0  0  0  0  0  0  0  0  0  0  0
  -28.1023  -14.2894   20.1060 C   0  0  0  0  0  0  0  0  0  0  0  0
  -29.3464  -22.5351   19.6182 C   0  0  0  0  0  0  0  0  0  0  0  0
  -21.0733  -33.2622   21.3033 C   0  0  1  0  0  0  0  0  0  0  0  0
  -23.4758  -30.3260   21.4626 C   0  0  1  0  0  0  0  0  0  0  0  0
  -27.4732  -13.1360   19.3075 C   0  0  2  0  0  0  0  0  0  0  0  0
  -28.2915  -25.2927   19.8344 C   0  0  0  0  0  0  0  0  0  1  0  0
  -26.3917  -18.5496   19.1106 C   0  0  0  0  0  0  0  0  0  0  0  0
  -23.8497  -27.8207   29.0956 C   0  0  0  0  0  0  0  0  0  0  0  0
  -26.6260  -30.9915   23.9859 C   0  0  0  0  0  0  0  0  0  0  0  0
  -26.7868  -30.1745   26.3470 C   0  0  0  0  0  0  0  0  0  0  0  0
  -25.0222  -31.8209   25.7163 C   0  0  0  0  0  0  0  0  0  0  0  0
  -21.7098  -25.8959   26.6072 C   0  0  0  0  0  0  0  0  0  0  0  0
  -24.8129  -29.4227   24.9437 C   0  0  1  0  0  0  0  0  0  0  0  0
  -23.0983  -27.6010   27.7917 C   0  0  2  0  0  0  0  0  0  0  0  0
  -25.8069  -30.5842   25.2269 C   0  0  0  0  0  0  0  0  0  0  0  0
  -26.0652  -11.7466   20.7801 N   0  0  0  0  0  0  0  0  0  0  0  0
  -26.1220  -12.7289   19.8648 N   0  0  0  0  0  0  0  0  0  0  0  0
  -24.3895  -30.0606   22.5868 N   0  0  0  0  0  0  0  0  0  0  0  0
  -29.4027  -14.6531   19.5216 N   0  0  0  0  0  0  0  0  0  0  0  0
  -24.7806  -14.2496   18.6404 N   0  0  0  0  0  0  0  0  0  0  0  0
  -21.7880  -12.0427   19.3945 N   0  0  0  0  0  0  0  0  0  0  0  0
  -28.7483  -16.8703   19.0545 N   0  0  0  0  0  0  0  0  0  0  0  0
  -21.7205  -31.9709   21.2130 N   0  0  0  0  0  0  0  0  0  0  0  0
  -24.0044  -29.0342   26.0943 N   0  0  0  0  0  0  0  0  0  0  0  0
  -22.4979  -26.2373   27.8193 N   0  3  0  0  0  0  0  0  0  0  0  0
  -22.0138  -13.6033   21.0595 O   0  0  0  0  0  0  0  0  0  0  0  0
  -23.7626  -32.5602   22.1642 O   0  0  0  0  0  0  0  0  0  0  0  0
  -22.6312  -29.7467   24.0771 O   0  0  0  0  0  0  0  0  0  0  0  0
  -24.6838  -26.8177   26.1456 O   0  0  0  0  0  0  0  0  0  0  0  0
  -30.8864  -16.1305   18.5418 O   0  0  0  0  0  0  0  0  0  0  0  0
  -22.9051   -7.9015   24.7527 O   0  0  0  0  0  0  0  0  0  0  0  0
  -28.5508  -26.6864   19.9641 O   0  0  0  0  0  0  0  0  0  1  0  0
  -20.4020   -3.3912   22.8045 F   0  0  0  0  0  0  0  0  0  0  0  0
  -23.9092   -5.3811   25.2835 F   0  0  0  0  0  0  0  0  0  0  0  0
  -31.9307  -20.8358   19.5720 Cl  0  0  0  0  0  0  0  0  0  0  0  0
  1  2  1  0  0  0  0
  1  5  2  0  0  0  0
  2  6  2  0  0  0  0
  3  8  2  0  0  0  0
  3 17  1  0  0  0  0
  4  9  1  0  0  0  0
  4 17  2  0  0  0  0
  5 19  1  0  0  0  0
  6 21  1  0  0  0  0
  7 10  2  0  0  0  0
  7 20  1  0  0  0  0
  8 26  1  0  0  0  0
  9 26  2  0  0  0  0
 10 27  1  0  0  0  0
 11 12  2  0  0  0  0
 11 28  1  0  0  0  0
 12 29  1  0  0  0  0
 13 22  1  0  0  0  0
 13 24  2  0  0  0  0
 14 23  1  0  0  0  0
 14 27  2  0  0  0  0
 15 25  2  0  0  0  0
 15 31  1  0  0  0  0
 16 29  2  0  0  0  0
 16 30  1  0  0  0  0
 17 32  1  0  0  0  0
 18 32  1  0  0  0  0
 18 33  2  0  0  0  0
 18 34  1  0  0  0  0
 19 21  2  0  0  0  0
 19 39  1  0  0  0  0
 20 23  2  0  0  0  0
 20 40  1  0  0  0  0
 21 53  1  0  0  0  0
 22 31  2  0  0  0  0
 22 52  1  0  0  0  0
 23 41  1  0  0  0  0
 24 25  1  0  0  0  0
 24 57  1  0  0  0  0
 25 72  1  0  0  0  0
 26 81  1  0  0  0  0
 27 82  1  0  0  0  0
 28 30  2  0  0  0  0
 28 81  1  0  0  0  0
 29 83  1  0  0  0  0
 30 84  1  0  0  0  0
 31 85  1  0  0  0  0
 32 66  2  0  0  0  0
 33 67  1  0  0  0  0
 33 70  1  0  0  0  0
 34 71  1  0  0  0  0
 34 76  2  0  0  0  0
 35 54  1  0  0  0  0
 35 73  1  0  0  0  0
 35 77  2  0  0  0  0
 36 63  1  0  0  0  0
 36 68  1  0  0  0  0
 36 78  2  0  0  0  0
 37 64  1  0  0  0  0
 37 74  1  0  0  0  0
 37 79  2  0  0  0  0
 38 69  1  0  0  0  0
 38 72  1  0  0  0  0
 38 80  2  0  0  0  0
 39 42  1  0  0  0  0
 40 54  1  0  0  0  0
 41 68  1  0  0  0  0
 42 46  1  0  0  0  0
 43 47  1  0  0  0  0
 43 50  1  0  0  0  0
 44 48  1  0  0  0  0
 44 52  1  0  0  0  0
 45 49  1  0  0  0  0
 45 52  1  0  0  0  0
 46 53  1  0  0  0  0
 47 55  1  0  0  0  0
 48 56  1  0  0  0  0
 49 56  1  0  0  0  0
 50 69  1  0  0  0  0
 51 55  1  0  0  0  0
 51 69  1  0  0  0  0
 53 73  1  0  0  0  0
 54 68  1  0  0  0  0
 55 67  1  0  0  0  0
 56 82  1  0  0  0  0
 58 64  1  0  0  0  0
 59 65  1  0  0  0  0
 60 65  1  0  0  0  0
 61 65  1  0  0  0  0
 62 75  1  0  0  0  0
 63 65  1  0  0  0  0
 63 74  1  0  0  0  0
 64 75  1  0  0  0  0
 66 67  1  0  0  0  0
M  CHG  1  75   1
M  ISO  4  38 100  56 101  72 100  82 101
M  END
> <Batch ID>
0031

> <Smiles>
CNC(C)C(=O)NC(C(=O)N1Cc2cc([101O:1][101CH:1]3CCC(c4cc(C)c([100NH:0][100C:0](=O)N5CCCC(n6nc(-c7ccc(Oc8ccc(F)cc8F)cc7)c(C(N)=O)c6N)C5)cc4Cl)CC3)ccc2CC1C(=O)NC1CCCc2ccccc21)C(C)(C)C

> <Shape>
0.299

> <Color>
0.147

> <Negative vol penalty>
0.000

$$$$

  -OEChem-04052316423D

 82 90  0     1  0  0  0  0  0999 V2000
  -17.2362  -22.5172   18.9842 C   0  0  0  0  0  0  0  0  0  0  0  0
  -17.7839  -21.2913   18.6200 C   0  0  0  0  0  0  0  0  0  0  0  0
  -27.6419  -23.5546   20.7552 C   0  0  0  0  0  0  0  0  0  0  0  0
  -28.7697  -23.4511   18.6211 C   0  0  0  0  0  0  0  0  0  0  0  0
  -17.9606  -23.3896   19.7955 C   0  0  0  0  0  0  0  0  0  0  0  0
  -19.0569  -20.9376   19.0660 C   0  0  0  0  0  0  0  0  0  0  0  0
  -21.0147  -15.3240   20.5357 C   0  0  0  0  0  0  0  0  0  0  0  0
  -27.7074  -24.9475   20.7223 C   0  0  0  0  0  0  0  0  0  0  0  0
  -28.8352  -24.8441   18.5882 C   0  0  0  0  0  0  0  0  0  0  0  0
  -21.7500  -14.3724   19.8303 C   0  0  0  0  0  0  0  0  0  0  0  0
  -26.0536  -27.4843   19.2182 C   0  0  0  0  0  0  0  0  0  0  0  0
  -24.9046  -28.1956   19.5634 C   0  0  0  0  0  0  0  0  0  0  0  0
  -23.7702  -15.1568   20.8899 C   0  0  0  0  0  0  0  0  0  0  0  0
  -27.8524  -11.1013   19.8183 C   0  0  0  0  0  0  0  0  0  0  0  0
  -30.1162  -11.8464   19.4222 C   0  0  0  0  0  0  0  0  0  0  0  0
  -26.1039  -29.2543   21.3739 C   0  0  0  0  0  0  0  0  0  0  0  0
  -28.1731  -22.8064   19.7045 C   0  0  0  0  0  0  0  0  0  0  0  0
  -27.0756  -20.5523   19.2328 C   0  0  0  0  0  0  0  0  0  0  0  0
  -19.2391  -23.0422   20.2597 C   0  0  0  0  0  0  0  0  0  0  0  0
  -21.6542  -16.2078   21.4168 C   0  0  0  0  0  0  0  0  0  0  0  0
  -19.7995  -21.8067   19.8832 C   0  0  0  0  0  0  0  0  0  0  0  0
  -23.0404  -16.1169   21.6072 C   0  0  0  0  0  0  0  0  0  0  0  0
  -29.2227  -10.9757   20.0461 C   0  0  0  0  0  0  0  0  0  0  0  0
  -27.3754  -12.0976   18.9664 C   0  0  0  0  0  0  0  0  0  0  0  0
  -29.6393  -12.8428   18.5704 C   0  0  0  0  0  0  0  0  0  0  0  0
  -28.3041  -25.5922   19.6389 C   0  0  0  0  0  0  0  0  0  0  0  0
  -23.1284  -14.2906   20.0051 C   0  0  0  0  0  0  0  0  0  0  0  0
  -27.2278  -27.6578   19.9509 C   0  0  0  0  0  0  0  0  0  0  0  0
  -24.9297  -29.0806   20.6412 C   0  0  0  0  0  0  0  0  0  0  0  0
  -27.2530  -28.5428   21.0287 C   0  0  0  0  0  0  0  0  0  0  0  0
  -28.2689  -12.9684   18.3425 C   0  0  0  0  0  0  0  0  0  0  0  0
  -28.1062  -21.3675   19.7382 C   0  0  0  0  0  0  0  0  0  0  0  0
  -27.4844  -19.2707   19.5100 C   0  0  0  0  0  0  0  0  0  0  0  0
  -25.8578  -20.9207   18.5719 C   0  0  0  0  0  0  0  0  0  0  0  0
  -21.9991  -19.3639   21.5706 C   0  0  0  0  0  0  0  0  0  0  0  0
  -23.3856  -18.6823   24.4229 C   0  0  0  0  0  0  0  0  0  0  0  0
  -25.0061  -16.4102   26.3872 C   0  0  0  0  0  0  0  0  0  0  0  0
  -31.4525  -15.3486   19.6388 C   0  0  0  0  0  0  0  0  0  0  0  0
  -20.0032  -24.0381   21.0957 C   0  0  0  0  0  0  0  0  0  0  0  0
  -20.8432  -17.2109   22.1904 C   0  0  0  0  0  0  0  0  0  0  0  0
  -23.7719  -17.0291   22.5566 C   0  0  0  0  0  0  0  0  0  0  0  0
  -21.1925  -23.4286   21.8335 C   0  0  0  0  0  0  0  0  0  0  0  0
  -31.2663  -17.5760   22.4103 C   0  0  0  0  0  0  0  0  0  0  0  0
  -22.0080  -22.5458   20.8942 C   0  0  0  0  0  0  0  0  0  0  0  0
  -30.3481  -18.6961   21.9182 C   0  0  0  0  0  0  0  0  0  0  0  0
  -32.1641  -17.0502   21.2924 C   0  0  0  0  0  0  0  0  0  0  0  0
  -30.5327  -17.7459   19.5812 C   0  0  0  0  0  0  0  0  0  0  0  0
  -21.1673  -21.3766   20.3673 C   0  0  1  0  0  0  0  0  0  0  0  0
  -21.6673  -18.3999   22.6744 C   0  0  1  0  0  0  0  0  0  0  0  0
  -29.5689  -18.2701   20.6594 C   0  0  2  0  0  0  0  0  0  0  0  0
  -29.7326   -9.9105   20.9569 C   0  0  0  0  0  0  0  0  0  0  0  0
  -26.0475  -16.1557   28.6561 C   0  0  0  0  0  0  0  0  0  0  0  0
  -25.8021  -20.2962   23.4921 C   0  0  0  0  0  0  0  0  0  0  0  0
  -27.1308  -19.2353   25.3298 C   0  0  0  0  0  0  0  0  0  0  0  0
  -25.1606  -20.6624   25.8814 C   0  0  0  0  0  0  0  0  0  0  0  0
  -23.1318  -14.2444   27.1324 C   0  0  0  0  0  0  0  0  0  0  0  0
  -25.8849  -12.1958   18.7494 C   0  0  0  0  0  0  0  0  0  0  0  0
  -30.6332  -13.7531   17.9235 C   0  0  0  0  0  0  0  0  0  0  0  0
  -25.2570  -13.3352   19.5448 C   0  0  0  0  0  0  0  0  0  1  0  0
  -24.7896  -18.3700   24.8817 C   0  0  1  0  0  0  0  0  0  0  0  0
  -24.7842  -15.9839   27.8271 C   0  0  2  0  0  0  0  0  0  0  0  0
  -25.7075  -19.6249   24.8768 C   0  0  0  0  0  0  0  0  0  0  0  0
  -29.0951  -20.6628   20.2944 N   0  0  0  0  0  0  0  0  0  0  0  0
  -28.6879  -19.3914   20.1403 N   0  0  0  0  0  0  0  0  0  0  0  0
  -22.9358  -17.9973   23.2853 N   0  0  0  0  0  0  0  0  0  0  0  0
  -31.3635  -16.6620   20.1287 N   0  0  0  0  0  0  0  0  0  0  0  0
  -26.9281  -18.0636   19.2738 N   0  0  0  0  0  0  0  0  0  0  0  0
  -25.5940  -22.2819   18.3673 N   0  0  0  0  0  0  0  0  0  0  0  0
  -21.0466  -20.3459   21.3760 N   0  0  0  0  0  0  0  0  0  0  0  0
  -24.6598  -17.7296   26.1861 N   0  0  0  0  0  0  0  0  0  0  0  0
  -30.6557  -15.0622   18.5370 N   0  0  0  0  0  0  0  0  0  0  0  0
  -24.3744  -14.5523   27.8862 N   0  3  0  0  0  0  0  0  0  0  0  0
  -25.0204  -20.0688   18.1891 O   0  0  0  0  0  0  0  0  0  0  0  0
  -23.0428  -19.2277   20.9430 O   0  0  0  0  0  0  0  0  0  0  0  0
  -22.7104  -19.4986   25.0549 O   0  0  0  0  0  0  0  0  0  0  0  0
  -25.4463  -15.6500   25.5277 O   0  0  0  0  0  0  0  0  0  0  0  0
  -32.1835  -14.4929   20.1491 O   0  0  0  0  0  0  0  0  0  0  0  0
  -28.3680  -26.9514   19.6064 O   0  0  0  0  0  0  0  0  0  0  0  0
  -23.8485  -13.3632   19.3173 O   0  0  0  0  0  0  0  0  0  1  0  0
  -23.8266  -29.7648   20.9717 F   0  0  0  0  0  0  0  0  0  0  0  0
  -28.3784  -28.7147   21.7356 F   0  0  0  0  0  0  0  0  0  0  0  0
  -27.6768  -14.2052   17.2848 Cl  0  0  0  0  0  0  0  0  0  0  0  0
  1  2  1  0  0  0  0
  1  5  2  0  0  0  0
  2  6  2  0  0  0  0
  3  8  2  0  0  0  0
  3 17  1  0  0  0  0
  4  9  1  0  0  0  0
  4 17  2  0  0  0  0
  5 19  1  0  0  0  0
  6 21  1  0  0  0  0
  7 10  2  0  0  0  0
  7 20  1  0  0  0  0
  8 26  1  0  0  0  0
  9 26  2  0  0  0  0
 10 27  1  0  0  0  0
 11 12  2  0  0  0  0
 11 28  1  0  0  0  0
 12 29  1  0  0  0  0
 13 22  1  0  0  0  0
 13 27  2  0  0  0  0
 14 23  2  0  0  0  0
 14 24  1  0  0  0  0
 15 23  1  0  0  0  0
 15 25  2  0  0  0  0
 16 29  2  0  0  0  0
 16 30  1  0  0  0  0
 17 32  1  0  0  0  0
 18 32  1  0  0  0  0
 18 33  2  0  0  0  0
 18 34  1  0  0  0  0
 19 21  2  0  0  0  0
 19 39  1  0  0  0  0
 20 22  2  0  0  0  0
 20 40  1  0  0  0  0
 21 48  1  0  0  0  0
 22 41  1  0  0  0  0
 23 51  1  0  0  0  0
 24 31  2  0  0  0  0
 24 57  1  0  0  0  0
 25 31  1  0  0  0  0
 25 58  1  0  0  0  0
 26 78  1  0  0  0  0
 27 79  1  0  0  0  0
 28 30  2  0  0  0  0
 28 78  1  0  0  0  0
 29 80  1  0  0  0  0
 30 81  1  0  0  0  0
 31 82  1  0  0  0  0
 32 63  2  0  0  0  0
 33 64  1  0  0  0  0
 33 67  1  0  0  0  0
 34 68  1  0  0  0  0
 34 73  2  0  0  0  0
 35 49  1  0  0  0  0
 35 69  1  0  0  0  0
 35 74  2  0  0  0  0
 36 60  1  0  0  0  0
 36 65  1  0  0  0  0
 36 75  2  0  0  0  0
 37 61  1  0  0  0  0
 37 70  1  0  0  0  0
 37 76  2  0  0  0  0
 38 66  1  0  0  0  0
 38 71  1  0  0  0  0
 38 77  2  0  0  0  0
 39 42  1  0  0  0  0
 40 49  1  0  0  0  0
 41 65  1  0  0  0  0
 42 44  1  0  0  0  0
 43 45  1  0  0  0  0
 43 46  1  0  0  0  0
 44 48  1  0  0  0  0
 45 50  1  0  0  0  0
 46 66  1  0  0  0  0
 47 50  1  0  0  0  0
 47 66  1  0  0  0  0
 48 69  1  0  0  0  0
 49 65  1  0  0  0  0
 50 64  1  0  0  0  0
 52 61  1  0  0  0  0
 53 62  1  0  0  0  0
 54 62  1  0  0  0  0
 55 62  1  0  0  0  0
 56 72  1  0  0  0  0
 57 59  1  0  0  0  0
 58 71  1  0  0  0  0
 59 79  1  0  0  0  0
 60 62  1  0  0  0  0
 60 70  1  0  0  0  0
 61 72  1  0  0  0  0
 63 64  1  0  0  0  0
M  CHG  1  72   1
M  ISO  4  38 100  59 101  71 100  79 101
M  END
> <Batch ID>
0031

> <Smiles>
CNC(C)C(=O)NC(C(=O)N1Cc2cc([101O:1][101CH2:1]Cc3cc(C)cc(C[100NH:0][100C:0](=O)N4CCCC(n5nc(-c6ccc(Oc7ccc(F)cc7F)cc6)c(C(N)=O)c5N)C4)c3Cl)ccc2CC1C(=O)NC1CCCc2ccccc21)C(C)(C)C

> <Shape>
0.185

> <Color>
0.076

> <Negative vol penalty>
0.000

$$$$

  -OEChem-04052316423D

 88 97  0     1  0  0  0  0  0999 V2000
  -29.0022  -24.9076   15.1426 C   0  0  0  0  0  0  0  0  0  0  0  0
  -27.6396  -25.0495   15.3851 C   0  0  0  0  0  0  0  0  0  0  0  0
  -27.7846  -15.4685   21.2152 C   0  0  0  0  0  0  0  0  0  0  0  0
  -25.7317  -16.1600   20.1455 C   0  0  0  0  0  0  0  0  0  0  0  0
  -29.9139  -25.0544   16.1872 C   0  0  0  0  0  0  0  0  0  0  0  0
  -27.1880  -25.3373   16.6726 C   0  0  0  0  0  0  0  0  0  0  0  0
  -22.3758  -28.8052   18.1965 C   0  0  0  0  0  0  0  0  0  0  0  0
  -27.3441  -14.1451   21.2052 C   0  0  0  0  0  0  0  0  0  0  0  0
  -25.2911  -14.8366   20.1355 C   0  0  0  0  0  0  0  0  0  0  0  0
  -21.0656  -28.4874   18.5520 C   0  0  0  0  0  0  0  0  0  0  0  0
  -23.9381  -12.6446   22.3253 C   0  0  0  0  0  0  0  0  0  0  0  0
  -22.6231  -12.3963   22.7187 C   0  0  0  0  0  0  0  0  0  0  0  0
  -18.6940  -23.2343   20.3167 C   0  0  0  0  0  0  0  0  0  0  0  0
  -21.6715  -28.6236   20.8830 C   0  0  0  0  0  0  0  0  0  0  0  0
  -20.5768  -24.7423   20.4501 C   0  0  0  0  0  0  0  0  0  0  0  0
  -22.1545  -11.4413   20.5494 C   0  0  0  0  0  0  0  0  0  0  0  0
  -26.9784  -16.4760   20.6854 C   0  0  0  0  0  0  0  0  0  0  0  0
  -28.5879  -18.3601   20.0795 C   0  0  0  0  0  0  0  0  0  0  0  0
  -29.4739  -25.3537   17.4862 C   0  0  0  0  0  0  0  0  0  0  0  0
  -23.3478  -29.0242   19.1832 C   0  0  0  0  0  0  0  0  0  0  0  0
  -28.0946  -25.4869   17.7358 C   0  0  0  0  0  0  0  0  0  0  0  0
  -19.5247  -22.2433   19.7939 C   0  0  0  0  0  0  0  0  0  0  0  0
  -22.9926  -28.9466   20.5374 C   0  0  0  0  0  0  0  0  0  0  0  0
  -19.2200  -24.4839   20.6447 C   0  0  0  0  0  0  0  0  0  0  0  0
  -21.4076  -23.7513   19.9273 C   0  0  0  0  0  0  0  0  0  0  0  0
  -26.0974  -13.8291   20.6653 C   0  0  0  0  0  0  0  0  0  0  0  0
  -20.7140  -28.3938   19.8954 C   0  0  0  0  0  0  0  0  0  0  0  0
  -24.3613  -12.2913   21.0439 C   0  0  0  0  0  0  0  0  0  0  0  0
  -21.7313  -11.7946   21.8308 C   0  0  0  0  0  0  0  0  0  0  0  0
  -23.4695  -11.6896   20.1560 C   0  0  0  0  0  0  0  0  0  0  0  0
  -20.8815  -22.5017   19.5992 C   0  0  0  0  0  0  0  0  0  0  0  0
  -27.4326  -17.8433   20.6960 C   0  0  0  0  0  0  0  0  0  0  0  0
  -28.5688  -19.6996   20.3825 C   0  0  0  0  0  0  0  0  0  0  0  0
  -29.5888  -17.6893   19.3024 C   0  0  0  0  0  0  0  0  0  0  0  0
  -26.0864  -27.6234   19.9842 C   0  0  0  0  0  0  0  0  0  0  0  0
  -26.3055  -30.1144   22.0505 C   0  0  0  0  0  0  0  0  0  0  0  0
  -24.7081  -32.5290   23.8572 C   0  0  0  0  0  0  0  0  0  0  0  0
  -24.1579  -23.5037   21.7698 C   0  0  0  0  0  0  0  0  0  0  0  0
  -30.4938  -25.4564   18.5925 C   0  0  0  0  0  0  0  0  0  0  0  0
  -24.7503  -29.3924   18.7835 C   0  0  0  0  0  0  0  0  0  0  0  0
  -23.9940  -29.1925   21.6353 C   0  0  0  0  0  0  0  0  0  0  0  0
  -29.9592  -26.1314   19.8530 C   0  0  0  0  0  0  0  0  0  0  0  0
  -16.7003  -18.9424   19.2275 C   0  0  0  0  0  0  0  0  0  0  0  0
  -17.2573  -19.6470   17.9942 C   0  0  0  0  0  0  0  0  0  0  0  0
  -17.7480  -18.8262   20.3304 C   0  0  0  0  0  0  0  0  0  0  0  0
  -27.0388  -22.7610   23.7258 C   0  0  0  0  0  0  0  0  0  0  0  0
  -17.8480  -21.0119   18.3430 C   0  0  0  0  0  0  0  0  0  0  0  0
  -18.3411  -20.1871   20.6907 C   0  0  0  0  0  0  0  0  0  0  0  0
  -28.5928  -25.5637   20.2241 C   0  0  0  0  0  0  0  0  0  0  0  0
  -27.5706  -21.4631   23.1155 C   0  0  0  0  0  0  0  0  0  0  0  0
  -25.5122  -22.8025   23.7219 C   0  0  0  0  0  0  0  0  0  0  0  0
  -25.4215  -21.2678   21.7956 C   0  0  0  0  0  0  0  0  0  0  0  0
  -18.9105  -20.9028   19.4520 C   0  0  0  0  0  0  0  0  0  0  0  0
  -27.5675  -25.8235   19.1138 C   0  0  1  0  0  0  0  0  0  0  0  0
  -25.7797  -29.0897   19.8680 C   0  0  1  0  0  0  0  0  0  0  0  0
  -26.9569  -21.2039   21.7264 C   0  0  2  0  0  0  0  0  0  0  0  0
  -25.1500  -34.3898   25.4819 C   0  0  0  0  0  0  0  0  0  0  0  0
  -26.7203  -28.0691   24.2764 C   0  0  0  0  0  0  0  0  0  0  0  0
  -26.2060  -29.8730   25.9346 C   0  0  0  0  0  0  0  0  0  0  0  0
  -28.1845  -30.0906   24.4311 C   0  0  0  0  0  0  0  0  0  0  0  0
  -23.5956  -34.5591   22.0133 C   0  0  0  0  0  0  0  0  0  0  0  0
  -18.3224  -25.5560   21.2090 C   0  0  0  0  0  0  0  0  0  0  0  0
  -22.8549  -24.0732   19.7358 C   0  0  0  0  0  0  0  0  0  0  0  0
  -17.6831  -26.4482   20.1427 C   0  0  0  0  0  0  0  0  0  0  0  0
  -18.6987  -27.2575   19.3446 C   0  0  0  0  0  0  0  0  0  1  0  0
  -25.8620  -30.3671   23.4712 C   0  0  1  0  0  0  0  0  0  0  0  0
  -24.9819  -34.0135   24.0181 C   0  0  2  0  0  0  0  0  0  0  0  0
  -26.7245  -29.5933   24.5079 C   0  0  0  0  0  0  0  0  0  0  0  0
  -26.7308  -18.7783   21.3419 N   0  0  0  0  0  0  0  0  0  0  0  0
  -27.4471  -19.8961   21.1331 N   0  0  0  0  0  0  0  0  0  0  0  0
  -25.3539  -29.5432   21.1937 N   0  0  0  0  0  0  0  0  0  0  0  0
  -24.9939  -22.5509   22.3751 N   0  0  0  0  0  0  0  0  0  0  0  0
  -29.4023  -20.7168   20.0775 N   0  0  0  0  0  0  0  0  0  0  0  0
  -29.4087  -17.5994   17.9154 N   0  0  0  0  0  0  0  0  0  0  0  0
  -27.1095  -27.1956   19.1598 N   0  0  0  0  0  0  0  0  0  0  0  0
  -25.8693  -31.8150   23.6496 N   0  0  0  0  0  0  0  0  0  0  0  0
  -23.7159  -23.1899   20.4904 N   0  0  0  0  0  0  0  0  0  0  0  0
  -23.8572  -34.8118   23.4537 N   0  3  0  0  0  0  0  0  0  0  0  0
  -30.6044  -17.1702   19.8246 O   0  0  0  0  0  0  0  0  0  0  0  0
  -25.4435  -26.9317   20.7651 O   0  0  0  0  0  0  0  0  0  0  0  0
  -27.4517  -30.4192   21.7115 O   0  0  0  0  0  0  0  0  0  0  0  0
  -23.5776  -32.0502   23.9141 O   0  0  0  0  0  0  0  0  0  0  0  0
  -23.8342  -24.5585   22.3261 O   0  0  0  0  0  0  0  0  0  0  0  0
  -25.6673  -12.5378   20.6552 O   0  0  0  0  0  0  0  0  0  0  0  0
  -19.4361  -28.0831   20.2451 O   0  0  0  0  0  0  0  0  0  1  0  0
  -20.4690  -11.5548   22.2092 F   0  0  0  0  0  0  0  0  0  0  0  0
  -23.8706  -11.3469   18.9242 F   0  0  0  0  0  0  0  0  0  0  0  0
  -21.9141  -21.2713   18.9519 Cl  0  0  0  0  0  0  0  0  0  0  0  0
  1  2  1  0  0  0  0
  1  5  2  0  0  0  0
  2  6  2  0  0  0  0
  3  8  2  0  0  0  0
  3 17  1  0  0  0  0
  4  9  1  0  0  0  0
  4 17  2  0  0  0  0
  5 19  1  0  0  0  0
  6 21  1  0  0  0  0
  7 10  2  0  0  0  0
  7 20  1  0  0  0  0
  8 26  1  0  0  0  0
  9 26  2  0  0  0  0
 10 27  1  0  0  0  0
 11 12  2  0  0  0  0
 11 28  1  0  0  0  0
 12 29  1  0  0  0  0
 13 22  1  0  0  0  0
 13 24  2  0  0  0  0
 14 23  1  0  0  0  0
 14 27  2  0  0  0  0
 15 24  1  0  0  0  0
 15 25  2  0  0  0  0
 16 29  2  0  0  0  0
 16 30  1  0  0  0  0
 17 32  1  0  0  0  0
 18 32  1  0  0  0  0
 18 33  2  0  0  0  0
 18 34  1  0  0  0  0
 19 21  2  0  0  0  0
 19 39  1  0  0  0  0
 20 23  2  0  0  0  0
 20 40  1  0  0  0  0
 21 54  1  0  0  0  0
 22 31  2  0  0  0  0
 22 53  1  0  0  0  0
 23 41  1  0  0  0  0
 24 62  1  0  0  0  0
 25 31  1  0  0  0  0
 25 63  1  0  0  0  0
 26 84  1  0  0  0  0
 27 85  1  0  0  0  0
 28 30  2  0  0  0  0
 28 84  1  0  0  0  0
 29 86  1  0  0  0  0
 30 87  1  0  0  0  0
 31 88  1  0  0  0  0
 32 69  2  0  0  0  0
 33 70  1  0  0  0  0
 33 73  1  0  0  0  0
 34 74  1  0  0  0  0
 34 79  2  0  0  0  0
 35 55  1  0  0  0  0
 35 75  1  0  0  0  0
 35 80  2  0  0  0  0
 36 66  1  0  0  0  0
 36 71  1  0  0  0  0
 36 81  2  0  0  0  0
 37 67  1  0  0  0  0
 37 76  1  0  0  0  0
 37 82  2  0  0  0  0
 38 72  1  0  0  0  0
 38 77  1  0  0  0  0
 38 83  2  0  0  0  0
 39 42  1  0  0  0  0
 40 55  1  0  0  0  0
 41 71  1  0  0  0  0
 42 49  1  0  0  0  0
 43 44  1  0  0  0  0
 43 45  1  0  0  0  0
 44 47  1  0  0  0  0
 45 48  1  0  0  0  0
 46 50  1  0  0  0  0
 46 51  1  0  0  0  0
 47 53  1  0  0  0  0
 48 53  1  0  0  0  0
 49 54  1  0  0  0  0
 50 56  1  0  0  0  0
 51 72  1  0  0  0  0
 52 56  1  0  0  0  0
 52 72  1  0  0  0  0
 54 75  1  0  0  0  0
 55 71  1  0  0  0  0
 56 70  1  0  0  0  0
 57 67  1  0  0  0  0
 58 68  1  0  0  0  0
 59 68  1  0  0  0  0
 60 68  1  0  0  0  0
 61 78  1  0  0  0  0
 62 64  1  0  0  0  0
 63 77  1  0  0  0  0
 64 65  1  0  0  0  0
 65 85  1  0  0  0  0
 66 68  1  0  0  0  0
 66 76  1  0  0  0  0
 67 78  1  0  0  0  0
 69 70  1  0  0  0  0
M  CHG  1  78   1
M  ISO  4  38 100  65 101  77 100  85 101
M  END
> <Batch ID>
0031

> <Smiles>
CNC(C)C(=O)NC(C(=O)N1Cc2cc([101O:1][101CH2:1]CCc3cc(C[100NH:0][100C:0](=O)N4CCCC(n5nc(-c6ccc(Oc7ccc(F)cc7F)cc6)c(C(N)=O)c5N)C4)c(Cl)c(C4CCCCC4)c3)ccc2CC1C(=O)NC1CCCc2ccccc21)C(C)(C)C

> <Shape>
0.252

> <Color>
0.063

> <Negative vol penalty>
0.000

$$$$

  -OEChem-04052316423D

 78 86  0     1  0  0  0  0  0999 V2000
  -28.9374  -33.5994   25.3076 C   0  0  0  0  0  0  0  0  0  0  0  0
  -29.5178  -32.5206   24.6481 C   0  0  0  0  0  0  0  0  0  0  0  0
  -22.7897  -10.3482   20.3597 C   0  0  0  0  0  0  0  0  0  0  0  0
  -24.5533   -9.0989   21.4395 C   0  0  0  0  0  0  0  0  0  0  0  0
  -27.5976  -33.5429   25.6891 C   0  0  0  0  0  0  0  0  0  0  0  0
  -28.7588  -31.3842   24.3706 C   0  0  0  0  0  0  0  0  0  0  0  0
  -28.0596  -26.1942   19.4827 C   0  0  0  0  0  0  0  0  0  0  0  0
  -21.8649   -9.8224   21.2618 C   0  0  0  0  0  0  0  0  0  0  0  0
  -23.6285   -8.5731   22.3417 C   0  0  0  0  0  0  0  0  0  0  0  0
  -28.0096  -24.8042   19.3873 C   0  0  0  0  0  0  0  0  0  0  0  0
  -21.2783   -6.1427   22.3678 C   0  0  0  0  0  0  0  0  0  0  0  0
  -21.3402   -4.7753   22.6363 C   0  0  0  0  0  0  0  0  0  0  0  0
  -25.6831  -24.8503   20.0232 C   0  0  0  0  0  0  0  0  0  0  0  0
  -21.7343   -5.2516   24.9718 C   0  0  0  0  0  0  0  0  0  0  0  0
  -24.1340   -9.9864   20.4485 C   0  0  0  0  0  0  0  0  0  0  0  0
  -25.0827  -10.3919   18.1155 C   0  0  0  0  0  0  0  0  0  0  0  0
  -26.8192  -32.4090   25.4076 C   0  0  0  0  0  0  0  0  0  0  0  0
  -26.9227  -26.9231   19.8604 C   0  0  0  0  0  0  0  0  0  0  0  0
  -27.4076  -31.3120   24.7499 C   0  0  0  0  0  0  0  0  0  0  0  0
  -25.7206  -26.2497   20.1202 C   0  0  0  0  0  0  0  0  0  0  0  0
  -22.2843   -8.9348   22.2528 C   0  0  0  0  0  0  0  0  0  0  0  0
  -26.8220  -24.1318   19.6604 C   0  0  0  0  0  0  0  0  0  0  0  0
  -21.4446   -7.0646   23.4014 C   0  0  0  0  0  0  0  0  0  0  0  0
  -21.5681   -4.3298   23.9382 C   0  0  0  0  0  0  0  0  0  0  0  0
  -21.6725   -6.6190   24.7034 C   0  0  0  0  0  0  0  0  0  0  0  0
  -25.0897  -10.5287   19.5166 C   0  0  0  0  0  0  0  0  0  0  0  0
  -26.1926  -11.0846   17.6973 C   0  0  0  0  0  0  0  0  0  0  0  0
  -24.1559   -9.7005   17.2678 C   0  0  0  0  0  0  0  0  0  0  0  0
  -26.1909  -28.8389   22.2889 C   0  0  0  0  0  0  0  0  0  0  0  0
  -29.2948  -15.5814   20.2008 C   0  0  0  0  0  0  0  0  0  0  0  0
  -23.4637  -29.3009   20.5944 C   0  0  0  0  0  0  0  0  0  0  0  0
  -21.2673  -28.1244   18.2624 C   0  0  0  0  0  0  0  0  0  0  0  0
  -25.3878  -32.3753   25.8815 C   0  0  0  0  0  0  0  0  0  0  0  0
  -26.9860  -28.4242   19.9327 C   0  0  0  0  0  0  0  0  0  0  0  0
  -24.4666  -26.9874   20.5098 C   0  0  0  0  0  0  0  0  0  0  0  0
  -24.5518  -31.2842   25.2174 C   0  0  0  0  0  0  0  0  0  0  0  0
  -30.5545  -12.4017   19.1317 C   0  0  0  0  0  0  0  0  0  0  0  0
  -25.3090  -29.9601   25.2125 C   0  0  0  0  0  0  0  0  0  0  0  0
  -28.7568  -18.3274   18.7507 C   0  0  0  0  0  0  0  0  0  0  0  0
  -26.9866  -18.5973   20.5312 C   0  0  0  0  0  0  0  0  0  0  0  0
  -28.9767  -19.8391   18.7403 C   0  0  0  0  0  0  0  0  0  0  0  0
  -27.2065  -20.1090   20.5207 C   0  0  0  0  0  0  0  0  0  0  0  0
  -29.2981  -11.5405   19.0094 C   0  0  0  0  0  0  0  0  0  0  0  0
  -30.4421  -13.3926   20.2861 C   0  0  0  0  0  0  0  0  0  0  0  0
  -27.9751  -13.4090   20.0974 C   0  0  0  0  0  0  0  0  0  0  0  0
  -26.6104  -30.0716   24.4091 C   0  0  1  0  0  0  0  0  0  0  0  0
  -25.9050  -29.0255   20.8256 C   0  0  1  0  0  0  0  0  0  0  0  0
  -28.2520  -17.8375   20.1139 C   0  0  0  0  0  0  0  0  0  0  0  0
  -27.7112  -20.5989   19.1575 C   0  0  0  0  0  0  0  0  0  0  0  0
  -28.0346  -12.4151   18.9239 C   0  0  2  0  0  0  0  0  0  0  0  0
  -19.1132  -28.7071   17.1144 C   0  0  0  0  0  0  0  0  0  0  0  0
  -21.9183  -28.5378   23.1122 C   0  0  0  0  0  0  0  0  0  0  0  0
  -19.8882  -28.2125   21.6835 C   0  0  0  0  0  0  0  0  0  0  0  0
  -20.9539  -30.4626   21.8394 C   0  0  0  0  0  0  0  0  0  0  0  0
  -22.5582  -28.1478   15.5993 C   0  0  0  0  0  0  0  0  0  0  0  0
  -27.9924  -16.3325   20.0839 C   0  0  0  0  0  0  0  0  0  0  0  0
  -27.9708  -22.1039   19.1873 C   0  0  0  0  0  0  0  0  0  1  0  0
  -22.1126  -28.6297   20.5393 C   0  0  1  0  0  0  0  0  0  0  0  0
  -20.6307  -28.7866   17.0538 C   0  0  2  0  0  0  0  0  0  0  0  0
  -21.2422  -28.9463   21.7882 C   0  0  0  0  0  0  0  0  0  0  0  0
  -26.1221  -11.2515   19.9590 N   0  0  0  0  0  0  0  0  0  0  0  0
  -26.7744  -11.5749   18.8293 N   0  0  0  0  0  0  0  0  0  0  0  0
  -24.5807  -28.4539   20.5730 N   0  0  0  0  0  0  0  0  0  0  0  0
  -29.2180  -14.1886   20.1807 N   0  0  0  0  0  0  0  0  0  0  0  0
  -26.7179  -11.3160   16.4755 N   0  0  0  0  0  0  0  0  0  0  0  0
  -24.4003   -8.3530   16.9696 N   0  0  0  0  0  0  0  0  0  0  0  0
  -26.3338  -30.0214   22.9895 N   0  0  0  0  0  0  0  0  0  0  0  0
  -21.5090  -29.0306   19.2731 N   0  0  0  0  0  0  0  0  0  0  0  0
  -21.0864  -28.1230   15.7996 N   0  3  0  0  0  0  0  0  0  0  0  0
  -23.1499  -10.2655   16.7757 O   0  0  0  0  0  0  0  0  0  0  0  0
  -26.2740  -27.7060   22.7486 O   0  0  0  0  0  0  0  0  0  0  0  0
  -30.3483  -16.2153   20.3037 O   0  0  0  0  0  0  0  0  0  0  0  0
  -23.5258  -30.5318   20.6471 O   0  0  0  0  0  0  0  0  0  0  0  0
  -21.5211  -26.9227   18.3069 O   0  0  0  0  0  0  0  0  0  0  0  0
  -21.3821   -8.4218   23.1334 O   0  0  0  0  0  0  0  0  0  0  0  0
  -26.7705  -22.7751   19.5687 O   0  0  0  0  0  0  0  0  0  1  0  0
  -21.6259   -3.0166   24.1961 F   0  0  0  0  0  0  0  0  0  0  0  0
  -21.8318   -7.4999   25.7007 F   0  0  0  0  0  0  0  0  0  0  0  0
  1  2  1  0  0  0  0
  1  5  2  0  0  0  0
  2  6  2  0  0  0  0
  3  8  2  0  0  0  0
  3 15  1  0  0  0  0
  4  9  1  0  0  0  0
  4 15  2  0  0  0  0
  5 17  1  0  0  0  0
  6 19  1  0  0  0  0
  7 10  2  0  0  0  0
  7 18  1  0  0  0  0
  8 21  1  0  0  0  0
  9 21  2  0  0  0  0
 10 22  1  0  0  0  0
 11 12  2  0  0  0  0
 11 23  1  0  0  0  0
 12 24  1  0  0  0  0
 13 20  1  0  0  0  0
 13 22  2  0  0  0  0
 14 24  2  0  0  0  0
 14 25  1  0  0  0  0
 15 26  1  0  0  0  0
 16 26  1  0  0  0  0
 16 27  2  0  0  0  0
 16 28  1  0  0  0  0
 17 19  2  0  0  0  0
 17 33  1  0  0  0  0
 18 20  2  0  0  0  0
 18 34  1  0  0  0  0
 19 46  1  0  0  0  0
 20 35  1  0  0  0  0
 21 75  1  0  0  0  0
 22 76  1  0  0  0  0
 23 25  2  0  0  0  0
 23 75  1  0  0  0  0
 24 77  1  0  0  0  0
 25 78  1  0  0  0  0
 26 61  2  0  0  0  0
 27 62  1  0  0  0  0
 27 65  1  0  0  0  0
 28 66  1  0  0  0  0
 28 70  2  0  0  0  0
 29 47  1  0  0  0  0
 29 67  1  0  0  0  0
 29 71  2  0  0  0  0
 30 56  1  0  0  0  0
 30 64  1  0  0  0  0
 30 72  2  0  0  0  0
 31 58  1  0  0  0  0
 31 63  1  0  0  0  0
 31 73  2  0  0  0  0
 32 59  1  0  0  0  0
 32 68  1  0  0  0  0
 32 74  2  0  0  0  0
 33 36  1  0  0  0  0
 34 47  1  0  0  0  0
 35 63  1  0  0  0  0
 36 38  1  0  0  0  0
 37 43  1  0  0  0  0
 37 44  1  0  0  0  0
 38 46  1  0  0  0  0
 39 41  1  0  0  0  0
 39 48  1  0  0  0  0
 40 42  1  0  0  0  0
 40 48  1  0  0  0  0
 41 49  1  0  0  0  0
 42 49  1  0  0  0  0
 43 50  1  0  0  0  0
 44 64  1  0  0  0  0
 45 50  1  0  0  0  0
 45 64  1  0  0  0  0
 46 67  1  0  0  0  0
 47 63  1  0  0  0  0
 48 56  1  0  0  0  0
 49 57  1  0  0  0  0
 50 62  1  0  0  0  0
 51 59  1  0  0  0  0
 52 60  1  0  0  0  0
 53 60  1  0  0  0  0
 54 60  1  0  0  0  0
 55 69  1  0  0  0  0
 57 76  1  0  0  0  0
 58 60  1  0  0  0  0
 58 68  1  0  0  0  0
 59 69  1  0  0  0  0
 61 62  1  0  0  0  0
M  CHG  1  69   1
M  ISO  4  30 100  56 100  57 101  76 101
M  END
> <Batch ID>
0031

> <Smiles>
CNC(C)C(=O)NC(C(=O)N1Cc2cc([101O:1][101CH2:1]C3CCC([100CH2:0][100C:0](=O)N4CCCC(n5nc(-c6ccc(Oc7ccc(F)cc7F)cc6)c(C(N)=O)c5N)C4)CC3)ccc2CC1C(=O)NC1CCCc2ccccc21)C(C)(C)C

> <Shape>
0.314

> <Color>
0.080

> <Negative vol penalty>
0.000

$$$$

  -OEChem-04052316423D

 83 91  0     1  0  0  0  0  0999 V2000
  -29.5796  -32.7840   21.0746 C   0  0  0  0  0  0  0  0  0  0  0  0
  -29.3240  -31.4353   21.3006 C   0  0  0  0  0  0  0  0  0  0  0  0
  -22.9064  -10.0939   19.9813 C   0  0  0  0  0  0  0  0  0  0  0  0
  -24.0517   -9.4462   22.0077 C   0  0  0  0  0  0  0  0  0  0  0  0
  -28.5851  -33.7308   21.3162 C   0  0  0  0  0  0  0  0  0  0  0  0
  -28.0740  -31.0328   21.7695 C   0  0  0  0  0  0  0  0  0  0  0  0
  -26.2845  -26.9878   19.3036 C   0  0  0  0  0  0  0  0  0  0  0  0
  -22.1641   -8.9138   20.0237 C   0  0  0  0  0  0  0  0  0  0  0  0
  -23.3093   -8.2661   22.0501 C   0  0  0  0  0  0  0  0  0  0  0  0
  -26.8086  -25.7445   19.6550 C   0  0  0  0  0  0  0  0  0  0  0  0
  -19.4779   -7.7193   21.6943 C   0  0  0  0  0  0  0  0  0  0  0  0
  -18.1060   -7.8077   21.4585 C   0  0  0  0  0  0  0  0  0  0  0  0
  -24.8628  -25.3153   21.0146 C   0  0  0  0  0  0  0  0  0  0  0  0
  -28.4993  -19.6034   20.3457 C   0  0  0  0  0  0  0  0  0  0  0  0
  -29.0406  -20.4983   22.5235 C   0  0  0  0  0  0  0  0  0  0  0  0
  -18.3368   -6.3286   19.5621 C   0  0  0  0  0  0  0  0  0  0  0  0
  -23.8503  -10.3601   20.9733 C   0  0  0  0  0  0  0  0  0  0  0  0
  -24.2838  -12.8152   21.5140 C   0  0  0  0  0  0  0  0  0  0  0  0
  -27.3192  -33.3388   21.7791 C   0  0  0  0  0  0  0  0  0  0  0  0
  -25.0486  -27.4093   19.8145 C   0  0  0  0  0  0  0  0  0  0  0  0
  -27.0620  -31.9754   22.0188 C   0  0  0  0  0  0  0  0  0  0  0  0
  -24.3240  -26.5632   20.6661 C   0  0  0  0  0  0  0  0  0  0  0  0
  -28.9436  -19.4120   21.6540 C   0  0  0  0  0  0  0  0  0  0  0  0
  -28.1522  -20.8811   19.9069 C   0  0  0  0  0  0  0  0  0  0  0  0
  -28.6935  -21.7761   22.0848 C   0  0  0  0  0  0  0  0  0  0  0  0
  -28.2493  -21.9675   20.7764 C   0  0  0  0  0  0  0  0  0  0  0  0
  -22.3655   -7.9999   21.0581 C   0  0  0  0  0  0  0  0  0  0  0  0
  -26.0991  -24.9093   20.5129 C   0  0  0  0  0  0  0  0  0  0  0  0
  -20.2793   -6.9357   20.8640 C   0  0  0  0  0  0  0  0  0  0  0  0
  -17.5354   -7.1123   20.3924 C   0  0  0  0  0  0  0  0  0  0  0  0
  -19.7087   -6.2403   19.7979 C   0  0  0  0  0  0  0  0  0  0  0  0
  -24.6179  -11.5787   20.9298 C   0  0  0  0  0  0  0  0  0  0  0  0
  -25.3302  -13.6429   21.1881 C   0  0  0  0  0  0  0  0  0  0  0  0
  -23.1306  -13.1826   22.2827 C   0  0  0  0  0  0  0  0  0  0  0  0
  -24.0839  -29.8199   21.6482 C   0  0  0  0  0  0  0  0  0  0  0  0
  -21.1365  -28.6575   20.9527 C   0  0  0  0  0  0  0  0  0  0  0  0
  -19.2215  -25.9981   20.0001 C   0  0  0  0  0  0  0  0  0  0  0  0
  -30.8052  -14.5927   20.6704 C   0  0  0  0  0  0  0  0  0  0  0  0
  -26.2913  -34.4032   22.0709 C   0  0  0  0  0  0  0  0  0  0  0  0
  -24.4845  -28.7421   19.4046 C   0  0  0  0  0  0  0  0  0  0  0  0
  -22.9833  -26.9604   21.2258 C   0  0  0  0  0  0  0  0  0  0  0  0
  -24.8723  -33.8577   22.2102 C   0  0  0  0  0  0  0  0  0  0  0  0
  -29.1611  -12.9877   17.9506 C   0  0  0  0  0  0  0  0  0  0  0  0
  -24.8606  -32.6227   23.1053 C   0  0  0  0  0  0  0  0  0  0  0  0
  -27.8083  -12.5749   18.5331 C   0  0  0  0  0  0  0  0  0  0  0  0
  -30.2818  -12.8593   18.9800 C   0  0  0  0  0  0  0  0  0  0  0  0
  -28.6853  -13.1520   20.8345 C   0  0  0  0  0  0  0  0  0  0  0  0
  -25.7106  -31.4971   22.5035 C   0  0  1  0  0  0  0  0  0  0  0  0
  -23.4563  -29.2850   20.3922 C   0  0  1  0  0  0  0  0  0  0  0  0
  -27.5147  -13.3178   19.8503 C   0  0  2  0  0  0  0  0  0  0  0  0
  -27.6783  -21.0590   18.5014 C   0  0  0  0  0  0  0  0  0  0  0  0
  -28.8062  -22.9228   23.0356 C   0  0  0  0  0  0  0  0  0  0  0  0
  -16.8400  -25.3447   19.5542 C   0  0  0  0  0  0  0  0  0  0  0  0
  -20.6037  -28.5595   23.9555 C   0  0  0  0  0  0  0  0  0  0  0  0
  -18.6587  -27.0530   23.4907 C   0  0  0  0  0  0  0  0  0  0  0  0
  -18.6805  -29.3756   22.5808 C   0  0  0  0  0  0  0  0  0  0  0  0
  -19.8127  -25.3238   17.1797 C   0  0  0  0  0  0  0  0  0  0  0  0
  -29.3153  -18.0460   22.1229 C   0  0  0  0  0  0  0  0  0  0  0  0
  -27.8754  -23.3417   20.3043 C   0  0  0  0  0  0  0  0  0  1  0  0
  -30.7964  -17.6778   21.9057 C   0  0  0  0  0  0  0  0  0  0  0  0
  -31.1848  -16.2981   22.4330 C   0  0  0  0  0  0  0  0  0  0  0  0
  -20.2156  -27.6363   21.5757 C   0  0  1  0  0  0  0  0  0  0  0  0
  -18.1346  -25.8647   18.9488 C   0  0  2  0  0  0  0  0  0  0  0  0
  -19.5658  -28.1491   22.8918 C   0  0  0  0  0  0  0  0  0  0  0  0
  -25.7852  -11.6133   20.2816 N   0  0  0  0  0  0  0  0  0  0  0  0
  -26.1938  -12.8816   20.4566 N   0  0  0  0  0  0  0  0  0  0  0  0
  -22.4770  -28.2758   20.8005 N   0  0  0  0  0  0  0  0  0  0  0  0
  -29.9417  -13.5875   20.2047 N   0  0  0  0  0  0  0  0  0  0  0  0
  -25.5868  -14.9403   21.4586 N   0  0  0  0  0  0  0  0  0  0  0  0
  -22.1511  -12.2098   22.5245 N   0  0  0  0  0  0  0  0  0  0  0  0
  -24.9926  -30.8385   21.4334 N   0  0  0  0  0  0  0  0  0  0  0  0
  -19.2565  -27.2661   20.5405 N   0  0  0  0  0  0  0  0  0  0  0  0
  -30.4051  -15.2378   21.8343 N   0  0  0  0  0  0  0  0  0  0  0  0
  -18.5637  -24.9227   17.8767 N   0  3  0  0  0  0  0  0  0  0  0  0
  -22.9656  -14.3438   22.7276 O   0  0  0  0  0  0  0  0  0  0  0  0
  -23.7661  -29.3447   22.7321 O   0  0  0  0  0  0  0  0  0  0  0  0
  -20.6816  -29.7508   20.6071 O   0  0  0  0  0  0  0  0  0  0  0  0
  -19.9628  -25.0691   20.3134 O   0  0  0  0  0  0  0  0  0  0  0  0
  -31.8523  -14.8967   20.0890 O   0  0  0  0  0  0  0  0  0  0  0  0
  -21.6411   -6.8483   21.0999 O   0  0  0  0  0  0  0  0  0  0  0  0
  -26.6087  -23.6956   20.8580 O   0  0  0  0  0  0  0  0  0  1  0  0
  -16.2177   -7.1960   20.1670 F   0  0  0  0  0  0  0  0  0  0  0  0
  -20.4733   -5.4849   18.9975 F   0  0  0  0  0  0  0  0  0  0  0  0
  1  2  1  0  0  0  0
  1  5  2  0  0  0  0
  2  6  2  0  0  0  0
  3  8  2  0  0  0  0
  3 17  1  0  0  0  0
  4  9  1  0  0  0  0
  4 17  2  0  0  0  0
  5 19  1  0  0  0  0
  6 21  1  0  0  0  0
  7 10  2  0  0  0  0
  7 20  1  0  0  0  0
  8 27  1  0  0  0  0
  9 27  2  0  0  0  0
 10 28  1  0  0  0  0
 11 12  2  0  0  0  0
 11 29  1  0  0  0  0
 12 30  1  0  0  0  0
 13 22  1  0  0  0  0
 13 28  2  0  0  0  0
 14 23  1  0  0  0  0
 14 24  2  0  0  0  0
 15 23  2  0  0  0  0
 15 25  1  0  0  0  0
 16 30  2  0  0  0  0
 16 31  1  0  0  0  0
 17 32  1  0  0  0  0
 18 32  1  0  0  0  0
 18 33  2  0  0  0  0
 18 34  1  0  0  0  0
 19 21  2  0  0  0  0
 19 39  1  0  0  0  0
 20 22  2  0  0  0  0
 20 40  1  0  0  0  0
 21 48  1  0  0  0  0
 22 41  1  0  0  0  0
 23 58  1  0  0  0  0
 24 26  1  0  0  0  0
 24 51  1  0  0  0  0
 25 26  2  0  0  0  0
 25 52  1  0  0  0  0
 26 59  1  0  0  0  0
 27 80  1  0  0  0  0
 28 81  1  0  0  0  0
 29 31  2  0  0  0  0
 29 80  1  0  0  0  0
 30 82  1  0  0  0  0
 31 83  1  0  0  0  0
 32 65  2  0  0  0  0
 33 66  1  0  0  0  0
 33 69  1  0  0  0  0
 34 70  1  0  0  0  0
 34 75  2  0  0  0  0
 35 49  1  0  0  0  0
 35 71  1  0  0  0  0
 35 76  2  0  0  0  0
 36 62  1  0  0  0  0
 36 67  1  0  0  0  0
 36 77  2  0  0  0  0
 37 63  1  0  0  0  0
 37 72  1  0  0  0  0
 37 78  2  0  0  0  0
 38 68  1  0  0  0  0
 38 73  1  0  0  0  0
 38 79  2  0  0  0  0
 39 42  1  0  0  0  0
 40 49  1  0  0  0  0
 41 67  1  0  0  0  0
 42 44  1  0  0  0  0
 43 45  1  0  0  0  0
 43 46  1  0  0  0  0
 44 48  1  0  0  0  0
 45 50  1  0  0  0  0
 46 68  1  0  0  0  0
 47 50  1  0  0  0  0
 47 68  1  0  0  0  0
 48 71  1  0  0  0  0
 49 67  1  0  0  0  0
 50 66  1  0  0  0  0
 53 63  1  0  0  0  0
 54 64  1  0  0  0  0
 55 64  1  0  0  0  0
 56 64  1  0  0  0  0
 57 74  1  0  0  0  0
 58 60  1  0  0  0  0
 59 81  1  0  0  0  0
 60 61  1  0  0  0  0
 61 73  1  0  0  0  0
 62 64  1  0  0  0  0
 62 72  1  0  0  0  0
 63 74  1  0  0  0  0
 65 66  1  0  0  0  0
M  CHG  1  74   1
M  ISO  4  38 100  59 101  73 100  81 101
M  END
> <Batch ID>
0031

> <Smiles>
CNC(C)C(=O)NC(C(=O)N1Cc2cc([101O:1][101CH2:1]c3c(C)cc(CCC[100NH:0][100C:0](=O)N4CCCC(n5nc(-c6ccc(Oc7ccc(F)cc7F)cc6)c(C(N)=O)c5N)C4)cc3C)ccc2CC1C(=O)NC1CCCc2ccccc21)C(C)(C)C

> <Shape>
0.329

> <Color>
0.152

> <Negative vol penalty>
0.000

$$$$

  -OEChem-04052316423D

 80 88  0     1  0  0  0  0  0999 V2000
  -27.0514  -32.5801   27.6896 C   0  0  0  0  0  0  0  0  0  0  0  0
  -27.4213  -31.5975   26.7768 C   0  0  0  0  0  0  0  0  0  0  0  0
  -23.9815  -13.6808   20.2668 C   0  0  0  0  0  0  0  0  0  0  0  0
  -26.1897  -13.8049   21.2392 C   0  0  0  0  0  0  0  0  0  0  0  0
  -25.7017  -32.8379   27.9258 C   0  0  0  0  0  0  0  0  0  0  0  0
  -26.4417  -30.8713   26.1005 C   0  0  0  0  0  0  0  0  0  0  0  0
  -27.4454  -30.3876   21.1605 C   0  0  0  0  0  0  0  0  0  0  0  0
  -27.9978  -23.2391   22.8383 C   0  0  0  0  0  0  0  0  0  0  0  0
  -24.1056  -12.2955   20.1615 C   0  0  0  0  0  0  0  0  0  0  0  0
  -26.3138  -12.4195   21.1340 C   0  0  0  0  0  0  0  0  0  0  0  0
  -28.3947  -29.4345   20.7940 C   0  0  0  0  0  0  0  0  0  0  0  0
  -23.8493   -9.6096   22.1995 C   0  0  0  0  0  0  0  0  0  0  0  0
  -22.7639   -8.8294   22.5978 C   0  0  0  0  0  0  0  0  0  0  0  0
  -28.7691  -24.1397   23.5728 C   0  0  0  0  0  0  0  0  0  0  0  0
  -26.6239  -27.9055   20.2063 C   0  0  0  0  0  0  0  0  0  0  0  0
  -28.9909  -24.0562   20.7931 C   0  0  0  0  0  0  0  0  0  0  0  0
  -22.6099   -7.9065   20.3703 C   0  0  0  0  0  0  0  0  0  0  0  0
  -25.0235  -14.4355   20.8056 C   0  0  0  0  0  0  0  0  0  0  0  0
  -24.3765  -16.5938   22.0017 C   0  0  0  0  0  0  0  0  0  0  0  0
  -24.7050  -32.1211   27.2449 C   0  0  0  0  0  0  0  0  0  0  0  0
  -26.0760  -30.1023   21.0628 C   0  0  0  0  0  0  0  0  0  0  0  0
  -25.0774  -31.1188   26.3288 C   0  0  0  0  0  0  0  0  0  0  0  0
  -25.6592  -28.8576   20.5697 C   0  0  0  0  0  0  0  0  0  0  0  0
  -29.7622  -24.9570   21.5276 C   0  0  0  0  0  0  0  0  0  0  0  0
  -28.1087  -23.1972   21.4485 C   0  0  0  0  0  0  0  0  0  0  0  0
  -25.2718  -11.6648   20.5951 C   0  0  0  0  0  0  0  0  0  0  0  0
  -27.9840  -28.1922   20.3195 C   0  0  0  0  0  0  0  0  0  0  0  0
  -24.3150   -9.5384   20.8865 C   0  0  0  0  0  0  0  0  0  0  0  0
  -22.1442   -7.9778   21.6832 C   0  0  0  0  0  0  0  0  0  0  0  0
  -23.6953   -8.6868   19.9720 C   0  0  0  0  0  0  0  0  0  0  0  0
  -29.6513  -24.9987   22.9174 C   0  0  0  0  0  0  0  0  0  0  0  0
  -24.8961  -15.8666   20.9140 C   0  0  0  0  0  0  0  0  0  0  0  0
  -24.4742  -17.9079   21.6142 C   0  0  0  0  0  0  0  0  0  0  0  0
  -23.8524  -16.1235   23.2507 C   0  0  0  0  0  0  0  0  0  0  0  0
  -23.6714  -29.9101   23.1327 C   0  0  0  0  0  0  0  0  0  0  0  0
  -21.8980  -29.5394   20.4420 C   0  0  0  0  0  0  0  0  0  0  0  0
  -21.7716  -28.6107   17.1605 C   0  0  0  0  0  0  0  0  0  0  0  0
  -27.3147  -22.1109   19.3188 C   0  0  0  0  0  0  0  0  0  0  0  0
  -23.2591  -32.4026   27.5684 C   0  0  0  0  0  0  0  0  0  0  0  0
  -25.0645  -31.1508   21.4369 C   0  0  0  0  0  0  0  0  0  0  0  0
  -24.2010  -28.5092   20.4265 C   0  0  0  0  0  0  0  0  0  0  0  0
  -22.2840  -31.8468   26.5336 C   0  0  0  0  0  0  0  0  0  0  0  0
  -25.5595  -19.9412   17.1076 C   0  0  0  0  0  0  0  0  0  0  0  0
  -22.6448  -30.4077   26.1791 C   0  0  0  0  0  0  0  0  0  0  0  0
  -25.1877  -18.7476   17.9903 C   0  0  0  0  0  0  0  0  0  0  0  0
  -26.9352  -20.5026   17.4629 C   0  0  0  0  0  0  0  0  0  0  0  0
  -26.7511  -19.6411   19.7636 C   0  0  0  0  0  0  0  0  0  0  0  0
  -24.0441  -30.3269   25.5572 C   0  0  1  0  0  0  0  0  0  0  0  0
  -23.6979  -30.5667   21.7815 C   0  0  1  0  0  0  0  0  0  0  0  0
  -25.3459  -19.0821   19.4865 C   0  0  2  0  0  0  0  0  0  0  0  0
  -20.1747  -28.3812   15.2383 C   0  0  0  0  0  0  0  0  0  0  0  0
  -20.7684  -26.9933   21.6875 C   0  0  0  0  0  0  0  0  0  0  0  0
  -19.9508  -26.3283   19.4165 C   0  0  0  0  0  0  0  0  0  0  0  0
  -19.0855  -28.4056   20.4927 C   0  0  0  0  0  0  0  0  0  0  0  0
  -23.2735  -30.5697   15.5280 C   0  0  0  0  0  0  0  0  0  0  0  0
  -30.7049  -25.8693   20.7810 C   0  0  0  0  0  0  0  0  0  0  0  0
  -30.1581  -27.2867   20.6504 C   0  0  0  0  0  0  0  0  0  1  0  0
  -21.4536  -28.3620   19.6083 C   0  0  1  0  0  0  0  0  0  0  0  0
  -21.1692  -29.2900   15.9439 C   0  0  2  0  0  0  0  0  0  0  0  0
  -20.3421  -27.5279   20.3056 C   0  0  0  0  0  0  0  0  0  0  0  0
  -25.2942  -16.6534   19.9108 N   0  0  0  0  0  0  0  0  0  0  0  0
  -25.0246  -17.8886   20.3665 N   0  0  0  0  0  0  0  0  0  0  0  0
  -23.2503  -29.5654   20.8113 N   0  0  0  0  0  0  0  0  0  0  0  0
  -27.0100  -20.8001   18.8949 N   0  0  0  0  0  0  0  0  0  0  0  0
  -24.1421  -19.0664   22.2225 N   0  0  0  0  0  0  0  0  0  0  0  0
  -23.8255  -14.7422   23.4862 N   0  0  0  0  0  0  0  0  0  0  0  0
  -27.3258  -22.2815   20.7027 N   0  0  0  0  0  0  0  0  0  0  0  0
  -24.0081  -30.7530   24.1746 N   0  0  0  0  0  0  0  0  0  0  0  0
  -21.0681  -28.9037   18.3097 N   0  0  0  0  0  0  0  0  0  0  0  0
  -22.2389  -29.6589   14.9740 N   0  3  0  0  0  0  0  0  0  0  0  0
  -23.4057  -16.9042   24.1250 O   0  0  0  0  0  0  0  0  0  0  0  0
  -23.3664  -28.7267   23.2235 O   0  0  0  0  0  0  0  0  0  0  0  0
  -21.0771  -30.4079   20.7481 O   0  0  0  0  0  0  0  0  0  0  0  0
  -22.7644  -27.8890   17.0972 O   0  0  0  0  0  0  0  0  0  0  0  0
  -27.5218  -23.0218   18.5129 O   0  0  0  0  0  0  0  0  0  0  0  0
  -25.3932  -10.3130   20.4928 O   0  0  0  0  0  0  0  0  0  0  0  0
  -28.9085  -27.2599   19.9617 O   0  0  0  0  0  0  0  0  0  1  0  0
  -21.1028   -7.2274   22.0663 F   0  0  0  0  0  0  0  0  0  0  0  0
  -24.1389   -8.6132   18.7096 F   0  0  0  0  0  0  0  0  0  0  0  0
  -30.5896  -26.0990   23.8598 Cl  0  0  0  0  0  0  0  0  0  0  0  0
  1  2  1  0  0  0  0
  1  5  2  0  0  0  0
  2  6  2  0  0  0  0
  3  9  2  0  0  0  0
  3 18  1  0  0  0  0
  4 10  1  0  0  0  0
  4 18  2  0  0  0  0
  5 20  1  0  0  0  0
  6 22  1  0  0  0  0
  7 11  2  0  0  0  0
  7 21  1  0  0  0  0
  8 14  2  0  0  0  0
  8 25  1  0  0  0  0
  9 26  1  0  0  0  0
 10 26  2  0  0  0  0
 11 27  1  0  0  0  0
 12 13  2  0  0  0  0
 12 28  1  0  0  0  0
 13 29  1  0  0  0  0
 14 31  1  0  0  0  0
 15 23  1  0  0  0  0
 15 27  2  0  0  0  0
 16 24  1  0  0  0  0
 16 25  2  0  0  0  0
 17 29  2  0  0  0  0
 17 30  1  0  0  0  0
 18 32  1  0  0  0  0
 19 32  1  0  0  0  0
 19 33  2  0  0  0  0
 19 34  1  0  0  0  0
 20 22  2  0  0  0  0
 20 39  1  0  0  0  0
 21 23  2  0  0  0  0
 21 40  1  0  0  0  0
 22 48  1  0  0  0  0
 23 41  1  0  0  0  0
 24 31  2  0  0  0  0
 24 56  1  0  0  0  0
 25 67  1  0  0  0  0
 26 76  1  0  0  0  0
 27 77  1  0  0  0  0
 28 30  2  0  0  0  0
 28 76  1  0  0  0  0
 29 78  1  0  0  0  0
 30 79  1  0  0  0  0
 31 80  1  0  0  0  0
 32 61  2  0  0  0  0
 33 62  1  0  0  0  0
 33 65  1  0  0  0  0
 34 66  1  0  0  0  0
 34 71  2  0  0  0  0
 35 49  1  0  0  0  0
 35 68  1  0  0  0  0
 35 72  2  0  0  0  0
 36 58  1  0  0  0  0
 36 63  1  0  0  0  0
 36 73  2  0  0  0  0
 37 59  1  0  0  0  0
 37 69  1  0  0  0  0
 37 74  2  0  0  0  0
 38 64  1  0  0  0  0
 38 67  1  0  0  0  0
 38 75  2  0  0  0  0
 39 42  1  0  0  0  0
 40 49  1  0  0  0  0
 41 63  1  0  0  0  0
 42 44  1  0  0  0  0
 43 45  1  0  0  0  0
 43 46  1  0  0  0  0
 44 48  1  0  0  0  0
 45 50  1  0  0  0  0
 46 64  1  0  0  0  0
 47 50  1  0  0  0  0
 47 64  1  0  0  0  0
 48 68  1  0  0  0  0
 49 63  1  0  0  0  0
 50 62  1  0  0  0  0
 51 59  1  0  0  0  0
 52 60  1  0  0  0  0
 53 60  1  0  0  0  0
 54 60  1  0  0  0  0
 55 70  1  0  0  0  0
 56 57  1  0  0  0  0
 57 77  1  0  0  0  0
 58 60  1  0  0  0  0
 58 69  1  0  0  0  0
 59 70  1  0  0  0  0
 61 62  1  0  0  0  0
M  CHG  1  70   1
M  ISO  4  38 100  57 101  67 100  77 101
M  END
> <Batch ID>
0031

> <Smiles>
CNC(C)C(=O)NC(C(=O)N1Cc2cc([101O:1][101CH2:1]Cc3cc([100NH:0][100C:0](=O)N4CCCC(n5nc(-c6ccc(Oc7ccc(F)cc7F)cc6)c(C(N)=O)c5N)C4)ccc3Cl)ccc2CC1C(=O)NC1CCCc2ccccc21)C(C)(C)C

> <Shape>
0.233

> <Color>
0.092

> <Negative vol penalty>
0.000

$$$$

  -OEChem-04052316423D

 87 97  0     1  0  0  0  0  0999 V2000
  -28.7731  -32.8125   22.8206 C   0  0  0  0  0  0  0  0  0  0  0  0
  -28.6663  -31.4255   22.8043 C   0  0  0  0  0  0  0  0  0  0  0  0
  -22.5501  -12.7222   19.2160 C   0  0  0  0  0  0  0  0  0  0  0  0
  -22.6391  -11.6235   21.3659 C   0  0  0  0  0  0  0  0  0  0  0  0
  -27.6518  -33.5936   23.0970 C   0  0  0  0  0  0  0  0  0  0  0  0
  -27.4383  -30.8188   23.0655 C   0  0  0  0  0  0  0  0  0  0  0  0
  -26.3907  -27.0764   19.8186 C   0  0  0  0  0  0  0  0  0  0  0  0
  -21.3196  -12.1181   18.9582 C   0  0  0  0  0  0  0  0  0  0  0  0
  -21.4085  -11.0194   21.1082 C   0  0  0  0  0  0  0  0  0  0  0  0
  -27.0302  -25.8551   20.0269 C   0  0  0  0  0  0  0  0  0  0  0  0
  -20.2465   -8.3994   19.3149 C   0  0  0  0  0  0  0  0  0  0  0  0
  -20.1175   -7.0415   19.6064 C   0  0  0  0  0  0  0  0  0  0  0  0
  -25.0374  -24.9986   21.0825 C   0  0  0  0  0  0  0  0  0  0  0  0
  -18.3336   -7.5438   21.1565 C   0  0  0  0  0  0  0  0  0  0  0  0
  -28.7278  -19.5332   21.0619 C   0  0  0  0  0  0  0  0  0  0  0  0
  -23.2099  -12.4749   20.4199 C   0  0  0  0  0  0  0  0  0  0  0  0
  -24.7051  -14.3394   21.3118 C   0  0  0  0  0  0  0  0  0  0  0  0
  -26.4073  -32.9965   23.3522 C   0  0  0  0  0  0  0  0  0  0  0  0
  -25.0712  -27.2718   20.2512 C   0  0  0  0  0  0  0  0  0  0  0  0
  -26.2996  -31.5927   23.3469 C   0  0  0  0  0  0  0  0  0  0  0  0
  -24.3826  -26.2224   20.8762 C   0  0  0  0  0  0  0  0  0  0  0  0
  -29.6088  -19.5206   20.0034 C   0  0  0  0  0  0  0  0  0  0  0  0
  -29.9941  -20.8592   19.7583 C   0  0  0  0  0  0  0  0  0  0  0  0
  -20.7488  -11.2667   19.9043 C   0  0  0  0  0  0  0  0  0  0  0  0
  -26.3546  -24.8169   20.6615 C   0  0  0  0  0  0  0  0  0  0  0  0
  -19.4191   -9.3295   19.9442 C   0  0  0  0  0  0  0  0  0  0  0  0
  -19.1610   -6.6136   20.5272 C   0  0  0  0  0  0  0  0  0  0  0  0
  -18.4627   -8.9017   20.8650 C   0  0  0  0  0  0  0  0  0  0  0  0
  -24.4813  -13.0982   20.6865 C   0  0  0  0  0  0  0  0  0  0  0  0
  -29.3368  -21.6581   20.6735 C   0  0  0  0  0  0  0  0  0  0  0  0
  -26.0717  -14.4755   21.3257 C   0  0  0  0  0  0  0  0  0  0  0  0
  -23.7619  -15.2849   21.8335 C   0  0  0  0  0  0  0  0  0  0  0  0
  -23.6554  -29.2239   22.3221 C   0  0  0  0  0  0  0  0  0  0  0  0
  -20.9485  -27.8861   21.1366 C   0  0  0  0  0  0  0  0  0  0  0  0
  -19.4697  -25.2346   19.5778 C   0  0  0  0  0  0  0  0  0  0  0  0
  -31.0141  -14.0984   19.0137 C   0  0  0  0  0  0  0  0  0  0  0  0
  -25.2339  -33.8809   23.6926 C   0  0  0  0  0  0  0  0  0  0  0  0
  -24.3866  -28.5864   19.9951 C   0  0  0  0  0  0  0  0  0  0  0  0
  -22.9582  -26.3746   21.3414 C   0  0  0  0  0  0  0  0  0  0  0  0
  -29.3582  -23.1415   20.8465 C   0  0  0  0  0  0  0  0  0  0  0  0
  -23.8863  -33.1713   23.5895 C   0  0  0  0  0  0  0  0  0  0  0  0
  -29.7369  -11.1544   20.2994 C   0  0  0  0  0  0  0  0  0  0  0  0
  -23.9462  -31.8096   24.2744 C   0  0  0  0  0  0  0  0  0  0  0  0
  -28.2695  -11.4853   20.5720 C   0  0  0  0  0  0  0  0  0  0  0  0
  -31.3551  -17.6942   19.8197 C   0  0  0  0  0  0  0  0  0  0  0  0
  -28.9575  -17.2202   19.1658 C   0  0  0  0  0  0  0  0  0  0  0  0
  -27.9593  -22.7777   22.9048 C   0  0  0  0  0  0  0  0  0  0  0  0
  -30.1975  -11.7602   18.9784 C   0  0  0  0  0  0  0  0  0  0  0  0
  -31.7858  -16.4425   19.0588 C   0  0  0  0  0  0  0  0  0  0  0  0
  -29.4421  -15.9811   18.4186 C   0  0  0  0  0  0  0  0  0  0  0  0
  -28.5371  -13.5834   19.1610 C   0  0  0  0  0  0  0  0  0  0  0  0
  -30.0610  -18.2903   19.2393 C   0  0  0  0  0  0  0  0  0  0  0  0
  -24.9792  -30.8982   23.6008 C   0  0  1  0  0  0  0  0  0  0  0  0
  -23.2144  -28.8430   20.9372 C   0  0  1  0  0  0  0  0  0  0  0  0
  -28.0219  -13.0021   20.4928 C   0  0  1  0  0  0  0  0  0  0  0  0
  -28.1643  -23.6416   21.6612 C   0  0  2  0  0  0  0  0  0  1  0  0
  -27.7104  -21.2957   22.5539 C   0  0  2  0  0  0  0  0  0  0  0  0
  -30.9206  -21.3220   18.7038 C   0  0  0  0  0  0  0  0  0  0  0  0
  -27.8137  -20.4511   23.8276 C   0  0  0  0  0  0  0  0  0  0  0  0
  -17.2369  -24.4144   18.7785 C   0  0  0  0  0  0  0  0  0  0  0  0
  -20.1632  -27.2299   24.0111 C   0  0  0  0  0  0  0  0  0  0  0  0
  -18.4687  -25.6235   23.1077 C   0  0  0  0  0  0  0  0  0  0  0  0
  -18.2860  -28.0545   22.5791 C   0  0  0  0  0  0  0  0  0  0  0  0
  -20.3915  -25.1096   16.7683 C   0  0  0  0  0  0  0  0  0  0  0  0
  -20.1081  -26.6824   21.4885 C   0  0  1  0  0  0  0  0  0  0  0  0
  -18.5068  -25.1638   18.4064 C   0  0  2  0  0  0  0  0  0  0  0  0
  -19.2840  -26.8950   22.7897 C   0  0  0  0  0  0  0  0  0  0  0  0
  -25.6150  -12.4891   20.3290 N   0  0  0  0  0  0  0  0  0  0  0  0
  -28.5973  -20.8301   21.4890 N   0  0  0  0  0  0  0  0  0  0  0  0
  -26.5643  -13.3514   20.7308 N   0  0  0  0  0  0  0  0  0  0  0  0
  -22.3341  -27.6809   21.0738 N   0  0  0  0  0  0  0  0  0  0  0  0
  -29.9393  -13.1995   18.9402 N   0  0  0  0  0  0  0  0  0  0  0  0
  -30.6994  -15.4669   18.9784 N   0  0  0  0  0  0  0  0  0  0  0  0
  -26.8882  -15.4459   21.7886 N   0  0  0  0  0  0  0  0  0  0  0  0
  -22.3955  -14.9880   21.7375 N   0  0  0  0  0  0  0  0  0  0  0  0
  -24.4473  -30.3553   22.3692 N   0  0  0  0  0  0  0  0  0  0  0  0
  -19.2993  -26.3906   20.3099 N   0  0  0  0  0  0  0  0  0  0  0  0
  -19.1437  -24.4661   17.2538 N   0  3  0  0  0  0  0  0  0  0  0  0
  -24.1195  -16.3687   22.3542 O   0  0  0  0  0  0  0  0  0  0  0  0
  -23.3021  -28.5425   23.2775 O   0  0  0  0  0  0  0  0  0  0  0  0
  -20.3955  -28.9668   20.9182 O   0  0  0  0  0  0  0  0  0  0  0  0
  -20.2885  -24.3510   19.8214 O   0  0  0  0  0  0  0  0  0  0  0  0
  -32.1834  -13.7056   19.1108 O   0  0  0  0  0  0  0  0  0  0  0  0
  -19.5480  -10.6773   19.6532 O   0  0  0  0  0  0  0  0  0  0  0  0
  -26.9802  -23.6171   20.8678 O   0  0  0  0  0  0  0  0  0  1  0  0
  -19.0362   -5.3095   20.8059 F   0  0  0  0  0  0  0  0  0  0  0  0
  -17.6642   -9.7905   21.4719 F   0  0  0  0  0  0  0  0  0  0  0  0
  1  2  1  0  0  0  0
  1  5  2  0  0  0  0
  2  6  2  0  0  0  0
  3  8  2  0  0  0  0
  3 16  1  0  0  0  0
  4  9  1  0  0  0  0
  4 16  2  0  0  0  0
  5 18  1  0  0  0  0
  6 20  1  0  0  0  0
  7 10  2  0  0  0  0
  7 19  1  0  0  0  0
  8 24  1  0  0  0  0
  9 24  2  0  0  0  0
 10 25  1  0  0  0  0
 11 12  2  0  0  0  0
 11 26  1  0  0  0  0
 12 27  1  0  0  0  0
 13 21  1  0  0  0  0
 13 25  2  0  0  0  0
 14 27  2  0  0  0  0
 14 28  1  0  0  0  0
 15 22  2  0  0  0  0
 15 69  1  0  0  0  0
 16 29  1  0  0  0  0
 17 29  1  0  0  0  0
 17 31  2  0  0  0  0
 17 32  1  0  0  0  0
 18 20  2  0  0  0  0
 18 37  1  0  0  0  0
 19 21  2  0  0  0  0
 19 38  1  0  0  0  0
 20 53  1  0  0  0  0
 21 39  1  0  0  0  0
 22 23  1  0  0  0  0
 22 52  1  0  0  0  0
 23 30  2  0  0  0  0
 23 58  1  0  0  0  0
 24 84  1  0  0  0  0
 25 85  1  0  0  0  0
 26 28  2  0  0  0  0
 26 84  1  0  0  0  0
 27 86  1  0  0  0  0
 28 87  1  0  0  0  0
 29 68  2  0  0  0  0
 30 40  1  0  0  0  0
 30 69  1  0  0  0  0
 31 70  1  0  0  0  0
 31 74  1  0  0  0  0
 32 75  1  0  0  0  0
 32 79  2  0  0  0  0
 33 54  1  0  0  0  0
 33 76  1  0  0  0  0
 33 80  2  0  0  0  0
 34 65  1  0  0  0  0
 34 71  1  0  0  0  0
 34 81  2  0  0  0  0
 35 66  1  0  0  0  0
 35 77  1  0  0  0  0
 35 82  2  0  0  0  0
 36 72  1  0  0  0  0
 36 73  1  0  0  0  0
 36 83  2  0  0  0  0
 37 41  1  0  0  0  0
 38 54  1  0  0  0  0
 39 71  1  0  0  0  0
 40 56  1  0  0  0  0
 41 43  1  0  0  0  0
 42 44  1  0  0  0  0
 42 48  1  0  0  0  0
 43 53  1  0  0  0  0
 44 55  1  0  0  0  0
 45 49  1  0  0  0  0
 45 52  1  0  0  0  0
 46 50  1  0  0  0  0
 46 52  1  0  0  0  0
 47 56  1  0  0  0  0
 47 57  1  0  0  0  0
 48 72  1  0  0  0  0
 49 73  1  0  0  0  0
 50 73  1  0  0  0  0
 51 55  1  0  0  0  0
 51 72  1  0  0  0  0
 53 76  1  0  0  0  0
 54 71  1  0  0  0  0
 55 70  1  0  0  0  0
 56 85  1  0  0  0  0
 57 59  1  0  0  0  0
 57 69  1  0  0  0  0
 60 66  1  0  0  0  0
 61 67  1  0  0  0  0
 62 67  1  0  0  0  0
 63 67  1  0  0  0  0
 64 78  1  0  0  0  0
 65 67  1  0  0  0  0
 65 77  1  0  0  0  0
 66 78  1  0  0  0  0
 68 70  1  0  0  0  0
M  CHG  1  78   1
M  ISO  4  36 100  56 101  73 100  85 101
M  END
> <Batch ID>
0031

> <Smiles>
CNC(C)C(=O)NC(C(=O)N1Cc2cc([101O:1][101CH:1]3Cc4c(C)c(C5CC[100N:0]([100C:0](=O)N6CCCC(n7nc(-c8ccc(Oc9ccc(F)cc9F)cc8)c(C(N)=O)c7N)C6)CC5)cn4C(C)C3)ccc2CC1C(=O)NC1CCCc2ccccc21)C(C)(C)C

> <Shape>
0.280

> <Color>
0.053

> <Negative vol penalty>
0.000

$$$$

  -OEChem-04052316423D

 84 93  0     1  0  0  0  0  0999 V2000
  -17.1176  -30.5068   24.1974 C   0  0  0  0  0  0  0  0  0  0  0  0
  -18.3919  -30.7952   24.6754 C   0  0  0  0  0  0  0  0  0  0  0  0
  -27.8456  -15.1531   20.7810 C   0  0  0  0  0  0  0  0  0  0  0  0
  -25.4682  -15.5750   20.8633 C   0  0  0  0  0  0  0  0  0  0  0  0
  -16.9305  -29.4488   23.3089 C   0  0  0  0  0  0  0  0  0  0  0  0
  -19.4798  -30.0249   24.2660 C   0  0  0  0  0  0  0  0  0  0  0  0
  -25.2152  -31.9576   23.3303 C   0  0  0  0  0  0  0  0  0  0  0  0
  -27.5998  -13.7822   20.7052 C   0  0  0  0  0  0  0  0  0  0  0  0
  -25.2223  -14.2040   20.7874 C   0  0  0  0  0  0  0  0  0  0  0  0
  -26.3615  -31.9117   24.1226 C   0  0  0  0  0  0  0  0  0  0  0  0
  -26.6660  -11.5456   18.3476 C   0  0  0  0  0  0  0  0  0  0  0  0
  -27.3887  -10.8083   17.4096 C   0  0  0  0  0  0  0  0  0  0  0  0
  -27.0515  -29.8929   22.9967 C   0  0  0  0  0  0  0  0  0  0  0  0
  -27.4339  -27.3350   27.8354 C   0  0  0  0  0  0  0  0  0  0  0  0
  -29.6299  -28.2275   26.3646 C   0  0  0  0  0  0  0  0  0  0  0  0
  -28.3123   -9.4548   19.1851 C   0  0  0  0  0  0  0  0  0  0  0  0
  -26.7798  -16.0495   20.8601 C   0  0  0  0  0  0  0  0  0  0  0  0
  -27.1560  -18.3684   19.8657 C   0  0  0  0  0  0  0  0  0  0  0  0
  -18.0181  -28.6712   22.8808 C   0  0  0  0  0  0  0  0  0  0  0  0
  -24.9726  -30.9638   22.3711 C   0  0  0  0  0  0  0  0  0  0  0  0
  -19.3069  -28.9546   23.3719 C   0  0  0  0  0  0  0  0  0  0  0  0
  -25.9026  -29.9299   22.1917 C   0  0  0  0  0  0  0  0  0  0  0  0
  -28.2241  -26.4213   27.1381 C   0  0  0  0  0  0  0  0  0  0  0  0
  -28.8397  -29.1412   27.0620 C   0  0  0  0  0  0  0  0  0  0  0  0
  -26.2881  -13.3076   20.7084 C   0  0  0  0  0  0  0  0  0  0  0  0
  -27.2784  -30.8777   23.9578 C   0  0  0  0  0  0  0  0  0  0  0  0
  -26.7665  -11.2376   19.7043 C   0  0  0  0  0  0  0  0  0  0  0  0
  -28.2118   -9.7629   17.8284 C   0  0  0  0  0  0  0  0  0  0  0  0
  -27.5896  -10.1922   20.1231 C   0  0  0  0  0  0  0  0  0  0  0  0
  -29.3221  -26.8675   26.4027 C   0  0  0  0  0  0  0  0  0  0  0  0
  -27.7416  -28.6950   27.7973 C   0  0  0  0  0  0  0  0  0  0  0  0
  -27.0331  -17.4657   20.9390 C   0  0  0  0  0  0  0  0  0  0  0  0
  -27.3912  -19.5825   20.4634 C   0  0  0  0  0  0  0  0  0  0  0  0
  -27.0654  -18.1308   18.4547 C   0  0  0  0  0  0  0  0  0  0  0  0
  -25.7141  -22.4765   25.1263 C   0  0  0  0  0  0  0  0  0  0  0  0
  -22.7017  -28.7853   21.9231 C   0  0  0  0  0  0  0  0  0  0  0  0
  -24.2979  -28.2584   19.1488 C   0  0  0  0  0  0  0  0  0  0  0  0
  -27.2262  -28.4606   17.4077 C   0  0  0  0  0  0  0  0  0  0  0  0
  -17.7595  -27.5080   21.9562 C   0  0  0  0  0  0  0  0  0  0  0  0
  -23.7446  -31.0423   21.5061 C   0  0  0  0  0  0  0  0  0  0  0  0
  -25.6989  -28.8498   21.1620 C   0  0  0  0  0  0  0  0  0  0  0  0
  -19.0203  -26.9755   21.2801 C   0  0  0  0  0  0  0  0  0  0  0  0
  -29.0580  -21.0449   24.8714 C   0  0  0  0  0  0  0  0  0  0  0  0
  -20.1436  -26.8112   22.2989 C   0  0  0  0  0  0  0  0  0  0  0  0
  -28.8701  -20.0309   23.7439 C   0  0  0  0  0  0  0  0  0  0  0  0
  -25.4198  -24.7872   26.2597 C   0  0  0  0  0  0  0  0  0  0  0  0
  -27.8049  -21.1656   25.7343 C   0  0  0  0  0  0  0  0  0  0  0  0
  -26.3795  -20.4744   23.8295 C   0  0  0  0  0  0  0  0  0  0  0  0
  -20.5156  -28.1575   22.9319 C   0  0  1  0  0  0  0  0  0  0  0  0
  -25.9773  -23.3865   26.2825 C   0  0  2  0  0  0  0  0  0  0  0  0
  -23.3437  -29.6948   20.9140 C   0  0  1  0  0  0  0  0  0  0  0  0
  -26.8968  -24.5676   26.0947 C   0  0  2  0  0  0  0  0  0  0  0  0
  -27.6120  -20.3516   22.9184 C   0  0  2  0  0  0  0  0  0  0  0  0
  -28.2313  -27.9159   15.1738 C   0  0  0  0  0  0  0  0  0  0  0  0
  -24.4250  -25.3109   19.9274 C   0  0  0  0  0  0  0  0  0  0  0  0
  -26.2096  -25.0030   18.1986 C   0  0  0  0  0  0  0  0  0  0  0  0
  -23.9243  -25.7316   17.5136 C   0  0  0  0  0  0  0  0  0  0  0  0
  -27.8512  -31.3022   16.8661 C   0  0  0  0  0  0  0  0  0  0  0  0
  -27.8608  -24.9730   27.2050 C   0  0  0  0  0  0  0  0  0  0  0  0
  -29.2053  -30.6041   26.9950 C   0  0  0  0  0  0  0  0  0  0  0  0
  -28.3055  -31.3837   26.0423 C   0  0  0  0  0  0  0  0  0  1  0  0
  -25.4338  -27.3598   18.7230 C   0  0  1  0  0  0  0  0  0  0  0  0
  -27.5357  -28.9758   16.0137 C   0  0  2  0  0  0  0  0  0  0  0  0
  -25.0013  -25.8705   18.6115 C   0  0  0  0  0  0  0  0  0  0  0  0
  -27.1785  -18.0559   22.1283 N   0  0  0  0  0  0  0  0  0  0  0  0
  -27.3952  -19.3424   21.8060 N   0  0  0  0  0  0  0  0  0  0  0  0
  -26.6203  -21.4329   24.9110 N   0  0  0  0  0  0  0  0  0  0  0  0
  -24.4798  -28.9669   20.3450 N   0  0  0  0  0  0  0  0  0  0  0  0
  -27.5931  -20.8212   19.9662 N   0  0  0  0  0  0  0  0  0  0  0  0
  -26.8190  -16.8241   18.0117 N   0  0  0  0  0  0  0  0  0  0  0  0
  -21.3317  -28.9346   22.0238 N   0  0  0  0  0  0  0  0  0  0  0  0
  -25.9583  -27.9240   17.4840 N   0  0  0  0  0  0  0  0  0  0  0  0
  -28.4212  -30.1721   16.0883 N   0  3  0  0  0  0  0  0  0  0  0  0
  -27.2154  -19.0470   17.6112 O   0  0  0  0  0  0  0  0  0  0  0  0
  -24.7232  -22.6977   24.4351 O   0  0  0  0  0  0  0  0  0  0  0  0
  -23.3977  -28.0047   22.5620 O   0  0  0  0  0  0  0  0  0  0  0  0
  -23.2896  -28.3346   18.4424 O   0  0  0  0  0  0  0  0  0  0  0  0
  -28.0302  -28.5241   18.3350 O   0  0  0  0  0  0  0  0  0  0  0  0
  -26.0478  -11.9700   20.6342 O   0  0  0  0  0  0  0  0  0  0  0  0
  -28.3977  -30.8301   24.7303 O   0  0  0  0  0  0  0  0  0  1  0  0
  -28.9045   -9.0540   16.9274 F   0  0  0  0  0  0  0  0  0  0  0  0
  -27.6893   -9.8908   21.4250 F   0  0  0  0  0  0  0  0  0  0  0  0
  -30.3229  -25.7657   25.5288 Cl  0  0  0  0  0  0  0  0  0  0  0  0
  -26.7413  -29.7963   28.6724 Cl  0  0  0  0  0  0  0  0  0  0  0  0
  1  2  1  0  0  0  0
  1  5  2  0  0  0  0
  2  6  2  0  0  0  0
  3  8  2  0  0  0  0
  3 17  1  0  0  0  0
  4  9  1  0  0  0  0
  4 17  2  0  0  0  0
  5 19  1  0  0  0  0
  6 21  1  0  0  0  0
  7 10  2  0  0  0  0
  7 20  1  0  0  0  0
  8 25  1  0  0  0  0
  9 25  2  0  0  0  0
 10 26  1  0  0  0  0
 11 12  2  0  0  0  0
 11 27  1  0  0  0  0
 12 28  1  0  0  0  0
 13 22  1  0  0  0  0
 13 26  2  0  0  0  0
 14 23  2  0  0  0  0
 14 31  1  0  0  0  0
 15 24  1  0  0  0  0
 15 30  2  0  0  0  0
 16 28  2  0  0  0  0
 16 29  1  0  0  0  0
 17 32  1  0  0  0  0
 18 32  1  0  0  0  0
 18 33  2  0  0  0  0
 18 34  1  0  0  0  0
 19 21  2  0  0  0  0
 19 39  1  0  0  0  0
 20 22  2  0  0  0  0
 20 40  1  0  0  0  0
 21 49  1  0  0  0  0
 22 41  1  0  0  0  0
 23 30  1  0  0  0  0
 23 59  1  0  0  0  0
 24 31  2  0  0  0  0
 24 60  1  0  0  0  0
 25 79  1  0  0  0  0
 26 80  1  0  0  0  0
 27 29  2  0  0  0  0
 27 79  1  0  0  0  0
 28 81  1  0  0  0  0
 29 82  1  0  0  0  0
 30 83  1  0  0  0  0
 31 84  1  0  0  0  0
 32 65  2  0  0  0  0
 33 66  1  0  0  0  0
 33 69  1  0  0  0  0
 34 70  1  0  0  0  0
 34 74  2  0  0  0  0
 35 50  1  0  0  0  0
 35 67  1  0  0  0  0
 35 75  2  0  0  0  0
 36 51  1  0  0  0  0
 36 71  1  0  0  0  0
 36 76  2  0  0  0  0
 37 62  1  0  0  0  0
 37 68  1  0  0  0  0
 37 77  2  0  0  0  0
 38 63  1  0  0  0  0
 38 72  1  0  0  0  0
 38 78  2  0  0  0  0
 39 42  1  0  0  0  0
 40 51  1  0  0  0  0
 41 68  1  0  0  0  0
 42 44  1  0  0  0  0
 43 45  1  0  0  0  0
 43 47  1  0  0  0  0
 44 49  1  0  0  0  0
 45 53  1  0  0  0  0
 46 50  1  0  0  0  0
 46 52  1  0  0  0  0
 47 67  1  0  0  0  0
 48 53  1  0  0  0  0
 48 67  1  0  0  0  0
 49 71  1  0  0  0  0
 50 52  1  0  0  0  0
 51 68  1  0  0  0  0
 52 59  1  0  0  0  0
 53 66  1  0  0  0  0
 54 63  1  0  0  0  0
 55 64  1  0  0  0  0
 56 64  1  0  0  0  0
 57 64  1  0  0  0  0
 58 73  1  0  0  0  0
 60 61  1  0  0  0  0
 61 80  1  0  0  0  0
 62 64  1  0  0  0  0
 62 72  1  0  0  0  0
 63 73  1  0  0  0  0
 65 66  1  0  0  0  0
M  CHG  1  73   1
M  ISO  4  35 100  50 100  61 101  80 101
M  END
> <Batch ID>
0031

> <Smiles>
CNC(C)C(=O)NC(C(=O)N1Cc2cc([101O:1][101CH2:1]Cc3cc(Cl)c(CC4C[100CH:0]4[100C:0](=O)N4CCCC(n5nc(-c6ccc(Oc7ccc(F)cc7F)cc6)c(C(N)=O)c5N)C4)cc3Cl)ccc2CC1C(=O)NC1CCCc2ccccc21)C(C)(C)C

> <Shape>
0.226

> <Color>
0.090

> <Negative vol penalty>
0.000

$$$$

  -OEChem-04052316423D

 86 94  0     1  0  0  0  0  0999 V2000
  -17.0608  -31.2680   23.4124 C   0  0  0  0  0  0  0  0  0  0  0  0
  -18.2433  -31.7764   22.8845 C   0  0  0  0  0  0  0  0  0  0  0  0
  -25.4604  -13.5937   21.6344 C   0  0  0  0  0  0  0  0  0  0  0  0
  -26.5335  -13.4641   19.4736 C   0  0  0  0  0  0  0  0  0  0  0  0
  -17.0668  -30.0452   24.0822 C   0  0  0  0  0  0  0  0  0  0  0  0
  -19.4327  -31.0627   23.0271 C   0  0  0  0  0  0  0  0  0  0  0  0
  -25.5959  -29.7464   19.6214 C   0  0  0  0  0  0  0  0  0  0  0  0
  -24.5315  -12.6346   21.2306 C   0  0  0  0  0  0  0  0  0  0  0  0
  -25.6046  -12.5050   19.0699 C   0  0  0  0  0  0  0  0  0  0  0  0
  -26.9732  -29.7808   19.8350 C   0  0  0  0  0  0  0  0  0  0  0  0
  -24.4157   -9.2743   20.8737 C   0  0  0  0  0  0  0  0  0  0  0  0
  -24.1212   -8.2418   21.7641 C   0  0  0  0  0  0  0  0  0  0  0  0
  -26.8488  -27.6412   20.9423 C   0  0  0  0  0  0  0  0  0  0  0  0
  -32.4211  -23.4627   17.3165 C   0  0  0  0  0  0  0  0  0  0  0  0
  -31.8178  -24.3986   19.8744 C   0  0  0  0  0  0  0  0  0  0  0  0
  -21.8027   -8.9211   21.7848 C   0  0  0  0  0  0  0  0  0  0  0  0
  -26.4613  -14.0085   20.7559 C   0  0  0  0  0  0  0  0  0  0  0  0
  -28.6596  -14.7720   21.8009 C   0  0  0  0  0  0  0  0  0  0  0  0
  -18.2551  -29.3115   24.2246 C   0  0  0  0  0  0  0  0  0  0  0  0
  -24.8318  -28.6624   20.0770 C   0  0  0  0  0  0  0  0  0  0  0  0
  -19.4548  -29.8295   23.7005 C   0  0  0  0  0  0  0  0  0  0  0  0
  -25.4624  -27.5942   20.7309 C   0  0  0  0  0  0  0  0  0  0  0  0
  -32.5416  -24.8213   17.6084 C   0  0  0  0  0  0  0  0  0  0  0  0
  -31.9990  -22.5720   18.3035 C   0  0  0  0  0  0  0  0  0  0  0  0
  -32.2400  -25.2893   18.8873 C   0  0  0  0  0  0  0  0  0  0  0  0
  -24.6036  -12.0903   19.9484 C   0  0  0  0  0  0  0  0  0  0  0  0
  -27.5994  -28.7295   20.4981 C   0  0  0  0  0  0  0  0  0  0  0  0
  -23.4037  -10.1302   20.4388 C   0  0  0  0  0  0  0  0  0  0  0  0
  -22.8147   -8.0652   22.2196 C   0  0  0  0  0  0  0  0  0  0  0  0
  -31.6973  -23.0400   19.5825 C   0  0  0  0  0  0  0  0  0  0  0  0
  -22.0972   -9.9535   20.8943 C   0  0  0  0  0  0  0  0  0  0  0  0
  -27.4208  -14.9995   21.1722 C   0  0  0  0  0  0  0  0  0  0  0  0
  -29.1862  -16.0270   21.9862 C   0  0  0  0  0  0  0  0  0  0  0  0
  -29.2791  -13.5368   22.1831 C   0  0  0  0  0  0  0  0  0  0  0  0
  -22.4444  -28.3131   22.1463 C   0  0  0  0  0  0  0  0  0  0  0  0
  -22.4433  -25.2659   21.0343 C   0  0  0  0  0  0  0  0  0  0  0  0
  -24.1667  -22.7248   19.5444 C   0  0  0  0  0  0  0  0  0  0  0  0
  -28.3492  -21.2540   19.1882 C   0  0  0  0  0  0  0  0  0  0  0  0
  -18.2208  -28.0170   24.9977 C   0  0  0  0  0  0  0  0  0  0  0  0
  -23.3511  -28.6278   19.8150 C   0  0  0  0  0  0  0  0  0  0  0  0
  -24.6902  -26.3979   21.2218 C   0  0  0  0  0  0  0  0  0  0  0  0
  -19.4540  -27.1442   24.7793 C   0  0  0  0  0  0  0  0  0  0  0  0
  -27.8711  -20.5788   22.6512 C   0  0  0  0  0  0  0  0  0  0  0  0
  -20.7255  -27.9798   24.8879 C   0  0  0  0  0  0  0  0  0  0  0  0
  -27.8133  -19.0518   22.7216 C   0  0  0  0  0  0  0  0  0  0  0  0
  -27.2084  -21.1108   21.3824 C   0  0  0  0  0  0  0  0  0  0  0  0
  -27.6552  -18.9965   20.1975 C   0  0  0  0  0  0  0  0  0  0  0  0
  -20.7607  -29.0731   23.8131 C   0  0  1  0  0  0  0  0  0  0  0  0
  -22.5954  -27.7153   20.7761 C   0  0  1  0  0  0  0  0  0  0  0  0
  -28.3604  -18.4100   21.4324 C   0  0  2  0  0  0  0  0  0  0  0  0
  -32.9965  -25.7554   16.5356 C   0  0  0  0  0  0  0  0  0  0  0  0
  -23.9113  -20.3415   18.8014 C   0  0  0  0  0  0  0  0  0  0  0  0
  -22.6686  -24.3406   23.9331 C   0  0  0  0  0  0  0  0  0  0  0  0
  -23.3572  -22.0871   23.0872 C   0  0  0  0  0  0  0  0  0  0  0  0
  -21.1013  -22.9919   22.5264 C   0  0  0  0  0  0  0  0  0  0  0  0
  -24.7014  -23.4264   16.7193 C   0  0  0  0  0  0  0  0  0  0  0  0
  -31.8700  -21.1200   17.9883 C   0  0  0  0  0  0  0  0  0  0  0  0
  -32.3617  -26.7460   19.2251 C   0  0  0  0  0  0  0  0  0  0  0  0
  -30.9497  -20.8060   16.7922 C   0  0  0  0  0  0  0  0  0  0  0  0
  -29.4968  -21.2341   16.9879 C   0  0  0  0  0  0  0  0  0  0  0  0
  -31.1303  -28.8636   19.7134 C   0  0  0  0  0  0  0  0  0  0  0  0
  -29.7355  -29.4565   19.7466 C   0  0  0  0  0  0  0  0  0  1  0  0
  -23.1457  -23.9866   21.4205 C   0  0  1  0  0  0  0  0  0  0  0  0
  -23.8069  -21.8028   18.3934 C   0  0  2  0  0  0  0  0  0  0  0  0
  -22.5827  -23.3749   22.7344 C   0  0  0  0  0  0  0  0  0  0  0  0
  -27.1749  -16.2970   20.9717 N   0  0  0  0  0  0  0  0  0  0  0  0
  -28.2664  -16.8960   21.4774 N   0  0  0  0  0  0  0  0  0  0  0  0
  -23.2439  -26.4136   20.9472 N   0  0  0  0  0  0  0  0  0  0  0  0
  -27.7733  -20.4631   20.1962 N   0  0  0  0  0  0  0  0  0  0  0  0
  -30.3416  -16.4608   22.5332 N   0  0  0  0  0  0  0  0  0  0  0  0
  -28.6006  -12.3392   21.9188 N   0  0  0  0  0  0  0  0  0  0  0  0
  -21.1325  -28.5109   22.5324 N   0  0  0  0  0  0  0  0  0  0  0  0
  -23.0524  -23.1041   20.2625 N   0  0  0  0  0  0  0  0  0  0  0  0
  -28.8669  -20.5602   18.1013 N   0  0  0  0  0  0  0  0  0  0  0  0
  -24.7202  -22.0348   17.2388 N   0  3  0  0  0  0  0  0  0  0  0  0
  -31.0459  -27.4340   19.3216 N   0  3  0  0  0  0  0  0  0  0  0  0
  -30.3936  -13.4970   22.7573 O   0  0  0  0  0  0  0  0  0  0  0  0
  -23.4442  -28.5742   22.8051 O   0  0  0  0  0  0  0  0  0  0  0  0
  -21.2303  -25.2461   20.8108 O   0  0  0  0  0  0  0  0  0  0  0  0
  -25.3213  -23.0708   19.7848 O   0  0  0  0  0  0  0  0  0  0  0  0
  -28.4030  -22.4867   19.2547 O   0  0  0  0  0  0  0  0  0  0  0  0
  -23.6976  -11.1542   19.5541 O   0  0  0  0  0  0  0  0  0  0  0  0
  -28.9436  -28.7609   20.7085 O   0  0  0  0  0  0  0  0  0  1  0  0
  -22.5317   -7.0728   23.0735 F   0  0  0  0  0  0  0  0  0  0  0  0
  -31.2908  -22.1917   20.5375 F   0  0  0  0  0  0  0  0  0  0  0  0
  -21.1206  -10.7719   20.4792 F   0  0  0  0  0  0  0  0  0  0  0  0
  1  2  1  0  0  0  0
  1  5  2  0  0  0  0
  2  6  2  0  0  0  0
  3  8  2  0  0  0  0
  3 17  1  0  0  0  0
  4  9  1  0  0  0  0
  4 17  2  0  0  0  0
  5 19  1  0  0  0  0
  6 21  1  0  0  0  0
  7 10  2  0  0  0  0
  7 20  1  0  0  0  0
  8 26  1  0  0  0  0
  9 26  2  0  0  0  0
 10 27  1  0  0  0  0
 11 12  2  0  0  0  0
 11 28  1  0  0  0  0
 12 29  1  0  0  0  0
 13 22  1  0  0  0  0
 13 27  2  0  0  0  0
 14 23  1  0  0  0  0
 14 24  2  0  0  0  0
 15 25  1  0  0  0  0
 15 30  2  0  0  0  0
 16 29  2  0  0  0  0
 16 31  1  0  0  0  0
 17 32  1  0  0  0  0
 18 32  1  0  0  0  0
 18 33  2  0  0  0  0
 18 34  1  0  0  0  0
 19 21  2  0  0  0  0
 19 39  1  0  0  0  0
 20 22  2  0  0  0  0
 20 40  1  0  0  0  0
 21 48  1  0  0  0  0
 22 41  1  0  0  0  0
 23 25  2  0  0  0  0
 23 51  1  0  0  0  0
 24 30  1  0  0  0  0
 24 57  1  0  0  0  0
 25 58  1  0  0  0  0
 26 82  1  0  0  0  0
 27 83  1  0  0  0  0
 28 31  2  0  0  0  0
 28 82  1  0  0  0  0
 29 84  1  0  0  0  0
 30 85  1  0  0  0  0
 31 86  1  0  0  0  0
 32 66  2  0  0  0  0
 33 67  1  0  0  0  0
 33 70  1  0  0  0  0
 34 71  1  0  0  0  0
 34 77  2  0  0  0  0
 35 49  1  0  0  0  0
 35 72  1  0  0  0  0
 35 78  2  0  0  0  0
 36 63  1  0  0  0  0
 36 68  1  0  0  0  0
 36 79  2  0  0  0  0
 37 64  1  0  0  0  0
 37 73  1  0  0  0  0
 37 80  2  0  0  0  0
 38 69  1  0  0  0  0
 38 74  1  0  0  0  0
 38 81  2  0  0  0  0
 39 42  1  0  0  0  0
 40 49  1  0  0  0  0
 41 68  1  0  0  0  0
 42 44  1  0  0  0  0
 43 45  1  0  0  0  0
 43 46  1  0  0  0  0
 44 48  1  0  0  0  0
 45 50  1  0  0  0  0
 46 69  1  0  0  0  0
 47 50  1  0  0  0  0
 47 69  1  0  0  0  0
 48 72  1  0  0  0  0
 49 68  1  0  0  0  0
 50 67  1  0  0  0  0
 52 64  1  0  0  0  0
 53 65  1  0  0  0  0
 54 65  1  0  0  0  0
 55 65  1  0  0  0  0
 56 75  1  0  0  0  0
 57 59  1  0  0  0  0
 58 76  1  0  0  0  0
 59 60  1  0  0  0  0
 60 74  1  0  0  0  0
 61 62  1  0  0  0  0
 61 76  1  0  0  0  0
 62 83  1  0  0  0  0
 63 65  1  0  0  0  0
 63 73  1  0  0  0  0
 64 75  1  0  0  0  0
 66 67  1  0  0  0  0
M  CHG  2  75   1  76   1
M  ISO  4  38 100  62 101  74 100  83 101
M  END
> <Batch ID>
0031

> <Smiles>
CNC(C)C(=O)NC(C(=O)N1Cc2cc([101O:1][101CH2:1]CNCc3cc(F)c(CCC[100NH:0][100C:0](=O)N4CCCC(n5nc(-c6ccc(Oc7ccc(F)cc7F)cc6)c(C(N)=O)c5N)C4)cc3C)ccc2CC1C(=O)NC1CCCc2ccccc21)C(C)(C)C

> <Shape>
0.250

> <Color>
0.085

> <Negative vol penalty>
0.000

$$$$

  -OEChem-04052316423D

 83 91  0     1  0  0  0  0  0999 V2000
  -21.7167  -14.7361   35.5066 C   0  0  0  0  0  0  0  0  0  0  0  0
  -22.6080  -15.5849   34.8580 C   0  0  0  0  0  0  0  0  0  0  0  0
  -23.0723   -9.8700   19.9432 C   0  0  0  0  0  0  0  0  0  0  0  0
  -23.8349   -9.8783   22.2356 C   0  0  0  0  0  0  0  0  0  0  0  0
  -21.0940  -13.7086   34.7991 C   0  0  0  0  0  0  0  0  0  0  0  0
  -22.8780  -15.4059   33.5017 C   0  0  0  0  0  0  0  0  0  0  0  0
  -24.4813  -19.1215   27.5907 C   0  0  0  0  0  0  0  0  0  0  0  0
  -22.3288   -8.7170   20.1946 C   0  0  0  0  0  0  0  0  0  0  0  0
  -23.0914   -8.7252   22.4871 C   0  0  0  0  0  0  0  0  0  0  0  0
  -25.4209  -19.1548   26.5612 C   0  0  0  0  0  0  0  0  0  0  0  0
  -19.3824   -7.9209   21.6498 C   0  0  0  0  0  0  0  0  0  0  0  0
  -18.0749   -7.8743   21.1661 C   0  0  0  0  0  0  0  0  0  0  0  0
  -24.2263  -17.3954   25.4224 C   0  0  0  0  0  0  0  0  0  0  0  0
  -29.7724  -19.0187   21.1110 C   0  0  0  0  0  0  0  0  0  0  0  0
  -28.0773  -20.1553   22.4039 C   0  0  0  0  0  0  0  0  0  0  0  0
  -18.6332   -5.9306   19.8442 C   0  0  0  0  0  0  0  0  0  0  0  0
  -23.8254  -10.4507   20.9637 C   0  0  0  0  0  0  0  0  0  0  0  0
  -24.1669  -12.9758   20.8419 C   0  0  0  0  0  0  0  0  0  0  0  0
  -21.3492  -13.5230   33.4313 C   0  0  0  0  0  0  0  0  0  0  0  0
  -23.4115  -18.2159   27.5490 C   0  0  0  0  0  0  0  0  0  0  0  0
  -22.2592  -14.3741   32.7756 C   0  0  0  0  0  0  0  0  0  0  0  0
  -23.2731  -17.3544   26.4514 C   0  0  0  0  0  0  0  0  0  0  0  0
  -28.8856  -20.0836   21.2693 C   0  0  0  0  0  0  0  0  0  0  0  0
  -29.8508  -18.0253   22.0871 C   0  0  0  0  0  0  0  0  0  0  0  0
  -28.1558  -19.1620   23.3800 C   0  0  0  0  0  0  0  0  0  0  0  0
  -29.0426  -18.0970   23.2216 C   0  0  0  0  0  0  0  0  0  0  0  0
  -22.3383   -8.1445   21.4666 C   0  0  0  0  0  0  0  0  0  0  0  0
  -25.2950  -18.2897   25.4782 C   0  0  0  0  0  0  0  0  0  0  0  0
  -20.3153   -6.9724   21.2306 C   0  0  0  0  0  0  0  0  0  0  0  0
  -17.7003   -6.8791   20.2634 C   0  0  0  0  0  0  0  0  0  0  0  0
  -19.9407   -5.9772   20.3279 C   0  0  0  0  0  0  0  0  0  0  0  0
  -24.5941  -11.6415   20.7044 C   0  0  0  0  0  0  0  0  0  0  0  0
  -25.2585  -13.7252   20.4770 C   0  0  0  0  0  0  0  0  0  0  0  0
  -22.8968  -13.4917   21.2621 C   0  0  0  0  0  0  0  0  0  0  0  0
  -22.4503  -15.7942   29.3698 C   0  0  0  0  0  0  0  0  0  0  0  0
  -19.8945  -15.8165   27.3724 C   0  0  0  0  0  0  0  0  0  0  0  0
  -18.6122  -16.6340   24.3172 C   0  0  0  0  0  0  0  0  0  0  0  0
  -30.7424  -14.7448   20.6583 C   0  0  0  0  0  0  0  0  0  0  0  0
  -20.6883  -12.3691   32.7196 C   0  0  0  0  0  0  0  0  0  0  0  0
  -22.3916  -18.2110   28.6546 C   0  0  0  0  0  0  0  0  0  0  0  0
  -22.1314  -16.3775   26.3491 C   0  0  0  0  0  0  0  0  0  0  0  0
  -20.7432  -12.4799   31.1981 C   0  0  0  0  0  0  0  0  0  0  0  0
  -29.6021  -12.3590   18.2741 C   0  0  0  0  0  0  0  0  0  0  0  0
  -22.1480  -12.8598   30.7409 C   0  0  0  0  0  0  0  0  0  0  0  0
  -28.1652  -12.0653   18.7089 C   0  0  0  0  0  0  0  0  0  0  0  0
  -30.5207  -12.5805   19.4738 C   0  0  0  0  0  0  0  0  0  0  0  0
  -28.6205  -13.3121   20.8623 C   0  0  0  0  0  0  0  0  0  0  0  0
  -22.5590  -14.2274   31.2996 C   0  0  1  0  0  0  0  0  0  0  0  0
  -21.6290  -16.8937   28.7582 C   0  0  1  0  0  0  0  0  0  0  0  0
  -27.6450  -13.1368   19.6859 C   0  0  2  0  0  0  0  0  0  0  0  0
  -27.7658  -20.8224   19.1511 C   0  0  0  0  0  0  0  0  0  0  0  0
  -29.9136  -17.4882   25.4925 C   0  0  0  0  0  0  0  0  0  0  0  0
  -16.5036  -16.4929   22.9640 C   0  0  0  0  0  0  0  0  0  0  0  0
  -20.4133  -12.8506   26.8779 C   0  0  0  0  0  0  0  0  0  0  0  0
  -18.9346  -12.9992   24.8631 C   0  0  0  0  0  0  0  0  0  0  0  0
  -18.0009  -13.4598   27.1299 C   0  0  0  0  0  0  0  0  0  0  0  0
  -18.4243  -19.5787   24.0884 C   0  0  0  0  0  0  0  0  0  0  0  0
  -28.8013  -21.1453   20.2254 C   0  0  0  0  0  0  0  0  0  0  0  0
  -29.1272  -17.0320   24.2683 C   0  0  0  0  0  0  0  0  0  0  0  0
  -30.8095  -16.8960   21.8940 C   0  0  0  0  0  0  0  0  0  0  0  0
  -27.2756  -19.2624   24.5911 C   0  0  0  0  0  0  0  0  0  1  0  0
  -19.5546  -15.1453   26.0636 C   0  0  1  0  0  0  0  0  0  0  0  0
  -17.3286  -17.3405   23.9198 C   0  0  2  0  0  0  0  0  0  0  0  0
  -19.2485  -13.6307   26.2362 C   0  0  0  0  0  0  0  0  0  0  0  0
  -25.8584  -11.5455   20.2847 N   0  0  0  0  0  0  0  0  0  0  0  0
  -26.2351  -12.8291   20.1552 N   0  0  0  0  0  0  0  0  0  0  0  0
  -21.1635  -16.4064   27.4581 N   0  0  0  0  0  0  0  0  0  0  0  0
  -29.9711  -13.6094   20.3599 N   0  0  0  0  0  0  0  0  0  0  0  0
  -25.4687  -15.0566   20.4030 N   0  0  0  0  0  0  0  0  0  0  0  0
  -21.8854  -12.5826   21.6011 N   0  0  0  0  0  0  0  0  0  0  0  0
  -21.9295  -15.2909   30.5466 N   0  0  0  0  0  0  0  0  0  0  0  0
  -18.4589  -15.9139   25.4831 N   0  0  0  0  0  0  0  0  0  0  0  0
  -30.1442  -15.6740   21.5006 N   0  0  0  0  0  0  0  0  0  0  0  0
  -17.6362  -18.6369   23.2523 N   0  3  0  0  0  0  0  0  0  0  0  0
  -22.6605  -14.7223   21.3191 O   0  0  0  0  0  0  0  0  0  0  0  0
  -23.4796  -15.4284   28.8143 O   0  0  0  0  0  0  0  0  0  0  0  0
  -19.0619  -15.8234   28.2825 O   0  0  0  0  0  0  0  0  0  0  0  0
  -19.6462  -16.7102   23.6573 O   0  0  0  0  0  0  0  0  0  0  0  0
  -31.8778  -14.9201   20.2032 O   0  0  0  0  0  0  0  0  0  0  0  0
  -21.6128   -7.0195   21.7123 O   0  0  0  0  0  0  0  0  0  0  0  0
  -26.2110  -18.3196   24.4723 O   0  0  0  0  0  0  0  0  0  1  0  0
  -16.4443   -6.8336   19.8002 F   0  0  0  0  0  0  0  0  0  0  0  0
  -20.8322   -5.0625   19.9224 F   0  0  0  0  0  0  0  0  0  0  0  0
  1  2  1  0  0  0  0
  1  5  2  0  0  0  0
  2  6  2  0  0  0  0
  3  8  2  0  0  0  0
  3 17  1  0  0  0  0
  4  9  1  0  0  0  0
  4 17  2  0  0  0  0
  5 19  1  0  0  0  0
  6 21  1  0  0  0  0
  7 10  2  0  0  0  0
  7 20  1  0  0  0  0
  8 27  1  0  0  0  0
  9 27  2  0  0  0  0
 10 28  1  0  0  0  0
 11 12  2  0  0  0  0
 11 29  1  0  0  0  0
 12 30  1  0  0  0  0
 13 22  1  0  0  0  0
 13 28  2  0  0  0  0
 14 23  1  0  0  0  0
 14 24  2  0  0  0  0
 15 23  2  0  0  0  0
 15 25  1  0  0  0  0
 16 30  2  0  0  0  0
 16 31  1  0  0  0  0
 17 32  1  0  0  0  0
 18 32  1  0  0  0  0
 18 33  2  0  0  0  0
 18 34  1  0  0  0  0
 19 21  2  0  0  0  0
 19 39  1  0  0  0  0
 20 22  2  0  0  0  0
 20 40  1  0  0  0  0
 21 48  1  0  0  0  0
 22 41  1  0  0  0  0
 23 58  1  0  0  0  0
 24 26  1  0  0  0  0
 24 60  1  0  0  0  0
 25 26  2  0  0  0  0
 25 61  1  0  0  0  0
 26 59  1  0  0  0  0
 27 80  1  0  0  0  0
 28 81  1  0  0  0  0
 29 31  2  0  0  0  0
 29 80  1  0  0  0  0
 30 82  1  0  0  0  0
 31 83  1  0  0  0  0
 32 65  2  0  0  0  0
 33 66  1  0  0  0  0
 33 69  1  0  0  0  0
 34 70  1  0  0  0  0
 34 75  2  0  0  0  0
 35 49  1  0  0  0  0
 35 71  1  0  0  0  0
 35 76  2  0  0  0  0
 36 62  1  0  0  0  0
 36 67  1  0  0  0  0
 36 77  2  0  0  0  0
 37 63  1  0  0  0  0
 37 72  1  0  0  0  0
 37 78  2  0  0  0  0
 38 68  1  0  0  0  0
 38 73  1  0  0  0  0
 38 79  2  0  0  0  0
 39 42  1  0  0  0  0
 40 49  1  0  0  0  0
 41 67  1  0  0  0  0
 42 44  1  0  0  0  0
 43 45  1  0  0  0  0
 43 46  1  0  0  0  0
 44 48  1  0  0  0  0
 45 50  1  0  0  0  0
 46 68  1  0  0  0  0
 47 50  1  0  0  0  0
 47 68  1  0  0  0  0
 48 71  1  0  0  0  0
 49 67  1  0  0  0  0
 50 66  1  0  0  0  0
 51 58  1  0  0  0  0
 52 59  1  0  0  0  0
 53 63  1  0  0  0  0
 54 64  1  0  0  0  0
 55 64  1  0  0  0  0
 56 64  1  0  0  0  0
 57 74  1  0  0  0  0
 60 73  1  0  0  0  0
 61 81  1  0  0  0  0
 62 64  1  0  0  0  0
 62 72  1  0  0  0  0
 63 74  1  0  0  0  0
 65 66  1  0  0  0  0
M  CHG  1  74   1
M  ISO  4  38 100  61 101  73 100  81 101
M  END
> <Batch ID>
0031

> <Smiles>
CCc1cc(C[100NH:0][100C:0](=O)N2CCCC(n3nc(-c4ccc(Oc5ccc(F)cc5F)cc4)c(C(N)=O)c3N)C2)c(CC)c([101CH2:1][101O:1]c2ccc3c(c2)CN(C(=O)C(NC(=O)C(C)NC)C(C)(C)C)C(C(=O)NC2CCCc4ccccc42)C3)c1

> <Shape>
0.170

> <Color>
0.191

> <Negative vol penalty>
0.000

$$$$

  -OEChem-04052316423D

 83 91  0     1  0  0  0  0  0999 V2000
  -31.6551  -15.5398   15.5186 C   0  0  0  0  0  0  0  0  0  0  0  0
  -30.9910  -16.0137   16.6455 C   0  0  0  0  0  0  0  0  0  0  0  0
  -23.0798   -9.7886   20.0649 C   0  0  0  0  0  0  0  0  0  0  0  0
  -23.7303  -10.0395   22.3781 C   0  0  0  0  0  0  0  0  0  0  0  0
  -32.7090  -16.2713   14.9728 C   0  0  0  0  0  0  0  0  0  0  0  0
  -31.3813  -17.2191   17.2279 C   0  0  0  0  0  0  0  0  0  0  0  0
  -27.4401  -20.1679   18.4178 C   0  0  0  0  0  0  0  0  0  0  0  0
  -22.3397   -8.6537   20.3961 C   0  0  0  0  0  0  0  0  0  0  0  0
  -22.9901   -8.9046   22.7093 C   0  0  0  0  0  0  0  0  0  0  0  0
  -26.7310  -19.8469   19.5745 C   0  0  0  0  0  0  0  0  0  0  0  0
  -21.5649   -5.8666   24.1056 C   0  0  0  0  0  0  0  0  0  0  0  0
  -22.1570   -4.9312   24.9541 C   0  0  0  0  0  0  0  0  0  0  0  0
  -27.9127  -21.5760   20.7715 C   0  0  0  0  0  0  0  0  0  0  0  0
  -28.1958  -17.6795   23.8831 C   0  0  0  0  0  0  0  0  0  0  0  0
  -23.9418   -4.6125   23.3571 C   0  0  0  0  0  0  0  0  0  0  0  0
  -28.8294  -19.8022   25.4764 C   0  0  0  0  0  0  0  0  0  0  0  0
  -23.7752  -10.4815   21.0559 C   0  0  0  0  0  0  0  0  0  0  0  0
  -24.0903  -12.9873   20.6964 C   0  0  0  0  0  0  0  0  0  0  0  0
  -33.1062  -17.4910   15.5431 C   0  0  0  0  0  0  0  0  0  0  0  0
  -28.4002  -21.1898   18.4320 C   0  0  0  0  0  0  0  0  0  0  0  0
  -32.4425  -17.9670   16.6900 C   0  0  0  0  0  0  0  0  0  0  0  0
  -28.6308  -21.9098   19.6130 C   0  0  0  0  0  0  0  0  0  0  0  0
  -27.2370  -18.6550   24.1330 C   0  0  0  0  0  0  0  0  0  0  0  0
  -22.2948   -8.2117   21.7183 C   0  0  0  0  0  0  0  0  0  0  0  0
  -26.9693  -20.5490   20.7523 C   0  0  0  0  0  0  0  0  0  0  0  0
  -22.1611   -6.1749   22.8828 C   0  0  0  0  0  0  0  0  0  0  0  0
  -23.3455   -4.3042   24.5799 C   0  0  0  0  0  0  0  0  0  0  0  0
  -23.3496   -5.5479   22.5086 C   0  0  0  0  0  0  0  0  0  0  0  0
  -27.5518  -19.7398   24.9438 C   0  0  0  0  0  0  0  0  0  0  0  0
  -24.5404  -11.6536   20.7143 C   0  0  0  0  0  0  0  0  0  0  0  0
  -29.4446  -17.8342   24.4631 C   0  0  0  0  0  0  0  0  0  0  0  0
  -25.1888  -13.7153   20.3095 C   0  0  0  0  0  0  0  0  0  0  0  0
  -22.7949  -13.5205   21.0024 C   0  0  0  0  0  0  0  0  0  0  0  0
  -31.5344  -21.3303   17.9214 C   0  0  0  0  0  0  0  0  0  0  0  0
  -31.0445  -24.5239   18.2099 C   0  0  0  0  0  0  0  0  0  0  0  0
  -29.1169  -27.0604   19.4334 C   0  0  0  0  0  0  0  0  0  0  0  0
  -30.6441  -14.8434   20.6444 C   0  0  0  0  0  0  0  0  0  0  0  0
  -34.2818  -18.2230   14.9458 C   0  0  0  0  0  0  0  0  0  0  0  0
  -29.1375  -21.5417   17.1691 C   0  0  0  0  0  0  0  0  0  0  0  0
  -29.6364  -23.0292   19.6757 C   0  0  0  0  0  0  0  0  0  0  0  0
  -34.3895  -19.6762   15.4007 C   0  0  0  0  0  0  0  0  0  0  0  0
  -29.6510  -12.2115   18.4620 C   0  0  0  0  0  0  0  0  0  0  0  0
  -34.2086  -19.7773   16.9120 C   0  0  0  0  0  0  0  0  0  0  0  0
  -28.1985  -11.9378   18.8562 C   0  0  0  0  0  0  0  0  0  0  0  0
  -30.5074  -12.5679   19.6750 C   0  0  0  0  0  0  0  0  0  0  0  0
  -28.5331  -13.4016   20.8919 C   0  0  0  0  0  0  0  0  0  0  0  0
  -32.8204  -19.2824   17.3357 C   0  0  1  0  0  0  0  0  0  0  0  0
  -30.4595  -22.2574   17.4287 C   0  0  1  0  0  0  0  0  0  0  0  0
  -27.6180  -13.0925   19.6947 C   0  0  2  0  0  0  0  0  0  0  0  0
  -28.9915  -29.5645   19.5391 C   0  0  0  0  0  0  0  0  0  0  0  0
  -33.2351  -24.5415   20.3338 C   0  0  0  0  0  0  0  0  0  0  0  0
  -32.4199  -26.7957   21.0563 C   0  0  0  0  0  0  0  0  0  0  0  0
  -33.3054  -26.4729   18.7467 C   0  0  0  0  0  0  0  0  0  0  0  0
  -26.5300  -27.1075   17.9964 C   0  0  0  0  0  0  0  0  0  0  0  0
  -25.8703  -18.5011   23.5110 C   0  0  0  0  0  0  0  0  0  0  0  0
  -30.4989  -16.8072   24.2159 C   0  0  0  0  0  0  0  0  0  0  0  0
  -31.3824  -17.0849   22.9842 C   0  0  0  0  0  0  0  0  0  0  0  0
  -30.6241  -17.1083   21.6588 C   0  0  0  0  0  0  0  0  0  0  0  0
  -25.8590  -18.8820   22.0346 C   0  0  0  0  0  0  0  0  0  1  0  0
  -31.0496  -25.5071   19.3555 C   0  0  1  0  0  0  0  0  0  0  0  0
  -28.5708  -28.3165   18.7787 C   0  0  2  0  0  0  0  0  0  0  0  0
  -32.4849  -25.8070   19.8727 C   0  0  0  0  0  0  0  0  0  0  0  0
  -29.7873  -18.8741   25.2562 N   0  0  0  0  0  0  0  0  0  0  0  0
  -25.8248  -11.5382   20.3662 N   0  0  0  0  0  0  0  0  0  0  0  0
  -26.1910  -12.8087   20.1259 N   0  0  0  0  0  0  0  0  0  0  0  0
  -30.3364  -23.3315   18.4163 N   0  0  0  0  0  0  0  0  0  0  0  0
  -29.9026  -13.6706   20.4261 N   0  0  0  0  0  0  0  0  0  0  0  0
  -25.3855  -15.0362   20.1117 N   0  0  0  0  0  0  0  0  0  0  0  0
  -21.7798  -12.6324   21.3833 N   0  0  0  0  0  0  0  0  0  0  0  0
  -31.8185  -20.2892   17.0584 N   0  0  0  0  0  0  0  0  0  0  0  0
  -30.3254  -26.6836   18.8868 N   0  0  0  0  0  0  0  0  0  0  0  0
  -29.9941  -15.8417   21.3597 N   0  0  0  0  0  0  0  0  0  0  0  0
  -27.0818  -28.2724   18.7349 N   0  3  0  0  0  0  0  0  0  0  0  0
  -22.5406  -14.7463   20.9239 O   0  0  0  0  0  0  0  0  0  0  0  0
  -32.0676  -21.5445   19.0038 O   0  0  0  0  0  0  0  0  0  0  0  0
  -31.6407  -24.8066   17.1677 O   0  0  0  0  0  0  0  0  0  0  0  0
  -28.5318  -26.4744   20.3416 O   0  0  0  0  0  0  0  0  0  0  0  0
  -31.7979  -14.9921   20.2278 O   0  0  0  0  0  0  0  0  0  0  0  0
  -21.5724   -7.1044   22.0419 O   0  0  0  0  0  0  0  0  0  0  0  0
  -26.2791  -20.2373   21.8829 O   0  0  0  0  0  0  0  0  0  1  0  0
  -23.9149   -3.4071   25.3954 F   0  0  0  0  0  0  0  0  0  0  0  0
  -23.9277   -5.8409   21.3357 F   0  0  0  0  0  0  0  0  0  0  0  0
  -26.4161  -20.9817   25.2976 Cl  0  0  0  0  0  0  0  0  0  0  0  0
  1  2  1  0  0  0  0
  1  5  2  0  0  0  0
  2  6  2  0  0  0  0
  3  8  2  0  0  0  0
  3 17  1  0  0  0  0
  4  9  1  0  0  0  0
  4 17  2  0  0  0  0
  5 19  1  0  0  0  0
  6 21  1  0  0  0  0
  7 10  2  0  0  0  0
  7 20  1  0  0  0  0
  8 24  1  0  0  0  0
  9 24  2  0  0  0  0
 10 25  1  0  0  0  0
 11 12  2  0  0  0  0
 11 26  1  0  0  0  0
 12 27  1  0  0  0  0
 13 22  1  0  0  0  0
 13 25  2  0  0  0  0
 14 23  1  0  0  0  0
 14 31  2  0  0  0  0
 15 27  2  0  0  0  0
 15 28  1  0  0  0  0
 16 29  1  0  0  0  0
 16 63  2  0  0  0  0
 17 30  1  0  0  0  0
 18 30  1  0  0  0  0
 18 32  2  0  0  0  0
 18 33  1  0  0  0  0
 19 21  2  0  0  0  0
 19 38  1  0  0  0  0
 20 22  2  0  0  0  0
 20 39  1  0  0  0  0
 21 47  1  0  0  0  0
 22 40  1  0  0  0  0
 23 29  2  0  0  0  0
 23 55  1  0  0  0  0
 24 79  1  0  0  0  0
 25 80  1  0  0  0  0
 26 28  2  0  0  0  0
 26 79  1  0  0  0  0
 27 81  1  0  0  0  0
 28 82  1  0  0  0  0
 29 83  1  0  0  0  0
 30 64  2  0  0  0  0
 31 56  1  0  0  0  0
 31 63  1  0  0  0  0
 32 65  1  0  0  0  0
 32 68  1  0  0  0  0
 33 69  1  0  0  0  0
 33 74  2  0  0  0  0
 34 48  1  0  0  0  0
 34 70  1  0  0  0  0
 34 75  2  0  0  0  0
 35 60  1  0  0  0  0
 35 66  1  0  0  0  0
 35 76  2  0  0  0  0
 36 61  1  0  0  0  0
 36 71  1  0  0  0  0
 36 77  2  0  0  0  0
 37 67  1  0  0  0  0
 37 72  1  0  0  0  0
 37 78  2  0  0  0  0
 38 41  1  0  0  0  0
 39 48  1  0  0  0  0
 40 66  1  0  0  0  0
 41 43  1  0  0  0  0
 42 44  1  0  0  0  0
 42 45  1  0  0  0  0
 43 47  1  0  0  0  0
 44 49  1  0  0  0  0
 45 67  1  0  0  0  0
 46 49  1  0  0  0  0
 46 67  1  0  0  0  0
 47 70  1  0  0  0  0
 48 66  1  0  0  0  0
 49 65  1  0  0  0  0
 50 61  1  0  0  0  0
 51 62  1  0  0  0  0
 52 62  1  0  0  0  0
 53 62  1  0  0  0  0
 54 73  1  0  0  0  0
 55 59  1  0  0  0  0
 56 57  1  0  0  0  0
 57 58  1  0  0  0  0
 58 72  1  0  0  0  0
 59 80  1  0  0  0  0
 60 62  1  0  0  0  0
 60 71  1  0  0  0  0
 61 73  1  0  0  0  0
 64 65  1  0  0  0  0
M  CHG  1  73   1
M  ISO  4  37 100  59 101  72 100  80 101
M  END
> <Batch ID>
0031

> <Smiles>
CNC(C)C(=O)NC(C(=O)N1Cc2cc([101O:1][101CH2:1]Cc3cc(CCC[100NH:0][100C:0](=O)N4CCCC(n5nc(-c6ccc(Oc7ccc(F)cc7F)cc6)c(C(N)=O)c5N)C4)ncc3Cl)ccc2CC1C(=O)NC1CCCc2ccccc21)C(C)(C)C

> <Shape>
0.264

> <Color>
0.215

> <Negative vol penalty>
0.000

$$$$

  -OEChem-04052316423D

 83 91  0     1  0  0  0  0  0999 V2000
  -19.0160  -32.9016   25.2894 C   0  0  0  0  0  0  0  0  0  0  0  0
  -20.3430  -32.9836   24.8797 C   0  0  0  0  0  0  0  0  0  0  0  0
  -26.3346  -15.3894   21.8570 C   0  0  0  0  0  0  0  0  0  0  0  0
  -27.3634  -15.2105   19.6783 C   0  0  0  0  0  0  0  0  0  0  0  0
  -18.3739  -31.6645   25.3252 C   0  0  0  0  0  0  0  0  0  0  0  0
  -21.0290  -31.8283   24.5067 C   0  0  0  0  0  0  0  0  0  0  0  0
  -26.1212  -29.5676   20.0039 C   0  0  0  0  0  0  0  0  0  0  0  0
  -28.7367  -25.0875   15.7640 C   0  0  0  0  0  0  0  0  0  0  0  0
  -29.3420  -25.9195   16.7058 C   0  0  0  0  0  0  0  0  0  0  0  0
  -25.9377  -14.0545   21.7792 C   0  0  0  0  0  0  0  0  0  0  0  0
  -26.9665  -13.8755   19.6006 C   0  0  0  0  0  0  0  0  0  0  0  0
  -27.3206  -28.8568   20.0036 C   0  0  0  0  0  0  0  0  0  0  0  0
  -25.9131  -10.5234   18.6712 C   0  0  0  0  0  0  0  0  0  0  0  0
  -25.3522  -10.0826   17.4726 C   0  0  0  0  0  0  0  0  0  0  0  0
  -26.0855  -26.7848   20.0294 C   0  0  0  0  0  0  0  0  0  0  0  0
  -29.2304  -23.1665   17.1435 C   0  0  0  0  0  0  0  0  0  0  0  0
  -23.5817  -11.7104   17.7024 C   0  0  0  0  0  0  0  0  0  0  0  0
  -27.0474  -15.9674   20.8065 C   0  0  0  0  0  0  0  0  0  0  0  0
  -28.6627  -17.8460   21.4141 C   0  0  0  0  0  0  0  0  0  0  0  0
  -19.0494  -30.4948   24.9432 C   0  0  0  0  0  0  0  0  0  0  0  0
  -24.8930  -28.8914   20.0280 C   0  0  0  0  0  0  0  0  0  0  0  0
  -20.3957  -30.5743   24.5387 C   0  0  0  0  0  0  0  0  0  0  0  0
  -24.8720  -27.4893   20.0273 C   0  0  0  0  0  0  0  0  0  0  0  0
  -28.6808  -23.7110   15.9829 C   0  0  0  0  0  0  0  0  0  0  0  0
  -29.8917  -25.3749   17.8664 C   0  0  0  0  0  0  0  0  0  0  0  0
  -29.8359  -23.9984   18.0853 C   0  0  0  0  0  0  0  0  0  0  0  0
  -26.2536  -13.2975   20.6510 C   0  0  0  0  0  0  0  0  0  0  0  0
  -27.3029  -27.4652   20.0193 C   0  0  0  0  0  0  0  0  0  0  0  0
  -25.3082  -11.5577   19.3855 C   0  0  0  0  0  0  0  0  0  0  0  0
  -24.1866  -10.6761   16.9882 C   0  0  0  0  0  0  0  0  0  0  0  0
  -24.1426  -12.1512   18.9010 C   0  0  0  0  0  0  0  0  0  0  0  0
  -27.4571  -17.3465   20.8860 C   0  0  0  0  0  0  0  0  0  0  0  0
  -28.5685  -19.2072   21.2569 C   0  0  0  0  0  0  0  0  0  0  0  0
  -29.7689  -17.1425   21.9947 C   0  0  0  0  0  0  0  0  0  0  0  0
  -22.4384  -28.7698   22.0439 C   0  0  0  0  0  0  0  0  0  0  0  0
  -21.0953  -26.9886   19.6889 C   0  0  0  0  0  0  0  0  0  0  0  0
  -21.5928  -25.5684   16.9238 C   0  0  0  0  0  0  0  0  0  0  0  0
  -25.4882  -22.6705   17.4662 C   0  0  0  0  0  0  0  0  0  0  0  0
  -18.3279  -29.1742   25.0436 C   0  0  0  0  0  0  0  0  0  0  0  0
  -23.6078  -29.6724   20.0009 C   0  0  0  0  0  0  0  0  0  0  0  0
  -23.5798  -26.7156   20.0329 C   0  0  0  0  0  0  0  0  0  0  0  0
  -19.0116  -28.0466   24.2746 C   0  0  0  0  0  0  0  0  0  0  0  0
  -25.3454  -22.7354   21.0232 C   0  0  0  0  0  0  0  0  0  0  0  0
  -20.5101  -28.0381   24.5595 C   0  0  0  0  0  0  0  0  0  0  0  0
  -25.9792  -21.4067   21.4390 C   0  0  0  0  0  0  0  0  0  0  0  0
  -24.5213  -22.5921   19.7456 C   0  0  0  0  0  0  0  0  0  0  0  0
  -25.8767  -20.6648   19.0229 C   0  0  0  0  0  0  0  0  0  0  0  0
  -21.1660  -29.3468   24.1027 C   0  0  1  0  0  0  0  0  0  0  0  0
  -22.4194  -28.8864   20.5460 C   0  0  1  0  0  0  0  0  0  0  0  0
  -26.7634  -20.7710   20.2753 C   0  0  2  0  0  0  0  0  0  0  0  0
  -31.9391  -23.2962   19.2556 C   0  0  0  0  0  0  0  0  0  0  0  0
  -20.9999  -24.0043   15.0532 C   0  0  0  0  0  0  0  0  0  0  0  0
  -20.5693  -24.8373   21.7878 C   0  0  0  0  0  0  0  0  0  0  0  0
  -20.1810  -23.2119   19.9235 C   0  0  0  0  0  0  0  0  0  0  0  0
  -18.6945  -25.1996   20.1728 C   0  0  0  0  0  0  0  0  0  0  0  0
  -21.6289  -27.7546   14.9293 C   0  0  0  0  0  0  0  0  0  0  0  0
  -28.0339  -22.8217   14.9756 C   0  0  0  0  0  0  0  0  0  0  0  0
  -30.5425  -26.2951   18.8704 C   0  0  0  0  0  0  0  0  0  0  0  0
  -30.4179  -23.3929   19.3204 C   0  0  0  0  0  0  0  0  0  0  0  0
  -26.5345  -22.6091   15.2166 C   0  0  0  0  0  0  0  0  0  0  0  0
  -29.5891  -27.3749   19.3705 C   0  0  0  0  0  0  0  0  0  1  0  0
  -21.0627  -25.5186   19.3468 C   0  0  1  0  0  0  0  0  0  0  0  0
  -20.9415  -25.4373   15.5589 C   0  0  2  0  0  0  0  0  0  0  0  0
  -20.1514  -24.7061   20.3096 C   0  0  0  0  0  0  0  0  0  0  0  0
  -26.6558  -18.3118   20.4278 N   0  0  0  0  0  0  0  0  0  0  0  0
  -27.3592  -19.4316   20.6675 N   0  0  0  0  0  0  0  0  0  0  0  0
  -22.3499  -27.5245   20.0125 N   0  0  0  0  0  0  0  0  0  0  0  0
  -25.3235  -21.9846   18.6809 N   0  0  0  0  0  0  0  0  0  0  0  0
  -29.4029  -20.2222   21.5668 N   0  0  0  0  0  0  0  0  0  0  0  0
  -29.7020  -15.7450   22.0787 N   0  0  0  0  0  0  0  0  0  0  0  0
  -21.3482  -29.3465   22.6670 N   0  0  0  0  0  0  0  0  0  0  0  0
  -20.6739  -25.4347   17.9431 N   0  0  0  0  0  0  0  0  0  0  0  0
  -26.2684  -22.0271   16.5132 N   0  0  0  0  0  0  0  0  0  0  0  0
  -21.6309  -26.3132   14.5697 N   0  3  0  0  0  0  0  0  0  0  0  0
  -30.7794  -17.7367   22.4412 O   0  0  0  0  0  0  0  0  0  0  0  0
  -23.3723  -28.1975   22.5935 O   0  0  0  0  0  0  0  0  0  0  0  0
  -20.0475  -27.6390   19.6629 O   0  0  0  0  0  0  0  0  0  0  0  0
  -22.7970  -25.7657   17.0711 O   0  0  0  0  0  0  0  0  0  0  0  0
  -24.9823  -23.7767   17.2492 O   0  0  0  0  0  0  0  0  0  0  0  0
  -25.8667  -11.9948   20.5749 O   0  0  0  0  0  0  0  0  0  0  0  0
  -28.4721  -26.7689   20.0197 O   0  0  0  0  0  0  0  0  0  1  0  0
  -23.6489  -10.2536   15.8364 F   0  0  0  0  0  0  0  0  0  0  0  0
  -23.5577  -13.1461   19.5822 F   0  0  0  0  0  0  0  0  0  0  0  0
  1  2  1  0  0  0  0
  1  5  2  0  0  0  0
  2  6  2  0  0  0  0
  3 10  2  0  0  0  0
  3 18  1  0  0  0  0
  4 11  1  0  0  0  0
  4 18  2  0  0  0  0
  5 20  1  0  0  0  0
  6 22  1  0  0  0  0
  7 12  2  0  0  0  0
  7 21  1  0  0  0  0
  8  9  2  0  0  0  0
  8 24  1  0  0  0  0
  9 25  1  0  0  0  0
 10 27  1  0  0  0  0
 11 27  2  0  0  0  0
 12 28  1  0  0  0  0
 13 14  2  0  0  0  0
 13 29  1  0  0  0  0
 14 30  1  0  0  0  0
 15 23  1  0  0  0  0
 15 28  2  0  0  0  0
 16 24  2  0  0  0  0
 16 26  1  0  0  0  0
 17 30  2  0  0  0  0
 17 31  1  0  0  0  0
 18 32  1  0  0  0  0
 19 32  1  0  0  0  0
 19 33  2  0  0  0  0
 19 34  1  0  0  0  0
 20 22  2  0  0  0  0
 20 39  1  0  0  0  0
 21 23  2  0  0  0  0
 21 40  1  0  0  0  0
 22 48  1  0  0  0  0
 23 41  1  0  0  0  0
 24 57  1  0  0  0  0
 25 26  2  0  0  0  0
 25 58  1  0  0  0  0
 26 59  1  0  0  0  0
 27 80  1  0  0  0  0
 28 81  1  0  0  0  0
 29 31  2  0  0  0  0
 29 80  1  0  0  0  0
 30 82  1  0  0  0  0
 31 83  1  0  0  0  0
 32 65  2  0  0  0  0
 33 66  1  0  0  0  0
 33 69  1  0  0  0  0
 34 70  1  0  0  0  0
 34 75  2  0  0  0  0
 35 49  1  0  0  0  0
 35 71  1  0  0  0  0
 35 76  2  0  0  0  0
 36 62  1  0  0  0  0
 36 67  1  0  0  0  0
 36 77  2  0  0  0  0
 37 63  1  0  0  0  0
 37 72  1  0  0  0  0
 37 78  2  0  0  0  0
 38 68  1  0  0  0  0
 38 73  1  0  0  0  0
 38 79  2  0  0  0  0
 39 42  1  0  0  0  0
 40 49  1  0  0  0  0
 41 67  1  0  0  0  0
 42 44  1  0  0  0  0
 43 45  1  0  0  0  0
 43 46  1  0  0  0  0
 44 48  1  0  0  0  0
 45 50  1  0  0  0  0
 46 68  1  0  0  0  0
 47 50  1  0  0  0  0
 47 68  1  0  0  0  0
 48 71  1  0  0  0  0
 49 67  1  0  0  0  0
 50 66  1  0  0  0  0
 51 59  1  0  0  0  0
 52 63  1  0  0  0  0
 53 64  1  0  0  0  0
 54 64  1  0  0  0  0
 55 64  1  0  0  0  0
 56 74  1  0  0  0  0
 57 60  1  0  0  0  0
 58 61  1  0  0  0  0
 60 73  1  0  0  0  0
 61 81  1  0  0  0  0
 62 64  1  0  0  0  0
 62 72  1  0  0  0  0
 63 74  1  0  0  0  0
 65 66  1  0  0  0  0
M  CHG  1  74   1
M  ISO  4  38 100  61 101  73 100  81 101
M  END
> <Batch ID>
0031

> <Smiles>
CCc1cc(CC[100NH:0][100C:0](=O)N2CCCC(n3nc(-c4ccc(Oc5ccc(F)cc5F)cc4)c(C(N)=O)c3N)C2)ccc1C[101CH2:1][101O:1]c1ccc2c(c1)CN(C(=O)C(NC(=O)C(C)NC)C(C)(C)C)C(C(=O)NC1CCCc3ccccc31)C2

> <Shape>
0.212

> <Color>
0.085

> <Negative vol penalty>
0.000

$$$$

  -OEChem-04052316423D

 82 90  0     1  0  0  0  0  0999 V2000
  -34.1608   -7.6831   19.3370 C   0  0  0  0  0  0  0  0  0  0  0  0
  -34.1855   -9.0704   19.4380 C   0  0  0  0  0  0  0  0  0  0  0  0
  -24.2621  -30.3537   19.9630 C   0  0  0  0  0  0  0  0  0  0  0  0
  -25.6347  -29.0628   21.4752 C   0  0  0  0  0  0  0  0  0  0  0  0
  -33.0511   -7.0453   18.7840 C   0  0  0  0  0  0  0  0  0  0  0  0
  -33.1011   -9.8208   18.9850 C   0  0  0  0  0  0  0  0  0  0  0  0
  -30.9664  -15.0310   21.3938 C   0  0  0  0  0  0  0  0  0  0  0  0
  -23.8270  -31.1403   21.0294 C   0  0  0  0  0  0  0  0  0  0  0  0
  -25.1996  -29.8495   22.5417 C   0  0  0  0  0  0  0  0  0  0  0  0
  -31.1528  -16.3691   21.0494 C   0  0  0  0  0  0  0  0  0  0  0  0
  -25.8772  -32.9031   23.8212 C   0  0  0  0  0  0  0  0  0  0  0  0
  -26.8376  -33.3518   24.7276 C   0  0  0  0  0  0  0  0  0  0  0  0
  -29.0980  -16.3241   19.7865 C   0  0  0  0  0  0  0  0  0  0  0  0
  -28.2455  -20.6619   19.9249 C   0  0  0  0  0  0  0  0  0  0  0  0
  -25.6916  -32.1968   26.5137 C   0  0  0  0  0  0  0  0  0  0  0  0
  -28.7127  -21.0533   22.2238 C   0  0  0  0  0  0  0  0  0  0  0  0
  -25.1659  -29.3148   20.1858 C   0  0  0  0  0  0  0  0  0  0  0  0
  -26.7350  -28.7279   18.2620 C   0  0  0  0  0  0  0  0  0  0  0  0
  -31.9484   -7.7877   18.3328 C   0  0  0  0  0  0  0  0  0  0  0  0
  -29.8481  -14.3252   20.9273 C   0  0  0  0  0  0  0  0  0  0  0  0
  -31.9762   -9.1924   18.4242 C   0  0  0  0  0  0  0  0  0  0  0  0
  -28.8985  -14.9778   20.1284 C   0  0  0  0  0  0  0  0  0  0  0  0
  -29.1788  -20.7731   20.9495 C   0  0  0  0  0  0  0  0  0  0  0  0
  -26.8936  -20.8320   20.2020 C   0  0  0  0  0  0  0  0  0  0  0  0
  -24.2957  -30.8883   22.3188 C   0  0  0  0  0  0  0  0  0  0  0  0
  -30.2201  -17.0150   20.2433 C   0  0  0  0  0  0  0  0  0  0  0  0
  -24.8238  -32.1013   24.2609 C   0  0  0  0  0  0  0  0  0  0  0  0
  -26.7449  -32.9987   26.0739 C   0  0  0  0  0  0  0  0  0  0  0  0
  -24.7311  -31.7481   25.6072 C   0  0  0  0  0  0  0  0  0  0  0  0
  -25.6153  -28.5014   19.0847 C   0  0  0  0  0  0  0  0  0  0  0  0
  -26.5297  -21.1093   21.5099 C   0  0  0  0  0  0  0  0  0  0  0  0
  -26.7273  -27.6792   17.3751 C   0  0  0  0  0  0  0  0  0  0  0  0
  -27.6963  -29.7912   18.2965 C   0  0  0  0  0  0  0  0  0  0  0  0
  -29.4158  -11.7743   19.0807 C   0  0  0  0  0  0  0  0  0  0  0  0
  -26.3105  -12.1686   19.9314 C   0  0  0  0  0  0  0  0  0  0  0  0
  -23.8509  -14.2644   21.0293 C   0  0  0  0  0  0  0  0  0  0  0  0
  -24.4816  -22.1348   17.6365 C   0  0  0  0  0  0  0  0  0  0  0  0
  -30.7915   -7.0566   17.6990 C   0  0  0  0  0  0  0  0  0  0  0  0
  -29.6478  -12.8898   21.3297 C   0  0  0  0  0  0  0  0  0  0  0  0
  -27.6705  -14.2705   19.6184 C   0  0  0  0  0  0  0  0  0  0  0  0
  -29.5254   -7.9019   17.5859 C   0  0  0  0  0  0  0  0  0  0  0  0
  -23.7444  -24.6309   15.2070 C   0  0  0  0  0  0  0  0  0  0  0  0
  -29.8544   -9.2850   17.0330 C   0  0  0  0  0  0  0  0  0  0  0  0
  -24.2413  -25.9263   15.8511 C   0  0  0  0  0  0  0  0  0  0  0  0
  -23.1420  -23.6817   16.2405 C   0  0  0  0  0  0  0  0  0  0  0  0
  -24.5156  -24.6725   18.0308 C   0  0  0  0  0  0  0  0  0  0  0  0
  -30.8087  -10.0395   17.9666 C   0  0  1  0  0  0  0  0  0  0  0  0
  -28.7375  -12.1231   20.3753 C   0  0  1  0  0  0  0  0  0  0  0  0
  -25.1823  -25.6382   17.0363 C   0  0  2  0  0  0  0  0  0  0  0  0
  -24.5002  -20.0781   22.5607 C   0  0  0  0  0  0  0  0  0  0  0  0
  -21.4062  -14.3073   21.5939 C   0  0  0  0  0  0  0  0  0  0  0  0
  -25.6262  -12.1697   16.9579 C   0  0  0  0  0  0  0  0  0  0  0  0
  -23.3964  -13.1465   17.5426 C   0  0  0  0  0  0  0  0  0  0  0  0
  -24.0296  -10.8894   18.3953 C   0  0  0  0  0  0  0  0  0  0  0  0
  -24.3940  -15.0285   23.8365 C   0  0  0  0  0  0  0  0  0  0  0  0
  -30.6535  -20.5933   20.6823 C   0  0  0  0  0  0  0  0  0  0  0  0
  -25.8885  -20.7160   19.1086 C   0  0  0  0  0  0  0  0  0  0  0  0
  -25.0917  -21.3010   21.8664 C   0  0  0  0  0  0  0  0  0  0  0  0
  -31.0985  -19.1433   20.8389 C   0  0  0  0  0  0  0  0  0  1  0  0
  -25.1388  -12.9399   19.3735 C   0  0  1  0  0  0  0  0  0  0  0  0
  -22.8162  -14.1138   22.1298 C   0  0  2  0  0  0  0  0  0  0  0  0
  -24.5718  -12.2994   18.0752 C   0  0  0  0  0  0  0  0  0  0  0  0
  -27.4075  -21.2249   22.5315 N   0  0  0  0  0  0  0  0  0  0  0  0
  -24.9449  -27.3957   18.7501 N   0  0  0  0  0  0  0  0  0  0  0  0
  -25.6453  -26.9181   17.7073 N   0  0  0  0  0  0  0  0  0  0  0  0
  -27.5225  -12.8659   20.0341 N   0  0  0  0  0  0  0  0  0  0  0  0
  -24.0852  -23.4486   17.3368 N   0  0  0  0  0  0  0  0  0  0  0  0
  -27.5404  -27.3430   16.3513 N   0  0  0  0  0  0  0  0  0  0  0  0
  -27.5562  -30.7872   19.2726 N   0  0  0  0  0  0  0  0  0  0  0  0
  -30.0889  -10.5677   19.1056 N   0  0  0  0  0  0  0  0  0  0  0  0
  -24.1692  -13.0505   20.4580 N   0  0  0  0  0  0  0  0  0  0  0  0
  -25.3828  -22.0030   18.6859 N   0  0  0  0  0  0  0  0  0  0  0  0
  -23.0527  -15.1191   23.2042 N   0  3  0  0  0  0  0  0  0  0  0  0
  -28.6417  -29.8651   17.4753 O   0  0  0  0  0  0  0  0  0  0  0  0
  -29.3333  -12.5421   18.1293 O   0  0  0  0  0  0  0  0  0  0  0  0
  -26.1542  -10.9929   20.2705 O   0  0  0  0  0  0  0  0  0  0  0  0
  -24.3264  -15.3507   20.7061 O   0  0  0  0  0  0  0  0  0  0  0  0
  -24.0676  -21.1526   17.0115 O   0  0  0  0  0  0  0  0  0  0  0  0
  -23.8715  -31.6559   23.3596 O   0  0  0  0  0  0  0  0  0  0  0  0
  -30.3999  -18.3209   19.9052 O   0  0  0  0  0  0  0  0  0  1  0  0
  -27.6682  -33.4284   26.9440 F   0  0  0  0  0  0  0  0  0  0  0  0
  -23.7222  -30.9771   26.0354 F   0  0  0  0  0  0  0  0  0  0  0  0
  1  2  1  0  0  0  0
  1  5  2  0  0  0  0
  2  6  2  0  0  0  0
  3  8  2  0  0  0  0
  3 17  1  0  0  0  0
  4  9  1  0  0  0  0
  4 17  2  0  0  0  0
  5 19  1  0  0  0  0
  6 21  1  0  0  0  0
  7 10  2  0  0  0  0
  7 20  1  0  0  0  0
  8 25  1  0  0  0  0
  9 25  2  0  0  0  0
 10 26  1  0  0  0  0
 11 12  2  0  0  0  0
 11 27  1  0  0  0  0
 12 28  1  0  0  0  0
 13 22  1  0  0  0  0
 13 26  2  0  0  0  0
 14 23  2  0  0  0  0
 14 24  1  0  0  0  0
 15 28  2  0  0  0  0
 15 29  1  0  0  0  0
 16 23  1  0  0  0  0
 16 63  2  0  0  0  0
 17 30  1  0  0  0  0
 18 30  1  0  0  0  0
 18 32  2  0  0  0  0
 18 33  1  0  0  0  0
 19 21  2  0  0  0  0
 19 38  1  0  0  0  0
 20 22  2  0  0  0  0
 20 39  1  0  0  0  0
 21 47  1  0  0  0  0
 22 40  1  0  0  0  0
 23 56  1  0  0  0  0
 24 31  2  0  0  0  0
 24 57  1  0  0  0  0
 25 79  1  0  0  0  0
 26 80  1  0  0  0  0
 27 29  2  0  0  0  0
 27 79  1  0  0  0  0
 28 81  1  0  0  0  0
 29 82  1  0  0  0  0
 30 64  2  0  0  0  0
 31 58  1  0  0  0  0
 31 63  1  0  0  0  0
 32 65  1  0  0  0  0
 32 68  1  0  0  0  0
 33 69  1  0  0  0  0
 33 74  2  0  0  0  0
 34 48  1  0  0  0  0
 34 70  1  0  0  0  0
 34 75  2  0  0  0  0
 35 60  1  0  0  0  0
 35 66  1  0  0  0  0
 35 76  2  0  0  0  0
 36 61  1  0  0  0  0
 36 71  1  0  0  0  0
 36 77  2  0  0  0  0
 37 67  1  0  0  0  0
 37 72  1  0  0  0  0
 37 78  2  0  0  0  0
 38 41  1  0  0  0  0
 39 48  1  0  0  0  0
 40 66  1  0  0  0  0
 41 43  1  0  0  0  0
 42 44  1  0  0  0  0
 42 45  1  0  0  0  0
 43 47  1  0  0  0  0
 44 49  1  0  0  0  0
 45 67  1  0  0  0  0
 46 49  1  0  0  0  0
 46 67  1  0  0  0  0
 47 70  1  0  0  0  0
 48 66  1  0  0  0  0
 49 65  1  0  0  0  0
 50 58  1  0  0  0  0
 51 61  1  0  0  0  0
 52 62  1  0  0  0  0
 53 62  1  0  0  0  0
 54 62  1  0  0  0  0
 55 73  1  0  0  0  0
 56 59  1  0  0  0  0
 57 72  1  0  0  0  0
 59 80  1  0  0  0  0
 60 62  1  0  0  0  0
 60 71  1  0  0  0  0
 61 73  1  0  0  0  0
 64 65  1  0  0  0  0
M  CHG  1  73   1
M  ISO  4  37 100  59 101  72 100  80 101
M  END
> <Batch ID>
0031

> <Smiles>
CCc1ncc(C[101CH2:1][101O:1]c2ccc3c(c2)CN(C(=O)C(NC(=O)C(C)NC)C(C)(C)C)C(C(=O)NC2CCCc4ccccc42)C3)cc1C[100NH:0][100C:0](=O)N1CCCC(n2nc(-c3ccc(Oc4ccc(F)cc4F)cc3)c(C(N)=O)c2N)C1

> <Shape>
0.228

> <Color>
0.063

> <Negative vol penalty>
0.000

$$$$

  -OEChem-04052316423D

 82 90  0     1  0  0  0  0  0999 V2000
  -16.8730  -10.5353   24.2174 C   0  0  0  0  0  0  0  0  0  0  0  0
  -18.0196  -11.3199   24.2890 C   0  0  0  0  0  0  0  0  0  0  0  0
  -22.8630  -10.0501   20.0419 C   0  0  0  0  0  0  0  0  0  0  0  0
  -24.3077   -9.4507   21.8833 C   0  0  0  0  0  0  0  0  0  0  0  0
  -16.4766   -9.7800   25.3202 C   0  0  0  0  0  0  0  0  0  0  0  0
  -18.7699  -11.3504   25.4639 C   0  0  0  0  0  0  0  0  0  0  0  0
  -24.8537  -11.8718   25.9343 C   0  0  0  0  0  0  0  0  0  0  0  0
  -22.1697   -8.8495   20.1950 C   0  0  0  0  0  0  0  0  0  0  0  0
  -23.6143   -8.2501   22.0364 C   0  0  0  0  0  0  0  0  0  0  0  0
  -25.6847  -12.9616   26.1906 C   0  0  0  0  0  0  0  0  0  0  0  0
  -20.7009   -7.2146   23.4003 C   0  0  0  0  0  0  0  0  0  0  0  0
  -20.3518   -6.8302   24.6949 C   0  0  0  0  0  0  0  0  0  0  0  0
  -25.7376  -12.3640   28.5271 C   0  0  0  0  0  0  0  0  0  0  0  0
  -31.1717  -12.8154   26.0995 C   0  0  0  0  0  0  0  0  0  0  0  0
  -30.2964  -14.7230   24.9030 C   0  0  0  0  0  0  0  0  0  0  0  0
  -21.6459   -4.8057   24.4427 C   0  0  0  0  0  0  0  0  0  0  0  0
  -23.9320  -10.3507   20.8860 C   0  0  0  0  0  0  0  0  0  0  0  0
  -24.1257  -12.8937   20.8268 C   0  0  0  0  0  0  0  0  0  0  0  0
  -17.2278   -9.7938   26.5061 C   0  0  0  0  0  0  0  0  0  0  0  0
  -24.4489  -11.0249   26.9760 C   0  0  0  0  0  0  0  0  0  0  0  0
  -18.3825  -10.5956   26.5841 C   0  0  0  0  0  0  0  0  0  0  0  0
  -24.9035  -11.2627   28.2810 C   0  0  0  0  0  0  0  0  0  0  0  0
  -31.0448  -13.5460   24.9181 C   0  0  0  0  0  0  0  0  0  0  0  0
  -30.5500  -13.2617   27.2658 C   0  0  0  0  0  0  0  0  0  0  0  0
  -29.6748  -15.1693   26.0692 C   0  0  0  0  0  0  0  0  0  0  0  0
  -29.8016  -14.4387   27.2506 C   0  0  0  0  0  0  0  0  0  0  0  0
  -22.5453   -7.9495   21.1923 C   0  0  0  0  0  0  0  0  0  0  0  0
  -26.1245  -13.2095   27.4876 C   0  0  0  0  0  0  0  0  0  0  0  0
  -21.5225   -6.3945   22.6269 C   0  0  0  0  0  0  0  0  0  0  0  0
  -20.8243   -5.6258   25.2161 C   0  0  0  0  0  0  0  0  0  0  0  0
  -21.9950   -5.1901   23.1481 C   0  0  0  0  0  0  0  0  0  0  0  0
  -24.6490  -11.5905   20.7280 C   0  0  0  0  0  0  0  0  0  0  0  0
  -25.2028  -13.7145   20.5974 C   0  0  0  0  0  0  0  0  0  0  0  0
  -22.7859  -13.3237   21.1016 C   0  0  0  0  0  0  0  0  0  0  0  0
  -21.6534  -10.2311   28.2638 C   0  0  0  0  0  0  0  0  0  0  0  0
  -23.4666   -8.1359   29.9504 C   0  0  0  0  0  0  0  0  0  0  0  0
  -26.5335   -7.3094   31.1987 C   0  0  0  0  0  0  0  0  0  0  0  0
  -31.1071  -12.9765   21.2652 C   0  0  0  0  0  0  0  0  0  0  0  0
  -16.7336   -8.9975   27.6877 C   0  0  0  0  0  0  0  0  0  0  0  0
  -23.5740   -9.8381   26.6786 C   0  0  0  0  0  0  0  0  0  0  0  0
  -24.5141  -10.3717   29.4311 C   0  0  0  0  0  0  0  0  0  0  0  0
  -17.7907   -8.7938   28.7700 C   0  0  0  0  0  0  0  0  0  0  0  0
  -29.3830  -13.8452   18.2736 C   0  0  0  0  0  0  0  0  0  0  0  0
  -18.5049  -10.1073   29.0725 C   0  0  0  0  0  0  0  0  0  0  0  0
  -27.9270  -13.4835   18.5723 C   0  0  0  0  0  0  0  0  0  0  0  0
  -30.3531  -12.8516   18.9088 C   0  0  0  0  0  0  0  0  0  0  0  0
  -28.7107  -12.2818   20.6557 C   0  0  0  0  0  0  0  0  0  0  0  0
  -19.2365  -10.6358   27.8328 C   0  0  1  0  0  0  0  0  0  0  0  0
  -22.8072   -9.3401   27.8999 C   0  0  1  0  0  0  0  0  0  0  0  0
  -27.6967  -13.2867   20.0828 C   0  0  2  0  0  0  0  0  0  0  0  0
  -30.7024  -12.4614   28.5180 C   0  0  0  0  0  0  0  0  0  0  0  0
  -28.8790  -16.4329   26.0265 C   0  0  0  0  0  0  0  0  0  0  0  0
  -27.6959   -5.5571   32.5681 C   0  0  0  0  0  0  0  0  0  0  0  0
  -22.2342   -9.3033   32.4858 C   0  0  0  0  0  0  0  0  0  0  0  0
  -24.0760   -8.2243   33.7943 C   0  0  0  0  0  0  0  0  0  0  0  0
  -22.4796   -6.8145   32.4956 C   0  0  0  0  0  0  0  0  0  0  0  0
  -28.3422   -6.5993   28.9664 C   0  0  0  0  0  0  0  0  0  0  0  0
  -29.1294  -14.9216   28.5128 C   0  0  0  0  0  0  0  0  0  0  0  0
  -31.7089  -13.0685   23.6711 C   0  0  0  0  0  0  0  0  0  0  0  0
  -27.8547  -14.1451   28.8244 C   0  0  0  0  0  0  0  0  0  1  0  0
  -24.2120   -8.1819   31.2623 C   0  0  1  0  0  0  0  0  0  0  0  0
  -27.3172   -6.0097   31.1665 C   0  0  2  0  0  0  0  0  0  0  0  0
  -23.2564   -8.1491   32.4884 C   0  0  0  0  0  0  0  0  0  0  0  0
  -25.9568  -11.5792   20.4566 N   0  0  0  0  0  0  0  0  0  0  0  0
  -26.2643  -12.8854   20.3830 N   0  0  0  0  0  0  0  0  0  0  0  0
  -23.6521   -9.2278   29.0906 N   0  0  0  0  0  0  0  0  0  0  0  0
  -30.0823  -12.7120   20.3417 N   0  0  0  0  0  0  0  0  0  0  0  0
  -25.3359  -15.0573   20.5600 N   0  0  0  0  0  0  0  0  0  0  0  0
  -22.4118  -13.5332   22.4360 N   0  0  0  0  0  0  0  0  0  0  0  0
  -20.4706   -9.9088   27.6260 N   0  0  0  0  0  0  0  0  0  0  0  0
  -25.1732   -7.0851   31.2244 N   0  0  0  0  0  0  0  0  0  0  0  0
  -30.7644  -12.8263   22.6034 N   0  0  0  0  0  0  0  0  0  0  0  0
  -28.5675   -6.1783   30.3732 N   0  3  0  0  0  0  0  0  0  0  0  0
  -21.9404  -13.5008   20.1920 O   0  0  0  0  0  0  0  0  0  0  0  0
  -21.8231  -11.1426   29.0651 O   0  0  0  0  0  0  0  0  0  0  0  0
  -22.7520   -7.1635   29.6947 O   0  0  0  0  0  0  0  0  0  0  0  0
  -27.0740   -8.4132   31.2044 O   0  0  0  0  0  0  0  0  0  0  0  0
  -32.2417  -13.3261   20.9227 O   0  0  0  0  0  0  0  0  0  0  0  0
  -21.8689   -6.7780   21.3421 O   0  0  0  0  0  0  0  0  0  0  0  0
  -26.9351  -14.2728   27.7407 O   0  0  0  0  0  0  0  0  0  1  0  0
  -20.4902   -5.2575   26.4599 F   0  0  0  0  0  0  0  0  0  0  0  0
  -22.7856   -4.3986   22.4103 F   0  0  0  0  0  0  0  0  0  0  0  0
  1  2  1  0  0  0  0
  1  5  2  0  0  0  0
  2  6  2  0  0  0  0
  3  8  2  0  0  0  0
  3 17  1  0  0  0  0
  4  9  1  0  0  0  0
  4 17  2  0  0  0  0
  5 19  1  0  0  0  0
  6 21  1  0  0  0  0
  7 10  2  0  0  0  0
  7 20  1  0  0  0  0
  8 27  1  0  0  0  0
  9 27  2  0  0  0  0
 10 28  1  0  0  0  0
 11 12  2  0  0  0  0
 11 29  1  0  0  0  0
 12 30  1  0  0  0  0
 13 22  1  0  0  0  0
 13 28  2  0  0  0  0
 14 23  1  0  0  0  0
 14 24  2  0  0  0  0
 15 23  2  0  0  0  0
 15 25  1  0  0  0  0
 16 30  2  0  0  0  0
 16 31  1  0  0  0  0
 17 32  1  0  0  0  0
 18 32  1  0  0  0  0
 18 33  2  0  0  0  0
 18 34  1  0  0  0  0
 19 21  2  0  0  0  0
 19 39  1  0  0  0  0
 20 22  2  0  0  0  0
 20 40  1  0  0  0  0
 21 48  1  0  0  0  0
 22 41  1  0  0  0  0
 23 59  1  0  0  0  0
 24 26  1  0  0  0  0
 24 51  1  0  0  0  0
 25 26  2  0  0  0  0
 25 52  1  0  0  0  0
 26 58  1  0  0  0  0
 27 79  1  0  0  0  0
 28 80  1  0  0  0  0
 29 31  2  0  0  0  0
 29 79  1  0  0  0  0
 30 81  1  0  0  0  0
 31 82  1  0  0  0  0
 32 64  2  0  0  0  0
 33 65  1  0  0  0  0
 33 68  1  0  0  0  0
 34 69  1  0  0  0  0
 34 74  2  0  0  0  0
 35 49  1  0  0  0  0
 35 70  1  0  0  0  0
 35 75  2  0  0  0  0
 36 61  1  0  0  0  0
 36 66  1  0  0  0  0
 36 76  2  0  0  0  0
 37 62  1  0  0  0  0
 37 71  1  0  0  0  0
 37 77  2  0  0  0  0
 38 67  1  0  0  0  0
 38 72  1  0  0  0  0
 38 78  2  0  0  0  0
 39 42  1  0  0  0  0
 40 49  1  0  0  0  0
 41 66  1  0  0  0  0
 42 44  1  0  0  0  0
 43 45  1  0  0  0  0
 43 46  1  0  0  0  0
 44 48  1  0  0  0  0
 45 50  1  0  0  0  0
 46 67  1  0  0  0  0
 47 50  1  0  0  0  0
 47 67  1  0  0  0  0
 48 70  1  0  0  0  0
 49 66  1  0  0  0  0
 50 65  1  0  0  0  0
 53 62  1  0  0  0  0
 54 63  1  0  0  0  0
 55 63  1  0  0  0  0
 56 63  1  0  0  0  0
 57 73  1  0  0  0  0
 58 60  1  0  0  0  0
 59 72  1  0  0  0  0
 60 80  1  0  0  0  0
 61 63  1  0  0  0  0
 61 71  1  0  0  0  0
 62 73  1  0  0  0  0
 64 65  1  0  0  0  0
M  CHG  1  73   1
M  ISO  4  38 100  60 101  72 100  80 101
M  END
> <Batch ID>
0031

> <Smiles>
CNC(C)C(=O)NC(C(=O)N1Cc2cc([101O:1][101CH2:1]Cc3c(C)cc(C[100NH:0][100C:0](=O)N4CCCC(n5nc(-c6ccc(Oc7ccc(F)cc7F)cc6)c(C(N)=O)c5N)C4)cc3C)ccc2CC1C(=O)NC1CCCc2ccccc21)C(C)(C)C

> <Shape>
0.152

> <Color>
0.167

> <Negative vol penalty>
0.000

$$$$

  -OEChem-04052316423D

 91100  0     1  0  0  0  0  0999 V2000
  -17.4765  -26.6186   21.6283 C   0  0  0  0  0  0  0  0  0  0  0  0
  -18.7875  -26.1601   21.7095 C   0  0  0  0  0  0  0  0  0  0  0  0
  -24.3867  -11.3677   24.2267 C   0  0  0  0  0  0  0  0  0  0  0  0
  -24.9602  -13.2364   25.6467 C   0  0  0  0  0  0  0  0  0  0  0  0
  -17.2239  -27.9505   21.3026 C   0  0  0  0  0  0  0  0  0  0  0  0
  -19.8467  -27.0332   21.4641 C   0  0  0  0  0  0  0  0  0  0  0  0
  -25.3330  -27.0223   24.1855 C   0  0  0  0  0  0  0  0  0  0  0  0
  -23.9801  -10.6418   25.3462 C   0  0  0  0  0  0  0  0  0  0  0  0
  -24.5534  -12.5105   26.7662 C   0  0  0  0  0  0  0  0  0  0  0  0
  -26.5706  -26.5095   23.7993 C   0  0  0  0  0  0  0  0  0  0  0  0
  -23.3287  -11.2815   29.9612 C   0  0  0  0  0  0  0  0  0  0  0  0
  -22.5387  -11.9351   30.9068 C   0  0  0  0  0  0  0  0  0  0  0  0
  -27.1979  -28.6788   22.9509 C   0  0  0  0  0  0  0  0  0  0  0  0
  -20.8536  -12.3354   29.2224 C   0  0  0  0  0  0  0  0  0  0  0  0
  -24.8769  -12.6650   24.3769 C   0  0  0  0  0  0  0  0  0  0  0  0
  -24.5125  -13.7755   22.1094 C   0  0  0  0  0  0  0  0  0  0  0  0
  -18.2808  -28.8427   21.0625 C   0  0  0  0  0  0  0  0  0  0  0  0
  -25.0138  -28.3668   23.9471 C   0  0  0  0  0  0  0  0  0  0  0  0
  -19.6079  -28.3780   21.1336 C   0  0  0  0  0  0  0  0  0  0  0  0
  -25.9566  -29.2068   23.3374 C   0  0  0  0  0  0  0  0  0  0  0  0
  -24.0634  -11.2132   26.6159 C   0  0  0  0  0  0  0  0  0  0  0  0
  -27.5022  -27.3370   23.1793 C   0  0  0  0  0  0  0  0  0  0  0  0
  -22.8812  -11.1550   28.6460 C   0  0  0  0  0  0  0  0  0  0  0  0
  -21.3011  -12.4620   30.5375 C   0  0  0  0  0  0  0  0  0  0  0  0
  -21.6437  -11.6819   28.2767 C   0  0  0  0  0  0  0  0  0  0  0  0
  -25.2976  -13.4151   23.2209 C   0  0  0  0  0  0  0  0  0  0  0  0
  -25.3701  -14.4742   21.2953 C   0  0  0  0  0  0  0  0  0  0  0  0
  -23.1314  -13.5031   21.8372 C   0  0  0  0  0  0  0  0  0  0  0  0
  -22.7981  -29.8778   22.2409 C   0  0  0  0  0  0  0  0  0  0  0  0
  -24.0541  -32.5088   23.6632 C   0  0  0  0  0  0  0  0  0  0  0  0
  -27.3441  -33.7403   24.4855 C   0  0  0  0  0  0  0  0  0  0  0  0
  -29.3617  -18.3084   20.5803 C   0  0  0  0  0  0  0  0  0  0  0  0
  -17.9572  -30.2618   20.6674 C   0  0  0  0  0  0  0  0  0  0  0  0
  -23.6848  -28.9111   24.3939 C   0  0  0  0  0  0  0  0  0  0  0  0
  -25.6706  -30.6625   23.0772 C   0  0  0  0  0  0  0  0  0  0  0  0
  -19.1444  -31.2137   20.7894 C   0  0  0  0  0  0  0  0  0  0  0  0
  -20.3123  -21.8833   19.7047 C   0  0  0  0  0  0  0  0  0  0  0  0
  -20.6755  -20.5335   20.3156 C   0  0  0  0  0  0  0  0  0  0  0  0
  -21.4485  -22.4362   18.8500 C   0  0  0  0  0  0  0  0  0  0  0  0
  -30.3933  -15.0298   21.5093 C   0  0  0  0  0  0  0  0  0  0  0  0
  -20.3926  -30.5923   20.1709 C   0  0  0  0  0  0  0  0  0  0  0  0
  -21.9833  -20.6040   21.1007 C   0  0  0  0  0  0  0  0  0  0  0  0
  -22.7577  -22.5098   19.6324 C   0  0  0  0  0  0  0  0  0  0  0  0
  -29.6785  -22.7344   21.6553 C   0  0  0  0  0  0  0  0  0  0  0  0
  -29.0963  -14.3498   21.9514 C   0  0  0  0  0  0  0  0  0  0  0  0
  -29.4549  -21.3930   20.9605 C   0  0  0  0  0  0  0  0  0  0  0  0
  -28.1548  -22.5562   19.1379 C   0  0  0  0  0  0  0  0  0  0  0  0
  -30.4212  -16.5041   21.9063 C   0  0  0  0  0  0  0  0  0  0  0  0
  -27.9589  -16.6086   21.8991 C   0  0  0  0  0  0  0  0  0  0  0  0
  -20.7843  -29.3006   20.8985 C   0  0  1  0  0  0  0  0  0  0  0  0
  -23.2696  -30.1693   23.6375 C   0  0  1  0  0  0  0  0  0  0  0  0
  -23.1310  -21.1516   20.2414 C   0  0  0  0  0  0  0  0  0  0  0  0
  -29.6720  -23.9090   20.6641 C   0  0  1  0  0  0  0  0  0  0  0  0
  -28.3722  -23.9187   19.8250 C   0  0  1  0  0  0  0  0  0  0  0  0
  -27.8602  -15.1342   21.4718 C   0  0  2  0  0  0  0  0  0  0  0  0
  -28.1709  -21.3543   20.1078 C   0  0  2  0  0  0  0  0  0  0  0  0
  -28.3738  -25.0228   18.7617 C   0  0  0  0  0  0  0  0  0  0  0  0
  -28.0943  -35.3059   26.2976 C   0  0  0  0  0  0  0  0  0  0  0  0
  -31.2419  -25.2063   22.1308 C   0  0  0  0  0  0  0  0  0  0  0  0
  -23.7524  -34.6649   21.5255 C   0  0  0  0  0  0  0  0  0  0  0  0
  -25.8083  -35.7620   22.4409 C   0  0  0  0  0  0  0  0  0  0  0  0
  -23.7812  -35.5219   23.8747 C   0  0  0  0  0  0  0  0  0  0  0  0
  -29.3069  -31.7836   25.5237 C   0  0  0  0  0  0  0  0  0  0  0  0
  -24.4141  -21.2629   21.0627 C   0  0  0  0  0  0  0  0  0  0  0  0
  -26.9189  -21.3615   21.0059 C   0  0  0  0  0  0  0  0  0  0  0  0
  -28.1552  -20.0499   19.2877 C   0  0  0  0  0  0  0  0  0  0  0  0
  -25.6524  -21.2845   20.1670 C   0  0  0  0  0  0  0  0  0  0  0  0
  -28.7624  -25.4599   22.4418 C   0  0  0  0  0  0  0  0  0  1  0  0
  -25.1642  -33.4765   23.3312 C   0  0  1  0  0  0  0  0  0  0  0  0
  -27.9521  -33.8529   25.8720 C   0  0  2  0  0  0  0  0  0  0  0  0
  -29.8854  -25.2179   21.4304 C   0  0  2  0  0  0  0  0  0  0  0  0
  -24.6272  -34.8293   22.7843 C   0  0  0  0  0  0  0  0  0  0  0  0
  -26.5573  -13.8489   23.1249 N   0  0  0  0  0  0  0  0  0  0  0  0
  -26.5702  -14.4890   21.9433 N   0  0  0  0  0  0  0  0  0  0  0  0
  -24.3548  -31.1461   23.5267 N   0  0  0  0  0  0  0  0  0  0  0  0
  -29.2223  -17.1910   21.4199 N   0  0  0  0  0  0  0  0  0  0  0  0
  -25.2073  -15.0712   20.0955 N   0  0  0  0  0  0  0  0  0  0  0  0
  -22.3961  -12.7722   22.7803 N   0  0  0  0  0  0  0  0  0  0  0  0
  -21.4465  -29.6056   22.1487 N   0  0  0  0  0  0  0  0  0  0  0  0
  -25.9736  -33.5991   24.5388 N   0  0  0  0  0  0  0  0  0  0  0  0
  -28.1752  -18.8965   20.1595 N   0  0  0  0  0  0  0  0  0  0  0  0
  -29.3015  -33.2211   25.8987 N   0  3  0  0  0  0  0  0  0  0  0  0
  -22.5704  -13.8822   20.7812 O   0  0  0  0  0  0  0  0  0  0  0  0
  -23.6009  -29.8998   21.3153 O   0  0  0  0  0  0  0  0  0  0  0  0
  -22.9627  -32.9456   24.0370 O   0  0  0  0  0  0  0  0  0  0  0  0
  -28.0174  -33.7779   23.4580 O   0  0  0  0  0  0  0  0  0  0  0  0
  -30.4621  -18.7461   20.2271 O   0  0  0  0  0  0  0  0  0  0  0  0
  -23.6664  -10.5052   27.7085 O   0  0  0  0  0  0  0  0  0  0  0  0
  -28.7193  -26.8353   22.7980 O   0  0  0  0  0  0  0  0  0  1  0  0
  -20.5418  -13.0881   31.4461 F   0  0  0  0  0  0  0  0  0  0  0  0
  -21.2079  -11.5624   27.0151 F   0  0  0  0  0  0  0  0  0  0  0  0
  1  2  1  0  0  0  0
  1  5  2  0  0  0  0
  2  6  2  0  0  0  0
  3  8  2  0  0  0  0
  3 15  1  0  0  0  0
  4  9  1  0  0  0  0
  4 15  2  0  0  0  0
  5 17  1  0  0  0  0
  6 19  1  0  0  0  0
  7 10  2  0  0  0  0
  7 18  1  0  0  0  0
  8 21  1  0  0  0  0
  9 21  2  0  0  0  0
 10 22  1  0  0  0  0
 11 12  2  0  0  0  0
 11 23  1  0  0  0  0
 12 24  1  0  0  0  0
 13 20  1  0  0  0  0
 13 22  2  0  0  0  0
 14 24  2  0  0  0  0
 14 25  1  0  0  0  0
 15 26  1  0  0  0  0
 16 26  1  0  0  0  0
 16 27  2  0  0  0  0
 16 28  1  0  0  0  0
 17 19  2  0  0  0  0
 17 33  1  0  0  0  0
 18 20  2  0  0  0  0
 18 34  1  0  0  0  0
 19 50  1  0  0  0  0
 20 35  1  0  0  0  0
 21 88  1  0  0  0  0
 22 89  1  0  0  0  0
 23 25  2  0  0  0  0
 23 88  1  0  0  0  0
 24 90  1  0  0  0  0
 25 91  1  0  0  0  0
 26 73  2  0  0  0  0
 27 74  1  0  0  0  0
 27 77  1  0  0  0  0
 28 78  1  0  0  0  0
 28 83  2  0  0  0  0
 29 51  1  0  0  0  0
 29 79  1  0  0  0  0
 29 84  2  0  0  0  0
 30 69  1  0  0  0  0
 30 75  1  0  0  0  0
 30 85  2  0  0  0  0
 31 70  1  0  0  0  0
 31 80  1  0  0  0  0
 31 86  2  0  0  0  0
 32 76  1  0  0  0  0
 32 81  1  0  0  0  0
 32 87  2  0  0  0  0
 33 36  1  0  0  0  0
 34 51  1  0  0  0  0
 35 75  1  0  0  0  0
 36 41  1  0  0  0  0
 37 38  1  0  0  0  0
 37 39  1  0  0  0  0
 38 42  1  0  0  0  0
 39 43  1  0  0  0  0
 40 45  1  0  0  0  0
 40 48  1  0  0  0  0
 41 50  1  0  0  0  0
 42 52  1  0  0  0  0
 43 52  1  0  0  0  0
 44 46  1  0  0  0  0
 44 53  1  0  0  0  0
 45 55  1  0  0  0  0
 46 56  1  0  0  0  0
 47 54  1  0  0  0  0
 47 56  1  0  0  0  0
 48 76  1  0  0  0  0
 49 55  1  0  0  0  0
 49 76  1  0  0  0  0
 50 79  1  0  0  0  0
 51 75  1  0  0  0  0
 52 64  1  0  0  0  0
 53 54  1  0  0  0  0
 53 71  1  0  0  0  0
 54 57  1  0  0  0  0
 55 74  1  0  0  0  0
 56 65  1  0  0  0  0
 56 66  1  0  0  0  0
 58 70  1  0  0  0  0
 59 71  1  0  0  0  0
 60 72  1  0  0  0  0
 61 72  1  0  0  0  0
 62 72  1  0  0  0  0
 63 82  1  0  0  0  0
 64 67  1  0  0  0  0
 65 67  1  0  0  0  0
 66 81  1  0  0  0  0
 68 71  1  0  0  0  0
 68 89  1  0  0  0  0
 69 72  1  0  0  0  0
 69 80  1  0  0  0  0
 70 82  1  0  0  0  0
 73 74  1  0  0  0  0
M  CHG  1  82   1
M  ISO  4  32 100  68 101  81 100  89 101
M  END
> <Batch ID>
0031

> <Smiles>
CNC(C)C(=O)NC(C(=O)N1Cc2cc([101O:1][101CH2:1]C(C)C3CCC(CCCC4CCCCC4)(C[100NH:0][100C:0](=O)N4CCCC(n5nc(-c6ccc(Oc7ccc(F)cc7F)cc6)c(C(N)=O)c5N)C4)CC3C)ccc2CC1C(=O)NC1CCCc2ccccc21)C(C)(C)C

> <Shape>
0.234

> <Color>
0.103

> <Negative vol penalty>
0.000

$$$$

  -OEChem-04052316423D

 84 92  0     1  0  0  0  0  0999 V2000
  -28.1990  -16.5207   19.9504 C   0  0  0  0  0  0  0  0  0  0  0  0
  -29.2287  -17.3906   20.2909 C   0  0  0  0  0  0  0  0  0  0  0  0
  -22.2696  -15.9604   23.5353 C   0  0  0  0  0  0  0  0  0  0  0  0
  -23.0314  -17.8670   22.2618 C   0  0  0  0  0  0  0  0  0  0  0  0
  -27.0817  -17.0014   19.2709 C   0  0  0  0  0  0  0  0  0  0  0  0
  -29.1361  -18.7436   19.9626 C   0  0  0  0  0  0  0  0  0  0  0  0
  -29.5530  -27.0568   19.6173 C   0  0  0  0  0  0  0  0  0  0  0  0
  -22.6068  -15.1180   22.4759 C   0  0  0  0  0  0  0  0  0  0  0  0
  -23.3687  -17.0246   21.2024 C   0  0  0  0  0  0  0  0  0  0  0  0
  -28.6758  -28.0673   19.2258 C   0  0  0  0  0  0  0  0  0  0  0  0
  -23.6013  -12.4248   20.2459 C   0  0  0  0  0  0  0  0  0  0  0  0
  -24.2827  -11.2455   20.5467 C   0  0  0  0  0  0  0  0  0  0  0  0
  -26.8523  -26.8791   20.2662 C   0  0  0  0  0  0  0  0  0  0  0  0
  -23.7676  -30.3582   22.0286 C   0  0  0  0  0  0  0  0  0  0  0  0
  -26.0350  -29.9768   21.2867 C   0  0  0  0  0  0  0  0  0  0  0  0
  -26.0889  -12.5332   21.5041 C   0  0  0  0  0  0  0  0  0  0  0  0
  -22.4819  -17.3349   23.4282 C   0  0  0  0  0  0  0  0  0  0  0  0
  -22.6422  -18.1680   25.8340 C   0  0  0  0  0  0  0  0  0  0  0  0
  -26.9818  -18.3587   18.9235 C   0  0  0  0  0  0  0  0  0  0  0  0
  -29.0837  -25.9426   20.3278 C   0  0  0  0  0  0  0  0  0  0  0  0
  -28.0056  -19.2525   19.2981 C   0  0  0  0  0  0  0  0  0  0  0  0
  -27.7260  -25.8570   20.6677 C   0  0  0  0  0  0  0  0  0  0  0  0
  -23.2863  -29.8000   20.8443 C   0  0  0  0  0  0  0  0  0  0  0  0
  -23.1563  -15.6501   21.3095 C   0  0  0  0  0  0  0  0  0  0  0  0
  -27.3248  -27.9771   19.5478 C   0  0  0  0  0  0  0  0  0  0  0  0
  -24.1637  -13.6584   20.5742 C   0  0  0  0  0  0  0  0  0  0  0  0
  -25.5536  -29.4186   20.1025 C   0  0  0  0  0  0  0  0  0  1  0  0
  -25.5265  -11.2997   21.1758 C   0  0  0  0  0  0  0  0  0  0  0  0
  -25.4075  -13.7126   21.2033 C   0  0  0  0  0  0  0  0  0  0  0  0
  -25.1419  -30.4466   22.2498 C   0  0  0  0  0  0  0  0  0  0  0  0
  -24.1793  -29.3302   19.8813 C   0  0  0  0  0  0  0  0  0  0  0  0
  -22.1333  -18.2057   24.5220 C   0  0  0  0  0  0  0  0  0  0  0  0
  -21.9986  -19.1942   26.4815 C   0  0  0  0  0  0  0  0  0  0  0  0
  -23.6102  -17.2845   26.4154 C   0  0  0  0  0  0  0  0  0  0  0  0
  -28.9812  -22.8132   19.7802 C   0  0  0  0  0  0  0  0  0  0  0  0
  -27.8909  -22.7089   22.8335 C   0  0  0  0  0  0  0  0  0  0  0  0
  -25.6063  -24.6086   24.8801 C   0  0  0  0  0  0  0  0  0  0  0  0
  -19.4749  -24.2758   24.5687 C   0  0  0  0  0  0  0  0  0  0  0  0
  -25.7467  -18.8268   18.1951 C   0  0  0  0  0  0  0  0  0  0  0  0
  -30.0475  -24.8741   20.7660 C   0  0  0  0  0  0  0  0  0  0  0  0
  -27.1755  -24.6915   21.4468 C   0  0  0  0  0  0  0  0  0  0  0  0
  -25.9385  -20.1727   17.5037 C   0  0  0  0  0  0  0  0  0  0  0  0
  -17.9076  -21.6745   26.4270 C   0  0  0  0  0  0  0  0  0  0  0  0
  -26.5453  -21.1741   18.4750 C   0  0  0  0  0  0  0  0  0  0  0  0
  -18.8588  -20.4871   26.2679 C   0  0  0  0  0  0  0  0  0  0  0  0
  -17.8347  -22.5138   25.1533 C   0  0  0  0  0  0  0  0  0  0  0  0
  -20.0898  -21.7838   24.4785 C   0  0  0  0  0  0  0  0  0  0  0  0
  -27.9407  -20.7224   18.9244 C   0  0  1  0  0  0  0  0  0  0  0  0
  -29.3705  -23.5346   21.0394 C   0  0  1  0  0  0  0  0  0  0  0  0
  -20.2394  -20.9394   25.7555 C   0  0  2  0  0  0  0  0  0  0  0  0
  -25.5320  -24.9391   27.3666 C   0  0  0  0  0  0  0  0  0  0  0  0
  -25.9451  -20.3589   22.7963 C   0  0  0  0  0  0  0  0  0  0  0  0
  -24.6239  -21.5148   24.5814 C   0  0  0  0  0  0  0  0  0  0  0  0
  -26.9788  -20.8222   25.0259 C   0  0  0  0  0  0  0  0  0  0  0  0
  -25.6664  -27.5550   24.6071 C   0  0  0  0  0  0  0  0  0  0  0  0
  -21.8059  -29.7246   20.6490 C   0  0  0  0  0  0  0  0  0  0  0  0
  -21.2628  -28.3093   20.8887 C   0  0  0  0  0  0  0  0  0  0  0  0
  -21.5157  -27.8426   22.3238 C   0  0  0  0  0  0  0  0  0  0  0  0
  -21.0055  -26.4151   22.5415 C   0  0  0  0  0  0  0  0  0  0  0  0
  -21.2306  -25.9236   23.9676 C   0  0  0  0  0  0  0  0  0  0  0  0
  -26.5313  -22.7769   23.4861 C   0  0  1  0  0  0  0  0  0  0  0  0
  -25.9680  -25.5269   26.0335 C   0  0  2  0  0  0  0  0  0  0  0  0
  -26.0251  -21.3812   23.9477 C   0  0  0  0  0  0  0  0  0  0  0  0
  -21.2355  -19.1786   24.3449 N   0  0  0  0  0  0  0  0  0  0  0  0
  -21.1751  -19.7617   25.5542 N   0  0  0  0  0  0  0  0  0  0  0  0
  -28.1565  -23.6693   21.8470 N   0  0  0  0  0  0  0  0  0  0  0  0
  -19.1768  -22.9117   24.7215 N   0  0  0  0  0  0  0  0  0  0  0  0
  -22.0622  -19.6573   27.7479 N   0  0  0  0  0  0  0  0  0  0  0  0
  -23.1593  -16.1002   27.0141 N   0  0  0  0  0  0  0  0  0  0  0  0
  -28.3927  -21.5818   19.9962 N   0  0  0  0  0  0  0  0  0  0  0  0
  -26.6429  -23.7574   24.5606 N   0  0  0  0  0  0  0  0  0  0  0  0
  -20.7715  -24.5664   24.1624 N   0  0  0  0  0  0  0  0  0  0  0  0
  -25.3085  -26.8529   25.8664 N   0  3  0  0  0  0  0  0  0  0  0  0
  -24.8371  -17.5457   26.4190 O   0  0  0  0  0  0  0  0  0  0  0  0
  -29.1974  -23.3358   18.6930 O   0  0  0  0  0  0  0  0  0  0  0  0
  -28.6906  -21.8403   23.1909 O   0  0  0  0  0  0  0  0  0  0  0  0
  -24.5122  -24.6406   24.3212 O   0  0  0  0  0  0  0  0  0  0  0  0
  -18.6483  -25.1689   24.7838 O   0  0  0  0  0  0  0  0  0  0  0  0
  -23.4857  -14.8283   20.2756 O   0  0  0  0  0  0  0  0  0  0  0  0
  -26.4663  -28.9617   19.1664 O   0  0  0  0  0  0  0  0  0  1  0  0
  -26.1800  -10.1670   21.4660 F   0  0  0  0  0  0  0  0  0  0  0  0
  -25.9523  -14.8947   21.5221 F   0  0  0  0  0  0  0  0  0  0  0  0
  -25.7361  -31.1345   23.7111 Cl  0  0  0  0  0  0  0  0  0  0  0  0
  -23.5903  -28.6358   18.4093 Cl  0  0  0  0  0  0  0  0  0  0  0  0
  1  2  1  0  0  0  0
  1  5  2  0  0  0  0
  2  6  2  0  0  0  0
  3  8  2  0  0  0  0
  3 17  1  0  0  0  0
  4  9  1  0  0  0  0
  4 17  2  0  0  0  0
  5 19  1  0  0  0  0
  6 21  1  0  0  0  0
  7 10  2  0  0  0  0
  7 20  1  0  0  0  0
  8 24  1  0  0  0  0
  9 24  2  0  0  0  0
 10 25  1  0  0  0  0
 11 12  2  0  0  0  0
 11 26  1  0  0  0  0
 12 28  1  0  0  0  0
 13 22  1  0  0  0  0
 13 25  2  0  0  0  0
 14 23  2  0  0  0  0
 14 30  1  0  0  0  0
 15 27  1  0  0  0  0
 15 30  2  0  0  0  0
 16 28  2  0  0  0  0
 16 29  1  0  0  0  0
 17 32  1  0  0  0  0
 18 32  1  0  0  0  0
 18 33  2  0  0  0  0
 18 34  1  0  0  0  0
 19 21  2  0  0  0  0
 19 39  1  0  0  0  0
 20 22  2  0  0  0  0
 20 40  1  0  0  0  0
 21 48  1  0  0  0  0
 22 41  1  0  0  0  0
 23 31  1  0  0  0  0
 23 56  1  0  0  0  0
 24 79  1  0  0  0  0
 25 80  1  0  0  0  0
 26 29  2  0  0  0  0
 26 79  1  0  0  0  0
 27 31  2  0  0  0  0
 27 80  1  0  0  0  0
 28 81  1  0  0  0  0
 29 82  1  0  0  0  0
 30 83  1  0  0  0  0
 31 84  1  0  0  0  0
 32 64  2  0  0  0  0
 33 65  1  0  0  0  0
 33 68  1  0  0  0  0
 34 69  1  0  0  0  0
 34 74  2  0  0  0  0
 35 49  1  0  0  0  0
 35 70  1  0  0  0  0
 35 75  2  0  0  0  0
 36 61  1  0  0  0  0
 36 66  1  0  0  0  0
 36 76  2  0  0  0  0
 37 62  1  0  0  0  0
 37 71  1  0  0  0  0
 37 77  2  0  0  0  0
 38 67  1  0  0  0  0
 38 72  1  0  0  0  0
 38 78  2  0  0  0  0
 39 42  1  0  0  0  0
 40 49  1  0  0  0  0
 41 66  1  0  0  0  0
 42 44  1  0  0  0  0
 43 45  1  0  0  0  0
 43 46  1  0  0  0  0
 44 48  1  0  0  0  0
 45 50  1  0  0  0  0
 46 67  1  0  0  0  0
 47 50  1  0  0  0  0
 47 67  1  0  0  0  0
 48 70  1  0  0  0  0
 49 66  1  0  0  0  0
 50 65  1  0  0  0  0
 51 62  1  0  0  0  0
 52 63  1  0  0  0  0
 53 63  1  0  0  0  0
 54 63  1  0  0  0  0
 55 73  1  0  0  0  0
 56 57  1  0  0  0  0
 57 58  1  0  0  0  0
 58 59  1  0  0  0  0
 59 60  1  0  0  0  0
 60 72  1  0  0  0  0
 61 63  1  0  0  0  0
 61 71  1  0  0  0  0
 62 73  1  0  0  0  0
 64 65  1  0  0  0  0
M  CHG  1  73   1
M  ISO  4  27 101  38 100  72 100  80 101
M  END
> <Batch ID>
0031

> <Smiles>
CNC(C)C(=O)NC(C(=O)N1Cc2cc([101O:1][101c:1]3cc(Cl)cc(CCCCC[100NH:0][100C:0](=O)N4CCCC(n5nc(-c6ccc(Oc7ccc(F)cc7F)cc6)c(C(N)=O)c5N)C4)c3Cl)ccc2CC1C(=O)NC1CCCc2ccccc21)C(C)(C)C

> <Shape>
0.195

> <Color>
0.054

> <Negative vol penalty>
0.000

$$$$

  -OEChem-04052316423D

 82 90  0     1  0  0  0  0  0999 V2000
  -17.9128  -24.7619   23.3874 C   0  0  0  0  0  0  0  0  0  0  0  0
  -19.2833  -24.5804   23.2313 C   0  0  0  0  0  0  0  0  0  0  0  0
  -27.3593  -12.7209   21.8403 C   0  0  0  0  0  0  0  0  0  0  0  0
  -26.1551  -14.4951   22.9535 C   0  0  0  0  0  0  0  0  0  0  0  0
  -17.3366  -25.9972   23.0944 C   0  0  0  0  0  0  0  0  0  0  0  0
  -20.0781  -25.6339   22.7811 C   0  0  0  0  0  0  0  0  0  0  0  0
  -24.3543  -26.1195   25.4502 C   0  0  0  0  0  0  0  0  0  0  0  0
  -26.3676  -11.8137   22.2134 C   0  0  0  0  0  0  0  0  0  0  0  0
  -25.1634  -13.5879   23.3266 C   0  0  0  0  0  0  0  0  0  0  0  0
  -25.3874  -25.2278   25.1653 C   0  0  0  0  0  0  0  0  0  0  0  0
  -23.2610  -10.9583   21.1886 C   0  0  0  0  0  0  0  0  0  0  0  0
  -22.8006  -10.0665   20.2200 C   0  0  0  0  0  0  0  0  0  0  0  0
  -26.4683  -26.9176   23.8253 C   0  0  0  0  0  0  0  0  0  0  0  0
  -30.8261  -21.1888   23.5028 C   0  0  0  0  0  0  0  0  0  0  0  0
  -28.6822  -22.1557   22.9499 C   0  0  0  0  0  0  0  0  0  0  0  0
  -29.5952  -22.4311   25.1697 C   0  0  0  0  0  0  0  0  0  0  0  0
  -23.5098   -8.2093   21.5929 C   0  0  0  0  0  0  0  0  0  0  0  0
  -27.2531  -14.0616   22.2104 C   0  0  0  0  0  0  0  0  0  0  0  0
  -28.3256  -15.7703   20.6491 C   0  0  0  0  0  0  0  0  0  0  0  0
  -18.1262  -27.0693   22.6496 C   0  0  0  0  0  0  0  0  0  0  0  0
  -24.3649  -27.4156   24.9150 C   0  0  0  0  0  0  0  0  0  0  0  0
  -19.5117  -26.8844   22.4807 C   0  0  0  0  0  0  0  0  0  0  0  0
  -25.4354  -27.8247   24.1070 C   0  0  0  0  0  0  0  0  0  0  0  0
  -29.8072  -21.4193   22.5786 C   0  0  0  0  0  0  0  0  0  0  0  0
  -30.7201  -21.6947   24.7984 C   0  0  0  0  0  0  0  0  0  0  0  0
  -28.5762  -22.6616   24.2455 C   0  0  0  0  0  0  0  0  0  0  0  0
  -25.2696  -12.2472   22.9565 C   0  0  0  0  0  0  0  0  0  0  0  0
  -26.4432  -25.6258   24.3504 C   0  0  0  0  0  0  0  0  0  0  0  0
  -23.8458  -10.4757   22.3594 C   0  0  0  0  0  0  0  0  0  0  0  0
  -22.9250   -8.6920   20.4221 C   0  0  0  0  0  0  0  0  0  0  0  0
  -23.9702   -9.1011   22.5615 C   0  0  0  0  0  0  0  0  0  0  0  0
  -28.2774  -14.9991   21.8258 C   0  0  0  0  0  0  0  0  0  0  0  0
  -29.4889  -16.4921   20.7590 C   0  0  0  0  0  0  0  0  0  0  0  0
  -27.4012  -15.8291   19.5547 C   0  0  0  0  0  0  0  0  0  0  0  0
  -22.4682  -29.0491   22.9560 C   0  0  0  0  0  0  0  0  0  0  0  0
  -24.4570  -31.5001   23.7041 C   0  0  0  0  0  0  0  0  0  0  0  0
  -27.5314  -32.5085   24.7894 C   0  0  0  0  0  0  0  0  0  0  0  0
  -32.7500  -18.2805   25.4513 C   0  0  0  0  0  0  0  0  0  0  0  0
  -17.4513  -28.3720   22.3003 C   0  0  0  0  0  0  0  0  0  0  0  0
  -23.2564  -28.3743   25.2536 C   0  0  0  0  0  0  0  0  0  0  0  0
  -25.5042  -29.2118   23.5242 C   0  0  0  0  0  0  0  0  0  0  0  0
  -18.4184  -29.5476   22.1863 C   0  0  0  0  0  0  0  0  0  0  0  0
  -33.8513  -16.2887   22.7134 C   0  0  0  0  0  0  0  0  0  0  0  0
  -19.6376  -29.1574   21.3567 C   0  0  0  0  0  0  0  0  0  0  0  0
  -32.5520  -15.8019   22.0693 C   0  0  0  0  0  0  0  0  0  0  0  0
  -33.7347  -16.3607   24.2343 C   0  0  0  0  0  0  0  0  0  0  0  0
  -31.2934  -16.6639   24.0871 C   0  0  0  0  0  0  0  0  0  0  0  0
  -20.4109  -28.0103   22.0183 C   0  0  1  0  0  0  0  0  0  0  0  0
  -23.1103  -29.5020   24.2367 C   0  0  1  0  0  0  0  0  0  0  0  0
  -31.3439  -16.6281   22.5500 C   0  0  2  0  0  0  0  0  0  0  0  0
  -30.6078  -21.8560   20.2431 C   0  0  0  0  0  0  0  0  0  0  0  0
  -28.8728  -34.5758   25.2631 C   0  0  0  0  0  0  0  0  0  0  0  0
  -24.8627  -31.9202   20.7093 C   0  0  0  0  0  0  0  0  0  0  0  0
  -26.8763  -33.3073   21.2473 C   0  0  0  0  0  0  0  0  0  0  0  0
  -24.6214  -34.0270   22.0350 C   0  0  0  0  0  0  0  0  0  0  0  0
  -27.8492  -31.7890   27.6425 C   0  0  0  0  0  0  0  0  0  0  0  0
  -29.9212  -20.8784   21.1933 C   0  0  0  0  0  0  0  0  0  0  0  0
  -31.8095  -21.4489   25.7870 C   0  0  0  0  0  0  0  0  0  0  0  0
  -27.3660  -23.4537   24.6445 C   0  0  0  0  0  0  0  0  0  1  0  0
  -31.6193  -20.1653   26.6040 C   0  0  0  0  0  0  0  0  0  0  0  0
  -25.7437  -32.0453   23.1330 C   0  0  1  0  0  0  0  0  0  0  0  0
  -27.9459  -33.5191   25.8436 C   0  0  2  0  0  0  0  0  0  0  0  0
  -25.5240  -32.7981   21.7904 C   0  0  0  0  0  0  0  0  0  0  0  0
  -29.3269  -15.2109   22.6245 N   0  0  0  0  0  0  0  0  0  0  0  0
  -30.0454  -16.1234   21.9484 N   0  0  0  0  0  0  0  0  0  0  0  0
  -24.3934  -30.1105   23.8792 N   0  0  0  0  0  0  0  0  0  0  0  0
  -32.5703  -17.1596   24.6241 N   0  0  0  0  0  0  0  0  0  0  0  0
  -30.0800  -17.3998   19.9533 N   0  0  0  0  0  0  0  0  0  0  0  0
  -26.2568  -15.0214   19.6025 N   0  0  0  0  0  0  0  0  0  0  0  0
  -21.2077  -28.5071   23.1196 N   0  0  0  0  0  0  0  0  0  0  0  0
  -26.3437  -32.8603   24.1838 N   0  0  0  0  0  0  0  0  0  0  0  0
  -31.5954  -18.9858   25.7679 N   0  0  0  0  0  0  0  0  0  0  0  0
  -28.6535  -32.8378   26.9644 N   0  3  0  0  0  0  0  0  0  0  0  0
  -27.5930  -16.5636   18.5560 O   0  0  0  0  0  0  0  0  0  0  0  0
  -23.0711  -29.1830   21.8975 O   0  0  0  0  0  0  0  0  0  0  0  0
  -23.5448  -32.2792   23.9913 O   0  0  0  0  0  0  0  0  0  0  0  0
  -28.1968  -31.5091   24.5267 O   0  0  0  0  0  0  0  0  0  0  0  0
  -33.8580  -18.6302   25.8720 O   0  0  0  0  0  0  0  0  0  0  0  0
  -24.3016  -11.3623   23.3205 O   0  0  0  0  0  0  0  0  0  0  0  0
  -27.4525  -24.7572   24.0701 O   0  0  0  0  0  0  0  0  0  1  0  0
  -22.4814   -7.8357   19.4925 F   0  0  0  0  0  0  0  0  0  0  0  0
  -24.5300   -8.6314   23.6848 F   0  0  0  0  0  0  0  0  0  0  0  0
  1  2  1  0  0  0  0
  1  5  2  0  0  0  0
  2  6  2  0  0  0  0
  3  8  2  0  0  0  0
  3 18  1  0  0  0  0
  4  9  1  0  0  0  0
  4 18  2  0  0  0  0
  5 20  1  0  0  0  0
  6 22  1  0  0  0  0
  7 10  2  0  0  0  0
  7 21  1  0  0  0  0
  8 27  1  0  0  0  0
  9 27  2  0  0  0  0
 10 28  1  0  0  0  0
 11 12  2  0  0  0  0
 11 29  1  0  0  0  0
 12 30  1  0  0  0  0
 13 23  1  0  0  0  0
 13 28  2  0  0  0  0
 14 24  1  0  0  0  0
 14 25  2  0  0  0  0
 15 24  2  0  0  0  0
 15 26  1  0  0  0  0
 16 25  1  0  0  0  0
 16 26  2  0  0  0  0
 17 30  2  0  0  0  0
 17 31  1  0  0  0  0
 18 32  1  0  0  0  0
 19 32  1  0  0  0  0
 19 33  2  0  0  0  0
 19 34  1  0  0  0  0
 20 22  2  0  0  0  0
 20 39  1  0  0  0  0
 21 23  2  0  0  0  0
 21 40  1  0  0  0  0
 22 48  1  0  0  0  0
 23 41  1  0  0  0  0
 24 57  1  0  0  0  0
 25 58  1  0  0  0  0
 26 59  1  0  0  0  0
 27 79  1  0  0  0  0
 28 80  1  0  0  0  0
 29 31  2  0  0  0  0
 29 79  1  0  0  0  0
 30 81  1  0  0  0  0
 31 82  1  0  0  0  0
 32 64  2  0  0  0  0
 33 65  1  0  0  0  0
 33 68  1  0  0  0  0
 34 69  1  0  0  0  0
 34 74  2  0  0  0  0
 35 49  1  0  0  0  0
 35 70  1  0  0  0  0
 35 75  2  0  0  0  0
 36 61  1  0  0  0  0
 36 66  1  0  0  0  0
 36 76  2  0  0  0  0
 37 62  1  0  0  0  0
 37 71  1  0  0  0  0
 37 77  2  0  0  0  0
 38 67  1  0  0  0  0
 38 72  1  0  0  0  0
 38 78  2  0  0  0  0
 39 42  1  0  0  0  0
 40 49  1  0  0  0  0
 41 66  1  0  0  0  0
 42 44  1  0  0  0  0
 43 45  1  0  0  0  0
 43 46  1  0  0  0  0
 44 48  1  0  0  0  0
 45 50  1  0  0  0  0
 46 67  1  0  0  0  0
 47 50  1  0  0  0  0
 47 67  1  0  0  0  0
 48 70  1  0  0  0  0
 49 66  1  0  0  0  0
 50 65  1  0  0  0  0
 51 57  1  0  0  0  0
 52 62  1  0  0  0  0
 53 63  1  0  0  0  0
 54 63  1  0  0  0  0
 55 63  1  0  0  0  0
 56 73  1  0  0  0  0
 58 60  1  0  0  0  0
 59 80  1  0  0  0  0
 60 72  1  0  0  0  0
 61 63  1  0  0  0  0
 61 71  1  0  0  0  0
 62 73  1  0  0  0  0
 64 65  1  0  0  0  0
M  CHG  1  73   1
M  ISO  4  38 100  59 101  72 100  80 101
M  END
> <Batch ID>
0031

> <Smiles>
CCc1cc(CC[100NH:0][100C:0](=O)N2CCCC(n3nc(-c4ccc(Oc5ccc(F)cc5F)cc4)c(C(N)=O)c3N)C2)cc([101CH2:1][101O:1]c2ccc3c(c2)CN(C(=O)C(NC(=O)C(C)NC)C(C)(C)C)C(C(=O)NC2CCCc4ccccc42)C3)c1

> <Shape>
0.220

> <Color>
0.078

> <Negative vol penalty>
0.000

$$$$

  -OEChem-04052316423D

 94103  0     1  0  0  0  0  0999 V2000
  -14.2537  -20.4710   23.6538 C   0  0  0  0  0  0  0  0  0  0  0  0
  -15.1780  -21.3950   24.1308 C   0  0  0  0  0  0  0  0  0  0  0  0
  -23.1547  -10.1246   21.8697 C   0  0  0  0  0  0  0  0  0  0  0  0
  -24.7393  -10.5429   23.6448 C   0  0  0  0  0  0  0  0  0  0  0  0
  -14.2390  -20.1365   22.3004 C   0  0  0  0  0  0  0  0  0  0  0  0
  -16.0889  -21.9841   23.2547 C   0  0  0  0  0  0  0  0  0  0  0  0
  -18.2698  -27.7013   23.5074 C   0  0  0  0  0  0  0  0  0  0  0  0
  -22.5931   -9.0880   22.6151 C   0  0  0  0  0  0  0  0  0  0  0  0
  -24.1777   -9.5063   24.3903 C   0  0  0  0  0  0  0  0  0  0  0  0
  -19.4593  -28.2302   24.0064 C   0  0  0  0  0  0  0  0  0  0  0  0
  -23.3146   -5.8660   23.3381 C   0  0  0  0  0  0  0  0  0  0  0  0
  -23.0398   -4.6687   22.6775 C   0  0  0  0  0  0  0  0  0  0  0  0
  -20.4133  -28.1582   21.7919 C   0  0  0  0  0  0  0  0  0  0  0  0
  -28.8604  -21.5124   24.0802 C   0  0  0  0  0  0  0  0  0  0  0  0
  -28.2971  -22.4566   21.5163 C   0  0  0  0  0  0  0  0  0  0  0  0
  -20.7006   -4.8966   23.2374 C   0  0  0  0  0  0  0  0  0  0  0  0
  -24.2278  -10.8520   22.3845 C   0  0  0  0  0  0  0  0  0  0  0  0
  -24.1631  -13.0855   21.1536 C   0  0  0  0  0  0  0  0  0  0  0  0
  -15.1438  -20.7291   21.4055 C   0  0  0  0  0  0  0  0  0  0  0  0
  -18.1466  -27.3861   22.1465 C   0  0  0  0  0  0  0  0  0  0  0  0
  -16.0871  -21.6562   21.8882 C   0  0  0  0  0  0  0  0  0  0  0  0
  -19.2203  -27.6278   21.2777 C   0  0  0  0  0  0  0  0  0  0  0  0
  -28.6997  -20.6136   23.0258 C   0  0  0  0  0  0  0  0  0  0  0  0
  -28.4577  -23.3554   22.5708 C   0  0  0  0  0  0  0  0  0  0  0  0
  -23.1046   -8.7789   23.8755 C   0  0  0  0  0  0  0  0  0  0  0  0
  -20.5323  -28.4561   23.1492 C   0  0  0  0  0  0  0  0  0  0  0  0
  -22.2824   -6.5787   23.9485 C   0  0  0  0  0  0  0  0  0  0  0  0
  -21.7328   -4.1840   22.6271 C   0  0  0  0  0  0  0  0  0  0  0  0
  -20.9755   -6.0940   23.8981 C   0  0  0  0  0  0  0  0  0  0  0  0
  -28.4182  -21.0857   21.7438 C   0  0  0  0  0  0  0  0  0  0  0  0
  -28.7393  -22.8833   23.8528 C   0  0  0  0  0  0  0  0  0  0  0  0
  -24.8087  -11.9225   21.6146 C   0  0  0  0  0  0  0  0  0  0  0  0
  -25.1403  -13.7765   20.4798 C   0  0  0  0  0  0  0  0  0  0  0  0
  -22.8018  -13.5038   21.3196 C   0  0  0  0  0  0  0  0  0  0  0  0
  -17.6208  -24.7181   20.5006 C   0  0  0  0  0  0  0  0  0  0  0  0
  -17.4787  -26.7608   17.9847 C   0  0  0  0  0  0  0  0  0  0  0  0
  -18.3517  -29.7777   16.6494 C   0  0  0  0  0  0  0  0  0  0  0  0
  -31.1141  -13.8256   20.8826 C   0  0  0  0  0  0  0  0  0  0  0  0
  -15.1208  -20.3005   19.9597 C   0  0  0  0  0  0  0  0  0  0  0  0
  -16.8477  -26.8411   21.6191 C   0  0  0  0  0  0  0  0  0  0  0  0
  -19.1321  -27.3255   19.8048 C   0  0  0  0  0  0  0  0  0  0  0  0
  -15.8735  -21.2499   19.0309 C   0  0  0  0  0  0  0  0  0  0  0  0
  -29.1693  -13.0946   17.9912 C   0  0  0  0  0  0  0  0  0  0  0  0
  -17.2325  -21.6099   19.6229 C   0  0  0  0  0  0  0  0  0  0  0  0
  -24.3848  -26.6091   22.4683 C   0  0  0  0  0  0  0  0  0  0  0  0
  -27.7730  -12.8163   18.5503 C   0  0  0  0  0  0  0  0  0  0  0  0
  -23.0452  -27.0759   23.0273 C   0  0  0  0  0  0  0  0  0  0  0  0
  -25.4167  -28.8228   23.0971 C   0  0  0  0  0  0  0  0  0  0  0  0
  -30.2635  -12.5747   18.9209 C   0  0  0  0  0  0  0  0  0  0  0  0
  -28.7727  -12.7702   20.8735 C   0  0  0  0  0  0  0  0  0  0  0  0
  -17.0751  -22.3354   20.9647 C   0  0  1  0  0  0  0  0  0  0  0  0
  -17.0086  -26.0768   20.3086 C   0  0  1  0  0  0  0  0  0  0  0  0
  -25.5589  -27.2989   23.1748 C   0  0  2  0  0  0  0  0  0  0  0  0
  -27.6367  -13.3259   19.9977 C   0  0  2  0  0  0  0  0  0  0  0  0
  -22.8995  -28.5953   22.9682 C   0  0  2  0  0  0  0  0  0  1  0  0
  -24.0731  -29.3009   23.6483 C   0  0  2  0  0  0  0  0  0  0  0  0
  -18.1208  -31.1480   14.5598 C   0  0  0  0  0  0  0  0  0  0  0  0
  -19.5803  -25.0232   16.6159 C   0  0  0  0  0  0  0  0  0  0  0  0
  -19.9943  -26.9051   15.0173 C   0  0  0  0  0  0  0  0  0  0  0  0
  -17.7485  -25.8234   15.1130 C   0  0  0  0  0  0  0  0  0  0  0  0
  -16.9222  -31.9359   18.0838 C   0  0  0  0  0  0  0  0  0  0  0  0
  -28.8378  -19.1530   23.3114 C   0  0  0  0  0  0  0  0  0  0  0  0
  -28.3192  -24.8218   22.2855 C   0  0  0  0  0  0  0  0  0  0  0  0
  -26.8893  -26.8494   22.5740 C   0  0  0  0  0  0  0  0  0  0  0  0
  -30.1922  -18.5987   22.8482 C   0  0  0  0  0  0  0  0  0  0  0  0
  -30.3072  -17.0956   23.1102 C   0  0  0  0  0  0  0  0  0  0  0  0
  -31.6764  -16.5603   22.6809 C   0  0  0  0  0  0  0  0  0  0  0  0
  -31.8192  -15.0603   22.9167 C   0  0  0  0  0  0  0  0  0  0  0  0
  -18.4821  -27.3265   17.0089 C   0  0  1  0  0  0  0  0  0  0  0  0
  -17.5347  -30.8341   15.9275 C   0  0  2  0  0  0  0  0  0  0  0  0
  -18.9540  -26.2735   15.9668 C   0  0  0  0  0  0  0  0  0  0  0  0
  -26.0964  -11.8739   21.2632 N   0  0  0  0  0  0  0  0  0  0  0  0
  -26.2678  -13.0149   20.5742 N   0  0  0  0  0  0  0  0  0  0  0  0
  -17.8433  -26.7880   19.3383 N   0  0  0  0  0  0  0  0  0  0  0  0
  -30.0775  -13.0963   20.2771 N   0  0  0  0  0  0  0  0  0  0  0  0
  -25.1365  -14.9551   19.8216 N   0  0  0  0  0  0  0  0  0  0  0  0
  -21.9311  -12.6744   22.0396 N   0  0  0  0  0  0  0  0  0  0  0  0
  -16.7017  -23.7172   20.7514 N   0  0  0  0  0  0  0  0  0  0  0  0
  -17.8601  -28.5093   16.4236 N   0  0  0  0  0  0  0  0  0  0  0  0
  -30.8532  -14.2893   22.1662 N   0  0  0  0  0  0  0  0  0  0  0  0
  -17.4977  -32.0935   16.7233 N   0  3  0  0  0  0  0  0  0  0  0  0
  -27.0320  -25.3932   22.7754 N   0  3  0  0  0  0  0  0  0  0  0  0
  -22.3662  -14.5732   20.8296 O   0  0  0  0  0  0  0  0  0  0  0  0
  -18.8369  -24.5873   20.4252 O   0  0  0  0  0  0  0  0  0  0  0  0
  -16.4077  -26.3178   17.5622 O   0  0  0  0  0  0  0  0  0  0  0  0
  -19.3304  -30.0500   17.3410 O   0  0  0  0  0  0  0  0  0  0  0  0
  -32.1903  -14.0516   20.3188 O   0  0  0  0  0  0  0  0  0  0  0  0
  -23.9524  -30.7046   23.4214 O   0  0  0  0  0  0  0  0  0  0  0  0
  -22.5568   -7.7676   24.6033 O   0  0  0  0  0  0  0  0  0  0  0  0
  -21.6947  -28.9716   23.6338 O   0  0  0  0  0  0  0  0  0  1  0  0
  -21.4688   -3.0350   21.9913 F   0  0  0  0  0  0  0  0  0  0  0  0
  -19.9795   -6.7748   24.4816 F   0  0  0  0  0  0  0  0  0  0  0  0
  -28.2144  -20.0031   20.4150 Cl  0  0  0  0  0  0  0  0  0  0  0  0
  -28.9444  -23.9657   25.1816 Cl  0  0  0  0  0  0  0  0  0  0  0  0
  1  2  1  0  0  0  0
  1  5  2  0  0  0  0
  2  6  2  0  0  0  0
  3  8  2  0  0  0  0
  3 17  1  0  0  0  0
  4  9  1  0  0  0  0
  4 17  2  0  0  0  0
  5 19  1  0  0  0  0
  6 21  1  0  0  0  0
  7 10  2  0  0  0  0
  7 20  1  0  0  0  0
  8 25  1  0  0  0  0
  9 25  2  0  0  0  0
 10 26  1  0  0  0  0
 11 12  2  0  0  0  0
 11 27  1  0  0  0  0
 12 28  1  0  0  0  0
 13 22  1  0  0  0  0
 13 26  2  0  0  0  0
 14 23  2  0  0  0  0
 14 31  1  0  0  0  0
 15 24  1  0  0  0  0
 15 30  2  0  0  0  0
 16 28  2  0  0  0  0
 16 29  1  0  0  0  0
 17 32  1  0  0  0  0
 18 32  1  0  0  0  0
 18 33  2  0  0  0  0
 18 34  1  0  0  0  0
 19 21  2  0  0  0  0
 19 39  1  0  0  0  0
 20 22  2  0  0  0  0
 20 40  1  0  0  0  0
 21 51  1  0  0  0  0
 22 41  1  0  0  0  0
 23 30  1  0  0  0  0
 23 62  1  0  0  0  0
 24 31  2  0  0  0  0
 24 63  1  0  0  0  0
 25 89  1  0  0  0  0
 26 90  1  0  0  0  0
 27 29  2  0  0  0  0
 27 89  1  0  0  0  0
 28 91  1  0  0  0  0
 29 92  1  0  0  0  0
 30 93  1  0  0  0  0
 31 94  1  0  0  0  0
 32 72  2  0  0  0  0
 33 73  1  0  0  0  0
 33 76  1  0  0  0  0
 34 77  1  0  0  0  0
 34 83  2  0  0  0  0
 35 52  1  0  0  0  0
 35 78  1  0  0  0  0
 35 84  2  0  0  0  0
 36 69  1  0  0  0  0
 36 74  1  0  0  0  0
 36 85  2  0  0  0  0
 37 70  1  0  0  0  0
 37 79  1  0  0  0  0
 37 86  2  0  0  0  0
 38 75  1  0  0  0  0
 38 80  1  0  0  0  0
 38 87  2  0  0  0  0
 39 42  1  0  0  0  0
 40 52  1  0  0  0  0
 41 74  1  0  0  0  0
 42 44  1  0  0  0  0
 43 46  1  0  0  0  0
 43 49  1  0  0  0  0
 44 51  1  0  0  0  0
 45 47  1  0  0  0  0
 45 53  1  0  0  0  0
 46 54  1  0  0  0  0
 47 55  1  0  0  0  0
 48 53  1  0  0  0  0
 48 56  1  0  0  0  0
 49 75  1  0  0  0  0
 50 54  1  0  0  0  0
 50 75  1  0  0  0  0
 51 78  1  0  0  0  0
 52 74  1  0  0  0  0
 53 64  1  0  0  0  0
 54 73  1  0  0  0  0
 55 56  1  0  0  0  0
 55 90  1  0  0  0  0
 56 88  1  0  0  0  0
 57 70  1  0  0  0  0
 58 71  1  0  0  0  0
 59 71  1  0  0  0  0
 60 71  1  0  0  0  0
 61 81  1  0  0  0  0
 62 65  1  0  0  0  0
 63 82  1  0  0  0  0
 64 82  1  0  0  0  0
 65 66  1  0  0  0  0
 66 67  1  0  0  0  0
 67 68  1  0  0  0  0
 68 80  1  0  0  0  0
 69 71  1  0  0  0  0
 69 79  1  0  0  0  0
 70 81  1  0  0  0  0
 72 73  1  0  0  0  0
M  CHG  2  81   1  82   1
M  ISO  4  38 100  55 101  80 100  90 101
M  END
> <Batch ID>
0031

> <Smiles>
CNC(C)C(=O)NC(C(=O)N1Cc2cc([101O:1][101CH:1]3CCC(CNCc4cc(Cl)c(CCCCC[100NH:0][100C:0](=O)N5CCCC(n6nc(-c7ccc(Oc8ccc(F)cc8F)cc7)c(C(N)=O)c6N)C5)cc4Cl)CC3O)ccc2CC1C(=O)NC1CCCc2ccccc21)C(C)(C)C

> <Shape>
0.234

> <Color>
0.153

> <Negative vol penalty>
0.000

$$$$

  -OEChem-04052316423D

 86 94  0     1  0  0  0  0  0999 V2000
  -29.2830  -33.7838   26.5456 C   0  0  0  0  0  0  0  0  0  0  0  0
  -29.9960  -32.9602   25.6803 C   0  0  0  0  0  0  0  0  0  0  0  0
  -23.1889   -9.6497   20.0983 C   0  0  0  0  0  0  0  0  0  0  0  0
  -23.8159   -9.9496   22.4122 C   0  0  0  0  0  0  0  0  0  0  0  0
  -27.9899  -33.4339   26.9322 C   0  0  0  0  0  0  0  0  0  0  0  0
  -29.4167  -31.7854   25.2020 C   0  0  0  0  0  0  0  0  0  0  0  0
  -29.3211  -27.5611   19.4173 C   0  0  0  0  0  0  0  0  0  0  0  0
  -22.4783   -8.4991   20.4399 C   0  0  0  0  0  0  0  0  0  0  0  0
  -23.1053   -8.7990   22.7538 C   0  0  0  0  0  0  0  0  0  0  0  0
  -29.4903  -26.2251   19.0564 C   0  0  0  0  0  0  0  0  0  0  0  0
  -19.8822   -7.9268   23.2749 C   0  0  0  0  0  0  0  0  0  0  0  0
  -19.0618   -7.9842   24.4015 C   0  0  0  0  0  0  0  0  0  0  0  0
  -27.2206  -25.7621   19.7295 C   0  0  0  0  0  0  0  0  0  0  0  0
  -28.1215  -20.8013   19.6118 C   0  0  0  0  0  0  0  0  0  0  0  0
  -20.3351   -6.2009   25.4194 C   0  0  0  0  0  0  0  0  0  0  0  0
  -23.8578  -10.3749   21.0844 C   0  0  0  0  0  0  0  0  0  0  0  0
  -24.1056  -12.8835   20.6931 C   0  0  0  0  0  0  0  0  0  0  0  0
  -27.3909  -32.2592   26.4507 C   0  0  0  0  0  0  0  0  0  0  0  0
  -28.1018  -28.0061   19.9482 C   0  0  0  0  0  0  0  0  0  0  0  0
  -28.1149  -31.4188   25.5836 C   0  0  0  0  0  0  0  0  0  0  0  0
  -27.0376  -27.1047   20.0941 C   0  0  0  0  0  0  0  0  0  0  0  0
  -28.4779  -19.5122   19.2319 C   0  0  0  0  0  0  0  0  0  0  0  0
  -27.8706  -21.7625   18.6389 C   0  0  0  0  0  0  0  0  0  0  0  0
  -22.4364   -8.0737   21.7677 C   0  0  0  0  0  0  0  0  0  0  0  0
  -28.4409  -25.3248   19.2151 C   0  0  0  0  0  0  0  0  0  0  0  0
  -20.9289   -7.0064   23.2204 C   0  0  0  0  0  0  0  0  0  0  0  0
  -19.2883   -7.1213   25.4738 C   0  0  0  0  0  0  0  0  0  0  0  0
  -21.1554   -6.1435   24.2927 C   0  0  0  0  0  0  0  0  0  0  0  0
  -24.5925  -11.5632   20.7320 C   0  0  0  0  0  0  0  0  0  0  0  0
  -28.5690  -19.2371   17.8770 C   0  0  0  0  0  0  0  0  0  0  0  0
  -27.9891  -21.3868   17.3105 C   0  0  0  0  0  0  0  0  0  0  0  0
  -25.1861  -13.6367   20.3036 C   0  0  0  0  0  0  0  0  0  0  0  0
  -22.7938  -13.3844   20.9832 C   0  0  0  0  0  0  0  0  0  0  0  0
  -27.1918  -29.2830   22.7132 C   0  0  0  0  0  0  0  0  0  0  0  0
  -24.3461  -29.5924   21.1873 C   0  0  0  0  0  0  0  0  0  0  0  0
  -22.2554  -28.5240   18.7105 C   0  0  0  0  0  0  0  0  0  0  0  0
  -30.6054  -14.9209   20.6593 C   0  0  0  0  0  0  0  0  0  0  0  0
  -26.0085  -31.8986   26.9341 C   0  0  0  0  0  0  0  0  0  0  0  0
  -27.9267  -29.4560   20.3078 C   0  0  0  0  0  0  0  0  0  0  0  0
  -25.7021  -27.5364   20.6404 C   0  0  0  0  0  0  0  0  0  0  0  0
  -25.3270  -30.8274   26.0865 C   0  0  0  0  0  0  0  0  0  0  0  0
  -29.7012  -12.2333   18.5062 C   0  0  0  0  0  0  0  0  0  0  0  0
  -26.2858  -29.6730   25.8130 C   0  0  0  0  0  0  0  0  0  0  0  0
  -28.2542  -11.9245   18.8945 C   0  0  0  0  0  0  0  0  0  0  0  0
  -30.5389  -12.6297   19.7200 C   0  0  0  0  0  0  0  0  0  0  0  0
  -28.5337  -13.4242   20.9123 C   0  0  0  0  0  0  0  0  0  0  0  0
  -27.5114  -30.1489   25.0238 C   0  0  1  0  0  0  0  0  0  0  0  0
  -26.8083  -29.6901   21.3186 C   0  0  1  0  0  0  0  0  0  0  0  0
  -27.6360  -13.0737   19.7134 C   0  0  2  0  0  0  0  0  0  0  0  0
  -26.9104  -14.8676   16.0116 C   0  0  0  0  0  0  0  0  0  0  0  0
  -19.9821  -28.9435   17.7342 C   0  0  0  0  0  0  0  0  0  0  0  0
  -23.0686  -28.1238   23.5370 C   0  0  0  0  0  0  0  0  0  0  0  0
  -21.0495  -27.7377   22.1078 C   0  0  0  0  0  0  0  0  0  0  0  0
  -21.7465  -30.0644   22.6765 C   0  0  0  0  0  0  0  0  0  0  0  0
  -23.3936  -29.2614   16.0800 C   0  0  0  0  0  0  0  0  0  0  0  0
  -28.7485  -18.4783   20.2696 C   0  0  0  0  0  0  0  0  0  0  0  0
  -27.4866  -23.1524   19.0536 C   0  0  0  0  0  0  0  0  0  1  0  0
  -28.9488  -17.8696   17.4109 C   0  0  0  0  0  0  0  0  0  0  0  0
  -28.1227  -15.6626   16.4697 C   0  0  0  0  0  0  0  0  0  0  0  0
  -30.2445  -18.2224   20.5432 C   0  0  0  0  0  0  0  0  0  0  0  0
  -27.7339  -17.0744   16.9085 C   0  0  0  0  0  0  0  0  0  0  0  0
  -30.5154  -17.1978   21.6427 C   0  0  0  0  0  0  0  0  0  0  0  0
  -23.1192  -28.7275   21.0272 C   0  0  1  0  0  0  0  0  0  0  0  0
  -21.4623  -29.2852   17.6637 C   0  0  2  0  0  0  0  0  0  0  0  0
  -22.2716  -28.6545   22.3286 C   0  0  0  0  0  0  0  0  0  0  0  0
  -25.8820  -11.4791   20.3941 N   0  0  0  0  0  0  0  0  0  0  0  0
  -28.3329  -20.1444   16.9030 N   0  0  0  0  0  0  0  0  0  0  0  0
  -26.2144  -12.7560   20.1390 N   0  0  0  0  0  0  0  0  0  0  0  0
  -25.5822  -28.9631   20.9834 N   0  0  0  0  0  0  0  0  0  0  0  0
  -29.8984  -13.7250   20.4520 N   0  0  0  0  0  0  0  0  0  0  0  0
  -25.3474  -14.9597   20.0892 N   0  0  0  0  0  0  0  0  0  0  0  0
  -21.8011  -12.4735   21.3694 N   0  0  0  0  0  0  0  0  0  0  0  0
  -27.1772  -30.3202   23.6261 N   0  0  0  0  0  0  0  0  0  0  0  0
  -22.3977  -29.2521   19.8728 N   0  0  0  0  0  0  0  0  0  0  0  0
  -29.9229  -15.9101   21.3567 N   0  0  0  0  0  0  0  0  0  0  0  0
  -21.9565  -28.9540   16.2973 N   0  3  0  0  0  0  0  0  0  0  0  0
  -22.5061  -14.6015   20.8864 O   0  0  0  0  0  0  0  0  0  0  0  0
  -27.4782  -28.1141   22.9441 O   0  0  0  0  0  0  0  0  0  0  0  0
  -24.2122  -30.7844   21.4754 O   0  0  0  0  0  0  0  0  0  0  0  0
  -22.7008  -27.3948   18.5179 O   0  0  0  0  0  0  0  0  0  0  0  0
  -31.7576  -15.0961   20.2484 O   0  0  0  0  0  0  0  0  0  0  0  0
  -21.7429   -6.9512   22.1015 O   0  0  0  0  0  0  0  0  0  0  0  0
  -28.6036  -24.0201   18.8642 O   0  0  0  0  0  0  0  0  0  1  0  0
  -18.5014   -7.1776   26.5563 F   0  0  0  0  0  0  0  0  0  0  0  0
  -22.1601   -5.2580   24.2466 F   0  0  0  0  0  0  0  0  0  0  0  0
  -27.7056  -22.4843   16.0168 Cl  0  0  0  0  0  0  0  0  0  0  0  0
  1  2  1  0  0  0  0
  1  5  2  0  0  0  0
  2  6  2  0  0  0  0
  3  8  2  0  0  0  0
  3 16  1  0  0  0  0
  4  9  1  0  0  0  0
  4 16  2  0  0  0  0
  5 18  1  0  0  0  0
  6 20  1  0  0  0  0
  7 10  2  0  0  0  0
  7 19  1  0  0  0  0
  8 24  1  0  0  0  0
  9 24  2  0  0  0  0
 10 25  1  0  0  0  0
 11 12  2  0  0  0  0
 11 26  1  0  0  0  0
 12 27  1  0  0  0  0
 13 21  1  0  0  0  0
 13 25  2  0  0  0  0
 14 22  1  0  0  0  0
 14 23  2  0  0  0  0
 15 27  2  0  0  0  0
 15 28  1  0  0  0  0
 16 29  1  0  0  0  0
 17 29  1  0  0  0  0
 17 32  2  0  0  0  0
 17 33  1  0  0  0  0
 18 20  2  0  0  0  0
 18 38  1  0  0  0  0
 19 21  2  0  0  0  0
 19 39  1  0  0  0  0
 20 47  1  0  0  0  0
 21 40  1  0  0  0  0
 22 30  2  0  0  0  0
 22 56  1  0  0  0  0
 23 31  1  0  0  0  0
 23 57  1  0  0  0  0
 24 82  1  0  0  0  0
 25 83  1  0  0  0  0
 26 28  2  0  0  0  0
 26 82  1  0  0  0  0
 27 84  1  0  0  0  0
 28 85  1  0  0  0  0
 29 66  2  0  0  0  0
 30 58  1  0  0  0  0
 30 67  1  0  0  0  0
 31 67  2  0  0  0  0
 31 86  1  0  0  0  0
 32 68  1  0  0  0  0
 32 71  1  0  0  0  0
 33 72  1  0  0  0  0
 33 77  2  0  0  0  0
 34 48  1  0  0  0  0
 34 73  1  0  0  0  0
 34 78  2  0  0  0  0
 35 63  1  0  0  0  0
 35 69  1  0  0  0  0
 35 79  2  0  0  0  0
 36 64  1  0  0  0  0
 36 74  1  0  0  0  0
 36 80  2  0  0  0  0
 37 70  1  0  0  0  0
 37 75  1  0  0  0  0
 37 81  2  0  0  0  0
 38 41  1  0  0  0  0
 39 48  1  0  0  0  0
 40 69  1  0  0  0  0
 41 43  1  0  0  0  0
 42 44  1  0  0  0  0
 42 45  1  0  0  0  0
 43 47  1  0  0  0  0
 44 49  1  0  0  0  0
 45 70  1  0  0  0  0
 46 49  1  0  0  0  0
 46 70  1  0  0  0  0
 47 73  1  0  0  0  0
 48 69  1  0  0  0  0
 49 68  1  0  0  0  0
 50 59  1  0  0  0  0
 51 64  1  0  0  0  0
 52 65  1  0  0  0  0
 53 65  1  0  0  0  0
 54 65  1  0  0  0  0
 55 76  1  0  0  0  0
 56 60  1  0  0  0  0
 57 83  1  0  0  0  0
 58 61  1  0  0  0  0
 59 61  1  0  0  0  0
 60 62  1  0  0  0  0
 62 75  1  0  0  0  0
 63 65  1  0  0  0  0
 63 74  1  0  0  0  0
 64 76  1  0  0  0  0
 66 68  1  0  0  0  0
M  CHG  1  76   1
M  ISO  4  37 100  57 101  75 100  83 101
M  END
> <Batch ID>
0031

> <Smiles>
CCCCc1nc(Cl)c([101CH2:1][101O:1]c2ccc3c(c2)CN(C(=O)C(NC(=O)C(C)NC)C(C)(C)C)C(C(=O)NC2CCCc4ccccc42)C3)cc1CCC[100NH:0][100C:0](=O)N1CCCC(n2nc(-c3ccc(Oc4ccc(F)cc4F)cc3)c(C(N)=O)c2N)C1

> <Shape>
0.386

> <Color>
0.195

> <Negative vol penalty>
0.000

$$$$

  -OEChem-04052316423D

 83 91  0     1  0  0  0  0  0999 V2000
  -28.7022  -12.5556   26.4894 C   0  0  0  0  0  0  0  0  0  0  0  0
  -29.6626  -13.4880   26.1104 C   0  0  0  0  0  0  0  0  0  0  0  0
  -23.1630   -9.8510   19.9147 C   0  0  0  0  0  0  0  0  0  0  0  0
  -23.8349   -9.9007   22.2348 C   0  0  0  0  0  0  0  0  0  0  0  0
  -27.3488  -12.8383   26.3097 C   0  0  0  0  0  0  0  0  0  0  0  0
  -29.2702  -14.7032   25.5504 C   0  0  0  0  0  0  0  0  0  0  0  0
  -31.7899  -18.6422   27.4948 C   0  0  0  0  0  0  0  0  0  0  0  0
  -22.4359   -8.6843   20.1502 C   0  0  0  0  0  0  0  0  0  0  0  0
  -23.1077   -8.7340   22.4704 C   0  0  0  0  0  0  0  0  0  0  0  0
  -33.0881  -18.8576   27.0344 C   0  0  0  0  0  0  0  0  0  0  0  0
  -19.8774   -7.8704   22.9603 C   0  0  0  0  0  0  0  0  0  0  0  0
  -19.0776   -7.8265   24.1022 C   0  0  0  0  0  0  0  0  0  0  0  0
  -32.2721  -20.5820   25.5580 C   0  0  0  0  0  0  0  0  0  0  0  0
  -34.4223  -19.1097   20.6570 C   0  0  0  0  0  0  0  0  0  0  0  0
  -35.2407  -17.8889   22.5745 C   0  0  0  0  0  0  0  0  0  0  0  0
  -20.3327   -5.9258   24.9082 C   0  0  0  0  0  0  0  0  0  0  0  0
  -23.8626  -10.4592   20.9570 C   0  0  0  0  0  0  0  0  0  0  0  0
  -24.1529  -12.9900   20.8196 C   0  0  0  0  0  0  0  0  0  0  0  0
  -26.9392  -14.0616   25.7561 C   0  0  0  0  0  0  0  0  0  0  0  0
  -30.7196  -19.3889   26.9814 C   0  0  0  0  0  0  0  0  0  0  0  0
  -27.9101  -15.0020   25.3618 C   0  0  0  0  0  0  0  0  0  0  0  0
  -30.9616  -20.3760   26.0154 C   0  0  0  0  0  0  0  0  0  0  0  0
  -34.5808  -17.9072   21.3458 C   0  0  0  0  0  0  0  0  0  0  0  0
  -34.9239  -20.2940   21.1970 C   0  0  0  0  0  0  0  0  0  0  0  0
  -35.7423  -19.0732   23.1145 C   0  0  0  0  0  0  0  0  0  0  0  0
  -35.5838  -20.2758   22.4257 C   0  0  0  0  0  0  0  0  0  0  0  0
  -22.4082   -8.1257   21.4281 C   0  0  0  0  0  0  0  0  0  0  0  0
  -33.3290  -19.8256   26.0638 C   0  0  0  0  0  0  0  0  0  0  0  0
  -20.9048   -6.9420   22.7923 C   0  0  0  0  0  0  0  0  0  0  0  0
  -19.3053   -6.8542   25.0762 C   0  0  0  0  0  0  0  0  0  0  0  0
  -21.1325   -5.9697   23.7662 C   0  0  0  0  0  0  0  0  0  0  0  0
  -24.6144  -11.6642   20.7142 C   0  0  0  0  0  0  0  0  0  0  0  0
  -25.2412  -13.7598   20.4888 C   0  0  0  0  0  0  0  0  0  0  0  0
  -22.8563  -13.4817   21.1841 C   0  0  0  0  0  0  0  0  0  0  0  0
  -28.0648  -18.6937   25.3776 C   0  0  0  0  0  0  0  0  0  0  0  0
  -30.5996  -14.8719   21.0621 C   0  0  0  0  0  0  0  0  0  0  0  0
  -27.4352  -21.8444   25.8235 C   0  0  0  0  0  0  0  0  0  0  0  0
  -28.6371  -24.9847   26.4072 C   0  0  0  0  0  0  0  0  0  0  0  0
  -25.4665  -14.3027   25.5376 C   0  0  0  0  0  0  0  0  0  0  0  0
  -29.3289  -19.1629   27.5078 C   0  0  0  0  0  0  0  0  0  0  0  0
  -29.8501  -21.2184   25.4468 C   0  0  0  0  0  0  0  0  0  0  0  0
  -25.1204  -15.7674   25.2828 C   0  0  0  0  0  0  0  0  0  0  0  0
  -29.6919  -12.4910   18.4670 C   0  0  0  0  0  0  0  0  0  0  0  0
  -26.0781  -16.3724   24.2612 C   0  0  0  0  0  0  0  0  0  0  0  0
  -28.2530  -12.1515   18.8535 C   0  0  0  0  0  0  0  0  0  0  0  0
  -30.5629  -12.7271   19.6981 C   0  0  0  0  0  0  0  0  0  0  0  0
  -28.5880  -13.4324   21.0122 C   0  0  0  0  0  0  0  0  0  0  0  0
  -27.5230  -16.3415   24.7737 C   0  0  1  0  0  0  0  0  0  0  0  0
  -28.2421  -19.6260   26.5425 C   0  0  1  0  0  0  0  0  0  0  0  0
  -27.6692  -13.2168   19.7980 C   0  0  2  0  0  0  0  0  0  0  0  0
  -34.7399  -21.5686   20.4399 C   0  0  0  0  0  0  0  0  0  0  0  0
  -36.1210  -21.5458   23.0046 C   0  0  0  0  0  0  0  0  0  0  0  0
  -27.8838  -27.3626   26.6827 C   0  0  0  0  0  0  0  0  0  0  0  0
  -27.0218  -22.0602   22.8081 C   0  0  0  0  0  0  0  0  0  0  0  0
  -27.2194  -24.5462   23.0291 C   0  0  0  0  0  0  0  0  0  0  0  0
  -25.3672  -23.3366   24.1819 C   0  0  0  0  0  0  0  0  0  0  0  0
  -29.7108  -25.1278   29.1614 C   0  0  0  0  0  0  0  0  0  0  0  0
  -34.0452  -16.6409   20.7682 C   0  0  0  0  0  0  0  0  0  0  0  0
  -36.4523  -19.0264   24.4456 C   0  0  0  0  0  0  0  0  0  0  0  0
  -32.0250  -15.0831   20.6176 C   0  0  0  0  0  0  0  0  0  0  0  0
  -32.5977  -16.3662   21.2116 C   0  0  0  0  0  0  0  0  0  0  0  0
  -35.4819  -18.9193   25.6169 C   0  0  0  0  0  0  0  0  0  1  0  0
  -27.7282  -23.1120   25.0577 C   0  0  1  0  0  0  0  0  0  0  0  0
  -28.2127  -26.0586   27.3927 C   0  0  2  0  0  0  0  0  0  0  0  0
  -26.8550  -23.2467   23.7783 C   0  0  0  0  0  0  0  0  0  0  0  0
  -25.8961  -11.5922   20.3451 N   0  0  0  0  0  0  0  0  0  0  0  0
  -26.2491  -12.8825   20.2156 N   0  0  0  0  0  0  0  0  0  0  0  0
  -28.5068  -20.9555   25.9889 N   0  0  0  0  0  0  0  0  0  0  0  0
  -29.9587  -13.7280   20.5856 N   0  0  0  0  0  0  0  0  0  0  0  0
  -25.4248  -15.0947   20.4078 N   0  0  0  0  0  0  0  0  0  0  0  0
  -21.8527  -12.5537   21.4939 N   0  0  0  0  0  0  0  0  0  0  0  0
  -27.7402  -17.3995   25.7370 N   0  0  0  0  0  0  0  0  0  0  0  0
  -27.5701  -24.2083   26.0072 N   0  0  0  0  0  0  0  0  0  0  0  0
  -29.3027  -26.3202   28.3748 N   0  3  0  0  0  0  0  0  0  0  0  0
  -22.5909  -14.7072   21.2177 O   0  0  0  0  0  0  0  0  0  0  0  0
  -28.2102  -19.1175   24.2370 O   0  0  0  0  0  0  0  0  0  0  0  0
  -30.0725  -15.7012   21.8081 O   0  0  0  0  0  0  0  0  0  0  0  0
  -26.2993  -21.6534   26.2649 O   0  0  0  0  0  0  0  0  0  0  0  0
  -29.7982  -24.8507   26.0272 O   0  0  0  0  0  0  0  0  0  0  0  0
  -21.6985   -6.9874   21.6584 O   0  0  0  0  0  0  0  0  0  0  0  0
  -34.5952  -20.0374   25.6123 O   0  0  0  0  0  0  0  0  0  1  0  0
  -18.5381   -6.8132   26.1734 F   0  0  0  0  0  0  0  0  0  0  0  0
  -22.1188   -5.0759   23.6109 F   0  0  0  0  0  0  0  0  0  0  0  0
  1  2  1  0  0  0  0
  1  5  2  0  0  0  0
  2  6  2  0  0  0  0
  3  8  2  0  0  0  0
  3 17  1  0  0  0  0
  4  9  1  0  0  0  0
  4 17  2  0  0  0  0
  5 19  1  0  0  0  0
  6 21  1  0  0  0  0
  7 10  2  0  0  0  0
  7 20  1  0  0  0  0
  8 27  1  0  0  0  0
  9 27  2  0  0  0  0
 10 28  1  0  0  0  0
 11 12  2  0  0  0  0
 11 29  1  0  0  0  0
 12 30  1  0  0  0  0
 13 22  1  0  0  0  0
 13 28  2  0  0  0  0
 14 23  1  0  0  0  0
 14 24  2  0  0  0  0
 15 23  2  0  0  0  0
 15 25  1  0  0  0  0
 16 30  2  0  0  0  0
 16 31  1  0  0  0  0
 17 32  1  0  0  0  0
 18 32  1  0  0  0  0
 18 33  2  0  0  0  0
 18 34  1  0  0  0  0
 19 21  2  0  0  0  0
 19 39  1  0  0  0  0
 20 22  2  0  0  0  0
 20 40  1  0  0  0  0
 21 48  1  0  0  0  0
 22 41  1  0  0  0  0
 23 58  1  0  0  0  0
 24 26  1  0  0  0  0
 24 51  1  0  0  0  0
 25 26  2  0  0  0  0
 25 59  1  0  0  0  0
 26 52  1  0  0  0  0
 27 80  1  0  0  0  0
 28 81  1  0  0  0  0
 29 31  2  0  0  0  0
 29 80  1  0  0  0  0
 30 82  1  0  0  0  0
 31 83  1  0  0  0  0
 32 66  2  0  0  0  0
 33 67  1  0  0  0  0
 33 70  1  0  0  0  0
 34 71  1  0  0  0  0
 34 75  2  0  0  0  0
 35 49  1  0  0  0  0
 35 72  1  0  0  0  0
 35 76  2  0  0  0  0
 36 60  1  0  0  0  0
 36 69  1  0  0  0  0
 36 77  2  0  0  0  0
 37 63  1  0  0  0  0
 37 68  1  0  0  0  0
 37 78  2  0  0  0  0
 38 64  1  0  0  0  0
 38 73  1  0  0  0  0
 38 79  2  0  0  0  0
 39 42  1  0  0  0  0
 40 49  1  0  0  0  0
 41 68  1  0  0  0  0
 42 44  1  0  0  0  0
 43 45  1  0  0  0  0
 43 46  1  0  0  0  0
 44 48  1  0  0  0  0
 45 50  1  0  0  0  0
 46 69  1  0  0  0  0
 47 50  1  0  0  0  0
 47 69  1  0  0  0  0
 48 72  1  0  0  0  0
 49 68  1  0  0  0  0
 50 67  1  0  0  0  0
 53 64  1  0  0  0  0
 54 65  1  0  0  0  0
 55 65  1  0  0  0  0
 56 65  1  0  0  0  0
 57 74  1  0  0  0  0
 58 61  1  0  0  0  0
 59 62  1  0  0  0  0
 60 61  1  0  0  0  0
 62 81  1  0  0  0  0
 63 65  1  0  0  0  0
 63 73  1  0  0  0  0
 64 74  1  0  0  0  0
 66 67  1  0  0  0  0
M  CHG  1  74   1
M  ISO  4  36 100  60 100  62 101  81 101
M  END
> <Batch ID>
0031

> <Smiles>
CNC(C)C(=O)NC(C(=O)N1Cc2cc([101O:1][101CH2:1]Cc3cc(CC[100CH2:0][100C:0](=O)N4CCCC(n5nc(-c6ccc(Oc7ccc(F)cc7F)cc6)c(C(N)=O)c5N)C4)cc(C)c3C)ccc2CC1C(=O)NC1CCCc2ccccc21)C(C)(C)C

> <Shape>
0.154

> <Color>
0.182

> <Negative vol penalty>
0.000

$$$$

  -OEChem-04052316423D

 83 91  0     1  0  0  0  0  0999 V2000
  -22.1077  -12.3188   18.5279 C   0  0  0  0  0  0  0  0  0  0  0  0
  -21.8574  -13.6171   18.9606 C   0  0  0  0  0  0  0  0  0  0  0  0
  -30.3803  -27.7205   19.7140 C   0  0  0  0  0  0  0  0  0  0  0  0
  -30.0694  -27.4953   22.0993 C   0  0  0  0  0  0  0  0  0  0  0  0
  -23.2647  -11.6589   18.9398 C   0  0  0  0  0  0  0  0  0  0  0  0
  -22.7635  -14.2558   19.8064 C   0  0  0  0  0  0  0  0  0  0  0  0
  -24.1637  -20.2174   19.8740 C   0  0  0  0  0  0  0  0  0  0  0  0
  -31.7616  -27.7768   19.8993 C   0  0  0  0  0  0  0  0  0  0  0  0
  -31.4508  -27.5515   22.2846 C   0  0  0  0  0  0  0  0  0  0  0  0
  -23.7297  -21.2738   20.6737 C   0  0  0  0  0  0  0  0  0  0  0  0
  -35.3886  -27.6171   19.7126 C   0  0  0  0  0  0  0  0  0  0  0  0
  -36.1888  -26.8572   18.8596 C   0  0  0  0  0  0  0  0  0  0  0  0
  -25.6634  -20.9897   22.0878 C   0  0  0  0  0  0  0  0  0  0  0  0
  -20.5082  -26.1359   23.4854 C   0  0  0  0  0  0  0  0  0  0  0  0
  -19.1935  -26.6893   21.5355 C   0  0  0  0  0  0  0  0  0  0  0  0
  -35.0899  -24.8449   19.6213 C   0  0  0  0  0  0  0  0  0  0  0  0
  -29.5342  -27.5798   20.8140 C   0  0  0  0  0  0  0  0  0  0  0  0
  -27.3234  -26.3719   20.4126 C   0  0  0  0  0  0  0  0  0  0  0  0
  -24.1902  -12.2933   19.7834 C   0  0  0  0  0  0  0  0  0  0  0  0
  -25.3470  -19.5310   20.1821 C   0  0  0  0  0  0  0  0  0  0  0  0
  -23.9333  -13.6032   20.2311 C   0  0  0  0  0  0  0  0  0  0  0  0
  -26.1115  -19.9266   21.2890 C   0  0  0  0  0  0  0  0  0  0  0  0
  -19.9790  -27.0899   22.6163 C   0  0  0  0  0  0  0  0  0  0  0  0
  -20.2519  -24.7812   23.2737 C   0  0  0  0  0  0  0  0  0  0  0  0
  -19.4663  -24.3806   22.1929 C   0  0  0  0  0  0  0  0  0  0  0  0
  -32.2969  -27.6923   21.1846 C   0  0  0  0  0  0  0  0  0  0  0  0
  -24.4781  -21.6583   21.7824 C   0  0  0  0  0  0  0  0  0  0  0  0
  -34.4390  -26.9910   20.5201 C   0  0  0  0  0  0  0  0  0  0  0  0
  -36.0395  -25.4711   18.8139 C   0  0  0  0  0  0  0  0  0  0  0  0
  -34.2897  -25.6049   20.4744 C   0  0  0  0  0  0  0  0  0  0  0  0
  -18.9371  -25.3346   21.3238 C   0  0  0  0  0  0  0  0  0  0  0  0
  -28.1072  -27.5222   20.6232 C   0  0  0  0  0  0  0  0  0  0  0  0
  -26.0407  -26.8478   20.2912 C   0  0  0  0  0  0  0  0  0  0  0  0
  -27.7194  -24.9961   20.3339 C   0  0  0  0  0  0  0  0  0  0  0  0
  -26.0643  -16.5330   20.9577 C   0  0  0  0  0  0  0  0  0  0  0  0
  -29.1134  -17.6196   20.7466 C   0  0  0  0  0  0  0  0  0  0  0  0
  -31.2598  -20.2700   20.8707 C   0  0  0  0  0  0  0  0  0  0  0  0
  -21.9060  -30.1847   21.9984 C   0  0  0  0  0  0  0  0  0  0  0  0
  -25.4034  -11.5225   20.2401 C   0  0  0  0  0  0  0  0  0  0  0  0
  -25.8154  -18.4109   19.2941 C   0  0  0  0  0  0  0  0  0  0  0  0
  -27.3997  -19.2353   21.6509 C   0  0  0  0  0  0  0  0  0  0  0  0
  -26.4973  -12.4052   20.8355 C   0  0  0  0  0  0  0  0  0  0  0  0
  -24.3183  -31.5763   19.7800 C   0  0  0  0  0  0  0  0  0  0  0  0
  -25.9001  -13.4018   21.8239 C   0  0  0  0  0  0  0  0  0  0  0  0
  -25.4563  -30.5542   19.7893 C   0  0  0  0  0  0  0  0  0  0  0  0
  -23.6674  -31.7088   21.1551 C   0  0  0  0  0  0  0  0  0  0  0  0
  -24.3449  -29.4168   21.7565 C   0  0  0  0  0  0  0  0  0  0  0  0
  -24.9044  -14.3385   21.1292 C   0  0  1  0  0  0  0  0  0  0  0  0
  -26.7684  -17.4494   19.9974 C   0  0  1  0  0  0  0  0  0  0  0  0
  -24.9956  -29.2073   20.3784 C   0  0  2  0  0  0  0  0  0  0  0  0
  -19.2014  -22.9227   21.9796 C   0  0  0  0  0  0  0  0  0  0  0  0
  -33.6975  -20.8405   20.6988 C   0  0  0  0  0  0  0  0  0  0  0  0
  -29.5652  -16.5261   23.5591 C   0  0  0  0  0  0  0  0  0  0  0  0
  -31.6360  -17.9265   23.6956 C   0  0  0  0  0  0  0  0  0  0  0  0
  -31.4567  -16.1334   21.9708 C   0  0  0  0  0  0  0  0  0  0  0  0
  -30.8056  -22.0109   18.5208 C   0  0  0  0  0  0  0  0  0  0  0  0
  -20.8381  -23.7721   24.2284 C   0  0  0  0  0  0  0  0  0  0  0  0
  -20.2527  -28.5383   22.8439 C   0  0  0  0  0  0  0  0  0  0  0  0
  -22.3312  -23.5152   24.0129 C   0  0  0  0  0  0  0  0  0  0  0  0
  -22.6485  -22.9031   22.6535 C   0  0  0  0  0  0  0  0  0  1  0  0
  -30.0939  -18.2466   21.7081 C   0  0  1  0  0  0  0  0  0  0  0  0
  -32.3838  -20.7001   19.9455 C   0  0  2  0  0  0  0  0  0  0  0  0
  -30.6627  -17.2201   22.7280 C   0  0  0  0  0  0  0  0  0  0  0  0
  -27.3830  -28.6444   20.6353 N   0  0  0  0  0  0  0  0  0  0  0  0
  -26.1307  -28.2016   20.4307 N   0  0  0  0  0  0  0  0  0  0  0  0
  -27.8123  -18.1419   20.7555 N   0  0  0  0  0  0  0  0  0  0  0  0
  -23.2518  -30.3966   21.6565 N   0  0  0  0  0  0  0  0  0  0  0  0
  -24.8560  -26.2362   20.0798 N   0  0  0  0  0  0  0  0  0  0  0  0
  -29.0775  -24.6823   20.4806 N   0  0  0  0  0  0  0  0  0  0  0  0
  -25.6075  -15.3614   20.3850 N   0  0  0  0  0  0  0  0  0  0  0  0
  -31.1088  -18.8995   20.8883 N   0  0  0  0  0  0  0  0  0  0  0  0
  -21.5957  -28.9111   22.4591 N   0  0  0  0  0  0  0  0  0  0  0  0
  -32.0619  -22.0109   19.3138 N   0  3  0  0  0  0  0  0  0  0  0  0
  -26.8955  -24.0740   20.1230 O   0  0  0  0  0  0  0  0  0  0  0  0
  -25.9456  -16.8638   22.1316 O   0  0  0  0  0  0  0  0  0  0  0  0
  -29.4900  -16.7050   20.0095 O   0  0  0  0  0  0  0  0  0  0  0  0
  -30.5857  -21.0696   21.5163 O   0  0  0  0  0  0  0  0  0  0  0  0
  -21.0437  -31.0638   21.8952 O   0  0  0  0  0  0  0  0  0  0  0  0
  -33.6447  -27.7469   21.3658 O   0  0  0  0  0  0  0  0  0  0  0  0
  -24.0565  -22.6886   22.5650 O   0  0  0  0  0  0  0  0  0  1  0  0
  -36.8070  -24.7416   17.9936 F   0  0  0  0  0  0  0  0  0  0  0  0
  -33.3783  -24.9978   21.2469 F   0  0  0  0  0  0  0  0  0  0  0  0
  -17.9588  -24.8793   19.9759 Cl  0  0  0  0  0  0  0  0  0  0  0  0
  1  2  1  0  0  0  0
  1  5  2  0  0  0  0
  2  6  2  0  0  0  0
  3  8  2  0  0  0  0
  3 17  1  0  0  0  0
  4  9  1  0  0  0  0
  4 17  2  0  0  0  0
  5 19  1  0  0  0  0
  6 21  1  0  0  0  0
  7 10  2  0  0  0  0
  7 20  1  0  0  0  0
  8 26  1  0  0  0  0
  9 26  2  0  0  0  0
 10 27  1  0  0  0  0
 11 12  2  0  0  0  0
 11 28  1  0  0  0  0
 12 29  1  0  0  0  0
 13 22  1  0  0  0  0
 13 27  2  0  0  0  0
 14 23  2  0  0  0  0
 14 24  1  0  0  0  0
 15 23  1  0  0  0  0
 15 31  2  0  0  0  0
 16 29  2  0  0  0  0
 16 30  1  0  0  0  0
 17 32  1  0  0  0  0
 18 32  1  0  0  0  0
 18 33  2  0  0  0  0
 18 34  1  0  0  0  0
 19 21  2  0  0  0  0
 19 39  1  0  0  0  0
 20 22  2  0  0  0  0
 20 40  1  0  0  0  0
 21 48  1  0  0  0  0
 22 41  1  0  0  0  0
 23 58  1  0  0  0  0
 24 25  2  0  0  0  0
 24 57  1  0  0  0  0
 25 31  1  0  0  0  0
 25 51  1  0  0  0  0
 26 79  1  0  0  0  0
 27 80  1  0  0  0  0
 28 30  2  0  0  0  0
 28 79  1  0  0  0  0
 29 81  1  0  0  0  0
 30 82  1  0  0  0  0
 31 83  1  0  0  0  0
 32 64  2  0  0  0  0
 33 65  1  0  0  0  0
 33 68  1  0  0  0  0
 34 69  1  0  0  0  0
 34 74  2  0  0  0  0
 35 49  1  0  0  0  0
 35 70  1  0  0  0  0
 35 75  2  0  0  0  0
 36 61  1  0  0  0  0
 36 66  1  0  0  0  0
 36 76  2  0  0  0  0
 37 62  1  0  0  0  0
 37 71  1  0  0  0  0
 37 77  2  0  0  0  0
 38 67  1  0  0  0  0
 38 72  1  0  0  0  0
 38 78  2  0  0  0  0
 39 42  1  0  0  0  0
 40 49  1  0  0  0  0
 41 66  1  0  0  0  0
 42 44  1  0  0  0  0
 43 45  1  0  0  0  0
 43 46  1  0  0  0  0
 44 48  1  0  0  0  0
 45 50  1  0  0  0  0
 46 67  1  0  0  0  0
 47 50  1  0  0  0  0
 47 67  1  0  0  0  0
 48 70  1  0  0  0  0
 49 66  1  0  0  0  0
 50 65  1  0  0  0  0
 52 62  1  0  0  0  0
 53 63  1  0  0  0  0
 54 63  1  0  0  0  0
 55 63  1  0  0  0  0
 56 73  1  0  0  0  0
 57 59  1  0  0  0  0
 58 72  1  0  0  0  0
 59 60  1  0  0  0  0
 60 80  1  0  0  0  0
 61 63  1  0  0  0  0
 61 71  1  0  0  0  0
 62 73  1  0  0  0  0
 64 65  1  0  0  0  0
M  CHG  1  73   1
M  ISO  4  38 100  60 101  72 100  80 101
M  END
> <Batch ID>
0031

> <Smiles>
CNC(C)C(=O)NC(C(=O)N1Cc2cc([101O:1][101CH2:1]CCc3cc(C[100NH:0][100C:0](=O)N4CCCC(n5nc(-c6ccc(Oc7ccc(F)cc7F)cc6)c(C(N)=O)c5N)C4)cc(Cl)c3C)ccc2CC1C(=O)NC1CCCc2ccccc21)C(C)(C)C

> <Shape>
0.221

> <Color>
0.075

> <Negative vol penalty>
0.000

$$$$

  -OEChem-04052316423D

 85 93  0     1  0  0  0  0  0999 V2000
  -31.9611  -25.1972   19.8222 C   0  0  0  0  0  0  0  0  0  0  0  0
  -31.1063  -24.7849   20.8394 C   0  0  0  0  0  0  0  0  0  0  0  0
  -27.8682  -16.6668   18.8566 C   0  0  0  0  0  0  0  0  0  0  0  0
  -28.4866  -16.5570   21.1896 C   0  0  0  0  0  0  0  0  0  0  0  0
  -31.9034  -26.5091   19.3537 C   0  0  0  0  0  0  0  0  0  0  0  0
  -30.1940  -25.6846   21.3895 C   0  0  0  0  0  0  0  0  0  0  0  0
  -25.5836  -23.6697   21.9634 C   0  0  0  0  0  0  0  0  0  0  0  0
  -28.7201  -17.7573   18.6821 C   0  0  0  0  0  0  0  0  0  0  0  0
  -29.3386  -17.6476   21.0150 C   0  0  0  0  0  0  0  0  0  0  0  0
  -25.3910  -22.8201   23.0519 C   0  0  0  0  0  0  0  0  0  0  0  0
  -30.4611  -20.7970   17.7058 C   0  0  0  0  0  0  0  0  0  0  0  0
  -29.9813  -21.8870   16.9797 C   0  0  0  0  0  0  0  0  0  0  0  0
  -24.3492  -24.6242   24.2680 C   0  0  0  0  0  0  0  0  0  0  0  0
  -23.6617  -19.4656   26.3828 C   0  0  0  0  0  0  0  0  0  0  0  0
  -28.1973  -22.1704   18.5841 C   0  0  0  0  0  0  0  0  0  0  0  0
  -27.7514  -16.0666   20.1104 C   0  0  0  0  0  0  0  0  0  0  0  0
  -27.1922  -13.5779   20.1425 C   0  0  0  0  0  0  0  0  0  0  0  0
  -30.9833  -27.4227   19.8917 C   0  0  0  0  0  0  0  0  0  0  0  0
  -25.1695  -25.0081   22.0232 C   0  0  0  0  0  0  0  0  0  0  0  0
  -30.1248  -27.0104   20.9287 C   0  0  0  0  0  0  0  0  0  0  0  0
  -24.5354  -25.4881   23.1780 C   0  0  0  0  0  0  0  0  0  0  0  0
  -24.7219  -20.3720   26.3924 C   0  0  0  0  0  0  0  0  0  0  0  0
  -23.3422  -18.7539   27.5391 C   0  0  0  0  0  0  0  0  0  0  0  0
  -25.4626  -20.5666   27.5582 C   0  0  0  0  0  0  0  0  0  0  0  0
  -25.1431  -19.8549   28.7145 C   0  0  0  0  0  0  0  0  0  0  0  0
  -29.4554  -18.2477   19.7612 C   0  0  0  0  0  0  0  0  0  0  0  0
  -24.7764  -23.2981   24.2055 C   0  0  0  0  0  0  0  0  0  0  0  0
  -29.8089  -20.3936   18.8710 C   0  0  0  0  0  0  0  0  0  0  0  0
  -28.8494  -22.5738   17.4189 C   0  0  0  0  0  0  0  0  0  0  0  0
  -28.6771  -21.0803   19.3102 C   0  0  0  0  0  0  0  0  0  0  0  0
  -24.0829  -18.9485   28.7049 C   0  0  0  0  0  0  0  0  0  0  0  0
  -26.8711  -14.9404   20.2915 C   0  0  0  0  0  0  0  0  0  0  0  0
  -26.0214  -12.9166   20.4227 C   0  0  0  0  0  0  0  0  0  0  0  0
  -28.4374  -12.9648   19.7831 C   0  0  0  0  0  0  0  0  0  0  0  0
  -26.6404  -27.8209   21.8531 C   0  0  0  0  0  0  0  0  0  0  0  0
  -23.6075  -28.9707   21.8979 C   0  0  0  0  0  0  0  0  0  0  0  0
  -20.3385  -28.4884   22.7509 C   0  0  0  0  0  0  0  0  0  0  0  0
  -21.2079  -14.3508   23.6821 C   0  0  0  0  0  0  0  0  0  0  0  0
  -30.9904  -28.8434   19.3854 C   0  0  0  0  0  0  0  0  0  0  0  0
  -25.3604  -25.9046   20.8305 C   0  0  0  0  0  0  0  0  0  0  0  0
  -24.0542  -26.9113   23.2852 C   0  0  0  0  0  0  0  0  0  0  0  0
  -29.7384  -29.6309   19.7633 C   0  0  0  0  0  0  0  0  0  0  0  0
  -21.2725  -13.4672   20.2337 C   0  0  0  0  0  0  0  0  0  0  0  0
  -29.4026  -29.4247   21.2369 C   0  0  0  0  0  0  0  0  0  0  0  0
  -22.7436  -13.6216   19.8440 C   0  0  0  0  0  0  0  0  0  0  0  0
  -20.8402  -14.5322   21.2391 C   0  0  0  0  0  0  0  0  0  0  0  0
  -23.1519  -14.7748   22.0581 C   0  0  0  0  0  0  0  0  0  0  0  0
  -29.1045  -27.9501   21.5337 C   0  0  1  0  0  0  0  0  0  0  0  0
  -25.3630  -27.3868   21.1915 C   0  0  1  0  0  0  0  0  0  0  0  0
  -23.6492  -13.6891   21.0885 C   0  0  2  0  0  0  0  0  0  0  0  0
  -26.5998  -21.5382   27.5668 C   0  0  0  0  0  0  0  0  0  0  0  0
  -25.9218  -20.0483   29.9746 C   0  0  0  0  0  0  0  0  0  0  0  0
  -18.1002  -29.6216   22.6950 C   0  0  0  0  0  0  0  0  0  0  0  0
  -24.4433  -30.7319   24.2452 C   0  0  0  0  0  0  0  0  0  0  0  0
  -22.0173  -31.1035   24.7400 C   0  0  0  0  0  0  0  0  0  0  0  0
  -22.9750  -31.8610   22.5648 C   0  0  0  0  0  0  0  0  0  0  0  0
  -19.1798  -26.3713   21.0378 C   0  0  0  0  0  0  0  0  0  0  0  0
  -22.2076  -17.7859   27.5259 C   0  0  0  0  0  0  0  0  0  0  0  0
  -25.0441  -21.1257   25.1356 C   0  0  0  0  0  0  0  0  0  1  0  0
  -22.5786  -16.4645   26.8348 C   0  0  0  0  0  0  0  0  0  0  0  0
  -21.3944  -15.4939   26.7947 C   0  0  0  0  0  0  0  0  0  0  0  0
  -21.7368  -14.1795   26.1008 C   0  0  0  0  0  0  0  0  0  0  0  0
  -22.6388  -29.3894   22.9774 C   0  0  1  0  0  0  0  0  0  0  0  0
  -19.0533  -28.6862   21.9675 C   0  0  2  0  0  0  0  0  0  0  0  0
  -23.0293  -30.7451   23.6309 C   0  0  0  0  0  0  0  0  0  0  0  0
  -25.5962  -15.1348   20.6391 N   0  0  0  0  0  0  0  0  0  0  0  0
  -25.1058  -13.8856   20.7108 N   0  0  0  0  0  0  0  0  0  0  0  0
  -24.2694  -27.7505   22.0948 N   0  0  0  0  0  0  0  0  0  0  0  0
  -21.7388  -14.5430   22.3960 N   0  0  0  0  0  0  0  0  0  0  0  0
  -25.6960  -11.6067   20.4480 N   0  0  0  0  0  0  0  0  0  0  0  0
  -29.5403  -13.7914   19.5289 N   0  0  0  0  0  0  0  0  0  0  0  0
  -27.7713  -27.6046   21.0891 N   0  0  0  0  0  0  0  0  0  0  0  0
  -21.3153  -29.3812   22.3636 N   0  0  0  0  0  0  0  0  0  0  0  0
  -22.1292  -14.3691   24.7221 N   0  0  0  0  0  0  0  0  0  0  0  0
  -18.3652  -27.3802   21.7629 N   0  3  0  0  0  0  0  0  0  0  0  0
  -28.5639  -11.7215   19.6742 O   0  0  0  0  0  0  0  0  0  0  0  0
  -26.6025  -28.3167   22.9731 O   0  0  0  0  0  0  0  0  0  0  0  0
  -23.7657  -29.6961   20.9128 O   0  0  0  0  0  0  0  0  0  0  0  0
  -20.4622  -27.6303   23.6221 O   0  0  0  0  0  0  0  0  0  0  0  0
  -20.0028  -14.1706   23.8878 O   0  0  0  0  0  0  0  0  0  0  0  0
  -30.2870  -19.3117   19.5912 O   0  0  0  0  0  0  0  0  0  0  0  0
  -24.5878  -22.4711   25.2697 O   0  0  0  0  0  0  0  0  0  1  0  0
  -28.3896  -23.6215   16.7224 F   0  0  0  0  0  0  0  0  0  0  0  0
  -28.0470  -20.6982   20.4295 F   0  0  0  0  0  0  0  0  0  0  0  0
  -23.7748  -18.2635   29.8164 F   0  0  0  0  0  0  0  0  0  0  0  0
  1  2  1  0  0  0  0
  1  5  2  0  0  0  0
  2  6  2  0  0  0  0
  3  8  2  0  0  0  0
  3 16  1  0  0  0  0
  4  9  1  0  0  0  0
  4 16  2  0  0  0  0
  5 18  1  0  0  0  0
  6 20  1  0  0  0  0
  7 10  2  0  0  0  0
  7 19  1  0  0  0  0
  8 26  1  0  0  0  0
  9 26  2  0  0  0  0
 10 27  1  0  0  0  0
 11 12  2  0  0  0  0
 11 28  1  0  0  0  0
 12 29  1  0  0  0  0
 13 21  1  0  0  0  0
 13 27  2  0  0  0  0
 14 22  1  0  0  0  0
 14 23  2  0  0  0  0
 15 29  2  0  0  0  0
 15 30  1  0  0  0  0
 16 32  1  0  0  0  0
 17 32  1  0  0  0  0
 17 33  2  0  0  0  0
 17 34  1  0  0  0  0
 18 20  2  0  0  0  0
 18 39  1  0  0  0  0
 19 21  2  0  0  0  0
 19 40  1  0  0  0  0
 20 48  1  0  0  0  0
 21 41  1  0  0  0  0
 22 24  2  0  0  0  0
 22 59  1  0  0  0  0
 23 31  1  0  0  0  0
 23 58  1  0  0  0  0
 24 25  1  0  0  0  0
 24 51  1  0  0  0  0
 25 31  2  0  0  0  0
 25 52  1  0  0  0  0
 26 81  1  0  0  0  0
 27 82  1  0  0  0  0
 28 30  2  0  0  0  0
 28 81  1  0  0  0  0
 29 83  1  0  0  0  0
 30 84  1  0  0  0  0
 31 85  1  0  0  0  0
 32 66  2  0  0  0  0
 33 67  1  0  0  0  0
 33 70  1  0  0  0  0
 34 71  1  0  0  0  0
 34 76  2  0  0  0  0
 35 49  1  0  0  0  0
 35 72  1  0  0  0  0
 35 77  2  0  0  0  0
 36 63  1  0  0  0  0
 36 68  1  0  0  0  0
 36 78  2  0  0  0  0
 37 64  1  0  0  0  0
 37 73  1  0  0  0  0
 37 79  2  0  0  0  0
 38 69  1  0  0  0  0
 38 74  1  0  0  0  0
 38 80  2  0  0  0  0
 39 42  1  0  0  0  0
 40 49  1  0  0  0  0
 41 68  1  0  0  0  0
 42 44  1  0  0  0  0
 43 45  1  0  0  0  0
 43 46  1  0  0  0  0
 44 48  1  0  0  0  0
 45 50  1  0  0  0  0
 46 69  1  0  0  0  0
 47 50  1  0  0  0  0
 47 69  1  0  0  0  0
 48 72  1  0  0  0  0
 49 68  1  0  0  0  0
 50 67  1  0  0  0  0
 53 64  1  0  0  0  0
 54 65  1  0  0  0  0
 55 65  1  0  0  0  0
 56 65  1  0  0  0  0
 57 75  1  0  0  0  0
 58 60  1  0  0  0  0
 59 82  1  0  0  0  0
 60 61  1  0  0  0  0
 61 62  1  0  0  0  0
 62 74  1  0  0  0  0
 63 65  1  0  0  0  0
 63 73  1  0  0  0  0
 64 75  1  0  0  0  0
 66 67  1  0  0  0  0
M  CHG  1  75   1
M  ISO  4  38 100  59 101  74 100  82 101
M  END
> <Batch ID>
0031

> <Smiles>
CNC(C)C(=O)NC(C(=O)N1Cc2cc([101O:1][101CH2:1]c3cc(CCCC[100NH:0][100C:0](=O)N4CCCC(n5nc(-c6ccc(Oc7ccc(F)cc7F)cc6)c(C(N)=O)c5N)C4)c(F)c(C)c3C)ccc2CC1C(=O)NC1CCCc2ccccc21)C(C)(C)C

> <Shape>
0.241

> <Color>
0.060

> <Negative vol penalty>
0.000

$$$$

  -OEChem-04052316423D

 85 94  0     1  0  0  0  0  0999 V2000
  -18.1942  -26.4151   22.1909 C   0  0  0  0  0  0  0  0  0  0  0  0
  -19.4492  -25.8295   22.0589 C   0  0  0  0  0  0  0  0  0  0  0  0
  -23.3660   -9.5757   20.5998 C   0  0  0  0  0  0  0  0  0  0  0  0
  -23.9468  -10.2018   22.8598 C   0  0  0  0  0  0  0  0  0  0  0  0
  -18.0877  -27.7690   22.5062 C   0  0  0  0  0  0  0  0  0  0  0  0
  -20.5985  -26.5978   22.2410 C   0  0  0  0  0  0  0  0  0  0  0  0
  -24.1181  -24.2308   25.1568 C   0  0  0  0  0  0  0  0  0  0  0  0
  -22.7189   -8.4378   21.0813 C   0  0  0  0  0  0  0  0  0  0  0  0
  -23.2996   -9.0639   23.3414 C   0  0  0  0  0  0  0  0  0  0  0  0
  -24.9013  -23.2359   24.5732 C   0  0  0  0  0  0  0  0  0  0  0  0
  -23.5816   -5.3631   22.1888 C   0  0  0  0  0  0  0  0  0  0  0  0
  -23.8169   -4.1568   21.5293 C   0  0  0  0  0  0  0  0  0  0  0  0
  -28.5757  -19.5201   20.9392 C   0  0  0  0  0  0  0  0  0  0  0  0
  -26.6815  -24.8321   24.2554 C   0  0  0  0  0  0  0  0  0  0  0  0
  -21.4608   -3.9712   21.0281 C   0  0  0  0  0  0  0  0  0  0  0  0
  -23.9801  -10.4577   21.4891 C   0  0  0  0  0  0  0  0  0  0  0  0
  -24.0875  -12.9070   20.7839 C   0  0  0  0  0  0  0  0  0  0  0  0
  -19.2362  -28.5521   22.7018 C   0  0  0  0  0  0  0  0  0  0  0  0
  -24.6073  -25.5389   25.2851 C   0  0  0  0  0  0  0  0  0  0  0  0
  -20.5072  -27.9638   22.5579 C   0  0  0  0  0  0  0  0  0  0  0  0
  -27.6369  -20.4003   21.4657 C   0  0  0  0  0  0  0  0  0  0  0  0
  -25.9043  -25.8405   24.8453 C   0  0  0  0  0  0  0  0  0  0  0  0
  -29.2202  -18.6169   21.7771 C   0  0  0  0  0  0  0  0  0  0  0  0
  -22.6856   -8.1819   22.4521 C   0  0  0  0  0  0  0  0  0  0  0  0
  -26.1823  -23.5371   24.1203 C   0  0  0  0  0  0  0  0  0  0  0  0
  -22.2859   -5.8735   22.2680 C   0  0  0  0  0  0  0  0  0  0  0  0
  -22.7565   -3.4608   20.9490 C   0  0  0  0  0  0  0  0  0  0  0  0
  -21.2255   -5.1776   21.6876 C   0  0  0  0  0  0  0  0  0  0  0  0
  -24.6492  -11.6331   20.9922 C   0  0  0  0  0  0  0  0  0  0  0  0
  -27.3804  -20.3377   22.8258 C   0  0  0  0  0  0  0  0  0  0  0  0
  -28.8930  -18.6342   23.1234 C   0  0  0  0  0  0  0  0  0  0  0  0
  -25.1274  -13.6670   20.3070 C   0  0  0  0  0  0  0  0  0  0  0  0
  -22.7456  -13.3626   21.0020 C   0  0  0  0  0  0  0  0  0  0  0  0
  -23.7638  -28.4432   24.2366 C   0  0  0  0  0  0  0  0  0  0  0  0
  -26.2745  -29.3213   26.2313 C   0  0  0  0  0  0  0  0  0  0  0  0
  -25.2580  -32.5696   25.9971 C   0  0  0  0  0  0  0  0  0  0  0  0
  -30.4591  -15.3018   20.5220 C   0  0  0  0  0  0  0  0  0  0  0  0
  -19.0711  -30.0224   22.9947 C   0  0  0  0  0  0  0  0  0  0  0  0
  -23.7575  -26.5907   25.9453 C   0  0  0  0  0  0  0  0  0  0  0  0
  -26.4764  -27.2274   24.9637 C   0  0  0  0  0  0  0  0  0  0  0  0
  -20.3358  -30.6805   23.5403 C   0  0  0  0  0  0  0  0  0  0  0  0
  -26.0439  -20.2064   18.6478 C   0  0  0  0  0  0  0  0  0  0  0  0
  -27.1391  -21.1211   18.1171 C   0  0  0  0  0  0  0  0  0  0  0  0
  -29.7372  -12.3153   18.7230 C   0  0  0  0  0  0  0  0  0  0  0  0
  -25.6299  -20.8337   19.9692 C   0  0  0  0  0  0  0  0  0  0  0  0
  -27.7349  -21.8413   19.3299 C   0  0  0  0  0  0  0  0  0  0  0  0
  -21.5496  -30.2738   22.7108 C   0  0  0  0  0  0  0  0  0  0  0  0
  -28.3058  -11.9736   19.1406 C   0  0  0  0  0  0  0  0  0  0  0  0
  -30.5360  -12.9104   19.8806 C   0  0  0  0  0  0  0  0  0  0  0  0
  -28.4741  -13.7300   20.9532 C   0  0  0  0  0  0  0  0  0  0  0  0
  -26.9319  -21.3868   20.5582 C   0  0  0  0  0  0  0  0  0  0  0  0
  -21.7771  -28.7586   22.7722 C   0  0  1  0  0  0  0  0  0  0  0  0
  -24.1870  -28.0185   25.6143 C   0  0  1  0  0  0  0  0  0  0  0  0
  -27.6126  -13.1787   19.8043 C   0  0  2  0  0  0  0  0  0  0  0  0
  -25.6814  -34.8415   26.9751 C   0  0  0  0  0  0  0  0  0  0  0  0
  -24.7237  -28.5286   28.7357 C   0  0  0  0  0  0  0  0  0  0  0  0
  -24.3582  -30.9626   29.1942 C   0  0  0  0  0  0  0  0  0  0  0  0
  -26.6745  -30.0376   29.1503 C   0  0  0  0  0  0  0  0  0  0  0  0
  -26.0854  -33.6707   23.3775 C   0  0  0  0  0  0  0  0  0  0  0  0
  -30.2260  -17.6754   21.2083 C   0  0  0  0  0  0  0  0  0  0  0  0
  -26.3779  -21.2639   23.4491 C   0  0  0  0  0  0  0  0  0  1  0  0
  -25.4021  -30.2968   26.9810 C   0  0  1  0  0  0  0  0  0  0  0  0
  -26.0412  -33.8635   25.8675 C   0  0  2  0  0  0  0  0  0  0  0  0
  -25.2813  -29.9449   28.4906 C   0  0  0  0  0  0  0  0  0  0  0  0
  -25.9454  -11.5827   20.6736 N   0  0  0  0  0  0  0  0  0  0  0  0
  -27.9865  -19.4742   23.6713 N   0  0  0  0  0  0  0  0  0  0  0  0
  -26.2067  -12.8345   20.2601 N   0  0  0  0  0  0  0  0  0  0  0  0
  -25.6429  -28.1946   25.6895 N   0  0  0  0  0  0  0  0  0  0  0  0
  -29.8246  -14.0499   20.4648 N   0  0  0  0  0  0  0  0  0  0  0  0
  -25.2147  -14.9595   19.9272 N   0  0  0  0  0  0  0  0  0  0  0  0
  -21.8026  -12.4511   21.4961 N   0  0  0  0  0  0  0  0  0  0  0  0
  -22.3990  -28.3913   24.0263 N   0  0  0  0  0  0  0  0  0  0  0  0
  -25.9528  -31.6221   26.7186 N   0  0  0  0  0  0  0  0  0  0  0  0
  -29.7123  -16.3294   21.0851 N   0  0  0  0  0  0  0  0  0  0  0  0
  -25.7561  -34.5125   24.5565 N   0  3  0  0  0  0  0  0  0  0  0  0
  -22.3894  -14.5387   20.7503 O   0  0  0  0  0  0  0  0  0  0  0  0
  -24.6124  -28.7935   23.4250 O   0  0  0  0  0  0  0  0  0  0  0  0
  -27.4842  -29.5458   26.1338 O   0  0  0  0  0  0  0  0  0  0  0  0
  -24.1399  -32.4162   25.5104 O   0  0  0  0  0  0  0  0  0  0  0  0
  -31.6040  -15.4911   20.0975 O   0  0  0  0  0  0  0  0  0  0  0  0
  -22.0540   -7.0717   22.9224 O   0  0  0  0  0  0  0  0  0  0  0  0
  -26.9490  -22.5677   23.5508 O   0  0  0  0  0  0  0  0  0  1  0  0
  -22.9829   -2.3031   20.3144 F   0  0  0  0  0  0  0  0  0  0  0  0
  -19.9786   -5.6635   21.7594 F   0  0  0  0  0  0  0  0  0  0  0  0
  -29.6214  -17.5677   24.2594 Cl  0  0  0  0  0  0  0  0  0  0  0  0
  1  2  1  0  0  0  0
  1  5  2  0  0  0  0
  2  6  2  0  0  0  0
  3  8  2  0  0  0  0
  3 16  1  0  0  0  0
  4  9  1  0  0  0  0
  4 16  2  0  0  0  0
  5 18  1  0  0  0  0
  6 20  1  0  0  0  0
  7 10  2  0  0  0  0
  7 19  1  0  0  0  0
  8 24  1  0  0  0  0
  9 24  2  0  0  0  0
 10 25  1  0  0  0  0
 11 12  2  0  0  0  0
 11 26  1  0  0  0  0
 12 27  1  0  0  0  0
 13 21  1  0  0  0  0
 13 23  2  0  0  0  0
 14 22  1  0  0  0  0
 14 25  2  0  0  0  0
 15 27  2  0  0  0  0
 15 28  1  0  0  0  0
 16 29  1  0  0  0  0
 17 29  1  0  0  0  0
 17 32  2  0  0  0  0
 17 33  1  0  0  0  0
 18 20  2  0  0  0  0
 18 38  1  0  0  0  0
 19 22  2  0  0  0  0
 19 39  1  0  0  0  0
 20 52  1  0  0  0  0
 21 30  2  0  0  0  0
 21 51  1  0  0  0  0
 22 40  1  0  0  0  0
 23 31  1  0  0  0  0
 23 60  1  0  0  0  0
 24 81  1  0  0  0  0
 25 82  1  0  0  0  0
 26 28  2  0  0  0  0
 26 81  1  0  0  0  0
 27 83  1  0  0  0  0
 28 84  1  0  0  0  0
 29 65  2  0  0  0  0
 30 61  1  0  0  0  0
 30 66  1  0  0  0  0
 31 66  2  0  0  0  0
 31 85  1  0  0  0  0
 32 67  1  0  0  0  0
 32 70  1  0  0  0  0
 33 71  1  0  0  0  0
 33 76  2  0  0  0  0
 34 53  1  0  0  0  0
 34 72  1  0  0  0  0
 34 77  2  0  0  0  0
 35 62  1  0  0  0  0
 35 68  1  0  0  0  0
 35 78  2  0  0  0  0
 36 63  1  0  0  0  0
 36 73  1  0  0  0  0
 36 79  2  0  0  0  0
 37 69  1  0  0  0  0
 37 74  1  0  0  0  0
 37 80  2  0  0  0  0
 38 41  1  0  0  0  0
 39 53  1  0  0  0  0
 40 68  1  0  0  0  0
 41 47  1  0  0  0  0
 42 43  1  0  0  0  0
 42 45  1  0  0  0  0
 43 46  1  0  0  0  0
 44 48  1  0  0  0  0
 44 49  1  0  0  0  0
 45 51  1  0  0  0  0
 46 51  1  0  0  0  0
 47 52  1  0  0  0  0
 48 54  1  0  0  0  0
 49 69  1  0  0  0  0
 50 54  1  0  0  0  0
 50 69  1  0  0  0  0
 52 72  1  0  0  0  0
 53 68  1  0  0  0  0
 54 67  1  0  0  0  0
 55 63  1  0  0  0  0
 56 64  1  0  0  0  0
 57 64  1  0  0  0  0
 58 64  1  0  0  0  0
 59 75  1  0  0  0  0
 60 74  1  0  0  0  0
 61 82  1  0  0  0  0
 62 64  1  0  0  0  0
 62 73  1  0  0  0  0
 63 75  1  0  0  0  0
 65 67  1  0  0  0  0
M  CHG  1  75   1
M  ISO  4  37 100  61 101  74 100  82 101
M  END
> <Batch ID>
0031

> <Smiles>
CNC(C)C(=O)NC(C(=O)N1Cc2cc([101O:1][101CH2:1]c3nc(Cl)c(C[100NH:0][100C:0](=O)N4CCCC(n5nc(-c6ccc(Oc7ccc(F)cc7F)cc6)c(C(N)=O)c5N)C4)cc3C3CCCC3)ccc2CC1C(=O)NC1CCCc2ccccc21)C(C)(C)C

> <Shape>
0.303

> <Color>
0.184

> <Negative vol penalty>
0.000

$$$$

  -OEChem-04052316423D

 90 99  0     1  0  0  0  0  0999 V2000
  -16.8845  -30.2537   24.3220 C   0  0  0  0  0  0  0  0  0  0  0  0
  -16.4665  -28.9275   24.3653 C   0  0  0  0  0  0  0  0  0  0  0  0
  -29.4871  -23.5797   19.5490 C   0  0  0  0  0  0  0  0  0  0  0  0
  -30.5420  -22.4308   17.7038 C   0  0  0  0  0  0  0  0  0  0  0  0
  -18.0236  -30.6010   23.5969 C   0  0  0  0  0  0  0  0  0  0  0  0
  -17.1867  -27.9479   23.6826 C   0  0  0  0  0  0  0  0  0  0  0  0
  -19.0215  -21.0378   24.1305 C   0  0  0  0  0  0  0  0  0  0  0  0
  -30.1906  -24.7406   19.2283 C   0  0  0  0  0  0  0  0  0  0  0  0
  -31.2455  -23.5918   17.3831 C   0  0  0  0  0  0  0  0  0  0  0  0
  -18.9949  -19.8653   23.3766 C   0  0  0  0  0  0  0  0  0  0  0  0
  -29.9722  -27.2394   16.9609 C   0  0  0  0  0  0  0  0  0  0  0  0
  -29.2667  -28.4427   16.9499 C   0  0  0  0  0  0  0  0  0  0  0  0
  -20.9922  -20.5698   22.2217 C   0  0  0  0  0  0  0  0  0  0  0  0
  -30.7297  -29.3160   18.6629 C   0  0  0  0  0  0  0  0  0  0  0  0
  -29.6629  -22.4247   18.7868 C   0  0  0  0  0  0  0  0  0  0  0  0
  -27.6723  -20.8364   18.6366 C   0  0  0  0  0  0  0  0  0  0  0  0
  -18.7637  -29.6237   22.9129 C   0  0  0  0  0  0  0  0  0  0  0  0
  -20.0291  -21.9917   23.9277 C   0  0  0  0  0  0  0  0  0  0  0  0
  -18.3361  -28.2826   22.9466 C   0  0  0  0  0  0  0  0  0  0  0  0
  -21.0308  -21.7524   22.9761 C   0  0  0  0  0  0  0  0  0  0  0  0
  -23.9715  -12.6590   21.2916 C   0  0  0  0  0  0  0  0  0  0  0  0
  -24.7580  -11.5250   21.0506 C   0  0  0  0  0  0  0  0  0  0  0  0
  -31.0698  -24.7467   18.1454 C   0  0  0  0  0  0  0  0  0  0  0  0
  -19.9787  -19.6325   22.4200 C   0  0  0  0  0  0  0  0  0  0  0  0
  -31.0564  -27.0744   17.8229 C   0  0  0  0  0  0  0  0  0  0  0  0
  -29.6455  -29.4810   17.8009 C   0  0  0  0  0  0  0  0  0  0  0  0
  -31.4351  -28.1127   18.6738 C   0  0  0  0  0  0  0  0  0  0  0  0
  -25.9992  -11.6446   20.4417 C   0  0  0  0  0  0  0  0  0  0  0  0
  -28.9369  -21.2249   19.1179 C   0  0  0  0  0  0  0  0  0  0  0  0
  -24.4661  -13.9016   20.8766 C   0  0  0  0  0  0  0  0  0  0  0  0
  -26.4153  -12.9100   20.0836 C   0  0  0  0  0  0  0  0  0  0  0  0
  -27.4283  -19.6304   19.2469 C   0  0  0  0  0  0  0  0  0  0  0  0
  -26.7965  -21.5057   17.7197 C   0  0  0  0  0  0  0  0  0  0  0  0
  -20.0870  -25.0292   22.9927 C   0  0  0  0  0  0  0  0  0  0  0  0
  -23.2396  -24.7857   23.7169 C   0  0  0  0  0  0  0  0  0  0  0  0
  -25.9718  -22.7822   24.1263 C   0  0  0  0  0  0  0  0  0  0  0  0
  -29.1226  -14.5673   20.8717 C   0  0  0  0  0  0  0  0  0  0  0  0
  -19.9614  -30.0543   22.1037 C   0  0  0  0  0  0  0  0  0  0  0  0
  -20.0589  -23.2391   24.7677 C   0  0  0  0  0  0  0  0  0  0  0  0
  -22.6202  -12.4838   21.9242 C   0  0  0  0  0  0  0  0  0  0  0  0
  -22.1458  -22.7355   22.7340 C   0  0  0  0  0  0  0  0  0  0  0  0
  -20.8815  -28.8996   21.7159 C   0  0  0  0  0  0  0  0  0  0  0  0
  -22.0423  -13.7807   22.4769 C   0  0  0  0  0  0  0  0  0  0  0  0
  -29.8522  -17.3044   23.0286 C   0  0  0  0  0  0  0  0  0  0  0  0
  -20.0685  -27.7274   21.1757 C   0  0  0  0  0  0  0  0  0  0  0  0
  -29.5809  -18.5354   22.1620 C   0  0  0  0  0  0  0  0  0  0  0  0
  -30.4587  -16.1637   22.2145 C   0  0  0  0  0  0  0  0  0  0  0  0
  -29.4191  -17.0137   20.1479 C   0  0  0  0  0  0  0  0  0  0  0  0
  -19.1049  -27.1877   22.2395 C   0  0  1  0  0  0  0  0  0  0  0  0
  -20.8392  -24.3780   24.1187 C   0  0  1  0  0  0  0  0  0  0  0  0
  -28.7555  -18.1712   20.9133 C   0  0  2  0  0  0  0  0  0  0  0  0
  -22.1955  -14.8937   21.4442 C   0  0  2  0  0  0  0  0  0  0  0  0
  -23.6879  -15.2033   21.1186 C   0  0  0  0  0  0  0  0  0  0  0  0
  -23.7498  -16.0816   19.8461 C   0  0  0  0  0  0  0  0  0  0  0  0
  -24.4051  -15.9577   22.2613 C   0  0  0  0  0  0  0  0  0  0  0  0
  -23.7971   -9.3623   20.2225 C   0  0  0  0  0  0  0  0  0  0  0  0
  -28.4173  -22.8751   24.6816 C   0  0  0  0  0  0  0  0  0  0  0  0
  -23.8362  -25.8134   20.9066 C   0  0  0  0  0  0  0  0  0  0  0  0
  -26.1863  -24.9948   21.1815 C   0  0  0  0  0  0  0  0  0  0  0  0
  -25.2988  -26.7656   22.6979 C   0  0  0  0  0  0  0  0  0  0  0  0
  -25.6066  -21.1059   26.5378 C   0  0  0  0  0  0  0  0  0  0  0  0
  -24.2904  -10.1550   21.4280 C   0  0  0  0  0  0  0  0  0  0  0  0
  -27.7434  -13.0925   19.4288 C   0  0  0  0  0  0  0  0  0  0  0  0
  -20.0137  -16.0817   21.7036 C   0  0  0  0  0  0  0  0  0  0  0  0
  -19.3916  -17.3313   22.2948 C   0  0  0  0  0  0  0  0  0  1  0  0
  -24.4829  -24.3869   22.9591 C   0  0  1  0  0  0  0  0  0  0  0  0
  -27.0095  -22.7074   25.2318 C   0  0  2  0  0  0  0  0  0  0  0  0
  -24.9291  -25.4723   21.9392 C   0  0  0  0  0  0  0  0  0  0  0  0
  -29.4597  -20.3378   19.9685 N   0  0  0  0  0  0  0  0  0  0  0  0
  -25.6868  -14.0288   20.2876 N   0  0  0  0  0  0  0  0  0  0  0  0
  -28.5190  -19.3798   20.0266 N   0  0  0  0  0  0  0  0  0  0  0  0
  -22.1278  -23.9430   23.5761 N   0  0  0  0  0  0  0  0  0  0  0  0
  -29.6271  -15.8666   21.0456 N   0  0  0  0  0  0  0  0  0  0  0  0
  -26.3894  -18.7705   19.1874 N   0  0  0  0  0  0  0  0  0  0  0  0
  -27.2020  -22.7366   17.1861 N   0  0  0  0  0  0  0  0  0  0  0  0
  -19.8166  -26.3688   23.1973 N   0  0  0  0  0  0  0  0  0  0  0  0
  -25.4882  -24.0634   23.9656 N   0  0  0  0  0  0  0  0  0  0  0  0
  -28.3385  -14.3728   19.7411 N   0  0  0  0  0  0  0  0  0  0  0  0
  -21.4770  -16.0950   21.9580 N   0  3  0  0  0  0  0  0  0  0  0  0
  -26.9307  -21.3921   25.9281 N   0  3  0  0  0  0  0  0  0  0  0  0
  -25.6799  -21.0343   17.3962 O   0  0  0  0  0  0  0  0  0  0  0  0
  -19.7764  -24.3658   22.0104 O   0  0  0  0  0  0  0  0  0  0  0  0
  -23.2565  -25.8033   24.4138 O   0  0  0  0  0  0  0  0  0  0  0  0
  -25.6277  -21.8028   23.4684 O   0  0  0  0  0  0  0  0  0  0  0  0
  -29.3495  -13.6499   21.6679 O   0  0  0  0  0  0  0  0  0  0  0  0
  -31.7562  -25.8795   17.8320 O   0  0  0  0  0  0  0  0  0  0  0  0
  -19.9546  -18.4810   21.6770 O   0  0  0  0  0  0  0  0  0  1  0  0
  -28.9689  -30.6369   17.7891 F   0  0  0  0  0  0  0  0  0  0  0  0
  -32.4766  -27.9605   19.5033 F   0  0  0  0  0  0  0  0  0  0  0  0
  -26.7637  -10.5701   20.2073 F   0  0  0  0  0  0  0  0  0  0  0  0
  1  2  1  0  0  0  0
  1  5  2  0  0  0  0
  2  6  2  0  0  0  0
  3  8  2  0  0  0  0
  3 15  1  0  0  0  0
  4  9  1  0  0  0  0
  4 15  2  0  0  0  0
  5 17  1  0  0  0  0
  6 19  1  0  0  0  0
  7 10  2  0  0  0  0
  7 18  1  0  0  0  0
  8 23  1  0  0  0  0
  9 23  2  0  0  0  0
 10 24  1  0  0  0  0
 11 12  2  0  0  0  0
 11 25  1  0  0  0  0
 12 26  1  0  0  0  0
 13 20  1  0  0  0  0
 13 24  2  0  0  0  0
 14 26  2  0  0  0  0
 14 27  1  0  0  0  0
 15 29  1  0  0  0  0
 16 29  1  0  0  0  0
 16 32  2  0  0  0  0
 16 33  1  0  0  0  0
 17 19  2  0  0  0  0
 17 38  1  0  0  0  0
 18 20  2  0  0  0  0
 18 39  1  0  0  0  0
 19 49  1  0  0  0  0
 20 41  1  0  0  0  0
 21 22  2  0  0  0  0
 21 30  1  0  0  0  0
 21 40  1  0  0  0  0
 22 28  1  0  0  0  0
 22 62  1  0  0  0  0
 23 86  1  0  0  0  0
 24 87  1  0  0  0  0
 25 27  2  0  0  0  0
 25 86  1  0  0  0  0
 26 88  1  0  0  0  0
 27 89  1  0  0  0  0
 28 31  2  0  0  0  0
 28 90  1  0  0  0  0
 29 69  2  0  0  0  0
 30 53  1  0  0  0  0
 30 70  2  0  0  0  0
 31 63  1  0  0  0  0
 31 70  1  0  0  0  0
 32 71  1  0  0  0  0
 32 74  1  0  0  0  0
 33 75  1  0  0  0  0
 33 81  2  0  0  0  0
 34 50  1  0  0  0  0
 34 76  1  0  0  0  0
 34 82  2  0  0  0  0
 35 66  1  0  0  0  0
 35 72  1  0  0  0  0
 35 83  2  0  0  0  0
 36 67  1  0  0  0  0
 36 77  1  0  0  0  0
 36 84  2  0  0  0  0
 37 73  1  0  0  0  0
 37 78  1  0  0  0  0
 37 85  2  0  0  0  0
 38 42  1  0  0  0  0
 39 50  1  0  0  0  0
 40 43  1  0  0  0  0
 41 72  1  0  0  0  0
 42 45  1  0  0  0  0
 43 52  1  0  0  0  0
 44 46  1  0  0  0  0
 44 47  1  0  0  0  0
 45 49  1  0  0  0  0
 46 51  1  0  0  0  0
 47 73  1  0  0  0  0
 48 51  1  0  0  0  0
 48 73  1  0  0  0  0
 49 76  1  0  0  0  0
 50 72  1  0  0  0  0
 51 71  1  0  0  0  0
 52 53  1  0  0  0  0
 52 79  1  0  0  0  0
 53 54  1  0  0  0  0
 53 55  1  0  0  0  0
 56 62  1  0  0  0  0
 57 67  1  0  0  0  0
 58 68  1  0  0  0  0
 59 68  1  0  0  0  0
 60 68  1  0  0  0  0
 61 80  1  0  0  0  0
 63 78  1  0  0  0  0
 64 65  1  0  0  0  0
 64 79  1  0  0  0  0
 65 87  1  0  0  0  0
 66 68  1  0  0  0  0
 66 77  1  0  0  0  0
 67 80  1  0  0  0  0
 69 71  1  0  0  0  0
M  CHG  2  79   1  80   1
M  ISO  4  37 100  65 101  78 100  87 101
M  END
> <Batch ID>
0031

> <Smiles>
CCc1c(F)c(C[100NH:0][100C:0](=O)N2CCCC(n3nc(-c4ccc(Oc5ccc(F)cc5F)cc4)c(C(N)=O)c3N)C2)nc2c1CCC(NC[101CH2:1][101O:1]c1ccc3c(c1)CN(C(=O)C(NC(=O)C(C)NC)C(C)(C)C)C(C(=O)NC1CCCc4ccccc41)C3)C2(C)C

> <Shape>
0.240

> <Color>
0.061

> <Negative vol penalty>
0.000

$$$$

  -OEChem-04052316423D

 93103  0     1  0  0  0  0  0999 V2000
  -25.6956  -27.1134   18.6468 C   0  0  0  0  0  0  0  0  0  0  0  0
  -25.8981  -26.7421   19.9721 C   0  0  0  0  0  0  0  0  0  0  0  0
  -22.7999  -10.1388   20.0979 C   0  0  0  0  0  0  0  0  0  0  0  0
  -24.1874   -9.5675   21.9914 C   0  0  0  0  0  0  0  0  0  0  0  0
  -26.1228  -26.2767   17.6166 C   0  0  0  0  0  0  0  0  0  0  0  0
  -26.5270  -25.5333   20.2680 C   0  0  0  0  0  0  0  0  0  0  0  0
  -30.8681  -22.5387   25.1161 C   0  0  0  0  0  0  0  0  0  0  0  0
  -22.0676   -8.9658   20.2805 C   0  0  0  0  0  0  0  0  0  0  0  0
  -23.4551   -8.3945   22.1741 C   0  0  0  0  0  0  0  0  0  0  0  0
  -30.9461  -21.4230   25.9486 C   0  0  0  0  0  0  0  0  0  0  0  0
  -23.2984   -5.3142   20.7891 C   0  0  0  0  0  0  0  0  0  0  0  0
  -24.0084   -4.1374   21.0265 C   0  0  0  0  0  0  0  0  0  0  0  0
  -31.6373  -15.4856   29.4429 C   0  0  0  0  0  0  0  0  0  0  0  0
  -31.7129  -20.0948   24.0866 C   0  0  0  0  0  0  0  0  0  0  0  0
  -31.0676  -16.8623   27.5584 C   0  0  0  0  0  0  0  0  0  0  0  0
  -22.8924   -3.8936   23.1555 C   0  0  0  0  0  0  0  0  0  0  0  0
  -23.8598  -10.4397   20.9533 C   0  0  0  0  0  0  0  0  0  0  0  0
  -24.1314  -12.9718   20.8036 C   0  0  0  0  0  0  0  0  0  0  0  0
  -26.7659  -25.0615   17.8999 C   0  0  0  0  0  0  0  0  0  0  0  0
  -31.2020  -22.4381   23.7579 C   0  0  0  0  0  0  0  0  0  0  0  0
  -26.9620  -24.6789   19.2406 C   0  0  0  0  0  0  0  0  0  0  0  0
  -31.8557  -16.6181   30.2592 C   0  0  0  0  0  0  0  0  0  0  0  0
  -31.6407  -21.2113   23.2396 C   0  0  0  0  0  0  0  0  0  0  0  0
  -31.6305  -17.9030   29.7063 C   0  0  0  0  0  0  0  0  0  0  0  0
  -31.2497  -15.6050   28.1097 C   0  0  0  0  0  0  0  0  0  0  0  0
  -31.2572  -17.9956   28.3467 C   0  0  0  0  0  0  0  0  0  0  0  0
  -22.3952   -8.0936   21.3186 C   0  0  0  0  0  0  0  0  0  0  0  0
  -31.3658  -20.2002   25.4332 C   0  0  0  0  0  0  0  0  0  0  0  0
  -22.3854   -5.7809   21.7349 C   0  0  0  0  0  0  0  0  0  0  0  0
  -23.8054   -3.4270   22.2097 C   0  0  0  0  0  0  0  0  0  0  0  0
  -22.1824   -5.0705   22.9180 C   0  0  0  0  0  0  0  0  0  0  0  0
  -24.6170  -11.6510   20.7648 C   0  0  0  0  0  0  0  0  0  0  0  0
  -25.2373  -13.7513   20.5672 C   0  0  0  0  0  0  0  0  0  0  0  0
  -22.7998  -13.4512   21.0328 C   0  0  0  0  0  0  0  0  0  0  0  0
  -29.6316  -22.8510   21.0253 C   0  0  0  0  0  0  0  0  0  0  0  0
  -32.5660  -22.3916   19.7212 C   0  0  0  0  0  0  0  0  0  0  0  0
  -35.7005  -21.0778   20.0304 C   0  0  0  0  0  0  0  0  0  0  0  0
  -31.1015  -12.8659   21.3906 C   0  0  0  0  0  0  0  0  0  0  0  0
  -27.1676  -24.1682   16.7531 C   0  0  0  0  0  0  0  0  0  0  0  0
  -31.1381  -23.6571   22.8791 C   0  0  0  0  0  0  0  0  0  0  0  0
  -32.0300  -21.0553   21.7930 C   0  0  0  0  0  0  0  0  0  0  0  0
  -28.1616  -23.0792   17.1486 C   0  0  0  0  0  0  0  0  0  0  0  0
  -29.4667  -13.6708   18.3319 C   0  0  0  0  0  0  0  0  0  0  0  0
  -27.7167  -22.3923   18.4359 C   0  0  0  0  0  0  0  0  0  0  0  0
  -32.6133  -14.8002   25.3354 C   0  0  0  0  0  0  0  0  0  0  0  0
  -32.2597  -12.4474   26.1882 C   0  0  0  0  0  0  0  0  0  0  0  0
  -27.9946  -13.3636   18.6120 C   0  0  0  0  0  0  0  0  0  0  0  0
  -31.6732  -14.5188   24.1629 C   0  0  0  0  0  0  0  0  0  0  0  0
  -31.3196  -12.1617   25.0167 C   0  0  0  0  0  0  0  0  0  0  0  0
  -32.7981  -17.7285   32.3490 C   0  0  0  0  0  0  0  0  0  0  0  0
  -31.8879  -18.9036   32.0345 C   0  0  0  0  0  0  0  0  0  0  0  0
  -30.3930  -12.6739   19.0247 C   0  0  0  0  0  0  0  0  0  0  0  0
  -28.6984  -12.2193   20.7554 C   0  0  0  0  0  0  0  0  0  0  0  0
  -27.6626  -23.3871   19.6017 C   0  0  1  0  0  0  0  0  0  0  0  0
  -31.0101  -23.3192   21.3970 C   0  0  1  0  0  0  0  0  0  0  0  0
  -32.3156  -13.9341   26.5678 C   0  0  0  0  0  0  0  0  0  0  0  0
  -27.7272  -13.2311   20.1234 C   0  0  2  0  0  0  0  0  0  0  0  0
  -31.6559  -13.0314   23.8040 C   0  0  0  0  0  0  0  0  0  0  0  0
  -32.2866  -16.4148   31.7174 C   0  0  0  0  0  0  0  0  0  0  0  0
  -31.8171  -19.1912   30.5183 C   0  0  0  0  0  0  0  0  0  0  0  0
  -31.0796  -15.8810   32.5205 C   0  0  0  0  0  0  0  0  0  0  0  0
  -33.4420  -15.3927   31.8399 C   0  0  0  0  0  0  0  0  0  0  0  0
  -30.6411  -20.1763   30.3153 C   0  0  0  0  0  0  0  0  0  0  0  0
  -33.1168  -19.8853   30.0538 C   0  0  0  0  0  0  0  0  0  0  0  0
  -37.8645  -20.8305   18.7842 C   0  0  0  0  0  0  0  0  0  0  0  0
  -31.3180  -20.2093   17.9920 C   0  0  0  0  0  0  0  0  0  0  0  0
  -33.6273  -19.3805   17.4937 C   0  0  0  0  0  0  0  0  0  0  0  0
  -32.9520  -21.6791   16.7986 C   0  0  0  0  0  0  0  0  0  0  0  0
  -37.1953  -22.5820   22.0948 C   0  0  0  0  0  0  0  0  0  0  0  0
  -31.0373  -14.3843   27.2803 C   0  0  0  0  0  0  0  0  0  0  0  0
  -31.0785  -19.2863   27.6100 C   0  0  0  0  0  0  0  0  0  1  0  0
  -33.3492  -21.1912   19.2473 C   0  0  1  0  0  0  0  0  0  0  0  0
  -37.0724  -21.6736   19.7714 C   0  0  2  0  0  0  0  0  0  0  0  0
  -32.8025  -20.6172   17.9097 C   0  0  0  0  0  0  0  0  0  0  0  0
  -25.9292  -11.5909   20.5227 N   0  0  0  0  0  0  0  0  0  0  0  0
  -26.2775  -12.8838   20.4071 N   0  0  0  0  0  0  0  0  0  0  0  0
  -31.9447  -22.2748   20.9726 N   0  0  0  0  0  0  0  0  0  0  0  0
  -30.0885  -12.5967   20.4555 N   0  0  0  0  0  0  0  0  0  0  0  0
  -25.4117  -15.0872   20.4826 N   0  0  0  0  0  0  0  0  0  0  0  0
  -22.4047  -13.7220   22.3500 N   0  0  0  0  0  0  0  0  0  0  0  0
  -28.9948  -23.6553   20.0995 N   0  0  0  0  0  0  0  0  0  0  0  0
  -34.7453  -21.6110   19.1910 N   0  0  0  0  0  0  0  0  0  0  0  0
  -30.7268  -12.7767   22.7257 N   0  0  0  0  0  0  0  0  0  0  0  0
  -37.8470  -21.7619   21.0415 N   0  3  0  0  0  0  0  0  0  0  0  0
  -21.9791  -13.6184   20.0990 O   0  0  0  0  0  0  0  0  0  0  0  0
  -29.1797  -21.8345   21.5393 O   0  0  0  0  0  0  0  0  0  0  0  0
  -32.5134  -23.3984   19.0104 O   0  0  0  0  0  0  0  0  0  0  0  0
  -35.4971  -20.2220   20.8888 O   0  0  0  0  0  0  0  0  0  0  0  0
  -32.2530  -13.1687   21.0602 O   0  0  0  0  0  0  0  0  0  0  0  0
  -21.6807   -6.9490   21.4973 O   0  0  0  0  0  0  0  0  0  0  0  0
  -31.4428  -19.1013   26.2495 O   0  0  0  0  0  0  0  0  0  1  0  0
  -24.4862   -2.2960   22.4369 F   0  0  0  0  0  0  0  0  0  0  0  0
  -21.3058   -5.5132   23.8298 F   0  0  0  0  0  0  0  0  0  0  0  0
  1  2  1  0  0  0  0
  1  5  2  0  0  0  0
  2  6  2  0  0  0  0
  3  8  2  0  0  0  0
  3 17  1  0  0  0  0
  4  9  1  0  0  0  0
  4 17  2  0  0  0  0
  5 19  1  0  0  0  0
  6 21  1  0  0  0  0
  7 10  2  0  0  0  0
  7 20  1  0  0  0  0
  8 27  1  0  0  0  0
  9 27  2  0  0  0  0
 10 28  1  0  0  0  0
 11 12  2  0  0  0  0
 11 29  1  0  0  0  0
 12 30  1  0  0  0  0
 13 22  2  0  0  0  0
 13 25  1  0  0  0  0
 14 23  1  0  0  0  0
 14 28  2  0  0  0  0
 15 25  2  0  0  0  0
 15 26  1  0  0  0  0
 16 30  2  0  0  0  0
 16 31  1  0  0  0  0
 17 32  1  0  0  0  0
 18 32  1  0  0  0  0
 18 33  2  0  0  0  0
 18 34  1  0  0  0  0
 19 21  2  0  0  0  0
 19 39  1  0  0  0  0
 20 23  2  0  0  0  0
 20 40  1  0  0  0  0
 21 54  1  0  0  0  0
 22 24  1  0  0  0  0
 22 59  1  0  0  0  0
 23 41  1  0  0  0  0
 24 26  2  0  0  0  0
 24 60  1  0  0  0  0
 25 70  1  0  0  0  0
 26 71  1  0  0  0  0
 27 90  1  0  0  0  0
 28 91  1  0  0  0  0
 29 31  2  0  0  0  0
 29 90  1  0  0  0  0
 30 92  1  0  0  0  0
 31 93  1  0  0  0  0
 32 75  2  0  0  0  0
 33 76  1  0  0  0  0
 33 79  1  0  0  0  0
 34 80  1  0  0  0  0
 34 85  2  0  0  0  0
 35 55  1  0  0  0  0
 35 81  1  0  0  0  0
 35 86  2  0  0  0  0
 36 72  1  0  0  0  0
 36 77  1  0  0  0  0
 36 87  2  0  0  0  0
 37 73  1  0  0  0  0
 37 82  1  0  0  0  0
 37 88  2  0  0  0  0
 38 78  1  0  0  0  0
 38 83  1  0  0  0  0
 38 89  2  0  0  0  0
 39 42  1  0  0  0  0
 40 55  1  0  0  0  0
 41 77  1  0  0  0  0
 42 44  1  0  0  0  0
 43 47  1  0  0  0  0
 43 52  1  0  0  0  0
 44 54  1  0  0  0  0
 45 48  1  0  0  0  0
 45 56  1  0  0  0  0
 46 49  1  0  0  0  0
 46 56  1  0  0  0  0
 47 57  1  0  0  0  0
 48 58  1  0  0  0  0
 49 58  1  0  0  0  0
 50 51  1  0  0  0  0
 50 59  1  0  0  0  0
 51 60  1  0  0  0  0
 52 78  1  0  0  0  0
 53 57  1  0  0  0  0
 53 78  1  0  0  0  0
 54 81  1  0  0  0  0
 55 77  1  0  0  0  0
 56 70  1  0  0  0  0
 57 76  1  0  0  0  0
 58 83  1  0  0  0  0
 59 61  1  0  0  0  0
 59 62  1  0  0  0  0
 60 63  1  0  0  0  0
 60 64  1  0  0  0  0
 65 73  1  0  0  0  0
 66 74  1  0  0  0  0
 67 74  1  0  0  0  0
 68 74  1  0  0  0  0
 69 84  1  0  0  0  0
 71 91  1  0  0  0  0
 72 74  1  0  0  0  0
 72 82  1  0  0  0  0
 73 84  1  0  0  0  0
 75 76  1  0  0  0  0
M  CHG  1  84   1
M  ISO  4  38 100  71 101  83 100  91 101
M  END
> <Batch ID>
0031

> <Smiles>
CNC(C)C(=O)NC(C(=O)N1Cc2cc([101O:1][101CH2:1]c3cc(CC4CCC([100NH:0][100C:0](=O)N5CCCC(n6nc(-c7ccc(Oc8ccc(F)cc8F)cc7)c(C(N)=O)c6N)C5)CC4)cc4c3C(C)(C)CCC4(C)C)ccc2CC1C(=O)NC1CCCc2ccccc21)C(C)(C)C

> <Shape>
0.178

> <Color>
0.149

> <Negative vol penalty>
0.000

$$$$

  -OEChem-04052316423D

 83 91  0     1  0  0  0  0  0999 V2000
  -16.7610  -31.3299   20.4326 C   0  0  0  0  0  0  0  0  0  0  0  0
  -18.1221  -31.2148   20.1689 C   0  0  0  0  0  0  0  0  0  0  0  0
  -25.4548  -15.0100   20.8543 C   0  0  0  0  0  0  0  0  0  0  0  0
  -27.7825  -14.3993   20.6404 C   0  0  0  0  0  0  0  0  0  0  0  0
  -16.2249  -30.7593   21.5863 C   0  0  0  0  0  0  0  0  0  0  0  0
  -18.9482  -30.5298   21.0594 C   0  0  0  0  0  0  0  0  0  0  0  0
  -23.8396  -27.1194   19.6634 C   0  0  0  0  0  0  0  0  0  0  0  0
  -25.0947  -13.6646   20.7766 C   0  0  0  0  0  0  0  0  0  0  0  0
  -27.4225  -13.0540   20.5628 C   0  0  0  0  0  0  0  0  0  0  0  0
  -25.2072  -27.3902   19.6788 C   0  0  0  0  0  0  0  0  0  0  0  0
  -25.0433  -10.9773   22.8282 C   0  0  0  0  0  0  0  0  0  0  0  0
  -24.0984  -10.5056   23.7393 C   0  0  0  0  0  0  0  0  0  0  0  0
  -25.3718  -26.4027   21.8736 C   0  0  0  0  0  0  0  0  0  0  0  0
  -30.9770  -24.3258   21.4234 C   0  0  0  0  0  0  0  0  0  0  0  0
  -22.6432   -9.8902   21.9115 C   0  0  0  0  0  0  0  0  0  0  0  0
  -26.7987  -15.3773   20.7861 C   0  0  0  0  0  0  0  0  0  0  0  0
  -27.4710  -17.5014   22.0286 C   0  0  0  0  0  0  0  0  0  0  0  0
  -17.0432  -30.0587   22.4865 C   0  0  0  0  0  0  0  0  0  0  0  0
  -23.2249  -26.4971   20.7594 C   0  0  0  0  0  0  0  0  0  0  0  0
  -18.4228  -29.9505   22.2269 C   0  0  0  0  0  0  0  0  0  0  0  0
  -23.9968  -26.1229   21.8686 C   0  0  0  0  0  0  0  0  0  0  0  0
  -30.3548  -25.4124   22.0278 C   0  0  0  0  0  0  0  0  0  0  0  0
  -30.0830  -26.5541   21.2820 C   0  0  0  0  0  0  0  0  0  0  0  0
  -26.0785  -12.6866   20.6309 C   0  0  0  0  0  0  0  0  0  0  0  0
  -25.9730  -27.0345   20.7852 C   0  0  0  0  0  0  0  0  0  0  0  0
  -24.7881  -10.9056   21.4587 C   0  0  0  0  0  0  0  0  0  0  0  0
  -22.8984   -9.9620   23.2810 C   0  0  0  0  0  0  0  0  0  0  0  0
  -23.5881  -10.3620   21.0004 C   0  0  0  0  0  0  0  0  0  0  0  0
  -27.1712  -16.7669   20.8657 C   0  0  0  0  0  0  0  0  0  0  0  0
  -31.3046  -24.4300   20.0812 C   0  0  0  0  0  0  0  0  0  0  0  0
  -30.4509  -26.5587   19.9461 C   0  0  0  0  0  0  0  0  0  0  0  0
  -27.7611  -18.7639   21.5721 C   0  0  0  0  0  0  0  0  0  0  0  0
  -27.4860  -17.0801   23.3990 C   0  0  0  0  0  0  0  0  0  0  0  0
  -20.9489  -27.3199   22.8201 C   0  0  0  0  0  0  0  0  0  0  0  0
  -21.2928  -24.2549   23.8250 C   0  0  0  0  0  0  0  0  0  0  0  0
  -23.2769  -21.4881   24.0591 C   0  0  0  0  0  0  0  0  0  0  0  0
  -30.2988  -22.1646   17.9471 C   0  0  0  0  0  0  0  0  0  0  0  0
  -16.4264  -29.4996   23.7441 C   0  0  0  0  0  0  0  0  0  0  0  0
  -21.7535  -26.1878   20.7161 C   0  0  0  0  0  0  0  0  0  0  0  0
  -23.3886  -25.4343   23.0621 C   0  0  0  0  0  0  0  0  0  0  0  0
  -17.3055  -28.4687   24.4474 C   0  0  0  0  0  0  0  0  0  0  0  0
  -27.1336  -20.8369   17.0010 C   0  0  0  0  0  0  0  0  0  0  0  0
  -18.7421  -28.9716   24.5476 C   0  0  0  0  0  0  0  0  0  0  0  0
  -26.8892  -19.7168   18.0137 C   0  0  0  0  0  0  0  0  0  0  0  0
  -28.6078  -20.9378   16.6159 C   0  0  0  0  0  0  0  0  0  0  0  0
  -29.2932  -19.9477   18.7662 C   0  0  0  0  0  0  0  0  0  0  0  0
  -19.3471  -29.1940   23.1561 C   0  0  1  0  0  0  0  0  0  0  0  0
  -21.1384  -26.0141   22.1013 C   0  0  1  0  0  0  0  0  0  0  0  0
  -27.8295  -19.8434   19.2275 C   0  0  2  0  0  0  0  0  0  0  0  0
  -29.9926  -25.3295   23.4738 C   0  0  0  0  0  0  0  0  0  0  0  0
  -30.3636  -27.4593   17.6078 C   0  0  0  0  0  0  0  0  0  0  0  0
  -23.2964  -19.1492   24.9684 C   0  0  0  0  0  0  0  0  0  0  0  0
  -21.6996  -25.3558   26.6414 C   0  0  0  0  0  0  0  0  0  0  0  0
  -22.6375  -23.1301   27.3008 C   0  0  0  0  0  0  0  0  0  0  0  0
  -20.2750  -23.3040   26.5191 C   0  0  0  0  0  0  0  0  0  0  0  0
  -23.6533  -20.3201   21.3660 C   0  0  0  0  0  0  0  0  0  0  0  0
  -29.4064  -27.7481   21.9103 C   0  0  0  0  0  0  0  0  0  0  0  0
  -30.1837  -27.7558   19.0934 C   0  0  0  0  0  0  0  0  0  0  0  0
  -31.9722  -23.2828   19.3991 C   0  0  0  0  0  0  0  0  0  0  0  0
  -27.9046  -27.5428   22.0761 C   0  0  0  0  0  0  0  0  0  1  0  0
  -22.1552  -23.5555   24.8477 C   0  0  1  0  0  0  0  0  0  0  0  0
  -23.0045  -20.0250   23.7598 C   0  0  2  0  0  0  0  0  0  0  0  0
  -21.7032  -23.8511   26.3057 C   0  0  0  0  0  0  0  0  0  0  0  0
  -27.2623  -17.5017   19.7540 N   0  0  0  0  0  0  0  0  0  0  0  0
  -31.0567  -25.5224   19.3243 N   0  0  0  0  0  0  0  0  0  0  0  0
  -27.6225  -18.7110   20.2163 N   0  0  0  0  0  0  0  0  0  0  0  0
  -21.9449  -25.1591   22.9747 N   0  0  0  0  0  0  0  0  0  0  0  0
  -29.4453  -21.0572   17.8118 N   0  0  0  0  0  0  0  0  0  0  0  0
  -28.1186  -19.9030   22.2022 N   0  0  0  0  0  0  0  0  0  0  0  0
  -27.1627  -15.7482   23.6921 N   0  0  0  0  0  0  0  0  0  0  0  0
  -19.7357  -27.9309   22.5663 N   0  0  0  0  0  0  0  0  0  0  0  0
  -22.1424  -22.1404   24.4934 N   0  0  0  0  0  0  0  0  0  0  0  0
  -31.0531  -22.2038   19.1134 N   0  0  0  0  0  0  0  0  0  0  0  0
  -23.8545  -19.5610   22.6270 N   0  3  0  0  0  0  0  0  0  0  0  0
  -27.7613  -17.8658   24.3373 O   0  0  0  0  0  0  0  0  0  0  0  0
  -21.8368  -27.7412   23.5520 O   0  0  0  0  0  0  0  0  0  0  0  0
  -20.0862  -24.0027   23.7773 O   0  0  0  0  0  0  0  0  0  0  0  0
  -24.3861  -22.0002   23.9249 O   0  0  0  0  0  0  0  0  0  0  0  0
  -30.3785  -23.0552   17.0943 O   0  0  0  0  0  0  0  0  0  0  0  0
  -25.7275  -11.3738   20.5553 O   0  0  0  0  0  0  0  0  0  0  0  0
  -27.3079  -27.2982   20.8031 O   0  0  0  0  0  0  0  0  0  1  0  0
  -21.9917   -9.5075   24.1560 F   0  0  0  0  0  0  0  0  0  0  0  0
  -23.3378  -10.2894   19.6859 F   0  0  0  0  0  0  0  0  0  0  0  0
  1  2  1  0  0  0  0
  1  5  2  0  0  0  0
  2  6  2  0  0  0  0
  3  8  2  0  0  0  0
  3 16  1  0  0  0  0
  4  9  1  0  0  0  0
  4 16  2  0  0  0  0
  5 18  1  0  0  0  0
  6 20  1  0  0  0  0
  7 10  2  0  0  0  0
  7 19  1  0  0  0  0
  8 24  1  0  0  0  0
  9 24  2  0  0  0  0
 10 25  1  0  0  0  0
 11 12  2  0  0  0  0
 11 26  1  0  0  0  0
 12 27  1  0  0  0  0
 13 21  1  0  0  0  0
 13 25  2  0  0  0  0
 14 22  2  0  0  0  0
 14 30  1  0  0  0  0
 15 27  2  0  0  0  0
 15 28  1  0  0  0  0
 16 29  1  0  0  0  0
 17 29  1  0  0  0  0
 17 32  2  0  0  0  0
 17 33  1  0  0  0  0
 18 20  2  0  0  0  0
 18 38  1  0  0  0  0
 19 21  2  0  0  0  0
 19 39  1  0  0  0  0
 20 47  1  0  0  0  0
 21 40  1  0  0  0  0
 22 23  1  0  0  0  0
 22 50  1  0  0  0  0
 23 31  2  0  0  0  0
 23 57  1  0  0  0  0
 24 80  1  0  0  0  0
 25 81  1  0  0  0  0
 26 28  2  0  0  0  0
 26 80  1  0  0  0  0
 27 82  1  0  0  0  0
 28 83  1  0  0  0  0
 29 64  2  0  0  0  0
 30 59  1  0  0  0  0
 30 65  2  0  0  0  0
 31 58  1  0  0  0  0
 31 65  1  0  0  0  0
 32 66  1  0  0  0  0
 32 69  1  0  0  0  0
 33 70  1  0  0  0  0
 33 75  2  0  0  0  0
 34 48  1  0  0  0  0
 34 71  1  0  0  0  0
 34 76  2  0  0  0  0
 35 61  1  0  0  0  0
 35 67  1  0  0  0  0
 35 77  2  0  0  0  0
 36 62  1  0  0  0  0
 36 72  1  0  0  0  0
 36 78  2  0  0  0  0
 37 68  1  0  0  0  0
 37 73  1  0  0  0  0
 37 79  2  0  0  0  0
 38 41  1  0  0  0  0
 39 48  1  0  0  0  0
 40 67  1  0  0  0  0
 41 43  1  0  0  0  0
 42 44  1  0  0  0  0
 42 45  1  0  0  0  0
 43 47  1  0  0  0  0
 44 49  1  0  0  0  0
 45 68  1  0  0  0  0
 46 49  1  0  0  0  0
 46 68  1  0  0  0  0
 47 71  1  0  0  0  0
 48 67  1  0  0  0  0
 49 66  1  0  0  0  0
 51 58  1  0  0  0  0
 52 62  1  0  0  0  0
 53 63  1  0  0  0  0
 54 63  1  0  0  0  0
 55 63  1  0  0  0  0
 56 74  1  0  0  0  0
 57 60  1  0  0  0  0
 59 73  1  0  0  0  0
 60 81  1  0  0  0  0
 61 63  1  0  0  0  0
 61 72  1  0  0  0  0
 62 74  1  0  0  0  0
 64 66  1  0  0  0  0
M  CHG  1  74   1
M  ISO  4  37 100  60 101  73 100  81 101
M  END
> <Batch ID>
0031

> <Smiles>
CCc1nc(C[100NH:0][100C:0](=O)N2CCCC(n3nc(-c4ccc(Oc5ccc(F)cc5F)cc4)c(C(N)=O)c3N)C2)cc(C)c1C[101CH2:1][101O:1]c1ccc2c(c1)CN(C(=O)C(NC(=O)C(C)NC)C(C)(C)C)C(C(=O)NC1CCCc3ccccc31)C2

> <Shape>
0.206

> <Color>
0.056

> <Negative vol penalty>
0.000

$$$$

  -OEChem-04052316423D

 86 94  0     1  0  0  0  0  0999 V2000
  -23.0368  -13.9981   23.3862 C   0  0  0  0  0  0  0  0  0  0  0  0
  -23.6869  -15.1636   23.7790 C   0  0  0  0  0  0  0  0  0  0  0  0
  -27.9839  -17.7143   20.5106 C   0  0  0  0  0  0  0  0  0  0  0  0
  -29.8469  -18.0564   22.0103 C   0  0  0  0  0  0  0  0  0  0  0  0
  -22.3837  -13.9464   22.1555 C   0  0  0  0  0  0  0  0  0  0  0  0
  -23.6852  -16.2779   22.9406 C   0  0  0  0  0  0  0  0  0  0  0  0
  -23.6558  -23.4377   23.1712 C   0  0  0  0  0  0  0  0  0  0  0  0
  -28.0568  -16.3393   20.7335 C   0  0  0  0  0  0  0  0  0  0  0  0
  -29.9198  -16.6814   22.2333 C   0  0  0  0  0  0  0  0  0  0  0  0
  -24.3530  -24.5344   22.6665 C   0  0  0  0  0  0  0  0  0  0  0  0
  -29.9536  -13.7442   19.6886 C   0  0  0  0  0  0  0  0  0  0  0  0
  -29.8692  -12.9031   18.5791 C   0  0  0  0  0  0  0  0  0  0  0  0
  -23.1248  -24.3556   20.5980 C   0  0  0  0  0  0  0  0  0  0  0  0
  -23.8096  -29.6056   20.0015 C   0  0  0  0  0  0  0  0  0  0  0  0
  -27.9002  -11.8637   19.5169 C   0  0  0  0  0  0  0  0  0  0  0  0
  -28.8789  -18.5728   21.1489 C   0  0  0  0  0  0  0  0  0  0  0  0
  -28.0483  -20.9335   21.6438 C   0  0  0  0  0  0  0  0  0  0  0  0
  -22.3658  -15.0638   21.3059 C   0  0  0  0  0  0  0  0  0  0  0  0
  -22.6939  -22.7838   22.3878 C   0  0  0  0  0  0  0  0  0  0  0  0
  -23.0324  -16.2407   21.6968 C   0  0  0  0  0  0  0  0  0  0  0  0
  -22.4149  -23.2524   21.0960 C   0  0  0  0  0  0  0  0  0  0  0  0
  -24.9814  -28.8702   20.1407 C   0  0  0  0  0  0  0  0  0  0  0  0
  -29.0248  -15.8229   21.5949 C   0  0  0  0  0  0  0  0  0  0  0  0
  -24.0896  -24.9918   21.3786 C   0  0  0  0  0  0  0  0  0  0  0  0
  -29.0114  -13.6450   20.7123 C   0  0  0  0  0  0  0  0  0  0  0  0
  -25.8872  -29.1994   21.1430 C   0  0  0  0  0  0  0  0  0  0  0  0
  -28.8424  -11.9629   18.4932 C   0  0  0  0  0  0  0  0  0  0  0  0
  -27.9846  -12.7047   20.6265 C   0  0  0  0  0  0  0  0  0  0  0  0
  -28.8044  -19.9932   20.9186 C   0  0  0  0  0  0  0  0  0  0  0  0
  -23.5922  -30.6523   20.8830 C   0  0  0  0  0  0  0  0  0  0  0  0
  -25.5769  -30.2644   21.9733 C   0  0  0  0  0  0  0  0  0  0  0  0
  -28.3189  -22.1346   21.0350 C   0  0  0  0  0  0  0  0  0  0  0  0
  -27.1791  -20.7387   22.7672 C   0  0  0  0  0  0  0  0  0  0  0  0
  -22.3725  -19.8449   21.2203 C   0  0  0  0  0  0  0  0  0  0  0  0
  -19.4675  -20.9511   20.2928 C   0  0  0  0  0  0  0  0  0  0  0  0
  -17.5049  -23.6280   19.4996 C   0  0  0  0  0  0  0  0  0  0  0  0
  -31.9315  -25.7501   18.7939 C   0  0  0  0  0  0  0  0  0  0  0  0
  -21.6869  -14.9449   19.9644 C   0  0  0  0  0  0  0  0  0  0  0  0
  -21.9315  -21.6187   22.9567 C   0  0  0  0  0  0  0  0  0  0  0  0
  -21.3775  -22.5981   20.2220 C   0  0  0  0  0  0  0  0  0  0  0  0
  -21.4133  -16.2911   19.2987 C   0  0  0  0  0  0  0  0  0  0  0  0
  -30.6916  -23.1614   16.6873 C   0  0  0  0  0  0  0  0  0  0  0  0
  -22.6486  -17.1831   19.3708 C   0  0  0  0  0  0  0  0  0  0  0  0
  -30.0336  -22.1816   17.6605 C   0  0  0  0  0  0  0  0  0  0  0  0
  -31.9508  -23.7878   17.2823 C   0  0  0  0  0  0  0  0  0  0  0  0
  -31.1046  -23.4462   19.5716 C   0  0  0  0  0  0  0  0  0  0  0  0
  -23.0318  -17.4784   20.8259 C   0  0  1  0  0  0  0  0  0  0  0  0
  -21.3390  -20.7110   21.8832 C   0  0  1  0  0  0  0  0  0  0  0  0
  -29.7997  -22.8311   19.0377 C   0  0  2  0  0  0  0  0  0  0  0  0
  -22.3455  -31.4636   20.7633 C   0  0  0  0  0  0  0  0  0  0  0  0
  -26.5154  -30.6604   23.0653 C   0  0  0  0  0  0  0  0  0  0  0  0
  -15.1851  -24.2145   18.7435 C   0  0  0  0  0  0  0  0  0  0  0  0
  -20.1582  -20.0301   17.4670 C   0  0  0  0  0  0  0  0  0  0  0  0
  -18.2858  -21.4592   16.6185 C   0  0  0  0  0  0  0  0  0  0  0  0
  -17.8033  -19.5657   18.1692 C   0  0  0  0  0  0  0  0  0  0  0  0
  -16.9880  -25.2223   21.9388 C   0  0  0  0  0  0  0  0  0  0  0  0
  -25.2515  -27.7228   19.1980 C   0  0  0  0  0  0  0  0  0  0  0  0
  -30.6256  -28.5020   20.1232 C   0  0  0  0  0  0  0  0  0  0  0  0
  -29.3696  -28.0368   20.8606 C   0  0  0  0  0  0  0  0  0  0  0  0
  -31.8366  -27.6230   20.4195 C   0  0  0  0  0  0  0  0  0  0  0  0
  -24.4488  -26.4769   19.5561 C   0  0  0  0  0  0  0  0  0  1  0  0
  -28.1849  -28.9529   20.5810 C   0  0  0  0  0  0  0  0  0  0  0  0
  -18.9300  -21.6445   19.0643 C   0  0  1  0  0  0  0  0  0  0  0  0
  -16.1043  -24.0153   19.9385 C   0  0  2  0  0  0  0  0  0  0  0  0
  -18.8153  -20.6862   17.8453 C   0  0  0  0  0  0  0  0  0  0  0  0
  -29.5028  -20.5492   19.9250 N   0  0  0  0  0  0  0  0  0  0  0  0
  -24.4487  -31.0018   21.8688 N   0  0  0  0  0  0  0  0  0  0  0  0
  -29.1866  -21.8518   20.0215 N   0  0  0  0  0  0  0  0  0  0  0  0
  -20.6631  -21.4585   20.8209 N   0  0  0  0  0  0  0  0  0  0  0  0
  -31.6605  -24.3875   18.5868 N   0  0  0  0  0  0  0  0  0  0  0  0
  -27.8967  -23.3946   21.2731 N   0  0  0  0  0  0  0  0  0  0  0  0
  -27.0143  -19.4397   23.2671 N   0  0  0  0  0  0  0  0  0  0  0  0
  -22.1591  -18.4894   21.3832 N   0  0  0  0  0  0  0  0  0  0  0  0
  -17.6681  -22.2593   19.4619 N   0  0  0  0  0  0  0  0  0  0  0  0
  -31.6208  -26.2401   20.0565 N   0  0  0  0  0  0  0  0  0  0  0  0
  -16.1388  -25.2830   20.7213 N   0  3  0  0  0  0  0  0  0  0  0  0
  -26.5539  -21.6859   23.3015 O   0  0  0  0  0  0  0  0  0  0  0  0
  -23.2944  -20.3678   20.6051 O   0  0  0  0  0  0  0  0  0  0  0  0
  -18.8457  -19.9989   20.7705 O   0  0  0  0  0  0  0  0  0  0  0  0
  -18.3668  -24.4566   19.2148 O   0  0  0  0  0  0  0  0  0  0  0  0
  -32.4096  -26.4775   17.9168 O   0  0  0  0  0  0  0  0  0  0  0  0
  -29.0961  -14.4812   21.8128 O   0  0  0  0  0  0  0  0  0  0  0  0
  -24.7692  -26.0617   20.8833 O   0  0  0  0  0  0  0  0  0  1  0  0
  -27.0394  -28.4969   21.3012 O   0  0  0  0  0  0  0  0  0  0  0  0
  -28.7606  -11.1563   17.4269 F   0  0  0  0  0  0  0  0  0  0  0  0
  -27.0758  -12.6055   21.6063 F   0  0  0  0  0  0  0  0  0  0  0  0
  1  2  1  0  0  0  0
  1  5  2  0  0  0  0
  2  6  2  0  0  0  0
  3  8  2  0  0  0  0
  3 16  1  0  0  0  0
  4  9  1  0  0  0  0
  4 16  2  0  0  0  0
  5 18  1  0  0  0  0
  6 20  1  0  0  0  0
  7 10  2  0  0  0  0
  7 19  1  0  0  0  0
  8 23  1  0  0  0  0
  9 23  2  0  0  0  0
 10 24  1  0  0  0  0
 11 12  2  0  0  0  0
 11 25  1  0  0  0  0
 12 27  1  0  0  0  0
 13 21  1  0  0  0  0
 13 24  2  0  0  0  0
 14 22  1  0  0  0  0
 14 30  2  0  0  0  0
 15 27  2  0  0  0  0
 15 28  1  0  0  0  0
 16 29  1  0  0  0  0
 17 29  1  0  0  0  0
 17 32  2  0  0  0  0
 17 33  1  0  0  0  0
 18 20  2  0  0  0  0
 18 38  1  0  0  0  0
 19 21  2  0  0  0  0
 19 39  1  0  0  0  0
 20 47  1  0  0  0  0
 21 40  1  0  0  0  0
 22 26  2  0  0  0  0
 22 57  1  0  0  0  0
 23 82  1  0  0  0  0
 24 83  1  0  0  0  0
 25 28  2  0  0  0  0
 25 82  1  0  0  0  0
 26 31  1  0  0  0  0
 26 84  1  0  0  0  0
 27 85  1  0  0  0  0
 28 86  1  0  0  0  0
 29 66  2  0  0  0  0
 30 50  1  0  0  0  0
 30 67  1  0  0  0  0
 31 51  1  0  0  0  0
 31 67  2  0  0  0  0
 32 68  1  0  0  0  0
 32 71  1  0  0  0  0
 33 72  1  0  0  0  0
 33 77  2  0  0  0  0
 34 48  1  0  0  0  0
 34 73  1  0  0  0  0
 34 78  2  0  0  0  0
 35 63  1  0  0  0  0
 35 69  1  0  0  0  0
 35 79  2  0  0  0  0
 36 64  1  0  0  0  0
 36 74  1  0  0  0  0
 36 80  2  0  0  0  0
 37 70  1  0  0  0  0
 37 75  1  0  0  0  0
 37 81  2  0  0  0  0
 38 41  1  0  0  0  0
 39 48  1  0  0  0  0
 40 69  1  0  0  0  0
 41 43  1  0  0  0  0
 42 44  1  0  0  0  0
 42 45  1  0  0  0  0
 43 47  1  0  0  0  0
 44 49  1  0  0  0  0
 45 70  1  0  0  0  0
 46 49  1  0  0  0  0
 46 70  1  0  0  0  0
 47 73  1  0  0  0  0
 48 69  1  0  0  0  0
 49 68  1  0  0  0  0
 52 64  1  0  0  0  0
 53 65  1  0  0  0  0
 54 65  1  0  0  0  0
 55 65  1  0  0  0  0
 56 76  1  0  0  0  0
 57 61  1  0  0  0  0
 58 59  1  0  0  0  0
 58 60  1  0  0  0  0
 59 62  1  0  0  0  0
 60 75  1  0  0  0  0
 61 83  1  0  0  0  0
 62 84  1  0  0  0  0
 63 65  1  0  0  0  0
 63 74  1  0  0  0  0
 64 76  1  0  0  0  0
 66 68  1  0  0  0  0
M  CHG  1  76   1
M  ISO  4  37 100  61 101  75 100  83 101
M  END
> <Batch ID>
0031

> <Smiles>
CNC(C)C(=O)NC(C(=O)N1Cc2cc([101O:1][101CH2:1]Cc3cc(C)nc(C)c3OCCCC[100NH:0][100C:0](=O)N3CCCC(n4nc(-c5ccc(Oc6ccc(F)cc6F)cc5)c(C(N)=O)c4N)C3)ccc2CC1C(=O)NC1CCCc2ccccc21)C(C)(C)C

> <Shape>
0.226

> <Color>
0.055

> <Negative vol penalty>
0.000

$$$$

  -OEChem-04052316423D

 83 91  0     1  0  0  0  0  0999 V2000
  -26.0462  -11.1932   20.7498 C   0  0  0  0  0  0  0  0  0  0  0  0
  -26.7556  -12.2106   20.1196 C   0  0  0  0  0  0  0  0  0  0  0  0
  -20.5692  -26.8266   22.4581 C   0  0  0  0  0  0  0  0  0  0  0  0
  -20.0250  -29.1792   22.5360 C   0  0  0  0  0  0  0  0  0  0  0  0
  -24.7396  -11.4195   21.1807 C   0  0  0  0  0  0  0  0  0  0  0  0
  -26.1583  -13.4546   19.9190 C   0  0  0  0  0  0  0  0  0  0  0  0
  -28.9065  -18.9254   20.0726 C   0  0  0  0  0  0  0  0  0  0  0  0
  -19.2229  -26.5092   22.6377 C   0  0  0  0  0  0  0  0  0  0  0  0
  -18.6787  -28.8618   22.7155 C   0  0  0  0  0  0  0  0  0  0  0  0
  -29.3854  -19.7631   19.0663 C   0  0  0  0  0  0  0  0  0  0  0  0
  -16.4201  -26.3834   20.7505 C   0  0  0  0  0  0  0  0  0  0  0  0
  -15.8747  -25.3888   19.9387 C   0  0  0  0  0  0  0  0  0  0  0  0
  -29.1753  -25.9628   22.9593 C   0  0  0  0  0  0  0  0  0  0  0  0
  -29.4191  -28.1961   22.0705 C   0  0  0  0  0  0  0  0  0  0  0  0
  -27.3171  -21.0033   19.1226 C   0  0  0  0  0  0  0  0  0  0  0  0
  -15.3342  -24.0849   21.8995 C   0  0  0  0  0  0  0  0  0  0  0  0
  -20.9703  -28.1617   22.4073 C   0  0  0  0  0  0  0  0  0  0  0  0
  -29.1461  -27.3454   23.1417 C   0  0  0  0  0  0  0  0  0  0  0  0
  -23.0330  -28.6863   21.0010 C   0  0  0  0  0  0  0  0  0  0  0  0
  -24.1295  -12.6699   20.9938 C   0  0  0  0  0  0  0  0  0  0  0  0
  -27.6228  -19.1140   20.6047 C   0  0  0  0  0  0  0  0  0  0  0  0
  -24.8419  -13.6974   20.3465 C   0  0  0  0  0  0  0  0  0  0  0  0
  -26.8252  -20.1682   20.1373 C   0  0  0  0  0  0  0  0  0  0  0  0
  -29.7504  -26.2816   20.6345 C   0  0  0  0  0  0  0  0  0  0  0  0
  -18.2776  -27.5268   22.7664 C   0  0  0  0  0  0  0  0  0  0  0  0
  -28.5896  -20.8004   18.5891 C   0  0  0  0  0  0  0  0  0  0  0  0
  -16.4226  -26.2288   22.1368 C   0  0  0  0  0  0  0  0  0  0  0  0
  -15.3317  -24.2396   20.5132 C   0  0  0  0  0  0  0  0  0  0  0  0
  -15.8796  -25.0795   22.7113 C   0  0  0  0  0  0  0  0  0  0  0  0
  -29.4774  -25.4309   21.7057 C   0  0  0  0  0  0  0  0  0  0  0  0
  -29.7212  -27.6642   20.8169 C   0  0  0  0  0  0  0  0  0  0  0  0
  -22.3610  -28.4902   22.2224 C   0  0  0  0  0  0  0  0  0  0  0  0
  -24.3263  -28.9743   21.3631 C   0  0  0  0  0  0  0  0  0  0  0  0
  -28.8285  -27.9062   24.4613 C   0  0  0  0  0  0  0  0  0  0  0  0
  -22.5330  -28.6146   19.6592 C   0  0  0  0  0  0  0  0  0  0  0  0
  -24.9681  -17.3702   20.7298 C   0  0  0  0  0  0  0  0  0  0  0  0
  -23.9219  -19.8050   22.6006 C   0  0  0  0  0  0  0  0  0  0  0  0
  -24.1863  -23.0859   23.5020 C   0  0  0  0  0  0  0  0  0  0  0  0
  -22.6986  -12.8524   21.4342 C   0  0  0  0  0  0  0  0  0  0  0  0
  -27.1312  -18.2182   21.7085 C   0  0  0  0  0  0  0  0  0  0  0  0
  -25.4477  -20.4255   20.6895 C   0  0  0  0  0  0  0  0  0  0  0  0
  -22.2693  -14.3149   21.5192 C   0  0  0  0  0  0  0  0  0  0  0  0
  -26.3372  -30.0319   25.8814 C   0  0  0  0  0  0  0  0  0  0  0  0
  -22.7100  -15.0740   20.2716 C   0  0  0  0  0  0  0  0  0  0  0  0
  -25.1274  -29.8236   24.9687 C   0  0  0  0  0  0  0  0  0  0  0  0
  -27.1381  -28.7443   26.0582 C   0  0  0  0  0  0  0  0  0  0  0  0
  -26.3475  -27.8949   23.8769 C   0  0  0  0  0  0  0  0  0  0  0  0
  -24.2371  -15.0680   20.1329 C   0  0  1  0  0  0  0  0  0  0  0  0
  -25.6099  -18.1842   21.8176 C   0  0  1  0  0  0  0  0  0  0  0  0
  -25.5415  -29.1810   23.6315 C   0  0  1  0  0  0  0  0  0  0  0  0
  -23.1706  -24.7966   25.0315 C   0  0  0  0  0  0  0  0  0  0  0  0
  -21.5096  -20.0277   20.7456 C   0  0  0  0  0  0  0  0  0  0  0  0
  -21.0539  -22.2869   21.7236 C   0  0  0  0  0  0  0  0  0  0  0  0
  -20.9799  -20.2619   23.1785 C   0  0  0  0  0  0  0  0  0  0  0  0
  -26.7496  -23.5103   24.9193 C   0  0  0  0  0  0  0  0  0  0  0  0
  -30.0752  -25.7099   19.2859 C   0  0  0  0  0  0  0  0  0  0  0  0
  -29.6484  -23.8617   16.9973 C   0  0  0  0  0  0  0  0  0  0  0  0
  -29.2621  -25.3325   16.9546 C   0  0  0  0  0  0  0  0  0  0  0  0
  -28.5756  -22.9634   17.6005 C   0  0  0  0  0  0  0  0  0  1  0  0
  -23.2125  -21.1144   22.3534 C   0  0  1  0  0  0  0  0  0  0  0  0
  -24.2643  -23.7534   24.8632 C   0  0  2  0  0  0  0  0  0  0  0  0
  -21.7141  -20.9170   21.9883 C   0  0  0  0  0  0  0  0  0  0  0  0
  -23.1612  -28.6407   23.2812 N   0  0  0  0  0  0  0  0  0  0  0  0
  -24.3494  -28.9344   22.7262 N   0  0  0  0  0  0  0  0  0  0  0  0
  -27.4897  -28.1712   24.7595 N   0  0  0  0  0  0  0  0  0  0  0  0
  -25.0094  -19.5186   21.7632 N   0  0  0  0  0  0  0  0  0  0  0  0
  -25.4345  -29.2552   20.6453 N   0  0  0  0  0  0  0  0  0  0  0  0
  -21.1793  -28.3071   19.4661 N   0  0  0  0  0  0  0  0  0  0  0  0
  -24.8305  -16.0300   21.0368 N   0  0  0  0  0  0  0  0  0  0  0  0
  -23.4353  -21.9302   23.5422 N   0  0  0  0  0  0  0  0  0  0  0  0
  -25.5839  -24.4238   25.0365 N   0  3  0  0  0  0  0  0  0  0  0  0
  -28.9523  -25.8305   18.3153 N   0  3  0  0  0  0  0  0  0  0  0  0
  -29.7838  -28.1130   25.2082 O   0  0  0  0  0  0  0  0  0  0  0  0
  -23.2687  -28.8011   18.6604 O   0  0  0  0  0  0  0  0  0  0  0  0
  -24.6220  -17.9179   19.6897 O   0  0  0  0  0  0  0  0  0  0  0  0
  -23.5302  -19.0669   23.5080 O   0  0  0  0  0  0  0  0  0  0  0  0
  -24.7335  -23.5459   22.5023 O   0  0  0  0  0  0  0  0  0  0  0  0
  -16.9638  -27.2174   22.9414 O   0  0  0  0  0  0  0  0  0  0  0  0
  -29.0544  -21.6191   17.6065 O   0  0  0  0  0  0  0  0  0  1  0  0
  -14.8066  -23.2853   19.7337 F   0  0  0  0  0  0  0  0  0  0  0  0
  -15.8781  -24.9258   24.0425 F   0  0  0  0  0  0  0  0  0  0  0  0
  -29.5018  -23.7137   21.5229 Cl  0  0  0  0  0  0  0  0  0  0  0  0
  -30.0534  -28.7540   19.5191 Cl  0  0  0  0  0  0  0  0  0  0  0  0
  1  2  1  0  0  0  0
  1  5  2  0  0  0  0
  2  6  2  0  0  0  0
  3  8  2  0  0  0  0
  3 17  1  0  0  0  0
  4  9  1  0  0  0  0
  4 17  2  0  0  0  0
  5 20  1  0  0  0  0
  6 22  1  0  0  0  0
  7 10  2  0  0  0  0
  7 21  1  0  0  0  0
  8 25  1  0  0  0  0
  9 25  2  0  0  0  0
 10 26  1  0  0  0  0
 11 12  2  0  0  0  0
 11 27  1  0  0  0  0
 12 28  1  0  0  0  0
 13 18  1  0  0  0  0
 13 30  2  0  0  0  0
 14 18  2  0  0  0  0
 14 31  1  0  0  0  0
 15 23  1  0  0  0  0
 15 26  2  0  0  0  0
 16 28  2  0  0  0  0
 16 29  1  0  0  0  0
 17 32  1  0  0  0  0
 18 34  1  0  0  0  0
 19 32  1  0  0  0  0
 19 33  2  0  0  0  0
 19 35  1  0  0  0  0
 20 22  2  0  0  0  0
 20 39  1  0  0  0  0
 21 23  2  0  0  0  0
 21 40  1  0  0  0  0
 22 48  1  0  0  0  0
 23 41  1  0  0  0  0
 24 30  1  0  0  0  0
 24 31  2  0  0  0  0
 24 56  1  0  0  0  0
 25 78  1  0  0  0  0
 26 79  1  0  0  0  0
 27 29  2  0  0  0  0
 27 78  1  0  0  0  0
 28 80  1  0  0  0  0
 29 81  1  0  0  0  0
 30 82  1  0  0  0  0
 31 83  1  0  0  0  0
 32 63  2  0  0  0  0
 33 64  1  0  0  0  0
 33 67  1  0  0  0  0
 34 65  1  0  0  0  0
 34 73  2  0  0  0  0
 35 68  1  0  0  0  0
 35 74  2  0  0  0  0
 36 49  1  0  0  0  0
 36 69  1  0  0  0  0
 36 75  2  0  0  0  0
 37 60  1  0  0  0  0
 37 66  1  0  0  0  0
 37 76  2  0  0  0  0
 38 61  1  0  0  0  0
 38 70  1  0  0  0  0
 38 77  2  0  0  0  0
 39 42  1  0  0  0  0
 40 49  1  0  0  0  0
 41 66  1  0  0  0  0
 42 44  1  0  0  0  0
 43 45  1  0  0  0  0
 43 46  1  0  0  0  0
 44 48  1  0  0  0  0
 45 50  1  0  0  0  0
 46 65  1  0  0  0  0
 47 50  1  0  0  0  0
 47 65  1  0  0  0  0
 48 69  1  0  0  0  0
 49 66  1  0  0  0  0
 50 64  1  0  0  0  0
 51 61  1  0  0  0  0
 52 62  1  0  0  0  0
 53 62  1  0  0  0  0
 54 62  1  0  0  0  0
 55 71  1  0  0  0  0
 56 72  1  0  0  0  0
 57 58  1  0  0  0  0
 57 59  1  0  0  0  0
 58 72  1  0  0  0  0
 59 79  1  0  0  0  0
 60 62  1  0  0  0  0
 60 70  1  0  0  0  0
 61 71  1  0  0  0  0
 63 64  1  0  0  0  0
M  CHG  2  71   1  72   1
M  ISO  4  18 100  34 100  59 101  79 101
M  END
> <Batch ID>
0031

> <Smiles>
CNC(C)C(=O)NC(C(=O)N1Cc2cc([101O:1][101CH2:1]CCNCc3c(Cl)c[100c:0]([100C:0](=O)N4CCCC(n5nc(-c6ccc(Oc7ccc(F)cc7F)cc6)c(C(N)=O)c5N)C4)cc3Cl)ccc2CC1C(=O)NC1CCCc2ccccc21)C(C)(C)C

> <Shape>
0.225

> <Color>
0.058

> <Negative vol penalty>
0.000

$$$$

  -OEChem-04052316423D

 86 95  0     1  0  0  0  0  0999 V2000
  -24.9017  -26.5326   22.6211 C   0  0  0  0  0  0  0  0  0  0  0  0
  -26.1379  -26.2426   22.0548 C   0  0  0  0  0  0  0  0  0  0  0  0
  -23.0718   -9.8743   19.9414 C   0  0  0  0  0  0  0  0  0  0  0  0
  -23.8370   -9.8771   22.2331 C   0  0  0  0  0  0  0  0  0  0  0  0
  -23.8297  -26.8835   21.8032 C   0  0  0  0  0  0  0  0  0  0  0  0
  -26.3056  -26.3149   20.6715 C   0  0  0  0  0  0  0  0  0  0  0  0
  -30.8783  -25.7622   18.9427 C   0  0  0  0  0  0  0  0  0  0  0  0
  -22.3278   -8.7212   20.1912 C   0  0  0  0  0  0  0  0  0  0  0  0
  -23.0929   -8.7241   22.4829 C   0  0  0  0  0  0  0  0  0  0  0  0
  -31.5391  -24.5346   18.9382 C   0  0  0  0  0  0  0  0  0  0  0  0
  -19.8656   -7.9274   23.0915 C   0  0  0  0  0  0  0  0  0  0  0  0
  -19.1113   -7.8861   24.2641 C   0  0  0  0  0  0  0  0  0  0  0  0
  -30.2488  -20.0578   19.0698 C   0  0  0  0  0  0  0  0  0  0  0  0
  -31.1204  -24.3247   16.5718 C   0  0  0  0  0  0  0  0  0  0  0  0
  -31.6315  -18.3418   20.0601 C   0  0  0  0  0  0  0  0  0  0  0  0
  -20.3531   -5.9467   24.9946 C   0  0  0  0  0  0  0  0  0  0  0  0
  -23.8265  -10.4522   20.9623 C   0  0  0  0  0  0  0  0  0  0  0  0
  -24.1697  -12.9774   20.8455 C   0  0  0  0  0  0  0  0  0  0  0  0
  -23.9820  -26.9477   20.4083 C   0  0  0  0  0  0  0  0  0  0  0  0
  -30.3231  -26.2760   17.7620 C   0  0  0  0  0  0  0  0  0  0  0  0
  -25.2421  -26.6904   19.8310 C   0  0  0  0  0  0  0  0  0  0  0  0
  -29.2070  -19.7159   19.9319 C   0  0  0  0  0  0  0  0  0  0  0  0
  -30.4552  -25.5603   16.5635 C   0  0  0  0  0  0  0  0  0  0  0  0
  -31.4611  -19.3707   19.1338 C   0  0  0  0  0  0  0  0  0  0  0  0
  -30.5896  -17.9999   20.9223 C   0  0  0  0  0  0  0  0  0  0  0  0
  -22.3383   -8.1461   21.4620 C   0  0  0  0  0  0  0  0  0  0  0  0
  -31.6577  -23.8143   17.7533 C   0  0  0  0  0  0  0  0  0  0  0  0
  -20.8637   -6.9783   22.8705 C   0  0  0  0  0  0  0  0  0  0  0  0
  -19.3551   -6.8958   25.2157 C   0  0  0  0  0  0  0  0  0  0  0  0
  -21.1074   -5.9880   23.8220 C   0  0  0  0  0  0  0  0  0  0  0  0
  -29.3774  -18.6870   20.8582 C   0  0  0  0  0  0  0  0  0  0  0  0
  -24.5957  -11.6430   20.7047 C   0  0  0  0  0  0  0  0  0  0  0  0
  -25.2615  -13.7267   20.4809 C   0  0  0  0  0  0  0  0  0  0  0  0
  -22.9005  -13.4933   21.2682 C   0  0  0  0  0  0  0  0  0  0  0  0
  -27.3862  -27.0267   16.8056 C   0  0  0  0  0  0  0  0  0  0  0  0
  -28.9452  -28.1558   14.1947 C   0  0  0  0  0  0  0  0  0  0  0  0
  -31.7152  -28.0513   12.2040 C   0  0  0  0  0  0  0  0  0  0  0  0
  -30.7463  -14.7420   20.6584 C   0  0  0  0  0  0  0  0  0  0  0  0
  -22.7904  -27.3403   19.5710 C   0  0  0  0  0  0  0  0  0  0  0  0
  -29.6367  -27.6143   17.7783 C   0  0  0  0  0  0  0  0  0  0  0  0
  -29.8945  -26.0776   15.2649 C   0  0  0  0  0  0  0  0  0  0  0  0
  -22.9446  -26.9595   18.1021 C   0  0  0  0  0  0  0  0  0  0  0  0
  -26.7900  -22.3824   19.9299 C   0  0  0  0  0  0  0  0  0  0  0  0
  -29.6017  -12.3620   18.2705 C   0  0  0  0  0  0  0  0  0  0  0  0
  -27.4420  -21.4750   20.9904 C   0  0  0  0  0  0  0  0  0  0  0  0
  -27.7912  -21.7893   18.9200 C   0  0  0  0  0  0  0  0  0  0  0  0
  -24.2946  -27.4303   17.5821 C   0  0  0  0  0  0  0  0  0  0  0  0
  -28.1651  -12.0685   18.7062 C   0  0  0  0  0  0  0  0  0  0  0  0
  -30.5217  -12.5803   19.4696 C   0  0  0  0  0  0  0  0  0  0  0  0
  -28.6236  -13.3104   20.8617 C   0  0  0  0  0  0  0  0  0  0  0  0
  -27.8477  -20.5220   19.8255 C   0  0  0  0  0  0  0  0  0  0  0  0
  -25.4401  -26.7327   18.3265 C   0  0  1  0  0  0  0  0  0  0  0  0
  -28.6612  -27.7996   16.6200 C   0  0  1  0  0  0  0  0  0  0  0  0
  -27.6467  -13.1383   19.6860 C   0  0  2  0  0  0  0  0  0  0  0  0
  -32.6842  -29.0633   10.1221 C   0  0  0  0  0  0  0  0  0  0  0  0
  -27.0885  -26.4313   12.4951 C   0  0  0  0  0  0  0  0  0  0  0  0
  -28.6757  -26.7306   10.5821 C   0  0  0  0  0  0  0  0  0  0  0  0
  -27.5292  -28.7130   11.5712 C   0  0  0  0  0  0  0  0  0  0  0  0
  -34.0269  -29.1624   13.6807 C   0  0  0  0  0  0  0  0  0  0  0  0
  -32.5872  -19.7403   18.2017 C   0  0  0  0  0  0  0  0  0  0  0  0
  -30.8163  -16.8905   21.8986 C   0  0  0  0  0  0  0  0  0  0  0  0
  -33.5215  -20.8156   18.7605 C   0  0  0  0  0  0  0  0  0  0  0  0
  -32.8317  -22.1556   18.9887 C   0  0  0  0  0  0  0  0  0  1  0  0
  -29.3740  -27.5722   12.8701 C   0  0  1  0  0  0  0  0  0  0  0  0
  -32.5905  -29.1545   11.6373 C   0  0  2  0  0  0  0  0  0  0  0  0
  -28.1758  -27.3508   11.9043 C   0  0  0  0  0  0  0  0  0  0  0  0
  -25.8596  -11.5471   20.2834 N   0  0  0  0  0  0  0  0  0  0  0  0
  -26.2370  -12.8306   20.1562 N   0  0  0  0  0  0  0  0  0  0  0  0
  -29.2267  -27.3879   15.3335 N   0  0  0  0  0  0  0  0  0  0  0  0
  -29.9738  -13.6078   20.3585 N   0  0  0  0  0  0  0  0  0  0  0  0
  -25.4726  -15.0582   20.4096 N   0  0  0  0  0  0  0  0  0  0  0  0
  -21.8887  -12.5843   21.6063 N   0  0  0  0  0  0  0  0  0  0  0  0
  -26.6921  -27.3540   17.9548 N   0  0  0  0  0  0  0  0  0  0  0  0
  -30.4064  -28.4608   12.3476 N   0  0  0  0  0  0  0  0  0  0  0  0
  -30.1496  -15.6698   21.5033 N   0  0  0  0  0  0  0  0  0  0  0  0
  -33.9677  -29.0635   12.1996 N   0  3  0  0  0  0  0  0  0  0  0  0
  -22.6651  -14.7240   21.3280 O   0  0  0  0  0  0  0  0  0  0  0  0
  -27.0557  -26.1961   15.9675 O   0  0  0  0  0  0  0  0  0  0  0  0
  -28.3876  -29.2559   14.2187 O   0  0  0  0  0  0  0  0  0  0  0  0
  -32.1483  -26.9365   12.4872 O   0  0  0  0  0  0  0  0  0  0  0  0
  -31.8813  -14.9174   20.2025 O   0  0  0  0  0  0  0  0  0  0  0  0
  -21.6122   -7.0211   21.7062 O   0  0  0  0  0  0  0  0  0  0  0  0
  -32.3017  -22.6155   17.7462 O   0  0  0  0  0  0  0  0  0  1  0  0
  -18.6317   -6.8572   26.3423 F   0  0  0  0  0  0  0  0  0  0  0  0
  -22.0657   -5.0742   23.6158 F   0  0  0  0  0  0  0  0  0  0  0  0
  -28.0825  -18.2656   21.9265 Cl  0  0  0  0  0  0  0  0  0  0  0  0
  1  2  1  0  0  0  0
  1  5  2  0  0  0  0
  2  6  2  0  0  0  0
  3  8  2  0  0  0  0
  3 17  1  0  0  0  0
  4  9  1  0  0  0  0
  4 17  2  0  0  0  0
  5 19  1  0  0  0  0
  6 21  1  0  0  0  0
  7 10  2  0  0  0  0
  7 20  1  0  0  0  0
  8 26  1  0  0  0  0
  9 26  2  0  0  0  0
 10 27  1  0  0  0  0
 11 12  2  0  0  0  0
 11 28  1  0  0  0  0
 12 29  1  0  0  0  0
 13 22  1  0  0  0  0
 13 24  2  0  0  0  0
 14 23  1  0  0  0  0
 14 27  2  0  0  0  0
 15 24  1  0  0  0  0
 15 25  2  0  0  0  0
 16 29  2  0  0  0  0
 16 30  1  0  0  0  0
 17 32  1  0  0  0  0
 18 32  1  0  0  0  0
 18 33  2  0  0  0  0
 18 34  1  0  0  0  0
 19 21  2  0  0  0  0
 19 39  1  0  0  0  0
 20 23  2  0  0  0  0
 20 40  1  0  0  0  0
 21 52  1  0  0  0  0
 22 31  2  0  0  0  0
 22 51  1  0  0  0  0
 23 41  1  0  0  0  0
 24 60  1  0  0  0  0
 25 31  1  0  0  0  0
 25 61  1  0  0  0  0
 26 82  1  0  0  0  0
 27 83  1  0  0  0  0
 28 30  2  0  0  0  0
 28 82  1  0  0  0  0
 29 84  1  0  0  0  0
 30 85  1  0  0  0  0
 31 86  1  0  0  0  0
 32 67  2  0  0  0  0
 33 68  1  0  0  0  0
 33 71  1  0  0  0  0
 34 72  1  0  0  0  0
 34 77  2  0  0  0  0
 35 53  1  0  0  0  0
 35 73  1  0  0  0  0
 35 78  2  0  0  0  0
 36 64  1  0  0  0  0
 36 69  1  0  0  0  0
 36 79  2  0  0  0  0
 37 65  1  0  0  0  0
 37 74  1  0  0  0  0
 37 80  2  0  0  0  0
 38 70  1  0  0  0  0
 38 75  1  0  0  0  0
 38 81  2  0  0  0  0
 39 42  1  0  0  0  0
 40 53  1  0  0  0  0
 41 69  1  0  0  0  0
 42 47  1  0  0  0  0
 43 45  1  0  0  0  0
 43 46  1  0  0  0  0
 44 48  1  0  0  0  0
 44 49  1  0  0  0  0
 45 51  1  0  0  0  0
 46 51  1  0  0  0  0
 47 52  1  0  0  0  0
 48 54  1  0  0  0  0
 49 70  1  0  0  0  0
 50 54  1  0  0  0  0
 50 70  1  0  0  0  0
 52 73  1  0  0  0  0
 53 69  1  0  0  0  0
 54 68  1  0  0  0  0
 55 65  1  0  0  0  0
 56 66  1  0  0  0  0
 57 66  1  0  0  0  0
 58 66  1  0  0  0  0
 59 76  1  0  0  0  0
 60 62  1  0  0  0  0
 61 75  1  0  0  0  0
 62 63  1  0  0  0  0
 63 83  1  0  0  0  0
 64 66  1  0  0  0  0
 64 74  1  0  0  0  0
 65 76  1  0  0  0  0
 67 68  1  0  0  0  0
M  CHG  1  76   1
M  ISO  4  38 100  63 101  75 100  83 101
M  END
> <Batch ID>
0031

> <Smiles>
CNC(C)C(=O)NC(C(=O)N1Cc2cc([101O:1][101CH2:1]CCc3cc(C[100NH:0][100C:0](=O)N4CCCC(n5nc(-c6ccc(Oc7ccc(F)cc7F)cc6)c(C(N)=O)c5N)C4)c(Cl)c(C4CCC4)c3)ccc2CC1C(=O)NC1CCCc2ccccc21)C(C)(C)C

> <Shape>
0.258

> <Color>
0.196

> <Negative vol penalty>
0.000

$$$$

  -OEChem-04052316423D

 77 85  0     1  0  0  0  0  0999 V2000
  -19.9895  -34.8627   22.4091 C   0  0  0  0  0  0  0  0  0  0  0  0
  -21.3226  -34.4666   22.3724 C   0  0  0  0  0  0  0  0  0  0  0  0
  -25.3038  -16.0011   21.5456 C   0  0  0  0  0  0  0  0  0  0  0  0
  -25.1824  -15.5667   19.1720 C   0  0  0  0  0  0  0  0  0  0  0  0
  -19.0027  -33.9514   22.7831 C   0  0  0  0  0  0  0  0  0  0  0  0
  -21.6698  -33.1591   22.7108 C   0  0  0  0  0  0  0  0  0  0  0  0
  -26.1681  -29.7956   20.2699 C   0  0  0  0  0  0  0  0  0  0  0  0
  -24.1287  -15.2748   21.7386 C   0  0  0  0  0  0  0  0  0  0  0  0
  -24.0073  -14.8404   19.3651 C   0  0  0  0  0  0  0  0  0  0  0  0
  -27.4670  -29.5175   20.6934 C   0  0  0  0  0  0  0  0  0  0  0  0
  -21.3567  -13.2310   22.9021 C   0  0  0  0  0  0  0  0  0  0  0  0
  -21.3222  -12.3227   23.9600 C   0  0  0  0  0  0  0  0  0  0  0  0
  -26.6990  -27.4506   21.6718 C   0  0  0  0  0  0  0  0  0  0  0  0
  -23.1753  -11.1171   22.9855 C   0  0  0  0  0  0  0  0  0  0  0  0
  -30.8315  -25.1799   21.5027 C   0  0  0  0  0  0  0  0  0  0  0  0
  -25.8306  -16.1472   20.2622 C   0  0  0  0  0  0  0  0  0  0  0  0
  -28.3624  -16.4045   20.0848 C   0  0  0  0  0  0  0  0  0  0  0  0
  -19.3370  -32.6295   23.1169 C   0  0  0  0  0  0  0  0  0  0  0  0
  -25.1212  -28.9070   20.5541 C   0  0  0  0  0  0  0  0  0  0  0  0
  -20.6868  -32.2297   23.0909 C   0  0  0  0  0  0  0  0  0  0  0  0
  -25.3882  -27.7185   21.2485 C   0  0  0  0  0  0  0  0  0  0  0  0
  -23.4805  -14.6944   20.6484 C   0  0  0  0  0  0  0  0  0  0  0  0
  -27.7321  -28.3463   21.3969 C   0  0  0  0  0  0  0  0  0  0  0  0
  -22.3005  -13.0823   21.8857 C   0  0  0  0  0  0  0  0  0  0  0  0
  -22.2315  -11.2657   24.0018 C   0  0  0  0  0  0  0  0  0  0  0  0
  -23.2098  -12.0254   21.9275 C   0  0  0  0  0  0  0  0  0  0  0  0
  -27.0441  -16.8978   20.0621 C   0  0  0  0  0  0  0  0  0  0  0  0
  -30.6585  -24.1667   20.5935 C   0  0  0  0  0  0  0  0  0  0  0  0
  -29.1456  -17.5064   19.8422 C   0  0  0  0  0  0  0  0  0  0  0  0
  -28.8366  -15.0695   20.3053 C   0  0  0  0  0  0  0  0  0  0  0  0
  -30.3950  -22.7524   20.8857 C   0  0  0  0  0  0  0  0  0  0  0  0
  -22.4171  -29.0845   22.2155 C   0  0  0  0  0  0  0  0  0  0  0  0
  -21.9211  -26.1259   20.9813 C   0  0  0  0  0  0  0  0  0  0  0  0
  -23.2565  -23.2763   19.6611 C   0  0  0  0  0  0  0  0  0  0  0  0
  -18.2408  -31.6935   23.5607 C   0  0  0  0  0  0  0  0  0  0  0  0
  -23.7304  -29.2087   20.0671 C   0  0  0  0  0  0  0  0  0  0  0  0
  -24.3031  -26.7219   21.5613 C   0  0  0  0  0  0  0  0  0  0  0  0
  -18.6510  -30.2232   23.5427 C   0  0  0  0  0  0  0  0  0  0  0  0
  -27.9083  -22.1619   18.3099 C   0  0  0  0  0  0  0  0  0  0  0  0
  -20.0187  -30.0425   24.1934 C   0  0  0  0  0  0  0  0  0  0  0  0
  -27.5581  -20.6939   18.5566 C   0  0  0  0  0  0  0  0  0  0  0  0
  -28.1891  -22.8938   19.6187 C   0  0  0  0  0  0  0  0  0  0  0  0
  -28.9023  -20.7900   20.7044 C   0  0  0  0  0  0  0  0  0  0  0  0
  -21.1004  -30.8134   23.4271 C   0  0  1  0  0  0  0  0  0  0  0  0
  -22.6489  -28.4807   20.8592 C   0  0  1  0  0  0  0  0  0  0  0  0
  -28.6349  -20.0004   19.4112 C   0  0  1  0  0  0  0  0  0  0  0  0
  -22.6034  -21.0184   18.7820 C   0  0  0  0  0  0  0  0  0  0  0  0
  -21.4719  -25.1470   23.8362 C   0  0  0  0  0  0  0  0  0  0  0  0
  -21.7723  -22.8042   23.0059 C   0  0  0  0  0  0  0  0  0  0  0  0
  -19.8904  -24.1983   22.1470 C   0  0  0  0  0  0  0  0  0  0  0  0
  -24.3759  -23.8657   16.9855 C   0  0  0  0  0  0  0  0  0  0  0  0
  -31.2969  -27.6933   21.1743 C   0  0  0  0  0  0  0  0  0  0  0  0
  -30.0676  -28.5812   21.0149 C   0  0  0  0  0  0  0  0  0  1  0  0
  -22.2533  -24.7180   21.4131 C   0  0  1  0  0  0  0  0  0  0  0  0
  -22.8902  -22.4694   18.4285 C   0  0  2  0  0  0  0  0  0  0  0  0
  -21.3673  -24.2364   22.5965 C   0  0  0  0  0  0  0  0  0  0  0  0
  -26.9890  -18.2109   19.8241 N   0  0  0  0  0  0  0  0  0  0  0  0
  -30.7676  -24.6645   19.3247 N   0  0  0  0  0  0  0  0  0  0  0  0
  -31.0053  -25.9683   19.4166 N   0  0  0  0  0  0  0  0  0  0  0  0
  -31.0432  -26.2753   20.7235 N   0  0  0  0  0  0  0  0  0  0  0  0
  -28.2824  -18.5521   19.6951 N   0  0  0  0  0  0  0  0  0  0  0  0
  -29.2137  -22.1877   20.3985 N   0  0  0  0  0  0  0  0  0  0  0  0
  -22.9585  -27.0650   21.0694 N   0  0  0  0  0  0  0  0  0  0  0  0
  -30.4815  -17.6732   19.7426 N   0  0  0  0  0  0  0  0  0  0  0  0
  -27.8966  -14.0567   20.5395 N   0  0  0  0  0  0  0  0  0  0  0  0
  -21.4772  -30.0974   22.2272 N   0  0  0  0  0  0  0  0  0  0  0  0
  -22.1534  -23.8897   20.2162 N   0  0  0  0  0  0  0  0  0  0  0  0
  -24.0043  -22.5007   17.4391 N   0  3  0  0  0  0  0  0  0  0  0  0
  -30.0586  -14.7862   20.3113 O   0  0  0  0  0  0  0  0  0  0  0  0
  -31.2553  -22.1640   21.5390 O   0  0  0  0  0  0  0  0  0  0  0  0
  -23.0435  -28.6617   23.1801 O   0  0  0  0  0  0  0  0  0  0  0  0
  -20.7851  -26.3814   20.5740 O   0  0  0  0  0  0  0  0  0  0  0  0
  -24.4055  -23.3515   20.0908 O   0  0  0  0  0  0  0  0  0  0  0  0
  -22.3340  -13.9854   20.8364 O   0  0  0  0  0  0  0  0  0  0  0  0
  -28.9989  -28.0727   21.8120 O   0  0  0  0  0  0  0  0  0  1  0  0
  -22.1992  -10.3944   25.0187 F   0  0  0  0  0  0  0  0  0  0  0  0
  -24.1195  -11.8781   20.9546 F   0  0  0  0  0  0  0  0  0  0  0  0
  1  2  1  0  0  0  0
  1  5  2  0  0  0  0
  2  6  2  0  0  0  0
  3  8  2  0  0  0  0
  3 16  1  0  0  0  0
  4  9  1  0  0  0  0
  4 16  2  0  0  0  0
  5 18  1  0  0  0  0
  6 20  1  0  0  0  0
  7 10  2  0  0  0  0
  7 19  1  0  0  0  0
  8 22  1  0  0  0  0
  9 22  2  0  0  0  0
 10 23  1  0  0  0  0
 11 12  2  0  0  0  0
 11 24  1  0  0  0  0
 12 25  1  0  0  0  0
 13 21  1  0  0  0  0
 13 23  2  0  0  0  0
 14 25  2  0  0  0  0
 14 26  1  0  0  0  0
 15 28  2  0  0  0  0
 15 60  1  0  0  0  0
 16 27  1  0  0  0  0
 17 27  1  0  0  0  0
 17 29  2  0  0  0  0
 17 30  1  0  0  0  0
 18 20  2  0  0  0  0
 18 35  1  0  0  0  0
 19 21  2  0  0  0  0
 19 36  1  0  0  0  0
 20 44  1  0  0  0  0
 21 37  1  0  0  0  0
 22 74  1  0  0  0  0
 23 75  1  0  0  0  0
 24 26  2  0  0  0  0
 24 74  1  0  0  0  0
 25 76  1  0  0  0  0
 26 77  1  0  0  0  0
 27 57  2  0  0  0  0
 28 31  1  0  0  0  0
 28 58  1  0  0  0  0
 29 61  1  0  0  0  0
 29 64  1  0  0  0  0
 30 65  1  0  0  0  0
 30 69  2  0  0  0  0
 31 62  1  0  0  0  0
 31 70  2  0  0  0  0
 32 45  1  0  0  0  0
 32 66  1  0  0  0  0
 32 71  2  0  0  0  0
 33 54  1  0  0  0  0
 33 63  1  0  0  0  0
 33 72  2  0  0  0  0
 34 55  1  0  0  0  0
 34 67  1  0  0  0  0
 34 73  2  0  0  0  0
 35 38  1  0  0  0  0
 36 45  1  0  0  0  0
 37 63  1  0  0  0  0
 38 40  1  0  0  0  0
 39 41  1  0  0  0  0
 39 42  1  0  0  0  0
 40 44  1  0  0  0  0
 41 46  1  0  0  0  0
 42 62  1  0  0  0  0
 43 46  1  0  0  0  0
 43 62  1  0  0  0  0
 44 66  1  0  0  0  0
 45 63  1  0  0  0  0
 46 61  1  0  0  0  0
 47 55  1  0  0  0  0
 48 56  1  0  0  0  0
 49 56  1  0  0  0  0
 50 56  1  0  0  0  0
 51 68  1  0  0  0  0
 52 53  1  0  0  0  0
 52 60  1  0  0  0  0
 53 75  1  0  0  0  0
 54 56  1  0  0  0  0
 54 67  1  0  0  0  0
 55 68  1  0  0  0  0
 57 61  1  0  0  0  0
 58 59  2  0  0  0  0
 59 60  1  0  0  0  0
M  CHG  1  68   1
M  ISO  4  28 100  31 100  53 101  75 101
M  END
> <Batch ID>
0031

> <Smiles>
CNC(C)C(=O)NC(C(=O)N1Cc2cc([101O:1][101CH2:1]Cn3c[100c:0]([100C:0](=O)N4CCCC(n5nc(-c6ccc(Oc7ccc(F)cc7F)cc6)c(C(N)=O)c5N)C4)nn3)ccc2CC1C(=O)NC1CCCc2ccccc21)C(C)(C)C

> <Shape>
0.235

> <Color>
0.093

> <Negative vol penalty>
0.000

$$$$

  -OEChem-04052316423D

 87 96  0     1  0  0  0  0  0999 V2000
  -29.8861  -20.8928   28.0479 C   0  0  0  0  0  0  0  0  0  0  0  0
  -30.3064  -20.7604   26.7283 C   0  0  0  0  0  0  0  0  0  0  0  0
  -23.0018   -9.8905   19.9815 C   0  0  0  0  0  0  0  0  0  0  0  0
  -23.7304   -9.9431   22.2844 C   0  0  0  0  0  0  0  0  0  0  0  0
  -29.0886  -21.9745   28.4191 C   0  0  0  0  0  0  0  0  0  0  0  0
  -29.9283  -21.7091   25.7789 C   0  0  0  0  0  0  0  0  0  0  0  0
  -33.7758  -23.1204   22.8040 C   0  0  0  0  0  0  0  0  0  0  0  0
  -22.2379   -8.7545   20.2491 C   0  0  0  0  0  0  0  0  0  0  0  0
  -22.9664   -8.8071   22.5520 C   0  0  0  0  0  0  0  0  0  0  0  0
  -34.1401  -22.2494   21.7781 C   0  0  0  0  0  0  0  0  0  0  0  0
  -23.2166   -5.4686   22.0801 C   0  0  0  0  0  0  0  0  0  0  0  0
  -23.8072   -4.4527   22.8314 C   0  0  0  0  0  0  0  0  0  0  0  0
  -32.9111  -23.6009   20.2025 C   0  0  0  0  0  0  0  0  0  0  0  0
  -30.3352  -19.9510   18.9634 C   0  0  0  0  0  0  0  0  0  0  0  0
  -31.6763  -18.2413   20.0195 C   0  0  0  0  0  0  0  0  0  0  0  0
  -22.0854   -4.6924   24.5092 C   0  0  0  0  0  0  0  0  0  0  0  0
  -23.7481  -10.4847   20.9991 C   0  0  0  0  0  0  0  0  0  0  0  0
  -24.1282  -13.0011   20.8223 C   0  0  0  0  0  0  0  0  0  0  0  0
  -28.7086  -22.9421   27.4758 C   0  0  0  0  0  0  0  0  0  0  0  0
  -32.9660  -24.2340   22.5383 C   0  0  0  0  0  0  0  0  0  0  0  0
  -29.1238  -22.8040   26.1375 C   0  0  0  0  0  0  0  0  0  0  0  0
  -32.5401  -24.4858   21.2263 C   0  0  0  0  0  0  0  0  0  0  0  0
  -29.2747  -19.6463   19.8167 C   0  0  0  0  0  0  0  0  0  0  0  0
  -30.6158  -17.9366   20.8729 C   0  0  0  0  0  0  0  0  0  0  0  0
  -31.5360  -19.2485   19.0648 C   0  0  0  0  0  0  0  0  0  0  0  0
  -22.2202   -8.2128   21.5343 C   0  0  0  0  0  0  0  0  0  0  0  0
  -33.7054  -22.4880   20.4776 C   0  0  0  0  0  0  0  0  0  0  0  0
  -22.0603   -6.0966   22.5433 C   0  0  0  0  0  0  0  0  0  0  0  0
  -23.2417   -4.0645   24.0459 C   0  0  0  0  0  0  0  0  0  0  0  0
  -21.4948   -5.7084   23.7579 C   0  0  0  0  0  0  0  0  0  0  0  0
  -29.4150  -18.6392   20.7715 C   0  0  0  0  0  0  0  0  0  0  0  0
  -24.5379  -11.6579   20.7232 C   0  0  0  0  0  0  0  0  0  0  0  0
  -25.2360  -13.7258   20.4562 C   0  0  0  0  0  0  0  0  0  0  0  0
  -22.8598  -13.5450   21.2107 C   0  0  0  0  0  0  0  0  0  0  0  0
  -30.0882  -25.1926   23.4884 C   0  0  0  0  0  0  0  0  0  0  0  0
  -30.8595  -27.8689   21.8257 C   0  0  0  0  0  0  0  0  0  0  0  0
  -32.7119  -29.3057   19.3455 C   0  0  0  0  0  0  0  0  0  0  0  0
  -30.7309  -14.6711   20.6963 C   0  0  0  0  0  0  0  0  0  0  0  0
  -27.8065  -24.0685   27.9142 C   0  0  0  0  0  0  0  0  0  0  0  0
  -32.6040  -25.1787   23.6513 C   0  0  0  0  0  0  0  0  0  0  0  0
  -31.6859  -25.6785   20.8851 C   0  0  0  0  0  0  0  0  0  0  0  0
  -27.7603  -25.2316   26.9266 C   0  0  0  0  0  0  0  0  0  0  0  0
  -29.5915  -12.2450   18.3528 C   0  0  0  0  0  0  0  0  0  0  0  0
  -27.5786  -24.7158   25.5026 C   0  0  0  0  0  0  0  0  0  0  0  0
  -31.5072  -19.1734   14.5654 C   0  0  0  0  0  0  0  0  0  0  0  0
  -32.2150  -18.0344   15.2449 C   0  0  0  0  0  0  0  0  0  0  0  0
  -28.1441  -11.9825   18.7726 C   0  0  0  0  0  0  0  0  0  0  0  0
  -30.4952  -12.4823   19.5606 C   0  0  0  0  0  0  0  0  0  0  0  0
  -28.5856  -13.2742   20.9022 C   0  0  0  0  0  0  0  0  0  0  0  0
  -28.7551  -23.8258   25.0839 C   0  0  1  0  0  0  0  0  0  0  0  0
  -31.3505  -25.9969   23.3566 C   0  0  1  0  0  0  0  0  0  0  0  0
  -31.5299  -19.0908   16.0666 C   0  0  0  0  0  0  0  0  0  0  0  0
  -27.6251  -13.0845   19.7157 C   0  0  2  0  0  0  0  0  0  0  0  0
  -28.0057  -20.4233   19.6704 C   0  0  0  0  0  0  0  0  0  0  0  0
  -33.0968  -31.5024   18.1949 C   0  0  0  0  0  0  0  0  0  0  0  0
  -28.2353  -27.5302   20.3063 C   0  0  0  0  0  0  0  0  0  0  0  0
  -29.1056  -29.1278   18.5863 C   0  0  0  0  0  0  0  0  0  0  0  0
  -28.7773  -29.8881   20.9394 C   0  0  0  0  0  0  0  0  0  0  0  0
  -35.5581  -29.3628   20.1546 C   0  0  0  0  0  0  0  0  0  0  0  0
  -30.8112  -16.8503   21.8811 C   0  0  0  0  0  0  0  0  0  0  0  0
  -32.3344  -20.0631   16.8604 C   0  0  0  0  0  0  0  0  0  0  0  0
  -33.9742  -19.3901   18.6229 C   0  0  0  0  0  0  0  0  0  0  0  0
  -34.2696  -20.2719   19.8247 C   0  0  0  0  0  0  0  0  0  1  0  0
  -30.6898  -28.3260   20.3969 C   0  0  1  0  0  0  0  0  0  0  0  0
  -33.5424  -30.5760   19.3157 C   0  0  2  0  0  0  0  0  0  0  0  0
  -29.2165  -28.6944   20.0636 C   0  0  0  0  0  0  0  0  0  0  0  0
  -25.8068  -11.5338   20.3251 N   0  0  0  0  0  0  0  0  0  0  0  0
  -26.2041  -12.8083   20.1708 N   0  0  0  0  0  0  0  0  0  0  0  0
  -31.3532  -26.5695   22.0089 N   0  0  0  0  0  0  0  0  0  0  0  0
  -29.9476  -13.5400   20.4134 N   0  0  0  0  0  0  0  0  0  0  0  0
  -25.4668  -15.0519   20.3536 N   0  0  0  0  0  0  0  0  0  0  0  0
  -21.8303  -12.6589   21.5559 N   0  0  0  0  0  0  0  0  0  0  0  0
  -29.9040  -24.6357   24.7396 N   0  0  0  0  0  0  0  0  0  0  0  0
  -31.6374  -29.4179   20.2023 N   0  0  0  0  0  0  0  0  0  0  0  0
  -30.1339  -15.6288   21.5070 N   0  0  0  0  0  0  0  0  0  0  0  0
  -32.6004  -19.5538   18.2061 N   0  0  3  0  0  0  0  0  0  0  0  0
  -34.9819  -30.2491   19.1109 N   0  3  0  0  0  0  0  0  0  0  0  0
  -22.6407  -14.7799   21.2346 O   0  0  0  0  0  0  0  0  0  0  0  0
  -29.3362  -25.0865   22.5267 O   0  0  0  0  0  0  0  0  0  0  0  0
  -30.5717  -28.6391   22.7452 O   0  0  0  0  0  0  0  0  0  0  0  0
  -32.9866  -28.3143   18.6729 O   0  0  0  0  0  0  0  0  0  0  0  0
  -31.8754  -14.8192   20.2545 O   0  0  0  0  0  0  0  0  0  0  0  0
  -21.4747   -7.1045   21.7959 O   0  0  0  0  0  0  0  0  0  0  0  0
  -34.0589  -21.6391   19.4745 O   0  0  0  0  0  0  0  0  0  1  0  0
  -23.8081   -3.0878   24.7666 F   0  0  0  0  0  0  0  0  0  0  0  0
  -20.3834   -6.3071   24.2075 F   0  0  0  0  0  0  0  0  0  0  0  0
  -28.0984  -18.2608   21.8310 Cl  0  0  0  0  0  0  0  0  0  0  0  0
  1  2  1  0  0  0  0
  1  5  2  0  0  0  0
  2  6  2  0  0  0  0
  3  8  2  0  0  0  0
  3 17  1  0  0  0  0
  4  9  1  0  0  0  0
  4 17  2  0  0  0  0
  5 19  1  0  0  0  0
  6 21  1  0  0  0  0
  7 10  2  0  0  0  0
  7 20  1  0  0  0  0
  8 26  1  0  0  0  0
  9 26  2  0  0  0  0
 10 27  1  0  0  0  0
 11 12  2  0  0  0  0
 11 28  1  0  0  0  0
 12 29  1  0  0  0  0
 13 22  1  0  0  0  0
 13 27  2  0  0  0  0
 14 23  2  0  0  0  0
 14 25  1  0  0  0  0
 15 24  1  0  0  0  0
 15 25  2  0  0  0  0
 16 29  2  0  0  0  0
 16 30  1  0  0  0  0
 17 32  1  0  0  0  0
 18 32  1  0  0  0  0
 18 33  2  0  0  0  0
 18 34  1  0  0  0  0
 19 21  2  0  0  0  0
 19 39  1  0  0  0  0
 20 22  2  0  0  0  0
 20 40  1  0  0  0  0
 21 50  1  0  0  0  0
 22 41  1  0  0  0  0
 23 31  1  0  0  0  0
 23 54  1  0  0  0  0
 24 31  2  0  0  0  0
 24 60  1  0  0  0  0
 25 76  1  0  0  0  0
 26 83  1  0  0  0  0
 27 84  1  0  0  0  0
 28 30  2  0  0  0  0
 28 83  1  0  0  0  0
 29 85  1  0  0  0  0
 30 86  1  0  0  0  0
 31 87  1  0  0  0  0
 32 67  2  0  0  0  0
 33 68  1  0  0  0  0
 33 71  1  0  0  0  0
 34 72  1  0  0  0  0
 34 78  2  0  0  0  0
 35 51  1  0  0  0  0
 35 73  1  0  0  0  0
 35 79  2  0  0  0  0
 36 64  1  0  0  0  0
 36 69  1  0  0  0  0
 36 80  2  0  0  0  0
 37 65  1  0  0  0  0
 37 74  1  0  0  0  0
 37 81  2  0  0  0  0
 38 70  1  0  0  0  0
 38 75  1  0  0  0  0
 38 82  2  0  0  0  0
 39 42  1  0  0  0  0
 40 51  1  0  0  0  0
 41 69  1  0  0  0  0
 42 44  1  0  0  0  0
 43 47  1  0  0  0  0
 43 48  1  0  0  0  0
 44 50  1  0  0  0  0
 45 46  1  0  0  0  0
 45 52  1  0  0  0  0
 46 52  1  0  0  0  0
 47 53  1  0  0  0  0
 48 70  1  0  0  0  0
 49 53  1  0  0  0  0
 49 70  1  0  0  0  0
 50 73  1  0  0  0  0
 51 69  1  0  0  0  0
 52 61  1  0  0  0  0
 53 68  1  0  0  0  0
 55 65  1  0  0  0  0
 56 66  1  0  0  0  0
 57 66  1  0  0  0  0
 58 66  1  0  0  0  0
 59 77  1  0  0  0  0
 60 75  1  0  0  0  0
 61 76  1  0  0  0  0
 62 63  1  0  0  0  0
 62 76  1  0  0  0  0
 63 84  1  0  0  0  0
 64 66  1  0  0  0  0
 64 74  1  0  0  0  0
 65 77  1  0  0  0  0
 67 68  1  0  0  0  0
M  CHG  1  77   1
M  ISO  4  38 100  63 101  75 100  84 101
M  END
> <Batch ID>
0031

> <Smiles>
CNC(C)C(=O)NC(C(=O)N1Cc2cc([101O:1][101CH2:1]CN(CC3CC3)c3cc(C)c(Cl)c(C[100NH:0][100C:0](=O)N4CCCC(n5nc(-c6ccc(Oc7ccc(F)cc7F)cc6)c(C(N)=O)c5N)C4)c3)ccc2CC1C(=O)NC1CCCc2ccccc21)C(C)(C)C

> <Shape>
0.227

> <Color>
0.206

> <Negative vol penalty>
0.000

$$$$

  -OEChem-04052316423D

 89 97  0     1  0  0  0  0  0999 V2000
  -24.1585  -17.5623   17.8259 C   0  0  0  0  0  0  0  0  0  0  0  0
  -23.9543  -18.9375   17.8411 C   0  0  0  0  0  0  0  0  0  0  0  0
  -24.2775  -12.0026   20.0556 C   0  0  0  0  0  0  0  0  0  0  0  0
  -25.3887  -13.6270   21.4569 C   0  0  0  0  0  0  0  0  0  0  0  0
  -25.2133  -17.0102   18.5495 C   0  0  0  0  0  0  0  0  0  0  0  0
  -24.8120  -19.7620   18.5701 C   0  0  0  0  0  0  0  0  0  0  0  0
  -24.2169  -24.6184   18.0552 C   0  0  0  0  0  0  0  0  0  0  0  0
  -25.5138  -11.5724   19.5738 C   0  0  0  0  0  0  0  0  0  0  0  0
  -26.6250  -13.1967   20.9752 C   0  0  0  0  0  0  0  0  0  0  0  0
  -23.1306  -25.3060   18.5945 C   0  0  0  0  0  0  0  0  0  0  0  0
  -28.5081  -13.6361   18.2017 C   0  0  0  0  0  0  0  0  0  0  0  0
  -29.4370  -14.6111   17.8385 C   0  0  0  0  0  0  0  0  0  0  0  0
  -24.5434  -26.1386   20.3636 C   0  0  0  0  0  0  0  0  0  0  0  0
  -18.0842  -27.2987   22.6048 C   0  0  0  0  0  0  0  0  0  0  0  0
  -20.5262  -28.6332   22.4092 C   0  0  0  0  0  0  0  0  0  0  0  0
  -30.9842  -13.7492   19.4818 C   0  0  0  0  0  0  0  0  0  0  0  0
  -24.2149  -13.0300   20.9971 C   0  0  0  0  0  0  0  0  0  0  0  0
  -22.2441  -12.9828   22.6161 C   0  0  0  0  0  0  0  0  0  0  0  0
  -26.0764  -17.8278   19.2976 C   0  0  0  0  0  0  0  0  0  0  0  0
  -25.4743  -24.6770   18.6733 C   0  0  0  0  0  0  0  0  0  0  0  0
  -25.8967  -19.2260   19.2876 C   0  0  0  0  0  0  0  0  0  0  0  0
  -25.6447  -25.4529   19.8287 C   0  0  0  0  0  0  0  0  0  0  0  0
  -18.7257  -27.7516   23.7576 C   0  0  0  0  0  0  0  0  0  0  0  0
  -19.8847  -28.1803   21.2564 C   0  0  0  0  0  0  0  0  0  0  0  0
  -26.6876  -12.1694   20.0337 C   0  0  0  0  0  0  0  0  0  0  0  0
  -23.2930  -26.0639   19.7504 C   0  0  0  0  0  0  0  0  0  0  0  0
  -28.8172  -12.7176   19.2051 C   0  0  0  0  0  0  0  0  0  0  0  0
  -30.6751  -14.6677   18.4785 C   0  0  0  0  0  0  0  0  0  0  0  0
  -30.0552  -12.7742   19.8451 C   0  0  0  0  0  0  0  0  0  0  0  0
  -19.9467  -28.4189   23.6598 C   0  0  0  0  0  0  0  0  0  0  0  0
  -18.6637  -27.5130   21.3542 C   0  0  0  0  0  0  0  0  0  0  0  0
  -22.9381  -13.4752   21.4946 C   0  0  0  0  0  0  0  0  0  0  0  0
  -21.0931  -13.7307   22.6633 C   0  0  0  0  0  0  0  0  0  0  0  0
  -22.6074  -11.9423   23.5333 C   0  0  0  0  0  0  0  0  0  0  0  0
  -27.4192  -22.5465   20.0081 C   0  0  0  0  0  0  0  0  0  0  0  0
  -29.4337  -25.0821   20.1953 C   0  0  0  0  0  0  0  0  0  0  0  0
  -29.8234  -28.4706   20.3087 C   0  0  0  0  0  0  0  0  0  0  0  0
  -19.6912  -19.1884   20.6385 C   0  0  0  0  0  0  0  0  0  0  0  0
  -27.2067  -17.1782   20.0561 C   0  0  0  0  0  0  0  0  0  0  0  0
  -26.6423  -23.9511   18.0640 C   0  0  0  0  0  0  0  0  0  0  0  0
  -26.9787  -25.5650   20.5191 C   0  0  0  0  0  0  0  0  0  0  0  0
  -27.7853  -18.0759   21.1450 C   0  0  0  0  0  0  0  0  0  0  0  0
  -18.0646  -16.1244   19.8368 C   0  0  0  0  0  0  0  0  0  0  0  0
  -28.0848  -19.4550   20.5769 C   0  0  0  0  0  0  0  0  0  0  0  0
  -19.0665  -15.0536   20.2719 C   0  0  0  0  0  0  0  0  0  0  0  0
  -18.7657  -17.3514   19.2581 C   0  0  0  0  0  0  0  0  0  0  0  0
  -20.7996  -16.8727   20.5648 C   0  0  0  0  0  0  0  0  0  0  0  0
  -26.7983  -20.1396   20.0981 C   0  0  1  0  0  0  0  0  0  0  0  0
  -27.7574  -23.6667   19.0656 C   0  0  1  0  0  0  0  0  0  0  0  0
  -20.1422  -15.6389   21.2066 C   0  0  2  0  0  0  0  0  0  0  0  0
  -31.5872  -30.2453   20.5001 C   0  0  0  0  0  0  0  0  0  0  0  0
  -29.7082  -24.4846   23.1748 C   0  0  0  0  0  0  0  0  0  0  0  0
  -30.6719  -26.7759   23.4744 C   0  0  0  0  0  0  0  0  0  0  0  0
  -31.8447  -25.1098   22.0351 C   0  0  0  0  0  0  0  0  0  0  0  0
  -29.1076  -29.6288   17.6810 C   0  0  0  0  0  0  0  0  0  0  0  0
  -18.0655  -27.5001   25.0898 C   0  0  0  0  0  0  0  0  0  0  0  0
  -20.5383  -28.4287   19.9351 C   0  0  0  0  0  0  0  0  0  0  0  0
  -18.7028  -26.3596   25.8917 C   0  0  0  0  0  0  0  0  0  0  0  0
  -18.6704  -25.0169   25.1533 C   0  0  0  0  0  0  0  0  0  0  0  0
  -19.3441  -23.9167   25.9773 C   0  0  0  0  0  0  0  0  0  0  0  0
  -19.2782  -22.5359   25.3179 C   0  0  0  0  0  0  0  0  0  0  0  0
  -20.0183  -22.4641   23.9795 C   0  0  0  0  0  0  0  0  0  0  0  0
  -19.9451  -21.0544   23.3828 C   0  0  0  0  0  0  0  0  0  0  0  0
  -20.7280  -20.9224   22.0798 C   0  0  0  0  0  0  0  0  0  0  0  0
  -21.2306  -27.1857   19.3714 C   0  0  0  0  0  0  0  0  0  1  0  0
  -29.6985  -26.1642   21.2140 C   0  0  1  0  0  0  0  0  0  0  0  0
  -30.7493  -29.4040   19.5499 C   0  0  2  0  0  0  0  0  0  0  0  0
  -30.4551  -25.6302   22.4629 C   0  0  0  0  0  0  0  0  0  0  0  0
  -22.2827  -14.4597   20.8740 N   0  0  0  0  0  0  0  0  0  0  0  0
  -21.1647  -14.5919   21.6081 N   0  0  0  0  0  0  0  0  0  0  0  0
  -28.0887  -24.8318   19.8885 N   0  0  0  0  0  0  0  0  0  0  0  0
  -19.7721  -17.8584   20.1940 N   0  0  0  0  0  0  0  0  0  0  0  0
  -20.0368  -13.7291   23.5039 N   0  0  0  0  0  0  0  0  0  0  0  0
  -23.8249  -11.2757   23.3392 N   0  0  0  0  0  0  0  0  0  0  0  0
  -27.1448  -21.3465   19.3803 N   0  0  0  0  0  0  0  0  0  0  0  0
  -30.3955  -27.2313   20.5042 N   0  0  0  0  0  0  0  0  0  0  0  0
  -20.6808  -19.5863   21.5290 N   0  0  0  0  0  0  0  0  0  0  0  0
  -29.9605  -30.3220   18.6804 N   0  3  0  0  0  0  0  0  0  0  0  0
  -21.8665  -11.6024   24.4867 O   0  0  0  0  0  0  0  0  0  0  0  0
  -27.4095  -22.7550   21.2156 O   0  0  0  0  0  0  0  0  0  0  0  0
  -30.3855  -24.4858   19.6851 O   0  0  0  0  0  0  0  0  0  0  0  0
  -28.7059  -28.8083   20.6931 O   0  0  0  0  0  0  0  0  0  0  0  0
  -18.7997  -19.9622   20.2733 O   0  0  0  0  0  0  0  0  0  0  0  0
  -27.8941  -11.7497   19.5640 O   0  0  0  0  0  0  0  0  0  0  0  0
  -22.2267  -26.7402   20.2830 O   0  0  0  0  0  0  0  0  0  1  0  0
  -31.5677  -15.6031   18.1286 F   0  0  0  0  0  0  0  0  0  0  0  0
  -30.3583  -11.8938   20.8089 F   0  0  0  0  0  0  0  0  0  0  0  0
  -20.7683  -28.9945   25.0644 Cl  0  0  0  0  0  0  0  0  0  0  0  0
  -17.8411  -26.9384   19.9497 Cl  0  0  0  0  0  0  0  0  0  0  0  0
  1  2  1  0  0  0  0
  1  5  2  0  0  0  0
  2  6  2  0  0  0  0
  3  8  2  0  0  0  0
  3 17  1  0  0  0  0
  4  9  1  0  0  0  0
  4 17  2  0  0  0  0
  5 19  1  0  0  0  0
  6 21  1  0  0  0  0
  7 10  2  0  0  0  0
  7 20  1  0  0  0  0
  8 25  1  0  0  0  0
  9 25  2  0  0  0  0
 10 26  1  0  0  0  0
 11 12  2  0  0  0  0
 11 27  1  0  0  0  0
 12 28  1  0  0  0  0
 13 22  1  0  0  0  0
 13 26  2  0  0  0  0
 14 23  2  0  0  0  0
 14 31  1  0  0  0  0
 15 24  1  0  0  0  0
 15 30  2  0  0  0  0
 16 28  2  0  0  0  0
 16 29  1  0  0  0  0
 17 32  1  0  0  0  0
 18 32  1  0  0  0  0
 18 33  2  0  0  0  0
 18 34  1  0  0  0  0
 19 21  2  0  0  0  0
 19 39  1  0  0  0  0
 20 22  2  0  0  0  0
 20 40  1  0  0  0  0
 21 48  1  0  0  0  0
 22 41  1  0  0  0  0
 23 30  1  0  0  0  0
 23 56  1  0  0  0  0
 24 31  2  0  0  0  0
 24 57  1  0  0  0  0
 25 84  1  0  0  0  0
 26 85  1  0  0  0  0
 27 29  2  0  0  0  0
 27 84  1  0  0  0  0
 28 86  1  0  0  0  0
 29 87  1  0  0  0  0
 30 88  1  0  0  0  0
 31 89  1  0  0  0  0
 32 69  2  0  0  0  0
 33 70  1  0  0  0  0
 33 73  1  0  0  0  0
 34 74  1  0  0  0  0
 34 79  2  0  0  0  0
 35 49  1  0  0  0  0
 35 75  1  0  0  0  0
 35 80  2  0  0  0  0
 36 66  1  0  0  0  0
 36 71  1  0  0  0  0
 36 81  2  0  0  0  0
 37 67  1  0  0  0  0
 37 76  1  0  0  0  0
 37 82  2  0  0  0  0
 38 72  1  0  0  0  0
 38 77  1  0  0  0  0
 38 83  2  0  0  0  0
 39 42  1  0  0  0  0
 40 49  1  0  0  0  0
 41 71  1  0  0  0  0
 42 44  1  0  0  0  0
 43 45  1  0  0  0  0
 43 46  1  0  0  0  0
 44 48  1  0  0  0  0
 45 50  1  0  0  0  0
 46 72  1  0  0  0  0
 47 50  1  0  0  0  0
 47 72  1  0  0  0  0
 48 75  1  0  0  0  0
 49 71  1  0  0  0  0
 50 70  1  0  0  0  0
 51 67  1  0  0  0  0
 52 68  1  0  0  0  0
 53 68  1  0  0  0  0
 54 68  1  0  0  0  0
 55 78  1  0  0  0  0
 56 58  1  0  0  0  0
 57 65  1  0  0  0  0
 58 59  1  0  0  0  0
 59 60  1  0  0  0  0
 60 61  1  0  0  0  0
 61 62  1  0  0  0  0
 62 63  1  0  0  0  0
 63 64  1  0  0  0  0
 64 77  1  0  0  0  0
 65 85  1  0  0  0  0
 66 68  1  0  0  0  0
 66 76  1  0  0  0  0
 67 78  1  0  0  0  0
 69 70  1  0  0  0  0
M  CHG  1  78   1
M  ISO  4  38 100  65 101  77 100  85 101
M  END
> <Batch ID>
0031

> <Smiles>
CNC(C)C(=O)NC(C(=O)N1Cc2cc([101O:1][101CH2:1]Cc3cc(Cl)c(CCCCCCCC[100NH:0][100C:0](=O)N4CCCC(n5nc(-c6ccc(Oc7ccc(F)cc7F)cc6)c(C(N)=O)c5N)C4)cc3Cl)ccc2CC1C(=O)NC1CCCc2ccccc21)C(C)(C)C

> <Shape>
0.193

> <Color>
0.066

> <Negative vol penalty>
0.000

$$$$

  -OEChem-04052316423D

 82 90  0     1  0  0  0  0  0999 V2000
  -22.5276  -23.8149   19.5861 C   0  0  0  0  0  0  0  0  0  0  0  0
  -23.7035  -23.1326   19.8812 C   0  0  0  0  0  0  0  0  0  0  0  0
  -22.6207  -27.7733   20.6421 C   0  0  0  0  0  0  0  0  0  0  0  0
  -23.3790  -26.0492   22.1553 C   0  0  0  0  0  0  0  0  0  0  0  0
  -21.2977  -23.2779   19.9641 C   0  0  0  0  0  0  0  0  0  0  0  0
  -23.6502  -21.9132   20.5555 C   0  0  0  0  0  0  0  0  0  0  0  0
  -26.6950  -18.4246   18.5051 C   0  0  0  0  0  0  0  0  0  0  0  0
  -21.3316  -27.6639   21.1635 C   0  0  0  0  0  0  0  0  0  0  0  0
  -22.0899  -25.9399   22.6768 C   0  0  0  0  0  0  0  0  0  0  0  0
  -28.0555  -18.5173   18.7952 C   0  0  0  0  0  0  0  0  0  0  0  0
  -19.6581  -28.7098   23.9091 C   0  0  0  0  0  0  0  0  0  0  0  0
  -18.9758  -29.8901   24.2039 C   0  0  0  0  0  0  0  0  0  0  0  0
  -27.8118  -16.7903   20.4617 C   0  0  0  0  0  0  0  0  0  0  0  0
  -31.4378  -20.3451   20.3938 C   0  0  0  0  0  0  0  0  0  0  0  0
  -31.1303  -22.5022   21.4373 C   0  0  0  0  0  0  0  0  0  0  0  0
  -17.2376  -29.2752   22.6425 C   0  0  0  0  0  0  0  0  0  0  0  0
  -23.6444  -26.9659   21.1380 C   0  0  0  0  0  0  0  0  0  0  0  0
  -26.0064  -27.9255   21.0490 C   0  0  0  0  0  0  0  0  0  0  0  0
  -21.2288  -22.0466   20.6349 C   0  0  0  0  0  0  0  0  0  0  0  0
  -25.8791  -17.5202   19.2000 C   0  0  0  0  0  0  0  0  0  0  0  0
  -22.4183  -21.3598   20.9441 C   0  0  0  0  0  0  0  0  0  0  0  0
  -26.4417  -16.6862   20.1768 C   0  0  0  0  0  0  0  0  0  0  0  0
  -31.2781  -21.7266   20.2874 C   0  0  0  0  0  0  0  0  0  0  0  0
  -31.4496  -19.7390   21.6501 C   0  0  0  0  0  0  0  0  0  0  0  0
  -31.3018  -20.5146   22.8000 C   0  0  0  0  0  0  0  0  0  0  0  0
  -21.0662  -26.7473   22.1808 C   0  0  0  0  0  0  0  0  0  0  0  0
  -28.6136  -17.7021   19.7756 C   0  0  0  0  0  0  0  0  0  0  0  0
  -19.1303  -27.8122   22.9810 C   0  0  0  0  0  0  0  0  0  0  0  0
  -17.7656  -30.1728   23.5706 C   0  0  0  0  0  0  0  0  0  0  0  0
  -17.9200  -28.0949   22.3477 C   0  0  0  0  0  0  0  0  0  0  0  0
  -31.1421  -21.8962   22.6937 C   0  0  0  0  0  0  0  0  0  0  0  0
  -24.9762  -27.0780   20.5994 C   0  0  0  0  0  0  0  0  0  0  0  0
  -27.0624  -27.6553   20.2134 C   0  0  0  0  0  0  0  0  0  0  0  0
  -26.0087  -28.8722   22.1258 C   0  0  0  0  0  0  0  0  0  0  0  0
  -23.3529  -17.7889   21.1105 C   0  0  0  0  0  0  0  0  0  0  0  0
  -23.3595  -14.5502   20.9287 C   0  0  0  0  0  0  0  0  0  0  0  0
  -25.1224  -11.6839   20.3600 C   0  0  0  0  0  0  0  0  0  0  0  0
  -29.5197  -23.2305   17.4031 C   0  0  0  0  0  0  0  0  0  0  0  0
  -19.8791  -21.5290   21.0652 C   0  0  0  0  0  0  0  0  0  0  0  0
  -24.4186  -17.4135   18.8567 C   0  0  0  0  0  0  0  0  0  0  0  0
  -25.6130  -15.6845   20.9373 C   0  0  0  0  0  0  0  0  0  0  0  0
  -19.8867  -20.0505   21.4451 C   0  0  0  0  0  0  0  0  0  0  0  0
  -27.5239  -25.6500   15.7180 C   0  0  0  0  0  0  0  0  0  0  0  0
  -21.0685  -19.7400   22.3582 C   0  0  0  0  0  0  0  0  0  0  0  0
  -26.7592  -26.3436   16.8468 C   0  0  0  0  0  0  0  0  0  0  0  0
  -27.7068  -24.1591   15.9933 C   0  0  0  0  0  0  0  0  0  0  0  0
  -27.5567  -24.5343   18.4245 C   0  0  0  0  0  0  0  0  0  0  0  0
  -22.4002  -20.0226   21.6523 C   0  0  1  0  0  0  0  0  0  0  0  0
  -23.5813  -16.8196   19.9853 C   0  0  1  0  0  0  0  0  0  0  0  0
  -27.3962  -26.0502   18.2185 C   0  0  2  0  0  0  0  0  0  0  0  0
  -31.3160  -19.8484   24.1406 C   0  0  0  0  0  0  0  0  0  0  0  0
  -24.8651   -9.1879   20.3212 C   0  0  0  0  0  0  0  0  0  0  0  0
  -23.3722  -14.5038   23.9795 C   0  0  0  0  0  0  0  0  0  0  0  0
  -24.0664  -12.1008   23.8707 C   0  0  0  0  0  0  0  0  0  0  0  0
  -21.8726  -12.8079   22.9167 C   0  0  0  0  0  0  0  0  0  0  0  0
  -25.8580  -11.5364   17.4971 C   0  0  0  0  0  0  0  0  0  0  0  0
  -31.6226  -18.2420   21.7348 C   0  0  0  0  0  0  0  0  0  0  0  0
  -31.2667  -22.3740   18.9438 C   0  0  0  0  0  0  0  0  0  0  0  0
  -30.3396  -17.4900   21.3978 C   0  0  0  0  0  0  0  0  0  1  0  0
  -24.0069  -13.4365   21.7159 C   0  0  1  0  0  0  0  0  0  0  0  0
  -24.8197  -10.4686   19.5022 C   0  0  2  0  0  0  0  0  0  0  0  0
  -23.3450  -13.2324   23.1079 C   0  0  0  0  0  0  0  0  0  0  0  0
  -25.3443  -26.3259   19.5588 N   0  0  0  0  0  0  0  0  0  0  0  0
  -26.6177  -26.6999   19.3476 N   0  0  0  0  0  0  0  0  0  0  0  0
  -24.1887  -15.6223   20.5699 N   0  0  0  0  0  0  0  0  0  0  0  0
  -28.3167  -23.9495   17.3086 N   0  0  0  0  0  0  0  0  0  0  0  0
  -28.3187  -28.1443   20.1420 N   0  0  0  0  0  0  0  0  0  0  0  0
  -24.8398  -29.0245   22.8839 N   0  0  0  0  0  0  0  0  0  0  0  0
  -22.7187  -18.9555   20.7280 N   0  0  0  0  0  0  0  0  0  0  0  0
  -23.9714  -12.2566   20.8586 N   0  0  0  0  0  0  0  0  0  0  0  0
  -30.0332  -23.0831   18.6858 N   0  0  0  0  0  0  0  0  0  0  0  0
  -25.8123  -10.3548   18.3964 N   0  3  0  0  0  0  0  0  0  0  0  0
  -27.0121  -29.5744   22.3969 O   0  0  0  0  0  0  0  0  0  0  0  0
  -23.7232  -17.4991   22.2421 O   0  0  0  0  0  0  0  0  0  0  0  0
  -22.1638  -14.4684   20.6366 O   0  0  0  0  0  0  0  0  0  0  0  0
  -26.2657  -12.0829   20.5701 O   0  0  0  0  0  0  0  0  0  0  0  0
  -30.0964  -22.7598   16.4168 O   0  0  0  0  0  0  0  0  0  0  0  0
  -19.8085  -26.6405   22.6900 O   0  0  0  0  0  0  0  0  0  0  0  0
  -29.9411  -17.7911   20.0610 O   0  0  0  0  0  0  0  0  0  1  0  0
  -17.1097  -31.3056   23.8549 F   0  0  0  0  0  0  0  0  0  0  0  0
  -17.4074  -27.2359   21.4561 F   0  0  0  0  0  0  0  0  0  0  0  0
  -30.9580  -22.8909   24.0929 Cl  0  0  0  0  0  0  0  0  0  0  0  0
  1  2  1  0  0  0  0
  1  5  2  0  0  0  0
  2  6  2  0  0  0  0
  3  8  2  0  0  0  0
  3 17  1  0  0  0  0
  4  9  1  0  0  0  0
  4 17  2  0  0  0  0
  5 19  1  0  0  0  0
  6 21  1  0  0  0  0
  7 10  2  0  0  0  0
  7 20  1  0  0  0  0
  8 26  1  0  0  0  0
  9 26  2  0  0  0  0
 10 27  1  0  0  0  0
 11 12  2  0  0  0  0
 11 28  1  0  0  0  0
 12 29  1  0  0  0  0
 13 22  1  0  0  0  0
 13 27  2  0  0  0  0
 14 23  2  0  0  0  0
 14 24  1  0  0  0  0
 15 23  1  0  0  0  0
 15 31  2  0  0  0  0
 16 29  2  0  0  0  0
 16 30  1  0  0  0  0
 17 32  1  0  0  0  0
 18 32  1  0  0  0  0
 18 33  2  0  0  0  0
 18 34  1  0  0  0  0
 19 21  2  0  0  0  0
 19 39  1  0  0  0  0
 20 22  2  0  0  0  0
 20 40  1  0  0  0  0
 21 48  1  0  0  0  0
 22 41  1  0  0  0  0
 23 58  1  0  0  0  0
 24 25  2  0  0  0  0
 24 57  1  0  0  0  0
 25 31  1  0  0  0  0
 25 51  1  0  0  0  0
 26 78  1  0  0  0  0
 27 79  1  0  0  0  0
 28 30  2  0  0  0  0
 28 78  1  0  0  0  0
 29 80  1  0  0  0  0
 30 81  1  0  0  0  0
 31 82  1  0  0  0  0
 32 63  2  0  0  0  0
 33 64  1  0  0  0  0
 33 67  1  0  0  0  0
 34 68  1  0  0  0  0
 34 73  2  0  0  0  0
 35 49  1  0  0  0  0
 35 69  1  0  0  0  0
 35 74  2  0  0  0  0
 36 60  1  0  0  0  0
 36 65  1  0  0  0  0
 36 75  2  0  0  0  0
 37 61  1  0  0  0  0
 37 70  1  0  0  0  0
 37 76  2  0  0  0  0
 38 66  1  0  0  0  0
 38 71  1  0  0  0  0
 38 77  2  0  0  0  0
 39 42  1  0  0  0  0
 40 49  1  0  0  0  0
 41 65  1  0  0  0  0
 42 44  1  0  0  0  0
 43 45  1  0  0  0  0
 43 46  1  0  0  0  0
 44 48  1  0  0  0  0
 45 50  1  0  0  0  0
 46 66  1  0  0  0  0
 47 50  1  0  0  0  0
 47 66  1  0  0  0  0
 48 69  1  0  0  0  0
 49 65  1  0  0  0  0
 50 64  1  0  0  0  0
 52 61  1  0  0  0  0
 53 62  1  0  0  0  0
 54 62  1  0  0  0  0
 55 62  1  0  0  0  0
 56 72  1  0  0  0  0
 57 59  1  0  0  0  0
 58 71  1  0  0  0  0
 59 79  1  0  0  0  0
 60 62  1  0  0  0  0
 60 70  1  0  0  0  0
 61 72  1  0  0  0  0
 63 64  1  0  0  0  0
M  CHG  1  72   1
M  ISO  4  38 100  59 101  71 100  79 101
M  END
> <Batch ID>
0031

> <Smiles>
CNC(C)C(=O)NC(C(=O)N1Cc2cc([101O:1][101CH2:1]Cc3cc(C[100NH:0][100C:0](=O)N4CCCC(n5nc(-c6ccc(Oc7ccc(F)cc7F)cc6)c(C(N)=O)c5N)C4)cc(Cl)c3C)ccc2CC1C(=O)NC1CCCc2ccccc21)C(C)(C)C

> <Shape>
0.215

> <Color>
0.071

> <Negative vol penalty>
0.000

$$$$

  -OEChem-04052316423D

 87 95  0     1  0  0  0  0  0999 V2000
  -32.2809  -14.0158   21.4603 C   0  0  0  0  0  0  0  0  0  0  0  0
  -31.4317  -15.0187   21.9168 C   0  0  0  0  0  0  0  0  0  0  0  0
  -30.1476  -23.8083   19.6326 C   0  0  0  0  0  0  0  0  0  0  0  0
  -27.8108  -23.5670   19.0688 C   0  0  0  0  0  0  0  0  0  0  0  0
  -31.8200  -13.0820   20.5332 C   0  0  0  0  0  0  0  0  0  0  0  0
  -30.1212  -15.0890   21.4456 C   0  0  0  0  0  0  0  0  0  0  0  0
  -25.1711  -16.8662   24.5832 C   0  0  0  0  0  0  0  0  0  0  0  0
  -30.2293  -22.4381   19.8807 C   0  0  0  0  0  0  0  0  0  0  0  0
  -27.8924  -22.1968   19.3168 C   0  0  0  0  0  0  0  0  0  0  0  0
  -24.4836  -18.0776   24.6432 C   0  0  0  0  0  0  0  0  0  0  0  0
  -29.0230  -19.4412   17.7202 C   0  0  0  0  0  0  0  0  0  0  0  0
  -28.4322  -18.5804   16.7952 C   0  0  0  0  0  0  0  0  0  0  0  0
  -22.9222  -17.2662   22.9931 C   0  0  0  0  0  0  0  0  0  0  0  0
  -22.5944  -25.5831   24.3049 C   0  0  0  0  0  0  0  0  0  0  0  0
  -26.9835  -17.7162   18.5248 C   0  0  0  0  0  0  0  0  0  0  0  0
  -28.9384  -24.3728   19.2267 C   0  0  0  0  0  0  0  0  0  0  0  0
  -29.0803  -26.4461   17.7472 C   0  0  0  0  0  0  0  0  0  0  0  0
  -30.5002  -13.1352   20.0577 C   0  0  0  0  0  0  0  0  0  0  0  0
  -24.7450  -15.8480   23.7182 C   0  0  0  0  0  0  0  0  0  0  0  0
  -29.6425  -14.1559   20.5103 C   0  0  0  0  0  0  0  0  0  0  0  0
  -23.6046  -16.0419   22.9259 C   0  0  0  0  0  0  0  0  0  0  0  0
  -22.5384  -24.1895   24.2832 C   0  0  0  0  0  0  0  0  0  0  0  0
  -21.4730  -26.3318   23.9476 C   0  0  0  0  0  0  0  0  0  0  0  0
  -21.3611  -23.5447   23.9041 C   0  0  0  0  0  0  0  0  0  0  0  0
  -20.2397  -24.2934   23.5467 C   0  0  0  0  0  0  0  0  0  0  0  0
  -29.1017  -21.6323   19.7227 C   0  0  0  0  0  0  0  0  0  0  0  0
  -23.3607  -18.2788   23.8460 C   0  0  0  0  0  0  0  0  0  0  0  0
  -28.5941  -19.4395   19.0475 C   0  0  0  0  0  0  0  0  0  0  0  0
  -27.4124  -17.7179   17.1975 C   0  0  0  0  0  0  0  0  0  0  0  0
  -27.5743  -18.5770   19.4498 C   0  0  0  0  0  0  0  0  0  0  0  0
  -20.2957  -25.6870   23.5684 C   0  0  0  0  0  0  0  0  0  0  0  0
  -28.8532  -25.7882   18.9709 C   0  0  0  0  0  0  0  0  0  0  0  0
  -28.8745  -27.7746   18.0283 C   0  0  0  0  0  0  0  0  0  0  0  0
  -29.4447  -25.9046   16.4706 C   0  0  0  0  0  0  0  0  0  0  0  0
  -26.0230  -14.3372   21.2307 C   0  0  0  0  0  0  0  0  0  0  0  0
  -23.3440  -12.5217   21.4532 C   0  0  0  0  0  0  0  0  0  0  0  0
  -20.1024  -12.2552   22.4864 C   0  0  0  0  0  0  0  0  0  0  0  0
  -25.6600  -30.6069   22.2111 C   0  0  0  0  0  0  0  0  0  0  0  0
  -30.0615  -12.1322   19.0202 C   0  0  0  0  0  0  0  0  0  0  0  0
  -25.4819  -14.5372   23.6849 C   0  0  0  0  0  0  0  0  0  0  0  0
  -23.0943  -14.9730   21.9955 C   0  0  0  0  0  0  0  0  0  0  0  0
  -28.5462  -12.0515   18.8536 C   0  0  0  0  0  0  0  0  0  0  0  0
  -29.1549  -30.9307   21.6131 C   0  0  0  0  0  0  0  0  0  0  0  0
  -27.9442  -13.4499   18.7601 C   0  0  0  0  0  0  0  0  0  0  0  0
  -29.4944  -29.7088   20.7578 C   0  0  0  0  0  0  0  0  0  0  0  0
  -28.0954  -30.6071   22.6642 C   0  0  0  0  0  0  0  0  0  0  0  0
  -27.2010  -28.7766   21.2774 C   0  0  0  0  0  0  0  0  0  0  0  0
  -28.2068  -14.2504   20.0414 C   0  0  1  0  0  0  0  0  0  0  0  0
  -25.2614  -13.7605   22.3905 C   0  0  1  0  0  0  0  0  0  0  0  0
  -28.2244  -29.0679   20.1665 C   0  0  2  0  0  0  0  0  0  0  0  0
  -23.7529  -23.4115   24.6701 C   0  0  0  0  0  0  0  0  0  0  0  0
  -18.9846  -23.5826   23.1437 C   0  0  0  0  0  0  0  0  0  0  0  0
  -18.1617  -10.6642   22.4940 C   0  0  0  0  0  0  0  0  0  0  0  0
  -22.8419  -13.1239   18.5044 C   0  0  0  0  0  0  0  0  0  0  0  0
  -20.4848  -12.3403   18.8176 C   0  0  0  0  0  0  0  0  0  0  0  0
  -22.3810  -10.7604   19.1797 C   0  0  0  0  0  0  0  0  0  0  0  0
  -20.0177  -12.1903   25.4440 C   0  0  0  0  0  0  0  0  0  0  0  0
  -21.5795  -27.8227   23.9855 C   0  0  0  0  0  0  0  0  0  0  0  0
  -21.3054  -22.0380   23.8836 C   0  0  0  0  0  0  0  0  0  0  0  0
  -22.3431  -28.3785   22.7751 C   0  0  0  0  0  0  0  0  0  0  0  0
  -22.0130  -21.4117   22.6801 C   0  0  0  0  0  0  0  0  0  0  0  0
  -22.4768  -29.9026   22.8444 C   0  0  0  0  0  0  0  0  0  0  0  0
  -23.2439  -30.4786   21.6586 C   0  0  0  0  0  0  0  0  0  0  0  0
  -22.0255  -19.8879   22.7127 C   0  0  0  0  0  0  0  0  0  1  0  0
  -21.9535  -12.5918   20.8695 C   0  0  1  0  0  0  0  0  0  0  0  0
  -19.3771  -11.1670   23.2574 C   0  0  2  0  0  0  0  0  0  0  0  0
  -21.9258  -12.2252   19.3588 C   0  0  0  0  0  0  0  0  0  0  0  0
  -28.5281  -26.6295   19.9561 N   0  0  0  0  0  0  0  0  0  0  0  0
  -28.5496  -27.8297   19.3517 N   0  0  0  0  0  0  0  0  0  0  0  0
  -23.8526  -13.7111   21.9940 N   0  0  0  0  0  0  0  0  0  0  0  0
  -26.9166  -30.0036   22.0380 N   0  0  0  0  0  0  0  0  0  0  0  0
  -28.9416  -28.8895   17.2700 N   0  0  0  0  0  0  0  0  0  0  0  0
  -29.6161  -24.5182   16.3571 N   0  0  0  0  0  0  0  0  0  0  0  0
  -27.3024  -13.8340   21.0917 N   0  0  0  0  0  0  0  0  0  0  0  0
  -21.1160  -11.7396   21.7067 N   0  0  0  0  0  0  0  0  0  0  0  0
  -24.5967  -29.9742   21.5788 N   0  0  0  0  0  0  0  0  0  0  0  0
  -18.9213  -11.6843   24.5786 N   0  3  0  0  0  0  0  0  0  0  0  0
  -29.6295  -26.6304   15.4643 O   0  0  0  0  0  0  0  0  0  0  0  0
  -25.4888  -15.1755   20.5140 O   0  0  0  0  0  0  0  0  0  0  0  0
  -23.9535  -11.4494   21.4365 O   0  0  0  0  0  0  0  0  0  0  0  0
  -19.7976  -13.4432   22.5649 O   0  0  0  0  0  0  0  0  0  0  0  0
  -25.4985  -31.6365   22.8752 O   0  0  0  0  0  0  0  0  0  0  0  0
  -29.1811  -20.2952   19.9644 O   0  0  0  0  0  0  0  0  0  0  0  0
  -22.6881  -19.4605   23.9021 O   0  0  0  0  0  0  0  0  0  1  0  0
  -26.8441  -16.8924   16.3088 F   0  0  0  0  0  0  0  0  0  0  0  0
  -27.1572  -18.5717   20.7233 F   0  0  0  0  0  0  0  0  0  0  0  0
  -18.9053  -26.6202   23.1244 Cl  0  0  0  0  0  0  0  0  0  0  0  0
  1  2  1  0  0  0  0
  1  5  2  0  0  0  0
  2  6  2  0  0  0  0
  3  8  2  0  0  0  0
  3 16  1  0  0  0  0
  4  9  1  0  0  0  0
  4 16  2  0  0  0  0
  5 18  1  0  0  0  0
  6 20  1  0  0  0  0
  7 10  2  0  0  0  0
  7 19  1  0  0  0  0
  8 26  1  0  0  0  0
  9 26  2  0  0  0  0
 10 27  1  0  0  0  0
 11 12  2  0  0  0  0
 11 28  1  0  0  0  0
 12 29  1  0  0  0  0
 13 21  1  0  0  0  0
 13 27  2  0  0  0  0
 14 22  2  0  0  0  0
 14 23  1  0  0  0  0
 15 29  2  0  0  0  0
 15 30  1  0  0  0  0
 16 32  1  0  0  0  0
 17 32  1  0  0  0  0
 17 33  2  0  0  0  0
 17 34  1  0  0  0  0
 18 20  2  0  0  0  0
 18 39  1  0  0  0  0
 19 21  2  0  0  0  0
 19 40  1  0  0  0  0
 20 48  1  0  0  0  0
 21 41  1  0  0  0  0
 22 24  1  0  0  0  0
 22 51  1  0  0  0  0
 23 31  2  0  0  0  0
 23 58  1  0  0  0  0
 24 25  2  0  0  0  0
 24 59  1  0  0  0  0
 25 31  1  0  0  0  0
 25 52  1  0  0  0  0
 26 83  1  0  0  0  0
 27 84  1  0  0  0  0
 28 30  2  0  0  0  0
 28 83  1  0  0  0  0
 29 85  1  0  0  0  0
 30 86  1  0  0  0  0
 31 87  1  0  0  0  0
 32 68  2  0  0  0  0
 33 69  1  0  0  0  0
 33 72  1  0  0  0  0
 34 73  1  0  0  0  0
 34 78  2  0  0  0  0
 35 49  1  0  0  0  0
 35 74  1  0  0  0  0
 35 79  2  0  0  0  0
 36 65  1  0  0  0  0
 36 70  1  0  0  0  0
 36 80  2  0  0  0  0
 37 66  1  0  0  0  0
 37 75  1  0  0  0  0
 37 81  2  0  0  0  0
 38 71  1  0  0  0  0
 38 76  1  0  0  0  0
 38 82  2  0  0  0  0
 39 42  1  0  0  0  0
 40 49  1  0  0  0  0
 41 70  1  0  0  0  0
 42 44  1  0  0  0  0
 43 45  1  0  0  0  0
 43 46  1  0  0  0  0
 44 48  1  0  0  0  0
 45 50  1  0  0  0  0
 46 71  1  0  0  0  0
 47 50  1  0  0  0  0
 47 71  1  0  0  0  0
 48 74  1  0  0  0  0
 49 70  1  0  0  0  0
 50 69  1  0  0  0  0
 53 66  1  0  0  0  0
 54 67  1  0  0  0  0
 55 67  1  0  0  0  0
 56 67  1  0  0  0  0
 57 77  1  0  0  0  0
 58 60  1  0  0  0  0
 59 61  1  0  0  0  0
 60 62  1  0  0  0  0
 61 64  1  0  0  0  0
 62 63  1  0  0  0  0
 63 76  1  0  0  0  0
 64 84  1  0  0  0  0
 65 67  1  0  0  0  0
 65 75  1  0  0  0  0
 66 77  1  0  0  0  0
 68 69  1  0  0  0  0
M  CHG  1  77   1
M  ISO  4  38 100  64 101  76 100  84 101
M  END
> <Batch ID>
0031

> <Smiles>
CNC(C)C(=O)NC(C(=O)N1Cc2cc([101O:1][101CH2:1]CCc3c(C)cc(CCCC[100NH:0][100C:0](=O)N4CCCC(n5nc(-c6ccc(Oc7ccc(F)cc7F)cc6)c(C(N)=O)c5N)C4)c(Cl)c3C)ccc2CC1C(=O)NC1CCCc2ccccc21)C(C)(C)C

> <Shape>
0.248

> <Color>
0.077

> <Negative vol penalty>
0.000

$$$$

  -OEChem-04052316423D

 96106  0     1  0  0  0  0  0999 V2000
  -16.8283  -29.9434   24.4732 C   0  0  0  0  0  0  0  0  0  0  0  0
  -16.6594  -28.6583   23.9679 C   0  0  0  0  0  0  0  0  0  0  0  0
  -23.5390  -10.1703   21.4162 C   0  0  0  0  0  0  0  0  0  0  0  0
  -24.8963   -8.3845   22.3139 C   0  0  0  0  0  0  0  0  0  0  0  0
  -17.8782  -30.7387   24.0158 C   0  0  0  0  0  0  0  0  0  0  0  0
  -17.5398  -28.1681   23.0041 C   0  0  0  0  0  0  0  0  0  0  0  0
  -25.9438  -18.4729   18.5895 C   0  0  0  0  0  0  0  0  0  0  0  0
  -20.6076  -22.0704   20.8309 C   0  0  0  0  0  0  0  0  0  0  0  0
  -24.7109  -18.7178   17.9849 C   0  0  0  0  0  0  0  0  0  0  0  0
  -22.4904   -9.2726   21.2158 C   0  0  0  0  0  0  0  0  0  0  0  0
  -23.8476   -7.4868   22.1136 C   0  0  0  0  0  0  0  0  0  0  0  0
  -20.7882  -21.3066   19.6786 C   0  0  0  0  0  0  0  0  0  0  0  0
  -21.4024   -4.7969   22.1728 C   0  0  0  0  0  0  0  0  0  0  0  0
  -21.1040   -3.9065   23.2041 C   0  0  0  0  0  0  0  0  0  0  0  0
  -30.2316  -20.0425   17.2388 C   0  0  0  0  0  0  0  0  0  0  0  0
  -28.7465  -21.5282   18.4321 C   0  0  0  0  0  0  0  0  0  0  0  0
  -22.6127  -22.7411   19.0208 C   0  0  0  0  0  0  0  0  0  0  0  0
  -29.9604  -22.3275   16.5022 C   0  0  0  0  0  0  0  0  0  0  0  0
  -25.6895  -18.2926   15.8172 C   0  0  0  0  0  0  0  0  0  0  0  0
  -20.6522   -5.7660   24.6789 C   0  0  0  0  0  0  0  0  0  0  0  0
  -24.7420   -9.7262   21.9652 C   0  0  0  0  0  0  0  0  0  0  0  0
  -26.0779  -11.4230   23.3231 C   0  0  0  0  0  0  0  0  0  0  0  0
  -18.7776  -30.2545   23.0529 C   0  0  0  0  0  0  0  0  0  0  0  0
  -21.4225  -23.1837   21.0818 C   0  0  0  0  0  0  0  0  0  0  0  0
  -18.6019  -28.9581   22.5324 C   0  0  0  0  0  0  0  0  0  0  0  0
  -27.0496  -18.1379   17.8080 C   0  0  0  0  0  0  0  0  0  0  0  0
  -29.3320  -20.2713   18.2799 C   0  0  0  0  0  0  0  0  0  0  0  0
  -22.4421  -23.5159   20.1783 C   0  0  0  0  0  0  0  0  0  0  0  0
  -24.5837  -18.6276   16.5988 C   0  0  0  0  0  0  0  0  0  0  0  0
  -30.5459  -21.0706   16.3500 C   0  0  0  0  0  0  0  0  0  0  0  0
  -29.0607  -22.5563   17.5433 C   0  0  0  0  0  0  0  0  0  0  0  0
  -22.6447   -7.9309   21.5645 C   0  0  0  0  0  0  0  0  0  0  0  0
  -21.7890  -21.6436   18.7719 C   0  0  0  0  0  0  0  0  0  0  0  0
  -21.3258   -6.1719   22.3945 C   0  0  0  0  0  0  0  0  0  0  0  0
  -20.7289   -4.3910   24.4572 C   0  0  0  0  0  0  0  0  0  0  0  0
  -20.9506   -6.6565   23.6476 C   0  0  0  0  0  0  0  0  0  0  0  0
  -26.9224  -18.0477   16.4219 C   0  0  0  0  0  0  0  0  0  0  0  0
  -25.8258  -10.6530   22.1719 C   0  0  0  0  0  0  0  0  0  0  0  0
  -27.2140  -12.1327   23.0194 C   0  0  0  0  0  0  0  0  0  0  0  0
  -25.3503  -11.4908   24.5567 C   0  0  0  0  0  0  0  0  0  0  0  0
  -20.9170  -26.3042   21.4144 C   0  0  0  0  0  0  0  0  0  0  0  0
  -24.0678  -26.3369   22.1851 C   0  0  0  0  0  0  0  0  0  0  0  0
  -27.1232  -24.8347   21.9519 C   0  0  0  0  0  0  0  0  0  0  0  0
  -30.3350  -15.0973   19.6471 C   0  0  0  0  0  0  0  0  0  0  0  0
  -19.8691  -31.1683   22.5546 C   0  0  0  0  0  0  0  0  0  0  0  0
  -21.2323  -23.9814   22.3427 C   0  0  0  0  0  0  0  0  0  0  0  0
  -23.3569  -24.6894   20.4114 C   0  0  0  0  0  0  0  0  0  0  0  0
  -20.9806  -30.4375   21.8057 C   0  0  0  0  0  0  0  0  0  0  0  0
  -30.4657  -11.6815   19.1808 C   0  0  0  0  0  0  0  0  0  0  0  0
  -20.3899  -29.4548   20.7997 C   0  0  0  0  0  0  0  0  0  0  0  0
  -29.2938  -11.1570   20.0103 C   0  0  0  0  0  0  0  0  0  0  0  0
  -30.3192  -18.6902   19.9590 C   0  0  0  0  0  0  0  0  0  0  0  0
  -30.0792  -12.9534   18.4349 C   0  0  0  0  0  0  0  0  0  0  0  0
  -28.3207  -16.6149   19.4011 C   0  0  0  0  0  0  0  0  0  0  0  0
  -28.4063  -13.5364   20.1608 C   0  0  0  0  0  0  0  0  0  0  0  0
  -28.3821  -17.8770   18.5103 C   0  0  2  0  0  0  0  0  0  0  0  0
  -19.5508  -28.3817   21.5040 C   0  0  1  0  0  0  0  0  0  0  0  0
  -21.7858  -25.3995   22.2417 C   0  0  1  0  0  0  0  0  0  0  0  0
  -28.7443  -12.2510   20.9429 C   0  0  1  0  0  0  0  0  0  0  0  0
  -30.3271  -17.3444   20.7043 C   0  0  1  0  0  0  0  0  0  0  0  0
  -28.9813  -19.1231   19.2715 C   0  0  2  0  0  0  0  0  0  0  0  0
  -31.5075  -20.8265   15.2364 C   0  0  0  0  0  0  0  0  0  0  0  0
  -28.4345  -23.9001   17.7065 C   0  0  0  0  0  0  0  0  0  0  0  0
  -29.8218  -17.4057   22.1464 C   0  0  0  0  0  0  0  0  0  0  0  0
  -28.0066  -19.6119   20.3756 C   0  0  0  0  0  0  0  0  0  0  0  0
  -29.5158  -25.1169   22.6541 C   0  0  0  0  0  0  0  0  0  0  0  0
  -24.4407  -28.4790   20.0444 C   0  0  0  0  0  0  0  0  0  0  0  0
  -26.9031  -28.0337   20.1267 C   0  0  0  0  0  0  0  0  0  0  0  0
  -25.7218  -28.8789   22.1547 C   0  0  0  0  0  0  0  0  0  0  0  0
  -27.0922  -22.3049   23.4877 C   0  0  0  0  0  0  0  0  0  0  0  0
  -23.2654  -18.8911   15.9526 C   0  0  0  0  0  0  0  0  0  0  0  0
  -23.0352  -20.3594   15.5618 C   0  0  0  0  0  0  0  0  0  0  0  0
  -23.0103  -21.3010   16.7602 C   0  0  0  0  0  0  0  0  0  1  0  0
  -25.3558  -26.4899   21.4126 C   0  0  1  0  0  0  0  0  0  0  0  0
  -28.1674  -24.5069   23.0039 C   0  0  2  0  0  0  0  0  0  0  0  0
  -25.5870  -27.9493   20.9290 C   0  0  0  0  0  0  0  0  0  0  0  0
  -26.7289  -10.8545   21.2087 N   0  0  0  0  0  0  0  0  0  0  0  0
  -27.5596  -11.7593   21.7539 N   0  0  0  0  0  0  0  0  0  0  0  0
  -23.1270  -25.4423   21.6556 N   0  0  0  0  0  0  0  0  0  0  0  0
  -29.5585  -13.9658   19.3533 N   0  0  0  0  0  0  0  0  0  0  0  0
  -29.6435  -16.2837   19.9514 N   0  0  0  0  0  0  0  0  0  0  0  0
  -27.9410  -13.0335   23.7140 N   0  0  0  0  0  0  0  0  0  0  0  0
  -24.2058  -10.6949   24.7019 N   0  0  0  0  0  0  0  0  0  0  0  0
  -20.4089  -27.3855   22.1087 N   0  0  0  0  0  0  0  0  0  0  0  0
  -26.4126  -25.9715   22.2744 N   0  0  0  0  0  0  0  0  0  0  0  0
  -28.3362  -23.0311   23.1241 N   0  3  0  0  0  0  0  0  0  0  0  0
  -25.6953  -12.2472   25.4959 O   0  0  0  0  0  0  0  0  0  0  0  0
  -20.7233  -26.0415   20.2333 O   0  0  0  0  0  0  0  0  0  0  0  0
  -23.9054  -26.9820   23.2239 O   0  0  0  0  0  0  0  0  0  0  0  0
  -26.9572  -24.1527   20.9430 O   0  0  0  0  0  0  0  0  0  0  0  0
  -31.5713  -15.0486   19.6366 O   0  0  0  0  0  0  0  0  0  0  0  0
  -21.6216   -7.0547   21.3694 O   0  0  0  0  0  0  0  0  0  0  0  0
  -21.9682  -20.8949   17.6381 O   0  0  0  0  0  0  0  0  0  1  0  0
  -20.4409   -3.5357   25.4470 F   0  0  0  0  0  0  0  0  0  0  0  0
  -20.8741   -7.9764   23.8663 F   0  0  0  0  0  0  0  0  0  0  0  0
  -28.2695  -17.6364   15.4240 Cl  0  0  0  0  0  0  0  0  0  0  0  0
  1  2  1  0  0  0  0
  1  5  2  0  0  0  0
  2  6  2  0  0  0  0
  3 10  2  0  0  0  0
  3 21  1  0  0  0  0
  4 11  1  0  0  0  0
  4 21  2  0  0  0  0
  5 23  1  0  0  0  0
  6 25  1  0  0  0  0
  7  9  2  0  0  0  0
  7 26  1  0  0  0  0
  8 12  2  0  0  0  0
  8 24  1  0  0  0  0
  9 29  1  0  0  0  0
 10 32  1  0  0  0  0
 11 32  2  0  0  0  0
 12 33  1  0  0  0  0
 13 14  2  0  0  0  0
 13 34  1  0  0  0  0
 14 35  1  0  0  0  0
 15 27  1  0  0  0  0
 15 30  2  0  0  0  0
 16 27  2  0  0  0  0
 16 31  1  0  0  0  0
 17 28  1  0  0  0  0
 17 33  2  0  0  0  0
 18 30  1  0  0  0  0
 18 31  2  0  0  0  0
 19 29  2  0  0  0  0
 19 37  1  0  0  0  0
 20 35  2  0  0  0  0
 20 36  1  0  0  0  0
 21 38  1  0  0  0  0
 22 38  1  0  0  0  0
 22 39  2  0  0  0  0
 22 40  1  0  0  0  0
 23 25  2  0  0  0  0
 23 45  1  0  0  0  0
 24 28  2  0  0  0  0
 24 46  1  0  0  0  0
 25 57  1  0  0  0  0
 26 37  2  0  0  0  0
 26 56  1  0  0  0  0
 27 61  1  0  0  0  0
 28 47  1  0  0  0  0
 29 71  1  0  0  0  0
 30 62  1  0  0  0  0
 31 63  1  0  0  0  0
 32 92  1  0  0  0  0
 33 93  1  0  0  0  0
 34 36  2  0  0  0  0
 34 92  1  0  0  0  0
 35 94  1  0  0  0  0
 36 95  1  0  0  0  0
 37 96  1  0  0  0  0
 38 77  2  0  0  0  0
 39 78  1  0  0  0  0
 39 82  1  0  0  0  0
 40 83  1  0  0  0  0
 40 87  2  0  0  0  0
 41 58  1  0  0  0  0
 41 84  1  0  0  0  0
 41 88  2  0  0  0  0
 42 74  1  0  0  0  0
 42 79  1  0  0  0  0
 42 89  2  0  0  0  0
 43 75  1  0  0  0  0
 43 85  1  0  0  0  0
 43 90  2  0  0  0  0
 44 80  1  0  0  0  0
 44 81  1  0  0  0  0
 44 91  2  0  0  0  0
 45 48  1  0  0  0  0
 46 58  1  0  0  0  0
 47 79  1  0  0  0  0
 48 50  1  0  0  0  0
 49 51  1  0  0  0  0
 49 53  1  0  0  0  0
 50 57  1  0  0  0  0
 51 59  1  0  0  0  0
 52 60  1  0  0  0  0
 52 61  1  0  0  0  0
 53 80  1  0  0  0  0
 54 56  1  0  0  0  0
 54 81  1  0  0  0  0
 55 59  1  0  0  0  0
 55 80  1  0  0  0  0
 56 61  1  0  0  0  0
 57 84  1  0  0  0  0
 58 79  1  0  0  0  0
 59 78  1  0  0  0  0
 60 64  1  0  0  0  0
 60 81  1  0  0  0  0
 61 65  1  0  0  0  0
 66 75  1  0  0  0  0
 67 76  1  0  0  0  0
 68 76  1  0  0  0  0
 69 76  1  0  0  0  0
 70 86  1  0  0  0  0
 71 72  1  0  0  0  0
 72 73  1  0  0  0  0
 73 93  1  0  0  0  0
 74 76  1  0  0  0  0
 74 85  1  0  0  0  0
 75 86  1  0  0  0  0
 77 78  1  0  0  0  0
M  CHG  1  86   1
M  ISO  4  44 100  73 101  81 100  93 101
M  END
> <Batch ID>
0031

> <Smiles>
CNC(C)C(=O)NC(C(=O)N1Cc2cc([101O:1][101CH2:1]CCc3ccc(C4C[100N:0]([100C:0](=O)N5CCCC(n6nc(-c7ccc(Oc8ccc(F)cc8F)cc7)c(C(N)=O)c6N)C5)C(C)CC4(C)c4cc(C)cc(C)c4)c(Cl)c3)ccc2CC1C(=O)NC1CCCc2ccccc21)C(C)(C)C

> <Shape>
0.254

> <Color>
0.097

> <Negative vol penalty>
0.000

$$$$

  -OEChem-04052316423D

 99110  0     1  0  0  0  0  0999 V2000
  -29.5723  -11.9824   19.5898 C   0  0  0  0  0  0  0  0  0  0  0  0
  -29.4054  -13.3387   19.3288 C   0  0  0  0  0  0  0  0  0  0  0  0
  -29.2101  -21.3223   18.6932 C   0  0  0  0  0  0  0  0  0  0  0  0
  -30.6630  -21.7469   20.5763 C   0  0  0  0  0  0  0  0  0  0  0  0
  -28.4592  -11.1777   19.8291 C   0  0  0  0  0  0  0  0  0  0  0  0
  -28.1251  -13.8908   19.3058 C   0  0  0  0  0  0  0  0  0  0  0  0
  -24.6340  -19.9591   20.8239 C   0  0  0  0  0  0  0  0  0  0  0  0
  -29.4013  -19.9502   18.8550 C   0  0  0  0  0  0  0  0  0  0  0  0
  -30.8542  -20.3747   20.7381 C   0  0  0  0  0  0  0  0  0  0  0  0
  -23.7528  -20.8692   20.2418 C   0  0  0  0  0  0  0  0  0  0  0  0
  -29.1629  -17.7645   22.0597 C   0  0  0  0  0  0  0  0  0  0  0  0
  -29.0883  -17.2494   23.3538 C   0  0  0  0  0  0  0  0  0  0  0  0
  -21.9090  -19.3982   20.7478 C   0  0  0  0  0  0  0  0  0  0  0  0
  -21.2802  -32.7028   24.5083 C   0  0  0  0  0  0  0  0  0  0  0  0
  -23.3650  -31.8594   23.6559 C   0  0  0  0  0  0  0  0  0  0  0  0
  -31.3626  -16.4552   23.1688 C   0  0  0  0  0  0  0  0  0  0  0  0
  -19.0401  -28.1961   22.8982 C   0  0  0  0  0  0  0  0  0  0  0  0
  -29.8410  -22.2207   19.5538 C   0  0  0  0  0  0  0  0  0  0  0  0
  -29.9559  -24.4120   18.2529 C   0  0  0  0  0  0  0  0  0  0  0  0
  -27.1653  -11.7220   19.8186 C   0  0  0  0  0  0  0  0  0  0  0  0
  -24.1599  -18.7547   21.3635 C   0  0  0  0  0  0  0  0  0  0  0  0
  -26.9935  -13.0922   19.5439 C   0  0  0  0  0  0  0  0  0  0  0  0
  -22.7860  -18.4757   21.3385 C   0  0  0  0  0  0  0  0  0  0  0  0
  -21.9798  -31.7765   23.7429 C   0  0  0  0  0  0  0  0  0  0  0  0
  -20.3905  -28.2899   23.1529 C   0  0  0  0  0  0  0  0  0  0  0  0
  -21.0036  -27.1301   22.6180 C   0  0  0  0  0  0  0  0  0  0  0  0
  -30.2234  -19.4763   19.8774 C   0  0  0  0  0  0  0  0  0  0  0  0
  -22.3904  -20.5875   20.2011 C   0  0  0  0  0  0  0  0  0  0  0  0
  -30.3373  -17.6248   21.3201 C   0  0  0  0  0  0  0  0  0  0  0  0
  -30.1881  -16.5948   23.9084 C   0  0  0  0  0  0  0  0  0  0  0  0
  -31.4371  -16.9703   21.8746 C   0  0  0  0  0  0  0  0  0  0  0  0
  -29.6443  -23.6383   19.3869 C   0  0  0  0  0  0  0  0  0  0  0  0
  -20.0091  -26.3629   22.0525 C   0  0  0  0  0  0  0  0  0  0  0  0
  -22.0068  -33.6849   25.1620 C   0  0  0  0  0  0  0  0  0  0  0  0
  -23.9983  -32.8794   24.3476 C   0  0  0  0  0  0  0  0  0  0  0  0
  -29.5810  -25.6884   18.5945 C   0  0  0  0  0  0  0  0  0  0  0  0
  -30.5326  -24.0127   17.0025 C   0  0  0  0  0  0  0  0  0  0  0  0
  -24.6360  -15.6749   20.7375 C   0  0  0  0  0  0  0  0  0  0  0  0
  -22.8335  -15.2554   23.4015 C   0  0  0  0  0  0  0  0  0  0  0  0
  -20.4831  -16.5070   25.5360 C   0  0  0  0  0  0  0  0  0  0  0  0
  -25.5892  -27.8599   22.4935 C   0  0  0  0  0  0  0  0  0  0  0  0
  -25.9893  -10.8031   20.0362 C   0  0  0  0  0  0  0  0  0  0  0  0
  -25.1203  -17.7957   22.0118 C   0  0  0  0  0  0  0  0  0  0  0  0
  -22.2239  -17.2061   21.9221 C   0  0  0  0  0  0  0  0  0  0  0  0
  -24.6932  -11.5398   20.3642 C   0  0  0  0  0  0  0  0  0  0  0  0
  -29.0800  -28.5538   22.3932 C   0  0  0  0  0  0  0  0  0  0  0  0
  -24.4873  -12.7099   19.4075 C   0  0  0  0  0  0  0  0  0  0  0  0
  -15.9309  -26.8027   19.7153 C   0  0  0  0  0  0  0  0  0  0  0  0
  -16.7484  -28.0626   19.7804 C   0  0  0  0  0  0  0  0  0  0  0  0
  -29.6485  -27.4425   21.5090 C   0  0  0  0  0  0  0  0  0  0  0  0
  -20.9397  -25.0986   20.0598 C   0  0  0  0  0  0  0  0  0  0  0  0
  -20.6084  -23.9059   22.2606 C   0  0  0  0  0  0  0  0  0  0  0  0
  -27.9347  -28.0487   23.2679 C   0  0  0  0  0  0  0  0  0  0  0  0
  -21.0458  -23.7247   19.3929 C   0  0  0  0  0  0  0  0  0  0  0  0
  -20.7279  -22.5827   21.5002 C   0  0  0  0  0  0  0  0  0  0  0  0
  -27.4155  -26.2626   21.6512 C   0  0  0  0  0  0  0  0  0  0  0  0
  -25.6226  -13.7329   19.5349 C   0  0  1  0  0  0  0  0  0  0  0  0
  -20.0896  -25.0261   21.3409 C   0  0  0  0  0  0  0  0  0  0  0  0
  -24.5894  -16.3666   22.0705 C   0  0  1  0  0  0  0  0  0  0  0  0
  -17.3187  -26.7693   20.2930 C   0  0  0  0  0  0  0  0  0  0  0  0
  -28.5361  -26.7371   20.7102 C   0  0  2  0  0  0  0  0  0  0  0  0
  -21.2895  -34.6950   25.9937 C   0  0  0  0  0  0  0  0  0  0  0  0
  -26.1841  -32.2064   25.3751 C   0  0  0  0  0  0  0  0  0  0  0  0
  -19.1833  -15.9174   27.6000 C   0  0  0  0  0  0  0  0  0  0  0  0
  -21.0308  -13.4358   21.7435 C   0  0  0  0  0  0  0  0  0  0  0  0
  -19.2893  -13.6501   23.5294 C   0  0  0  0  0  0  0  0  0  0  0  0
  -21.4958  -12.6141   24.0593 C   0  0  0  0  0  0  0  0  0  0  0  0
  -21.6406  -18.7700   27.0520 C   0  0  0  0  0  0  0  0  0  0  0  0
  -21.2386  -30.6847   23.0104 C   0  0  0  0  0  0  0  0  0  0  0  0
  -21.0639  -29.4002   23.8558 C   0  0  0  0  0  0  0  0  0  0  0  0
  -22.4435  -26.8016   22.6580 C   0  0  0  0  0  0  0  0  0  0  0  0
  -25.4839  -32.9994   24.2751 C   0  0  0  0  0  0  0  0  0  0  0  0
  -17.5225  -26.5612   21.7839 C   0  0  0  0  0  0  0  0  0  0  0  0
  -23.2886  -27.5538   21.6146 C   0  0  0  0  0  0  0  0  0  0  0  0
  -21.3572  -15.1102   23.6815 C   0  0  1  0  0  0  0  0  0  0  0  0
  -20.4366  -16.5816   27.0515 C   0  0  2  0  0  0  0  0  0  0  0  0
  -20.8038  -13.7257   23.2406 C   0  0  0  0  0  0  0  0  0  0  0  0
  -29.1125  -24.3626   20.3751 N   0  0  0  0  0  0  0  0  0  0  0  0
  -23.3526  -33.7975   25.1011 N   0  0  0  0  0  0  0  0  0  0  0  0
  -18.8198  -27.0208   22.2286 N   0  0  0  0  0  0  0  0  0  0  0  0
  -29.0871  -25.6049   19.8631 N   0  0  0  0  0  0  0  0  0  0  0  0
  -23.2039  -16.2972   22.5393 N   0  0  0  0  0  0  0  0  0  0  0  0
  -26.9128  -27.3917   22.4494 N   0  0  0  0  0  0  0  0  0  0  0  0
  -21.5967  -22.7446   20.3320 N   0  0  0  0  0  0  0  0  0  1  0  0
  -29.6289  -26.8629   17.9306 N   0  0  0  0  0  0  0  0  0  0  0  0
  -30.8582  -22.6620   16.8179 N   0  0  0  0  0  0  0  0  0  0  0  0
  -25.4372  -14.5493   20.7154 N   0  0  0  0  0  0  0  0  0  0  0  0
  -21.1803  -15.4001   25.1003 N   0  0  0  0  0  0  0  0  0  0  0  0
  -24.6851  -27.1851   21.6824 N   0  0  0  0  0  0  0  0  0  0  0  0
  -20.4505  -18.0024   27.5009 N   0  3  0  0  0  0  0  0  0  0  0  0
  -30.7679  -24.8322   16.0824 O   0  0  0  0  0  0  0  0  0  0  0  0
  -23.9916  -16.1281   19.7988 O   0  0  0  0  0  0  0  0  0  0  0  0
  -23.6294  -14.4778   23.9340 O   0  0  0  0  0  0  0  0  0  0  0  0
  -19.9508  -17.3448   24.8112 O   0  0  0  0  0  0  0  0  0  0  0  0
  -25.2403  -28.8124   23.1992 O   0  0  0  0  0  0  0  0  0  0  0  0
  -30.4100  -18.1374   20.0357 O   0  0  0  0  0  0  0  0  0  0  0  0
  -21.5281  -21.4738   19.6329 O   0  0  0  0  0  0  0  0  0  1  0  0
  -30.1169  -16.1016   25.1517 F   0  0  0  0  0  0  0  0  0  0  0  0
  -32.5684  -16.8341   21.1694 F   0  0  0  0  0  0  0  0  0  0  0  0
  1  2  1  0  0  0  0
  1  5  2  0  0  0  0
  2  6  2  0  0  0  0
  3  8  2  0  0  0  0
  3 18  1  0  0  0  0
  4  9  1  0  0  0  0
  4 18  2  0  0  0  0
  5 20  1  0  0  0  0
  6 22  1  0  0  0  0
  7 10  2  0  0  0  0
  7 21  1  0  0  0  0
  8 27  1  0  0  0  0
  9 27  2  0  0  0  0
 10 28  1  0  0  0  0
 11 12  2  0  0  0  0
 11 29  1  0  0  0  0
 12 30  1  0  0  0  0
 13 23  1  0  0  0  0
 13 28  2  0  0  0  0
 14 24  1  0  0  0  0
 14 34  2  0  0  0  0
 15 24  2  0  0  0  0
 15 35  1  0  0  0  0
 16 30  2  0  0  0  0
 16 31  1  0  0  0  0
 17 25  2  0  0  0  0
 17 80  1  0  0  0  0
 18 32  1  0  0  0  0
 19 32  1  0  0  0  0
 19 36  2  0  0  0  0
 19 37  1  0  0  0  0
 20 22  2  0  0  0  0
 20 42  1  0  0  0  0
 21 23  2  0  0  0  0
 21 43  1  0  0  0  0
 22 57  1  0  0  0  0
 23 44  1  0  0  0  0
 24 69  1  0  0  0  0
 25 26  1  0  0  0  0
 25 70  1  0  0  0  0
 26 33  2  0  0  0  0
 26 71  1  0  0  0  0
 27 96  1  0  0  0  0
 28 97  1  0  0  0  0
 29 31  2  0  0  0  0
 29 96  1  0  0  0  0
 30 98  1  0  0  0  0
 31 99  1  0  0  0  0
 32 78  2  0  0  0  0
 33 58  1  0  0  0  0
 33 80  1  0  0  0  0
 34 62  1  0  0  0  0
 34 79  1  0  0  0  0
 35 72  1  0  0  0  0
 35 79  2  0  0  0  0
 36 81  1  0  0  0  0
 36 85  1  0  0  0  0
 37 86  1  0  0  0  0
 37 91  2  0  0  0  0
 38 59  1  0  0  0  0
 38 87  1  0  0  0  0
 38 92  2  0  0  0  0
 39 75  1  0  0  0  0
 39 82  1  0  0  0  0
 39 93  2  0  0  0  0
 40 76  1  0  0  0  0
 40 88  1  0  0  0  0
 40 94  2  0  0  0  0
 41 83  1  0  0  0  0
 41 89  1  0  0  0  0
 41 95  2  0  0  0  0
 42 45  1  0  0  0  0
 43 59  1  0  0  0  0
 44 82  1  0  0  0  0
 45 47  1  0  0  0  0
 46 50  1  0  0  0  0
 46 53  1  0  0  0  0
 47 57  1  0  0  0  0
 48 49  1  0  0  0  0
 48 60  1  0  0  0  0
 49 60  1  0  0  0  0
 50 61  1  0  0  0  0
 51 54  1  0  0  0  0
 51 58  1  0  0  0  0
 52 55  1  0  0  0  0
 52 58  1  0  0  0  0
 53 83  1  0  0  0  0
 54 84  1  0  0  0  0
 55 84  1  0  0  0  0
 56 61  1  0  0  0  0
 56 83  1  0  0  0  0
 57 87  1  0  0  0  0
 59 82  1  0  0  0  0
 60 73  1  0  0  0  0
 61 81  1  0  0  0  0
 63 72  1  0  0  0  0
 64 76  1  0  0  0  0
 65 77  1  0  0  0  0
 66 77  1  0  0  0  0
 67 77  1  0  0  0  0
 68 90  1  0  0  0  0
 69 70  1  0  0  0  0
 71 74  1  0  0  0  0
 73 80  1  0  0  0  0
 74 89  1  0  0  0  0
 75 77  1  0  0  0  0
 75 88  1  0  0  0  0
 76 90  1  0  0  0  0
 78 81  1  0  0  0  0
 84 97  1  0  0  0  0
M  CHG  1  90   1
M  ISO  4  41 100  84 101  89 100  97 101
M  END
> <Batch ID>
0031

> <Smiles>
CCc1cc(CCc2cn(CC3CC3)c(C3CC[101N:1]([101O:1]c4ccc5c(c4)CN(C(=O)C(NC(=O)C(C)NC)C(C)(C)C)C(C(=O)NC4CCCc6ccccc64)C5)CC3)c2CC[100NH:0][100C:0](=O)N2CCCC(n3nc(-c4ccc(Oc5ccc(F)cc5F)cc4)c(C(N)=O)c3N)C2)cc(C)n1

> <Shape>
0.259

> <Color>
0.066

> <Negative vol penalty>
0.000

$$$$

  -OEChem-04052316423D

 89 98  0     1  0  0  0  0  0999 V2000
  -18.6116  -37.5410   17.9462 C   0  0  0  0  0  0  0  0  0  0  0  0
  -18.8702  -36.1848   17.7751 C   0  0  0  0  0  0  0  0  0  0  0  0
  -23.0796   -9.8526   19.8889 C   0  0  0  0  0  0  0  0  0  0  0  0
  -23.9074   -9.7399   22.1559 C   0  0  0  0  0  0  0  0  0  0  0  0
  -19.6321  -38.3976   18.3572 C   0  0  0  0  0  0  0  0  0  0  0  0
  -20.1498  -35.6846   18.0138 C   0  0  0  0  0  0  0  0  0  0  0  0
  -23.4946  -29.8155   20.3976 C   0  0  0  0  0  0  0  0  0  0  0  0
  -22.3596   -8.6756   20.0933 C   0  0  0  0  0  0  0  0  0  0  0  0
  -23.1873   -8.5629   22.3603 C   0  0  0  0  0  0  0  0  0  0  0  0
  -24.4998  -28.9233   20.0271 C   0  0  0  0  0  0  0  0  0  0  0  0
  -19.9900   -7.6817   23.0091 C   0  0  0  0  0  0  0  0  0  0  0  0
  -19.2689   -7.5630   24.1972 C   0  0  0  0  0  0  0  0  0  0  0  0
  -26.1648  -30.4835   20.8100 C   0  0  0  0  0  0  0  0  0  0  0  0
  -29.5775  -25.8519   17.6428 C   0  0  0  0  0  0  0  0  0  0  0  0
  -27.9306  -25.2437   19.8108 C   0  0  0  0  0  0  0  0  0  0  0  0
  -20.5585   -5.6061   24.7842 C   0  0  0  0  0  0  0  0  0  0  0  0
  -23.8535  -10.3848   20.9202 C   0  0  0  0  0  0  0  0  0  0  0  0
  -24.1566  -12.9177   20.9363 C   0  0  0  0  0  0  0  0  0  0  0  0
  -20.9224  -37.9060   18.6104 C   0  0  0  0  0  0  0  0  0  0  0  0
  -23.8179  -31.0551   20.9680 C   0  0  0  0  0  0  0  0  0  0  0  0
  -21.1887  -36.5356   18.4273 C   0  0  0  0  0  0  0  0  0  0  0  0
  -25.1618  -31.3886   21.1892 C   0  0  0  0  0  0  0  0  0  0  0  0
  -29.8810  -24.7681   18.4666 C   0  0  0  0  0  0  0  0  0  0  0  0
  -28.4506  -26.6318   17.9030 C   0  0  0  0  0  0  0  0  0  0  0  0
  -29.0575  -24.4639   19.5506 C   0  0  0  0  0  0  0  0  0  0  0  0
  -27.6271  -26.3276   18.9870 C   0  0  0  0  0  0  0  0  0  0  0  0
  -22.4134   -8.0307   21.3290 C   0  0  0  0  0  0  0  0  0  0  0  0
  -25.8353  -29.2584   20.2306 C   0  0  0  0  0  0  0  0  0  0  0  0
  -20.9953   -6.7626   22.7085 C   0  0  0  0  0  0  0  0  0  0  0  0
  -19.5532   -6.5252   25.0848 C   0  0  0  0  0  0  0  0  0  0  0  0
  -21.2795   -5.7248   23.5961 C   0  0  0  0  0  0  0  0  0  0  0  0
  -24.5980  -11.6003   20.7095 C   0  0  0  0  0  0  0  0  0  0  0  0
  -25.2269  -13.7036   20.5855 C   0  0  0  0  0  0  0  0  0  0  0  0
  -22.8921  -13.3888   21.4210 C   0  0  0  0  0  0  0  0  0  0  0  0
  -23.3649  -34.0910   20.1422 C   0  0  0  0  0  0  0  0  0  0  0  0
  -24.6184  -34.6700   23.0774 C   0  0  0  0  0  0  0  0  0  0  0  0
  -26.5656  -33.5851   25.6616 C   0  0  0  0  0  0  0  0  0  0  0  0
  -30.6991  -14.7955   20.6734 C   0  0  0  0  0  0  0  0  0  0  0  0
  -22.0047  -38.8784   19.0073 C   0  0  0  0  0  0  0  0  0  0  0  0
  -22.7209  -31.9952   21.3868 C   0  0  0  0  0  0  0  0  0  0  0  0
  -25.5609  -32.6983   21.8167 C   0  0  0  0  0  0  0  0  0  0  0  0
  -23.2400  -38.2059   19.6009 C   0  0  0  0  0  0  0  0  0  0  0  0
  -29.5240  -12.5343   18.1868 C   0  0  0  0  0  0  0  0  0  0  0  0
  -23.6615  -37.0145   18.7467 C   0  0  0  0  0  0  0  0  0  0  0  0
  -28.5519  -19.5301   20.2753 C   0  0  0  0  0  0  0  0  0  0  0  0
  -30.8353  -20.5201   20.7033 C   0  0  0  0  0  0  0  0  0  0  0  0
  -28.9166  -18.3190   21.1320 C   0  0  0  0  0  0  0  0  0  0  0  0
  -31.1997  -19.3091   21.5601 C   0  0  0  0  0  0  0  0  0  0  0  0
  -28.1044  -12.1939   18.6436 C   0  0  0  0  0  0  0  0  0  0  0  0
  -30.4734  -12.7001   19.3714 C   0  0  0  0  0  0  0  0  0  0  0  0
  -28.6039  -13.3208   20.8524 C   0  0  0  0  0  0  0  0  0  0  0  0
  -22.5576  -35.9510   18.7002 C   0  0  1  0  0  0  0  0  0  0  0  0
  -23.1829  -33.4457   21.4868 C   0  0  1  0  0  0  0  0  0  0  0  0
  -29.3242  -20.7833   20.7071 C   0  0  0  0  0  0  0  0  0  0  0  0
  -30.4278  -18.0560   21.1279 C   0  0  0  0  0  0  0  0  0  0  0  0
  -27.5976  -13.1989   19.6954 C   0  0  2  0  0  0  0  0  0  0  0  0
  -31.0923  -23.9471   18.1680 C   0  0  0  0  0  0  0  0  0  0  0  0
  -28.1462  -27.7878   17.0078 C   0  0  0  0  0  0  0  0  0  0  0  0
  -27.4329  -34.2941   27.9072 C   0  0  0  0  0  0  0  0  0  0  0  0
  -26.6388  -36.5059   21.7146 C   0  0  0  0  0  0  0  0  0  0  0  0
  -28.0190  -36.4209   23.8017 C   0  0  0  0  0  0  0  0  0  0  0  0
  -25.7186  -37.3834   23.8682 C   0  0  0  0  0  0  0  0  0  0  0  0
  -25.2201  -31.3279   27.0232 C   0  0  0  0  0  0  0  0  0  0  0  0
  -29.3620  -23.3080   20.4460 C   0  0  0  0  0  0  0  0  0  0  0  0
  -26.4102  -27.1525   19.2871 C   0  0  0  0  0  0  0  0  0  1  0  0
  -28.9808  -21.9663   19.8039 C   0  0  0  0  0  0  0  0  0  0  0  0
  -30.7720  -16.8724   22.0299 C   0  0  0  0  0  0  0  0  0  0  0  0
  -26.0098  -34.8840   23.6224 C   0  0  1  0  0  0  0  0  0  0  0  0
  -26.3284  -33.5621   27.1609 C   0  0  2  0  0  0  0  0  0  0  0  0
  -26.5895  -36.2746   23.2381 C   0  0  0  0  0  0  0  0  0  0  0  0
  -25.8510  -11.5483   20.2499 N   0  0  0  0  0  0  0  0  0  0  0  0
  -26.2061  -12.8428   20.1850 N   0  0  0  0  0  0  0  0  0  0  0  0
  -24.4522  -33.5865   22.2033 N   0  0  0  0  0  0  0  0  0  0  0  0
  -29.9353  -13.6675   20.3309 N   0  0  0  0  0  0  0  0  0  0  0  0
  -25.4165  -15.0402   20.5834 N   0  0  0  0  0  0  0  0  0  0  0  0
  -21.9034  -12.4461   21.7344 N   0  0  0  0  0  0  0  0  0  0  0  0
  -22.5448  -35.1819   19.9261 N   0  0  0  0  0  0  0  0  0  0  0  0
  -25.9260  -34.6481   25.0597 N   0  0  0  0  0  0  0  0  0  0  0  0
  -30.1125  -15.6651   21.5846 N   0  0  0  0  0  0  0  0  0  0  0  0
  -26.2779  -32.1573   27.6558 N   0  3  0  0  0  0  0  0  0  0  0  0
  -22.6406  -14.6102   21.5561 O   0  0  0  0  0  0  0  0  0  0  0  0
  -24.1893  -33.6338   19.3592 O   0  0  0  0  0  0  0  0  0  0  0  0
  -23.7108  -35.4318   23.4204 O   0  0  0  0  0  0  0  0  0  0  0  0
  -27.2527  -32.7463   25.0830 O   0  0  0  0  0  0  0  0  0  0  0  0
  -31.8185  -15.0143   20.1979 O   0  0  0  0  0  0  0  0  0  0  0  0
  -21.7108   -6.8823   21.5289 O   0  0  0  0  0  0  0  0  0  0  0  0
  -26.8184  -28.3897   19.8693 O   0  0  0  0  0  0  0  0  0  1  0  0
  -18.8617   -6.4121   26.2264 F   0  0  0  0  0  0  0  0  0  0  0  0
  -22.2450   -4.8395   23.3133 F   0  0  0  0  0  0  0  0  0  0  0  0
  1  2  1  0  0  0  0
  1  5  2  0  0  0  0
  2  6  2  0  0  0  0
  3  8  2  0  0  0  0
  3 17  1  0  0  0  0
  4  9  1  0  0  0  0
  4 17  2  0  0  0  0
  5 19  1  0  0  0  0
  6 21  1  0  0  0  0
  7 10  2  0  0  0  0
  7 20  1  0  0  0  0
  8 27  1  0  0  0  0
  9 27  2  0  0  0  0
 10 28  1  0  0  0  0
 11 12  2  0  0  0  0
 11 29  1  0  0  0  0
 12 30  1  0  0  0  0
 13 22  1  0  0  0  0
 13 28  2  0  0  0  0
 14 23  2  0  0  0  0
 14 24  1  0  0  0  0
 15 25  2  0  0  0  0
 15 26  1  0  0  0  0
 16 30  2  0  0  0  0
 16 31  1  0  0  0  0
 17 32  1  0  0  0  0
 18 32  1  0  0  0  0
 18 33  2  0  0  0  0
 18 34  1  0  0  0  0
 19 21  2  0  0  0  0
 19 39  1  0  0  0  0
 20 22  2  0  0  0  0
 20 40  1  0  0  0  0
 21 52  1  0  0  0  0
 22 41  1  0  0  0  0
 23 25  1  0  0  0  0
 23 57  1  0  0  0  0
 24 26  2  0  0  0  0
 24 58  1  0  0  0  0
 25 64  1  0  0  0  0
 26 65  1  0  0  0  0
 27 86  1  0  0  0  0
 28 87  1  0  0  0  0
 29 31  2  0  0  0  0
 29 86  1  0  0  0  0
 30 88  1  0  0  0  0
 31 89  1  0  0  0  0
 32 71  2  0  0  0  0
 33 72  1  0  0  0  0
 33 75  1  0  0  0  0
 34 76  1  0  0  0  0
 34 81  2  0  0  0  0
 35 53  1  0  0  0  0
 35 77  1  0  0  0  0
 35 82  2  0  0  0  0
 36 68  1  0  0  0  0
 36 73  1  0  0  0  0
 36 83  2  0  0  0  0
 37 69  1  0  0  0  0
 37 78  1  0  0  0  0
 37 84  2  0  0  0  0
 38 74  1  0  0  0  0
 38 79  1  0  0  0  0
 38 85  2  0  0  0  0
 39 42  1  0  0  0  0
 40 53  1  0  0  0  0
 41 73  1  0  0  0  0
 42 44  1  0  0  0  0
 43 49  1  0  0  0  0
 43 50  1  0  0  0  0
 44 52  1  0  0  0  0
 45 47  1  0  0  0  0
 45 54  1  0  0  0  0
 46 48  1  0  0  0  0
 46 54  1  0  0  0  0
 47 55  1  0  0  0  0
 48 55  1  0  0  0  0
 49 56  1  0  0  0  0
 50 74  1  0  0  0  0
 51 56  1  0  0  0  0
 51 74  1  0  0  0  0
 52 77  1  0  0  0  0
 53 73  1  0  0  0  0
 54 66  1  0  0  0  0
 55 67  1  0  0  0  0
 56 72  1  0  0  0  0
 59 69  1  0  0  0  0
 60 70  1  0  0  0  0
 61 70  1  0  0  0  0
 62 70  1  0  0  0  0
 63 80  1  0  0  0  0
 64 66  1  0  0  0  0
 65 87  1  0  0  0  0
 67 79  1  0  0  0  0
 68 70  1  0  0  0  0
 68 78  1  0  0  0  0
 69 80  1  0  0  0  0
 71 72  1  0  0  0  0
M  CHG  1  80   1
M  ISO  4  38 100  65 101  79 100  87 101
M  END
> <Batch ID>
0031

> <Smiles>
CNC(C)C(=O)NC(C(=O)N1Cc2cc([101O:1][101CH2:1]c3cc(CCC4CCC(C[100NH:0][100C:0](=O)N5CCCC(n6nc(-c7ccc(Oc8ccc(F)cc8F)cc7)c(C(N)=O)c6N)C5)CC4)c(C)cc3C)ccc2CC1C(=O)NC1CCCc2ccccc21)C(C)(C)C

> <Shape>
0.391

> <Color>
0.220

> <Negative vol penalty>
0.000

$$$$

  -OEChem-04052316423D

 82 91  0     1  0  0  0  0  0999 V2000
  -25.7948  -33.1893   14.3208 C   0  0  0  0  0  0  0  0  0  0  0  0
  -26.4259  -31.9551   14.4386 C   0  0  0  0  0  0  0  0  0  0  0  0
  -24.3604  -16.5106   22.0180 C   0  0  0  0  0  0  0  0  0  0  0  0
  -25.6912  -15.4067   23.7054 C   0  0  0  0  0  0  0  0  0  0  0  0
  -25.5769  -33.9706   15.4548 C   0  0  0  0  0  0  0  0  0  0  0  0
  -26.8403  -31.5019   15.6905 C   0  0  0  0  0  0  0  0  0  0  0  0
  -26.8463  -25.6447   17.7127 C   0  0  0  0  0  0  0  0  0  0  0  0
  -24.1937  -17.6056   22.8658 C   0  0  0  0  0  0  0  0  0  0  0  0
  -25.5245  -16.5017   24.5532 C   0  0  0  0  0  0  0  0  0  0  0  0
  -27.8357  -24.6674   17.8117 C   0  0  0  0  0  0  0  0  0  0  0  0
  -25.9948  -20.2942   23.8456 C   0  0  0  0  0  0  0  0  0  0  0  0
  -26.1598  -21.5673   23.3002 C   0  0  0  0  0  0  0  0  0  0  0  0
  -28.2450  -25.3219   20.0969 C   0  0  0  0  0  0  0  0  0  0  0  0
  -23.8860  -22.1196   23.9018 C   0  0  0  0  0  0  0  0  0  0  0  0
  -31.5805  -15.9640   22.1825 C   0  0  0  0  0  0  0  0  0  0  0  0
  -25.1091  -15.4111   22.4378 C   0  0  0  0  0  0  0  0  0  0  0  0
  -24.2710  -13.4616   21.0219 C   0  0  0  0  0  0  0  0  0  0  0  0
  -25.9802  -33.5224   16.7225 C   0  0  0  0  0  0  0  0  0  0  0  0
  -26.5551  -26.4766   18.8035 C   0  0  0  0  0  0  0  0  0  0  0  0
  -26.6288  -32.2785   16.8424 C   0  0  0  0  0  0  0  0  0  0  0  0
  -27.2482  -26.3057   20.0106 C   0  0  0  0  0  0  0  0  0  0  0  0
  -24.7758  -17.6012   24.1334 C   0  0  0  0  0  0  0  0  0  0  0  0
  -28.5367  -24.5074   19.0032 C   0  0  0  0  0  0  0  0  0  0  0  0
  -24.7754  -19.9337   24.4191 C   0  0  0  0  0  0  0  0  0  0  0  0
  -25.1054  -22.4801   23.3283 C   0  0  0  0  0  0  0  0  0  0  0  0
  -23.7210  -20.8464   24.4471 C   0  0  0  0  0  0  0  0  0  0  0  0
  -25.2812  -14.2795   21.5627 C   0  0  0  0  0  0  0  0  0  0  0  0
  -30.5699  -15.2657   21.5696 C   0  0  0  0  0  0  0  0  0  0  0  0
  -24.9468  -12.5372   20.2636 C   0  0  0  0  0  0  0  0  0  0  0  0
  -30.4696  -17.3355   21.0389 C   0  0  0  0  0  0  0  0  0  0  0  0
  -22.8488  -13.5315   21.1899 C   0  0  0  0  0  0  0  0  0  0  0  0
  -30.1768  -13.8511   21.5832 C   0  0  0  0  0  0  0  0  0  0  0  0
  -26.6289  -29.6191   19.4076 C   0  0  0  0  0  0  0  0  0  0  0  0
  -25.2446  -28.5782   22.2455 C   0  0  0  0  0  0  0  0  0  0  0  0
  -24.4309  -31.8101   22.9753 C   0  0  0  0  0  0  0  0  0  0  0  0
  -25.7655  -34.4231   17.9131 C   0  0  0  0  0  0  0  0  0  0  0  0
  -25.4627  -27.5048   18.6855 C   0  0  0  0  0  0  0  0  0  0  0  0
  -26.9704  -27.1701   21.2107 C   0  0  0  0  0  0  0  0  0  0  0  0
  -25.8989  -33.7038   19.2529 C   0  0  0  0  0  0  0  0  0  0  0  0
  -28.5126  -13.9228   18.2853 C   0  0  0  0  0  0  0  0  0  0  0  0
  -27.1473  -32.8274   19.2663 C   0  0  0  0  0  0  0  0  0  0  0  0
  -30.4547  -18.7100   18.9135 C   0  0  0  0  0  0  0  0  0  0  0  0
  -30.0373  -19.8270   21.1490 C   0  0  0  0  0  0  0  0  0  0  0  0
  -29.8404  -19.9144   18.2006 C   0  0  0  0  0  0  0  0  0  0  0  0
  -29.4241  -21.0286   20.4306 C   0  0  0  0  0  0  0  0  0  0  0  0
  -27.7026  -12.6300   18.3175 C   0  0  0  0  0  0  0  0  0  0  0  0
  -29.8093  -13.7771   19.0706 C   0  0  0  0  0  0  0  0  0  0  0  0
  -28.7501  -12.1079   20.5768 C   0  0  0  0  0  0  0  0  0  0  0  0
  -27.0706  -31.7414   18.1864 C   0  0  1  0  0  0  0  0  0  0  0  0
  -29.8748  -18.5371   20.3273 C   0  0  0  0  0  0  0  0  0  0  0  0
  -25.5563  -28.6169   19.7282 C   0  0  1  0  0  0  0  0  0  0  0  0
  -30.0021  -21.2016   19.0199 C   0  0  0  0  0  0  0  0  0  0  0  0
  -27.4492  -12.1268   19.7495 C   0  0  1  0  0  0  0  0  0  0  0  0
  -23.1041  -33.1889   24.5988 C   0  0  0  0  0  0  0  0  0  0  0  0
  -22.6689  -27.7585   20.8315 C   0  0  0  0  0  0  0  0  0  0  0  0
  -21.5750  -29.7934   21.7963 C   0  0  0  0  0  0  0  0  0  0  0  0
  -22.4610  -28.0196   23.3100 C   0  0  0  0  0  0  0  0  0  0  0  0
  -26.8457  -33.2431   23.9103 C   0  0  0  0  0  0  0  0  0  0  0  0
  -29.3408  -22.3801   18.3076 C   0  0  0  0  0  0  0  0  0  1  0  0
  -24.0803  -29.5228   22.0811 C   0  0  1  0  0  0  0  0  0  0  0  0
  -24.4638  -32.5876   24.2787 C   0  0  2  0  0  0  0  0  0  0  0  0
  -22.7197  -28.7759   21.9888 C   0  0  0  0  0  0  0  0  0  0  0  0
  -31.5112  -17.2897   21.8383 N   0  0  0  0  0  0  0  0  0  0  0  0
  -26.5057  -13.9072   21.1805 N   0  0  0  0  0  0  0  0  0  0  0  0
  -26.2693  -12.8452   20.3915 N   0  0  0  0  0  0  0  0  0  0  0  0
  -29.5572  -13.3237   20.4434 N   0  0  0  0  0  0  0  0  0  0  0  0
  -25.8410  -28.0987   21.0723 N   0  0  0  0  0  0  0  0  0  0  0  0
  -24.5330  -11.4989   19.5065 N   0  0  0  0  0  0  0  0  0  0  0  0
  -22.2651  -12.8194   22.2466 N   0  0  0  0  0  0  0  0  0  0  0  0
  -26.2017  -30.6654   18.6125 N   0  0  0  0  0  0  0  0  0  0  0  0
  -24.1666  -30.4731   23.1846 N   0  0  0  0  0  0  0  0  0  0  0  0
  -25.4594  -33.6936   24.1971 N   0  3  0  0  0  0  0  0  0  0  0  0
  -22.1155  -14.1921   20.4158 O   0  0  0  0  0  0  0  0  0  0  0  0
  -30.4146  -13.2326   22.6199 O   0  0  0  0  0  0  0  0  0  0  0  0
  -27.7599  -29.4560   19.8502 O   0  0  0  0  0  0  0  0  0  0  0  0
  -25.6122  -28.2665   23.3817 O   0  0  0  0  0  0  0  0  0  0  0  0
  -24.6172  -32.3369   21.8806 O   0  0  0  0  0  0  0  0  0  0  0  0
  -29.8435  -16.1458   20.8258 O   0  0  0  0  0  0  0  0  0  0  0  0
  -24.6135  -18.6696   24.9608 O   0  0  0  0  0  0  0  0  0  0  0  0
  -29.5026  -23.5539   19.1027 O   0  0  0  0  0  0  0  0  0  1  0  0
  -25.2644  -23.7032   22.8059 F   0  0  0  0  0  0  0  0  0  0  0  0
  -22.5476  -20.5063   24.9977 F   0  0  0  0  0  0  0  0  0  0  0  0
  1  2  1  0  0  0  0
  1  5  2  0  0  0  0
  2  6  2  0  0  0  0
  3  8  2  0  0  0  0
  3 16  1  0  0  0  0
  4  9  1  0  0  0  0
  4 16  2  0  0  0  0
  5 18  1  0  0  0  0
  6 20  1  0  0  0  0
  7 10  2  0  0  0  0
  7 19  1  0  0  0  0
  8 22  1  0  0  0  0
  9 22  2  0  0  0  0
 10 23  1  0  0  0  0
 11 12  2  0  0  0  0
 11 24  1  0  0  0  0
 12 25  1  0  0  0  0
 13 21  1  0  0  0  0
 13 23  2  0  0  0  0
 14 25  2  0  0  0  0
 14 26  1  0  0  0  0
 15 28  2  0  0  0  0
 15 63  1  0  0  0  0
 16 27  1  0  0  0  0
 17 27  1  0  0  0  0
 17 29  2  0  0  0  0
 17 31  1  0  0  0  0
 18 20  2  0  0  0  0
 18 36  1  0  0  0  0
 19 21  2  0  0  0  0
 19 37  1  0  0  0  0
 20 49  1  0  0  0  0
 21 38  1  0  0  0  0
 22 79  1  0  0  0  0
 23 80  1  0  0  0  0
 24 26  2  0  0  0  0
 24 79  1  0  0  0  0
 25 81  1  0  0  0  0
 26 82  1  0  0  0  0
 27 64  2  0  0  0  0
 28 32  1  0  0  0  0
 28 78  1  0  0  0  0
 29 65  1  0  0  0  0
 29 68  1  0  0  0  0
 30 50  1  0  0  0  0
 30 63  2  0  0  0  0
 30 78  1  0  0  0  0
 31 69  1  0  0  0  0
 31 73  2  0  0  0  0
 32 66  1  0  0  0  0
 32 74  2  0  0  0  0
 33 51  1  0  0  0  0
 33 70  1  0  0  0  0
 33 75  2  0  0  0  0
 34 60  1  0  0  0  0
 34 67  1  0  0  0  0
 34 76  2  0  0  0  0
 35 61  1  0  0  0  0
 35 71  1  0  0  0  0
 35 77  2  0  0  0  0
 36 39  1  0  0  0  0
 37 51  1  0  0  0  0
 38 67  1  0  0  0  0
 39 41  1  0  0  0  0
 40 46  1  0  0  0  0
 40 47  1  0  0  0  0
 41 49  1  0  0  0  0
 42 44  1  0  0  0  0
 42 50  1  0  0  0  0
 43 45  1  0  0  0  0
 43 50  1  0  0  0  0
 44 52  1  0  0  0  0
 45 52  1  0  0  0  0
 46 53  1  0  0  0  0
 47 66  1  0  0  0  0
 48 53  1  0  0  0  0
 48 66  1  0  0  0  0
 49 70  1  0  0  0  0
 51 67  1  0  0  0  0
 52 59  1  0  0  0  0
 53 65  1  0  0  0  0
 54 61  1  0  0  0  0
 55 62  1  0  0  0  0
 56 62  1  0  0  0  0
 57 62  1  0  0  0  0
 58 72  1  0  0  0  0
 59 80  1  0  0  0  0
 60 62  1  0  0  0  0
 60 71  1  0  0  0  0
 61 72  1  0  0  0  0
 64 65  1  0  0  0  0
M  CHG  1  72   1
M  ISO  4  28 100  32 100  59 101  80 101
M  END
> <Batch ID>
0031

> <Smiles>
CNC(C)C(=O)NC(C(=O)N1Cc2cc([101O:1][101CH2:1]C3CCC(c4nc[100c:0]([100C:0](=O)N5CCCC(n6nc(-c7ccc(Oc8ccc(F)cc8F)cc7)c(C(N)=O)c6N)C5)o4)CC3)ccc2CC1C(=O)NC1CCCc2ccccc21)C(C)(C)C

> <Shape>
0.254

> <Color>
0.099

> <Negative vol penalty>
0.000

$$$$

  -OEChem-04052316423D

 81 89  0     1  0  0  0  0  0999 V2000
  -27.3464  -32.6408   19.6610 C   0  0  0  0  0  0  0  0  0  0  0  0
  -27.2415  -31.2544   19.7079 C   0  0  0  0  0  0  0  0  0  0  0  0
  -22.3716  -10.5710   22.0036 C   0  0  0  0  0  0  0  0  0  0  0  0
  -23.0308   -9.9535   19.7628 C   0  0  0  0  0  0  0  0  0  0  0  0
  -26.6339  -33.4237   20.5684 C   0  0  0  0  0  0  0  0  0  0  0  0
  -26.4249  -30.6500   20.6630 C   0  0  0  0  0  0  0  0  0  0  0  0
  -23.5831  -26.9363   18.7194 C   0  0  0  0  0  0  0  0  0  0  0  0
  -21.8990   -9.2769   22.2213 C   0  0  0  0  0  0  0  0  0  0  0  0
  -22.5582   -8.6593   19.9805 C   0  0  0  0  0  0  0  0  0  0  0  0
  -24.2073  -25.7113   18.4884 C   0  0  0  0  0  0  0  0  0  0  0  0
  -23.1963   -6.2421   22.9562 C   0  0  0  0  0  0  0  0  0  0  0  0
  -23.5266   -5.6259   24.1632 C   0  0  0  0  0  0  0  0  0  0  0  0
  -23.2692  -24.8536   20.5387 C   0  0  0  0  0  0  0  0  0  0  0  0
  -27.0099  -19.3690   17.7262 C   0  0  0  0  0  0  0  0  0  0  0  0
  -25.4402  -21.0600   17.0095 C   0  0  0  0  0  0  0  0  0  0  0  0
  -21.1800   -5.4187   24.6995 C   0  0  0  0  0  0  0  0  0  0  0  0
  -22.9374  -10.9094   20.7743 C   0  0  0  0  0  0  0  0  0  0  0  0
  -24.7235  -12.7306   20.7968 C   0  0  0  0  0  0  0  0  0  0  0  0
  -25.8005  -32.8290   21.5288 C   0  0  0  0  0  0  0  0  0  0  0  0
  -22.8048  -27.1330   19.8692 C   0  0  0  0  0  0  0  0  0  0  0  0
  -25.7016  -31.4256   21.5849 C   0  0  0  0  0  0  0  0  0  0  0  0
  -22.6341  -26.0812   20.7806 C   0  0  0  0  0  0  0  0  0  0  0  0
  -25.9435  -19.7624   16.9177 C   0  0  0  0  0  0  0  0  0  0  0  0
  -27.5730  -20.2734   18.6266 C   0  0  0  0  0  0  0  0  0  0  0  0
  -26.0034  -21.9644   17.9100 C   0  0  0  0  0  0  0  0  0  0  0  0
  -27.0698  -21.5710   18.7185 C   0  0  0  0  0  0  0  0  0  0  0  0
  -21.9924   -8.3210   21.2098 C   0  0  0  0  0  0  0  0  0  0  0  0
  -24.0528  -24.6706   19.3996 C   0  0  0  0  0  0  0  0  0  0  0  0
  -21.8579   -6.4467   22.6209 C   0  0  0  0  0  0  0  0  0  0  0  0
  -22.5184   -5.2142   25.0348 C   0  0  0  0  0  0  0  0  0  0  0  0
  -20.8497   -6.0350   23.4925 C   0  0  0  0  0  0  0  0  0  0  0  0
  -23.4252  -12.2462   20.5486 C   0  0  0  0  0  0  0  0  0  0  0  0
  -24.6759  -14.0501   20.4182 C   0  0  0  0  0  0  0  0  0  0  0  0
  -25.8701  -12.0488   21.3225 C   0  0  0  0  0  0  0  0  0  0  0  0
  -22.9650  -29.0740   22.3812 C   0  0  0  0  0  0  0  0  0  0  0  0
  -20.0882  -27.7549   23.0927 C   0  0  0  0  0  0  0  0  0  0  0  0
  -17.9452  -25.1207   22.7528 C   0  0  0  0  0  0  0  0  0  0  0  0
  -23.1434  -18.0273   16.8157 C   0  0  0  0  0  0  0  0  0  0  0  0
  -25.0867  -33.7148   22.5190 C   0  0  0  0  0  0  0  0  0  0  0  0
  -22.1162  -28.4519   20.0903 C   0  0  0  0  0  0  0  0  0  0  0  0
  -21.7925  -26.2348   22.0202 C   0  0  0  0  0  0  0  0  0  0  0  0
  -23.9520  -33.0108   23.2586 C   0  0  0  0  0  0  0  0  0  0  0  0
  -20.7382  -16.9939   19.2289 C   0  0  0  0  0  0  0  0  0  0  0  0
  -24.4079  -31.6437   23.7586 C   0  0  0  0  0  0  0  0  0  0  0  0
  -21.3269  -15.7040   19.8029 C   0  0  0  0  0  0  0  0  0  0  0  0
  -21.0256  -17.1297   17.7353 C   0  0  0  0  0  0  0  0  0  0  0  0
  -23.0368  -15.7200   17.9390 C   0  0  0  0  0  0  0  0  0  0  0  0
  -24.8067  -30.7339   22.5904 C   0  0  1  0  0  0  0  0  0  0  0  0
  -21.7665  -28.7054   21.5534 C   0  0  1  0  0  0  0  0  0  0  0  0
  -22.8210  -15.5657   19.4542 C   0  0  2  0  0  0  0  0  0  0  0  0
  -28.7150  -19.8275   19.4803 C   0  0  0  0  0  0  0  0  0  0  0  0
  -27.6741  -22.5406   19.6837 C   0  0  0  0  0  0  0  0  0  0  0  0
  -15.6835  -24.3144   23.4821 C   0  0  0  0  0  0  0  0  0  0  0  0
  -21.2191  -27.0794   25.8449 C   0  0  0  0  0  0  0  0  0  0  0  0
  -19.3139  -25.4859   26.1597 C   0  0  0  0  0  0  0  0  0  0  0  0
  -18.8644  -27.9216   25.8627 C   0  0  0  0  0  0  0  0  0  0  0  0
  -16.9562  -25.0140   19.9655 C   0  0  0  0  0  0  0  0  0  0  0  0
  -25.3410  -18.7953   15.9555 C   0  0  0  0  0  0  0  0  0  0  0  0
  -25.4437  -23.3543   17.9894 C   0  0  0  0  0  0  0  0  0  1  0  0
  -19.6293  -26.5515   23.8803 C   0  0  1  0  0  0  0  0  0  0  0  0
  -16.4666  -25.0623   22.4143 C   0  0  2  0  0  0  0  0  0  0  0  0
  -19.7742  -26.7570   25.4146 C   0  0  0  0  0  0  0  0  0  0  0  0
  -22.6122  -13.1818   20.0510 N   0  0  0  0  0  0  0  0  0  0  0  0
  -23.4016  -14.2674   19.9836 N   0  0  0  0  0  0  0  0  0  0  0  0
  -21.1447  -27.5453   22.1951 N   0  0  0  0  0  0  0  0  0  0  0  0
  -22.4600  -16.9906   17.4723 N   0  0  0  0  0  0  0  0  0  0  0  0
  -25.6002  -15.0340   20.4182 N   0  0  0  0  0  0  0  0  0  0  0  0
  -25.7454  -10.6943   21.6599 N   0  0  0  0  0  0  0  0  0  0  0  0
  -23.6289  -30.2023   21.9388 N   0  0  0  0  0  0  0  0  0  0  0  0
  -18.2666  -26.2716   23.4409 N   0  0  0  0  0  0  0  0  0  0  0  0
  -24.5017  -17.8175   16.6115 N   0  0  0  0  0  0  0  0  0  0  0  0
  -16.2607  -24.3712   21.1101 N   0  3  0  0  0  0  0  0  0  0  0  0
  -26.9679  -12.6280   21.5034 O   0  0  0  0  0  0  0  0  0  0  0  0
  -23.2644  -28.3866   23.3505 O   0  0  0  0  0  0  0  0  0  0  0  0
  -19.5251  -28.8392   23.2622 O   0  0  0  0  0  0  0  0  0  0  0  0
  -18.7355  -24.2323   22.4415 O   0  0  0  0  0  0  0  0  0  0  0  0
  -22.5855  -19.0653   16.4440 O   0  0  0  0  0  0  0  0  0  0  0  0
  -21.5316   -7.0580   21.4219 O   0  0  0  0  0  0  0  0  0  0  0  0
  -24.6615  -23.4740   19.1769 O   0  0  0  0  0  0  0  0  0  1  0  0
  -22.8357   -4.6210   26.1931 F   0  0  0  0  0  0  0  0  0  0  0  0
  -19.5621   -6.2278   23.1753 F   0  0  0  0  0  0  0  0  0  0  0  0
  1  2  1  0  0  0  0
  1  5  2  0  0  0  0
  2  6  2  0  0  0  0
  3  8  2  0  0  0  0
  3 17  1  0  0  0  0
  4  9  1  0  0  0  0
  4 17  2  0  0  0  0
  5 19  1  0  0  0  0
  6 21  1  0  0  0  0
  7 10  2  0  0  0  0
  7 20  1  0  0  0  0
  8 27  1  0  0  0  0
  9 27  2  0  0  0  0
 10 28  1  0  0  0  0
 11 12  2  0  0  0  0
 11 29  1  0  0  0  0
 12 30  1  0  0  0  0
 13 22  1  0  0  0  0
 13 28  2  0  0  0  0
 14 23  1  0  0  0  0
 14 24  2  0  0  0  0
 15 23  2  0  0  0  0
 15 25  1  0  0  0  0
 16 30  2  0  0  0  0
 16 31  1  0  0  0  0
 17 32  1  0  0  0  0
 18 32  1  0  0  0  0
 18 33  2  0  0  0  0
 18 34  1  0  0  0  0
 19 21  2  0  0  0  0
 19 39  1  0  0  0  0
 20 22  2  0  0  0  0
 20 40  1  0  0  0  0
 21 48  1  0  0  0  0
 22 41  1  0  0  0  0
 23 58  1  0  0  0  0
 24 26  1  0  0  0  0
 24 51  1  0  0  0  0
 25 26  2  0  0  0  0
 25 59  1  0  0  0  0
 26 52  1  0  0  0  0
 27 78  1  0  0  0  0
 28 79  1  0  0  0  0
 29 31  2  0  0  0  0
 29 78  1  0  0  0  0
 30 80  1  0  0  0  0
 31 81  1  0  0  0  0
 32 63  2  0  0  0  0
 33 64  1  0  0  0  0
 33 67  1  0  0  0  0
 34 68  1  0  0  0  0
 34 73  2  0  0  0  0
 35 49  1  0  0  0  0
 35 69  1  0  0  0  0
 35 74  2  0  0  0  0
 36 60  1  0  0  0  0
 36 65  1  0  0  0  0
 36 75  2  0  0  0  0
 37 61  1  0  0  0  0
 37 70  1  0  0  0  0
 37 76  2  0  0  0  0
 38 66  1  0  0  0  0
 38 71  1  0  0  0  0
 38 77  2  0  0  0  0
 39 42  1  0  0  0  0
 40 49  1  0  0  0  0
 41 65  1  0  0  0  0
 42 44  1  0  0  0  0
 43 45  1  0  0  0  0
 43 46  1  0  0  0  0
 44 48  1  0  0  0  0
 45 50  1  0  0  0  0
 46 66  1  0  0  0  0
 47 50  1  0  0  0  0
 47 66  1  0  0  0  0
 48 69  1  0  0  0  0
 49 65  1  0  0  0  0
 50 64  1  0  0  0  0
 53 61  1  0  0  0  0
 54 62  1  0  0  0  0
 55 62  1  0  0  0  0
 56 62  1  0  0  0  0
 57 72  1  0  0  0  0
 58 71  1  0  0  0  0
 59 79  1  0  0  0  0
 60 62  1  0  0  0  0
 60 70  1  0  0  0  0
 61 72  1  0  0  0  0
 63 64  1  0  0  0  0
M  CHG  1  72   1
M  ISO  4  38 100  59 101  71 100  79 101
M  END
> <Batch ID>
0031

> <Smiles>
CNC(C)C(=O)NC(C(=O)N1Cc2cc([101O:1][101CH2:1]c3cc(C[100NH:0][100C:0](=O)N4CCCC(n5nc(-c6ccc(Oc7ccc(F)cc7F)cc6)c(C(N)=O)c5N)C4)cc(C)c3C)ccc2CC1C(=O)NC1CCCc2ccccc21)C(C)(C)C

> <Shape>
0.218

> <Color>
0.099

> <Negative vol penalty>
0.000

$$$$

  -OEChem-04052316423D

 81 89  0     1  0  0  0  0  0999 V2000
  -30.6178  -35.4252   20.9979 C   0  0  0  0  0  0  0  0  0  0  0  0
  -30.4887  -34.0401   21.0143 C   0  0  0  0  0  0  0  0  0  0  0  0
  -24.9592  -13.3065   21.8171 C   0  0  0  0  0  0  0  0  0  0  0  0
  -26.0299  -12.7481   19.7245 C   0  0  0  0  0  0  0  0  0  0  0  0
  -29.7208  -36.2163   21.7145 C   0  0  0  0  0  0  0  0  0  0  0  0
  -29.4631  -33.4452   21.7483 C   0  0  0  0  0  0  0  0  0  0  0  0
  -27.1157  -29.7670   19.1781 C   0  0  0  0  0  0  0  0  0  0  0  0
  -24.4065  -12.0272   21.8757 C   0  0  0  0  0  0  0  0  0  0  0  0
  -25.4773  -11.4688   19.7832 C   0  0  0  0  0  0  0  0  0  0  0  0
  -27.7625  -28.5346   19.0966 C   0  0  0  0  0  0  0  0  0  0  0  0
  -23.0069   -8.7903   22.7579 C   0  0  0  0  0  0  0  0  0  0  0  0
  -23.0637   -8.1145   23.9768 C   0  0  0  0  0  0  0  0  0  0  0  0
  -26.3581  -27.6875   20.8656 C   0  0  0  0  0  0  0  0  0  0  0  0
  -30.9370  -23.0583   20.0093 C   0  0  0  0  0  0  0  0  0  0  0  0
  -29.2559  -23.8679   17.9354 C   0  0  0  0  0  0  0  0  0  0  0  0
  -25.4763   -8.2349   23.9310 C   0  0  0  0  0  0  0  0  0  0  0  0
  -25.7708  -13.6670   20.7414 C   0  0  0  0  0  0  0  0  0  0  0  0
  -27.5807  -15.4046   21.2028 C   0  0  0  0  0  0  0  0  0  0  0  0
  -28.6779  -35.6313   22.4499 C   0  0  0  0  0  0  0  0  0  0  0  0
  -26.0910  -29.9726   20.1130 C   0  0  0  0  0  0  0  0  0  0  0  0
  -28.5521  -34.2292   22.4765 C   0  0  0  0  0  0  0  0  0  0  0  0
  -25.6982  -28.9226   20.9552 C   0  0  0  0  0  0  0  0  0  0  0  0
  -30.5924  -22.1597   18.9998 C   0  0  0  0  0  0  0  0  0  0  0  0
  -30.4410  -24.3617   19.9821 C   0  0  0  0  0  0  0  0  0  0  0  0
  -29.7519  -22.5645   17.9628 C   0  0  0  0  0  0  0  0  0  0  0  0
  -29.6005  -24.7666   18.9451 C   0  0  0  0  0  0  0  0  0  0  0  0
  -24.6656  -11.1083   20.8588 C   0  0  0  0  0  0  0  0  0  0  0  0
  -27.3857  -27.4955   19.9424 C   0  0  0  0  0  0  0  0  0  0  0  0
  -24.1848   -9.1883   22.1255 C   0  0  0  0  0  0  0  0  0  0  0  0
  -24.2984   -7.8368   24.5634 C   0  0  0  0  0  0  0  0  0  0  0  0
  -25.4195   -8.9106   22.7121 C   0  0  0  0  0  0  0  0  0  0  0  0
  -26.3416  -14.9886   20.6800 C   0  0  0  0  0  0  0  0  0  0  0  0
  -27.6570  -16.7386   20.8849 C   0  0  0  0  0  0  0  0  0  0  0  0
  -28.5739  -14.6524   21.9123 C   0  0  0  0  0  0  0  0  0  0  0  0
  -25.6778  -31.9105   22.5985 C   0  0  0  0  0  0  0  0  0  0  0  0
  -22.6992  -30.6260   22.6083 C   0  0  0  0  0  0  0  0  0  0  0  0
  -20.6660  -28.0180   21.7649 C   0  0  0  0  0  0  0  0  0  0  0  0
  -27.0185  -20.9178   17.2417 C   0  0  0  0  0  0  0  0  0  0  0  0
  -27.7614  -36.5253   23.2470 C   0  0  0  0  0  0  0  0  0  0  0  0
  -25.3851  -31.2996   20.1701 C   0  0  0  0  0  0  0  0  0  0  0  0
  -24.5902  -29.0858   21.9623 C   0  0  0  0  0  0  0  0  0  0  0  0
  -26.4763  -35.8347   23.6964 C   0  0  0  0  0  0  0  0  0  0  0  0
  -24.1444  -19.8992   19.0798 C   0  0  0  0  0  0  0  0  0  0  0  0
  -26.7857  -34.4619   24.2852 C   0  0  0  0  0  0  0  0  0  0  0  0
  -24.5599  -18.5629   19.6975 C   0  0  0  0  0  0  0  0  0  0  0  0
  -24.7289  -20.0802   17.6807 C   0  0  0  0  0  0  0  0  0  0  0  0
  -26.6071  -18.5755   18.2117 C   0  0  0  0  0  0  0  0  0  0  0  0
  -27.4377  -33.5479   23.2407 C   0  0  1  0  0  0  0  0  0  0  0  0
  -24.7037  -31.5568   21.5105 C   0  0  1  0  0  0  0  0  0  0  0  0
  -26.0876  -18.3719   19.6453 C   0  0  2  0  0  0  0  0  0  0  0  0
  -31.1361  -20.7696   19.0496 C   0  0  0  0  0  0  0  0  0  0  0  0
  -30.8230  -25.3060   21.0743 C   0  0  0  0  0  0  0  0  0  0  0  0
  -18.2868  -27.2389   21.9386 C   0  0  0  0  0  0  0  0  0  0  0  0
  -23.1423  -29.9357   25.5472 C   0  0  0  0  0  0  0  0  0  0  0  0
  -21.1981  -28.3652   25.3995 C   0  0  0  0  0  0  0  0  0  0  0  0
  -20.8596  -30.8063   25.0128 C   0  0  0  0  0  0  0  0  0  0  0  0
  -20.3598  -27.9245   18.8227 C   0  0  0  0  0  0  0  0  0  0  0  0
  -29.3697  -21.6201   16.8707 C   0  0  0  0  0  0  0  0  0  0  0  0
  -29.0541  -26.1631   18.8951 C   0  0  0  0  0  0  0  0  0  1  0  0
  -22.0538  -29.4279   23.2618 C   0  0  1  0  0  0  0  0  0  0  0  0
  -19.3080  -27.9776   21.0876 C   0  0  2  0  0  0  0  0  0  0  0  0
  -21.8357  -29.6310   24.7878 C   0  0  0  0  0  0  0  0  0  0  0  0
  -25.6784  -15.9782   20.0760 N   0  0  0  0  0  0  0  0  0  0  0  0
  -26.5038  -17.0293   20.2173 N   0  0  0  0  0  0  0  0  0  0  0  0
  -23.9349  -30.4040   21.9841 N   0  0  0  0  0  0  0  0  0  0  0  0
  -26.1810  -19.8877   17.7005 N   0  0  0  0  0  0  0  0  0  0  0  0
  -28.5974  -17.6796   21.1142 N   0  0  0  0  0  0  0  0  0  0  0  0
  -28.3358  -13.2926   22.1542 N   0  0  0  0  0  0  0  0  0  0  0  0
  -26.4403  -33.0309   22.3285 N   0  0  0  0  0  0  0  0  0  0  0  0
  -20.8296  -29.1646   22.5131 N   0  0  0  0  0  0  0  0  0  0  0  0
  -28.3818  -20.6558   17.3009 N   0  0  0  0  0  0  0  0  0  0  0  0
  -19.4070  -27.2897   19.7693 N   0  3  0  0  0  0  0  0  0  0  0  0
  -29.6336  -15.1746   22.3340 O   0  0  0  0  0  0  0  0  0  0  0  0
  -25.7325  -31.2191   23.6088 O   0  0  0  0  0  0  0  0  0  0  0  0
  -22.1247  -31.7170   22.6441 O   0  0  0  0  0  0  0  0  0  0  0  0
  -21.4968  -27.1203   21.6455 O   0  0  0  0  0  0  0  0  0  0  0  0
  -26.5838  -21.9934   16.8163 O   0  0  0  0  0  0  0  0  0  0  0  0
  -24.1266   -9.8598   20.9158 O   0  0  0  0  0  0  0  0  0  0  0  0
  -28.0158  -26.2918   19.8654 O   0  0  0  0  0  0  0  0  0  1  0  0
  -24.3528   -7.1893   25.7346 F   0  0  0  0  0  0  0  0  0  0  0  0
  -26.5544   -9.2915   22.1098 F   0  0  0  0  0  0  0  0  0  0  0  0
  1  2  1  0  0  0  0
  1  5  2  0  0  0  0
  2  6  2  0  0  0  0
  3  8  2  0  0  0  0
  3 17  1  0  0  0  0
  4  9  1  0  0  0  0
  4 17  2  0  0  0  0
  5 19  1  0  0  0  0
  6 21  1  0  0  0  0
  7 10  2  0  0  0  0
  7 20  1  0  0  0  0
  8 27  1  0  0  0  0
  9 27  2  0  0  0  0
 10 28  1  0  0  0  0
 11 12  2  0  0  0  0
 11 29  1  0  0  0  0
 12 30  1  0  0  0  0
 13 22  1  0  0  0  0
 13 28  2  0  0  0  0
 14 23  2  0  0  0  0
 14 24  1  0  0  0  0
 15 25  2  0  0  0  0
 15 26  1  0  0  0  0
 16 30  2  0  0  0  0
 16 31  1  0  0  0  0
 17 32  1  0  0  0  0
 18 32  1  0  0  0  0
 18 33  2  0  0  0  0
 18 34  1  0  0  0  0
 19 21  2  0  0  0  0
 19 39  1  0  0  0  0
 20 22  2  0  0  0  0
 20 40  1  0  0  0  0
 21 48  1  0  0  0  0
 22 41  1  0  0  0  0
 23 25  1  0  0  0  0
 23 51  1  0  0  0  0
 24 26  2  0  0  0  0
 24 52  1  0  0  0  0
 25 58  1  0  0  0  0
 26 59  1  0  0  0  0
 27 78  1  0  0  0  0
 28 79  1  0  0  0  0
 29 31  2  0  0  0  0
 29 78  1  0  0  0  0
 30 80  1  0  0  0  0
 31 81  1  0  0  0  0
 32 63  2  0  0  0  0
 33 64  1  0  0  0  0
 33 67  1  0  0  0  0
 34 68  1  0  0  0  0
 34 73  2  0  0  0  0
 35 49  1  0  0  0  0
 35 69  1  0  0  0  0
 35 74  2  0  0  0  0
 36 60  1  0  0  0  0
 36 65  1  0  0  0  0
 36 75  2  0  0  0  0
 37 61  1  0  0  0  0
 37 70  1  0  0  0  0
 37 76  2  0  0  0  0
 38 66  1  0  0  0  0
 38 71  1  0  0  0  0
 38 77  2  0  0  0  0
 39 42  1  0  0  0  0
 40 49  1  0  0  0  0
 41 65  1  0  0  0  0
 42 44  1  0  0  0  0
 43 45  1  0  0  0  0
 43 46  1  0  0  0  0
 44 48  1  0  0  0  0
 45 50  1  0  0  0  0
 46 66  1  0  0  0  0
 47 50  1  0  0  0  0
 47 66  1  0  0  0  0
 48 69  1  0  0  0  0
 49 65  1  0  0  0  0
 50 64  1  0  0  0  0
 53 61  1  0  0  0  0
 54 62  1  0  0  0  0
 55 62  1  0  0  0  0
 56 62  1  0  0  0  0
 57 72  1  0  0  0  0
 58 71  1  0  0  0  0
 59 79  1  0  0  0  0
 60 62  1  0  0  0  0
 60 70  1  0  0  0  0
 61 72  1  0  0  0  0
 63 64  1  0  0  0  0
M  CHG  1  72   1
M  ISO  4  38 100  59 101  71 100  79 101
M  END
> <Batch ID>
0031

> <Smiles>
CNC(C)C(=O)NC(C(=O)N1Cc2cc([101O:1][101CH2:1]c3cc(C[100NH:0][100C:0](=O)N4CCCC(n5nc(-c6ccc(Oc7ccc(F)cc7F)cc6)c(C(N)=O)c5N)C4)c(C)cc3C)ccc2CC1C(=O)NC1CCCc2ccccc21)C(C)(C)C

> <Shape>
0.265

> <Color>
0.083

> <Negative vol penalty>
0.000

$$$$

  -OEChem-04052316423D

 92101  0     1  0  0  0  0  0999 V2000
  -19.4573  -24.0499   22.2239 C   0  0  0  0  0  0  0  0  0  0  0  0
  -20.6596  -24.3879   21.6109 C   0  0  0  0  0  0  0  0  0  0  0  0
  -30.3273  -18.8978   21.0004 C   0  0  0  0  0  0  0  0  0  0  0  0
  -30.2928  -16.7568   19.8815 C   0  0  0  0  0  0  0  0  0  0  0  0
  -18.5923  -25.0526   22.6598 C   0  0  0  0  0  0  0  0  0  0  0  0
  -20.9969  -25.7291   21.4324 C   0  0  0  0  0  0  0  0  0  0  0  0
  -25.8095  -26.7033   22.6713 C   0  0  0  0  0  0  0  0  0  0  0  0
  -31.0600  -19.4383   19.9437 C   0  0  0  0  0  0  0  0  0  0  0  0
  -31.0255  -17.2973   18.8247 C   0  0  0  0  0  0  0  0  0  0  0  0
  -26.7902  -26.3414   21.7488 C   0  0  0  0  0  0  0  0  0  0  0  0
  -30.4319  -19.2264   16.1142 C   0  0  0  0  0  0  0  0  0  0  0  0
  -30.0149  -18.9253   14.8177 C   0  0  0  0  0  0  0  0  0  0  0  0
  -27.6246  -22.1398   16.7856 C   0  0  0  0  0  0  0  0  0  0  0  0
  -26.9107  -28.6277   20.9889 C   0  0  0  0  0  0  0  0  0  0  0  0
  -32.1572  -17.9037   14.3660 C   0  0  0  0  0  0  0  0  0  0  0  0
  -25.7085  -23.4384   16.2777 C   0  0  0  0  0  0  0  0  0  0  0  0
  -29.9437  -17.5570   20.9693 C   0  0  0  0  0  0  0  0  0  0  0  0
  -29.5761  -16.9183   23.4115 C   0  0  0  0  0  0  0  0  0  0  0  0
  -18.9236  -26.4068   22.4953 C   0  0  0  0  0  0  0  0  0  0  0  0
  -25.3635  -28.0303   22.7521 C   0  0  0  0  0  0  0  0  0  0  0  0
  -20.1348  -26.7510   21.8653 C   0  0  0  0  0  0  0  0  0  0  0  0
  -28.2126  -23.2624   17.3823 C   0  0  0  0  0  0  0  0  0  0  0  0
  -25.9261  -29.0044   21.9150 C   0  0  0  0  0  0  0  0  0  0  0  0
  -26.3562  -22.2208   16.2252 C   0  0  0  0  0  0  0  0  0  0  0  0
  -31.4090  -18.6381   18.8558 C   0  0  0  0  0  0  0  0  0  0  0  0
  -27.3389  -27.3030   20.9055 C   0  0  0  0  0  0  0  0  0  0  0  0
  -31.7116  -18.8662   16.5366 C   0  0  0  0  0  0  0  0  0  0  0  0
  -30.8775  -18.2639   13.9435 C   0  0  0  0  0  0  0  0  0  0  0  0
  -32.5742  -18.2049   15.6625 C   0  0  0  0  0  0  0  0  0  0  0  0
  -29.1874  -16.9980   22.0609 C   0  0  0  0  0  0  0  0  0  0  0  0
  -27.4785  -24.4509   17.3790 C   0  0  0  0  0  0  0  0  0  0  0  0
  -28.5168  -16.3087   24.0383 C   0  0  0  0  0  0  0  0  0  0  0  0
  -30.7864  -17.3563   24.0432 C   0  0  0  0  0  0  0  0  0  0  0  0
  -22.5743  -29.4900   22.3123 C   0  0  0  0  0  0  0  0  0  0  0  0
  -24.2001  -32.0784   23.3981 C   0  0  0  0  0  0  0  0  0  0  0  0
  -27.2047  -33.6327   23.8493 C   0  0  0  0  0  0  0  0  0  0  0  0
  -22.6831  -15.9282   22.7441 C   0  0  0  0  0  0  0  0  0  0  0  0
  -17.9349  -27.4553   22.9401 C   0  0  0  0  0  0  0  0  0  0  0  0
  -24.3240  -28.4098   23.7709 C   0  0  0  0  0  0  0  0  0  0  0  0
  -29.5854  -23.1568   17.9905 C   0  0  0  0  0  0  0  0  0  0  0  0
  -25.4963  -30.4466   21.9760 C   0  0  0  0  0  0  0  0  0  0  0  0
  -28.0242  -25.7143   17.9843 C   0  0  0  0  0  0  0  0  0  0  0  0
  -18.5381  -28.8532   23.0509 C   0  0  0  0  0  0  0  0  0  0  0  0
  -24.9514  -13.2252   23.2190 C   0  0  0  0  0  0  0  0  0  0  0  0
  -19.3750  -29.1729   21.8163 C   0  0  0  0  0  0  0  0  0  0  0  0
  -26.3293  -13.8784   23.0979 C   0  0  0  0  0  0  0  0  0  0  0  0
  -29.5430  -24.9071   19.8770 C   0  0  0  0  0  0  0  0  0  0  0  0
  -23.9435  -13.8517   22.2580 C   0  0  0  0  0  0  0  0  0  0  0  0
  -25.2003  -15.9715   22.2358 C   0  0  0  0  0  0  0  0  0  0  0  0
  -20.5474  -28.1946   21.6761 C   0  0  1  0  0  0  0  0  0  0  0  0
  -23.5767  -29.6908   23.4134 C   0  0  1  0  0  0  0  0  0  0  0  0
  -29.6610  -23.4208   19.5051 C   0  0  1  0  0  0  0  0  0  0  0  0
  -26.2365  -15.4109   23.2250 C   0  0  2  0  0  0  0  0  0  0  0  0
  -28.2386  -25.6128   19.4948 C   0  0  1  0  0  0  0  0  0  1  0  0
  -28.6947  -22.5456   20.3086 C   0  0  0  0  0  0  0  0  0  0  0  0
  -28.2115  -35.7564   24.7289 C   0  0  0  0  0  0  0  0  0  0  0  0
  -23.2920  -33.5477   20.8829 C   0  0  0  0  0  0  0  0  0  0  0  0
  -25.0552  -35.2668   21.3348 C   0  0  0  0  0  0  0  0  0  0  0  0
  -23.2101  -34.9139   22.9760 C   0  0  0  0  0  0  0  0  0  0  0  0
  -28.7617  -32.1800   25.9046 C   0  0  0  0  0  0  0  0  0  0  0  0
  -25.7092  -21.0186   15.5834 C   0  0  0  0  0  0  0  0  0  0  0  0
  -24.8726  -20.1576   16.5384 C   0  0  0  0  0  0  0  0  0  0  0  0
  -23.6626  -20.8590   17.1677 C   0  0  0  0  0  0  0  0  0  0  0  0
  -22.9109  -19.9888   18.1776 C   0  0  0  0  0  0  0  0  0  0  0  0
  -21.6963  -20.6895   18.7973 C   0  0  0  0  0  0  0  0  0  0  0  0
  -20.8646  -19.8447   19.7686 C   0  0  0  0  0  0  0  0  0  0  0  0
  -21.6380  -19.4234   21.0200 C   0  0  0  0  0  0  0  0  0  0  0  0
  -20.8109  -18.5674   21.9868 C   0  0  0  0  0  0  0  0  0  0  0  0
  -21.5624  -18.0894   23.2259 C   0  0  0  0  0  0  0  0  0  0  0  0
  -25.0258  -33.1681   22.7580 C   0  0  1  0  0  0  0  0  0  0  0  0
  -27.8082  -34.3272   25.0568 C   0  0  2  0  0  0  0  0  0  0  0  0
  -24.1527  -34.1967   21.9852 C   0  0  0  0  0  0  0  0  0  0  0  0
  -26.2361  -24.5480   16.8372 N   0  0  0  0  0  0  0  0  0  0  0  0
  -27.9758  -16.4802   21.8416 N   0  0  0  0  0  0  0  0  0  0  0  0
  -27.5941  -16.0693   23.0628 N   0  0  0  0  0  0  0  0  0  0  0  0
  -24.4725  -30.7668   22.9844 N   0  0  0  0  0  0  0  0  0  0  0  0
  -23.9027  -15.3058   22.4306 N   0  0  0  0  0  0  0  0  0  0  0  0
  -28.2940  -15.9593   25.3231 N   0  0  0  0  0  0  0  0  0  0  0  0
  -31.7712  -17.9632   23.2520 N   0  0  0  0  0  0  0  0  0  0  0  0
  -21.6090  -28.5428   22.5960 N   0  0  0  0  0  0  0  0  0  0  0  0
  -25.8311  -33.7508   23.8259 N   0  0  0  0  0  0  0  0  0  0  0  0
  -22.7339  -17.3083   22.8968 N   0  0  0  0  0  0  0  0  0  0  0  0
  -29.0176  -33.5934   25.5256 N   0  3  0  0  0  0  0  0  0  0  0  0
  -30.9954  -17.1988   25.2700 O   0  0  0  0  0  0  0  0  0  0  0  0
  -22.6687  -30.1469   21.2821 O   0  0  0  0  0  0  0  0  0  0  0  0
  -23.3499  -32.3793   24.2397 O   0  0  0  0  0  0  0  0  0  0  0  0
  -27.8841  -33.0474   23.0089 O   0  0  0  0  0  0  0  0  0  0  0  0
  -21.6283  -15.2998   22.8833 O   0  0  0  0  0  0  0  0  0  0  0  0
  -32.1238  -19.1652   17.8244 O   0  0  0  0  0  0  0  0  0  0  0  0
  -28.2995  -26.9509   20.0003 O   0  0  0  0  0  0  0  0  0  1  0  0
  -30.4764  -17.9734   12.6990 F   0  0  0  0  0  0  0  0  0  0  0  0
  -33.8043  -17.8553   16.0630 F   0  0  0  0  0  0  0  0  0  0  0  0
  1  2  1  0  0  0  0
  1  5  2  0  0  0  0
  2  6  2  0  0  0  0
  3  8  2  0  0  0  0
  3 17  1  0  0  0  0
  4  9  1  0  0  0  0
  4 17  2  0  0  0  0
  5 19  1  0  0  0  0
  6 21  1  0  0  0  0
  7 10  2  0  0  0  0
  7 20  1  0  0  0  0
  8 25  1  0  0  0  0
  9 25  2  0  0  0  0
 10 26  1  0  0  0  0
 11 12  2  0  0  0  0
 11 27  1  0  0  0  0
 12 28  1  0  0  0  0
 13 22  1  0  0  0  0
 13 24  2  0  0  0  0
 14 23  1  0  0  0  0
 14 26  2  0  0  0  0
 15 28  2  0  0  0  0
 15 29  1  0  0  0  0
 16 24  1  0  0  0  0
 16 73  2  0  0  0  0
 17 30  1  0  0  0  0
 18 30  1  0  0  0  0
 18 32  2  0  0  0  0
 18 33  1  0  0  0  0
 19 21  2  0  0  0  0
 19 38  1  0  0  0  0
 20 23  2  0  0  0  0
 20 39  1  0  0  0  0
 21 50  1  0  0  0  0
 22 31  2  0  0  0  0
 22 40  1  0  0  0  0
 23 41  1  0  0  0  0
 24 61  1  0  0  0  0
 25 89  1  0  0  0  0
 26 90  1  0  0  0  0
 27 29  2  0  0  0  0
 27 89  1  0  0  0  0
 28 91  1  0  0  0  0
 29 92  1  0  0  0  0
 30 74  2  0  0  0  0
 31 42  1  0  0  0  0
 31 73  1  0  0  0  0
 32 75  1  0  0  0  0
 32 78  1  0  0  0  0
 33 79  1  0  0  0  0
 33 84  2  0  0  0  0
 34 51  1  0  0  0  0
 34 80  1  0  0  0  0
 34 85  2  0  0  0  0
 35 70  1  0  0  0  0
 35 76  1  0  0  0  0
 35 86  2  0  0  0  0
 36 71  1  0  0  0  0
 36 81  1  0  0  0  0
 36 87  2  0  0  0  0
 37 77  1  0  0  0  0
 37 82  1  0  0  0  0
 37 88  2  0  0  0  0
 38 43  1  0  0  0  0
 39 51  1  0  0  0  0
 40 52  1  0  0  0  0
 41 76  1  0  0  0  0
 42 54  1  0  0  0  0
 43 45  1  0  0  0  0
 44 46  1  0  0  0  0
 44 48  1  0  0  0  0
 45 50  1  0  0  0  0
 46 53  1  0  0  0  0
 47 52  1  0  0  0  0
 47 54  1  0  0  0  0
 48 77  1  0  0  0  0
 49 53  1  0  0  0  0
 49 77  1  0  0  0  0
 50 80  1  0  0  0  0
 51 76  1  0  0  0  0
 52 55  1  0  0  0  0
 53 75  1  0  0  0  0
 54 90  1  0  0  0  0
 56 71  1  0  0  0  0
 57 72  1  0  0  0  0
 58 72  1  0  0  0  0
 59 72  1  0  0  0  0
 60 83  1  0  0  0  0
 61 62  1  0  0  0  0
 62 63  1  0  0  0  0
 63 64  1  0  0  0  0
 64 65  1  0  0  0  0
 65 66  1  0  0  0  0
 66 67  1  0  0  0  0
 67 68  1  0  0  0  0
 68 69  1  0  0  0  0
 69 82  1  0  0  0  0
 70 72  1  0  0  0  0
 70 81  1  0  0  0  0
 71 83  1  0  0  0  0
 74 75  1  0  0  0  0
M  CHG  1  83   1
M  ISO  4  37 100  54 101  82 100  90 101
M  END
> <Batch ID>
0031

> <Smiles>
CNC(C)C(=O)NC(C(=O)N1Cc2cc([101O:1][101CH:1]3Cc4ncc(CCCCCCCCC[100NH:0][100C:0](=O)N5CCCC(n6nc(-c7ccc(Oc8ccc(F)cc8F)cc7)c(C(N)=O)c6N)C5)cc4CC(C)C3)ccc2CC1C(=O)NC1CCCc2ccccc21)C(C)(C)C

> <Shape>
0.207

> <Color>
0.075

> <Negative vol penalty>
0.000

$$$$

  -OEChem-04052316423D

 82 90  0     1  0  0  0  0  0999 V2000
  -20.3873  -27.9805   22.9911 C   0  0  0  0  0  0  0  0  0  0  0  0
  -21.0988  -26.8364   23.3381 C   0  0  0  0  0  0  0  0  0  0  0  0
  -23.0143   -9.8827   19.9874 C   0  0  0  0  0  0  0  0  0  0  0  0
  -23.6917  -10.0000   22.3036 C   0  0  0  0  0  0  0  0  0  0  0  0
  -19.1930  -27.8686   22.2805 C   0  0  0  0  0  0  0  0  0  0  0  0
  -20.6157  -25.5796   22.9755 C   0  0  0  0  0  0  0  0  0  0  0  0
  -24.2329  -22.5769   21.0930 C   0  0  0  0  0  0  0  0  0  0  0  0
  -22.2547   -8.7468   20.2671 C   0  0  0  0  0  0  0  0  0  0  0  0
  -22.9320   -8.8641   22.5833 C   0  0  0  0  0  0  0  0  0  0  0  0
  -25.0979  -21.9734   22.0048 C   0  0  0  0  0  0  0  0  0  0  0  0
  -23.2217   -5.5173   22.2016 C   0  0  0  0  0  0  0  0  0  0  0  0
  -23.8047   -4.5261   22.9911 C   0  0  0  0  0  0  0  0  0  0  0  0
  -23.8308  -19.9270   21.8431 C   0  0  0  0  0  0  0  0  0  0  0  0
  -22.0444   -4.7918   24.6245 C   0  0  0  0  0  0  0  0  0  0  0  0
  -28.5011  -19.5416   25.2331 C   0  0  0  0  0  0  0  0  0  0  0  0
  -23.7328  -10.5094   21.0057 C   0  0  0  0  0  0  0  0  0  0  0  0
  -24.0946  -13.0239   20.7734 C   0  0  0  0  0  0  0  0  0  0  0  0
  -18.7000  -26.6103   21.9006 C   0  0  0  0  0  0  0  0  0  0  0  0
  -23.1522  -21.8621   20.5568 C   0  0  0  0  0  0  0  0  0  0  0  0
  -19.4129  -25.4507   22.2603 C   0  0  0  0  0  0  0  0  0  0  0  0
  -22.9551  -20.5229   20.9227 C   0  0  0  0  0  0  0  0  0  0  0  0
  -22.2135   -8.2375   21.5650 C   0  0  0  0  0  0  0  0  0  0  0  0
  -24.8952  -20.6491   22.3822 C   0  0  0  0  0  0  0  0  0  0  0  0
  -22.0502   -6.1458   22.6236 C   0  0  0  0  0  0  0  0  0  0  0  0
  -23.2160   -4.1633   24.2025 C   0  0  0  0  0  0  0  0  0  0  0  0
  -21.4615   -5.7831   23.8350 C   0  0  0  0  0  0  0  0  0  0  0  0
  -29.7394  -18.8888   24.9674 C   0  0  0  0  0  0  0  0  0  0  0  0
  -24.5181  -11.6825   20.7173 C   0  0  0  0  0  0  0  0  0  0  0  0
  -27.4361  -18.6690   25.1884 C   0  0  0  0  0  0  0  0  0  0  0  0
  -29.5737  -17.5419   24.7299 C   0  0  0  0  0  0  0  0  0  0  0  0
  -25.2038  -13.7494   20.4131 C   0  0  0  0  0  0  0  0  0  0  0  0
  -22.8133  -13.5656   21.1203 C   0  0  0  0  0  0  0  0  0  0  0  0
  -19.9908  -22.1835   20.6340 C   0  0  0  0  0  0  0  0  0  0  0  0
  -20.0785  -19.7105   18.5366 C   0  0  0  0  0  0  0  0  0  0  0  0
  -21.7703  -17.0144   17.3055 C   0  0  0  0  0  0  0  0  0  0  0  0
  -30.6836  -14.7517   20.7484 C   0  0  0  0  0  0  0  0  0  0  0  0
  -17.3803  -26.5368   21.1743 C   0  0  0  0  0  0  0  0  0  0  0  0
  -22.2440  -22.5193   19.5540 C   0  0  0  0  0  0  0  0  0  0  0  0
  -21.8217  -19.7058   20.3605 C   0  0  0  0  0  0  0  0  0  0  0  0
  -17.1290  -25.1893   20.5025 C   0  0  0  0  0  0  0  0  0  0  0  0
  -29.6171  -12.2569   18.4430 C   0  0  0  0  0  0  0  0  0  0  0  0
  -17.4551  -24.0468   21.4591 C   0  0  0  0  0  0  0  0  0  0  0  0
  -28.1633  -11.9916   18.8378 C   0  0  0  0  0  0  0  0  0  0  0  0
  -30.4921  -12.5329   19.6637 C   0  0  0  0  0  0  0  0  0  0  0  0
  -28.5466  -13.3405   20.9431 C   0  0  0  0  0  0  0  0  0  0  0  0
  -18.9341  -24.0710   21.8635 C   0  0  1  0  0  0  0  0  0  0  0  0
  -20.8736  -21.8549   19.4634 C   0  0  1  0  0  0  0  0  0  0  0  0
  -27.6141  -13.1121   19.7412 C   0  0  2  0  0  0  0  0  0  0  0  0
  -21.5712  -15.1654   15.6205 C   0  0  0  0  0  0  0  0  0  0  0  0
  -18.1446  -18.2400   20.3825 C   0  0  0  0  0  0  0  0  0  0  0  0
  -18.7244  -16.1189   19.1854 C   0  0  0  0  0  0  0  0  0  0  0  0
  -17.6483  -17.9957   17.9435 C   0  0  0  0  0  0  0  0  0  0  0  0
  -24.1594  -17.9465   15.8282 C   0  0  0  0  0  0  0  0  0  0  0  0
  -25.9721  -18.9613   25.4114 C   0  0  0  0  0  0  0  0  0  0  0  0
  -30.6044  -16.5279   24.4197 C   0  0  0  0  0  0  0  0  0  0  0  0
  -31.4891  -16.8534   23.1934 C   0  0  0  0  0  0  0  0  0  0  0  0
  -30.7187  -16.9607   21.8791 C   0  0  0  0  0  0  0  0  0  0  0  0
  -25.1902  -19.0358   24.1044 C   0  0  0  0  0  0  0  0  0  1  0  0
  -20.0647  -18.2058   18.6568 C   0  0  1  0  0  0  0  0  0  0  0  0
  -22.0709  -16.5776   15.8831 C   0  0  2  0  0  0  0  0  0  0  0  0
  -18.6658  -17.6558   19.0543 C   0  0  0  0  0  0  0  0  0  0  0  0
  -25.7965  -11.5603   20.3501 N   0  0  0  0  0  0  0  0  0  0  0  0
  -26.1859  -12.8342   20.1722 N   0  0  0  0  0  0  0  0  0  0  0  0
  -20.9572  -20.3949   19.3883 N   0  0  0  0  0  0  0  0  0  0  0  0
  -29.9167  -13.6066   20.4774 N   0  0  0  0  0  0  0  0  0  0  0  0
  -25.4251  -15.0747   20.2821 N   0  0  0  0  0  0  0  0  0  0  0  0
  -21.7842  -12.6789   21.4654 N   0  0  0  0  0  0  0  0  0  0  0  0
  -19.7575  -23.5353   20.8007 N   0  0  0  0  0  0  0  0  0  0  0  0
  -20.5714  -17.6904   17.3896 N   0  0  0  0  0  0  0  0  0  0  0  0
  -30.0606  -15.7239   21.5214 N   0  0  0  0  0  0  0  0  0  0  0  0
  -23.5392  -16.6111   15.6303 N   0  3  0  0  0  0  0  0  0  0  0  0
  -22.5829  -14.7986   21.1082 O   0  0  0  0  0  0  0  0  0  0  0  0
  -19.5524  -21.2777   21.3332 O   0  0  0  0  0  0  0  0  0  0  0  0
  -19.3421  -20.2581   17.7123 O   0  0  0  0  0  0  0  0  0  0  0  0
  -22.5219  -16.7764   18.2483 O   0  0  0  0  0  0  0  0  0  0  0  0
  -31.8362  -14.8993   20.3279 O   0  0  0  0  0  0  0  0  0  0  0  0
  -21.4722   -7.1292   21.8383 O   0  0  0  0  0  0  0  0  0  0  0  0
  -25.7376  -20.0579   23.2725 O   0  0  0  0  0  0  0  0  0  1  0  0
  -23.7751   -3.2104   24.9598 F   0  0  0  0  0  0  0  0  0  0  0  0
  -20.3353   -6.3826   24.2451 F   0  0  0  0  0  0  0  0  0  0  0  0
  -30.9187  -19.5128   24.9528 F   0  0  0  0  0  0  0  0  0  0  0  0
  -27.9305  -17.0698   24.8273 S   0  0  0  0  0  0  0  0  0  0  0  0
  1  2  1  0  0  0  0
  1  5  2  0  0  0  0
  2  6  2  0  0  0  0
  3  8  2  0  0  0  0
  3 16  1  0  0  0  0
  4  9  1  0  0  0  0
  4 16  2  0  0  0  0
  5 18  1  0  0  0  0
  6 20  1  0  0  0  0
  7 10  2  0  0  0  0
  7 19  1  0  0  0  0
  8 22  1  0  0  0  0
  9 22  2  0  0  0  0
 10 23  1  0  0  0  0
 11 12  2  0  0  0  0
 11 24  1  0  0  0  0
 12 25  1  0  0  0  0
 13 21  1  0  0  0  0
 13 23  2  0  0  0  0
 14 25  2  0  0  0  0
 14 26  1  0  0  0  0
 15 27  1  0  0  0  0
 15 29  2  0  0  0  0
 16 28  1  0  0  0  0
 17 28  1  0  0  0  0
 17 31  2  0  0  0  0
 17 32  1  0  0  0  0
 18 20  2  0  0  0  0
 18 37  1  0  0  0  0
 19 21  2  0  0  0  0
 19 38  1  0  0  0  0
 20 46  1  0  0  0  0
 21 39  1  0  0  0  0
 22 77  1  0  0  0  0
 23 78  1  0  0  0  0
 24 26  2  0  0  0  0
 24 77  1  0  0  0  0
 25 79  1  0  0  0  0
 26 80  1  0  0  0  0
 27 30  2  0  0  0  0
 27 81  1  0  0  0  0
 28 62  2  0  0  0  0
 29 54  1  0  0  0  0
 29 82  1  0  0  0  0
 30 55  1  0  0  0  0
 30 82  1  0  0  0  0
 31 63  1  0  0  0  0
 31 66  1  0  0  0  0
 32 67  1  0  0  0  0
 32 72  2  0  0  0  0
 33 47  1  0  0  0  0
 33 68  1  0  0  0  0
 33 73  2  0  0  0  0
 34 59  1  0  0  0  0
 34 64  1  0  0  0  0
 34 74  2  0  0  0  0
 35 60  1  0  0  0  0
 35 69  1  0  0  0  0
 35 75  2  0  0  0  0
 36 65  1  0  0  0  0
 36 70  1  0  0  0  0
 36 76  2  0  0  0  0
 37 40  1  0  0  0  0
 38 47  1  0  0  0  0
 39 64  1  0  0  0  0
 40 42  1  0  0  0  0
 41 43  1  0  0  0  0
 41 44  1  0  0  0  0
 42 46  1  0  0  0  0
 43 48  1  0  0  0  0
 44 65  1  0  0  0  0
 45 48  1  0  0  0  0
 45 65  1  0  0  0  0
 46 68  1  0  0  0  0
 47 64  1  0  0  0  0
 48 63  1  0  0  0  0
 49 60  1  0  0  0  0
 50 61  1  0  0  0  0
 51 61  1  0  0  0  0
 52 61  1  0  0  0  0
 53 71  1  0  0  0  0
 54 58  1  0  0  0  0
 55 56  1  0  0  0  0
 56 57  1  0  0  0  0
 57 70  1  0  0  0  0
 58 78  1  0  0  0  0
 59 61  1  0  0  0  0
 59 69  1  0  0  0  0
 60 71  1  0  0  0  0
 62 63  1  0  0  0  0
M  CHG  1  71   1
M  ISO  4  36 100  58 101  70 100  78 101
M  END
> <Batch ID>
0031

> <Smiles>
CNC(C)C(=O)NC(C(=O)N1Cc2cc([101O:1][101CH2:1]Cc3cc(F)c(CCC[100NH:0][100C:0](=O)N4CCCC(n5nc(-c6ccc(Oc7ccc(F)cc7F)cc6)c(C(N)=O)c5N)C4)s3)ccc2CC1C(=O)NC1CCCc2ccccc21)C(C)(C)C

> <Shape>
0.216

> <Color>
0.214

> <Negative vol penalty>
0.000

$$$$

  -OEChem-04052316423D

 83 92  0     1  0  0  0  0  0999 V2000
  -16.6801  -29.9445   23.1661 C   0  0  0  0  0  0  0  0  0  0  0  0
  -17.7723  -30.6089   22.6175 C   0  0  0  0  0  0  0  0  0  0  0  0
  -25.8517  -14.9157   21.7327 C   0  0  0  0  0  0  0  0  0  0  0  0
  -25.6395  -15.2155   19.3448 C   0  0  0  0  0  0  0  0  0  0  0  0
  -16.8773  -28.7988   23.9359 C   0  0  0  0  0  0  0  0  0  0  0  0
  -19.0625  -30.1286   22.8392 C   0  0  0  0  0  0  0  0  0  0  0  0
  -25.4638  -29.6476   19.6597 C   0  0  0  0  0  0  0  0  0  0  0  0
  -24.4987  -14.5861   21.8116 C   0  0  0  0  0  0  0  0  0  0  0  0
  -24.2865  -14.8858   19.4236 C   0  0  0  0  0  0  0  0  0  0  0  0
  -26.8069  -29.9400   19.8929 C   0  0  0  0  0  0  0  0  0  0  0  0
  -22.5510  -11.8922   21.1932 C   0  0  0  0  0  0  0  0  0  0  0  0
  -22.1970  -10.7878   21.9680 C   0  0  0  0  0  0  0  0  0  0  0  0
  -27.0211  -27.9067   21.1731 C   0  0  0  0  0  0  0  0  0  0  0  0
  -30.8349  -25.2829   18.9381 C   0  0  0  0  0  0  0  0  0  0  0  0
  -20.8287  -12.2066   23.3651 C   0  0  0  0  0  0  0  0  0  0  0  0
  -33.2332  -26.5441   18.6567 C   0  0  0  0  0  0  0  0  0  0  0  0
  -26.4221  -15.2305   20.4993 C   0  0  0  0  0  0  0  0  0  0  0  0
  -28.8988  -14.6915   20.2107 C   0  0  0  0  0  0  0  0  0  0  0  0
  -18.1698  -28.2987   24.1591 C   0  0  0  0  0  0  0  0  0  0  0  0
  -24.8855  -28.4861   20.1916 C   0  0  0  0  0  0  0  0  0  0  0  0
  -19.2772  -28.9759   23.6138 C   0  0  0  0  0  0  0  0  0  0  0  0
  -25.6711  -27.6006   20.9431 C   0  0  0  0  0  0  0  0  0  0  0  0
  -30.9384  -26.6248   19.3165 C   0  0  0  0  0  0  0  0  0  0  0  0
  -32.1740  -27.2742   19.1909 C   0  0  0  0  0  0  0  0  0  0  0  0
  -23.7160  -14.5711   20.6570 C   0  0  0  0  0  0  0  0  0  0  0  0
  -27.5850  -29.0710   20.6521 C   0  0  0  0  0  0  0  0  0  0  0  0
  -22.0440  -13.1539   21.5043 C   0  0  0  0  0  0  0  0  0  0  0  0
  -21.3358  -10.9449   23.0540 C   0  0  0  0  0  0  0  0  0  0  0  0
  -21.1828  -13.3111   22.5903 C   0  0  0  0  0  0  0  0  0  0  0  0
  -27.8196  -15.5716   20.4173 C   0  0  0  0  0  0  0  0  0  0  0  0
  -31.9576  -24.6511   18.4281 C   0  0  0  0  0  0  0  0  0  0  0  0
  -30.0079  -15.5017   20.2130 C   0  0  0  0  0  0  0  0  0  0  0  0
  -28.8988  -13.2689   20.0326 C   0  0  0  0  0  0  0  0  0  0  0  0
  -22.5316  -27.8889   22.2424 C   0  0  0  0  0  0  0  0  0  0  0  0
  -23.0938  -24.8102   21.3896 C   0  0  0  0  0  0  0  0  0  0  0  0
  -25.2607  -22.0498   20.5515 C   0  0  0  0  0  0  0  0  0  0  0  0
  -30.7070  -21.2164   18.9056 C   0  0  0  0  0  0  0  0  0  0  0  0
  -18.3365  -27.0839   25.0373 C   0  0  0  0  0  0  0  0  0  0  0  0
  -23.4421  -28.1715   19.9086 C   0  0  0  0  0  0  0  0  0  0  0  0
  -29.7360  -27.3202   19.9034 C   0  0  0  0  0  0  0  0  0  0  0  0
  -32.3612  -28.7208   19.5521 C   0  0  0  0  0  0  0  0  0  0  0  0
  -25.1033  -26.3302   21.5194 C   0  0  0  0  0  0  0  0  0  0  0  0
  -19.7086  -26.4265   24.9134 C   0  0  0  0  0  0  0  0  0  0  0  0
  -31.2382  -29.2650   20.4323 C   0  0  0  0  0  0  0  0  0  0  0  0
  -31.6292  -19.6254   22.0226 C   0  0  0  0  0  0  0  0  0  0  0  0
  -20.8119  -27.4782   24.9730 C   0  0  0  0  0  0  0  0  0  0  0  0
  -30.8495  -18.3121   21.9361 C   0  0  0  0  0  0  0  0  0  0  0  0
  -30.8290  -20.7833   21.4335 C   0  0  0  0  0  0  0  0  0  0  0  0
  -29.5977  -19.2569   19.9410 C   0  0  0  0  0  0  0  0  0  0  0  0
  -20.6903  -28.4717   23.8112 C   0  0  1  0  0  0  0  0  0  0  0  0
  -22.8266  -27.2199   20.9298 C   0  0  1  0  0  0  0  0  0  0  0  0
  -30.3624  -18.0432   20.4999 C   0  0  2  0  0  0  0  0  0  0  0  0
  -29.8464  -28.8550   19.9342 C   0  0  1  0  0  0  0  0  0  1  0  0
  -29.5117  -29.4794   18.5752 C   0  0  0  0  0  0  0  0  0  0  0  0
  -24.7161  -19.7009   19.8564 C   0  0  0  0  0  0  0  0  0  0  0  0
  -23.3857  -24.1722   24.3590 C   0  0  0  0  0  0  0  0  0  0  0  0
  -24.4809  -22.0144   23.7165 C   0  0  0  0  0  0  0  0  0  0  0  0
  -22.1207  -22.4619   23.0440 C   0  0  0  0  0  0  0  0  0  0  0  0
  -26.8666  -22.2863   18.0768 C   0  0  0  0  0  0  0  0  0  0  0  0
  -31.8664  -23.2204   18.0131 C   0  0  0  0  0  0  0  0  0  0  0  0
  -23.9950  -23.7088   21.8933 C   0  0  1  0  0  0  0  0  0  0  0  0
  -25.1035  -21.0933   19.3833 C   0  0  2  0  0  0  0  0  0  0  0  0
  -23.5061  -23.1142   23.2441 C   0  0  0  0  0  0  0  0  0  0  0  0
  -33.1568  -25.2499   18.2746 N   0  0  0  0  0  0  0  0  0  0  0  0
  -28.2080  -16.8434   20.5419 N   0  0  0  0  0  0  0  0  0  0  0  0
  -29.5437  -16.7685   20.4134 N   0  0  0  0  0  0  0  0  0  0  0  0
  -23.6854  -26.0700   21.2202 N   0  0  0  0  0  0  0  0  0  0  0  0
  -30.4116  -20.4713   20.0592 N   0  0  0  0  0  0  0  0  0  0  0  0
  -31.3251  -15.2471   20.0633 N   0  0  0  0  0  0  0  0  0  0  0  0
  -27.6715  -12.5925   20.0575 N   0  0  0  0  0  0  0  0  0  0  0  0
  -21.1938  -27.8835   22.5885 N   0  0  0  0  0  0  0  0  0  0  0  0
  -24.0924  -22.7344   20.8118 N   0  0  0  0  0  0  0  0  0  0  0  0
  -31.4767  -22.3560   19.1048 N   0  0  0  0  0  0  0  0  0  0  0  0
  -26.3801  -20.9924   18.6210 N   0  3  0  0  0  0  0  0  0  0  0  0
  -29.9571  -12.6148   19.8730 O   0  0  0  0  0  0  0  0  0  0  0  0
  -23.4499  -28.3729   22.8938 O   0  0  0  0  0  0  0  0  0  0  0  0
  -21.9102  -24.5601   21.1482 O   0  0  0  0  0  0  0  0  0  0  0  0
  -26.3134  -22.1744   21.1734 O   0  0  0  0  0  0  0  0  0  0  0  0
  -30.3180  -20.8875   17.7797 O   0  0  0  0  0  0  0  0  0  0  0  0
  -22.3958  -14.2493   20.7336 O   0  0  0  0  0  0  0  0  0  0  0  0
  -28.8961  -29.3544   20.8817 O   0  0  0  0  0  0  0  0  0  1  0  0
  -20.9947   -9.8840   23.7971 F   0  0  0  0  0  0  0  0  0  0  0  0
  -20.6915  -14.5205   22.8934 F   0  0  0  0  0  0  0  0  0  0  0  0
  1  2  1  0  0  0  0
  1  5  2  0  0  0  0
  2  6  2  0  0  0  0
  3  8  2  0  0  0  0
  3 17  1  0  0  0  0
  4  9  1  0  0  0  0
  4 17  2  0  0  0  0
  5 19  1  0  0  0  0
  6 21  1  0  0  0  0
  7 10  2  0  0  0  0
  7 20  1  0  0  0  0
  8 25  1  0  0  0  0
  9 25  2  0  0  0  0
 10 26  1  0  0  0  0
 11 12  2  0  0  0  0
 11 27  1  0  0  0  0
 12 28  1  0  0  0  0
 13 22  1  0  0  0  0
 13 26  2  0  0  0  0
 14 23  1  0  0  0  0
 14 31  2  0  0  0  0
 15 28  2  0  0  0  0
 15 29  1  0  0  0  0
 16 24  1  0  0  0  0
 16 64  2  0  0  0  0
 17 30  1  0  0  0  0
 18 30  1  0  0  0  0
 18 32  2  0  0  0  0
 18 33  1  0  0  0  0
 19 21  2  0  0  0  0
 19 38  1  0  0  0  0
 20 22  2  0  0  0  0
 20 39  1  0  0  0  0
 21 50  1  0  0  0  0
 22 42  1  0  0  0  0
 23 24  2  0  0  0  0
 23 40  1  0  0  0  0
 24 41  1  0  0  0  0
 25 80  1  0  0  0  0
 26 81  1  0  0  0  0
 27 29  2  0  0  0  0
 27 80  1  0  0  0  0
 28 82  1  0  0  0  0
 29 83  1  0  0  0  0
 30 65  2  0  0  0  0
 31 60  1  0  0  0  0
 31 64  1  0  0  0  0
 32 66  1  0  0  0  0
 32 69  1  0  0  0  0
 33 70  1  0  0  0  0
 33 75  2  0  0  0  0
 34 51  1  0  0  0  0
 34 71  1  0  0  0  0
 34 76  2  0  0  0  0
 35 61  1  0  0  0  0
 35 67  1  0  0  0  0
 35 77  2  0  0  0  0
 36 62  1  0  0  0  0
 36 72  1  0  0  0  0
 36 78  2  0  0  0  0
 37 68  1  0  0  0  0
 37 73  1  0  0  0  0
 37 79  2  0  0  0  0
 38 43  1  0  0  0  0
 39 51  1  0  0  0  0
 40 53  1  0  0  0  0
 41 44  1  0  0  0  0
 42 67  1  0  0  0  0
 43 46  1  0  0  0  0
 44 53  1  0  0  0  0
 45 47  1  0  0  0  0
 45 48  1  0  0  0  0
 46 50  1  0  0  0  0
 47 52  1  0  0  0  0
 48 68  1  0  0  0  0
 49 52  1  0  0  0  0
 49 68  1  0  0  0  0
 50 71  1  0  0  0  0
 51 67  1  0  0  0  0
 52 66  1  0  0  0  0
 53 54  1  0  0  0  0
 53 81  1  0  0  0  0
 55 62  1  0  0  0  0
 56 63  1  0  0  0  0
 57 63  1  0  0  0  0
 58 63  1  0  0  0  0
 59 74  1  0  0  0  0
 60 73  1  0  0  0  0
 61 63  1  0  0  0  0
 61 72  1  0  0  0  0
 62 74  1  0  0  0  0
 65 66  1  0  0  0  0
M  CHG  1  74   1
M  ISO  4  37 100  53 101  73 100  81 101
M  END
> <Batch ID>
0031

> <Smiles>
CNC(C)C(=O)NC(C(=O)N1Cc2cc([101O:1][101C:1]3(C)CCc4cnc(C[100NH:0][100C:0](=O)N5CCCC(n6nc(-c7ccc(Oc8ccc(F)cc8F)cc7)c(C(N)=O)c6N)C5)cc4C3)ccc2CC1C(=O)NC1CCCc2ccccc21)C(C)(C)C

> <Shape>
0.243

> <Color>
0.077

> <Negative vol penalty>
0.000

$$$$

  -OEChem-04052316423D

 90 99  0     1  0  0  0  0  0999 V2000
  -18.3054  -24.6984   28.1514 C   0  0  0  0  0  0  0  0  0  0  0  0
  -19.0037  -25.6683   27.4393 C   0  0  0  0  0  0  0  0  0  0  0  0
  -26.3409  -12.9727   21.2926 C   0  0  0  0  0  0  0  0  0  0  0  0
  -26.2573  -13.2859   18.8984 C   0  0  0  0  0  0  0  0  0  0  0  0
  -18.5968  -23.3487   27.9584 C   0  0  0  0  0  0  0  0  0  0  0  0
  -19.9946  -25.2890   26.5345 C   0  0  0  0  0  0  0  0  0  0  0  0
  -21.4029  -28.0431   21.2489 C   0  0  0  0  0  0  0  0  0  0  0  0
  -27.8334  -28.8584   23.4438 C   0  0  0  0  0  0  0  0  0  0  0  0
  -28.6602  -28.0732   22.6405 C   0  0  0  0  0  0  0  0  0  0  0  0
  -25.1164  -12.3062   21.2482 C   0  0  0  0  0  0  0  0  0  0  0  0
  -25.0328  -12.6193   18.8540 C   0  0  0  0  0  0  0  0  0  0  0  0
  -22.4010  -28.9526   20.9020 C   0  0  0  0  0  0  0  0  0  0  0  0
  -23.9852   -9.2259   20.4326 C   0  0  0  0  0  0  0  0  0  0  0  0
  -23.8641   -8.0431   21.1619 C   0  0  0  0  0  0  0  0  0  0  0  0
  -23.7745  -27.1343   20.1106 C   0  0  0  0  0  0  0  0  0  0  0  0
  -22.0662   -9.0193   22.4469 C   0  0  0  0  0  0  0  0  0  0  0  0
  -26.9113  -13.4626   20.1177 C   0  0  0  0  0  0  0  0  0  0  0  0
  -29.4584  -13.5835   20.0438 C   0  0  0  0  0  0  0  0  0  0  0  0
  -19.5851  -22.9522   27.0436 C   0  0  0  0  0  0  0  0  0  0  0  0
  -21.5879  -26.6690   21.0390 C   0  0  0  0  0  0  0  0  0  0  0  0
  -20.3004  -23.9328   26.3300 C   0  0  0  0  0  0  0  0  0  0  0  0
  -22.7762  -26.2096   20.4534 C   0  0  0  0  0  0  0  0  0  0  0  0
  -27.0062  -29.8201   22.8636 C   0  0  0  0  0  0  0  0  0  0  0  0
  -28.6599  -28.2497   21.2568 C   0  0  0  0  0  0  0  0  0  0  0  0
  -27.8328  -29.2114   20.6765 C   0  0  0  0  0  0  0  0  0  0  0  0
  -27.0059  -29.9966   21.4799 C   0  0  0  0  0  0  0  0  0  0  0  0
  -24.4624  -12.1294   20.0289 C   0  0  0  0  0  0  0  0  0  0  0  0
  -23.5882  -28.4980   20.3354 C   0  0  0  0  0  0  0  0  0  0  0  0
  -23.1467  -10.3055   20.7105 C   0  0  0  0  0  0  0  0  0  0  0  0
  -22.9046   -7.9398   22.1690 C   0  0  0  0  0  0  0  0  0  0  0  0
  -22.1872  -10.2022   21.7176 C   0  0  0  0  0  0  0  0  0  0  0  0
  -28.1759  -14.1517   20.1630 C   0  0  0  0  0  0  0  0  0  0  0  0
  -30.3176  -14.6495   20.1524 C   0  0  0  0  0  0  0  0  0  0  0  0
  -29.8389  -12.2146   19.8519 C   0  0  0  0  0  0  0  0  0  0  0  0
  -21.7107  -24.1091   22.9194 C   0  0  0  0  0  0  0  0  0  0  0  0
  -21.8307  -22.5212   20.0934 C   0  0  0  0  0  0  0  0  0  0  0  0
  -22.5929  -22.5796   16.7673 C   0  0  0  0  0  0  0  0  0  0  0  0
  -29.8763  -20.2931   18.9653 C   0  0  0  0  0  0  0  0  0  0  0  0
  -19.8975  -21.4834   26.9037 C   0  0  0  0  0  0  0  0  0  0  0  0
  -20.4908  -25.7033   21.3941 C   0  0  0  0  0  0  0  0  0  0  0  0
  -23.0158  -24.7464   20.1886 C   0  0  0  0  0  0  0  0  0  0  0  0
  -20.7028  -21.1486   25.6509 C   0  0  0  0  0  0  0  0  0  0  0  0
  -30.6852  -18.9861   22.1259 C   0  0  0  0  0  0  0  0  0  0  0  0
  -21.8672  -22.1207   25.4891 C   0  0  0  0  0  0  0  0  0  0  0  0
  -30.2544  -17.5280   21.9709 C   0  0  0  0  0  0  0  0  0  0  0  0
  -28.2277  -23.3865   19.2647 C   0  0  0  0  0  0  0  0  0  0  0  0
  -29.6939  -19.9491   21.4703 C   0  0  0  0  0  0  0  0  0  0  0  0
  -29.1776  -22.4748   20.0455 C   0  0  0  0  0  0  0  0  0  0  0  0
  -30.7560  -22.4557   18.1385 C   0  0  0  0  0  0  0  0  0  0  0  0
  -28.9757  -18.1814   19.8957 C   0  0  0  0  0  0  0  0  0  0  0  0
  -21.3651  -23.5599   25.3214 C   0  0  1  0  0  0  0  0  0  0  0  0
  -20.9946  -24.2795   21.6095 C   0  0  1  0  0  0  0  0  0  0  0  0
  -28.9488  -24.2511   18.2150 C   0  0  2  0  0  0  0  0  0  0  0  0
  -29.8231  -23.3487   17.3093 C   0  0  1  0  0  0  0  0  0  0  0  0
  -29.9815  -17.1864   20.4953 C   0  0  2  0  0  0  0  0  0  0  0  0
  -26.1302  -30.6473   23.7467 C   0  0  0  0  0  0  0  0  0  0  0  0
  -27.8350  -29.4003   19.1925 C   0  0  0  0  0  0  0  0  0  0  0  0
  -30.6199  -24.1365   16.2694 C   0  0  0  0  0  0  0  0  0  0  0  0
  -22.6206  -21.1192   14.7268 C   0  0  0  0  0  0  0  0  0  0  0  0
  -24.3485  -21.1374   21.1209 C   0  0  0  0  0  0  0  0  0  0  0  0
  -24.8477  -20.4499   18.7658 C   0  0  0  0  0  0  0  0  0  0  0  0
  -22.7684  -19.6445   19.8842 C   0  0  0  0  0  0  0  0  0  0  0  0
  -20.6676  -24.3244   15.3503 C   0  0  0  0  0  0  0  0  0  0  0  0
  -29.5648  -27.3889   20.4117 C   0  0  0  0  0  0  0  0  0  0  0  0
  -26.1169  -31.0277   20.8602 C   0  0  0  0  0  0  0  0  0  0  0  0
  -29.7191  -25.3925   18.8898 C   0  0  0  0  0  0  0  0  0  0  0  0
  -28.7847  -26.2733   19.7105 C   0  0  0  0  0  0  0  0  0  0  0  0
  -24.6575  -30.5770   20.7718 C   0  0  0  0  0  0  0  0  0  1  0  0
  -22.9340  -22.0641   19.1699 C   0  0  1  0  0  0  0  0  0  0  0  0
  -21.8170  -22.1157   15.5478 C   0  0  2  0  0  0  0  0  0  0  0  0
  -23.7212  -20.8514   19.7418 C   0  0  0  0  0  0  0  0  0  0  0  0
  -28.2125  -15.4758   20.3345 N   0  0  0  0  0  0  0  0  0  0  0  0
  -29.5284  -15.7486   20.3238 N   0  0  0  0  0  0  0  0  0  0  0  0
  -21.9157  -23.8409   20.5590 N   0  0  0  0  0  0  0  0  0  0  0  0
  -29.4343  -19.5603   20.0770 N   0  0  0  0  0  0  0  0  0  0  0  0
  -30.0056  -21.6811   19.1282 N   0  0  0  0  0  0  0  0  0  0  0  0
  -31.6638  -14.7446   20.1171 N   0  0  0  0  0  0  0  0  0  0  0  0
  -28.8292  -11.2468   19.7613 N   0  0  0  0  0  0  0  0  0  0  0  0
  -20.8830  -23.7731   23.9736 N   0  0  0  0  0  0  0  0  0  0  0  0
  -22.3064  -21.8130   17.8770 N   0  0  0  0  0  0  0  0  0  0  0  0
  -21.4777  -23.2766   14.6772 N   0  3  0  0  0  0  0  0  0  0  0  0
  -31.0394  -11.8579   19.7798 O   0  0  0  0  0  0  0  0  0  0  0  0
  -22.9246  -24.2692   22.9695 O   0  0  0  0  0  0  0  0  0  0  0  0
  -20.9230  -21.7384   20.3849 O   0  0  0  0  0  0  0  0  0  0  0  0
  -23.3777  -23.5250   16.7375 O   0  0  0  0  0  0  0  0  0  0  0  0
  -30.1401  -19.7403   17.8902 O   0  0  0  0  0  0  0  0  0  0  0  0
  -23.2676  -11.4789   19.9851 O   0  0  0  0  0  0  0  0  0  0  0  0
  -24.5712  -29.3898   19.9941 O   0  0  0  0  0  0  0  0  0  1  0  0
  -22.7875   -6.8033   22.8682 F   0  0  0  0  0  0  0  0  0  0  0  0
  -21.3781  -11.2356   21.9884 F   0  0  0  0  0  0  0  0  0  0  0  0
  1  2  1  0  0  0  0
  1  5  2  0  0  0  0
  2  6  2  0  0  0  0
  3 10  2  0  0  0  0
  3 17  1  0  0  0  0
  4 11  1  0  0  0  0
  4 17  2  0  0  0  0
  5 19  1  0  0  0  0
  6 21  1  0  0  0  0
  7 12  2  0  0  0  0
  7 20  1  0  0  0  0
  8  9  1  0  0  0  0
  8 23  2  0  0  0  0
  9 24  2  0  0  0  0
 10 27  1  0  0  0  0
 11 27  2  0  0  0  0
 12 28  1  0  0  0  0
 13 14  2  0  0  0  0
 13 29  1  0  0  0  0
 14 30  1  0  0  0  0
 15 22  1  0  0  0  0
 15 28  2  0  0  0  0
 16 30  2  0  0  0  0
 16 31  1  0  0  0  0
 17 32  1  0  0  0  0
 18 32  1  0  0  0  0
 18 33  2  0  0  0  0
 18 34  1  0  0  0  0
 19 21  2  0  0  0  0
 19 39  1  0  0  0  0
 20 22  2  0  0  0  0
 20 40  1  0  0  0  0
 21 51  1  0  0  0  0
 22 41  1  0  0  0  0
 23 26  1  0  0  0  0
 23 56  1  0  0  0  0
 24 25  1  0  0  0  0
 24 64  1  0  0  0  0
 25 26  2  0  0  0  0
 25 57  1  0  0  0  0
 26 65  1  0  0  0  0
 27 87  1  0  0  0  0
 28 88  1  0  0  0  0
 29 31  2  0  0  0  0
 29 87  1  0  0  0  0
 30 89  1  0  0  0  0
 31 90  1  0  0  0  0
 32 72  2  0  0  0  0
 33 73  1  0  0  0  0
 33 77  1  0  0  0  0
 34 78  1  0  0  0  0
 34 82  2  0  0  0  0
 35 52  1  0  0  0  0
 35 79  1  0  0  0  0
 35 83  2  0  0  0  0
 36 69  1  0  0  0  0
 36 74  1  0  0  0  0
 36 84  2  0  0  0  0
 37 70  1  0  0  0  0
 37 80  1  0  0  0  0
 37 85  2  0  0  0  0
 38 75  1  0  0  0  0
 38 76  1  0  0  0  0
 38 86  2  0  0  0  0
 39 42  1  0  0  0  0
 40 52  1  0  0  0  0
 41 74  1  0  0  0  0
 42 44  1  0  0  0  0
 43 45  1  0  0  0  0
 43 47  1  0  0  0  0
 44 51  1  0  0  0  0
 45 55  1  0  0  0  0
 46 48  1  0  0  0  0
 46 53  1  0  0  0  0
 47 75  1  0  0  0  0
 48 76  1  0  0  0  0
 49 54  1  0  0  0  0
 49 76  1  0  0  0  0
 50 55  1  0  0  0  0
 50 75  1  0  0  0  0
 51 79  1  0  0  0  0
 52 74  1  0  0  0  0
 53 54  1  0  0  0  0
 53 66  1  0  0  0  0
 54 58  1  0  0  0  0
 55 73  1  0  0  0  0
 59 70  1  0  0  0  0
 60 71  1  0  0  0  0
 61 71  1  0  0  0  0
 62 71  1  0  0  0  0
 63 81  1  0  0  0  0
 64 67  1  0  0  0  0
 65 68  1  0  0  0  0
 66 67  1  0  0  0  0
 68 88  1  0  0  0  0
 69 71  1  0  0  0  0
 69 80  1  0  0  0  0
 70 81  1  0  0  0  0
 72 73  1  0  0  0  0
M  CHG  1  81   1
M  ISO  4  38 100  68 101  76 100  88 101
M  END
> <Batch ID>
0031

> <Smiles>
CNC(C)C(=O)NC(C(=O)N1Cc2cc([101O:1][101CH2:1]Cc3c(C)ccc(CCCC4CC[100N:0]([100C:0](=O)N5CCCC(n6nc(-c7ccc(Oc8ccc(F)cc8F)cc7)c(C(N)=O)c6N)C5)CC4C)c3C)ccc2CC1C(=O)NC1CCCc2ccccc21)C(C)(C)C

> <Shape>
0.269

> <Color>
0.048

> <Negative vol penalty>
0.000

$$$$

  -OEChem-04052316423D

 83 91  0     1  0  0  0  0  0999 V2000
  -25.5298  -37.5711   22.3583 C   0  0  0  0  0  0  0  0  0  0  0  0
  -26.2134  -36.5377   21.7257 C   0  0  0  0  0  0  0  0  0  0  0  0
  -23.8456   -9.6378   21.9292 C   0  0  0  0  0  0  0  0  0  0  0  0
  -24.3943  -11.0392   23.8192 C   0  0  0  0  0  0  0  0  0  0  0  0
  -24.8902  -37.3398   23.5754 C   0  0  0  0  0  0  0  0  0  0  0  0
  -26.2588  -35.2726   22.3105 C   0  0  0  0  0  0  0  0  0  0  0  0
  -26.2739  -29.8765   19.4144 C   0  0  0  0  0  0  0  0  0  0  0  0
  -23.3679   -8.6553   22.7963 C   0  0  0  0  0  0  0  0  0  0  0  0
  -23.9165  -10.0566   24.6864 C   0  0  0  0  0  0  0  0  0  0  0  0
  -27.3014  -28.9982   19.0727 C   0  0  0  0  0  0  0  0  0  0  0  0
  -20.5725   -8.0777   24.6087 C   0  0  0  0  0  0  0  0  0  0  0  0
  -19.3550   -7.4733   24.2959 C   0  0  0  0  0  0  0  0  0  0  0  0
  -26.8642  -27.7191   21.0707 C   0  0  0  0  0  0  0  0  0  0  0  0
  -28.6064  -20.1997   18.2447 C   0  0  0  0  0  0  0  0  0  0  0  0
  -30.5504  -20.3056   19.6752 C   0  0  0  0  0  0  0  0  0  0  0  0
  -20.4508   -5.3229   24.1856 C   0  0  0  0  0  0  0  0  0  0  0  0
  -24.3588  -10.8298   22.4406 C   0  0  0  0  0  0  0  0  0  0  0  0
  -24.1216  -12.9031   20.9734 C   0  0  0  0  0  0  0  0  0  0  0  0
  -24.9196  -36.0688   24.1706 C   0  0  0  0  0  0  0  0  0  0  0  0
  -25.5398  -29.6886   20.5943 C   0  0  0  0  0  0  0  0  0  0  0  0
  -25.6202  -35.0245   23.5374 C   0  0  0  0  0  0  0  0  0  0  0  0
  -25.8262  -28.5949   21.4238 C   0  0  0  0  0  0  0  0  0  0  0  0
  -29.6551  -20.9284   18.8056 C   0  0  0  0  0  0  0  0  0  0  0  0
  -28.4528  -18.8481   18.5535 C   0  0  0  0  0  0  0  0  0  0  0  0
  -29.3480  -18.2253   19.4232 C   0  0  0  0  0  0  0  0  0  0  0  0
  -23.4034   -8.8646   24.1749 C   0  0  0  0  0  0  0  0  0  0  0  0
  -27.5985  -27.9210   19.9024 C   0  0  0  0  0  0  0  0  0  0  0  0
  -21.7292   -7.3047   24.7099 C   0  0  0  0  0  0  0  0  0  0  0  0
  -19.2941   -6.0959   24.0843 C   0  0  0  0  0  0  0  0  0  0  0  0
  -21.6684   -5.9273   24.4984 C   0  0  0  0  0  0  0  0  0  0  0  0
  -30.3968  -18.9540   19.9840 C   0  0  0  0  0  0  0  0  0  0  0  0
  -24.8530  -11.8449   21.5454 C   0  0  0  0  0  0  0  0  0  0  0  0
  -25.0388  -13.5794   20.2068 C   0  0  0  0  0  0  0  0  0  0  0  0
  -22.7369  -13.2442   21.1219 C   0  0  0  0  0  0  0  0  0  0  0  0
  -25.0860  -31.3799   23.2471 C   0  0  0  0  0  0  0  0  0  0  0  0
  -22.9608  -29.0235   23.9205 C   0  0  0  0  0  0  0  0  0  0  0  0
  -21.9557  -25.8000   23.4250 C   0  0  0  0  0  0  0  0  0  0  0  0
  -30.0871  -15.8180   19.4951 C   0  0  0  0  0  0  0  0  0  0  0  0
  -24.2534  -35.8790   25.5103 C   0  0  0  0  0  0  0  0  0  0  0  0
  -24.4170  -30.6296   20.9351 C   0  0  0  0  0  0  0  0  0  0  0  0
  -25.0544  -28.3374   22.6912 C   0  0  0  0  0  0  0  0  0  0  0  0
  -24.0326  -34.4141   25.8787 C   0  0  0  0  0  0  0  0  0  0  0  0
  -29.7522  -12.3334   18.8453 C   0  0  0  0  0  0  0  0  0  0  0  0
  -25.2959  -33.6010   25.6145 C   0  0  0  0  0  0  0  0  0  0  0  0
  -28.3876  -11.9827   19.4428 C   0  0  0  0  0  0  0  0  0  0  0  0
  -30.4895  -13.3734   19.6870 C   0  0  0  0  0  0  0  0  0  0  0  0
  -28.3613  -14.2438   20.5715 C   0  0  0  0  0  0  0  0  0  0  0  0
  -25.6711  -33.6321   24.1280 C   0  0  1  0  0  0  0  0  0  0  0  0
  -24.0739  -30.6370   22.4215 C   0  0  1  0  0  0  0  0  0  0  0  0
  -27.5533  -13.2479   19.7235 C   0  0  2  0  0  0  0  0  0  0  0  0
  -27.3188  -18.0959   17.9356 C   0  0  0  0  0  0  0  0  0  0  0  0
  -20.2065  -24.1497   24.1421 C   0  0  0  0  0  0  0  0  0  0  0  0
  -24.4043  -28.6542   26.5832 C   0  0  0  0  0  0  0  0  0  0  0  0
  -23.2603  -26.4394   26.8166 C   0  0  0  0  0  0  0  0  0  0  0  0
  -21.9102  -28.5349   26.7234 C   0  0  0  0  0  0  0  0  0  0  0  0
  -20.9367  -25.5039   20.6623 C   0  0  0  0  0  0  0  0  0  0  0  0
  -29.8218  -22.3893   18.4710 C   0  0  0  0  0  0  0  0  0  0  0  0
  -29.0727  -23.3312   19.4202 C   0  0  0  0  0  0  0  0  0  0  0  0
  -29.1905  -24.8025   19.0198 C   0  0  0  0  0  0  0  0  0  0  0  0
  -28.4683  -25.7099   20.0065 C   0  0  0  0  0  0  0  0  0  1  0  0
  -23.0314  -27.6883   24.6214 C   0  0  1  0  0  0  0  0  0  0  0  0
  -20.5929  -25.2057   23.1182 C   0  0  2  0  0  0  0  0  0  0  0  0
  -23.1675  -27.8349   26.1633 C   0  0  0  0  0  0  0  0  0  0  0  0
  -26.1359  -11.8448   21.1738 N   0  0  0  0  0  0  0  0  0  0  0  0
  -26.2178  -12.9111   20.3599 N   0  0  0  0  0  0  0  0  0  0  0  0
  -23.9701  -29.2892   22.9844 N   0  0  0  0  0  0  0  0  0  0  0  0
  -29.6396  -14.5454   19.9085 N   0  0  0  0  0  0  0  0  0  0  0  0
  -24.9438  -14.6746   19.4233 N   0  0  0  0  0  0  0  0  0  0  0  0
  -21.9362  -12.4431   21.9473 N   0  0  0  0  0  0  0  0  0  0  0  0
  -29.1806  -16.8517   19.7280 N   0  0  0  0  0  0  0  0  0  0  0  0
  -24.8258  -32.7310   23.3744 N   0  0  0  0  0  0  0  0  0  0  0  0
  -21.8543  -26.9401   24.1939 N   0  0  0  0  0  0  0  0  0  0  0  0
  -20.5956  -24.5732   21.7688 N   0  3  0  0  0  0  0  0  0  0  0  0
  -22.2211  -14.2206   20.5268 O   0  0  0  0  0  0  0  0  0  0  0  0
  -26.0321  -30.7719   23.7339 O   0  0  0  0  0  0  0  0  0  0  0  0
  -22.0397  -29.7992   24.1884 O   0  0  0  0  0  0  0  0  0  0  0  0
  -23.0054  -25.3006   23.0259 O   0  0  0  0  0  0  0  0  0  0  0  0
  -31.1818  -15.9749   18.9481 O   0  0  0  0  0  0  0  0  0  0  0  0
  -22.9371   -7.9062   25.0214 O   0  0  0  0  0  0  0  0  0  0  0  0
  -28.6013  -27.0625   19.5716 O   0  0  0  0  0  0  0  0  0  1  0  0
  -18.1245   -5.5154   23.7854 F   0  0  0  0  0  0  0  0  0  0  0  0
  -22.7761   -5.1794   24.5954 F   0  0  0  0  0  0  0  0  0  0  0  0
  -31.5302  -18.2248   21.0662 Cl  0  0  0  0  0  0  0  0  0  0  0  0
  1  2  1  0  0  0  0
  1  5  2  0  0  0  0
  2  6  2  0  0  0  0
  3  8  2  0  0  0  0
  3 17  1  0  0  0  0
  4  9  1  0  0  0  0
  4 17  2  0  0  0  0
  5 19  1  0  0  0  0
  6 21  1  0  0  0  0
  7 10  2  0  0  0  0
  7 20  1  0  0  0  0
  8 26  1  0  0  0  0
  9 26  2  0  0  0  0
 10 27  1  0  0  0  0
 11 12  2  0  0  0  0
 11 28  1  0  0  0  0
 12 29  1  0  0  0  0
 13 22  1  0  0  0  0
 13 27  2  0  0  0  0
 14 23  1  0  0  0  0
 14 24  2  0  0  0  0
 15 23  2  0  0  0  0
 15 31  1  0  0  0  0
 16 29  2  0  0  0  0
 16 30  1  0  0  0  0
 17 32  1  0  0  0  0
 18 32  1  0  0  0  0
 18 33  2  0  0  0  0
 18 34  1  0  0  0  0
 19 21  2  0  0  0  0
 19 39  1  0  0  0  0
 20 22  2  0  0  0  0
 20 40  1  0  0  0  0
 21 48  1  0  0  0  0
 22 41  1  0  0  0  0
 23 57  1  0  0  0  0
 24 25  1  0  0  0  0
 24 51  1  0  0  0  0
 25 31  2  0  0  0  0
 25 70  1  0  0  0  0
 26 79  1  0  0  0  0
 27 80  1  0  0  0  0
 28 30  2  0  0  0  0
 28 79  1  0  0  0  0
 29 81  1  0  0  0  0
 30 82  1  0  0  0  0
 31 83  1  0  0  0  0
 32 64  2  0  0  0  0
 33 65  1  0  0  0  0
 33 68  1  0  0  0  0
 34 69  1  0  0  0  0
 34 74  2  0  0  0  0
 35 49  1  0  0  0  0
 35 71  1  0  0  0  0
 35 75  2  0  0  0  0
 36 61  1  0  0  0  0
 36 66  1  0  0  0  0
 36 76  2  0  0  0  0
 37 62  1  0  0  0  0
 37 72  1  0  0  0  0
 37 77  2  0  0  0  0
 38 67  1  0  0  0  0
 38 70  1  0  0  0  0
 38 78  2  0  0  0  0
 39 42  1  0  0  0  0
 40 49  1  0  0  0  0
 41 66  1  0  0  0  0
 42 44  1  0  0  0  0
 43 45  1  0  0  0  0
 43 46  1  0  0  0  0
 44 48  1  0  0  0  0
 45 50  1  0  0  0  0
 46 67  1  0  0  0  0
 47 50  1  0  0  0  0
 47 67  1  0  0  0  0
 48 71  1  0  0  0  0
 49 66  1  0  0  0  0
 50 65  1  0  0  0  0
 52 62  1  0  0  0  0
 53 63  1  0  0  0  0
 54 63  1  0  0  0  0
 55 63  1  0  0  0  0
 56 73  1  0  0  0  0
 57 58  1  0  0  0  0
 58 59  1  0  0  0  0
 59 60  1  0  0  0  0
 60 80  1  0  0  0  0
 61 63  1  0  0  0  0
 61 72  1  0  0  0  0
 62 73  1  0  0  0  0
 64 65  1  0  0  0  0
M  CHG  1  73   1
M  ISO  4  38 100  60 101  70 100  80 101
M  END
> <Batch ID>
0031

> <Smiles>
CNC(C)C(=O)NC(C(=O)N1Cc2cc([101O:1][101CH2:1]CCCc3cc(C)c([100NH:0][100C:0](=O)N4CCCC(n5nc(-c6ccc(Oc7ccc(F)cc7F)cc6)c(C(N)=O)c5N)C4)c(Cl)c3)ccc2CC1C(=O)NC1CCCc2ccccc21)C(C)(C)C

> <Shape>
0.326

> <Color>
0.133

> <Negative vol penalty>
0.000

$$$$

  -OEChem-04052316423D

 81 89  0     1  0  0  0  0  0999 V2000
  -28.2293  -33.5592   25.9726 C   0  0  0  0  0  0  0  0  0  0  0  0
  -28.3274  -32.3346   25.3197 C   0  0  0  0  0  0  0  0  0  0  0  0
  -25.1285  -13.9760   21.8510 C   0  0  0  0  0  0  0  0  0  0  0  0
  -27.4396  -13.2722   21.8700 C   0  0  0  0  0  0  0  0  0  0  0  0
  -26.9797  -34.0472   26.3524 C   0  0  0  0  0  0  0  0  0  0  0  0
  -27.1759  -31.5968   25.0472 C   0  0  0  0  0  0  0  0  0  0  0  0
  -27.1335  -29.7295   20.3402 C   0  0  0  0  0  0  0  0  0  0  0  0
  -24.7277  -12.6674   22.1203 C   0  0  0  0  0  0  0  0  0  0  0  0
  -27.0389  -11.9636   22.1393 C   0  0  0  0  0  0  0  0  0  0  0  0
  -27.9084  -28.5961   20.0978 C   0  0  0  0  0  0  0  0  0  0  0  0
  -24.3299   -9.7819   20.4056 C   0  0  0  0  0  0  0  0  0  0  0  0
  -23.2662   -9.2655   19.6658 C   0  0  0  0  0  0  0  0  0  0  0  0
  -25.9352  -27.2186   20.2656 C   0  0  0  0  0  0  0  0  0  0  0  0
  -30.9297  -22.9697   20.1006 C   0  0  0  0  0  0  0  0  0  0  0  0
  -22.0136   -8.9262   21.7038 C   0  0  0  0  0  0  0  0  0  0  0  0
  -26.4845  -14.2784   21.7258 C   0  0  0  0  0  0  0  0  0  0  0  0
  -27.1984  -16.6375   22.3835 C   0  0  0  0  0  0  0  0  0  0  0  0
  -25.8115  -33.3195   26.0759 C   0  0  0  0  0  0  0  0  0  0  0  0
  -25.7531  -29.6147   20.5583 C   0  0  0  0  0  0  0  0  0  0  0  0
  -25.9097  -32.0749   25.4249 C   0  0  0  0  0  0  0  0  0  0  0  0
  -25.1446  -28.3524   20.5080 C   0  0  0  0  0  0  0  0  0  0  0  0
  -30.3301  -24.1926   20.3801 C   0  0  0  0  0  0  0  0  0  0  0  0
  -30.1096  -25.1034   19.3529 C   0  0  0  0  0  0  0  0  0  0  0  0
  -25.6829  -11.6612   22.2645 C   0  0  0  0  0  0  0  0  0  0  0  0
  -27.3097  -27.3402   20.0633 C   0  0  0  0  0  0  0  0  0  0  0  0
  -24.2356   -9.8705   21.7945 C   0  0  0  0  0  0  0  0  0  0  0  0
  -22.1080   -8.8376   20.3149 C   0  0  0  0  0  0  0  0  0  0  0  0
  -23.0774   -9.4427   22.4436 C   0  0  0  0  0  0  0  0  0  0  0  0
  -26.8990  -15.6299   21.4471 C   0  0  0  0  0  0  0  0  0  0  0  0
  -31.2874  -22.7077   18.7879 C   0  0  0  0  0  0  0  0  0  0  0  0
  -30.5041  -24.7460   18.0737 C   0  0  0  0  0  0  0  0  0  0  0  0
  -27.5374  -17.7270   21.6190 C   0  0  0  0  0  0  0  0  0  0  0  0
  -27.1725  -16.5926   23.8163 C   0  0  0  0  0  0  0  0  0  0  0  0
  -23.8006  -30.2846   22.9755 C   0  0  0  0  0  0  0  0  0  0  0  0
  -21.5030  -29.4755   20.8334 C   0  0  0  0  0  0  0  0  0  0  0  0
  -20.6498  -27.7599   18.0093 C   0  0  0  0  0  0  0  0  0  0  0  0
  -30.2536  -19.9854   17.2984 C   0  0  0  0  0  0  0  0  0  0  0  0
  -24.4873  -33.8656   26.5480 C   0  0  0  0  0  0  0  0  0  0  0  0
  -24.9269  -30.8497   20.7919 C   0  0  0  0  0  0  0  0  0  0  0  0
  -23.6632  -28.1773   20.7157 C   0  0  0  0  0  0  0  0  0  0  0  0
  -23.2832  -33.1982   25.8884 C   0  0  0  0  0  0  0  0  0  0  0  0
  -27.0677  -18.5352   16.6478 C   0  0  0  0  0  0  0  0  0  0  0  0
  -23.4453  -31.6814   25.8918 C   0  0  0  0  0  0  0  0  0  0  0  0
  -26.7677  -17.7286   17.9125 C   0  0  0  0  0  0  0  0  0  0  0  0
  -28.5518  -18.4937   16.2907 C   0  0  0  0  0  0  0  0  0  0  0  0
  -29.1622  -18.0893   18.6439 C   0  0  0  0  0  0  0  0  0  0  0  0
  -24.6814  -31.2569   25.0897 C   0  0  1  0  0  0  0  0  0  0  0  0
  -23.6125  -30.5622   21.5109 C   0  0  1  0  0  0  0  0  0  0  0  0
  -27.6869  -18.1473   19.0757 C   0  0  2  0  0  0  0  0  0  0  0  0
  -29.9365  -24.5034   21.7864 C   0  0  0  0  0  0  0  0  0  0  0  0
  -30.2921  -25.6820   16.9288 C   0  0  0  0  0  0  0  0  0  0  0  0
  -18.6892  -27.2599   16.5249 C   0  0  0  0  0  0  0  0  0  0  0  0
  -20.4360  -27.5100   22.9090 C   0  0  0  0  0  0  0  0  0  0  0  0
  -19.1308  -26.3991   21.0841 C   0  0  0  0  0  0  0  0  0  0  0  0
  -18.6724  -28.7798   21.6713 C   0  0  0  0  0  0  0  0  0  0  0  0
  -21.9547  -29.0143   15.6677 C   0  0  0  0  0  0  0  0  0  0  0  0
  -29.4624  -26.4296   19.6241 C   0  0  0  0  0  0  0  0  0  1  0  0
  -31.9319  -21.4047   18.4507 C   0  0  0  0  0  0  0  0  0  0  0  0
  -20.8054  -28.1937   20.4469 C   0  0  1  0  0  0  0  0  0  0  0  0
  -19.8762  -28.1779   16.7718 C   0  0  2  0  0  0  0  0  0  0  0  0
  -19.7894  -27.7234   21.5258 C   0  0  0  0  0  0  0  0  0  0  0  0
  -27.0356  -16.0426   20.1841 N   0  0  0  0  0  0  0  0  0  0  0  0
  -31.0893  -23.5674   17.7635 N   0  0  0  0  0  0  0  0  0  0  0  0
  -27.4245  -17.3217   20.3216 N   0  0  0  0  0  0  0  0  0  0  0  0
  -22.8992  -29.4144   20.9470 N   0  0  0  0  0  0  0  0  0  0  0  0
  -29.3684  -18.9034   17.4358 N   0  0  0  0  0  0  0  0  0  0  0  0
  -27.9179  -18.9827   21.9366 N   0  0  0  0  0  0  0  0  0  0  0  0
  -26.8015  -15.3939   24.4406 N   0  0  0  0  0  0  0  0  0  0  0  0
  -24.4067  -31.3141   23.6699 N   0  0  0  0  0  0  0  0  0  0  0  0
  -20.2158  -28.4299   19.1335 N   0  0  0  0  0  0  0  0  0  0  0  0
  -30.9851  -20.3120   18.4337 N   0  0  0  0  0  0  0  0  0  0  0  0
  -20.7585  -28.1385   15.5715 N   0  3  0  0  0  0  0  0  0  0  0  0
  -27.4536  -17.5909   24.5220 O   0  0  0  0  0  0  0  0  0  0  0  0
  -23.4225  -29.2161   23.4414 O   0  0  0  0  0  0  0  0  0  0  0  0
  -20.8345  -30.4952   21.0205 O   0  0  0  0  0  0  0  0  0  0  0  0
  -21.5468  -26.9201   17.9820 O   0  0  0  0  0  0  0  0  0  0  0  0
  -30.3785  -20.6171   16.2438 O   0  0  0  0  0  0  0  0  0  0  0  0
  -25.2922  -10.3842   22.5275 O   0  0  0  0  0  0  0  0  0  0  0  0
  -28.0638  -26.2322   19.8276 O   0  0  0  0  0  0  0  0  0  1  0  0
  -21.0860   -8.3432   19.6042 F   0  0  0  0  0  0  0  0  0  0  0  0
  -22.9804   -9.5264   23.7775 F   0  0  0  0  0  0  0  0  0  0  0  0
  1  2  1  0  0  0  0
  1  5  2  0  0  0  0
  2  6  2  0  0  0  0
  3  8  2  0  0  0  0
  3 16  1  0  0  0  0
  4  9  1  0  0  0  0
  4 16  2  0  0  0  0
  5 18  1  0  0  0  0
  6 20  1  0  0  0  0
  7 10  2  0  0  0  0
  7 19  1  0  0  0  0
  8 24  1  0  0  0  0
  9 24  2  0  0  0  0
 10 25  1  0  0  0  0
 11 12  2  0  0  0  0
 11 26  1  0  0  0  0
 12 27  1  0  0  0  0
 13 21  1  0  0  0  0
 13 25  2  0  0  0  0
 14 22  2  0  0  0  0
 14 30  1  0  0  0  0
 15 27  2  0  0  0  0
 15 28  1  0  0  0  0
 16 29  1  0  0  0  0
 17 29  1  0  0  0  0
 17 32  2  0  0  0  0
 17 33  1  0  0  0  0
 18 20  2  0  0  0  0
 18 38  1  0  0  0  0
 19 21  2  0  0  0  0
 19 39  1  0  0  0  0
 20 47  1  0  0  0  0
 21 40  1  0  0  0  0
 22 23  1  0  0  0  0
 22 50  1  0  0  0  0
 23 31  2  0  0  0  0
 23 57  1  0  0  0  0
 24 78  1  0  0  0  0
 25 79  1  0  0  0  0
 26 28  2  0  0  0  0
 26 78  1  0  0  0  0
 27 80  1  0  0  0  0
 28 81  1  0  0  0  0
 29 62  2  0  0  0  0
 30 58  1  0  0  0  0
 30 63  2  0  0  0  0
 31 51  1  0  0  0  0
 31 63  1  0  0  0  0
 32 64  1  0  0  0  0
 32 67  1  0  0  0  0
 33 68  1  0  0  0  0
 33 73  2  0  0  0  0
 34 48  1  0  0  0  0
 34 69  1  0  0  0  0
 34 74  2  0  0  0  0
 35 59  1  0  0  0  0
 35 65  1  0  0  0  0
 35 75  2  0  0  0  0
 36 60  1  0  0  0  0
 36 70  1  0  0  0  0
 36 76  2  0  0  0  0
 37 66  1  0  0  0  0
 37 71  1  0  0  0  0
 37 77  2  0  0  0  0
 38 41  1  0  0  0  0
 39 48  1  0  0  0  0
 40 65  1  0  0  0  0
 41 43  1  0  0  0  0
 42 44  1  0  0  0  0
 42 45  1  0  0  0  0
 43 47  1  0  0  0  0
 44 49  1  0  0  0  0
 45 66  1  0  0  0  0
 46 49  1  0  0  0  0
 46 66  1  0  0  0  0
 47 69  1  0  0  0  0
 48 65  1  0  0  0  0
 49 64  1  0  0  0  0
 52 60  1  0  0  0  0
 53 61  1  0  0  0  0
 54 61  1  0  0  0  0
 55 61  1  0  0  0  0
 56 72  1  0  0  0  0
 57 79  1  0  0  0  0
 58 71  1  0  0  0  0
 59 61  1  0  0  0  0
 59 70  1  0  0  0  0
 60 72  1  0  0  0  0
 62 64  1  0  0  0  0
M  CHG  1  72   1
M  ISO  4  37 100  57 101  71 100  79 101
M  END
> <Batch ID>
0031

> <Smiles>
CNC(C)C(=O)NC(C(=O)N1Cc2cc([101O:1][101CH2:1]c3c(C)cc(C[100NH:0][100C:0](=O)N4CCCC(n5nc(-c6ccc(Oc7ccc(F)cc7F)cc6)c(C(N)=O)c5N)C4)nc3C)ccc2CC1C(=O)NC1CCCc2ccccc21)C(C)(C)C

> <Shape>
0.278

> <Color>
0.076

> <Negative vol penalty>
0.000

$$$$

  -OEChem-04052316423D

 83 91  0     1  0  0  0  0  0999 V2000
  -24.7396  -37.0989   21.1146 C   0  0  0  0  0  0  0  0  0  0  0  0
  -25.4504  -36.0178   20.6032 C   0  0  0  0  0  0  0  0  0  0  0  0
  -24.4298   -9.3805   21.7114 C   0  0  0  0  0  0  0  0  0  0  0  0
  -22.5958  -10.4722   20.5794 C   0  0  0  0  0  0  0  0  0  0  0  0
  -24.1567  -37.0135   22.3783 C   0  0  0  0  0  0  0  0  0  0  0  0
  -25.5796  -34.8510   21.3558 C   0  0  0  0  0  0  0  0  0  0  0  0
  -25.7577  -29.1066   19.2402 C   0  0  0  0  0  0  0  0  0  0  0  0
  -23.7036   -8.1900   21.7400 C   0  0  0  0  0  0  0  0  0  0  0  0
  -21.8695   -9.2817   20.6079 C   0  0  0  0  0  0  0  0  0  0  0  0
  -26.8144  -28.2350   18.9804 C   0  0  0  0  0  0  0  0  0  0  0  0
  -21.1924   -6.8479   23.5612 C   0  0  0  0  0  0  0  0  0  0  0  0
  -21.1764   -6.1279   24.7557 C   0  0  0  0  0  0  0  0  0  0  0  0
  -26.5137  -27.2322   21.1537 C   0  0  0  0  0  0  0  0  0  0  0  0
  -27.0363  -20.4810   18.7946 C   0  0  0  0  0  0  0  0  0  0  0  0
  -26.8651  -20.3703   21.5769 C   0  0  0  0  0  0  0  0  0  0  0  0
  -22.1733   -4.2372   23.6294 C   0  0  0  0  0  0  0  0  0  0  0  0
  -23.8759  -10.5217   21.1311 C   0  0  0  0  0  0  0  0  0  0  0  0
  -25.5063  -12.1868   20.0935 C   0  0  0  0  0  0  0  0  0  0  0  0
  -24.2707  -35.8416   23.1427 C   0  0  0  0  0  0  0  0  0  0  0  0
  -25.0769  -29.0547   20.4651 C   0  0  0  0  0  0  0  0  0  0  0  0
  -24.9988  -34.7503   22.6314 C   0  0  0  0  0  0  0  0  0  0  0  0
  -25.4470  -28.1025   21.4255 C   0  0  0  0  0  0  0  0  0  0  0  0
  -26.1828  -19.5619   19.4048 C   0  0  0  0  0  0  0  0  0  0  0  0
  -27.8044  -21.3447   19.5756 C   0  0  0  0  0  0  0  0  0  0  0  0
  -26.0971  -19.5066   20.7959 C   0  0  0  0  0  0  0  0  0  0  0  0
  -22.4234   -8.1406   21.1882 C   0  0  0  0  0  0  0  0  0  0  0  0
  -27.1944  -27.2996   19.9383 C   0  0  0  0  0  0  0  0  0  0  0  0
  -21.6987   -6.2626   22.4007 C   0  0  0  0  0  0  0  0  0  0  0  0
  -21.6669   -4.8226   24.7899 C   0  0  0  0  0  0  0  0  0  0  0  0
  -22.1892   -4.9572   22.4349 C   0  0  0  0  0  0  0  0  0  0  0  0
  -27.7187  -21.2894   20.9667 C   0  0  0  0  0  0  0  0  0  0  0  0
  -24.6254  -11.7519   21.1018 C   0  0  0  0  0  0  0  0  0  0  0  0
  -25.9584  -13.4063   20.5351 C   0  0  0  0  0  0  0  0  0  0  0  0
  -25.8822  -11.5459   18.8673 C   0  0  0  0  0  0  0  0  0  0  0  0
  -24.6360  -31.0812   22.8739 C   0  0  0  0  0  0  0  0  0  0  0  0
  -22.6560  -28.7520   23.9586 C   0  0  0  0  0  0  0  0  0  0  0  0
  -21.7948  -25.4497   23.9596 C   0  0  0  0  0  0  0  0  0  0  0  0
  -25.0473  -18.4082   22.8053 C   0  0  0  0  0  0  0  0  0  0  0  0
  -23.6635  -35.8133   24.5230 C   0  0  0  0  0  0  0  0  0  0  0  0
  -23.9219  -29.9839   20.7193 C   0  0  0  0  0  0  0  0  0  0  0  0
  -24.7353  -27.9924   22.7483 C   0  0  0  0  0  0  0  0  0  0  0  0
  -23.5292  -34.4066   25.1006 C   0  0  0  0  0  0  0  0  0  0  0  0
  -25.4700  -15.6668   25.0377 C   0  0  0  0  0  0  0  0  0  0  0  0
  -24.8209  -33.6209   24.8982 C   0  0  0  0  0  0  0  0  0  0  0  0
  -25.3604  -14.4397   24.1298 C   0  0  0  0  0  0  0  0  0  0  0  0
  -24.5164  -16.7792   24.6052 C   0  0  0  0  0  0  0  0  0  0  0  0
  -24.5119  -15.9465   22.2867 C   0  0  0  0  0  0  0  0  0  0  0  0
  -25.1401  -33.4587   23.4072 C   0  0  1  0  0  0  0  0  0  0  0  0
  -23.6328  -30.1856   22.2036 C   0  0  1  0  0  0  0  0  0  0  0  0
  -25.5000  -14.8239   22.6437 C   0  0  2  0  0  0  0  0  0  0  0  0
  -25.3733  -18.6474   18.5435 C   0  0  0  0  0  0  0  0  0  0  0  0
  -20.1567  -23.8414   24.9733 C   0  0  0  0  0  0  0  0  0  0  0  0
  -24.2113  -28.8254   26.5826 C   0  0  0  0  0  0  0  0  0  0  0  0
  -23.1878  -26.6175   27.1704 C   0  0  0  0  0  0  0  0  0  0  0  0
  -21.7329  -28.6174   26.8445 C   0  0  0  0  0  0  0  0  0  0  0  0
  -20.6925  -24.7226   21.3110 C   0  0  0  0  0  0  0  0  0  0  0  0
  -28.7107  -22.3179   18.8811 C   0  0  0  0  0  0  0  0  0  0  0  0
  -29.0964  -24.7095   18.2726 C   0  0  0  0  0  0  0  0  0  0  0  0
  -28.4466  -26.0781   18.3271 C   0  0  0  0  0  0  0  0  0  1  0  0
  -22.8181  -27.5333   24.8347 C   0  0  1  0  0  0  0  0  0  0  0  0
  -20.4530  -24.7586   23.7970 C   0  0  2  0  0  0  0  0  0  0  0  0
  -23.0024  -27.9015   26.3340 C   0  0  0  0  0  0  0  0  0  0  0  0
  -24.5227  -12.6241   22.1082 N   0  0  0  0  0  0  0  0  0  0  0  0
  -25.3450  -13.6192   21.7345 N   0  0  0  0  0  0  0  0  0  0  0  0
  -23.6164  -28.9273   22.9523 N   0  0  0  0  0  0  0  0  0  0  0  0
  -24.7086  -17.0929   23.1877 N   0  0  0  0  0  0  0  0  0  0  0  0
  -26.8170  -14.3064   20.0107 N   0  0  0  0  0  0  0  0  0  0  0  0
  -25.3237  -10.2957   18.5683 N   0  0  0  0  0  0  0  0  0  0  0  0
  -25.2367  -18.5794   21.4344 N   0  0  0  0  0  0  0  0  0  0  0  0
  -24.3138  -32.4240   22.8231 N   0  0  0  0  0  0  0  0  0  0  0  0
  -21.6648  -26.6812   24.5661 N   0  0  0  0  0  0  0  0  0  0  0  0
  -20.4382  -23.9430   22.5498 N   0  3  0  0  0  0  0  0  0  0  0  0
  -28.1927  -23.7126   18.9001 N   0  3  0  0  0  0  0  0  0  0  0  0
  -26.7021  -12.0589   18.0685 O   0  0  0  0  0  0  0  0  0  0  0  0
  -25.6280  -30.5902   23.3996 O   0  0  0  0  0  0  0  0  0  0  0  0
  -21.7079  -29.5163   24.1552 O   0  0  0  0  0  0  0  0  0  0  0  0
  -22.8528  -24.9458   23.5893 O   0  0  0  0  0  0  0  0  0  0  0  0
  -25.1876  -19.3096   23.6358 O   0  0  0  0  0  0  0  0  0  0  0  0
  -21.7146   -6.9790   21.2158 O   0  0  0  0  0  0  0  0  0  0  0  0
  -28.2260  -26.4481   19.6875 O   0  0  0  0  0  0  0  0  0  1  0  0
  -21.6530   -4.1318   25.9374 F   0  0  0  0  0  0  0  0  0  0  0  0
  -22.6780   -4.3900   21.3235 F   0  0  0  0  0  0  0  0  0  0  0  0
  -28.6539  -22.3420   21.9653 Cl  0  0  0  0  0  0  0  0  0  0  0  0
  1  2  1  0  0  0  0
  1  5  2  0  0  0  0
  2  6  2  0  0  0  0
  3  8  2  0  0  0  0
  3 17  1  0  0  0  0
  4  9  1  0  0  0  0
  4 17  2  0  0  0  0
  5 19  1  0  0  0  0
  6 21  1  0  0  0  0
  7 10  2  0  0  0  0
  7 20  1  0  0  0  0
  8 26  1  0  0  0  0
  9 26  2  0  0  0  0
 10 27  1  0  0  0  0
 11 12  2  0  0  0  0
 11 28  1  0  0  0  0
 12 29  1  0  0  0  0
 13 22  1  0  0  0  0
 13 27  2  0  0  0  0
 14 23  2  0  0  0  0
 14 24  1  0  0  0  0
 15 25  2  0  0  0  0
 15 31  1  0  0  0  0
 16 29  2  0  0  0  0
 16 30  1  0  0  0  0
 17 32  1  0  0  0  0
 18 32  1  0  0  0  0
 18 33  2  0  0  0  0
 18 34  1  0  0  0  0
 19 21  2  0  0  0  0
 19 39  1  0  0  0  0
 20 22  2  0  0  0  0
 20 40  1  0  0  0  0
 21 48  1  0  0  0  0
 22 41  1  0  0  0  0
 23 25  1  0  0  0  0
 23 51  1  0  0  0  0
 24 31  2  0  0  0  0
 24 57  1  0  0  0  0
 25 69  1  0  0  0  0
 26 79  1  0  0  0  0
 27 80  1  0  0  0  0
 28 30  2  0  0  0  0
 28 79  1  0  0  0  0
 29 81  1  0  0  0  0
 30 82  1  0  0  0  0
 31 83  1  0  0  0  0
 32 63  2  0  0  0  0
 33 64  1  0  0  0  0
 33 67  1  0  0  0  0
 34 68  1  0  0  0  0
 34 74  2  0  0  0  0
 35 49  1  0  0  0  0
 35 70  1  0  0  0  0
 35 75  2  0  0  0  0
 36 60  1  0  0  0  0
 36 65  1  0  0  0  0
 36 76  2  0  0  0  0
 37 61  1  0  0  0  0
 37 71  1  0  0  0  0
 37 77  2  0  0  0  0
 38 66  1  0  0  0  0
 38 69  1  0  0  0  0
 38 78  2  0  0  0  0
 39 42  1  0  0  0  0
 40 49  1  0  0  0  0
 41 65  1  0  0  0  0
 42 44  1  0  0  0  0
 43 45  1  0  0  0  0
 43 46  1  0  0  0  0
 44 48  1  0  0  0  0
 45 50  1  0  0  0  0
 46 66  1  0  0  0  0
 47 50  1  0  0  0  0
 47 66  1  0  0  0  0
 48 70  1  0  0  0  0
 49 65  1  0  0  0  0
 50 64  1  0  0  0  0
 52 61  1  0  0  0  0
 53 62  1  0  0  0  0
 54 62  1  0  0  0  0
 55 62  1  0  0  0  0
 56 72  1  0  0  0  0
 57 73  1  0  0  0  0
 58 59  1  0  0  0  0
 58 73  1  0  0  0  0
 59 80  1  0  0  0  0
 60 62  1  0  0  0  0
 60 71  1  0  0  0  0
 61 72  1  0  0  0  0
 63 64  1  0  0  0  0
M  CHG  2  72   1  73   1
M  ISO  4  38 100  59 101  69 100  80 101
M  END
> <Batch ID>
0031

> <Smiles>
CNC(C)C(=O)NC(C(=O)N1Cc2cc([101O:1][101CH2:1]CNCc3cc(C)c([100NH:0][100C:0](=O)N4CCCC(n5nc(-c6ccc(Oc7ccc(F)cc7F)cc6)c(C(N)=O)c5N)C4)cc3Cl)ccc2CC1C(=O)NC1CCCc2ccccc21)C(C)(C)C

> <Shape>
0.269

> <Color>
0.113

> <Negative vol penalty>
0.000

$$$$

  -OEChem-04052316423D

 81 89  0     1  0  0  0  0  0999 V2000
  -25.7943  -19.4075   24.7998 C   0  0  0  0  0  0  0  0  0  0  0  0
  -26.1727  -20.3004   23.8024 C   0  0  0  0  0  0  0  0  0  0  0  0
  -25.8704  -14.9263   21.8423 C   0  0  0  0  0  0  0  0  0  0  0  0
  -25.7122  -15.5566   19.5153 C   0  0  0  0  0  0  0  0  0  0  0  0
  -24.5955  -19.5976   25.4859 C   0  0  0  0  0  0  0  0  0  0  0  0
  -25.3520  -21.3835   23.4897 C   0  0  0  0  0  0  0  0  0  0  0  0
  -27.9469  -25.7010   22.9700 C   0  0  0  0  0  0  0  0  0  0  0  0
  -24.5048  -14.6425   21.8583 C   0  0  0  0  0  0  0  0  0  0  0  0
  -24.3466  -15.2728   19.5313 C   0  0  0  0  0  0  0  0  0  0  0  0
  -28.6379  -25.8885   21.7737 C   0  0  0  0  0  0  0  0  0  0  0  0
  -22.4694  -12.1367   20.8528 C   0  0  0  0  0  0  0  0  0  0  0  0
  -22.0607  -10.9519   21.4648 C   0  0  0  0  0  0  0  0  0  0  0  0
  -26.8522  -27.2972   20.9701 C   0  0  0  0  0  0  0  0  0  0  0  0
  -20.7216  -12.2200   23.0255 C   0  0  0  0  0  0  0  0  0  0  0  0
  -26.4741  -15.3834   20.6708 C   0  0  0  0  0  0  0  0  0  0  0  0
  -28.9337  -14.7917   20.3424 C   0  0  0  0  0  0  0  0  0  0  0  0
  -23.7643  -20.6890   25.1881 C   0  0  0  0  0  0  0  0  0  0  0  0
  -26.6963  -26.3024   23.1714 C   0  0  0  0  0  0  0  0  0  0  0  0
  -24.1403  -21.5877   24.1715 C   0  0  0  0  0  0  0  0  0  0  0  0
  -26.1485  -27.1179   22.1708 C   0  0  0  0  0  0  0  0  0  0  0  0
  -30.0658  -23.2122   17.4667 C   0  0  0  0  0  0  0  0  0  0  0  0
  -23.7429  -14.8157   20.7028 C   0  0  0  0  0  0  0  0  0  0  0  0
  -28.0893  -26.6844   20.7724 C   0  0  0  0  0  0  0  0  0  0  0  0
  -22.0043  -13.3633   21.3272 C   0  0  0  0  0  0  0  0  0  0  0  0
  -21.1867  -10.9935   22.5512 C   0  0  0  0  0  0  0  0  0  0  0  0
  -21.1304  -13.4049   22.4135 C   0  0  0  0  0  0  0  0  0  0  0  0
  -27.8846  -15.6772   20.6538 C   0  0  0  0  0  0  0  0  0  0  0  0
  -30.2652  -24.5687   17.5476 C   0  0  0  0  0  0  0  0  0  0  0  0
  -28.7087  -23.0760   17.1183 C   0  0  0  0  0  0  0  0  0  0  0  0
  -30.0720  -15.5497   20.4694 C   0  0  0  0  0  0  0  0  0  0  0  0
  -28.8838  -13.4077   19.9714 C   0  0  0  0  0  0  0  0  0  0  0  0
  -23.7492  -25.2302   23.6902 C   0  0  0  0  0  0  0  0  0  0  0  0
  -23.0924  -28.3813   24.0923 C   0  0  0  0  0  0  0  0  0  0  0  0
  -23.9403  -31.6231   23.4453 C   0  0  0  0  0  0  0  0  0  0  0  0
  -31.1194  -21.4315   20.0704 C   0  0  0  0  0  0  0  0  0  0  0  0
  -22.4552  -20.8266   25.9243 C   0  0  0  0  0  0  0  0  0  0  0  0
  -25.9759  -26.1119   24.4780 C   0  0  0  0  0  0  0  0  0  0  0  0
  -24.8183  -27.8023   22.3455 C   0  0  0  0  0  0  0  0  0  0  0  0
  -21.8234  -22.2097   25.7900 C   0  0  0  0  0  0  0  0  0  0  0  0
  -31.8160  -19.3166   22.8486 C   0  0  0  0  0  0  0  0  0  0  0  0
  -21.8495  -22.6697   24.3359 C   0  0  0  0  0  0  0  0  0  0  0  0
  -30.9821  -18.0641   22.5730 C   0  0  0  0  0  0  0  0  0  0  0  0
  -31.0948  -20.5851   22.3983 C   0  0  0  0  0  0  0  0  0  0  0  0
  -29.8064  -19.3218   20.7197 C   0  0  0  0  0  0  0  0  0  0  0  0
  -23.2889  -22.7885   23.8206 C   0  0  1  0  0  0  0  0  0  0  0  0
  -24.4736  -26.3557   24.3731 C   0  0  1  0  0  0  0  0  0  0  0  0
  -30.5158  -18.0126   21.1056 C   0  0  2  0  0  0  0  0  0  0  0  0
  -31.4687  -25.3583   17.8702 C   0  0  0  0  0  0  0  0  0  0  0  0
  -23.1916  -33.9789   23.8775 C   0  0  0  0  0  0  0  0  0  0  0  0
  -20.8819  -28.0574   22.0142 C   0  0  0  0  0  0  0  0  0  0  0  0
  -20.8206  -30.5505   21.7928 C   0  0  0  0  0  0  0  0  0  0  0  0
  -20.2680  -29.4802   23.9772 C   0  0  0  0  0  0  0  0  0  0  0  0
  -26.4504  -32.2831   24.8674 C   0  0  0  0  0  0  0  0  0  0  0  0
  -31.0590  -22.1468   17.6947 C   0  0  0  0  0  0  0  0  0  0  0  0
  -28.7460  -26.6154   17.2020 C   0  0  0  0  0  0  0  0  0  0  0  0
  -27.9776  -27.0879   18.4313 C   0  0  0  0  0  0  0  0  0  1  0  0
  -22.6682  -29.5094   23.1833 C   0  0  1  0  0  0  0  0  0  0  0  0
  -24.0681  -32.8316   24.3550 C   0  0  2  0  0  0  0  0  0  0  0  0
  -21.1838  -29.3851   22.7375 C   0  0  0  0  0  0  0  0  0  0  0  0
  -28.3178  -16.9040   20.9561 N   0  0  0  0  0  0  0  0  0  0  0  0
  -28.0895  -24.2522   16.9871 N   0  0  0  0  0  0  0  0  0  0  0  0
  -29.0620  -25.1404   17.2545 N   0  0  0  0  0  0  0  0  0  0  0  0
  -29.6518  -16.7947   20.8353 N   0  0  0  0  0  0  0  0  0  0  0  0
  -24.1496  -27.5801   23.6382 N   0  0  0  0  0  0  0  0  0  0  0  0
  -30.6805  -20.4722   20.9978 N   0  0  0  0  0  0  0  0  0  0  0  0
  -31.3813  -15.2662   20.3029 N   0  0  0  0  0  0  0  0  0  0  0  0
  -27.6319  -12.7830   19.8881 N   0  0  0  0  0  0  0  0  0  0  0  0
  -23.9021  -24.0047   24.3099 N   0  0  0  0  0  0  0  0  0  0  0  0
  -22.9768  -30.7451   23.8949 N   0  0  0  0  0  0  0  0  0  0  0  0
  -30.6860  -21.2468   18.7631 N   0  0  0  0  0  0  0  0  0  0  0  0
  -25.4811  -33.3040   24.3931 N   0  3  0  0  0  0  0  0  0  0  0  0
  -29.9197  -12.7402   19.7371 O   0  0  0  0  0  0  0  0  0  0  0  0
  -23.0985  -25.4572   22.6769 O   0  0  0  0  0  0  0  0  0  0  0  0
  -22.5120  -28.2213   25.1690 O   0  0  0  0  0  0  0  0  0  0  0  0
  -24.6239  -31.4747   22.4347 O   0  0  0  0  0  0  0  0  0  0  0  0
  -31.8482  -22.3791   20.3830 O   0  0  0  0  0  0  0  0  0  0  0  0
  -22.4104  -14.5387   20.7180 O   0  0  0  0  0  0  0  0  0  0  0  0
  -28.7613  -26.8685   19.6035 O   0  0  0  0  0  0  0  0  0  1  0  0
  -20.7931   -9.8555   23.1378 F   0  0  0  0  0  0  0  0  0  0  0  0
  -20.6792  -14.5801   22.8730 F   0  0  0  0  0  0  0  0  0  0  0  0
  -27.8696  -21.6223   16.8739 Cl  0  0  0  0  0  0  0  0  0  0  0  0
  1  2  1  0  0  0  0
  1  5  2  0  0  0  0
  2  6  2  0  0  0  0
  3  8  2  0  0  0  0
  3 15  1  0  0  0  0
  4  9  1  0  0  0  0
  4 15  2  0  0  0  0
  5 17  1  0  0  0  0
  6 19  1  0  0  0  0
  7 10  2  0  0  0  0
  7 18  1  0  0  0  0
  8 22  1  0  0  0  0
  9 22  2  0  0  0  0
 10 23  1  0  0  0  0
 11 12  2  0  0  0  0
 11 24  1  0  0  0  0
 12 25  1  0  0  0  0
 13 20  1  0  0  0  0
 13 23  2  0  0  0  0
 14 25  2  0  0  0  0
 14 26  1  0  0  0  0
 15 27  1  0  0  0  0
 16 27  1  0  0  0  0
 16 30  2  0  0  0  0
 16 31  1  0  0  0  0
 17 19  2  0  0  0  0
 17 36  1  0  0  0  0
 18 20  2  0  0  0  0
 18 37  1  0  0  0  0
 19 45  1  0  0  0  0
 20 38  1  0  0  0  0
 21 28  2  0  0  0  0
 21 29  1  0  0  0  0
 21 54  1  0  0  0  0
 22 77  1  0  0  0  0
 23 78  1  0  0  0  0
 24 26  2  0  0  0  0
 24 77  1  0  0  0  0
 25 79  1  0  0  0  0
 26 80  1  0  0  0  0
 27 60  2  0  0  0  0
 28 48  1  0  0  0  0
 28 62  1  0  0  0  0
 29 61  2  0  0  0  0
 29 81  1  0  0  0  0
 30 63  1  0  0  0  0
 30 66  1  0  0  0  0
 31 67  1  0  0  0  0
 31 72  2  0  0  0  0
 32 46  1  0  0  0  0
 32 68  1  0  0  0  0
 32 73  2  0  0  0  0
 33 57  1  0  0  0  0
 33 64  1  0  0  0  0
 33 74  2  0  0  0  0
 34 58  1  0  0  0  0
 34 69  1  0  0  0  0
 34 75  2  0  0  0  0
 35 65  1  0  0  0  0
 35 70  1  0  0  0  0
 35 76  2  0  0  0  0
 36 39  1  0  0  0  0
 37 46  1  0  0  0  0
 38 64  1  0  0  0  0
 39 41  1  0  0  0  0
 40 42  1  0  0  0  0
 40 43  1  0  0  0  0
 41 45  1  0  0  0  0
 42 47  1  0  0  0  0
 43 65  1  0  0  0  0
 44 47  1  0  0  0  0
 44 65  1  0  0  0  0
 45 68  1  0  0  0  0
 46 64  1  0  0  0  0
 47 63  1  0  0  0  0
 49 58  1  0  0  0  0
 50 59  1  0  0  0  0
 51 59  1  0  0  0  0
 52 59  1  0  0  0  0
 53 71  1  0  0  0  0
 54 70  1  0  0  0  0
 55 56  1  0  0  0  0
 55 62  1  0  0  0  0
 56 78  1  0  0  0  0
 57 59  1  0  0  0  0
 57 69  1  0  0  0  0
 58 71  1  0  0  0  0
 60 63  1  0  0  0  0
 61 62  1  0  0  0  0
M  CHG  1  71   1
M  ISO  4  35 100  56 101  70 100  78 101
M  END
> <Batch ID>
0031

> <Smiles>
CNC(C)C(=O)NC(C(=O)N1Cc2cc([101O:1][101CH2:1]Cn3nc(Cl)c(C[100NH:0][100C:0](=O)N4CCCC(n5nc(-c6ccc(Oc7ccc(F)cc7F)cc6)c(C(N)=O)c5N)C4)c3C)ccc2CC1C(=O)NC1CCCc2ccccc21)C(C)(C)C

> <Shape>
0.227

> <Color>
0.058

> <Negative vol penalty>
0.000

$$$$

  -OEChem-04052316423D

 94104  0     1  0  0  0  0  0999 V2000
  -28.4025  -36.7720   23.9925 C   0  0  0  0  0  0  0  0  0  0  0  0
  -28.8098  -35.5614   23.4410 C   0  0  0  0  0  0  0  0  0  0  0  0
  -20.3780   -9.8209   19.7851 C   0  0  0  0  0  0  0  0  0  0  0  0
  -21.3176  -11.8686   20.6575 C   0  0  0  0  0  0  0  0  0  0  0  0
  -27.2300  -36.8348   24.7443 C   0  0  0  0  0  0  0  0  0  0  0  0
  -28.0454  -34.4127   23.6420 C   0  0  0  0  0  0  0  0  0  0  0  0
  -27.2175  -29.8040   19.6948 C   0  0  0  0  0  0  0  0  0  0  0  0
  -19.1623  -10.4702   19.5703 C   0  0  0  0  0  0  0  0  0  0  0  0
  -20.1019  -12.5180   20.4427 C   0  0  0  0  0  0  0  0  0  0  0  0
  -27.8168  -28.5507   19.5772 C   0  0  0  0  0  0  0  0  0  0  0  0
  -17.8351  -12.5809   17.2864 C   0  0  0  0  0  0  0  0  0  0  0  0
  -17.1923  -12.3667   16.0672 C   0  0  0  0  0  0  0  0  0  0  0  0
  -25.9976  -27.5707   20.8219 C   0  0  0  0  0  0  0  0  0  0  0  0
  -30.9706  -11.6048   19.0453 C   0  0  0  0  0  0  0  0  0  0  0  0
  -15.2774  -11.4682   17.2346 C   0  0  0  0  0  0  0  0  0  0  0  0
  -31.9182  -13.5938   18.5796 C   0  0  0  0  0  0  0  0  0  0  0  0
  -21.4556  -10.5201   20.3287 C   0  0  0  0  0  0  0  0  0  0  0  0
  -22.9440   -8.7314   21.3740 C   0  0  0  0  0  0  0  0  0  0  0  0
  -26.4458  -35.6882   24.9466 C   0  0  0  0  0  0  0  0  0  0  0  0
  -26.0072  -29.9521   20.3874 C   0  0  0  0  0  0  0  0  0  0  0  0
  -26.8620  -34.4599   24.3984 C   0  0  0  0  0  0  0  0  0  0  0  0
  -25.3837  -28.8265   20.9447 C   0  0  0  0  0  0  0  0  0  0  0  0
  -32.1701  -12.2410   18.6402 C   0  0  0  0  0  0  0  0  0  0  0  0
  -19.0243  -11.8187   19.8991 C   0  0  0  0  0  0  0  0  0  0  0  0
  -27.2083  -27.4343   20.1432 C   0  0  0  0  0  0  0  0  0  0  0  0
  -17.1991  -12.2387   18.4797 C   0  0  0  0  0  0  0  0  0  0  0  0
  -15.9134  -11.8104   16.0412 C   0  0  0  0  0  0  0  0  0  0  0  0
  -15.9202  -11.6824   18.4538 C   0  0  0  0  0  0  0  0  0  0  0  0
  -22.7115   -9.8498   20.5513 C   0  0  0  0  0  0  0  0  0  0  0  0
  -30.0224  -12.5884   19.2205 C   0  0  0  0  0  0  0  0  0  0  0  0
  -24.2885   -8.4828   21.2436 C   0  0  0  0  0  0  0  0  0  0  0  0
  -22.0267   -7.9839   22.1836 C   0  0  0  0  0  0  0  0  0  0  0  0
  -28.6209  -12.4191   19.6376 C   0  0  0  0  0  0  0  0  0  0  0  0
  -25.0854  -31.5486   22.9769 C   0  0  0  0  0  0  0  0  0  0  0  0
  -22.1440  -30.4990   22.1003 C   0  0  0  0  0  0  0  0  0  0  0  0
  -19.4263  -28.8650   20.8389 C   0  0  0  0  0  0  0  0  0  0  0  0
  -25.2112  -35.7956   25.8062 C   0  0  0  0  0  0  0  0  0  0  0  0
  -25.3601  -31.3066   20.4825 C   0  0  0  0  0  0  0  0  0  0  0  0
  -24.0737  -28.9288   21.6809 C   0  0  0  0  0  0  0  0  0  0  0  0
  -24.2610  -34.6100   25.6583 C   0  0  0  0  0  0  0  0  0  0  0  0
  -27.5674   -9.3124   17.7648 C   0  0  0  0  0  0  0  0  0  0  0  0
  -25.0334  -33.2960   25.7202 C   0  0  0  0  0  0  0  0  0  0  0  0
  -29.1917  -17.1896   17.6855 C   0  0  0  0  0  0  0  0  0  0  0  0
  -29.8821  -17.4268   20.1050 C   0  0  0  0  0  0  0  0  0  0  0  0
  -26.4821   -8.7283   18.6693 C   0  0  0  0  0  0  0  0  0  0  0  0
  -29.8881  -15.8307   17.6167 C   0  0  0  0  0  0  0  0  0  0  0  0
  -30.5814  -16.0692   20.0418 C   0  0  0  0  0  0  0  0  0  0  0  0
  -29.0936  -20.1432   17.4494 C   0  0  0  0  0  0  0  0  0  0  0  0
  -29.7210  -20.3450   19.8806 C   0  0  0  0  0  0  0  0  0  0  0  0
  -28.5912  -10.1331   18.5387 C   0  0  0  0  0  0  0  0  0  0  0  0
  -26.5550  -11.0733   19.6554 C   0  0  0  0  0  0  0  0  0  0  0  0
  -28.4124  -21.5031   17.5190 C   0  0  0  0  0  0  0  0  0  0  0  0
  -29.0363  -21.7037   19.9378 C   0  0  0  0  0  0  0  0  0  0  0  0
  -26.0467  -33.1971   24.5735 C   0  0  1  0  0  0  0  0  0  0  0  0
  -24.3876  -31.4234   21.6521 C   0  0  1  0  0  0  0  0  0  0  0  0
  -29.8401  -18.1071   18.7305 C   0  0  0  0  0  0  0  0  0  0  0  0
  -29.0983  -19.4395   18.8115 C   0  0  0  0  0  0  0  0  0  0  0  0
  -29.9307  -15.1496   18.9949 C   0  0  0  0  0  0  0  0  0  0  0  0
  -26.1900   -9.6028   19.9031 C   0  0  1  0  0  0  0  0  0  0  0  0
  -16.9749  -28.5142   21.2452 C   0  0  0  0  0  0  0  0  0  0  0  0
  -33.3135  -10.5521   17.1616 C   0  0  0  0  0  0  0  0  0  0  0  0
  -34.0024  -10.7842   19.5715 C   0  0  0  0  0  0  0  0  0  0  0  0
  -34.6323  -12.5227   17.9094 C   0  0  0  0  0  0  0  0  0  0  0  0
  -22.7989  -28.6020   24.3987 C   0  0  0  0  0  0  0  0  0  0  0  0
  -20.5219  -27.5974   24.1262 C   0  0  0  0  0  0  0  0  0  0  0  0
  -20.7561  -30.0011   24.7506 C   0  0  0  0  0  0  0  0  0  0  0  0
  -18.7059  -30.0372   18.2187 C   0  0  0  0  0  0  0  0  0  0  0  0
  -29.4975  -24.6928   19.2948 C   0  0  0  0  0  0  0  0  0  0  0  0
  -28.5300  -23.7460   18.6007 C   0  0  0  0  0  0  0  0  0  0  0  0
  -29.0264  -26.1417   19.3186 C   0  0  0  0  0  0  0  0  0  1  0  0
  -21.3149  -29.2723   22.3951 C   0  0  1  0  0  0  0  0  0  0  0  0
  -18.0219  -29.3442   20.5188 C   0  0  2  0  0  0  0  0  0  0  0  0
  -33.4523  -11.5768   18.3378 C   0  0  0  0  0  0  0  0  0  0  0  0
  -21.3661  -28.8690   23.8958 C   0  0  0  0  0  0  0  0  0  0  0  0
  -23.8195  -10.2820   19.9434 N   0  0  0  0  0  0  0  0  0  0  0  0
  -30.6095  -13.7933   18.9342 N   0  0  0  0  0  0  0  0  0  0  0  0
  -24.7612   -9.4307   20.3844 N   0  0  0  0  0  0  0  0  0  0  0  0
  -27.9680  -11.2288   19.2959 N   0  0  0  0  0  0  0  0  0  0  0  0
  -23.4837  -30.2757   21.7524 N   0  0  0  0  0  0  0  0  0  0  0  0
  -25.1007   -7.5480   21.7811 N   0  0  0  0  0  0  0  0  0  0  0  0
  -21.8297   -8.3834   23.5125 N   0  0  0  0  0  0  0  0  0  0  0  0
  -25.3788  -32.8499   23.3374 N   0  0  0  0  0  0  0  0  0  0  0  0
  -19.9731  -29.5575   21.8985 N   0  0  0  0  0  0  0  0  0  0  0  0
  -29.0844  -22.3482   18.5738 N   0  3  0  0  0  0  0  0  0  0  0  0
  -17.7635  -29.2493   19.0541 N   0  3  0  0  0  0  0  0  0  0  0  0
  -21.4126   -6.9812   21.7465 O   0  0  0  0  0  0  0  0  0  0  0  0
  -28.1190  -13.3477   20.2698 O   0  0  0  0  0  0  0  0  0  0  0  0
  -25.3376  -30.5394   23.6247 O   0  0  0  0  0  0  0  0  0  0  0  0
  -21.6202  -31.6137   22.1690 O   0  0  0  0  0  0  0  0  0  0  0  0
  -19.9812  -27.9638   20.2141 O   0  0  0  0  0  0  0  0  0  0  0  0
  -17.8382  -12.4527   19.6894 O   0  0  0  0  0  0  0  0  0  0  0  0
  -27.7914  -26.2099   20.0304 O   0  0  0  0  0  0  0  0  0  1  0  0
  -15.2957  -11.6062   14.8704 F   0  0  0  0  0  0  0  0  0  0  0  0
  -15.3037  -11.3527   19.5971 F   0  0  0  0  0  0  0  0  0  0  0  0
  1  2  1  0  0  0  0
  1  5  2  0  0  0  0
  2  6  2  0  0  0  0
  3  8  2  0  0  0  0
  3 17  1  0  0  0  0
  4  9  1  0  0  0  0
  4 17  2  0  0  0  0
  5 19  1  0  0  0  0
  6 21  1  0  0  0  0
  7 10  2  0  0  0  0
  7 20  1  0  0  0  0
  8 24  1  0  0  0  0
  9 24  2  0  0  0  0
 10 25  1  0  0  0  0
 11 12  2  0  0  0  0
 11 26  1  0  0  0  0
 12 27  1  0  0  0  0
 13 22  1  0  0  0  0
 13 25  2  0  0  0  0
 14 23  1  0  0  0  0
 14 30  2  0  0  0  0
 15 27  2  0  0  0  0
 15 28  1  0  0  0  0
 16 23  2  0  0  0  0
 16 76  1  0  0  0  0
 17 29  1  0  0  0  0
 18 29  1  0  0  0  0
 18 31  2  0  0  0  0
 18 32  1  0  0  0  0
 19 21  2  0  0  0  0
 19 37  1  0  0  0  0
 20 22  2  0  0  0  0
 20 38  1  0  0  0  0
 21 54  1  0  0  0  0
 22 39  1  0  0  0  0
 23 73  1  0  0  0  0
 24 91  1  0  0  0  0
 25 92  1  0  0  0  0
 26 28  2  0  0  0  0
 26 91  1  0  0  0  0
 27 93  1  0  0  0  0
 28 94  1  0  0  0  0
 29 75  2  0  0  0  0
 30 33  1  0  0  0  0
 30 76  1  0  0  0  0
 31 77  1  0  0  0  0
 31 80  1  0  0  0  0
 32 81  1  0  0  0  0
 32 86  2  0  0  0  0
 33 78  1  0  0  0  0
 33 87  2  0  0  0  0
 34 55  1  0  0  0  0
 34 82  1  0  0  0  0
 34 88  2  0  0  0  0
 35 71  1  0  0  0  0
 35 79  1  0  0  0  0
 35 89  2  0  0  0  0
 36 72  1  0  0  0  0
 36 83  1  0  0  0  0
 36 90  2  0  0  0  0
 37 40  1  0  0  0  0
 38 55  1  0  0  0  0
 39 79  1  0  0  0  0
 40 42  1  0  0  0  0
 41 45  1  0  0  0  0
 41 50  1  0  0  0  0
 42 54  1  0  0  0  0
 43 46  1  0  0  0  0
 43 56  1  0  0  0  0
 44 47  1  0  0  0  0
 44 56  1  0  0  0  0
 45 59  1  0  0  0  0
 46 58  1  0  0  0  0
 47 58  1  0  0  0  0
 48 52  1  0  0  0  0
 48 57  1  0  0  0  0
 49 53  1  0  0  0  0
 49 57  1  0  0  0  0
 50 78  1  0  0  0  0
 51 59  1  0  0  0  0
 51 78  1  0  0  0  0
 52 84  1  0  0  0  0
 53 84  1  0  0  0  0
 54 82  1  0  0  0  0
 55 79  1  0  0  0  0
 56 57  1  0  0  0  0
 58 76  1  0  0  0  0
 59 77  1  0  0  0  0
 60 72  1  0  0  0  0
 61 73  1  0  0  0  0
 62 73  1  0  0  0  0
 63 73  1  0  0  0  0
 64 74  1  0  0  0  0
 65 74  1  0  0  0  0
 66 74  1  0  0  0  0
 67 85  1  0  0  0  0
 68 69  1  0  0  0  0
 68 70  1  0  0  0  0
 69 84  1  0  0  0  0
 70 92  1  0  0  0  0
 71 74  1  0  0  0  0
 71 83  1  0  0  0  0
 72 85  1  0  0  0  0
 75 77  1  0  0  0  0
M  CHG  2  84   1  85   1
M  ISO  4  30 100  33 100  70 101  92 101
M  END
> <Batch ID>
0031

> <Smiles>
CNC(C)C(=O)NC(C(=O)N1Cc2cc([101O:1][101CH2:1]CCN3CCC(C4CCC(n5cc(C(C)(C)C)c[100c:0]5[100C:0](=O)N5CCCC(n6nc(-c7ccc(Oc8ccc(F)cc8F)cc7)c(C(N)=O)c6N)C5)CC4)CC3)ccc2CC1C(=O)NC1CCCc2ccccc21)C(C)(C)C

> <Shape>
0.306

> <Color>
0.070

> <Negative vol penalty>
0.000

$$$$

  -OEChem-04052316423D

 81 89  0     1  0  0  0  0  0999 V2000
  -29.0738  -33.7116   25.4655 C   0  0  0  0  0  0  0  0  0  0  0  0
  -29.0746  -32.4729   24.8323 C   0  0  0  0  0  0  0  0  0  0  0  0
  -26.7814  -12.9923   20.9139 C   0  0  0  0  0  0  0  0  0  0  0  0
  -27.2787  -12.8367   18.5547 C   0  0  0  0  0  0  0  0  0  0  0  0
  -27.8886  -34.2233   25.9921 C   0  0  0  0  0  0  0  0  0  0  0  0
  -27.8902  -31.7446   24.7262 C   0  0  0  0  0  0  0  0  0  0  0  0
  -27.2231  -29.7830   20.1054 C   0  0  0  0  0  0  0  0  0  0  0  0
  -26.3162  -11.6774   20.9026 C   0  0  0  0  0  0  0  0  0  0  0  0
  -26.8135  -11.5217   18.5434 C   0  0  0  0  0  0  0  0  0  0  0  0
  -27.9487  -28.6350   19.7901 C   0  0  0  0  0  0  0  0  0  0  0  0
  -23.5156  -10.0346   19.9633 C   0  0  0  0  0  0  0  0  0  0  0  0
  -22.3156   -9.7668   20.6219 C   0  0  0  0  0  0  0  0  0  0  0  0
  -25.9996  -27.2867   20.2401 C   0  0  0  0  0  0  0  0  0  0  0  0
  -31.1015  -24.6334   19.5623 C   0  0  0  0  0  0  0  0  0  0  0  0
  -29.4500  -24.3206   17.8269 C   0  0  0  0  0  0  0  0  0  0  0  0
  -23.4601   -8.2127   22.0752 C   0  0  0  0  0  0  0  0  0  0  0  0
  -27.2626  -13.5720   19.7399 C   0  0  0  0  0  0  0  0  0  0  0  0
  -29.0585  -15.3651   19.9993 C   0  0  0  0  0  0  0  0  0  0  0  0
  -26.6872  -33.5053   25.8839 C   0  0  0  0  0  0  0  0  0  0  0  0
  -25.8811  -29.6904   20.5015 C   0  0  0  0  0  0  0  0  0  0  0  0
  -26.6880  -32.2466   25.2530 C   0  0  0  0  0  0  0  0  0  0  0  0
  -25.2584  -28.4353   20.5574 C   0  0  0  0  0  0  0  0  0  0  0  0
  -30.0000  -25.0998   18.8448 C   0  0  0  0  0  0  0  0  0  0  0  0
  -31.6531  -23.3880   19.2618 C   0  0  0  0  0  0  0  0  0  0  0  0
  -30.0015  -23.0751   17.5265 C   0  0  0  0  0  0  0  0  0  0  0  0
  -26.3322  -10.9421   19.7174 C   0  0  0  0  0  0  0  0  0  0  0  0
  -27.3378  -27.3864   19.8603 C   0  0  0  0  0  0  0  0  0  0  0  0
  -24.6879   -9.3914   20.3605 C   0  0  0  0  0  0  0  0  0  0  0  0
  -22.2878   -8.8559   21.6779 C   0  0  0  0  0  0  0  0  0  0  0  0
  -24.6601   -8.4805   21.4165 C   0  0  0  0  0  0  0  0  0  0  0  0
  -31.1031  -22.6088   18.2440 C   0  0  0  0  0  0  0  0  0  0  0  0
  -27.7428  -14.9305   19.7508 C   0  0  0  0  0  0  0  0  0  0  0  0
  -28.9938  -16.7330   19.8945 C   0  0  0  0  0  0  0  0  0  0  0  0
  -30.2341  -14.6006   20.2980 C   0  0  0  0  0  0  0  0  0  0  0  0
  -24.2631  -30.4343   23.1344 C   0  0  0  0  0  0  0  0  0  0  0  0
  -21.7006  -29.6116   21.3235 C   0  0  0  0  0  0  0  0  0  0  0  0
  -20.4735  -27.8503   18.6704 C   0  0  0  0  0  0  0  0  0  0  0  0
  -27.2418  -21.3355   17.2690 C   0  0  0  0  0  0  0  0  0  0  0  0
  -25.4404  -34.0779   26.5102 C   0  0  0  0  0  0  0  0  0  0  0  0
  -25.1045  -30.9405   20.8124 C   0  0  0  0  0  0  0  0  0  0  0  0
  -23.8143  -28.2835   20.9575 C   0  0  0  0  0  0  0  0  0  0  0  0
  -24.1547  -33.4128   26.0256 C   0  0  0  0  0  0  0  0  0  0  0  0
  -25.0033  -19.8266   19.5904 C   0  0  0  0  0  0  0  0  0  0  0  0
  -24.3004  -31.8944   26.0411 C   0  0  0  0  0  0  0  0  0  0  0  0
  -25.6216  -18.4525   19.8544 C   0  0  0  0  0  0  0  0  0  0  0  0
  -25.1870  -20.2582   18.1372 C   0  0  0  0  0  0  0  0  0  0  0  0
  -27.1978  -18.8504   17.9164 C   0  0  0  0  0  0  0  0  0  0  0  0
  -25.4185  -31.4379   25.0962 C   0  0  1  0  0  0  0  0  0  0  0  0
  -23.8907  -30.6845   21.7004 C   0  0  1  0  0  0  0  0  0  0  0  0
  -27.0868  -18.3968   19.3821 C   0  0  2  0  0  0  0  0  0  0  0  0
  -32.8333  -22.9288   20.0565 C   0  0  0  0  0  0  0  0  0  0  0  0
  -18.3331  -27.3455   17.4616 C   0  0  0  0  0  0  0  0  0  0  0  0
  -20.8898  -27.7025   23.5613 C   0  0  0  0  0  0  0  0  0  0  0  0
  -19.3492  -26.5718   21.9438 C   0  0  0  0  0  0  0  0  0  0  0  0
  -18.9946  -28.9696   22.5331 C   0  0  0  0  0  0  0  0  0  0  0  0
  -21.4788  -29.0399   16.1539 C   0  0  0  0  0  0  0  0  0  0  0  0
  -29.3795  -22.2745   16.4277 C   0  0  0  0  0  0  0  0  0  0  0  0
  -29.4066  -26.4395   19.1680 C   0  0  0  0  0  0  0  0  0  1  0  0
  -20.9460  -28.3314   21.0578 C   0  0  1  0  0  0  0  0  0  0  0  0
  -19.5513  -28.2530   17.5339 C   0  0  2  0  0  0  0  0  0  0  0  0
  -20.0727  -27.8962   22.2683 C   0  0  0  0  0  0  0  0  0  0  0  0
  -26.9036  -15.9405   19.5067 N   0  0  0  0  0  0  0  0  0  0  0  0
  -27.6938  -17.0233   19.6014 N   0  0  0  0  0  0  0  0  0  0  0  0
  -23.0991  -29.5348   21.2580 N   0  0  0  0  0  0  0  0  0  0  0  0
  -26.5986  -20.1842   17.7526 N   0  0  0  0  0  0  0  0  0  0  0  0
  -29.9227  -17.7038   20.0256 N   0  0  0  0  0  0  0  0  0  0  0  0
  -30.1238  -13.2051   20.3676 N   0  0  0  0  0  0  0  0  0  0  0  0
  -24.9639  -31.4698   23.7226 N   0  0  0  0  0  0  0  0  0  0  0  0
  -20.1947  -28.5485   19.8263 N   0  0  0  0  0  0  0  0  0  0  0  0
  -28.5812  -21.1800   16.9333 N   0  0  0  0  0  0  0  0  0  0  0  0
  -20.2713  -28.1779   16.2312 N   0  3  0  0  0  0  0  0  0  0  0  0
  -31.3459  -15.1400   20.5135 O   0  0  0  0  0  0  0  0  0  0  0  0
  -23.9372  -29.3805   23.6682 O   0  0  0  0  0  0  0  0  0  0  0  0
  -21.0722  -30.6434   21.5727 O   0  0  0  0  0  0  0  0  0  0  0  0
  -21.3509  -26.9986   18.5464 O   0  0  0  0  0  0  0  0  0  0  0  0
  -26.6667  -22.4227   17.1506 O   0  0  0  0  0  0  0  0  0  0  0  0
  -25.8786   -9.6589   19.7061 O   0  0  0  0  0  0  0  0  0  0  0  0
  -28.0440  -26.2642   19.5538 O   0  0  0  0  0  0  0  0  0  1  0  0
  -21.1357   -8.6000   22.3114 F   0  0  0  0  0  0  0  0  0  0  0  0
  -25.7833   -7.8603   21.8034 F   0  0  0  0  0  0  0  0  0  0  0  0
  -31.7880  -21.0626   17.8709 Cl  0  0  0  0  0  0  0  0  0  0  0  0
  1  2  1  0  0  0  0
  1  5  2  0  0  0  0
  2  6  2  0  0  0  0
  3  8  2  0  0  0  0
  3 17  1  0  0  0  0
  4  9  1  0  0  0  0
  4 17  2  0  0  0  0
  5 19  1  0  0  0  0
  6 21  1  0  0  0  0
  7 10  2  0  0  0  0
  7 20  1  0  0  0  0
  8 26  1  0  0  0  0
  9 26  2  0  0  0  0
 10 27  1  0  0  0  0
 11 12  2  0  0  0  0
 11 28  1  0  0  0  0
 12 29  1  0  0  0  0
 13 22  1  0  0  0  0
 13 27  2  0  0  0  0
 14 23  1  0  0  0  0
 14 24  2  0  0  0  0
 15 23  2  0  0  0  0
 15 25  1  0  0  0  0
 16 29  2  0  0  0  0
 16 30  1  0  0  0  0
 17 32  1  0  0  0  0
 18 32  1  0  0  0  0
 18 33  2  0  0  0  0
 18 34  1  0  0  0  0
 19 21  2  0  0  0  0
 19 39  1  0  0  0  0
 20 22  2  0  0  0  0
 20 40  1  0  0  0  0
 21 48  1  0  0  0  0
 22 41  1  0  0  0  0
 23 58  1  0  0  0  0
 24 31  1  0  0  0  0
 24 51  1  0  0  0  0
 25 31  2  0  0  0  0
 25 57  1  0  0  0  0
 26 77  1  0  0  0  0
 27 78  1  0  0  0  0
 28 30  2  0  0  0  0
 28 77  1  0  0  0  0
 29 79  1  0  0  0  0
 30 80  1  0  0  0  0
 31 81  1  0  0  0  0
 32 62  2  0  0  0  0
 33 63  1  0  0  0  0
 33 66  1  0  0  0  0
 34 67  1  0  0  0  0
 34 72  2  0  0  0  0
 35 49  1  0  0  0  0
 35 68  1  0  0  0  0
 35 73  2  0  0  0  0
 36 59  1  0  0  0  0
 36 64  1  0  0  0  0
 36 74  2  0  0  0  0
 37 60  1  0  0  0  0
 37 69  1  0  0  0  0
 37 75  2  0  0  0  0
 38 65  1  0  0  0  0
 38 70  1  0  0  0  0
 38 76  2  0  0  0  0
 39 42  1  0  0  0  0
 40 49  1  0  0  0  0
 41 64  1  0  0  0  0
 42 44  1  0  0  0  0
 43 45  1  0  0  0  0
 43 46  1  0  0  0  0
 44 48  1  0  0  0  0
 45 50  1  0  0  0  0
 46 65  1  0  0  0  0
 47 50  1  0  0  0  0
 47 65  1  0  0  0  0
 48 68  1  0  0  0  0
 49 64  1  0  0  0  0
 50 63  1  0  0  0  0
 52 60  1  0  0  0  0
 53 61  1  0  0  0  0
 54 61  1  0  0  0  0
 55 61  1  0  0  0  0
 56 71  1  0  0  0  0
 57 70  1  0  0  0  0
 58 78  1  0  0  0  0
 59 61  1  0  0  0  0
 59 69  1  0  0  0  0
 60 71  1  0  0  0  0
 62 63  1  0  0  0  0
M  CHG  1  71   1
M  ISO  4  38 100  58 101  70 100  78 101
M  END
> <Batch ID>
0031

> <Smiles>
CNC(C)C(=O)NC(C(=O)N1Cc2cc([101O:1][101CH2:1]c3cc(C)c(Cl)c(C[100NH:0][100C:0](=O)N4CCCC(n5nc(-c6ccc(Oc7ccc(F)cc7F)cc6)c(C(N)=O)c5N)C4)c3)ccc2CC1C(=O)NC1CCCc2ccccc21)C(C)(C)C

> <Shape>
0.314

> <Color>
0.097

> <Negative vol penalty>
0.000

$$$$

  -OEChem-04052316423D

 81 89  0     1  0  0  0  0  0999 V2000
  -27.7567  -33.0328   26.6617 C   0  0  0  0  0  0  0  0  0  0  0  0
  -27.8908  -31.8710   25.9083 C   0  0  0  0  0  0  0  0  0  0  0  0
  -22.4251  -14.1479   19.9358 C   0  0  0  0  0  0  0  0  0  0  0  0
  -23.1280  -14.3753   22.2361 C   0  0  0  0  0  0  0  0  0  0  0  0
  -26.4873  -33.5269   26.9589 C   0  0  0  0  0  0  0  0  0  0  0  0
  -26.7554  -31.2019   25.4526 C   0  0  0  0  0  0  0  0  0  0  0  0
  -27.1518  -29.7791   20.6087 C   0  0  0  0  0  0  0  0  0  0  0  0
  -21.0906  -14.1781   20.3406 C   0  0  0  0  0  0  0  0  0  0  0  0
  -21.7935  -14.4056   22.6409 C   0  0  0  0  0  0  0  0  0  0  0  0
  -27.9188  -28.6466   20.3385 C   0  0  0  0  0  0  0  0  0  0  0  0
  -19.2950  -12.1864   23.1542 C   0  0  0  0  0  0  0  0  0  0  0  0
  -18.9346  -11.4120   24.2569 C   0  0  0  0  0  0  0  0  0  0  0  0
  -25.9047  -27.3289   20.1755 C   0  0  0  0  0  0  0  0  0  0  0  0
  -18.2144  -13.4034   25.4200 C   0  0  0  0  0  0  0  0  0  0  0  0
  -23.4438  -14.2465   20.8835 C   0  0  0  0  0  0  0  0  0  0  0  0
  -25.4791  -13.1760   19.7794 C   0  0  0  0  0  0  0  0  0  0  0  0
  -25.3359  -32.8689   26.4985 C   0  0  0  0  0  0  0  0  0  0  0  0
  -25.7538  -29.6926   20.6753 C   0  0  0  0  0  0  0  0  0  0  0  0
  -25.4693  -31.6869   25.7452 C   0  0  0  0  0  0  0  0  0  0  0  0
  -25.1222  -28.4623   20.4442 C   0  0  0  0  0  0  0  0  0  0  0  0
  -20.7748  -14.3069   21.6931 C   0  0  0  0  0  0  0  0  0  0  0  0
  -27.2954  -27.4207   20.1247 C   0  0  0  0  0  0  0  0  0  0  0  0
  -19.1152  -13.5693   23.1843 C   0  0  0  0  0  0  0  0  0  0  0  0
  -18.3943  -12.0205   25.3898 C   0  0  0  0  0  0  0  0  0  0  0  0
  -18.5748  -14.1778   24.3172 C   0  0  0  0  0  0  0  0  0  0  0  0
  -24.8225  -14.2148   20.4661 C   0  0  0  0  0  0  0  0  0  0  0  0
  -26.7657  -13.6294   19.6198 C   0  0  0  0  0  0  0  0  0  0  0  0
  -24.9714  -11.9140   19.3263 C   0  0  0  0  0  0  0  0  0  0  0  0
  -23.5799  -30.2044   22.9372 C   0  0  0  0  0  0  0  0  0  0  0  0
  -21.4959  -29.6765   20.5080 C   0  0  0  0  0  0  0  0  0  0  0  0
  -20.8957  -28.2593   17.4621 C   0  0  0  0  0  0  0  0  0  0  0  0
  -29.0081  -19.0839   19.3444 C   0  0  0  0  0  0  0  0  0  0  0  0
  -23.9842  -33.4148   26.8852 C   0  0  0  0  0  0  0  0  0  0  0  0
  -24.9393  -30.9289   20.9414 C   0  0  0  0  0  0  0  0  0  0  0  0
  -23.6233  -28.3204   20.4846 C   0  0  0  0  0  0  0  0  0  0  0  0
  -22.8382  -32.8533   26.0476 C   0  0  0  0  0  0  0  0  0  0  0  0
  -30.0075  -16.4945   21.6667 C   0  0  0  0  0  0  0  0  0  0  0  0
  -22.9609  -31.3380   25.9228 C   0  0  0  0  0  0  0  0  0  0  0  0
  -30.3145  -22.7212   20.2743 C   0  0  0  0  0  0  0  0  0  0  0  0
  -30.2715  -23.2608   17.8078 C   0  0  0  0  0  0  0  0  0  0  0  0
  -29.7269  -24.0966   20.5854 C   0  0  0  0  0  0  0  0  0  0  0  0
  -29.6840  -24.6362   18.1189 C   0  0  0  0  0  0  0  0  0  0  0  0
  -28.8394  -15.5137   21.5499 C   0  0  0  0  0  0  0  0  0  0  0  0
  -29.5261  -17.9400   21.5840 C   0  0  0  0  0  0  0  0  0  0  0  0
  -27.5676  -17.2781   20.2424 C   0  0  0  0  0  0  0  0  0  0  0  0
  -24.2620  -30.9465   25.2120 C   0  0  1  0  0  0  0  0  0  0  0  0
  -23.5509  -30.6221   21.4941 C   0  0  1  0  0  0  0  0  0  0  0  0
  -29.9006  -22.2299   18.8813 C   0  0  0  0  0  0  0  0  0  0  0  0
  -30.0979  -25.1275   19.5119 C   0  0  0  0  0  0  0  0  0  0  0  0
  -27.9915  -15.7990   20.2961 C   0  0  2  0  0  0  0  0  0  0  0  0
  -19.0867  -27.9666   15.7476 C   0  0  0  0  0  0  0  0  0  0  0  0
  -29.9033  -26.9860   21.1896 C   0  0  0  0  0  0  0  0  0  0  0  0
  -29.7956  -27.5016   18.7337 C   0  0  0  0  0  0  0  0  0  0  0  0
  -20.1713  -27.5664   22.2694 C   0  0  0  0  0  0  0  0  0  0  0  0
  -19.0337  -26.6744   20.2252 C   0  0  0  0  0  0  0  0  0  0  0  0
  -18.5774  -29.0054   20.9876 C   0  0  0  0  0  0  0  0  0  0  0  0
  -22.4664  -29.6779   15.3934 C   0  0  0  0  0  0  0  0  0  0  0  0
  -30.5403  -20.8772   18.5742 C   0  0  0  0  0  0  0  0  0  0  0  0
  -20.8098  -28.4609   19.9332 C   0  0  1  0  0  0  0  0  0  0  0  0
  -20.2646  -28.8162   16.1987 C   0  0  2  0  0  0  0  0  0  0  0  0
  -29.4583  -26.4802   19.8190 C   0  0  0  0  0  0  0  0  0  1  0  0
  -19.6764  -27.9287   20.8549 C   0  0  0  0  0  0  0  0  0  0  0  0
  -25.6257  -15.2501   20.7250 N   0  0  0  0  0  0  0  0  0  0  0  0
  -26.8003  -14.8641   20.1983 N   0  0  0  0  0  0  0  0  0  0  0  0
  -22.8709  -29.5567   20.7548 N   0  0  0  0  0  0  0  0  0  0  0  0
  -28.7414  -18.1497   20.3591 N   0  0  0  0  0  0  0  0  0  0  0  0
  -27.8596  -13.0885   19.0426 N   0  0  0  0  0  0  0  0  0  0  0  0
  -25.0488  -10.8134   20.1907 N   0  0  0  0  0  0  0  0  0  0  0  0
  -24.1368  -31.1438   23.7837 N   0  0  0  0  0  0  0  0  0  0  0  0
  -20.3650  -28.8375   18.5957 N   0  0  0  0  0  0  0  0  0  0  0  0
  -30.1342  -19.8754   19.5346 N   0  0  0  0  0  0  0  0  0  0  0  0
  -21.2648  -28.8569   15.0947 N   0  3  0  0  0  0  0  0  0  0  0  0
  -24.4792  -11.7628   18.1825 O   0  0  0  0  0  0  0  0  0  0  0  0
  -23.1289  -29.1113   23.2589 O   0  0  0  0  0  0  0  0  0  0  0  0
  -20.8376  -30.6972   20.7233 O   0  0  0  0  0  0  0  0  0  0  0  0
  -21.7692  -27.3949   17.4451 O   0  0  0  0  0  0  0  0  0  0  0  0
  -28.2979  -19.2005   18.3399 O   0  0  0  0  0  0  0  0  0  0  0  0
  -19.4727  -14.3366   22.0884 O   0  0  0  0  0  0  0  0  0  0  0  0
  -28.0417  -26.3136   19.8614 O   0  0  0  0  0  0  0  0  0  1  0  0
  -18.0468  -11.2766   26.4481 F   0  0  0  0  0  0  0  0  0  0  0  0
  -18.3986  -15.5058   24.3516 F   0  0  0  0  0  0  0  0  0  0  0  0
  1  2  1  0  0  0  0
  1  5  2  0  0  0  0
  2  6  2  0  0  0  0
  3  8  2  0  0  0  0
  3 15  1  0  0  0  0
  4  9  1  0  0  0  0
  4 15  2  0  0  0  0
  5 17  1  0  0  0  0
  6 19  1  0  0  0  0
  7 10  2  0  0  0  0
  7 18  1  0  0  0  0
  8 21  1  0  0  0  0
  9 21  2  0  0  0  0
 10 22  1  0  0  0  0
 11 12  2  0  0  0  0
 11 23  1  0  0  0  0
 12 24  1  0  0  0  0
 13 20  1  0  0  0  0
 13 22  2  0  0  0  0
 14 24  2  0  0  0  0
 14 25  1  0  0  0  0
 15 26  1  0  0  0  0
 16 26  1  0  0  0  0
 16 27  2  0  0  0  0
 16 28  1  0  0  0  0
 17 19  2  0  0  0  0
 17 33  1  0  0  0  0
 18 20  2  0  0  0  0
 18 34  1  0  0  0  0
 19 46  1  0  0  0  0
 20 35  1  0  0  0  0
 21 78  1  0  0  0  0
 22 79  1  0  0  0  0
 23 25  2  0  0  0  0
 23 78  1  0  0  0  0
 24 80  1  0  0  0  0
 25 81  1  0  0  0  0
 26 63  2  0  0  0  0
 27 64  1  0  0  0  0
 27 67  1  0  0  0  0
 28 68  1  0  0  0  0
 28 73  2  0  0  0  0
 29 47  1  0  0  0  0
 29 69  1  0  0  0  0
 29 74  2  0  0  0  0
 30 59  1  0  0  0  0
 30 65  1  0  0  0  0
 30 75  2  0  0  0  0
 31 60  1  0  0  0  0
 31 70  1  0  0  0  0
 31 76  2  0  0  0  0
 32 66  1  0  0  0  0
 32 71  1  0  0  0  0
 32 77  2  0  0  0  0
 33 36  1  0  0  0  0
 34 47  1  0  0  0  0
 35 65  1  0  0  0  0
 36 38  1  0  0  0  0
 37 43  1  0  0  0  0
 37 44  1  0  0  0  0
 38 46  1  0  0  0  0
 39 41  1  0  0  0  0
 39 48  1  0  0  0  0
 40 42  1  0  0  0  0
 40 48  1  0  0  0  0
 41 49  1  0  0  0  0
 42 49  1  0  0  0  0
 43 50  1  0  0  0  0
 44 66  1  0  0  0  0
 45 50  1  0  0  0  0
 45 66  1  0  0  0  0
 46 69  1  0  0  0  0
 47 65  1  0  0  0  0
 48 58  1  0  0  0  0
 49 61  1  0  0  0  0
 50 64  1  0  0  0  0
 51 60  1  0  0  0  0
 52 61  1  0  0  0  0
 53 61  1  0  0  0  0
 54 62  1  0  0  0  0
 55 62  1  0  0  0  0
 56 62  1  0  0  0  0
 57 72  1  0  0  0  0
 58 71  1  0  0  0  0
 59 62  1  0  0  0  0
 59 70  1  0  0  0  0
 60 72  1  0  0  0  0
 61 79  1  0  0  0  0
 63 64  1  0  0  0  0
M  CHG  1  72   1
M  ISO  4  32 100  61 101  71 100  79 101
M  END
> <Batch ID>
0031

> <Smiles>
CNC(C)C(=O)NC(C(=O)N1Cc2cc([101O:1][101C:1](C)(C)C3CCC(C[100NH:0][100C:0](=O)N4CCCC(n5nc(-c6ccc(Oc7ccc(F)cc7F)cc6)c(C(N)=O)c5N)C4)CC3)ccc2CC1C(=O)NC1CCCc2ccccc21)C(C)(C)C

> <Shape>
0.305

> <Color>
0.073

> <Negative vol penalty>
0.000

$$$$

  -OEChem-04052316423D

 84 92  0     1  0  0  0  0  0999 V2000
  -31.8520  -23.4596   18.5318 C   0  0  0  0  0  0  0  0  0  0  0  0
  -30.5987  -23.8215   18.0484 C   0  0  0  0  0  0  0  0  0  0  0  0
  -26.7443  -13.4836   21.4126 C   0  0  0  0  0  0  0  0  0  0  0  0
  -26.5975  -13.5231   19.0014 C   0  0  0  0  0  0  0  0  0  0  0  0
  -32.1078  -23.5003   19.9018 C   0  0  0  0  0  0  0  0  0  0  0  0
  -29.6000  -24.2231   18.9349 C   0  0  0  0  0  0  0  0  0  0  0  0
  -25.2835  -28.4535   17.9464 C   0  0  0  0  0  0  0  0  0  0  0  0
  -26.0100  -12.2980   21.4379 C   0  0  0  0  0  0  0  0  0  0  0  0
  -25.8633  -12.3374   19.0267 C   0  0  0  0  0  0  0  0  0  0  0  0
  -23.9462  -28.3575   17.5641 C   0  0  0  0  0  0  0  0  0  0  0  0
  -22.7712  -11.3683   21.1724 C   0  0  0  0  0  0  0  0  0  0  0  0
  -21.7420  -11.2642   22.1080 C   0  0  0  0  0  0  0  0  0  0  0  0
  -23.2814  -28.4825   19.8796 C   0  0  0  0  0  0  0  0  0  0  0  0
  -23.7287  -22.8952   15.8907 C   0  0  0  0  0  0  0  0  0  0  0  0
  -21.4278  -23.5664   16.1946 C   0  0  0  0  0  0  0  0  0  0  0  0
  -22.8337   -9.3485   23.0957 C   0  0  0  0  0  0  0  0  0  0  0  0
  -27.0380  -14.0962   20.1943 C   0  0  0  0  0  0  0  0  0  0  0  0
  -29.1950  -15.4537   20.0844 C   0  0  0  0  0  0  0  0  0  0  0  0
  -31.1148  -23.9118   20.8046 C   0  0  0  0  0  0  0  0  0  0  0  0
  -25.6309  -28.5539   19.3013 C   0  0  0  0  0  0  0  0  0  0  0  0
  -29.8424  -24.2680   20.3183 C   0  0  0  0  0  0  0  0  0  0  0  0
  -24.6237  -28.5822   20.2764 C   0  0  0  0  0  0  0  0  0  0  0  0
  -24.0845  -23.5918   17.0455 C   0  0  0  0  0  0  0  0  0  0  0  0
  -25.5695  -11.7248   20.2450 C   0  0  0  0  0  0  0  0  0  0  0  0
  -22.9451  -28.3691   18.5309 C   0  0  0  0  0  0  0  0  0  0  0  0
  -23.8317  -10.4625   21.1983 C   0  0  0  0  0  0  0  0  0  0  0  0
  -21.7836  -24.2629   17.3496 C   0  0  0  0  0  0  0  0  0  0  0  0
  -21.7732  -10.2543   23.0697 C   0  0  0  0  0  0  0  0  0  0  0  0
  -23.8629   -9.4527   22.1600 C   0  0  0  0  0  0  0  0  0  0  0  0
  -22.4004  -22.8825   15.4651 C   0  0  0  0  0  0  0  0  0  0  0  0
  -23.1120  -24.2756   17.7750 C   0  0  0  0  0  0  0  0  0  0  0  0
  -27.7960  -15.3213   20.1676 C   0  0  0  0  0  0  0  0  0  0  0  0
  -29.4127  -16.8098   20.0925 C   0  0  0  0  0  0  0  0  0  0  0  0
  -30.2074  -14.4414   20.0067 C   0  0  0  0  0  0  0  0  0  0  0  0
  -27.3181  -26.7726   21.3222 C   0  0  0  0  0  0  0  0  0  0  0  0
  -26.8223  -29.2725   23.3289 C   0  0  0  0  0  0  0  0  0  0  0  0
  -24.9141  -31.9715   24.1784 C   0  0  0  0  0  0  0  0  0  0  0  0
  -26.0219  -21.3477   18.4294 C   0  0  0  0  0  0  0  0  0  0  0  0
  -31.4235  -23.8943   22.2808 C   0  0  0  0  0  0  0  0  0  0  0  0
  -27.0767  -28.6835   19.6955 C   0  0  0  0  0  0  0  0  0  0  0  0
  -24.9430  -28.7086   21.7428 C   0  0  0  0  0  0  0  0  0  0  0  0
  -30.4278  -24.6901   23.1208 C   0  0  0  0  0  0  0  0  0  0  0  0
  -27.5108  -20.8982   21.6972 C   0  0  0  0  0  0  0  0  0  0  0  0
  -28.9969  -24.3568   22.7106 C   0  0  0  0  0  0  0  0  0  0  0  0
  -27.8862  -19.4157   21.6592 C   0  0  0  0  0  0  0  0  0  0  0  0
  -26.1858  -21.1515   20.9843 C   0  0  0  0  0  0  0  0  0  0  0  0
  -26.5164  -19.1855   19.5354 C   0  0  0  0  0  0  0  0  0  0  0  0
  -28.7410  -24.7329   21.2462 C   0  0  1  0  0  0  0  0  0  0  0  0
  -27.3426  -28.2636   21.1379 C   0  0  1  0  0  0  0  0  0  0  0  0
  -27.8580  -18.8674   20.2202 C   0  0  2  0  0  0  0  0  0  0  0  0
  -24.7369  -33.7985   25.8896 C   0  0  0  0  0  0  0  0  0  0  0  0
  -25.7171  -27.2703   25.3487 C   0  0  0  0  0  0  0  0  0  0  0  0
  -24.7066  -29.1917   26.5958 C   0  0  0  0  0  0  0  0  0  0  0  0
  -27.1826  -29.0425   26.3315 C   0  0  0  0  0  0  0  0  0  0  0  0
  -25.2316  -34.0817   22.1278 C   0  0  0  0  0  0  0  0  0  0  0  0
  -25.5191  -23.5782   17.4656 C   0  0  0  0  0  0  0  0  0  0  0  0
  -19.6024  -26.9919   18.3274 C   0  0  0  0  0  0  0  0  0  0  0  0
  -20.7458  -27.6515   19.0823 C   0  0  0  0  0  0  0  0  0  1  0  0
  -20.0994  -25.9420   17.3461 C   0  0  0  0  0  0  0  0  0  0  0  0
  -25.7567  -29.6432   24.3320 C   0  0  1  0  0  0  0  0  0  0  0  0
  -25.2894  -33.3998   24.5300 C   0  0  2  0  0  0  0  0  0  0  0  0
  -25.8345  -28.7826   25.6246 C   0  0  0  0  0  0  0  0  0  0  0  0
  -27.1691  -16.4993   20.2245 N   0  0  0  0  0  0  0  0  0  0  0  0
  -28.1788  -17.3849   20.1771 N   0  0  0  0  0  0  0  0  0  0  0  0
  -26.3716  -28.8262   22.0785 N   0  0  0  0  0  0  0  0  0  0  0  0
  -26.2315  -20.6222   19.6139 N   0  0  0  0  0  0  0  0  0  0  0  0
  -30.5372  -17.5545   20.0355 N   0  0  0  0  0  0  0  0  0  0  0  0
  -29.8099  -13.0974   20.0096 N   0  0  0  0  0  0  0  0  0  0  0  0
  -28.5401  -26.1604   21.1186 N   0  0  0  0  0  0  0  0  0  0  0  0
  -25.8923  -31.0778   24.5603 N   0  0  0  0  0  0  0  0  0  0  0  0
  -25.7510  -22.7009   18.5914 N   0  0  0  0  0  0  0  0  0  0  0  0
  -24.7513  -34.3429   23.5091 N   0  3  0  0  0  0  0  0  0  0  0  0
  -31.4292  -14.7201   19.9532 O   0  0  0  0  0  0  0  0  0  0  0  0
  -26.2686  -26.2188   21.6280 O   0  0  0  0  0  0  0  0  0  0  0  0
  -28.0107  -29.3820   23.6408 O   0  0  0  0  0  0  0  0  0  0  0  0
  -23.8573  -31.6776   23.6242 O   0  0  0  0  0  0  0  0  0  0  0  0
  -26.0775  -20.8289   17.3092 O   0  0  0  0  0  0  0  0  0  0  0  0
  -24.8532  -10.5677   20.2693 O   0  0  0  0  0  0  0  0  0  0  0  0
  -21.6390  -28.2749   18.1604 O   0  0  0  0  0  0  0  0  0  1  0  0
  -20.8048  -24.9247   18.0443 O   0  0  0  0  0  0  0  0  0  0  0  0
  -20.7855  -10.1554   23.9690 F   0  0  0  0  0  0  0  0  0  0  0  0
  -24.8797   -8.5803   22.1907 F   0  0  0  0  0  0  0  0  0  0  0  0
  -21.9612  -22.0232   14.0402 Cl  0  0  0  0  0  0  0  0  0  0  0  0
  -23.5450  -25.1421   19.2089 Cl  0  0  0  0  0  0  0  0  0  0  0  0
  1  2  1  0  0  0  0
  1  5  2  0  0  0  0
  2  6  2  0  0  0  0
  3  8  2  0  0  0  0
  3 17  1  0  0  0  0
  4  9  1  0  0  0  0
  4 17  2  0  0  0  0
  5 19  1  0  0  0  0
  6 21  1  0  0  0  0
  7 10  2  0  0  0  0
  7 20  1  0  0  0  0
  8 24  1  0  0  0  0
  9 24  2  0  0  0  0
 10 25  1  0  0  0  0
 11 12  2  0  0  0  0
 11 26  1  0  0  0  0
 12 28  1  0  0  0  0
 13 22  1  0  0  0  0
 13 25  2  0  0  0  0
 14 23  2  0  0  0  0
 14 30  1  0  0  0  0
 15 27  1  0  0  0  0
 15 30  2  0  0  0  0
 16 28  2  0  0  0  0
 16 29  1  0  0  0  0
 17 32  1  0  0  0  0
 18 32  1  0  0  0  0
 18 33  2  0  0  0  0
 18 34  1  0  0  0  0
 19 21  2  0  0  0  0
 19 39  1  0  0  0  0
 20 22  2  0  0  0  0
 20 40  1  0  0  0  0
 21 48  1  0  0  0  0
 22 41  1  0  0  0  0
 23 31  1  0  0  0  0
 23 56  1  0  0  0  0
 24 78  1  0  0  0  0
 25 79  1  0  0  0  0
 26 29  2  0  0  0  0
 26 78  1  0  0  0  0
 27 31  2  0  0  0  0
 27 80  1  0  0  0  0
 28 81  1  0  0  0  0
 29 82  1  0  0  0  0
 30 83  1  0  0  0  0
 31 84  1  0  0  0  0
 32 63  2  0  0  0  0
 33 64  1  0  0  0  0
 33 67  1  0  0  0  0
 34 68  1  0  0  0  0
 34 73  2  0  0  0  0
 35 49  1  0  0  0  0
 35 69  1  0  0  0  0
 35 74  2  0  0  0  0
 36 60  1  0  0  0  0
 36 65  1  0  0  0  0
 36 75  2  0  0  0  0
 37 61  1  0  0  0  0
 37 70  1  0  0  0  0
 37 76  2  0  0  0  0
 38 66  1  0  0  0  0
 38 71  1  0  0  0  0
 38 77  2  0  0  0  0
 39 42  1  0  0  0  0
 40 49  1  0  0  0  0
 41 65  1  0  0  0  0
 42 44  1  0  0  0  0
 43 45  1  0  0  0  0
 43 46  1  0  0  0  0
 44 48  1  0  0  0  0
 45 50  1  0  0  0  0
 46 66  1  0  0  0  0
 47 50  1  0  0  0  0
 47 66  1  0  0  0  0
 48 69  1  0  0  0  0
 49 65  1  0  0  0  0
 50 64  1  0  0  0  0
 51 61  1  0  0  0  0
 52 62  1  0  0  0  0
 53 62  1  0  0  0  0
 54 62  1  0  0  0  0
 55 72  1  0  0  0  0
 56 71  1  0  0  0  0
 57 58  1  0  0  0  0
 57 59  1  0  0  0  0
 58 79  1  0  0  0  0
 59 80  1  0  0  0  0
 60 62  1  0  0  0  0
 60 70  1  0  0  0  0
 61 72  1  0  0  0  0
 63 64  1  0  0  0  0
M  CHG  1  72   1
M  ISO  4  38 100  58 101  71 100  79 101
M  END
> <Batch ID>
0031

> <Smiles>
CNC(C)C(=O)NC(C(=O)N1Cc2cc([101O:1][101CH2:1]CCOc3cc(Cl)cc(C[100NH:0][100C:0](=O)N4CCCC(n5nc(-c6ccc(Oc7ccc(F)cc7F)cc6)c(C(N)=O)c5N)C4)c3Cl)ccc2CC1C(=O)NC1CCCc2ccccc21)C(C)(C)C

> <Shape>
0.231

> <Color>
0.076

> <Negative vol penalty>
0.000

$$$$

  -OEChem-04052316423D

 83 92  0     1  0  0  0  0  0999 V2000
  -33.7687  -25.4570   20.8427 C   0  0  0  0  0  0  0  0  0  0  0  0
  -32.3863  -25.3005   20.8496 C   0  0  0  0  0  0  0  0  0  0  0  0
  -24.6140   -8.6012   20.6543 C   0  0  0  0  0  0  0  0  0  0  0  0
  -22.9162  -10.3188   20.5880 C   0  0  0  0  0  0  0  0  0  0  0  0
  -34.3680  -26.3872   21.6909 C   0  0  0  0  0  0  0  0  0  0  0  0
  -31.6026  -26.0734   21.7056 C   0  0  0  0  0  0  0  0  0  0  0  0
  -27.5029  -27.9628   19.4104 C   0  0  0  0  0  0  0  0  0  0  0  0
  -23.6561   -7.6697   21.0544 C   0  0  0  0  0  0  0  0  0  0  0  0
  -21.9582   -9.3872   20.9880 C   0  0  0  0  0  0  0  0  0  0  0  0
  -26.4263  -27.0983   19.2170 C   0  0  0  0  0  0  0  0  0  0  0  0
  -21.7234   -4.9193   22.4414 C   0  0  0  0  0  0  0  0  0  0  0  0
  -22.0525   -4.0565   23.4868 C   0  0  0  0  0  0  0  0  0  0  0  0
  -25.3278  -28.0445   21.1450 C   0  0  0  0  0  0  0  0  0  0  0  0
  -24.5910  -19.8253   20.5306 C   0  0  0  0  0  0  0  0  0  0  0  0
  -22.3764   -5.9520   24.9494 C   0  0  0  0  0  0  0  0  0  0  0  0
  -23.2438  -18.4726   19.3367 C   0  0  0  0  0  0  0  0  0  0  0  0
  -24.2441   -9.9258   20.4211 C   0  0  0  0  0  0  0  0  0  0  0  0
  -26.0315  -10.8441   18.8496 C   0  0  0  0  0  0  0  0  0  0  0  0
  -33.5904  -27.1788   22.5507 C   0  0  0  0  0  0  0  0  0  0  0  0
  -27.5049  -28.8686   20.4809 C   0  0  0  0  0  0  0  0  0  0  0  0
  -32.1922  -27.0142   22.5670 C   0  0  0  0  0  0  0  0  0  0  0  0
  -26.4045  -28.9211   21.3484 C   0  0  0  0  0  0  0  0  0  0  0  0
  -24.3033  -18.4740   20.2169 C   0  0  0  0  0  0  0  0  0  0  0  0
  -22.3281   -8.0626   21.2213 C   0  0  0  0  0  0  0  0  0  0  0  0
  -25.3398  -27.1371   20.0860 C   0  0  0  0  0  0  0  0  0  0  0  0
  -21.7208   -6.2986   22.6500 C   0  0  0  0  0  0  0  0  0  0  0  0
  -22.3790   -4.5728   24.7407 C   0  0  0  0  0  0  0  0  0  0  0  0
  -22.0473   -6.8149   23.9040 C   0  0  0  0  0  0  0  0  0  0  0  0
  -25.2333  -10.8887   20.0084 C   0  0  0  0  0  0  0  0  0  0  0  0
  -23.6983  -20.6085   19.8327 C   0  0  0  0  0  0  0  0  0  0  0  0
  -26.8003  -11.9802   18.9183 C   0  0  0  0  0  0  0  0  0  0  0  0
  -26.0741   -9.8633   17.8046 C   0  0  0  0  0  0  0  0  0  0  0  0
  -29.3406  -29.3166   23.0369 C   0  0  0  0  0  0  0  0  0  0  0  0
  -27.4796  -31.9442   23.4301 C   0  0  0  0  0  0  0  0  0  0  0  0
  -23.9781  -32.7601   23.1291 C   0  0  0  0  0  0  0  0  0  0  0  0
  -26.0379  -17.2698   21.5908 C   0  0  0  0  0  0  0  0  0  0  0  0
  -34.2872  -28.1376   23.4834 C   0  0  0  0  0  0  0  0  0  0  0  0
  -28.6619  -29.8129   20.6601 C   0  0  0  0  0  0  0  0  0  0  0  0
  -26.3488  -29.8892   22.5009 C   0  0  0  0  0  0  0  0  0  0  0  0
  -33.3546  -29.1822   24.0912 C   0  0  0  0  0  0  0  0  0  0  0  0
  -28.7393  -15.0039   22.0856 C   0  0  0  0  0  0  0  0  0  0  0  0
  -32.0782  -28.5238   24.6051 C   0  0  0  0  0  0  0  0  0  0  0  0
  -24.3567  -22.7428   18.6399 C   0  0  0  0  0  0  0  0  0  0  0  0
  -23.9236  -22.7648   21.1401 C   0  0  0  0  0  0  0  0  0  0  0  0
  -28.2217  -13.6889   21.4982 C   0  0  0  0  0  0  0  0  0  0  0  0
  -24.1955  -24.2604   18.6051 C   0  0  0  0  0  0  0  0  0  0  0  0
  -23.7641  -24.2821   21.0921 C   0  0  0  0  0  0  0  0  0  0  0  0
  -27.6312  -15.7860   22.7886 C   0  0  0  0  0  0  0  0  0  0  0  0
  -25.9118  -14.7086   21.3914 C   0  0  0  0  0  0  0  0  0  0  0  0
  -31.3060  -27.8516   23.4635 C   0  0  1  0  0  0  0  0  0  0  0  0
  -23.5515  -22.1187   19.7936 C   0  0  0  0  0  0  0  0  0  0  0  0
  -28.7874  -30.3402   22.0861 C   0  0  1  0  0  0  0  0  0  0  0  0
  -26.9777  -13.9163   20.6170 C   0  0  2  0  0  0  0  0  0  0  0  0
  -24.5612  -24.8976   19.9445 C   0  0  0  0  0  0  0  0  0  1  0  0
  -22.8492  -34.9434   22.6229 C   0  0  0  0  0  0  0  0  0  0  0  0
  -27.3125  -32.2293   26.4634 C   0  0  0  0  0  0  0  0  0  0  0  0
  -25.0405  -33.2403   26.1733 C   0  0  0  0  0  0  0  0  0  0  0  0
  -27.0397  -34.3690   25.1979 C   0  0  0  0  0  0  0  0  0  0  0  0
  -21.8067  -20.1887   18.2387 C   0  0  0  0  0  0  0  0  0  0  0  0
  -22.5050  -31.6004   20.8392 C   0  0  0  0  0  0  0  0  0  0  0  0
  -26.1814  -32.2379   24.1425 C   0  0  1  0  0  0  0  0  0  0  0  0
  -23.3340  -33.6184   22.0554 C   0  0  2  0  0  0  0  0  0  0  0  0
  -26.3993  -32.9933   25.4839 C   0  0  0  0  0  0  0  0  0  0  0  0
  -25.4730  -11.9677   20.7583 N   0  0  0  0  0  0  0  0  0  0  0  0
  -22.8841  -19.7756   19.1106 N   0  0  0  0  0  0  0  0  0  0  0  0
  -26.4305  -12.6115   20.0693 N   0  0  0  0  0  0  0  0  0  0  0  0
  -27.5070  -30.7876   22.6381 N   0  0  0  0  0  0  0  0  0  0  0  0
  -26.4873  -15.9668   21.8920 N   0  0  0  0  0  0  0  0  0  0  0  0
  -27.7499  -12.4907   18.1058 N   0  0  0  0  0  0  0  0  0  0  0  0
  -25.2297  -10.0287   16.6983 N   0  0  0  0  0  0  0  0  0  0  0  0
  -24.9644  -17.3184   20.7020 N   0  0  0  0  0  0  0  0  0  0  0  0
  -30.5897  -28.8406   22.6867 N   0  0  0  0  0  0  0  0  0  0  0  0
  -25.3426  -32.9505   23.1849 N   0  0  0  0  0  0  0  0  0  0  0  0
  -22.1683  -32.9094   21.4556 N   0  3  0  0  0  0  0  0  0  0  0  0
  -26.8266   -8.8611   17.8582 O   0  0  0  0  0  0  0  0  0  0  0  0
  -28.6835  -28.9843   24.0164 O   0  0  0  0  0  0  0  0  0  0  0  0
  -28.4320  -32.7164   23.5656 O   0  0  0  0  0  0  0  0  0  0  0  0
  -23.3346  -31.9998   23.8491 O   0  0  0  0  0  0  0  0  0  0  0  0
  -26.5837  -18.2701   22.0637 O   0  0  0  0  0  0  0  0  0  0  0  0
  -21.3930   -7.1538   21.6114 O   0  0  0  0  0  0  0  0  0  0  0  0
  -24.2880  -26.2939   19.8998 O   0  0  0  0  0  0  0  0  0  1  0  0
  -22.6936   -3.7440   25.7449 F   0  0  0  0  0  0  0  0  0  0  0  0
  -22.0454   -8.1389   24.1108 F   0  0  0  0  0  0  0  0  0  0  0  0
  1  2  1  0  0  0  0
  1  5  2  0  0  0  0
  2  6  2  0  0  0  0
  3  8  2  0  0  0  0
  3 17  1  0  0  0  0
  4  9  1  0  0  0  0
  4 17  2  0  0  0  0
  5 19  1  0  0  0  0
  6 21  1  0  0  0  0
  7 10  2  0  0  0  0
  7 20  1  0  0  0  0
  8 24  1  0  0  0  0
  9 24  2  0  0  0  0
 10 25  1  0  0  0  0
 11 12  2  0  0  0  0
 11 26  1  0  0  0  0
 12 27  1  0  0  0  0
 13 22  1  0  0  0  0
 13 25  2  0  0  0  0
 14 23  1  0  0  0  0
 14 30  2  0  0  0  0
 15 27  2  0  0  0  0
 15 28  1  0  0  0  0
 16 23  2  0  0  0  0
 16 65  1  0  0  0  0
 17 29  1  0  0  0  0
 18 29  1  0  0  0  0
 18 31  2  0  0  0  0
 18 32  1  0  0  0  0
 19 21  2  0  0  0  0
 19 37  1  0  0  0  0
 20 22  2  0  0  0  0
 20 38  1  0  0  0  0
 21 50  1  0  0  0  0
 22 39  1  0  0  0  0
 23 71  1  0  0  0  0
 24 80  1  0  0  0  0
 25 81  1  0  0  0  0
 26 28  2  0  0  0  0
 26 80  1  0  0  0  0
 27 82  1  0  0  0  0
 28 83  1  0  0  0  0
 29 64  2  0  0  0  0
 30 51  1  0  0  0  0
 30 65  1  0  0  0  0
 31 66  1  0  0  0  0
 31 69  1  0  0  0  0
 32 70  1  0  0  0  0
 32 75  2  0  0  0  0
 33 52  1  0  0  0  0
 33 72  1  0  0  0  0
 33 76  2  0  0  0  0
 34 61  1  0  0  0  0
 34 67  1  0  0  0  0
 34 77  2  0  0  0  0
 35 62  1  0  0  0  0
 35 73  1  0  0  0  0
 35 78  2  0  0  0  0
 36 68  1  0  0  0  0
 36 71  1  0  0  0  0
 36 79  2  0  0  0  0
 37 40  1  0  0  0  0
 38 52  1  0  0  0  0
 39 67  1  0  0  0  0
 40 42  1  0  0  0  0
 41 45  1  0  0  0  0
 41 48  1  0  0  0  0
 42 50  1  0  0  0  0
 43 46  1  0  0  0  0
 43 51  1  0  0  0  0
 44 47  1  0  0  0  0
 44 51  1  0  0  0  0
 45 53  1  0  0  0  0
 46 54  1  0  0  0  0
 47 54  1  0  0  0  0
 48 68  1  0  0  0  0
 49 53  1  0  0  0  0
 49 68  1  0  0  0  0
 50 72  1  0  0  0  0
 52 67  1  0  0  0  0
 53 66  1  0  0  0  0
 54 81  1  0  0  0  0
 55 62  1  0  0  0  0
 56 63  1  0  0  0  0
 57 63  1  0  0  0  0
 58 63  1  0  0  0  0
 59 65  1  0  0  0  0
 60 74  1  0  0  0  0
 61 63  1  0  0  0  0
 61 73  1  0  0  0  0
 62 74  1  0  0  0  0
 64 66  1  0  0  0  0
M  CHG  1  74   1
M  ISO  4  36 100  54 101  71 100  81 101
M  END
> <Batch ID>
0031

> <Smiles>
CNC(C)C(=O)NC(C(=O)N1Cc2cc([101O:1][101CH:1]3CCC(c4cc([100NH:0][100C:0](=O)N5CCCC(n6nc(-c7ccc(Oc8ccc(F)cc8F)cc7)c(C(N)=O)c6N)C5)cn4C)CC3)ccc2CC1C(=O)NC1CCCc2ccccc21)C(C)(C)C

> <Shape>
0.219

> <Color>
0.104

> <Negative vol penalty>
0.000

$$$$

  -OEChem-04052316423D

 84 93  0     1  0  0  0  0  0999 V2000
  -31.8405  -32.4478   16.0720 C   0  0  0  0  0  0  0  0  0  0  0  0
  -31.7854  -31.2428   16.7652 C   0  0  0  0  0  0  0  0  0  0  0  0
  -22.5318  -10.3601   21.1493 C   0  0  0  0  0  0  0  0  0  0  0  0
  -24.4815   -9.0303   21.6662 C   0  0  0  0  0  0  0  0  0  0  0  0
  -31.0338  -33.5146   16.4656 C   0  0  0  0  0  0  0  0  0  0  0  0
  -30.9242  -31.1044   17.8531 C   0  0  0  0  0  0  0  0  0  0  0  0
  -27.8972  -26.0526   19.5330 C   0  0  0  0  0  0  0  0  0  0  0  0
  -21.7541   -9.2030   21.1056 C   0  0  0  0  0  0  0  0  0  0  0  0
  -23.7038   -7.8731   21.6226 C   0  0  0  0  0  0  0  0  0  0  0  0
  -28.1585  -25.0794   20.4966 C   0  0  0  0  0  0  0  0  0  0  0  0
  -21.5199   -6.2643   23.6382 C   0  0  0  0  0  0  0  0  0  0  0  0
  -21.6939   -5.3296   24.6587 C   0  0  0  0  0  0  0  0  0  0  0  0
  -26.7197  -26.2378   22.0481 C   0  0  0  0  0  0  0  0  0  0  0  0
  -22.3361   -3.6676   23.0270 C   0  0  0  0  0  0  0  0  0  0  0  0
  -31.9525  -18.0379   21.4835 C   0  0  0  0  0  0  0  0  0  0  0  0
  -23.8955  -10.2737   21.4295 C   0  0  0  0  0  0  0  0  0  0  0  0
  -24.5321  -12.5744   22.3291 C   0  0  0  0  0  0  0  0  0  0  0  0
  -30.1553  -33.3862   17.5529 C   0  0  0  0  0  0  0  0  0  0  0  0
  -27.0524  -27.1334   19.8239 C   0  0  0  0  0  0  0  0  0  0  0  0
  -30.1060  -32.1710   18.2625 C   0  0  0  0  0  0  0  0  0  0  0  0
  -26.4473  -27.2221   21.0857 C   0  0  0  0  0  0  0  0  0  0  0  0
  -31.3088  -17.1452   22.3613 C   0  0  0  0  0  0  0  0  0  0  0  0
  -22.3401   -7.9595   21.3423 C   0  0  0  0  0  0  0  0  0  0  0  0
  -27.5720  -25.1734   21.7552 C   0  0  0  0  0  0  0  0  0  0  0  0
  -21.7540   -5.9008   22.3120 C   0  0  0  0  0  0  0  0  0  0  0  0
  -22.1020   -4.0312   24.3531 C   0  0  0  0  0  0  0  0  0  0  0  0
  -22.1621   -4.6024   22.0064 C   0  0  0  0  0  0  0  0  0  0  0  0
  -24.6995  -11.4686   21.4742 C   0  0  0  0  0  0  0  0  0  0  0  0
  -25.5421  -13.4362   21.9776 C   0  0  0  0  0  0  0  0  0  0  0  0
  -30.3054  -17.8891   22.9326 C   0  0  0  0  0  0  0  0  0  0  0  0
  -23.5513  -12.8021   23.3499 C   0  0  0  0  0  0  0  0  0  0  0  0
  -27.4098  -30.2895   19.9486 C   0  0  0  0  0  0  0  0  0  0  0  0
  -24.2000  -30.2434   20.4152 C   0  0  0  0  0  0  0  0  0  0  0  0
  -21.4484  -28.5144   21.4572 C   0  0  0  0  0  0  0  0  0  0  0  0
  -30.8778  -14.4001   20.6561 C   0  0  0  0  0  0  0  0  0  0  0  0
  -29.3373  -34.5824   17.9706 C   0  0  0  0  0  0  0  0  0  0  0  0
  -26.7596  -28.1606   18.7648 C   0  0  0  0  0  0  0  0  0  0  0  0
  -25.5168  -28.3517   21.4414 C   0  0  0  0  0  0  0  0  0  0  0  0
  -28.1788  -34.2333   18.9013 C   0  0  0  0  0  0  0  0  0  0  0  0
  -28.7058  -13.3658   18.0314 C   0  0  0  0  0  0  0  0  0  0  0  0
  -28.6484  -33.2968   20.0100 C   0  0  0  0  0  0  0  0  0  0  0  0
  -27.4593  -12.8657   18.7637 C   0  0  0  0  0  0  0  0  0  0  0  0
  -30.3487  -21.5009   23.2796 C   0  0  0  0  0  0  0  0  0  0  0  0
  -28.7677  -20.8071   21.4197 C   0  0  0  0  0  0  0  0  0  0  0  0
  -29.4632  -22.7094   23.5721 C   0  0  0  0  0  0  0  0  0  0  0  0
  -27.8913  -22.0201   21.7211 C   0  0  0  0  0  0  0  0  0  0  0  0
  -29.9834  -13.0289   18.7970 C   0  0  0  0  0  0  0  0  0  0  0  0
  -28.7552  -12.9809   20.9331 C   0  0  0  0  0  0  0  0  0  0  0  0
  -29.1665  -31.9741   19.4324 C   0  0  1  0  0  0  0  0  0  0  0  0
  -26.2903  -29.4938   19.3390 C   0  0  1  0  0  0  0  0  0  0  0  0
  -29.5360  -20.3444   22.6705 C   0  0  0  0  0  0  0  0  0  0  0  0
  -27.4382  -13.3464   20.2272 C   0  0  2  0  0  0  0  0  0  0  0  0
  -28.7004  -23.1640   22.3300 C   0  0  0  0  0  0  0  0  0  1  0  0
  -18.9682  -28.7532   21.7559 C   0  0  0  0  0  0  0  0  0  0  0  0
  -24.6658  -31.9244   22.9187 C   0  0  0  0  0  0  0  0  0  0  0  0
  -22.3503  -31.3310   23.6634 C   0  0  0  0  0  0  0  0  0  0  0  0
  -22.6888  -32.6148   21.5515 C   0  0  0  0  0  0  0  0  0  0  0  0
  -20.8906  -26.3183   19.5532 C   0  0  0  0  0  0  0  0  0  0  0  0
  -31.6422  -15.7319   22.6058 C   0  0  0  0  0  0  0  0  0  0  0  0
  -23.2961  -30.1616   21.6216 C   0  0  1  0  0  0  0  0  0  0  0  0
  -20.0846  -28.3135   20.8215 C   0  0  2  0  0  0  0  0  0  0  0  0
  -23.2693  -31.4875   22.4330 C   0  0  0  0  0  0  0  0  0  0  0  0
  -31.4041  -19.2558   21.4929 N   0  0  0  0  0  0  0  0  0  0  0  0
  -25.7343  -11.6123   20.6420 N   0  0  0  0  0  0  0  0  0  0  0  0
  -26.2262  -12.8185   20.9723 N   0  0  0  0  0  0  0  0  0  0  0  0
  -30.4051  -19.1336   22.3835 N   0  0  0  0  0  0  0  0  0  0  0  0
  -25.2668  -29.3345   20.3741 N   0  0  0  0  0  0  0  0  0  0  0  0
  -29.8995  -13.5133   20.1769 N   0  0  0  0  0  0  0  0  0  0  0  0
  -25.9028  -14.6547   22.4333 N   0  0  0  0  0  0  0  0  0  0  0  0
  -23.8351  -12.3787   24.6555 N   0  0  0  0  0  0  0  0  0  0  0  0
  -28.0610  -31.1194   19.0561 N   0  0  0  0  0  0  0  0  0  0  0  0
  -21.9911  -29.7379   21.1258 N   0  0  0  0  0  0  0  0  0  0  0  0
  -30.7202  -14.8154   21.9727 N   0  0  0  0  0  0  0  0  0  0  0  0
  -19.8768  -26.8767   20.4845 N   0  3  0  0  0  0  0  0  0  0  0  0
  -22.4489  -13.3496   23.1080 O   0  0  0  0  0  0  0  0  0  0  0  0
  -27.6629  -30.1610   21.1407 O   0  0  0  0  0  0  0  0  0  0  0  0
  -23.9639  -31.0780   19.5382 O   0  0  0  0  0  0  0  0  0  0  0  0
  -21.9775  -27.6719   22.1789 O   0  0  0  0  0  0  0  0  0  0  0  0
  -31.8188  -14.7969   19.9603 O   0  0  0  0  0  0  0  0  0  0  0  0
  -21.5815   -6.8302   21.3000 O   0  0  0  0  0  0  0  0  0  0  0  0
  -27.8258  -24.2252   22.6977 O   0  0  0  0  0  0  0  0  0  1  0  0
  -22.2706   -3.1341   25.3334 F   0  0  0  0  0  0  0  0  0  0  0  0
  -22.3896   -4.2476   20.7343 F   0  0  0  0  0  0  0  0  0  0  0  0
  -29.1144  -17.5225   24.0817 Cl  0  0  0  0  0  0  0  0  0  0  0  0
  1  2  1  0  0  0  0
  1  5  2  0  0  0  0
  2  6  2  0  0  0  0
  3  8  2  0  0  0  0
  3 16  1  0  0  0  0
  4  9  1  0  0  0  0
  4 16  2  0  0  0  0
  5 18  1  0  0  0  0
  6 20  1  0  0  0  0
  7 10  2  0  0  0  0
  7 19  1  0  0  0  0
  8 23  1  0  0  0  0
  9 23  2  0  0  0  0
 10 24  1  0  0  0  0
 11 12  2  0  0  0  0
 11 25  1  0  0  0  0
 12 26  1  0  0  0  0
 13 21  1  0  0  0  0
 13 24  2  0  0  0  0
 14 26  2  0  0  0  0
 14 27  1  0  0  0  0
 15 22  1  0  0  0  0
 15 63  2  0  0  0  0
 16 28  1  0  0  0  0
 17 28  1  0  0  0  0
 17 29  2  0  0  0  0
 17 31  1  0  0  0  0
 18 20  2  0  0  0  0
 18 36  1  0  0  0  0
 19 21  2  0  0  0  0
 19 37  1  0  0  0  0
 20 49  1  0  0  0  0
 21 38  1  0  0  0  0
 22 30  2  0  0  0  0
 22 59  1  0  0  0  0
 23 80  1  0  0  0  0
 24 81  1  0  0  0  0
 25 27  2  0  0  0  0
 25 80  1  0  0  0  0
 26 82  1  0  0  0  0
 27 83  1  0  0  0  0
 28 64  2  0  0  0  0
 29 65  1  0  0  0  0
 29 69  1  0  0  0  0
 30 66  1  0  0  0  0
 30 84  1  0  0  0  0
 31 70  1  0  0  0  0
 31 75  2  0  0  0  0
 32 50  1  0  0  0  0
 32 71  1  0  0  0  0
 32 76  2  0  0  0  0
 33 60  1  0  0  0  0
 33 67  1  0  0  0  0
 33 77  2  0  0  0  0
 34 61  1  0  0  0  0
 34 72  1  0  0  0  0
 34 78  2  0  0  0  0
 35 68  1  0  0  0  0
 35 73  1  0  0  0  0
 35 79  2  0  0  0  0
 36 39  1  0  0  0  0
 37 50  1  0  0  0  0
 38 67  1  0  0  0  0
 39 41  1  0  0  0  0
 40 42  1  0  0  0  0
 40 47  1  0  0  0  0
 41 49  1  0  0  0  0
 42 52  1  0  0  0  0
 43 45  1  0  0  0  0
 43 51  1  0  0  0  0
 44 46  1  0  0  0  0
 44 51  1  0  0  0  0
 45 53  1  0  0  0  0
 46 53  1  0  0  0  0
 47 68  1  0  0  0  0
 48 52  1  0  0  0  0
 48 68  1  0  0  0  0
 49 71  1  0  0  0  0
 50 67  1  0  0  0  0
 51 66  1  0  0  0  0
 52 65  1  0  0  0  0
 53 81  1  0  0  0  0
 54 61  1  0  0  0  0
 55 62  1  0  0  0  0
 56 62  1  0  0  0  0
 57 62  1  0  0  0  0
 58 74  1  0  0  0  0
 59 73  1  0  0  0  0
 60 62  1  0  0  0  0
 60 72  1  0  0  0  0
 61 74  1  0  0  0  0
 63 66  1  0  0  0  0
 64 65  1  0  0  0  0
M  CHG  1  74   1
M  ISO  4  35 100  53 101  73 100  81 101
M  END
> <Batch ID>
0031

> <Smiles>
CNC(C)C(=O)NC(C(=O)N1Cc2cc([101O:1][101CH:1]3CCC(n4ncc(C[100NH:0][100C:0](=O)N5CCCC(n6nc(-c7ccc(Oc8ccc(F)cc8F)cc7)c(C(N)=O)c6N)C5)c4Cl)CC3)ccc2CC1C(=O)NC1CCCc2ccccc21)C(C)(C)C

> <Shape>
0.294

> <Color>
0.143

> <Negative vol penalty>
0.000

$$$$

  -OEChem-04052316423D

 84 93  0     1  0  0  0  0  0999 V2000
  -25.4088  -33.8269   23.4612 C   0  0  0  0  0  0  0  0  0  0  0  0
  -24.7792  -32.9906   24.3762 C   0  0  0  0  0  0  0  0  0  0  0  0
  -22.9984   -9.8988   19.9867 C   0  0  0  0  0  0  0  0  0  0  0  0
  -23.7601   -9.9385   22.2791 C   0  0  0  0  0  0  0  0  0  0  0  0
  -26.3403  -33.3013   22.5684 C   0  0  0  0  0  0  0  0  0  0  0  0
  -25.0897  -31.6306   24.4066 C   0  0  0  0  0  0  0  0  0  0  0  0
  -24.7281  -24.0546   26.7933 C   0  0  0  0  0  0  0  0  0  0  0  0
  -22.2401   -8.7601   20.2583 C   0  0  0  0  0  0  0  0  0  0  0  0
  -23.0017   -8.7997   22.5508 C   0  0  0  0  0  0  0  0  0  0  0  0
  -25.0262  -22.7497   26.4031 C   0  0  0  0  0  0  0  0  0  0  0  0
  -23.2497   -5.4646   22.0548 C   0  0  0  0  0  0  0  0  0  0  0  0
  -23.8526   -4.4449   22.7913 C   0  0  0  0  0  0  0  0  0  0  0  0
  -28.2125  -17.1015   25.3396 C   0  0  0  0  0  0  0  0  0  0  0  0
  -28.2003  -19.1498   23.4790 C   0  0  0  0  0  0  0  0  0  0  0  0
  -27.3218  -23.3914   26.0323 C   0  0  0  0  0  0  0  0  0  0  0  0
  -22.1549   -4.6718   24.4952 C   0  0  0  0  0  0  0  0  0  0  0  0
  -23.7585  -10.4880   20.9971 C   0  0  0  0  0  0  0  0  0  0  0  0
  -24.1325  -13.0059   20.8302 C   0  0  0  0  0  0  0  0  0  0  0  0
  -26.6526  -31.9319   22.5802 C   0  0  0  0  0  0  0  0  0  0  0  0
  -25.7240  -25.0419   26.7955 C   0  0  0  0  0  0  0  0  0  0  0  0
  -26.0448  -31.0853   23.5296 C   0  0  0  0  0  0  0  0  0  0  0  0
  -28.3232  -16.7837   23.9717 C   0  0  0  0  0  0  0  0  0  0  0  0
  -28.3286  -17.8208   23.0236 C   0  0  0  0  0  0  0  0  0  0  0  0
  -27.0344  -24.7074   26.4254 C   0  0  0  0  0  0  0  0  0  0  0  0
  -28.0997  -18.4224   25.7687 C   0  0  0  0  0  0  0  0  0  0  0  0
  -28.0902  -19.4492   24.8360 C   0  0  0  0  0  0  0  0  0  0  0  0
  -22.2417   -8.2106   21.5404 C   0  0  0  0  0  0  0  0  0  0  0  0
  -26.3226  -22.4186   26.0197 C   0  0  0  0  0  0  0  0  0  0  0  0
  -22.0995   -6.0879   22.5386 C   0  0  0  0  0  0  0  0  0  0  0  0
  -23.3052   -4.0485   24.0115 C   0  0  0  0  0  0  0  0  0  0  0  0
  -21.5520   -5.6915   23.7588 C   0  0  0  0  0  0  0  0  0  0  0  0
  -24.5426  -11.6640   20.7169 C   0  0  0  0  0  0  0  0  0  0  0  0
  -25.2339  -13.7345   20.4525 C   0  0  0  0  0  0  0  0  0  0  0  0
  -22.8690  -13.5456   21.2402 C   0  0  0  0  0  0  0  0  0  0  0  0
  -30.7504  -14.6217   20.7172 C   0  0  0  0  0  0  0  0  0  0  0  0
  -26.1606  -27.7909   25.2606 C   0  0  0  0  0  0  0  0  0  0  0  0
  -28.7140  -28.0444   27.2451 C   0  0  0  0  0  0  0  0  0  0  0  0
  -31.3525  -27.5800   29.3591 C   0  0  0  0  0  0  0  0  0  0  0  0
  -27.6741  -31.4175   21.5968 C   0  0  0  0  0  0  0  0  0  0  0  0
  -25.3922  -26.4385   27.2447 C   0  0  0  0  0  0  0  0  0  0  0  0
  -28.4105  -15.3336   23.5853 C   0  0  0  0  0  0  0  0  0  0  0  0
  -28.4433  -17.6332   21.5285 C   0  0  0  0  0  0  0  0  0  0  0  0
  -28.1441  -25.7258   26.4299 C   0  0  0  0  0  0  0  0  0  0  0  0
  -27.6085  -29.9055   21.4077 C   0  0  0  0  0  0  0  0  0  0  0  0
  -29.7530  -14.9357   22.9680 C   0  0  0  0  0  0  0  0  0  0  0  0
  -28.9373  -16.3038   20.9377 C   0  0  0  0  0  0  0  0  0  0  0  0
  -29.5544  -12.2945   18.2690 C   0  0  0  0  0  0  0  0  0  0  0  0
  -27.5957  -29.2123   22.7619 C   0  0  0  0  0  0  0  0  0  0  0  0
  -28.1205  -12.0103   18.7143 C   0  0  0  0  0  0  0  0  0  0  0  0
  -30.4783  -12.5075   19.4639 C   0  0  0  0  0  0  0  0  0  0  0  0
  -28.5856  -13.2923   20.8509 C   0  0  0  0  0  0  0  0  0  0  0  0
  -26.3441  -29.5974   23.5607 C   0  0  1  0  0  0  0  0  0  0  0  0
  -26.3696  -27.4841   26.7166 C   0  0  1  0  0  0  0  0  0  0  0  0
  -27.6130  -13.1014   19.6736 C   0  0  2  0  0  0  0  0  0  0  0  0
  -30.1359  -15.6410   21.6431 C   0  0  2  0  0  0  0  0  0  0  0  0
  -27.9904  -18.7050   27.2302 C   0  0  0  0  0  0  0  0  0  0  0  0
  -31.2096  -16.6748   21.8905 C   0  0  0  0  0  0  0  0  0  0  0  0
  -33.4842  -28.6657   30.1172 C   0  0  0  0  0  0  0  0  0  0  0  0
  -30.0608  -27.2170   24.6352 C   0  0  0  0  0  0  0  0  0  0  0  0
  -32.2722  -27.4334   25.7889 C   0  0  0  0  0  0  0  0  0  0  0  0
  -30.7996  -29.4307   25.5342 C   0  0  0  0  0  0  0  0  0  0  0  0
  -30.4076  -27.7474   32.1588 C   0  0  0  0  0  0  0  0  0  0  0  0
  -27.9636  -20.8753   25.2574 C   0  0  0  0  0  0  0  0  0  1  0  0
  -30.1623  -27.6230   27.1829 C   0  0  1  0  0  0  0  0  0  0  0  0
  -31.9963  -28.4971   30.3832 C   0  0  2  0  0  0  0  0  0  0  0  0
  -30.8036  -27.9088   25.7957 C   0  0  0  0  0  0  0  0  0  0  0  0
  -25.8058  -11.5442   20.2998 N   0  0  0  0  0  0  0  0  0  0  0  0
  -26.1989  -12.8203   20.1476 N   0  0  0  0  0  0  0  0  0  0  0  0
  -29.9501  -13.5355   20.3626 N   0  0  0  0  0  0  0  0  0  0  0  0
  -27.7684  -27.0792   26.8710 N   0  0  0  0  0  0  0  0  0  0  0  0
  -25.4612  -15.0616   20.3548 N   0  0  0  0  0  0  0  0  0  0  0  0
  -21.8458  -12.6558   21.5948 N   0  0  0  0  0  0  0  0  0  0  0  0
  -26.4705  -29.0910   24.9095 N   0  0  0  0  0  0  0  0  0  0  0  0
  -30.8289  -28.2873   28.2977 N   0  0  0  0  0  0  0  0  0  0  0  0
  -31.8241  -27.9428   31.7558 N   0  3  0  0  0  0  0  0  0  0  0  0
  -22.6486  -14.7800   21.2749 O   0  0  0  0  0  0  0  0  0  0  0  0
  -31.9063  -14.7892   20.3196 O   0  0  0  0  0  0  0  0  0  0  0  0
  -25.7499  -26.9128   24.5110 O   0  0  0  0  0  0  0  0  0  0  0  0
  -28.4318  -29.1856   27.6187 O   0  0  0  0  0  0  0  0  0  0  0  0
  -31.3208  -26.3579   29.4861 O   0  0  0  0  0  0  0  0  0  0  0  0
  -21.5016   -7.0995   21.8059 O   0  0  0  0  0  0  0  0  0  0  0  0
  -26.6181  -21.1369   25.6351 O   0  0  0  0  0  0  0  0  0  1  0  0
  -23.8834   -3.0682   24.7179 F   0  0  0  0  0  0  0  0  0  0  0  0
  -20.4464   -6.2858   24.2281 F   0  0  0  0  0  0  0  0  0  0  0  0
  1  2  1  0  0  0  0
  1  5  2  0  0  0  0
  2  6  2  0  0  0  0
  3  8  2  0  0  0  0
  3 17  1  0  0  0  0
  4  9  1  0  0  0  0
  4 17  2  0  0  0  0
  5 19  1  0  0  0  0
  6 21  1  0  0  0  0
  7 10  2  0  0  0  0
  7 20  1  0  0  0  0
  8 27  1  0  0  0  0
  9 27  2  0  0  0  0
 10 28  1  0  0  0  0
 11 12  2  0  0  0  0
 11 29  1  0  0  0  0
 12 30  1  0  0  0  0
 13 22  2  0  0  0  0
 13 25  1  0  0  0  0
 14 23  2  0  0  0  0
 14 26  1  0  0  0  0
 15 24  1  0  0  0  0
 15 28  2  0  0  0  0
 16 30  2  0  0  0  0
 16 31  1  0  0  0  0
 17 32  1  0  0  0  0
 18 32  1  0  0  0  0
 18 33  2  0  0  0  0
 18 34  1  0  0  0  0
 19 21  2  0  0  0  0
 19 39  1  0  0  0  0
 20 24  2  0  0  0  0
 20 40  1  0  0  0  0
 21 52  1  0  0  0  0
 22 23  1  0  0  0  0
 22 41  1  0  0  0  0
 23 42  1  0  0  0  0
 24 43  1  0  0  0  0
 25 26  2  0  0  0  0
 25 56  1  0  0  0  0
 26 63  1  0  0  0  0
 27 81  1  0  0  0  0
 28 82  1  0  0  0  0
 29 31  2  0  0  0  0
 29 81  1  0  0  0  0
 30 83  1  0  0  0  0
 31 84  1  0  0  0  0
 32 67  2  0  0  0  0
 33 68  1  0  0  0  0
 33 71  1  0  0  0  0
 34 72  1  0  0  0  0
 34 76  2  0  0  0  0
 35 55  1  0  0  0  0
 35 69  1  0  0  0  0
 35 77  2  0  0  0  0
 36 53  1  0  0  0  0
 36 73  1  0  0  0  0
 36 78  2  0  0  0  0
 37 64  1  0  0  0  0
 37 70  1  0  0  0  0
 37 79  2  0  0  0  0
 38 65  1  0  0  0  0
 38 74  1  0  0  0  0
 38 80  2  0  0  0  0
 39 44  1  0  0  0  0
 40 53  1  0  0  0  0
 41 45  1  0  0  0  0
 42 46  1  0  0  0  0
 43 70  1  0  0  0  0
 44 48  1  0  0  0  0
 45 55  1  0  0  0  0
 46 55  1  0  0  0  0
 47 49  1  0  0  0  0
 47 50  1  0  0  0  0
 48 52  1  0  0  0  0
 49 54  1  0  0  0  0
 50 69  1  0  0  0  0
 51 54  1  0  0  0  0
 51 69  1  0  0  0  0
 52 73  1  0  0  0  0
 53 70  1  0  0  0  0
 54 68  1  0  0  0  0
 55 57  1  0  0  0  0
 58 65  1  0  0  0  0
 59 66  1  0  0  0  0
 60 66  1  0  0  0  0
 61 66  1  0  0  0  0
 62 75  1  0  0  0  0
 63 82  1  0  0  0  0
 64 66  1  0  0  0  0
 64 74  1  0  0  0  0
 65 75  1  0  0  0  0
 67 68  1  0  0  0  0
M  CHG  1  75   1
M  ISO  4  35 100  55 100  63 101  82 101
M  END
> <Batch ID>
0031

> <Smiles>
CNC(C)C(=O)NC(C(=O)N1Cc2cc([101O:1][101CH2:1]c3cc4c(cc3C)CC[100C:0](C)([100C:0](=O)N3CCCC(n5nc(-c6ccc(Oc7ccc(F)cc7F)cc6)c(C(N)=O)c5N)C3)CC4)ccc2CC1C(=O)NC1CCCc2ccccc21)C(C)(C)C

> <Shape>
0.238

> <Color>
0.205

> <Negative vol penalty>
0.000

$$$$

  -OEChem-04052316423D

 83 91  0     1  0  0  0  0  0999 V2000
  -30.6345   -9.5718   29.5223 C   0  0  0  0  0  0  0  0  0  0  0  0
  -30.8127  -10.8470   28.9955 C   0  0  0  0  0  0  0  0  0  0  0  0
  -23.2883   -9.7996   19.9128 C   0  0  0  0  0  0  0  0  0  0  0  0
  -23.7390   -9.9399   22.2822 C   0  0  0  0  0  0  0  0  0  0  0  0
  -29.3474   -9.0852   29.7470 C   0  0  0  0  0  0  0  0  0  0  0  0
  -29.7038  -11.6360   28.6921 C   0  0  0  0  0  0  0  0  0  0  0  0
  -30.2290  -16.4170   30.2768 C   0  0  0  0  0  0  0  0  0  0  0  0
  -22.5620   -8.6270   20.1204 C   0  0  0  0  0  0  0  0  0  0  0  0
  -23.0126   -8.7673   22.4899 C   0  0  0  0  0  0  0  0  0  0  0  0
  -31.0298  -17.2588   29.5062 C   0  0  0  0  0  0  0  0  0  0  0  0
  -19.7656   -7.8562   22.7070 C   0  0  0  0  0  0  0  0  0  0  0  0
  -18.8632   -7.8343   23.7703 C   0  0  0  0  0  0  0  0  0  0  0  0
  -29.0537  -18.2018   28.4937 C   0  0  0  0  0  0  0  0  0  0  0  0
  -32.8229  -15.3328   23.6782 C   0  0  0  0  0  0  0  0  0  0  0  0
  -30.7888  -16.5699   25.1323 C   0  0  0  0  0  0  0  0  0  0  0  0
  -20.0690   -5.9870   24.7556 C   0  0  0  0  0  0  0  0  0  0  0  0
  -23.8769  -10.4560   20.9937 C   0  0  0  0  0  0  0  0  0  0  0  0
  -24.1362  -12.9860   20.7954 C   0  0  0  0  0  0  0  0  0  0  0  0
  -28.2223   -9.8724   29.4552 C   0  0  0  0  0  0  0  0  0  0  0  0
  -28.8326  -16.4536   30.1534 C   0  0  0  0  0  0  0  0  0  0  0  0
  -28.4004  -11.1590   28.9118 C   0  0  0  0  0  0  0  0  0  0  0  0
  -28.2374  -17.3612   29.2657 C   0  0  0  0  0  0  0  0  0  0  0  0
  -32.9064  -16.6929   23.9757 C   0  0  0  0  0  0  0  0  0  0  0  0
  -31.7223  -14.5912   24.1076 C   0  0  0  0  0  0  0  0  0  0  0  0
  -31.8894  -17.3115   24.7028 C   0  0  0  0  0  0  0  0  0  0  0  0
  -22.4241   -8.1109   21.4089 C   0  0  0  0  0  0  0  0  0  0  0  0
  -30.4423  -18.1494   28.6124 C   0  0  0  0  0  0  0  0  0  0  0  0
  -20.8197   -6.9434   22.6679 C   0  0  0  0  0  0  0  0  0  0  0  0
  -19.0149   -6.8998   24.7947 C   0  0  0  0  0  0  0  0  0  0  0  0
  -20.9714   -6.0089   23.6922 C   0  0  0  0  0  0  0  0  0  0  0  0
  -30.7053  -15.2098   24.8347 C   0  0  0  0  0  0  0  0  0  0  0  0
  -24.6278  -11.6670   20.7799 C   0  0  0  0  0  0  0  0  0  0  0  0
  -25.2377  -13.7660   20.5406 C   0  0  0  0  0  0  0  0  0  0  0  0
  -22.8032  -13.4636   21.0203 C   0  0  0  0  0  0  0  0  0  0  0  0
  -26.6035  -14.3680   29.2674 C   0  0  0  0  0  0  0  0  0  0  0  0
  -24.5806  -16.7294   30.1914 C   0  0  0  0  0  0  0  0  0  0  0  0
  -24.0752  -20.0581   30.7491 C   0  0  0  0  0  0  0  0  0  0  0  0
  -31.1087  -12.9231   21.3603 C   0  0  0  0  0  0  0  0  0  0  0  0
  -26.8499   -9.2853   29.6709 C   0  0  0  0  0  0  0  0  0  0  0  0
  -27.9818  -15.5577   31.0113 C   0  0  0  0  0  0  0  0  0  0  0  0
  -26.7421  -17.4539   29.1106 C   0  0  0  0  0  0  0  0  0  0  0  0
  -25.7348  -10.3279   29.6728 C   0  0  0  0  0  0  0  0  0  0  0  0
  -29.4599  -13.6628   18.2926 C   0  0  0  0  0  0  0  0  0  0  0  0
  -25.8987  -11.2869   28.4980 C   0  0  0  0  0  0  0  0  0  0  0  0
  -27.9902  -13.3542   18.5836 C   0  0  0  0  0  0  0  0  0  0  0  0
  -30.3932  -12.6833   19.0009 C   0  0  0  0  0  0  0  0  0  0  0  0
  -28.7065  -12.2537   20.7457 C   0  0  0  0  0  0  0  0  0  0  0  0
  -27.2228  -12.0545   28.5930 C   0  0  1  0  0  0  0  0  0  0  0  0
  -26.5914  -15.3191   30.4306 C   0  0  1  0  0  0  0  0  0  0  0  0
  -27.7285  -13.2489   20.0981 C   0  0  2  0  0  0  0  0  0  0  0  0
  -34.0926  -17.4681   23.5040 C   0  0  0  0  0  0  0  0  0  0  0  0
  -22.3074  -21.6897   31.4635 C   0  0  0  0  0  0  0  0  0  0  0  0
  -23.2772  -16.5179   27.4407 C   0  0  0  0  0  0  0  0  0  0  0  0
  -22.2021  -18.7405   27.8562 C   0  0  0  0  0  0  0  0  0  0  0  0
  -21.6716  -16.8041   29.3367 C   0  0  0  0  0  0  0  0  0  0  0  0
  -25.6481  -20.9074   33.1078 C   0  0  0  0  0  0  0  0  0  0  0  0
  -31.9567  -18.7810   25.0338 C   0  0  0  0  0  0  0  0  0  0  0  0
  -31.6705  -13.1365   23.7682 C   0  0  0  0  0  0  0  0  0  0  0  0
  -32.9233  -19.1121   26.1730 C   0  0  0  0  0  0  0  0  0  0  0  0
  -32.5194  -18.4939   27.5064 C   0  0  0  0  0  0  0  0  0  1  0  0
  -23.9370  -17.9131   29.5105 C   0  0  1  0  0  0  0  0  0  0  0  0
  -23.4543  -20.8006   31.9186 C   0  0  2  0  0  0  0  0  0  0  0  0
  -22.8002  -17.4910   28.5373 C   0  0  0  0  0  0  0  0  0  0  0  0
  -25.9394  -11.6084   20.5344 N   0  0  0  0  0  0  0  0  0  0  0  0
  -26.2814  -12.9004   20.3933 N   0  0  0  0  0  0  0  0  0  0  0  0
  -25.9532  -16.5527   29.9668 N   0  0  0  0  0  0  0  0  0  0  0  0
  -30.0938  -12.6317   20.4339 N   0  0  0  0  0  0  0  0  0  0  0  0
  -25.4056  -15.1009   20.4303 N   0  0  0  0  0  0  0  0  0  0  0  0
  -21.7906  -12.5266   21.2676 N   0  0  0  0  0  0  0  0  0  0  0  0
  -27.1199  -13.1214   29.5654 N   0  0  0  0  0  0  0  0  0  0  0  0
  -23.5083  -18.8133   30.5755 N   0  0  0  0  0  0  0  0  0  0  0  0
  -30.7389  -12.8573   22.6981 N   0  0  0  0  0  0  0  0  0  0  0  0
  -24.4740  -21.6556   32.5896 N   0  3  0  0  0  0  0  0  0  0  0  0
  -22.5152  -14.6840   20.9861 O   0  0  0  0  0  0  0  0  0  0  0  0
  -26.1748  -14.7373   28.1805 O   0  0  0  0  0  0  0  0  0  0  0  0
  -23.8923  -15.9929   30.9024 O   0  0  0  0  0  0  0  0  0  0  0  0
  -24.9708  -20.5362   30.0564 O   0  0  0  0  0  0  0  0  0  0  0  0
  -32.2577  -13.2249   21.0203 O   0  0  0  0  0  0  0  0  0  0  0  0
  -21.7152   -6.9669   21.6119 O   0  0  0  0  0  0  0  0  0  0  0  0
  -31.2217  -18.9717   27.8585 O   0  0  0  0  0  0  0  0  0  1  0  0
  -18.1491   -6.8800   25.8166 F   0  0  0  0  0  0  0  0  0  0  0  0
  -21.9827   -5.1302   23.6607 F   0  0  0  0  0  0  0  0  0  0  0  0
  -29.3284  -14.3246   25.3825 Cl  0  0  0  0  0  0  0  0  0  0  0  0
  1  2  1  0  0  0  0
  1  5  2  0  0  0  0
  2  6  2  0  0  0  0
  3  8  2  0  0  0  0
  3 17  1  0  0  0  0
  4  9  1  0  0  0  0
  4 17  2  0  0  0  0
  5 19  1  0  0  0  0
  6 21  1  0  0  0  0
  7 10  2  0  0  0  0
  7 20  1  0  0  0  0
  8 26  1  0  0  0  0
  9 26  2  0  0  0  0
 10 27  1  0  0  0  0
 11 12  2  0  0  0  0
 11 28  1  0  0  0  0
 12 29  1  0  0  0  0
 13 22  1  0  0  0  0
 13 27  2  0  0  0  0
 14 23  1  0  0  0  0
 14 24  2  0  0  0  0
 15 25  1  0  0  0  0
 15 31  2  0  0  0  0
 16 29  2  0  0  0  0
 16 30  1  0  0  0  0
 17 32  1  0  0  0  0
 18 32  1  0  0  0  0
 18 33  2  0  0  0  0
 18 34  1  0  0  0  0
 19 21  2  0  0  0  0
 19 39  1  0  0  0  0
 20 22  2  0  0  0  0
 20 40  1  0  0  0  0
 21 48  1  0  0  0  0
 22 41  1  0  0  0  0
 23 25  2  0  0  0  0
 23 51  1  0  0  0  0
 24 31  1  0  0  0  0
 24 58  1  0  0  0  0
 25 57  1  0  0  0  0
 26 79  1  0  0  0  0
 27 80  1  0  0  0  0
 28 30  2  0  0  0  0
 28 79  1  0  0  0  0
 29 81  1  0  0  0  0
 30 82  1  0  0  0  0
 31 83  1  0  0  0  0
 32 64  2  0  0  0  0
 33 65  1  0  0  0  0
 33 68  1  0  0  0  0
 34 69  1  0  0  0  0
 34 74  2  0  0  0  0
 35 49  1  0  0  0  0
 35 70  1  0  0  0  0
 35 75  2  0  0  0  0
 36 61  1  0  0  0  0
 36 66  1  0  0  0  0
 36 76  2  0  0  0  0
 37 62  1  0  0  0  0
 37 71  1  0  0  0  0
 37 77  2  0  0  0  0
 38 67  1  0  0  0  0
 38 72  1  0  0  0  0
 38 78  2  0  0  0  0
 39 42  1  0  0  0  0
 40 49  1  0  0  0  0
 41 66  1  0  0  0  0
 42 44  1  0  0  0  0
 43 45  1  0  0  0  0
 43 46  1  0  0  0  0
 44 48  1  0  0  0  0
 45 50  1  0  0  0  0
 46 67  1  0  0  0  0
 47 50  1  0  0  0  0
 47 67  1  0  0  0  0
 48 70  1  0  0  0  0
 49 66  1  0  0  0  0
 50 65  1  0  0  0  0
 52 62  1  0  0  0  0
 53 63  1  0  0  0  0
 54 63  1  0  0  0  0
 55 63  1  0  0  0  0
 56 73  1  0  0  0  0
 57 59  1  0  0  0  0
 58 72  1  0  0  0  0
 59 60  1  0  0  0  0
 60 80  1  0  0  0  0
 61 63  1  0  0  0  0
 61 71  1  0  0  0  0
 62 73  1  0  0  0  0
 64 65  1  0  0  0  0
M  CHG  1  73   1
M  ISO  4  38 100  60 101  72 100  80 101
M  END
> <Batch ID>
0031

> <Smiles>
CNC(C)C(=O)NC(C(=O)N1Cc2cc([101O:1][101CH2:1]CCc3cc(Cl)c(C[100NH:0][100C:0](=O)N4CCCC(n5nc(-c6ccc(Oc7ccc(F)cc7F)cc6)c(C(N)=O)c5N)C4)cc3C)ccc2CC1C(=O)NC1CCCc2ccccc21)C(C)(C)C

> <Shape>
0.136

> <Color>
0.182

> <Negative vol penalty>
0.000

$$$$

  -OEChem-04052316423D

 85 93  0     1  0  0  0  0  0999 V2000
  -16.3950  -14.9190   23.8207 C   0  0  0  0  0  0  0  0  0  0  0  0
  -17.6420  -15.2501   23.3004 C   0  0  0  0  0  0  0  0  0  0  0  0
  -23.0744   -9.8695   19.9418 C   0  0  0  0  0  0  0  0  0  0  0  0
  -23.8380   -9.8756   22.2340 C   0  0  0  0  0  0  0  0  0  0  0  0
  -15.8892  -15.6195   24.9150 C   0  0  0  0  0  0  0  0  0  0  0  0
  -18.3836  -16.2826   23.8735 C   0  0  0  0  0  0  0  0  0  0  0  0
  -24.4770  -16.5807   24.4096 C   0  0  0  0  0  0  0  0  0  0  0  0
  -22.3314   -8.7159   20.1924 C   0  0  0  0  0  0  0  0  0  0  0  0
  -23.0949   -8.7220   22.4846 C   0  0  0  0  0  0  0  0  0  0  0  0
  -25.4547  -17.2259   23.6535 C   0  0  0  0  0  0  0  0  0  0  0  0
  -19.8680   -7.9227   23.0919 C   0  0  0  0  0  0  0  0  0  0  0  0
  -19.1130   -7.8819   24.2640 C   0  0  0  0  0  0  0  0  0  0  0  0
  -25.4105  -19.0830   25.1925 C   0  0  0  0  0  0  0  0  0  0  0  0
  -25.3401  -20.9171   20.6892 C   0  0  0  0  0  0  0  0  0  0  0  0
  -26.5984  -19.4732   18.6608 C   0  0  0  0  0  0  0  0  0  0  0  0
  -20.3563   -5.9445   24.9974 C   0  0  0  0  0  0  0  0  0  0  0  0
  -23.8278  -10.4493   20.9626 C   0  0  0  0  0  0  0  0  0  0  0  0
  -24.1684  -12.9747   20.8433 C   0  0  0  0  0  0  0  0  0  0  0  0
  -16.6291  -16.6548   25.5078 C   0  0  0  0  0  0  0  0  0  0  0  0
  -23.9500  -17.1876   25.5586 C   0  0  0  0  0  0  0  0  0  0  0  0
  -17.8866  -16.9985   24.9759 C   0  0  0  0  0  0  0  0  0  0  0  0
  -24.4280  -18.4423   25.9628 C   0  0  0  0  0  0  0  0  0  0  0  0
  -26.6962  -20.6072   20.7919 C   0  0  0  0  0  0  0  0  0  0  0  0
  -24.6131  -20.5050   19.5724 C   0  0  0  0  0  0  0  0  0  0  0  0
  -27.3254  -19.8852   19.7777 C   0  0  0  0  0  0  0  0  0  0  0  0
  -22.3416   -8.1422   21.4637 C   0  0  0  0  0  0  0  0  0  0  0  0
  -25.9195  -18.4785   24.0433 C   0  0  0  0  0  0  0  0  0  0  0  0
  -20.8672   -6.9744   22.8725 C   0  0  0  0  0  0  0  0  0  0  0  0
  -19.3571   -6.8928   25.2168 C   0  0  0  0  0  0  0  0  0  0  0  0
  -21.1114   -5.9853   23.8253 C   0  0  0  0  0  0  0  0  0  0  0  0
  -25.2423  -19.7831   18.5582 C   0  0  0  0  0  0  0  0  0  0  0  0
  -24.5960  -11.6406   20.7042 C   0  0  0  0  0  0  0  0  0  0  0  0
  -25.2597  -13.7248   20.4786 C   0  0  0  0  0  0  0  0  0  0  0  0
  -22.8984  -13.4898   21.2645 C   0  0  0  0  0  0  0  0  0  0  0  0
  -21.0635  -18.1763   26.4500 C   0  0  0  0  0  0  0  0  0  0  0  0
  -22.5494  -18.7115   29.2834 C   0  0  0  0  0  0  0  0  0  0  0  0
  -25.4600  -19.3153   30.9598 C   0  0  0  0  0  0  0  0  0  0  0  0
  -30.7433  -14.7458   20.6587 C   0  0  0  0  0  0  0  0  0  0  0  0
  -16.0203  -17.4148   26.6595 C   0  0  0  0  0  0  0  0  0  0  0  0
  -22.9150  -16.4667   26.3781 C   0  0  0  0  0  0  0  0  0  0  0  0
  -23.9094  -19.1278   27.1996 C   0  0  0  0  0  0  0  0  0  0  0  0
  -17.0323  -18.2469   27.4429 C   0  0  0  0  0  0  0  0  0  0  0  0
  -29.6028  -12.3621   18.2726 C   0  0  0  0  0  0  0  0  0  0  0  0
  -17.9262  -19.0353   26.4910 C   0  0  0  0  0  0  0  0  0  0  0  0
  -28.1662  -12.0676   18.7077 C   0  0  0  0  0  0  0  0  0  0  0  0
  -30.5218  -12.5827   19.4721 C   0  0  0  0  0  0  0  0  0  0  0  0
  -28.6220  -13.3123   20.8621 C   0  0  0  0  0  0  0  0  0  0  0  0
  -18.7318  -18.0958   25.5854 C   0  0  1  0  0  0  0  0  0  0  0  0
  -22.0791  -17.4043   27.2439 C   0  0  1  0  0  0  0  0  0  0  0  0
  -27.6460  -13.1379   19.6859 C   0  0  2  0  0  0  0  0  0  0  0  0
  -23.1623  -20.8570   19.5004 C   0  0  0  0  0  0  0  0  0  0  0  0
  -26.3525  -19.7460   33.2654 C   0  0  0  0  0  0  0  0  0  0  0  0
  -21.4857  -21.5686   29.1588 C   0  0  0  0  0  0  0  0  0  0  0  0
  -23.1474  -22.1901   30.9253 C   0  0  0  0  0  0  0  0  0  0  0  0
  -21.3712  -20.5106   31.4219 C   0  0  0  0  0  0  0  0  0  0  0  0
  -27.1583  -16.8928   30.8808 C   0  0  0  0  0  0  0  0  0  0  0  0
  -27.4627  -21.0612   22.0104 C   0  0  0  0  0  0  0  0  0  0  0  0
  -28.7756  -19.5396   19.8674 C   0  0  0  0  0  0  0  0  0  0  0  0
  -29.0339  -18.3684   20.8269 C   0  0  0  0  0  0  0  0  0  0  0  0
  -30.5275  -18.0481   20.9382 C   0  0  0  0  0  0  0  0  0  0  0  0
  -30.8103  -16.8958   21.8966 C   0  0  0  0  0  0  0  0  0  0  0  0
  -26.8539  -20.5377   23.3067 C   0  0  0  0  0  0  0  0  0  1  0  0
  -23.2876  -19.8748   29.9004 C   0  0  1  0  0  0  0  0  0  0  0  0
  -26.0491  -18.6917   32.2122 C   0  0  2  0  0  0  0  0  0  0  0  0
  -22.3316  -21.0242   30.3272 C   0  0  0  0  0  0  0  0  0  0  0  0
  -25.8602  -11.5455   20.2839 N   0  0  0  0  0  0  0  0  0  0  0  0
  -26.2364  -12.8293   20.1556 N   0  0  0  0  0  0  0  0  0  0  0  0
  -22.8936  -18.3852   27.9640 N   0  0  0  0  0  0  0  0  0  0  0  0
  -29.9723  -13.6105   20.3595 N   0  0  0  0  0  0  0  0  0  0  0  0
  -25.4694  -15.0563   20.4060 N   0  0  0  0  0  0  0  0  0  0  0  0
  -21.8874  -12.5800   21.6029 N   0  0  0  0  0  0  0  0  0  0  0  0
  -19.8497  -17.5308   26.3103 N   0  0  0  0  0  0  0  0  0  0  0  0
  -24.0815  -19.3215   30.9923 N   0  0  0  0  0  0  0  0  0  0  0  0
  -30.1452  -15.6740   21.5022 N   0  0  0  0  0  0  0  0  0  0  0  0
  -27.3142  -17.9740   31.8876 N   0  3  0  0  0  0  0  0  0  0  0  0
  -22.6618  -14.7203   21.3228 O   0  0  0  0  0  0  0  0  0  0  0  0
  -21.3587  -19.2768   25.9990 O   0  0  0  0  0  0  0  0  0  0  0  0
  -21.7037  -18.1098   29.9500 O   0  0  0  0  0  0  0  0  0  0  0  0
  -26.1534  -19.7565   30.0460 O   0  0  0  0  0  0  0  0  0  0  0  0
  -31.8785  -14.9220   20.2034 O   0  0  0  0  0  0  0  0  0  0  0  0
  -21.6165   -7.0167   21.7087 O   0  0  0  0  0  0  0  0  0  0  0  0
  -26.8732  -19.1108   23.3068 O   0  0  0  0  0  0  0  0  0  1  0  0
  -18.6330   -6.8547   26.3430 F   0  0  0  0  0  0  0  0  0  0  0  0
  -22.0707   -5.0723   23.6207 F   0  0  0  0  0  0  0  0  0  0  0  0
  -24.3752  -19.2563   17.1617 Cl  0  0  0  0  0  0  0  0  0  0  0  0
  1  2  1  0  0  0  0
  1  5  2  0  0  0  0
  2  6  2  0  0  0  0
  3  8  2  0  0  0  0
  3 17  1  0  0  0  0
  4  9  1  0  0  0  0
  4 17  2  0  0  0  0
  5 19  1  0  0  0  0
  6 21  1  0  0  0  0
  7 10  2  0  0  0  0
  7 20  1  0  0  0  0
  8 26  1  0  0  0  0
  9 26  2  0  0  0  0
 10 27  1  0  0  0  0
 11 12  2  0  0  0  0
 11 28  1  0  0  0  0
 12 29  1  0  0  0  0
 13 22  1  0  0  0  0
 13 27  2  0  0  0  0
 14 23  1  0  0  0  0
 14 24  2  0  0  0  0
 15 25  1  0  0  0  0
 15 31  2  0  0  0  0
 16 29  2  0  0  0  0
 16 30  1  0  0  0  0
 17 32  1  0  0  0  0
 18 32  1  0  0  0  0
 18 33  2  0  0  0  0
 18 34  1  0  0  0  0
 19 21  2  0  0  0  0
 19 39  1  0  0  0  0
 20 22  2  0  0  0  0
 20 40  1  0  0  0  0
 21 48  1  0  0  0  0
 22 41  1  0  0  0  0
 23 25  2  0  0  0  0
 23 57  1  0  0  0  0
 24 31  1  0  0  0  0
 24 51  1  0  0  0  0
 25 58  1  0  0  0  0
 26 81  1  0  0  0  0
 27 82  1  0  0  0  0
 28 30  2  0  0  0  0
 28 81  1  0  0  0  0
 29 83  1  0  0  0  0
 30 84  1  0  0  0  0
 31 85  1  0  0  0  0
 32 66  2  0  0  0  0
 33 67  1  0  0  0  0
 33 70  1  0  0  0  0
 34 71  1  0  0  0  0
 34 76  2  0  0  0  0
 35 49  1  0  0  0  0
 35 72  1  0  0  0  0
 35 77  2  0  0  0  0
 36 63  1  0  0  0  0
 36 68  1  0  0  0  0
 36 78  2  0  0  0  0
 37 64  1  0  0  0  0
 37 73  1  0  0  0  0
 37 79  2  0  0  0  0
 38 69  1  0  0  0  0
 38 74  1  0  0  0  0
 38 80  2  0  0  0  0
 39 42  1  0  0  0  0
 40 49  1  0  0  0  0
 41 68  1  0  0  0  0
 42 44  1  0  0  0  0
 43 45  1  0  0  0  0
 43 46  1  0  0  0  0
 44 48  1  0  0  0  0
 45 50  1  0  0  0  0
 46 69  1  0  0  0  0
 47 50  1  0  0  0  0
 47 69  1  0  0  0  0
 48 72  1  0  0  0  0
 49 68  1  0  0  0  0
 50 67  1  0  0  0  0
 52 64  1  0  0  0  0
 53 65  1  0  0  0  0
 54 65  1  0  0  0  0
 55 65  1  0  0  0  0
 56 75  1  0  0  0  0
 57 62  1  0  0  0  0
 58 59  1  0  0  0  0
 59 60  1  0  0  0  0
 60 61  1  0  0  0  0
 61 74  1  0  0  0  0
 62 82  1  0  0  0  0
 63 65  1  0  0  0  0
 63 73  1  0  0  0  0
 64 75  1  0  0  0  0
 66 67  1  0  0  0  0
M  CHG  1  75   1
M  ISO  4  38 100  62 101  74 100  82 101
M  END
> <Batch ID>
0031

> <Smiles>
CNC(C)C(=O)NC(C(=O)N1Cc2cc([101O:1][101CH2:1]Cc3cc(C)c(Cl)cc3CCCC[100NH:0][100C:0](=O)N3CCCC(n4nc(-c5ccc(Oc6ccc(F)cc6F)cc5)c(C(N)=O)c4N)C3)ccc2CC1C(=O)NC1CCCc2ccccc21)C(C)(C)C

> <Shape>
0.190

> <Color>
0.200

> <Negative vol penalty>
0.000

$$$$

  -OEChem-04052316423D

 85 93  0     1  0  0  0  0  0999 V2000
  -33.6653  -10.0452   18.5940 C   0  0  0  0  0  0  0  0  0  0  0  0
  -33.6106  -11.4313   18.6984 C   0  0  0  0  0  0  0  0  0  0  0  0
  -23.8002  -32.0172   22.3965 C   0  0  0  0  0  0  0  0  0  0  0  0
  -25.9896  -31.0553   22.0518 C   0  0  0  0  0  0  0  0  0  0  0  0
  -32.5218   -9.3278   18.2452 C   0  0  0  0  0  0  0  0  0  0  0  0
  -32.4124  -12.1011   18.4530 C   0  0  0  0  0  0  0  0  0  0  0  0
  -30.3858  -17.1627   21.2421 C   0  0  0  0  0  0  0  0  0  0  0  0
  -24.3793  -33.2747   22.5659 C   0  0  0  0  0  0  0  0  0  0  0  0
  -26.5687  -32.3130   22.2211 C   0  0  0  0  0  0  0  0  0  0  0  0
  -30.4130  -18.5085   20.8790 C   0  0  0  0  0  0  0  0  0  0  0  0
  -25.9980  -34.9629   25.0061 C   0  0  0  0  0  0  0  0  0  0  0  0
  -25.5459  -35.7460   26.0681 C   0  0  0  0  0  0  0  0  0  0  0  0
  -28.1728  -18.3119   20.0058 C   0  0  0  0  0  0  0  0  0  0  0  0
  -25.5567  -22.8867   22.1884 C   0  0  0  0  0  0  0  0  0  0  0  0
  -27.8934  -22.3419   22.4710 C   0  0  0  0  0  0  0  0  0  0  0  0
  -24.8586  -37.4608   24.5111 C   0  0  0  0  0  0  0  0  0  0  0  0
  -24.6054  -30.9074   22.1395 C   0  0  0  0  0  0  0  0  0  0  0  0
  -23.5647  -29.0309   20.7598 C   0  0  0  0  0  0  0  0  0  0  0  0
  -31.3067   -9.9883   18.0047 C   0  0  0  0  0  0  0  0  0  0  0  0
  -29.2542  -16.3773   20.9794 C   0  0  0  0  0  0  0  0  0  0  0  0
  -31.2519  -11.3920   18.0993 C   0  0  0  0  0  0  0  0  0  0  0  0
  -28.1329  -16.9570   20.3689 C   0  0  0  0  0  0  0  0  0  0  0  0
  -26.5971  -22.4041   22.9823 C   0  0  0  0  0  0  0  0  0  0  0  0
  -25.8126  -23.3071   20.8832 C   0  0  0  0  0  0  0  0  0  0  0  0
  -28.1493  -22.7624   21.1659 C   0  0  0  0  0  0  0  0  0  0  0  0
  -27.1089  -23.2450   20.3720 C   0  0  0  0  0  0  0  0  0  0  0  0
  -25.7636  -33.4227   22.4782 C   0  0  0  0  0  0  0  0  0  0  0  0
  -29.3075  -19.0826   20.2582 C   0  0  0  0  0  0  0  0  0  0  0  0
  -25.8804  -35.4287   23.6965 C   0  0  0  0  0  0  0  0  0  0  0  0
  -24.9762  -36.9949   25.8206 C   0  0  0  0  0  0  0  0  0  0  0  0
  -25.3107  -36.6776   23.4490 C   0  0  0  0  0  0  0  0  0  0  0  0
  -24.0078  -29.6080   21.9650 C   0  0  0  0  0  0  0  0  0  0  0  0
  -23.0819  -27.7984   21.1264 C   0  0  0  0  0  0  0  0  0  0  0  0
  -23.5877  -29.5615   19.4281 C   0  0  0  0  0  0  0  0  0  0  0  0
  -28.6767  -13.7916   19.2233 C   0  0  0  0  0  0  0  0  0  0  0  0
  -25.7551  -13.9719   20.6212 C   0  0  0  0  0  0  0  0  0  0  0  0
  -23.3924  -15.8963   22.1578 C   0  0  0  0  0  0  0  0  0  0  0  0
  -24.2549  -24.1673   25.7405 C   0  0  0  0  0  0  0  0  0  0  0  0
  -30.1087   -9.1741   17.5843 C   0  0  0  0  0  0  0  0  0  0  0  0
  -29.2306  -14.9338   21.4014 C   0  0  0  0  0  0  0  0  0  0  0  0
  -26.8859  -16.1622   20.0832 C   0  0  0  0  0  0  0  0  0  0  0  0
  -28.7868   -9.9278   17.7065 C   0  0  0  0  0  0  0  0  0  0  0  0
  -21.0864  -25.5063   24.8216 C   0  0  0  0  0  0  0  0  0  0  0  0
  -28.9133  -11.3272   17.1130 C   0  0  0  0  0  0  0  0  0  0  0  0
  -21.4358  -26.6573   23.8766 C   0  0  0  0  0  0  0  0  0  0  0  0
  -22.1035  -25.3766   25.9533 C   0  0  0  0  0  0  0  0  0  0  0  0
  -23.8568  -26.4183   24.5697 C   0  0  0  0  0  0  0  0  0  0  0  0
  -29.9646  -12.1524   17.8649 C   0  0  1  0  0  0  0  0  0  0  0  0
  -28.2195  -14.0996   20.6210 C   0  0  1  0  0  0  0  0  0  0  0  0
  -22.8906  -26.5534   23.3804 C   0  0  2  0  0  0  0  0  0  0  0  0
  -23.8003  -22.6966   19.5177 C   0  0  0  0  0  0  0  0  0  0  0  0
  -28.0381  -25.0726   18.9287 C   0  0  0  0  0  0  0  0  0  0  0  0
  -21.0921  -15.7708   23.1531 C   0  0  0  0  0  0  0  0  0  0  0  0
  -24.5489  -13.9075   17.8192 C   0  0  0  0  0  0  0  0  0  0  0  0
  -22.3976  -14.7288   18.8020 C   0  0  0  0  0  0  0  0  0  0  0  0
  -23.3306  -12.5267   19.5115 C   0  0  0  0  0  0  0  0  0  0  0  0
  -24.3765  -16.7131   24.8267 C   0  0  0  0  0  0  0  0  0  0  0  0
  -26.3234  -21.9539   24.3774 C   0  0  0  0  0  0  0  0  0  0  0  0
  -24.6811  -23.8208   20.0541 C   0  0  0  0  0  0  0  0  0  0  0  0
  -29.5608  -22.6850   20.6367 C   0  0  0  0  0  0  0  0  0  0  0  0
  -27.3831  -23.6962   18.9727 C   0  0  0  0  0  0  0  0  0  0  0  0
  -26.4577  -23.0699   25.4205 C   0  0  0  0  0  0  0  0  0  0  0  0
  -30.1273  -21.2707   20.7007 C   0  0  0  0  0  0  0  0  0  1  0  0
  -24.4511  -14.6558   20.2883 C   0  0  1  0  0  0  0  0  0  0  0  0
  -22.5856  -15.6799   23.4253 C   0  0  2  0  0  0  0  0  0  0  0  0
  -23.7061  -13.9695   19.1087 C   0  0  0  0  0  0  0  0  0  0  0  0
  -23.8227  -28.8079   23.0184 N   0  0  0  0  0  0  0  0  0  0  0  0
  -23.2579  -27.7156   22.4763 N   0  0  0  0  0  0  0  0  0  0  0  0
  -26.9139  -14.7532   20.5090 N   0  0  0  0  0  0  0  0  0  0  0  0
  -23.4627  -25.2807   25.4154 N   0  0  0  0  0  0  0  0  0  0  0  0
  -22.5282  -26.7884   20.4224 N   0  0  0  0  0  0  0  0  0  0  0  0
  -24.1185  -30.8432   19.2285 N   0  0  0  0  0  0  0  0  0  0  0  0
  -29.4262  -12.6354   19.1184 N   0  0  0  0  0  0  0  0  0  0  0  0
  -23.6870  -14.7044   21.5302 N   0  0  0  0  0  0  0  0  0  0  0  0
  -25.5279  -24.1517   25.1838 N   0  0  0  0  0  0  0  0  0  0  0  0
  -22.9404  -16.7056   24.4466 N   0  3  0  0  0  0  0  0  0  0  0  0
  -23.1354  -28.9247   18.4465 O   0  0  0  0  0  0  0  0  0  0  0  0
  -28.3708  -14.5462   18.3075 O   0  0  0  0  0  0  0  0  0  0  0  0
  -25.7452  -12.7902   20.9748 O   0  0  0  0  0  0  0  0  0  0  0  0
  -23.7246  -17.0114   21.7618 O   0  0  0  0  0  0  0  0  0  0  0  0
  -23.8552  -23.2521   26.4682 O   0  0  0  0  0  0  0  0  0  0  0  0
  -26.3290  -34.6497   22.6431 O   0  0  0  0  0  0  0  0  0  0  0  0
  -29.3316  -20.3958   19.9022 O   0  0  0  0  0  0  0  0  0  1  0  0
  -24.5407  -37.7462   26.8405 F   0  0  0  0  0  0  0  0  0  0  0  0
  -25.1939  -37.1300   22.1930 F   0  0  0  0  0  0  0  0  0  0  0  0
  1  2  1  0  0  0  0
  1  5  2  0  0  0  0
  2  6  2  0  0  0  0
  3  8  2  0  0  0  0
  3 17  1  0  0  0  0
  4  9  1  0  0  0  0
  4 17  2  0  0  0  0
  5 19  1  0  0  0  0
  6 21  1  0  0  0  0
  7 10  2  0  0  0  0
  7 20  1  0  0  0  0
  8 27  1  0  0  0  0
  9 27  2  0  0  0  0
 10 28  1  0  0  0  0
 11 12  2  0  0  0  0
 11 29  1  0  0  0  0
 12 30  1  0  0  0  0
 13 22  1  0  0  0  0
 13 28  2  0  0  0  0
 14 23  2  0  0  0  0
 14 24  1  0  0  0  0
 15 23  1  0  0  0  0
 15 25  2  0  0  0  0
 16 30  2  0  0  0  0
 16 31  1  0  0  0  0
 17 32  1  0  0  0  0
 18 32  1  0  0  0  0
 18 33  2  0  0  0  0
 18 34  1  0  0  0  0
 19 21  2  0  0  0  0
 19 39  1  0  0  0  0
 20 22  2  0  0  0  0
 20 40  1  0  0  0  0
 21 48  1  0  0  0  0
 22 41  1  0  0  0  0
 23 58  1  0  0  0  0
 24 26  2  0  0  0  0
 24 59  1  0  0  0  0
 25 26  1  0  0  0  0
 25 60  1  0  0  0  0
 26 61  1  0  0  0  0
 27 82  1  0  0  0  0
 28 83  1  0  0  0  0
 29 31  2  0  0  0  0
 29 82  1  0  0  0  0
 30 84  1  0  0  0  0
 31 85  1  0  0  0  0
 32 67  2  0  0  0  0
 33 68  1  0  0  0  0
 33 71  1  0  0  0  0
 34 72  1  0  0  0  0
 34 77  2  0  0  0  0
 35 49  1  0  0  0  0
 35 73  1  0  0  0  0
 35 78  2  0  0  0  0
 36 64  1  0  0  0  0
 36 69  1  0  0  0  0
 36 79  2  0  0  0  0
 37 65  1  0  0  0  0
 37 74  1  0  0  0  0
 37 80  2  0  0  0  0
 38 70  1  0  0  0  0
 38 75  1  0  0  0  0
 38 81  2  0  0  0  0
 39 42  1  0  0  0  0
 40 49  1  0  0  0  0
 41 69  1  0  0  0  0
 42 44  1  0  0  0  0
 43 45  1  0  0  0  0
 43 46  1  0  0  0  0
 44 48  1  0  0  0  0
 45 50  1  0  0  0  0
 46 70  1  0  0  0  0
 47 50  1  0  0  0  0
 47 70  1  0  0  0  0
 48 73  1  0  0  0  0
 49 69  1  0  0  0  0
 50 68  1  0  0  0  0
 51 59  1  0  0  0  0
 52 61  1  0  0  0  0
 53 65  1  0  0  0  0
 54 66  1  0  0  0  0
 55 66  1  0  0  0  0
 56 66  1  0  0  0  0
 57 76  1  0  0  0  0
 58 62  1  0  0  0  0
 60 63  1  0  0  0  0
 62 75  1  0  0  0  0
 63 83  1  0  0  0  0
 64 66  1  0  0  0  0
 64 74  1  0  0  0  0
 65 76  1  0  0  0  0
 67 68  1  0  0  0  0
M  CHG  1  76   1
M  ISO  4  38 100  63 101  75 100  83 101
M  END
> <Batch ID>
0031

> <Smiles>
CCc1cc(CC[100NH:0][100C:0](=O)N2CCCC(n3nc(-c4ccc(Oc5ccc(F)cc5F)cc4)c(C(N)=O)c3N)C2)cc(C[101CH2:1][101O:1]c2ccc3c(c2)CN(C(=O)C(NC(=O)C(C)NC)C(C)(C)C)C(C(=O)NC2CCCc4ccccc42)C3)c1CC

> <Shape>
0.234

> <Color>
0.055

> <Negative vol penalty>
0.000

$$$$

  -OEChem-04052316423D

 84 92  0     1  0  0  0  0  0999 V2000
  -30.0207  -13.0570   20.0032 C   0  0  0  0  0  0  0  0  0  0  0  0
  -29.5991  -14.2389   19.4026 C   0  0  0  0  0  0  0  0  0  0  0  0
  -29.1743  -22.6395   20.7558 C   0  0  0  0  0  0  0  0  0  0  0  0
  -28.6965  -22.5277   18.3902 C   0  0  0  0  0  0  0  0  0  0  0  0
  -29.0805  -12.1282   20.4473 C   0  0  0  0  0  0  0  0  0  0  0  0
  -28.2370  -14.4922   19.2448 C   0  0  0  0  0  0  0  0  0  0  0  0
  -25.4434  -19.9330   19.5607 C   0  0  0  0  0  0  0  0  0  0  0  0
  -29.1218  -21.2477   20.8322 C   0  0  0  0  0  0  0  0  0  0  0  0
  -28.6441  -21.1359   18.4665 C   0  0  0  0  0  0  0  0  0  0  0  0
  -25.0203  -20.8285   18.5795 C   0  0  0  0  0  0  0  0  0  0  0  0
  -31.1358  -18.6347   20.0912 C   0  0  0  0  0  0  0  0  0  0  0  0
  -32.1408  -17.9865   20.8092 C   0  0  0  0  0  0  0  0  0  0  0  0
  -22.8018  -19.8871   18.6854 C   0  0  0  0  0  0  0  0  0  0  0  0
  -21.2000  -24.3571   13.6579 C   0  0  0  0  0  0  0  0  0  0  0  0
  -30.4789  -17.0575   22.2966 C   0  0  0  0  0  0  0  0  0  0  0  0
  -28.9616  -23.2795   19.5348 C   0  0  0  0  0  0  0  0  0  0  0  0
  -30.1458  -25.5124   19.1892 C   0  0  0  0  0  0  0  0  0  0  0  0
  -27.7060  -12.3746   20.3036 C   0  0  0  0  0  0  0  0  0  0  0  0
  -24.5501  -18.9989   20.1047 C   0  0  0  0  0  0  0  0  0  0  0  0
  -27.2776  -13.5652   19.6862 C   0  0  0  0  0  0  0  0  0  0  0  0
  -23.2154  -18.9825   19.6752 C   0  0  0  0  0  0  0  0  0  0  0  0
  -21.3166  -24.8418   14.9559 C   0  0  0  0  0  0  0  0  0  0  0  0
  -28.8567  -20.4959   19.6875 C   0  0  0  0  0  0  0  0  0  0  0  0
  -23.7001  -20.8038   18.1396 C   0  0  0  0  0  0  0  0  0  0  0  0
  -29.8024  -18.4943   20.4759 C   0  0  0  0  0  0  0  0  0  0  0  0
  -31.8123  -17.1979   21.9119 C   0  0  0  0  0  0  0  0  0  0  0  0
  -29.4739  -17.7057   21.5786 C   0  0  0  0  0  0  0  0  0  0  0  0
  -21.5535  -23.9585   16.0032 C   0  0  0  0  0  0  0  0  0  0  0  0
  -29.0151  -24.7172   19.4554 C   0  0  0  0  0  0  0  0  0  0  0  0
  -21.6650  -22.6106   15.7022 C   0  0  0  0  0  0  0  0  0  0  0  0
  -21.3275  -22.9914   13.4618 C   0  0  0  0  0  0  0  0  0  0  0  0
  -29.6743  -26.8019   19.2227 C   0  0  0  0  0  0  0  0  0  0  0  0
  -31.5012  -25.1204   18.9344 C   0  0  0  0  0  0  0  0  0  0  0  0
  -24.3973  -15.8250   20.1865 C   0  0  0  0  0  0  0  0  0  0  0  0
  -21.8686  -16.3859   22.1393 C   0  0  0  0  0  0  0  0  0  0  0  0
  -19.4012  -18.5187   23.1443 C   0  0  0  0  0  0  0  0  0  0  0  0
  -24.2582  -29.1878   18.3144 C   0  0  0  0  0  0  0  0  0  0  0  0
  -26.7281  -11.3194   20.7565 C   0  0  0  0  0  0  0  0  0  0  0  0
  -25.0153  -18.0575   21.1815 C   0  0  0  0  0  0  0  0  0  0  0  0
  -22.2118  -18.0129   20.2419 C   0  0  0  0  0  0  0  0  0  0  0  0
  -25.2967  -11.8329   20.8903 C   0  0  0  0  0  0  0  0  0  0  0  0
  -26.2692  -29.4927   21.2367 C   0  0  0  0  0  0  0  0  0  0  0  0
  -24.9077  -12.6548   19.6657 C   0  0  0  0  0  0  0  0  0  0  0  0
  -27.3030  -28.3751   21.0876 C   0  0  0  0  0  0  0  0  0  0  0  0
  -24.9016  -29.0712   20.7038 C   0  0  0  0  0  0  0  0  0  0  0  0
  -25.9400  -27.4454   19.1700 C   0  0  0  0  0  0  0  0  0  0  0  0
  -25.8083  -13.8872   19.5195 C   0  0  1  0  0  0  0  0  0  0  0  0
  -24.1495  -16.8067   21.2967 C   0  0  1  0  0  0  0  0  0  0  0  0
  -27.3489  -27.8430   19.6426 C   0  0  2  0  0  0  0  0  0  0  0  0
  -17.4654  -18.6827   24.7326 C   0  0  0  0  0  0  0  0  0  0  0  0
  -20.2141  -14.5959   20.3040 C   0  0  0  0  0  0  0  0  0  0  0  0
  -18.1495  -15.5439   21.3561 C   0  0  0  0  0  0  0  0  0  0  0  0
  -19.7827  -14.2694   22.7456 C   0  0  0  0  0  0  0  0  0  0  0  0
  -20.6096  -20.8183   24.5621 C   0  0  0  0  0  0  0  0  0  0  0  0
  -21.1818  -26.3131   15.1796 C   0  0  0  0  0  0  0  0  0  0  0  0
  -21.9184  -21.5955   16.7777 C   0  0  0  0  0  0  0  0  0  1  0  0
  -22.5419  -26.9926   15.3954 C   0  0  0  0  0  0  0  0  0  0  0  0
  -22.3874  -28.4932   15.6598 C   0  0  0  0  0  0  0  0  0  0  0  0
  -23.7250  -29.1888   15.8906 C   0  0  0  0  0  0  0  0  0  0  0  0
  -20.3862  -16.5878   21.9377 C   0  0  1  0  0  0  0  0  0  0  0  0
  -18.9473  -18.9544   24.5258 C   0  0  2  0  0  0  0  0  0  0  0  0
  -19.6523  -15.2664   21.5736 C   0  0  0  0  0  0  0  0  0  0  0  0
  -27.9085  -25.4410   19.6442 N   0  0  0  0  0  0  0  0  0  0  0  0
  -21.5577  -22.1025   14.4541 N   0  0  0  0  0  0  0  0  0  0  0  0
  -28.3417  -26.7046   19.4966 N   0  0  0  0  0  0  0  0  0  0  0  0
  -22.7166  -17.1084   21.2880 N   0  0  0  0  0  0  0  0  0  0  0  0
  -25.0145  -28.5781   19.3290 N   0  0  0  0  0  0  0  0  0  0  0  0
  -30.2737  -27.9983   19.0444 N   0  0  0  0  0  0  0  0  0  0  0  0
  -31.8133  -23.7540   18.9367 N   0  0  0  0  0  0  0  0  0  0  0  0
  -25.4072  -14.9197   20.4510 N   0  0  0  0  0  0  0  0  0  0  0  0
  -19.8930  -17.2305   23.1509 N   0  0  0  0  0  0  0  0  0  0  0  0
  -24.4293  -28.6636   17.0390 N   0  0  0  0  0  0  0  0  0  0  0  0
  -19.1885  -20.4129   24.7142 N   0  3  0  0  0  0  0  0  0  0  0  0
  -32.4120  -25.9578   18.7276 O   0  0  0  0  0  0  0  0  0  0  0  0
  -23.7213  -15.8836   19.1661 O   0  0  0  0  0  0  0  0  0  0  0  0
  -22.2599  -15.6210   23.0245 O   0  0  0  0  0  0  0  0  0  0  0  0
  -19.3235  -19.2467   22.1571 O   0  0  0  0  0  0  0  0  0  0  0  0
  -23.4917  -30.1332   18.5284 O   0  0  0  0  0  0  0  0  0  0  0  0
  -28.8057  -19.1378   19.7616 O   0  0  0  0  0  0  0  0  0  0  0  0
  -23.2847  -21.6764   17.1815 O   0  0  0  0  0  0  0  0  0  1  0  0
  -32.7774  -16.5743   22.6004 F   0  0  0  0  0  0  0  0  0  0  0  0
  -28.1946  -17.5661   21.9522 F   0  0  0  0  0  0  0  0  0  0  0  0
  -21.7035  -24.5280   17.6253 Cl  0  0  0  0  0  0  0  0  0  0  0  0
  -21.1987  -22.3039   11.8950 Cl  0  0  0  0  0  0  0  0  0  0  0  0
  1  2  1  0  0  0  0
  1  5  2  0  0  0  0
  2  6  2  0  0  0  0
  3  8  2  0  0  0  0
  3 16  1  0  0  0  0
  4  9  1  0  0  0  0
  4 16  2  0  0  0  0
  5 18  1  0  0  0  0
  6 20  1  0  0  0  0
  7 10  2  0  0  0  0
  7 19  1  0  0  0  0
  8 23  1  0  0  0  0
  9 23  2  0  0  0  0
 10 24  1  0  0  0  0
 11 12  2  0  0  0  0
 11 25  1  0  0  0  0
 12 26  1  0  0  0  0
 13 21  1  0  0  0  0
 13 24  2  0  0  0  0
 14 22  2  0  0  0  0
 14 31  1  0  0  0  0
 15 26  2  0  0  0  0
 15 27  1  0  0  0  0
 16 29  1  0  0  0  0
 17 29  1  0  0  0  0
 17 32  2  0  0  0  0
 17 33  1  0  0  0  0
 18 20  2  0  0  0  0
 18 38  1  0  0  0  0
 19 21  2  0  0  0  0
 19 39  1  0  0  0  0
 20 47  1  0  0  0  0
 21 40  1  0  0  0  0
 22 28  1  0  0  0  0
 22 55  1  0  0  0  0
 23 79  1  0  0  0  0
 24 80  1  0  0  0  0
 25 27  2  0  0  0  0
 25 79  1  0  0  0  0
 26 81  1  0  0  0  0
 27 82  1  0  0  0  0
 28 30  2  0  0  0  0
 28 83  1  0  0  0  0
 29 63  2  0  0  0  0
 30 56  1  0  0  0  0
 30 64  1  0  0  0  0
 31 64  2  0  0  0  0
 31 84  1  0  0  0  0
 32 65  1  0  0  0  0
 32 68  1  0  0  0  0
 33 69  1  0  0  0  0
 33 74  2  0  0  0  0
 34 48  1  0  0  0  0
 34 70  1  0  0  0  0
 34 75  2  0  0  0  0
 35 60  1  0  0  0  0
 35 66  1  0  0  0  0
 35 76  2  0  0  0  0
 36 61  1  0  0  0  0
 36 71  1  0  0  0  0
 36 77  2  0  0  0  0
 37 67  1  0  0  0  0
 37 72  1  0  0  0  0
 37 78  2  0  0  0  0
 38 41  1  0  0  0  0
 39 48  1  0  0  0  0
 40 66  1  0  0  0  0
 41 43  1  0  0  0  0
 42 44  1  0  0  0  0
 42 45  1  0  0  0  0
 43 47  1  0  0  0  0
 44 49  1  0  0  0  0
 45 67  1  0  0  0  0
 46 49  1  0  0  0  0
 46 67  1  0  0  0  0
 47 70  1  0  0  0  0
 48 66  1  0  0  0  0
 49 65  1  0  0  0  0
 50 61  1  0  0  0  0
 51 62  1  0  0  0  0
 52 62  1  0  0  0  0
 53 62  1  0  0  0  0
 54 73  1  0  0  0  0
 55 57  1  0  0  0  0
 56 80  1  0  0  0  0
 57 58  1  0  0  0  0
 58 59  1  0  0  0  0
 59 72  1  0  0  0  0
 60 62  1  0  0  0  0
 60 71  1  0  0  0  0
 61 73  1  0  0  0  0
 63 65  1  0  0  0  0
M  CHG  1  73   1
M  ISO  4  37 100  56 101  72 100  80 101
M  END
> <Batch ID>
0031

> <Smiles>
CNC(C)C(=O)NC(C(=O)N1Cc2cc([101O:1][101CH2:1]c3nc(Cl)cc(CCCC[100NH:0][100C:0](=O)N4CCCC(n5nc(-c6ccc(Oc7ccc(F)cc7F)cc6)c(C(N)=O)c5N)C4)c3Cl)ccc2CC1C(=O)NC1CCCc2ccccc21)C(C)(C)C

> <Shape>
0.204

> <Color>
0.059

> <Negative vol penalty>
0.000

$$$$

  -OEChem-04052316423D

 85 93  0     1  0  0  0  0  0999 V2000
  -28.2797  -24.6495   17.1277 C   0  0  0  0  0  0  0  0  0  0  0  0
  -27.0827  -24.8544   17.8063 C   0  0  0  0  0  0  0  0  0  0  0  0
  -27.2921  -16.9983   19.2877 C   0  0  0  0  0  0  0  0  0  0  0  0
  -25.6018  -16.6756   20.9834 C   0  0  0  0  0  0  0  0  0  0  0  0
  -29.4628  -25.1965   17.6227 C   0  0  0  0  0  0  0  0  0  0  0  0
  -27.0682  -25.6056   18.9810 C   0  0  0  0  0  0  0  0  0  0  0  0
  -23.2409  -28.9188   19.1213 C   0  0  0  0  0  0  0  0  0  0  0  0
  -27.3443  -15.6203   19.0774 C   0  0  0  0  0  0  0  0  0  0  0  0
  -25.6539  -15.2977   20.7732 C   0  0  0  0  0  0  0  0  0  0  0  0
  -21.9774  -28.4192   19.4338 C   0  0  0  0  0  0  0  0  0  0  0  0
  -28.7240  -12.9230   20.5758 C   0  0  0  0  0  0  0  0  0  0  0  0
  -29.9828  -12.3308   20.4743 C   0  0  0  0  0  0  0  0  0  0  0  0
  -22.2406  -29.1903   21.7043 C   0  0  0  0  0  0  0  0  0  0  0  0
  -20.1145  -25.7241   24.7938 C   0  0  0  0  0  0  0  0  0  0  0  0
  -20.5579  -24.5252   22.3141 C   0  0  0  0  0  0  0  0  0  0  0  0
  -29.4431  -11.5655   18.2472 C   0  0  0  0  0  0  0  0  0  0  0  0
  -26.4209  -17.5259   20.2407 C   0  0  0  0  0  0  0  0  0  0  0  0
  -25.5347  -19.8782   19.8061 C   0  0  0  0  0  0  0  0  0  0  0  0
  -29.4613  -25.9629   18.7988 C   0  0  0  0  0  0  0  0  0  0  0  0
  -24.0196  -29.5493   20.1024 C   0  0  0  0  0  0  0  0  0  0  0  0
  -28.2526  -26.1623   19.4929 C   0  0  0  0  0  0  0  0  0  0  0  0
  -23.5127  -29.6993   21.4011 C   0  0  0  0  0  0  0  0  0  0  0  0
  -19.4278  -26.1770   23.6674 C   0  0  0  0  0  0  0  0  0  0  0  0
  -21.0230  -24.6717   24.6804 C   0  0  0  0  0  0  0  0  0  0  0  0
  -19.6494  -25.5776   22.4276 C   0  0  0  0  0  0  0  0  0  0  0  0
  -26.5251  -14.7700   19.8202 C   0  0  0  0  0  0  0  0  0  0  0  0
  -21.4782  -28.5523   20.7261 C   0  0  0  0  0  0  0  0  0  0  0  0
  -27.8247  -12.8363   19.5131 C   0  0  0  0  0  0  0  0  0  0  0  0
  -30.3424  -11.6521   19.3100 C   0  0  0  0  0  0  0  0  0  0  0  0
  -28.1842  -12.1576   18.3487 C   0  0  0  0  0  0  0  0  0  0  0  0
  -21.2447  -24.0722   23.4406 C   0  0  0  0  0  0  0  0  0  0  0  0
  -26.3670  -18.9492   20.4587 C   0  0  0  0  0  0  0  0  0  0  0  0
  -25.8648  -21.0879   20.3666 C   0  0  0  0  0  0  0  0  0  0  0  0
  -24.5511  -19.6667   18.7847 C   0  0  0  0  0  0  0  0  0  0  0  0
  -26.8429  -28.9673   21.4417 C   0  0  0  0  0  0  0  0  0  0  0  0
  -27.4315  -23.2827   25.5120 C   0  0  0  0  0  0  0  0  0  0  0  0
  -26.3281  -31.8416   22.8545 C   0  0  0  0  0  0  0  0  0  0  0  0
  -24.0913  -34.2041   23.8850 C   0  0  0  0  0  0  0  0  0  0  0  0
  -30.7727  -26.4943   19.3207 C   0  0  0  0  0  0  0  0  0  0  0  0
  -25.3695  -30.1066   19.7425 C   0  0  0  0  0  0  0  0  0  0  0  0
  -24.3005  -30.3862   22.4855 C   0  0  0  0  0  0  0  0  0  0  0  0
  -30.6112  -27.5919   20.3693 C   0  0  0  0  0  0  0  0  0  0  0  0
  -29.7638  -22.8510   22.8261 C   0  0  0  0  0  0  0  0  0  0  0  0
  -29.5673  -27.1900   21.4063 C   0  0  0  0  0  0  0  0  0  0  0  0
  -29.0592  -21.8666   21.8936 C   0  0  0  0  0  0  0  0  0  0  0  0
  -29.4535  -22.5534   24.2897 C   0  0  0  0  0  0  0  0  0  0  0  0
  -27.2867  -21.5300   23.6740 C   0  0  0  0  0  0  0  0  0  0  0  0
  -28.1923  -26.9921   20.7570 C   0  0  1  0  0  0  0  0  0  0  0  0
  -26.2879  -30.2739   20.9492 C   0  0  1  0  0  0  0  0  0  0  0  0
  -27.5489  -21.8141   22.1844 C   0  0  2  0  0  0  0  0  0  0  0  0
  -18.4614  -27.3066   23.8114 C   0  0  0  0  0  0  0  0  0  0  0  0
  -23.9673  -36.4276   25.0417 C   0  0  0  0  0  0  0  0  0  0  0  0
  -26.8224  -30.4715   25.5356 C   0  0  0  0  0  0  0  0  0  0  0  0
  -25.7730  -32.4472   26.6597 C   0  0  0  0  0  0  0  0  0  0  0  0
  -27.8548  -32.7388   25.3167 C   0  0  0  0  0  0  0  0  0  0  0  0
  -22.8707  -35.4973   21.5192 C   0  0  0  0  0  0  0  0  0  0  0  0
  -18.9200  -26.0526   21.1945 C   0  0  0  0  0  0  0  0  0  0  0  0
  -21.7385  -24.2160   25.9110 C   0  0  0  0  0  0  0  0  0  0  0  0
  -25.9385  -23.1651   25.6879 C   0  0  0  0  0  0  0  0  0  0  0  0
  -25.4457  -24.0841   26.8008 C   0  0  0  0  0  0  0  0  0  0  0  0
  -23.9482  -23.9432   27.0431 C   0  0  0  0  0  0  0  0  0  0  0  0
  -19.7965  -26.9250   20.3024 C   0  0  0  0  0  0  0  0  0  1  0  0
  -25.6654  -32.3023   24.1302 C   0  0  1  0  0  0  0  0  0  0  0  0
  -24.0627  -35.7111   23.7038 C   0  0  2  0  0  0  0  0  0  0  0  0
  -26.5146  -31.9753   25.3908 C   0  0  0  0  0  0  0  0  0  0  0  0
  -27.1659  -19.5197   21.3644 N   0  0  0  0  0  0  0  0  0  0  0  0
  -26.8372  -20.8204   21.2848 N   0  0  0  0  0  0  0  0  0  0  0  0
  -25.6177  -30.9087   22.0859 N   0  0  0  0  0  0  0  0  0  0  0  0
  -28.0093  -22.4896   24.5204 N   0  0  0  0  0  0  0  0  0  0  0  0
  -25.4154  -22.3438   20.1585 N   0  0  0  0  0  0  0  0  0  0  0  0
  -24.3379  -18.3608   18.3226 N   0  0  0  0  0  0  0  0  0  0  0  0
  -27.5688  -28.2714   20.4939 N   0  0  0  0  0  0  0  0  0  0  0  0
  -25.3815  -33.7223   23.9528 N   0  0  0  0  0  0  0  0  0  0  0  0
  -22.8923  -36.1106   22.8721 N   0  3  0  0  0  0  0  0  0  0  0  0
  -23.2178  -24.3372   25.8096 N   0  3  0  0  0  0  0  0  0  0  0  0
  -23.8926  -20.6100   18.2845 O   0  0  0  0  0  0  0  0  0  0  0  0
  -26.6298  -28.6173   22.5965 O   0  0  0  0  0  0  0  0  0  0  0  0
  -28.0634  -24.0591   26.2333 O   0  0  0  0  0  0  0  0  0  0  0  0
  -27.4322  -32.2981   22.5475 O   0  0  0  0  0  0  0  0  0  0  0  0
  -23.0712  -33.5230   23.9625 O   0  0  0  0  0  0  0  0  0  0  0  0
  -26.5756  -13.4254   19.6151 O   0  0  0  0  0  0  0  0  0  0  0  0
  -20.2455  -28.0650   21.0340 O   0  0  0  0  0  0  0  0  0  1  0  0
  -31.5518  -11.0848   19.2120 F   0  0  0  0  0  0  0  0  0  0  0  0
  -27.3250  -12.0720   17.3240 F   0  0  0  0  0  0  0  0  0  0  0  0
  -22.3612  -22.7681   23.2617 Cl  0  0  0  0  0  0  0  0  0  0  0  0
  1  2  1  0  0  0  0
  1  5  2  0  0  0  0
  2  6  2  0  0  0  0
  3  8  2  0  0  0  0
  3 17  1  0  0  0  0
  4  9  1  0  0  0  0
  4 17  2  0  0  0  0
  5 19  1  0  0  0  0
  6 21  1  0  0  0  0
  7 10  2  0  0  0  0
  7 20  1  0  0  0  0
  8 26  1  0  0  0  0
  9 26  2  0  0  0  0
 10 27  1  0  0  0  0
 11 12  2  0  0  0  0
 11 28  1  0  0  0  0
 12 29  1  0  0  0  0
 13 22  1  0  0  0  0
 13 27  2  0  0  0  0
 14 23  1  0  0  0  0
 14 24  2  0  0  0  0
 15 25  1  0  0  0  0
 15 31  2  0  0  0  0
 16 29  2  0  0  0  0
 16 30  1  0  0  0  0
 17 32  1  0  0  0  0
 18 32  1  0  0  0  0
 18 33  2  0  0  0  0
 18 34  1  0  0  0  0
 19 21  2  0  0  0  0
 19 39  1  0  0  0  0
 20 22  2  0  0  0  0
 20 40  1  0  0  0  0
 21 48  1  0  0  0  0
 22 41  1  0  0  0  0
 23 25  2  0  0  0  0
 23 51  1  0  0  0  0
 24 31  1  0  0  0  0
 24 58  1  0  0  0  0
 25 57  1  0  0  0  0
 26 81  1  0  0  0  0
 27 82  1  0  0  0  0
 28 30  2  0  0  0  0
 28 81  1  0  0  0  0
 29 83  1  0  0  0  0
 30 84  1  0  0  0  0
 31 85  1  0  0  0  0
 32 66  2  0  0  0  0
 33 67  1  0  0  0  0
 33 70  1  0  0  0  0
 34 71  1  0  0  0  0
 34 76  2  0  0  0  0
 35 49  1  0  0  0  0
 35 72  1  0  0  0  0
 35 77  2  0  0  0  0
 36 59  1  0  0  0  0
 36 69  1  0  0  0  0
 36 78  2  0  0  0  0
 37 63  1  0  0  0  0
 37 68  1  0  0  0  0
 37 79  2  0  0  0  0
 38 64  1  0  0  0  0
 38 73  1  0  0  0  0
 38 80  2  0  0  0  0
 39 42  1  0  0  0  0
 40 49  1  0  0  0  0
 41 68  1  0  0  0  0
 42 44  1  0  0  0  0
 43 45  1  0  0  0  0
 43 46  1  0  0  0  0
 44 48  1  0  0  0  0
 45 50  1  0  0  0  0
 46 69  1  0  0  0  0
 47 50  1  0  0  0  0
 47 69  1  0  0  0  0
 48 72  1  0  0  0  0
 49 68  1  0  0  0  0
 50 67  1  0  0  0  0
 52 64  1  0  0  0  0
 53 65  1  0  0  0  0
 54 65  1  0  0  0  0
 55 65  1  0  0  0  0
 56 74  1  0  0  0  0
 57 62  1  0  0  0  0
 58 75  1  0  0  0  0
 59 60  1  0  0  0  0
 60 61  1  0  0  0  0
 61 75  1  0  0  0  0
 62 82  1  0  0  0  0
 63 65  1  0  0  0  0
 63 73  1  0  0  0  0
 64 74  1  0  0  0  0
 66 67  1  0  0  0  0
M  CHG  2  74   1  75   1
M  ISO  4  36 100  59 100  62 101  82 101
M  END
> <Batch ID>
0031

> <Smiles>
CNC(C)C(=O)NC(C(=O)N1Cc2cc([101O:1][101CH2:1]Cc3cc(Cl)c(CNCC[100CH2:0][100C:0](=O)N4CCCC(n5nc(-c6ccc(Oc7ccc(F)cc7F)cc6)c(C(N)=O)c5N)C4)cc3C)ccc2CC1C(=O)NC1CCCc2ccccc21)C(C)(C)C

> <Shape>
0.297

> <Color>
0.066

> <Negative vol penalty>
0.000

$$$$

  -OEChem-04052316423D

 85 93  0     1  0  0  0  0  0999 V2000
  -18.9556  -29.0716   25.8151 C   0  0  0  0  0  0  0  0  0  0  0  0
  -20.2801  -28.6874   25.9977 C   0  0  0  0  0  0  0  0  0  0  0  0
  -23.6730  -10.0550   22.2346 C   0  0  0  0  0  0  0  0  0  0  0  0
  -22.5187  -10.2376   20.1200 C   0  0  0  0  0  0  0  0  0  0  0  0
  -18.3137  -28.8046   24.6065 C   0  0  0  0  0  0  0  0  0  0  0  0
  -20.9633  -28.0349   24.9720 C   0  0  0  0  0  0  0  0  0  0  0  0
  -27.5193  -27.3930   22.1572 C   0  0  0  0  0  0  0  0  0  0  0  0
  -23.3080   -8.7113   22.3178 C   0  0  0  0  0  0  0  0  0  0  0  0
  -22.1537   -8.8939   20.2032 C   0  0  0  0  0  0  0  0  0  0  0  0
  -28.4436  -26.4153   21.7919 C   0  0  0  0  0  0  0  0  0  0  0  0
  -20.5635   -6.9232   23.1513 C   0  0  0  0  0  0  0  0  0  0  0  0
  -20.0780   -6.4588   24.3736 C   0  0  0  0  0  0  0  0  0  0  0  0
  -27.2578  -26.0773   19.7185 C   0  0  0  0  0  0  0  0  0  0  0  0
  -27.4073  -21.0990   18.6088 C   0  0  0  0  0  0  0  0  0  0  0  0
  -21.8875   -4.8618   24.4858 C   0  0  0  0  0  0  0  0  0  0  0  0
  -23.2782  -10.8182   21.1357 C   0  0  0  0  0  0  0  0  0  0  0  0
  -24.8176  -12.7369   20.4601 C   0  0  0  0  0  0  0  0  0  0  0  0
  -18.9924  -28.1572   23.5621 C   0  0  0  0  0  0  0  0  0  0  0  0
  -26.4492  -27.7131   21.3092 C   0  0  0  0  0  0  0  0  0  0  0  0
  -20.3295  -27.7578   23.7488 C   0  0  0  0  0  0  0  0  0  0  0  0
  -26.3227  -27.0613   20.0742 C   0  0  0  0  0  0  0  0  0  0  0  0
  -28.5663  -21.7632   19.0099 C   0  0  0  0  0  0  0  0  0  0  0  0
  -26.5313  -20.5854   19.5651 C   0  0  0  0  0  0  0  0  0  0  0  0
  -26.8144  -20.7360   20.9226 C   0  0  0  0  0  0  0  0  0  0  0  0
  -27.9735  -21.4002   21.3238 C   0  0  0  0  0  0  0  0  0  0  0  0
  -28.8495  -21.9138   20.3674 C   0  0  0  0  0  0  0  0  0  0  0  0
  -22.5484   -8.1307   21.3021 C   0  0  0  0  0  0  0  0  0  0  0  0
  -28.3113  -25.7552   20.5737 C   0  0  0  0  0  0  0  0  0  0  0  0
  -21.7111   -6.3569   22.5961 C   0  0  0  0  0  0  0  0  0  0  0  0
  -20.7399   -5.4281   25.0409 C   0  0  0  0  0  0  0  0  0  0  0  0
  -22.3730   -5.3262   23.2634 C   0  0  0  0  0  0  0  0  0  0  0  0
  -23.6544  -12.2064   21.0495 C   0  0  0  0  0  0  0  0  0  0  0  0
  -24.7044  -14.0941   20.6381 C   0  0  0  0  0  0  0  0  0  0  0  0
  -25.9034  -12.0631   19.8098 C   0  0  0  0  0  0  0  0  0  0  0  0
  -23.2826  -27.5575   21.5370 C   0  0  0  0  0  0  0  0  0  0  0  0
  -23.3916  -29.0814   18.6755 C   0  0  0  0  0  0  0  0  0  0  0  0
  -25.1452  -29.7879   15.8343 C   0  0  0  0  0  0  0  0  0  0  0  0
  -21.6807  -18.7831   20.5154 C   0  0  0  0  0  0  0  0  0  0  0  0
  -18.2422  -27.8479   22.2907 C   0  0  0  0  0  0  0  0  0  0  0  0
  -25.4759  -28.7891   21.7059 C   0  0  0  0  0  0  0  0  0  0  0  0
  -25.2033  -27.3825   19.1191 C   0  0  0  0  0  0  0  0  0  0  0  0
  -19.1520  -27.4869   21.1193 C   0  0  0  0  0  0  0  0  0  0  0  0
  -21.4815  -16.7872   23.4570 C   0  0  0  0  0  0  0  0  0  0  0  0
  -20.2126  -26.4818   21.5570 C   0  0  0  0  0  0  0  0  0  0  0  0
  -22.1190  -15.4600   23.0424 C   0  0  0  0  0  0  0  0  0  0  0  0
  -20.6787  -17.4085   22.3162 C   0  0  0  0  0  0  0  0  0  0  0  0
  -22.0603  -16.2460   20.6388 C   0  0  0  0  0  0  0  0  0  0  0  0
  -21.1119  -27.0700   22.6511 C   0  0  1  0  0  0  0  0  0  0  0  0
  -24.1321  -28.6713   20.9935 C   0  0  1  0  0  0  0  0  0  0  0  0
  -22.9264  -15.6088   21.7388 C   0  0  2  0  0  0  0  0  0  0  0  0
  -29.4879  -22.3033   17.9657 C   0  0  0  0  0  0  0  0  0  0  0  0
  -25.8736  -20.1834   21.9461 C   0  0  0  0  0  0  0  0  0  0  0  0
  -28.2770  -21.5623   22.7800 C   0  0  0  0  0  0  0  0  0  0  0  0
  -24.9579  -31.0288   13.6611 C   0  0  0  0  0  0  0  0  0  0  0  0
  -21.5943  -26.8756   17.5736 C   0  0  0  0  0  0  0  0  0  0  0  0
  -22.2150  -27.6191   15.2649 C   0  0  0  0  0  0  0  0  0  0  0  0
  -21.0139  -29.1804   16.7954 C   0  0  0  0  0  0  0  0  0  0  0  0
  -27.4338  -31.5406   16.5044 C   0  0  0  0  0  0  0  0  0  0  0  0
  -25.2966  -19.8791   19.1091 C   0  0  0  0  0  0  0  0  0  0  0  0
  -30.1043  -22.6333   20.7988 C   0  0  0  0  0  0  0  0  0  0  0  0
  -24.0153  -20.7318   19.1752 C   0  0  0  0  0  0  0  0  0  0  0  0
  -22.7626  -20.0263   18.6599 C   0  0  0  0  0  0  0  0  0  0  0  0
  -29.8243  -24.0568   21.2681 C   0  0  0  0  0  0  0  0  0  1  0  0
  -23.4454  -28.6427   17.2320 C   0  0  1  0  0  0  0  0  0  0  0  0
  -25.4081  -31.0971   15.1122 C   0  0  2  0  0  0  0  0  0  0  0  0
  -22.0872  -28.0718   16.7351 C   0  0  0  0  0  0  0  0  0  0  0  0
  -22.8607  -13.1496   21.5636 N   0  0  0  0  0  0  0  0  0  0  0  0
  -23.5264  -14.2865   21.2980 N   0  0  0  0  0  0  0  0  0  0  0  0
  -24.2736  -28.4375   19.5549 N   0  0  0  0  0  0  0  0  0  0  0  0
  -21.5022  -17.5232   21.1101 N   0  0  0  0  0  0  0  0  0  0  0  0
  -25.4987  -15.1297   20.2932 N   0  0  0  0  0  0  0  0  0  0  0  0
  -25.8606  -10.6655   19.7133 N   0  0  0  0  0  0  0  0  0  0  0  0
  -22.0811  -27.9774   22.0750 N   0  0  0  0  0  0  0  0  0  0  0  0
  -23.9233  -29.7935   16.4732 N   0  0  0  0  0  0  0  0  0  0  0  0
  -22.4807  -18.8043   19.3795 N   0  0  0  0  0  0  0  0  0  0  0  0
  -26.8627  -31.4200   15.1383 N   0  3  0  0  0  0  0  0  0  0  0  0
  -26.8903  -12.6808   19.3430 O   0  0  0  0  0  0  0  0  0  0  0  0
  -23.6867  -26.4024   21.4717 O   0  0  0  0  0  0  0  0  0  0  0  0
  -22.6014  -29.9679   19.0091 O   0  0  0  0  0  0  0  0  0  0  0  0
  -25.9423  -28.8524   15.8288 O   0  0  0  0  0  0  0  0  0  0  0  0
  -21.1696  -19.8137   20.9666 O   0  0  0  0  0  0  0  0  0  0  0  0
  -22.1923   -6.8196   21.3829 O   0  0  0  0  0  0  0  0  0  0  0  0
  -29.2118  -24.8000   20.2151 O   0  0  0  0  0  0  0  0  0  1  0  0
  -20.2744   -4.9833   26.2155 F   0  0  0  0  0  0  0  0  0  0  0  0
  -23.4766   -4.7791   22.7355 F   0  0  0  0  0  0  0  0  0  0  0  0
  1  2  1  0  0  0  0
  1  5  2  0  0  0  0
  2  6  2  0  0  0  0
  3  8  2  0  0  0  0
  3 16  1  0  0  0  0
  4  9  1  0  0  0  0
  4 16  2  0  0  0  0
  5 18  1  0  0  0  0
  6 20  1  0  0  0  0
  7 10  2  0  0  0  0
  7 19  1  0  0  0  0
  8 27  1  0  0  0  0
  9 27  2  0  0  0  0
 10 28  1  0  0  0  0
 11 12  2  0  0  0  0
 11 29  1  0  0  0  0
 12 30  1  0  0  0  0
 13 21  1  0  0  0  0
 13 28  2  0  0  0  0
 14 22  2  0  0  0  0
 14 23  1  0  0  0  0
 15 30  2  0  0  0  0
 15 31  1  0  0  0  0
 16 32  1  0  0  0  0
 17 32  1  0  0  0  0
 17 33  2  0  0  0  0
 17 34  1  0  0  0  0
 18 20  2  0  0  0  0
 18 39  1  0  0  0  0
 19 21  2  0  0  0  0
 19 40  1  0  0  0  0
 20 48  1  0  0  0  0
 21 41  1  0  0  0  0
 22 26  1  0  0  0  0
 22 51  1  0  0  0  0
 23 24  2  0  0  0  0
 23 59  1  0  0  0  0
 24 25  1  0  0  0  0
 24 52  1  0  0  0  0
 25 26  2  0  0  0  0
 25 53  1  0  0  0  0
 26 60  1  0  0  0  0
 27 82  1  0  0  0  0
 28 83  1  0  0  0  0
 29 31  2  0  0  0  0
 29 82  1  0  0  0  0
 30 84  1  0  0  0  0
 31 85  1  0  0  0  0
 32 67  2  0  0  0  0
 33 68  1  0  0  0  0
 33 71  1  0  0  0  0
 34 72  1  0  0  0  0
 34 77  2  0  0  0  0
 35 49  1  0  0  0  0
 35 73  1  0  0  0  0
 35 78  2  0  0  0  0
 36 64  1  0  0  0  0
 36 69  1  0  0  0  0
 36 79  2  0  0  0  0
 37 65  1  0  0  0  0
 37 74  1  0  0  0  0
 37 80  2  0  0  0  0
 38 70  1  0  0  0  0
 38 75  1  0  0  0  0
 38 81  2  0  0  0  0
 39 42  1  0  0  0  0
 40 49  1  0  0  0  0
 41 69  1  0  0  0  0
 42 44  1  0  0  0  0
 43 45  1  0  0  0  0
 43 46  1  0  0  0  0
 44 48  1  0  0  0  0
 45 50  1  0  0  0  0
 46 70  1  0  0  0  0
 47 50  1  0  0  0  0
 47 70  1  0  0  0  0
 48 73  1  0  0  0  0
 49 69  1  0  0  0  0
 50 68  1  0  0  0  0
 54 65  1  0  0  0  0
 55 66  1  0  0  0  0
 56 66  1  0  0  0  0
 57 66  1  0  0  0  0
 58 76  1  0  0  0  0
 59 61  1  0  0  0  0
 60 63  1  0  0  0  0
 61 62  1  0  0  0  0
 62 75  1  0  0  0  0
 63 83  1  0  0  0  0
 64 66  1  0  0  0  0
 64 74  1  0  0  0  0
 65 76  1  0  0  0  0
 67 68  1  0  0  0  0
M  CHG  1  76   1
M  ISO  4  38 100  63 101  75 100  83 101
M  END
> <Batch ID>
0031

> <Smiles>
CNC(C)C(=O)NC(C(=O)N1Cc2cc([101O:1][101CH2:1]Cc3c(C)cc(CCC[100NH:0][100C:0](=O)N4CCCC(n5nc(-c6ccc(Oc7ccc(F)cc7F)cc6)c(C(N)=O)c5N)C4)c(C)c3C)ccc2CC1C(=O)NC1CCCc2ccccc21)C(C)(C)C

> <Shape>
0.254

> <Color>
0.120

> <Negative vol penalty>
0.000

$$$$

  -OEChem-04052316423D

 87 96  0     1  0  0  0  0  0999 V2000
  -21.7487  -11.9062   19.5764 C   0  0  0  0  0  0  0  0  0  0  0  0
  -21.5322  -13.0556   20.3298 C   0  0  0  0  0  0  0  0  0  0  0  0
  -27.2502  -25.5166   26.8639 C   0  0  0  0  0  0  0  0  0  0  0  0
  -26.7973  -23.4761   25.6522 C   0  0  0  0  0  0  0  0  0  0  0  0
  -23.0460  -11.4314   19.3884 C   0  0  0  0  0  0  0  0  0  0  0  0
  -22.6130  -13.7301   20.8966 C   0  0  0  0  0  0  0  0  0  0  0  0
  -24.8140  -21.1864   20.1307 C   0  0  0  0  0  0  0  0  0  0  0  0
  -28.6182  -25.2521   26.7981 C   0  0  0  0  0  0  0  0  0  0  0  0
  -28.1653  -23.2116   25.5863 C   0  0  0  0  0  0  0  0  0  0  0  0
  -25.3925  -22.4427   19.9486 C   0  0  0  0  0  0  0  0  0  0  0  0
  -30.5686  -21.9945   27.6292 C   0  0  0  0  0  0  0  0  0  0  0  0
  -30.9923  -20.6970   27.9168 C   0  0  0  0  0  0  0  0  0  0  0  0
  -24.1110  -29.2295   20.5211 C   0  0  0  0  0  0  0  0  0  0  0  0
  -27.5724  -21.5233   20.4493 C   0  0  0  0  0  0  0  0  0  0  0  0
  -24.0808  -31.5472   21.2026 C   0  0  0  0  0  0  0  0  0  0  0  0
  -31.9415  -20.5163   25.7024 C   0  0  0  0  0  0  0  0  0  0  0  0
  -26.3398  -24.6286   26.2910 C   0  0  0  0  0  0  0  0  0  0  0  0
  -24.1443  -25.0488   27.5202 C   0  0  0  0  0  0  0  0  0  0  0  0
  -24.1441  -12.1058   19.9451 C   0  0  0  0  0  0  0  0  0  0  0  0
  -25.6156  -20.0893   20.4581 C   0  0  0  0  0  0  0  0  0  0  0  0
  -23.9262  -13.2631   20.7170 C   0  0  0  0  0  0  0  0  0  0  0  0
  -25.4969  -29.2019   20.6763 C   0  0  0  0  0  0  0  0  0  0  0  0
  -27.0003  -20.2599   20.6207 C   0  0  0  0  0  0  0  0  0  0  0  0
  -23.4029  -30.4021   20.7842 C   0  0  0  0  0  0  0  0  0  0  0  0
  -25.4667  -31.5196   21.3578 C   0  0  0  0  0  0  0  0  0  0  0  0
  -26.1748  -30.3469   21.0947 C   0  0  0  0  0  0  0  0  0  0  0  0
  -29.0757  -24.0996   26.1592 C   0  0  0  0  0  0  0  0  0  0  0  0
  -26.7683  -22.6107   20.1078 C   0  0  0  0  0  0  0  0  0  0  0  0
  -30.8312  -22.5528   26.3783 C   0  0  0  0  0  0  0  0  0  0  0  0
  -31.6788  -19.9580   26.9534 C   0  0  0  0  0  0  0  0  0  0  0  0
  -31.5177  -21.8138   25.4148 C   0  0  0  0  0  0  0  0  0  0  0  0
  -24.9265  -24.9010   26.3591 C   0  0  0  0  0  0  0  0  0  0  0  0
  -22.8769  -25.2946   27.0514 C   0  0  0  0  0  0  0  0  0  0  0  0
  -24.5289  -24.9708   28.8992 C   0  0  0  0  0  0  0  0  0  0  0  0
  -25.7912  -16.4159   21.2008 C   0  0  0  0  0  0  0  0  0  0  0  0
  -28.2200  -17.0885   19.4519 C   0  0  0  0  0  0  0  0  0  0  0  0
  -30.5244  -18.1574   17.1750 C   0  0  0  0  0  0  0  0  0  0  0  0
  -20.7992  -27.5913   21.9270 C   0  0  0  0  0  0  0  0  0  0  0  0
  -25.5240  -11.5279   19.7541 C   0  0  0  0  0  0  0  0  0  0  0  0
  -25.0273  -18.7302   20.7240 C   0  0  0  0  0  0  0  0  0  0  0  0
  -27.8187  -19.0584   21.0072 C   0  0  0  0  0  0  0  0  0  0  0  0
  -26.6462  -12.5116   20.0754 C   0  0  0  0  0  0  0  0  0  0  0  0
  -20.0294  -24.4027   23.3115 C   0  0  0  0  0  0  0  0  0  0  0  0
  -25.5733  -27.1071   19.2560 C   0  0  0  0  0  0  0  0  0  0  0  0
  -26.4217  -27.0543   21.6469 C   0  0  0  0  0  0  0  0  0  0  0  0
  -26.3718  -13.2212   21.3975 C   0  0  0  0  0  0  0  0  0  0  0  0
  -21.1266  -24.1821   24.3543 C   0  0  0  0  0  0  0  0  0  0  0  0
  -26.3367  -25.8180   18.9634 C   0  0  0  0  0  0  0  0  0  0  0  0
  -27.1811  -25.7659   21.3417 C   0  0  0  0  0  0  0  0  0  0  0  0
  -20.5608  -25.1303   22.0785 C   0  0  0  0  0  0  0  0  0  0  0  0
  -22.3551  -26.1785   23.4034 C   0  0  0  0  0  0  0  0  0  0  0  0
  -26.2437  -27.9136   20.3825 C   0  0  0  0  0  0  0  0  0  0  0  0
  -25.0749  -14.0365   21.3272 C   0  0  1  0  0  0  0  0  0  0  0  0
  -25.9376  -17.5779   20.2628 C   0  0  1  0  0  0  0  0  0  0  0  0
  -21.8547  -25.4979   24.6890 C   0  0  2  0  0  0  0  0  0  0  0  0
  -26.5155  -24.9701   20.2215 C   0  0  0  0  0  0  0  0  0  1  0  0
  -26.1686  -32.7593   21.8072 C   0  0  0  0  0  0  0  0  0  0  0  0
  -27.6609  -30.3175   21.2611 C   0  0  0  0  0  0  0  0  0  0  0  0
  -32.4684  -17.3468   15.8107 C   0  0  0  0  0  0  0  0  0  0  0  0
  -29.9783  -17.1221   21.9442 C   0  0  0  0  0  0  0  0  0  0  0  0
  -31.9786  -17.2587   20.4447 C   0  0  0  0  0  0  0  0  0  0  0  0
  -30.4771  -15.2694   20.3401 C   0  0  0  0  0  0  0  0  0  0  0  0
  -29.1609  -18.8112   14.6309 C   0  0  0  0  0  0  0  0  0  0  0  0
  -21.9210  -30.4316   20.6194 C   0  0  0  0  0  0  0  0  0  0  0  0
  -21.1538  -30.0473   21.8903 C   0  0  0  0  0  0  0  0  0  0  0  0
  -29.6760  -17.4775   19.4049 C   0  0  1  0  0  0  0  0  0  0  0  0
  -30.9661  -17.5810   15.8419 C   0  0  2  0  0  0  0  0  0  0  0  0
  -30.5068  -16.8014   20.5318 C   0  0  0  0  0  0  0  0  0  0  0  0
  -24.2155  -25.0411   25.2371 N   0  0  0  0  0  0  0  0  0  0  0  0
  -22.9732  -25.2794   25.6910 N   0  0  0  0  0  0  0  0  0  0  0  0
  -27.3783  -17.8827   20.2400 N   0  0  0  0  0  0  0  0  0  0  0  0
  -21.2385  -26.3702   22.4646 N   0  0  0  0  0  0  0  0  0  0  0  0
  -21.7006  -25.5201   27.6742 N   0  0  0  0  0  0  0  0  0  0  0  0
  -25.8719  -24.7110   29.2046 N   0  0  0  0  0  0  0  0  0  0  0  0
  -25.2932  -15.2722   20.6063 N   0  0  0  0  0  0  0  0  0  0  0  0
  -30.1374  -17.1694   18.0555 N   0  0  0  0  0  0  0  0  0  0  0  0
  -21.4922  -28.7189   22.3502 N   0  0  0  0  0  0  0  0  0  0  0  0
  -30.6123  -18.5112   14.7326 N   0  3  0  0  0  0  0  0  0  0  0  0
  -23.7030  -25.1108   29.8329 O   0  0  0  0  0  0  0  0  0  0  0  0
  -26.1078  -16.5457   22.3775 O   0  0  0  0  0  0  0  0  0  0  0  0
  -27.8378  -16.1042   18.8129 O   0  0  0  0  0  0  0  0  0  0  0  0
  -30.5263  -19.3632   17.4127 O   0  0  0  0  0  0  0  0  0  0  0  0
  -19.8557  -27.6713   21.1330 O   0  0  0  0  0  0  0  0  0  0  0  0
  -30.4105  -23.8413   26.0946 O   0  0  0  0  0  0  0  0  0  0  0  0
  -27.3272  -23.8390   19.9241 O   0  0  0  0  0  0  0  0  0  1  0  0
  -32.0871  -18.7126   27.2301 F   0  0  0  0  0  0  0  0  0  0  0  0
  -31.7740  -22.3453   24.2117 F   0  0  0  0  0  0  0  0  0  0  0  0
  1  2  1  0  0  0  0
  1  5  2  0  0  0  0
  2  6  2  0  0  0  0
  3  8  2  0  0  0  0
  3 17  1  0  0  0  0
  4  9  1  0  0  0  0
  4 17  2  0  0  0  0
  5 19  1  0  0  0  0
  6 21  1  0  0  0  0
  7 10  2  0  0  0  0
  7 20  1  0  0  0  0
  8 27  1  0  0  0  0
  9 27  2  0  0  0  0
 10 28  1  0  0  0  0
 11 12  2  0  0  0  0
 11 29  1  0  0  0  0
 12 30  1  0  0  0  0
 13 22  1  0  0  0  0
 13 24  2  0  0  0  0
 14 23  1  0  0  0  0
 14 28  2  0  0  0  0
 15 24  1  0  0  0  0
 15 25  2  0  0  0  0
 16 30  2  0  0  0  0
 16 31  1  0  0  0  0
 17 32  1  0  0  0  0
 18 32  1  0  0  0  0
 18 33  2  0  0  0  0
 18 34  1  0  0  0  0
 19 21  2  0  0  0  0
 19 39  1  0  0  0  0
 20 23  2  0  0  0  0
 20 40  1  0  0  0  0
 21 53  1  0  0  0  0
 22 26  2  0  0  0  0
 22 52  1  0  0  0  0
 23 41  1  0  0  0  0
 24 64  1  0  0  0  0
 25 26  1  0  0  0  0
 25 57  1  0  0  0  0
 26 58  1  0  0  0  0
 27 84  1  0  0  0  0
 28 85  1  0  0  0  0
 29 31  2  0  0  0  0
 29 84  1  0  0  0  0
 30 86  1  0  0  0  0
 31 87  1  0  0  0  0
 32 69  2  0  0  0  0
 33 70  1  0  0  0  0
 33 73  1  0  0  0  0
 34 74  1  0  0  0  0
 34 79  2  0  0  0  0
 35 54  1  0  0  0  0
 35 75  1  0  0  0  0
 35 80  2  0  0  0  0
 36 66  1  0  0  0  0
 36 71  1  0  0  0  0
 36 81  2  0  0  0  0
 37 67  1  0  0  0  0
 37 76  1  0  0  0  0
 37 82  2  0  0  0  0
 38 72  1  0  0  0  0
 38 77  1  0  0  0  0
 38 83  2  0  0  0  0
 39 42  1  0  0  0  0
 40 54  1  0  0  0  0
 41 71  1  0  0  0  0
 42 46  1  0  0  0  0
 43 47  1  0  0  0  0
 43 50  1  0  0  0  0
 44 48  1  0  0  0  0
 44 52  1  0  0  0  0
 45 49  1  0  0  0  0
 45 52  1  0  0  0  0
 46 53  1  0  0  0  0
 47 55  1  0  0  0  0
 48 56  1  0  0  0  0
 49 56  1  0  0  0  0
 50 72  1  0  0  0  0
 51 55  1  0  0  0  0
 51 72  1  0  0  0  0
 53 75  1  0  0  0  0
 54 71  1  0  0  0  0
 55 70  1  0  0  0  0
 56 85  1  0  0  0  0
 59 67  1  0  0  0  0
 60 68  1  0  0  0  0
 61 68  1  0  0  0  0
 62 68  1  0  0  0  0
 63 78  1  0  0  0  0
 64 65  1  0  0  0  0
 65 77  1  0  0  0  0
 66 68  1  0  0  0  0
 66 76  1  0  0  0  0
 67 78  1  0  0  0  0
 69 70  1  0  0  0  0
M  CHG  1  78   1
M  ISO  4  38 100  56 101  77 100  85 101
M  END
> <Batch ID>
0031

> <Smiles>
CNC(C)C(=O)NC(C(=O)N1Cc2cc([101O:1][101CH:1]3CCC(c4cc(CC[100NH:0][100C:0](=O)N5CCCC(n6nc(-c7ccc(Oc8ccc(F)cc8F)cc7)c(C(N)=O)c6N)C5)cc(C)c4C)CC3)ccc2CC1C(=O)NC1CCCc2ccccc21)C(C)(C)C

> <Shape>
0.198

> <Color>
0.069

> <Negative vol penalty>
0.000

$$$$

  -OEChem-04052316423D

 82 91  0     1  0  0  0  0  0999 V2000
  -18.2233  -28.0706   23.3132 C   0  0  0  0  0  0  0  0  0  0  0  0
  -18.9972  -26.9411   23.0668 C   0  0  0  0  0  0  0  0  0  0  0  0
  -23.0041  -10.0995   19.9504 C   0  0  0  0  0  0  0  0  0  0  0  0
  -23.9788   -9.6564   22.1162 C   0  0  0  0  0  0  0  0  0  0  0  0
  -18.3763  -29.2059   22.5185 C   0  0  0  0  0  0  0  0  0  0  0  0
  -19.9239  -26.9459   22.0248 C   0  0  0  0  0  0  0  0  0  0  0  0
  -25.3585  -24.1248   21.9182 C   0  0  0  0  0  0  0  0  0  0  0  0
  -22.2330   -8.9425   20.0607 C   0  0  0  0  0  0  0  0  0  0  0  0
  -23.2076   -8.4993   22.2266 C   0  0  0  0  0  0  0  0  0  0  0  0
  -25.7768  -22.9152   21.3652 C   0  0  0  0  0  0  0  0  0  0  0  0
  -23.2841   -5.3323   21.0453 C   0  0  0  0  0  0  0  0  0  0  0  0
  -23.9153   -4.1734   21.4970 C   0  0  0  0  0  0  0  0  0  0  0  0
  -27.4624  -16.5306   16.1704 C   0  0  0  0  0  0  0  0  0  0  0  0
  -26.5505  -24.0866   19.4034 C   0  0  0  0  0  0  0  0  0  0  0  0
  -22.3948   -4.0761   23.3721 C   0  0  0  0  0  0  0  0  0  0  0  0
  -23.8771  -10.4564   20.9782 C   0  0  0  0  0  0  0  0  0  0  0  0
  -28.3539  -16.2922   17.2428 C   0  0  0  0  0  0  0  0  0  0  0  0
  -24.3268  -12.9485   21.2866 C   0  0  0  0  0  0  0  0  0  0  0  0
  -19.3122  -29.2280   21.4724 C   0  0  0  0  0  0  0  0  0  0  0  0
  -25.5235  -25.3251   21.2121 C   0  0  0  0  0  0  0  0  0  0  0  0
  -20.0886  -28.0821   21.2145 C   0  0  0  0  0  0  0  0  0  0  0  0
  -26.1358  -25.3103   19.9507 C   0  0  0  0  0  0  0  0  0  0  0  0
  -22.3347   -8.1424   21.1988 C   0  0  0  0  0  0  0  0  0  0  0  0
  -26.3703  -22.8956   20.1064 C   0  0  0  0  0  0  0  0  0  0  0  0
  -22.2083   -5.8632   21.7571 C   0  0  0  0  0  0  0  0  0  0  0  0
  -23.4707   -3.5453   22.6604 C   0  0  0  0  0  0  0  0  0  0  0  0
  -21.7637   -5.2351   22.9204 C   0  0  0  0  0  0  0  0  0  0  0  0
  -24.6744  -11.6512   20.8645 C   0  0  0  0  0  0  0  0  0  0  0  0
  -28.1171  -17.2532   18.2065 C   0  0  0  0  0  0  0  0  0  0  0  0
  -26.7030  -17.6288   16.5040 C   0  0  0  0  0  0  0  0  0  0  0  0
  -25.4141  -13.7199   20.9561 C   0  0  0  0  0  0  0  0  0  0  0  0
  -28.1834  -18.5944   20.1751 C   0  0  0  0  0  0  0  0  0  0  0  0
  -28.6587  -17.5551   19.4782 C   0  0  0  0  0  0  0  0  0  0  0  0
  -27.0854  -19.3867   19.5507 C   0  0  0  0  0  0  0  0  0  0  0  0
  -29.3494  -15.2145   17.3106 C   0  0  0  0  0  0  0  0  0  0  0  0
  -23.1284  -13.4145   21.9208 C   0  0  0  0  0  0  0  0  0  0  0  0
  -23.5542  -27.5358   20.0553 C   0  0  0  0  0  0  0  0  0  0  0  0
  -26.3210  -29.0872   19.3769 C   0  0  0  0  0  0  0  0  0  0  0  0
  -29.6733  -28.8991   18.7654 C   0  0  0  0  0  0  0  0  0  0  0  0
  -19.4084  -30.4619   20.6104 C   0  0  0  0  0  0  0  0  0  0  0  0
  -25.0912  -26.6247   21.8338 C   0  0  0  0  0  0  0  0  0  0  0  0
  -26.3542  -26.5738   19.1605 C   0  0  0  0  0  0  0  0  0  0  0  0
  -20.6773  -30.5158   19.7634 C   0  0  0  0  0  0  0  0  0  0  0  0
  -30.0481  -12.4125   19.4088 C   0  0  0  0  0  0  0  0  0  0  0  0
  -20.9193  -29.1744   19.0785 C   0  0  0  0  0  0  0  0  0  0  0  0
  -28.6812  -12.0563   19.9960 C   0  0  0  0  0  0  0  0  0  0  0  0
  -29.9318  -12.9041   17.9682 C   0  0  0  0  0  0  0  0  0  0  0  0
  -27.6166  -13.6705   18.3646 C   0  0  0  0  0  0  0  0  0  0  0  0
  -21.1219  -28.0573   20.1092 C   0  0  1  0  0  0  0  0  0  0  0  0
  -24.8416  -27.7246   20.8066 C   0  0  1  0  0  0  0  0  0  0  0  0
  -27.6839  -13.2186   19.8327 C   0  0  1  0  0  0  0  0  0  0  0  0
  -25.6279  -18.2972   15.7403 C   0  0  0  0  0  0  0  0  0  0  0  0
  -31.6571  -30.3306   18.2063 C   0  0  0  0  0  0  0  0  0  0  0  0
  -25.3378  -29.3212   16.4979 C   0  0  0  0  0  0  0  0  0  0  0  0
  -27.6825  -29.8734   15.8156 C   0  0  0  0  0  0  0  0  0  0  0  0
  -26.4571  -31.3728   17.3880 C   0  0  0  0  0  0  0  0  0  0  0  0
  -31.0813  -28.1206   21.2494 C   0  0  0  0  0  0  0  0  0  0  0  0
  -26.5686  -20.5372   20.3399 C   0  0  0  0  0  0  0  0  0  1  0  0
  -27.2676  -29.1204   18.2013 C   0  0  1  0  0  0  0  0  0  0  0  0
  -30.8443  -29.6896   19.3205 C   0  0  2  0  0  0  0  0  0  0  0  0
  -26.6805  -29.8977   16.9895 C   0  0  0  0  0  0  0  0  0  0  0  0
  -25.8875  -11.5977   20.3082 N   0  0  0  0  0  0  0  0  0  0  0  0
  -26.5593  -19.1447   18.3874 N   0  0  0  0  0  0  0  0  0  0  0  0
  -27.1003  -18.0705   17.7438 N   0  0  0  0  0  0  0  0  0  0  0  0
  -26.3117  -12.8710   20.3783 N   0  0  0  0  0  0  0  0  0  0  0  0
  -28.9623  -13.9945   17.8702 N   0  0  0  0  0  0  0  0  0  0  0  0
  -25.9088  -27.8185   19.8084 N   0  0  0  0  0  0  0  0  0  0  0  0
  -25.6803  -15.0348   21.1061 N   0  0  0  0  0  0  0  0  0  0  0  0
  -22.1108  -12.4887   22.1886 N   0  0  0  0  0  0  0  0  0  0  0  0
  -22.4576  -28.1168   20.6631 N   0  0  0  0  0  0  0  0  0  0  0  0
  -28.5255  -29.6608   18.7053 N   0  0  0  0  0  0  0  0  0  0  0  0
  -31.7446  -28.7990   20.1062 N   0  3  0  0  0  0  0  0  0  0  0  0
  -30.4680  -15.4796   16.8729 O   0  0  0  0  0  0  0  0  0  0  0  0
  -22.9581  -14.6192   22.2258 O   0  0  0  0  0  0  0  0  0  0  0  0
  -23.5559  -26.9106   19.0013 O   0  0  0  0  0  0  0  0  0  0  0  0
  -25.9663  -30.1476   19.8977 O   0  0  0  0  0  0  0  0  0  0  0  0
  -29.7682  -27.7245   18.4163 O   0  0  0  0  0  0  0  0  0  0  0  0
  -21.5822   -7.0134   21.3069 O   0  0  0  0  0  0  0  0  0  0  0  0
  -26.7788  -21.7163   19.5640 O   0  0  0  0  0  0  0  0  0  1  0  0
  -24.0760   -2.4315   23.0932 F   0  0  0  0  0  0  0  0  0  0  0  0
  -20.7298   -5.7397   23.6077 F   0  0  0  0  0  0  0  0  0  0  0  0
  -29.9280  -16.5974   20.1468 Cl  0  0  0  0  0  0  0  0  0  0  0  0
  1  2  1  0  0  0  0
  1  5  2  0  0  0  0
  2  6  2  0  0  0  0
  3  8  2  0  0  0  0
  3 16  1  0  0  0  0
  4  9  1  0  0  0  0
  4 16  2  0  0  0  0
  5 19  1  0  0  0  0
  6 21  1  0  0  0  0
  7 10  2  0  0  0  0
  7 20  1  0  0  0  0
  8 23  1  0  0  0  0
  9 23  2  0  0  0  0
 10 24  1  0  0  0  0
 11 12  2  0  0  0  0
 11 25  1  0  0  0  0
 12 26  1  0  0  0  0
 13 17  1  0  0  0  0
 13 30  2  0  0  0  0
 14 22  1  0  0  0  0
 14 24  2  0  0  0  0
 15 26  2  0  0  0  0
 15 27  1  0  0  0  0
 16 28  1  0  0  0  0
 17 29  2  0  0  0  0
 17 35  1  0  0  0  0
 18 28  1  0  0  0  0
 18 31  2  0  0  0  0
 18 36  1  0  0  0  0
 19 21  2  0  0  0  0
 19 40  1  0  0  0  0
 20 22  2  0  0  0  0
 20 41  1  0  0  0  0
 21 49  1  0  0  0  0
 22 42  1  0  0  0  0
 23 78  1  0  0  0  0
 24 79  1  0  0  0  0
 25 27  2  0  0  0  0
 25 78  1  0  0  0  0
 26 80  1  0  0  0  0
 27 81  1  0  0  0  0
 28 62  2  0  0  0  0
 29 33  1  0  0  0  0
 29 64  1  0  0  0  0
 30 52  1  0  0  0  0
 30 64  1  0  0  0  0
 31 65  1  0  0  0  0
 31 68  1  0  0  0  0
 32 33  2  0  0  0  0
 32 34  1  0  0  0  0
 33 82  1  0  0  0  0
 34 58  1  0  0  0  0
 34 63  2  0  0  0  0
 35 66  1  0  0  0  0
 35 73  2  0  0  0  0
 36 69  1  0  0  0  0
 36 74  2  0  0  0  0
 37 50  1  0  0  0  0
 37 70  1  0  0  0  0
 37 75  2  0  0  0  0
 38 59  1  0  0  0  0
 38 67  1  0  0  0  0
 38 76  2  0  0  0  0
 39 60  1  0  0  0  0
 39 71  1  0  0  0  0
 39 77  2  0  0  0  0
 40 43  1  0  0  0  0
 41 50  1  0  0  0  0
 42 67  1  0  0  0  0
 43 45  1  0  0  0  0
 44 46  1  0  0  0  0
 44 47  1  0  0  0  0
 45 49  1  0  0  0  0
 46 51  1  0  0  0  0
 47 66  1  0  0  0  0
 48 51  1  0  0  0  0
 48 66  1  0  0  0  0
 49 70  1  0  0  0  0
 50 67  1  0  0  0  0
 51 65  1  0  0  0  0
 53 60  1  0  0  0  0
 54 61  1  0  0  0  0
 55 61  1  0  0  0  0
 56 61  1  0  0  0  0
 57 72  1  0  0  0  0
 58 79  1  0  0  0  0
 59 61  1  0  0  0  0
 59 71  1  0  0  0  0
 60 72  1  0  0  0  0
 62 65  1  0  0  0  0
 63 64  1  0  0  0  0
M  CHG  1  72   1
M  ISO  4  17 100  35 100  58 101  79 101
M  END
> <Batch ID>
0031

> <Smiles>
CNC(C)C(=O)NC(C(=O)N1Cc2cc([101O:1][101CH2:1]c3cc(Cl)c4[100c:0]([100C:0](=O)N5CCCC(n6nc(-c7ccc(Oc8ccc(F)cc8F)cc7)c(C(N)=O)c6N)C5)cc(C)n4n3)ccc2CC1C(=O)NC1CCCc2ccccc21)C(C)(C)C

> <Shape>
0.257

> <Color>
0.152

> <Negative vol penalty>
0.000

$$$$

  -OEChem-04052316423D

 81 89  0     1  0  0  0  0  0999 V2000
  -26.2385  -17.8058   19.4610 C   0  0  0  0  0  0  0  0  0  0  0  0
  -25.3828  -18.9017   19.5077 C   0  0  0  0  0  0  0  0  0  0  0  0
  -23.1832  -13.8869   21.2755 C   0  0  0  0  0  0  0  0  0  0  0  0
  -25.0506  -14.8567   22.4627 C   0  0  0  0  0  0  0  0  0  0  0  0
  -27.5089  -17.8901   20.0292 C   0  0  0  0  0  0  0  0  0  0  0  0
  -25.7967  -20.0823   20.1236 C   0  0  0  0  0  0  0  0  0  0  0  0
  -24.3591  -25.7997   18.4653 C   0  0  0  0  0  0  0  0  0  0  0  0
  -18.9739  -26.0409   22.4722 C   0  0  0  0  0  0  0  0  0  0  0  0
  -18.5952  -27.1767   21.7566 C   0  0  0  0  0  0  0  0  0  0  0  0
  -24.0258  -12.9072   20.7503 C   0  0  0  0  0  0  0  0  0  0  0  0
  -25.8932  -13.8770   21.9375 C   0  0  0  0  0  0  0  0  0  0  0  0
  -23.4045  -26.7007   18.9352 C   0  0  0  0  0  0  0  0  0  0  0  0
  -28.6070  -11.8464   20.6253 C   0  0  0  0  0  0  0  0  0  0  0  0
  -29.8439  -12.2547   20.1262 C   0  0  0  0  0  0  0  0  0  0  0  0
  -25.0729  -27.7234   20.3458 C   0  0  0  0  0  0  0  0  0  0  0  0
  -21.0723  -27.0966   23.0373 C   0  0  0  0  0  0  0  0  0  0  0  0
  -28.7277  -13.6742   18.5211 C   0  0  0  0  0  0  0  0  0  0  0  0
  -23.6956  -14.8617   22.1316 C   0  0  0  0  0  0  0  0  0  0  0  0
  -22.0945  -15.8124   23.8753 C   0  0  0  0  0  0  0  0  0  0  0  0
  -27.9422  -19.0754   20.6438 C   0  0  0  0  0  0  0  0  0  0  0  0
  -25.6774  -25.8469   18.9411 C   0  0  0  0  0  0  0  0  0  0  0  0
  -27.0736  -20.1821   20.7017 C   0  0  0  0  0  0  0  0  0  0  0  0
  -26.0429  -26.8235   19.8785 C   0  0  0  0  0  0  0  0  0  0  0  0
  -20.2125  -26.0009   23.1126 C   0  0  0  0  0  0  0  0  0  0  0  0
  -19.4551  -28.2725   21.6813 C   0  0  0  0  0  0  0  0  0  0  0  0
  -20.6936  -28.2324   22.3216 C   0  0  0  0  0  0  0  0  0  0  0  0
  -25.3808  -12.9022   21.0814 C   0  0  0  0  0  0  0  0  0  0  0  0
  -23.7606  -27.6608   19.8777 C   0  0  0  0  0  0  0  0  0  0  0  0
  -27.4304  -12.3520   20.0722 C   0  0  0  0  0  0  0  0  0  0  0  0
  -29.9042  -13.1686   19.0742 C   0  0  0  0  0  0  0  0  0  0  0  0
  -27.4908  -13.2659   19.0202 C   0  0  0  0  0  0  0  0  0  0  0  0
  -22.8258  -15.8743   22.6740 C   0  0  0  0  0  0  0  0  0  0  0  0
  -21.4325  -17.0142   23.9367 C   0  0  0  0  0  0  0  0  0  0  0  0
  -22.0204  -14.7624   24.8488 C   0  0  0  0  0  0  0  0  0  0  0  0
  -27.5611  -23.8408   20.5320 C   0  0  0  0  0  0  0  0  0  0  0  0
  -29.8012  -26.1208   19.9789 C   0  0  0  0  0  0  0  0  0  0  0  0
  -30.5005  -29.3938   19.3117 C   0  0  0  0  0  0  0  0  0  0  0  0
  -21.4289  -22.4700   23.5115 C   0  0  0  0  0  0  0  0  0  0  0  0
  -29.3066  -19.1035   21.2858 C   0  0  0  0  0  0  0  0  0  0  0  0
  -26.7016  -24.8850   18.4043 C   0  0  0  0  0  0  0  0  0  0  0  0
  -27.4497  -26.9292   20.4060 C   0  0  0  0  0  0  0  0  0  0  0  0
  -29.8080  -20.5130   21.5895 C   0  0  0  0  0  0  0  0  0  0  0  0
  -20.8411  -20.6316   20.4501 C   0  0  0  0  0  0  0  0  0  0  0  0
  -28.7127  -21.3365   22.2595 C   0  0  0  0  0  0  0  0  0  0  0  0
  -21.2486  -19.2159   20.8624 C   0  0  0  0  0  0  0  0  0  0  0  0
  -21.7495  -21.6770   21.0905 C   0  0  0  0  0  0  0  0  0  0  0  0
  -22.2340  -20.1846   22.9910 C   0  0  0  0  0  0  0  0  0  0  0  0
  -27.4955  -21.4881   21.3391 C   0  0  1  0  0  0  0  0  0  0  0  0
  -27.8910  -24.6948   19.3406 C   0  0  1  0  0  0  0  0  0  0  0  0
  -21.3396  -19.0828   22.3942 C   0  0  2  0  0  0  0  0  0  0  0  0
  -19.0283  -29.4770   20.9083 C   0  0  0  0  0  0  0  0  0  0  0  0
  -32.4253  -30.9631   18.9517 C   0  0  0  0  0  0  0  0  0  0  0  0
  -30.3495  -26.1329   22.9804 C   0  0  0  0  0  0  0  0  0  0  0  0
  -31.5402  -28.3152   22.6835 C   0  0  0  0  0  0  0  0  0  0  0  0
  -32.3938  -26.2658   21.5459 C   0  0  0  0  0  0  0  0  0  0  0  0
  -29.6040  -30.0489   16.5683 C   0  0  0  0  0  0  0  0  0  0  0  0
  -21.6408  -29.4057   22.2538 C   0  0  0  0  0  0  0  0  0  0  0  0
  -20.6174  -24.7862   23.8772 C   0  0  0  0  0  0  0  0  0  0  0  0
  -22.9970  -29.0232   21.6712 C   0  0  0  0  0  0  0  0  0  1  0  0
  -30.2721  -27.3560   20.7079 C   0  0  1  0  0  0  0  0  0  0  0  0
  -31.4160  -30.0397   18.2874 C   0  0  2  0  0  0  0  0  0  0  0  0
  -31.1118  -27.0145   21.9711 C   0  0  0  0  0  0  0  0  0  0  0  0
  -22.6454  -17.0245   22.0193 N   0  0  0  0  0  0  0  0  0  0  0  0
  -21.7931  -17.6963   22.8120 N   0  0  0  0  0  0  0  0  0  0  0  0
  -28.4136  -25.9622   19.8552 N   0  0  0  0  0  0  0  0  0  0  0  0
  -21.7775  -21.5068   22.5501 N   0  0  0  0  0  0  0  0  0  0  0  0
  -20.5827  -17.5435   24.8423 N   0  0  0  0  0  0  0  0  0  0  0  0
  -22.7645  -13.5950   24.6304 N   0  0  0  0  0  0  0  0  0  0  0  0
  -27.7507  -22.4879   20.3243 N   0  0  0  0  0  0  0  0  0  0  0  0
  -30.9783  -28.1673   19.7223 N   0  0  0  0  0  0  0  0  0  0  0  0
  -21.0137  -23.6981   23.0113 N   0  0  0  0  0  0  0  0  0  0  0  0
  -30.6205  -30.8371   17.3115 N   0  3  0  0  0  0  0  0  0  0  0  0
  -21.3023  -14.8499   25.8736 O   0  0  0  0  0  0  0  0  0  0  0  0
  -27.1652  -24.3703   21.5638 O   0  0  0  0  0  0  0  0  0  0  0  0
  -30.6339  -25.3296   19.5292 O   0  0  0  0  0  0  0  0  0  0  0  0
  -29.4669  -29.9259   19.7105 O   0  0  0  0  0  0  0  0  0  0  0  0
  -21.4789  -22.2501   24.7265 O   0  0  0  0  0  0  0  0  0  0  0  0
  -26.2033  -11.9463   20.5693 O   0  0  0  0  0  0  0  0  0  0  0  0
  -22.8307  -28.5411   20.3385 O   0  0  0  0  0  0  0  0  0  1  0  0
  -31.0921  -13.5617   18.5960 F   0  0  0  0  0  0  0  0  0  0  0  0
  -26.3639  -13.7559   18.4855 F   0  0  0  0  0  0  0  0  0  0  0  0
  1  2  1  0  0  0  0
  1  5  2  0  0  0  0
  2  6  2  0  0  0  0
  3 10  2  0  0  0  0
  3 18  1  0  0  0  0
  4 11  1  0  0  0  0
  4 18  2  0  0  0  0
  5 20  1  0  0  0  0
  6 22  1  0  0  0  0
  7 12  2  0  0  0  0
  7 21  1  0  0  0  0
  8  9  2  0  0  0  0
  8 24  1  0  0  0  0
  9 25  1  0  0  0  0
 10 27  1  0  0  0  0
 11 27  2  0  0  0  0
 12 28  1  0  0  0  0
 13 14  2  0  0  0  0
 13 29  1  0  0  0  0
 14 30  1  0  0  0  0
 15 23  1  0  0  0  0
 15 28  2  0  0  0  0
 16 24  2  0  0  0  0
 16 26  1  0  0  0  0
 17 30  2  0  0  0  0
 17 31  1  0  0  0  0
 18 32  1  0  0  0  0
 19 32  1  0  0  0  0
 19 33  2  0  0  0  0
 19 34  1  0  0  0  0
 20 22  2  0  0  0  0
 20 39  1  0  0  0  0
 21 23  2  0  0  0  0
 21 40  1  0  0  0  0
 22 48  1  0  0  0  0
 23 41  1  0  0  0  0
 24 58  1  0  0  0  0
 25 26  2  0  0  0  0
 25 51  1  0  0  0  0
 26 57  1  0  0  0  0
 27 78  1  0  0  0  0
 28 79  1  0  0  0  0
 29 31  2  0  0  0  0
 29 78  1  0  0  0  0
 30 80  1  0  0  0  0
 31 81  1  0  0  0  0
 32 63  2  0  0  0  0
 33 64  1  0  0  0  0
 33 67  1  0  0  0  0
 34 68  1  0  0  0  0
 34 73  2  0  0  0  0
 35 49  1  0  0  0  0
 35 69  1  0  0  0  0
 35 74  2  0  0  0  0
 36 60  1  0  0  0  0
 36 65  1  0  0  0  0
 36 75  2  0  0  0  0
 37 61  1  0  0  0  0
 37 70  1  0  0  0  0
 37 76  2  0  0  0  0
 38 66  1  0  0  0  0
 38 71  1  0  0  0  0
 38 77  2  0  0  0  0
 39 42  1  0  0  0  0
 40 49  1  0  0  0  0
 41 65  1  0  0  0  0
 42 44  1  0  0  0  0
 43 45  1  0  0  0  0
 43 46  1  0  0  0  0
 44 48  1  0  0  0  0
 45 50  1  0  0  0  0
 46 66  1  0  0  0  0
 47 50  1  0  0  0  0
 47 66  1  0  0  0  0
 48 69  1  0  0  0  0
 49 65  1  0  0  0  0
 50 64  1  0  0  0  0
 52 61  1  0  0  0  0
 53 62  1  0  0  0  0
 54 62  1  0  0  0  0
 55 62  1  0  0  0  0
 56 72  1  0  0  0  0
 57 59  1  0  0  0  0
 58 71  1  0  0  0  0
 59 79  1  0  0  0  0
 60 62  1  0  0  0  0
 60 70  1  0  0  0  0
 61 72  1  0  0  0  0
 63 64  1  0  0  0  0
M  CHG  1  72   1
M  ISO  4  38 100  59 101  71 100  79 101
M  END
> <Batch ID>
0031

> <Smiles>
CNC(C)C(=O)NC(C(=O)N1Cc2cc([101O:1][101CH2:1]Cc3cc(C[100NH:0][100C:0](=O)N4CCCC(n5nc(-c6ccc(Oc7ccc(F)cc7F)cc6)c(C(N)=O)c5N)C4)ccc3C)ccc2CC1C(=O)NC1CCCc2ccccc21)C(C)(C)C

> <Shape>
0.219

> <Color>
0.066

> <Negative vol penalty>
0.000

$$$$

  -OEChem-04052316423D

 85 94  0     1  0  0  0  0  0999 V2000
  -29.2541  -32.7751   21.2937 C   0  0  0  0  0  0  0  0  0  0  0  0
  -29.0316  -31.4196   21.5143 C   0  0  0  0  0  0  0  0  0  0  0  0
  -22.9717   -9.9915   20.0600 C   0  0  0  0  0  0  0  0  0  0  0  0
  -24.1815   -9.3263   22.0426 C   0  0  0  0  0  0  0  0  0  0  0  0
  -28.2471  -33.6994   21.5686 C   0  0  0  0  0  0  0  0  0  0  0  0
  -27.8023  -30.9878   22.0110 C   0  0  0  0  0  0  0  0  0  0  0  0
  -26.0329  -26.9275   19.5557 C   0  0  0  0  0  0  0  0  0  0  0  0
  -22.2503   -8.7984   20.0999 C   0  0  0  0  0  0  0  0  0  0  0  0
  -23.4601   -8.1332   22.0826 C   0  0  0  0  0  0  0  0  0  0  0  0
  -26.5908  -25.6924   19.8829 C   0  0  0  0  0  0  0  0  0  0  0  0
  -20.3935   -7.1105   23.0677 C   0  0  0  0  0  0  0  0  0  0  0  0
  -19.8893   -6.7008   24.3020 C   0  0  0  0  0  0  0  0  0  0  0  0
  -28.4142  -19.5853   20.4539 C   0  0  0  0  0  0  0  0  0  0  0  0
  -24.6891  -25.2123   21.2873 C   0  0  0  0  0  0  0  0  0  0  0  0
  -28.9996  -20.4505   22.6324 C   0  0  0  0  0  0  0  0  0  0  0  0
  -21.1789   -4.6632   24.1524 C   0  0  0  0  0  0  0  0  0  0  0  0
  -23.9374  -10.2555   21.0313 C   0  0  0  0  0  0  0  0  0  0  0  0
  -24.3447  -12.7072   21.6063 C   0  0  0  0  0  0  0  0  0  0  0  0
  -27.0015  -33.2778   22.0597 C   0  0  0  0  0  0  0  0  0  0  0  0
  -24.8020  -27.3195   20.1013 C   0  0  0  0  0  0  0  0  0  0  0  0
  -26.7781  -31.9075   22.2939 C   0  0  0  0  0  0  0  0  0  0  0  0
  -28.0332  -20.8643   20.0483 C   0  0  0  0  0  0  0  0  0  0  0  0
  -24.1165  -26.4518   20.9634 C   0  0  0  0  0  0  0  0  0  0  0  0
  -28.8973  -19.3783   21.7460 C   0  0  0  0  0  0  0  0  0  0  0  0
  -28.1355  -21.9364   20.9347 C   0  0  0  0  0  0  0  0  0  0  0  0
  -22.4944   -7.8692   21.1112 C   0  0  0  0  0  0  0  0  0  0  0  0
  -25.9203  -24.8358   20.7511 C   0  0  0  0  0  0  0  0  0  0  0  0
  -21.2903   -6.2965   22.3756 C   0  0  0  0  0  0  0  0  0  0  0  0
  -20.2821   -5.4772   24.8444 C   0  0  0  0  0  0  0  0  0  0  0  0
  -21.6830   -5.0729   22.9180 C   0  0  0  0  0  0  0  0  0  0  0  0
  -28.6186  -21.7295   22.2268 C   0  0  0  0  0  0  0  0  0  0  0  0
  -24.6833  -11.4875   20.9903 C   0  0  0  0  0  0  0  0  0  0  0  0
  -25.3683  -13.5584   21.2682 C   0  0  0  0  0  0  0  0  0  0  0  0
  -23.2068  -13.0409   22.4121 C   0  0  0  0  0  0  0  0  0  0  0  0
  -23.8357  -29.6947   21.9797 C   0  0  0  0  0  0  0  0  0  0  0  0
  -20.8957  -28.4781   21.3485 C   0  0  0  0  0  0  0  0  0  0  0  0
  -19.0113  -25.7881   20.4213 C   0  0  0  0  0  0  0  0  0  0  0  0
  -30.8110  -14.6102   20.6231 C   0  0  0  0  0  0  0  0  0  0  0  0
  -25.9600  -34.3185   22.3866 C   0  0  0  0  0  0  0  0  0  0  0  0
  -24.2010  -28.6438   19.7174 C   0  0  0  0  0  0  0  0  0  0  0  0
  -22.7827  -26.8170   21.5601 C   0  0  0  0  0  0  0  0  0  0  0  0
  -24.5564  -33.7431   22.5569 C   0  0  0  0  0  0  0  0  0  0  0  0
  -29.1210  -13.0277   17.9183 C   0  0  0  0  0  0  0  0  0  0  0  0
  -26.1685  -21.6931   18.4640 C   0  0  0  0  0  0  0  0  0  0  0  0
  -26.3510  -20.2328   18.1910 C   0  0  0  0  0  0  0  0  0  0  0  0
  -24.5924  -32.5007   23.4412 C   0  0  0  0  0  0  0  0  0  0  0  0
  -27.7913  -12.5814   18.5287 C   0  0  0  0  0  0  0  0  0  0  0  0
  -30.2709  -12.8994   18.9149 C   0  0  0  0  0  0  0  0  0  0  0  0
  -28.7203  -13.1311   20.8164 C   0  0  0  0  0  0  0  0  0  0  0  0
  -27.5192  -21.0582   18.6596 C   0  0  0  0  0  0  0  0  0  0  0  0
  -25.4494  -31.3977   22.8084 C   0  0  1  0  0  0  0  0  0  0  0  0
  -23.1873  -29.1575   20.7352 C   0  0  1  0  0  0  0  0  0  0  0  0
  -27.5211  -13.2950   19.8670 C   0  0  2  0  0  0  0  0  0  0  0  0
  -16.6329  -25.0900   20.0299 C   0  0  0  0  0  0  0  0  0  0  0  0
  -20.4413  -28.3446   24.3628 C   0  0  0  0  0  0  0  0  0  0  0  0
  -18.5160  -26.8027   23.9340 C   0  0  0  0  0  0  0  0  0  0  0  0
  -18.4678  -29.1326   23.0442 C   0  0  0  0  0  0  0  0  0  0  0  0
  -19.5443  -25.1493   17.5811 C   0  0  0  0  0  0  0  0  0  0  0  0
  -29.3041  -18.0106   22.1792 C   0  0  0  0  0  0  0  0  0  0  0  0
  -27.7220  -23.3066   20.4842 C   0  0  0  0  0  0  0  0  0  1  0  0
  -30.7846  -17.6716   21.9158 C   0  0  0  0  0  0  0  0  0  0  0  0
  -31.2097  -16.2893   22.4066 C   0  0  0  0  0  0  0  0  0  0  0  0
  -20.0117  -27.4333   21.9856 C   0  0  1  0  0  0  0  0  0  0  0  0
  -17.9009  -25.6412   19.3966 C   0  0  2  0  0  0  0  0  0  0  0  0
  -19.3852  -27.9219   23.3221 C   0  0  0  0  0  0  0  0  0  0  0  0
  -25.8321  -11.5538   20.3121 N   0  0  0  0  0  0  0  0  0  0  0  0
  -26.2243  -12.8254   20.4999 N   0  0  0  0  0  0  0  0  0  0  0  0
  -22.2393  -28.1252   21.1592 N   0  0  0  0  0  0  0  0  0  0  0  0
  -29.9519  -13.5992   20.1617 N   0  0  0  0  0  0  0  0  0  0  0  0
  -25.6107  -14.8548   21.5562 N   0  0  0  0  0  0  0  0  0  0  0  0
  -22.2503  -12.0474   22.6616 N   0  0  0  0  0  0  0  0  0  0  0  0
  -24.7179  -30.7334   21.7510 N   0  0  0  0  0  0  0  0  0  0  0  0
  -19.0344  -27.0521   20.9717 N   0  0  0  0  0  0  0  0  0  0  0  0
  -30.4318  -15.2270   21.8090 N   0  0  0  0  0  0  0  0  0  0  0  0
  -18.3216  -24.7170   18.3058 N   0  3  0  0  0  0  0  0  0  0  0  0
  -23.0347  -14.1908   22.8830 O   0  0  0  0  0  0  0  0  0  0  0  0
  -23.5552  -29.2042   23.0671 O   0  0  0  0  0  0  0  0  0  0  0  0
  -20.4102  -29.5647   21.0240 O   0  0  0  0  0  0  0  0  0  0  0  0
  -19.7789  -24.8720   20.7077 O   0  0  0  0  0  0  0  0  0  0  0  0
  -31.8369  -14.9426   20.0198 O   0  0  0  0  0  0  0  0  0  0  0  0
  -21.7905   -6.7050   21.1507 O   0  0  0  0  0  0  0  0  0  0  0  0
  -26.4629  -23.6300   21.0727 O   0  0  0  0  0  0  0  0  0  1  0  0
  -19.7991   -5.0846   26.0305 F   0  0  0  0  0  0  0  0  0  0  0  0
  -22.5452   -4.2871   22.2584 F   0  0  0  0  0  0  0  0  0  0  0  0
  -28.7616  -23.0299   23.3539 Cl  0  0  0  0  0  0  0  0  0  0  0  0
  1  2  1  0  0  0  0
  1  5  2  0  0  0  0
  2  6  2  0  0  0  0
  3  8  2  0  0  0  0
  3 17  1  0  0  0  0
  4  9  1  0  0  0  0
  4 17  2  0  0  0  0
  5 19  1  0  0  0  0
  6 21  1  0  0  0  0
  7 10  2  0  0  0  0
  7 20  1  0  0  0  0
  8 26  1  0  0  0  0
  9 26  2  0  0  0  0
 10 27  1  0  0  0  0
 11 12  2  0  0  0  0
 11 28  1  0  0  0  0
 12 29  1  0  0  0  0
 13 22  1  0  0  0  0
 13 24  2  0  0  0  0
 14 23  1  0  0  0  0
 14 27  2  0  0  0  0
 15 24  1  0  0  0  0
 15 31  2  0  0  0  0
 16 29  2  0  0  0  0
 16 30  1  0  0  0  0
 17 32  1  0  0  0  0
 18 32  1  0  0  0  0
 18 33  2  0  0  0  0
 18 34  1  0  0  0  0
 19 21  2  0  0  0  0
 19 39  1  0  0  0  0
 20 23  2  0  0  0  0
 20 40  1  0  0  0  0
 21 51  1  0  0  0  0
 22 25  2  0  0  0  0
 22 50  1  0  0  0  0
 23 41  1  0  0  0  0
 24 59  1  0  0  0  0
 25 31  1  0  0  0  0
 25 60  1  0  0  0  0
 26 81  1  0  0  0  0
 27 82  1  0  0  0  0
 28 30  2  0  0  0  0
 28 81  1  0  0  0  0
 29 83  1  0  0  0  0
 30 84  1  0  0  0  0
 31 85  1  0  0  0  0
 32 66  2  0  0  0  0
 33 67  1  0  0  0  0
 33 70  1  0  0  0  0
 34 71  1  0  0  0  0
 34 76  2  0  0  0  0
 35 52  1  0  0  0  0
 35 72  1  0  0  0  0
 35 77  2  0  0  0  0
 36 63  1  0  0  0  0
 36 68  1  0  0  0  0
 36 78  2  0  0  0  0
 37 64  1  0  0  0  0
 37 73  1  0  0  0  0
 37 79  2  0  0  0  0
 38 69  1  0  0  0  0
 38 74  1  0  0  0  0
 38 80  2  0  0  0  0
 39 42  1  0  0  0  0
 40 52  1  0  0  0  0
 41 68  1  0  0  0  0
 42 46  1  0  0  0  0
 43 47  1  0  0  0  0
 43 48  1  0  0  0  0
 44 45  1  0  0  0  0
 44 50  1  0  0  0  0
 45 50  1  0  0  0  0
 46 51  1  0  0  0  0
 47 53  1  0  0  0  0
 48 69  1  0  0  0  0
 49 53  1  0  0  0  0
 49 69  1  0  0  0  0
 51 72  1  0  0  0  0
 52 68  1  0  0  0  0
 53 67  1  0  0  0  0
 54 64  1  0  0  0  0
 55 65  1  0  0  0  0
 56 65  1  0  0  0  0
 57 65  1  0  0  0  0
 58 75  1  0  0  0  0
 59 61  1  0  0  0  0
 60 82  1  0  0  0  0
 61 62  1  0  0  0  0
 62 74  1  0  0  0  0
 63 65  1  0  0  0  0
 63 73  1  0  0  0  0
 64 75  1  0  0  0  0
 66 67  1  0  0  0  0
M  CHG  1  75   1
M  ISO  4  38 100  60 101  74 100  82 101
M  END
> <Batch ID>
0031

> <Smiles>
CNC(C)C(=O)NC(C(=O)N1Cc2cc([101O:1][101CH2:1]c3c(Cl)cc(CCC[100NH:0][100C:0](=O)N4CCCC(n5nc(-c6ccc(Oc7ccc(F)cc7F)cc6)c(C(N)=O)c5N)C4)cc3C3CC3)ccc2CC1C(=O)NC1CCCc2ccccc21)C(C)(C)C

> <Shape>
0.368

> <Color>
0.157

> <Negative vol penalty>
0.000

$$$$

  -OEChem-04052316423D

 82 90  0     1  0  0  0  0  0999 V2000
  -22.9441  -28.4943   27.4536 C   0  0  0  0  0  0  0  0  0  0  0  0
  -24.1271  -28.0019   26.9120 C   0  0  0  0  0  0  0  0  0  0  0  0
  -24.7147  -14.0485   21.1805 C   0  0  0  0  0  0  0  0  0  0  0  0
  -26.9075  -13.5735   20.2844 C   0  0  0  0  0  0  0  0  0  0  0  0
  -21.7714  -28.4725   26.6997 C   0  0  0  0  0  0  0  0  0  0  0  0
  -24.1380  -27.4863   25.6164 C   0  0  0  0  0  0  0  0  0  0  0  0
  -28.6984  -27.8549   21.5455 C   0  0  0  0  0  0  0  0  0  0  0  0
  -24.2572  -12.8160   20.7144 C   0  0  0  0  0  0  0  0  0  0  0  0
  -26.4500  -12.3409   19.8183 C   0  0  0  0  0  0  0  0  0  0  0  0
  -29.6971  -26.9567   21.1719 C   0  0  0  0  0  0  0  0  0  0  0  0
  -24.4344   -9.5741   21.6586 C   0  0  0  0  0  0  0  0  0  0  0  0
  -23.6597   -8.8010   22.5234 C   0  0  0  0  0  0  0  0  0  0  0  0
  -28.3406  -26.2305   19.3140 C   0  0  0  0  0  0  0  0  0  0  0  0
  -33.4759  -22.7064   19.8691 C   0  0  0  0  0  0  0  0  0  0  0  0
  -31.7639  -22.8181   18.1682 C   0  0  0  0  0  0  0  0  0  0  0  0
  -21.8328   -8.8646   20.9436 C   0  0  0  0  0  0  0  0  0  0  0  0
  -26.0398  -14.4273   20.9654 C   0  0  0  0  0  0  0  0  0  0  0  0
  -27.0860  -15.9754   22.7023 C   0  0  0  0  0  0  0  0  0  0  0  0
  -21.7700  -27.9653   25.3907 C   0  0  0  0  0  0  0  0  0  0  0  0
  -27.5068  -27.9401   20.8113 C   0  0  0  0  0  0  0  0  0  0  0  0
  -22.9639  -27.4564   24.8448 C   0  0  0  0  0  0  0  0  0  0  0  0
  -27.3294  -27.1324   19.6789 C   0  0  0  0  0  0  0  0  0  0  0  0
  -32.6717  -23.4577   19.0121 C   0  0  0  0  0  0  0  0  0  0  0  0
  -33.3724  -21.3154   19.8820 C   0  0  0  0  0  0  0  0  0  0  0  0
  -31.6603  -21.4271   18.1811 C   0  0  0  0  0  0  0  0  0  0  0  0
  -25.1248  -11.9622   20.0333 C   0  0  0  0  0  0  0  0  0  0  0  0
  -29.5171  -26.1423   20.0578 C   0  0  0  0  0  0  0  0  0  0  0  0
  -23.9082   -9.9925   20.4364 C   0  0  0  0  0  0  0  0  0  0  0  0
  -22.3590   -8.4462   22.1659 C   0  0  0  0  0  0  0  0  0  0  0  0
  -22.6075   -9.6377   20.0789 C   0  0  0  0  0  0  0  0  0  0  0  0
  -32.4646  -20.6758   19.0380 C   0  0  0  0  0  0  0  0  0  0  0  0
  -26.5129  -15.7005   21.4462 C   0  0  0  0  0  0  0  0  0  0  0  0
  -27.3635  -17.3200   22.6663 C   0  0  0  0  0  0  0  0  0  0  0  0
  -27.3444  -15.0939   23.8032 C   0  0  0  0  0  0  0  0  0  0  0  0
  -24.4347  -27.4384   21.4552 C   0  0  0  0  0  0  0  0  0  0  0  0
  -24.0177  -28.6048   18.4571 C   0  0  0  0  0  0  0  0  0  0  0  0
  -25.3308  -29.1634   15.3571 C   0  0  0  0  0  0  0  0  0  0  0  0
  -28.3996  -21.1509   18.1828 C   0  0  0  0  0  0  0  0  0  0  0  0
  -20.4677  -27.9191   24.6315 C   0  0  0  0  0  0  0  0  0  0  0  0
  -26.4503  -28.9331   21.2117 C   0  0  0  0  0  0  0  0  0  0  0  0
  -26.0770  -27.1997   18.8451 C   0  0  0  0  0  0  0  0  0  0  0  0
  -20.6447  -27.7001   23.1312 C   0  0  0  0  0  0  0  0  0  0  0  0
  -25.8635  -21.4008   20.6692 C   0  0  0  0  0  0  0  0  0  0  0  0
  -21.6367  -26.5712   22.8698 C   0  0  0  0  0  0  0  0  0  0  0  0
  -25.7941  -19.9930   21.2636 C   0  0  0  0  0  0  0  0  0  0  0  0
  -26.1366  -21.3663   19.1672 C   0  0  0  0  0  0  0  0  0  0  0  0
  -27.2552  -19.1793   19.3659 C   0  0  0  0  0  0  0  0  0  0  0  0
  -23.0213  -26.9119   23.4340 C   0  0  1  0  0  0  0  0  0  0  0  0
  -25.0623  -28.5708   20.6926 C   0  0  1  0  0  0  0  0  0  0  0  0
  -27.0372  -19.1640   20.8885 C   0  0  2  0  0  0  0  0  0  0  0  0
  -34.2543  -20.5510   20.8164 C   0  0  0  0  0  0  0  0  0  0  0  0
  -24.7371  -30.0995   13.1057 C   0  0  0  0  0  0  0  0  0  0  0  0
  -22.4160  -26.0836   17.8339 C   0  0  0  0  0  0  0  0  0  0  0  0
  -22.6687  -26.6090   15.3991 C   0  0  0  0  0  0  0  0  0  0  0  0
  -21.4513  -28.1912   16.8949 C   0  0  0  0  0  0  0  0  0  0  0  0
  -27.4277  -31.2439   15.5403 C   0  0  0  0  0  0  0  0  0  0  0  0
  -32.7838  -24.9629   18.9982 C   0  0  0  0  0  0  0  0  0  0  0  0
  -30.6739  -20.7845   17.2595 C   0  0  0  0  0  0  0  0  0  0  0  0
  -31.8373  -25.6240   19.9943 C   0  0  0  0  0  0  0  0  0  1  0  0
  -23.9662  -28.0032   17.0735 C   0  0  1  0  0  0  0  0  0  0  0  0
  -25.3347  -30.3968   14.4721 C   0  0  2  0  0  0  0  0  0  0  0  0
  -22.6484  -27.2189   16.8170 C   0  0  0  0  0  0  0  0  0  0  0  0
  -26.4305  -16.7837   20.6690 N   0  0  0  0  0  0  0  0  0  0  0  0
  -26.9553  -17.7521   21.4388 N   0  0  0  0  0  0  0  0  0  0  0  0
  -25.0706  -28.1820   19.2808 N   0  0  0  0  0  0  0  0  0  0  0  0
  -27.3291  -20.5658   18.8790 N   0  0  0  0  0  0  0  0  0  0  0  0
  -27.9143  -18.1632   23.5653 N   0  0  0  0  0  0  0  0  0  0  0  0
  -26.9974  -13.7423   23.6726 N   0  0  0  0  0  0  0  0  0  0  0  0
  -23.7088  -27.8388   22.5607 N   0  0  0  0  0  0  0  0  0  0  0  0
  -24.1988  -29.1016   16.1419 N   0  0  0  0  0  0  0  0  0  0  0  0
  -29.4936  -20.3246   17.9568 N   0  0  0  0  0  0  0  0  0  0  0  0
  -26.7273  -30.8910   14.2786 N   0  3  0  0  0  0  0  0  0  0  0  0
  -27.8525  -15.4963   24.8772 O   0  0  0  0  0  0  0  0  0  0  0  0
  -24.5958  -26.2869   21.0682 O   0  0  0  0  0  0  0  0  0  0  0  0
  -23.1595  -29.4251   18.7922 O   0  0  0  0  0  0  0  0  0  0  0  0
  -26.2391  -28.3355   15.3499 O   0  0  0  0  0  0  0  0  0  0  0  0
  -28.3839  -22.3245   17.7963 O   0  0  0  0  0  0  0  0  0  0  0  0
  -24.6788  -10.7594   19.5786 O   0  0  0  0  0  0  0  0  0  0  0  0
  -30.4901  -25.2642   19.6913 O   0  0  0  0  0  0  0  0  0  1  0  0
  -21.6157   -7.7025   22.9957 F   0  0  0  0  0  0  0  0  0  0  0  0
  -22.0969  -10.0357   18.9055 F   0  0  0  0  0  0  0  0  0  0  0  0
  -32.3362  -18.9488   19.0540 Cl  0  0  0  0  0  0  0  0  0  0  0  0
  1  2  1  0  0  0  0
  1  5  2  0  0  0  0
  2  6  2  0  0  0  0
  3  8  2  0  0  0  0
  3 17  1  0  0  0  0
  4  9  1  0  0  0  0
  4 17  2  0  0  0  0
  5 19  1  0  0  0  0
  6 21  1  0  0  0  0
  7 10  2  0  0  0  0
  7 20  1  0  0  0  0
  8 26  1  0  0  0  0
  9 26  2  0  0  0  0
 10 27  1  0  0  0  0
 11 12  2  0  0  0  0
 11 28  1  0  0  0  0
 12 29  1  0  0  0  0
 13 22  1  0  0  0  0
 13 27  2  0  0  0  0
 14 23  1  0  0  0  0
 14 24  2  0  0  0  0
 15 23  2  0  0  0  0
 15 25  1  0  0  0  0
 16 29  2  0  0  0  0
 16 30  1  0  0  0  0
 17 32  1  0  0  0  0
 18 32  1  0  0  0  0
 18 33  2  0  0  0  0
 18 34  1  0  0  0  0
 19 21  2  0  0  0  0
 19 39  1  0  0  0  0
 20 22  2  0  0  0  0
 20 40  1  0  0  0  0
 21 48  1  0  0  0  0
 22 41  1  0  0  0  0
 23 57  1  0  0  0  0
 24 31  1  0  0  0  0
 24 51  1  0  0  0  0
 25 31  2  0  0  0  0
 25 58  1  0  0  0  0
 26 78  1  0  0  0  0
 27 79  1  0  0  0  0
 28 30  2  0  0  0  0
 28 78  1  0  0  0  0
 29 80  1  0  0  0  0
 30 81  1  0  0  0  0
 31 82  1  0  0  0  0
 32 63  2  0  0  0  0
 33 64  1  0  0  0  0
 33 67  1  0  0  0  0
 34 68  1  0  0  0  0
 34 73  2  0  0  0  0
 35 49  1  0  0  0  0
 35 69  1  0  0  0  0
 35 74  2  0  0  0  0
 36 60  1  0  0  0  0
 36 65  1  0  0  0  0
 36 75  2  0  0  0  0
 37 61  1  0  0  0  0
 37 70  1  0  0  0  0
 37 76  2  0  0  0  0
 38 66  1  0  0  0  0
 38 71  1  0  0  0  0
 38 77  2  0  0  0  0
 39 42  1  0  0  0  0
 40 49  1  0  0  0  0
 41 65  1  0  0  0  0
 42 44  1  0  0  0  0
 43 45  1  0  0  0  0
 43 46  1  0  0  0  0
 44 48  1  0  0  0  0
 45 50  1  0  0  0  0
 46 66  1  0  0  0  0
 47 50  1  0  0  0  0
 47 66  1  0  0  0  0
 48 69  1  0  0  0  0
 49 65  1  0  0  0  0
 50 64  1  0  0  0  0
 52 61  1  0  0  0  0
 53 62  1  0  0  0  0
 54 62  1  0  0  0  0
 55 62  1  0  0  0  0
 56 72  1  0  0  0  0
 57 59  1  0  0  0  0
 58 71  1  0  0  0  0
 59 79  1  0  0  0  0
 60 62  1  0  0  0  0
 60 70  1  0  0  0  0
 61 72  1  0  0  0  0
 63 64  1  0  0  0  0
M  CHG  1  72   1
M  ISO  4  38 100  59 101  71 100  79 101
M  END
> <Batch ID>
0031

> <Smiles>
CNC(C)C(=O)NC(C(=O)N1Cc2cc([101O:1][101CH2:1]Cc3cc(C)c(Cl)c(C[100NH:0][100C:0](=O)N4CCCC(n5nc(-c6ccc(Oc7ccc(F)cc7F)cc6)c(C(N)=O)c5N)C4)c3)ccc2CC1C(=O)NC1CCCc2ccccc21)C(C)(C)C

> <Shape>
0.190

> <Color>
0.071

> <Negative vol penalty>
0.000

$$$$

  -OEChem-04052316423D

 82 90  0     1  0  0  0  0  0999 V2000
  -25.7829  -11.1825   23.8909 C   0  0  0  0  0  0  0  0  0  0  0  0
  -26.6077  -12.3028   23.8929 C   0  0  0  0  0  0  0  0  0  0  0  0
  -22.6940  -29.7654   21.2314 C   0  0  0  0  0  0  0  0  0  0  0  0
  -23.9529  -28.7114   23.0038 C   0  0  0  0  0  0  0  0  0  0  0  0
  -25.0285  -10.8757   22.7592 C   0  0  0  0  0  0  0  0  0  0  0  0
  -26.6795  -13.1164   22.7627 C   0  0  0  0  0  0  0  0  0  0  0  0
  -27.4183  -19.1947   22.6431 C   0  0  0  0  0  0  0  0  0  0  0  0
  -21.6328  -29.9776   22.1113 C   0  0  0  0  0  0  0  0  0  0  0  0
  -22.8916  -28.9236   23.8838 C   0  0  0  0  0  0  0  0  0  0  0  0
  -28.5394  -19.9996   22.4462 C   0  0  0  0  0  0  0  0  0  0  0  0
  -19.1037  -28.1740   23.4438 C   0  0  0  0  0  0  0  0  0  0  0  0
  -17.8182  -27.8779   22.9909 C   0  0  0  0  0  0  0  0  0  0  0  0
  -27.9743  -20.2048   20.1100 C   0  0  0  0  0  0  0  0  0  0  0  0
  -31.6161  -23.7142   21.1747 C   0  0  0  0  0  0  0  0  0  0  0  0
  -17.1636  -30.1763   23.3458 C   0  0  0  0  0  0  0  0  0  0  0  0
  -33.1798  -22.0572   21.8573 C   0  0  0  0  0  0  0  0  0  0  0  0
  -23.8541  -29.1322   21.6777 C   0  0  0  0  0  0  0  0  0  0  0  0
  -26.0316  -29.7776   20.5160 C   0  0  0  0  0  0  0  0  0  0  0  0
  -25.0838  -11.6913   21.6180 C   0  0  0  0  0  0  0  0  0  0  0  0
  -26.5713  -18.8793   21.5709 C   0  0  0  0  0  0  0  0  0  0  0  0
  -25.9262  -12.8194   21.6142 C   0  0  0  0  0  0  0  0  0  0  0  0
  -26.8416  -19.3978   20.2965 C   0  0  0  0  0  0  0  0  0  0  0  0
  -31.8606  -22.4552   21.7117 C   0  0  0  0  0  0  0  0  0  0  0  0
  -32.6831  -24.5253   20.8049 C   0  0  0  0  0  0  0  0  0  0  0  0
  -21.7316  -29.5568   23.4375 C   0  0  0  0  0  0  0  0  0  0  0  0
  -28.8192  -20.5024   21.1789 C   0  0  0  0  0  0  0  0  0  0  0  0
  -19.4193  -29.4713   23.8478 C   0  0  0  0  0  0  0  0  0  0  0  0
  -16.8481  -28.8790   22.9418 C   0  0  0  0  0  0  0  0  0  0  0  0
  -18.4492  -30.4724   23.7988 C   0  0  0  0  0  0  0  0  0  0  0  0
  -24.9505  -28.9122   20.7690 C   0  0  0  0  0  0  0  0  0  0  0  0
  -33.9655  -24.0348   20.9913 C   0  0  0  0  0  0  0  0  0  0  0  0
  -26.7912  -29.1145   19.5834 C   0  0  0  0  0  0  0  0  0  0  0  0
  -26.3233  -31.0656   21.0742 C   0  0  0  0  0  0  0  0  0  0  0  0
  -25.6974  -16.1904   20.1184 C   0  0  0  0  0  0  0  0  0  0  0  0
  -23.6886  -18.1687   18.5143 C   0  0  0  0  0  0  0  0  0  0  0  0
  -22.9855  -21.3282   17.4326 C   0  0  0  0  0  0  0  0  0  0  0  0
  -29.1998  -24.4473   17.6961 C   0  0  0  0  0  0  0  0  0  0  0  0
  -24.2861  -11.2929   20.4016 C   0  0  0  0  0  0  0  0  0  0  0  0
  -25.3510  -18.0316   21.8053 C   0  0  0  0  0  0  0  0  0  0  0  0
  -25.9525  -19.1054   19.1164 C   0  0  0  0  0  0  0  0  0  0  0  0
  -24.1333  -12.4157   19.3788 C   0  0  0  0  0  0  0  0  0  0  0  0
  -25.7812  -24.9773   16.8539 C   0  0  0  0  0  0  0  0  0  0  0  0
  -25.4747  -13.0987   19.1315 C   0  0  0  0  0  0  0  0  0  0  0  0
  -25.3483  -26.1148   17.7805 C   0  0  0  0  0  0  0  0  0  0  0  0
  -26.7626  -24.0312   17.5421 C   0  0  0  0  0  0  0  0  0  0  0  0
  -27.5125  -25.8242   19.0575 C   0  0  0  0  0  0  0  0  0  0  0  0
  -26.0122  -13.7403   20.4164 C   0  0  1  0  0  0  0  0  0  0  0  0
  -24.8425  -17.3528   20.5373 C   0  0  1  0  0  0  0  0  0  0  0  0
  -26.5658  -26.8360   18.3895 C   0  0  2  0  0  0  0  0  0  0  0  0
  -21.2924  -22.6271   16.1121 C   0  0  0  0  0  0  0  0  0  0  0  0
  -24.8450  -17.0400   15.9261 C   0  0  0  0  0  0  0  0  0  0  0  0
  -23.8478  -18.9894   14.7123 C   0  0  0  0  0  0  0  0  0  0  0  0
  -22.3666  -17.3736   15.9031 C   0  0  0  0  0  0  0  0  0  0  0  0
  -22.3098  -23.0327   19.7558 C   0  0  0  0  0  0  0  0  0  0  0  0
  -32.4159  -25.8742   20.2304 C   0  0  0  0  0  0  0  0  0  0  0  0
  -30.7313  -21.5564   22.1218 C   0  0  0  0  0  0  0  0  0  1  0  0
  -32.5329  -25.9496   18.6948 C   0  0  0  0  0  0  0  0  0  0  0  0
  -31.6080  -24.9919   17.9467 C   0  0  0  0  0  0  0  0  0  0  0  0
  -23.7774  -18.9845   17.2472 C   0  0  1  0  0  0  0  0  0  0  0  0
  -21.7135  -22.1544   17.4948 C   0  0  2  0  0  0  0  0  0  0  0  0
  -23.7272  -18.1010   15.9688 C   0  0  0  0  0  0  0  0  0  0  0  0
  -34.2424  -22.8174   21.5097 N   0  0  0  0  0  0  0  0  0  0  0  0
  -25.0138  -27.7854   20.0547 N   0  0  0  0  0  0  0  0  0  0  0  0
  -26.1439  -27.9382   19.3435 N   0  0  0  0  0  0  0  0  0  0  0  0
  -24.7750  -18.2667   19.3951 N   0  0  0  0  0  0  0  0  0  0  0  0
  -27.8946  -24.7777   18.0965 N   0  0  0  0  0  0  0  0  0  0  0  0
  -27.9430  -29.4287   18.9532 N   0  0  0  0  0  0  0  0  0  0  0  0
  -25.4377  -31.6000   22.0199 N   0  0  0  0  0  0  0  0  0  0  0  0
  -25.3260  -14.9859   20.6847 N   0  0  0  0  0  0  0  0  0  0  0  0
  -22.7143  -19.9803   17.3275 N   0  0  0  0  0  0  0  0  0  0  0  0
  -30.2141  -25.2081   18.2644 N   0  0  0  0  0  0  0  0  0  0  0  0
  -21.9151  -23.3514   18.3595 N   0  3  0  0  0  0  0  0  0  0  0  0
  -27.3305  -31.7304   20.7319 O   0  0  0  0  0  0  0  0  0  0  0  0
  -26.6245  -16.3725   19.3380 O   0  0  0  0  0  0  0  0  0  0  0  0
  -22.6887  -17.4757   18.7185 O   0  0  0  0  0  0  0  0  0  0  0  0
  -24.1074  -21.8286   17.4696 O   0  0  0  0  0  0  0  0  0  0  0  0
  -29.4427  -23.5449   16.8877 O   0  0  0  0  0  0  0  0  0  0  0  0
  -20.6963  -29.7639   24.2965 O   0  0  0  0  0  0  0  0  0  0  0  0
  -29.9133  -21.2878   20.9838 O   0  0  0  0  0  0  0  0  0  1  0  0
  -15.6141  -28.5948   22.5054 F   0  0  0  0  0  0  0  0  0  0  0  0
  -18.7468  -31.7208   24.1844 F   0  0  0  0  0  0  0  0  0  0  0  0
  -35.3656  -24.9434   20.5748 Cl  0  0  0  0  0  0  0  0  0  0  0  0
  1  2  1  0  0  0  0
  1  5  2  0  0  0  0
  2  6  2  0  0  0  0
  3  8  2  0  0  0  0
  3 17  1  0  0  0  0
  4  9  1  0  0  0  0
  4 17  2  0  0  0  0
  5 19  1  0  0  0  0
  6 21  1  0  0  0  0
  7 10  2  0  0  0  0
  7 20  1  0  0  0  0
  8 25  1  0  0  0  0
  9 25  2  0  0  0  0
 10 26  1  0  0  0  0
 11 12  2  0  0  0  0
 11 27  1  0  0  0  0
 12 28  1  0  0  0  0
 13 22  1  0  0  0  0
 13 26  2  0  0  0  0
 14 23  2  0  0  0  0
 14 24  1  0  0  0  0
 15 28  2  0  0  0  0
 15 29  1  0  0  0  0
 16 23  1  0  0  0  0
 16 62  2  0  0  0  0
 17 30  1  0  0  0  0
 18 30  1  0  0  0  0
 18 32  2  0  0  0  0
 18 33  1  0  0  0  0
 19 21  2  0  0  0  0
 19 38  1  0  0  0  0
 20 22  2  0  0  0  0
 20 39  1  0  0  0  0
 21 47  1  0  0  0  0
 22 40  1  0  0  0  0
 23 56  1  0  0  0  0
 24 31  2  0  0  0  0
 24 55  1  0  0  0  0
 25 78  1  0  0  0  0
 26 79  1  0  0  0  0
 27 29  2  0  0  0  0
 27 78  1  0  0  0  0
 28 80  1  0  0  0  0
 29 81  1  0  0  0  0
 30 63  2  0  0  0  0
 31 62  1  0  0  0  0
 31 82  1  0  0  0  0
 32 64  1  0  0  0  0
 32 67  1  0  0  0  0
 33 68  1  0  0  0  0
 33 73  2  0  0  0  0
 34 48  1  0  0  0  0
 34 69  1  0  0  0  0
 34 74  2  0  0  0  0
 35 59  1  0  0  0  0
 35 65  1  0  0  0  0
 35 75  2  0  0  0  0
 36 60  1  0  0  0  0
 36 70  1  0  0  0  0
 36 76  2  0  0  0  0
 37 66  1  0  0  0  0
 37 71  1  0  0  0  0
 37 77  2  0  0  0  0
 38 41  1  0  0  0  0
 39 48  1  0  0  0  0
 40 65  1  0  0  0  0
 41 43  1  0  0  0  0
 42 44  1  0  0  0  0
 42 45  1  0  0  0  0
 43 47  1  0  0  0  0
 44 49  1  0  0  0  0
 45 66  1  0  0  0  0
 46 49  1  0  0  0  0
 46 66  1  0  0  0  0
 47 69  1  0  0  0  0
 48 65  1  0  0  0  0
 49 64  1  0  0  0  0
 50 60  1  0  0  0  0
 51 61  1  0  0  0  0
 52 61  1  0  0  0  0
 53 61  1  0  0  0  0
 54 72  1  0  0  0  0
 55 57  1  0  0  0  0
 56 79  1  0  0  0  0
 57 58  1  0  0  0  0
 58 71  1  0  0  0  0
 59 61  1  0  0  0  0
 59 70  1  0  0  0  0
 60 72  1  0  0  0  0
 63 64  1  0  0  0  0
M  CHG  1  72   1
M  ISO  4  37 100  56 101  71 100  79 101
M  END
> <Batch ID>
0031

> <Smiles>
CNC(C)C(=O)NC(C(=O)N1Cc2cc([101O:1][101CH2:1]c3cnc(Cl)c(CCC[100NH:0][100C:0](=O)N4CCCC(n5nc(-c6ccc(Oc7ccc(F)cc7F)cc6)c(C(N)=O)c5N)C4)c3)ccc2CC1C(=O)NC1CCCc2ccccc21)C(C)(C)C

> <Shape>
0.212

> <Color>
0.070

> <Negative vol penalty>
0.000

$$$$

  -OEChem-04052316423D

 81 89  0     1  0  0  0  0  0999 V2000
  -17.6992  -26.7875   22.6075 C   0  0  0  0  0  0  0  0  0  0  0  0
  -18.8349  -26.4373   21.8844 C   0  0  0  0  0  0  0  0  0  0  0  0
  -26.7886  -12.4763   21.0235 C   0  0  0  0  0  0  0  0  0  0  0  0
  -25.3449  -14.3806   21.3789 C   0  0  0  0  0  0  0  0  0  0  0  0
  -17.7151  -27.9175   23.4241 C   0  0  0  0  0  0  0  0  0  0  0  0
  -19.9870  -27.2175   21.9766 C   0  0  0  0  0  0  0  0  0  0  0  0
  -25.7859  -25.2588   21.7740 C   0  0  0  0  0  0  0  0  0  0  0  0
  -25.7765  -11.6259   21.4684 C   0  0  0  0  0  0  0  0  0  0  0  0
  -24.3327  -13.5302   21.8238 C   0  0  0  0  0  0  0  0  0  0  0  0
  -26.7270  -25.2186   20.7461 C   0  0  0  0  0  0  0  0  0  0  0  0
  -22.9364  -10.2723   20.2295 C   0  0  0  0  0  0  0  0  0  0  0  0
  -22.6886   -9.1166   19.4889 C   0  0  0  0  0  0  0  0  0  0  0  0
  -27.6513  -27.3086   21.5187 C   0  0  0  0  0  0  0  0  0  0  0  0
  -30.4842  -23.6625   18.6965 C   0  0  0  0  0  0  0  0  0  0  0  0
  -31.6840  -22.8995   21.0967 C   0  0  0  0  0  0  0  0  0  0  0  0
  -23.1991   -7.7659   21.4260 C   0  0  0  0  0  0  0  0  0  0  0  0
  -26.5728  -13.8537   20.9788 C   0  0  0  0  0  0  0  0  0  0  0  0
  -27.8526  -15.1574   19.1983 C   0  0  0  0  0  0  0  0  0  0  0  0
  -18.8710  -28.7065   23.5338 C   0  0  0  0  0  0  0  0  0  0  0  0
  -25.7635  -26.3315   22.6769 C   0  0  0  0  0  0  0  0  0  0  0  0
  -20.0179  -28.3599   22.7944 C   0  0  0  0  0  0  0  0  0  0  0  0
  -26.7105  -27.3588   22.5587 C   0  0  0  0  0  0  0  0  0  0  0  0
  -31.0239  -24.6294   19.5446 C   0  0  0  0  0  0  0  0  0  0  0  0
  -31.1443  -21.9326   20.2485 C   0  0  0  0  0  0  0  0  0  0  0  0
  -24.5485  -12.1528   21.8685 C   0  0  0  0  0  0  0  0  0  0  0  0
  -27.6580  -26.2450   20.6166 C   0  0  0  0  0  0  0  0  0  0  0  0
  -23.3157  -10.1749   21.5683 C   0  0  0  0  0  0  0  0  0  0  0  0
  -22.8199   -7.8634   20.0871 C   0  0  0  0  0  0  0  0  0  0  0  0
  -23.4470   -8.9217   22.1665 C   0  0  0  0  0  0  0  0  0  0  0  0
  -30.5443  -22.3141   19.0485 C   0  0  0  0  0  0  0  0  0  0  0  0
  -31.6238  -24.2480   20.7447 C   0  0  0  0  0  0  0  0  0  0  0  0
  -27.6182  -14.7328   20.5199 C   0  0  0  0  0  0  0  0  0  0  0  0
  -28.9524  -15.9751   19.2904 C   0  0  0  0  0  0  0  0  0  0  0  0
  -27.1400  -14.8411   17.9951 C   0  0  0  0  0  0  0  0  0  0  0  0
  -23.6502  -28.5818   23.4345 C   0  0  0  0  0  0  0  0  0  0  0  0
  -25.8244  -29.3017   25.7317 C   0  0  0  0  0  0  0  0  0  0  0  0
  -29.0668  -29.1860   26.7904 C   0  0  0  0  0  0  0  0  0  0  0  0
  -31.7920  -20.0553   21.7986 C   0  0  0  0  0  0  0  0  0  0  0  0
  -18.8253  -29.9455   24.3926 C   0  0  0  0  0  0  0  0  0  0  0  0
  -24.7589  -26.3467   23.7963 C   0  0  0  0  0  0  0  0  0  0  0  0
  -26.7416  -28.5225   23.5143 C   0  0  0  0  0  0  0  0  0  0  0  0
  -20.2052  -30.5072   24.7254 C   0  0  0  0  0  0  0  0  0  0  0  0
  -32.1512  -16.7732   23.1312 C   0  0  0  0  0  0  0  0  0  0  0  0
  -21.0735  -30.5670   23.4727 C   0  0  0  0  0  0  0  0  0  0  0  0
  -31.0232  -15.9847   22.4619 C   0  0  0  0  0  0  0  0  0  0  0  0
  -31.7276  -18.2047   23.4557 C   0  0  0  0  0  0  0  0  0  0  0  0
  -30.0466  -18.1715   21.6549 C   0  0  0  0  0  0  0  0  0  0  0  0
  -21.2946  -29.1670   22.8873 C   0  0  1  0  0  0  0  0  0  0  0  0
  -24.5005  -27.7452   24.3483 C   0  0  1  0  0  0  0  0  0  0  0  0
  -30.4472  -16.7434   21.2503 C   0  0  2  0  0  0  0  0  0  0  0  0
  -30.5444  -29.8910   28.6922 C   0  0  0  0  0  0  0  0  0  0  0  0
  -25.7761  -32.1733   24.7016 C   0  0  0  0  0  0  0  0  0  0  0  0
  -27.9010  -32.5866   25.9595 C   0  0  0  0  0  0  0  0  0  0  0  0
  -25.8253  -31.9594   27.1928 C   0  0  0  0  0  0  0  0  0  0  0  0
  -29.7956  -26.3863   27.4145 C   0  0  0  0  0  0  0  0  0  0  0  0
  -30.9390  -26.0774   19.1269 C   0  0  0  0  0  0  0  0  0  0  0  0
  -29.8371  -26.8300   19.8647 C   0  0  0  0  0  0  0  0  0  1  0  0
  -27.0269  -30.2102   25.8186 C   0  0  1  0  0  0  0  0  0  0  0  0
  -29.6787  -28.7798   28.1189 C   0  0  2  0  0  0  0  0  0  0  0  0
  -26.6308  -31.7116   25.8988 C   0  0  0  0  0  0  0  0  0  0  0  0
  -28.4983  -15.2387   21.3878 N   0  0  0  0  0  0  0  0  0  0  0  0
  -29.2966  -15.9896   20.6100 N   0  0  0  0  0  0  0  0  0  0  0  0
  -25.7350  -28.4952   24.5883 N   0  0  0  0  0  0  0  0  0  0  0  0
  -31.1962  -18.8624   22.2599 N   0  0  0  0  0  0  0  0  0  0  0  0
  -29.6489  -16.6758   18.3705 N   0  0  0  0  0  0  0  0  0  0  0  0
  -26.0332  -13.9854   18.0794 N   0  0  0  0  0  0  0  0  0  0  0  0
  -31.2228  -20.5716   20.6350 N   0  0  0  0  0  0  0  0  0  0  0  0
  -22.2921  -28.4508   23.6532 N   0  0  0  0  0  0  0  0  0  0  0  0
  -27.8139  -29.7384   26.9528 N   0  0  0  0  0  0  0  0  0  0  0  0
  -30.5249  -27.5648   27.9495 N   0  3  0  0  0  0  0  0  0  0  0  0
  -27.4846  -15.2906   16.8758 O   0  0  0  0  0  0  0  0  0  0  0  0
  -24.1867  -29.2946   22.5944 O   0  0  0  0  0  0  0  0  0  0  0  0
  -24.9987  -29.3022   26.6481 O   0  0  0  0  0  0  0  0  0  0  0  0
  -29.6440  -29.0322   25.7163 O   0  0  0  0  0  0  0  0  0  0  0  0
  -32.7550  -20.5655   22.3768 O   0  0  0  0  0  0  0  0  0  0  0  0
  -23.5606  -11.3232   22.3024 O   0  0  0  0  0  0  0  0  0  0  0  0
  -28.5773  -26.2085   19.6138 O   0  0  0  0  0  0  0  0  0  1  0  0
  -22.5804   -6.7537   19.3762 F   0  0  0  0  0  0  0  0  0  0  0  0
  -23.8098   -8.8217   23.4527 F   0  0  0  0  0  0  0  0  0  0  0  0
  -29.8633  -21.1493   17.9697 Cl  0  0  0  0  0  0  0  0  0  0  0  0
  -32.3009  -25.4171   21.8191 Cl  0  0  0  0  0  0  0  0  0  0  0  0
  1  2  1  0  0  0  0
  1  5  2  0  0  0  0
  2  6  2  0  0  0  0
  3  8  2  0  0  0  0
  3 17  1  0  0  0  0
  4  9  1  0  0  0  0
  4 17  2  0  0  0  0
  5 19  1  0  0  0  0
  6 21  1  0  0  0  0
  7 10  2  0  0  0  0
  7 20  1  0  0  0  0
  8 25  1  0  0  0  0
  9 25  2  0  0  0  0
 10 26  1  0  0  0  0
 11 12  2  0  0  0  0
 11 27  1  0  0  0  0
 12 28  1  0  0  0  0
 13 22  1  0  0  0  0
 13 26  2  0  0  0  0
 14 23  1  0  0  0  0
 14 30  2  0  0  0  0
 15 24  2  0  0  0  0
 15 31  1  0  0  0  0
 16 28  2  0  0  0  0
 16 29  1  0  0  0  0
 17 32  1  0  0  0  0
 18 32  1  0  0  0  0
 18 33  2  0  0  0  0
 18 34  1  0  0  0  0
 19 21  2  0  0  0  0
 19 39  1  0  0  0  0
 20 22  2  0  0  0  0
 20 40  1  0  0  0  0
 21 48  1  0  0  0  0
 22 41  1  0  0  0  0
 23 31  2  0  0  0  0
 23 56  1  0  0  0  0
 24 30  1  0  0  0  0
 24 67  1  0  0  0  0
 25 76  1  0  0  0  0
 26 77  1  0  0  0  0
 27 29  2  0  0  0  0
 27 76  1  0  0  0  0
 28 78  1  0  0  0  0
 29 79  1  0  0  0  0
 30 80  1  0  0  0  0
 31 81  1  0  0  0  0
 32 61  2  0  0  0  0
 33 62  1  0  0  0  0
 33 65  1  0  0  0  0
 34 66  1  0  0  0  0
 34 71  2  0  0  0  0
 35 49  1  0  0  0  0
 35 68  1  0  0  0  0
 35 72  2  0  0  0  0
 36 58  1  0  0  0  0
 36 63  1  0  0  0  0
 36 73  2  0  0  0  0
 37 59  1  0  0  0  0
 37 69  1  0  0  0  0
 37 74  2  0  0  0  0
 38 64  1  0  0  0  0
 38 67  1  0  0  0  0
 38 75  2  0  0  0  0
 39 42  1  0  0  0  0
 40 49  1  0  0  0  0
 41 63  1  0  0  0  0
 42 44  1  0  0  0  0
 43 45  1  0  0  0  0
 43 46  1  0  0  0  0
 44 48  1  0  0  0  0
 45 50  1  0  0  0  0
 46 64  1  0  0  0  0
 47 50  1  0  0  0  0
 47 64  1  0  0  0  0
 48 68  1  0  0  0  0
 49 63  1  0  0  0  0
 50 62  1  0  0  0  0
 51 59  1  0  0  0  0
 52 60  1  0  0  0  0
 53 60  1  0  0  0  0
 54 60  1  0  0  0  0
 55 70  1  0  0  0  0
 56 57  1  0  0  0  0
 57 77  1  0  0  0  0
 58 60  1  0  0  0  0
 58 69  1  0  0  0  0
 59 70  1  0  0  0  0
 61 62  1  0  0  0  0
M  CHG  1  70   1
M  ISO  4  38 100  57 101  67 100  77 101
M  END
> <Batch ID>
0031

> <Smiles>
CNC(C)C(=O)NC(C(=O)N1Cc2cc([101O:1][101CH2:1]Cc3cc(Cl)c([100NH:0][100C:0](=O)N4CCCC(n5nc(-c6ccc(Oc7ccc(F)cc7F)cc6)c(C(N)=O)c5N)C4)cc3Cl)ccc2CC1C(=O)NC1CCCc2ccccc21)C(C)(C)C

> <Shape>
0.275

> <Color>
0.069

> <Negative vol penalty>
0.000

$$$$

  -OEChem-04052316423D

 87 96  0     1  0  0  0  0  0999 V2000
  -14.3844  -17.0883   16.8846 C   0  0  0  0  0  0  0  0  0  0  0  0
  -15.7077  -16.7521   17.1513 C   0  0  0  0  0  0  0  0  0  0  0  0
  -27.4124  -23.5898   20.5860 C   0  0  0  0  0  0  0  0  0  0  0  0
  -28.8667  -23.5582   18.6570 C   0  0  0  0  0  0  0  0  0  0  0  0
  -13.9998  -18.4281   16.8516 C   0  0  0  0  0  0  0  0  0  0  0  0
  -16.6475  -17.7555   17.3841 C   0  0  0  0  0  0  0  0  0  0  0  0
  -19.6379  -16.7363   21.3419 C   0  0  0  0  0  0  0  0  0  0  0  0
  -27.5324  -24.9778   20.6538 C   0  0  0  0  0  0  0  0  0  0  0  0
  -28.9867  -24.9463   18.7248 C   0  0  0  0  0  0  0  0  0  0  0  0
  -20.6727  -15.8240   21.1398 C   0  0  0  0  0  0  0  0  0  0  0  0
  -26.2363  -27.6703   19.0714 C   0  0  0  0  0  0  0  0  0  0  0  0
  -25.0728  -28.4124   19.2739 C   0  0  0  0  0  0  0  0  0  0  0  0
  -22.2298  -17.6514   20.9053 C   0  0  0  0  0  0  0  0  0  0  0  0
  -26.0000  -29.3087   21.3169 C   0  0  0  0  0  0  0  0  0  0  0  0
  -28.0796  -22.8800   19.5877 C   0  0  0  0  0  0  0  0  0  0  0  0
  -26.9930  -20.7095   18.8029 C   0  0  0  0  0  0  0  0  0  0  0  0
  -14.9334  -19.4481   17.0936 C   0  0  0  0  0  0  0  0  0  0  0  0
  -19.8898  -18.1155   21.3163 C   0  0  0  0  0  0  0  0  0  0  0  0
  -16.2754  -19.1103   17.3530 C   0  0  0  0  0  0  0  0  0  0  0  0
  -21.1970  -18.5791   21.1099 C   0  0  0  0  0  0  0  0  0  0  0  0
  -24.8306  -13.0006   21.5481 C   0  0  0  0  0  0  0  0  0  0  0  0
  -25.5662  -13.2955   20.3923 C   0  0  0  0  0  0  0  0  0  0  0  0
  -24.7412  -11.6721   21.9755 C   0  0  0  0  0  0  0  0  0  0  0  0
  -28.3195  -25.6561   19.7231 C   0  0  0  0  0  0  0  0  0  0  0  0
  -21.9683  -16.2816   20.9186 C   0  0  0  0  0  0  0  0  0  0  0  0
  -27.2817  -27.7473   19.9917 C   0  0  0  0  0  0  0  0  0  0  0  0
  -24.9546  -29.2316   20.3966 C   0  0  0  0  0  0  0  0  0  0  0  0
  -27.1636  -28.5666   21.1144 C   0  0  0  0  0  0  0  0  0  0  0  0
  -27.9566  -21.4461   19.5175 C   0  0  0  0  0  0  0  0  0  0  0  0
  -26.1438  -12.2292   19.7074 C   0  0  0  0  0  0  0  0  0  0  0  0
  -25.3657  -10.6915   21.2221 C   0  0  0  0  0  0  0  0  0  0  0  0
  -27.3052  -19.3967   19.0587 C   0  0  0  0  0  0  0  0  0  0  0  0
  -25.9124  -21.1708   17.9812 C   0  0  0  0  0  0  0  0  0  0  0  0
  -18.9132  -20.5410   19.5089 C   0  0  0  0  0  0  0  0  0  0  0  0
  -20.5613  -22.3083   21.6728 C   0  0  0  0  0  0  0  0  0  0  0  0
  -23.0433  -22.4486   24.0110 C   0  0  0  0  0  0  0  0  0  0  0  0
  -31.0566  -15.2961   19.5663 C   0  0  0  0  0  0  0  0  0  0  0  0
  -14.4805  -20.8837   17.0006 C   0  0  0  0  0  0  0  0  0  0  0  0
  -18.7674  -19.0861   21.5626 C   0  0  0  0  0  0  0  0  0  0  0  0
  -24.1790  -14.0853   22.3728 C   0  0  0  0  0  0  0  0  0  0  0  0
  -25.6888  -14.6937   19.8562 C   0  0  0  0  0  0  0  0  0  0  0  0
  -21.5236  -20.0493   21.0932 C   0  0  0  0  0  0  0  0  0  0  0  0
  -15.4591  -21.8730   17.6282 C   0  0  0  0  0  0  0  0  0  0  0  0
  -25.3535  -15.7613   20.8989 C   0  0  0  0  0  0  0  0  0  0  0  0
  -30.5038  -17.3660   22.4100 C   0  0  0  0  0  0  0  0  0  0  0  0
  -16.8857  -21.5687   17.1818 C   0  0  0  0  0  0  0  0  0  0  0  0
  -29.7182  -18.5535   21.8509 C   0  0  0  0  0  0  0  0  0  0  0  0
  -31.5514  -16.8651   21.4183 C   0  0  0  0  0  0  0  0  0  0  0  0
  -30.2449  -17.7324   19.5170 C   0  0  0  0  0  0  0  0  0  0  0  0
  -17.3189  -20.1693   17.6351 C   0  0  1  0  0  0  0  0  0  0  0  0
  -19.0476  -20.4778   21.0041 C   0  0  1  0  0  0  0  0  0  0  0  0
  -29.1385  -18.2371   20.4591 C   0  0  2  0  0  0  0  0  0  0  0  0
  -24.0651  -15.4284   21.6453 C   0  0  1  0  0  0  0  0  0  1  0  0
  -23.9992  -11.3014   23.2185 C   0  0  0  0  0  0  0  0  0  0  0  0
  -25.2943   -9.2581   21.6372 C   0  0  0  0  0  0  0  0  0  0  0  0
  -24.1801  -24.0393   25.5840 C   0  0  0  0  0  0  0  0  0  0  0  0
  -22.0654  -23.5500   19.3263 C   0  0  0  0  0  0  0  0  0  0  0  0
  -23.7794  -24.3773   20.9529 C   0  0  0  0  0  0  0  0  0  0  0  0
  -21.4186  -25.1651   21.1228 C   0  0  0  0  0  0  0  0  0  0  0  0
  -22.2530  -20.8560   26.3770 C   0  0  0  0  0  0  0  0  0  0  0  0
  -26.9086  -12.4558   18.4429 C   0  0  0  0  0  0  0  0  0  0  0  0
  -28.3143  -13.0129   18.7095 C   0  0  0  0  0  0  0  0  0  0  0  0
  -29.0735  -13.2747   17.4054 C   0  0  0  0  0  0  0  0  0  0  0  0
  -30.4694  -13.8415   17.6432 C   0  0  0  0  0  0  0  0  0  0  0  0
  -21.9855  -22.7943   21.7938 C   0  0  1  0  0  0  0  0  0  0  0  0
  -23.0693  -23.0137   25.4196 C   0  0  2  0  0  0  0  0  0  0  0  0
  -22.3060  -23.9440   20.7973 C   0  0  0  0  0  0  0  0  0  0  0  0
  -28.8164  -20.6660   20.1779 N   0  0  0  0  0  0  0  0  0  0  0  0
  -26.0641  -10.9364   20.0939 N   0  0  0  0  0  0  0  0  0  0  0  0
  -28.3941  -19.4256   19.8793 N   0  0  0  0  0  0  0  0  0  0  0  0
  -20.3910  -20.9588   21.3327 N   0  0  0  0  0  0  0  0  0  0  0  0
  -30.9366  -16.5818   20.1192 N   0  0  0  0  0  0  0  0  0  0  0  0
  -26.7516  -18.2319   18.6595 N   0  0  0  0  0  0  0  0  0  0  0  0
  -25.7342  -22.5522   17.8251 N   0  0  0  0  0  0  0  0  0  0  0  0
  -17.6650  -20.1778   19.0403 N   0  0  0  0  0  0  0  0  0  0  0  0
  -22.1784  -23.1479   23.1960 N   0  0  0  0  0  0  0  0  0  0  0  0
  -30.4392  -15.1107   18.3354 N   0  0  0  0  0  0  0  0  0  0  0  0
  -23.2863  -21.9228   26.4115 N   0  3  0  0  0  0  0  0  0  0  0  0
  -25.1181  -20.3816   17.4157 O   0  0  0  0  0  0  0  0  0  0  0  0
  -19.8706  -20.8946   18.8306 O   0  0  0  0  0  0  0  0  0  0  0  0
  -19.6342  -23.0953   21.8796 O   0  0  0  0  0  0  0  0  0  0  0  0
  -23.7250  -21.4855   23.6669 O   0  0  0  0  0  0  0  0  0  0  0  0
  -31.6641  -14.3798   20.1305 O   0  0  0  0  0  0  0  0  0  0  0  0
  -28.4366  -27.0105   19.7888 O   0  0  0  0  0  0  0  0  0  0  0  0
  -22.9801  -15.3933   20.7205 O   0  0  0  0  0  0  0  0  0  1  0  0
  -23.8378  -29.9454   20.5902 F   0  0  0  0  0  0  0  0  0  0  0  0
  -28.1650  -28.6456   22.0014 F   0  0  0  0  0  0  0  0  0  0  0  0
  1  2  1  0  0  0  0
  1  5  2  0  0  0  0
  2  6  2  0  0  0  0
  3  8  2  0  0  0  0
  3 15  1  0  0  0  0
  4  9  1  0  0  0  0
  4 15  2  0  0  0  0
  5 17  1  0  0  0  0
  6 19  1  0  0  0  0
  7 10  2  0  0  0  0
  7 18  1  0  0  0  0
  8 24  1  0  0  0  0
  9 24  2  0  0  0  0
 10 25  1  0  0  0  0
 11 12  2  0  0  0  0
 11 26  1  0  0  0  0
 12 27  1  0  0  0  0
 13 20  1  0  0  0  0
 13 25  2  0  0  0  0
 14 27  2  0  0  0  0
 14 28  1  0  0  0  0
 15 29  1  0  0  0  0
 16 29  1  0  0  0  0
 16 32  2  0  0  0  0
 16 33  1  0  0  0  0
 17 19  2  0  0  0  0
 17 38  1  0  0  0  0
 18 20  2  0  0  0  0
 18 39  1  0  0  0  0
 19 50  1  0  0  0  0
 20 42  1  0  0  0  0
 21 22  2  0  0  0  0
 21 23  1  0  0  0  0
 21 40  1  0  0  0  0
 22 30  1  0  0  0  0
 22 41  1  0  0  0  0
 23 31  2  0  0  0  0
 23 54  1  0  0  0  0
 24 84  1  0  0  0  0
 25 85  1  0  0  0  0
 26 28  2  0  0  0  0
 26 84  1  0  0  0  0
 27 86  1  0  0  0  0
 28 87  1  0  0  0  0
 29 68  2  0  0  0  0
 30 61  1  0  0  0  0
 30 69  2  0  0  0  0
 31 55  1  0  0  0  0
 31 69  1  0  0  0  0
 32 70  1  0  0  0  0
 32 73  1  0  0  0  0
 33 74  1  0  0  0  0
 33 79  2  0  0  0  0
 34 51  1  0  0  0  0
 34 75  1  0  0  0  0
 34 80  2  0  0  0  0
 35 65  1  0  0  0  0
 35 71  1  0  0  0  0
 35 81  2  0  0  0  0
 36 66  1  0  0  0  0
 36 76  1  0  0  0  0
 36 82  2  0  0  0  0
 37 72  1  0  0  0  0
 37 77  1  0  0  0  0
 37 83  2  0  0  0  0
 38 43  1  0  0  0  0
 39 51  1  0  0  0  0
 40 53  1  0  0  0  0
 41 44  1  0  0  0  0
 42 71  1  0  0  0  0
 43 46  1  0  0  0  0
 44 53  1  0  0  0  0
 45 47  1  0  0  0  0
 45 48  1  0  0  0  0
 46 50  1  0  0  0  0
 47 52  1  0  0  0  0
 48 72  1  0  0  0  0
 49 52  1  0  0  0  0
 49 72  1  0  0  0  0
 50 75  1  0  0  0  0
 51 71  1  0  0  0  0
 52 70  1  0  0  0  0
 53 85  1  0  0  0  0
 56 66  1  0  0  0  0
 57 67  1  0  0  0  0
 58 67  1  0  0  0  0
 59 67  1  0  0  0  0
 60 78  1  0  0  0  0
 61 62  1  0  0  0  0
 62 63  1  0  0  0  0
 63 64  1  0  0  0  0
 64 77  1  0  0  0  0
 65 67  1  0  0  0  0
 65 76  1  0  0  0  0
 66 78  1  0  0  0  0
 68 70  1  0  0  0  0
M  CHG  1  78   1
M  ISO  4  37 100  53 101  77 100  85 101
M  END
> <Batch ID>
0031

> <Smiles>
CNC(C)C(=O)NC(C(=O)N1Cc2cc([101O:1][101CH:1]3CCc4c(CCCC[100NH:0][100C:0](=O)N5CCCC(n6nc(-c7ccc(Oc8ccc(F)cc8F)cc7)c(C(N)=O)c6N)C5)nc(C)c(C)c4C3)ccc2CC1C(=O)NC1CCCc2ccccc21)C(C)(C)C

> <Shape>
0.195

> <Color>
0.094

> <Negative vol penalty>
0.000

$$$$

  -OEChem-04052316423D

 85 94  0     1  0  0  0  0  0999 V2000
  -24.4769  -29.8438   24.4770 C   0  0  0  0  0  0  0  0  0  0  0  0
  -25.1233  -28.6953   24.0314 C   0  0  0  0  0  0  0  0  0  0  0  0
  -23.0938   -9.9732   19.8902 C   0  0  0  0  0  0  0  0  0  0  0  0
  -23.9416   -9.7913   22.1452 C   0  0  0  0  0  0  0  0  0  0  0  0
  -24.0833  -30.8200   23.5627 C   0  0  0  0  0  0  0  0  0  0  0  0
  -25.3756  -28.5219   22.6710 C   0  0  0  0  0  0  0  0  0  0  0  0
  -30.0698  -26.8534   21.7628 C   0  0  0  0  0  0  0  0  0  0  0  0
  -22.3726   -8.7923   20.0661 C   0  0  0  0  0  0  0  0  0  0  0  0
  -23.2204   -8.6104   22.3211 C   0  0  0  0  0  0  0  0  0  0  0  0
  -30.3156  -25.4973   21.9738 C   0  0  0  0  0  0  0  0  0  0  0  0
  -20.0267   -7.7177   22.9724 C   0  0  0  0  0  0  0  0  0  0  0  0
  -19.3161   -7.5654   24.1629 C   0  0  0  0  0  0  0  0  0  0  0  0
  -30.1124  -25.0978   19.6035 C   0  0  0  0  0  0  0  0  0  0  0  0
  -30.3948  -18.4882   23.1182 C   0  0  0  0  0  0  0  0  0  0  0  0
  -32.5199  -17.0310   22.0491 C   0  0  0  0  0  0  0  0  0  0  0  0
  -20.6058   -5.5889   24.6798 C   0  0  0  0  0  0  0  0  0  0  0  0
  -23.8784  -10.4727   20.9298 C   0  0  0  0  0  0  0  0  0  0  0  0
  -24.1881  -13.0033   21.0184 C   0  0  0  0  0  0  0  0  0  0  0  0
  -24.3394  -30.6629   22.1914 C   0  0  0  0  0  0  0  0  0  0  0  0
  -29.8324  -27.3409   20.4696 C   0  0  0  0  0  0  0  0  0  0  0  0
  -24.9838  -29.4963   21.7373 C   0  0  0  0  0  0  0  0  0  0  0  0
  -29.8665  -26.4609   19.3785 C   0  0  0  0  0  0  0  0  0  0  0  0
  -31.3887  -19.1388   22.3872 C   0  0  0  0  0  0  0  0  0  0  0  0
  -32.4512  -18.4103   21.8526 C   0  0  0  0  0  0  0  0  0  0  0  0
  -31.5260  -16.3803   22.7802 C   0  0  0  0  0  0  0  0  0  0  0  0
  -22.4359   -8.1109   21.2815 C   0  0  0  0  0  0  0  0  0  0  0  0
  -30.3340  -24.6189   20.8945 C   0  0  0  0  0  0  0  0  0  0  0  0
  -21.0269   -6.8056   22.6355 C   0  0  0  0  0  0  0  0  0  0  0  0
  -19.6056   -6.5010   25.0166 C   0  0  0  0  0  0  0  0  0  0  0  0
  -21.3164   -5.7412   23.4893 C   0  0  0  0  0  0  0  0  0  0  0  0
  -30.4635  -17.1089   23.3148 C   0  0  0  0  0  0  0  0  0  0  0  0
  -24.6240  -11.6922   20.7485 C   0  0  0  0  0  0  0  0  0  0  0  0
  -25.2572  -13.7968   20.6813 C   0  0  0  0  0  0  0  0  0  0  0  0
  -22.9293  -13.4627   21.5282 C   0  0  0  0  0  0  0  0  0  0  0  0
  -27.3933  -28.7823   19.0285 C   0  0  0  0  0  0  0  0  0  0  0  0
  -29.4990  -29.0356   16.5742 C   0  0  0  0  0  0  0  0  0  0  0  0
  -32.3006  -27.8512   15.0264 C   0  0  0  0  0  0  0  0  0  0  0  0
  -31.0445  -13.7979   20.8289 C   0  0  0  0  0  0  0  0  0  0  0  0
  -23.8529  -31.7235   21.2359 C   0  0  0  0  0  0  0  0  0  0  0  0
  -29.5954  -28.8107   20.2557 C   0  0  0  0  0  0  0  0  0  0  0  0
  -29.6378  -26.9373   17.9681 C   0  0  0  0  0  0  0  0  0  0  0  0
  -24.4919  -31.6363   19.8523 C   0  0  0  0  0  0  0  0  0  0  0  0
  -29.2426  -13.2380   17.8096 C   0  0  0  0  0  0  0  0  0  0  0  0
  -32.0265  -21.4619   23.2589 C   0  0  0  0  0  0  0  0  0  0  0  0
  -24.4813  -30.1963   19.3492 C   0  0  0  0  0  0  0  0  0  0  0  0
  -27.8274  -12.9042   18.2847 C   0  0  0  0  0  0  0  0  0  0  0  0
  -31.3199  -22.8209   23.3298 C   0  0  0  0  0  0  0  0  0  0  0  0
  -29.8864  -21.2552   22.1967 C   0  0  0  0  0  0  0  0  0  0  0  0
  -30.3026  -12.6710   18.7514 C   0  0  0  0  0  0  0  0  0  0  0  0
  -28.7232  -12.7147   20.6428 C   0  0  0  0  0  0  0  0  0  0  0  0
  -31.2927  -20.6366   22.1861 C   0  0  2  0  0  0  0  0  0  0  0  0
  -25.2973  -29.2834   20.2723 C   0  0  1  0  0  0  0  0  0  0  0  0
  -28.8570  -29.1139   18.9556 C   0  0  1  0  0  0  0  0  0  0  0  0
  -27.6185  -13.3133   19.7552 C   0  0  2  0  0  0  0  0  0  0  0  0
  -30.1598  -22.7456   22.3446 C   0  0  2  0  0  0  0  0  0  1  0  0
  -33.5276  -19.0850   21.0674 C   0  0  0  0  0  0  0  0  0  0  0  0
  -33.7552  -28.2394   13.0187 C   0  0  0  0  0  0  0  0  0  0  0  0
  -27.3969  -27.7164   14.7992 C   0  0  0  0  0  0  0  0  0  0  0  0
  -29.1971  -27.2719   13.1169 C   0  0  0  0  0  0  0  0  0  0  0  0
  -28.6186  -29.6194   13.7312 C   0  0  0  0  0  0  0  0  0  0  0  0
  -34.6674  -28.4260   16.7078 C   0  0  0  0  0  0  0  0  0  0  0  0
  -31.6381  -14.9018   22.9709 C   0  0  0  0  0  0  0  0  0  0  0  0
  -29.8680  -28.1763   15.3891 C   0  0  1  0  0  0  0  0  0  0  0  0
  -33.5300  -28.5605   14.4881 C   0  0  2  0  0  0  0  0  0  0  0  0
  -28.7726  -28.1864   14.2858 C   0  0  0  0  0  0  0  0  0  0  0  0
  -25.8727  -11.6510   20.2762 N   0  0  0  0  0  0  0  0  0  0  0  0
  -26.2306  -12.9460   20.2466 N   0  0  0  0  0  0  0  0  0  0  0  0
  -29.4040  -28.3823   17.8111 N   0  0  0  0  0  0  0  0  0  0  0  0
  -30.0479  -13.0975   20.1295 N   0  0  0  0  0  0  0  0  0  0  0  0
  -25.4503  -15.1324   20.7172 N   0  0  0  0  0  0  0  0  0  0  0  0
  -21.9410  -12.5134   21.8224 N   0  0  0  0  0  0  0  0  0  0  0  0
  -26.7136  -29.4529   20.0274 N   0  0  0  0  0  0  0  0  0  0  0  0
  -31.1748  -28.6425   14.9380 N   0  0  0  0  0  0  0  0  0  0  0  0
  -30.7192  -14.1705   22.1274 N   0  0  0  0  0  0  0  0  0  0  0  0
  -34.7420  -28.1471   15.2505 N   0  3  0  0  0  0  0  0  0  0  0  0
  -22.6821  -14.6802   21.7019 O   0  0  0  0  0  0  0  0  0  0  0  0
  -26.9156  -27.9787   18.2362 O   0  0  0  0  0  0  0  0  0  0  0  0
  -29.3094  -30.2434   16.4097 O   0  0  0  0  0  0  0  0  0  0  0  0
  -32.3347  -26.7082   15.4767 O   0  0  0  0  0  0  0  0  0  0  0  0
  -32.1409  -14.0756   20.3311 O   0  0  0  0  0  0  0  0  0  0  0  0
  -21.7321   -6.9587   21.4536 O   0  0  0  0  0  0  0  0  0  0  0  0
  -30.5730  -23.2947   21.0977 O   0  0  0  0  0  0  0  0  0  1  0  0
  -18.9241   -6.3557   26.1606 F   0  0  0  0  0  0  0  0  0  0  0  0
  -22.2770   -4.8625   23.1716 F   0  0  0  0  0  0  0  0  0  0  0  0
  -29.2163  -16.3374   24.2251 Cl  0  0  0  0  0  0  0  0  0  0  0  0
  1  2  1  0  0  0  0
  1  5  2  0  0  0  0
  2  6  2  0  0  0  0
  3  8  2  0  0  0  0
  3 17  1  0  0  0  0
  4  9  1  0  0  0  0
  4 17  2  0  0  0  0
  5 19  1  0  0  0  0
  6 21  1  0  0  0  0
  7 10  2  0  0  0  0
  7 20  1  0  0  0  0
  8 26  1  0  0  0  0
  9 26  2  0  0  0  0
 10 27  1  0  0  0  0
 11 12  2  0  0  0  0
 11 28  1  0  0  0  0
 12 29  1  0  0  0  0
 13 22  1  0  0  0  0
 13 27  2  0  0  0  0
 14 23  1  0  0  0  0
 14 31  2  0  0  0  0
 15 24  1  0  0  0  0
 15 25  2  0  0  0  0
 16 29  2  0  0  0  0
 16 30  1  0  0  0  0
 17 32  1  0  0  0  0
 18 32  1  0  0  0  0
 18 33  2  0  0  0  0
 18 34  1  0  0  0  0
 19 21  2  0  0  0  0
 19 39  1  0  0  0  0
 20 22  2  0  0  0  0
 20 40  1  0  0  0  0
 21 52  1  0  0  0  0
 22 41  1  0  0  0  0
 23 24  2  0  0  0  0
 23 51  1  0  0  0  0
 24 56  1  0  0  0  0
 25 31  1  0  0  0  0
 25 62  1  0  0  0  0
 26 81  1  0  0  0  0
 27 82  1  0  0  0  0
 28 30  2  0  0  0  0
 28 81  1  0  0  0  0
 29 83  1  0  0  0  0
 30 84  1  0  0  0  0
 31 85  1  0  0  0  0
 32 66  2  0  0  0  0
 33 67  1  0  0  0  0
 33 70  1  0  0  0  0
 34 71  1  0  0  0  0
 34 76  2  0  0  0  0
 35 53  1  0  0  0  0
 35 72  1  0  0  0  0
 35 77  2  0  0  0  0
 36 63  1  0  0  0  0
 36 68  1  0  0  0  0
 36 78  2  0  0  0  0
 37 64  1  0  0  0  0
 37 73  1  0  0  0  0
 37 79  2  0  0  0  0
 38 69  1  0  0  0  0
 38 74  1  0  0  0  0
 38 80  2  0  0  0  0
 39 42  1  0  0  0  0
 40 53  1  0  0  0  0
 41 68  1  0  0  0  0
 42 45  1  0  0  0  0
 43 46  1  0  0  0  0
 43 49  1  0  0  0  0
 44 47  1  0  0  0  0
 44 51  1  0  0  0  0
 45 52  1  0  0  0  0
 46 54  1  0  0  0  0
 47 55  1  0  0  0  0
 48 51  1  0  0  0  0
 48 55  1  0  0  0  0
 49 69  1  0  0  0  0
 50 54  1  0  0  0  0
 50 69  1  0  0  0  0
 52 72  1  0  0  0  0
 53 68  1  0  0  0  0
 54 67  1  0  0  0  0
 55 82  1  0  0  0  0
 57 64  1  0  0  0  0
 58 65  1  0  0  0  0
 59 65  1  0  0  0  0
 60 65  1  0  0  0  0
 61 75  1  0  0  0  0
 62 74  1  0  0  0  0
 63 65  1  0  0  0  0
 63 73  1  0  0  0  0
 64 75  1  0  0  0  0
 66 67  1  0  0  0  0
M  CHG  1  75   1
M  ISO  4  38 100  55 101  74 100  82 101
M  END
> <Batch ID>
0031

> <Smiles>
CNC(C)C(=O)NC(C(=O)N1Cc2cc([101O:1][101CH:1]3CCC(c4cc(Cl)c(C[100NH:0][100C:0](=O)N5CCCC(n6nc(-c7ccc(Oc8ccc(F)cc8F)cc7)c(C(N)=O)c6N)C5)cc4C)C3)ccc2CC1C(=O)NC1CCCc2ccccc21)C(C)(C)C

> <Shape>
0.274

> <Color>
0.198

> <Negative vol penalty>
0.000

$$$$

  -OEChem-04052316423D

 82 90  0     1  0  0  0  0  0999 V2000
  -17.5267  -14.8554   22.7433 C   0  0  0  0  0  0  0  0  0  0  0  0
  -18.5885  -15.7158   22.4833 C   0  0  0  0  0  0  0  0  0  0  0  0
  -25.5588  -30.9443   20.5924 C   0  0  0  0  0  0  0  0  0  0  0  0
  -24.3340  -29.2934   21.8618 C   0  0  0  0  0  0  0  0  0  0  0  0
  -17.7751  -13.5610   23.1982 C   0  0  0  0  0  0  0  0  0  0  0  0
  -19.8994  -15.2827   22.6790 C   0  0  0  0  0  0  0  0  0  0  0  0
  -22.9623  -16.5722   18.8579 C   0  0  0  0  0  0  0  0  0  0  0  0
  -24.3765  -31.6498   20.3690 C   0  0  0  0  0  0  0  0  0  0  0  0
  -23.1516  -29.9990   21.6385 C   0  0  0  0  0  0  0  0  0  0  0  0
  -23.4116  -17.8914   18.8194 C   0  0  0  0  0  0  0  0  0  0  0  0
  -21.6181  -32.7430   22.8791 C   0  0  0  0  0  0  0  0  0  0  0  0
  -20.7640  -32.9338   23.9653 C   0  0  0  0  0  0  0  0  0  0  0  0
  -25.5124  -17.1976   19.7810 C   0  0  0  0  0  0  0  0  0  0  0  0
  -24.3195  -21.2065   22.5146 C   0  0  0  0  0  0  0  0  0  0  0  0
  -27.0433  -20.8596   23.0079 C   0  0  0  0  0  0  0  0  0  0  0  0
  -19.0130  -31.7481   22.7968 C   0  0  0  0  0  0  0  0  0  0  0  0
  -25.5376  -29.7661   21.3388 C   0  0  0  0  0  0  0  0  0  0  0  0
  -27.6548  -29.1969   22.6431 C   0  0  0  0  0  0  0  0  0  0  0  0
  -19.0900  -13.1086   23.3903 C   0  0  0  0  0  0  0  0  0  0  0  0
  -23.7820  -15.5557   19.3691 C   0  0  0  0  0  0  0  0  0  0  0  0
  -20.1656  -13.9815   23.1381 C   0  0  0  0  0  0  0  0  0  0  0  0
  -25.0721  -15.8659   19.8225 C   0  0  0  0  0  0  0  0  0  0  0  0
  -25.2411  -21.3608   21.4789 C   0  0  0  0  0  0  0  0  0  0  0  0
  -26.6029  -21.1874   21.7256 C   0  0  0  0  0  0  0  0  0  0  0  0
  -23.1729  -31.1772   20.8921 C   0  0  0  0  0  0  0  0  0  0  0  0
  -24.6857  -18.2048   19.2837 C   0  0  0  0  0  0  0  0  0  0  0  0
  -21.1696  -32.0548   21.7517 C   0  0  0  0  0  0  0  0  0  0  0  0
  -19.4615  -32.4364   23.9241 C   0  0  0  0  0  0  0  0  0  0  0  0
  -24.7598  -20.8787   23.7969 C   0  0  0  0  0  0  0  0  0  0  0  0
  -19.8671  -31.5573   21.7106 C   0  0  0  0  0  0  0  0  0  0  0  0
  -26.1217  -20.7053   24.0436 C   0  0  0  0  0  0  0  0  0  0  0  0
  -26.7585  -29.0366   21.5694 C   0  0  0  0  0  0  0  0  0  0  0  0
  -28.6456  -28.2764   22.4037 C   0  0  0  0  0  0  0  0  0  0  0  0
  -27.5967  -30.0974   23.7573 C   0  0  0  0  0  0  0  0  0  0  0  0
  -23.5833  -13.5281   21.8090 C   0  0  0  0  0  0  0  0  0  0  0  0
  -26.2926  -12.3067   20.5088 C   0  0  0  0  0  0  0  0  0  0  0  0
  -29.0493  -12.8026   18.5592 C   0  0  0  0  0  0  0  0  0  0  0  0
  -28.7758  -23.1262   19.3526 C   0  0  0  0  0  0  0  0  0  0  0  0
  -19.3074  -11.7166   23.9285 C   0  0  0  0  0  0  0  0  0  0  0  0
  -23.2926  -14.1335   19.3790 C   0  0  0  0  0  0  0  0  0  0  0  0
  -25.9987  -14.8082   20.3621 C   0  0  0  0  0  0  0  0  0  0  0  0
  -20.7372  -11.2119   23.7524 C   0  0  0  0  0  0  0  0  0  0  0  0
  -30.8379  -25.9802   18.8243 C   0  0  0  0  0  0  0  0  0  0  0  0
  -21.7374  -12.2814   24.1797 C   0  0  0  0  0  0  0  0  0  0  0  0
  -30.1071  -27.1016   19.5648 C   0  0  0  0  0  0  0  0  0  0  0  0
  -29.8610  -25.0095   18.1644 C   0  0  0  0  0  0  0  0  0  0  0  0
  -28.1128  -25.5649   19.8104 C   0  0  0  0  0  0  0  0  0  0  0  0
  -21.6024  -13.5402   23.3145 C   0  0  1  0  0  0  0  0  0  0  0  0
  -24.0187  -13.2588   20.3964 C   0  0  1  0  0  0  0  0  0  0  0  0
  -29.0555  -26.5377   20.5392 C   0  0  2  0  0  0  0  0  0  0  0  0
  -31.1003  -11.6302   17.7129 C   0  0  0  0  0  0  0  0  0  0  0  0
  -27.5999  -12.6219   23.2477 C   0  0  0  0  0  0  0  0  0  0  0  0
  -29.8280  -12.3538   22.1377 C   0  0  0  0  0  0  0  0  0  0  0  0
  -28.1661  -10.4951   22.0600 C   0  0  0  0  0  0  0  0  0  0  0  0
  -28.2113  -13.1248   15.7391 C   0  0  0  0  0  0  0  0  0  0  0  0
  -24.7401  -21.7179   20.1006 C   0  0  0  0  0  0  0  0  0  0  0  0
  -27.6079  -21.3496   20.6328 C   0  0  0  0  0  0  0  0  0  0  0  0
  -24.1435  -20.5187   19.3719 C   0  0  0  0  0  0  0  0  0  1  0  0
  -27.7699  -12.5707   20.6719 C   0  0  1  0  0  0  0  0  0  0  0  0
  -29.6472  -11.9800   17.4321 C   0  0  2  0  0  0  0  0  0  0  0  0
  -28.3230  -12.0308   22.0210 C   0  0  0  0  0  0  0  0  0  0  0  0
  -27.1459  -28.0889   20.7116 N   0  0  0  0  0  0  0  0  0  0  0  0
  -28.2965  -27.6455   21.2460 N   0  0  0  0  0  0  0  0  0  0  0  0
  -25.4720  -13.4334   20.3568 N   0  0  0  0  0  0  0  0  0  0  0  0
  -28.8916  -24.5102   19.1426 N   0  0  0  0  0  0  0  0  0  0  0  0
  -29.7729  -27.9533   23.0725 N   0  0  0  0  0  0  0  0  0  0  0  0
  -26.5092  -30.9766   23.8499 N   0  0  0  0  0  0  0  0  0  0  0  0
  -22.2321  -13.3386   22.0271 N   0  0  0  0  0  0  0  0  0  0  0  0
  -28.4179  -12.0077   19.4923 N   0  0  0  0  0  0  0  0  0  0  0  0
  -27.8378  -22.7382   20.3015 N   0  0  0  0  0  0  0  0  0  0  0  0
  -29.5852  -12.7363   16.1495 N   0  3  0  0  0  0  0  0  0  0  0  0
  -28.4915  -30.1330   24.6358 O   0  0  0  0  0  0  0  0  0  0  0  0
  -24.4123  -13.8803   22.6400 O   0  0  0  0  0  0  0  0  0  0  0  0
  -25.8825  -11.1433   20.5088 O   0  0  0  0  0  0  0  0  0  0  0  0
  -29.1371  -14.0275   18.6089 O   0  0  0  0  0  0  0  0  0  0  0  0
  -29.4616  -22.2980   18.7437 O   0  0  0  0  0  0  0  0  0  0  0  0
  -22.0190  -31.8655   20.6745 O   0  0  0  0  0  0  0  0  0  0  0  0
  -25.1265  -19.4918   19.2478 O   0  0  0  0  0  0  0  0  0  1  0  0
  -18.6420  -32.6183   24.9679 F   0  0  0  0  0  0  0  0  0  0  0  0
  -23.8619  -20.7337   24.7819 F   0  0  0  0  0  0  0  0  0  0  0  0
  -19.4310  -30.8944   20.6307 F   0  0  0  0  0  0  0  0  0  0  0  0
  -26.6711  -20.3006   25.6241 Cl  0  0  0  0  0  0  0  0  0  0  0  0
  1  2  1  0  0  0  0
  1  5  2  0  0  0  0
  2  6  2  0  0  0  0
  3  8  2  0  0  0  0
  3 17  1  0  0  0  0
  4  9  1  0  0  0  0
  4 17  2  0  0  0  0
  5 19  1  0  0  0  0
  6 21  1  0  0  0  0
  7 10  2  0  0  0  0
  7 20  1  0  0  0  0
  8 25  1  0  0  0  0
  9 25  2  0  0  0  0
 10 26  1  0  0  0  0
 11 12  2  0  0  0  0
 11 27  1  0  0  0  0
 12 28  1  0  0  0  0
 13 22  1  0  0  0  0
 13 26  2  0  0  0  0
 14 23  1  0  0  0  0
 14 29  2  0  0  0  0
 15 24  1  0  0  0  0
 15 31  2  0  0  0  0
 16 28  2  0  0  0  0
 16 30  1  0  0  0  0
 17 32  1  0  0  0  0
 18 32  1  0  0  0  0
 18 33  2  0  0  0  0
 18 34  1  0  0  0  0
 19 21  2  0  0  0  0
 19 39  1  0  0  0  0
 20 22  2  0  0  0  0
 20 40  1  0  0  0  0
 21 48  1  0  0  0  0
 22 41  1  0  0  0  0
 23 24  2  0  0  0  0
 23 56  1  0  0  0  0
 24 57  1  0  0  0  0
 25 77  1  0  0  0  0
 26 78  1  0  0  0  0
 27 30  2  0  0  0  0
 27 77  1  0  0  0  0
 28 79  1  0  0  0  0
 29 31  1  0  0  0  0
 29 80  1  0  0  0  0
 30 81  1  0  0  0  0
 31 82  1  0  0  0  0
 32 62  2  0  0  0  0
 33 63  1  0  0  0  0
 33 66  1  0  0  0  0
 34 67  1  0  0  0  0
 34 72  2  0  0  0  0
 35 49  1  0  0  0  0
 35 68  1  0  0  0  0
 35 73  2  0  0  0  0
 36 59  1  0  0  0  0
 36 64  1  0  0  0  0
 36 74  2  0  0  0  0
 37 60  1  0  0  0  0
 37 69  1  0  0  0  0
 37 75  2  0  0  0  0
 38 65  1  0  0  0  0
 38 70  1  0  0  0  0
 38 76  2  0  0  0  0
 39 42  1  0  0  0  0
 40 49  1  0  0  0  0
 41 64  1  0  0  0  0
 42 44  1  0  0  0  0
 43 45  1  0  0  0  0
 43 46  1  0  0  0  0
 44 48  1  0  0  0  0
 45 50  1  0  0  0  0
 46 65  1  0  0  0  0
 47 50  1  0  0  0  0
 47 65  1  0  0  0  0
 48 68  1  0  0  0  0
 49 64  1  0  0  0  0
 50 63  1  0  0  0  0
 51 60  1  0  0  0  0
 52 61  1  0  0  0  0
 53 61  1  0  0  0  0
 54 61  1  0  0  0  0
 55 71  1  0  0  0  0
 56 58  1  0  0  0  0
 57 70  1  0  0  0  0
 58 78  1  0  0  0  0
 59 61  1  0  0  0  0
 59 69  1  0  0  0  0
 60 71  1  0  0  0  0
 62 63  1  0  0  0  0
M  CHG  1  71   1
M  ISO  4  38 100  58 101  70 100  78 101
M  END
> <Batch ID>
0031

> <Smiles>
CNC(C)C(=O)NC(C(=O)N1Cc2cc([101O:1][101CH2:1]Cc3cc(F)c(Cl)cc3C[100NH:0][100C:0](=O)N3CCCC(n4nc(-c5ccc(Oc6ccc(F)cc6F)cc5)c(C(N)=O)c4N)C3)ccc2CC1C(=O)NC1CCCc2ccccc21)C(C)(C)C

> <Shape>
0.227

> <Color>
0.054

> <Negative vol penalty>
0.000

$$$$

  -OEChem-04052316423D

 82 90  0     1  0  0  0  0  0999 V2000
  -26.4518  -25.8301   24.3271 C   0  0  0  0  0  0  0  0  0  0  0  0
  -25.1721  -25.4978   23.8943 C   0  0  0  0  0  0  0  0  0  0  0  0
  -25.7329  -28.4713   21.5710 C   0  0  0  0  0  0  0  0  0  0  0  0
  -25.0836  -27.9821   19.2959 C   0  0  0  0  0  0  0  0  0  0  0  0
  -27.5589  -25.1652   23.8015 C   0  0  0  0  0  0  0  0  0  0  0  0
  -24.9988  -24.5010   22.9347 C   0  0  0  0  0  0  0  0  0  0  0  0
  -20.3628  -20.5168   22.5610 C   0  0  0  0  0  0  0  0  0  0  0  0
  -26.9782  -27.8864   21.3414 C   0  0  0  0  0  0  0  0  0  0  0  0
  -26.3289  -27.3973   19.0662 C   0  0  0  0  0  0  0  0  0  0  0  0
  -19.2008  -20.4993   21.7907 C   0  0  0  0  0  0  0  0  0  0  0  0
  -29.4687  -26.0977   17.7735 C   0  0  0  0  0  0  0  0  0  0  0  0
  -30.1288  -26.4203   16.5879 C   0  0  0  0  0  0  0  0  0  0  0  0
  -20.3026  -19.0908   20.1717 C   0  0  0  0  0  0  0  0  0  0  0  0
  -17.9944  -22.5792   17.7151 C   0  0  0  0  0  0  0  0  0  0  0  0
  -15.6795  -23.6759   18.8200 C   0  0  0  0  0  0  0  0  0  0  0  0
  -30.1438  -28.7494   17.2300 C   0  0  0  0  0  0  0  0  0  0  0  0
  -24.7856  -28.5191   20.5483 C   0  0  0  0  0  0  0  0  0  0  0  0
  -23.1449  -30.4720   20.5957 C   0  0  0  0  0  0  0  0  0  0  0  0
  -27.3984  -24.1531   22.8421 C   0  0  0  0  0  0  0  0  0  0  0  0
  -21.5087  -19.8292   22.1363 C   0  0  0  0  0  0  0  0  0  0  0  0
  -26.1048  -23.8228   22.3948 C   0  0  0  0  0  0  0  0  0  0  0  0
  -21.4770  -19.0990   20.9397 C   0  0  0  0  0  0  0  0  0  0  0  0
  -16.9052  -21.7587   18.0082 C   0  0  0  0  0  0  0  0  0  0  0  0
  -16.7688  -24.4964   18.5270 C   0  0  0  0  0  0  0  0  0  0  0  0
  -27.2762  -27.3495   20.0890 C   0  0  0  0  0  0  0  0  0  0  0  0
  -19.1715  -19.7886   20.5944 C   0  0  0  0  0  0  0  0  0  0  0  0
  -29.1460  -27.1009   18.6874 C   0  0  0  0  0  0  0  0  0  0  0  0
  -30.4663  -27.7461   16.3161 C   0  0  0  0  0  0  0  0  0  0  0  0
  -29.4836  -28.4267   18.4157 C   0  0  0  0  0  0  0  0  0  0  0  0
  -15.7477  -22.3070   18.5607 C   0  0  0  0  0  0  0  0  0  0  0  0
  -17.9262  -23.9481   17.9745 C   0  0  0  0  0  0  0  0  0  0  0  0
  -23.4988  -29.1227   20.7850 C   0  0  0  0  0  0  0  0  0  0  0  0
  -21.8218  -30.5342   20.9591 C   0  0  0  0  0  0  0  0  0  0  0  0
  -23.9410  -31.5709   20.1327 C   0  0  0  0  0  0  0  0  0  0  0  0
  -24.4722  -20.6747   21.3572 C   0  0  0  0  0  0  0  0  0  0  0  0
  -24.9270  -17.4672   21.1907 C   0  0  0  0  0  0  0  0  0  0  0  0
  -23.5680  -14.3670   20.7564 C   0  0  0  0  0  0  0  0  0  0  0  0
  -17.4419  -26.4549   21.1215 C   0  0  0  0  0  0  0  0  0  0  0  0
  -28.6282  -23.4951   22.2684 C   0  0  0  0  0  0  0  0  0  0  0  0
  -22.7458  -19.8360   22.9919 C   0  0  0  0  0  0  0  0  0  0  0  0
  -22.6741  -18.3275   20.4494 C   0  0  0  0  0  0  0  0  0  0  0  0
  -28.3335  -22.1919   21.5301 C   0  0  0  0  0  0  0  0  0  0  0  0
  -18.6256  -28.4344   23.8340 C   0  0  0  0  0  0  0  0  0  0  0  0
  -27.1431  -22.3670   20.5925 C   0  0  0  0  0  0  0  0  0  0  0  0
  -19.9768  -28.9570   23.3431 C   0  0  0  0  0  0  0  0  0  0  0  0
  -18.3633  -27.0088   23.3532 C   0  0  0  0  0  0  0  0  0  0  0  0
  -19.8373  -27.3367   21.4055 C   0  0  0  0  0  0  0  0  0  0  0  0
  -25.8744  -22.7300   21.3737 C   0  0  1  0  0  0  0  0  0  0  0  0
  -24.0164  -19.5229   22.2077 C   0  0  1  0  0  0  0  0  0  0  0  0
  -20.1218  -28.7910   21.8184 C   0  0  2  0  0  0  0  0  0  0  0  0
  -24.1960  -11.9405   20.6337 C   0  0  0  0  0  0  0  0  0  0  0  0
  -26.0161  -17.8941   18.3726 C   0  0  0  0  0  0  0  0  0  0  0  0
  -25.7292  -15.4405   17.9652 C   0  0  0  0  0  0  0  0  0  0  0  0
  -27.2893  -16.2339   19.7427 C   0  0  0  0  0  0  0  0  0  0  0  0
  -21.8897  -13.6947   23.0995 C   0  0  0  0  0  0  0  0  0  0  0  0
  -17.0196  -20.2831   17.7119 C   0  0  0  0  0  0  0  0  0  0  0  0
  -16.6568  -25.9580   18.8202 C   0  0  0  0  0  0  0  0  0  0  0  0
  -18.2005  -19.6376   18.4287 C   0  0  0  0  0  0  0  0  0  1  0  0
  -24.7948  -16.4235   20.1081 C   0  0  1  0  0  0  0  0  0  0  0  0
  -23.7363  -13.0753   21.5358 C   0  0  2  0  0  0  0  0  0  0  0  0
  -25.9352  -16.5140   19.0551 C   0  0  0  0  0  0  0  0  0  0  0  0
  -22.4826  -28.3812   21.2340 N   0  0  0  0  0  0  0  0  0  0  0  0
  -21.4772  -29.2678   21.3298 N   0  0  0  0  0  0  0  0  0  0  0  0
  -23.8619  -18.3701   21.3182 N   0  0  0  0  0  0  0  0  0  0  0  0
  -18.5154  -26.9198   21.8990 N   0  0  0  0  0  0  0  0  0  0  0  0
  -20.9313  -31.5482   20.9945 N   0  0  0  0  0  0  0  0  0  0  0  0
  -25.2819  -31.3320   19.8022 N   0  0  0  0  0  0  0  0  0  0  0  0
  -25.3170  -21.5542   22.0070 N   0  0  0  0  0  0  0  0  0  0  0  0
  -24.7118  -15.1364   20.7899 N   0  0  0  0  0  0  0  0  0  0  0  0
  -17.6676  -26.4078   19.7513 N   0  0  0  0  0  0  0  0  0  0  0  0
  -22.4460  -12.6799   22.1680 N   0  3  0  0  0  0  0  0  0  0  0  0
  -23.4815  -32.7337   20.0312 O   0  0  0  0  0  0  0  0  0  0  0  0
  -24.0872  -20.7584   20.1969 O   0  0  0  0  0  0  0  0  0  0  0  0
  -25.9349  -17.4765   21.9019 O   0  0  0  0  0  0  0  0  0  0  0  0
  -22.5274  -14.6622   20.1729 O   0  0  0  0  0  0  0  0  0  0  0  0
  -16.3604  -26.1127   21.6117 O   0  0  0  0  0  0  0  0  0  0  0  0
  -28.4914  -26.7789   19.8645 O   0  0  0  0  0  0  0  0  0  0  0  0
  -18.0389  -19.7704   19.8403 O   0  0  0  0  0  0  0  0  0  1  0  0
  -31.1016  -28.0556   15.1782 F   0  0  0  0  0  0  0  0  0  0  0  0
  -29.1774  -29.3947   19.2904 F   0  0  0  0  0  0  0  0  0  0  0  0
  -14.3802  -21.3227   18.9349 Cl  0  0  0  0  0  0  0  0  0  0  0  0
  -19.2936  -24.9324   17.5989 Cl  0  0  0  0  0  0  0  0  0  0  0  0
  1  2  1  0  0  0  0
  1  5  2  0  0  0  0
  2  6  2  0  0  0  0
  3  8  2  0  0  0  0
  3 17  1  0  0  0  0
  4  9  1  0  0  0  0
  4 17  2  0  0  0  0
  5 19  1  0  0  0  0
  6 21  1  0  0  0  0
  7 10  2  0  0  0  0
  7 20  1  0  0  0  0
  8 25  1  0  0  0  0
  9 25  2  0  0  0  0
 10 26  1  0  0  0  0
 11 12  2  0  0  0  0
 11 27  1  0  0  0  0
 12 28  1  0  0  0  0
 13 22  1  0  0  0  0
 13 26  2  0  0  0  0
 14 23  1  0  0  0  0
 14 31  2  0  0  0  0
 15 24  2  0  0  0  0
 15 30  1  0  0  0  0
 16 28  2  0  0  0  0
 16 29  1  0  0  0  0
 17 32  1  0  0  0  0
 18 32  1  0  0  0  0
 18 33  2  0  0  0  0
 18 34  1  0  0  0  0
 19 21  2  0  0  0  0
 19 39  1  0  0  0  0
 20 22  2  0  0  0  0
 20 40  1  0  0  0  0
 21 48  1  0  0  0  0
 22 41  1  0  0  0  0
 23 30  2  0  0  0  0
 23 56  1  0  0  0  0
 24 31  1  0  0  0  0
 24 57  1  0  0  0  0
 25 77  1  0  0  0  0
 26 78  1  0  0  0  0
 27 29  2  0  0  0  0
 27 77  1  0  0  0  0
 28 79  1  0  0  0  0
 29 80  1  0  0  0  0
 30 81  1  0  0  0  0
 31 82  1  0  0  0  0
 32 62  2  0  0  0  0
 33 63  1  0  0  0  0
 33 66  1  0  0  0  0
 34 67  1  0  0  0  0
 34 72  2  0  0  0  0
 35 49  1  0  0  0  0
 35 68  1  0  0  0  0
 35 73  2  0  0  0  0
 36 59  1  0  0  0  0
 36 64  1  0  0  0  0
 36 74  2  0  0  0  0
 37 60  1  0  0  0  0
 37 69  1  0  0  0  0
 37 75  2  0  0  0  0
 38 65  1  0  0  0  0
 38 70  1  0  0  0  0
 38 76  2  0  0  0  0
 39 42  1  0  0  0  0
 40 49  1  0  0  0  0
 41 64  1  0  0  0  0
 42 44  1  0  0  0  0
 43 45  1  0  0  0  0
 43 46  1  0  0  0  0
 44 48  1  0  0  0  0
 45 50  1  0  0  0  0
 46 65  1  0  0  0  0
 47 50  1  0  0  0  0
 47 65  1  0  0  0  0
 48 68  1  0  0  0  0
 49 64  1  0  0  0  0
 50 63  1  0  0  0  0
 51 60  1  0  0  0  0
 52 61  1  0  0  0  0
 53 61  1  0  0  0  0
 54 61  1  0  0  0  0
 55 71  1  0  0  0  0
 56 58  1  0  0  0  0
 57 70  1  0  0  0  0
 58 78  1  0  0  0  0
 59 61  1  0  0  0  0
 59 69  1  0  0  0  0
 60 71  1  0  0  0  0
 62 63  1  0  0  0  0
M  CHG  1  71   1
M  ISO  4  38 100  58 101  70 100  78 101
M  END
> <Batch ID>
0031

> <Smiles>
CNC(C)C(=O)NC(C(=O)N1Cc2cc([101O:1][101CH2:1]Cc3cc(Cl)c(C[100NH:0][100C:0](=O)N4CCCC(n5nc(-c6ccc(Oc7ccc(F)cc7F)cc6)c(C(N)=O)c5N)C4)cc3Cl)ccc2CC1C(=O)NC1CCCc2ccccc21)C(C)(C)C

> <Shape>
0.162

> <Color>
0.100

> <Negative vol penalty>
0.000

$$$$

  -OEChem-04052316423D

 84 92  0     1  0  0  0  0  0999 V2000
  -19.2643  -27.2724   22.4665 C   0  0  0  0  0  0  0  0  0  0  0  0
  -20.3375  -27.2758   23.3503 C   0  0  0  0  0  0  0  0  0  0  0  0
  -26.6046  -12.8092   21.7098 C   0  0  0  0  0  0  0  0  0  0  0  0
  -26.0602  -14.0517   19.7106 C   0  0  0  0  0  0  0  0  0  0  0  0
  -18.6902  -26.0638   22.0779 C   0  0  0  0  0  0  0  0  0  0  0  0
  -20.8447  -26.0703   23.8365 C   0  0  0  0  0  0  0  0  0  0  0  0
  -25.2919  -20.1878   21.6289 C   0  0  0  0  0  0  0  0  0  0  0  0
  -25.3312  -12.2400   21.7028 C   0  0  0  0  0  0  0  0  0  0  0  0
  -24.7868  -13.4824   19.7035 C   0  0  0  0  0  0  0  0  0  0  0  0
  -25.4359  -19.6289   20.3597 C   0  0  0  0  0  0  0  0  0  0  0  0
  -23.7191   -9.7626   20.0607 C   0  0  0  0  0  0  0  0  0  0  0  0
  -23.6214   -8.3898   20.2877 C   0  0  0  0  0  0  0  0  0  0  0  0
  -25.4942  -21.8409   19.3990 C   0  0  0  0  0  0  0  0  0  0  0  0
  -28.8827  -21.4284   14.9687 C   0  0  0  0  0  0  0  0  0  0  0  0
  -29.1002  -19.7329   17.1734 C   0  0  0  0  0  0  0  0  0  0  0  0
  -22.2503   -8.8090   22.2323 C   0  0  0  0  0  0  0  0  0  0  0  0
  -26.9691  -13.7151   20.7137 C   0  0  0  0  0  0  0  0  0  0  0  0
  -29.4423  -13.8049   20.0950 C   0  0  0  0  0  0  0  0  0  0  0  0
  -19.1832  -24.8440   22.5699 C   0  0  0  0  0  0  0  0  0  0  0  0
  -25.2370  -21.5795   21.7917 C   0  0  0  0  0  0  0  0  0  0  0  0
  -20.2942  -24.8389   23.4376 C   0  0  0  0  0  0  0  0  0  0  0  0
  -25.3521  -22.4149   20.6715 C   0  0  0  0  0  0  0  0  0  0  0  0
  -29.9525  -21.5678   15.8528 C   0  0  0  0  0  0  0  0  0  0  0  0
  -27.9216  -20.4413   15.1870 C   0  0  0  0  0  0  0  0  0  0  0  0
  -30.0613  -20.7200   16.9551 C   0  0  0  0  0  0  0  0  0  0  0  0
  -28.0304  -19.5935   16.2892 C   0  0  0  0  0  0  0  0  0  0  0  0
  -24.4223  -12.5766   20.6997 C   0  0  0  0  0  0  0  0  0  0  0  0
  -25.5341  -20.4554   19.2442 C   0  0  0  0  0  0  0  0  0  0  0  0
  -23.0825  -10.6586   20.9196 C   0  0  0  0  0  0  0  0  0  0  0  0
  -22.8870   -7.9130   21.3735 C   0  0  0  0  0  0  0  0  0  0  0  0
  -22.3480  -10.1818   22.0053 C   0  0  0  0  0  0  0  0  0  0  0  0
  -28.2842  -14.3039   20.7207 C   0  0  0  0  0  0  0  0  0  0  0  0
  -30.4187  -14.7221   20.3982 C   0  0  0  0  0  0  0  0  0  0  0  0
  -29.6197  -12.6184   19.3099 C   0  0  0  0  0  0  0  0  0  0  0  0
  -23.0693  -23.6248   22.8972 C   0  0  0  0  0  0  0  0  0  0  0  0
  -25.4626  -25.7767   22.4922 C   0  0  0  0  0  0  0  0  0  0  0  0
  -28.3588  -26.6228   20.8976 C   0  0  0  0  0  0  0  0  0  0  0  0
  -30.2512  -20.5357   21.8210 C   0  0  0  0  0  0  0  0  0  0  0  0
  -18.5291  -23.5648   22.1102 C   0  0  0  0  0  0  0  0  0  0  0  0
  -25.1082  -22.1673   23.1703 C   0  0  0  0  0  0  0  0  0  0  0  0
  -25.3191  -23.9157   20.7947 C   0  0  0  0  0  0  0  0  0  0  0  0
  -18.8433  -22.3779   23.0151 C   0  0  0  0  0  0  0  0  0  0  0  0
  -31.6602  -17.8984   23.7538 C   0  0  0  0  0  0  0  0  0  0  0  0
  -20.3422  -22.2953   23.2622 C   0  0  0  0  0  0  0  0  0  0  0  0
  -31.0592  -16.6331   23.1392 C   0  0  0  0  0  0  0  0  0  0  0  0
  -30.6595  -19.0519   23.7621 C   0  0  0  0  0  0  0  0  0  0  0  0
  -29.4564  -18.0935   21.8366 C   0  0  0  0  0  0  0  0  0  0  0  0
  -20.8430  -23.5415   24.0033 C   0  0  1  0  0  0  0  0  0  0  0  0
  -24.5473  -23.5860   23.1649 C   0  0  1  0  0  0  0  0  0  0  0  0
  -30.4461  -16.9188   21.7551 C   0  0  2  0  0  0  0  0  0  0  0  0
  -30.9696  -22.6314   15.5984 C   0  0  0  0  0  0  0  0  0  0  0  0
  -26.7845  -20.3115   14.2274 C   0  0  0  0  0  0  0  0  0  0  0  0
  -30.4189  -27.9515   20.3610 C   0  0  0  0  0  0  0  0  0  0  0  0
  -23.5169  -27.4401   20.8316 C   0  0  0  0  0  0  0  0  0  0  0  0
  -25.4771  -28.7214   19.9460 C   0  0  0  0  0  0  0  0  0  0  0  0
  -24.9597  -28.7657   22.3858 C   0  0  0  0  0  0  0  0  0  0  0  0
  -29.9626  -25.1696   22.9162 C   0  0  0  0  0  0  0  0  0  0  0  0
  -31.1982  -20.8500   17.9148 C   0  0  0  0  0  0  0  0  0  0  0  0
  -27.0023  -18.5187   16.5464 C   0  0  0  0  0  0  0  0  0  0  0  0
  -31.0390  -21.9902   18.9387 C   0  0  0  0  0  0  0  0  0  0  0  0
  -29.7799  -21.8933   19.7976 C   0  0  0  0  0  0  0  0  0  0  0  0
  -26.3483  -18.6579   17.9168 C   0  0  0  0  0  0  0  0  0  1  0  0
  -25.9220  -26.6644   21.3608 C   0  0  1  0  0  0  0  0  0  0  0  0
  -29.6806  -27.1524   21.4236 C   0  0  2  0  0  0  0  0  0  0  0  0
  -24.9676  -27.8696   21.1282 C   0  0  0  0  0  0  0  0  0  0  0  0
  -28.5029  -15.4491   21.3723 N   0  0  0  0  0  0  0  0  0  0  0  0
  -29.8098  -15.6773   21.1578 N   0  0  0  0  0  0  0  0  0  0  0  0
  -25.1854  -24.4423   22.1630 N   0  0  0  0  0  0  0  0  0  0  0  0
  -30.1166  -19.2721   22.4195 N   0  0  0  0  0  0  0  0  0  0  0  0
  -31.7301  -14.7966   20.0866 N   0  0  0  0  0  0  0  0  0  0  0  0
  -28.5118  -11.7870   19.0958 N   0  0  0  0  0  0  0  0  0  0  0  0
  -22.2889  -23.5238   24.0331 N   0  0  0  0  0  0  0  0  0  0  0  0
  -27.2967  -27.0419   21.6706 N   0  0  0  0  0  0  0  0  0  0  0  0
  -29.7144  -20.6573   20.5452 N   0  0  0  0  0  0  0  0  0  0  0  0
  -30.5548  -26.0256   21.8562 N   0  3  0  0  0  0  0  0  0  0  0  0
  -30.7315  -12.2961   18.8266 O   0  0  0  0  0  0  0  0  0  0  0  0
  -22.6668  -23.7394   21.7454 O   0  0  0  0  0  0  0  0  0  0  0  0
  -25.3605  -26.2480   23.6275 O   0  0  0  0  0  0  0  0  0  0  0  0
  -28.2763  -25.9118   19.8985 O   0  0  0  0  0  0  0  0  0  0  0  0
  -30.8131  -21.4838   22.3800 O   0  0  0  0  0  0  0  0  0  0  0  0
  -23.1797  -12.0212   20.6924 O   0  0  0  0  0  0  0  0  0  0  0  0
  -25.6741  -19.9125   18.0042 O   0  0  0  0  0  0  0  0  0  1  0  0
  -22.7920   -6.5947   21.5905 F   0  0  0  0  0  0  0  0  0  0  0  0
  -21.7332  -11.0376   22.8332 F   0  0  0  0  0  0  0  0  0  0  0  0
  1  2  1  0  0  0  0
  1  5  2  0  0  0  0
  2  6  2  0  0  0  0
  3  8  2  0  0  0  0
  3 17  1  0  0  0  0
  4  9  1  0  0  0  0
  4 17  2  0  0  0  0
  5 19  1  0  0  0  0
  6 21  1  0  0  0  0
  7 10  2  0  0  0  0
  7 20  1  0  0  0  0
  8 27  1  0  0  0  0
  9 27  2  0  0  0  0
 10 28  1  0  0  0  0
 11 12  2  0  0  0  0
 11 29  1  0  0  0  0
 12 30  1  0  0  0  0
 13 22  1  0  0  0  0
 13 28  2  0  0  0  0
 14 23  2  0  0  0  0
 14 24  1  0  0  0  0
 15 25  2  0  0  0  0
 15 26  1  0  0  0  0
 16 30  2  0  0  0  0
 16 31  1  0  0  0  0
 17 32  1  0  0  0  0
 18 32  1  0  0  0  0
 18 33  2  0  0  0  0
 18 34  1  0  0  0  0
 19 21  2  0  0  0  0
 19 39  1  0  0  0  0
 20 22  2  0  0  0  0
 20 40  1  0  0  0  0
 21 48  1  0  0  0  0
 22 41  1  0  0  0  0
 23 25  1  0  0  0  0
 23 51  1  0  0  0  0
 24 26  2  0  0  0  0
 24 52  1  0  0  0  0
 25 58  1  0  0  0  0
 26 59  1  0  0  0  0
 27 81  1  0  0  0  0
 28 82  1  0  0  0  0
 29 31  2  0  0  0  0
 29 81  1  0  0  0  0
 30 83  1  0  0  0  0
 31 84  1  0  0  0  0
 32 66  2  0  0  0  0
 33 67  1  0  0  0  0
 33 70  1  0  0  0  0
 34 71  1  0  0  0  0
 34 76  2  0  0  0  0
 35 49  1  0  0  0  0
 35 72  1  0  0  0  0
 35 77  2  0  0  0  0
 36 63  1  0  0  0  0
 36 68  1  0  0  0  0
 36 78  2  0  0  0  0
 37 64  1  0  0  0  0
 37 73  1  0  0  0  0
 37 79  2  0  0  0  0
 38 69  1  0  0  0  0
 38 74  1  0  0  0  0
 38 80  2  0  0  0  0
 39 42  1  0  0  0  0
 40 49  1  0  0  0  0
 41 68  1  0  0  0  0
 42 44  1  0  0  0  0
 43 45  1  0  0  0  0
 43 46  1  0  0  0  0
 44 48  1  0  0  0  0
 45 50  1  0  0  0  0
 46 69  1  0  0  0  0
 47 50  1  0  0  0  0
 47 69  1  0  0  0  0
 48 72  1  0  0  0  0
 49 68  1  0  0  0  0
 50 67  1  0  0  0  0
 53 64  1  0  0  0  0
 54 65  1  0  0  0  0
 55 65  1  0  0  0  0
 56 65  1  0  0  0  0
 57 75  1  0  0  0  0
 58 60  1  0  0  0  0
 59 62  1  0  0  0  0
 60 61  1  0  0  0  0
 61 74  1  0  0  0  0
 62 82  1  0  0  0  0
 63 65  1  0  0  0  0
 63 73  1  0  0  0  0
 64 75  1  0  0  0  0
 66 67  1  0  0  0  0
M  CHG  1  75   1
M  ISO  4  38 100  62 101  74 100  82 101
M  END
> <Batch ID>
0031

> <Smiles>
CNC(C)C(=O)NC(C(=O)N1Cc2cc([101O:1][101CH2:1]Cc3cc(CCC[100NH:0][100C:0](=O)N4CCCC(n5nc(-c6ccc(Oc7ccc(F)cc7F)cc6)c(C(N)=O)c5N)C4)c(C)cc3C)ccc2CC1C(=O)NC1CCCc2ccccc21)C(C)(C)C

> <Shape>
0.217

> <Color>
0.062

> <Negative vol penalty>
0.000

$$$$

  -OEChem-04052316423D

 85 93  0     1  0  0  0  0  0999 V2000
  -27.6547  -22.9185   15.7817 C   0  0  0  0  0  0  0  0  0  0  0  0
  -27.4174  -22.5650   17.1062 C   0  0  0  0  0  0  0  0  0  0  0  0
  -23.0024   -9.8885   19.9868 C   0  0  0  0  0  0  0  0  0  0  0  0
  -23.7247   -9.9537   22.2913 C   0  0  0  0  0  0  0  0  0  0  0  0
  -28.6426  -23.8541   15.4775 C   0  0  0  0  0  0  0  0  0  0  0  0
  -28.1687  -23.1460   18.1271 C   0  0  0  0  0  0  0  0  0  0  0  0
  -25.3167  -24.6047   22.0492 C   0  0  0  0  0  0  0  0  0  0  0  0
  -22.2372   -8.7544   20.2586 C   0  0  0  0  0  0  0  0  0  0  0  0
  -22.9595   -8.8196   22.5632 C   0  0  0  0  0  0  0  0  0  0  0  0
  -24.8953  -23.6129   22.9337 C   0  0  0  0  0  0  0  0  0  0  0  0
  -23.2093   -5.4784   22.1105 C   0  0  0  0  0  0  0  0  0  0  0  0
  -23.7974   -4.4663   22.8691 C   0  0  0  0  0  0  0  0  0  0  0  0
  -26.6573  -24.2336   24.4599 C   0  0  0  0  0  0  0  0  0  0  0  0
  -27.5626  -17.8127   22.5680 C   0  0  0  0  0  0  0  0  0  0  0  0
  -27.8395  -20.3732   23.6403 C   0  0  0  0  0  0  0  0  0  0  0  0
  -22.0711   -4.7162   24.5408 C   0  0  0  0  0  0  0  0  0  0  0  0
  -23.7462  -10.4881   21.0031 C   0  0  0  0  0  0  0  0  0  0  0  0
  -24.1280  -13.0033   20.8133 C   0  0  0  0  0  0  0  0  0  0  0  0
  -29.3999  -24.4541   16.4959 C   0  0  0  0  0  0  0  0  0  0  0  0
  -26.4203  -25.4126   22.3591 C   0  0  0  0  0  0  0  0  0  0  0  0
  -29.1687  -24.0895   17.8361 C   0  0  0  0  0  0  0  0  0  0  0  0
  -27.0892  -25.2367   23.5788 C   0  0  0  0  0  0  0  0  0  0  0  0
  -26.8896  -18.1540   23.7411 C   0  0  0  0  0  0  0  0  0  0  0  0
  -28.3741  -18.7515   21.9311 C   0  0  0  0  0  0  0  0  0  0  0  0
  -27.0280  -19.4343   24.2773 C   0  0  0  0  0  0  0  0  0  0  0  0
  -22.2157   -8.2199   21.5468 C   0  0  0  0  0  0  0  0  0  0  0  0
  -25.5674  -23.4252   24.1380 C   0  0  0  0  0  0  0  0  0  0  0  0
  -22.0521   -6.1094   22.5671 C   0  0  0  0  0  0  0  0  0  0  0  0
  -23.2284   -4.0852   24.0842 C   0  0  0  0  0  0  0  0  0  0  0  0
  -21.4830   -5.7283   23.7823 C   0  0  0  0  0  0  0  0  0  0  0  0
  -28.5125  -20.0318   22.4673 C   0  0  0  0  0  0  0  0  0  0  0  0
  -24.5372  -11.6593   20.7228 C   0  0  0  0  0  0  0  0  0  0  0  0
  -25.2371  -13.7254   20.4462 C   0  0  0  0  0  0  0  0  0  0  0  0
  -22.8587  -13.5500   21.1952 C   0  0  0  0  0  0  0  0  0  0  0  0
  -29.2724  -25.9131   21.0480 C   0  0  0  0  0  0  0  0  0  0  0  0
  -29.4874  -28.2059   23.3326 C   0  0  0  0  0  0  0  0  0  0  0  0
  -28.4699  -29.3681   26.3757 C   0  0  0  0  0  0  0  0  0  0  0  0
  -30.7318  -14.6696   20.6961 C   0  0  0  0  0  0  0  0  0  0  0  0
  -30.4891  -25.4251   16.1146 C   0  0  0  0  0  0  0  0  0  0  0  0
  -26.8458  -26.4958   21.4062 C   0  0  0  0  0  0  0  0  0  0  0  0
  -28.2671  -26.0910   23.9676 C   0  0  0  0  0  0  0  0  0  0  0  0
  -30.9859  -26.2727   17.2829 C   0  0  0  0  0  0  0  0  0  0  0  0
  -29.5975  -12.2310   18.3630 C   0  0  0  0  0  0  0  0  0  0  0  0
  -31.2378  -25.3987   18.5074 C   0  0  0  0  0  0  0  0  0  0  0  0
  -28.1489  -11.9714   18.7803 C   0  0  0  0  0  0  0  0  0  0  0  0
  -30.4981  -12.4745   19.5720 C   0  0  0  0  0  0  0  0  0  0  0  0
  -28.5852  -13.2748   20.9039 C   0  0  0  0  0  0  0  0  0  0  0  0
  -29.9459  -24.7163   18.9732 C   0  0  1  0  0  0  0  0  0  0  0  0
  -28.2993  -26.9195   21.5938 C   0  0  1  0  0  0  0  0  0  0  0  0
  -27.6279  -13.0790   19.7158 C   0  0  2  0  0  0  0  0  0  0  0  0
  -26.0278  -17.1324   24.4076 C   0  0  0  0  0  0  0  0  0  0  0  0
  -28.8509  -31.2473   27.9946 C   0  0  0  0  0  0  0  0  0  0  0  0
  -32.1286  -26.9357   24.1817 C   0  0  0  0  0  0  0  0  0  0  0  0
  -31.9754  -28.2179   26.3267 C   0  0  0  0  0  0  0  0  0  0  0  0
  -32.1344  -29.4364   24.1559 C   0  0  0  0  0  0  0  0  0  0  0  0
  -25.6500  -30.2484   26.1967 C   0  0  0  0  0  0  0  0  0  0  0  0
  -29.0782  -18.3463   20.6765 C   0  0  0  0  0  0  0  0  0  0  0  0
  -26.3124  -19.8250   25.5457 C   0  0  0  0  0  0  0  0  0  0  0  0
  -30.5625  -17.9839   20.8702 C   0  0  0  0  0  0  0  0  0  0  0  0
  -24.8213  -20.1074   25.3497 C   0  0  0  0  0  0  0  0  0  0  0  0
  -30.8098  -16.8553   21.8689 C   0  0  0  0  0  0  0  0  0  0  0  0
  -24.5470  -21.2982   24.4384 C   0  0  0  0  0  0  0  0  0  1  0  0
  -29.9834  -28.2519   24.7577 C   0  0  1  0  0  0  0  0  0  0  0  0
  -28.0153  -30.7441   26.8278 C   0  0  2  0  0  0  0  0  0  0  0  0
  -31.5345  -28.1929   24.8476 C   0  0  0  0  0  0  0  0  0  0  0  0
  -25.8072  -11.5325   20.3289 N   0  0  0  0  0  0  0  0  0  0  0  0
  -26.2055  -12.8060   20.1685 N   0  0  0  0  0  0  0  0  0  0  0  0
  -28.6490  -27.1326   22.9998 N   0  0  0  0  0  0  0  0  0  0  0  0
  -29.9487  -13.5372   20.4174 N   0  0  0  0  0  0  0  0  0  0  0  0
  -25.4687  -15.0509   20.3369 N   0  0  0  0  0  0  0  0  0  0  0  0
  -21.8278  -12.6662   21.5425 N   0  0  0  0  0  0  0  0  0  0  0  0
  -29.1144  -25.6512   19.7005 N   0  0  0  0  0  0  0  0  0  0  0  0
  -29.3951  -29.4453   25.3562 N   0  0  0  0  0  0  0  0  0  0  0  0
  -30.1330  -15.6320   21.4997 N   0  0  0  0  0  0  0  0  0  0  0  0
  -26.5881  -30.7037   27.2548 N   0  3  0  0  0  0  0  0  0  0  0  0
  -22.6402  -14.7851   21.2117 O   0  0  0  0  0  0  0  0  0  0  0  0
  -30.1058  -25.4124   21.7939 O   0  0  0  0  0  0  0  0  0  0  0  0
  -29.8256  -29.0936   22.5456 O   0  0  0  0  0  0  0  0  0  0  0  0
  -28.0493  -28.3288   26.8793 O   0  0  0  0  0  0  0  0  0  0  0  0
  -31.8775  -14.8147   20.2565 O   0  0  0  0  0  0  0  0  0  0  0  0
  -21.4690   -7.1134   21.8125 O   0  0  0  0  0  0  0  0  0  0  0  0
  -25.1585  -22.4574   25.0028 O   0  0  0  0  0  0  0  0  0  1  0  0
  -23.7924   -3.1122   24.8119 F   0  0  0  0  0  0  0  0  0  0  0  0
  -20.3707   -6.3300   24.2255 F   0  0  0  0  0  0  0  0  0  0  0  0
  -29.5080  -21.2196   21.7073 Cl  0  0  0  0  0  0  0  0  0  0  0  0
  1  2  1  0  0  0  0
  1  5  2  0  0  0  0
  2  6  2  0  0  0  0
  3  8  2  0  0  0  0
  3 17  1  0  0  0  0
  4  9  1  0  0  0  0
  4 17  2  0  0  0  0
  5 19  1  0  0  0  0
  6 21  1  0  0  0  0
  7 10  2  0  0  0  0
  7 20  1  0  0  0  0
  8 26  1  0  0  0  0
  9 26  2  0  0  0  0
 10 27  1  0  0  0  0
 11 12  2  0  0  0  0
 11 28  1  0  0  0  0
 12 29  1  0  0  0  0
 13 22  1  0  0  0  0
 13 27  2  0  0  0  0
 14 23  1  0  0  0  0
 14 24  2  0  0  0  0
 15 25  1  0  0  0  0
 15 31  2  0  0  0  0
 16 29  2  0  0  0  0
 16 30  1  0  0  0  0
 17 32  1  0  0  0  0
 18 32  1  0  0  0  0
 18 33  2  0  0  0  0
 18 34  1  0  0  0  0
 19 21  2  0  0  0  0
 19 39  1  0  0  0  0
 20 22  2  0  0  0  0
 20 40  1  0  0  0  0
 21 48  1  0  0  0  0
 22 41  1  0  0  0  0
 23 25  2  0  0  0  0
 23 51  1  0  0  0  0
 24 31  1  0  0  0  0
 24 57  1  0  0  0  0
 25 58  1  0  0  0  0
 26 81  1  0  0  0  0
 27 82  1  0  0  0  0
 28 30  2  0  0  0  0
 28 81  1  0  0  0  0
 29 83  1  0  0  0  0
 30 84  1  0  0  0  0
 31 85  1  0  0  0  0
 32 66  2  0  0  0  0
 33 67  1  0  0  0  0
 33 70  1  0  0  0  0
 34 71  1  0  0  0  0
 34 76  2  0  0  0  0
 35 49  1  0  0  0  0
 35 72  1  0  0  0  0
 35 77  2  0  0  0  0
 36 63  1  0  0  0  0
 36 68  1  0  0  0  0
 36 78  2  0  0  0  0
 37 64  1  0  0  0  0
 37 73  1  0  0  0  0
 37 79  2  0  0  0  0
 38 69  1  0  0  0  0
 38 74  1  0  0  0  0
 38 80  2  0  0  0  0
 39 42  1  0  0  0  0
 40 49  1  0  0  0  0
 41 68  1  0  0  0  0
 42 44  1  0  0  0  0
 43 45  1  0  0  0  0
 43 46  1  0  0  0  0
 44 48  1  0  0  0  0
 45 50  1  0  0  0  0
 46 69  1  0  0  0  0
 47 50  1  0  0  0  0
 47 69  1  0  0  0  0
 48 72  1  0  0  0  0
 49 68  1  0  0  0  0
 50 67  1  0  0  0  0
 52 64  1  0  0  0  0
 53 65  1  0  0  0  0
 54 65  1  0  0  0  0
 55 65  1  0  0  0  0
 56 75  1  0  0  0  0
 57 59  1  0  0  0  0
 58 60  1  0  0  0  0
 59 61  1  0  0  0  0
 60 62  1  0  0  0  0
 61 74  1  0  0  0  0
 62 82  1  0  0  0  0
 63 65  1  0  0  0  0
 63 73  1  0  0  0  0
 64 75  1  0  0  0  0
 66 67  1  0  0  0  0
M  CHG  1  75   1
M  ISO  4  38 100  62 101  74 100  82 101
M  END
> <Batch ID>
0031

> <Smiles>
CNC(C)C(=O)NC(C(=O)N1Cc2cc([101O:1][101CH2:1]CCc3cc(Cl)c(CCC[100NH:0][100C:0](=O)N4CCCC(n5nc(-c6ccc(Oc7ccc(F)cc7F)cc6)c(C(N)=O)c5N)C4)cc3C)ccc2CC1C(=O)NC1CCCc2ccccc21)C(C)(C)C

> <Shape>
0.261

> <Color>
0.206

> <Negative vol penalty>
0.000

$$$$

  -OEChem-04052316423D

 84 93  0     1  0  0  0  0  0999 V2000
  -31.0515  -34.5069   26.7606 C   0  0  0  0  0  0  0  0  0  0  0  0
  -31.1558  -33.6319   25.6841 C   0  0  0  0  0  0  0  0  0  0  0  0
  -27.5076  -11.2804   20.6975 C   0  0  0  0  0  0  0  0  0  0  0  0
  -27.8114  -11.8089   23.0353 C   0  0  0  0  0  0  0  0  0  0  0  0
  -29.9822  -34.3938   27.6482 C   0  0  0  0  0  0  0  0  0  0  0  0
  -30.1915  -32.6425   25.4952 C   0  0  0  0  0  0  0  0  0  0  0  0
  -28.1177  -30.4962   20.1474 C   0  0  0  0  0  0  0  0  0  0  0  0
  -26.6119  -10.2684   21.0426 C   0  0  0  0  0  0  0  0  0  0  0  0
  -26.9157  -10.7969   23.3805 C   0  0  0  0  0  0  0  0  0  0  0  0
  -28.4361  -29.3591   19.4061 C   0  0  0  0  0  0  0  0  0  0  0  0
  -23.3732  -10.0221   21.9822 C   0  0  0  0  0  0  0  0  0  0  0  0
  -22.1857   -9.9319   21.2560 C   0  0  0  0  0  0  0  0  0  0  0  0
  -24.5042  -22.3475   19.2144 C   0  0  0  0  0  0  0  0  0  0  0  0
  -26.7517  -22.3728   17.5740 C   0  0  0  0  0  0  0  0  0  0  0  0
  -26.5629  -28.2005   20.3901 C   0  0  0  0  0  0  0  0  0  0  0  0
  -22.7791   -7.6946   20.5636 C   0  0  0  0  0  0  0  0  0  0  0  0
  -28.1074  -12.0506   21.6938 C   0  0  0  0  0  0  0  0  0  0  0  0
  -30.2437  -12.9555   20.6331 C   0  0  0  0  0  0  0  0  0  0  0  0
  -28.9991  -33.4087   27.4646 C   0  0  0  0  0  0  0  0  0  0  0  0
  -27.0242  -30.4904   21.0253 C   0  0  0  0  0  0  0  0  0  0  0  0
  -29.1088  -32.5153   26.3819 C   0  0  0  0  0  0  0  0  0  0  0  0
  -25.3862  -21.2558   19.2378 C   0  0  0  0  0  0  0  0  0  0  0  0
  -26.5311  -21.2761   18.4223 C   0  0  0  0  0  0  0  0  0  0  0  0
  -26.2312  -29.3396   21.1395 C   0  0  0  0  0  0  0  0  0  0  0  0
  -24.7397  -23.4349   18.3739 C   0  0  0  0  0  0  0  0  0  0  0  0
  -25.8622  -23.4465   17.5519 C   0  0  0  0  0  0  0  0  0  0  0  0
  -26.3159  -10.0266   22.3841 C   0  0  0  0  0  0  0  0  0  0  0  0
  -27.6604  -28.2101   19.5296 C   0  0  0  0  0  0  0  0  0  0  0  0
  -24.2637   -8.9486   21.9991 C   0  0  0  0  0  0  0  0  0  0  0  0
  -21.8887   -8.7682   20.5467 C   0  0  0  0  0  0  0  0  0  0  0  0
  -23.9666   -7.7848   21.2899 C   0  0  0  0  0  0  0  0  0  0  0  0
  -29.0332  -13.0958   21.3380 C   0  0  0  0  0  0  0  0  0  0  0  0
  -30.7445  -14.2320   20.5534 C   0  0  0  0  0  0  0  0  0  0  0  0
  -30.8603  -11.7768   20.0982 C   0  0  0  0  0  0  0  0  0  0  0  0
  -28.0749  -19.6111   20.7780 C   0  0  0  0  0  0  0  0  0  0  0  0
  -26.6637  -30.8582   24.1619 C   0  0  0  0  0  0  0  0  0  0  0  0
  -23.5081  -30.7628   23.4171 C   0  0  0  0  0  0  0  0  0  0  0  0
  -21.3780  -28.8537   21.2181 C   0  0  0  0  0  0  0  0  0  0  0  0
  -27.8872  -33.2951   28.4772 C   0  0  0  0  0  0  0  0  0  0  0  0
  -26.6780  -31.7337   21.7978 C   0  0  0  0  0  0  0  0  0  0  0  0
  -25.1126  -20.1183   20.1868 C   0  0  0  0  0  0  0  0  0  0  0  0
  -27.5074  -20.1243   18.3892 C   0  0  0  0  0  0  0  0  0  0  0  0
  -25.0347  -29.2885   22.0528 C   0  0  0  0  0  0  0  0  0  0  0  0
  -26.7057  -32.4584   27.9933 C   0  0  0  0  0  0  0  0  0  0  0  0
  -25.8894  -18.8456   19.8495 C   0  0  0  0  0  0  0  0  0  0  0  0
  -30.7371  -18.4163   22.8577 C   0  0  0  0  0  0  0  0  0  0  0  0
  -27.1951  -31.1614   27.3569 C   0  0  0  0  0  0  0  0  0  0  0  0
  -30.6935  -16.9014   22.6617 C   0  0  0  0  0  0  0  0  0  0  0  0
  -29.3386  -19.0245   22.8209 C   0  0  0  0  0  0  0  0  0  0  0  0
  -28.5207  -17.1817   21.3868 C   0  0  0  0  0  0  0  0  0  0  0  0
  -28.0694  -31.4448   26.1294 C   0  0  1  0  0  0  0  0  0  0  0  0
  -27.3574  -19.1290   19.5424 C   0  0  2  0  0  0  0  0  0  0  0  0
  -25.8490  -31.4498   23.0466 C   0  0  1  0  0  0  0  0  0  0  0  0
  -29.9154  -16.5312   21.3866 C   0  0  2  0  0  0  0  0  0  0  0  0
  -23.7739  -24.5740   18.3736 C   0  0  0  0  0  0  0  0  0  0  0  0
  -19.1948  -29.4531   20.1355 C   0  0  0  0  0  0  0  0  0  0  0  0
  -22.2614  -29.4036   25.8478 C   0  0  0  0  0  0  0  0  0  0  0  0
  -20.5016  -28.4660   24.3338 C   0  0  0  0  0  0  0  0  0  0  0  0
  -20.7233  -30.9356   24.6061 C   0  0  0  0  0  0  0  0  0  0  0  0
  -22.4167  -28.2403   18.5155 C   0  0  0  0  0  0  0  0  0  0  0  0
  -26.1385  -24.6075   16.6304 C   0  0  0  0  0  0  0  0  0  0  0  0
  -27.2399  -25.5437   17.1325 C   0  0  0  0  0  0  0  0  0  0  0  0
  -26.8892  -26.2408   18.4419 C   0  0  0  0  0  0  0  0  0  1  0  0
  -22.4724  -29.6719   23.2886 C   0  0  1  0  0  0  0  0  0  0  0  0
  -20.7010  -29.3490   19.9528 C   0  0  2  0  0  0  0  0  0  0  0  0
  -21.5172  -29.6143   24.5141 C   0  0  0  0  0  0  0  0  0  0  0  0
  -28.7804  -14.3615   21.6817 N   0  0  0  0  0  0  0  0  0  0  0  0
  -29.8390  -15.0282   21.1909 N   0  0  0  0  0  0  0  0  0  0  0  0
  -28.6241  -18.6312   21.6052 N   0  0  0  0  0  0  0  0  0  0  0  0
  -24.7407  -30.5274   22.7917 N   0  0  0  0  0  0  0  0  0  0  0  0
  -31.8668  -14.7398   20.0011 N   0  0  0  0  0  0  0  0  0  0  0  0
  -30.5482  -11.3964   18.7859 N   0  0  0  0  0  0  0  0  0  0  0  0
  -27.2458  -31.7966   24.9926 N   0  0  0  0  0  0  0  0  0  0  0  0
  -21.7975  -29.8977   22.0150 N   0  0  0  0  0  0  0  0  0  0  0  0
  -20.9739  -28.4186   18.8211 N   0  3  0  0  0  0  0  0  0  0  0  0
  -31.6515  -11.0723   20.7699 O   0  0  0  0  0  0  0  0  0  0  0  0
  -28.1467  -20.8229   20.9982 O   0  0  0  0  0  0  0  0  0  0  0  0
  -26.7562  -29.6404   24.2623 O   0  0  0  0  0  0  0  0  0  0  0  0
  -23.2310  -31.7890   24.0429 O   0  0  0  0  0  0  0  0  0  0  0  0
  -21.5172  -27.6600   21.4755 O   0  0  0  0  0  0  0  0  0  0  0  0
  -25.4418   -9.0394   22.7213 O   0  0  0  0  0  0  0  0  0  0  0  0
  -27.9693  -27.0987   18.8077 O   0  0  0  0  0  0  0  0  0  1  0  0
  -20.7476   -8.6811   19.8506 F   0  0  0  0  0  0  0  0  0  0  0  0
  -24.8176   -6.7497   21.3033 F   0  0  0  0  0  0  0  0  0  0  0  0
  1  2  1  0  0  0  0
  1  5  2  0  0  0  0
  2  6  2  0  0  0  0
  3  8  2  0  0  0  0
  3 17  1  0  0  0  0
  4  9  1  0  0  0  0
  4 17  2  0  0  0  0
  5 19  1  0  0  0  0
  6 21  1  0  0  0  0
  7 10  2  0  0  0  0
  7 20  1  0  0  0  0
  8 27  1  0  0  0  0
  9 27  2  0  0  0  0
 10 28  1  0  0  0  0
 11 12  2  0  0  0  0
 11 29  1  0  0  0  0
 12 30  1  0  0  0  0
 13 22  2  0  0  0  0
 13 25  1  0  0  0  0
 14 23  2  0  0  0  0
 14 26  1  0  0  0  0
 15 24  1  0  0  0  0
 15 28  2  0  0  0  0
 16 30  2  0  0  0  0
 16 31  1  0  0  0  0
 17 32  1  0  0  0  0
 18 32  1  0  0  0  0
 18 33  2  0  0  0  0
 18 34  1  0  0  0  0
 19 21  2  0  0  0  0
 19 39  1  0  0  0  0
 20 24  2  0  0  0  0
 20 40  1  0  0  0  0
 21 51  1  0  0  0  0
 22 23  1  0  0  0  0
 22 41  1  0  0  0  0
 23 42  1  0  0  0  0
 24 43  1  0  0  0  0
 25 26  2  0  0  0  0
 25 55  1  0  0  0  0
 26 61  1  0  0  0  0
 27 81  1  0  0  0  0
 28 82  1  0  0  0  0
 29 31  2  0  0  0  0
 29 81  1  0  0  0  0
 30 83  1  0  0  0  0
 31 84  1  0  0  0  0
 32 67  2  0  0  0  0
 33 68  1  0  0  0  0
 33 71  1  0  0  0  0
 34 72  1  0  0  0  0
 34 76  2  0  0  0  0
 35 52  1  0  0  0  0
 35 69  1  0  0  0  0
 35 77  2  0  0  0  0
 36 53  1  0  0  0  0
 36 73  1  0  0  0  0
 36 78  2  0  0  0  0
 37 64  1  0  0  0  0
 37 70  1  0  0  0  0
 37 79  2  0  0  0  0
 38 65  1  0  0  0  0
 38 74  1  0  0  0  0
 38 80  2  0  0  0  0
 39 44  1  0  0  0  0
 40 53  1  0  0  0  0
 41 45  1  0  0  0  0
 42 52  1  0  0  0  0
 43 70  1  0  0  0  0
 44 47  1  0  0  0  0
 45 52  1  0  0  0  0
 46 48  1  0  0  0  0
 46 49  1  0  0  0  0
 47 51  1  0  0  0  0
 48 54  1  0  0  0  0
 49 69  1  0  0  0  0
 50 54  1  0  0  0  0
 50 69  1  0  0  0  0
 51 73  1  0  0  0  0
 53 70  1  0  0  0  0
 54 68  1  0  0  0  0
 56 65  1  0  0  0  0
 57 66  1  0  0  0  0
 58 66  1  0  0  0  0
 59 66  1  0  0  0  0
 60 75  1  0  0  0  0
 61 62  1  0  0  0  0
 62 63  1  0  0  0  0
 63 82  1  0  0  0  0
 64 66  1  0  0  0  0
 64 74  1  0  0  0  0
 65 75  1  0  0  0  0
 67 68  1  0  0  0  0
M  CHG  1  75   1
M  ISO  4  35 100  52 100  63 101  82 101
M  END
> <Batch ID>
0031

> <Smiles>
CNC(C)C(=O)NC(C(=O)N1Cc2cc([101O:1][101CH2:1]CCc3cc4c(cc3C)CC[100CH:0]([100C:0](=O)N3CCCC(n5nc(-c6ccc(Oc7ccc(F)cc7F)cc6)c(C(N)=O)c5N)C3)C4)ccc2CC1C(=O)NC1CCCc2ccccc21)C(C)(C)C

> <Shape>
0.265

> <Color>
0.071

> <Negative vol penalty>
0.000

$$$$

  -OEChem-04052316423D

 86 94  0     1  0  0  0  0  0999 V2000
  -26.9719  -24.9660   15.9846 C   0  0  0  0  0  0  0  0  0  0  0  0
  -25.8271  -25.2772   16.7112 C   0  0  0  0  0  0  0  0  0  0  0  0
  -26.1982  -14.9320   19.4228 C   0  0  0  0  0  0  0  0  0  0  0  0
  -24.3966  -14.9671   21.0322 C   0  0  0  0  0  0  0  0  0  0  0  0
  -28.2309  -25.2236   16.5255 C   0  0  0  0  0  0  0  0  0  0  0  0
  -25.9406  -25.8452   17.9796 C   0  0  0  0  0  0  0  0  0  0  0  0
  -22.7513  -29.7184   18.6666 C   0  0  0  0  0  0  0  0  0  0  0  0
  -26.3974  -13.5748   19.6754 C   0  0  0  0  0  0  0  0  0  0  0  0
  -24.5957  -13.6098   21.2847 C   0  0  0  0  0  0  0  0  0  0  0  0
  -21.4189  -29.4064   18.9334 C   0  0  0  0  0  0  0  0  0  0  0  0
  -24.3923  -10.0702   22.0898 C   0  0  0  0  0  0  0  0  0  0  0  0
  -23.2659   -9.2505   22.1584 C   0  0  0  0  0  0  0  0  0  0  0  0
  -21.8060  -29.7901   21.2833 C   0  0  0  0  0  0  0  0  0  0  0  0
  -19.3315  -25.4493   21.2698 C   0  0  0  0  0  0  0  0  0  0  0  0
  -19.0901  -26.3386   23.9030 C   0  0  0  0  0  0  0  0  0  0  0  0
  -22.6965   -9.8428   19.8864 C   0  0  0  0  0  0  0  0  0  0  0  0
  -25.1979  -15.6282   20.1013 C   0  0  0  0  0  0  0  0  0  0  0  0
  -24.1404  -17.5999   18.8759 C   0  0  0  0  0  0  0  0  0  0  0  0
  -28.3598  -25.8039   17.7972 C   0  0  0  0  0  0  0  0  0  0  0  0
  -23.6253  -30.0585   19.7091 C   0  0  0  0  0  0  0  0  0  0  0  0
  -27.2025  -26.1095   18.5386 C   0  0  0  0  0  0  0  0  0  0  0  0
  -23.1484  -30.1084   21.0268 C   0  0  0  0  0  0  0  0  0  0  0  0
  -18.6207  -26.6164   21.5493 C   0  0  0  0  0  0  0  0  0  0  0  0
  -19.9215  -24.7267   22.3069 C   0  0  0  0  0  0  0  0  0  0  0  0
  -18.5001  -27.0611   22.8659 C   0  0  0  0  0  0  0  0  0  0  0  0
  -25.5961  -12.9137   20.6063 C   0  0  0  0  0  0  0  0  0  0  0  0
  -20.9468  -29.4394   20.2423 C   0  0  0  0  0  0  0  0  0  0  0  0
  -24.6709  -10.7764   20.9195 C   0  0  0  0  0  0  0  0  0  0  0  0
  -19.8009  -25.1714   23.6235 C   0  0  0  0  0  0  0  0  0  0  0  0
  -22.4180   -9.1368   21.0567 C   0  0  0  0  0  0  0  0  0  0  0  0
  -23.8230  -10.6626   19.8178 C   0  0  0  0  0  0  0  0  0  0  0  0
  -24.9920  -17.0304   19.8414 C   0  0  0  0  0  0  0  0  0  0  0  0
  -24.3037  -18.9549   19.0304 C   0  0  0  0  0  0  0  0  0  0  0  0
  -23.2786  -16.9613   17.9245 C   0  0  0  0  0  0  0  0  0  0  0  0
  -26.2992  -28.8113   20.8917 C   0  0  0  0  0  0  0  0  0  0  0  0
  -26.2906  -31.5014   22.7044 C   0  0  0  0  0  0  0  0  0  0  0  0
  -24.4984  -34.0458   24.1045 C   0  0  0  0  0  0  0  0  0  0  0  0
  -26.0172  -22.3544   23.6519 C   0  0  0  0  0  0  0  0  0  0  0  0
  -29.7424  -26.0201   18.3597 C   0  0  0  0  0  0  0  0  0  0  0  0
  -25.0530  -30.4184   19.4016 C   0  0  0  0  0  0  0  0  0  0  0  0
  -24.0409  -30.4872   22.1793 C   0  0  0  0  0  0  0  0  0  0  0  0
  -29.7721  -26.9690   19.5550 C   0  0  0  0  0  0  0  0  0  0  0  0
  -27.5261  -22.2024   20.4306 C   0  0  0  0  0  0  0  0  0  0  0  0
  -28.6708  -26.6114   20.5481 C   0  0  0  0  0  0  0  0  0  0  0  0
  -26.9709  -20.9111   19.8272 C   0  0  0  0  0  0  0  0  0  0  0  0
  -27.7749  -22.0630   21.9309 C   0  0  0  0  0  0  0  0  0  0  0  0
  -26.0585  -20.3032   22.1068 C   0  0  0  0  0  0  0  0  0  0  0  0
  -27.2843  -26.7494   19.9075 C   0  0  1  0  0  0  0  0  0  0  0  0
  -25.9827  -30.2508   20.5995 C   0  0  1  0  0  0  0  0  0  0  0  0
  -25.7388  -20.4126   20.6061 C   0  0  2  0  0  0  0  0  0  0  0  0
  -20.6795  -23.4800   21.9894 C   0  0  0  0  0  0  0  0  0  0  0  0
  -17.7442  -28.3077   23.1899 C   0  0  0  0  0  0  0  0  0  0  0  0
  -24.7615  -36.0701   25.5641 C   0  0  0  0  0  0  0  0  0  0  0  0
  -26.5295  -29.7000   25.1556 C   0  0  0  0  0  0  0  0  0  0  0  0
  -25.8383  -31.6482   26.5681 C   0  0  0  0  0  0  0  0  0  0  0  0
  -27.9432  -31.7615   25.2342 C   0  0  0  0  0  0  0  0  0  0  0  0
  -23.5299  -35.8535   21.9707 C   0  0  0  0  0  0  0  0  0  0  0  0
  -17.9894  -27.3809   20.4112 C   0  0  0  0  0  0  0  0  0  0  0  0
  -23.1150  -23.4785   24.8176 C   0  0  0  0  0  0  0  0  0  0  0  0
  -22.3741  -24.1742   25.9599 C   0  0  0  0  0  0  0  0  0  0  0  0
  -24.1841  -22.5120   25.3175 C   0  0  0  0  0  0  0  0  0  0  0  0
  -19.0077  -28.2055   19.6314 C   0  0  0  0  0  0  0  0  0  1  0  0
  -21.3405  -25.1633   25.4360 C   0  0  0  0  0  0  0  0  0  0  0  0
  -25.7148  -31.8845   24.0463 C   0  0  1  0  0  0  0  0  0  0  0  0
  -24.7343  -35.5451   24.1371 C   0  0  2  0  0  0  0  0  0  0  0  0
  -26.4899  -31.2395   25.2298 C   0  0  0  0  0  0  0  0  0  0  0  0
  -25.6478  -17.9485   20.5562 N   0  0  0  0  0  0  0  0  0  0  0  0
  -25.2083  -19.1086   20.0395 N   0  0  0  0  0  0  0  0  0  0  0  0
  -25.4304  -30.8245   21.8283 N   0  0  0  0  0  0  0  0  0  0  0  0
  -26.5674  -21.5884   22.6110 N   0  0  0  0  0  0  0  0  0  0  0  0
  -23.7604  -20.0179   18.4002 N   0  0  0  0  0  0  0  0  0  0  0  0
  -23.2312  -15.5607   17.9007 N   0  0  0  0  0  0  0  0  0  0  0  0
  -26.8950  -28.1416   19.8401 N   0  0  0  0  0  0  0  0  0  0  0  0
  -25.6842  -33.3427   24.0760 N   0  0  0  0  0  0  0  0  0  0  0  0
  -24.8693  -21.8358   24.2386 N   0  0  0  0  0  0  0  0  0  0  0  0
  -23.6544  -36.2555   23.3954 N   0  3  0  0  0  0  0  0  0  0  0  0
  -22.5840  -17.6130   17.1082 O   0  0  0  0  0  0  0  0  0  0  0  0
  -26.0245  -28.3433   21.9904 O   0  0  0  0  0  0  0  0  0  0  0  0
  -27.4585  -31.7982   22.4405 O   0  0  0  0  0  0  0  0  0  0  0  0
  -23.3747  -33.5481   24.1081 O   0  0  0  0  0  0  0  0  0  0  0  0
  -26.5093  -23.4240   24.0269 O   0  0  0  0  0  0  0  0  0  0  0  0
  -25.7900  -11.5892   20.8527 O   0  0  0  0  0  0  0  0  0  0  0  0
  -19.6469  -29.1347   20.5056 O   0  0  0  0  0  0  0  0  0  1  0  0
  -20.3698  -24.4768   24.6483 O   0  0  0  0  0  0  0  0  0  0  0  0
  -21.3371   -8.3483   21.1222 F   0  0  0  0  0  0  0  0  0  0  0  0
  -24.0860  -11.3376   18.6904 F   0  0  0  0  0  0  0  0  0  0  0  0
  1  2  1  0  0  0  0
  1  5  2  0  0  0  0
  2  6  2  0  0  0  0
  3  8  2  0  0  0  0
  3 17  1  0  0  0  0
  4  9  1  0  0  0  0
  4 17  2  0  0  0  0
  5 19  1  0  0  0  0
  6 21  1  0  0  0  0
  7 10  2  0  0  0  0
  7 20  1  0  0  0  0
  8 26  1  0  0  0  0
  9 26  2  0  0  0  0
 10 27  1  0  0  0  0
 11 12  2  0  0  0  0
 11 28  1  0  0  0  0
 12 30  1  0  0  0  0
 13 22  1  0  0  0  0
 13 27  2  0  0  0  0
 14 23  1  0  0  0  0
 14 24  2  0  0  0  0
 15 25  1  0  0  0  0
 15 29  2  0  0  0  0
 16 30  2  0  0  0  0
 16 31  1  0  0  0  0
 17 32  1  0  0  0  0
 18 32  1  0  0  0  0
 18 33  2  0  0  0  0
 18 34  1  0  0  0  0
 19 21  2  0  0  0  0
 19 39  1  0  0  0  0
 20 22  2  0  0  0  0
 20 40  1  0  0  0  0
 21 48  1  0  0  0  0
 22 41  1  0  0  0  0
 23 25  2  0  0  0  0
 23 58  1  0  0  0  0
 24 29  1  0  0  0  0
 24 51  1  0  0  0  0
 25 52  1  0  0  0  0
 26 82  1  0  0  0  0
 27 83  1  0  0  0  0
 28 31  2  0  0  0  0
 28 82  1  0  0  0  0
 29 84  1  0  0  0  0
 30 85  1  0  0  0  0
 31 86  1  0  0  0  0
 32 67  2  0  0  0  0
 33 68  1  0  0  0  0
 33 71  1  0  0  0  0
 34 72  1  0  0  0  0
 34 77  2  0  0  0  0
 35 49  1  0  0  0  0
 35 73  1  0  0  0  0
 35 78  2  0  0  0  0
 36 64  1  0  0  0  0
 36 69  1  0  0  0  0
 36 79  2  0  0  0  0
 37 65  1  0  0  0  0
 37 74  1  0  0  0  0
 37 80  2  0  0  0  0
 38 70  1  0  0  0  0
 38 75  1  0  0  0  0
 38 81  2  0  0  0  0
 39 42  1  0  0  0  0
 40 49  1  0  0  0  0
 41 69  1  0  0  0  0
 42 44  1  0  0  0  0
 43 45  1  0  0  0  0
 43 46  1  0  0  0  0
 44 48  1  0  0  0  0
 45 50  1  0  0  0  0
 46 70  1  0  0  0  0
 47 50  1  0  0  0  0
 47 70  1  0  0  0  0
 48 73  1  0  0  0  0
 49 69  1  0  0  0  0
 50 68  1  0  0  0  0
 53 65  1  0  0  0  0
 54 66  1  0  0  0  0
 55 66  1  0  0  0  0
 56 66  1  0  0  0  0
 57 76  1  0  0  0  0
 58 62  1  0  0  0  0
 59 60  1  0  0  0  0
 59 61  1  0  0  0  0
 60 63  1  0  0  0  0
 61 75  1  0  0  0  0
 62 83  1  0  0  0  0
 63 84  1  0  0  0  0
 64 66  1  0  0  0  0
 64 74  1  0  0  0  0
 65 76  1  0  0  0  0
 67 68  1  0  0  0  0
M  CHG  1  76   1
M  ISO  4  38 100  62 101  75 100  83 101
M  END
> <Batch ID>
0031

> <Smiles>
CNC(C)C(=O)NC(C(=O)N1Cc2cc([101O:1][101CH2:1]Cc3cc(C)c(OCCCC[100NH:0][100C:0](=O)N4CCCC(n5nc(-c6ccc(Oc7ccc(F)cc7F)cc6)c(C(N)=O)c5N)C4)cc3C)ccc2CC1C(=O)NC1CCCc2ccccc21)C(C)(C)C

> <Shape>
0.295

> <Color>
0.080

> <Negative vol penalty>
0.000

$$$$

  -OEChem-04052316423D

 82 90  0     1  0  0  0  0  0999 V2000
  -25.9197  -13.3675   25.8738 C   0  0  0  0  0  0  0  0  0  0  0  0
  -26.7504  -12.9572   24.8360 C   0  0  0  0  0  0  0  0  0  0  0  0
  -23.1618   -9.8526   19.9153 C   0  0  0  0  0  0  0  0  0  0  0  0
  -23.8315   -9.9041   22.2360 C   0  0  0  0  0  0  0  0  0  0  0  0
  -26.3398  -14.3705   26.7464 C   0  0  0  0  0  0  0  0  0  0  0  0
  -28.0013  -13.5504   24.6696 C   0  0  0  0  0  0  0  0  0  0  0  0
  -34.6524  -12.0346   22.4829 C   0  0  0  0  0  0  0  0  0  0  0  0
  -35.5742  -17.2702   17.9181 C   0  0  0  0  0  0  0  0  0  0  0  0
  -34.2308  -17.5400   17.6577 C   0  0  0  0  0  0  0  0  0  0  0  0
  -22.4340   -8.6863   20.1512 C   0  0  0  0  0  0  0  0  0  0  0  0
  -23.1037   -8.7378   22.4720 C   0  0  0  0  0  0  0  0  0  0  0  0
  -35.6293  -12.4995   21.6034 C   0  0  0  0  0  0  0  0  0  0  0  0
  -19.4495   -7.8419   21.4976 C   0  0  0  0  0  0  0  0  0  0  0  0
  -18.1639   -7.7608   20.9628 C   0  0  0  0  0  0  0  0  0  0  0  0
  -36.2819  -14.1672   23.2196 C   0  0  0  0  0  0  0  0  0  0  0  0
  -34.9772  -16.3920   20.0882 C   0  0  0  0  0  0  0  0  0  0  0  0
  -18.8167   -5.8148   19.6884 C   0  0  0  0  0  0  0  0  0  0  0  0
  -23.8606  -10.4615   20.9577 C   0  0  0  0  0  0  0  0  0  0  0  0
  -24.1519  -12.9920   20.8184 C   0  0  0  0  0  0  0  0  0  0  0  0
  -27.6004  -14.9695   26.5965 C   0  0  0  0  0  0  0  0  0  0  0  0
  -34.4754  -12.6406   23.7350 C   0  0  0  0  0  0  0  0  0  0  0  0
  -28.4381  -14.5632   25.5403 C   0  0  0  0  0  0  0  0  0  0  0  0
  -35.3039  -13.7065   24.1141 C   0  0  0  0  0  0  0  0  0  0  0  0
  -35.9475  -16.6962   19.1334 C   0  0  0  0  0  0  0  0  0  0  0  0
  -33.2605  -17.2359   18.6125 C   0  0  0  0  0  0  0  0  0  0  0  0
  -33.6337  -16.6618   19.8278 C   0  0  0  0  0  0  0  0  0  0  0  0
  -22.4049   -8.1289   21.4295 C   0  0  0  0  0  0  0  0  0  0  0  0
  -36.4423  -13.5678   21.9706 C   0  0  0  0  0  0  0  0  0  0  0  0
  -20.4189   -6.9096   21.1277 C   0  0  0  0  0  0  0  0  0  0  0  0
  -17.8474   -6.7473   20.0582 C   0  0  0  0  0  0  0  0  0  0  0  0
  -20.1025   -5.8960   20.2231 C   0  0  0  0  0  0  0  0  0  0  0  0
  -24.6131  -11.6660   20.7145 C   0  0  0  0  0  0  0  0  0  0  0  0
  -25.2408  -13.7611   20.4879 C   0  0  0  0  0  0  0  0  0  0  0  0
  -22.8552  -13.4845   21.1811 C   0  0  0  0  0  0  0  0  0  0  0  0
  -32.0946  -14.1913   25.1601 C   0  0  0  0  0  0  0  0  0  0  0  0
  -34.0872  -14.1036   27.7183 C   0  0  0  0  0  0  0  0  0  0  0  0
  -37.2805  -13.8547   28.8962 C   0  0  0  0  0  0  0  0  0  0  0  0
  -30.5626  -14.9348   20.9857 C   0  0  0  0  0  0  0  0  0  0  0  0
  -27.9915  -16.0827   27.5359 C   0  0  0  0  0  0  0  0  0  0  0  0
  -33.4350  -12.1101   24.6829 C   0  0  0  0  0  0  0  0  0  0  0  0
  -35.1678  -14.3785   25.4551 C   0  0  0  0  0  0  0  0  0  0  0  0
  -29.4849  -16.3987   27.5177 C   0  0  0  0  0  0  0  0  0  0  0  0
  -29.7011  -12.4679   18.4819 C   0  0  0  0  0  0  0  0  0  0  0  0
  -29.9924  -16.4961   26.0825 C   0  0  0  0  0  0  0  0  0  0  0  0
  -28.2519  -12.1497   18.8544 C   0  0  0  0  0  0  0  0  0  0  0  0
  -30.5541  -12.6975   19.7260 C   0  0  0  0  0  0  0  0  0  0  0  0
  -28.5882  -13.4371   21.0153 C   0  0  0  0  0  0  0  0  0  0  0  0
  -29.8123  -15.1653   25.3422 C   0  0  1  0  0  0  0  0  0  0  0  0
  -32.9998  -13.1341   25.7265 C   0  0  1  0  0  0  0  0  0  0  0  0
  -27.6692  -13.2167   19.7999 C   0  0  2  0  0  0  0  0  0  0  0  0
  -31.8285  -17.5349   18.3116 C   0  0  0  0  0  0  0  0  0  0  0  0
  -38.5978  -13.8526   31.0322 C   0  0  0  0  0  0  0  0  0  0  0  0
  -33.7523  -17.1293   27.9249 C   0  0  0  0  0  0  0  0  0  0  0  0
  -35.7689  -17.1813   29.4077 C   0  0  0  0  0  0  0  0  0  0  0  0
  -33.7335  -15.9256   30.1169 C   0  0  0  0  0  0  0  0  0  0  0  0
  -38.2979  -11.1198   28.4020 C   0  0  0  0  0  0  0  0  0  0  0  0
  -37.3999  -16.4051   19.4149 C   0  0  0  0  0  0  0  0  0  0  0  0
  -32.6124  -16.3279   20.8653 C   0  0  0  0  0  0  0  0  0  0  0  0
  -37.8453  -15.0094   18.9729 C   0  0  0  0  0  0  0  0  0  0  0  0
  -37.1353  -13.8849   19.7177 C   0  0  0  0  0  0  0  0  0  1  0  0
  -35.1751  -15.0007   28.2573 C   0  0  1  0  0  0  0  0  0  0  0  0
  -37.8851  -12.9990   29.9947 C   0  0  2  0  0  0  0  0  0  0  0  0
  -34.6090  -16.2981   28.9006 C   0  0  0  0  0  0  0  0  0  0  0  0
  -25.8951  -11.5932   20.3467 N   0  0  0  0  0  0  0  0  0  0  0  0
  -26.2487  -12.8832   20.2165 N   0  0  0  0  0  0  0  0  0  0  0  0
  -34.1319  -13.8276   26.3444 N   0  0  0  0  0  0  0  0  0  0  0  0
  -29.9544  -13.7374   20.5740 N   0  0  0  0  0  0  0  0  0  0  0  0
  -25.4249  -15.0960   20.4059 N   0  0  0  0  0  0  0  0  0  0  0  0
  -21.8509  -12.5572   21.4908 N   0  0  0  0  0  0  0  0  0  0  0  0
  -30.8391  -14.2247   25.7363 N   0  0  0  0  0  0  0  0  0  0  0  0
  -35.9681  -14.1800   29.1662 N   0  0  0  0  0  0  0  0  0  0  0  0
  -31.8592  -15.1399   20.5302 N   0  0  0  0  0  0  0  0  0  0  0  0
  -38.8690  -12.0381   29.4206 N   0  3  0  0  0  0  0  0  0  0  0  0
  -22.5902  -14.7101   21.2134 O   0  0  0  0  0  0  0  0  0  0  0  0
  -32.5054  -14.9235   24.2675 O   0  0  0  0  0  0  0  0  0  0  0  0
  -33.2335  -13.6581   28.4893 O   0  0  0  0  0  0  0  0  0  0  0  0
  -37.9107  -14.2029   27.9002 O   0  0  0  0  0  0  0  0  0  0  0  0
  -29.9904  -15.7632   21.7023 O   0  0  0  0  0  0  0  0  0  0  0  0
  -21.6947   -6.9910   21.6601 O   0  0  0  0  0  0  0  0  0  0  0  0
  -37.3961  -14.0240   21.1138 O   0  0  0  0  0  0  0  0  0  1  0  0
  -16.6123   -6.6686   19.5460 F   0  0  0  0  0  0  0  0  0  0  0  0
  -21.0291   -4.9967   19.8649 F   0  0  0  0  0  0  0  0  0  0  0  0
  1  2  1  0  0  0  0
  1  5  2  0  0  0  0
  2  6  2  0  0  0  0
  3 10  2  0  0  0  0
  3 18  1  0  0  0  0
  4 11  1  0  0  0  0
  4 18  2  0  0  0  0
  5 20  1  0  0  0  0
  6 22  1  0  0  0  0
  7 12  2  0  0  0  0
  7 21  1  0  0  0  0
  8  9  2  0  0  0  0
  8 24  1  0  0  0  0
  9 25  1  0  0  0  0
 10 27  1  0  0  0  0
 11 27  2  0  0  0  0
 12 28  1  0  0  0  0
 13 14  2  0  0  0  0
 13 29  1  0  0  0  0
 14 30  1  0  0  0  0
 15 23  1  0  0  0  0
 15 28  2  0  0  0  0
 16 24  2  0  0  0  0
 16 26  1  0  0  0  0
 17 30  2  0  0  0  0
 17 31  1  0  0  0  0
 18 32  1  0  0  0  0
 19 32  1  0  0  0  0
 19 33  2  0  0  0  0
 19 34  1  0  0  0  0
 20 22  2  0  0  0  0
 20 39  1  0  0  0  0
 21 23  2  0  0  0  0
 21 40  1  0  0  0  0
 22 48  1  0  0  0  0
 23 41  1  0  0  0  0
 24 57  1  0  0  0  0
 25 26  2  0  0  0  0
 25 51  1  0  0  0  0
 26 58  1  0  0  0  0
 27 79  1  0  0  0  0
 28 80  1  0  0  0  0
 29 31  2  0  0  0  0
 29 79  1  0  0  0  0
 30 81  1  0  0  0  0
 31 82  1  0  0  0  0
 32 64  2  0  0  0  0
 33 65  1  0  0  0  0
 33 68  1  0  0  0  0
 34 69  1  0  0  0  0
 34 74  2  0  0  0  0
 35 49  1  0  0  0  0
 35 70  1  0  0  0  0
 35 75  2  0  0  0  0
 36 61  1  0  0  0  0
 36 66  1  0  0  0  0
 36 76  2  0  0  0  0
 37 62  1  0  0  0  0
 37 71  1  0  0  0  0
 37 77  2  0  0  0  0
 38 67  1  0  0  0  0
 38 72  1  0  0  0  0
 38 78  2  0  0  0  0
 39 42  1  0  0  0  0
 40 49  1  0  0  0  0
 41 66  1  0  0  0  0
 42 44  1  0  0  0  0
 43 45  1  0  0  0  0
 43 46  1  0  0  0  0
 44 48  1  0  0  0  0
 45 50  1  0  0  0  0
 46 67  1  0  0  0  0
 47 50  1  0  0  0  0
 47 67  1  0  0  0  0
 48 70  1  0  0  0  0
 49 66  1  0  0  0  0
 50 65  1  0  0  0  0
 52 62  1  0  0  0  0
 53 63  1  0  0  0  0
 54 63  1  0  0  0  0
 55 63  1  0  0  0  0
 56 73  1  0  0  0  0
 57 59  1  0  0  0  0
 58 72  1  0  0  0  0
 59 60  1  0  0  0  0
 60 80  1  0  0  0  0
 61 63  1  0  0  0  0
 61 71  1  0  0  0  0
 62 73  1  0  0  0  0
 64 65  1  0  0  0  0
M  CHG  1  73   1
M  ISO  4  38 100  60 101  72 100  80 101
M  END
> <Batch ID>
0031

> <Smiles>
CNC(C)C(=O)NC(C(=O)N1Cc2cc([101O:1][101CH2:1]CCc3ccc(C)c(C[100NH:0][100C:0](=O)N4CCCC(n5nc(-c6ccc(Oc7ccc(F)cc7F)cc6)c(C(N)=O)c5N)C4)c3)ccc2CC1C(=O)NC1CCCc2ccccc21)C(C)(C)C

> <Shape>
0.136

> <Color>
0.178

> <Negative vol penalty>
0.000

$$$$

  -OEChem-04052316423D

 90 99  0     1  0  0  0  0  0999 V2000
  -17.3226  -26.3699   22.6890 C   0  0  0  0  0  0  0  0  0  0  0  0
  -18.5843  -25.8398   22.9390 C   0  0  0  0  0  0  0  0  0  0  0  0
  -25.4354  -26.3316   20.1872 C   0  0  0  0  0  0  0  0  0  0  0  0
  -29.8003  -13.5854   20.2611 C   0  0  0  0  0  0  0  0  0  0  0  0
  -28.7048  -13.1906   18.1443 C   0  0  0  0  0  0  0  0  0  0  0  0
  -26.7270  -25.9546   19.8196 C   0  0  0  0  0  0  0  0  0  0  0  0
  -17.1997  -27.5990   22.0424 C   0  0  0  0  0  0  0  0  0  0  0  0
  -19.7239  -26.5380   22.5415 C   0  0  0  0  0  0  0  0  0  0  0  0
  -25.1148  -26.7414   25.4404 C   0  0  0  0  0  0  0  0  0  0  0  0
  -29.0348  -12.5764   20.8455 C   0  0  0  0  0  0  0  0  0  0  0  0
  -27.9393  -12.1815   18.7286 C   0  0  0  0  0  0  0  0  0  0  0  0
  -26.3106  -26.0512   25.2466 C   0  0  0  0  0  0  0  0  0  0  0  0
  -25.2006  -11.9560   20.6983 C   0  0  0  0  0  0  0  0  0  0  0  0
  -23.8353  -11.9313   20.4141 C   0  0  0  0  0  0  0  0  0  0  0  0
  -24.7548  -25.6181   21.1738 C   0  0  0  0  0  0  0  0  0  0  0  0
  -26.6575  -24.1506   21.4252 C   0  0  0  0  0  0  0  0  0  0  0  0
  -27.1529  -27.8914   23.9338 C   0  0  0  0  0  0  0  0  0  0  0  0
  -24.0729   -9.7225   19.4644 C   0  0  0  0  0  0  0  0  0  0  0  0
  -29.6353  -13.8925   18.9105 C   0  0  0  0  0  0  0  0  0  0  0  0
  -27.3381  -24.8642   20.4386 C   0  0  0  0  0  0  0  0  0  0  0  0
  -31.6798  -14.7979   17.6826 C   0  0  0  0  0  0  0  0  0  0  0  0
  -18.3387  -28.3173   21.6454 C   0  0  0  0  0  0  0  0  0  0  0  0
  -24.9246  -28.0092   24.8722 C   0  0  0  0  0  0  0  0  0  0  0  0
  -19.6162  -27.7773   21.8878 C   0  0  0  0  0  0  0  0  0  0  0  0
  -25.9547  -28.5967   24.1240 C   0  0  0  0  0  0  0  0  0  0  0  0
  -28.1043  -11.8744   20.0793 C   0  0  0  0  0  0  0  0  0  0  0  0
  -27.3288  -26.6250   24.4908 C   0  0  0  0  0  0  0  0  0  0  0  0
  -26.0022  -10.8639   20.3655 C   0  0  0  0  0  0  0  0  0  0  0  0
  -23.2714  -10.8146   19.7972 C   0  0  0  0  0  0  0  0  0  0  0  0
  -25.4382   -9.7472   19.7486 C   0  0  0  0  0  0  0  0  0  0  0  0
  -25.3658  -24.5276   21.7928 C   0  0  0  0  0  0  0  0  0  0  0  0
  -30.4253  -14.9351   18.3065 C   0  0  0  0  0  0  0  0  0  0  0  0
  -32.0028  -16.0699   17.2773 C   0  0  0  0  0  0  0  0  0  0  0  0
  -31.1041  -23.4257   18.5983 C   0  0  0  0  0  0  0  0  0  0  0  0
  -30.6546  -25.6553   18.9576 C   0  0  0  0  0  0  0  0  0  0  0  0
  -28.7181  -24.4617   20.0447 C   0  0  0  0  0  0  0  0  0  0  0  0
  -30.0802  -22.7871   19.1843 C   0  0  0  0  0  0  0  0  0  0  0  0
  -32.4815  -13.6254   17.4869 C   0  0  0  0  0  0  0  0  0  0  0  0
  -30.2916  -21.3423   19.4048 C   0  0  0  0  0  0  0  0  0  0  0  0
  -22.8991  -29.2363   22.7519 C   0  0  0  0  0  0  0  0  0  0  0  0
  -24.3504  -32.0225   23.5601 C   0  0  0  0  0  0  0  0  0  0  0  0
  -27.1072  -33.5961   24.8133 C   0  0  0  0  0  0  0  0  0  0  0  0
  -18.1549  -29.6196   20.9072 C   0  0  0  0  0  0  0  0  0  0  0  0
  -23.6390  -28.7520   25.1129 C   0  0  0  0  0  0  0  0  0  0  0  0
  -25.8082  -29.9640   23.5096 C   0  0  0  0  0  0  0  0  0  0  0  0
  -19.4196  -30.4728   20.8531 C   0  0  0  0  0  0  0  0  0  0  0  0
  -30.0255  -20.1977   15.9333 C   0  0  0  0  0  0  0  0  0  0  0  0
  -20.6222  -29.6204   20.4606 C   0  0  0  0  0  0  0  0  0  0  0  0
  -30.1681  -18.6883   16.1100 C   0  0  0  0  0  0  0  0  0  0  0  0
  -29.2939  -20.8444   17.1085 C   0  0  0  0  0  0  0  0  0  0  0  0
  -30.0450  -19.0225   18.6107 C   0  0  0  0  0  0  0  0  0  0  0  0
  -20.8767  -28.5164   21.4940 C   0  0  1  0  0  0  0  0  0  0  0  0
  -23.3587  -29.8185   24.0586 C   0  0  1  0  0  0  0  0  0  0  0  0
  -30.8198  -18.3577   17.4621 C   0  0  1  0  0  0  0  0  0  0  0  0
  -29.8439  -25.4828   20.2234 C   0  0  1  0  0  0  0  0  0  0  0  0
  -28.0123  -35.8819   25.3163 C   0  0  0  0  0  0  0  0  0  0  0  0
  -24.8755  -32.4661   20.5873 C   0  0  0  0  0  0  0  0  0  0  0  0
  -26.5600  -34.2084   21.2161 C   0  0  0  0  0  0  0  0  0  0  0  0
  -24.1632  -34.5116   21.8375 C   0  0  0  0  0  0  0  0  0  0  0  0
  -27.3559  -32.9894   27.6992 C   0  0  0  0  0  0  0  0  0  0  0  0
  -29.9864  -24.9564   22.7035 C   0  0  0  0  0  0  0  0  0  0  0  0
  -29.1986  -26.2043   23.0828 C   0  0  0  0  0  0  0  0  0  1  0  0
  -25.5515  -32.7871   23.0584 C   0  0  1  0  0  0  0  0  0  0  0  0
  -27.2570  -34.6811   25.8643 C   0  0  2  0  0  0  0  0  0  0  0  0
  -30.7517  -25.1412   21.4022 C   0  0  0  0  0  0  0  0  0  0  0  0
  -25.2899  -33.4667   21.6846 C   0  0  0  0  0  0  0  0  0  0  0  0
  -29.9816  -16.1949   18.3006 N   0  0  0  0  0  0  0  0  0  0  0  0
  -31.2024  -24.7366   18.2282 N   0  0  0  0  0  0  0  0  0  0  0  0
  -28.8591  -23.2660   19.5586 N   0  0  0  0  0  0  0  0  0  0  0  0
  -30.9627  -16.8609   17.6681 N   0  0  0  0  0  0  0  0  0  0  0  0
  -29.9002  -20.4663   18.3939 N   0  0  0  0  0  0  0  0  0  0  0  0
  -24.5302  -30.6477   23.7681 N   0  0  0  0  0  0  0  0  0  0  0  0
  -33.0721  -16.5777   16.6284 N   0  0  0  0  0  0  0  0  0  0  0  0
  -32.0001  -12.3993   17.9656 N   0  0  0  0  0  0  0  0  0  0  0  0
  -21.5313  -29.0607   22.6643 N   0  0  0  0  0  0  0  0  0  0  0  0
  -25.9193  -33.7140   24.1232 N   0  0  0  0  0  0  0  0  0  0  0  0
  -27.9992  -34.1585   27.0462 N   0  3  0  0  0  0  0  0  0  0  0  0
  -33.5994  -13.6667   16.9194 O   0  0  0  0  0  0  0  0  0  0  0  0
  -30.7981  -20.9984   20.4743 O   0  0  0  0  0  0  0  0  0  0  0  0
  -23.7243  -28.9676   21.8867 O   0  0  0  0  0  0  0  0  0  0  0  0
  -23.2936  -32.6243   23.7668 O   0  0  0  0  0  0  0  0  0  0  0  0
  -27.9604  -32.7327   24.6209 O   0  0  0  0  0  0  0  0  0  0  0  0
  -27.3574  -10.8896   20.6491 O   0  0  0  0  0  0  0  0  0  0  0  0
  -28.4967  -25.9533   24.2996 O   0  0  0  0  0  0  0  0  0  1  0  0
  -21.9599  -10.7904   19.5257 F   0  0  0  0  0  0  0  0  0  0  0  0
  -26.2030   -8.6946   19.4277 F   0  0  0  0  0  0  0  0  0  0  0  0
  -29.3149  -26.7162   20.5132 F   0  0  0  0  0  0  0  0  0  0  0  0
  -31.4388  -24.0074   21.1114 F   0  0  0  0  0  0  0  0  0  0  0  0
  -31.6700  -26.1298   21.5485 F   0  0  0  0  0  0  0  0  0  0  0  0
  -24.5256  -23.6479   23.0105 Cl  0  0  0  0  0  0  0  0  0  0  0  0
  1  2  1  0  0  0  0
  1  7  2  0  0  0  0
  2  8  2  0  0  0  0
  3  6  2  0  0  0  0
  3 15  1  0  0  0  0
  4 10  2  0  0  0  0
  4 19  1  0  0  0  0
  5 11  1  0  0  0  0
  5 19  2  0  0  0  0
  6 20  1  0  0  0  0
  7 22  1  0  0  0  0
  8 24  1  0  0  0  0
  9 12  2  0  0  0  0
  9 23  1  0  0  0  0
 10 26  1  0  0  0  0
 11 26  2  0  0  0  0
 12 27  1  0  0  0  0
 13 14  2  0  0  0  0
 13 28  1  0  0  0  0
 14 29  1  0  0  0  0
 15 31  2  0  0  0  0
 16 20  2  0  0  0  0
 16 31  1  0  0  0  0
 17 25  1  0  0  0  0
 17 27  2  0  0  0  0
 18 29  2  0  0  0  0
 18 30  1  0  0  0  0
 19 32  1  0  0  0  0
 20 36  1  0  0  0  0
 21 32  1  0  0  0  0
 21 33  2  0  0  0  0
 21 38  1  0  0  0  0
 22 24  2  0  0  0  0
 22 43  1  0  0  0  0
 23 25  2  0  0  0  0
 23 44  1  0  0  0  0
 24 52  1  0  0  0  0
 25 45  1  0  0  0  0
 26 83  1  0  0  0  0
 27 84  1  0  0  0  0
 28 30  2  0  0  0  0
 28 83  1  0  0  0  0
 29 85  1  0  0  0  0
 30 86  1  0  0  0  0
 31 90  1  0  0  0  0
 32 67  2  0  0  0  0
 33 70  1  0  0  0  0
 33 73  1  0  0  0  0
 34 37  2  0  0  0  0
 34 68  1  0  0  0  0
 35 55  1  0  0  0  0
 35 68  2  0  0  0  0
 36 55  1  0  0  0  0
 36 69  2  0  0  0  0
 37 39  1  0  0  0  0
 37 69  1  0  0  0  0
 38 74  1  0  0  0  0
 38 78  2  0  0  0  0
 39 71  1  0  0  0  0
 39 79  2  0  0  0  0
 40 53  1  0  0  0  0
 40 75  1  0  0  0  0
 40 80  2  0  0  0  0
 41 63  1  0  0  0  0
 41 72  1  0  0  0  0
 41 81  2  0  0  0  0
 42 64  1  0  0  0  0
 42 76  1  0  0  0  0
 42 82  2  0  0  0  0
 43 46  1  0  0  0  0
 44 53  1  0  0  0  0
 45 72  1  0  0  0  0
 46 48  1  0  0  0  0
 47 49  1  0  0  0  0
 47 50  1  0  0  0  0
 48 52  1  0  0  0  0
 49 54  1  0  0  0  0
 50 71  1  0  0  0  0
 51 54  1  0  0  0  0
 51 71  1  0  0  0  0
 52 75  1  0  0  0  0
 53 72  1  0  0  0  0
 54 70  1  0  0  0  0
 55 65  1  0  0  0  0
 55 87  1  0  0  0  0
 56 64  1  0  0  0  0
 57 66  1  0  0  0  0
 58 66  1  0  0  0  0
 59 66  1  0  0  0  0
 60 77  1  0  0  0  0
 61 62  1  0  0  0  0
 61 65  1  0  0  0  0
 62 84  1  0  0  0  0
 63 66  1  0  0  0  0
 63 76  1  0  0  0  0
 64 77  1  0  0  0  0
 65 88  1  0  0  0  0
 65 89  1  0  0  0  0
 67 70  1  0  0  0  0
M  CHG  1  77   1
M  ISO  4  37 100  39 100  62 101  84 101
M  END
> <Batch ID>
0031

> <Smiles>
CNC(C)C(=O)NC(C(=O)N1Cc2cc([101O:1][101CH2:1]CC(F)(F)C3(F)C=NC=[100C:0]([100C:0](=O)N4CCCC(n5nc(-c6ccc(Oc7ccc(F)cc7F)cc6)c(C(N)=O)c5N)C4)N=C3c3cccc(Cl)c3)ccc2CC1C(=O)NC1CCCc2ccccc21)C(C)(C)C

> <Shape>
0.262

> <Color>
0.091

> <Negative vol penalty>
0.000

$$$$

  -OEChem-04052316423D

 94105  0     1  0  0  0  0  0999 V2000
  -22.2006  -36.3846   17.4970 C   0  0  0  0  0  0  0  0  0  0  0  0
  -22.2917  -35.0631   17.0716 C   0  0  0  0  0  0  0  0  0  0  0  0
  -24.5227   -9.1818   21.5108 C   0  0  0  0  0  0  0  0  0  0  0  0
  -22.7036  -10.3909   20.4783 C   0  0  0  0  0  0  0  0  0  0  0  0
  -23.0269  -36.8444   18.5215 C   0  0  0  0  0  0  0  0  0  0  0  0
  -23.2100  -34.2010   17.6698 C   0  0  0  0  0  0  0  0  0  0  0  0
  -24.0609  -27.3159   19.4550 C   0  0  0  0  0  0  0  0  0  0  0  0
  -23.7092   -8.0545   21.6240 C   0  0  0  0  0  0  0  0  0  0  0  0
  -21.8901   -9.2635   20.5915 C   0  0  0  0  0  0  0  0  0  0  0  0
  -24.9669  -26.2674   19.3014 C   0  0  0  0  0  0  0  0  0  0  0  0
  -21.2374   -6.9607   23.6533 C   0  0  0  0  0  0  0  0  0  0  0  0
  -21.2507   -6.2720   24.8662 C   0  0  0  0  0  0  0  0  0  0  0  0
  -29.0125  -23.4649   18.4566 C   0  0  0  0  0  0  0  0  0  0  0  0
  -26.2879  -27.1511   21.1161 C   0  0  0  0  0  0  0  0  0  0  0  0
  -22.0129   -4.2819   23.7280 C   0  0  0  0  0  0  0  0  0  0  0  0
  -29.9698  -22.4405   18.4953 C   0  0  0  0  0  0  0  0  0  0  0  0
  -24.0199  -10.3501   20.9380 C   0  0  0  0  0  0  0  0  0  0  0  0
  -25.6974  -11.8546   19.7421 C   0  0  0  0  0  0  0  0  0  0  0  0
  -23.9492  -35.9850   19.1391 C   0  0  0  0  0  0  0  0  0  0  0  0
  -24.2677  -28.2975   20.4348 C   0  0  0  0  0  0  0  0  0  0  0  0
  -24.0505  -34.6502   18.7026 C   0  0  0  0  0  0  0  0  0  0  0  0
  -25.3817  -28.2096   21.2818 C   0  0  0  0  0  0  0  0  0  0  0  0
  -31.3291  -22.3274   18.0894 C   0  0  0  0  0  0  0  0  0  0  0  0
  -29.6050  -21.2056   19.0415 C   0  0  0  0  0  0  0  0  0  0  0  0
  -22.3929   -8.0953   21.1643 C   0  0  0  0  0  0  0  0  0  0  0  0
  -26.0822  -26.1865   20.1301 C   0  0  0  0  0  0  0  0  0  0  0  0
  -21.6118   -6.3100   22.4777 C   0  0  0  0  0  0  0  0  0  0  0  0
  -21.6384   -4.9327   24.9036 C   0  0  0  0  0  0  0  0  0  0  0  0
  -21.9996   -4.9706   22.5150 C   0  0  0  0  0  0  0  0  0  0  0  0
  -24.8596  -11.5152   20.8213 C   0  0  0  0  0  0  0  0  0  0  0  0
  -31.7471  -21.0499   18.4010 C   0  0  0  0  0  0  0  0  0  0  0  0
  -27.7610  -23.1554   18.9719 C   0  0  0  0  0  0  0  0  0  0  0  0
  -28.3301  -20.9691   19.5391 C   0  0  0  0  0  0  0  0  0  0  0  0
  -26.2743  -13.0436   20.1160 C   0  0  0  0  0  0  0  0  0  0  0  0
  -25.9330  -11.1574   18.5116 C   0  0  0  0  0  0  0  0  0  0  0  0
  -24.7433  -31.4401   20.3962 C   0  0  0  0  0  0  0  0  0  0  0  0
  -24.5371  -31.1182   23.6174 C   0  0  0  0  0  0  0  0  0  0  0  0
  -24.8356  -29.0987   26.3522 C   0  0  0  0  0  0  0  0  0  0  0  0
  -25.8932  -18.1584   22.3157 C   0  0  0  0  0  0  0  0  0  0  0  0
  -24.8542  -36.5402   20.2102 C   0  0  0  0  0  0  0  0  0  0  0  0
  -23.2669  -29.4073   20.6053 C   0  0  0  0  0  0  0  0  0  0  0  0
  -32.2362  -23.3319   17.4646 C   0  0  0  0  0  0  0  0  0  0  0  0
  -25.6385  -29.2268   22.3624 C   0  0  0  0  0  0  0  0  0  0  0  0
  -33.0917  -20.4735   18.1384 C   0  0  0  0  0  0  0  0  0  0  0  0
  -25.5395  -35.4631   21.0471 C   0  0  0  0  0  0  0  0  0  0  0  0
  -33.4875  -22.6573   16.8688 C   0  0  0  0  0  0  0  0  0  0  0  0
  -34.0879  -21.6037   17.8189 C   0  0  0  0  0  0  0  0  0  0  0  0
  -32.0296  -17.6659   23.3712 C   0  0  0  0  0  0  0  0  0  0  0  0
  -30.6110  -17.3350   22.9182 C   0  0  0  0  0  0  0  0  0  0  0  0
  -32.4589  -19.0528   22.9030 C   0  0  0  0  0  0  0  0  0  0  0  0
  -26.2950  -15.4348   24.5734 C   0  0  0  0  0  0  0  0  0  0  0  0
  -26.1202  -34.3768   20.1473 C   0  0  0  0  0  0  0  0  0  0  0  0
  -30.4514  -17.4903   21.4076 C   0  0  0  0  0  0  0  0  0  0  0  0
  -32.3023  -19.2111   21.3924 C   0  0  0  0  0  0  0  0  0  0  0  0
  -26.0204  -14.2014   23.7112 C   0  0  0  0  0  0  0  0  0  0  0  0
  -25.3982  -16.6074   24.1828 C   0  0  0  0  0  0  0  0  0  0  0  0
  -25.1617  -15.7334   21.8906 C   0  0  0  0  0  0  0  0  0  0  0  0
  -25.0169  -33.6780   19.3436 C   0  0  1  0  0  0  0  0  0  0  0  0
  -23.8492  -30.6360   21.2971 C   0  0  1  0  0  0  0  0  0  0  0  0
  -30.8739  -18.8875   20.9338 C   0  0  0  0  0  0  0  0  0  0  0  0
  -26.0809  -14.5420   22.2100 C   0  0  2  0  0  0  0  0  0  0  0  0
  -24.6403  -29.1287   28.8539 C   0  0  0  0  0  0  0  0  0  0  0  0
  -27.2223  -32.5546   23.8074 C   0  0  0  0  0  0  0  0  0  0  0  0
  -27.4214  -31.7237   26.1607 C   0  0  0  0  0  0  0  0  0  0  0  0
  -25.5464  -33.2437   25.5310 C   0  0  0  0  0  0  0  0  0  0  0  0
  -22.6700  -27.0817   26.3233 C   0  0  0  0  0  0  0  0  0  0  0  0
  -27.8841  -19.6765   20.1323 C   0  0  0  0  0  0  0  0  0  0  0  0
  -26.6939  -24.2102   18.9571 C   0  0  0  0  0  0  0  0  0  1  0  0
  -30.7562  -19.0007   19.4151 C   0  0  0  0  0  0  0  0  0  0  0  0
  -26.3675  -19.5870   20.3426 C   0  0  0  0  0  0  0  0  0  0  0  0
  -25.5207  -30.8459   24.7297 C   0  0  1  0  0  0  0  0  0  0  0  0
  -23.9189  -28.8700   27.5404 C   0  0  2  0  0  0  0  0  0  0  0  0
  -26.4242  -32.0737   25.0356 C   0  0  0  0  0  0  0  0  0  0  0  0
  -24.8980  -12.4157   21.8069 N   0  0  0  0  0  0  0  0  0  0  0  0
  -27.4096  -21.9600   19.4979 N   0  0  0  0  0  0  0  0  0  0  0  0
  -30.7038  -20.3780   18.9704 N   0  0  0  0  0  0  0  0  0  0  0  0
  -25.7670  -13.3327   21.3486 N   0  0  0  0  0  0  0  0  0  0  0  0
  -24.6344  -30.2965   22.4855 N   0  0  0  0  0  0  0  0  0  0  0  0
  -25.5031  -16.8799   22.7473 N   0  0  0  0  0  0  0  0  0  0  0  0
  -27.1610  -13.8596   19.5075 N   0  0  0  0  0  0  0  0  0  0  0  0
  -25.2581   -9.9496   18.2881 N   0  0  0  0  0  0  0  0  0  0  0  0
  -24.3060  -32.7326   20.1774 N   0  0  0  0  0  0  0  0  0  0  0  0
  -24.7326  -30.3856   25.8679 N   0  0  0  0  0  0  0  0  0  0  0  0
  -25.9737  -18.3301   20.9392 N   0  0  0  0  0  0  0  0  0  0  0  0
  -23.4199  -27.4657   27.5469 N   0  3  0  0  0  0  0  0  0  0  0  0
  -26.7313  -11.5843   17.6432 O   0  0  0  0  0  0  0  0  0  0  0  0
  -25.7558  -30.9265   19.9349 O   0  0  0  0  0  0  0  0  0  0  0  0
  -23.7081  -32.0219   23.7509 O   0  0  0  0  0  0  0  0  0  0  0  0
  -25.5724  -28.2244   25.9013 O   0  0  0  0  0  0  0  0  0  0  0  0
  -26.1559  -19.0772   23.0992 O   0  0  0  0  0  0  0  0  0  0  0  0
  -21.5989   -6.9953   21.2744 O   0  0  0  0  0  0  0  0  0  0  0  0
  -26.9685  -25.1645   19.9819 O   0  0  0  0  0  0  0  0  0  1  0  0
  -21.6526   -4.2719   26.0686 F   0  0  0  0  0  0  0  0  0  0  0  0
  -22.3614   -4.3405   21.3891 F   0  0  0  0  0  0  0  0  0  0  0  0
  1  2  1  0  0  0  0
  1  5  2  0  0  0  0
  2  6  2  0  0  0  0
  3  8  2  0  0  0  0
  3 17  1  0  0  0  0
  4  9  1  0  0  0  0
  4 17  2  0  0  0  0
  5 19  1  0  0  0  0
  6 21  1  0  0  0  0
  7 10  2  0  0  0  0
  7 20  1  0  0  0  0
  8 25  1  0  0  0  0
  9 25  2  0  0  0  0
 10 26  1  0  0  0  0
 11 12  2  0  0  0  0
 11 27  1  0  0  0  0
 12 28  1  0  0  0  0
 13 16  2  0  0  0  0
 13 32  1  0  0  0  0
 14 22  1  0  0  0  0
 14 26  2  0  0  0  0
 15 28  2  0  0  0  0
 15 29  1  0  0  0  0
 16 23  1  0  0  0  0
 16 24  1  0  0  0  0
 17 30  1  0  0  0  0
 18 30  1  0  0  0  0
 18 34  2  0  0  0  0
 18 35  1  0  0  0  0
 19 21  2  0  0  0  0
 19 40  1  0  0  0  0
 20 22  2  0  0  0  0
 20 41  1  0  0  0  0
 21 58  1  0  0  0  0
 22 43  1  0  0  0  0
 23 31  2  0  0  0  0
 23 42  1  0  0  0  0
 24 33  2  0  0  0  0
 24 76  1  0  0  0  0
 25 91  1  0  0  0  0
 26 92  1  0  0  0  0
 27 29  2  0  0  0  0
 27 91  1  0  0  0  0
 28 93  1  0  0  0  0
 29 94  1  0  0  0  0
 30 74  2  0  0  0  0
 31 44  1  0  0  0  0
 31 76  1  0  0  0  0
 32 68  1  0  0  0  0
 32 75  2  0  0  0  0
 33 67  1  0  0  0  0
 33 75  1  0  0  0  0
 34 77  1  0  0  0  0
 34 80  1  0  0  0  0
 35 81  1  0  0  0  0
 35 86  2  0  0  0  0
 36 59  1  0  0  0  0
 36 82  1  0  0  0  0
 36 87  2  0  0  0  0
 37 71  1  0  0  0  0
 37 78  1  0  0  0  0
 37 88  2  0  0  0  0
 38 72  1  0  0  0  0
 38 83  1  0  0  0  0
 38 89  2  0  0  0  0
 39 79  1  0  0  0  0
 39 84  1  0  0  0  0
 39 90  2  0  0  0  0
 40 45  1  0  0  0  0
 41 59  1  0  0  0  0
 42 46  1  0  0  0  0
 43 78  1  0  0  0  0
 44 47  1  0  0  0  0
 45 52  1  0  0  0  0
 46 47  1  0  0  0  0
 48 49  1  0  0  0  0
 48 50  1  0  0  0  0
 49 53  1  0  0  0  0
 50 54  1  0  0  0  0
 51 55  1  0  0  0  0
 51 56  1  0  0  0  0
 52 58  1  0  0  0  0
 53 60  1  0  0  0  0
 54 60  1  0  0  0  0
 55 61  1  0  0  0  0
 56 79  1  0  0  0  0
 57 61  1  0  0  0  0
 57 79  1  0  0  0  0
 58 82  1  0  0  0  0
 59 78  1  0  0  0  0
 60 69  1  0  0  0  0
 61 77  1  0  0  0  0
 62 72  1  0  0  0  0
 63 73  1  0  0  0  0
 64 73  1  0  0  0  0
 65 73  1  0  0  0  0
 66 85  1  0  0  0  0
 67 70  1  0  0  0  0
 68 92  1  0  0  0  0
 69 76  1  0  0  0  0
 70 84  1  0  0  0  0
 71 73  1  0  0  0  0
 71 83  1  0  0  0  0
 72 85  1  0  0  0  0
 74 77  1  0  0  0  0
M  CHG  1  85   1
M  ISO  4  39 100  68 101  84 100  92 101
M  END
> <Batch ID>
0031

> <Smiles>
CNC(C)C(=O)NC(C(=O)N1Cc2cc([101O:1][101CH2:1]c3cc4c5c(n(CC6CCCCC6)c4c(CC[100NH:0][100C:0](=O)N4CCCC(n6nc(-c7ccc(Oc8ccc(F)cc8F)cc7)c(C(N)=O)c6N)C4)n3)CCCC5)ccc2CC1C(=O)NC1CCCc2ccccc21)C(C)(C)C

> <Shape>
0.280

> <Color>
0.109

> <Negative vol penalty>
0.000

$$$$

  -OEChem-04052316423D

 84 92  0     1  0  0  0  0  0999 V2000
  -17.6089  -22.8113   30.9605 C   0  0  0  0  0  0  0  0  0  0  0  0
  -18.6715  -22.3213   30.2080 C   0  0  0  0  0  0  0  0  0  0  0  0
  -23.0973   -9.8740   21.4076 C   0  0  0  0  0  0  0  0  0  0  0  0
  -23.8652  -10.7076   23.5413 C   0  0  0  0  0  0  0  0  0  0  0  0
  -16.6790  -23.6696   30.3752 C   0  0  0  0  0  0  0  0  0  0  0  0
  -18.8041  -22.6885   28.8694 C   0  0  0  0  0  0  0  0  0  0  0  0
  -24.0259  -23.5879   25.7986 C   0  0  0  0  0  0  0  0  0  0  0  0
  -22.3758   -8.8732   22.0583 C   0  0  0  0  0  0  0  0  0  0  0  0
  -23.1437   -9.7068   24.1920 C   0  0  0  0  0  0  0  0  0  0  0  0
  -24.7566  -22.7756   24.9326 C   0  0  0  0  0  0  0  0  0  0  0  0
  -20.6200   -5.8785   23.1411 C   0  0  0  0  0  0  0  0  0  0  0  0
  -20.6989   -4.5832   22.6297 C   0  0  0  0  0  0  0  0  0  0  0  0
  -23.6794  -23.8266   23.0474 C   0  0  0  0  0  0  0  0  0  0  0  0
  -27.4434  -18.3270   21.1238 C   0  0  0  0  0  0  0  0  0  0  0  0
  -23.0877   -4.5859   22.9915 C   0  0  0  0  0  0  0  0  0  0  0  0
  -23.8421  -10.7912   22.1491 C   0  0  0  0  0  0  0  0  0  0  0  0
  -24.1367  -13.1140   21.1365 C   0  0  0  0  0  0  0  0  0  0  0  0
  -16.8057  -24.0551   29.0314 C   0  0  0  0  0  0  0  0  0  0  0  0
  -23.1069  -24.5197   25.2950 C   0  0  0  0  0  0  0  0  0  0  0  0
  -17.8742  -23.5516   28.2652 C   0  0  0  0  0  0  0  0  0  0  0  0
  -22.9401  -24.6514   23.9090 C   0  0  0  0  0  0  0  0  0  0  0  0
  -26.7897  -19.0297   22.1359 C   0  0  0  0  0  0  0  0  0  0  0  0
  -28.2133  -19.0125   20.1840 C   0  0  0  0  0  0  0  0  0  0  0  0
  -28.3293  -20.4006   20.2563 C   0  0  0  0  0  0  0  0  0  0  0  0
  -27.6755  -21.1033   21.2684 C   0  0  0  0  0  0  0  0  0  0  0  0
  -26.9057  -20.4178   22.2083 C   0  0  0  0  0  0  0  0  0  0  0  0
  -22.3989   -8.7896   23.4504 C   0  0  0  0  0  0  0  0  0  0  0  0
  -24.5814  -22.8929   23.5569 C   0  0  0  0  0  0  0  0  0  0  0  0
  -21.7749   -6.5276   23.5776 C   0  0  0  0  0  0  0  0  0  0  0  0
  -21.9327   -3.9368   22.5550 C   0  0  0  0  0  0  0  0  0  0  0  0
  -23.0088   -5.8813   23.5028 C   0  0  0  0  0  0  0  0  0  0  0  0
  -24.5881  -11.8249   21.4775 C   0  0  0  0  0  0  0  0  0  0  0  0
  -25.2135  -13.7029   20.5199 C   0  0  0  0  0  0  0  0  0  0  0  0
  -22.8585  -13.7246   21.3575 C   0  0  0  0  0  0  0  0  0  0  0  0
  -19.9665  -24.9377   25.5533 C   0  0  0  0  0  0  0  0  0  0  0  0
  -20.5880  -27.6673   23.9146 C   0  0  0  0  0  0  0  0  0  0  0  0
  -22.6484  -29.3648   21.7886 C   0  0  0  0  0  0  0  0  0  0  0  0
  -30.6782  -14.8099   20.2794 C   0  0  0  0  0  0  0  0  0  0  0  0
  -15.7492  -24.9474   28.4294 C   0  0  0  0  0  0  0  0  0  0  0  0
  -22.3459  -25.4071   26.2415 C   0  0  0  0  0  0  0  0  0  0  0  0
  -21.9809  -25.6503   23.3171 C   0  0  0  0  0  0  0  0  0  0  0  0
  -16.1713  -25.5855   27.1085 C   0  0  0  0  0  0  0  0  0  0  0  0
  -29.5762  -11.7150   18.9067 C   0  0  0  0  0  0  0  0  0  0  0  0
  -16.8007  -24.5435   26.1893 C   0  0  0  0  0  0  0  0  0  0  0  0
  -28.1460  -11.5714   19.4300 C   0  0  0  0  0  0  0  0  0  0  0  0
  -30.4934  -12.3628   19.9417 C   0  0  0  0  0  0  0  0  0  0  0  0
  -28.5835  -13.5083   20.9970 C   0  0  0  0  0  0  0  0  0  0  0  0
  -18.0660  -23.9465   26.8169 C   0  0  1  0  0  0  0  0  0  0  0  0
  -21.0610  -25.9637   25.6361 C   0  0  1  0  0  0  0  0  0  0  0  0
  -27.6085  -12.9111   19.9679 C   0  0  2  0  0  0  0  0  0  0  0  0
  -25.9712  -18.2717   23.1294 C   0  0  0  0  0  0  0  0  0  0  0  0
  -29.1549  -21.1332   19.2465 C   0  0  0  0  0  0  0  0  0  0  0  0
  -27.8004  -22.5924   21.3464 C   0  0  0  0  0  0  0  0  0  0  0  0
  -22.8736  -31.5637   20.6004 C   0  0  0  0  0  0  0  0  0  0  0  0
  -18.4649  -26.7956   21.9040 C   0  0  0  0  0  0  0  0  0  0  0  0
  -19.3881  -28.4840   20.3024 C   0  0  0  0  0  0  0  0  0  0  0  0
  -18.4214  -29.2294   22.4779 C   0  0  0  0  0  0  0  0  0  0  0  0
  -25.1905  -29.9838   23.1718 C   0  0  0  0  0  0  0  0  0  0  0  0
  -28.9038  -18.2362   19.1107 C   0  0  0  0  0  0  0  0  0  0  0  0
  -26.2016  -21.1713   23.2982 C   0  0  0  0  0  0  0  0  0  1  0  0
  -30.4034  -17.9934   19.3664 C   0  0  0  0  0  0  0  0  0  0  0  0
  -30.7087  -17.2604   20.6710 C   0  0  0  0  0  0  0  0  0  0  0  0
  -20.6555  -28.0461   22.4549 C   0  0  1  0  0  0  0  0  0  0  0  0
  -23.2225  -30.7688   21.8491 C   0  0  2  0  0  0  0  0  0  0  0  0
  -19.2492  -28.1185   21.7957 C   0  0  0  0  0  0  0  0  0  0  0  0
  -25.8530  -11.6069   21.1080 N   0  0  0  0  0  0  0  0  0  0  0  0
  -26.2056  -12.7670   20.5283 N   0  0  0  0  0  0  0  0  0  0  0  0
  -21.2554  -26.4908   24.2839 N   0  0  0  0  0  0  0  0  0  0  0  0
  -29.9272  -13.6301   20.4099 N   0  0  0  0  0  0  0  0  0  0  0  0
  -25.3990  -14.9247   19.9766 N   0  0  0  0  0  0  0  0  0  0  0  0
  -21.8648  -12.9786   22.0058 N   0  0  0  0  0  0  0  0  0  0  0  0
  -19.1770  -24.8645   26.6851 N   0  0  0  0  0  0  0  0  0  0  0  0
  -21.4102  -29.2930   22.3912 N   0  0  0  0  0  0  0  0  0  0  0  0
  -30.0650  -15.9676   20.7425 N   0  0  0  0  0  0  0  0  0  0  0  0
  -24.7067  -30.7165   21.9735 N   0  3  0  0  0  0  0  0  0  0  0  0
  -22.5997  -14.8914   20.9764 O   0  0  0  0  0  0  0  0  0  0  0  0
  -19.8461  -24.2634   24.5371 O   0  0  0  0  0  0  0  0  0  0  0  0
  -19.9720  -28.3925   24.6997 O   0  0  0  0  0  0  0  0  0  0  0  0
  -23.2375  -28.4266   21.2565 O   0  0  0  0  0  0  0  0  0  0  0  0
  -31.8090  -14.8309   19.7817 O   0  0  0  0  0  0  0  0  0  0  0  0
  -21.6948   -7.8133   24.0857 O   0  0  0  0  0  0  0  0  0  0  0  0
  -25.2929  -22.1008   22.7094 O   0  0  0  0  0  0  0  0  0  1  0  0
  -22.0082   -2.6924   22.0653 F   0  0  0  0  0  0  0  0  0  0  0  0
  -24.1216   -6.4993   23.9217 F   0  0  0  0  0  0  0  0  0  0  0  0
  1  2  1  0  0  0  0
  1  5  2  0  0  0  0
  2  6  2  0  0  0  0
  3  8  2  0  0  0  0
  3 16  1  0  0  0  0
  4  9  1  0  0  0  0
  4 16  2  0  0  0  0
  5 18  1  0  0  0  0
  6 20  1  0  0  0  0
  7 10  2  0  0  0  0
  7 19  1  0  0  0  0
  8 27  1  0  0  0  0
  9 27  2  0  0  0  0
 10 28  1  0  0  0  0
 11 12  2  0  0  0  0
 11 29  1  0  0  0  0
 12 30  1  0  0  0  0
 13 21  1  0  0  0  0
 13 28  2  0  0  0  0
 14 22  2  0  0  0  0
 14 23  1  0  0  0  0
 15 30  2  0  0  0  0
 15 31  1  0  0  0  0
 16 32  1  0  0  0  0
 17 32  1  0  0  0  0
 17 33  2  0  0  0  0
 17 34  1  0  0  0  0
 18 20  2  0  0  0  0
 18 39  1  0  0  0  0
 19 21  2  0  0  0  0
 19 40  1  0  0  0  0
 20 48  1  0  0  0  0
 21 41  1  0  0  0  0
 22 26  1  0  0  0  0
 22 51  1  0  0  0  0
 23 24  2  0  0  0  0
 23 59  1  0  0  0  0
 24 25  1  0  0  0  0
 24 52  1  0  0  0  0
 25 26  2  0  0  0  0
 25 53  1  0  0  0  0
 26 60  1  0  0  0  0
 27 81  1  0  0  0  0
 28 82  1  0  0  0  0
 29 31  2  0  0  0  0
 29 81  1  0  0  0  0
 30 83  1  0  0  0  0
 31 84  1  0  0  0  0
 32 66  2  0  0  0  0
 33 67  1  0  0  0  0
 33 70  1  0  0  0  0
 34 71  1  0  0  0  0
 34 76  2  0  0  0  0
 35 49  1  0  0  0  0
 35 72  1  0  0  0  0
 35 77  2  0  0  0  0
 36 63  1  0  0  0  0
 36 68  1  0  0  0  0
 36 78  2  0  0  0  0
 37 64  1  0  0  0  0
 37 73  1  0  0  0  0
 37 79  2  0  0  0  0
 38 69  1  0  0  0  0
 38 74  1  0  0  0  0
 38 80  2  0  0  0  0
 39 42  1  0  0  0  0
 40 49  1  0  0  0  0
 41 68  1  0  0  0  0
 42 44  1  0  0  0  0
 43 45  1  0  0  0  0
 43 46  1  0  0  0  0
 44 48  1  0  0  0  0
 45 50  1  0  0  0  0
 46 69  1  0  0  0  0
 47 50  1  0  0  0  0
 47 69  1  0  0  0  0
 48 72  1  0  0  0  0
 49 68  1  0  0  0  0
 50 67  1  0  0  0  0
 54 64  1  0  0  0  0
 55 65  1  0  0  0  0
 56 65  1  0  0  0  0
 57 65  1  0  0  0  0
 58 75  1  0  0  0  0
 59 61  1  0  0  0  0
 60 82  1  0  0  0  0
 61 62  1  0  0  0  0
 62 74  1  0  0  0  0
 63 65  1  0  0  0  0
 63 73  1  0  0  0  0
 64 75  1  0  0  0  0
 66 67  1  0  0  0  0
M  CHG  1  75   1
M  ISO  4  38 100  60 101  74 100  82 101
M  END
> <Batch ID>
0031

> <Smiles>
CNC(C)C(=O)NC(C(=O)N1Cc2cc([101O:1][101CH2:1]c3c(C)cc(CCC[100NH:0][100C:0](=O)N4CCCC(n5nc(-c6ccc(Oc7ccc(F)cc7F)cc6)c(C(N)=O)c5N)C4)c(C)c3C)ccc2CC1C(=O)NC1CCCc2ccccc21)C(C)(C)C

> <Shape>
0.277

> <Color>
0.186

> <Negative vol penalty>
0.000

$$$$

  -OEChem-04052316423D

 85 93  0     1  0  0  0  0  0999 V2000
  -31.6708  -34.4817   16.0577 C   0  0  0  0  0  0  0  0  0  0  0  0
  -31.2153  -33.1998   15.7670 C   0  0  0  0  0  0  0  0  0  0  0  0
  -22.8837  -10.0827   20.0231 C   0  0  0  0  0  0  0  0  0  0  0  0
  -23.6730  -10.0288   22.3060 C   0  0  0  0  0  0  0  0  0  0  0  0
  -31.7486  -34.9089   17.3826 C   0  0  0  0  0  0  0  0  0  0  0  0
  -30.8383  -32.3438   16.8013 C   0  0  0  0  0  0  0  0  0  0  0  0
  -26.3500  -28.1789   16.6820 C   0  0  0  0  0  0  0  0  0  0  0  0
  -22.0776   -8.9727   20.2756 C   0  0  0  0  0  0  0  0  0  0  0  0
  -22.8668   -8.9189   22.5585 C   0  0  0  0  0  0  0  0  0  0  0  0
  -26.3544  -26.8010   16.4695 C   0  0  0  0  0  0  0  0  0  0  0  0
  -22.9572   -5.5898   21.9755 C   0  0  0  0  0  0  0  0  0  0  0  0
  -23.5216   -4.5253   22.6782 C   0  0  0  0  0  0  0  0  0  0  0  0
  -26.3794  -26.4394   18.8544 C   0  0  0  0  0  0  0  0  0  0  0  0
  -28.8889  -19.2326   18.5942 C   0  0  0  0  0  0  0  0  0  0  0  0
  -29.1474  -20.7078   20.4899 C   0  0  0  0  0  0  0  0  0  0  0  0
  -21.8559   -4.7846   24.4089 C   0  0  0  0  0  0  0  0  0  0  0  0
  -23.6815  -10.6107   21.0383 C   0  0  0  0  0  0  0  0  0  0  0  0
  -24.1676  -13.1126   20.9302 C   0  0  0  0  0  0  0  0  0  0  0  0
  -31.3632  -34.0612   18.4330 C   0  0  0  0  0  0  0  0  0  0  0  0
  -26.3713  -28.6983   17.9843 C   0  0  0  0  0  0  0  0  0  0  0  0
  -30.9122  -32.7596   18.1416 C   0  0  0  0  0  0  0  0  0  0  0  0
  -26.3726  -27.8242   19.0808 C   0  0  0  0  0  0  0  0  0  0  0  0
  -29.1206  -19.4190   19.9569 C   0  0  0  0  0  0  0  0  0  0  0  0
  -28.7110  -21.6237   18.2973 C   0  0  0  0  0  0  0  0  0  0  0  0
  -22.0691   -8.3908   21.5433 C   0  0  0  0  0  0  0  0  0  0  0  0
  -26.3720  -25.9310   17.5557 C   0  0  0  0  0  0  0  0  0  0  0  0
  -21.8421   -6.2518   22.4894 C   0  0  0  0  0  0  0  0  0  0  0  0
  -22.9710   -4.1227   23.8949 C   0  0  0  0  0  0  0  0  0  0  0  0
  -28.6842  -20.3350   17.7643 C   0  0  0  0  0  0  0  0  0  0  0  0
  -21.2915   -5.8492   23.7061 C   0  0  0  0  0  0  0  0  0  0  0  0
  -28.9426  -21.8101   19.6601 C   0  0  0  0  0  0  0  0  0  0  0  0
  -24.5149  -11.7569   20.7779 C   0  0  0  0  0  0  0  0  0  0  0  0
  -25.2965  -13.8002   20.5570 C   0  0  0  0  0  0  0  0  0  0  0  0
  -22.9348  -13.6980   21.3697 C   0  0  0  0  0  0  0  0  0  0  0  0
  -28.3798  -30.5239   19.6386 C   0  0  0  0  0  0  0  0  0  0  0  0
  -26.0233  -30.4226   21.8655 C   0  0  0  0  0  0  0  0  0  0  0  0
  -23.3138  -28.7886   23.1442 C   0  0  0  0  0  0  0  0  0  0  0  0
  -30.8321  -14.4987   20.6773 C   0  0  0  0  0  0  0  0  0  0  0  0
  -31.5096  -34.5509   19.8520 C   0  0  0  0  0  0  0  0  0  0  0  0
  -26.3392  -30.1870   18.1970 C   0  0  0  0  0  0  0  0  0  0  0  0
  -26.3753  -28.3312   20.4990 C   0  0  0  0  0  0  0  0  0  0  0  0
  -30.7365  -33.7139   20.8680 C   0  0  0  0  0  0  0  0  0  0  0  0
  -29.5267  -12.2016   18.2907 C   0  0  0  0  0  0  0  0  0  0  0  0
  -30.9709  -32.2266   20.6232 C   0  0  0  0  0  0  0  0  0  0  0  0
  -28.0805  -11.9884   18.7412 C   0  0  0  0  0  0  0  0  0  0  0  0
  -30.4708  -12.3601   19.4804 C   0  0  0  0  0  0  0  0  0  0  0  0
  -28.6332  -13.1899   20.8975 C   0  0  0  0  0  0  0  0  0  0  0  0
  -30.4707  -31.8106   19.2345 C   0  0  1  0  0  0  0  0  0  0  0  0
  -26.8817  -30.6078   19.5593 C   0  0  1  0  0  0  0  0  0  0  0  0
  -27.6351  -13.0806   19.7321 C   0  0  2  0  0  0  0  0  0  0  0  0
  -21.6191  -28.9287   24.9897 C   0  0  0  0  0  0  0  0  0  0  0  0
  -28.1236  -29.4697   23.8632 C   0  0  0  0  0  0  0  0  0  0  0  0
  -26.2605  -28.7315   25.3639 C   0  0  0  0  0  0  0  0  0  0  0  0
  -26.5024  -31.1428   24.7724 C   0  0  0  0  0  0  0  0  0  0  0  0
  -21.0674  -28.9634   21.2253 C   0  0  0  0  0  0  0  0  0  0  0  0
  -29.3395  -18.2402   20.8437 C   0  0  0  0  0  0  0  0  0  0  0  0
  -30.8131  -17.8081   20.9787 C   0  0  0  0  0  0  0  0  0  0  0  0
  -31.0389  -16.6327   21.9273 C   0  0  0  0  0  0  0  0  0  0  0  0
  -27.5266  -22.7050   16.3858 C   0  0  0  0  0  0  0  0  0  0  0  0
  -27.0009  -24.1124   16.1582 C   0  0  0  0  0  0  0  0  0  1  0  0
  -25.6832  -29.5133   23.0215 C   0  0  1  0  0  0  0  0  0  0  0  0
  -21.9358  -29.2836   23.5452 C   0  0  2  0  0  0  0  0  0  0  0  0
  -26.6443  -29.7045   24.2286 C   0  0  0  0  0  0  0  0  0  0  0  0
  -25.7664  -11.5910   20.3418 N   0  0  0  0  0  0  0  0  0  0  0  0
  -26.2154  -12.8516   20.2168 N   0  0  0  0  0  0  0  0  0  0  0  0
  -26.3500  -29.7949   20.6551 N   0  0  0  0  0  0  0  0  0  0  0  0
  -29.9926  -13.4123   20.3805 N   0  0  0  0  0  0  0  0  0  0  0  0
  -25.5827  -15.1178   20.4898 N   0  0  0  0  0  0  0  0  0  0  0  0
  -21.8764  -12.8465   21.7148 N   0  0  0  0  0  0  0  0  0  0  0  0
  -28.5030  -22.7002   17.4510 N   0  0  0  0  0  0  0  0  0  0  0  0
  -29.0299  -31.6749   19.2360 N   0  0  0  0  0  0  0  0  0  0  0  0
  -24.2785  -29.7557   23.3320 N   0  0  0  0  0  0  0  0  0  0  0  0
  -30.2990  -15.4544   21.5335 N   0  0  0  0  0  0  0  0  0  0  0  0
  -20.8925  -28.6751   22.6721 N   0  3  0  0  0  0  0  0  0  0  0  0
  -22.7711  -14.9398   21.4383 O   0  0  0  0  0  0  0  0  0  0  0  0
  -28.9069  -29.4918   20.0371 O   0  0  0  0  0  0  0  0  0  0  0  0
  -25.9932  -31.6450   22.0284 O   0  0  0  0  0  0  0  0  0  0  0  0
  -23.5148  -27.6560   22.7114 O   0  0  0  0  0  0  0  0  0  0  0  0
  -31.9702  -14.6114   20.2094 O   0  0  0  0  0  0  0  0  0  0  0  0
  -21.2825   -7.3079   21.7901 O   0  0  0  0  0  0  0  0  0  0  0  0
  -26.3770  -24.5856   17.3512 O   0  0  0  0  0  0  0  0  0  1  0  0
  -23.5122   -3.0995   24.5689 F   0  0  0  0  0  0  0  0  0  0  0  0
  -28.4617  -20.1423   16.4562 F   0  0  0  0  0  0  0  0  0  0  0  0
  -20.2195   -6.4805   24.2043 F   0  0  0  0  0  0  0  0  0  0  0  0
  -28.9834  -23.3886   20.3612 Cl  0  0  0  0  0  0  0  0  0  0  0  0
  1  2  1  0  0  0  0
  1  5  2  0  0  0  0
  2  6  2  0  0  0  0
  3  8  2  0  0  0  0
  3 17  1  0  0  0  0
  4  9  1  0  0  0  0
  4 17  2  0  0  0  0
  5 19  1  0  0  0  0
  6 21  1  0  0  0  0
  7 10  2  0  0  0  0
  7 20  1  0  0  0  0
  8 25  1  0  0  0  0
  9 25  2  0  0  0  0
 10 26  1  0  0  0  0
 11 12  2  0  0  0  0
 11 27  1  0  0  0  0
 12 28  1  0  0  0  0
 13 22  1  0  0  0  0
 13 26  2  0  0  0  0
 14 23  1  0  0  0  0
 14 29  2  0  0  0  0
 15 23  2  0  0  0  0
 15 31  1  0  0  0  0
 16 28  2  0  0  0  0
 16 30  1  0  0  0  0
 17 32  1  0  0  0  0
 18 32  1  0  0  0  0
 18 33  2  0  0  0  0
 18 34  1  0  0  0  0
 19 21  2  0  0  0  0
 19 39  1  0  0  0  0
 20 22  2  0  0  0  0
 20 40  1  0  0  0  0
 21 48  1  0  0  0  0
 22 41  1  0  0  0  0
 23 56  1  0  0  0  0
 24 29  1  0  0  0  0
 24 31  2  0  0  0  0
 24 70  1  0  0  0  0
 25 80  1  0  0  0  0
 26 81  1  0  0  0  0
 27 30  2  0  0  0  0
 27 80  1  0  0  0  0
 28 82  1  0  0  0  0
 29 83  1  0  0  0  0
 30 84  1  0  0  0  0
 31 85  1  0  0  0  0
 32 64  2  0  0  0  0
 33 65  1  0  0  0  0
 33 68  1  0  0  0  0
 34 69  1  0  0  0  0
 34 75  2  0  0  0  0
 35 49  1  0  0  0  0
 35 71  1  0  0  0  0
 35 76  2  0  0  0  0
 36 61  1  0  0  0  0
 36 66  1  0  0  0  0
 36 77  2  0  0  0  0
 37 62  1  0  0  0  0
 37 72  1  0  0  0  0
 37 78  2  0  0  0  0
 38 67  1  0  0  0  0
 38 73  1  0  0  0  0
 38 79  2  0  0  0  0
 39 42  1  0  0  0  0
 40 49  1  0  0  0  0
 41 66  1  0  0  0  0
 42 44  1  0  0  0  0
 43 45  1  0  0  0  0
 43 46  1  0  0  0  0
 44 48  1  0  0  0  0
 45 50  1  0  0  0  0
 46 67  1  0  0  0  0
 47 50  1  0  0  0  0
 47 67  1  0  0  0  0
 48 71  1  0  0  0  0
 49 66  1  0  0  0  0
 50 65  1  0  0  0  0
 51 62  1  0  0  0  0
 52 63  1  0  0  0  0
 53 63  1  0  0  0  0
 54 63  1  0  0  0  0
 55 74  1  0  0  0  0
 56 57  1  0  0  0  0
 57 58  1  0  0  0  0
 58 73  1  0  0  0  0
 59 60  1  0  0  0  0
 59 70  1  0  0  0  0
 60 81  1  0  0  0  0
 61 63  1  0  0  0  0
 61 72  1  0  0  0  0
 62 74  1  0  0  0  0
 64 65  1  0  0  0  0
M  CHG  1  74   1
M  ISO  4  38 100  60 101  73 100  81 101
M  END
> <Batch ID>
0031

> <Smiles>
CNC(C)C(=O)NC(C(=O)N1Cc2cc([101O:1][101CH2:1]CNc3c(F)cc(CCC[100NH:0][100C:0](=O)N4CCCC(n5nc(-c6ccc(Oc7ccc(F)cc7F)cc6)c(C(N)=O)c5N)C4)cc3Cl)ccc2CC1C(=O)NC1CCCc2ccccc21)C(C)(C)C

> <Shape>
0.338

> <Color>
0.217

> <Negative vol penalty>
0.000

$$$$

  -OEChem-04052316423D

 86 95  0     1  0  0  0  0  0999 V2000
  -27.5960  -36.9799   18.2710 C   0  0  0  0  0  0  0  0  0  0  0  0
  -27.1160  -36.4453   19.4623 C   0  0  0  0  0  0  0  0  0  0  0  0
  -22.6848  -10.1281   20.1449 C   0  0  0  0  0  0  0  0  0  0  0  0
  -24.3666   -9.3801   21.7099 C   0  0  0  0  0  0  0  0  0  0  0  0
  -27.1412  -36.4810   17.0511 C   0  0  0  0  0  0  0  0  0  0  0  0
  -26.1799  -35.4121   19.4344 C   0  0  0  0  0  0  0  0  0  0  0  0
  -27.5618  -29.0708   22.5602 C   0  0  0  0  0  0  0  0  0  0  0  0
  -21.9818   -8.9379   20.3314 C   0  0  0  0  0  0  0  0  0  0  0  0
  -23.6636   -8.1899   21.8965 C   0  0  0  0  0  0  0  0  0  0  0  0
  -27.6664  -27.9026   23.3155 C   0  0  0  0  0  0  0  0  0  0  0  0
  -20.9525   -7.1445   23.6221 C   0  0  0  0  0  0  0  0  0  0  0  0
  -20.7874   -6.6894   24.9302 C   0  0  0  0  0  0  0  0  0  0  0  0
  -25.5289  -27.1517   22.4700 C   0  0  0  0  0  0  0  0  0  0  0  0
  -21.9603   -4.6529   24.3698 C   0  0  0  0  0  0  0  0  0  0  0  0
  -29.7466  -18.8770   22.7122 C   0  0  0  0  0  0  0  0  0  0  0  0
  -23.8773  -10.3492   20.8341 C   0  0  0  0  0  0  0  0  0  0  0  0
  -24.1459  -12.8853   20.8928 C   0  0  0  0  0  0  0  0  0  0  0  0
  -26.2063  -35.4346   17.0082 C   0  0  0  0  0  0  0  0  0  0  0  0
  -26.4461  -29.2771   21.7440 C   0  0  0  0  0  0  0  0  0  0  0  0
  -25.7112  -34.8996   18.2127 C   0  0  0  0  0  0  0  0  0  0  0  0
  -25.4244  -28.3142   21.7016 C   0  0  0  0  0  0  0  0  0  0  0  0
  -22.4712   -7.9688   21.2072 C   0  0  0  0  0  0  0  0  0  0  0  0
  -26.6524  -26.9456   23.2707 C   0  0  0  0  0  0  0  0  0  0  0  0
  -21.6215   -6.3538   22.6878 C   0  0  0  0  0  0  0  0  0  0  0  0
  -21.2913   -5.4436   25.3041 C   0  0  0  0  0  0  0  0  0  0  0  0
  -22.1254   -5.1080   23.0617 C   0  0  0  0  0  0  0  0  0  0  0  0
  -24.6042  -11.5782   20.6413 C   0  0  0  0  0  0  0  0  0  0  0  0
  -29.2601  -19.6993   23.7079 C   0  0  0  0  0  0  0  0  0  0  0  0
  -30.4568  -17.7747   23.1422 C   0  0  0  0  0  0  0  0  0  0  0  0
  -25.2039  -13.6918   20.5511 C   0  0  0  0  0  0  0  0  0  0  0  0
  -30.1549  -18.3655   25.3164 C   0  0  0  0  0  0  0  0  0  0  0  0
  -22.8772  -13.3307   21.3907 C   0  0  0  0  0  0  0  0  0  0  0  0
  -24.6959  -31.5153   19.2939 C   0  0  0  0  0  0  0  0  0  0  0  0
  -30.6871  -14.7839   20.7263 C   0  0  0  0  0  0  0  0  0  0  0  0
  -24.3231  -28.6384   18.2966 C   0  0  0  0  0  0  0  0  0  0  0  0
  -24.4999  -25.3754   17.3173 C   0  0  0  0  0  0  0  0  0  0  0  0
  -25.7088  -34.9604   15.6657 C   0  0  0  0  0  0  0  0  0  0  0  0
  -26.2624  -30.5485   20.9607 C   0  0  0  0  0  0  0  0  0  0  0  0
  -24.2263  -28.5944   20.8361 C   0  0  0  0  0  0  0  0  0  0  0  0
  -24.9974  -33.6109   15.7218 C   0  0  0  0  0  0  0  0  0  0  0  0
  -29.4988  -12.6446   18.1088 C   0  0  0  0  0  0  0  0  0  0  0  0
  -24.0022  -33.5797   16.8775 C   0  0  0  0  0  0  0  0  0  0  0  0
  -29.1645  -22.2273   23.7946 C   0  0  0  0  0  0  0  0  0  0  0  0
  -27.0237  -20.8740   23.8657 C   0  0  0  0  0  0  0  0  0  0  0  0
  -28.3632  -23.4682   23.4020 C   0  0  0  0  0  0  0  0  0  0  0  0
  -26.2278  -22.1184   23.4730 C   0  0  0  0  0  0  0  0  0  0  0  0
  -28.0936  -12.2598   18.5698 C   0  0  0  0  0  0  0  0  0  0  0  0
  -30.4548  -12.7851   19.2892 C   0  0  0  0  0  0  0  0  0  0  0  0
  -28.5823  -13.3572   20.8018 C   0  0  0  0  0  0  0  0  0  0  0  0
  -24.7139  -33.7614   18.2235 C   0  0  1  0  0  0  0  0  0  0  0  0
  -28.4654  -20.9372   23.3338 C   0  0  0  0  0  0  0  0  0  0  0  0
  -25.5580  -30.3286   19.6099 C   0  0  1  0  0  0  0  0  0  0  0  0
  -26.9248  -23.4058   23.9322 C   0  0  0  0  0  0  0  0  0  0  0  0
  -27.5774  -13.2349   19.6427 C   0  0  2  0  0  0  0  0  0  0  0  0
  -30.3789  -18.0788   26.7626 C   0  0  0  0  0  0  0  0  0  0  0  0
  -23.7559  -23.8240   15.4906 C   0  0  0  0  0  0  0  0  0  0  0  0
  -21.5049  -28.6219   19.4634 C   0  0  0  0  0  0  0  0  0  0  0  0
  -21.1049  -26.4511   18.2821 C   0  0  0  0  0  0  0  0  0  0  0  0
  -21.6013  -28.5117   16.9668 C   0  0  0  0  0  0  0  0  0  0  0  0
  -27.2899  -24.7223   16.5768 C   0  0  0  0  0  0  0  0  0  0  0  0
  -31.0206  -16.8260   22.1380 C   0  0  0  0  0  0  0  0  0  0  0  0
  -30.0657  -15.6861   21.7625 C   0  0  0  0  0  0  0  0  0  0  0  0
  -26.1333  -24.6346   23.4884 C   0  0  0  0  0  0  0  0  0  1  0  0
  -23.4541  -27.4063   18.2849 C   0  0  1  0  0  0  0  0  0  0  0  0
  -24.8629  -24.7411   15.9868 C   0  0  2  0  0  0  0  0  0  0  0  0
  -21.9380  -27.7505   18.2676 C   0  0  0  0  0  0  0  0  0  0  0  0
  -25.8558  -11.5513   20.1758 N   0  0  0  0  0  0  0  0  0  0  0  0
  -29.4463  -19.4728   25.0249 N   0  0  0  0  0  0  0  0  0  0  0  0
  -30.6809  -17.4873   24.4413 N   0  0  0  0  0  0  0  0  0  0  0  0
  -26.1929  -12.8515   20.1318 N   0  0  0  0  0  0  0  0  0  0  0  0
  -24.6578  -29.1645   19.5502 N   0  0  0  0  0  0  0  0  0  0  0  0
  -29.9183  -13.7022   20.2964 N   0  0  0  0  0  0  0  0  0  0  0  0
  -25.3753  -15.0307   20.5714 N   0  0  0  0  0  0  0  0  0  0  0  0
  -22.7134  -13.4662   22.7760 N   0  0  0  0  0  0  0  0  0  0  0  0
  -25.3565  -32.5287   18.6259 N   0  0  0  0  0  0  0  0  0  0  0  0
  -23.8978  -26.6045   17.1497 N   0  0  0  0  0  0  0  0  0  0  0  0
  -26.1128  -23.9403   16.1186 N   0  3  0  0  0  0  0  0  0  0  0  0
  -21.9122  -13.5847   20.6306 O   0  0  0  0  0  0  0  0  0  0  0  0
  -23.5174  -31.5125   19.6295 O   0  0  0  0  0  0  0  0  0  0  0  0
  -31.8210  -15.0363   20.3105 O   0  0  0  0  0  0  0  0  0  0  0  0
  -24.6918  -29.1266   17.2246 O   0  0  0  0  0  0  0  0  0  0  0  0
  -24.7243  -24.8331   18.3971 O   0  0  0  0  0  0  0  0  0  0  0  0
  -21.7854   -6.8073   21.3897 O   0  0  0  0  0  0  0  0  0  0  0  0
  -26.7631  -25.8054   24.0071 O   0  0  0  0  0  0  0  0  0  1  0  0
  -21.1339   -5.0074   26.5607 F   0  0  0  0  0  0  0  0  0  0  0  0
  -22.7700   -4.3444   22.1688 F   0  0  0  0  0  0  0  0  0  0  0  0
  1  2  1  0  0  0  0
  1  5  2  0  0  0  0
  2  6  2  0  0  0  0
  3  8  2  0  0  0  0
  3 16  1  0  0  0  0
  4  9  1  0  0  0  0
  4 16  2  0  0  0  0
  5 18  1  0  0  0  0
  6 20  1  0  0  0  0
  7 10  2  0  0  0  0
  7 19  1  0  0  0  0
  8 22  1  0  0  0  0
  9 22  2  0  0  0  0
 10 23  1  0  0  0  0
 11 12  2  0  0  0  0
 11 24  1  0  0  0  0
 12 25  1  0  0  0  0
 13 21  1  0  0  0  0
 13 23  2  0  0  0  0
 14 25  2  0  0  0  0
 14 26  1  0  0  0  0
 15 28  1  0  0  0  0
 15 29  2  0  0  0  0
 16 27  1  0  0  0  0
 17 27  1  0  0  0  0
 17 30  2  0  0  0  0
 17 32  1  0  0  0  0
 18 20  2  0  0  0  0
 18 37  1  0  0  0  0
 19 21  2  0  0  0  0
 19 38  1  0  0  0  0
 20 50  1  0  0  0  0
 21 39  1  0  0  0  0
 22 83  1  0  0  0  0
 23 84  1  0  0  0  0
 24 26  2  0  0  0  0
 24 83  1  0  0  0  0
 25 85  1  0  0  0  0
 26 86  1  0  0  0  0
 27 67  2  0  0  0  0
 28 51  1  0  0  0  0
 28 68  2  0  0  0  0
 29 61  1  0  0  0  0
 29 69  1  0  0  0  0
 30 70  1  0  0  0  0
 30 73  1  0  0  0  0
 31 55  1  0  0  0  0
 31 68  1  0  0  0  0
 31 69  2  0  0  0  0
 32 74  1  0  0  0  0
 32 78  2  0  0  0  0
 33 52  1  0  0  0  0
 33 75  1  0  0  0  0
 33 79  2  0  0  0  0
 34 62  1  0  0  0  0
 34 72  1  0  0  0  0
 34 80  2  0  0  0  0
 35 64  1  0  0  0  0
 35 71  1  0  0  0  0
 35 81  2  0  0  0  0
 36 65  1  0  0  0  0
 36 76  1  0  0  0  0
 36 82  2  0  0  0  0
 37 40  1  0  0  0  0
 38 52  1  0  0  0  0
 39 71  1  0  0  0  0
 40 42  1  0  0  0  0
 41 47  1  0  0  0  0
 41 48  1  0  0  0  0
 42 50  1  0  0  0  0
 43 45  1  0  0  0  0
 43 51  1  0  0  0  0
 44 46  1  0  0  0  0
 44 51  1  0  0  0  0
 45 53  1  0  0  0  0
 46 53  1  0  0  0  0
 47 54  1  0  0  0  0
 48 72  1  0  0  0  0
 49 54  1  0  0  0  0
 49 72  1  0  0  0  0
 50 75  1  0  0  0  0
 52 71  1  0  0  0  0
 53 63  1  0  0  0  0
 54 70  1  0  0  0  0
 56 65  1  0  0  0  0
 57 66  1  0  0  0  0
 58 66  1  0  0  0  0
 59 66  1  0  0  0  0
 60 77  1  0  0  0  0
 61 62  1  0  0  0  0
 63 84  1  0  0  0  0
 64 66  1  0  0  0  0
 64 76  1  0  0  0  0
 65 77  1  0  0  0  0
 67 70  1  0  0  0  0
M  CHG  1  77   1
M  ISO  4  34 100  62 100  63 101  84 101
M  END
> <Batch ID>
0031

> <Smiles>
CNC(C)C(=O)NC(C(=O)N1Cc2cc([101O:1][101CH2:1]C3CCC(c4cc(C[100CH2:0][100C:0](=O)N5CCCC(n6nc(-c7ccc(Oc8ccc(F)cc8F)cc7)c(C(N)=O)c6N)C5)nc(C)n4)CC3)ccc2CC1C(=O)NC1CCCc2ccccc21)C(C)(C)C

> <Shape>
0.236

> <Color>
0.188

> <Negative vol penalty>
0.000

$$$$

  -OEChem-04052316423D

 81 89  0     1  0  0  0  0  0999 V2000
  -16.7951  -30.0370   23.2525 C   0  0  0  0  0  0  0  0  0  0  0  0
  -17.8921  -30.3956   22.4757 C   0  0  0  0  0  0  0  0  0  0  0  0
  -25.8785  -15.3563   20.1829 C   0  0  0  0  0  0  0  0  0  0  0  0
  -28.1771  -14.6145   20.2422 C   0  0  0  0  0  0  0  0  0  0  0  0
  -16.9197  -29.0318   24.2107 C   0  0  0  0  0  0  0  0  0  0  0  0
  -19.1146  -29.7500   22.6573 C   0  0  0  0  0  0  0  0  0  0  0  0
  -24.8997  -27.6201   19.0086 C   0  0  0  0  0  0  0  0  0  0  0  0
  -25.4489  -14.0344   20.2994 C   0  0  0  0  0  0  0  0  0  0  0  0
  -27.7475  -13.2926   20.3588 C   0  0  0  0  0  0  0  0  0  0  0  0
  -26.2901  -27.7162   19.0425 C   0  0  0  0  0  0  0  0  0  0  0  0
  -25.1015  -11.3420   18.2857 C   0  0  0  0  0  0  0  0  0  0  0  0
  -24.0696  -10.9204   17.4472 C   0  0  0  0  0  0  0  0  0  0  0  0
  -26.3670  -25.9399   20.6729 C   0  0  0  0  0  0  0  0  0  0  0  0
  -22.7133  -10.4007   19.3779 C   0  0  0  0  0  0  0  0  0  0  0  0
  -31.2528  -25.6659   19.9504 C   0  0  0  0  0  0  0  0  0  0  0  0
  -32.1236  -25.2686   17.3951 C   0  0  0  0  0  0  0  0  0  0  0  0
  -27.2426  -15.6464   20.1542 C   0  0  0  0  0  0  0  0  0  0  0  0
  -27.9518  -17.9153   21.0798 C   0  0  0  0  0  0  0  0  0  0  0  0
  -18.1418  -28.3669   24.3975 C   0  0  0  0  0  0  0  0  0  0  0  0
  -24.2306  -26.6891   19.8160 C   0  0  0  0  0  0  0  0  0  0  0  0
  -19.2560  -28.7359   23.6198 C   0  0  0  0  0  0  0  0  0  0  0  0
  -24.9681  -25.8323   20.6455 C   0  0  0  0  0  0  0  0  0  0  0  0
  -32.2903  -24.2434   18.3121 C   0  0  0  0  0  0  0  0  0  0  0  0
  -26.3834  -13.0025   20.3873 C   0  0  0  0  0  0  0  0  0  0  0  0
  -27.0238  -26.8780   19.8769 C   0  0  0  0  0  0  0  0  0  0  0  0
  -24.9394  -11.2929   19.6702 C   0  0  0  0  0  0  0  0  0  0  0  0
  -22.8755  -10.4498   17.9933 C   0  0  0  0  0  0  0  0  0  0  0  0
  -23.7453  -10.8222   20.2164 C   0  0  0  0  0  0  0  0  0  0  0  0
  -31.8439  -24.4538   19.6120 C   0  0  0  0  0  0  0  0  0  0  0  0
  -27.6870  -17.0116   20.0333 C   0  0  0  0  0  0  0  0  0  0  0  0
  -31.1326  -26.6276   18.9602 C   0  0  0  0  0  0  0  0  0  0  0  0
  -28.3416  -19.0698   20.4461 C   0  0  0  0  0  0  0  0  0  0  0  0
  -27.8542  -17.7278   22.4979 C   0  0  0  0  0  0  0  0  0  0  0  0
  -22.1044  -26.8810   22.1711 C   0  0  0  0  0  0  0  0  0  0  0  0
  -22.0869  -23.6490   21.8945 C   0  0  0  0  0  0  0  0  0  0  0  0
  -23.7215  -20.8156   20.9218 C   0  0  0  0  0  0  0  0  0  0  0  0
  -31.2965  -21.7019   16.5108 C   0  0  0  0  0  0  0  0  0  0  0  0
  -18.2406  -27.3194   25.4781 C   0  0  0  0  0  0  0  0  0  0  0  0
  -22.7320  -26.5798   19.7480 C   0  0  0  0  0  0  0  0  0  0  0  0
  -24.2990  -24.8020   21.5168 C   0  0  0  0  0  0  0  0  0  0  0  0
  -19.4717  -26.4260   25.3497 C   0  0  0  0  0  0  0  0  0  0  0  0
  -28.1293  -20.3789   15.5647 C   0  0  0  0  0  0  0  0  0  0  0  0
  -20.7168  -27.2674   25.0878 C   0  0  0  0  0  0  0  0  0  0  0  0
  -27.7571  -19.4552   16.7258 C   0  0  0  0  0  0  0  0  0  0  0  0
  -29.6287  -20.3479   15.2772 C   0  0  0  0  0  0  0  0  0  0  0  0
  -30.1165  -19.6998   17.6044 C   0  0  0  0  0  0  0  0  0  0  0  0
  -20.5923  -28.0418   23.7701 C   0  0  1  0  0  0  0  0  0  0  0  0
  -22.1218  -25.9465   20.9946 C   0  0  1  0  0  0  0  0  0  0  0  0
  -28.6224  -19.7397   17.9682 C   0  0  2  0  0  0  0  0  0  0  0  0
  -23.4693  -18.3197   20.8570 C   0  0  0  0  0  0  0  0  0  0  0  0
  -22.6688  -23.5149   24.8867 C   0  0  0  0  0  0  0  0  0  0  0  0
  -23.3379  -21.1221   24.5786 C   0  0  0  0  0  0  0  0  0  0  0  0
  -21.0025  -21.8375   24.0719 C   0  0  0  0  0  0  0  0  0  0  0  0
  -23.9106  -20.7569   17.9689 C   0  0  0  0  0  0  0  0  0  0  0  0
  -32.9327  -22.9699   17.8796 C   0  0  0  0  0  0  0  0  0  0  0  0
  -30.4965  -27.9557   19.2914 C   0  0  0  0  0  0  0  0  0  0  0  0
  -28.9881  -27.9477   19.0686 C   0  0  0  0  0  0  0  0  0  1  0  0
  -22.8732  -22.5188   22.5136 C   0  0  1  0  0  0  0  0  0  0  0  0
  -23.2678  -19.6229   20.0995 C   0  0  2  0  0  0  0  0  0  0  0  0
  -22.4834  -22.2690   23.9979 C   0  0  0  0  0  0  0  0  0  0  0  0
  -31.5542  -26.4596   17.6867 N   0  0  0  0  0  0  0  0  0  0  0  0
  -27.8912  -17.5462   18.8264 N   0  0  0  0  0  0  0  0  0  0  0  0
  -28.2883  -18.7982   19.1106 N   0  0  0  0  0  0  0  0  0  0  0  0
  -22.8313  -24.7381   21.4196 N   0  0  0  0  0  0  0  0  0  0  0  0
  -30.3924  -20.6269   16.4957 N   0  0  0  0  0  0  0  0  0  0  0  0
  -28.7212  -20.2807   20.9065 N   0  0  0  0  0  0  0  0  0  0  0  0
  -27.4381  -16.4792   22.9797 N   0  0  0  0  0  0  0  0  0  0  0  0
  -20.8378  -27.1662   22.6443 N   0  0  0  0  0  0  0  0  0  0  0  0
  -22.6821  -21.3638   21.6431 N   0  0  0  0  0  0  0  0  0  0  0  0
  -31.9747  -21.9008   17.7071 N   0  0  0  0  0  0  0  0  0  0  0  0
  -24.0370  -19.5496   18.8252 N   0  3  0  0  0  0  0  0  0  0  0  0
  -28.1122  -18.6456   23.3132 O   0  0  0  0  0  0  0  0  0  0  0  0
  -23.1618  -27.3102   22.6175 O   0  0  0  0  0  0  0  0  0  0  0  0
  -20.8580  -23.5654   21.8281 O   0  0  0  0  0  0  0  0  0  0  0  0
  -24.8827  -21.2182   20.9269 O   0  0  0  0  0  0  0  0  0  0  0  0
  -31.4813  -22.4336   15.5324 O   0  0  0  0  0  0  0  0  0  0  0  0
  -25.9646  -11.7125   20.5013 O   0  0  0  0  0  0  0  0  0  0  0  0
  -28.3811  -26.9700   19.9125 O   0  0  0  0  0  0  0  0  0  1  0  0
  -21.8840  -10.0464   17.1881 F   0  0  0  0  0  0  0  0  0  0  0  0
  -23.5832  -10.7738   21.5457 F   0  0  0  0  0  0  0  0  0  0  0  0
  -32.0069  -23.2379   20.8245 Cl  0  0  0  0  0  0  0  0  0  0  0  0
  1  2  1  0  0  0  0
  1  5  2  0  0  0  0
  2  6  2  0  0  0  0
  3  8  2  0  0  0  0
  3 17  1  0  0  0  0
  4  9  1  0  0  0  0
  4 17  2  0  0  0  0
  5 19  1  0  0  0  0
  6 21  1  0  0  0  0
  7 10  2  0  0  0  0
  7 20  1  0  0  0  0
  8 24  1  0  0  0  0
  9 24  2  0  0  0  0
 10 25  1  0  0  0  0
 11 12  2  0  0  0  0
 11 26  1  0  0  0  0
 12 27  1  0  0  0  0
 13 22  1  0  0  0  0
 13 25  2  0  0  0  0
 14 27  2  0  0  0  0
 14 28  1  0  0  0  0
 15 29  2  0  0  0  0
 15 31  1  0  0  0  0
 16 23  2  0  0  0  0
 16 61  1  0  0  0  0
 17 30  1  0  0  0  0
 18 30  1  0  0  0  0
 18 32  2  0  0  0  0
 18 33  1  0  0  0  0
 19 21  2  0  0  0  0
 19 38  1  0  0  0  0
 20 22  2  0  0  0  0
 20 39  1  0  0  0  0
 21 47  1  0  0  0  0
 22 40  1  0  0  0  0
 23 29  1  0  0  0  0
 23 55  1  0  0  0  0
 24 77  1  0  0  0  0
 25 78  1  0  0  0  0
 26 28  2  0  0  0  0
 26 77  1  0  0  0  0
 27 79  1  0  0  0  0
 28 80  1  0  0  0  0
 29 81  1  0  0  0  0
 30 62  2  0  0  0  0
 31 56  1  0  0  0  0
 31 61  2  0  0  0  0
 32 63  1  0  0  0  0
 32 66  1  0  0  0  0
 33 67  1  0  0  0  0
 33 72  2  0  0  0  0
 34 48  1  0  0  0  0
 34 68  1  0  0  0  0
 34 73  2  0  0  0  0
 35 58  1  0  0  0  0
 35 64  1  0  0  0  0
 35 74  2  0  0  0  0
 36 59  1  0  0  0  0
 36 69  1  0  0  0  0
 36 75  2  0  0  0  0
 37 65  1  0  0  0  0
 37 70  1  0  0  0  0
 37 76  2  0  0  0  0
 38 41  1  0  0  0  0
 39 48  1  0  0  0  0
 40 64  1  0  0  0  0
 41 43  1  0  0  0  0
 42 44  1  0  0  0  0
 42 45  1  0  0  0  0
 43 47  1  0  0  0  0
 44 49  1  0  0  0  0
 45 65  1  0  0  0  0
 46 49  1  0  0  0  0
 46 65  1  0  0  0  0
 47 68  1  0  0  0  0
 48 64  1  0  0  0  0
 49 63  1  0  0  0  0
 50 59  1  0  0  0  0
 51 60  1  0  0  0  0
 52 60  1  0  0  0  0
 53 60  1  0  0  0  0
 54 71  1  0  0  0  0
 55 70  1  0  0  0  0
 56 57  1  0  0  0  0
 57 78  1  0  0  0  0
 58 60  1  0  0  0  0
 58 69  1  0  0  0  0
 59 71  1  0  0  0  0
 62 63  1  0  0  0  0
M  CHG  1  71   1
M  ISO  4  37 100  57 101  70 100  78 101
M  END
> <Batch ID>
0031

> <Smiles>
CNC(C)C(=O)NC(C(=O)N1Cc2cc([101O:1][101CH2:1]Cc3cc(Cl)c(C[100NH:0][100C:0](=O)N4CCCC(n5nc(-c6ccc(Oc7ccc(F)cc7F)cc6)c(C(N)=O)c5N)C4)cn3)ccc2CC1C(=O)NC1CCCc2ccccc21)C(C)(C)C

> <Shape>
0.193

> <Color>
0.065

> <Negative vol penalty>
0.000

$$$$

  -OEChem-04052316423D

 93102  0     1  0  0  0  0  0999 V2000
  -16.1897  -30.1594   24.1118 C   0  0  0  0  0  0  0  0  0  0  0  0
  -17.0198  -29.0505   24.2407 C   0  0  0  0  0  0  0  0  0  0  0  0
  -29.2713  -12.5864   19.9835 C   0  0  0  0  0  0  0  0  0  0  0  0
  -27.3605  -13.6445   18.9509 C   0  0  0  0  0  0  0  0  0  0  0  0
  -16.5259  -31.1810   23.2244 C   0  0  0  0  0  0  0  0  0  0  0  0
  -18.1860  -28.9619   23.4814 C   0  0  0  0  0  0  0  0  0  0  0  0
  -24.8741  -26.4153   23.7985 C   0  0  0  0  0  0  0  0  0  0  0  0
  -30.0989  -13.1134   18.9920 C   0  0  0  0  0  0  0  0  0  0  0  0
  -28.1881  -14.1715   17.9594 C   0  0  0  0  0  0  0  0  0  0  0  0
  -25.7544  -25.6079   23.0794 C   0  0  0  0  0  0  0  0  0  0  0  0
  -30.3533  -16.7455   17.6330 C   0  0  0  0  0  0  0  0  0  0  0  0
  -30.1773  -18.0857   17.2888 C   0  0  0  0  0  0  0  0  0  0  0  0
  -26.2745  -27.4701   21.6369 C   0  0  0  0  0  0  0  0  0  0  0  0
  -29.6749  -17.4361   15.0166 C   0  0  0  0  0  0  0  0  0  0  0  0
  -27.9021  -12.8520   19.9629 C   0  0  0  0  0  0  0  0  0  0  0  0
  -27.1309  -12.5328   22.3736 C   0  0  0  0  0  0  0  0  0  0  0  0
  -17.7018  -31.1094   22.4610 C   0  0  0  0  0  0  0  0  0  0  0  0
  -24.6789  -27.7555   23.4348 C   0  0  0  0  0  0  0  0  0  0  0  0
  -18.5375  -29.9828   22.5820 C   0  0  0  0  0  0  0  0  0  0  0  0
  -25.3931  -28.2931   22.3545 C   0  0  0  0  0  0  0  0  0  0  0  0
  -26.5043  -20.8755   19.6496 C   0  0  0  0  0  0  0  0  0  0  0  0
  -26.4400  -19.0088   21.1904 C   0  0  0  0  0  0  0  0  0  0  0  0
  -29.5573  -13.9059   17.9800 C   0  0  0  0  0  0  0  0  0  0  0  0
  -26.4526  -26.1345   21.9967 C   0  0  0  0  0  0  0  0  0  0  0  0
  -30.1902  -15.7506   16.6690 C   0  0  0  0  0  0  0  0  0  0  0  0
  -29.8381  -18.4310   15.9806 C   0  0  0  0  0  0  0  0  0  0  0  0
  -29.8510  -16.0959   15.3608 C   0  0  0  0  0  0  0  0  0  0  0  0
  -27.1439  -20.0283   20.5623 C   0  0  0  0  0  0  0  0  0  0  0  0
  -27.0466  -12.3075   20.9865 C   0  0  0  0  0  0  0  0  0  0  0  0
  -25.1488  -20.6505   19.4020 C   0  0  0  0  0  0  0  0  0  0  0  0
  -25.1022  -18.8673   20.8805 C   0  0  0  0  0  0  0  0  0  0  0  0
  -26.1005  -11.7961   22.9044 C   0  0  0  0  0  0  0  0  0  0  0  0
  -28.0579  -13.3363   23.1158 C   0  0  0  0  0  0  0  0  0  0  0  0
  -22.1942  -29.4710   22.4414 C   0  0  0  0  0  0  0  0  0  0  0  0
  -24.2851  -31.9363   22.7115 C   0  0  0  0  0  0  0  0  0  0  0  0
  -26.1821  -34.7703   22.5824 C   0  0  0  0  0  0  0  0  0  0  0  0
  -20.9319   -9.8717   20.8406 C   0  0  0  0  0  0  0  0  0  0  0  0
  -17.9991  -32.2161   21.4804 C   0  0  0  0  0  0  0  0  0  0  0  0
  -23.7459  -28.6204   24.2371 C   0  0  0  0  0  0  0  0  0  0  0  0
  -25.2345  -29.7312   21.9360 C   0  0  0  0  0  0  0  0  0  0  0  0
  -27.2721  -21.9761   18.9770 C   0  0  0  0  0  0  0  0  0  0  0  0
  -24.3760  -21.5073   18.4367 C   0  0  0  0  0  0  0  0  0  0  0  0
  -19.4439  -32.2215   20.9878 C   0  0  0  0  0  0  0  0  0  0  0  0
  -24.3148  -22.9754   18.8545 C   0  0  0  0  0  0  0  0  0  0  0  0
  -23.4793   -7.8853   22.1022 C   0  0  0  0  0  0  0  0  0  0  0  0
  -19.8786  -30.8137   20.5928 C   0  0  0  0  0  0  0  0  0  0  0  0
  -24.6996   -8.8049   22.0960 C   0  0  0  0  0  0  0  0  0  0  0  0
  -22.6426   -8.0828   20.8437 C   0  0  0  0  0  0  0  0  0  0  0  0
  -23.3999  -10.4283   20.6290 C   0  0  0  0  0  0  0  0  0  0  0  0
  -25.5561  -23.7847   18.4933 C   0  0  0  0  0  0  0  0  0  0  0  0
  -19.8238  -29.8620   21.7940 C   0  0  1  0  0  0  0  0  0  0  0  0
  -23.2376  -29.8313   23.4608 C   0  0  1  0  0  0  0  0  0  0  0  0
  -24.2839  -10.2711   21.8832 C   0  0  2  0  0  0  0  0  0  0  0  0
  -27.0806  -18.0819   22.1717 C   0  0  0  0  0  0  0  0  0  0  0  0
  -26.2730  -37.0323   21.4996 C   0  0  0  0  0  0  0  0  0  0  0  0
  -25.2000  -30.6476   20.1015 C   0  0  0  0  0  0  0  0  0  0  0  0
  -26.1572  -32.8601   19.4258 C   0  0  0  0  0  0  0  0  0  0  0  0
  -23.7042  -32.6316   19.8171 C   0  0  0  0  0  0  0  0  0  0  0  0
  -19.2478  -11.6719   20.8123 C   0  0  0  0  0  0  0  0  0  0  0  0
  -26.0571  -36.1543   25.1954 C   0  0  0  0  0  0  0  0  0  0  0  0
  -24.2831  -17.7939   21.5195 C   0  0  0  0  0  0  0  0  0  0  0  0
  -23.9951  -16.5889   20.6072 C   0  0  0  0  0  0  0  0  0  0  0  0
  -23.0967  -15.5412   21.2723 C   0  0  0  0  0  0  0  0  0  0  0  0
  -22.8125  -14.3728   20.3250 C   0  0  0  0  0  0  0  0  0  0  0  0
  -21.8826  -13.3447   20.9759 C   0  0  0  0  0  0  0  0  0  0  0  0
  -21.5307  -12.1956   20.0370 C   0  0  0  0  0  0  0  0  0  0  0  0
  -27.8690  -24.3926   19.1577 C   0  0  0  0  0  0  0  0  0  0  0  0
  -27.4845  -25.6518   19.9091 C   0  0  0  0  0  0  0  0  0  1  0  0
  -25.2828  -32.5976   21.7917 C   0  0  1  0  0  0  0  0  0  0  0  0
  -25.8120  -36.2369   22.7111 C   0  0  2  0  0  0  0  0  0  0  0  0
  -25.0942  -32.1717   20.3083 C   0  0  0  0  0  0  0  0  0  0  0  0
  -26.0420  -11.4913   20.6569 N   0  0  0  0  0  0  0  0  0  0  0  0
  -24.4441  -19.6588   20.0069 N   0  0  0  0  0  0  0  0  0  0  0  0
  -25.4857  -11.1973   21.8444 N   0  0  0  0  0  0  0  0  0  0  0  0
  -24.3059  -30.5349   22.7480 N   0  0  0  0  0  0  0  0  0  0  0  0
  -22.2701   -9.4871   20.6703 N   0  0  0  0  0  0  0  0  0  0  0  0
  -25.6694  -11.6085   24.1699 N   0  0  0  0  0  0  0  0  0  0  0  0
  -29.0547  -14.0273   22.4135 N   0  0  0  0  0  0  0  0  0  0  0  0
  -20.9675  -30.0699   22.6560 N   0  0  0  0  0  0  0  0  0  0  0  0
  -25.1608  -34.0331   22.0214 N   0  0  0  0  0  0  0  0  0  0  0  0
  -20.6256  -11.2282   20.6547 N   0  0  0  0  0  0  0  0  0  0  0  0
  -26.7657  -23.3711   19.2992 N   0  3  2  0  0  0  0  0  0  0  0  0
  -26.4417  -36.8252   23.9269 N   0  3  0  0  0  0  0  0  0  0  0  0
  -28.0139  -13.4255   24.3662 O   0  0  0  0  0  0  0  0  0  0  0  0
  -22.4813  -28.7075   21.5269 O   0  0  0  0  0  0  0  0  0  0  0  0
  -23.5203  -32.6376   23.3787 O   0  0  0  0  0  0  0  0  0  0  0  0
  -27.2699  -34.3239   22.9401 O   0  0  0  0  0  0  0  0  0  0  0  0
  -20.0563   -9.0478   21.1350 O   0  0  0  0  0  0  0  0  0  0  0  0
  -30.3646  -14.4205   17.0125 O   0  0  0  0  0  0  0  0  0  0  0  0
  -27.3120  -25.3485   21.2927 O   0  0  0  0  0  0  0  0  0  1  0  0
  -29.6675  -19.7180   15.6506 F   0  0  0  0  0  0  0  0  0  0  0  0
  -29.6918  -15.1445   14.4307 F   0  0  0  0  0  0  0  0  0  0  0  0
  -28.8264  -20.2056   20.9706 Cl  0  0  0  0  0  0  0  0  0  0  0  0
  1  2  1  0  0  0  0
  1  5  2  0  0  0  0
  2  6  2  0  0  0  0
  3  8  2  0  0  0  0
  3 15  1  0  0  0  0
  4  9  1  0  0  0  0
  4 15  2  0  0  0  0
  5 17  1  0  0  0  0
  6 19  1  0  0  0  0
  7 10  2  0  0  0  0
  7 18  1  0  0  0  0
  8 23  1  0  0  0  0
  9 23  2  0  0  0  0
 10 24  1  0  0  0  0
 11 12  2  0  0  0  0
 11 25  1  0  0  0  0
 12 26  1  0  0  0  0
 13 20  1  0  0  0  0
 13 24  2  0  0  0  0
 14 26  2  0  0  0  0
 14 27  1  0  0  0  0
 15 29  1  0  0  0  0
 16 29  1  0  0  0  0
 16 32  2  0  0  0  0
 16 33  1  0  0  0  0
 17 19  2  0  0  0  0
 17 38  1  0  0  0  0
 18 20  2  0  0  0  0
 18 39  1  0  0  0  0
 19 51  1  0  0  0  0
 20 40  1  0  0  0  0
 21 28  1  0  0  0  0
 21 30  2  0  0  0  0
 21 41  1  0  0  0  0
 22 28  2  0  0  0  0
 22 31  1  0  0  0  0
 22 54  1  0  0  0  0
 23 89  1  0  0  0  0
 24 90  1  0  0  0  0
 25 27  2  0  0  0  0
 25 89  1  0  0  0  0
 26 91  1  0  0  0  0
 27 92  1  0  0  0  0
 28 93  1  0  0  0  0
 29 72  2  0  0  0  0
 30 42  1  0  0  0  0
 30 73  1  0  0  0  0
 31 61  1  0  0  0  0
 31 73  2  0  0  0  0
 32 74  1  0  0  0  0
 32 77  1  0  0  0  0
 33 78  1  0  0  0  0
 33 84  2  0  0  0  0
 34 52  1  0  0  0  0
 34 79  1  0  0  0  0
 34 85  2  0  0  0  0
 35 69  1  0  0  0  0
 35 75  1  0  0  0  0
 35 86  2  0  0  0  0
 36 70  1  0  0  0  0
 36 80  1  0  0  0  0
 36 87  2  0  0  0  0
 37 76  1  0  0  0  0
 37 81  1  0  0  0  0
 37 88  2  0  0  0  0
 38 43  1  0  0  0  0
 39 52  1  0  0  0  0
 40 75  1  0  0  0  0
 41 82  1  0  0  0  0
 42 44  1  0  0  0  0
 43 46  1  0  0  0  0
 44 50  1  0  0  0  0
 45 47  1  0  0  0  0
 45 48  1  0  0  0  0
 46 51  1  0  0  0  0
 47 53  1  0  0  0  0
 48 76  1  0  0  0  0
 49 53  1  0  0  0  0
 49 76  1  0  0  0  0
 50 82  1  0  0  0  0
 51 79  1  0  0  0  0
 52 75  1  0  0  0  0
 53 74  1  0  0  0  0
 55 70  1  0  0  0  0
 56 71  1  0  0  0  0
 57 71  1  0  0  0  0
 58 71  1  0  0  0  0
 59 81  1  0  0  0  0
 60 83  1  0  0  0  0
 61 62  1  0  0  0  0
 62 63  1  0  0  0  0
 63 64  1  0  0  0  0
 64 65  1  0  0  0  0
 65 66  1  0  0  0  0
 66 81  1  0  0  0  0
 67 68  1  0  0  0  0
 67 82  1  0  0  0  0
 68 90  1  0  0  0  0
 69 71  1  0  0  0  0
 69 80  1  0  0  0  0
 70 83  1  0  0  0  0
 72 74  1  0  0  0  0
M  CHG  2  82   1  83   1
M  ISO  4  37 100  68 101  81 100  90 101
M  END
> <Batch ID>
0031

> <Smiles>
CNC(C)C(=O)NC(C(=O)N1Cc2cc([101O:1][101CH2:1]CN3CCCc4nc(CCCCCC[100N:0](C)[100C:0](=O)N5CCCC(n6nc(-c7ccc(Oc8ccc(F)cc8F)cc7)c(C(N)=O)c6N)C5)c(C)c(Cl)c4C3)ccc2CC1C(=O)NC1CCCc2ccccc21)C(C)(C)C

> <Shape>
0.243

> <Color>
0.112

> <Negative vol penalty>
0.000

$$$$

  -OEChem-04052316423D

 87 95  0     1  0  0  0  0  0999 V2000
  -24.1848  -32.3792   29.1688 C   0  0  0  0  0  0  0  0  0  0  0  0
  -24.3017  -31.0149   28.9231 C   0  0  0  0  0  0  0  0  0  0  0  0
  -23.6124   -9.8824   21.6656 C   0  0  0  0  0  0  0  0  0  0  0  0
  -24.2396  -10.9993   23.7140 C   0  0  0  0  0  0  0  0  0  0  0  0
  -23.6933  -33.2256   28.1758 C   0  0  0  0  0  0  0  0  0  0  0  0
  -23.9261  -30.4960   27.6845 C   0  0  0  0  0  0  0  0  0  0  0  0
  -27.2990  -27.1881   25.8605 C   0  0  0  0  0  0  0  0  0  0  0  0
  -23.0236   -8.8567   22.4052 C   0  0  0  0  0  0  0  0  0  0  0  0
  -23.6509   -9.9737   24.4536 C   0  0  0  0  0  0  0  0  0  0  0  0
  -27.2827  -25.9011   26.3965 C   0  0  0  0  0  0  0  0  0  0  0  0
  -20.1411   -8.3431   24.0963 C   0  0  0  0  0  0  0  0  0  0  0  0
  -18.8813   -7.8969   23.6972 C   0  0  0  0  0  0  0  0  0  0  0  0
  -26.0390  -25.1254   24.4806 C   0  0  0  0  0  0  0  0  0  0  0  0
  -24.6992  -21.7083   23.7836 C   0  0  0  0  0  0  0  0  0  0  0  0
  -27.0513  -21.5859   24.3218 C   0  0  0  0  0  0  0  0  0  0  0  0
  -19.7758   -5.6791   23.3532 C   0  0  0  0  0  0  0  0  0  0  0  0
  -24.2204  -10.9537   22.3201 C   0  0  0  0  0  0  0  0  0  0  0  0
  -24.2139  -13.1946   21.1011 C   0  0  0  0  0  0  0  0  0  0  0  0
  -23.3206  -32.7182   26.9211 C   0  0  0  0  0  0  0  0  0  0  0  0
  -26.6750  -27.4561   24.6337 C   0  0  0  0  0  0  0  0  0  0  0  0
  -23.4280  -31.3362   26.6742 C   0  0  0  0  0  0  0  0  0  0  0  0
  -26.0510  -26.4161   23.9300 C   0  0  0  0  0  0  0  0  0  0  0  0
  -25.7601  -22.0086   24.6379 C   0  0  0  0  0  0  0  0  0  0  0  0
  -24.9294  -20.9852   22.6131 C   0  0  0  0  0  0  0  0  0  0  0  0
  -27.2815  -20.8629   23.1513 C   0  0  0  0  0  0  0  0  0  0  0  0
  -23.0429   -8.9023   23.7992 C   0  0  0  0  0  0  0  0  0  0  0  0
  -26.6501  -24.8702   25.7080 C   0  0  0  0  0  0  0  0  0  0  0  0
  -21.2183   -7.4574   24.1239 C   0  0  0  0  0  0  0  0  0  0  0  0
  -18.6986   -6.5649   23.3257 C   0  0  0  0  0  0  0  0  0  0  0  0
  -21.0356   -6.1254   23.7524 C   0  0  0  0  0  0  0  0  0  0  0  0
  -26.2206  -20.5625   22.2970 C   0  0  0  0  0  0  0  0  0  0  0  0
  -24.8292  -12.0132   21.5567 C   0  0  0  0  0  0  0  0  0  0  0  0
  -25.2092  -13.8642   20.4322 C   0  0  0  0  0  0  0  0  0  0  0  0
  -22.8634  -13.6464   21.2678 C   0  0  0  0  0  0  0  0  0  0  0  0
  -24.2744  -29.3174   23.6975 C   0  0  0  0  0  0  0  0  0  0  0  0
  -25.1851  -28.3418   20.7409 C   0  0  0  0  0  0  0  0  0  0  0  0
  -26.7418  -25.9918   18.8172 C   0  0  0  0  0  0  0  0  0  0  0  0
  -31.1818  -13.7598   20.8424 C   0  0  0  0  0  0  0  0  0  0  0  0
  -22.7503  -33.6653   25.8953 C   0  0  0  0  0  0  0  0  0  0  0  0
  -26.7245  -28.8441   24.0562 C   0  0  0  0  0  0  0  0  0  0  0  0
  -25.3841  -26.6473   22.5995 C   0  0  0  0  0  0  0  0  0  0  0  0
  -22.7264  -33.0898   24.4816 C   0  0  0  0  0  0  0  0  0  0  0  0
  -29.2230  -13.0938   17.9448 C   0  0  0  0  0  0  0  0  0  0  0  0
  -22.1719  -31.6688   24.4931 C   0  0  0  0  0  0  0  0  0  0  0  0
  -27.8193  -12.8480   18.5008 C   0  0  0  0  0  0  0  0  0  0  0  0
  -30.3024  -12.5414   18.8730 C   0  0  0  0  0  0  0  0  0  0  0  0
  -28.8144  -12.7641   20.8249 C   0  0  0  0  0  0  0  0  0  0  0  0
  -23.0543  -30.7390   25.3349 C   0  0  1  0  0  0  0  0  0  0  0  0
  -25.6127  -29.1111   23.0463 C   0  0  1  0  0  0  0  0  0  0  0  0
  -27.6940  -13.3532   19.9507 C   0  0  2  0  0  0  0  0  0  0  0  0
  -23.7625  -20.6861   21.7277 C   0  0  0  0  0  0  0  0  0  0  0  0
  -25.2172  -21.8847   27.0941 C   0  0  0  0  0  0  0  0  0  0  0  0
  -27.2932  -25.4509   16.4296 C   0  0  0  0  0  0  0  0  0  0  0  0
  -22.2948  -27.4848   20.2702 C   0  0  0  0  0  0  0  0  0  0  0  0
  -23.0880  -26.1271   18.3219 C   0  0  0  0  0  0  0  0  0  0  0  0
  -23.3824  -28.6041   18.3161 C   0  0  0  0  0  0  0  0  0  0  0  0
  -29.6517  -26.0562   19.3531 C   0  0  0  0  0  0  0  0  0  0  0  0
  -28.6812  -20.4304   22.8530 C   0  0  0  0  0  0  0  0  0  0  0  0
  -31.8100  -16.4704   22.6553 C   0  0  0  0  0  0  0  0  0  0  0  0
  -30.4323  -17.0257   23.0354 C   0  0  0  0  0  0  0  0  0  0  0  0
  -31.9153  -14.9654   22.8839 C   0  0  0  0  0  0  0  0  0  0  0  0
  -30.2809  -18.5149   22.7480 C   0  0  0  0  0  0  0  0  0  0  0  0
  -25.5107  -22.7922   25.9062 C   0  0  1  0  0  0  0  0  0  1  0  0
  -24.8228  -27.1884   19.8370 C   0  0  1  0  0  0  0  0  0  0  0  0
  -27.7720  -26.1183   17.7094 C   0  0  2  0  0  0  0  0  0  0  0  0
  -23.4078  -27.3468   19.2123 C   0  0  0  0  0  0  0  0  0  0  0  0
  -26.1158  -11.9339   21.2066 N   0  0  0  0  0  0  0  0  0  0  0  0
  -26.3170  -13.0739   20.5238 N   0  0  0  0  0  0  0  0  0  0  0  0
  -25.4540  -28.0229   22.0795 N   0  0  0  0  0  0  0  0  0  0  0  0
  -30.1279  -13.0603   20.2317 N   0  0  0  0  0  0  0  0  0  0  0  0
  -25.2362  -15.0461   19.7803 N   0  0  0  0  0  0  0  0  0  0  0  0
  -21.9711  -12.8355   21.9823 N   0  0  0  0  0  0  0  0  0  0  0  0
  -24.2422  -30.3653   24.5977 N   0  0  0  0  0  0  0  0  0  0  0  0
  -25.8996  -27.0828   18.8583 N   0  0  0  0  0  0  0  0  0  0  0  0
  -30.9311  -14.2231   22.1281 N   0  0  0  0  0  0  0  0  0  0  0  0
  -29.0551  -25.4810   18.1201 N   0  3  0  0  0  0  0  0  0  0  0  0
  -28.9113  -18.9802   23.0918 N   0  3  0  0  0  0  0  0  0  0  0  0
  -22.4557  -14.7291   20.7830 O   0  0  0  0  0  0  0  0  0  0  0  0
  -23.3397  -28.5813   23.4038 O   0  0  0  0  0  0  0  0  0  0  0  0
  -25.2350  -29.4829   20.2749 O   0  0  0  0  0  0  0  0  0  0  0  0
  -26.6871  -25.0205   19.5683 O   0  0  0  0  0  0  0  0  0  0  0  0
  -32.2641  -13.9615   20.2811 O   0  0  0  0  0  0  0  0  0  0  0  0
  -22.4683   -7.9017   24.5211 O   0  0  0  0  0  0  0  0  0  0  0  0
  -26.6322  -23.6133   26.2292 O   0  0  0  0  0  0  0  0  0  1  0  0
  -17.4884   -6.1362   22.9439 F   0  0  0  0  0  0  0  0  0  0  0  0
  -22.0665   -5.2695   23.7779 F   0  0  0  0  0  0  0  0  0  0  0  0
  -26.5063  -19.6647   20.8440 Cl  0  0  0  0  0  0  0  0  0  0  0  0
  1  2  1  0  0  0  0
  1  5  2  0  0  0  0
  2  6  2  0  0  0  0
  3  8  2  0  0  0  0
  3 17  1  0  0  0  0
  4  9  1  0  0  0  0
  4 17  2  0  0  0  0
  5 19  1  0  0  0  0
  6 21  1  0  0  0  0
  7 10  2  0  0  0  0
  7 20  1  0  0  0  0
  8 26  1  0  0  0  0
  9 26  2  0  0  0  0
 10 27  1  0  0  0  0
 11 12  2  0  0  0  0
 11 28  1  0  0  0  0
 12 29  1  0  0  0  0
 13 22  1  0  0  0  0
 13 27  2  0  0  0  0
 14 23  1  0  0  0  0
 14 24  2  0  0  0  0
 15 23  2  0  0  0  0
 15 25  1  0  0  0  0
 16 29  2  0  0  0  0
 16 30  1  0  0  0  0
 17 32  1  0  0  0  0
 18 32  1  0  0  0  0
 18 33  2  0  0  0  0
 18 34  1  0  0  0  0
 19 21  2  0  0  0  0
 19 39  1  0  0  0  0
 20 22  2  0  0  0  0
 20 40  1  0  0  0  0
 21 48  1  0  0  0  0
 22 41  1  0  0  0  0
 23 63  1  0  0  0  0
 24 31  1  0  0  0  0
 24 51  1  0  0  0  0
 25 31  2  0  0  0  0
 25 58  1  0  0  0  0
 26 83  1  0  0  0  0
 27 84  1  0  0  0  0
 28 30  2  0  0  0  0
 28 83  1  0  0  0  0
 29 85  1  0  0  0  0
 30 86  1  0  0  0  0
 31 87  1  0  0  0  0
 32 67  2  0  0  0  0
 33 68  1  0  0  0  0
 33 71  1  0  0  0  0
 34 72  1  0  0  0  0
 34 78  2  0  0  0  0
 35 49  1  0  0  0  0
 35 73  1  0  0  0  0
 35 79  2  0  0  0  0
 36 64  1  0  0  0  0
 36 69  1  0  0  0  0
 36 80  2  0  0  0  0
 37 65  1  0  0  0  0
 37 74  1  0  0  0  0
 37 81  2  0  0  0  0
 38 70  1  0  0  0  0
 38 75  1  0  0  0  0
 38 82  2  0  0  0  0
 39 42  1  0  0  0  0
 40 49  1  0  0  0  0
 41 69  1  0  0  0  0
 42 44  1  0  0  0  0
 43 45  1  0  0  0  0
 43 46  1  0  0  0  0
 44 48  1  0  0  0  0
 45 50  1  0  0  0  0
 46 70  1  0  0  0  0
 47 50  1  0  0  0  0
 47 70  1  0  0  0  0
 48 73  1  0  0  0  0
 49 69  1  0  0  0  0
 50 68  1  0  0  0  0
 52 63  1  0  0  0  0
 53 65  1  0  0  0  0
 54 66  1  0  0  0  0
 55 66  1  0  0  0  0
 56 66  1  0  0  0  0
 57 76  1  0  0  0  0
 58 77  1  0  0  0  0
 59 60  1  0  0  0  0
 59 61  1  0  0  0  0
 60 62  1  0  0  0  0
 61 75  1  0  0  0  0
 62 77  1  0  0  0  0
 63 84  1  0  0  0  0
 64 66  1  0  0  0  0
 64 74  1  0  0  0  0
 65 76  1  0  0  0  0
 67 68  1  0  0  0  0
M  CHG  2  76   1  77   1
M  ISO  4  38 100  63 101  75 100  84 101
M  END
> <Batch ID>
0031

> <Smiles>
CNC(C)C(=O)NC(C(=O)N1Cc2cc([101O:1][101CH:1](C)c3cc(C)c(Cl)c(CNCCCC[100NH:0][100C:0](=O)N4CCCC(n5nc(-c6ccc(Oc7ccc(F)cc7F)cc6)c(C(N)=O)c5N)C4)c3)ccc2CC1C(=O)NC1CCCc2ccccc21)C(C)(C)C

> <Shape>
0.219

> <Color>
0.144

> <Negative vol penalty>
0.000

$$$$

  -OEChem-04052316423D

 89 98  0     1  0  0  0  0  0999 V2000
  -29.5526  -12.4668   19.5517 C   0  0  0  0  0  0  0  0  0  0  0  0
  -29.2421  -13.7176   19.0278 C   0  0  0  0  0  0  0  0  0  0  0  0
  -29.9535  -25.7085   20.2539 C   0  0  0  0  0  0  0  0  0  0  0  0
  -27.8365  -24.5536   20.4000 C   0  0  0  0  0  0  0  0  0  0  0  0
  -28.5533  -11.6891   20.1351 C   0  0  0  0  0  0  0  0  0  0  0  0
  -27.9318  -14.1910   19.0860 C   0  0  0  0  0  0  0  0  0  0  0  0
  -24.2208  -20.2812   19.7603 C   0  0  0  0  0  0  0  0  0  0  0  0
  -30.4836  -24.6446   19.5240 C   0  0  0  0  0  0  0  0  0  0  0  0
  -28.3665  -23.4896   19.6701 C   0  0  0  0  0  0  0  0  0  0  0  0
  -23.1953  -20.9920   19.1384 C   0  0  0  0  0  0  0  0  0  0  0  0
  -30.3691  -20.8269   20.2447 C   0  0  0  0  0  0  0  0  0  0  0  0
  -30.1103  -19.5347   20.7018 C   0  0  0  0  0  0  0  0  0  0  0  0
  -17.9469  -27.4212   22.9891 C   0  0  0  0  0  0  0  0  0  0  0  0
  -19.9010  -26.8433   21.6913 C   0  0  0  0  0  0  0  0  0  0  0  0
  -21.5667  -19.5950   20.2408 C   0  0  0  0  0  0  0  0  0  0  0  0
  -29.0103  -19.0166   18.6141 C   0  0  0  0  0  0  0  0  0  0  0  0
  -28.6300  -25.6630   20.6919 C   0  0  0  0  0  0  0  0  0  0  0  0
  -28.5382  -27.2543   22.6837 C   0  0  0  0  0  0  0  0  0  0  0  0
  -27.2319  -12.1573   20.2092 C   0  0  0  0  0  0  0  0  0  0  0  0
  -23.9268  -19.2131   20.6201 C   0  0  0  0  0  0  0  0  0  0  0  0
  -26.9136  -13.4183   19.6698 C   0  0  0  0  0  0  0  0  0  0  0  0
  -18.5878  -26.5791   22.0805 C   0  0  0  0  0  0  0  0  0  0  0  0
  -22.5902  -18.8739   20.8743 C   0  0  0  0  0  0  0  0  0  0  0  0
  -18.6191  -28.5276   23.5085 C   0  0  0  0  0  0  0  0  0  0  0  0
  -29.6901  -23.5352   19.2321 C   0  0  0  0  0  0  0  0  0  0  0  0
  -21.8680  -20.6471   19.3764 C   0  0  0  0  0  0  0  0  0  0  0  0
  -29.9485  -21.2139   18.9723 C   0  0  0  0  0  0  0  0  0  0  0  0
  -20.5732  -27.9497   22.2106 C   0  0  0  0  0  0  0  0  0  0  0  0
  -29.4309  -18.6296   19.8865 C   0  0  0  0  0  0  0  0  0  0  0  0
  -29.2691  -20.3088   18.1570 C   0  0  0  0  0  0  0  0  0  0  0  0
  -19.9323  -28.7918   23.1193 C   0  0  0  0  0  0  0  0  0  0  0  0
  -28.0820  -26.7614   21.4464 C   0  0  0  0  0  0  0  0  0  0  0  0
  -27.6886  -28.2938   22.9735 C   0  0  0  0  0  0  0  0  0  0  0  0
  -29.6322  -26.8120   23.4981 C   0  0  0  0  0  0  0  0  0  0  0  0
  -24.5528  -16.0967   20.6213 C   0  0  0  0  0  0  0  0  0  0  0  0
  -23.1904  -16.2203   23.5626 C   0  0  0  0  0  0  0  0  0  0  0  0
  -20.3483  -17.8422   25.0822 C   0  0  0  0  0  0  0  0  0  0  0  0
  -22.0673  -29.4521   21.2010 C   0  0  0  0  0  0  0  0  0  0  0  0
  -26.1766  -11.2608   20.8069 C   0  0  0  0  0  0  0  0  0  0  0  0
  -25.0437  -18.4735   21.3040 C   0  0  0  0  0  0  0  0  0  0  0  0
  -22.2209  -17.7485   21.8047 C   0  0  0  0  0  0  0  0  0  0  0  0
  -24.8862  -11.9937   21.1648 C   0  0  0  0  0  0  0  0  0  0  0  0
  -24.9420  -31.5950   20.8817 C   0  0  0  0  0  0  0  0  0  0  0  0
  -17.6830  -25.4770   19.9904 C   0  0  0  0  0  0  0  0  0  0  0  0
  -18.5382  -24.0554   21.9121 C   0  0  0  0  0  0  0  0  0  0  0  0
  -24.4524  -12.9017   20.0184 C   0  0  0  0  0  0  0  0  0  0  0  0
  -26.1151  -30.6329   21.0668 C   0  0  0  0  0  0  0  0  0  0  0  0
  -16.9434  -24.2619   19.4269 C   0  0  0  0  0  0  0  0  0  0  0  0
  -17.7961  -22.8454   21.3410 C   0  0  0  0  0  0  0  0  0  0  0  0
  -23.7758  -30.9233   20.1637 C   0  0  0  0  0  0  0  0  0  0  0  0
  -24.4765  -28.7003   21.0121 C   0  0  0  0  0  0  0  0  0  0  0  0
  -17.8572  -25.3749   21.5143 C   0  0  0  0  0  0  0  0  0  0  0  0
  -25.5087  -13.9769   19.7363 C   0  0  1  0  0  0  0  0  0  0  0  0
  -24.6427  -17.0738   21.7593 C   0  0  1  0  0  0  0  0  0  0  0  0
  -25.6616  -29.3354   21.7596 C   0  0  1  0  0  0  0  0  0  0  0  0
  -17.5939  -22.9139   19.8107 C   0  0  0  0  0  0  0  0  0  0  0  0
  -17.9311  -29.4263   24.4798 C   0  0  0  0  0  0  0  0  0  0  0  0
  -16.4269  -21.7884   17.9081 C   0  0  0  0  0  0  0  0  0  0  0  0
  -19.9404  -18.5275   27.4615 C   0  0  0  0  0  0  0  0  0  0  0  0
  -21.8056  -13.5118   23.8009 C   0  0  0  0  0  0  0  0  0  0  0  0
  -20.0857  -14.5979   25.2605 C   0  0  0  0  0  0  0  0  0  0  0  0
  -22.4729  -14.5378   25.9818 C   0  0  0  0  0  0  0  0  0  0  0  0
  -19.8076  -20.6459   24.3038 C   0  0  0  0  0  0  0  0  0  0  0  0
  -16.6603  -21.7675   19.3782 C   0  0  0  0  0  0  0  0  0  0  0  0
  -18.9373  -22.7325   19.0777 C   0  0  0  0  0  0  0  0  0  0  0  0
  -19.6260  -21.4348   19.4715 C   0  0  0  0  0  0  0  0  0  1  0  0
  -21.7859  -16.0766   24.0971 C   0  0  1  0  0  0  0  0  0  0  0  0
  -20.3807  -18.9858   26.0799 C   0  0  2  0  0  0  0  0  0  0  0  0
  -21.5425  -14.6908   24.7589 C   0  0  0  0  0  0  0  0  0  0  0  0
  -27.0246  -27.4326   20.9823 N   0  0  0  0  0  0  0  0  0  0  0  0
  -26.8092  -28.3577   21.9330 N   0  0  0  0  0  0  0  0  0  0  0  0
  -23.3488  -17.0514   22.4445 N   0  0  0  0  0  0  0  0  0  0  0  0
  -23.3961  -29.6766   20.8269 N   0  0  0  0  0  0  0  0  0  0  0  0
  -27.6154  -29.1502   24.0145 N   0  0  0  0  0  0  0  0  0  0  0  0
  -30.4032  -25.7302   23.0513 N   0  0  0  0  0  0  0  0  0  0  0  0
  -25.4299  -15.0337   20.7218 N   0  0  0  0  0  0  0  0  0  0  0  0
  -21.5706  -17.2108   24.9890 N   0  0  0  0  0  0  0  0  0  0  0  0
  -19.4755  -20.0842   25.6384 N   0  3  0  0  0  0  0  0  0  0  0  0
  -29.9075  -27.3494   24.5976 O   0  0  0  0  0  0  0  0  0  0  0  0
  -23.7463  -16.2920   19.7196 O   0  0  0  0  0  0  0  0  0  0  0  0
  -24.1140  -15.6229   24.1209 O   0  0  0  0  0  0  0  0  0  0  0  0
  -19.3386  -17.5369   24.4514 O   0  0  0  0  0  0  0  0  0  0  0  0
  -21.1505  -30.2504   21.0108 O   0  0  0  0  0  0  0  0  0  0  0  0
  -30.2069  -22.4969   18.5197 O   0  0  0  0  0  0  0  0  0  0  0  0
  -21.8905  -28.2120   21.8210 O   0  0  0  0  0  0  0  0  0  0  0  0
  -20.8651  -21.3389   18.7701 O   0  0  0  0  0  0  0  0  0  1  0  0
  -29.1838  -17.3883   20.3249 F   0  0  0  0  0  0  0  0  0  0  0  0
  -28.8636  -20.6745   16.9332 F   0  0  0  0  0  0  0  0  0  0  0  0
  -20.5823  -29.8533   23.6186 F   0  0  0  0  0  0  0  0  0  0  0  0
  1  2  1  0  0  0  0
  1  5  2  0  0  0  0
  2  6  2  0  0  0  0
  3  8  2  0  0  0  0
  3 17  1  0  0  0  0
  4  9  1  0  0  0  0
  4 17  2  0  0  0  0
  5 19  1  0  0  0  0
  6 21  1  0  0  0  0
  7 10  2  0  0  0  0
  7 20  1  0  0  0  0
  8 25  1  0  0  0  0
  9 25  2  0  0  0  0
 10 26  1  0  0  0  0
 11 12  2  0  0  0  0
 11 27  1  0  0  0  0
 12 29  1  0  0  0  0
 13 22  1  0  0  0  0
 13 24  2  0  0  0  0
 14 22  2  0  0  0  0
 14 28  1  0  0  0  0
 15 23  1  0  0  0  0
 15 26  2  0  0  0  0
 16 29  2  0  0  0  0
 16 30  1  0  0  0  0
 17 32  1  0  0  0  0
 18 32  1  0  0  0  0
 18 33  2  0  0  0  0
 18 34  1  0  0  0  0
 19 21  2  0  0  0  0
 19 39  1  0  0  0  0
 20 23  2  0  0  0  0
 20 40  1  0  0  0  0
 21 53  1  0  0  0  0
 22 52  1  0  0  0  0
 23 41  1  0  0  0  0
 24 31  1  0  0  0  0
 24 57  1  0  0  0  0
 25 84  1  0  0  0  0
 26 86  1  0  0  0  0
 27 30  2  0  0  0  0
 27 84  1  0  0  0  0
 28 31  2  0  0  0  0
 28 85  1  0  0  0  0
 29 87  1  0  0  0  0
 30 88  1  0  0  0  0
 31 89  1  0  0  0  0
 32 70  2  0  0  0  0
 33 71  1  0  0  0  0
 33 74  1  0  0  0  0
 34 75  1  0  0  0  0
 34 79  2  0  0  0  0
 35 54  1  0  0  0  0
 35 76  1  0  0  0  0
 35 80  2  0  0  0  0
 36 67  1  0  0  0  0
 36 72  1  0  0  0  0
 36 81  2  0  0  0  0
 37 68  1  0  0  0  0
 37 77  1  0  0  0  0
 37 82  2  0  0  0  0
 38 73  1  0  0  0  0
 38 83  2  0  0  0  0
 38 85  1  0  0  0  0
 39 42  1  0  0  0  0
 40 54  1  0  0  0  0
 41 72  1  0  0  0  0
 42 46  1  0  0  0  0
 43 47  1  0  0  0  0
 43 50  1  0  0  0  0
 44 48  1  0  0  0  0
 44 52  1  0  0  0  0
 45 49  1  0  0  0  0
 45 52  1  0  0  0  0
 46 53  1  0  0  0  0
 47 55  1  0  0  0  0
 48 56  1  0  0  0  0
 49 56  1  0  0  0  0
 50 73  1  0  0  0  0
 51 55  1  0  0  0  0
 51 73  1  0  0  0  0
 53 76  1  0  0  0  0
 54 72  1  0  0  0  0
 55 71  1  0  0  0  0
 56 64  1  0  0  0  0
 56 65  1  0  0  0  0
 58 64  1  0  0  0  0
 59 68  1  0  0  0  0
 60 69  1  0  0  0  0
 61 69  1  0  0  0  0
 62 69  1  0  0  0  0
 63 78  1  0  0  0  0
 65 66  1  0  0  0  0
 66 86  1  0  0  0  0
 67 69  1  0  0  0  0
 67 77  1  0  0  0  0
 68 78  1  0  0  0  0
 70 71  1  0  0  0  0
M  CHG  1  78   1
M  ISO  4  38 100  66 101  85 100  86 101
M  END
> <Batch ID>
0031

> <Smiles>
CCC1(C[101CH2:1][101O:1]c2ccc3c(c2)CN(C(=O)C(NC(=O)C(C)NC)C(C)(C)C)C(C(=O)NC2CCCc4ccccc42)C3)CCC(c2cc(C)c(F)c([100O:0][100C:0](=O)N3CCCC(n4nc(-c5ccc(Oc6ccc(F)cc6F)cc5)c(C(N)=O)c4N)C3)c2)CC1

> <Shape>
0.243

> <Color>
0.082

> <Negative vol penalty>
0.000

$$$$

  -OEChem-04052316423D

 84 92  0     1  0  0  0  0  0999 V2000
  -18.1591  -33.4905   22.8481 C   0  0  0  0  0  0  0  0  0  0  0  0
  -19.3959  -33.5142   22.2117 C   0  0  0  0  0  0  0  0  0  0  0  0
  -26.9216  -13.7040   21.9792 C   0  0  0  0  0  0  0  0  0  0  0  0
  -26.4196  -13.6674   19.6162 C   0  0  0  0  0  0  0  0  0  0  0  0
  -17.8634  -32.4755   23.7571 C   0  0  0  0  0  0  0  0  0  0  0  0
  -20.3383  -32.5234   22.4848 C   0  0  0  0  0  0  0  0  0  0  0  0
  -25.6019  -28.8093   19.3516 C   0  0  0  0  0  0  0  0  0  0  0  0
  -26.1379  -12.5649   22.1634 C   0  0  0  0  0  0  0  0  0  0  0  0
  -25.6359  -12.5282   19.8004 C   0  0  0  0  0  0  0  0  0  0  0  0
  -26.9432  -28.4767   19.5365 C   0  0  0  0  0  0  0  0  0  0  0  0
  -22.8513  -11.8175   22.4166 C   0  0  0  0  0  0  0  0  0  0  0  0
  -21.9689  -11.8066   23.4968 C   0  0  0  0  0  0  0  0  0  0  0  0
  -26.2924  -26.7280   21.0655 C   0  0  0  0  0  0  0  0  0  0  0  0
  -28.3730  -25.2473   17.4549 C   0  0  0  0  0  0  0  0  0  0  0  0
  -28.9944  -22.5549   17.0707 C   0  0  0  0  0  0  0  0  0  0  0  0
  -23.0932   -9.8662   24.3957 C   0  0  0  0  0  0  0  0  0  0  0  0
  -27.0624  -14.2553   20.7056 C   0  0  0  0  0  0  0  0  0  0  0  0
  -29.2474  -15.4796   20.2215 C   0  0  0  0  0  0  0  0  0  0  0  0
  -18.7991  -31.4664   24.0342 C   0  0  0  0  0  0  0  0  0  0  0  0
  -24.5948  -28.1097   20.0317 C   0  0  0  0  0  0  0  0  0  0  0  0
  -20.0555  -31.4947   23.3994 C   0  0  0  0  0  0  0  0  0  0  0  0
  -24.9390  -27.0520   20.8855 C   0  0  0  0  0  0  0  0  0  0  0  0
  -29.5277  -24.7101   18.0237 C   0  0  0  0  0  0  0  0  0  0  0  0
  -27.8397  -23.0922   16.5019 C   0  0  0  0  0  0  0  0  0  0  0  0
  -25.4951  -11.9770   21.0740 C   0  0  0  0  0  0  0  0  0  0  0  0
  -27.2888  -27.4378   20.3958 C   0  0  0  0  0  0  0  0  0  0  0  0
  -23.8547  -10.8527   22.3259 C   0  0  0  0  0  0  0  0  0  0  0  0
  -22.0898  -10.8309   24.4863 C   0  0  0  0  0  0  0  0  0  0  0  0
  -23.9756   -9.8771   23.3154 C   0  0  0  0  0  0  0  0  0  0  0  0
  -29.8385  -23.3639   17.8316 C   0  0  0  0  0  0  0  0  0  0  0  0
  -27.5289  -24.4383   16.6941 C   0  0  0  0  0  0  0  0  0  0  0  0
  -27.8713  -15.4322   20.5148 C   0  0  0  0  0  0  0  0  0  0  0  0
  -29.5349  -16.8201   20.1388 C   0  0  0  0  0  0  0  0  0  0  0  0
  -30.1822  -14.4077   20.0400 C   0  0  0  0  0  0  0  0  0  0  0  0
  -22.3645  -28.8910   22.1575 C   0  0  0  0  0  0  0  0  0  0  0  0
  -21.4102  -25.8243   21.7029 C   0  0  0  0  0  0  0  0  0  0  0  0
  -22.2209  -22.6484   20.7523 C   0  0  0  0  0  0  0  0  0  0  0  0
  -26.2047  -21.6344   18.8801 C   0  0  0  0  0  0  0  0  0  0  0  0
  -18.4520  -30.4164   25.0598 C   0  0  0  0  0  0  0  0  0  0  0  0
  -23.1511  -28.4633   19.8008 C   0  0  0  0  0  0  0  0  0  0  0  0
  -23.8946  -26.2566   21.6236 C   0  0  0  0  0  0  0  0  0  0  0  0
  -19.3644  -29.1935   25.0123 C   0  0  0  0  0  0  0  0  0  0  0  0
  -28.1163  -21.0652   21.8294 C   0  0  0  0  0  0  0  0  0  0  0  0
  -20.8263  -29.6211   24.9294 C   0  0  0  0  0  0  0  0  0  0  0  0
  -28.3945  -19.5613   21.8005 C   0  0  0  0  0  0  0  0  0  0  0  0
  -26.7258  -21.3924   21.2897 C   0  0  0  0  0  0  0  0  0  0  0  0
  -26.7152  -19.3427   19.9214 C   0  0  0  0  0  0  0  0  0  0  0  0
  -21.0947  -30.4237   23.6506 C   0  0  1  0  0  0  0  0  0  0  0  0
  -22.2379  -28.0201   20.9397 C   0  0  1  0  0  0  0  0  0  0  0  0
  -28.1270  -18.9683   20.4040 C   0  0  2  0  0  0  0  0  0  0  0  0
  -21.8756  -20.2302   20.1776 C   0  0  0  0  0  0  0  0  0  0  0  0
  -21.5715  -25.4575   24.7277 C   0  0  0  0  0  0  0  0  0  0  0  0
  -21.5227  -22.9815   24.3600 C   0  0  0  0  0  0  0  0  0  0  0  0
  -19.5856  -24.3843   23.6511 C   0  0  0  0  0  0  0  0  0  0  0  0
  -21.6365  -23.2847   17.9217 C   0  0  0  0  0  0  0  0  0  0  0  0
  -30.4134  -25.6184   18.8385 C   0  0  0  0  0  0  0  0  0  0  0  0
  -26.9606  -22.1926   15.6940 C   0  0  0  0  0  0  0  0  0  0  0  0
  -30.2793  -25.4162   20.3494 C   0  0  0  0  0  0  0  0  0  0  0  0
  -25.7148  -21.7174   16.4486 C   0  0  0  0  0  0  0  0  0  0  0  0
  -28.8904  -25.7484   20.8822 C   0  0  0  0  0  0  0  0  0  1  0  0
  -21.7431  -24.4957   22.3378 C   0  0  1  0  0  0  0  0  0  0  0  0
  -21.5294  -21.6678   19.8225 C   0  0  2  0  0  0  0  0  0  0  0  0
  -21.1257  -24.3458   23.7569 C   0  0  0  0  0  0  0  0  0  0  0  0
  -27.3228  -16.6462   20.6121 N   0  0  0  0  0  0  0  0  0  0  0  0
  -28.3594  -17.4689   20.3786 N   0  0  0  0  0  0  0  0  0  0  0  0
  -22.4973  -26.6446   21.3695 N   0  0  0  0  0  0  0  0  0  0  0  0
  -26.5368  -20.8026   19.9622 N   0  0  0  0  0  0  0  0  0  0  0  0
  -30.6760  -17.4954   19.8852 N   0  0  0  0  0  0  0  0  0  0  0  0
  -29.7194  -13.0902   20.1595 N   0  0  0  0  0  0  0  0  0  0  0  0
  -21.1958  -29.5385   22.5102 N   0  0  0  0  0  0  0  0  0  0  0  0
  -21.3171  -23.4720   21.3896 N   0  0  0  0  0  0  0  0  0  0  0  0
  -26.0501  -20.9956   17.6558 N   0  0  0  0  0  0  0  0  0  0  0  0
  -21.9393  -21.9151   18.4112 N   0  3  0  0  0  0  0  0  0  0  0  0
  -31.3954  -14.6125   19.7958 O   0  0  0  0  0  0  0  0  0  0  0  0
  -23.4423  -28.9686   22.7355 O   0  0  0  0  0  0  0  0  0  0  0  0
  -20.2294  -26.1202   21.5033 O   0  0  0  0  0  0  0  0  0  0  0  0
  -23.4404  -22.6782   20.9015 O   0  0  0  0  0  0  0  0  0  0  0  0
  -26.0623  -22.8564   18.9953 O   0  0  0  0  0  0  0  0  0  0  0  0
  -24.7305  -10.8654   21.2533 O   0  0  0  0  0  0  0  0  0  0  0  0
  -28.5972  -27.1116   20.5786 O   0  0  0  0  0  0  0  0  0  1  0  0
  -21.2433  -10.8215   25.5243 F   0  0  0  0  0  0  0  0  0  0  0  0
  -24.9383   -8.9484   23.2344 F   0  0  0  0  0  0  0  0  0  0  0  0
  -31.2593  -22.6654   18.5189 Cl  0  0  0  0  0  0  0  0  0  0  0  0
  -26.1088  -25.1376   16.0058 Cl  0  0  0  0  0  0  0  0  0  0  0  0
  1  2  1  0  0  0  0
  1  5  2  0  0  0  0
  2  6  2  0  0  0  0
  3  8  2  0  0  0  0
  3 17  1  0  0  0  0
  4  9  1  0  0  0  0
  4 17  2  0  0  0  0
  5 19  1  0  0  0  0
  6 21  1  0  0  0  0
  7 10  2  0  0  0  0
  7 20  1  0  0  0  0
  8 25  1  0  0  0  0
  9 25  2  0  0  0  0
 10 26  1  0  0  0  0
 11 12  2  0  0  0  0
 11 27  1  0  0  0  0
 12 28  1  0  0  0  0
 13 22  1  0  0  0  0
 13 26  2  0  0  0  0
 14 23  1  0  0  0  0
 14 31  2  0  0  0  0
 15 24  2  0  0  0  0
 15 30  1  0  0  0  0
 16 28  2  0  0  0  0
 16 29  1  0  0  0  0
 17 32  1  0  0  0  0
 18 32  1  0  0  0  0
 18 33  2  0  0  0  0
 18 34  1  0  0  0  0
 19 21  2  0  0  0  0
 19 39  1  0  0  0  0
 20 22  2  0  0  0  0
 20 40  1  0  0  0  0
 21 48  1  0  0  0  0
 22 41  1  0  0  0  0
 23 30  2  0  0  0  0
 23 56  1  0  0  0  0
 24 31  1  0  0  0  0
 24 57  1  0  0  0  0
 25 79  1  0  0  0  0
 26 80  1  0  0  0  0
 27 29  2  0  0  0  0
 27 79  1  0  0  0  0
 28 81  1  0  0  0  0
 29 82  1  0  0  0  0
 30 83  1  0  0  0  0
 31 84  1  0  0  0  0
 32 64  2  0  0  0  0
 33 65  1  0  0  0  0
 33 68  1  0  0  0  0
 34 69  1  0  0  0  0
 34 74  2  0  0  0  0
 35 49  1  0  0  0  0
 35 70  1  0  0  0  0
 35 75  2  0  0  0  0
 36 61  1  0  0  0  0
 36 66  1  0  0  0  0
 36 76  2  0  0  0  0
 37 62  1  0  0  0  0
 37 71  1  0  0  0  0
 37 77  2  0  0  0  0
 38 67  1  0  0  0  0
 38 72  1  0  0  0  0
 38 78  2  0  0  0  0
 39 42  1  0  0  0  0
 40 49  1  0  0  0  0
 41 66  1  0  0  0  0
 42 44  1  0  0  0  0
 43 45  1  0  0  0  0
 43 46  1  0  0  0  0
 44 48  1  0  0  0  0
 45 50  1  0  0  0  0
 46 67  1  0  0  0  0
 47 50  1  0  0  0  0
 47 67  1  0  0  0  0
 48 70  1  0  0  0  0
 49 66  1  0  0  0  0
 50 65  1  0  0  0  0
 51 62  1  0  0  0  0
 52 63  1  0  0  0  0
 53 63  1  0  0  0  0
 54 63  1  0  0  0  0
 55 73  1  0  0  0  0
 56 58  1  0  0  0  0
 57 59  1  0  0  0  0
 58 60  1  0  0  0  0
 59 72  1  0  0  0  0
 60 80  1  0  0  0  0
 61 63  1  0  0  0  0
 61 71  1  0  0  0  0
 62 73  1  0  0  0  0
 64 65  1  0  0  0  0
M  CHG  1  73   1
M  ISO  4  38 100  60 101  72 100  80 101
M  END
> <Batch ID>
0031

> <Smiles>
CNC(C)C(=O)NC(C(=O)N1Cc2cc([101O:1][101CH2:1]CCc3cc(Cl)c(CC[100NH:0][100C:0](=O)N4CCCC(n5nc(-c6ccc(Oc7ccc(F)cc7F)cc6)c(C(N)=O)c5N)C4)cc3Cl)ccc2CC1C(=O)NC1CCCc2ccccc21)C(C)(C)C

> <Shape>
0.228

> <Color>
0.102

> <Negative vol penalty>
0.000

$$$$

  -OEChem-04052316423D

 83 91  0     1  0  0  0  0  0999 V2000
  -24.1997  -17.9290   24.0440 C   0  0  0  0  0  0  0  0  0  0  0  0
  -25.1804  -18.7638   23.5179 C   0  0  0  0  0  0  0  0  0  0  0  0
  -25.8390  -13.1182   21.1468 C   0  0  0  0  0  0  0  0  0  0  0  0
  -26.0933  -12.9851   18.7479 C   0  0  0  0  0  0  0  0  0  0  0  0
  -22.8526  -18.2107   23.8202 C   0  0  0  0  0  0  0  0  0  0  0  0
  -24.8146  -19.8802   22.7667 C   0  0  0  0  0  0  0  0  0  0  0  0
  -27.6740  -25.2927   22.5841 C   0  0  0  0  0  0  0  0  0  0  0  0
  -24.7010  -12.3153   21.0708 C   0  0  0  0  0  0  0  0  0  0  0  0
  -24.9553  -12.1821   18.6719 C   0  0  0  0  0  0  0  0  0  0  0  0
  -28.5845  -25.8426   21.6827 C   0  0  0  0  0  0  0  0  0  0  0  0
  -21.9362  -10.0035   21.5467 C   0  0  0  0  0  0  0  0  0  0  0  0
  -21.8109   -8.9669   22.4715 C   0  0  0  0  0  0  0  0  0  0  0  0
  -26.7750  -26.9653   20.5492 C   0  0  0  0  0  0  0  0  0  0  0  0
  -32.3153  -24.6520   17.6862 C   0  0  0  0  0  0  0  0  0  0  0  0
  -29.5934  -24.9374   17.1456 C   0  0  0  0  0  0  0  0  0  0  0  0
  -23.8640   -7.9899   21.6546 C   0  0  0  0  0  0  0  0  0  0  0  0
  -26.5352  -13.4532   19.9854 C   0  0  0  0  0  0  0  0  0  0  0  0
  -29.0423  -13.8574   20.2279 C   0  0  0  0  0  0  0  0  0  0  0  0
  -22.4699  -19.3364   23.0740 C   0  0  0  0  0  0  0  0  0  0  0  0
  -26.3037  -25.5667   22.4680 C   0  0  0  0  0  0  0  0  0  0  0  0
  -23.4612  -20.1764   22.5315 C   0  0  0  0  0  0  0  0  0  0  0  0
  -25.8495  -26.4197   21.4519 C   0  0  0  0  0  0  0  0  0  0  0  0
  -31.5427  -23.5304   17.3850 C   0  0  0  0  0  0  0  0  0  0  0  0
  -31.7269  -25.9163   17.7172 C   0  0  0  0  0  0  0  0  0  0  0  0
  -30.3660  -26.0591   17.4468 C   0  0  0  0  0  0  0  0  0  0  0  0
  -30.1818  -23.6731   17.1146 C   0  0  0  0  0  0  0  0  0  0  0  0
  -24.2591  -11.8473   19.8333 C   0  0  0  0  0  0  0  0  0  0  0  0
  -28.1347  -26.6767   20.6633 C   0  0  0  0  0  0  0  0  0  0  0  0
  -23.0254  -10.0333   20.6758 C   0  0  0  0  0  0  0  0  0  0  0  0
  -22.7748   -7.9601   22.5255 C   0  0  0  0  0  0  0  0  0  0  0  0
  -23.9893   -9.0265   20.7298 C   0  0  0  0  0  0  0  0  0  0  0  0
  -27.7105  -14.2830   20.0633 C   0  0  0  0  0  0  0  0  0  0  0  0
  -29.7750  -15.0190   20.2403 C   0  0  0  0  0  0  0  0  0  0  0  0
  -29.5699  -12.5306   20.3579 C   0  0  0  0  0  0  0  0  0  0  0  0
  -23.7027  -23.8163   21.9437 C   0  0  0  0  0  0  0  0  0  0  0  0
  -22.1759  -26.6244   22.4964 C   0  0  0  0  0  0  0  0  0  0  0  0
  -22.3019  -30.0347   22.5210 C   0  0  0  0  0  0  0  0  0  0  0  0
  -28.7584  -20.3359   17.8837 C   0  0  0  0  0  0  0  0  0  0  0  0
  -21.0025  -19.5736   22.8188 C   0  0  0  0  0  0  0  0  0  0  0  0
  -25.3375  -24.9871   23.4644 C   0  0  0  0  0  0  0  0  0  0  0  0
  -24.3910  -26.7614   21.2963 C   0  0  0  0  0  0  0  0  0  0  0  0
  -20.6899  -20.9848   22.3278 C   0  0  0  0  0  0  0  0  0  0  0  0
  -29.4247  -19.6555   21.3752 C   0  0  0  0  0  0  0  0  0  0  0  0
  -21.6578  -21.3917   21.2213 C   0  0  0  0  0  0  0  0  0  0  0  0
  -29.1834  -18.1464   21.4424 C   0  0  0  0  0  0  0  0  0  0  0  0
  -28.4353  -20.3320   20.4309 C   0  0  0  0  0  0  0  0  0  0  0  0
  -28.1795  -18.2642   19.1147 C   0  0  0  0  0  0  0  0  0  0  0  0
  -23.1035  -21.4106   21.7323 C   0  0  1  0  0  0  0  0  0  0  0  0
  -23.9061  -24.9219   22.9406 C   0  0  1  0  0  0  0  0  0  0  0  0
  -29.1625  -17.5191   20.0359 C   0  0  2  0  0  0  0  0  0  0  0  0
  -32.1947  -22.1870   17.3571 C   0  0  0  0  0  0  0  0  0  0  0  0
  -32.9317  -27.9160   16.8028 C   0  0  0  0  0  0  0  0  0  0  0  0
  -20.8861  -32.0550   22.9810 C   0  0  0  0  0  0  0  0  0  0  0  0
  -20.7540  -26.2331   19.8253 C   0  0  0  0  0  0  0  0  0  0  0  0
  -20.1148  -28.6529   19.8903 C   0  0  0  0  0  0  0  0  0  0  0  0
  -19.2986  -27.1009   21.6645 C   0  0  0  0  0  0  0  0  0  0  0  0
  -24.0894  -30.9346   24.7014 C   0  0  0  0  0  0  0  0  0  0  0  0
  -32.5739  -27.1025   18.0429 C   0  0  0  0  0  0  0  0  0  0  0  0
  -29.7070  -27.4167   17.4751 C   0  0  0  0  0  0  0  0  0  0  0  0
  -29.3348  -22.4868   16.7892 C   0  0  0  0  0  0  0  0  0  0  0  0
  -28.5463  -27.4774   18.4621 C   0  0  0  0  0  0  0  0  0  1  0  0
  -21.7320  -27.7864   21.6410 C   0  0  1  0  0  0  0  0  0  0  0  0
  -21.8695  -31.0512   23.5623 C   0  0  2  0  0  0  0  0  0  0  0  0
  -20.5022  -27.4355   20.7567 C   0  0  0  0  0  0  0  0  0  0  0  0
  -27.6006  -15.6114   19.9774 N   0  0  0  0  0  0  0  0  0  0  0  0
  -28.8727  -16.0305   20.0886 N   0  0  0  0  0  0  0  0  0  0  0  0
  -23.4846  -26.1650   22.2915 N   0  0  0  0  0  0  0  0  0  0  0  0
  -28.4784  -19.7001   19.1047 N   0  0  0  0  0  0  0  0  0  0  0  0
  -31.0966  -15.2638   20.3661 N   0  0  0  0  0  0  0  0  0  0  0  0
  -28.6775  -11.4504   20.3240 N   0  0  0  0  0  0  0  0  0  0  0  0
  -23.3491  -22.6063   22.5098 N   0  0  0  0  0  0  0  0  0  0  0  0
  -21.5131  -28.9042   22.5525 N   0  0  0  0  0  0  0  0  0  0  0  0
  -29.0239  -21.6976   17.9602 N   0  0  0  0  0  0  0  0  0  0  0  0
  -23.0513  -31.7969   24.0802 N   0  3  0  0  0  0  0  0  0  0  0  0
  -30.7946  -12.3103   20.5164 O   0  0  0  0  0  0  0  0  0  0  0  0
  -23.8539  -24.0444   20.7492 O   0  0  0  0  0  0  0  0  0  0  0  0
  -21.3928  -26.1468   23.3212 O   0  0  0  0  0  0  0  0  0  0  0  0
  -23.2427  -30.2262   21.7537 O   0  0  0  0  0  0  0  0  0  0  0  0
  -28.7759  -19.7332   16.8050 O   0  0  0  0  0  0  0  0  0  0  0  0
  -23.1488  -11.0636   19.7587 O   0  0  0  0  0  0  0  0  0  0  0  0
  -29.0212  -27.2143   19.7818 O   0  0  0  0  0  0  0  0  0  1  0  0
  -22.6551   -6.9655   23.4147 F   0  0  0  0  0  0  0  0  0  0  0  0
  -25.0385   -9.0505   19.8965 F   0  0  0  0  0  0  0  0  0  0  0  0
  1  2  1  0  0  0  0
  1  5  2  0  0  0  0
  2  6  2  0  0  0  0
  3  8  2  0  0  0  0
  3 17  1  0  0  0  0
  4  9  1  0  0  0  0
  4 17  2  0  0  0  0
  5 19  1  0  0  0  0
  6 21  1  0  0  0  0
  7 10  2  0  0  0  0
  7 20  1  0  0  0  0
  8 27  1  0  0  0  0
  9 27  2  0  0  0  0
 10 28  1  0  0  0  0
 11 12  2  0  0  0  0
 11 29  1  0  0  0  0
 12 30  1  0  0  0  0
 13 22  1  0  0  0  0
 13 28  2  0  0  0  0
 14 23  2  0  0  0  0
 14 24  1  0  0  0  0
 15 25  1  0  0  0  0
 15 26  2  0  0  0  0
 16 30  2  0  0  0  0
 16 31  1  0  0  0  0
 17 32  1  0  0  0  0
 18 32  1  0  0  0  0
 18 33  2  0  0  0  0
 18 34  1  0  0  0  0
 19 21  2  0  0  0  0
 19 39  1  0  0  0  0
 20 22  2  0  0  0  0
 20 40  1  0  0  0  0
 21 48  1  0  0  0  0
 22 41  1  0  0  0  0
 23 26  1  0  0  0  0
 23 51  1  0  0  0  0
 24 25  2  0  0  0  0
 24 58  1  0  0  0  0
 25 59  1  0  0  0  0
 26 60  1  0  0  0  0
 27 80  1  0  0  0  0
 28 81  1  0  0  0  0
 29 31  2  0  0  0  0
 29 80  1  0  0  0  0
 30 82  1  0  0  0  0
 31 83  1  0  0  0  0
 32 65  2  0  0  0  0
 33 66  1  0  0  0  0
 33 69  1  0  0  0  0
 34 70  1  0  0  0  0
 34 75  2  0  0  0  0
 35 49  1  0  0  0  0
 35 71  1  0  0  0  0
 35 76  2  0  0  0  0
 36 62  1  0  0  0  0
 36 67  1  0  0  0  0
 36 77  2  0  0  0  0
 37 63  1  0  0  0  0
 37 72  1  0  0  0  0
 37 78  2  0  0  0  0
 38 68  1  0  0  0  0
 38 73  1  0  0  0  0
 38 79  2  0  0  0  0
 39 42  1  0  0  0  0
 40 49  1  0  0  0  0
 41 67  1  0  0  0  0
 42 44  1  0  0  0  0
 43 45  1  0  0  0  0
 43 46  1  0  0  0  0
 44 48  1  0  0  0  0
 45 50  1  0  0  0  0
 46 68  1  0  0  0  0
 47 50  1  0  0  0  0
 47 68  1  0  0  0  0
 48 71  1  0  0  0  0
 49 67  1  0  0  0  0
 50 66  1  0  0  0  0
 52 58  1  0  0  0  0
 53 63  1  0  0  0  0
 54 64  1  0  0  0  0
 55 64  1  0  0  0  0
 56 64  1  0  0  0  0
 57 74  1  0  0  0  0
 59 61  1  0  0  0  0
 60 73  1  0  0  0  0
 61 81  1  0  0  0  0
 62 64  1  0  0  0  0
 62 72  1  0  0  0  0
 63 74  1  0  0  0  0
 65 66  1  0  0  0  0
M  CHG  1  74   1
M  ISO  4  38 100  61 101  73 100  81 101
M  END
> <Batch ID>
0031

> <Smiles>
CCc1cc(C)c(C[100NH:0][100C:0](=O)N2CCCC(n3nc(-c4ccc(Oc5ccc(F)cc5F)cc4)c(C(N)=O)c3N)C2)cc1C[101CH2:1][101O:1]c1ccc2c(c1)CN(C(=O)C(NC(=O)C(C)NC)C(C)(C)C)C(C(=O)NC1CCCc3ccccc31)C2

> <Shape>
0.248

> <Color>
0.058

> <Negative vol penalty>
0.000

$$$$

  -OEChem-04052316423D

 83 91  0     1  0  0  0  0  0999 V2000
  -23.5923   -8.4809   21.9141 C   0  0  0  0  0  0  0  0  0  0  0  0
  -24.7583   -9.1900   21.6441 C   0  0  0  0  0  0  0  0  0  0  0  0
  -19.1881  -27.9140   22.8903 C   0  0  0  0  0  0  0  0  0  0  0  0
  -20.5744  -25.9709   23.2641 C   0  0  0  0  0  0  0  0  0  0  0  0
  -22.3503   -9.0613   21.6604 C   0  0  0  0  0  0  0  0  0  0  0  0
  -24.6830  -10.4797   21.1192 C   0  0  0  0  0  0  0  0  0  0  0  0
  -28.4713  -15.1512   22.2729 C   0  0  0  0  0  0  0  0  0  0  0  0
  -18.0977  -27.0853   22.6262 C   0  0  0  0  0  0  0  0  0  0  0  0
  -19.4839  -25.1422   23.0001 C   0  0  0  0  0  0  0  0  0  0  0  0
  -29.5583  -15.6724   21.5725 C   0  0  0  0  0  0  0  0  0  0  0  0
  -17.8271  -23.9940   20.2857 C   0  0  0  0  0  0  0  0  0  0  0  0
  -18.0344  -22.8968   19.4499 C   0  0  0  0  0  0  0  0  0  0  0  0
  -28.1143  -17.3273   20.5749 C   0  0  0  0  0  0  0  0  0  0  0  0
  -30.7287  -20.7407   18.8351 C   0  0  0  0  0  0  0  0  0  0  0  0
  -17.3631  -21.4114   21.2333 C   0  0  0  0  0  0  0  0  0  0  0  0
  -30.7420  -19.3569   21.1867 C   0  0  0  0  0  0  0  0  0  0  0  0
  -20.4265  -27.3568   23.2092 C   0  0  0  0  0  0  0  0  0  0  0  0
  -21.9445  -28.7314   24.7304 C   0  0  0  0  0  0  0  0  0  0  0  0
  -22.2595  -10.3624   21.1411 C   0  0  0  0  0  0  0  0  0  0  0  0
  -27.1934  -15.7082   22.1210 C   0  0  0  0  0  0  0  0  0  0  0  0
  -23.4386  -11.0775   20.8570 C   0  0  0  0  0  0  0  0  0  0  0  0
  -27.0132  -16.8129   21.2765 C   0  0  0  0  0  0  0  0  0  0  0  0
  -30.5783  -19.3586   18.8140 C   0  0  0  0  0  0  0  0  0  0  0  0
  -18.2455  -25.6994   22.6811 C   0  0  0  0  0  0  0  0  0  0  0  0
  -29.3794  -16.7587   20.7211 C   0  0  0  0  0  0  0  0  0  0  0  0
  -17.3878  -23.8000   21.5954 C   0  0  0  0  0  0  0  0  0  0  0  0
  -30.5846  -18.6459   20.0080 C   0  0  0  0  0  0  0  0  0  1  0  0
  -17.8024  -21.6055   19.9236 C   0  0  0  0  0  0  0  0  0  0  0  0
  -17.1557  -22.5087   22.0691 C   0  0  0  0  0  0  0  0  0  0  0  0
  -21.5534  -28.2124   23.4816 C   0  0  0  0  0  0  0  0  0  0  0  0
  -30.8806  -21.3579   20.0663 C   0  0  0  0  0  0  0  0  0  0  0  0
  -23.0650  -29.4770   24.4566 C   0  0  0  0  0  0  0  0  0  0  0  0
  -21.3483  -28.5551   26.0223 C   0  0  0  0  0  0  0  0  0  0  0  0
  -24.3929  -14.6413   21.0615 C   0  0  0  0  0  0  0  0  0  0  0  0
  -23.3448  -17.5369   22.0808 C   0  0  0  0  0  0  0  0  0  0  0  0
  -24.0782  -20.7854   22.8267 C   0  0  0  0  0  0  0  0  0  0  0  0
  -27.1471  -29.2474   20.0823 C   0  0  0  0  0  0  0  0  0  0  0  0
  -20.8952  -10.9299   20.8390 C   0  0  0  0  0  0  0  0  0  0  0  0
  -26.0363  -15.1513   22.9041 C   0  0  0  0  0  0  0  0  0  0  0  0
  -25.6655  -17.4601   21.0940 C   0  0  0  0  0  0  0  0  0  0  0  0
  -20.8967  -12.4425   20.6333 C   0  0  0  0  0  0  0  0  0  0  0  0
  -25.1030  -32.0276   20.9592 C   0  0  0  0  0  0  0  0  0  0  0  0
  -22.0364  -12.8542   19.7068 C   0  0  0  0  0  0  0  0  0  0  0  0
  -23.9968  -31.4119   21.8178 C   0  0  0  0  0  0  0  0  0  0  0  0
  -25.5194  -31.0967   19.8226 C   0  0  0  0  0  0  0  0  0  0  0  0
  -24.7939  -29.1200   21.1032 C   0  0  0  0  0  0  0  0  0  0  0  0
  -23.3977  -12.4881   20.3104 C   0  0  1  0  0  0  0  0  0  0  0  0
  -24.6821  -15.4725   22.2793 C   0  0  1  0  0  0  0  0  0  0  0  0
  -24.3794  -29.9984   22.2961 C   0  0  2  0  0  0  0  0  0  0  0  0
  -30.4125  -18.6581   17.5066 C   0  0  0  0  0  0  0  0  0  0  0  0
  -23.0071  -22.9195   23.5985 C   0  0  0  0  0  0  0  0  0  0  0  0
  -22.1747  -17.9547   19.2940 C   0  0  0  0  0  0  0  0  0  0  0  0
  -21.9776  -20.3948   19.8186 C   0  0  0  0  0  0  0  0  0  0  0  0
  -20.7077  -18.7244   21.1676 C   0  0  0  0  0  0  0  0  0  0  0  0
  -25.7505  -20.8781   25.2667 C   0  0  0  0  0  0  0  0  0  0  0  0
  -31.0445  -22.8400   20.1266 C   0  0  0  0  0  0  0  0  0  0  0  0
  -29.6980  -23.5687   20.2472 C   0  0  0  0  0  0  0  0  0  0  0  0
  -29.8753  -25.0883   20.2686 C   0  0  0  0  0  0  0  0  0  0  0  0
  -28.5298  -25.8022   20.4286 C   0  0  0  0  0  0  0  0  0  0  0  0
  -28.6700  -27.3208   20.4404 C   0  0  0  0  0  0  0  0  0  0  0  0
  -23.2126  -18.9058   21.4583 C   0  0  1  0  0  0  0  0  0  0  0  0
  -23.7250  -21.6483   24.0246 C   0  0  2  0  0  0  0  0  0  0  0  0
  -22.0433  -18.9818   20.4364 C   0  0  0  0  0  0  0  0  0  0  0  0
  -30.8908  -20.6993   21.2469 N   0  0  0  0  0  0  0  0  0  0  0  0
  -22.3598  -28.5960   22.4883 N   0  0  0  0  0  0  0  0  0  0  0  0
  -23.2688  -29.3640   23.1128 N   0  0  0  0  0  0  0  0  0  0  0  0
  -24.5640  -16.8754   21.8766 N   0  0  0  0  0  0  0  0  0  0  0  0
  -25.8712  -29.7735   20.3436 N   0  0  0  0  0  0  0  0  0  0  0  0
  -23.8859  -30.2119   25.2367 N   0  0  0  0  0  0  0  0  0  0  0  0
  -20.2007  -27.7571   26.1254 N   0  0  0  0  0  0  0  0  0  0  0  0
  -23.7682  -13.4397   21.3359 N   0  0  0  0  0  0  0  0  0  0  0  0
  -23.1004  -19.8488   22.5658 N   0  0  0  0  0  0  0  0  0  0  0  0
  -27.4009  -27.9907   20.6180 N   0  0  0  0  0  0  0  0  0  0  0  0
  -24.9582  -22.0318   24.7684 N   0  3  0  0  0  0  0  0  0  0  0  0
  -21.8098  -29.1027   27.0522 O   0  0  0  0  0  0  0  0  0  0  0  0
  -24.7116  -15.0598   19.9547 O   0  0  0  0  0  0  0  0  0  0  0  0
  -22.4037  -17.0747   22.7306 O   0  0  0  0  0  0  0  0  0  0  0  0
  -25.1159  -20.9303   22.1841 O   0  0  0  0  0  0  0  0  0  0  0  0
  -27.9991  -29.8552   19.4252 O   0  0  0  0  0  0  0  0  0  0  0  0
  -17.1816  -24.8904   22.4237 O   0  0  0  0  0  0  0  0  0  0  0  0
  -30.4385  -17.2690   20.0357 O   0  0  0  0  0  0  0  0  0  1  0  0
  -18.0001  -20.5520   19.1204 F   0  0  0  0  0  0  0  0  0  0  0  0
  -16.7325  -22.3161   23.3259 F   0  0  0  0  0  0  0  0  0  0  0  0
  1  2  1  0  0  0  0
  1  5  2  0  0  0  0
  2  6  2  0  0  0  0
  3  8  2  0  0  0  0
  3 17  1  0  0  0  0
  4  9  1  0  0  0  0
  4 17  2  0  0  0  0
  5 19  1  0  0  0  0
  6 21  1  0  0  0  0
  7 10  2  0  0  0  0
  7 20  1  0  0  0  0
  8 24  1  0  0  0  0
  9 24  2  0  0  0  0
 10 25  1  0  0  0  0
 11 12  2  0  0  0  0
 11 26  1  0  0  0  0
 12 28  1  0  0  0  0
 13 22  1  0  0  0  0
 13 25  2  0  0  0  0
 14 23  1  0  0  0  0
 14 31  2  0  0  0  0
 15 28  2  0  0  0  0
 15 29  1  0  0  0  0
 16 27  1  0  0  0  0
 16 64  2  0  0  0  0
 17 30  1  0  0  0  0
 18 30  1  0  0  0  0
 18 32  2  0  0  0  0
 18 33  1  0  0  0  0
 19 21  2  0  0  0  0
 19 38  1  0  0  0  0
 20 22  2  0  0  0  0
 20 39  1  0  0  0  0
 21 47  1  0  0  0  0
 22 40  1  0  0  0  0
 23 27  2  0  0  0  0
 23 50  1  0  0  0  0
 24 80  1  0  0  0  0
 25 81  1  0  0  0  0
 26 29  2  0  0  0  0
 26 80  1  0  0  0  0
 27 81  1  0  0  0  0
 28 82  1  0  0  0  0
 29 83  1  0  0  0  0
 30 65  2  0  0  0  0
 31 56  1  0  0  0  0
 31 64  1  0  0  0  0
 32 66  1  0  0  0  0
 32 69  1  0  0  0  0
 33 70  1  0  0  0  0
 33 75  2  0  0  0  0
 34 48  1  0  0  0  0
 34 71  1  0  0  0  0
 34 76  2  0  0  0  0
 35 61  1  0  0  0  0
 35 67  1  0  0  0  0
 35 77  2  0  0  0  0
 36 62  1  0  0  0  0
 36 72  1  0  0  0  0
 36 78  2  0  0  0  0
 37 68  1  0  0  0  0
 37 73  1  0  0  0  0
 37 79  2  0  0  0  0
 38 41  1  0  0  0  0
 39 48  1  0  0  0  0
 40 67  1  0  0  0  0
 41 43  1  0  0  0  0
 42 44  1  0  0  0  0
 42 45  1  0  0  0  0
 43 47  1  0  0  0  0
 44 49  1  0  0  0  0
 45 68  1  0  0  0  0
 46 49  1  0  0  0  0
 46 68  1  0  0  0  0
 47 71  1  0  0  0  0
 48 67  1  0  0  0  0
 49 66  1  0  0  0  0
 51 62  1  0  0  0  0
 52 63  1  0  0  0  0
 53 63  1  0  0  0  0
 54 63  1  0  0  0  0
 55 74  1  0  0  0  0
 56 57  1  0  0  0  0
 57 58  1  0  0  0  0
 58 59  1  0  0  0  0
 59 60  1  0  0  0  0
 60 73  1  0  0  0  0
 61 63  1  0  0  0  0
 61 72  1  0  0  0  0
 62 74  1  0  0  0  0
 65 66  1  0  0  0  0
M  CHG  1  74   1
M  ISO  4  27 101  37 100  73 100  81 101
M  END
> <Batch ID>
0031

> <Smiles>
CNC(C)C(=O)NC(C(=O)N1Cc2cc([101O:1][101c:1]3cnc(CCCCC[100NH:0][100C:0](=O)N4CCCC(n5nc(-c6ccc(Oc7ccc(F)cc7F)cc6)c(C(N)=O)c5N)C4)cc3C)ccc2CC1C(=O)NC1CCCc2ccccc21)C(C)(C)C

> <Shape>
0.218

> <Color>
0.061

> <Negative vol penalty>
0.000

$$$$

  -OEChem-04052316423D

 85 93  0     1  0  0  0  0  0999 V2000
  -26.7043  -37.8998   22.8810 C   0  0  0  0  0  0  0  0  0  0  0  0
  -27.4530  -36.8135   22.4398 C   0  0  0  0  0  0  0  0  0  0  0  0
  -23.7724   -9.9486   22.0807 C   0  0  0  0  0  0  0  0  0  0  0  0
  -24.3685  -11.3307   23.9705 C   0  0  0  0  0  0  0  0  0  0  0  0
  -25.5254  -37.6886   23.5949 C   0  0  0  0  0  0  0  0  0  0  0  0
  -27.0239  -35.5153   22.7132 C   0  0  0  0  0  0  0  0  0  0  0  0
  -27.0482  -28.9215   19.9135 C   0  0  0  0  0  0  0  0  0  0  0  0
  -23.2424   -8.9925   22.9471 C   0  0  0  0  0  0  0  0  0  0  0  0
  -23.8384  -10.3747   24.8369 C   0  0  0  0  0  0  0  0  0  0  0  0
  -27.3913  -27.6116   20.2456 C   0  0  0  0  0  0  0  0  0  0  0  0
  -20.4075   -8.5516   24.7364 C   0  0  0  0  0  0  0  0  0  0  0  0
  -19.1662   -8.0026   24.4149 C   0  0  0  0  0  0  0  0  0  0  0  0
  -25.2976  -27.3669   21.4185 C   0  0  0  0  0  0  0  0  0  0  0  0
  -28.7403  -21.9997   23.0005 C   0  0  0  0  0  0  0  0  0  0  0  0
  -28.1281  -22.6311   20.3530 C   0  0  0  0  0  0  0  0  0  0  0  0
  -20.1627   -5.8036   24.3221 C   0  0  0  0  0  0  0  0  0  0  0  0
  -24.3355  -11.1177   22.5924 C   0  0  0  0  0  0  0  0  0  0  0  0
  -24.2070  -13.1938   21.1157 C   0  0  0  0  0  0  0  0  0  0  0  0
  -25.0765  -36.3871   23.8688 C   0  0  0  0  0  0  0  0  0  0  0  0
  -25.8299  -29.4684   20.3414 C   0  0  0  0  0  0  0  0  0  0  0  0
  -25.8386  -35.2864   23.4325 C   0  0  0  0  0  0  0  0  0  0  0  0
  -24.9402  -28.6831   21.0884 C   0  0  0  0  0  0  0  0  0  0  0  0
  -28.5852  -23.3324   22.6194 C   0  0  0  0  0  0  0  0  0  0  0  0
  -28.5894  -20.9826   22.0579 C   0  0  0  0  0  0  0  0  0  0  0  0
  -28.2791  -23.6482   21.2957 C   0  0  0  0  0  0  0  0  0  0  0  0
  -23.2753   -9.2056   24.3252 C   0  0  0  0  0  0  0  0  0  0  0  0
  -26.5173  -26.8350   21.0007 C   0  0  0  0  0  0  0  0  0  0  0  0
  -21.5264   -7.7266   24.8508 C   0  0  0  0  0  0  0  0  0  0  0  0
  -19.0438   -6.6287   24.2078 C   0  0  0  0  0  0  0  0  0  0  0  0
  -21.4040   -6.3526   24.6437 C   0  0  0  0  0  0  0  0  0  0  0  0
  -28.2833  -21.2984   20.7342 C   0  0  0  0  0  0  0  0  0  0  0  0
  -24.8837  -12.1054   21.6980 C   0  0  0  0  0  0  0  0  0  0  0  0
  -25.1611  -13.8241   20.3549 C   0  0  0  0  0  0  0  0  0  0  0  0
  -22.8382  -13.5989   21.2505 C   0  0  0  0  0  0  0  0  0  0  0  0
  -24.9963  -31.9045   22.2053 C   0  0  0  0  0  0  0  0  0  0  0  0
  -22.0055  -31.1325   21.2146 C   0  0  0  0  0  0  0  0  0  0  0  0
  -19.8843  -28.7614   19.9796 C   0  0  0  0  0  0  0  0  0  0  0  0
  -31.1361  -14.0476   20.6722 C   0  0  0  0  0  0  0  0  0  0  0  0
  -23.8207  -36.2089   24.6848 C   0  0  0  0  0  0  0  0  0  0  0  0
  -25.4628  -30.8741   19.9522 C   0  0  0  0  0  0  0  0  0  0  0  0
  -23.6113  -29.2165   21.5550 C   0  0  0  0  0  0  0  0  0  0  0  0
  -23.2397  -34.7993   24.6087 C   0  0  0  0  0  0  0  0  0  0  0  0
  -29.1786  -12.9491   17.9085 C   0  0  0  0  0  0  0  0  0  0  0  0
  -24.3386  -33.7582   24.7964 C   0  0  0  0  0  0  0  0  0  0  0  0
  -27.7948  -12.7065   18.5137 C   0  0  0  0  0  0  0  0  0  0  0  0
  -30.2940  -12.5625   18.8772 C   0  0  0  0  0  0  0  0  0  0  0  0
  -28.8194  -12.9479   20.8139 C   0  0  0  0  0  0  0  0  0  0  0  0
  -25.3930  -33.8629   23.6879 C   0  0  1  0  0  0  0  0  0  0  0  0
  -24.4226  -31.4980   20.8775 C   0  0  1  0  0  0  0  0  0  0  0  0
  -27.6620  -13.3753   19.8952 C   0  0  2  0  0  0  0  0  0  0  0  0
  -28.7535  -24.4054   23.6446 C   0  0  0  0  0  0  0  0  0  0  0  0
  -17.4909  -28.4167   19.3086 C   0  0  0  0  0  0  0  0  0  0  0  0
  -21.2052  -30.9829   24.1552 C   0  0  0  0  0  0  0  0  0  0  0  0
  -19.1460  -29.7403   23.4596 C   0  0  0  0  0  0  0  0  0  0  0  0
  -19.5173  -32.0769   22.6690 C   0  0  0  0  0  0  0  0  0  0  0  0
  -20.6367  -28.1308   17.1876 C   0  0  0  0  0  0  0  0  0  0  0  0
  -28.7638  -19.5676   22.5065 C   0  0  0  0  0  0  0  0  0  0  0  0
  -28.1104  -25.0747   20.8622 C   0  0  0  0  0  0  0  0  0  1  0  0
  -30.1256  -18.9932   22.0922 C   0  0  0  0  0  0  0  0  0  0  0  0
  -30.2777  -17.5328   22.5224 C   0  0  0  0  0  0  0  0  0  0  0  0
  -31.6542  -16.9815   22.1393 C   0  0  0  0  0  0  0  0  0  0  0  0
  -31.8338  -15.5217   22.5428 C   0  0  0  0  0  0  0  0  0  0  0  0
  -20.9212  -30.2060   21.7094 C   0  0  1  0  0  0  0  0  0  0  0  0
  -18.8851  -28.8004   18.8375 C   0  0  2  0  0  0  0  0  0  0  0  0
  -20.2232  -30.7418   22.9913 C   0  0  0  0  0  0  0  0  0  0  0  0
  -26.1685  -12.0446   21.3379 N   0  0  0  0  0  0  0  0  0  0  0  0
  -26.3066  -13.1028   20.5210 N   0  0  0  0  0  0  0  0  0  0  0  0
  -23.3006  -30.5987   21.1543 N   0  0  0  0  0  0  0  0  0  0  0  0
  -30.1102  -13.2317   20.1673 N   0  0  0  0  0  0  0  0  0  0  0  0
  -25.1235  -14.9194   19.5666 N   0  0  0  0  0  0  0  0  0  0  0  0
  -21.9943  -12.8388   22.0717 N   0  0  0  0  0  0  0  0  0  0  0  0
  -24.9047  -33.2582   22.4671 N   0  0  0  0  0  0  0  0  0  0  0  0
  -20.0195  -29.9942   20.5823 N   0  0  0  0  0  0  0  0  0  0  0  0
  -30.8780  -14.6493   21.8978 N   0  0  0  0  0  0  0  0  0  0  0  0
  -19.2934  -27.8559   17.7594 N   0  3  0  0  0  0  0  0  0  0  0  0
  -22.3732  -14.5956   20.6473 O   0  0  0  0  0  0  0  0  0  0  0  0
  -25.4845  -31.0528   22.9388 O   0  0  0  0  0  0  0  0  0  0  0  0
  -21.7129  -32.2851   20.8866 O   0  0  0  0  0  0  0  0  0  0  0  0
  -20.4822  -27.7387   20.3069 O   0  0  0  0  0  0  0  0  0  0  0  0
  -32.2008  -14.2308   20.0725 O   0  0  0  0  0  0  0  0  0  0  0  0
  -22.7579   -8.2730   25.1709 O   0  0  0  0  0  0  0  0  0  0  0  0
  -26.8500  -25.5564   21.3267 O   0  0  0  0  0  0  0  0  0  1  0  0
  -17.8514   -6.1014   23.9005 F   0  0  0  0  0  0  0  0  0  0  0  0
  -22.4752   -5.5548   24.7533 F   0  0  0  0  0  0  0  0  0  0  0  0
  -28.0893  -20.0670   19.5403 Cl  0  0  0  0  0  0  0  0  0  0  0  0
  1  2  1  0  0  0  0
  1  5  2  0  0  0  0
  2  6  2  0  0  0  0
  3  8  2  0  0  0  0
  3 17  1  0  0  0  0
  4  9  1  0  0  0  0
  4 17  2  0  0  0  0
  5 19  1  0  0  0  0
  6 21  1  0  0  0  0
  7 10  2  0  0  0  0
  7 20  1  0  0  0  0
  8 26  1  0  0  0  0
  9 26  2  0  0  0  0
 10 27  1  0  0  0  0
 11 12  2  0  0  0  0
 11 28  1  0  0  0  0
 12 29  1  0  0  0  0
 13 22  1  0  0  0  0
 13 27  2  0  0  0  0
 14 23  1  0  0  0  0
 14 24  2  0  0  0  0
 15 25  1  0  0  0  0
 15 31  2  0  0  0  0
 16 29  2  0  0  0  0
 16 30  1  0  0  0  0
 17 32  1  0  0  0  0
 18 32  1  0  0  0  0
 18 33  2  0  0  0  0
 18 34  1  0  0  0  0
 19 21  2  0  0  0  0
 19 39  1  0  0  0  0
 20 22  2  0  0  0  0
 20 40  1  0  0  0  0
 21 48  1  0  0  0  0
 22 41  1  0  0  0  0
 23 25  2  0  0  0  0
 23 51  1  0  0  0  0
 24 31  1  0  0  0  0
 24 57  1  0  0  0  0
 25 58  1  0  0  0  0
 26 81  1  0  0  0  0
 27 82  1  0  0  0  0
 28 30  2  0  0  0  0
 28 81  1  0  0  0  0
 29 83  1  0  0  0  0
 30 84  1  0  0  0  0
 31 85  1  0  0  0  0
 32 66  2  0  0  0  0
 33 67  1  0  0  0  0
 33 70  1  0  0  0  0
 34 71  1  0  0  0  0
 34 76  2  0  0  0  0
 35 49  1  0  0  0  0
 35 72  1  0  0  0  0
 35 77  2  0  0  0  0
 36 63  1  0  0  0  0
 36 68  1  0  0  0  0
 36 78  2  0  0  0  0
 37 64  1  0  0  0  0
 37 73  1  0  0  0  0
 37 79  2  0  0  0  0
 38 69  1  0  0  0  0
 38 74  1  0  0  0  0
 38 80  2  0  0  0  0
 39 42  1  0  0  0  0
 40 49  1  0  0  0  0
 41 68  1  0  0  0  0
 42 44  1  0  0  0  0
 43 45  1  0  0  0  0
 43 46  1  0  0  0  0
 44 48  1  0  0  0  0
 45 50  1  0  0  0  0
 46 69  1  0  0  0  0
 47 50  1  0  0  0  0
 47 69  1  0  0  0  0
 48 72  1  0  0  0  0
 49 68  1  0  0  0  0
 50 67  1  0  0  0  0
 52 64  1  0  0  0  0
 53 65  1  0  0  0  0
 54 65  1  0  0  0  0
 55 65  1  0  0  0  0
 56 75  1  0  0  0  0
 57 59  1  0  0  0  0
 58 82  1  0  0  0  0
 59 60  1  0  0  0  0
 60 61  1  0  0  0  0
 61 62  1  0  0  0  0
 62 74  1  0  0  0  0
 63 65  1  0  0  0  0
 63 73  1  0  0  0  0
 64 75  1  0  0  0  0
 66 67  1  0  0  0  0
M  CHG  1  75   1
M  ISO  4  38 100  58 101  74 100  82 101
M  END
> <Batch ID>
0031

> <Smiles>
CNC(C)C(=O)NC(C(=O)N1Cc2cc([101O:1][101CH2:1]c3cc(Cl)c(CCCCC[100NH:0][100C:0](=O)N4CCCC(n5nc(-c6ccc(Oc7ccc(F)cc7F)cc6)c(C(N)=O)c5N)C4)cc3C)ccc2CC1C(=O)NC1CCCc2ccccc21)C(C)(C)C

> <Shape>
0.331

> <Color>
0.157

> <Negative vol penalty>
0.000

$$$$

  -OEChem-04052316423D

 88 97  0     1  0  0  0  0  0999 V2000
  -23.0141  -37.6316   18.4627 C   0  0  0  0  0  0  0  0  0  0  0  0
  -23.1694  -36.4171   17.8021 C   0  0  0  0  0  0  0  0  0  0  0  0
  -28.6310  -13.1841   21.2204 C   0  0  0  0  0  0  0  0  0  0  0  0
  -26.7180  -14.3702   20.3426 C   0  0  0  0  0  0  0  0  0  0  0  0
  -23.7054  -37.8717   19.6495 C   0  0  0  0  0  0  0  0  0  0  0  0
  -24.0170  -35.4424   18.3274 C   0  0  0  0  0  0  0  0  0  0  0  0
  -24.7138  -28.3303   18.8257 C   0  0  0  0  0  0  0  0  0  0  0  0
  -28.0120  -11.9689   20.9275 C   0  0  0  0  0  0  0  0  0  0  0  0
  -26.0989  -13.1551   20.0497 C   0  0  0  0  0  0  0  0  0  0  0  0
  -25.6422  -27.3192   18.5815 C   0  0  0  0  0  0  0  0  0  0  0  0
  -24.4068  -10.7540   21.7237 C   0  0  0  0  0  0  0  0  0  0  0  0
  -23.0616  -10.6132   22.0646 C   0  0  0  0  0  0  0  0  0  0  0  0
  -26.7242  -27.8143   20.6799 C   0  0  0  0  0  0  0  0  0  0  0  0
  -29.1939  -21.9996   18.1576 C   0  0  0  0  0  0  0  0  0  0  0  0
  -22.5142  -10.2236   19.7439 C   0  0  0  0  0  0  0  0  0  0  0  0
  -27.9840  -14.3848   20.9280 C   0  0  0  0  0  0  0  0  0  0  0  0
  -29.8520  -16.1110   20.7315 C   0  0  0  0  0  0  0  0  0  0  0  0
  -24.5544  -36.8957   20.1947 C   0  0  0  0  0  0  0  0  0  0  0  0
  -24.7903  -29.0994   19.9958 C   0  0  0  0  0  0  0  0  0  0  0  0
  -24.7213  -35.6702   19.5219 C   0  0  0  0  0  0  0  0  0  0  0  0
  -25.7940  -28.8327   20.9378 C   0  0  0  0  0  0  0  0  0  0  0  0
  -28.1849  -22.9543   18.2195 C   0  0  0  0  0  0  0  0  0  0  0  0
  -28.4865  -24.2924   17.9922 C   0  0  0  0  0  0  0  0  0  0  0  0
  -26.7459  -11.9544   20.3422 C   0  0  0  0  0  0  0  0  0  0  0  0
  -26.6494  -27.0630   19.5072 C   0  0  0  0  0  0  0  0  0  0  0  0
  -24.8057  -10.6296   20.3928 C   0  0  0  0  0  0  0  0  0  0  0  0
  -22.1153  -10.3480   21.0748 C   0  0  0  0  0  0  0  0  0  0  0  0
  -23.8594  -10.3644   19.4030 C   0  0  0  0  0  0  0  0  0  0  0  0
  -28.6227  -15.6403   21.2308 C   0  0  0  0  0  0  0  0  0  0  0  0
  -29.8023  -24.6215   17.7090 C   0  0  0  0  0  0  0  0  0  0  0  0
  -30.4780  -22.4314   17.8669 C   0  0  0  0  0  0  0  0  0  0  0  0
  -30.0116  -17.3428   21.3175 C   0  0  0  0  0  0  0  0  0  0  0  0
  -30.7676  -15.4902   19.8194 C   0  0  0  0  0  0  0  0  0  0  0  0
  -25.2356  -32.1824   20.6283 C   0  0  0  0  0  0  0  0  0  0  0  0
  -24.6431  -31.2424   23.6759 C   0  0  0  0  0  0  0  0  0  0  0  0
  -24.6278  -28.7252   25.9803 C   0  0  0  0  0  0  0  0  0  0  0  0
  -26.0004  -21.2273   23.5536 C   0  0  0  0  0  0  0  0  0  0  0  0
  -25.3172  -37.2191   21.4549 C   0  0  0  0  0  0  0  0  0  0  0  0
  -23.7651  -30.1686   20.2570 C   0  0  0  0  0  0  0  0  0  0  0  0
  -25.9076  -29.6164   22.2190 C   0  0  0  0  0  0  0  0  0  0  0  0
  -25.9066  -35.9902   22.1425 C   0  0  0  0  0  0  0  0  0  0  0  0
  -28.8581  -19.8147   25.2380 C   0  0  0  0  0  0  0  0  0  0  0  0
  -26.6031  -35.0920   21.1251 C   0  0  0  0  0  0  0  0  0  0  0  0
  -29.2063  -18.6029   24.3744 C   0  0  0  0  0  0  0  0  0  0  0  0
  -23.9724  -23.4497   19.7237 C   0  0  0  0  0  0  0  0  0  0  0  0
  -27.3532  -20.0604   25.2757 C   0  0  0  0  0  0  0  0  0  0  0  0
  -27.0800  -18.9947   23.0516 C   0  0  0  0  0  0  0  0  0  0  0  0
  -22.5315  -23.1003   20.0631 C   0  0  0  0  0  0  0  0  0  0  0  0
  -23.2861  -21.8955   22.1188 C   0  0  0  0  0  0  0  0  0  0  0  0
  -25.6125  -34.5784   20.0732 C   0  0  1  0  0  0  0  0  0  0  0  0
  -24.2468  -31.2308   21.2403 C   0  0  1  0  0  0  0  0  0  0  0  0
  -24.9586  -22.4178   20.2887 C   0  0  2  0  0  0  0  0  0  0  0  0
  -28.5936  -18.7325   22.9686 C   0  0  2  0  0  0  0  0  0  0  0  0
  -24.7392  -22.2221   21.7990 C   0  0  2  0  0  0  0  0  0  0  0  0
  -30.1861  -26.0429   17.4561 C   0  0  0  0  0  0  0  0  0  0  0  0
  -24.1300  -28.2703   28.3974 C   0  0  0  0  0  0  0  0  0  0  0  0
  -27.2710  -32.5768   24.4657 C   0  0  0  0  0  0  0  0  0  0  0  0
  -27.1913  -31.3010   26.6184 C   0  0  0  0  0  0  0  0  0  0  0  0
  -25.3915  -32.9404   26.0749 C   0  0  0  0  0  0  0  0  0  0  0  0
  -22.5019  -26.7828   25.2969 C   0  0  0  0  0  0  0  0  0  0  0  0
  -26.7904  -22.5201   18.5301 C   0  0  0  0  0  0  0  0  0  0  0  0
  -27.4187  -25.3446   18.0543 C   0  0  0  0  0  0  0  0  0  1  0  0
  -26.3997  -22.8326   19.9820 C   0  0  0  0  0  0  0  0  0  0  0  0
  -25.4872  -30.7451   24.8245 C   0  0  1  0  0  0  0  0  0  0  0  0
  -23.5759  -28.2823   26.9812 C   0  0  2  0  0  0  0  0  0  0  0  0
  -26.3345  -31.8772   25.4709 C   0  0  0  0  0  0  0  0  0  0  0  0
  -28.0427  -16.5028   22.0696 N   0  0  0  0  0  0  0  0  0  0  0  0
  -30.8094  -23.7223   17.6403 N   0  0  0  0  0  0  0  0  0  0  0  0
  -28.9113  -17.5278   22.1020 N   0  0  0  0  0  0  0  0  0  0  0  0
  -24.8854  -30.6556   22.4258 N   0  0  0  0  0  0  0  0  0  0  0  0
  -26.7964  -20.1396   23.9258 N   0  0  0  0  0  0  0  0  0  0  0  0
  -30.9844  -18.2750   21.2333 N   0  0  0  0  0  0  0  0  0  0  0  0
  -30.6080  -15.7275   18.4473 N   0  0  0  0  0  0  0  0  0  0  0  0
  -24.8152  -33.4987   20.6144 N   0  0  0  0  0  0  0  0  0  0  0  0
  -24.5714  -30.0830   25.7473 N   0  0  0  0  0  0  0  0  0  0  0  0
  -22.3989  -22.9427   21.5408 N   0  3  0  0  0  0  0  0  0  0  0  0
  -23.0940  -26.9107   26.6535 N   0  3  0  0  0  0  0  0  0  0  0  0
  -31.6897  -14.7339   20.2084 O   0  0  0  0  0  0  0  0  0  0  0  0
  -26.3017  -31.7544   20.2018 O   0  0  0  0  0  0  0  0  0  0  0  0
  -23.7951  -32.1143   23.8817 O   0  0  0  0  0  0  0  0  0  0  0  0
  -25.4225  -27.9452   25.4601 O   0  0  0  0  0  0  0  0  0  0  0  0
  -25.7160  -22.1644   24.2975 O   0  0  0  0  0  0  0  0  0  0  0  0
  -26.1417  -10.7689   20.0560 O   0  0  0  0  0  0  0  0  0  0  0  0
  -27.5572  -26.0772   19.2710 O   0  0  0  0  0  0  0  0  0  1  0  0
  -25.5624  -21.1437   22.2585 O   0  0  0  0  0  0  0  0  0  0  0  0
  -20.8238  -10.2113   21.4025 F   0  0  0  0  0  0  0  0  0  0  0  0
  -24.2367  -10.2427   18.1229 F   0  0  0  0  0  0  0  0  0  0  0  0
  -31.7866  -21.3255   17.7732 Cl  0  0  0  0  0  0  0  0  0  0  0  0
  1  2  1  0  0  0  0
  1  5  2  0  0  0  0
  2  6  2  0  0  0  0
  3  8  2  0  0  0  0
  3 16  1  0  0  0  0
  4  9  1  0  0  0  0
  4 16  2  0  0  0  0
  5 18  1  0  0  0  0
  6 20  1  0  0  0  0
  7 10  2  0  0  0  0
  7 19  1  0  0  0  0
  8 24  1  0  0  0  0
  9 24  2  0  0  0  0
 10 25  1  0  0  0  0
 11 12  2  0  0  0  0
 11 26  1  0  0  0  0
 12 27  1  0  0  0  0
 13 21  1  0  0  0  0
 13 25  2  0  0  0  0
 14 22  2  0  0  0  0
 14 31  1  0  0  0  0
 15 27  2  0  0  0  0
 15 28  1  0  0  0  0
 16 29  1  0  0  0  0
 17 29  1  0  0  0  0
 17 32  2  0  0  0  0
 17 33  1  0  0  0  0
 18 20  2  0  0  0  0
 18 38  1  0  0  0  0
 19 21  2  0  0  0  0
 19 39  1  0  0  0  0
 20 50  1  0  0  0  0
 21 40  1  0  0  0  0
 22 23  1  0  0  0  0
 22 61  1  0  0  0  0
 23 30  2  0  0  0  0
 23 62  1  0  0  0  0
 24 83  1  0  0  0  0
 25 84  1  0  0  0  0
 26 28  2  0  0  0  0
 26 83  1  0  0  0  0
 27 86  1  0  0  0  0
 28 87  1  0  0  0  0
 29 67  2  0  0  0  0
 30 55  1  0  0  0  0
 30 68  1  0  0  0  0
 31 68  2  0  0  0  0
 31 88  1  0  0  0  0
 32 69  1  0  0  0  0
 32 72  1  0  0  0  0
 33 73  1  0  0  0  0
 33 78  2  0  0  0  0
 34 51  1  0  0  0  0
 34 74  1  0  0  0  0
 34 79  2  0  0  0  0
 35 64  1  0  0  0  0
 35 70  1  0  0  0  0
 35 80  2  0  0  0  0
 36 65  1  0  0  0  0
 36 75  1  0  0  0  0
 36 81  2  0  0  0  0
 37 71  1  0  0  0  0
 37 82  2  0  0  0  0
 37 85  1  0  0  0  0
 38 41  1  0  0  0  0
 39 51  1  0  0  0  0
 40 70  1  0  0  0  0
 41 43  1  0  0  0  0
 42 44  1  0  0  0  0
 42 46  1  0  0  0  0
 43 50  1  0  0  0  0
 44 53  1  0  0  0  0
 45 48  1  0  0  0  0
 45 52  1  0  0  0  0
 46 71  1  0  0  0  0
 47 53  1  0  0  0  0
 47 71  1  0  0  0  0
 48 76  1  0  0  0  0
 49 54  1  0  0  0  0
 49 76  1  0  0  0  0
 50 74  1  0  0  0  0
 51 70  1  0  0  0  0
 52 54  1  0  0  0  0
 52 63  1  0  0  0  0
 53 69  1  0  0  0  0
 54 85  1  0  0  0  0
 56 65  1  0  0  0  0
 57 66  1  0  0  0  0
 58 66  1  0  0  0  0
 59 66  1  0  0  0  0
 60 77  1  0  0  0  0
 61 63  1  0  0  0  0
 62 84  1  0  0  0  0
 64 66  1  0  0  0  0
 64 75  1  0  0  0  0
 65 77  1  0  0  0  0
 67 69  1  0  0  0  0
M  CHG  2  76   1  77   1
M  ISO  4  37 100  62 101  84 101  85 100
M  END
> <Batch ID>
0031

> <Smiles>
CNC(C)C(=O)NC(C(=O)N1Cc2cc([101O:1][101CH2:1]c3c(CCC4CCNCC4[100O:0][100C:0](=O)N4CCCC(n5nc(-c6ccc(Oc7ccc(F)cc7F)cc6)c(C(N)=O)c5N)C4)cc(Cl)nc3C)ccc2CC1C(=O)NC1CCCc2ccccc21)C(C)(C)C

> <Shape>
0.245

> <Color>
0.094

> <Negative vol penalty>
0.000

$$$$

  -OEChem-04052316423D

 87 96  0     1  0  0  0  0  0999 V2000
  -21.7120  -12.3482   19.2203 C   0  0  0  0  0  0  0  0  0  0  0  0
  -21.7195  -13.6009   19.8253 C   0  0  0  0  0  0  0  0  0  0  0  0
  -14.9407  -25.1859   17.7780 C   0  0  0  0  0  0  0  0  0  0  0  0
  -15.8372  -27.3327   17.1261 C   0  0  0  0  0  0  0  0  0  0  0  0
  -22.8479  -11.5416   19.2760 C   0  0  0  0  0  0  0  0  0  0  0  0
  -22.8627  -14.0473   20.4873 C   0  0  0  0  0  0  0  0  0  0  0  0
  -25.5405  -30.4329   22.1963 C   0  0  0  0  0  0  0  0  0  0  0  0
  -26.1588  -20.1365   18.5000 C   0  0  0  0  0  0  0  0  0  0  0  0
  -24.2565  -30.9746   22.1541 C   0  0  0  0  0  0  0  0  0  0  0  0
  -13.8150  -25.4159   16.9872 C   0  0  0  0  0  0  0  0  0  0  0  0
  -14.7115  -27.5626   16.3353 C   0  0  0  0  0  0  0  0  0  0  0  0
  -26.7240  -21.3986   18.3162 C   0  0  0  0  0  0  0  0  0  0  0  0
  -11.5054  -28.5357   16.7879 C   0  0  0  0  0  0  0  0  0  0  0  0
  -10.9043  -29.7920   16.8659 C   0  0  0  0  0  0  0  0  0  0  0  0
  -28.3886  -20.9104   20.0011 C   0  0  0  0  0  0  0  0  0  0  0  0
  -11.3048  -30.1299   14.5073 C   0  0  0  0  0  0  0  0  0  0  0  0
  -15.9519  -26.1444   17.8475 C   0  0  0  0  0  0  0  0  0  0  0  0
  -18.0394  -24.8532   18.5424 C   0  0  0  0  0  0  0  0  0  0  0  0
  -24.0088  -11.9823   19.9307 C   0  0  0  0  0  0  0  0  0  0  0  0
  -26.0565  -29.7121   21.1055 C   0  0  0  0  0  0  0  0  0  0  0  0
  -26.7164  -19.2497   19.4253 C   0  0  0  0  0  0  0  0  0  0  0  0
  -24.0148  -13.2453   20.5529 C   0  0  0  0  0  0  0  0  0  0  0  0
  -27.8343  -19.6402   20.1807 C   0  0  0  0  0  0  0  0  0  0  0  0
  -25.2611  -29.5409   19.9577 C   0  0  0  0  0  0  0  0  0  0  0  0
  -23.4708  -30.8056   21.0201 C   0  0  0  0  0  0  0  0  0  0  0  0
  -13.7004  -26.6042   16.2658 C   0  0  0  0  0  0  0  0  0  0  0  0
  -27.8360  -21.7846   19.0651 C   0  0  0  0  0  0  0  0  0  0  0  0
  -12.0063  -28.0766   15.5697 C   0  0  0  0  0  0  0  0  0  0  0  0
  -10.8040  -30.5891   15.7256 C   0  0  0  0  0  0  0  0  0  0  0  0
  -11.9060  -28.8737   14.4294 C   0  0  0  0  0  0  0  0  0  0  0  0
  -23.9697  -30.0951   19.9293 C   0  0  0  0  0  0  0  0  0  0  0  0
  -17.1147  -25.9076   18.6647 C   0  0  0  0  0  0  0  0  0  0  0  0
  -18.9498  -25.0766   19.5463 C   0  0  0  0  0  0  0  0  0  0  0  0
  -18.0724  -23.7687   17.6051 C   0  0  0  0  0  0  0  0  0  0  0  0
  -26.5806  -15.8610   21.0298 C   0  0  0  0  0  0  0  0  0  0  0  0
  -29.5417  -16.4995   20.5453 C   0  0  0  0  0  0  0  0  0  0  0  0
  -32.8961  -16.3721   19.9378 C   0  0  0  0  0  0  0  0  0  0  0  0
  -20.6531  -30.0091   22.4823 C   0  0  0  0  0  0  0  0  0  0  0  0
  -25.1964  -11.0557   20.0052 C   0  0  0  0  0  0  0  0  0  0  0  0
  -27.4532  -29.1491   21.1933 C   0  0  0  0  0  0  0  0  0  0  0  0
  -26.1034  -17.9034   19.7003 C   0  0  0  0  0  0  0  0  0  0  0  0
  -25.7614  -28.7851   18.7519 C   0  0  0  0  0  0  0  0  0  0  0  0
  -28.3795  -18.6663   21.1893 C   0  0  0  0  0  0  0  0  0  0  0  0
  -26.4922  -11.7571   20.4041 C   0  0  0  0  0  0  0  0  0  0  0  0
  -27.4889  -27.6203   21.1475 C   0  0  0  0  0  0  0  0  0  0  0  0
  -26.0269  -27.3058   19.0374 C   0  0  0  0  0  0  0  0  0  0  0  0
  -19.3201  -27.0272   23.8993 C   0  0  0  0  0  0  0  0  0  0  0  0
  -26.2564  -12.6748   21.5995 C   0  0  0  0  0  0  0  0  0  0  0  0
  -18.6872  -26.3070   22.7074 C   0  0  0  0  0  0  0  0  0  0  0  0
  -19.1522  -28.5416   23.7977 C   0  0  0  0  0  0  0  0  0  0  0  0
  -18.9948  -28.4138   21.3416 C   0  0  0  0  0  0  0  0  0  0  0  0
  -25.2439  -13.7750   21.2591 C   0  0  1  0  0  0  0  0  0  0  0  0
  -27.1474  -16.8198   20.0244 C   0  0  1  0  0  0  0  0  0  0  0  0
  -19.1874  -26.8879   21.3712 C   0  0  2  0  0  0  0  0  0  0  0  0
  -27.3656  -27.0492   19.7332 C   0  0  2  0  0  0  0  0  0  0  0  0
  -35.0123  -15.3206   20.7823 C   0  0  0  0  0  0  0  0  0  0  0  0
  -29.5677  -18.4462   22.8934 C   0  0  0  0  0  0  0  0  0  0  0  0
  -32.0276  -18.0362   23.1143 C   0  0  0  0  0  0  0  0  0  0  0  0
  -30.4185  -16.1558   23.4271 C   0  0  0  0  0  0  0  0  0  0  0  0
  -33.3760  -14.9943   17.3629 C   0  0  0  0  0  0  0  0  0  0  0  0
  -22.1008  -31.4064   21.0294 C   0  0  0  0  0  0  0  0  0  0  0  0
  -28.9618  -25.1332   19.8712 C   0  0  0  0  0  0  0  0  0  0  0  0
  -29.0203  -23.6239   20.0004 C   0  0  0  0  0  0  0  0  0  1  0  0
  -30.8207  -17.0695   21.1043 C   0  0  1  0  0  0  0  0  0  0  0  0
  -33.8524  -15.2006   19.8061 C   0  0  2  0  0  0  0  0  0  0  0  0
  -30.6977  -17.4363   22.6103 C   0  0  0  0  0  0  0  0  0  0  0  0
  -17.4105  -26.7391   19.6673 N   0  0  0  0  0  0  0  0  0  0  0  0
  -18.5312  -26.2071   20.1842 N   0  0  0  0  0  0  0  0  0  0  0  0
  -28.4029  -17.3110   20.6172 N   0  0  0  0  0  0  0  0  0  0  0  0
  -19.6472  -29.0290   22.5080 N   0  0  0  0  0  0  0  0  0  0  0  0
  -20.0594  -24.4144   19.9368 N   0  0  0  0  0  0  0  0  0  0  0  0
  -18.7665  -23.9475   16.4007 N   0  0  0  0  0  0  0  0  0  0  0  0
  -25.8723  -14.8140   20.4717 N   0  0  0  0  0  0  0  0  0  0  0  0
  -31.8651  -16.0943   20.8102 N   0  0  0  0  0  0  0  0  0  0  0  0
  -21.0695  -30.4108   21.2190 N   0  0  0  0  0  0  0  0  0  0  0  0
  -27.5441  -25.5664   19.8305 N   0  3  0  0  0  0  0  0  0  0  0  0
  -34.4060  -15.1367   18.4239 N   0  3  0  0  0  0  0  0  0  0  0  0
  -17.4895  -22.6793   17.8219 O   0  0  0  0  0  0  0  0  0  0  0  0
  -26.7724  -16.0549   22.2245 O   0  0  0  0  0  0  0  0  0  0  0  0
  -29.5479  -15.3636   20.0626 O   0  0  0  0  0  0  0  0  0  0  0  0
  -33.0504  -17.4295   19.3305 O   0  0  0  0  0  0  0  0  0  0  0  0
  -21.1476  -30.4866   23.5092 O   0  0  0  0  0  0  0  0  0  0  0  0
  -12.6021  -26.8288   15.4938 O   0  0  0  0  0  0  0  0  0  0  0  0
  -28.3895  -23.0253   18.8760 O   0  0  0  0  0  0  0  0  0  1  0  0
  -10.2253  -31.7948   15.8002 F   0  0  0  0  0  0  0  0  0  0  0  0
  -12.3843  -28.4375   13.2561 F   0  0  0  0  0  0  0  0  0  0  0  0
  -22.9087  -29.9145   18.5592 Cl  0  0  0  0  0  0  0  0  0  0  0  0
  1  2  1  0  0  0  0
  1  5  2  0  0  0  0
  2  6  2  0  0  0  0
  3 10  2  0  0  0  0
  3 17  1  0  0  0  0
  4 11  1  0  0  0  0
  4 17  2  0  0  0  0
  5 19  1  0  0  0  0
  6 22  1  0  0  0  0
  7  9  2  0  0  0  0
  7 20  1  0  0  0  0
  8 12  2  0  0  0  0
  8 21  1  0  0  0  0
  9 25  1  0  0  0  0
 10 26  1  0  0  0  0
 11 26  2  0  0  0  0
 12 27  1  0  0  0  0
 13 14  2  0  0  0  0
 13 28  1  0  0  0  0
 14 29  1  0  0  0  0
 15 23  1  0  0  0  0
 15 27  2  0  0  0  0
 16 29  2  0  0  0  0
 16 30  1  0  0  0  0
 17 32  1  0  0  0  0
 18 32  1  0  0  0  0
 18 33  2  0  0  0  0
 18 34  1  0  0  0  0
 19 22  2  0  0  0  0
 19 39  1  0  0  0  0
 20 24  2  0  0  0  0
 20 40  1  0  0  0  0
 21 23  2  0  0  0  0
 21 41  1  0  0  0  0
 22 52  1  0  0  0  0
 23 43  1  0  0  0  0
 24 31  1  0  0  0  0
 24 42  1  0  0  0  0
 25 31  2  0  0  0  0
 25 61  1  0  0  0  0
 26 83  1  0  0  0  0
 27 84  1  0  0  0  0
 28 30  2  0  0  0  0
 28 83  1  0  0  0  0
 29 85  1  0  0  0  0
 30 86  1  0  0  0  0
 31 87  1  0  0  0  0
 32 67  2  0  0  0  0
 33 68  1  0  0  0  0
 33 71  1  0  0  0  0
 34 72  1  0  0  0  0
 34 78  2  0  0  0  0
 35 53  1  0  0  0  0
 35 73  1  0  0  0  0
 35 79  2  0  0  0  0
 36 64  1  0  0  0  0
 36 69  1  0  0  0  0
 36 80  2  0  0  0  0
 37 65  1  0  0  0  0
 37 74  1  0  0  0  0
 37 81  2  0  0  0  0
 38 70  1  0  0  0  0
 38 75  1  0  0  0  0
 38 82  2  0  0  0  0
 39 44  1  0  0  0  0
 40 45  1  0  0  0  0
 41 53  1  0  0  0  0
 42 46  1  0  0  0  0
 43 69  1  0  0  0  0
 44 48  1  0  0  0  0
 45 55  1  0  0  0  0
 46 55  1  0  0  0  0
 47 49  1  0  0  0  0
 47 50  1  0  0  0  0
 48 52  1  0  0  0  0
 49 54  1  0  0  0  0
 50 70  1  0  0  0  0
 51 54  1  0  0  0  0
 51 70  1  0  0  0  0
 52 73  1  0  0  0  0
 53 69  1  0  0  0  0
 54 68  1  0  0  0  0
 55 76  1  0  0  0  0
 56 65  1  0  0  0  0
 57 66  1  0  0  0  0
 58 66  1  0  0  0  0
 59 66  1  0  0  0  0
 60 77  1  0  0  0  0
 61 75  1  0  0  0  0
 62 63  1  0  0  0  0
 62 76  1  0  0  0  0
 63 84  1  0  0  0  0
 64 66  1  0  0  0  0
 64 74  1  0  0  0  0
 65 77  1  0  0  0  0
 67 68  1  0  0  0  0
M  CHG  2  76   1  77   1
M  ISO  4  38 100  63 101  75 100  84 101
M  END
> <Batch ID>
0031

> <Smiles>
CNC(C)C(=O)NC(C(=O)N1Cc2cc([101O:1][101CH2:1]CNC3CCc4ccc(C[100NH:0][100C:0](=O)N5CCCC(n6nc(-c7ccc(Oc8ccc(F)cc8F)cc7)c(C(N)=O)c6N)C5)c(Cl)c4CC3)ccc2CC1C(=O)NC1CCCc2ccccc21)C(C)(C)C

> <Shape>
0.234

> <Color>
0.100

> <Negative vol penalty>
0.000

$$$$

  -OEChem-04052316423D

 79 87  0     1  0  0  0  0  0999 V2000
  -30.4707  -29.1311    8.5318 C   0  0  0  0  0  0  0  0  0  0  0  0
  -30.8882  -28.7714    9.8092 C   0  0  0  0  0  0  0  0  0  0  0  0
  -23.0743   -9.8683   19.9415 C   0  0  0  0  0  0  0  0  0  0  0  0
  -23.8383   -9.8740   22.2335 C   0  0  0  0  0  0  0  0  0  0  0  0
  -29.6010  -28.3019    7.8247 C   0  0  0  0  0  0  0  0  0  0  0  0
  -30.4355  -27.5828   10.3807 C   0  0  0  0  0  0  0  0  0  0  0  0
  -32.5397  -22.3622   14.8117 C   0  0  0  0  0  0  0  0  0  0  0  0
  -22.3319   -8.7143   20.1918 C   0  0  0  0  0  0  0  0  0  0  0  0
  -23.0958   -8.7200   22.4839 C   0  0  0  0  0  0  0  0  0  0  0  0
  -32.1218  -21.6900   15.9595 C   0  0  0  0  0  0  0  0  0  0  0  0
  -19.8693   -7.9191   23.0914 C   0  0  0  0  0  0  0  0  0  0  0  0
  -19.1145   -7.8776   24.2636 C   0  0  0  0  0  0  0  0  0  0  0  0
  -30.6840  -20.2974   14.6131 C   0  0  0  0  0  0  0  0  0  0  0  0
  -31.4767  -18.5201   19.9968 C   0  0  0  0  0  0  0  0  0  0  0  0
  -20.3588   -5.9405   24.9963 C   0  0  0  0  0  0  0  0  0  0  0  0
  -29.5306  -19.6448   19.8646 C   0  0  0  0  0  0  0  0  0  0  0  0
  -23.8276  -10.4481   20.9623 C   0  0  0  0  0  0  0  0  0  0  0  0
  -24.1671  -12.9736   20.8437 C   0  0  0  0  0  0  0  0  0  0  0  0
  -29.1450  -27.0978    8.3839 C   0  0  0  0  0  0  0  0  0  0  0  0
  -32.0238  -22.0137   13.5552 C   0  0  0  0  0  0  0  0  0  0  0  0
  -29.5578  -26.7374    9.6809 C   0  0  0  0  0  0  0  0  0  0  0  0
  -31.0989  -20.9650   13.4506 C   0  0  0  0  0  0  0  0  0  0  0  0
  -30.7943  -19.5627   19.3227 C   0  0  0  0  0  0  0  0  0  0  0  0
  -22.3425   -8.1402   21.4630 C   0  0  0  0  0  0  0  0  0  0  0  0
  -31.1917  -20.6594   15.8606 C   0  0  0  0  0  0  0  0  0  0  0  0
  -20.8689   -6.9713   22.8716 C   0  0  0  0  0  0  0  0  0  0  0  0
  -19.3592   -6.8883   25.2161 C   0  0  0  0  0  0  0  0  0  0  0  0
  -21.1136   -5.9820   23.8241 C   0  0  0  0  0  0  0  0  0  0  0  0
  -24.5952  -11.6398   20.7042 C   0  0  0  0  0  0  0  0  0  0  0  0
  -30.6091  -17.9967   20.9300 C   0  0  0  0  0  0  0  0  0  0  0  0
  -25.2580  -13.7243   20.4791 C   0  0  0  0  0  0  0  0  0  0  0  0
  -22.8969  -13.4881   21.2653 C   0  0  0  0  0  0  0  0  0  0  0  0
  -30.3269  -23.5216   11.3303 C   0  0  0  0  0  0  0  0  0  0  0  0
  -30.8634  -20.8077    9.6364 C   0  0  0  0  0  0  0  0  0  0  0  0
  -31.5862  -17.4725    9.6608 C   0  0  0  0  0  0  0  0  0  0  0  0
  -30.7412  -14.7478   20.6586 C   0  0  0  0  0  0  0  0  0  0  0  0
  -28.1684  -26.2573    7.6000 C   0  0  0  0  0  0  0  0  0  0  0  0
  -32.5049  -22.7307   12.3236 C   0  0  0  0  0  0  0  0  0  0  0  0
  -30.5300  -20.5388   12.1228 C   0  0  0  0  0  0  0  0  0  0  0  0
  -28.0310  -24.8315    8.1280 C   0  0  0  0  0  0  0  0  0  0  0  0
  -29.6014  -12.3643   18.2719 C   0  0  0  0  0  0  0  0  0  0  0  0
  -27.8747  -24.8369    9.6453 C   0  0  0  0  0  0  0  0  0  0  0  0
  -28.1650  -12.0690   18.7072 C   0  0  0  0  0  0  0  0  0  0  0  0
  -30.5205  -12.5849   19.4714 C   0  0  0  0  0  0  0  0  0  0  0  0
  -28.6206  -13.3132   20.8619 C   0  0  0  0  0  0  0  0  0  0  0  0
  -29.1082  -25.4438   10.3248 C   0  0  1  0  0  0  0  0  0  0  0  0
  -31.5273  -22.6350   11.1563 C   0  0  1  0  0  0  0  0  0  0  0  0
  -27.6445  -13.1388   19.6859 C   0  0  2  0  0  0  0  0  0  0  0  0
  -31.9227  -15.5185    8.1226 C   0  0  0  0  0  0  0  0  0  0  0  0
  -27.8472  -20.6246    9.2132 C   0  0  0  0  0  0  0  0  0  0  0  0
  -28.1585  -18.2364    8.5291 C   0  0  0  0  0  0  0  0  0  0  0  0
  -29.2193  -20.0612    7.1996 C   0  0  0  0  0  0  0  0  0  0  0  0
  -28.2488  -18.4574   21.6441 C   0  0  0  0  0  0  0  0  0  0  0  0
  -34.3713  -17.0791   10.5813 C   0  0  0  0  0  0  0  0  0  0  0  0
  -31.3453  -20.4203   18.2218 C   0  0  0  0  0  0  0  0  0  1  0  0
  -30.8075  -16.8974   21.8972 C   0  0  0  0  0  0  0  0  0  0  0  0
  -30.1496  -19.4868    9.4793 C   0  0  1  0  0  0  0  0  0  0  0  0
  -32.5962  -16.6550    8.8760 C   0  0  2  0  0  0  0  0  0  0  0  0
  -28.8527  -19.6113    8.6307 C   0  0  0  0  0  0  0  0  0  0  0  0
  -25.8594  -11.5454   20.2836 N   0  0  0  0  0  0  0  0  0  0  0  0
  -29.4292  -18.6879   20.8405 N   0  0  0  0  0  0  0  0  0  0  0  0
  -26.2350  -12.8294   20.1556 N   0  0  0  0  0  0  0  0  0  0  0  0
  -31.0269  -21.2746   10.9483 N   0  0  0  0  0  0  0  0  0  0  0  0
  -29.9706  -13.6122   20.3592 N   0  0  0  0  0  0  0  0  0  0  0  0
  -25.4672  -15.0560   20.4068 N   0  0  0  0  0  0  0  0  0  0  0  0
  -21.8864  -12.5778   21.6036 N   0  0  0  0  0  0  0  0  0  0  0  0
  -30.1934  -24.4867   10.3503 N   0  0  0  0  0  0  0  0  0  0  0  0
  -31.1315  -18.5542    8.9367 N   0  0  0  0  0  0  0  0  0  0  0  0
  -30.1428  -15.6754   21.5025 N   0  0  0  0  0  0  0  0  0  0  0  0
  -33.6154  -16.0716    9.7935 N   0  3  0  0  0  0  0  0  0  0  0  0
  -22.6598  -14.7184   21.3241 O   0  0  0  0  0  0  0  0  0  0  0  0
  -29.5764  -23.3425   12.2823 O   0  0  0  0  0  0  0  0  0  0  0  0
  -31.2676  -21.3999    8.6326 O   0  0  0  0  0  0  0  0  0  0  0  0
  -31.2329  -17.1786   10.8007 O   0  0  0  0  0  0  0  0  0  0  0  0
  -31.8762  -14.9246   20.2032 O   0  0  0  0  0  0  0  0  0  0  0  0
  -21.6180   -7.0143   21.7077 O   0  0  0  0  0  0  0  0  0  0  0  0
  -30.7816  -20.0021   16.9794 O   0  0  0  0  0  0  0  0  0  1  0  0
  -18.6353   -6.8495   26.3424 F   0  0  0  0  0  0  0  0  0  0  0  0
  -22.0734   -5.0695   23.6190 F   0  0  0  0  0  0  0  0  0  0  0  0
  1  2  1  0  0  0  0
  1  5  2  0  0  0  0
  2  6  2  0  0  0  0
  3  8  2  0  0  0  0
  3 17  1  0  0  0  0
  4  9  1  0  0  0  0
  4 17  2  0  0  0  0
  5 19  1  0  0  0  0
  6 21  1  0  0  0  0
  7 10  2  0  0  0  0
  7 20  1  0  0  0  0
  8 24  1  0  0  0  0
  9 24  2  0  0  0  0
 10 25  1  0  0  0  0
 11 12  2  0  0  0  0
 11 26  1  0  0  0  0
 12 27  1  0  0  0  0
 13 22  1  0  0  0  0
 13 25  2  0  0  0  0
 14 23  1  0  0  0  0
 14 30  2  0  0  0  0
 15 27  2  0  0  0  0
 15 28  1  0  0  0  0
 16 23  2  0  0  0  0
 16 61  1  0  0  0  0
 17 29  1  0  0  0  0
 18 29  1  0  0  0  0
 18 31  2  0  0  0  0
 18 32  1  0  0  0  0
 19 21  2  0  0  0  0
 19 37  1  0  0  0  0
 20 22  2  0  0  0  0
 20 38  1  0  0  0  0
 21 46  1  0  0  0  0
 22 39  1  0  0  0  0
 23 55  1  0  0  0  0
 24 76  1  0  0  0  0
 25 77  1  0  0  0  0
 26 28  2  0  0  0  0
 26 76  1  0  0  0  0
 27 78  1  0  0  0  0
 28 79  1  0  0  0  0
 29 60  2  0  0  0  0
 30 56  1  0  0  0  0
 30 61  1  0  0  0  0
 31 62  1  0  0  0  0
 31 65  1  0  0  0  0
 32 66  1  0  0  0  0
 32 71  2  0  0  0  0
 33 47  1  0  0  0  0
 33 67  1  0  0  0  0
 33 72  2  0  0  0  0
 34 57  1  0  0  0  0
 34 63  1  0  0  0  0
 34 73  2  0  0  0  0
 35 58  1  0  0  0  0
 35 68  1  0  0  0  0
 35 74  2  0  0  0  0
 36 64  1  0  0  0  0
 36 69  1  0  0  0  0
 36 75  2  0  0  0  0
 37 40  1  0  0  0  0
 38 47  1  0  0  0  0
 39 63  1  0  0  0  0
 40 42  1  0  0  0  0
 41 43  1  0  0  0  0
 41 44  1  0  0  0  0
 42 46  1  0  0  0  0
 43 48  1  0  0  0  0
 44 64  1  0  0  0  0
 45 48  1  0  0  0  0
 45 64  1  0  0  0  0
 46 67  1  0  0  0  0
 47 63  1  0  0  0  0
 48 62  1  0  0  0  0
 49 58  1  0  0  0  0
 50 59  1  0  0  0  0
 51 59  1  0  0  0  0
 52 59  1  0  0  0  0
 53 61  1  0  0  0  0
 54 70  1  0  0  0  0
 55 77  1  0  0  0  0
 56 69  1  0  0  0  0
 57 59  1  0  0  0  0
 57 68  1  0  0  0  0
 58 70  1  0  0  0  0
 60 62  1  0  0  0  0
M  CHG  1  70   1
M  ISO  4  36 100  55 101  69 100  77 101
M  END
> <Batch ID>
0031

> <Smiles>
CNC(C)C(=O)NC(C(=O)N1Cc2cc([101O:1][101CH2:1]c3cc(C[100NH:0][100C:0](=O)N4CCCC(n5nc(-c6ccc(Oc7ccc(F)cc7F)cc6)c(C(N)=O)c5N)C4)n(C)c3)ccc2CC1C(=O)NC1CCCc2ccccc21)C(C)(C)C

> <Shape>
0.189

> <Color>
0.200

> <Negative vol penalty>
0.000

$$$$

  -OEChem-04052316423D

 84 92  0     1  0  0  0  0  0999 V2000
  -24.9120  -24.0834   22.6495 C   0  0  0  0  0  0  0  0  0  0  0  0
  -25.0334  -23.0986   21.6744 C   0  0  0  0  0  0  0  0  0  0  0  0
  -26.0950  -27.7387   18.9070 C   0  0  0  0  0  0  0  0  0  0  0  0
  -26.3860  -27.6225   21.3026 C   0  0  0  0  0  0  0  0  0  0  0  0
  -25.1027  -23.7604   23.9924 C   0  0  0  0  0  0  0  0  0  0  0  0
  -25.3467  -21.7904   22.0415 C   0  0  0  0  0  0  0  0  0  0  0  0
  -24.1133  -15.0028   20.1116 C   0  0  0  0  0  0  0  0  0  0  0  0
  -32.0063  -14.4530   20.2755 C   0  0  0  0  0  0  0  0  0  0  0  0
  -25.0140  -28.6031   19.0802 C   0  0  0  0  0  0  0  0  0  0  0  0
  -25.3051  -28.4869   21.4758 C   0  0  0  0  0  0  0  0  0  0  0  0
  -24.7992  -13.8265   19.8126 C   0  0  0  0  0  0  0  0  0  0  0  0
  -24.7133  -31.8071   21.2593 C   0  0  0  0  0  0  0  0  0  0  0  0
  -24.8601  -32.8509   22.1728 C   0  0  0  0  0  0  0  0  0  0  0  0
  -32.6107  -15.6769   19.9889 C   0  0  0  0  0  0  0  0  0  0  0  0
  -25.0287  -13.3681   22.1698 C   0  0  0  0  0  0  0  0  0  0  0  0
  -30.5301  -15.5489   21.8429 C   0  0  0  0  0  0  0  0  0  0  0  0
  -22.9972  -31.9944   23.4508 C   0  0  0  0  0  0  0  0  0  0  0  0
  -26.7810  -27.2484   20.0182 C   0  0  0  0  0  0  0  0  0  0  0  0
  -29.2524  -26.7068   19.6925 C   0  0  0  0  0  0  0  0  0  0  0  0
  -25.4091  -22.4455   24.3770 C   0  0  0  0  0  0  0  0  0  0  0  0
  -23.8890  -15.3768   21.4444 C   0  0  0  0  0  0  0  0  0  0  0  0
  -25.5431  -21.4498   23.3906 C   0  0  0  0  0  0  0  0  0  0  0  0
  -24.3374  -14.5484   22.4831 C   0  0  0  0  0  0  0  0  0  0  0  0
  -30.9660  -14.3889   21.2025 C   0  0  0  0  0  0  0  0  0  0  0  0
  -31.1345  -16.7729   21.5563 C   0  0  0  0  0  0  0  0  0  0  0  0
  -24.6191  -28.9772   20.3646 C   0  0  0  0  0  0  0  0  0  0  0  0
  -25.2596  -13.0104   20.8417 C   0  0  0  0  0  0  0  0  0  0  0  0
  -23.7084  -30.8570   21.4414 C   0  0  0  0  0  0  0  0  0  0  0  0
  -24.0021  -32.9445   23.2685 C   0  0  0  0  0  0  0  0  0  0  0  0
  -22.8504  -30.9506   22.5372 C   0  0  0  0  0  0  0  0  0  0  0  0
  -32.1748  -16.8369   20.6293 C   0  0  0  0  0  0  0  0  0  0  0  0
  -27.8973  -26.3551   19.8399 C   0  0  0  0  0  0  0  0  0  0  0  0
  -29.9058  -25.5064   19.5557 C   0  0  0  0  0  0  0  0  0  0  0  0
  -29.8658  -28.0026   19.6803 C   0  0  0  0  0  0  0  0  0  0  0  0
  -24.7444  -17.8446   23.2560 C   0  0  0  0  0  0  0  0  0  0  0  0
  -22.7761  -16.4397   25.4180 C   0  0  0  0  0  0  0  0  0  0  0  0
  -21.2519  -13.5956   26.5290 C   0  0  0  0  0  0  0  0  0  0  0  0
  -29.7111  -20.1976   21.6030 C   0  0  0  0  0  0  0  0  0  0  0  0
  -25.6529  -22.1543   25.8366 C   0  0  0  0  0  0  0  0  0  0  0  0
  -23.1241  -16.6353   21.7500 C   0  0  0  0  0  0  0  0  0  0  0  0
  -24.1046  -14.8947   23.9303 C   0  0  0  0  0  0  0  0  0  0  0  0
  -25.6134  -20.6664   26.1756 C   0  0  0  0  0  0  0  0  0  0  0  0
  -28.5547  -20.9313   18.2531 C   0  0  0  0  0  0  0  0  0  0  0  0
  -26.4309  -19.8669   25.1660 C   0  0  0  0  0  0  0  0  0  0  0  0
  -28.3998  -22.4521   18.3111 C   0  0  0  0  0  0  0  0  0  0  0  0
  -28.1430  -20.2831   19.5716 C   0  0  0  0  0  0  0  0  0  0  0  0
  -28.7085  -22.3272   20.8268 C   0  0  0  0  0  0  0  0  0  0  0  0
  -25.8574  -20.0141   23.7515 C   0  0  1  0  0  0  0  0  0  0  0  0
  -23.4018  -17.1787   23.1482 C   0  0  1  0  0  0  0  0  0  0  0  0
  -29.1303  -23.0436   19.5311 C   0  0  2  0  0  0  0  0  0  0  0  0
  -19.7335  -12.7533   28.3408 C   0  0  0  0  0  0  0  0  0  0  0  0
  -25.0957  -16.5255   27.3985 C   0  0  0  0  0  0  0  0  0  0  0  0
  -23.8634  -14.8623   28.8069 C   0  0  0  0  0  0  0  0  0  0  0  0
  -22.8682  -17.1085   28.3748 C   0  0  0  0  0  0  0  0  0  0  0  0
  -19.1931  -12.7584   24.5746 C   0  0  0  0  0  0  0  0  0  0  0  0
  -30.6379  -17.9926   22.2632 C   0  0  0  0  0  0  0  0  0  0  0  0
  -30.3163  -13.0721   21.5106 C   0  0  0  0  0  0  0  0  0  0  0  0
  -27.8704  -10.8919   19.5293 C   0  0  0  0  0  0  0  0  0  0  0  0
  -28.7943  -11.2765   20.6750 C   0  0  0  0  0  0  0  0  0  0  0  0
  -26.6925  -11.8411   19.3465 C   0  0  0  0  0  0  0  0  0  1  0  0
  -22.9464  -15.4073   26.5062 C   0  0  1  0  0  0  0  0  0  0  0  0
  -19.8150  -13.3133   26.9292 C   0  0  2  0  0  0  0  0  0  0  0  0
  -23.6997  -15.9701   27.7444 C   0  0  0  0  0  0  0  0  0  0  0  0
  -27.7000  -25.0346   19.8003 N   0  0  0  0  0  0  0  0  0  0  0  0
  -28.9399  -24.5461   19.6264 N   0  0  0  0  0  0  0  0  0  0  0  0
  -23.3572  -16.1386   24.1780 N   0  0  0  0  0  0  0  0  0  0  0  0
  -28.8882  -20.8779   20.6901 N   0  0  0  0  0  0  0  0  0  0  0  0
  -31.2065  -25.1892   19.3830 N   0  0  0  0  0  0  0  0  0  0  0  0
  -29.0479  -29.1304   19.8337 N   0  0  0  0  0  0  0  0  0  0  0  0
  -24.6830  -19.1833   23.5933 N   0  0  0  0  0  0  0  0  0  0  0  0
  -21.6107  -14.8992   26.7994 N   0  0  0  0  0  0  0  0  0  0  0  0
  -29.8225  -18.8264   21.4082 N   0  0  0  0  0  0  0  0  0  0  0  0
  -19.2017  -12.3264   25.9959 N   0  3  0  0  0  0  0  0  0  0  0  0
  -29.4038  -12.6048   20.4306 N   0  3  0  0  0  0  0  0  0  0  0  0
  -31.1005  -28.1567   19.5213 O   0  0  0  0  0  0  0  0  0  0  0  0
  -25.7609  -17.1919   23.0499 O   0  0  0  0  0  0  0  0  0  0  0  0
  -22.1445  -17.4719   25.6572 O   0  0  0  0  0  0  0  0  0  0  0  0
  -21.9840  -12.7437   26.0301 O   0  0  0  0  0  0  0  0  0  0  0  0
  -30.3073  -20.7709   22.5212 O   0  0  0  0  0  0  0  0  0  0  0  0
  -23.5645  -29.8208   20.5340 O   0  0  0  0  0  0  0  0  0  0  0  0
  -25.9300  -11.8620   20.5526 O   0  0  0  0  0  0  0  0  0  1  0  0
  -24.1442  -33.9461   24.1465 F   0  0  0  0  0  0  0  0  0  0  0  0
  -21.8839  -30.0402   22.7181 F   0  0  0  0  0  0  0  0  0  0  0  0
  -32.9460  -18.3336   20.2496 Cl  0  0  0  0  0  0  0  0  0  0  0  0
  1  2  1  0  0  0  0
  1  5  2  0  0  0  0
  2  6  2  0  0  0  0
  3  9  2  0  0  0  0
  3 18  1  0  0  0  0
  4 10  1  0  0  0  0
  4 18  2  0  0  0  0
  5 20  1  0  0  0  0
  6 22  1  0  0  0  0
  7 11  2  0  0  0  0
  7 21  1  0  0  0  0
  8 14  2  0  0  0  0
  8 24  1  0  0  0  0
  9 26  1  0  0  0  0
 10 26  2  0  0  0  0
 11 27  1  0  0  0  0
 12 13  2  0  0  0  0
 12 28  1  0  0  0  0
 13 29  1  0  0  0  0
 14 31  1  0  0  0  0
 15 23  1  0  0  0  0
 15 27  2  0  0  0  0
 16 24  2  0  0  0  0
 16 25  1  0  0  0  0
 17 29  2  0  0  0  0
 17 30  1  0  0  0  0
 18 32  1  0  0  0  0
 19 32  1  0  0  0  0
 19 33  2  0  0  0  0
 19 34  1  0  0  0  0
 20 22  2  0  0  0  0
 20 39  1  0  0  0  0
 21 23  2  0  0  0  0
 21 40  1  0  0  0  0
 22 48  1  0  0  0  0
 23 41  1  0  0  0  0
 24 57  1  0  0  0  0
 25 31  2  0  0  0  0
 25 56  1  0  0  0  0
 26 80  1  0  0  0  0
 27 81  1  0  0  0  0
 28 30  2  0  0  0  0
 28 80  1  0  0  0  0
 29 82  1  0  0  0  0
 30 83  1  0  0  0  0
 31 84  1  0  0  0  0
 32 64  2  0  0  0  0
 33 65  1  0  0  0  0
 33 68  1  0  0  0  0
 34 69  1  0  0  0  0
 34 75  2  0  0  0  0
 35 49  1  0  0  0  0
 35 70  1  0  0  0  0
 35 76  2  0  0  0  0
 36 61  1  0  0  0  0
 36 66  1  0  0  0  0
 36 77  2  0  0  0  0
 37 62  1  0  0  0  0
 37 71  1  0  0  0  0
 37 78  2  0  0  0  0
 38 67  1  0  0  0  0
 38 72  1  0  0  0  0
 38 79  2  0  0  0  0
 39 42  1  0  0  0  0
 40 49  1  0  0  0  0
 41 66  1  0  0  0  0
 42 44  1  0  0  0  0
 43 45  1  0  0  0  0
 43 46  1  0  0  0  0
 44 48  1  0  0  0  0
 45 50  1  0  0  0  0
 46 67  1  0  0  0  0
 47 50  1  0  0  0  0
 47 67  1  0  0  0  0
 48 70  1  0  0  0  0
 49 66  1  0  0  0  0
 50 65  1  0  0  0  0
 51 62  1  0  0  0  0
 52 63  1  0  0  0  0
 53 63  1  0  0  0  0
 54 63  1  0  0  0  0
 55 73  1  0  0  0  0
 56 72  1  0  0  0  0
 57 74  1  0  0  0  0
 58 59  1  0  0  0  0
 58 60  1  0  0  0  0
 59 74  1  0  0  0  0
 60 81  1  0  0  0  0
 61 63  1  0  0  0  0
 61 71  1  0  0  0  0
 62 73  1  0  0  0  0
 64 65  1  0  0  0  0
M  CHG  2  73   1  74   1
M  ISO  4  38 100  60 101  72 100  81 101
M  END
> <Batch ID>
0031

> <Smiles>
CNC(C)C(=O)NC(C(=O)N1Cc2cc([101O:1][101CH2:1]CCNCc3ccc(Cl)c(C[100NH:0][100C:0](=O)N4CCCC(n5nc(-c6ccc(Oc7ccc(F)cc7F)cc6)c(C(N)=O)c5N)C4)c3)ccc2CC1C(=O)NC1CCCc2ccccc21)C(C)(C)C

> <Shape>
0.223

> <Color>
0.051

> <Negative vol penalty>
0.000

$$$$

  -OEChem-04052316423D

 83 91  0     1  0  0  0  0  0999 V2000
  -22.7870  -23.3990   20.8973 C   0  0  0  0  0  0  0  0  0  0  0  0
  -23.8868  -22.8445   20.2506 C   0  0  0  0  0  0  0  0  0  0  0  0
  -25.9405  -27.7747   19.1483 C   0  0  0  0  0  0  0  0  0  0  0  0
  -25.6744  -26.8788   21.3762 C   0  0  0  0  0  0  0  0  0  0  0  0
  -22.2622  -22.7812   22.0317 C   0  0  0  0  0  0  0  0  0  0  0  0
  -24.4633  -21.6723   20.7386 C   0  0  0  0  0  0  0  0  0  0  0  0
  -27.8151  -15.7489   18.5037 C   0  0  0  0  0  0  0  0  0  0  0  0
  -24.7914  -28.5462   19.3212 C   0  0  0  0  0  0  0  0  0  0  0  0
  -24.5253  -27.6503   21.5492 C   0  0  0  0  0  0  0  0  0  0  0  0
  -28.9774  -15.0155   18.7383 C   0  0  0  0  0  0  0  0  0  0  0  0
  -21.2758  -27.5217   20.6246 C   0  0  0  0  0  0  0  0  0  0  0  0
  -20.1595  -26.9043   21.1888 C   0  0  0  0  0  0  0  0  0  0  0  0
  -27.9372  -13.9926   20.6594 C   0  0  0  0  0  0  0  0  0  0  0  0
  -33.3958  -17.4143   22.6835 C   0  0  0  0  0  0  0  0  0  0  0  0
  -31.0277  -15.9450   22.5585 C   0  0  0  0  0  0  0  0  0  0  0  0
  -20.2012  -28.4922   23.0092 C   0  0  0  0  0  0  0  0  0  0  0  0
  -26.3820  -26.9410   20.1758 C   0  0  0  0  0  0  0  0  0  0  0  0
  -28.8714  -26.6055   19.7307 C   0  0  0  0  0  0  0  0  0  0  0  0
  -22.8266  -21.5956   22.5282 C   0  0  0  0  0  0  0  0  0  0  0  0
  -26.7070  -15.6175   19.3531 C   0  0  0  0  0  0  0  0  0  0  0  0
  -23.9464  -21.0388   21.8815 C   0  0  0  0  0  0  0  0  0  0  0  0
  -26.7611  -14.7235   20.4320 C   0  0  0  0  0  0  0  0  0  0  0  0
  -33.4367  -16.0480   22.4061 C   0  0  0  0  0  0  0  0  0  0  0  0
  -32.1709  -18.0461   22.8985 C   0  0  0  0  0  0  0  0  0  0  0  0
  -32.2527  -15.3133   22.3435 C   0  0  0  0  0  0  0  0  0  0  0  0
  -30.9868  -17.3114   22.8359 C   0  0  0  0  0  0  0  0  0  0  0  0
  -24.0838  -28.4840   20.5217 C   0  0  0  0  0  0  0  0  0  0  0  0
  -29.0396  -14.1394   19.8179 C   0  0  0  0  0  0  0  0  0  0  0  0
  -21.8548  -28.6244   21.2527 C   0  0  0  0  0  0  0  0  0  0  0  0
  -19.6222  -27.3895   22.3810 C   0  0  0  0  0  0  0  0  0  0  0  0
  -21.3175  -29.1097   22.4450 C   0  0  0  0  0  0  0  0  0  0  0  0
  -27.5687  -26.1434   19.9975 C   0  0  0  0  0  0  0  0  0  0  0  0
  -29.6309  -25.4640   19.6503 C   0  0  0  0  0  0  0  0  0  0  0  0
  -29.3520  -27.9468   19.5700 C   0  0  0  0  0  0  0  0  0  0  0  0
  -25.1023  -17.5835   21.2671 C   0  0  0  0  0  0  0  0  0  0  0  0
  -23.1292  -15.0292   21.5916 C   0  0  0  0  0  0  0  0  0  0  0  0
  -22.7201  -11.6450   21.4279 C   0  0  0  0  0  0  0  0  0  0  0  0
  -28.9456  -20.1074   22.0362 C   0  0  0  0  0  0  0  0  0  0  0  0
  -22.2539  -20.9899   23.7852 C   0  0  0  0  0  0  0  0  0  0  0  0
  -25.4512  -16.3957   19.0708 C   0  0  0  0  0  0  0  0  0  0  0  0
  -25.5918  -14.5309   21.3616 C   0  0  0  0  0  0  0  0  0  0  0  0
  -22.6910  -19.5462   24.0194 C   0  0  0  0  0  0  0  0  0  0  0  0
  -29.3125  -20.8269   18.5085 C   0  0  0  0  0  0  0  0  0  0  0  0
  -24.1947  -19.4024   23.8067 C   0  0  0  0  0  0  0  0  0  0  0  0
  -29.0272  -22.3294   18.4732 C   0  0  0  0  0  0  0  0  0  0  0  0
  -28.4199  -20.1184   19.5230 C   0  0  0  0  0  0  0  0  0  0  0  0
  -28.2161  -22.1704   20.8725 C   0  0  0  0  0  0  0  0  0  0  0  0
  -24.5842  -19.7548   22.3660 C   0  0  1  0  0  0  0  0  0  0  0  0
  -24.5648  -16.5662   20.3007 C   0  0  1  0  0  0  0  0  0  0  0  0
  -29.1024  -22.9473   19.8820 C   0  0  2  0  0  0  0  0  0  0  0  0
  -34.7597  -15.3935   22.1787 C   0  0  0  0  0  0  0  0  0  0  0  0
  -32.1520  -19.5097   23.1948 C   0  0  0  0  0  0  0  0  0  0  0  0
  -21.0048   -9.8486   21.7852 C   0  0  0  0  0  0  0  0  0  0  0  0
  -23.4688  -15.3088   24.6110 C   0  0  0  0  0  0  0  0  0  0  0  0
  -22.5512  -12.9926   24.8585 C   0  0  0  0  0  0  0  0  0  0  0  0
  -21.1377  -14.7928   23.8667 C   0  0  0  0  0  0  0  0  0  0  0  0
  -22.8753  -10.7737   18.6038 C   0  0  0  0  0  0  0  0  0  0  0  0
  -32.2719  -13.8355   22.0447 C   0  0  0  0  0  0  0  0  0  0  0  0
  -29.6638  -17.9659   23.0634 C   0  0  0  0  0  0  0  0  0  0  0  0
  -32.5138  -13.5086   20.5695 C   0  0  0  0  0  0  0  0  0  0  0  0
  -31.4086  -14.0147   19.6498 C   0  0  0  0  0  0  0  0  0  1  0  0
  -23.0589  -13.8444   22.5245 C   0  0  1  0  0  0  0  0  0  0  0  0
  -21.6467  -10.7904   20.7784 C   0  0  2  0  0  0  0  0  0  0  0  0
  -22.5770  -14.2395   23.9490 C   0  0  0  0  0  0  0  0  0  0  0  0
  -27.5008  -24.8121   20.0808 N   0  0  0  0  0  0  0  0  0  0  0  0
  -28.7704  -24.4278   19.8651 N   0  0  0  0  0  0  0  0  0  0  0  0
  -24.3886  -15.3191   21.0476 N   0  0  0  0  0  0  0  0  0  0  0  0
  -28.5523  -20.7430   20.8468 N   0  0  0  0  0  0  0  0  0  0  0  0
  -30.9442  -25.2555   19.4174 N   0  0  0  0  0  0  0  0  0  0  0  0
  -29.8009  -28.6361   20.7048 N   0  0  0  0  0  0  0  0  0  0  0  0
  -24.2630  -18.6615   21.4738 N   0  0  0  0  0  0  0  0  0  0  0  0
  -22.2175  -12.8532   21.8627 N   0  0  0  0  0  0  0  0  0  0  0  0
  -29.2397  -18.7537   21.9274 N   0  0  0  0  0  0  0  0  0  0  0  0
  -22.2307   -9.9739   19.6770 N   0  3  0  0  0  0  0  0  0  0  0  0
  -29.3671  -28.5228   18.4558 O   0  0  0  0  0  0  0  0  0  0  0  0
  -26.1968  -17.4029   21.7879 O   0  0  0  0  0  0  0  0  0  0  0  0
  -22.1032  -15.6695   21.3488 O   0  0  0  0  0  0  0  0  0  0  0  0
  -23.8870  -11.2761   21.5418 O   0  0  0  0  0  0  0  0  0  0  0  0
  -29.0335  -20.7036   23.1151 O   0  0  0  0  0  0  0  0  0  0  0  0
  -22.9625  -29.2368   20.6909 O   0  0  0  0  0  0  0  0  0  0  0  0
  -30.1731  -13.4229   20.0495 O   0  0  0  0  0  0  0  0  0  1  0  0
  -18.5494  -26.7974   22.9219 F   0  0  0  0  0  0  0  0  0  0  0  0
  -21.8687  -30.1694   23.0524 F   0  0  0  0  0  0  0  0  0  0  0  0
  1  2  1  0  0  0  0
  1  5  2  0  0  0  0
  2  6  2  0  0  0  0
  3  8  2  0  0  0  0
  3 17  1  0  0  0  0
  4  9  1  0  0  0  0
  4 17  2  0  0  0  0
  5 19  1  0  0  0  0
  6 21  1  0  0  0  0
  7 10  2  0  0  0  0
  7 20  1  0  0  0  0
  8 27  1  0  0  0  0
  9 27  2  0  0  0  0
 10 28  1  0  0  0  0
 11 12  2  0  0  0  0
 11 29  1  0  0  0  0
 12 30  1  0  0  0  0
 13 22  1  0  0  0  0
 13 28  2  0  0  0  0
 14 23  1  0  0  0  0
 14 24  2  0  0  0  0
 15 25  1  0  0  0  0
 15 26  2  0  0  0  0
 16 30  2  0  0  0  0
 16 31  1  0  0  0  0
 17 32  1  0  0  0  0
 18 32  1  0  0  0  0
 18 33  2  0  0  0  0
 18 34  1  0  0  0  0
 19 21  2  0  0  0  0
 19 39  1  0  0  0  0
 20 22  2  0  0  0  0
 20 40  1  0  0  0  0
 21 48  1  0  0  0  0
 22 41  1  0  0  0  0
 23 25  2  0  0  0  0
 23 51  1  0  0  0  0
 24 26  1  0  0  0  0
 24 52  1  0  0  0  0
 25 58  1  0  0  0  0
 26 59  1  0  0  0  0
 27 80  1  0  0  0  0
 28 81  1  0  0  0  0
 29 31  2  0  0  0  0
 29 80  1  0  0  0  0
 30 82  1  0  0  0  0
 31 83  1  0  0  0  0
 32 65  2  0  0  0  0
 33 66  1  0  0  0  0
 33 69  1  0  0  0  0
 34 70  1  0  0  0  0
 34 75  2  0  0  0  0
 35 49  1  0  0  0  0
 35 71  1  0  0  0  0
 35 76  2  0  0  0  0
 36 62  1  0  0  0  0
 36 67  1  0  0  0  0
 36 77  2  0  0  0  0
 37 63  1  0  0  0  0
 37 72  1  0  0  0  0
 37 78  2  0  0  0  0
 38 68  1  0  0  0  0
 38 73  1  0  0  0  0
 38 79  2  0  0  0  0
 39 42  1  0  0  0  0
 40 49  1  0  0  0  0
 41 67  1  0  0  0  0
 42 44  1  0  0  0  0
 43 45  1  0  0  0  0
 43 46  1  0  0  0  0
 44 48  1  0  0  0  0
 45 50  1  0  0  0  0
 46 68  1  0  0  0  0
 47 50  1  0  0  0  0
 47 68  1  0  0  0  0
 48 71  1  0  0  0  0
 49 67  1  0  0  0  0
 50 66  1  0  0  0  0
 53 63  1  0  0  0  0
 54 64  1  0  0  0  0
 55 64  1  0  0  0  0
 56 64  1  0  0  0  0
 57 74  1  0  0  0  0
 58 60  1  0  0  0  0
 59 73  1  0  0  0  0
 60 61  1  0  0  0  0
 61 81  1  0  0  0  0
 62 64  1  0  0  0  0
 62 72  1  0  0  0  0
 63 74  1  0  0  0  0
 65 66  1  0  0  0  0
M  CHG  1  74   1
M  ISO  4  38 100  61 101  73 100  81 101
M  END
> <Batch ID>
0031

> <Smiles>
CNC(C)C(=O)NC(C(=O)N1Cc2cc([101O:1][101CH2:1]CCc3cc(C[100NH:0][100C:0](=O)N4CCCC(n5nc(-c6ccc(Oc7ccc(F)cc7F)cc6)c(C(N)=O)c5N)C4)c(C)cc3C)ccc2CC1C(=O)NC1CCCc2ccccc21)C(C)(C)C

> <Shape>
0.252

> <Color>
0.050

> <Negative vol penalty>
0.000

$$$$

  -OEChem-04052316423D

 85 93  0     1  0  0  0  0  0999 V2000
  -29.5192  -13.3296   19.6271 C   0  0  0  0  0  0  0  0  0  0  0  0
  -29.1334  -14.6422   19.3746 C   0  0  0  0  0  0  0  0  0  0  0  0
  -29.8068  -22.3139   19.3273 C   0  0  0  0  0  0  0  0  0  0  0  0
  -27.8470  -21.5615   18.1313 C   0  0  0  0  0  0  0  0  0  0  0  0
  -28.5597  -12.3734   19.9570 C   0  0  0  0  0  0  0  0  0  0  0  0
  -27.7875  -14.9990   19.4508 C   0  0  0  0  0  0  0  0  0  0  0  0
  -23.5641  -20.5094   21.2157 C   0  0  0  0  0  0  0  0  0  0  0  0
  -30.1298  -20.9913   19.6301 C   0  0  0  0  0  0  0  0  0  0  0  0
  -28.1701  -20.2388   18.4341 C   0  0  0  0  0  0  0  0  0  0  0  0
  -22.5152  -21.2703   20.7015 C   0  0  0  0  0  0  0  0  0  0  0  0
  -31.2749  -17.8335   21.0234 C   0  0  0  0  0  0  0  0  0  0  0  0
  -31.6657  -17.5427   22.3304 C   0  0  0  0  0  0  0  0  0  0  0  0
  -20.9547  -19.5518   21.3578 C   0  0  0  0  0  0  0  0  0  0  0  0
  -18.7234  -26.6865   23.2273 C   0  0  0  0  0  0  0  0  0  0  0  0
  -19.6997  -27.1098   21.0584 C   0  0  0  0  0  0  0  0  0  0  0  0
  -29.5335  -18.3354   23.1443 C   0  0  0  0  0  0  0  0  0  0  0  0
  -28.6653  -22.5991   18.5780 C   0  0  0  0  0  0  0  0  0  0  0  0
  -28.7360  -24.7029   17.1368 C   0  0  0  0  0  0  0  0  0  0  0  0
  -27.2025  -12.7208   20.0467 C   0  0  0  0  0  0  0  0  0  0  0  0
  -23.3171  -19.2569   21.7961 C   0  0  0  0  0  0  0  0  0  0  0  0
  -26.8088  -14.0462   19.7808 C   0  0  0  0  0  0  0  0  0  0  0  0
  -22.0019  -18.7780   21.8810 C   0  0  0  0  0  0  0  0  0  0  0  0
  -18.8642  -26.3534   21.8802 C   0  0  0  0  0  0  0  0  0  0  0  0
  -19.4180  -27.7761   23.7527 C   0  0  0  0  0  0  0  0  0  0  0  0
  -20.3944  -28.1994   21.5837 C   0  0  0  0  0  0  0  0  0  0  0  0
  -29.3115  -19.9537   19.1835 C   0  0  0  0  0  0  0  0  0  0  0  0
  -21.2106  -20.7903   20.7699 C   0  0  0  0  0  0  0  0  0  0  0  0
  -30.0134  -18.3754   20.7768 C   0  0  0  0  0  0  0  0  0  0  0  0
  -30.7950  -17.7936   23.3909 C   0  0  0  0  0  0  0  0  0  0  0  0
  -29.1427  -18.6263   21.8373 C   0  0  0  0  0  0  0  0  0  0  0  0
  -20.2536  -28.5325   22.9309 C   0  0  0  0  0  0  0  0  0  0  0  0
  -28.3308  -23.9653   18.2653 C   0  0  0  0  0  0  0  0  0  0  0  0
  -28.1573  -25.9368   17.3071 C   0  0  0  0  0  0  0  0  0  0  0  0
  -29.5618  -24.3079   16.0332 C   0  0  0  0  0  0  0  0  0  0  0  0
  -24.1944  -16.2715   21.1467 C   0  0  0  0  0  0  0  0  0  0  0  0
  -22.6863  -15.6328   23.9468 C   0  0  0  0  0  0  0  0  0  0  0  0
  -20.3493  -16.5575   26.2554 C   0  0  0  0  0  0  0  0  0  0  0  0
  -23.3234  -27.6436   20.2354 C   0  0  0  0  0  0  0  0  0  0  0  0
  -26.1962  -11.6421   20.3603 C   0  0  0  0  0  0  0  0  0  0  0  0
  -24.4564  -18.4603   22.3702 C   0  0  0  0  0  0  0  0  0  0  0  0
  -21.6812  -17.4487   22.5123 C   0  0  0  0  0  0  0  0  0  0  0  0
  -24.8347  -12.1847   20.7869 C   0  0  0  0  0  0  0  0  0  0  0  0
  -26.6682  -28.9345   20.7282 C   0  0  0  0  0  0  0  0  0  0  0  0
  -24.3840  -13.2965   19.8448 C   0  0  0  0  0  0  0  0  0  0  0  0
  -27.5128  -27.8627   20.0367 C   0  0  0  0  0  0  0  0  0  0  0  0
  -25.4791  -28.3161   21.4573 C   0  0  0  0  0  0  0  0  0  0  0  0
  -25.4424  -26.4011   19.9065 C   0  0  0  0  0  0  0  0  0  0  0  0
  -25.3615  -14.4776   19.8778 C   0  0  1  0  0  0  0  0  0  0  0  0
  -24.1494  -16.9697   22.4765 C   0  0  1  0  0  0  0  0  0  0  0  0
  -26.6479  -26.9648   19.1324 C   0  0  2  0  0  0  0  0  0  0  0  0
  -20.4220  -27.6408   26.0462 C   0  0  0  0  0  0  0  0  0  0  0  0
  -19.3155  -15.8152   28.4182 C   0  0  0  0  0  0  0  0  0  0  0  0
  -21.0500  -13.5414   22.4439 C   0  0  0  0  0  0  0  0  0  0  0  0
  -19.4400  -13.5246   24.3612 C   0  0  0  0  0  0  0  0  0  0  0  0
  -21.8101  -12.8338   24.7190 C   0  0  0  0  0  0  0  0  0  0  0  0
  -21.2727  -18.9900   27.6659 C   0  0  0  0  0  0  0  0  0  0  0  0
  -18.1133  -25.1754   21.3123 C   0  0  0  0  0  0  0  0  0  0  0  0
  -19.2365  -28.0963   25.2017 C   0  0  0  0  0  0  0  0  0  0  0  0
  -21.2784  -28.9814   20.6660 C   0  0  0  0  0  0  0  0  0  0  0  0
  -18.8807  -23.8516   21.3995 C   0  0  0  0  0  0  0  0  0  0  0  0
  -18.1364  -22.6842   20.7499 C   0  0  0  0  0  0  0  0  0  0  0  0
  -18.9098  -21.3802   20.8908 C   0  0  0  0  0  0  0  0  0  1  0  0
  -21.2741  -15.2759   24.3433 C   0  0  1  0  0  0  0  0  0  0  0  0
  -20.4100  -16.6483   27.7696 C   0  0  2  0  0  0  0  0  0  0  0  0
  -20.8995  -13.8182   23.9531 C   0  0  0  0  0  0  0  0  0  0  0  0
  -27.5547  -24.6717   19.0916 N   0  0  0  0  0  0  0  0  0  0  0  0
  -27.4677  -25.8661   18.4817 N   0  0  0  0  0  0  0  0  0  0  0  0
  -22.8301  -16.7041   23.0538 N   0  0  0  0  0  0  0  0  0  0  0  0
  -24.6867  -27.4889   20.5365 N   0  0  0  0  0  0  0  0  0  0  0  0
  -28.1762  -27.0645   16.5653 N   0  0  0  0  0  0  0  0  0  0  0  0
  -30.0743  -23.0036   16.0155 N   0  0  0  0  0  0  0  0  0  0  0  0
  -25.1494  -15.2761   21.0659 N   0  0  0  0  0  0  0  0  0  0  0  0
  -21.1669  -15.5588   25.7704 N   0  0  0  0  0  0  0  0  0  0  0  0
  -22.6793  -28.6931   20.8791 N   0  0  0  0  0  0  0  0  0  0  0  0
  -20.2480  -18.0625   28.2107 N   0  3  0  0  0  0  0  0  0  0  0  0
  -29.8503  -25.0937   15.0990 O   0  0  0  0  0  0  0  0  0  0  0  0
  -23.4190  -16.6099   20.2602 O   0  0  0  0  0  0  0  0  0  0  0  0
  -23.6276  -14.9895   24.4177 O   0  0  0  0  0  0  0  0  0  0  0  0
  -19.6441  -17.2962   25.5716 O   0  0  0  0  0  0  0  0  0  0  0  0
  -22.7250  -26.9041   19.4466 O   0  0  0  0  0  0  0  0  0  0  0  0
  -29.6266  -18.6629   19.4786 O   0  0  0  0  0  0  0  0  0  0  0  0
  -20.1850  -21.5307   20.2681 O   0  0  0  0  0  0  0  0  0  1  0  0
  -31.1698  -17.5128   24.6458 F   0  0  0  0  0  0  0  0  0  0  0  0
  -27.9291  -19.1456   21.6065 F   0  0  0  0  0  0  0  0  0  0  0  0
  -21.1158  -29.8853   23.5831 Cl  0  0  0  0  0  0  0  0  0  0  0  0
  1  2  1  0  0  0  0
  1  5  2  0  0  0  0
  2  6  2  0  0  0  0
  3  8  2  0  0  0  0
  3 17  1  0  0  0  0
  4  9  1  0  0  0  0
  4 17  2  0  0  0  0
  5 19  1  0  0  0  0
  6 21  1  0  0  0  0
  7 10  2  0  0  0  0
  7 20  1  0  0  0  0
  8 26  1  0  0  0  0
  9 26  2  0  0  0  0
 10 27  1  0  0  0  0
 11 12  2  0  0  0  0
 11 28  1  0  0  0  0
 12 29  1  0  0  0  0
 13 22  1  0  0  0  0
 13 27  2  0  0  0  0
 14 23  2  0  0  0  0
 14 24  1  0  0  0  0
 15 23  1  0  0  0  0
 15 25  2  0  0  0  0
 16 29  2  0  0  0  0
 16 30  1  0  0  0  0
 17 32  1  0  0  0  0
 18 32  1  0  0  0  0
 18 33  2  0  0  0  0
 18 34  1  0  0  0  0
 19 21  2  0  0  0  0
 19 39  1  0  0  0  0
 20 22  2  0  0  0  0
 20 40  1  0  0  0  0
 21 48  1  0  0  0  0
 22 41  1  0  0  0  0
 23 57  1  0  0  0  0
 24 31  2  0  0  0  0
 24 58  1  0  0  0  0
 25 31  1  0  0  0  0
 25 59  1  0  0  0  0
 26 81  1  0  0  0  0
 27 82  1  0  0  0  0
 28 30  2  0  0  0  0
 28 81  1  0  0  0  0
 29 83  1  0  0  0  0
 30 84  1  0  0  0  0
 31 85  1  0  0  0  0
 32 66  2  0  0  0  0
 33 67  1  0  0  0  0
 33 70  1  0  0  0  0
 34 71  1  0  0  0  0
 34 76  2  0  0  0  0
 35 49  1  0  0  0  0
 35 72  1  0  0  0  0
 35 77  2  0  0  0  0
 36 63  1  0  0  0  0
 36 68  1  0  0  0  0
 36 78  2  0  0  0  0
 37 64  1  0  0  0  0
 37 73  1  0  0  0  0
 37 79  2  0  0  0  0
 38 69  1  0  0  0  0
 38 74  1  0  0  0  0
 38 80  2  0  0  0  0
 39 42  1  0  0  0  0
 40 49  1  0  0  0  0
 41 68  1  0  0  0  0
 42 44  1  0  0  0  0
 43 45  1  0  0  0  0
 43 46  1  0  0  0  0
 44 48  1  0  0  0  0
 45 50  1  0  0  0  0
 46 69  1  0  0  0  0
 47 50  1  0  0  0  0
 47 69  1  0  0  0  0
 48 72  1  0  0  0  0
 49 68  1  0  0  0  0
 50 67  1  0  0  0  0
 51 58  1  0  0  0  0
 52 64  1  0  0  0  0
 53 65  1  0  0  0  0
 54 65  1  0  0  0  0
 55 65  1  0  0  0  0
 56 75  1  0  0  0  0
 57 60  1  0  0  0  0
 59 74  1  0  0  0  0
 60 61  1  0  0  0  0
 61 62  1  0  0  0  0
 62 82  1  0  0  0  0
 63 65  1  0  0  0  0
 63 73  1  0  0  0  0
 64 75  1  0  0  0  0
 66 67  1  0  0  0  0
M  CHG  1  75   1
M  ISO  4  38 100  62 101  74 100  82 101
M  END
> <Batch ID>
0031

> <Smiles>
CCc1cc(CCC[101CH2:1][101O:1]c2ccc3c(c2)CN(C(=O)C(NC(=O)C(C)NC)C(C)(C)C)C(C(=O)NC2CCCc4ccccc42)C3)cc(C[100NH:0][100C:0](=O)N2CCCC(n3nc(-c4ccc(Oc5ccc(F)cc5F)cc4)c(C(N)=O)c3N)C2)c1Cl

> <Shape>
0.215

> <Color>
0.060

> <Negative vol penalty>
0.000

$$$$
