
  -OEChem-04052316453D

 86 94  0     1  0  0  0  0  0999 V2000
  -23.6797  -27.3200   22.8958 C   0  0  0  0  0  0  0  0  0  0  0  0
  -23.9748  -26.0083   23.2530 C   0  0  0  0  0  0  0  0  0  0  0  0
  -18.3875  -23.1772   20.3800 C   0  0  0  0  0  0  0  0  0  0  0  0
  -20.6542  -22.4080   20.0520 C   0  0  0  0  0  0  0  0  0  0  0  0
  -24.0294  -27.7924   21.6315 C   0  0  0  0  0  0  0  0  0  0  0  0
  -24.6188  -25.1678   22.3457 C   0  0  0  0  0  0  0  0  0  0  0  0
  -29.2831  -19.7360   22.1080 C   0  0  0  0  0  0  0  0  0  0  0  0
  -18.8463  -24.4914   20.4690 C   0  0  0  0  0  0  0  0  0  0  0  0
  -21.1130  -23.7222   20.1410 C   0  0  0  0  0  0  0  0  0  0  0  0
  -29.4161  -18.4529   21.5790 C   0  0  0  0  0  0  0  0  0  0  0  0
  -20.3257  -26.4613   22.7831 C   0  0  0  0  0  0  0  0  0  0  0  0
  -19.8137  -27.2578   23.8074 C   0  0  0  0  0  0  0  0  0  0  0  0
  -30.0435  -19.4016   19.4517 C   0  0  0  0  0  0  0  0  0  0  0  0
  -18.9480  -28.8082   22.1692 C   0  0  0  0  0  0  0  0  0  0  0  0
  -27.4671  -11.8870   20.9106 C   0  0  0  0  0  0  0  0  0  0  0  0
  -19.2915  -22.1354   20.1716 C   0  0  0  0  0  0  0  0  0  0  0  0
  -18.4179  -20.0934   18.9167 C   0  0  0  0  0  0  0  0  0  0  0  0
  -24.6866  -26.9602   20.7116 C   0  0  0  0  0  0  0  0  0  0  0  0
  -29.5191  -20.8636   21.3084 C   0  0  0  0  0  0  0  0  0  0  0  0
  -24.9764  -25.6291   21.0674 C   0  0  0  0  0  0  0  0  0  0  0  0
  -29.9153  -20.6979   19.9736 C   0  0  0  0  0  0  0  0  0  0  0  0
  -27.8297  -13.9073   19.7090 C   0  0  0  0  0  0  0  0  0  0  0  0
  -26.4704  -13.9427   19.4184 C   0  0  0  0  0  0  0  0  0  0  0  0
  -20.2091  -24.7639   20.3495 C   0  0  0  0  0  0  0  0  0  0  0  0
  -29.7936  -18.2856   20.2499 C   0  0  0  0  0  0  0  0  0  0  0  0
  -20.1489  -26.8384   21.4518 C   0  0  0  0  0  0  0  0  0  0  0  0
  -19.1248  -28.4312   23.5005 C   0  0  0  0  0  0  0  0  0  0  0  0
  -19.4601  -28.0118   21.1449 C   0  0  0  0  0  0  0  0  0  0  0  0
  -28.3455  -12.8632   20.4688 C   0  0  0  0  0  0  0  0  0  0  0  0
  -18.8182  -20.7776   20.0801 C   0  0  0  0  0  0  0  0  0  0  0  0
  -25.6760  -12.9180   19.9070 C   0  0  0  0  0  0  0  0  0  0  0  0
  -18.0589  -18.8438   19.3597 C   0  0  0  0  0  0  0  0  0  0  0  0
  -18.3746  -20.5468   17.5572 C   0  0  0  0  0  0  0  0  0  0  0  0
  -27.7596  -23.3178   20.3161 C   0  0  0  0  0  0  0  0  0  0  0  0
  -30.5919  -24.3673   19.1333 C   0  0  0  0  0  0  0  0  0  0  0  0
  -33.7356  -23.6091   18.0430 C   0  0  0  0  0  0  0  0  0  0  0  0
  -19.0160  -14.3344   22.5052 C   0  0  0  0  0  0  0  0  0  0  0  0
  -25.0024  -27.5014   19.3397 C   0  0  0  0  0  0  0  0  0  0  0  0
  -29.3972  -22.2404   21.9015 C   0  0  0  0  0  0  0  0  0  0  0  0
  -30.2000  -21.8755   19.0789 C   0  0  0  0  0  0  0  0  0  0  0  0
  -26.0180  -26.6594   18.5718 C   0  0  0  0  0  0  0  0  0  0  0  0
  -17.3702  -17.0864   24.0526 C   0  0  0  0  0  0  0  0  0  0  0  0
  -25.6635  -25.1787   18.6651 C   0  0  0  0  0  0  0  0  0  0  0  0
  -17.5726  -18.2364   23.0644 C   0  0  0  0  0  0  0  0  0  0  0  0
  -18.5915  -16.1716   24.1118 C   0  0  0  0  0  0  0  0  0  0  0  0
  -19.2402  -16.7991   21.8185 C   0  0  0  0  0  0  0  0  0  0  0  0
  -25.6962  -24.6943   20.1197 C   0  0  1  0  0  0  0  0  0  0  0  0
  -29.1628  -23.3239   20.8534 C   0  0  1  0  0  0  0  0  0  0  0  0
  -18.0134  -17.7172   21.6826 C   0  0  2  0  0  0  0  0  0  0  0  0
  -25.8943  -15.0542   18.6040 C   0  0  0  0  0  0  0  0  0  0  0  0
  -35.8045  -24.6733   17.1025 C   0  0  0  0  0  0  0  0  0  0  0  0
  -29.2160  -24.6419   16.4239 C   0  0  0  0  0  0  0  0  0  0  0  0
  -31.4809  -24.7754   15.3654 C   0  0  0  0  0  0  0  0  0  0  0  0
  -30.7662  -26.5174   17.0015 C   0  0  0  0  0  0  0  0  0  0  0  0
  -35.3792  -22.7122   20.3350 C   0  0  0  0  0  0  0  0  0  0  0  0
  -28.7316  -15.0034   19.1958 C   0  0  0  0  0  0  0  0  0  0  0  0
  -21.9240  -12.7883   20.1704 C   0  0  0  0  0  0  0  0  0  0  0  0
  -20.8599  -12.0327   20.9763 C   0  0  0  0  0  0  0  0  0  0  0  0
  -23.3267  -12.2199   20.3751 C   0  0  0  0  0  0  0  0  0  0  0  0
  -19.4603  -12.6072   20.7795 C   0  0  0  0  0  0  0  0  0  0  0  0
  -29.0908  -16.0138   20.2798 C   0  0  0  0  0  0  0  0  0  1  0  0
  -31.3350  -24.1976   17.8303 C   0  0  1  0  0  0  0  0  0  0  0  0
  -35.0879  -24.2194   18.3647 C   0  0  2  0  0  0  0  0  0  0  0  0
  -30.6923  -25.0107   16.6713 C   0  0  0  0  0  0  0  0  0  0  0  0
  -26.1409  -11.8875   20.6483 N   0  0  0  0  0  0  0  0  0  0  0  0
  -18.7225  -20.0251   21.1795 N   0  0  0  0  0  0  0  0  0  0  0  0
  -18.2579  -18.8552   20.7089 N   0  0  0  0  0  0  0  0  0  0  0  0
  -30.0609  -23.2015   19.7033 N   0  0  0  0  0  0  0  0  0  0  0  0
  -18.9565  -15.7127   22.7694 N   0  0  0  0  0  0  0  0  0  0  0  0
  -17.5955  -17.7475   18.7228 N   0  0  0  0  0  0  0  0  0  0  0  0
  -18.7787  -21.8593   17.2775 N   0  0  0  0  0  0  0  0  0  0  0  0
  -24.2894  -12.9475   19.6146 N   0  0  0  0  0  0  0  0  0  0  0  0
  -27.0614  -24.4865   20.5527 N   0  0  0  0  0  0  0  0  0  0  0  0
  -32.7251  -24.5452   18.1049 N   0  0  0  0  0  0  0  0  0  0  0  0
  -19.3635  -13.9854   21.2060 N   0  0  0  0  0  0  0  0  0  0  0  0
  -35.9513  -23.2262   19.0640 N   0  3  0  0  0  0  0  0  0  0  0  0
  -17.9734  -19.8151   16.6207 O   0  0  0  0  0  0  0  0  0  0  0  0
  -27.3418  -22.3266   19.7289 O   0  0  0  0  0  0  0  0  0  0  0  0
  -30.4926  -25.4916   19.6309 O   0  0  0  0  0  0  0  0  0  0  0  0
  -33.5908  -22.4216   17.7611 O   0  0  0  0  0  0  0  0  0  0  0  0
  -18.7719  -13.4784   23.3623 O   0  0  0  0  0  0  0  0  0  0  0  0
  -20.6571  -26.0462   20.4360 O   0  0  0  0  0  0  0  0  0  0  0  0
  -29.9236  -17.0344   19.7308 O   0  0  0  0  0  0  0  0  0  1  0  0
  -18.6319  -29.1951   24.4842 F   0  0  0  0  0  0  0  0  0  0  0  0
  -19.2860  -28.3786   19.8678 F   0  0  0  0  0  0  0  0  0  0  0  0
  -30.0146  -12.7507   20.8693 Cl  0  0  0  0  0  0  0  0  0  0  0  0
  1  2  1  0  0  0  0
  1  5  2  0  0  0  0
  2  6  2  0  0  0  0
  3  8  2  0  0  0  0
  3 16  1  0  0  0  0
  4  9  1  0  0  0  0
  4 16  2  0  0  0  0
  5 18  1  0  0  0  0
  6 20  1  0  0  0  0
  7 10  2  0  0  0  0
  7 19  1  0  0  0  0
  8 24  1  0  0  0  0
  9 24  2  0  0  0  0
 10 25  1  0  0  0  0
 11 12  2  0  0  0  0
 11 26  1  0  0  0  0
 12 27  1  0  0  0  0
 13 21  1  0  0  0  0
 13 25  2  0  0  0  0
 14 27  2  0  0  0  0
 14 28  1  0  0  0  0
 15 29  2  0  0  0  0
 15 65  1  0  0  0  0
 16 30  1  0  0  0  0
 17 30  1  0  0  0  0
 17 32  2  0  0  0  0
 17 33  1  0  0  0  0
 18 20  2  0  0  0  0
 18 38  1  0  0  0  0
 19 21  2  0  0  0  0
 19 39  1  0  0  0  0
 20 47  1  0  0  0  0
 21 40  1  0  0  0  0
 22 23  2  0  0  0  0
 22 29  1  0  0  0  0
 22 56  1  0  0  0  0
 23 31  1  0  0  0  0
 23 50  1  0  0  0  0
 24 82  1  0  0  0  0
 25 83  1  0  0  0  0
 26 28  2  0  0  0  0
 26 82  1  0  0  0  0
 27 84  1  0  0  0  0
 28 85  1  0  0  0  0
 29 86  1  0  0  0  0
 30 66  2  0  0  0  0
 31 65  2  0  0  0  0
 31 72  1  0  0  0  0
 32 67  1  0  0  0  0
 32 70  1  0  0  0  0
 33 71  1  0  0  0  0
 33 77  2  0  0  0  0
 34 48  1  0  0  0  0
 34 73  1  0  0  0  0
 34 78  2  0  0  0  0
 35 62  1  0  0  0  0
 35 68  1  0  0  0  0
 35 79  2  0  0  0  0
 36 63  1  0  0  0  0
 36 74  1  0  0  0  0
 36 80  2  0  0  0  0
 37 69  1  0  0  0  0
 37 75  1  0  0  0  0
 37 81  2  0  0  0  0
 38 41  1  0  0  0  0
 39 48  1  0  0  0  0
 40 68  1  0  0  0  0
 41 43  1  0  0  0  0
 42 44  1  0  0  0  0
 42 45  1  0  0  0  0
 43 47  1  0  0  0  0
 44 49  1  0  0  0  0
 45 69  1  0  0  0  0
 46 49  1  0  0  0  0
 46 69  1  0  0  0  0
 47 73  1  0  0  0  0
 48 68  1  0  0  0  0
 49 67  1  0  0  0  0
 51 63  1  0  0  0  0
 52 64  1  0  0  0  0
 53 64  1  0  0  0  0
 54 64  1  0  0  0  0
 55 76  1  0  0  0  0
 56 61  1  0  0  0  0
 57 58  1  0  0  0  0
 57 59  1  0  0  0  0
 58 60  1  0  0  0  0
 59 72  1  0  0  0  0
 60 75  1  0  0  0  0
 61 83  1  0  0  0  0
 62 64  1  0  0  0  0
 62 74  1  0  0  0  0
 63 76  1  0  0  0  0
 66 67  1  0  0  0  0
M  CHG  1  76   1
M  ISO  4  37 100  61 101  75 100  83 101
M  END
> <Batch ID>
0032

> <Smiles>
CNC(C)C(=O)NC(C(=O)N1Cc2cc([101O:1][101CH2:1]Cc3c(Cl)cnc(NCCCC[100NH:0][100C:0](=O)N4CCCC(n5nc(-c6ccc(Oc7ccc(F)cc7F)cc6)c(C(N)=O)c5N)C4)c3C)ccc2CC1C(=O)NC1CCCc2ccccc21)C(C)(C)C

> <Shape>
0.197

> <Color>
0.062

> <Negative vol penalty>
0.000

$$$$

  -OEChem-04052316453D

 79 87  0     1  0  0  0  0  0999 V2000
  -30.4707  -29.1311    8.5318 C   0  0  0  0  0  0  0  0  0  0  0  0
  -30.8882  -28.7714    9.8092 C   0  0  0  0  0  0  0  0  0  0  0  0
  -23.0743   -9.8683   19.9415 C   0  0  0  0  0  0  0  0  0  0  0  0
  -23.8383   -9.8740   22.2335 C   0  0  0  0  0  0  0  0  0  0  0  0
  -29.6010  -28.3019    7.8247 C   0  0  0  0  0  0  0  0  0  0  0  0
  -30.4355  -27.5828   10.3807 C   0  0  0  0  0  0  0  0  0  0  0  0
  -32.5397  -22.3622   14.8117 C   0  0  0  0  0  0  0  0  0  0  0  0
  -22.3319   -8.7143   20.1918 C   0  0  0  0  0  0  0  0  0  0  0  0
  -23.0958   -8.7200   22.4839 C   0  0  0  0  0  0  0  0  0  0  0  0
  -32.1218  -21.6900   15.9595 C   0  0  0  0  0  0  0  0  0  0  0  0
  -19.8693   -7.9191   23.0914 C   0  0  0  0  0  0  0  0  0  0  0  0
  -19.1145   -7.8776   24.2636 C   0  0  0  0  0  0  0  0  0  0  0  0
  -30.6840  -20.2974   14.6131 C   0  0  0  0  0  0  0  0  0  0  0  0
  -31.4767  -18.5201   19.9968 C   0  0  0  0  0  0  0  0  0  0  0  0
  -20.3588   -5.9405   24.9963 C   0  0  0  0  0  0  0  0  0  0  0  0
  -29.5306  -19.6448   19.8646 C   0  0  0  0  0  0  0  0  0  0  0  0
  -23.8276  -10.4481   20.9623 C   0  0  0  0  0  0  0  0  0  0  0  0
  -24.1671  -12.9736   20.8437 C   0  0  0  0  0  0  0  0  0  0  0  0
  -29.1450  -27.0978    8.3839 C   0  0  0  0  0  0  0  0  0  0  0  0
  -32.0238  -22.0137   13.5552 C   0  0  0  0  0  0  0  0  0  0  0  0
  -29.5578  -26.7374    9.6809 C   0  0  0  0  0  0  0  0  0  0  0  0
  -31.0989  -20.9650   13.4506 C   0  0  0  0  0  0  0  0  0  0  0  0
  -30.7943  -19.5627   19.3227 C   0  0  0  0  0  0  0  0  0  0  0  0
  -22.3425   -8.1402   21.4630 C   0  0  0  0  0  0  0  0  0  0  0  0
  -31.1917  -20.6594   15.8606 C   0  0  0  0  0  0  0  0  0  0  0  0
  -20.8689   -6.9713   22.8716 C   0  0  0  0  0  0  0  0  0  0  0  0
  -19.3592   -6.8883   25.2161 C   0  0  0  0  0  0  0  0  0  0  0  0
  -21.1136   -5.9820   23.8241 C   0  0  0  0  0  0  0  0  0  0  0  0
  -24.5952  -11.6398   20.7042 C   0  0  0  0  0  0  0  0  0  0  0  0
  -30.6091  -17.9967   20.9300 C   0  0  0  0  0  0  0  0  0  0  0  0
  -25.2580  -13.7243   20.4791 C   0  0  0  0  0  0  0  0  0  0  0  0
  -22.8969  -13.4881   21.2653 C   0  0  0  0  0  0  0  0  0  0  0  0
  -30.3269  -23.5216   11.3303 C   0  0  0  0  0  0  0  0  0  0  0  0
  -30.8634  -20.8077    9.6364 C   0  0  0  0  0  0  0  0  0  0  0  0
  -31.5862  -17.4725    9.6608 C   0  0  0  0  0  0  0  0  0  0  0  0
  -30.7412  -14.7478   20.6586 C   0  0  0  0  0  0  0  0  0  0  0  0
  -28.1684  -26.2573    7.6000 C   0  0  0  0  0  0  0  0  0  0  0  0
  -32.5049  -22.7307   12.3236 C   0  0  0  0  0  0  0  0  0  0  0  0
  -30.5300  -20.5388   12.1228 C   0  0  0  0  0  0  0  0  0  0  0  0
  -28.0310  -24.8315    8.1280 C   0  0  0  0  0  0  0  0  0  0  0  0
  -29.6014  -12.3643   18.2719 C   0  0  0  0  0  0  0  0  0  0  0  0
  -27.8747  -24.8369    9.6453 C   0  0  0  0  0  0  0  0  0  0  0  0
  -28.1650  -12.0690   18.7072 C   0  0  0  0  0  0  0  0  0  0  0  0
  -30.5205  -12.5849   19.4714 C   0  0  0  0  0  0  0  0  0  0  0  0
  -28.6206  -13.3132   20.8619 C   0  0  0  0  0  0  0  0  0  0  0  0
  -29.1082  -25.4438   10.3248 C   0  0  1  0  0  0  0  0  0  0  0  0
  -31.5273  -22.6350   11.1563 C   0  0  1  0  0  0  0  0  0  0  0  0
  -27.6445  -13.1388   19.6859 C   0  0  2  0  0  0  0  0  0  0  0  0
  -31.9227  -15.5185    8.1226 C   0  0  0  0  0  0  0  0  0  0  0  0
  -27.8472  -20.6246    9.2132 C   0  0  0  0  0  0  0  0  0  0  0  0
  -28.1585  -18.2364    8.5291 C   0  0  0  0  0  0  0  0  0  0  0  0
  -29.2193  -20.0612    7.1996 C   0  0  0  0  0  0  0  0  0  0  0  0
  -28.2488  -18.4574   21.6441 C   0  0  0  0  0  0  0  0  0  0  0  0
  -34.3713  -17.0791   10.5813 C   0  0  0  0  0  0  0  0  0  0  0  0
  -31.3453  -20.4203   18.2218 C   0  0  0  0  0  0  0  0  0  1  0  0
  -30.8075  -16.8974   21.8972 C   0  0  0  0  0  0  0  0  0  0  0  0
  -30.1496  -19.4868    9.4793 C   0  0  1  0  0  0  0  0  0  0  0  0
  -32.5962  -16.6550    8.8760 C   0  0  2  0  0  0  0  0  0  0  0  0
  -28.8527  -19.6113    8.6307 C   0  0  0  0  0  0  0  0  0  0  0  0
  -25.8594  -11.5454   20.2836 N   0  0  0  0  0  0  0  0  0  0  0  0
  -29.4292  -18.6879   20.8405 N   0  0  0  0  0  0  0  0  0  0  0  0
  -26.2350  -12.8294   20.1556 N   0  0  0  0  0  0  0  0  0  0  0  0
  -31.0269  -21.2746   10.9483 N   0  0  0  0  0  0  0  0  0  0  0  0
  -29.9706  -13.6122   20.3592 N   0  0  0  0  0  0  0  0  0  0  0  0
  -25.4672  -15.0560   20.4068 N   0  0  0  0  0  0  0  0  0  0  0  0
  -21.8864  -12.5778   21.6036 N   0  0  0  0  0  0  0  0  0  0  0  0
  -30.1934  -24.4867   10.3503 N   0  0  0  0  0  0  0  0  0  0  0  0
  -31.1315  -18.5542    8.9367 N   0  0  0  0  0  0  0  0  0  0  0  0
  -30.1428  -15.6754   21.5025 N   0  0  0  0  0  0  0  0  0  0  0  0
  -33.6154  -16.0716    9.7935 N   0  3  0  0  0  0  0  0  0  0  0  0
  -22.6598  -14.7184   21.3241 O   0  0  0  0  0  0  0  0  0  0  0  0
  -29.5764  -23.3425   12.2823 O   0  0  0  0  0  0  0  0  0  0  0  0
  -31.2676  -21.3999    8.6326 O   0  0  0  0  0  0  0  0  0  0  0  0
  -31.2329  -17.1786   10.8007 O   0  0  0  0  0  0  0  0  0  0  0  0
  -31.8762  -14.9246   20.2032 O   0  0  0  0  0  0  0  0  0  0  0  0
  -21.6180   -7.0143   21.7077 O   0  0  0  0  0  0  0  0  0  0  0  0
  -30.7816  -20.0021   16.9794 O   0  0  0  0  0  0  0  0  0  1  0  0
  -18.6353   -6.8495   26.3424 F   0  0  0  0  0  0  0  0  0  0  0  0
  -22.0734   -5.0695   23.6190 F   0  0  0  0  0  0  0  0  0  0  0  0
  1  2  1  0  0  0  0
  1  5  2  0  0  0  0
  2  6  2  0  0  0  0
  3  8  2  0  0  0  0
  3 17  1  0  0  0  0
  4  9  1  0  0  0  0
  4 17  2  0  0  0  0
  5 19  1  0  0  0  0
  6 21  1  0  0  0  0
  7 10  2  0  0  0  0
  7 20  1  0  0  0  0
  8 24  1  0  0  0  0
  9 24  2  0  0  0  0
 10 25  1  0  0  0  0
 11 12  2  0  0  0  0
 11 26  1  0  0  0  0
 12 27  1  0  0  0  0
 13 22  1  0  0  0  0
 13 25  2  0  0  0  0
 14 23  1  0  0  0  0
 14 30  2  0  0  0  0
 15 27  2  0  0  0  0
 15 28  1  0  0  0  0
 16 23  2  0  0  0  0
 16 61  1  0  0  0  0
 17 29  1  0  0  0  0
 18 29  1  0  0  0  0
 18 31  2  0  0  0  0
 18 32  1  0  0  0  0
 19 21  2  0  0  0  0
 19 37  1  0  0  0  0
 20 22  2  0  0  0  0
 20 38  1  0  0  0  0
 21 46  1  0  0  0  0
 22 39  1  0  0  0  0
 23 55  1  0  0  0  0
 24 76  1  0  0  0  0
 25 77  1  0  0  0  0
 26 28  2  0  0  0  0
 26 76  1  0  0  0  0
 27 78  1  0  0  0  0
 28 79  1  0  0  0  0
 29 60  2  0  0  0  0
 30 56  1  0  0  0  0
 30 61  1  0  0  0  0
 31 62  1  0  0  0  0
 31 65  1  0  0  0  0
 32 66  1  0  0  0  0
 32 71  2  0  0  0  0
 33 47  1  0  0  0  0
 33 67  1  0  0  0  0
 33 72  2  0  0  0  0
 34 57  1  0  0  0  0
 34 63  1  0  0  0  0
 34 73  2  0  0  0  0
 35 58  1  0  0  0  0
 35 68  1  0  0  0  0
 35 74  2  0  0  0  0
 36 64  1  0  0  0  0
 36 69  1  0  0  0  0
 36 75  2  0  0  0  0
 37 40  1  0  0  0  0
 38 47  1  0  0  0  0
 39 63  1  0  0  0  0
 40 42  1  0  0  0  0
 41 43  1  0  0  0  0
 41 44  1  0  0  0  0
 42 46  1  0  0  0  0
 43 48  1  0  0  0  0
 44 64  1  0  0  0  0
 45 48  1  0  0  0  0
 45 64  1  0  0  0  0
 46 67  1  0  0  0  0
 47 63  1  0  0  0  0
 48 62  1  0  0  0  0
 49 58  1  0  0  0  0
 50 59  1  0  0  0  0
 51 59  1  0  0  0  0
 52 59  1  0  0  0  0
 53 61  1  0  0  0  0
 54 70  1  0  0  0  0
 55 77  1  0  0  0  0
 56 69  1  0  0  0  0
 57 59  1  0  0  0  0
 57 68  1  0  0  0  0
 58 70  1  0  0  0  0
 60 62  1  0  0  0  0
M  CHG  1  70   1
M  ISO  4  36 100  55 101  69 100  77 101
M  END
> <Batch ID>
0032

> <Smiles>
CNC(C)C(=O)NC(C(=O)N1Cc2cc([101O:1][101CH2:1]c3cc(C[100NH:0][100C:0](=O)N4CCCC(n5nc(-c6ccc(Oc7ccc(F)cc7F)cc6)c(C(N)=O)c5N)C4)n(C)c3)ccc2CC1C(=O)NC1CCCc2ccccc21)C(C)(C)C

> <Shape>
0.189

> <Color>
0.200

> <Negative vol penalty>
0.000

$$$$

  -OEChem-04052316453D

 86 94  0     1  0  0  0  0  0999 V2000
  -21.3115  -33.8465   22.2253 C   0  0  0  0  0  0  0  0  0  0  0  0
  -21.8736  -32.7125   22.8028 C   0  0  0  0  0  0  0  0  0  0  0  0
  -23.2788   -9.7155   19.9343 C   0  0  0  0  0  0  0  0  0  0  0  0
  -23.8738   -9.8967   22.2688 C   0  0  0  0  0  0  0  0  0  0  0  0
  -22.1298  -34.9018   21.8246 C   0  0  0  0  0  0  0  0  0  0  0  0
  -23.2546  -32.6327   22.9788 C   0  0  0  0  0  0  0  0  0  0  0  0
  -24.5316  -30.8717   27.5518 C   0  0  0  0  0  0  0  0  0  0  0  0
  -22.6032   -8.5242   20.1989 C   0  0  0  0  0  0  0  0  0  0  0  0
  -23.1981   -8.7054   22.5335 C   0  0  0  0  0  0  0  0  0  0  0  0
  -24.4336  -29.4958   27.7545 C   0  0  0  0  0  0  0  0  0  0  0  0
  -20.0007   -7.7001   22.9651 C   0  0  0  0  0  0  0  0  0  0  0  0
  -19.1684   -7.6636   24.0838 C   0  0  0  0  0  0  0  0  0  0  0  0
  -26.8125  -29.2825   27.4160 C   0  0  0  0  0  0  0  0  0  0  0  0
  -28.7387  -19.2866   22.0754 C   0  0  0  0  0  0  0  0  0  0  0  0
  -28.1131  -18.7913   24.7487 C   0  0  0  0  0  0  0  0  0  0  0  0
  -20.4899   -5.8647   25.0084 C   0  0  0  0  0  0  0  0  0  0  0  0
  -23.9141  -10.4017   20.9692 C   0  0  0  0  0  0  0  0  0  0  0  0
  -24.0829  -12.9359   20.7304 C   0  0  0  0  0  0  0  0  0  0  0  0
  -23.5206  -34.8390   22.0046 C   0  0  0  0  0  0  0  0  0  0  0  0
  -25.7713  -31.4628   27.2685 C   0  0  0  0  0  0  0  0  0  0  0  0
  -24.0924  -33.6876   22.5788 C   0  0  0  0  0  0  0  0  0  0  0  0
  -26.9240  -30.6665   27.2127 C   0  0  0  0  0  0  0  0  0  0  0  0
  -29.3520  -18.2318   22.7513 C   0  0  0  0  0  0  0  0  0  0  0  0
  -27.4998  -19.8461   24.0728 C   0  0  0  0  0  0  0  0  0  0  0  0
  -22.5629   -8.0191   21.4985 C   0  0  0  0  0  0  0  0  0  0  0  0
  -25.5736  -28.7006   27.6837 C   0  0  0  0  0  0  0  0  0  0  0  0
  -21.0776   -6.8188   22.8680 C   0  0  0  0  0  0  0  0  0  0  0  0
  -19.4130   -6.7459   25.1055 C   0  0  0  0  0  0  0  0  0  0  0  0
  -21.3223   -5.9012   23.8896 C   0  0  0  0  0  0  0  0  0  0  0  0
  -29.0392  -17.9841   24.0879 C   0  0  0  0  0  0  0  0  0  0  0  0
  -27.8126  -20.0938   22.7362 C   0  0  0  0  0  0  0  0  0  0  0  0
  -24.6126  -11.6320   20.6964 C   0  0  0  0  0  0  0  0  0  0  0  0
  -25.1416  -13.7454   20.3986 C   0  0  0  0  0  0  0  0  0  0  0  0
  -22.7527  -13.3759   21.0348 C   0  0  0  0  0  0  0  0  0  0  0  0
  -26.9709  -33.0937   24.8180 C   0  0  0  0  0  0  0  0  0  0  0  0
  -29.5092  -33.4555   26.8051 C   0  0  0  0  0  0  0  0  0  0  0  0
  -31.2867  -32.2919   29.4760 C   0  0  0  0  0  0  0  0  0  0  0  0
  -30.5122  -15.1804   20.8915 C   0  0  0  0  0  0  0  0  0  0  0  0
  -24.3688  -35.9848   21.5123 C   0  0  0  0  0  0  0  0  0  0  0  0
  -25.8644  -32.9521   27.0789 C   0  0  0  0  0  0  0  0  0  0  0  0
  -28.2816  -31.2550   26.9317 C   0  0  0  0  0  0  0  0  0  0  0  0
  -25.7872  -35.9789   22.0765 C   0  0  0  0  0  0  0  0  0  0  0  0
  -29.7172  -12.5984   18.5725 C   0  0  0  0  0  0  0  0  0  0  0  0
  -26.3928  -34.5820   21.9838 C   0  0  0  0  0  0  0  0  0  0  0  0
  -28.2776  -12.2205   18.9252 C   0  0  0  0  0  0  0  0  0  0  0  0
  -30.5300  -12.9484   19.8170 C   0  0  0  0  0  0  0  0  0  0  0  0
  -28.4886  -13.6051   21.0316 C   0  0  0  0  0  0  0  0  0  0  0  0
  -25.5838  -33.5741   22.8091 C   0  0  1  0  0  0  0  0  0  0  0  0
  -27.0976  -33.3777   26.2881 C   0  0  1  0  0  0  0  0  0  0  0  0
  -27.6142  -13.2981   19.8039 C   0  0  2  0  0  0  0  0  0  0  0  0
  -33.3356  -32.7777   30.8411 C   0  0  0  0  0  0  0  0  0  0  0  0
  -31.2609  -32.3483   24.5656 C   0  0  0  0  0  0  0  0  0  0  0  0
  -33.0649  -31.9676   26.2594 C   0  0  0  0  0  0  0  0  0  0  0  0
  -32.2509  -34.2815   25.8054 C   0  0  0  0  0  0  0  0  0  0  0  0
  -29.6968  -32.6548   31.9456 C   0  0  0  0  0  0  0  0  0  0  0  0
  -30.3380  -17.3904   22.0073 C   0  0  0  0  0  0  0  0  0  0  0  0
  -26.5100  -20.6917   24.8185 C   0  0  0  0  0  0  0  0  0  0  0  0
  -26.7402  -24.2465   26.1790 C   0  0  0  0  0  0  0  0  0  0  0  0
  -25.7880  -25.1770   26.9265 C   0  0  0  0  0  0  0  0  0  0  0  0
  -26.0762  -22.9108   25.8797 C   0  0  0  0  0  0  0  0  0  0  0  0
  -26.4236  -26.5337   27.1956 C   0  0  0  0  0  0  0  0  0  1  0  0
  -30.7719  -32.6749   27.0796 C   0  0  1  0  0  0  0  0  0  0  0  0
  -31.8368  -32.9955   30.7035 C   0  0  2  0  0  0  0  0  0  0  0  0
  -31.8114  -32.8064   25.9309 C   0  0  0  0  0  0  0  0  0  0  0  0
  -25.9073  -11.6099   20.3687 N   0  0  0  0  0  0  0  0  0  0  0  0
  -26.1999  -12.9098   20.1937 N   0  0  0  0  0  0  0  0  0  0  0  0
  -28.3200  -32.7151   26.7472 N   0  0  0  0  0  0  0  0  0  0  0  0
  -29.8469  -13.9769   20.6055 N   0  0  0  0  0  0  0  0  0  0  0  0
  -25.2613  -15.0834   20.2650 N   0  0  0  0  0  0  0  0  0  0  0  0
  -21.7869  -12.4120   21.3550 N   0  0  0  0  0  0  0  0  0  0  0  0
  -25.8909  -33.7112   24.2167 N   0  0  0  0  0  0  0  0  0  0  0  0
  -31.2569  -33.1269   28.3791 N   0  0  0  0  0  0  0  0  0  0  0  0
  -29.7910  -16.1037   21.6386 N   0  0  0  0  0  0  0  0  0  0  0  0
  -31.1724  -32.4835   31.9353 N   0  3  0  0  0  0  0  0  0  0  0  0
  -27.0503  -22.0267   25.1955 N   0  3  0  0  0  0  0  0  0  0  0  0
  -22.4260  -14.5867   21.0072 O   0  0  0  0  0  0  0  0  0  0  0  0
  -27.7931  -32.3692   24.2696 O   0  0  0  0  0  0  0  0  0  0  0  0
  -29.5747  -34.6781   26.6549 O   0  0  0  0  0  0  0  0  0  0  0  0
  -30.9235  -31.1178   29.4879 O   0  0  0  0  0  0  0  0  0  0  0  0
  -31.6618  -15.4170   20.5048 O   0  0  0  0  0  0  0  0  0  0  0  0
  -21.9035   -6.8568   21.7571 O   0  0  0  0  0  0  0  0  0  0  0  0
  -25.4806  -27.3572   27.8804 O   0  0  0  0  0  0  0  0  0  1  0  0
  -18.6146   -6.7120   26.1804 F   0  0  0  0  0  0  0  0  0  0  0  0
  -22.3560   -5.0529   23.8025 F   0  0  0  0  0  0  0  0  0  0  0  0
  -29.7772  -16.6872   24.9554 Cl  0  0  0  0  0  0  0  0  0  0  0  0
  -27.0739  -21.3899   21.8679 Cl  0  0  0  0  0  0  0  0  0  0  0  0
  1  2  1  0  0  0  0
  1  5  2  0  0  0  0
  2  6  2  0  0  0  0
  3  8  2  0  0  0  0
  3 17  1  0  0  0  0
  4  9  1  0  0  0  0
  4 17  2  0  0  0  0
  5 19  1  0  0  0  0
  6 21  1  0  0  0  0
  7 10  2  0  0  0  0
  7 20  1  0  0  0  0
  8 25  1  0  0  0  0
  9 25  2  0  0  0  0
 10 26  1  0  0  0  0
 11 12  2  0  0  0  0
 11 27  1  0  0  0  0
 12 28  1  0  0  0  0
 13 22  1  0  0  0  0
 13 26  2  0  0  0  0
 14 23  2  0  0  0  0
 14 31  1  0  0  0  0
 15 24  1  0  0  0  0
 15 30  2  0  0  0  0
 16 28  2  0  0  0  0
 16 29  1  0  0  0  0
 17 32  1  0  0  0  0
 18 32  1  0  0  0  0
 18 33  2  0  0  0  0
 18 34  1  0  0  0  0
 19 21  2  0  0  0  0
 19 39  1  0  0  0  0
 20 22  2  0  0  0  0
 20 40  1  0  0  0  0
 21 48  1  0  0  0  0
 22 41  1  0  0  0  0
 23 30  1  0  0  0  0
 23 56  1  0  0  0  0
 24 31  2  0  0  0  0
 24 57  1  0  0  0  0
 25 81  1  0  0  0  0
 26 82  1  0  0  0  0
 27 29  2  0  0  0  0
 27 81  1  0  0  0  0
 28 83  1  0  0  0  0
 29 84  1  0  0  0  0
 30 85  1  0  0  0  0
 31 86  1  0  0  0  0
 32 65  2  0  0  0  0
 33 66  1  0  0  0  0
 33 69  1  0  0  0  0
 34 70  1  0  0  0  0
 34 76  2  0  0  0  0
 35 49  1  0  0  0  0
 35 71  1  0  0  0  0
 35 77  2  0  0  0  0
 36 62  1  0  0  0  0
 36 67  1  0  0  0  0
 36 78  2  0  0  0  0
 37 63  1  0  0  0  0
 37 72  1  0  0  0  0
 37 79  2  0  0  0  0
 38 68  1  0  0  0  0
 38 73  1  0  0  0  0
 38 80  2  0  0  0  0
 39 42  1  0  0  0  0
 40 49  1  0  0  0  0
 41 67  1  0  0  0  0
 42 44  1  0  0  0  0
 43 45  1  0  0  0  0
 43 46  1  0  0  0  0
 44 48  1  0  0  0  0
 45 50  1  0  0  0  0
 46 68  1  0  0  0  0
 47 50  1  0  0  0  0
 47 68  1  0  0  0  0
 48 71  1  0  0  0  0
 49 67  1  0  0  0  0
 50 66  1  0  0  0  0
 51 63  1  0  0  0  0
 52 64  1  0  0  0  0
 53 64  1  0  0  0  0
 54 64  1  0  0  0  0
 55 74  1  0  0  0  0
 56 73  1  0  0  0  0
 57 75  1  0  0  0  0
 58 59  1  0  0  0  0
 58 60  1  0  0  0  0
 59 61  1  0  0  0  0
 60 75  1  0  0  0  0
 61 82  1  0  0  0  0
 62 64  1  0  0  0  0
 62 72  1  0  0  0  0
 63 74  1  0  0  0  0
 65 66  1  0  0  0  0
M  CHG  2  74   1  75   1
M  ISO  4  38 100  61 101  73 100  82 101
M  END
> <Batch ID>
0032

> <Smiles>
CNC(C)C(=O)NC(C(=O)N1Cc2cc([101O:1][101CH2:1]CCCNCc3cc(Cl)c(C[100NH:0][100C:0](=O)N4CCCC(n5nc(-c6ccc(Oc7ccc(F)cc7F)cc6)c(C(N)=O)c5N)C4)cc3Cl)ccc2CC1C(=O)NC1CCCc2ccccc21)C(C)(C)C

> <Shape>
0.242

> <Color>
0.198

> <Negative vol penalty>
0.000

$$$$

  -OEChem-04052316453D

 86 94  0     1  0  0  0  0  0999 V2000
  -25.7011  -35.4547   22.5112 C   0  0  0  0  0  0  0  0  0  0  0  0
  -26.3081  -34.2091   22.3865 C   0  0  0  0  0  0  0  0  0  0  0  0
  -24.5877  -14.0137   21.3839 C   0  0  0  0  0  0  0  0  0  0  0  0
  -25.3100  -14.1423   19.0820 C   0  0  0  0  0  0  0  0  0  0  0  0
  -24.4086  -35.5507   23.0252 C   0  0  0  0  0  0  0  0  0  0  0  0
  -25.6233  -33.0589   22.7767 C   0  0  0  0  0  0  0  0  0  0  0  0
  -26.0508  -29.3051   19.4046 C   0  0  0  0  0  0  0  0  0  0  0  0
  -23.8532  -12.8652   21.0893 C   0  0  0  0  0  0  0  0  0  0  0  0
  -24.5755  -12.9937   18.7874 C   0  0  0  0  0  0  0  0  0  0  0  0
  -27.2444  -28.5848   19.4016 C   0  0  0  0  0  0  0  0  0  0  0  0
  -22.0780   -9.6935   21.0228 C   0  0  0  0  0  0  0  0  0  0  0  0
  -22.1691   -8.6203   21.9091 C   0  0  0  0  0  0  0  0  0  0  0  0
  -26.1808  -26.8287   20.6682 C   0  0  0  0  0  0  0  0  0  0  0  0
  -24.5495   -8.4965   21.5144 C   0  0  0  0  0  0  0  0  0  0  0  0
  -30.5053  -22.7317   18.8824 C   0  0  0  0  0  0  0  0  0  0  0  0
  -25.3161  -14.6524   20.3803 C   0  0  0  0  0  0  0  0  0  0  0  0
  -27.4153  -15.9059   21.1081 C   0  0  0  0  0  0  0  0  0  0  0  0
  -23.7040  -34.4002   23.4130 C   0  0  0  0  0  0  0  0  0  0  0  0
  -24.9143  -28.7968   20.0498 C   0  0  0  0  0  0  0  0  0  0  0  0
  -24.3207  -33.1397   23.2977 C   0  0  0  0  0  0  0  0  0  0  0  0
  -24.9732  -27.5434   20.6757 C   0  0  0  0  0  0  0  0  0  0  0  0
  -30.2154  -23.1838   17.6140 C   0  0  0  0  0  0  0  0  0  0  0  0
  -30.2825  -24.5987   17.6436 C   0  0  0  0  0  0  0  0  0  0  0  0
  -23.8471  -12.3551   19.7910 C   0  0  0  0  0  0  0  0  0  0  0  0
  -27.3104  -27.3477   20.0359 C   0  0  0  0  0  0  0  0  0  0  0  0
  -23.2226  -10.1682   20.3822 C   0  0  0  0  0  0  0  0  0  0  0  0
  -23.4048   -8.0218   22.1549 C   0  0  0  0  0  0  0  0  0  0  0  0
  -24.4583   -9.5697   20.6281 C   0  0  0  0  0  0  0  0  0  0  0  0
  -26.0747  -15.8392   20.6839 C   0  0  0  0  0  0  0  0  0  0  0  0
  -30.6116  -24.9680   18.9292 C   0  0  0  0  0  0  0  0  0  0  0  0
  -27.6612  -17.2487   21.2594 C   0  0  0  0  0  0  0  0  0  0  0  0
  -28.3545  -14.8485   21.3442 C   0  0  0  0  0  0  0  0  0  0  0  0
  -23.1007  -29.7490   22.4804 C   0  0  0  0  0  0  0  0  0  0  0  0
  -21.2787  -27.2112   21.6074 C   0  0  0  0  0  0  0  0  0  0  0  0
  -21.0909  -24.1748   20.0608 C   0  0  0  0  0  0  0  0  0  0  0  0
  -25.2160  -22.1414   18.8237 C   0  0  0  0  0  0  0  0  0  0  0  0
  -22.3268  -34.5582   24.0072 C   0  0  0  0  0  0  0  0  0  0  0  0
  -23.6268  -29.5740   20.0210 C   0  0  0  0  0  0  0  0  0  0  0  0
  -23.7758  -26.9442   21.3652 C   0  0  0  0  0  0  0  0  0  0  0  0
  -21.5282  -33.2578   24.0481 C   0  0  0  0  0  0  0  0  0  0  0  0
  -25.4543  -21.3665   22.2907 C   0  0  0  0  0  0  0  0  0  0  0  0
  -22.3878  -32.1203   24.5902 C   0  0  0  0  0  0  0  0  0  0  0  0
  -25.7613  -19.8681   22.3103 C   0  0  0  0  0  0  0  0  0  0  0  0
  -24.4967  -21.7317   21.1585 C   0  0  0  0  0  0  0  0  0  0  0  0
  -25.2271  -19.7824   19.8392 C   0  0  0  0  0  0  0  0  0  0  0  0
  -23.6009  -31.8667   23.6870 C   0  0  1  0  0  0  0  0  0  0  0  0
  -22.6743  -29.1944   21.1506 C   0  0  1  0  0  0  0  0  0  0  0  0
  -26.2328  -19.3742   20.9293 C   0  0  2  0  0  0  0  0  0  0  0  0
  -30.0439  -25.5119   16.5069 C   0  0  0  0  0  0  0  0  0  0  0  0
  -32.9153  -23.9075   22.7982 C   0  0  0  0  0  0  0  0  0  0  0  0
  -19.4767  -22.3249   19.5419 C   0  0  0  0  0  0  0  0  0  0  0  0
  -21.4570  -26.2484   24.4972 C   0  0  0  0  0  0  0  0  0  0  0  0
  -20.6759  -23.9993   23.7228 C   0  0  0  0  0  0  0  0  0  0  0  0
  -19.2006  -25.9922   23.4496 C   0  0  0  0  0  0  0  0  0  0  0  0
  -21.4338  -24.5370   17.1436 C   0  0  0  0  0  0  0  0  0  0  0  0
  -29.8945  -22.3394   16.4461 C   0  0  0  0  0  0  0  0  0  0  0  0
  -30.8157  -26.3390   19.5266 C   0  0  0  0  0  0  0  0  0  0  0  0
  -32.5753  -23.9883   21.3190 C   0  0  0  0  0  0  0  0  0  0  0  0
  -28.4507  -21.7977   16.4803 C   0  0  0  0  0  0  0  0  0  0  0  0
  -27.4097  -22.9208   16.4553 C   0  0  0  0  0  0  0  0  0  0  0  0
  -31.0845  -23.7622   21.0779 C   0  0  0  0  0  0  0  0  0  0  0  0
  -25.9784  -22.3942   16.4756 C   0  0  0  0  0  0  0  0  0  0  0  0
  -29.5891  -27.2303   19.3652 C   0  0  0  0  0  0  0  0  0  1  0  0
  -21.2388  -25.7473   21.9739 C   0  0  1  0  0  0  0  0  0  0  0  0
  -20.1052  -23.6190   19.0490 C   0  0  2  0  0  0  0  0  0  0  0  0
  -20.6663  -25.5087   23.3997 C   0  0  0  0  0  0  0  0  0  0  0  0
  -25.5084  -17.0438   20.5730 N   0  0  0  0  0  0  0  0  0  0  0  0
  -30.7448  -23.8249   19.6734 N   0  0  0  0  0  0  0  0  0  0  0  0
  -26.4981  -17.8800   20.9299 N   0  0  0  0  0  0  0  0  0  0  0  0
  -22.5416  -27.7454   21.3151 N   0  0  0  0  0  0  0  0  0  0  0  0
  -25.0027  -21.2360   19.8763 N   0  0  0  0  0  0  0  0  0  0  0  0
  -28.7567  -17.9391   21.6410 N   0  0  0  0  0  0  0  0  0  0  0  0
  -27.9371  -13.5262   21.1401 N   0  0  0  0  0  0  0  0  0  0  0  0
  -23.2069  -31.1265   22.5075 N   0  0  0  0  0  0  0  0  0  0  0  0
  -20.4935  -25.0807   20.9115 N   0  0  0  0  0  0  0  0  0  0  0  0
  -25.7028  -21.5898   17.6450 N   0  0  0  0  0  0  0  0  0  0  0  0
  -20.7906  -23.3453   17.7543 N   0  3  0  0  0  0  0  0  0  0  0  0
  -29.5240  -15.0689   21.7406 O   0  0  0  0  0  0  0  0  0  0  0  0
  -23.3158  -28.9840   23.4132 O   0  0  0  0  0  0  0  0  0  0  0  0
  -20.2271  -27.8553   21.5745 O   0  0  0  0  0  0  0  0  0  0  0  0
  -22.2719  -23.8363   20.0955 O   0  0  0  0  0  0  0  0  0  0  0  0
  -24.9943  -23.3526   18.9286 O   0  0  0  0  0  0  0  0  0  0  0  0
  -23.1306  -11.2343   19.5032 O   0  0  0  0  0  0  0  0  0  0  0  0
  -28.4745  -26.6428   20.0351 O   0  0  0  0  0  0  0  0  0  1  0  0
  -23.4924   -6.9922   23.0072 F   0  0  0  0  0  0  0  0  0  0  0  0
  -25.5616  -10.0221   20.0166 F   0  0  0  0  0  0  0  0  0  0  0  0
  1  2  1  0  0  0  0
  1  5  2  0  0  0  0
  2  6  2  0  0  0  0
  3  8  2  0  0  0  0
  3 16  1  0  0  0  0
  4  9  1  0  0  0  0
  4 16  2  0  0  0  0
  5 18  1  0  0  0  0
  6 20  1  0  0  0  0
  7 10  2  0  0  0  0
  7 19  1  0  0  0  0
  8 24  1  0  0  0  0
  9 24  2  0  0  0  0
 10 25  1  0  0  0  0
 11 12  2  0  0  0  0
 11 26  1  0  0  0  0
 12 27  1  0  0  0  0
 13 21  1  0  0  0  0
 13 25  2  0  0  0  0
 14 27  2  0  0  0  0
 14 28  1  0  0  0  0
 15 22  2  0  0  0  0
 15 68  1  0  0  0  0
 16 29  1  0  0  0  0
 17 29  1  0  0  0  0
 17 31  2  0  0  0  0
 17 32  1  0  0  0  0
 18 20  2  0  0  0  0
 18 37  1  0  0  0  0
 19 21  2  0  0  0  0
 19 38  1  0  0  0  0
 20 46  1  0  0  0  0
 21 39  1  0  0  0  0
 22 23  1  0  0  0  0
 22 56  1  0  0  0  0
 23 30  2  0  0  0  0
 23 49  1  0  0  0  0
 24 83  1  0  0  0  0
 25 84  1  0  0  0  0
 26 28  2  0  0  0  0
 26 83  1  0  0  0  0
 27 85  1  0  0  0  0
 28 86  1  0  0  0  0
 29 67  2  0  0  0  0
 30 57  1  0  0  0  0
 30 68  1  0  0  0  0
 31 69  1  0  0  0  0
 31 72  1  0  0  0  0
 32 73  1  0  0  0  0
 32 78  2  0  0  0  0
 33 47  1  0  0  0  0
 33 74  1  0  0  0  0
 33 79  2  0  0  0  0
 34 64  1  0  0  0  0
 34 70  1  0  0  0  0
 34 80  2  0  0  0  0
 35 65  1  0  0  0  0
 35 75  1  0  0  0  0
 35 81  2  0  0  0  0
 36 71  1  0  0  0  0
 36 76  1  0  0  0  0
 36 82  2  0  0  0  0
 37 40  1  0  0  0  0
 38 47  1  0  0  0  0
 39 70  1  0  0  0  0
 40 42  1  0  0  0  0
 41 43  1  0  0  0  0
 41 44  1  0  0  0  0
 42 46  1  0  0  0  0
 43 48  1  0  0  0  0
 44 71  1  0  0  0  0
 45 48  1  0  0  0  0
 45 71  1  0  0  0  0
 46 74  1  0  0  0  0
 47 70  1  0  0  0  0
 48 69  1  0  0  0  0
 50 58  1  0  0  0  0
 51 65  1  0  0  0  0
 52 66  1  0  0  0  0
 53 66  1  0  0  0  0
 54 66  1  0  0  0  0
 55 77  1  0  0  0  0
 56 59  1  0  0  0  0
 57 63  1  0  0  0  0
 58 61  1  0  0  0  0
 59 60  1  0  0  0  0
 60 62  1  0  0  0  0
 61 68  1  0  0  0  0
 62 76  1  0  0  0  0
 63 84  1  0  0  0  0
 64 66  1  0  0  0  0
 64 75  1  0  0  0  0
 65 77  1  0  0  0  0
 67 69  1  0  0  0  0
M  CHG  1  77   1
M  ISO  4  36 100  63 101  76 100  84 101
M  END
> <Batch ID>
0032

> <Smiles>
CCCn1cc(CCCC[100NH:0][100C:0](=O)N2CCCC(n3nc(-c4ccc(Oc5ccc(F)cc5F)cc4)c(C(N)=O)c3N)C2)c(C)c1C[101CH2:1][101O:1]c1ccc2c(c1)CN(C(=O)C(NC(=O)C(C)NC)C(C)(C)C)C(C(=O)NC1CCCc3ccccc31)C2

> <Shape>
0.265

> <Color>
0.081

> <Negative vol penalty>
0.000

$$$$

  -OEChem-04052316453D

 85 93  0     1  0  0  0  0  0999 V2000
  -26.3107  -19.6162   25.9233 C   0  0  0  0  0  0  0  0  0  0  0  0
  -26.6984  -20.4568   24.8848 C   0  0  0  0  0  0  0  0  0  0  0  0
  -24.0316  -12.1955   21.6443 C   0  0  0  0  0  0  0  0  0  0  0  0
  -22.6658  -13.2131   19.9309 C   0  0  0  0  0  0  0  0  0  0  0  0
  -24.9684  -19.5392   26.2921 C   0  0  0  0  0  0  0  0  0  0  0  0
  -25.7437  -21.2201   24.2137 C   0  0  0  0  0  0  0  0  0  0  0  0
  -27.2409  -26.0029   23.4869 C   0  0  0  0  0  0  0  0  0  0  0  0
  -22.9063  -11.5519   22.1592 C   0  0  0  0  0  0  0  0  0  0  0  0
  -21.5404  -12.5695   20.4457 C   0  0  0  0  0  0  0  0  0  0  0  0
  -28.1450  -26.2367   22.4517 C   0  0  0  0  0  0  0  0  0  0  0  0
  -21.0285   -8.8406   21.4140 C   0  0  0  0  0  0  0  0  0  0  0  0
  -21.1486   -7.4912   21.7460 C   0  0  0  0  0  0  0  0  0  0  0  0
  -26.3323  -26.9804   21.0446 C   0  0  0  0  0  0  0  0  0  0  0  0
  -29.3906  -23.9354   17.7975 C   0  0  0  0  0  0  0  0  0  0  0  0
  -20.5758   -8.0038   24.0365 C   0  0  0  0  0  0  0  0  0  0  0  0
  -23.9113  -13.0261   20.5302 C   0  0  0  0  0  0  0  0  0  0  0  0
  -25.9521  -13.2083   19.0104 C   0  0  0  0  0  0  0  0  0  0  0  0
  -23.9981  -20.3092   25.6316 C   0  0  0  0  0  0  0  0  0  0  0  0
  -25.8719  -26.2462   23.3048 C   0  0  0  0  0  0  0  0  0  0  0  0
  -24.3869  -21.1523   24.5731 C   0  0  0  0  0  0  0  0  0  0  0  0
  -25.4132  -26.7513   22.0799 C   0  0  0  0  0  0  0  0  0  0  0  0
  -30.0076  -22.7473   18.1729 C   0  0  0  0  0  0  0  0  0  0  0  0
  -31.0737  -22.7757   19.0651 C   0  0  0  0  0  0  0  0  0  0  0  0
  -21.6607  -11.7389   21.5598 C   0  0  0  0  0  0  0  0  0  0  0  0
  -27.6904  -26.7228   21.2293 C   0  0  0  0  0  0  0  0  0  0  0  0
  -20.6821   -9.7716   22.3932 C   0  0  0  0  0  0  0  0  0  0  0  0
  -20.9223   -7.0728   23.0573 C   0  0  0  0  0  0  0  0  0  0  0  0
  -20.4557   -9.3533   23.7044 C   0  0  0  0  0  0  0  0  0  0  0  0
  -25.0733  -13.6917   19.9983 C   0  0  0  0  0  0  0  0  0  0  0  0
  -29.8736  -25.1161   18.3384 C   0  0  0  0  0  0  0  0  0  0  0  0
  -31.4815  -24.0083   19.5490 C   0  0  0  0  0  0  0  0  0  0  0  0
  -26.8829  -14.2070   18.8604 C   0  0  0  0  0  0  0  0  0  0  0  0
  -25.9290  -11.9674   18.2925 C   0  0  0  0  0  0  0  0  0  0  0  0
  -23.2473  -24.4543   23.3686 C   0  0  0  0  0  0  0  0  0  0  0  0
  -21.7556  -27.3165   23.0447 C   0  0  0  0  0  0  0  0  0  0  0  0
  -21.9155  -30.5671   22.0177 C   0  0  0  0  0  0  0  0  0  0  0  0
  -28.1205  -19.5000   18.2280 C   0  0  0  0  0  0  0  0  0  0  0  0
  -22.5527  -20.1568   26.0344 C   0  0  0  0  0  0  0  0  0  0  0  0
  -24.9130  -26.0141   24.4402 C   0  0  0  0  0  0  0  0  0  0  0  0
  -23.9561  -27.0481   21.8402 C   0  0  0  0  0  0  0  0  0  0  0  0
  -21.6555  -21.2799   25.5206 C   0  0  0  0  0  0  0  0  0  0  0  0
  -27.7520  -18.3449   21.6379 C   0  0  0  0  0  0  0  0  0  0  0  0
  -21.9362  -21.5555   24.0468 C   0  0  0  0  0  0  0  0  0  0  0  0
  -27.0901  -16.9819   21.4275 C   0  0  0  0  0  0  0  0  0  0  0  0
  -27.2347  -19.3715   20.6345 C   0  0  0  0  0  0  0  0  0  0  0  0
  -26.7201  -17.6046   18.9953 C   0  0  0  0  0  0  0  0  0  0  0  0
  -23.3842  -22.0146   23.8375 C   0  0  1  0  0  0  0  0  0  0  0  0
  -23.4745  -25.8101   23.9751 C   0  0  1  0  0  0  0  0  0  0  0  0
  -27.2176  -16.5170   19.9647 C   0  0  2  0  0  0  0  0  0  0  0  0
  -35.0750  -19.7920   18.4247 C   0  0  0  0  0  0  0  0  0  0  0  0
  -20.5258  -32.6496   21.8469 C   0  0  0  0  0  0  0  0  0  0  0  0
  -20.2954  -26.1417   20.6368 C   0  0  0  0  0  0  0  0  0  0  0  0
  -19.6810  -28.4726   19.9601 C   0  0  0  0  0  0  0  0  0  0  0  0
  -18.8725  -27.5525   22.1333 C   0  0  0  0  0  0  0  0  0  0  0  0
  -23.7399  -32.0699   23.7988 C   0  0  0  0  0  0  0  0  0  0  0  0
  -31.7482  -21.5101   19.4791 C   0  0  0  0  0  0  0  0  0  0  0  0
  -29.5095  -21.4593   17.6046 C   0  0  0  0  0  0  0  0  0  0  0  0
  -29.2286  -26.4254   17.9537 C   0  0  0  0  0  0  0  0  0  0  0  0
  -33.7626  -19.9979   19.1642 C   0  0  0  0  0  0  0  0  0  0  0  0
  -33.0954  -21.3143   18.7658 C   0  0  0  0  0  0  0  0  0  0  0  0
  -28.0814  -26.8022   18.8848 C   0  0  0  0  0  0  0  0  0  1  0  0
  -21.3121  -28.1649   21.8774 C   0  0  1  0  0  0  0  0  0  0  0  0
  -21.5067  -31.8602   22.6998 C   0  0  2  0  0  0  0  0  0  0  0  0
  -20.0675  -27.5756   21.1555 C   0  0  0  0  0  0  0  0  0  0  0  0
  -25.4154  -14.9033   20.4445 N   0  0  0  0  0  0  0  0  0  0  0  0
  -30.9069  -25.1834   19.2076 N   0  0  0  0  0  0  0  0  0  0  0  0
  -26.5195  -15.1895   19.7338 N   0  0  0  0  0  0  0  0  0  0  0  0
  -23.0569  -26.7988   22.9790 N   0  0  0  0  0  0  0  0  0  0  0  0
  -27.4021  -18.8756   19.2612 N   0  0  0  0  0  0  0  0  0  0  0  0
  -27.9688  -14.3319   18.0681 N   0  0  0  0  0  0  0  0  0  0  0  0
  -24.9025  -11.0543   18.5695 N   0  0  0  0  0  0  0  0  0  0  0  0
  -23.5344  -23.4028   24.2180 N   0  0  0  0  0  0  0  0  0  0  0  0
  -21.1161  -29.5117   22.4029 N   0  0  0  0  0  0  0  0  0  0  0  0
  -28.7309  -20.7033   18.5601 N   0  0  0  0  0  0  0  0  0  0  0  0
  -22.7024  -32.7132   22.9521 N   0  3  0  0  0  0  0  0  0  0  0  0
  -26.8025  -11.6700   17.4427 O   0  0  0  0  0  0  0  0  0  0  0  0
  -22.8402  -24.3685   22.2160 O   0  0  0  0  0  0  0  0  0  0  0  0
  -20.9785  -27.1261   23.9836 O   0  0  0  0  0  0  0  0  0  0  0  0
  -22.8481  -30.5007   21.2201 O   0  0  0  0  0  0  0  0  0  0  0  0
  -28.2156  -19.0180   17.0941 O   0  0  0  0  0  0  0  0  0  0  0  0
  -20.5624  -11.1108   22.0618 O   0  0  0  0  0  0  0  0  0  0  0  0
  -28.5707  -26.9513   20.2170 O   0  0  0  0  0  0  0  0  0  1  0  0
  -21.0362   -5.7767   23.3757 F   0  0  0  0  0  0  0  0  0  0  0  0
  -20.1215  -10.2429   24.6492 F   0  0  0  0  0  0  0  0  0  0  0  0
  -32.7848  -24.1773   20.6594 Cl  0  0  0  0  0  0  0  0  0  0  0  0
  1  2  1  0  0  0  0
  1  5  2  0  0  0  0
  2  6  2  0  0  0  0
  3  8  2  0  0  0  0
  3 16  1  0  0  0  0
  4  9  1  0  0  0  0
  4 16  2  0  0  0  0
  5 18  1  0  0  0  0
  6 20  1  0  0  0  0
  7 10  2  0  0  0  0
  7 19  1  0  0  0  0
  8 24  1  0  0  0  0
  9 24  2  0  0  0  0
 10 25  1  0  0  0  0
 11 12  2  0  0  0  0
 11 26  1  0  0  0  0
 12 27  1  0  0  0  0
 13 21  1  0  0  0  0
 13 25  2  0  0  0  0
 14 22  2  0  0  0  0
 14 30  1  0  0  0  0
 15 27  2  0  0  0  0
 15 28  1  0  0  0  0
 16 29  1  0  0  0  0
 17 29  1  0  0  0  0
 17 32  2  0  0  0  0
 17 33  1  0  0  0  0
 18 20  2  0  0  0  0
 18 38  1  0  0  0  0
 19 21  2  0  0  0  0
 19 39  1  0  0  0  0
 20 47  1  0  0  0  0
 21 40  1  0  0  0  0
 22 23  1  0  0  0  0
 22 57  1  0  0  0  0
 23 31  2  0  0  0  0
 23 56  1  0  0  0  0
 24 81  1  0  0  0  0
 25 82  1  0  0  0  0
 26 28  2  0  0  0  0
 26 81  1  0  0  0  0
 27 83  1  0  0  0  0
 28 84  1  0  0  0  0
 29 65  2  0  0  0  0
 30 58  1  0  0  0  0
 30 66  2  0  0  0  0
 31 66  1  0  0  0  0
 31 85  1  0  0  0  0
 32 67  1  0  0  0  0
 32 70  1  0  0  0  0
 33 71  1  0  0  0  0
 33 76  2  0  0  0  0
 34 48  1  0  0  0  0
 34 72  1  0  0  0  0
 34 77  2  0  0  0  0
 35 62  1  0  0  0  0
 35 68  1  0  0  0  0
 35 78  2  0  0  0  0
 36 63  1  0  0  0  0
 36 73  1  0  0  0  0
 36 79  2  0  0  0  0
 37 69  1  0  0  0  0
 37 74  1  0  0  0  0
 37 80  2  0  0  0  0
 38 41  1  0  0  0  0
 39 48  1  0  0  0  0
 40 68  1  0  0  0  0
 41 43  1  0  0  0  0
 42 44  1  0  0  0  0
 42 45  1  0  0  0  0
 43 47  1  0  0  0  0
 44 49  1  0  0  0  0
 45 69  1  0  0  0  0
 46 49  1  0  0  0  0
 46 69  1  0  0  0  0
 47 72  1  0  0  0  0
 48 68  1  0  0  0  0
 49 67  1  0  0  0  0
 50 59  1  0  0  0  0
 51 63  1  0  0  0  0
 52 64  1  0  0  0  0
 53 64  1  0  0  0  0
 54 64  1  0  0  0  0
 55 75  1  0  0  0  0
 56 60  1  0  0  0  0
 57 74  1  0  0  0  0
 58 61  1  0  0  0  0
 59 60  1  0  0  0  0
 61 82  1  0  0  0  0
 62 64  1  0  0  0  0
 62 73  1  0  0  0  0
 63 75  1  0  0  0  0
 65 67  1  0  0  0  0
M  CHG  1  75   1
M  ISO  4  37 100  61 101  74 100  82 101
M  END
> <Batch ID>
0032

> <Smiles>
CCCCc1c(C[100NH:0][100C:0](=O)N2CCCC(n3nc(-c4ccc(Oc5ccc(F)cc5F)cc4)c(C(N)=O)c3N)C2)cc(C[101CH2:1][101O:1]c2ccc3c(c2)CN(C(=O)C(NC(=O)C(C)NC)C(C)(C)C)C(C(=O)NC2CCCc4ccccc42)C3)nc1Cl

> <Shape>
0.208

> <Color>
0.069

> <Negative vol penalty>
0.000

$$$$

  -OEChem-04052316453D

 85 93  0     1  0  0  0  0  0999 V2000
  -31.2151  -33.4733   15.2041 C   0  0  0  0  0  0  0  0  0  0  0  0
  -31.0893  -32.0879   15.1946 C   0  0  0  0  0  0  0  0  0  0  0  0
  -23.0312   -9.8311   19.9281 C   0  0  0  0  0  0  0  0  0  0  0  0
  -23.8998   -9.8627   22.1823 C   0  0  0  0  0  0  0  0  0  0  0  0
  -31.0407  -34.1798   16.3934 C   0  0  0  0  0  0  0  0  0  0  0  0
  -30.7900  -31.4080   16.3747 C   0  0  0  0  0  0  0  0  0  0  0  0
  -27.2788  -25.6356   18.7554 C   0  0  0  0  0  0  0  0  0  0  0  0
  -22.7819   -8.4636   20.0433 C   0  0  0  0  0  0  0  0  0  0  0  0
  -23.6505   -8.4952   22.2976 C   0  0  0  0  0  0  0  0  0  0  0  0
  -27.4764  -24.5055   19.5475 C   0  0  0  0  0  0  0  0  0  0  0  0
  -20.9921   -6.4893   22.8723 C   0  0  0  0  0  0  0  0  0  0  0  0
  -20.3895   -6.0387   24.0468 C   0  0  0  0  0  0  0  0  0  0  0  0
  -27.1185  -25.8376   21.5266 C   0  0  0  0  0  0  0  0  0  0  0  0
  -29.2967  -20.0593   23.7690 C   0  0  0  0  0  0  0  0  0  0  0  0
  -26.9885  -20.2623   22.2153 C   0  0  0  0  0  0  0  0  0  0  0  0
  -22.3045   -4.6339   24.4903 C   0  0  0  0  0  0  0  0  0  0  0  0
  -23.5902  -10.5307   20.9976 C   0  0  0  0  0  0  0  0  0  0  0  0
  -22.9731  -12.9975   21.2017 C   0  0  0  0  0  0  0  0  0  0  0  0
  -30.7296  -33.5091   17.5867 C   0  0  0  0  0  0  0  0  0  0  0  0
  -27.0099  -26.8795   19.3443 C   0  0  0  0  0  0  0  0  0  0  0  0
  -30.6126  -32.1060   17.5813 C   0  0  0  0  0  0  0  0  0  0  0  0
  -26.9154  -26.9814   20.7396 C   0  0  0  0  0  0  0  0  0  0  0  0
  -29.1756  -21.0841   22.8306 C   0  0  0  0  0  0  0  0  0  0  0  0
  -28.2637  -19.1358   23.9305 C   0  0  0  0  0  0  0  0  0  0  0  0
  -28.0215  -21.1857   22.0538 C   0  0  0  0  0  0  0  0  0  0  0  0
  -23.0915   -7.7956   21.2280 C   0  0  0  0  0  0  0  0  0  0  0  0
  -27.3991  -24.6069   20.9335 C   0  0  0  0  0  0  0  0  0  0  0  0
  -22.2509   -6.0122   22.5068 C   0  0  0  0  0  0  0  0  0  0  0  0
  -21.0457   -5.1110   24.8558 C   0  0  0  0  0  0  0  0  0  0  0  0
  -22.9071   -5.0846   23.3158 C   0  0  0  0  0  0  0  0  0  0  0  0
  -27.1097  -19.2374   23.1537 C   0  0  0  0  0  0  0  0  0  0  0  0
  -23.8485  -11.9433   20.8790 C   0  0  0  0  0  0  0  0  0  0  0  0
  -23.6852  -14.1358   20.9122 C   0  0  0  0  0  0  0  0  0  0  0  0
  -21.6360  -12.9520   21.7171 C   0  0  0  0  0  0  0  0  0  0  0  0
  -28.4739  -29.7005   19.3957 C   0  0  0  0  0  0  0  0  0  0  0  0
  -25.7865  -30.6293   20.9568 C   0  0  0  0  0  0  0  0  0  0  0  0
  -23.0951  -29.7545   22.8642 C   0  0  0  0  0  0  0  0  0  0  0  0
  -29.5485  -15.3134   20.6194 C   0  0  0  0  0  0  0  0  0  0  0  0
  -30.5969  -34.3113   18.8569 C   0  0  0  0  0  0  0  0  0  0  0  0
  -26.7727  -28.0837   18.4748 C   0  0  0  0  0  0  0  0  0  0  0  0
  -26.6092  -28.2897   21.4202 C   0  0  0  0  0  0  0  0  0  0  0  0
  -29.9121  -33.5503   19.9892 C   0  0  0  0  0  0  0  0  0  0  0  0
  -27.1438  -15.7580   18.0317 C   0  0  0  0  0  0  0  0  0  0  0  0
  -30.4940  -32.1461   20.1171 C   0  0  0  0  0  0  0  0  0  0  0  0
  -25.9476  -14.9258   18.4971 C   0  0  0  0  0  0  0  0  0  0  0  0
  -28.4695  -15.0957   18.4002 C   0  0  0  0  0  0  0  0  0  0  0  0
  -27.4174  -13.9178   20.2921 C   0  0  0  0  0  0  0  0  0  0  0  0
  -30.2644  -31.3350   18.8360 C   0  0  1  0  0  0  0  0  0  0  0  0
  -27.0139  -29.4028   19.2022 C   0  0  1  0  0  0  0  0  0  0  0  0
  -26.0581  -14.5726   19.9925 C   0  0  2  0  0  0  0  0  0  0  0  0
  -30.3225  -23.0949   23.7938 C   0  0  0  0  0  0  0  0  0  0  0  0
  -21.0951  -30.7377   24.0177 C   0  0  0  0  0  0  0  0  0  0  0  0
  -27.5930  -31.7017   23.1696 C   0  0  0  0  0  0  0  0  0  0  0  0
  -25.5886  -31.7904   24.6672 C   0  0  0  0  0  0  0  0  0  0  0  0
  -25.6577  -33.1781   22.5955 C   0  0  0  0  0  0  0  0  0  0  0  0
  -21.2197  -28.1458   21.2352 C   0  0  0  0  0  0  0  0  0  0  0  0
  -30.2948  -22.0604   22.6728 C   0  0  0  0  0  0  0  0  0  0  0  0
  -28.4325  -18.0526   24.9464 C   0  0  0  0  0  0  0  0  0  0  0  0
  -27.8702  -22.2781   21.0364 C   0  0  0  0  0  0  0  0  0  1  0  0
  -28.7904  -16.7057   24.3018 C   0  0  0  0  0  0  0  0  0  0  0  0
  -30.1198  -16.7783   23.5447 C   0  0  0  0  0  0  0  0  0  0  0  0
  -30.5042  -15.4478   22.9058 C   0  0  0  0  0  0  0  0  0  0  0  0
  -25.3515  -30.6760   22.4017 C   0  0  1  0  0  0  0  0  0  0  0  0
  -21.6210  -30.0961   22.7431 C   0  0  2  0  0  0  0  0  0  0  0  0
  -26.0554  -31.8122   23.1961 C   0  0  0  0  0  0  0  0  0  0  0  0
  -25.0265  -12.3735   20.4195 N   0  0  0  0  0  0  0  0  0  0  0  0
  -24.8964  -13.7107   20.4514 N   0  0  0  0  0  0  0  0  0  0  0  0
  -26.3914  -29.4397   20.5271 N   0  0  0  0  0  0  0  0  0  0  0  0
  -28.5109  -14.7880   19.8318 N   0  0  0  0  0  0  0  0  0  0  0  0
  -23.3871  -15.4489   21.0094 N   0  0  0  0  0  0  0  0  0  0  0  0
  -21.0550  -11.6994   21.9577 N   0  0  0  0  0  0  0  0  0  0  0  0
  -28.8985  -30.8604   18.7763 N   0  0  0  0  0  0  0  0  0  0  0  0
  -23.8957  -30.7705   22.3869 N   0  0  0  0  0  0  0  0  0  0  0  0
  -29.5094  -14.9783   21.9673 N   0  0  0  0  0  0  0  0  0  0  0  0
  -20.8246  -28.8657   22.4732 N   0  3  0  0  0  0  0  0  0  0  0  0
  -20.9700  -13.9910   21.9416 O   0  0  0  0  0  0  0  0  0  0  0  0
  -29.1638  -28.9352   20.0591 O   0  0  0  0  0  0  0  0  0  0  0  0
  -25.5900  -31.6095   20.2342 O   0  0  0  0  0  0  0  0  0  0  0  0
  -23.4963  -28.6940   23.3385 O   0  0  0  0  0  0  0  0  0  0  0  0
  -30.4405  -16.0326   20.1566 O   0  0  0  0  0  0  0  0  0  0  0  0
  -22.8482   -6.4612   21.3409 O   0  0  0  0  0  0  0  0  0  0  0  0
  -27.5922  -23.5055   21.7090 O   0  0  0  0  0  0  0  0  0  1  0  0
  -20.4676   -4.6795   25.9844 F   0  0  0  0  0  0  0  0  0  0  0  0
  -24.1170   -4.6235   22.9705 F   0  0  0  0  0  0  0  0  0  0  0  0
  -25.8112  -18.1133   23.3254 Cl  0  0  0  0  0  0  0  0  0  0  0  0
  1  2  1  0  0  0  0
  1  5  2  0  0  0  0
  2  6  2  0  0  0  0
  3  8  2  0  0  0  0
  3 17  1  0  0  0  0
  4  9  1  0  0  0  0
  4 17  2  0  0  0  0
  5 19  1  0  0  0  0
  6 21  1  0  0  0  0
  7 10  2  0  0  0  0
  7 20  1  0  0  0  0
  8 26  1  0  0  0  0
  9 26  2  0  0  0  0
 10 27  1  0  0  0  0
 11 12  2  0  0  0  0
 11 28  1  0  0  0  0
 12 29  1  0  0  0  0
 13 22  1  0  0  0  0
 13 27  2  0  0  0  0
 14 23  1  0  0  0  0
 14 24  2  0  0  0  0
 15 25  1  0  0  0  0
 15 31  2  0  0  0  0
 16 29  2  0  0  0  0
 16 30  1  0  0  0  0
 17 32  1  0  0  0  0
 18 32  1  0  0  0  0
 18 33  2  0  0  0  0
 18 34  1  0  0  0  0
 19 21  2  0  0  0  0
 19 39  1  0  0  0  0
 20 22  2  0  0  0  0
 20 40  1  0  0  0  0
 21 48  1  0  0  0  0
 22 41  1  0  0  0  0
 23 25  2  0  0  0  0
 23 57  1  0  0  0  0
 24 31  1  0  0  0  0
 24 58  1  0  0  0  0
 25 59  1  0  0  0  0
 26 81  1  0  0  0  0
 27 82  1  0  0  0  0
 28 30  2  0  0  0  0
 28 81  1  0  0  0  0
 29 83  1  0  0  0  0
 30 84  1  0  0  0  0
 31 85  1  0  0  0  0
 32 66  2  0  0  0  0
 33 67  1  0  0  0  0
 33 70  1  0  0  0  0
 34 71  1  0  0  0  0
 34 76  2  0  0  0  0
 35 49  1  0  0  0  0
 35 72  1  0  0  0  0
 35 77  2  0  0  0  0
 36 63  1  0  0  0  0
 36 68  1  0  0  0  0
 36 78  2  0  0  0  0
 37 64  1  0  0  0  0
 37 73  1  0  0  0  0
 37 79  2  0  0  0  0
 38 69  1  0  0  0  0
 38 74  1  0  0  0  0
 38 80  2  0  0  0  0
 39 42  1  0  0  0  0
 40 49  1  0  0  0  0
 41 68  1  0  0  0  0
 42 44  1  0  0  0  0
 43 45  1  0  0  0  0
 43 46  1  0  0  0  0
 44 48  1  0  0  0  0
 45 50  1  0  0  0  0
 46 69  1  0  0  0  0
 47 50  1  0  0  0  0
 47 69  1  0  0  0  0
 48 72  1  0  0  0  0
 49 68  1  0  0  0  0
 50 67  1  0  0  0  0
 51 57  1  0  0  0  0
 52 64  1  0  0  0  0
 53 65  1  0  0  0  0
 54 65  1  0  0  0  0
 55 65  1  0  0  0  0
 56 75  1  0  0  0  0
 58 60  1  0  0  0  0
 59 82  1  0  0  0  0
 60 61  1  0  0  0  0
 61 62  1  0  0  0  0
 62 74  1  0  0  0  0
 63 65  1  0  0  0  0
 63 73  1  0  0  0  0
 64 75  1  0  0  0  0
 66 67  1  0  0  0  0
M  CHG  1  75   1
M  ISO  4  38 100  59 101  74 100  82 101
M  END
> <Batch ID>
0032

> <Smiles>
CCc1cc(CCCC[100NH:0][100C:0](=O)N2CCCC(n3nc(-c4ccc(Oc5ccc(F)cc5F)cc4)c(C(N)=O)c3N)C2)c(Cl)cc1[101CH2:1][101O:1]c1ccc2c(c1)CN(C(=O)C(NC(=O)C(C)NC)C(C)(C)C)C(C(=O)NC1CCCc3ccccc31)C2

> <Shape>
0.267

> <Color>
0.100

> <Negative vol penalty>
0.000

$$$$

  -OEChem-04052316453D

 83 91  0     1  0  0  0  0  0999 V2000
  -22.1077  -12.3188   18.5279 C   0  0  0  0  0  0  0  0  0  0  0  0
  -21.8574  -13.6171   18.9606 C   0  0  0  0  0  0  0  0  0  0  0  0
  -30.3803  -27.7205   19.7140 C   0  0  0  0  0  0  0  0  0  0  0  0
  -30.0694  -27.4953   22.0993 C   0  0  0  0  0  0  0  0  0  0  0  0
  -23.2647  -11.6589   18.9398 C   0  0  0  0  0  0  0  0  0  0  0  0
  -22.7635  -14.2558   19.8064 C   0  0  0  0  0  0  0  0  0  0  0  0
  -24.1637  -20.2174   19.8740 C   0  0  0  0  0  0  0  0  0  0  0  0
  -31.7616  -27.7768   19.8993 C   0  0  0  0  0  0  0  0  0  0  0  0
  -31.4508  -27.5515   22.2846 C   0  0  0  0  0  0  0  0  0  0  0  0
  -23.7297  -21.2738   20.6737 C   0  0  0  0  0  0  0  0  0  0  0  0
  -35.3886  -27.6171   19.7126 C   0  0  0  0  0  0  0  0  0  0  0  0
  -36.1888  -26.8572   18.8596 C   0  0  0  0  0  0  0  0  0  0  0  0
  -25.6634  -20.9897   22.0878 C   0  0  0  0  0  0  0  0  0  0  0  0
  -20.5082  -26.1359   23.4854 C   0  0  0  0  0  0  0  0  0  0  0  0
  -19.1935  -26.6893   21.5355 C   0  0  0  0  0  0  0  0  0  0  0  0
  -35.0899  -24.8449   19.6213 C   0  0  0  0  0  0  0  0  0  0  0  0
  -29.5342  -27.5798   20.8140 C   0  0  0  0  0  0  0  0  0  0  0  0
  -27.3234  -26.3719   20.4126 C   0  0  0  0  0  0  0  0  0  0  0  0
  -24.1902  -12.2933   19.7834 C   0  0  0  0  0  0  0  0  0  0  0  0
  -25.3470  -19.5310   20.1821 C   0  0  0  0  0  0  0  0  0  0  0  0
  -23.9333  -13.6032   20.2311 C   0  0  0  0  0  0  0  0  0  0  0  0
  -26.1115  -19.9266   21.2890 C   0  0  0  0  0  0  0  0  0  0  0  0
  -19.9790  -27.0899   22.6163 C   0  0  0  0  0  0  0  0  0  0  0  0
  -20.2519  -24.7812   23.2737 C   0  0  0  0  0  0  0  0  0  0  0  0
  -19.4663  -24.3806   22.1929 C   0  0  0  0  0  0  0  0  0  0  0  0
  -32.2969  -27.6923   21.1846 C   0  0  0  0  0  0  0  0  0  0  0  0
  -24.4781  -21.6583   21.7824 C   0  0  0  0  0  0  0  0  0  0  0  0
  -34.4390  -26.9910   20.5201 C   0  0  0  0  0  0  0  0  0  0  0  0
  -36.0395  -25.4711   18.8139 C   0  0  0  0  0  0  0  0  0  0  0  0
  -34.2897  -25.6049   20.4744 C   0  0  0  0  0  0  0  0  0  0  0  0
  -18.9371  -25.3346   21.3238 C   0  0  0  0  0  0  0  0  0  0  0  0
  -28.1072  -27.5222   20.6232 C   0  0  0  0  0  0  0  0  0  0  0  0
  -26.0407  -26.8478   20.2912 C   0  0  0  0  0  0  0  0  0  0  0  0
  -27.7194  -24.9961   20.3339 C   0  0  0  0  0  0  0  0  0  0  0  0
  -26.0643  -16.5330   20.9577 C   0  0  0  0  0  0  0  0  0  0  0  0
  -29.1134  -17.6196   20.7466 C   0  0  0  0  0  0  0  0  0  0  0  0
  -31.2598  -20.2700   20.8707 C   0  0  0  0  0  0  0  0  0  0  0  0
  -21.9060  -30.1847   21.9984 C   0  0  0  0  0  0  0  0  0  0  0  0
  -25.4034  -11.5225   20.2401 C   0  0  0  0  0  0  0  0  0  0  0  0
  -25.8154  -18.4109   19.2941 C   0  0  0  0  0  0  0  0  0  0  0  0
  -27.3997  -19.2353   21.6509 C   0  0  0  0  0  0  0  0  0  0  0  0
  -26.4973  -12.4052   20.8355 C   0  0  0  0  0  0  0  0  0  0  0  0
  -24.3183  -31.5763   19.7800 C   0  0  0  0  0  0  0  0  0  0  0  0
  -25.9001  -13.4018   21.8239 C   0  0  0  0  0  0  0  0  0  0  0  0
  -25.4563  -30.5542   19.7893 C   0  0  0  0  0  0  0  0  0  0  0  0
  -23.6674  -31.7088   21.1551 C   0  0  0  0  0  0  0  0  0  0  0  0
  -24.3449  -29.4168   21.7565 C   0  0  0  0  0  0  0  0  0  0  0  0
  -24.9044  -14.3385   21.1292 C   0  0  1  0  0  0  0  0  0  0  0  0
  -26.7684  -17.4494   19.9974 C   0  0  1  0  0  0  0  0  0  0  0  0
  -24.9956  -29.2073   20.3784 C   0  0  2  0  0  0  0  0  0  0  0  0
  -19.2014  -22.9227   21.9796 C   0  0  0  0  0  0  0  0  0  0  0  0
  -33.6975  -20.8405   20.6988 C   0  0  0  0  0  0  0  0  0  0  0  0
  -29.5652  -16.5261   23.5591 C   0  0  0  0  0  0  0  0  0  0  0  0
  -31.6360  -17.9265   23.6956 C   0  0  0  0  0  0  0  0  0  0  0  0
  -31.4567  -16.1334   21.9708 C   0  0  0  0  0  0  0  0  0  0  0  0
  -30.8056  -22.0109   18.5208 C   0  0  0  0  0  0  0  0  0  0  0  0
  -20.8381  -23.7721   24.2284 C   0  0  0  0  0  0  0  0  0  0  0  0
  -20.2527  -28.5383   22.8439 C   0  0  0  0  0  0  0  0  0  0  0  0
  -22.3312  -23.5152   24.0129 C   0  0  0  0  0  0  0  0  0  0  0  0
  -22.6485  -22.9031   22.6535 C   0  0  0  0  0  0  0  0  0  1  0  0
  -30.0939  -18.2466   21.7081 C   0  0  1  0  0  0  0  0  0  0  0  0
  -32.3838  -20.7001   19.9455 C   0  0  2  0  0  0  0  0  0  0  0  0
  -30.6627  -17.2201   22.7280 C   0  0  0  0  0  0  0  0  0  0  0  0
  -27.3830  -28.6444   20.6353 N   0  0  0  0  0  0  0  0  0  0  0  0
  -26.1307  -28.2016   20.4307 N   0  0  0  0  0  0  0  0  0  0  0  0
  -27.8123  -18.1419   20.7555 N   0  0  0  0  0  0  0  0  0  0  0  0
  -23.2518  -30.3966   21.6565 N   0  0  0  0  0  0  0  0  0  0  0  0
  -24.8560  -26.2362   20.0798 N   0  0  0  0  0  0  0  0  0  0  0  0
  -29.0775  -24.6823   20.4806 N   0  0  0  0  0  0  0  0  0  0  0  0
  -25.6075  -15.3614   20.3850 N   0  0  0  0  0  0  0  0  0  0  0  0
  -31.1088  -18.8995   20.8883 N   0  0  0  0  0  0  0  0  0  0  0  0
  -21.5957  -28.9111   22.4591 N   0  0  0  0  0  0  0  0  0  0  0  0
  -32.0619  -22.0109   19.3138 N   0  3  0  0  0  0  0  0  0  0  0  0
  -26.8955  -24.0740   20.1230 O   0  0  0  0  0  0  0  0  0  0  0  0
  -25.9456  -16.8638   22.1316 O   0  0  0  0  0  0  0  0  0  0  0  0
  -29.4900  -16.7050   20.0095 O   0  0  0  0  0  0  0  0  0  0  0  0
  -30.5857  -21.0696   21.5163 O   0  0  0  0  0  0  0  0  0  0  0  0
  -21.0437  -31.0638   21.8952 O   0  0  0  0  0  0  0  0  0  0  0  0
  -33.6447  -27.7469   21.3658 O   0  0  0  0  0  0  0  0  0  0  0  0
  -24.0565  -22.6886   22.5650 O   0  0  0  0  0  0  0  0  0  1  0  0
  -36.8070  -24.7416   17.9936 F   0  0  0  0  0  0  0  0  0  0  0  0
  -33.3783  -24.9978   21.2469 F   0  0  0  0  0  0  0  0  0  0  0  0
  -17.9588  -24.8793   19.9759 Cl  0  0  0  0  0  0  0  0  0  0  0  0
  1  2  1  0  0  0  0
  1  5  2  0  0  0  0
  2  6  2  0  0  0  0
  3  8  2  0  0  0  0
  3 17  1  0  0  0  0
  4  9  1  0  0  0  0
  4 17  2  0  0  0  0
  5 19  1  0  0  0  0
  6 21  1  0  0  0  0
  7 10  2  0  0  0  0
  7 20  1  0  0  0  0
  8 26  1  0  0  0  0
  9 26  2  0  0  0  0
 10 27  1  0  0  0  0
 11 12  2  0  0  0  0
 11 28  1  0  0  0  0
 12 29  1  0  0  0  0
 13 22  1  0  0  0  0
 13 27  2  0  0  0  0
 14 23  2  0  0  0  0
 14 24  1  0  0  0  0
 15 23  1  0  0  0  0
 15 31  2  0  0  0  0
 16 29  2  0  0  0  0
 16 30  1  0  0  0  0
 17 32  1  0  0  0  0
 18 32  1  0  0  0  0
 18 33  2  0  0  0  0
 18 34  1  0  0  0  0
 19 21  2  0  0  0  0
 19 39  1  0  0  0  0
 20 22  2  0  0  0  0
 20 40  1  0  0  0  0
 21 48  1  0  0  0  0
 22 41  1  0  0  0  0
 23 58  1  0  0  0  0
 24 25  2  0  0  0  0
 24 57  1  0  0  0  0
 25 31  1  0  0  0  0
 25 51  1  0  0  0  0
 26 79  1  0  0  0  0
 27 80  1  0  0  0  0
 28 30  2  0  0  0  0
 28 79  1  0  0  0  0
 29 81  1  0  0  0  0
 30 82  1  0  0  0  0
 31 83  1  0  0  0  0
 32 64  2  0  0  0  0
 33 65  1  0  0  0  0
 33 68  1  0  0  0  0
 34 69  1  0  0  0  0
 34 74  2  0  0  0  0
 35 49  1  0  0  0  0
 35 70  1  0  0  0  0
 35 75  2  0  0  0  0
 36 61  1  0  0  0  0
 36 66  1  0  0  0  0
 36 76  2  0  0  0  0
 37 62  1  0  0  0  0
 37 71  1  0  0  0  0
 37 77  2  0  0  0  0
 38 67  1  0  0  0  0
 38 72  1  0  0  0  0
 38 78  2  0  0  0  0
 39 42  1  0  0  0  0
 40 49  1  0  0  0  0
 41 66  1  0  0  0  0
 42 44  1  0  0  0  0
 43 45  1  0  0  0  0
 43 46  1  0  0  0  0
 44 48  1  0  0  0  0
 45 50  1  0  0  0  0
 46 67  1  0  0  0  0
 47 50  1  0  0  0  0
 47 67  1  0  0  0  0
 48 70  1  0  0  0  0
 49 66  1  0  0  0  0
 50 65  1  0  0  0  0
 52 62  1  0  0  0  0
 53 63  1  0  0  0  0
 54 63  1  0  0  0  0
 55 63  1  0  0  0  0
 56 73  1  0  0  0  0
 57 59  1  0  0  0  0
 58 72  1  0  0  0  0
 59 60  1  0  0  0  0
 60 80  1  0  0  0  0
 61 63  1  0  0  0  0
 61 71  1  0  0  0  0
 62 73  1  0  0  0  0
 64 65  1  0  0  0  0
M  CHG  1  73   1
M  ISO  4  38 100  60 101  72 100  80 101
M  END
> <Batch ID>
0032

> <Smiles>
CNC(C)C(=O)NC(C(=O)N1Cc2cc([101O:1][101CH2:1]CCc3cc(C[100NH:0][100C:0](=O)N4CCCC(n5nc(-c6ccc(Oc7ccc(F)cc7F)cc6)c(C(N)=O)c5N)C4)cc(Cl)c3C)ccc2CC1C(=O)NC1CCCc2ccccc21)C(C)(C)C

> <Shape>
0.221

> <Color>
0.075

> <Negative vol penalty>
0.000

$$$$

  -OEChem-04052316453D

 87 97  0     1  0  0  0  0  0999 V2000
  -16.7773  -29.4815   24.1944 C   0  0  0  0  0  0  0  0  0  0  0  0
  -17.4527  -28.2999   23.9059 C   0  0  0  0  0  0  0  0  0  0  0  0
  -26.9302  -16.5848   17.6534 C   0  0  0  0  0  0  0  0  0  0  0  0
  -28.0649  -17.8365   19.3804 C   0  0  0  0  0  0  0  0  0  0  0  0
  -17.2628  -30.6962   23.7122 C   0  0  0  0  0  0  0  0  0  0  0  0
  -18.6135  -28.3324   23.1340 C   0  0  0  0  0  0  0  0  0  0  0  0
  -23.5997  -24.7069   23.7584 C   0  0  0  0  0  0  0  0  0  0  0  0
  -26.9758  -15.4419   18.4517 C   0  0  0  0  0  0  0  0  0  0  0  0
  -28.1104  -16.6936   20.1788 C   0  0  0  0  0  0  0  0  0  0  0  0
  -24.0358  -23.5577   23.1004 C   0  0  0  0  0  0  0  0  0  0  0  0
  -25.2895  -14.1834   21.0985 C   0  0  0  0  0  0  0  0  0  0  0  0
  -24.1294  -13.4153   21.1977 C   0  0  0  0  0  0  0  0  0  0  0  0
  -30.4382  -22.2327   21.5280 C   0  0  0  0  0  0  0  0  0  0  0  0
  -28.2007  -22.0048   20.5988 C   0  0  0  0  0  0  0  0  0  0  0  0
  -25.3689  -24.9182   21.6205 C   0  0  0  0  0  0  0  0  0  0  0  0
  -25.3087  -11.5158   20.2822 C   0  0  0  0  0  0  0  0  0  0  0  0
  -27.4748  -17.7821   18.1177 C   0  0  0  0  0  0  0  0  0  0  0  0
  -26.2804  -19.6078   16.7956 C   0  0  0  0  0  0  0  0  0  0  0  0
  -18.4356  -30.7446   22.9421 C   0  0  0  0  0  0  0  0  0  0  0  0
  -24.0373  -25.9736   23.3454 C   0  0  0  0  0  0  0  0  0  0  0  0
  -19.1145  -29.5488   22.6399 C   0  0  0  0  0  0  0  0  0  0  0  0
  -29.4765  -22.5909   20.5809 C   0  0  0  0  0  0  0  0  0  0  0  0
  -30.0955  -21.2964   22.4889 C   0  0  0  0  0  0  0  0  0  0  0  0
  -24.9406  -26.0814   22.2780 C   0  0  0  0  0  0  0  0  0  0  0  0
  -28.8238  -20.7117   22.5065 C   0  0  0  0  0  0  0  0  0  0  0  0
  -27.8683  -21.0516   21.5640 C   0  0  0  0  0  0  0  0  0  0  0  0
  -27.5658  -15.4963   19.7144 C   0  0  0  0  0  0  0  0  0  0  0  0
  -24.9187  -23.6634   22.0299 C   0  0  0  0  0  0  0  0  0  0  0  0
  -26.4592  -13.6177   20.5910 C   0  0  0  0  0  0  0  0  0  0  0  0
  -24.1390  -12.0815   20.7897 C   0  0  0  0  0  0  0  0  0  0  0  0
  -26.4688  -12.2839   20.1829 C   0  0  0  0  0  0  0  0  0  0  0  0
  -27.4285  -18.9629   17.2933 C   0  0  0  0  0  0  0  0  0  0  0  0
  -26.7684  -20.6709   16.0759 C   0  0  0  0  0  0  0  0  0  0  0  0
  -24.8964  -19.2756   16.9686 C   0  0  0  0  0  0  0  0  0  0  0  0
  -22.6754  -28.6492   22.2353 C   0  0  0  0  0  0  0  0  0  0  0  0
  -25.8041  -29.7381   22.5158 C   0  0  0  0  0  0  0  0  0  0  0  0
  -24.6761  -32.9316   22.1045 C   0  0  0  0  0  0  0  0  0  0  0  0
  -31.7013  -23.8607   16.3043 C   0  0  0  0  0  0  0  0  0  0  0  0
  -18.8957  -32.0760   22.4032 C   0  0  0  0  0  0  0  0  0  0  0  0
  -23.5783  -27.1991   24.0883 C   0  0  0  0  0  0  0  0  0  0  0  0
  -30.9572  -20.7304   23.5730 C   0  0  0  0  0  0  0  0  0  0  0  0
  -28.7177  -19.6996   23.6031 C   0  0  0  0  0  0  0  0  0  0  0  0
  -25.4425  -27.4169   21.7993 C   0  0  0  0  0  0  0  0  0  0  0  0
  -20.3392  -32.0662   21.9067 C   0  0  0  0  0  0  0  0  0  0  0  0
  -29.9010  -20.1034   24.4955 C   0  0  0  0  0  0  0  0  0  0  0  0
  -30.4801  -26.0175   19.0557 C   0  0  0  0  0  0  0  0  0  0  0  0
  -30.5831  -22.0653   13.5560 C   0  0  0  0  0  0  0  0  0  0  0  0
  -30.1320  -25.0019   20.1429 C   0  0  0  0  0  0  0  0  0  0  0  0
  -20.5950  -30.8421   21.0332 C   0  0  0  0  0  0  0  0  0  0  0  0
  -29.5332  -21.1205   14.1404 C   0  0  0  0  0  0  0  0  0  0  0  0
  -31.5890  -25.5101   18.1386 C   0  0  0  0  0  0  0  0  0  0  0  0
  -31.7875  -22.1845   14.4830 C   0  0  0  0  0  0  0  0  0  0  0  0
  -30.9592  -23.1667   18.6183 C   0  0  0  0  0  0  0  0  0  0  0  0
  -30.3901  -21.6950   16.4642 C   0  0  0  0  0  0  0  0  0  0  0  0
  -29.8100  -23.6295   19.5266 C   0  0  1  0  0  0  0  0  0  0  0  0
  -20.3907  -29.5458   21.8266 C   0  0  1  0  0  0  0  0  0  0  0  0
  -23.7346  -28.4913   23.2892 C   0  0  1  0  0  0  0  0  0  0  0  0
  -29.1451  -21.5434   15.5680 C   0  0  2  0  0  0  0  0  0  0  0  0
  -25.4341  -35.3204   22.2336 C   0  0  0  0  0  0  0  0  0  0  0  0
  -25.7087  -29.6003   25.5617 C   0  0  0  0  0  0  0  0  0  0  0  0
  -25.5188  -32.0964   25.5982 C   0  0  0  0  0  0  0  0  0  0  0  0
  -27.5520  -31.0160   24.6384 C   0  0  0  0  0  0  0  0  0  0  0  0
  -24.0728  -33.3990   19.2451 C   0  0  0  0  0  0  0  0  0  0  0  0
  -26.5151  -20.4297   21.5678 C   0  0  0  0  0  0  0  0  0  0  0  0
  -25.4356  -21.3454   22.1551 C   0  0  0  0  0  0  0  0  0  1  0  0
  -25.3722  -30.9096   23.3620 C   0  0  1  0  0  0  0  0  0  0  0  0
  -25.2444  -34.1093   21.3335 C   0  0  2  0  0  0  0  0  0  0  0  0
  -26.0191  -30.8898   24.7757 C   0  0  0  0  0  0  0  0  0  0  0  0
  -28.5607  -19.5658   16.9210 N   0  0  0  0  0  0  0  0  0  0  0  0
  -28.1264  -20.6006   16.1817 N   0  0  0  0  0  0  0  0  0  0  0  0
  -25.0330  -28.5724   22.6082 N   0  0  0  0  0  0  0  0  0  0  0  0
  -31.2796  -24.1834   17.6048 N   0  0  0  0  0  0  0  0  0  0  0  0
  -31.3798  -22.5795   15.8313 N   0  0  0  0  0  0  0  0  0  0  0  0
  -26.1642  -21.6495   15.3690 N   0  0  0  0  0  0  0  0  0  0  0  0
  -24.2088  -19.8246   18.0596 N   0  0  0  0  0  0  0  0  0  0  0  0
  -21.5329  -29.2886   22.6773 N   0  0  0  0  0  0  0  0  0  0  0  0
  -25.6717  -32.1072   22.5845 N   0  0  0  0  0  0  0  0  0  0  0  0
  -24.3294  -34.4898   20.2204 N   0  3  0  0  0  0  0  0  0  0  0  0
  -24.2917  -18.5015   16.1884 O   0  0  0  0  0  0  0  0  0  0  0  0
  -22.8801  -28.2238   21.1045 O   0  0  0  0  0  0  0  0  0  0  0  0
  -26.8017  -29.8485   21.7975 O   0  0  0  0  0  0  0  0  0  0  0  0
  -23.4699  -32.7621   22.2681 O   0  0  0  0  0  0  0  0  0  0  0  0
  -32.3246  -24.6712   15.6074 O   0  0  0  0  0  0  0  0  0  0  0  0
  -27.6103  -14.3813   20.4938 O   0  0  0  0  0  0  0  0  0  0  0  0
  -25.3495  -22.5354   21.3817 O   0  0  0  0  0  0  0  0  0  1  0  0
  -23.0253  -11.3436   20.8865 F   0  0  0  0  0  0  0  0  0  0  0  0
  -27.5898  -11.7346   19.6957 F   0  0  0  0  0  0  0  0  0  0  0  0
  1  2  1  0  0  0  0
  1  5  2  0  0  0  0
  2  6  2  0  0  0  0
  3  8  2  0  0  0  0
  3 17  1  0  0  0  0
  4  9  1  0  0  0  0
  4 17  2  0  0  0  0
  5 19  1  0  0  0  0
  6 21  1  0  0  0  0
  7 10  2  0  0  0  0
  7 20  1  0  0  0  0
  8 27  1  0  0  0  0
  9 27  2  0  0  0  0
 10 28  1  0  0  0  0
 11 12  2  0  0  0  0
 11 29  1  0  0  0  0
 12 30  1  0  0  0  0
 13 22  1  0  0  0  0
 13 23  2  0  0  0  0
 14 22  2  0  0  0  0
 14 26  1  0  0  0  0
 15 24  1  0  0  0  0
 15 28  2  0  0  0  0
 16 30  2  0  0  0  0
 16 31  1  0  0  0  0
 17 32  1  0  0  0  0
 18 32  1  0  0  0  0
 18 33  2  0  0  0  0
 18 34  1  0  0  0  0
 19 21  2  0  0  0  0
 19 39  1  0  0  0  0
 20 24  2  0  0  0  0
 20 40  1  0  0  0  0
 21 56  1  0  0  0  0
 22 55  1  0  0  0  0
 23 25  1  0  0  0  0
 23 41  1  0  0  0  0
 24 43  1  0  0  0  0
 25 26  2  0  0  0  0
 25 42  1  0  0  0  0
 26 64  1  0  0  0  0
 27 84  1  0  0  0  0
 28 85  1  0  0  0  0
 29 31  2  0  0  0  0
 29 84  1  0  0  0  0
 30 86  1  0  0  0  0
 31 87  1  0  0  0  0
 32 69  2  0  0  0  0
 33 70  1  0  0  0  0
 33 74  1  0  0  0  0
 34 75  1  0  0  0  0
 34 79  2  0  0  0  0
 35 57  1  0  0  0  0
 35 76  1  0  0  0  0
 35 80  2  0  0  0  0
 36 66  1  0  0  0  0
 36 71  1  0  0  0  0
 36 81  2  0  0  0  0
 37 67  1  0  0  0  0
 37 77  1  0  0  0  0
 37 82  2  0  0  0  0
 38 72  1  0  0  0  0
 38 73  1  0  0  0  0
 38 83  2  0  0  0  0
 39 44  1  0  0  0  0
 40 57  1  0  0  0  0
 41 45  1  0  0  0  0
 42 45  1  0  0  0  0
 43 71  1  0  0  0  0
 44 49  1  0  0  0  0
 46 48  1  0  0  0  0
 46 51  1  0  0  0  0
 47 50  1  0  0  0  0
 47 52  1  0  0  0  0
 48 55  1  0  0  0  0
 49 56  1  0  0  0  0
 50 58  1  0  0  0  0
 51 72  1  0  0  0  0
 52 73  1  0  0  0  0
 53 55  1  0  0  0  0
 53 72  1  0  0  0  0
 54 58  1  0  0  0  0
 54 73  1  0  0  0  0
 56 76  1  0  0  0  0
 57 71  1  0  0  0  0
 58 70  1  0  0  0  0
 59 67  1  0  0  0  0
 60 68  1  0  0  0  0
 61 68  1  0  0  0  0
 62 68  1  0  0  0  0
 63 78  1  0  0  0  0
 64 65  1  0  0  0  0
 65 85  1  0  0  0  0
 66 68  1  0  0  0  0
 66 77  1  0  0  0  0
 67 78  1  0  0  0  0
 69 70  1  0  0  0  0
M  CHG  1  78   1
M  ISO  4  38 100  65 101  72 100  85 101
M  END
> <Batch ID>
0032

> <Smiles>
CNC(C)C(=O)NC(C(=O)N1Cc2cc([101O:1][101CH2:1]Cc3cc(C4CCC[100N:0]([100C:0](=O)N5CCCC(n6nc(-c7ccc(Oc8ccc(F)cc8F)cc7)c(C(N)=O)c6N)C5)C4)cc4c3CCC4)ccc2CC1C(=O)NC1CCCc2ccccc21)C(C)(C)C

> <Shape>
0.232

> <Color>
0.068

> <Negative vol penalty>
0.000

$$$$

  -OEChem-04052316453D

 86 94  0     1  0  0  0  0  0999 V2000
  -21.9335  -26.5692   22.2039 C   0  0  0  0  0  0  0  0  0  0  0  0
  -22.3459  -25.6356   21.2586 C   0  0  0  0  0  0  0  0  0  0  0  0
  -28.0284  -23.6198   20.6548 C   0  0  0  0  0  0  0  0  0  0  0  0
  -29.2626  -23.7254   18.5805 C   0  0  0  0  0  0  0  0  0  0  0  0
  -22.0157  -26.2670   23.5625 C   0  0  0  0  0  0  0  0  0  0  0  0
  -22.8418  -24.3994   21.6715 C   0  0  0  0  0  0  0  0  0  0  0  0
  -23.0852  -17.5281   19.6610 C   0  0  0  0  0  0  0  0  0  0  0  0
  -27.9467  -25.0121   20.6770 C   0  0  0  0  0  0  0  0  0  0  0  0
  -29.1808  -25.1177   18.6027 C   0  0  0  0  0  0  0  0  0  0  0  0
  -24.0016  -16.4974   19.4567 C   0  0  0  0  0  0  0  0  0  0  0  0
  -26.1065  -27.4235   19.1831 C   0  0  0  0  0  0  0  0  0  0  0  0
  -24.8729  -27.9955   19.4936 C   0  0  0  0  0  0  0  0  0  0  0  0
  -24.0235  -16.0549   21.8280 C   0  0  0  0  0  0  0  0  0  0  0  0
  -24.8505  -10.1395   18.5054 C   0  0  0  0  0  0  0  0  0  0  0  0
  -25.8637  -29.0961   21.4025 C   0  0  0  0  0  0  0  0  0  0  0  0
  -28.6864  -22.9764   19.6065 C   0  0  0  0  0  0  0  0  0  0  0  0
  -27.8595  -20.6420   18.9946 C   0  0  0  0  0  0  0  0  0  0  0  0
  -22.5038  -25.0228   23.9919 C   0  0  0  0  0  0  0  0  0  0  0  0
  -22.6386  -17.8375   20.9538 C   0  0  0  0  0  0  0  0  0  0  0  0
  -22.9318  -24.0807   23.0371 C   0  0  0  0  0  0  0  0  0  0  0  0
  -23.0994  -17.0882   22.0457 C   0  0  0  0  0  0  0  0  0  0  0  0
  -25.7287  -11.0668   17.9559 C   0  0  0  0  0  0  0  0  0  0  0  0
  -26.3636  -11.9885   18.7809 C   0  0  0  0  0  0  0  0  0  0  0  0
  -28.5228  -25.7610   19.6510 C   0  0  0  0  0  0  0  0  0  0  0  0
  -24.4731  -15.7626   20.5406 C   0  0  0  0  0  0  0  0  0  0  0  0
  -27.2188  -27.6877   19.9823 C   0  0  0  0  0  0  0  0  0  0  0  0
  -24.7515  -28.8319   20.6033 C   0  0  0  0  0  0  0  0  0  0  0  0
  -27.0974  -28.5240   21.0920 C   0  0  0  0  0  0  0  0  0  0  0  0
  -28.7717  -21.5383   19.5832 C   0  0  0  0  0  0  0  0  0  0  0  0
  -26.0883  -11.9417   20.1381 C   0  0  0  0  0  0  0  0  0  0  0  0
  -24.6431  -10.1752   19.8749 C   0  0  0  0  0  0  0  0  0  0  0  0
  -28.3886  -19.3996   19.2453 C   0  0  0  0  0  0  0  0  0  0  0  0
  -26.6427  -20.9087   18.2847 C   0  0  0  0  0  0  0  0  0  0  0  0
  -22.8136  -20.3931   22.8357 C   0  0  0  0  0  0  0  0  0  0  0  0
  -20.8825  -18.6294   24.7547 C   0  0  0  0  0  0  0  0  0  0  0  0
  -19.7693  -15.5436   25.6957 C   0  0  0  0  0  0  0  0  0  0  0  0
  -32.7412  -15.9119   19.4369 C   0  0  0  0  0  0  0  0  0  0  0  0
  -22.6180  -24.7596   25.4726 C   0  0  0  0  0  0  0  0  0  0  0  0
  -21.6295  -18.9347   21.1544 C   0  0  0  0  0  0  0  0  0  0  0  0
  -22.6356  -17.3673   23.4513 C   0  0  0  0  0  0  0  0  0  0  0  0
  -22.8049  -23.2841   25.8163 C   0  0  0  0  0  0  0  0  0  0  0  0
  -32.1850  -17.9881   22.2754 C   0  0  0  0  0  0  0  0  0  0  0  0
  -23.8680  -22.6576   24.9197 C   0  0  0  0  0  0  0  0  0  0  0  0
  -31.1775  -19.0260   21.7776 C   0  0  0  0  0  0  0  0  0  0  0  0
  -33.1867  -17.6070   21.1875 C   0  0  0  0  0  0  0  0  0  0  0  0
  -31.5750  -18.2002   19.4199 C   0  0  0  0  0  0  0  0  0  0  0  0
  -23.4522  -22.7195   23.4449 C   0  0  1  0  0  0  0  0  0  0  0  0
  -21.6348  -19.4996   22.5715 C   0  0  1  0  0  0  0  0  0  0  0  0
  -30.5099  -18.5746   20.4647 C   0  0  2  0  0  0  0  0  0  0  0  0
  -25.9736  -11.0532   16.4831 C   0  0  0  0  0  0  0  0  0  0  0  0
  -18.2190  -14.4187   27.3169 C   0  0  0  0  0  0  0  0  0  0  0  0
  -22.8931  -19.1009   27.0007 C   0  0  0  0  0  0  0  0  0  0  0  0
  -21.8178  -17.2249   28.2628 C   0  0  0  0  0  0  0  0  0  0  0  0
  -20.4961  -19.2630   27.6953 C   0  0  0  0  0  0  0  0  0  0  0  0
  -18.1446  -14.3793   23.5131 C   0  0  0  0  0  0  0  0  0  0  0  0
  -27.3094  -12.9964   18.2189 C   0  0  0  0  0  0  0  0  0  0  0  0
  -26.7473  -12.9169   21.0830 C   0  0  0  0  0  0  0  0  0  0  0  0
  -28.7770  -12.6187   18.4693 C   0  0  0  0  0  0  0  0  0  0  0  0
  -29.7366  -13.6782   17.9237 C   0  0  0  0  0  0  0  0  0  0  0  0
  -31.1965  -13.2714   18.1444 C   0  0  0  0  0  0  0  0  0  0  0  0
  -32.1804  -14.3137   17.6230 C   0  0  0  0  0  0  0  0  0  0  0  0
  -25.8092  -14.0446   21.4995 C   0  0  0  0  0  0  0  0  0  1  0  0
  -21.1023  -17.6291   25.8637 C   0  0  1  0  0  0  0  0  0  0  0  0
  -18.3685  -15.0037   25.9212 C   0  0  2  0  0  0  0  0  0  0  0  0
  -21.5878  -18.3002   27.1795 C   0  0  0  0  0  0  0  0  0  0  0  0
  -29.8021  -20.9180   20.1642 N   0  0  0  0  0  0  0  0  0  0  0  0
  -25.2414  -11.0556   20.7084 N   0  0  0  0  0  0  0  0  0  0  0  0
  -29.5405  -19.6186   19.9419 N   0  0  0  0  0  0  0  0  0  0  0  0
  -21.6532  -18.4542   23.5966 N   0  0  0  0  0  0  0  0  0  0  0  0
  -32.4892  -17.1869   19.9698 N   0  0  0  0  0  0  0  0  0  0  0  0
  -27.9762  -18.1520   18.9356 N   0  0  0  0  0  0  0  0  0  0  0  0
  -26.2455  -22.2423   18.1172 N   0  0  0  0  0  0  0  0  0  0  0  0
  -22.4733  -21.6945   23.1523 N   0  0  0  0  0  0  0  0  0  0  0  0
  -19.8537  -16.8865   25.9971 N   0  0  0  0  0  0  0  0  0  0  0  0
  -32.0336  -15.5908   18.2850 N   0  0  0  0  0  0  0  0  0  0  0  0
  -18.0589  -13.9361   24.9285 N   0  3  0  0  0  0  0  0  0  0  0  0
  -25.9203  -19.9909   17.8272 O   0  0  0  0  0  0  0  0  0  0  0  0
  -23.9478  -19.9354   22.7595 O   0  0  0  0  0  0  0  0  0  0  0  0
  -20.0521  -19.5288   24.9073 O   0  0  0  0  0  0  0  0  0  0  0  0
  -20.6968  -14.8432   25.2960 O   0  0  0  0  0  0  0  0  0  0  0  0
  -33.5337  -15.1165   19.9528 O   0  0  0  0  0  0  0  0  0  0  0  0
  -28.4431  -27.1196   19.6723 O   0  0  0  0  0  0  0  0  0  0  0  0
  -25.3682  -14.7565   20.3440 O   0  0  0  0  0  0  0  0  0  1  0  0
  -23.5671  -29.3824   20.9004 F   0  0  0  0  0  0  0  0  0  0  0  0
  -28.1626  -28.7824   21.8629 F   0  0  0  0  0  0  0  0  0  0  0  0
  -23.5744   -9.0722   20.6401 Cl  0  0  0  0  0  0  0  0  0  0  0  0
  1  2  1  0  0  0  0
  1  5  2  0  0  0  0
  2  6  2  0  0  0  0
  3  8  2  0  0  0  0
  3 16  1  0  0  0  0
  4  9  1  0  0  0  0
  4 16  2  0  0  0  0
  5 18  1  0  0  0  0
  6 20  1  0  0  0  0
  7 10  2  0  0  0  0
  7 19  1  0  0  0  0
  8 24  1  0  0  0  0
  9 24  2  0  0  0  0
 10 25  1  0  0  0  0
 11 12  2  0  0  0  0
 11 26  1  0  0  0  0
 12 27  1  0  0  0  0
 13 21  1  0  0  0  0
 13 25  2  0  0  0  0
 14 22  2  0  0  0  0
 14 31  1  0  0  0  0
 15 27  2  0  0  0  0
 15 28  1  0  0  0  0
 16 29  1  0  0  0  0
 17 29  1  0  0  0  0
 17 32  2  0  0  0  0
 17 33  1  0  0  0  0
 18 20  2  0  0  0  0
 18 38  1  0  0  0  0
 19 21  2  0  0  0  0
 19 39  1  0  0  0  0
 20 47  1  0  0  0  0
 21 40  1  0  0  0  0
 22 23  1  0  0  0  0
 22 50  1  0  0  0  0
 23 30  2  0  0  0  0
 23 56  1  0  0  0  0
 24 82  1  0  0  0  0
 25 83  1  0  0  0  0
 26 28  2  0  0  0  0
 26 82  1  0  0  0  0
 27 84  1  0  0  0  0
 28 85  1  0  0  0  0
 29 66  2  0  0  0  0
 30 57  1  0  0  0  0
 30 67  1  0  0  0  0
 31 67  2  0  0  0  0
 31 86  1  0  0  0  0
 32 68  1  0  0  0  0
 32 71  1  0  0  0  0
 33 72  1  0  0  0  0
 33 77  2  0  0  0  0
 34 48  1  0  0  0  0
 34 73  1  0  0  0  0
 34 78  2  0  0  0  0
 35 63  1  0  0  0  0
 35 69  1  0  0  0  0
 35 79  2  0  0  0  0
 36 64  1  0  0  0  0
 36 74  1  0  0  0  0
 36 80  2  0  0  0  0
 37 70  1  0  0  0  0
 37 75  1  0  0  0  0
 37 81  2  0  0  0  0
 38 41  1  0  0  0  0
 39 48  1  0  0  0  0
 40 69  1  0  0  0  0
 41 43  1  0  0  0  0
 42 44  1  0  0  0  0
 42 45  1  0  0  0  0
 43 47  1  0  0  0  0
 44 49  1  0  0  0  0
 45 70  1  0  0  0  0
 46 49  1  0  0  0  0
 46 70  1  0  0  0  0
 47 73  1  0  0  0  0
 48 69  1  0  0  0  0
 49 68  1  0  0  0  0
 51 64  1  0  0  0  0
 52 65  1  0  0  0  0
 53 65  1  0  0  0  0
 54 65  1  0  0  0  0
 55 76  1  0  0  0  0
 56 58  1  0  0  0  0
 57 62  1  0  0  0  0
 58 59  1  0  0  0  0
 59 60  1  0  0  0  0
 60 61  1  0  0  0  0
 61 75  1  0  0  0  0
 62 83  1  0  0  0  0
 63 65  1  0  0  0  0
 63 74  1  0  0  0  0
 64 76  1  0  0  0  0
 66 68  1  0  0  0  0
M  CHG  1  76   1
M  ISO  4  37 100  62 101  75 100  83 101
M  END
> <Batch ID>
0032

> <Smiles>
CNC(C)C(=O)NC(C(=O)N1Cc2cc([101O:1][101CH2:1]Cc3nc(Cl)cc(C)c3CCCCC[100NH:0][100C:0](=O)N3CCCC(n4nc(-c5ccc(Oc6ccc(F)cc6F)cc5)c(C(N)=O)c4N)C3)ccc2CC1C(=O)NC1CCCc2ccccc21)C(C)(C)C

> <Shape>
0.184

> <Color>
0.070

> <Negative vol penalty>
0.000

$$$$

  -OEChem-04052316453D

 88 96  0     1  0  0  0  0  0999 V2000
  -27.3036  -17.4526   26.2787 C   0  0  0  0  0  0  0  0  0  0  0  0
  -27.6142  -18.8086   26.2885 C   0  0  0  0  0  0  0  0  0  0  0  0
  -26.6390  -12.3503   21.7745 C   0  0  0  0  0  0  0  0  0  0  0  0
  -25.8725  -13.8576   20.0490 C   0  0  0  0  0  0  0  0  0  0  0  0
  -26.2111  -16.9942   25.5437 C   0  0  0  0  0  0  0  0  0  0  0  0
  -26.8330  -19.7069   25.5623 C   0  0  0  0  0  0  0  0  0  0  0  0
  -24.4473  -26.4586   25.7604 C   0  0  0  0  0  0  0  0  0  0  0  0
  -25.3804  -11.7502   21.8094 C   0  0  0  0  0  0  0  0  0  0  0  0
  -24.6138  -13.2575   20.0839 C   0  0  0  0  0  0  0  0  0  0  0  0
  -24.3967  -27.6067   24.9710 C   0  0  0  0  0  0  0  0  0  0  0  0
  -22.4756   -9.5835   22.0979 C   0  0  0  0  0  0  0  0  0  0  0  0
  -22.4222   -8.1901   22.1286 C   0  0  0  0  0  0  0  0  0  0  0  0
  -22.4863  -26.7110   23.8016 C   0  0  0  0  0  0  0  0  0  0  0  0
  -25.5570  -28.8888   19.9137 C   0  0  0  0  0  0  0  0  0  0  0  0
  -25.7617  -30.3723   21.8096 C   0  0  0  0  0  0  0  0  0  0  0  0
  -23.5909   -8.0988   20.0160 C   0  0  0  0  0  0  0  0  0  0  0  0
  -26.8851  -13.4041   20.8943 C   0  0  0  0  0  0  0  0  0  0  0  0
  -29.2795  -13.6590   20.0521 C   0  0  0  0  0  0  0  0  0  0  0  0
  -25.4104  -17.8885   24.8160 C   0  0  0  0  0  0  0  0  0  0  0  0
  -23.5230  -25.4217   25.5687 C   0  0  0  0  0  0  0  0  0  0  0  0
  -25.7296  -19.2598   24.8158 C   0  0  0  0  0  0  0  0  0  0  0  0
  -22.5257  -25.5520   24.5917 C   0  0  0  0  0  0  0  0  0  0  0  0
  -24.9645  -29.6755   20.9015 C   0  0  0  0  0  0  0  0  0  0  0  0
  -26.9467  -28.7988   19.8341 C   0  0  0  0  0  0  0  0  0  0  0  0
  -24.3678  -12.2037   20.9641 C   0  0  0  0  0  0  0  0  0  0  0  0
  -23.4179  -27.7318   23.9894 C   0  0  0  0  0  0  0  0  0  0  0  0
  -23.0866  -10.2347   21.0263 C   0  0  0  0  0  0  0  0  0  0  0  0
  -22.9799   -7.4477   21.0877 C   0  0  0  0  0  0  0  0  0  0  0  0
  -27.1514  -30.2822   21.7300 C   0  0  0  0  0  0  0  0  0  0  0  0
  -23.6443   -9.4923   19.9854 C   0  0  0  0  0  0  0  0  0  0  0  0
  -27.7439  -29.4955   20.7423 C   0  0  0  0  0  0  0  0  0  0  0  0
  -28.1849  -14.0248   20.8582 C   0  0  0  0  0  0  0  0  0  0  0  0
  -30.2681  -14.5504   20.3905 C   0  0  0  0  0  0  0  0  0  0  0  0
  -29.3925  -12.6075   19.0840 C   0  0  0  0  0  0  0  0  0  0  0  0
  -23.7257  -22.3630   24.7280 C   0  0  0  0  0  0  0  0  0  0  0  0
  -30.0549  -20.0802   22.7330 C   0  0  0  0  0  0  0  0  0  0  0  0
  -20.5492  -22.3753   25.3854 C   0  0  0  0  0  0  0  0  0  0  0  0
  -17.6587  -24.1654   25.6813 C   0  0  0  0  0  0  0  0  0  0  0  0
  -24.2679  -17.3399   23.9984 C   0  0  0  0  0  0  0  0  0  0  0  0
  -23.5745  -24.2014   26.4465 C   0  0  0  0  0  0  0  0  0  0  0  0
  -21.4974  -24.4762   24.3596 C   0  0  0  0  0  0  0  0  0  0  0  0
  -23.2675  -18.4054   23.5578 C   0  0  0  0  0  0  0  0  0  0  0  0
  -31.8141  -17.2381   24.0243 C   0  0  0  0  0  0  0  0  0  0  0  0
  -23.9962  -19.6223   22.9966 C   0  0  0  0  0  0  0  0  0  0  0  0
  -31.1629  -16.0564   23.3067 C   0  0  0  0  0  0  0  0  0  0  0  0
  -30.8001  -18.3382   24.3219 C   0  0  0  0  0  0  0  0  0  0  0  0
  -29.4069  -17.6430   22.3990 C   0  0  0  0  0  0  0  0  0  0  0  0
  -24.8914  -20.2685   24.0608 C   0  0  1  0  0  0  0  0  0  0  0  0
  -22.9007  -22.9850   25.8189 C   0  0  1  0  0  0  0  0  0  0  0  0
  -30.4028  -16.5222   22.0523 C   0  0  2  0  0  0  0  0  0  0  0  0
  -15.2172  -23.8939   26.1936 C   0  0  0  0  0  0  0  0  0  0  0  0
  -20.0951  -21.2205   22.5979 C   0  0  0  0  0  0  0  0  0  0  0  0
  -17.6823  -21.8565   22.8034 C   0  0  0  0  0  0  0  0  0  0  0  0
  -18.6753  -20.2080   24.3905 C   0  0  0  0  0  0  0  0  0  0  0  0
  -17.8392  -25.9361   28.0458 C   0  0  0  0  0  0  0  0  0  0  0  0
  -23.4608  -29.7738   20.9873 C   0  0  0  0  0  0  0  0  0  0  0  0
  -27.5779  -27.9576   18.7767 C   0  0  0  0  0  0  0  0  0  0  0  0
  -29.3004  -20.4132   21.4705 C   0  0  0  0  0  0  0  0  0  0  0  0
  -29.3518  -21.9101   21.1813 C   0  0  0  0  0  0  0  0  0  0  0  0
  -28.6096  -22.2854   19.8948 C   0  0  0  0  0  0  0  0  0  0  0  0
  -28.7045  -23.7880   19.6171 C   0  0  0  0  0  0  0  0  0  0  0  0
  -27.9367  -24.1660   18.3471 C   0  0  0  0  0  0  0  0  0  0  0  0
  -28.0598  -25.6397   17.9804 C   0  0  0  0  0  0  0  0  0  0  0  0
  -22.8604  -28.7025   21.8912 C   0  0  0  0  0  0  0  0  0  1  0  0
  -19.2944  -22.6509   24.5925 C   0  0  1  0  0  0  0  0  0  0  0  0
  -16.5954  -24.1898   26.7644 C   0  0  2  0  0  0  0  0  0  0  0  0
  -18.9572  -21.5036   23.5989 C   0  0  0  0  0  0  0  0  0  0  0  0
  -28.4526  -15.0672   21.6492 N   0  0  0  0  0  0  0  0  0  0  0  0
  -29.7268  -15.3640   21.3419 N   0  0  0  0  0  0  0  0  0  0  0  0
  -21.5933  -23.2995   25.2392 N   0  0  0  0  0  0  0  0  0  0  0  0
  -30.0835  -18.7372   23.1092 N   0  0  0  0  0  0  0  0  0  0  0  0
  -31.5391  -14.7097   19.9641 N   0  0  0  0  0  0  0  0  0  0  0  0
  -28.2810  -11.7838   18.8593 N   0  0  0  0  0  0  0  0  0  0  0  0
  -24.0970  -21.0559   24.9792 N   0  0  0  0  0  0  0  0  0  0  0  0
  -18.2456  -22.9227   25.5696 N   0  0  0  0  0  0  0  0  0  0  0  0
  -16.5551  -25.5271   27.4207 N   0  3  0  0  0  0  0  0  0  0  0  0
  -27.4866  -26.4968   19.0507 N   0  3  0  0  0  0  0  0  0  0  0  0
  -30.4532  -12.3940   18.4492 O   0  0  0  0  0  0  0  0  0  0  0  0
  -24.0034  -23.0197   23.7314 O   0  0  0  0  0  0  0  0  0  0  0  0
  -30.6044  -20.9876   23.3630 O   0  0  0  0  0  0  0  0  0  0  0  0
  -20.5983  -21.3806   26.1133 O   0  0  0  0  0  0  0  0  0  0  0  0
  -17.9379  -25.1493   24.9997 O   0  0  0  0  0  0  0  0  0  0  0  0
  -23.1395  -11.6182   20.9977 O   0  0  0  0  0  0  0  0  0  0  0  0
  -23.3666  -28.8510   23.2171 O   0  0  0  0  0  0  0  0  0  1  0  0
  -22.9299   -6.1095   21.1180 F   0  0  0  0  0  0  0  0  0  0  0  0
  -27.9165  -30.9517   22.6021 F   0  0  0  0  0  0  0  0  0  0  0  0
  -24.2337  -10.1122   18.9538 F   0  0  0  0  0  0  0  0  0  0  0  0
  -29.0800  -29.4153   20.6734 F   0  0  0  0  0  0  0  0  0  0  0  0
  1  2  1  0  0  0  0
  1  5  2  0  0  0  0
  2  6  2  0  0  0  0
  3  8  2  0  0  0  0
  3 17  1  0  0  0  0
  4  9  1  0  0  0  0
  4 17  2  0  0  0  0
  5 19  1  0  0  0  0
  6 21  1  0  0  0  0
  7 10  2  0  0  0  0
  7 20  1  0  0  0  0
  8 25  1  0  0  0  0
  9 25  2  0  0  0  0
 10 26  1  0  0  0  0
 11 12  2  0  0  0  0
 11 27  1  0  0  0  0
 12 28  1  0  0  0  0
 13 22  1  0  0  0  0
 13 26  2  0  0  0  0
 14 23  2  0  0  0  0
 14 24  1  0  0  0  0
 15 23  1  0  0  0  0
 15 29  2  0  0  0  0
 16 28  2  0  0  0  0
 16 30  1  0  0  0  0
 17 32  1  0  0  0  0
 18 32  1  0  0  0  0
 18 33  2  0  0  0  0
 18 34  1  0  0  0  0
 19 21  2  0  0  0  0
 19 39  1  0  0  0  0
 20 22  2  0  0  0  0
 20 40  1  0  0  0  0
 21 48  1  0  0  0  0
 22 41  1  0  0  0  0
 23 56  1  0  0  0  0
 24 31  2  0  0  0  0
 24 57  1  0  0  0  0
 25 83  1  0  0  0  0
 26 84  1  0  0  0  0
 27 30  2  0  0  0  0
 27 83  1  0  0  0  0
 28 85  1  0  0  0  0
 29 31  1  0  0  0  0
 29 86  1  0  0  0  0
 30 87  1  0  0  0  0
 31 88  1  0  0  0  0
 32 68  2  0  0  0  0
 33 69  1  0  0  0  0
 33 72  1  0  0  0  0
 34 73  1  0  0  0  0
 34 78  2  0  0  0  0
 35 49  1  0  0  0  0
 35 74  1  0  0  0  0
 35 79  2  0  0  0  0
 36 58  1  0  0  0  0
 36 71  1  0  0  0  0
 36 80  2  0  0  0  0
 37 65  1  0  0  0  0
 37 70  1  0  0  0  0
 37 81  2  0  0  0  0
 38 66  1  0  0  0  0
 38 75  1  0  0  0  0
 38 82  2  0  0  0  0
 39 42  1  0  0  0  0
 40 49  1  0  0  0  0
 41 70  1  0  0  0  0
 42 44  1  0  0  0  0
 43 45  1  0  0  0  0
 43 46  1  0  0  0  0
 44 48  1  0  0  0  0
 45 50  1  0  0  0  0
 46 71  1  0  0  0  0
 47 50  1  0  0  0  0
 47 71  1  0  0  0  0
 48 74  1  0  0  0  0
 49 70  1  0  0  0  0
 50 69  1  0  0  0  0
 51 66  1  0  0  0  0
 52 67  1  0  0  0  0
 53 67  1  0  0  0  0
 54 67  1  0  0  0  0
 55 76  1  0  0  0  0
 56 64  1  0  0  0  0
 57 77  1  0  0  0  0
 58 59  1  0  0  0  0
 59 60  1  0  0  0  0
 60 61  1  0  0  0  0
 61 62  1  0  0  0  0
 62 63  1  0  0  0  0
 63 77  1  0  0  0  0
 64 84  1  0  0  0  0
 65 67  1  0  0  0  0
 65 75  1  0  0  0  0
 66 76  1  0  0  0  0
 68 69  1  0  0  0  0
M  CHG  2  76   1  77   1
M  ISO  4  36 100  58 100  64 101  84 101
M  END
> <Batch ID>
0032

> <Smiles>
CNC(C)C(=O)NC(C(=O)N1Cc2cc([101O:1][101CH2:1]Cc3cc(F)c(F)c(CNCCCCC[100CH2:0][100C:0](=O)N4CCCC(n5nc(-c6ccc(Oc7ccc(F)cc7F)cc6)c(C(N)=O)c5N)C4)c3)ccc2CC1C(=O)NC1CCCc2ccccc21)C(C)(C)C

> <Shape>
0.213

> <Color>
0.071

> <Negative vol penalty>
0.000

$$$$

  -OEChem-04052316453D

 87 95  0     1  0  0  0  0  0999 V2000
  -28.4629  -32.6059   26.2115 C   0  0  0  0  0  0  0  0  0  0  0  0
  -28.4464  -31.3703   25.5724 C   0  0  0  0  0  0  0  0  0  0  0  0
  -23.4181  -17.5827   22.0601 C   0  0  0  0  0  0  0  0  0  0  0  0
  -23.6955  -18.2045   19.7420 C   0  0  0  0  0  0  0  0  0  0  0  0
  -27.2646  -33.2640   26.4852 C   0  0  0  0  0  0  0  0  0  0  0  0
  -27.2313  -30.7915   25.2077 C   0  0  0  0  0  0  0  0  0  0  0  0
  -27.3192  -28.8812   20.5186 C   0  0  0  0  0  0  0  0  0  0  0  0
  -22.9602  -18.8679   22.3500 C   0  0  0  0  0  0  0  0  0  0  0  0
  -23.2376  -19.4897   20.0319 C   0  0  0  0  0  0  0  0  0  0  0  0
  -27.9498  -27.6500   20.3444 C   0  0  0  0  0  0  0  0  0  0  0  0
  -22.0585  -22.0923   23.7690 C   0  0  0  0  0  0  0  0  0  0  0  0
  -22.5623  -22.7203   24.9080 C   0  0  0  0  0  0  0  0  0  0  0  0
  -25.8004  -26.5549   20.3523 C   0  0  0  0  0  0  0  0  0  0  0  0
  -28.0049  -22.0682   20.9550 C   0  0  0  0  0  0  0  0  0  0  0  0
  -24.7984  -22.5602   24.0074 C   0  0  0  0  0  0  0  0  0  0  0  0
  -23.7858  -17.2509   20.7560 C   0  0  0  0  0  0  0  0  0  0  0  0
  -23.4869  -14.8134   20.0655 C   0  0  0  0  0  0  0  0  0  0  0  0
  -26.0347  -32.6975   26.1150 C   0  0  0  0  0  0  0  0  0  0  0  0
  -25.9229  -28.9574   20.6221 C   0  0  0  0  0  0  0  0  0  0  0  0
  -26.0153  -31.4420   25.4780 C   0  0  0  0  0  0  0  0  0  0  0  0
  -25.1544  -27.7886   20.5252 C   0  0  0  0  0  0  0  0  0  0  0  0
  -27.8218  -22.9102   19.8638 C   0  0  0  0  0  0  0  0  0  0  0  0
  -28.4343  -22.6115   18.6518 C   0  0  0  0  0  0  0  0  0  0  0  0
  -22.8699  -19.8214   21.3360 C   0  0  0  0  0  0  0  0  0  0  0  0
  -27.1905  -26.4863   20.2641 C   0  0  0  0  0  0  0  0  0  0  0  0
  -22.9247  -21.6982   22.7491 C   0  0  0  0  0  0  0  0  0  0  0  0
  -23.9322  -22.9542   25.0272 C   0  0  0  0  0  0  0  0  0  0  0  0
  -24.2946  -21.9321   22.8683 C   0  0  0  0  0  0  0  0  0  0  0  0
  -24.2594  -15.9236   20.4560 C   0  0  0  0  0  0  0  0  0  0  0  0
  -28.8035  -20.9489   20.7838 C   0  0  0  0  0  0  0  0  0  0  0  0
  -29.2139  -21.4681   18.5837 C   0  0  0  0  0  0  0  0  0  0  0  0
  -24.3998  -13.8003   19.9021 C   0  0  0  0  0  0  0  0  0  0  0  0
  -22.0708  -14.7074   19.8680 C   0  0  0  0  0  0  0  0  0  0  0  0
  -23.8892  -29.9195   22.8675 C   0  0  0  0  0  0  0  0  0  0  0  0
  -21.6853  -29.3990   20.5450 C   0  0  0  0  0  0  0  0  0  0  0  0
  -20.8398  -27.7752   17.6648 C   0  0  0  0  0  0  0  0  0  0  0  0
  -30.2572  -13.7505   18.6615 C   0  0  0  0  0  0  0  0  0  0  0  0
  -24.7631  -33.4244   26.4744 C   0  0  0  0  0  0  0  0  0  0  0  0
  -25.2563  -30.2961   20.7830 C   0  0  0  0  0  0  0  0  0  0  0  0
  -23.6509  -27.8187   20.6101 C   0  0  0  0  0  0  0  0  0  0  0  0
  -23.5372  -32.9170   25.7194 C   0  0  0  0  0  0  0  0  0  0  0  0
  -28.6563  -12.3027   21.4930 C   0  0  0  0  0  0  0  0  0  0  0  0
  -23.4906  -31.3925   25.7405 C   0  0  0  0  0  0  0  0  0  0  0  0
  -27.2782  -12.9664   21.5131 C   0  0  0  0  0  0  0  0  0  0  0  0
  -29.7435  -13.2735   21.0374 C   0  0  0  0  0  0  0  0  0  0  0  0
  -28.1013  -14.6018   19.7677 C   0  0  0  0  0  0  0  0  0  0  0  0
  -24.7186  -30.7932   25.0445 C   0  0  1  0  0  0  0  0  0  0  0  0
  -23.8607  -30.1994   21.3915 C   0  0  1  0  0  0  0  0  0  0  0  0
  -26.9637  -13.6465   20.1671 C   0  0  2  0  0  0  0  0  0  0  0  0
  -28.2539  -23.4952   17.4635 C   0  0  0  0  0  0  0  0  0  0  0  0
  -29.0212  -20.0220   21.9328 C   0  0  0  0  0  0  0  0  0  0  0  0
  -18.9571  -27.5245   16.0247 C   0  0  0  0  0  0  0  0  0  0  0  0
  -20.1949  -27.6255   22.5307 C   0  0  0  0  0  0  0  0  0  0  0  0
  -18.9039  -26.6760   20.6072 C   0  0  0  0  0  0  0  0  0  0  0  0
  -18.7275  -29.1049   21.1478 C   0  0  0  0  0  0  0  0  0  0  0  0
  -22.4899  -28.8082   15.4357 C   0  0  0  0  0  0  0  0  0  0  0  0
  -26.9643  -24.1314   20.0206 C   0  0  0  0  0  0  0  0  0  1  0  0
  -29.8960  -21.0940   17.3084 C   0  0  0  0  0  0  0  0  0  0  0  0
  -30.4934  -19.6753   17.3037 C   0  0  0  0  0  0  0  0  0  0  0  0
  -31.2460  -19.3546   16.0077 C   0  0  0  0  0  0  0  0  0  0  0  0
  -31.9001  -17.9692   16.0136 C   0  0  0  0  0  0  0  0  0  0  0  0
  -30.8918  -16.8222   16.1200 C   0  0  0  0  0  0  0  0  0  0  0  0
  -31.6009  -15.4640   16.1502 C   0  0  0  0  0  0  0  0  0  0  0  0
  -30.6245  -14.2979   16.2689 C   0  0  0  0  0  0  0  0  0  0  0  0
  -20.8535  -28.2182   20.1057 C   0  0  1  0  0  0  0  0  0  0  0  0
  -20.2338  -28.2767   16.3664 C   0  0  2  0  0  0  0  0  0  0  0  0
  -19.6984  -27.9050   21.0981 C   0  0  0  0  0  0  0  0  0  0  0  0
  -25.5627  -15.6424   20.5360 N   0  0  0  0  0  0  0  0  0  0  0  0
  -29.4149  -20.6260   19.6221 N   0  0  0  0  0  0  0  0  0  0  0  0
  -25.6162  -14.3440   20.1936 N   0  0  0  0  0  0  0  0  0  0  0  0
  -23.0462  -29.1509   20.7738 N   0  0  0  0  0  0  0  0  0  0  0  0
  -29.3849  -13.8828   19.7545 N   0  0  0  0  0  0  0  0  0  0  0  0
  -24.2727  -12.5063   19.5391 N   0  0  0  0  0  0  0  0  0  0  0  0
  -21.2798  -15.8450   20.0793 N   0  0  0  0  0  0  0  0  0  0  0  0
  -24.5711  -30.8672   23.6068 N   0  0  0  0  0  0  0  0  0  0  0  0
  -20.4107  -28.5136   18.7474 N   0  0  0  0  0  0  0  0  0  0  0  0
  -29.8385  -14.3526   17.4813 N   0  0  0  0  0  0  0  0  0  0  0  0
  -21.1976  -28.1013   15.2433 N   0  3  0  0  0  0  0  0  0  0  0  0
  -21.5212  -13.6315   19.5307 O   0  0  0  0  0  0  0  0  0  0  0  0
  -23.3324  -28.9187   23.3036 O   0  0  0  0  0  0  0  0  0  0  0  0
  -21.1488  -30.5024   20.6732 O   0  0  0  0  0  0  0  0  0  0  0  0
  -21.6133  -26.8214   17.7142 O   0  0  0  0  0  0  0  0  0  0  0  0
  -31.3273  -13.1365   18.7308 O   0  0  0  0  0  0  0  0  0  0  0  0
  -22.4229  -21.0756   21.6185 O   0  0  0  0  0  0  0  0  0  0  0  0
  -27.8035  -25.2832   20.0947 O   0  0  0  0  0  0  0  0  0  1  0  0
  -24.4156  -23.5587   26.1205 F   0  0  0  0  0  0  0  0  0  0  0  0
  -25.1315  -21.5568   21.8913 F   0  0  0  0  0  0  0  0  0  0  0  0
  1  2  1  0  0  0  0
  1  5  2  0  0  0  0
  2  6  2  0  0  0  0
  3  8  2  0  0  0  0
  3 16  1  0  0  0  0
  4  9  1  0  0  0  0
  4 16  2  0  0  0  0
  5 18  1  0  0  0  0
  6 20  1  0  0  0  0
  7 10  2  0  0  0  0
  7 19  1  0  0  0  0
  8 24  1  0  0  0  0
  9 24  2  0  0  0  0
 10 25  1  0  0  0  0
 11 12  2  0  0  0  0
 11 26  1  0  0  0  0
 12 27  1  0  0  0  0
 13 21  1  0  0  0  0
 13 25  2  0  0  0  0
 14 22  1  0  0  0  0
 14 30  2  0  0  0  0
 15 27  2  0  0  0  0
 15 28  1  0  0  0  0
 16 29  1  0  0  0  0
 17 29  1  0  0  0  0
 17 32  2  0  0  0  0
 17 33  1  0  0  0  0
 18 20  2  0  0  0  0
 18 38  1  0  0  0  0
 19 21  2  0  0  0  0
 19 39  1  0  0  0  0
 20 47  1  0  0  0  0
 21 40  1  0  0  0  0
 22 23  2  0  0  0  0
 22 57  1  0  0  0  0
 23 31  1  0  0  0  0
 23 50  1  0  0  0  0
 24 84  1  0  0  0  0
 25 85  1  0  0  0  0
 26 28  2  0  0  0  0
 26 84  1  0  0  0  0
 27 86  1  0  0  0  0
 28 87  1  0  0  0  0
 29 68  2  0  0  0  0
 30 51  1  0  0  0  0
 30 69  1  0  0  0  0
 31 58  1  0  0  0  0
 31 69  2  0  0  0  0
 32 70  1  0  0  0  0
 32 73  1  0  0  0  0
 33 74  1  0  0  0  0
 33 79  2  0  0  0  0
 34 48  1  0  0  0  0
 34 75  1  0  0  0  0
 34 80  2  0  0  0  0
 35 65  1  0  0  0  0
 35 71  1  0  0  0  0
 35 81  2  0  0  0  0
 36 66  1  0  0  0  0
 36 76  1  0  0  0  0
 36 82  2  0  0  0  0
 37 72  1  0  0  0  0
 37 77  1  0  0  0  0
 37 83  2  0  0  0  0
 38 41  1  0  0  0  0
 39 48  1  0  0  0  0
 40 71  1  0  0  0  0
 41 43  1  0  0  0  0
 42 44  1  0  0  0  0
 42 45  1  0  0  0  0
 43 47  1  0  0  0  0
 44 49  1  0  0  0  0
 45 72  1  0  0  0  0
 46 49  1  0  0  0  0
 46 72  1  0  0  0  0
 47 75  1  0  0  0  0
 48 71  1  0  0  0  0
 49 70  1  0  0  0  0
 52 66  1  0  0  0  0
 53 67  1  0  0  0  0
 54 67  1  0  0  0  0
 55 67  1  0  0  0  0
 56 78  1  0  0  0  0
 57 85  1  0  0  0  0
 58 59  1  0  0  0  0
 59 60  1  0  0  0  0
 60 61  1  0  0  0  0
 61 62  1  0  0  0  0
 62 63  1  0  0  0  0
 63 64  1  0  0  0  0
 64 77  1  0  0  0  0
 65 67  1  0  0  0  0
 65 76  1  0  0  0  0
 66 78  1  0  0  0  0
 68 70  1  0  0  0  0
M  CHG  1  78   1
M  ISO  4  37 100  57 101  77 100  85 101
M  END
> <Batch ID>
0032

> <Smiles>
CNC(C)C(=O)NC(C(=O)N1Cc2cc([101O:1][101CH2:1]c3cc(C)nc(CCCCCCC[100NH:0][100C:0](=O)N4CCCC(n5nc(-c6ccc(Oc7ccc(F)cc7F)cc6)c(C(N)=O)c5N)C4)c3C)ccc2CC1C(=O)NC1CCCc2ccccc21)C(C)(C)C

> <Shape>
0.250

> <Color>
0.071

> <Negative vol penalty>
0.000

$$$$

  -OEChem-04052316453D

 86 94  0     1  0  0  0  0  0999 V2000
  -18.5329  -24.9628   25.1784 C   0  0  0  0  0  0  0  0  0  0  0  0
  -19.8760  -24.6830   24.9479 C   0  0  0  0  0  0  0  0  0  0  0  0
  -26.9160  -14.9047   21.6794 C   0  0  0  0  0  0  0  0  0  0  0  0
  -26.3766  -15.2677   19.3525 C   0  0  0  0  0  0  0  0  0  0  0  0
  -17.9541  -26.1029   24.6224 C   0  0  0  0  0  0  0  0  0  0  0  0
  -20.6409  -25.5426   24.1602 C   0  0  0  0  0  0  0  0  0  0  0  0
  -26.5700  -26.8974   24.8793 C   0  0  0  0  0  0  0  0  0  0  0  0
  -26.5341  -13.5686   21.5596 C   0  0  0  0  0  0  0  0  0  0  0  0
  -25.9947  -13.9315   19.2327 C   0  0  0  0  0  0  0  0  0  0  0  0
  -27.7235  -26.4180   24.2601 C   0  0  0  0  0  0  0  0  0  0  0  0
  -27.5099  -10.9319   18.8763 C   0  0  0  0  0  0  0  0  0  0  0  0
  -27.9561  -10.2299   17.7566 C   0  0  0  0  0  0  0  0  0  0  0  0
  -27.6700  -28.2827   22.7305 C   0  0  0  0  0  0  0  0  0  0  0  0
  -25.6670   -9.8245   17.0986 C   0  0  0  0  0  0  0  0  0  0  0  0
  -26.8372  -15.7543   20.5759 C   0  0  0  0  0  0  0  0  0  0  0  0
  -28.5134  -17.6753   20.4860 C   0  0  0  0  0  0  0  0  0  0  0  0
  -18.7148  -26.9821   23.8355 C   0  0  0  0  0  0  0  0  0  0  0  0
  -25.9506  -28.0691   24.4211 C   0  0  0  0  0  0  0  0  0  0  0  0
  -20.0715  -26.6949   23.5921 C   0  0  0  0  0  0  0  0  0  0  0  0
  -26.5102  -28.7762   23.3473 C   0  0  0  0  0  0  0  0  0  0  0  0
  -27.4164  -25.6589   17.1982 C   0  0  0  0  0  0  0  0  0  0  0  0
  -26.0735  -13.0819   20.3362 C   0  0  0  0  0  0  0  0  0  0  0  0
  -28.2720  -27.1091   23.1837 C   0  0  0  0  0  0  0  0  0  0  0  0
  -26.1423  -11.0802   19.1072 C   0  0  0  0  0  0  0  0  0  0  0  0
  -27.0347   -9.6762   16.8678 C   0  0  0  0  0  0  0  0  0  0  0  0
  -25.2209  -10.5265   18.2183 C   0  0  0  0  0  0  0  0  0  0  0  0
  -27.6103  -27.0613   17.1454 C   0  0  0  0  0  0  0  0  0  0  0  0
  -27.2311  -17.1348   20.6992 C   0  0  0  0  0  0  0  0  0  0  0  0
  -28.4771  -25.1230   17.8946 C   0  0  0  0  0  0  0  0  0  0  0  0
  -28.7837  -27.3397   17.8110 C   0  0  0  0  0  0  0  0  0  0  0  0
  -28.3645  -19.0189   20.7292 C   0  0  0  0  0  0  0  0  0  0  0  0
  -29.7303  -17.0214   20.1024 C   0  0  0  0  0  0  0  0  0  0  0  0
  -23.1037  -28.7682   23.1922 C   0  0  0  0  0  0  0  0  0  0  0  0
  -24.1906  -31.8165   23.4126 C   0  0  0  0  0  0  0  0  0  0  0  0
  -26.8607  -33.9363   23.5676 C   0  0  0  0  0  0  0  0  0  0  0  0
  -23.6579  -22.7114   20.4753 C   0  0  0  0  0  0  0  0  0  0  0  0
  -18.0335  -28.1769   23.2168 C   0  0  0  0  0  0  0  0  0  0  0  0
  -24.7220  -28.5875   25.1169 C   0  0  0  0  0  0  0  0  0  0  0  0
  -25.8951  -30.0500   22.8300 C   0  0  0  0  0  0  0  0  0  0  0  0
  -19.0068  -29.2346   22.7028 C   0  0  0  0  0  0  0  0  0  0  0  0
  -25.7434  -22.0920   23.2938 C   0  0  0  0  0  0  0  0  0  0  0  0
  -20.1257  -28.5834   21.8961 C   0  0  0  0  0  0  0  0  0  0  0  0
  -26.4768  -20.8000   22.9292 C   0  0  0  0  0  0  0  0  0  0  0  0
  -24.3040  -22.0869   22.7838 C   0  0  0  0  0  0  0  0  0  0  0  0
  -24.8919  -20.5158   20.9783 C   0  0  0  0  0  0  0  0  0  0  0  0
  -20.9403  -27.6162   22.7636 C   0  0  1  0  0  0  0  0  0  0  0  0
  -23.8835  -29.5118   24.2393 C   0  0  1  0  0  0  0  0  0  0  0  0
  -26.3644  -20.4974   21.4228 C   0  0  2  0  0  0  0  0  0  0  0  0
  -28.7762  -23.7174   18.2421 C   0  0  0  0  0  0  0  0  0  0  0  0
  -29.4594  -28.6316   18.0581 C   0  0  0  0  0  0  0  0  0  0  0  0
  -27.4341  -36.3755   23.7044 C   0  0  0  0  0  0  0  0  0  0  0  0
  -23.5150  -32.1387   20.4546 C   0  0  0  0  0  0  0  0  0  0  0  0
  -24.9487  -34.1909   20.4223 C   0  0  0  0  0  0  0  0  0  0  0  0
  -22.9259  -34.1076   21.8797 C   0  0  0  0  0  0  0  0  0  0  0  0
  -28.2429  -33.5849   26.1609 C   0  0  0  0  0  0  0  0  0  0  0  0
  -26.2887  -24.8998   16.6178 C   0  0  0  0  0  0  0  0  0  0  0  0
  -25.2545  -24.4681   17.6766 C   0  0  0  0  0  0  0  0  0  0  0  0
  -24.1127  -23.6480   17.0688 C   0  0  0  0  0  0  0  0  0  0  0  0
  -30.3691  -25.8134   20.5463 C   0  0  0  0  0  0  0  0  0  0  0  0
  -30.5831  -26.0057   19.0433 C   0  0  0  0  0  0  0  0  0  0  0  0
  -23.0904  -23.2044   18.1101 C   0  0  0  0  0  0  0  0  0  0  0  0
  -29.5525  -26.9293   21.1877 C   0  0  0  0  0  0  0  0  0  1  0  0
  -24.9615  -32.7449   22.5055 C   0  0  1  0  0  0  0  0  0  0  0  0
  -27.1699  -35.1009   24.4908 C   0  0  2  0  0  0  0  0  0  0  0  0
  -24.0985  -33.2705   21.3238 C   0  0  0  0  0  0  0  0  0  0  0  0
  -26.3337  -18.0595   21.0509 N   0  0  0  0  0  0  0  0  0  0  0  0
  -29.3021  -26.1539   18.2619 N   0  0  0  0  0  0  0  0  0  0  0  0
  -27.0532  -19.1946   21.0607 N   0  0  0  0  0  0  0  0  0  0  0  0
  -24.6911  -30.5130   23.5396 N   0  0  0  0  0  0  0  0  0  0  0  0
  -24.2673  -21.7955   21.3486 N   0  0  0  0  0  0  0  0  0  0  0  0
  -29.2286  -20.0553   20.6898 N   0  0  0  0  0  0  0  0  0  0  0  0
  -29.7067  -15.6358   19.8925 N   0  0  0  0  0  0  0  0  0  0  0  0
  -21.8563  -28.3477   23.6124 N   0  0  0  0  0  0  0  0  0  0  0  0
  -25.5048  -33.7939   23.3615 N   0  0  0  0  0  0  0  0  0  0  0  0
  -23.6723  -22.3614   19.1307 N   0  0  0  0  0  0  0  0  0  0  0  0
  -28.3729  -34.8012   25.3178 N   0  3  0  0  0  0  0  0  0  0  0  0
  -30.8103  -17.6446   19.9661 O   0  0  0  0  0  0  0  0  0  0  0  0
  -23.5966  -28.5904   22.0844 O   0  0  0  0  0  0  0  0  0  0  0  0
  -23.1856  -32.2346   23.9929 O   0  0  0  0  0  0  0  0  0  0  0  0
  -27.7348  -33.2262   23.0753 O   0  0  0  0  0  0  0  0  0  0  0  0
  -23.1441  -23.7657   20.8644 O   0  0  0  0  0  0  0  0  0  0  0  0
  -25.7009  -11.7781   20.2188 O   0  0  0  0  0  0  0  0  0  0  0  0
  -29.3975  -26.6430   22.5771 O   0  0  0  0  0  0  0  0  0  1  0  0
  -27.4633   -9.0034   15.7918 F   0  0  0  0  0  0  0  0  0  0  0  0
  -23.9057  -10.6667   18.4343 F   0  0  0  0  0  0  0  0  0  0  0  0
  -26.5692  -28.1746   16.3909 Cl  0  0  0  0  0  0  0  0  0  0  0  0
  1  2  1  0  0  0  0
  1  5  2  0  0  0  0
  2  6  2  0  0  0  0
  3  8  2  0  0  0  0
  3 15  1  0  0  0  0
  4  9  1  0  0  0  0
  4 15  2  0  0  0  0
  5 17  1  0  0  0  0
  6 19  1  0  0  0  0
  7 10  2  0  0  0  0
  7 18  1  0  0  0  0
  8 22  1  0  0  0  0
  9 22  2  0  0  0  0
 10 23  1  0  0  0  0
 11 12  2  0  0  0  0
 11 24  1  0  0  0  0
 12 25  1  0  0  0  0
 13 20  1  0  0  0  0
 13 23  2  0  0  0  0
 14 25  2  0  0  0  0
 14 26  1  0  0  0  0
 15 28  1  0  0  0  0
 16 28  1  0  0  0  0
 16 31  2  0  0  0  0
 16 32  1  0  0  0  0
 17 19  2  0  0  0  0
 17 37  1  0  0  0  0
 18 20  2  0  0  0  0
 18 38  1  0  0  0  0
 19 46  1  0  0  0  0
 20 39  1  0  0  0  0
 21 27  1  0  0  0  0
 21 29  2  0  0  0  0
 21 56  1  0  0  0  0
 22 82  1  0  0  0  0
 23 83  1  0  0  0  0
 24 26  2  0  0  0  0
 24 82  1  0  0  0  0
 25 84  1  0  0  0  0
 26 85  1  0  0  0  0
 27 30  2  0  0  0  0
 27 86  1  0  0  0  0
 28 66  2  0  0  0  0
 29 49  1  0  0  0  0
 29 67  1  0  0  0  0
 30 50  1  0  0  0  0
 30 67  1  0  0  0  0
 31 68  1  0  0  0  0
 31 71  1  0  0  0  0
 32 72  1  0  0  0  0
 32 77  2  0  0  0  0
 33 47  1  0  0  0  0
 33 73  1  0  0  0  0
 33 78  2  0  0  0  0
 34 63  1  0  0  0  0
 34 69  1  0  0  0  0
 34 79  2  0  0  0  0
 35 64  1  0  0  0  0
 35 74  1  0  0  0  0
 35 80  2  0  0  0  0
 36 70  1  0  0  0  0
 36 75  1  0  0  0  0
 36 81  2  0  0  0  0
 37 40  1  0  0  0  0
 38 47  1  0  0  0  0
 39 69  1  0  0  0  0
 40 42  1  0  0  0  0
 41 43  1  0  0  0  0
 41 44  1  0  0  0  0
 42 46  1  0  0  0  0
 43 48  1  0  0  0  0
 44 70  1  0  0  0  0
 45 48  1  0  0  0  0
 45 70  1  0  0  0  0
 46 73  1  0  0  0  0
 47 69  1  0  0  0  0
 48 68  1  0  0  0  0
 51 64  1  0  0  0  0
 52 65  1  0  0  0  0
 53 65  1  0  0  0  0
 54 65  1  0  0  0  0
 55 76  1  0  0  0  0
 56 57  1  0  0  0  0
 57 58  1  0  0  0  0
 58 61  1  0  0  0  0
 59 60  1  0  0  0  0
 59 62  1  0  0  0  0
 60 67  1  0  0  0  0
 61 75  1  0  0  0  0
 62 83  1  0  0  0  0
 63 65  1  0  0  0  0
 63 74  1  0  0  0  0
 64 76  1  0  0  0  0
 66 68  1  0  0  0  0
M  CHG  1  76   1
M  ISO  4  36 100  62 101  75 100  83 101
M  END
> <Batch ID>
0032

> <Smiles>
CNC(C)C(=O)NC(C(=O)N1Cc2cc([101O:1][101CH2:1]CCn3c(C)c(Cl)c(CCCC[100NH:0][100C:0](=O)N4CCCC(n5nc(-c6ccc(Oc7ccc(F)cc7F)cc6)c(C(N)=O)c5N)C4)c3C)ccc2CC1C(=O)NC1CCCc2ccccc21)C(C)(C)C

> <Shape>
0.210

> <Color>
0.091

> <Negative vol penalty>
0.000

$$$$

  -OEChem-04052316453D

 82 90  0     1  0  0  0  0  0999 V2000
  -32.6122  -31.7296   25.5922 C   0  0  0  0  0  0  0  0  0  0  0  0
  -31.9196  -30.5420   25.3792 C   0  0  0  0  0  0  0  0  0  0  0  0
  -23.0642   -9.8734   19.9534 C   0  0  0  0  0  0  0  0  0  0  0  0
  -23.8550   -9.8787   22.2363 C   0  0  0  0  0  0  0  0  0  0  0  0
  -33.3973  -32.2695   24.5743 C   0  0  0  0  0  0  0  0  0  0  0  0
  -32.0108  -29.8943   24.1477 C   0  0  0  0  0  0  0  0  0  0  0  0
  -32.6954  -24.8995   24.6260 C   0  0  0  0  0  0  0  0  0  0  0  0
  -22.3259   -8.7185   20.2118 C   0  0  0  0  0  0  0  0  0  0  0  0
  -23.1167   -8.7239   22.4948 C   0  0  0  0  0  0  0  0  0  0  0  0
  -31.5755  -24.1305   24.9394 C   0  0  0  0  0  0  0  0  0  0  0  0
  -20.5170   -5.5641   20.1737 C   0  0  0  0  0  0  0  0  0  0  0  0
  -20.5695   -4.5351   19.2336 C   0  0  0  0  0  0  0  0  0  0  0  0
  -31.3628  -23.5056   22.6192 C   0  0  0  0  0  0  0  0  0  0  0  0
  -30.4050  -18.8543   25.0646 C   0  0  0  0  0  0  0  0  0  0  0  0
  -29.1050  -19.7629   23.2421 C   0  0  0  0  0  0  0  0  0  0  0  0
  -22.9591   -4.3690   19.5489 C   0  0  0  0  0  0  0  0  0  0  0  0
  -23.8288  -10.4535   20.9656 C   0  0  0  0  0  0  0  0  0  0  0  0
  -24.1643  -12.9794   20.8444 C   0  0  0  0  0  0  0  0  0  0  0  0
  -33.5059  -31.6230   23.3330 C   0  0  0  0  0  0  0  0  0  0  0  0
  -33.1517  -24.9862   23.3029 C   0  0  0  0  0  0  0  0  0  0  0  0
  -32.7971  -30.4268   23.1119 C   0  0  0  0  0  0  0  0  0  0  0  0
  -32.4902  -24.2743   22.2920 C   0  0  0  0  0  0  0  0  0  0  0  0
  -29.4912  -19.7912   24.5822 C   0  0  0  0  0  0  0  0  0  0  0  0
  -30.5466  -17.8608   22.8669 C   0  0  0  0  0  0  0  0  0  0  0  0
  -22.3521   -8.1438   21.4825 C   0  0  0  0  0  0  0  0  0  0  0  0
  -30.9073  -23.4357   23.9355 C   0  0  0  0  0  0  0  0  0  0  0  0
  -21.6856   -5.9957   20.8014 C   0  0  0  0  0  0  0  0  0  0  0  0
  -21.7905   -3.9375   18.9212 C   0  0  0  0  0  0  0  0  0  0  0  0
  -22.9066   -5.3981   20.4890 C   0  0  0  0  0  0  0  0  0  0  0  0
  -30.9327  -17.8891   24.2069 C   0  0  0  0  0  0  0  0  0  0  0  0
  -29.6327  -18.7977   22.3844 C   0  0  0  0  0  0  0  0  0  0  0  0
  -24.5921  -11.6461   20.6991 C   0  0  0  0  0  0  0  0  0  0  0  0
  -25.2500  -13.7314   20.4674 C   0  0  0  0  0  0  0  0  0  0  0  0
  -22.8986  -13.4923   21.2812 C   0  0  0  0  0  0  0  0  0  0  0  0
  -33.4960  -27.3438   21.1988 C   0  0  0  0  0  0  0  0  0  0  0  0
  -30.7562  -14.6940   20.6795 C   0  0  0  0  0  0  0  0  0  0  0  0
  -34.8970  -25.0243   19.4157 C   0  0  0  0  0  0  0  0  0  0  0  0
  -35.2365  -21.6962   18.7411 C   0  0  0  0  0  0  0  0  0  0  0  0
  -34.3291  -32.2697   22.2473 C   0  0  0  0  0  0  0  0  0  0  0  0
  -34.3771  -25.7986   22.9855 C   0  0  0  0  0  0  0  0  0  0  0  0
  -32.9520  -24.3181   20.8591 C   0  0  0  0  0  0  0  0  0  0  0  0
  -34.6709  -31.3251   21.0978 C   0  0  0  0  0  0  0  0  0  0  0  0
  -29.5620  -12.3985   18.2007 C   0  0  0  0  0  0  0  0  0  0  0  0
  -33.4328  -30.5507   20.6570 C   0  0  0  0  0  0  0  0  0  0  0  0
  -28.1383  -12.0845   18.6584 C   0  0  0  0  0  0  0  0  0  0  0  0
  -30.4983  -12.6013   19.3878 C   0  0  0  0  0  0  0  0  0  0  0  0
  -28.6127  -13.3306   20.8141 C   0  0  0  0  0  0  0  0  0  0  0  0
  -32.8906  -29.6816   21.7981 C   0  0  1  0  0  0  0  0  0  0  0  0
  -34.4477  -26.2271   21.5230 C   0  0  1  0  0  0  0  0  0  0  0  0
  -27.6277  -13.1489   19.6458 C   0  0  2  0  0  0  0  0  0  0  0  0
  -36.4249  -20.1093   17.2027 C   0  0  0  0  0  0  0  0  0  0  0  0
  -32.9642  -25.7567   17.1712 C   0  0  0  0  0  0  0  0  0  0  0  0
  -33.5321  -23.5825   16.0672 C   0  0  0  0  0  0  0  0  0  0  0  0
  -35.3064  -25.2994   16.4232 C   0  0  0  0  0  0  0  0  0  0  0  0
  -36.6326  -20.3764   20.9924 C   0  0  0  0  0  0  0  0  0  0  0  0
  -28.9206  -20.8361   25.5101 C   0  0  0  0  0  0  0  0  0  0  0  0
  -31.1140  -16.8244   21.9454 C   0  0  0  0  0  0  0  0  0  0  0  0
  -30.1391  -15.6857   21.6334 C   0  0  0  0  0  0  0  0  0  0  0  0
  -29.7640  -22.1059   25.5420 C   0  0  0  0  0  0  0  0  0  1  0  0
  -34.4117  -24.0118   18.4066 C   0  0  1  0  0  0  0  0  0  0  0  0
  -36.4665  -20.8292   18.5416 C   0  0  2  0  0  0  0  0  0  0  0  0
  -34.0435  -24.6631   17.0436 C   0  0  0  0  0  0  0  0  0  0  0  0
  -25.8514  -11.5532   20.2636 N   0  0  0  0  0  0  0  0  0  0  0  0
  -26.2241  -12.8377   20.1320 N   0  0  0  0  0  0  0  0  0  0  0  0
  -34.1511  -25.1313   20.5981 N   0  0  0  0  0  0  0  0  0  0  0  0
  -29.9671  -13.6034   20.3135 N   0  0  0  0  0  0  0  0  0  0  0  0
  -25.4569  -15.0634   20.3933 N   0  0  0  0  0  0  0  0  0  0  0  0
  -21.8930  -12.5808   21.6308 N   0  0  0  0  0  0  0  0  0  0  0  0
  -33.6937  -28.4872   21.9492 N   0  0  0  0  0  0  0  0  0  0  0  0
  -35.4509  -22.9915   18.3199 N   0  0  0  0  0  0  0  0  0  0  0  0
  -36.5606  -19.8071   19.6221 N   0  3  0  0  0  0  0  0  0  0  0  0
  -22.6609  -14.7224   21.3433 O   0  0  0  0  0  0  0  0  0  0  0  0
  -32.6462  -27.1806   20.3311 O   0  0  0  0  0  0  0  0  0  0  0  0
  -31.9043  -14.8862   20.2707 O   0  0  0  0  0  0  0  0  0  0  0  0
  -35.9050  -25.6905   19.1672 O   0  0  0  0  0  0  0  0  0  0  0  0
  -34.1890  -21.2663   19.2191 O   0  0  0  0  0  0  0  0  0  0  0  0
  -21.6317   -7.0170   21.7351 O   0  0  0  0  0  0  0  0  0  0  0  0
  -29.8136  -22.6848   24.2386 O   0  0  0  0  0  0  0  0  0  1  0  0
  -21.8406   -2.9482   18.0195 F   0  0  0  0  0  0  0  0  0  0  0  0
  -24.0324   -5.8076   21.0896 F   0  0  0  0  0  0  0  0  0  0  0  0
  -32.0615  -16.7487   24.8457 Cl  0  0  0  0  0  0  0  0  0  0  0  0
  -29.1280  -18.7993   20.7328 Cl  0  0  0  0  0  0  0  0  0  0  0  0
  1  2  1  0  0  0  0
  1  5  2  0  0  0  0
  2  6  2  0  0  0  0
  3  8  2  0  0  0  0
  3 17  1  0  0  0  0
  4  9  1  0  0  0  0
  4 17  2  0  0  0  0
  5 19  1  0  0  0  0
  6 21  1  0  0  0  0
  7 10  2  0  0  0  0
  7 20  1  0  0  0  0
  8 25  1  0  0  0  0
  9 25  2  0  0  0  0
 10 26  1  0  0  0  0
 11 12  2  0  0  0  0
 11 27  1  0  0  0  0
 12 28  1  0  0  0  0
 13 22  1  0  0  0  0
 13 26  2  0  0  0  0
 14 23  1  0  0  0  0
 14 30  2  0  0  0  0
 15 23  2  0  0  0  0
 15 31  1  0  0  0  0
 16 28  2  0  0  0  0
 16 29  1  0  0  0  0
 17 32  1  0  0  0  0
 18 32  1  0  0  0  0
 18 33  2  0  0  0  0
 18 34  1  0  0  0  0
 19 21  2  0  0  0  0
 19 39  1  0  0  0  0
 20 22  2  0  0  0  0
 20 40  1  0  0  0  0
 21 48  1  0  0  0  0
 22 41  1  0  0  0  0
 23 56  1  0  0  0  0
 24 30  1  0  0  0  0
 24 31  2  0  0  0  0
 24 57  1  0  0  0  0
 25 77  1  0  0  0  0
 26 78  1  0  0  0  0
 27 29  2  0  0  0  0
 27 77  1  0  0  0  0
 28 79  1  0  0  0  0
 29 80  1  0  0  0  0
 30 81  1  0  0  0  0
 31 82  1  0  0  0  0
 32 63  2  0  0  0  0
 33 64  1  0  0  0  0
 33 67  1  0  0  0  0
 34 68  1  0  0  0  0
 34 72  2  0  0  0  0
 35 49  1  0  0  0  0
 35 69  1  0  0  0  0
 35 73  2  0  0  0  0
 36 58  1  0  0  0  0
 36 66  1  0  0  0  0
 36 74  2  0  0  0  0
 37 60  1  0  0  0  0
 37 65  1  0  0  0  0
 37 75  2  0  0  0  0
 38 61  1  0  0  0  0
 38 70  1  0  0  0  0
 38 76  2  0  0  0  0
 39 42  1  0  0  0  0
 40 49  1  0  0  0  0
 41 65  1  0  0  0  0
 42 44  1  0  0  0  0
 43 45  1  0  0  0  0
 43 46  1  0  0  0  0
 44 48  1  0  0  0  0
 45 50  1  0  0  0  0
 46 66  1  0  0  0  0
 47 50  1  0  0  0  0
 47 66  1  0  0  0  0
 48 69  1  0  0  0  0
 49 65  1  0  0  0  0
 50 64  1  0  0  0  0
 51 61  1  0  0  0  0
 52 62  1  0  0  0  0
 53 62  1  0  0  0  0
 54 62  1  0  0  0  0
 55 71  1  0  0  0  0
 56 59  1  0  0  0  0
 57 58  1  0  0  0  0
 59 78  1  0  0  0  0
 60 62  1  0  0  0  0
 60 70  1  0  0  0  0
 61 71  1  0  0  0  0
 63 64  1  0  0  0  0
M  CHG  1  71   1
M  ISO  4  36 100  58 100  59 101  78 101
M  END
> <Batch ID>
0032

> <Smiles>
CNC(C)C(=O)NC(C(=O)N1Cc2cc([101O:1][101CH2:1]Cc3cc(Cl)c(C[100CH2:0][100C:0](=O)N4CCCC(n5nc(-c6ccc(Oc7ccc(F)cc7F)cc6)c(C(N)=O)c5N)C4)c(Cl)c3)ccc2CC1C(=O)NC1CCCc2ccccc21)C(C)(C)C

> <Shape>
0.163

> <Color>
0.203

> <Negative vol penalty>
0.000

$$$$

  -OEChem-04052316453D

 91 99  0     1  0  0  0  0  0999 V2000
  -17.3215  -28.8641   19.4647 C   0  0  0  0  0  0  0  0  0  0  0  0
  -18.3388  -28.3914   20.2876 C   0  0  0  0  0  0  0  0  0  0  0  0
  -23.1325   -9.8356   19.9421 C   0  0  0  0  0  0  0  0  0  0  0  0
  -23.5530   -9.9753   22.3171 C   0  0  0  0  0  0  0  0  0  0  0  0
  -17.6193  -29.3170   18.1801 C   0  0  0  0  0  0  0  0  0  0  0  0
  -19.6544  -28.3705   19.8259 C   0  0  0  0  0  0  0  0  0  0  0  0
  -22.9464  -30.1052   23.2608 C   0  0  0  0  0  0  0  0  0  0  0  0
  -22.3425   -8.7047   20.1485 C   0  0  0  0  0  0  0  0  0  0  0  0
  -22.7630   -8.8444   22.5235 C   0  0  0  0  0  0  0  0  0  0  0  0
  -23.3029  -29.2404   24.2946 C   0  0  0  0  0  0  0  0  0  0  0  0
  -23.0799   -5.4930   22.2097 C   0  0  0  0  0  0  0  0  0  0  0  0
  -23.5692   -4.5085   23.0682 C   0  0  0  0  0  0  0  0  0  0  0  0
  -25.3536  -28.7136   23.1385 C   0  0  0  0  0  0  0  0  0  0  0  0
  -25.0341  -27.1501   28.5401 C   0  0  0  0  0  0  0  0  0  0  0  0
  -24.5044  -25.2682   27.1206 C   0  0  0  0  0  0  0  0  0  0  0  0
  -21.6420   -4.7961   24.4965 C   0  0  0  0  0  0  0  0  0  0  0  0
  -23.7378  -10.4709   21.0264 C   0  0  0  0  0  0  0  0  0  0  0  0
  -24.1325  -12.9818   20.8097 C   0  0  0  0  0  0  0  0  0  0  0  0
  -18.9406  -29.3106   17.7060 C   0  0  0  0  0  0  0  0  0  0  0  0
  -23.7871  -30.2728   22.1510 C   0  0  0  0  0  0  0  0  0  0  0  0
  -19.9700  -28.8225   18.5333 C   0  0  0  0  0  0  0  0  0  0  0  0
  -25.0066  -29.5831   22.0932 C   0  0  0  0  0  0  0  0  0  0  0  0
  -24.5065  -26.6437   27.3523 C   0  0  0  0  0  0  0  0  0  0  0  0
  -25.5598  -26.2810   29.4961 C   0  0  0  0  0  0  0  0  0  0  0  0
  -25.0301  -24.3991   28.0767 C   0  0  0  0  0  0  0  0  0  0  0  0
  -22.1578   -8.2091   21.4392 C   0  0  0  0  0  0  0  0  0  0  0  0
  -24.5053  -28.5422   24.2322 C   0  0  0  0  0  0  0  0  0  0  0  0
  -21.8716   -6.1291   22.4947 C   0  0  0  0  0  0  0  0  0  0  0  0
  -22.8503   -4.1601   24.2116 C   0  0  0  0  0  0  0  0  0  0  0  0
  -21.1527   -5.7807   23.6381 C   0  0  0  0  0  0  0  0  0  0  0  0
  -25.5578  -24.9055   29.2644 C   0  0  0  0  0  0  0  0  0  0  0  0
  -24.5544  -11.6388   20.8138 C   0  0  0  0  0  0  0  0  0  0  0  0
  -25.2771  -13.7006   20.5655 C   0  0  0  0  0  0  0  0  0  0  0  0
  -22.8230  -13.5306   21.0088 C   0  0  0  0  0  0  0  0  0  0  0  0
  -23.5159  -29.7350   19.0300 C   0  0  0  0  0  0  0  0  0  0  0  0
  -26.4096  -31.1969   18.9221 C   0  0  0  0  0  0  0  0  0  0  0  0
  -29.2870  -32.0500   20.5468 C   0  0  0  0  0  0  0  0  0  0  0  0
  -31.0824  -12.5598   21.4867 C   0  0  0  0  0  0  0  0  0  0  0  0
  -19.2071  -29.7660   16.2931 C   0  0  0  0  0  0  0  0  0  0  0  0
  -23.4005  -31.2297   21.0569 C   0  0  0  0  0  0  0  0  0  0  0  0
  -25.9539  -29.7433   20.9332 C   0  0  0  0  0  0  0  0  0  0  0  0
  -20.6790  -30.0601   16.0153 C   0  0  0  0  0  0  0  0  0  0  0  0
  -29.5225  -13.3548   18.3865 C   0  0  0  0  0  0  0  0  0  0  0  0
  -21.5590  -28.9379   16.5566 C   0  0  0  0  0  0  0  0  0  0  0  0
  -28.0343  -13.1263   18.6566 C   0  0  0  0  0  0  0  0  0  0  0  0
  -30.3920  -12.3348   19.1183 C   0  0  0  0  0  0  0  0  0  0  0  0
  -28.6583  -12.0110   20.8397 C   0  0  0  0  0  0  0  0  0  0  0  0
  -21.4129  -28.8070   18.0775 C   0  0  1  0  0  0  0  0  0  0  0  0
  -24.0932  -30.9323   19.7306 C   0  0  1  0  0  0  0  0  0  0  0  0
  -27.7440  -13.0497   20.1676 C   0  0  2  0  0  0  0  0  0  0  0  0
  -26.1148  -26.8682   30.7540 C   0  0  0  0  0  0  0  0  0  0  0  0
  -31.4829  -33.2100   20.1866 C   0  0  0  0  0  0  0  0  0  0  0  0
  -27.4424  -28.7634   17.3985 C   0  0  0  0  0  0  0  0  0  0  0  0
  -29.7738  -29.5260   17.8999 C   0  0  0  0  0  0  0  0  0  0  0  0
  -28.2610  -30.9617   16.5314 C   0  0  0  0  0  0  0  0  0  0  0  0
  -28.6826  -34.0846   22.6093 C   0  0  0  0  0  0  0  0  0  0  0  0
  -25.0069  -22.9202   27.7832 C   0  0  0  0  0  0  0  0  0  0  0  0
  -23.9443  -27.5729   26.3302 C   0  0  0  0  0  0  0  0  0  1  0  0
  -26.3546  -22.3607   27.3138 C   0  0  0  0  0  0  0  0  0  0  0  0
  -26.3136  -20.8552   27.0337 C   0  0  0  0  0  0  0  0  0  0  0  0
  -27.6853  -20.3351   26.5984 C   0  0  0  0  0  0  0  0  0  0  0  0
  -27.6390  -18.8383   26.2868 C   0  0  0  0  0  0  0  0  0  0  0  0
  -29.0026  -18.3247   25.8191 C   0  0  0  0  0  0  0  0  0  0  0  0
  -28.9628  -16.8203   25.5438 C   0  0  0  0  0  0  0  0  0  0  0  0
  -30.3019  -16.2520   25.0642 C   0  0  0  0  0  0  0  0  0  0  0  0
  -30.3080  -14.7611   24.7133 C   0  0  0  0  0  0  0  0  0  0  0  0
  -31.6757  -14.2466   24.2631 C   0  0  0  0  0  0  0  0  0  0  0  0
  -31.6172  -12.7671   23.9013 C   0  0  0  0  0  0  0  0  0  0  0  0
  -27.8442  -30.7362   19.0148 C   0  0  1  0  0  0  0  0  0  0  0  0
  -30.0394  -33.3651   20.6395 C   0  0  2  0  0  0  0  0  0  0  0  0
  -28.3118  -29.9921   17.7322 C   0  0  0  0  0  0  0  0  0  0  0  0
  -25.8648  -11.5093   20.5898 N   0  0  0  0  0  0  0  0  0  0  0  0
  -26.2761  -12.7802   20.4427 N   0  0  0  0  0  0  0  0  0  0  0  0
  -25.5283  -30.6857   19.8853 N   0  0  0  0  0  0  0  0  0  0  0  0
  -30.0682  -12.3130   20.5468 N   0  0  0  0  0  0  0  0  0  0  0  0
  -25.5165  -15.0238   20.4460 N   0  0  0  0  0  0  0  0  0  0  0  0
  -21.7590  -12.6503   21.2483 N   0  0  0  0  0  0  0  0  0  0  0  0
  -22.1673  -29.8437   18.7488 N   0  0  0  0  0  0  0  0  0  0  0  0
  -28.6328  -31.9198   19.3400 N   0  0  0  0  0  0  0  0  0  0  0  0
  -30.6890  -12.5266   22.8189 N   0  0  0  0  0  0  0  0  0  0  0  0
  -30.0385  -33.8646   22.0436 N   0  3  0  0  0  0  0  0  0  0  0  0
  -22.6000  -14.7640   20.9591 O   0  0  0  0  0  0  0  0  0  0  0  0
  -24.2406  -28.7836   18.7629 O   0  0  0  0  0  0  0  0  0  0  0  0
  -26.0845  -31.9869   18.0323 O   0  0  0  0  0  0  0  0  0  0  0  0
  -29.2832  -31.2194   21.4528 O   0  0  0  0  0  0  0  0  0  0  0  0
  -32.2508  -12.7979   21.1624 O   0  0  0  0  0  0  0  0  0  0  0  0
  -21.3868   -7.1057   21.6410 O   0  0  0  0  0  0  0  0  0  0  0  0
  -24.8579  -27.6912   25.2464 O   0  0  0  0  0  0  0  0  0  1  0  0
  -23.3195   -3.2136   25.0350 F   0  0  0  0  0  0  0  0  0  0  0  0
  -19.9907   -6.3874   23.9165 F   0  0  0  0  0  0  0  0  0  0  0  0
  -26.2106  -23.8266   30.4513 Cl  0  0  0  0  0  0  0  0  0  0  0  0
  1  2  1  0  0  0  0
  1  5  2  0  0  0  0
  2  6  2  0  0  0  0
  3  8  2  0  0  0  0
  3 17  1  0  0  0  0
  4  9  1  0  0  0  0
  4 17  2  0  0  0  0
  5 19  1  0  0  0  0
  6 21  1  0  0  0  0
  7 10  2  0  0  0  0
  7 20  1  0  0  0  0
  8 26  1  0  0  0  0
  9 26  2  0  0  0  0
 10 27  1  0  0  0  0
 11 12  2  0  0  0  0
 11 28  1  0  0  0  0
 12 29  1  0  0  0  0
 13 22  1  0  0  0  0
 13 27  2  0  0  0  0
 14 23  1  0  0  0  0
 14 24  2  0  0  0  0
 15 23  2  0  0  0  0
 15 25  1  0  0  0  0
 16 29  2  0  0  0  0
 16 30  1  0  0  0  0
 17 32  1  0  0  0  0
 18 32  1  0  0  0  0
 18 33  2  0  0  0  0
 18 34  1  0  0  0  0
 19 21  2  0  0  0  0
 19 39  1  0  0  0  0
 20 22  2  0  0  0  0
 20 40  1  0  0  0  0
 21 48  1  0  0  0  0
 22 41  1  0  0  0  0
 23 58  1  0  0  0  0
 24 31  1  0  0  0  0
 24 51  1  0  0  0  0
 25 31  2  0  0  0  0
 25 57  1  0  0  0  0
 26 87  1  0  0  0  0
 27 88  1  0  0  0  0
 28 30  2  0  0  0  0
 28 87  1  0  0  0  0
 29 89  1  0  0  0  0
 30 90  1  0  0  0  0
 31 91  1  0  0  0  0
 32 72  2  0  0  0  0
 33 73  1  0  0  0  0
 33 76  1  0  0  0  0
 34 77  1  0  0  0  0
 34 82  2  0  0  0  0
 35 49  1  0  0  0  0
 35 78  1  0  0  0  0
 35 83  2  0  0  0  0
 36 69  1  0  0  0  0
 36 74  1  0  0  0  0
 36 84  2  0  0  0  0
 37 70  1  0  0  0  0
 37 79  1  0  0  0  0
 37 85  2  0  0  0  0
 38 75  1  0  0  0  0
 38 80  1  0  0  0  0
 38 86  2  0  0  0  0
 39 42  1  0  0  0  0
 40 49  1  0  0  0  0
 41 74  1  0  0  0  0
 42 44  1  0  0  0  0
 43 45  1  0  0  0  0
 43 46  1  0  0  0  0
 44 48  1  0  0  0  0
 45 50  1  0  0  0  0
 46 75  1  0  0  0  0
 47 50  1  0  0  0  0
 47 75  1  0  0  0  0
 48 78  1  0  0  0  0
 49 74  1  0  0  0  0
 50 73  1  0  0  0  0
 52 70  1  0  0  0  0
 53 71  1  0  0  0  0
 54 71  1  0  0  0  0
 55 71  1  0  0  0  0
 56 81  1  0  0  0  0
 57 59  1  0  0  0  0
 58 88  1  0  0  0  0
 59 60  1  0  0  0  0
 60 61  1  0  0  0  0
 61 62  1  0  0  0  0
 62 63  1  0  0  0  0
 63 64  1  0  0  0  0
 64 65  1  0  0  0  0
 65 66  1  0  0  0  0
 66 67  1  0  0  0  0
 67 68  1  0  0  0  0
 68 80  1  0  0  0  0
 69 71  1  0  0  0  0
 69 79  1  0  0  0  0
 70 81  1  0  0  0  0
 72 73  1  0  0  0  0
M  CHG  1  81   1
M  ISO  4  38 100  58 101  80 100  88 101
M  END
> <Batch ID>
0032

> <Smiles>
CNC(C)C(=O)NC(C(=O)N1Cc2cc([101O:1][101CH2:1]c3cc(C)c(Cl)c(CCCCCCCCCCC[100NH:0][100C:0](=O)N4CCCC(n5nc(-c6ccc(Oc7ccc(F)cc7F)cc6)c(C(N)=O)c5N)C4)c3)ccc2CC1C(=O)NC1CCCc2ccccc21)C(C)(C)C

> <Shape>
0.202

> <Color>
0.213

> <Negative vol penalty>
0.000

$$$$

  -OEChem-04052316453D

 80 88  0     1  0  0  0  0  0999 V2000
  -31.9502  -29.8481   25.8836 C   0  0  0  0  0  0  0  0  0  0  0  0
  -31.9443  -28.5426   25.4030 C   0  0  0  0  0  0  0  0  0  0  0  0
  -22.9983   -9.8972   19.9862 C   0  0  0  0  0  0  0  0  0  0  0  0
  -23.7585   -9.9380   22.2791 C   0  0  0  0  0  0  0  0  0  0  0  0
  -33.0420  -30.6777   25.6313 C   0  0  0  0  0  0  0  0  0  0  0  0
  -33.0299  -28.0661   24.6690 C   0  0  0  0  0  0  0  0  0  0  0  0
  -34.4631  -23.4275   26.1091 C   0  0  0  0  0  0  0  0  0  0  0  0
  -22.2399   -8.7586   20.2578 C   0  0  0  0  0  0  0  0  0  0  0  0
  -23.0001   -8.7993   22.5508 C   0  0  0  0  0  0  0  0  0  0  0  0
  -33.6958  -22.3549   25.6568 C   0  0  0  0  0  0  0  0  0  0  0  0
  -23.2488   -5.4639   22.0564 C   0  0  0  0  0  0  0  0  0  0  0  0
  -23.8514   -4.4447   22.7937 C   0  0  0  0  0  0  0  0  0  0  0  0
  -35.3276  -21.9219   23.9338 C   0  0  0  0  0  0  0  0  0  0  0  0
  -31.9240  -16.5854   23.1121 C   0  0  0  0  0  0  0  0  0  0  0  0
  -31.1815  -17.8679   21.2040 C   0  0  0  0  0  0  0  0  0  0  0  0
  -22.1526   -4.6721   24.4965 C   0  0  0  0  0  0  0  0  0  0  0  0
  -23.7577  -10.4869   20.9968 C   0  0  0  0  0  0  0  0  0  0  0  0
  -24.1314  -13.0048   20.8290 C   0  0  0  0  0  0  0  0  0  0  0  0
  -34.1458  -30.2081   24.9020 C   0  0  0  0  0  0  0  0  0  0  0  0
  -35.6650  -23.7626   25.4692 C   0  0  0  0  0  0  0  0  0  0  0  0
  -34.1370  -28.8906   24.4056 C   0  0  0  0  0  0  0  0  0  0  0  0
  -36.1096  -22.9976   24.3814 C   0  0  0  0  0  0  0  0  0  0  0  0
  -31.1008  -16.7213   21.9943 C   0  0  0  0  0  0  0  0  0  0  0  0
  -32.9086  -18.7427   22.6493 C   0  0  0  0  0  0  0  0  0  0  0  0
  -22.2408   -8.2096   21.5401 C   0  0  0  0  0  0  0  0  0  0  0  0
  -34.1266  -21.6037   24.5672 C   0  0  0  0  0  0  0  0  0  0  0  0
  -22.0982   -6.0874   22.5392 C   0  0  0  0  0  0  0  0  0  0  0  0
  -23.3033   -4.0487   24.0137 C   0  0  0  0  0  0  0  0  0  0  0  0
  -21.5500   -5.6914   23.7592 C   0  0  0  0  0  0  0  0  0  0  0  0
  -32.8279  -17.5961   23.4397 C   0  0  0  0  0  0  0  0  0  0  0  0
  -32.0854  -18.8786   21.5315 C   0  0  0  0  0  0  0  0  0  0  0  0
  -24.5417  -11.6629   20.7166 C   0  0  0  0  0  0  0  0  0  0  0  0
  -25.2330  -13.7334   20.4517 C   0  0  0  0  0  0  0  0  0  0  0  0
  -22.8677  -13.5445   21.2380 C   0  0  0  0  0  0  0  0  0  0  0  0
  -36.7402  -26.3155   23.9101 C   0  0  0  0  0  0  0  0  0  0  0  0
  -30.7492  -14.6214   20.7194 C   0  0  0  0  0  0  0  0  0  0  0  0
  -39.5242  -24.6508   23.8956 C   0  0  0  0  0  0  0  0  0  0  0  0
  -41.0906  -21.6236   24.0663 C   0  0  0  0  0  0  0  0  0  0  0  0
  -35.2825  -31.1567   24.6142 C   0  0  0  0  0  0  0  0  0  0  0  0
  -36.4945  -24.9060   25.9859 C   0  0  0  0  0  0  0  0  0  0  0  0
  -37.4027  -23.3037   23.6724 C   0  0  0  0  0  0  0  0  0  0  0  0
  -36.5568  -30.4569   24.1486 C   0  0  0  0  0  0  0  0  0  0  0  0
  -29.5550  -12.2930   18.2715 C   0  0  0  0  0  0  0  0  0  0  0  0
  -36.2352  -29.4194   23.0776 C   0  0  0  0  0  0  0  0  0  0  0  0
  -28.1209  -12.0088   18.7160 C   0  0  0  0  0  0  0  0  0  0  0  0
  -30.4782  -12.5066   19.4670 C   0  0  0  0  0  0  0  0  0  0  0  0
  -28.5845  -13.2918   20.8523 C   0  0  0  0  0  0  0  0  0  0  0  0
  -35.3067  -28.3294   23.6266 C   0  0  1  0  0  0  0  0  0  0  0  0
  -37.4452  -25.4761   24.9377 C   0  0  1  0  0  0  0  0  0  0  0  0
  -27.6127  -13.1002   19.6746 C   0  0  2  0  0  0  0  0  0  0  0  0
  -43.3706  -20.5782   23.9878 C   0  0  0  0  0  0  0  0  0  0  0  0
  -39.5952  -25.0387   20.8700 C   0  0  0  0  0  0  0  0  0  0  0  0
  -41.3111  -23.2197   20.7471 C   0  0  0  0  0  0  0  0  0  0  0  0
  -41.8045  -25.3140   22.0092 C   0  0  0  0  0  0  0  0  0  0  0  0
  -40.8088  -20.5260   26.8004 C   0  0  0  0  0  0  0  0  0  0  0  0
  -30.1340  -15.6410   21.6445 C   0  0  0  0  0  0  0  0  0  0  0  0
  -33.8804  -19.8301   23.0020 C   0  0  0  0  0  0  0  0  0  1  0  0
  -40.1643  -23.6461   22.9683 C   0  0  1  0  0  0  0  0  0  0  0  0
  -42.2806  -21.1497   24.8811 C   0  0  2  0  0  0  0  0  0  0  0  0
  -40.6934  -24.2998   21.6606 C   0  0  0  0  0  0  0  0  0  0  0  0
  -25.8052  -11.5431   20.3003 N   0  0  0  0  0  0  0  0  0  0  0  0
  -26.1983  -12.8192   20.1478 N   0  0  0  0  0  0  0  0  0  0  0  0
  -38.1752  -24.4353   24.2111 N   0  0  0  0  0  0  0  0  0  0  0  0
  -29.9493  -13.5349   20.3648 N   0  0  0  0  0  0  0  0  0  0  0  0
  -25.4602  -15.0605   20.3535 N   0  0  0  0  0  0  0  0  0  0  0  0
  -21.8444  -12.6548   21.5923 N   0  0  0  0  0  0  0  0  0  0  0  0
  -36.0527  -27.3916   24.4381 N   0  0  0  0  0  0  0  0  0  0  0  0
  -41.1880  -22.9624   23.7512 N   0  0  0  0  0  0  0  0  0  0  0  0
  -41.8608  -20.0933   25.8449 N   0  3  0  0  0  0  0  0  0  0  0  0
  -22.6470  -14.7789   21.2720 O   0  0  0  0  0  0  0  0  0  0  0  0
  -36.8156  -26.0103   22.7257 O   0  0  0  0  0  0  0  0  0  0  0  0
  -31.9054  -14.7888   20.3225 O   0  0  0  0  0  0  0  0  0  0  0  0
  -40.1983  -25.5881   24.3300 O   0  0  0  0  0  0  0  0  0  0  0  0
  -40.1689  -20.8795   23.7388 O   0  0  0  0  0  0  0  0  0  0  0  0
  -21.5007   -7.0986   21.8056 O   0  0  0  0  0  0  0  0  0  0  0  0
  -33.3792  -20.5566   24.1233 O   0  0  0  0  0  0  0  0  0  1  0  0
  -23.8811   -3.0689   24.7209 F   0  0  0  0  0  0  0  0  0  0  0  0
  -20.4441   -6.2858   24.2275 F   0  0  0  0  0  0  0  0  0  0  0  0
  -33.8277  -17.3871   24.8323 Cl  0  0  0  0  0  0  0  0  0  0  0  0
  -32.1518  -20.2813   20.5264 Cl  0  0  0  0  0  0  0  0  0  0  0  0
  1  2  1  0  0  0  0
  1  5  2  0  0  0  0
  2  6  2  0  0  0  0
  3  8  2  0  0  0  0
  3 17  1  0  0  0  0
  4  9  1  0  0  0  0
  4 17  2  0  0  0  0
  5 19  1  0  0  0  0
  6 21  1  0  0  0  0
  7 10  2  0  0  0  0
  7 20  1  0  0  0  0
  8 25  1  0  0  0  0
  9 25  2  0  0  0  0
 10 26  1  0  0  0  0
 11 12  2  0  0  0  0
 11 27  1  0  0  0  0
 12 28  1  0  0  0  0
 13 22  1  0  0  0  0
 13 26  2  0  0  0  0
 14 23  1  0  0  0  0
 14 30  2  0  0  0  0
 15 23  2  0  0  0  0
 15 31  1  0  0  0  0
 16 28  2  0  0  0  0
 16 29  1  0  0  0  0
 17 32  1  0  0  0  0
 18 32  1  0  0  0  0
 18 33  2  0  0  0  0
 18 34  1  0  0  0  0
 19 21  2  0  0  0  0
 19 39  1  0  0  0  0
 20 22  2  0  0  0  0
 20 40  1  0  0  0  0
 21 48  1  0  0  0  0
 22 41  1  0  0  0  0
 23 56  1  0  0  0  0
 24 30  1  0  0  0  0
 24 31  2  0  0  0  0
 24 57  1  0  0  0  0
 25 75  1  0  0  0  0
 26 76  1  0  0  0  0
 27 29  2  0  0  0  0
 27 75  1  0  0  0  0
 28 77  1  0  0  0  0
 29 78  1  0  0  0  0
 30 79  1  0  0  0  0
 31 80  1  0  0  0  0
 32 61  2  0  0  0  0
 33 62  1  0  0  0  0
 33 65  1  0  0  0  0
 34 66  1  0  0  0  0
 34 70  2  0  0  0  0
 35 49  1  0  0  0  0
 35 67  1  0  0  0  0
 35 71  2  0  0  0  0
 36 56  1  0  0  0  0
 36 64  1  0  0  0  0
 36 72  2  0  0  0  0
 37 58  1  0  0  0  0
 37 63  1  0  0  0  0
 37 73  2  0  0  0  0
 38 59  1  0  0  0  0
 38 68  1  0  0  0  0
 38 74  2  0  0  0  0
 39 42  1  0  0  0  0
 40 49  1  0  0  0  0
 41 63  1  0  0  0  0
 42 44  1  0  0  0  0
 43 45  1  0  0  0  0
 43 46  1  0  0  0  0
 44 48  1  0  0  0  0
 45 50  1  0  0  0  0
 46 64  1  0  0  0  0
 47 50  1  0  0  0  0
 47 64  1  0  0  0  0
 48 67  1  0  0  0  0
 49 63  1  0  0  0  0
 50 62  1  0  0  0  0
 51 59  1  0  0  0  0
 52 60  1  0  0  0  0
 53 60  1  0  0  0  0
 54 60  1  0  0  0  0
 55 69  1  0  0  0  0
 57 76  1  0  0  0  0
 58 60  1  0  0  0  0
 58 68  1  0  0  0  0
 59 69  1  0  0  0  0
 61 62  1  0  0  0  0
M  CHG  1  69   1
M  ISO  4  36 100  56 100  57 101  76 101
M  END
> <Batch ID>
0032

> <Smiles>
CNC(C)C(=O)NC(C(=O)N1Cc2cc([101O:1][101CH2:1]c3c(Cl)cc([100CH2:0][100C:0](=O)N4CCCC(n5nc(-c6ccc(Oc7ccc(F)cc7F)cc6)c(C(N)=O)c5N)C4)cc3Cl)ccc2CC1C(=O)NC1CCCc2ccccc21)C(C)(C)C

> <Shape>
0.175

> <Color>
0.209

> <Negative vol penalty>
0.000

$$$$

  -OEChem-04052316453D

 89 97  0     1  0  0  0  0  0999 V2000
  -23.9338  -11.2608   20.4508 C   0  0  0  0  0  0  0  0  0  0  0  0
  -23.5510  -12.5790   20.2243 C   0  0  0  0  0  0  0  0  0  0  0  0
  -29.8495  -26.3115   19.4978 C   0  0  0  0  0  0  0  0  0  0  0  0
  -29.4855  -25.6217   21.7845 C   0  0  0  0  0  0  0  0  0  0  0  0
  -25.1486  -10.9868   21.0779 C   0  0  0  0  0  0  0  0  0  0  0  0
  -24.3823  -13.6240   20.6259 C   0  0  0  0  0  0  0  0  0  0  0  0
  -24.8429  -17.2117   17.0816 C   0  0  0  0  0  0  0  0  0  0  0  0
  -31.1697  -25.8679   19.5741 C   0  0  0  0  0  0  0  0  0  0  0  0
  -30.8057  -25.1781   21.8608 C   0  0  0  0  0  0  0  0  0  0  0  0
  -23.7875  -18.1126   16.9467 C   0  0  0  0  0  0  0  0  0  0  0  0
  -34.7405  -25.2447   19.2836 C   0  0  0  0  0  0  0  0  0  0  0  0
  -35.7362  -26.0755   18.7699 C   0  0  0  0  0  0  0  0  0  0  0  0
  -25.0217  -19.7411   18.2290 C   0  0  0  0  0  0  0  0  0  0  0  0
  -20.8669  -22.5243   18.8355 C   0  0  0  0  0  0  0  0  0  0  0  0
  -19.4408  -23.8456   17.4013 C   0  0  0  0  0  0  0  0  0  0  0  0
  -35.0980  -27.8056   20.3309 C   0  0  0  0  0  0  0  0  0  0  0  0
  -29.0074  -26.1884   20.6030 C   0  0  0  0  0  0  0  0  0  0  0  0
  -26.5185  -25.9033   20.1217 C   0  0  0  0  0  0  0  0  0  0  0  0
  -25.9996  -12.0288   21.4787 C   0  0  0  0  0  0  0  0  0  0  0  0
  -25.9930  -17.5654   17.8017 C   0  0  0  0  0  0  0  0  0  0  0  0
  -25.6090  -13.3638   21.2602 C   0  0  0  0  0  0  0  0  0  0  0  0
  -26.0913  -18.8437   18.3694 C   0  0  0  0  0  0  0  0  0  0  0  0
  -19.7064  -23.2745   18.6458 C   0  0  0  0  0  0  0  0  0  0  0  0
  -21.7619  -22.3452   17.7806 C   0  0  0  0  0  0  0  0  0  0  0  0
  -21.4962  -22.9162   16.5361 C   0  0  0  0  0  0  0  0  0  0  0  0
  -31.6478  -25.3011   20.7556 C   0  0  0  0  0  0  0  0  0  0  0  0
  -23.8755  -19.3765   17.5229 C   0  0  0  0  0  0  0  0  0  0  0  0
  -33.9235  -25.6943   20.3209 C   0  0  0  0  0  0  0  0  0  0  0  0
  -35.9149  -27.3560   19.2935 C   0  0  0  0  0  0  0  0  0  0  0  0
  -20.3356  -23.6665   16.3464 C   0  0  0  0  0  0  0  0  0  0  0  0
  -34.1022  -26.9747   20.8446 C   0  0  0  0  0  0  0  0  0  0  0  0
  -27.6437  -26.6470   20.5249 C   0  0  0  0  0  0  0  0  0  0  0  0
  -25.4702  -26.7851   20.2217 C   0  0  0  0  0  0  0  0  0  0  0  0
  -26.4288  -24.5375   19.6950 C   0  0  0  0  0  0  0  0  0  0  0  0
  -27.4290  -16.4667   20.4160 C   0  0  0  0  0  0  0  0  0  0  0  0
  -29.7054  -18.6296   19.6026 C   0  0  0  0  0  0  0  0  0  0  0  0
  -30.5096  -21.5095   17.9575 C   0  0  0  0  0  0  0  0  0  0  0  0
  -23.6032  -31.1515   23.5328 C   0  0  0  0  0  0  0  0  0  0  0  0
  -27.2811  -11.6845   22.1955 C   0  0  0  0  0  0  0  0  0  0  0  0
  -27.1338  -16.5916   17.9154 C   0  0  0  0  0  0  0  0  0  0  0  0
  -27.3128  -19.2795   19.1352 C   0  0  0  0  0  0  0  0  0  0  0  0
  -28.2764  -12.8405   22.2530 C   0  0  0  0  0  0  0  0  0  0  0  0
  -25.0591  -31.7107   20.3321 C   0  0  0  0  0  0  0  0  0  0  0  0
  -27.5751  -14.1284   22.6728 C   0  0  0  0  0  0  0  0  0  0  0  0
  -25.7694  -30.3928   20.0181 C   0  0  0  0  0  0  0  0  0  0  0  0
  -25.1433  -32.0573   21.8169 C   0  0  0  0  0  0  0  0  0  0  0  0
  -25.3851  -29.6785   22.4141 C   0  0  0  0  0  0  0  0  0  0  0  0
  -26.4949  -14.5241   21.6589 C   0  0  1  0  0  0  0  0  0  0  0  0
  -28.0438  -16.8739   19.1069 C   0  0  1  0  0  0  0  0  0  0  0  0
  -25.2791  -29.2585   20.9380 C   0  0  2  0  0  0  0  0  0  0  0  0
  -22.4414  -22.7356   15.3939 C   0  0  0  0  0  0  0  0  0  0  0  0
  -31.9626  -23.3335   17.0304 C   0  0  0  0  0  0  0  0  0  0  0  0
  -29.4606  -19.7620   22.4253 C   0  0  0  0  0  0  0  0  0  0  0  0
  -30.6584  -21.8122   21.6317 C   0  0  0  0  0  0  0  0  0  0  0  0
  -31.8038  -19.5971   21.5670 C   0  0  0  0  0  0  0  0  0  0  0  0
  -30.9904  -20.0115   15.4507 C   0  0  0  0  0  0  0  0  0  0  0  0
  -18.7487  -23.4654   19.7731 C   0  0  0  0  0  0  0  0  0  0  0  0
  -23.0041  -21.5352   18.0091 C   0  0  0  0  0  0  0  0  0  1  0  0
  -19.3786  -28.1337   23.2801 C   0  0  0  0  0  0  0  0  0  0  0  0
  -20.7287  -28.3929   23.9520 C   0  0  0  0  0  0  0  0  0  0  0  0
  -19.3234  -26.7344   22.6624 C   0  0  0  0  0  0  0  0  0  0  0  0
  -20.7706  -29.7819   24.5958 C   0  0  0  0  0  0  0  0  0  0  0  0
  -17.9570  -26.4632   22.0264 C   0  0  0  0  0  0  0  0  0  0  0  0
  -22.1245  -30.0964   25.2238 C   0  0  0  0  0  0  0  0  0  0  0  0
  -17.8200  -25.0548   21.4614 C   0  0  0  0  0  0  0  0  0  0  0  0
  -29.9559  -20.0858   19.9122 C   0  0  1  0  0  0  0  0  0  0  0  0
  -31.6497  -21.8453   17.0131 C   0  0  2  0  0  0  0  0  0  0  0  0
  -30.4457  -20.3057   21.3713 C   0  0  0  0  0  0  0  0  0  0  0  0
  -27.3389  -27.9045   20.8563 N   0  0  0  0  0  0  0  0  0  0  0  0
  -26.0102  -27.9579   20.6613 N   0  0  0  0  0  0  0  0  0  0  0  0
  -28.3990  -18.2896   19.2239 N   0  0  0  0  0  0  0  0  0  0  0  0
  -24.6621  -30.9409   22.6343 N   0  0  0  0  0  0  0  0  0  0  0  0
  -24.1484  -26.6641   19.9755 N   0  0  0  0  0  0  0  0  0  0  0  0
  -27.6027  -23.7730   19.6504 N   0  0  0  0  0  0  0  0  0  0  0  0
  -27.0965  -15.1274   20.4890 N   0  0  0  0  0  0  0  0  0  0  0  0
  -30.8816  -20.5666   18.8922 N   0  0  0  0  0  0  0  0  0  0  0  0
  -23.2046  -30.0393   24.2641 N   0  0  0  0  0  0  0  0  0  0  0  0
  -31.2990  -21.4550   15.6183 N   0  3  0  0  0  0  0  0  0  0  0  0
  -18.8068  -24.8266   20.3738 N   0  3  0  0  0  0  0  0  0  0  0  0
  -25.3425  -24.0153   19.3473 O   0  0  0  0  0  0  0  0  0  0  0  0
  -27.2695  -17.3051   21.2953 O   0  0  0  0  0  0  0  0  0  0  0  0
  -30.6364  -17.8247   19.6864 O   0  0  0  0  0  0  0  0  0  0  0  0
  -29.4011  -22.0341   17.8765 O   0  0  0  0  0  0  0  0  0  0  0  0
  -23.0501  -32.2481   23.6690 O   0  0  0  0  0  0  0  0  0  0  0  0
  -32.9360  -24.8679   20.8304 O   0  0  0  0  0  0  0  0  0  0  0  0
  -22.8466  -20.2576   17.3933 O   0  0  0  0  0  0  0  0  0  1  0  0
  -36.8721  -28.1531   18.8011 F   0  0  0  0  0  0  0  0  0  0  0  0
  -20.0711  -24.2199   15.1545 F   0  0  0  0  0  0  0  0  0  0  0  0
  -33.3212  -27.4117   21.8420 F   0  0  0  0  0  0  0  0  0  0  0  0
  1  2  1  0  0  0  0
  1  5  2  0  0  0  0
  2  6  2  0  0  0  0
  3  8  2  0  0  0  0
  3 17  1  0  0  0  0
  4  9  1  0  0  0  0
  4 17  2  0  0  0  0
  5 19  1  0  0  0  0
  6 21  1  0  0  0  0
  7 10  2  0  0  0  0
  7 20  1  0  0  0  0
  8 26  1  0  0  0  0
  9 26  2  0  0  0  0
 10 27  1  0  0  0  0
 11 12  2  0  0  0  0
 11 28  1  0  0  0  0
 12 29  1  0  0  0  0
 13 22  1  0  0  0  0
 13 27  2  0  0  0  0
 14 23  2  0  0  0  0
 14 24  1  0  0  0  0
 15 23  1  0  0  0  0
 15 30  2  0  0  0  0
 16 29  2  0  0  0  0
 16 31  1  0  0  0  0
 17 32  1  0  0  0  0
 18 32  1  0  0  0  0
 18 33  2  0  0  0  0
 18 34  1  0  0  0  0
 19 21  2  0  0  0  0
 19 39  1  0  0  0  0
 20 22  2  0  0  0  0
 20 40  1  0  0  0  0
 21 48  1  0  0  0  0
 22 41  1  0  0  0  0
 23 57  1  0  0  0  0
 24 25  2  0  0  0  0
 24 58  1  0  0  0  0
 25 30  1  0  0  0  0
 25 51  1  0  0  0  0
 26 85  1  0  0  0  0
 27 86  1  0  0  0  0
 28 31  2  0  0  0  0
 28 85  1  0  0  0  0
 29 87  1  0  0  0  0
 30 88  1  0  0  0  0
 31 89  1  0  0  0  0
 32 69  2  0  0  0  0
 33 70  1  0  0  0  0
 33 73  1  0  0  0  0
 34 74  1  0  0  0  0
 34 80  2  0  0  0  0
 35 49  1  0  0  0  0
 35 75  1  0  0  0  0
 35 81  2  0  0  0  0
 36 66  1  0  0  0  0
 36 71  1  0  0  0  0
 36 82  2  0  0  0  0
 37 67  1  0  0  0  0
 37 76  1  0  0  0  0
 37 83  2  0  0  0  0
 38 72  1  0  0  0  0
 38 77  1  0  0  0  0
 38 84  2  0  0  0  0
 39 42  1  0  0  0  0
 40 49  1  0  0  0  0
 41 71  1  0  0  0  0
 42 44  1  0  0  0  0
 43 45  1  0  0  0  0
 43 46  1  0  0  0  0
 44 48  1  0  0  0  0
 45 50  1  0  0  0  0
 46 72  1  0  0  0  0
 47 50  1  0  0  0  0
 47 72  1  0  0  0  0
 48 75  1  0  0  0  0
 49 71  1  0  0  0  0
 50 70  1  0  0  0  0
 52 67  1  0  0  0  0
 53 68  1  0  0  0  0
 54 68  1  0  0  0  0
 55 68  1  0  0  0  0
 56 78  1  0  0  0  0
 57 79  1  0  0  0  0
 58 86  1  0  0  0  0
 59 60  1  0  0  0  0
 59 61  1  0  0  0  0
 60 62  1  0  0  0  0
 61 63  1  0  0  0  0
 62 64  1  0  0  0  0
 63 65  1  0  0  0  0
 64 77  1  0  0  0  0
 65 79  1  0  0  0  0
 66 68  1  0  0  0  0
 66 76  1  0  0  0  0
 67 78  1  0  0  0  0
 69 70  1  0  0  0  0
M  CHG  2  78   1  79   1
M  ISO  4  38 100  58 101  77 100  86 101
M  END
> <Batch ID>
0032

> <Smiles>
CNC(C)C(=O)NC(C(=O)N1Cc2cc([101O:1][101CH2:1]c3cc(CNCCCCCCC[100NH:0][100C:0](=O)N4CCCC(n5nc(-c6ccc(Oc7ccc(F)cc7F)cc6)c(C(N)=O)c5N)C4)cc(F)c3C)ccc2CC1C(=O)NC1CCCc2ccccc21)C(C)(C)C

> <Shape>
0.207

> <Color>
0.060

> <Negative vol penalty>
0.000

$$$$

  -OEChem-04052316453D

 89 98  0     1  0  0  0  0  0999 V2000
  -24.5213  -29.1091   21.4401 C   0  0  0  0  0  0  0  0  0  0  0  0
  -24.1011  -27.7937   21.2706 C   0  0  0  0  0  0  0  0  0  0  0  0
  -21.6547  -23.3305   23.1614 C   0  0  0  0  0  0  0  0  0  0  0  0
  -19.7601  -22.1010   22.3036 C   0  0  0  0  0  0  0  0  0  0  0  0
  -25.5900  -29.6002   20.6913 C   0  0  0  0  0  0  0  0  0  0  0  0
  -24.7488  -26.9690   20.3514 C   0  0  0  0  0  0  0  0  0  0  0  0
  -28.1708  -20.0258   21.4044 C   0  0  0  0  0  0  0  0  0  0  0  0
  -20.8352  -24.4367   23.3859 C   0  0  0  0  0  0  0  0  0  0  0  0
  -18.9406  -23.2072   22.5282 C   0  0  0  0  0  0  0  0  0  0  0  0
  -28.9441  -18.8685   21.4977 C   0  0  0  0  0  0  0  0  0  0  0  0
  -19.4693  -26.9348   21.5644 C   0  0  0  0  0  0  0  0  0  0  0  0
  -19.9481  -28.1851   21.1733 C   0  0  0  0  0  0  0  0  0  0  0  0
  -25.8212  -12.6406   19.2664 C   0  0  0  0  0  0  0  0  0  0  0  0
  -26.9822  -13.1837   21.7074 C   0  0  0  0  0  0  0  0  0  0  0  0
  -30.2485  -19.5733   19.5873 C   0  0  0  0  0  0  0  0  0  0  0  0
  -19.7938  -28.9585   23.4570 C   0  0  0  0  0  0  0  0  0  0  0  0
  -21.1171  -22.1627   22.6202 C   0  0  0  0  0  0  0  0  0  0  0  0
  -22.7090  -20.3054   23.3442 C   0  0  0  0  0  0  0  0  0  0  0  0
  -26.2573  -28.7783   19.7695 C   0  0  0  0  0  0  0  0  0  0  0  0
  -28.4436  -20.9698   20.4104 C   0  0  0  0  0  0  0  0  0  0  0  0
  -25.8266  -27.4501   19.5887 C   0  0  0  0  0  0  0  0  0  0  0  0
  -27.2147  -12.4503   19.4184 C   0  0  0  0  0  0  0  0  0  0  0  0
  -27.8255  -12.7287   20.6658 C   0  0  0  0  0  0  0  0  0  0  0  0
  -29.4853  -20.7403   19.4966 C   0  0  0  0  0  0  0  0  0  0  0  0
  -25.6088  -13.3703   21.5344 C   0  0  0  0  0  0  0  0  0  0  0  0
  -25.0262  -13.1000   20.3101 C   0  0  0  0  0  0  0  0  0  0  0  0
  -19.4782  -24.3750   23.0694 C   0  0  0  0  0  0  0  0  0  0  0  0
  -29.9802  -18.6427   20.5912 C   0  0  0  0  0  0  0  0  0  0  0  0
  -19.1527  -26.6963   22.9017 C   0  0  0  0  0  0  0  0  0  0  0  0
  -20.1104  -29.1970   22.1196 C   0  0  0  0  0  0  0  0  0  0  0  0
  -19.3150  -27.7081   23.8480 C   0  0  0  0  0  0  0  0  0  0  0  0
  -21.9633  -21.0198   22.3875 C   0  0  0  0  0  0  0  0  0  0  0  0
  -23.3368  -19.3190   22.6234 C   0  0  0  0  0  0  0  0  0  0  0  0
  -22.8238  -20.5145   24.7579 C   0  0  0  0  0  0  0  0  0  0  0  0
  -27.5546  -24.2671   18.8570 C   0  0  0  0  0  0  0  0  0  0  0  0
  -30.6173  -24.0974   18.8961 C   0  0  0  0  0  0  0  0  0  0  0  0
  -33.9646  -24.7468   19.0019 C   0  0  0  0  0  0  0  0  0  0  0  0
  -23.2380  -15.3307   18.7210 C   0  0  0  0  0  0  0  0  0  0  0  0
  -27.3769  -29.3678   18.9489 C   0  0  0  0  0  0  0  0  0  0  0  0
  -27.5973  -22.2012   20.2343 C   0  0  0  0  0  0  0  0  0  0  0  0
  -27.9436  -11.9131   18.2093 C   0  0  0  0  0  0  0  0  0  0  0  0
  -29.7204  -21.7669   18.4224 C   0  0  0  0  0  0  0  0  0  0  0  0
  -28.2500  -28.3180   18.2664 C   0  0  0  0  0  0  0  0  0  0  0  0
  -29.0824  -12.7842   17.7022 C   0  0  0  0  0  0  0  0  0  0  0  0
  -23.7892  -18.6737   17.6269 C   0  0  0  0  0  0  0  0  0  0  0  0
  -27.3832  -27.2593   17.5921 C   0  0  0  0  0  0  0  0  0  0  0  0
  -23.4190  -19.5227   18.8442 C   0  0  0  0  0  0  0  0  0  0  0  0
  -22.8819  -17.4526   17.4934 C   0  0  0  0  0  0  0  0  0  0  0  0
  -22.4305  -17.4557   19.9162 C   0  0  0  0  0  0  0  0  0  0  0  0
  -30.3607  -12.6691   18.5112 C   0  0  0  0  0  0  0  0  0  0  0  0
  -26.5196  -26.5172   18.6194 C   0  0  1  0  0  0  0  0  0  0  0  0
  -28.4033  -23.4252   19.7638 C   0  0  1  0  0  0  0  0  0  0  0  0
  -23.3534  -18.6686   20.1246 C   0  0  2  0  0  0  0  0  0  0  0  0
  -29.3327  -12.5459   20.9272 C   0  0  0  0  0  0  0  0  0  0  0  0
  -24.7909  -13.8584   22.6851 C   0  0  0  0  0  0  0  0  0  0  0  0
  -29.7011  -11.0424   20.9660 C   0  0  0  0  0  0  0  0  0  0  0  0
  -29.8035  -13.0854   22.3151 C   0  0  0  0  0  0  0  0  0  0  0  0
  -35.7470  -26.0930   17.8581 C   0  0  0  0  0  0  0  0  0  0  0  0
  -30.5978  -22.1336   16.5623 C   0  0  0  0  0  0  0  0  0  0  0  0
  -32.9062  -22.9101   15.9820 C   0  0  0  0  0  0  0  0  0  0  0  0
  -30.9988  -24.5165   15.9177 C   0  0  0  0  0  0  0  0  0  0  0  0
  -34.5992  -26.2300   21.4830 C   0  0  0  0  0  0  0  0  0  0  0  0
  -23.5620  -13.2856   20.0892 C   0  0  0  0  0  0  0  0  0  0  0  0
  -31.3976  -15.4749   19.6054 C   0  0  0  0  0  0  0  0  0  0  0  0
  -30.0649  -14.7762   19.8290 C   0  0  0  0  0  0  0  0  0  0  0  0
  -31.2828  -16.9894   19.4828 C   0  0  0  0  0  0  0  0  0  1  0  0
  -31.8728  -23.7189   18.1520 C   0  0  1  0  0  0  0  0  0  0  0  0
  -34.7382  -26.0529   18.9955 C   0  0  2  0  0  0  0  0  0  0  0  0
  -31.5882  -23.3093   16.6793 C   0  0  0  0  0  0  0  0  0  0  0  0
  -22.1034  -20.5293   21.1531 N   0  0  0  0  0  0  0  0  0  0  0  0
  -22.9446  -19.4960   21.3292 N   0  0  0  0  0  0  0  0  0  0  0  0
  -29.6188  -23.1204   18.9901 N   0  0  0  0  0  0  0  0  0  0  0  0
  -22.8652  -16.6848   18.7409 N   0  0  0  0  0  0  0  0  0  0  0  0
  -24.1807  -18.3264   22.9767 N   0  0  0  0  0  0  0  0  0  0  0  0
  -21.9175  -19.8629   25.6055 N   0  0  0  0  0  0  0  0  0  0  0  0
  -27.3125  -25.5408   19.3351 N   0  0  0  0  0  0  0  0  0  0  0  0
  -32.7865  -24.8475   18.2924 N   0  0  0  0  0  0  0  0  0  0  0  0
  -23.2005  -14.6784   19.9474 N   0  0  0  0  0  0  0  0  0  0  0  0
  -30.2541  -13.2715   19.8910 N   0  3  2  0  0  0  0  0  0  0  0  0
  -35.4720  -26.2266   20.2809 N   0  3  0  0  0  0  0  0  0  0  0  0
  -23.6937  -21.2701   25.2538 O   0  0  0  0  0  0  0  0  0  0  0  0
  -27.1498  -23.7973   17.8000 O   0  0  0  0  0  0  0  0  0  0  0  0
  -30.5195  -25.2299   19.3771 O   0  0  0  0  0  0  0  0  0  0  0  0
  -34.3670  -23.7371   19.5755 O   0  0  0  0  0  0  0  0  0  0  0  0
  -23.5840  -14.7476   17.6879 O   0  0  0  0  0  0  0  0  0  0  0  0
  -18.6782  -25.4541   23.2886 O   0  0  0  0  0  0  0  0  0  0  0  0
  -30.7395  -17.5050   20.6915 O   0  0  0  0  0  0  0  0  0  1  0  0
  -20.5717  -30.3972   21.7441 F   0  0  0  0  0  0  0  0  0  0  0  0
  -19.0136  -27.4846   25.1345 F   0  0  0  0  0  0  0  0  0  0  0  0
  1  2  1  0  0  0  0
  1  5  2  0  0  0  0
  2  6  2  0  0  0  0
  3  8  2  0  0  0  0
  3 17  1  0  0  0  0
  4  9  1  0  0  0  0
  4 17  2  0  0  0  0
  5 19  1  0  0  0  0
  6 21  1  0  0  0  0
  7 10  2  0  0  0  0
  7 20  1  0  0  0  0
  8 27  1  0  0  0  0
  9 27  2  0  0  0  0
 10 28  1  0  0  0  0
 11 12  2  0  0  0  0
 11 29  1  0  0  0  0
 12 30  1  0  0  0  0
 13 22  1  0  0  0  0
 13 26  2  0  0  0  0
 14 23  1  0  0  0  0
 14 25  2  0  0  0  0
 15 24  1  0  0  0  0
 15 28  2  0  0  0  0
 16 30  2  0  0  0  0
 16 31  1  0  0  0  0
 17 32  1  0  0  0  0
 18 32  1  0  0  0  0
 18 33  2  0  0  0  0
 18 34  1  0  0  0  0
 19 21  2  0  0  0  0
 19 39  1  0  0  0  0
 20 24  2  0  0  0  0
 20 40  1  0  0  0  0
 21 51  1  0  0  0  0
 22 23  2  0  0  0  0
 22 41  1  0  0  0  0
 23 54  1  0  0  0  0
 24 42  1  0  0  0  0
 25 26  1  0  0  0  0
 25 55  1  0  0  0  0
 26 63  1  0  0  0  0
 27 86  1  0  0  0  0
 28 87  1  0  0  0  0
 29 31  2  0  0  0  0
 29 86  1  0  0  0  0
 30 88  1  0  0  0  0
 31 89  1  0  0  0  0
 32 70  2  0  0  0  0
 33 71  1  0  0  0  0
 33 74  1  0  0  0  0
 34 75  1  0  0  0  0
 34 81  2  0  0  0  0
 35 52  1  0  0  0  0
 35 76  1  0  0  0  0
 35 82  2  0  0  0  0
 36 67  1  0  0  0  0
 36 72  1  0  0  0  0
 36 83  2  0  0  0  0
 37 68  1  0  0  0  0
 37 77  1  0  0  0  0
 37 84  2  0  0  0  0
 38 73  1  0  0  0  0
 38 78  1  0  0  0  0
 38 85  2  0  0  0  0
 39 43  1  0  0  0  0
 40 52  1  0  0  0  0
 41 44  1  0  0  0  0
 42 72  1  0  0  0  0
 43 46  1  0  0  0  0
 44 50  1  0  0  0  0
 45 47  1  0  0  0  0
 45 48  1  0  0  0  0
 46 51  1  0  0  0  0
 47 53  1  0  0  0  0
 48 73  1  0  0  0  0
 49 53  1  0  0  0  0
 49 73  1  0  0  0  0
 50 79  1  0  0  0  0
 51 76  1  0  0  0  0
 52 72  1  0  0  0  0
 53 71  1  0  0  0  0
 54 56  1  0  0  0  0
 54 57  1  0  0  0  0
 54 79  1  0  0  0  0
 58 68  1  0  0  0  0
 59 69  1  0  0  0  0
 60 69  1  0  0  0  0
 61 69  1  0  0  0  0
 62 80  1  0  0  0  0
 63 78  1  0  0  0  0
 64 65  1  0  0  0  0
 64 66  1  0  0  0  0
 65 79  1  0  0  0  0
 66 87  1  0  0  0  0
 67 69  1  0  0  0  0
 67 77  1  0  0  0  0
 68 80  1  0  0  0  0
 70 71  1  0  0  0  0
M  CHG  2  79   1  80   1
M  ISO  4  38 100  66 101  78 100  87 101
M  END
> <Batch ID>
0032

> <Smiles>
CNC(C)C(=O)NC(C(=O)N1Cc2cc([101O:1][101CH2:1]CCN3CCCc4cc(C[100NH:0][100C:0](=O)N5CCCC(n6nc(-c7ccc(Oc8ccc(F)cc8F)cc7)c(C(N)=O)c6N)C5)c(C)cc4C3(C)C)ccc2CC1C(=O)NC1CCCc2ccccc21)C(C)(C)C

> <Shape>
0.236

> <Color>
0.071

> <Negative vol penalty>
0.000

$$$$

  -OEChem-04052316453D

 87 95  0     1  0  0  0  0  0999 V2000
  -34.9609  -25.2676   17.9335 C   0  0  0  0  0  0  0  0  0  0  0  0
  -33.8432  -25.7871   17.2882 C   0  0  0  0  0  0  0  0  0  0  0  0
  -27.0468  -13.6664   21.1237 C   0  0  0  0  0  0  0  0  0  0  0  0
  -24.7033  -14.2517   21.0733 C   0  0  0  0  0  0  0  0  0  0  0  0
  -34.8379  -24.7302   19.2141 C   0  0  0  0  0  0  0  0  0  0  0  0
  -32.6017  -25.7685   17.9227 C   0  0  0  0  0  0  0  0  0  0  0  0
  -26.5330  -29.5411   18.4278 C   0  0  0  0  0  0  0  0  0  0  0  0
  -26.7184  -12.3909   21.5827 C   0  0  0  0  0  0  0  0  0  0  0  0
  -24.3749  -12.9762   21.5323 C   0  0  0  0  0  0  0  0  0  0  0  0
  -25.1528  -29.3812   18.3134 C   0  0  0  0  0  0  0  0  0  0  0  0
  -22.8968   -9.7559   22.3469 C   0  0  0  0  0  0  0  0  0  0  0  0
  -21.8435   -9.0912   21.7190 C   0  0  0  0  0  0  0  0  0  0  0  0
  -25.0751  -28.4996   20.5576 C   0  0  0  0  0  0  0  0  0  0  0  0
  -18.4816  -26.1289   22.1527 C   0  0  0  0  0  0  0  0  0  0  0  0
  -20.0458  -26.6956   23.9046 C   0  0  0  0  0  0  0  0  0  0  0  0
  -23.0291   -9.1983   19.6166 C   0  0  0  0  0  0  0  0  0  0  0  0
  -26.0393  -14.5969   20.8690 C   0  0  0  0  0  0  0  0  0  0  0  0
  -26.5100  -16.3291   19.0565 C   0  0  0  0  0  0  0  0  0  0  0  0
  -33.5961  -24.7138   19.8686 C   0  0  0  0  0  0  0  0  0  0  0  0
  -27.1973  -29.1706   19.6059 C   0  0  0  0  0  0  0  0  0  0  0  0
  -32.4618  -25.2292   19.2128 C   0  0  0  0  0  0  0  0  0  0  0  0
  -26.4635  -28.6582   20.6852 C   0  0  0  0  0  0  0  0  0  0  0  0
  -19.1163  -25.8132   23.3540 C   0  0  0  0  0  0  0  0  0  0  0  0
  -18.7765  -27.3270   21.5020 C   0  0  0  0  0  0  0  0  0  0  0  0
  -19.7059  -28.2093   22.0526 C   0  0  0  0  0  0  0  0  0  0  0  0
  -25.3824  -12.0457   21.7870 C   0  0  0  0  0  0  0  0  0  0  0  0
  -24.4240  -28.8577   19.3774 C   0  0  0  0  0  0  0  0  0  0  0  0
  -24.0163  -10.1419   21.6097 C   0  0  0  0  0  0  0  0  0  0  0  0
  -21.9096   -8.8124   20.3539 C   0  0  0  0  0  0  0  0  0  0  0  0
  -24.0825   -9.8631   20.2446 C   0  0  0  0  0  0  0  0  0  0  0  0
  -20.3406  -27.8937   23.2539 C   0  0  0  0  0  0  0  0  0  0  0  0
  -26.3779  -15.9149   20.3954 C   0  0  0  0  0  0  0  0  0  0  0  0
  -26.8397  -17.6599   19.1397 C   0  0  0  0  0  0  0  0  0  0  0  0
  -26.3489  -15.5782   17.8457 C   0  0  0  0  0  0  0  0  0  0  0  0
  -29.4524  -27.0538   20.3387 C   0  0  0  0  0  0  0  0  0  0  0  0
  -25.8736  -21.7734   23.4125 C   0  0  0  0  0  0  0  0  0  0  0  0
  -29.2958  -28.4774   23.2492 C   0  0  0  0  0  0  0  0  0  0  0  0
  -27.4740  -30.2938   25.4916 C   0  0  0  0  0  0  0  0  0  0  0  0
  -33.5034  -24.0795   21.2338 C   0  0  0  0  0  0  0  0  0  0  0  0
  -28.6830  -29.3743   19.7231 C   0  0  0  0  0  0  0  0  0  0  0  0
  -27.1263  -28.2641   21.9790 C   0  0  0  0  0  0  0  0  0  0  0  0
  -32.2246  -24.4380   21.9864 C   0  0  0  0  0  0  0  0  0  0  0  0
  -29.0189  -20.8145   21.9888 C   0  0  0  0  0  0  0  0  0  0  0  0
  -31.0103  -24.2944   21.0743 C   0  0  0  0  0  0  0  0  0  0  0  0
  -28.7170  -19.4733   21.3215 C   0  0  0  0  0  0  0  0  0  0  0  0
  -28.2156  -20.9925   23.2733 C   0  0  0  0  0  0  0  0  0  0  0  0
  -26.4359  -19.4968   22.4265 C   0  0  0  0  0  0  0  0  0  0  0  0
  -31.1028  -25.2495   19.8782 C   0  0  1  0  0  0  0  0  0  0  0  0
  -29.3265  -28.4840   20.7817 C   0  0  1  0  0  0  0  0  0  0  0  0
  -27.2038  -19.2899   21.1090 C   0  0  2  0  0  0  0  0  0  0  0  0
  -18.0826  -27.6384   20.2161 C   0  0  0  0  0  0  0  0  0  0  0  0
  -27.5990  -31.2709   27.7997 C   0  0  0  0  0  0  0  0  0  0  0  0
  -28.8677  -25.7029   24.4444 C   0  0  0  0  0  0  0  0  0  0  0  0
  -28.0660  -26.8071   26.5434 C   0  0  0  0  0  0  0  0  0  0  0  0
  -30.4036  -27.1779   25.7556 C   0  0  0  0  0  0  0  0  0  0  0  0
  -27.1257  -33.0493   24.4696 C   0  0  0  0  0  0  0  0  0  0  0  0
  -18.7998  -24.5325   24.0497 C   0  0  0  0  0  0  0  0  0  0  0  0
  -20.0135  -29.4999   21.3360 C   0  0  0  0  0  0  0  0  0  0  0  0
  -24.4191  -21.4930   23.1301 C   0  0  0  0  0  0  0  0  0  0  0  0
  -19.6909  -23.3450   23.6386 C   0  0  0  0  0  0  0  0  0  0  0  0
  -20.9216  -29.3260   20.1166 C   0  0  0  0  0  0  0  0  0  0  0  0
  -23.5394  -22.6496   23.5941 C   0  0  0  0  0  0  0  0  0  0  0  0
  -21.1956  -23.5589   23.8418 C   0  0  0  0  0  0  0  0  0  0  0  0
  -22.0501  -22.3927   23.3394 C   0  0  0  0  0  0  0  0  0  0  0  0
  -22.3110  -28.8067   20.4676 C   0  0  0  0  0  0  0  0  0  1  0  0
  -28.4887  -28.2560   24.5055 C   0  0  1  0  0  0  0  0  0  0  0  0
  -27.8240  -31.5193   26.3163 C   0  0  2  0  0  0  0  0  0  0  0  0
  -28.9440  -26.9915   25.2873 C   0  0  0  0  0  0  0  0  0  0  0  0
  -26.6054  -16.9024   21.2655 N   0  0  0  0  0  0  0  0  0  0  0  0
  -26.8837  -17.9504   20.4716 N   0  0  0  0  0  0  0  0  0  0  0  0
  -28.5818  -28.4764   22.0425 N   0  0  0  0  0  0  0  0  0  0  0  0
  -26.7858  -20.7883   23.0339 N   0  0  0  0  0  0  0  0  0  0  0  0
  -27.0934  -18.5981   18.2028 N   0  0  0  0  0  0  0  0  0  0  0  0
  -26.0089  -14.2219   17.9410 N   0  0  0  0  0  0  0  0  0  0  0  0
  -30.7549  -26.5961   20.2785 N   0  0  0  0  0  0  0  0  0  0  0  0
  -28.5761  -29.4952   25.2706 N   0  0  0  0  0  0  0  0  0  0  0  0
  -26.9855  -32.6794   25.9016 N   0  3  0  0  0  0  0  0  0  0  0  0
  -26.5181  -16.0907   16.7133 O   0  0  0  0  0  0  0  0  0  0  0  0
  -28.4427  -26.4125   20.0726 O   0  0  0  0  0  0  0  0  0  0  0  0
  -26.1879  -22.8381   23.9509 O   0  0  0  0  0  0  0  0  0  0  0  0
  -30.5138  -28.6521   23.3358 O   0  0  0  0  0  0  0  0  0  0  0  0
  -26.3360  -30.0657   25.0874 O   0  0  0  0  0  0  0  0  0  0  0  0
  -25.0616  -10.8011   22.2346 O   0  0  0  0  0  0  0  0  0  0  0  0
  -23.0767  -28.7000   19.2682 O   0  0  0  0  0  0  0  0  0  1  0  0
  -20.8987   -8.1727   19.7514 F   0  0  0  0  0  0  0  0  0  0  0  0
  -25.1559  -10.2303   19.5313 F   0  0  0  0  0  0  0  0  0  0  0  0
  -21.4954  -28.9599   23.9685 Cl  0  0  0  0  0  0  0  0  0  0  0  0
  1  2  1  0  0  0  0
  1  5  2  0  0  0  0
  2  6  2  0  0  0  0
  3  8  2  0  0  0  0
  3 17  1  0  0  0  0
  4  9  1  0  0  0  0
  4 17  2  0  0  0  0
  5 19  1  0  0  0  0
  6 21  1  0  0  0  0
  7 10  2  0  0  0  0
  7 20  1  0  0  0  0
  8 26  1  0  0  0  0
  9 26  2  0  0  0  0
 10 27  1  0  0  0  0
 11 12  2  0  0  0  0
 11 28  1  0  0  0  0
 12 29  1  0  0  0  0
 13 22  1  0  0  0  0
 13 27  2  0  0  0  0
 14 23  1  0  0  0  0
 14 24  2  0  0  0  0
 15 23  2  0  0  0  0
 15 31  1  0  0  0  0
 16 29  2  0  0  0  0
 16 30  1  0  0  0  0
 17 32  1  0  0  0  0
 18 32  1  0  0  0  0
 18 33  2  0  0  0  0
 18 34  1  0  0  0  0
 19 21  2  0  0  0  0
 19 39  1  0  0  0  0
 20 22  2  0  0  0  0
 20 40  1  0  0  0  0
 21 48  1  0  0  0  0
 22 41  1  0  0  0  0
 23 57  1  0  0  0  0
 24 25  1  0  0  0  0
 24 51  1  0  0  0  0
 25 31  2  0  0  0  0
 25 58  1  0  0  0  0
 26 83  1  0  0  0  0
 27 84  1  0  0  0  0
 28 30  2  0  0  0  0
 28 83  1  0  0  0  0
 29 85  1  0  0  0  0
 30 86  1  0  0  0  0
 31 87  1  0  0  0  0
 32 69  2  0  0  0  0
 33 70  1  0  0  0  0
 33 73  1  0  0  0  0
 34 74  1  0  0  0  0
 34 78  2  0  0  0  0
 35 49  1  0  0  0  0
 35 75  1  0  0  0  0
 35 79  2  0  0  0  0
 36 59  1  0  0  0  0
 36 72  1  0  0  0  0
 36 80  2  0  0  0  0
 37 66  1  0  0  0  0
 37 71  1  0  0  0  0
 37 81  2  0  0  0  0
 38 67  1  0  0  0  0
 38 76  1  0  0  0  0
 38 82  2  0  0  0  0
 39 42  1  0  0  0  0
 40 49  1  0  0  0  0
 41 71  1  0  0  0  0
 42 44  1  0  0  0  0
 43 45  1  0  0  0  0
 43 46  1  0  0  0  0
 44 48  1  0  0  0  0
 45 50  1  0  0  0  0
 46 72  1  0  0  0  0
 47 50  1  0  0  0  0
 47 72  1  0  0  0  0
 48 75  1  0  0  0  0
 49 71  1  0  0  0  0
 50 70  1  0  0  0  0
 52 67  1  0  0  0  0
 53 68  1  0  0  0  0
 54 68  1  0  0  0  0
 55 68  1  0  0  0  0
 56 77  1  0  0  0  0
 57 60  1  0  0  0  0
 58 61  1  0  0  0  0
 59 62  1  0  0  0  0
 60 63  1  0  0  0  0
 61 65  1  0  0  0  0
 62 64  1  0  0  0  0
 63 64  1  0  0  0  0
 65 84  1  0  0  0  0
 66 68  1  0  0  0  0
 66 76  1  0  0  0  0
 67 77  1  0  0  0  0
 69 70  1  0  0  0  0
M  CHG  1  77   1
M  ISO  4  36 100  59 100  65 101  84 101
M  END
> <Batch ID>
0032

> <Smiles>
CNC(C)C(=O)NC(C(=O)N1Cc2cc([101O:1][101CH2:1]CCc3c(C)cc(CCCCC[100CH2:0][100C:0](=O)N4CCCC(n5nc(-c6ccc(Oc7ccc(F)cc7F)cc6)c(C(N)=O)c5N)C4)cc3Cl)ccc2CC1C(=O)NC1CCCc2ccccc21)C(C)(C)C

> <Shape>
0.235

> <Color>
0.061

> <Negative vol penalty>
0.000

$$$$

  -OEChem-04052316453D

 91 99  0     1  0  0  0  0  0999 V2000
  -30.9449  -25.5290   21.9450 C   0  0  0  0  0  0  0  0  0  0  0  0
  -30.1650  -26.6282   22.2861 C   0  0  0  0  0  0  0  0  0  0  0  0
  -23.1780   -9.7801   20.7766 C   0  0  0  0  0  0  0  0  0  0  0  0
  -23.8861  -10.3833   23.0064 C   0  0  0  0  0  0  0  0  0  0  0  0
  -30.9338  -24.3938   22.7528 C   0  0  0  0  0  0  0  0  0  0  0  0
  -29.3829  -26.5972   23.4412 C   0  0  0  0  0  0  0  0  0  0  0  0
  -27.1238  -30.7752   24.7235 C   0  0  0  0  0  0  0  0  0  0  0  0
  -22.4721   -8.6943   21.2945 C   0  0  0  0  0  0  0  0  0  0  0  0
  -23.1801   -9.2974   23.5243 C   0  0  0  0  0  0  0  0  0  0  0  0
  -26.0326  -31.2877   24.0231 C   0  0  0  0  0  0  0  0  0  0  0  0
  -20.7780   -5.5535   21.9938 C   0  0  0  0  0  0  0  0  0  0  0  0
  -20.9003   -4.3273   21.3403 C   0  0  0  0  0  0  0  0  0  0  0  0
  -24.5559  -30.5040   25.7621 C   0  0  0  0  0  0  0  0  0  0  0  0
  -22.2252  -29.0204   21.5651 C   0  0  0  0  0  0  0  0  0  0  0  0
  -23.2814   -4.3472   21.7487 C   0  0  0  0  0  0  0  0  0  0  0  0
  -20.2586  -28.8501   23.4490 C   0  0  0  0  0  0  0  0  0  0  0  0
  -23.8851  -10.6246   21.6326 C   0  0  0  0  0  0  0  0  0  0  0  0
  -24.1355  -13.0543   20.8968 C   0  0  0  0  0  0  0  0  0  0  0  0
  -30.1414  -24.3450   23.9115 C   0  0  0  0  0  0  0  0  0  0  0  0
  -26.9377  -30.1125   25.9452 C   0  0  0  0  0  0  0  0  0  0  0  0
  -29.3766  -25.4698   24.2822 C   0  0  0  0  0  0  0  0  0  0  0  0
  -25.6466  -29.9863   26.4773 C   0  0  0  0  0  0  0  0  0  0  0  0
  -21.7813  -30.1781   22.1943 C   0  0  0  0  0  0  0  0  0  0  0  0
  -22.4732   -8.4529   22.6683 C   0  0  0  0  0  0  0  0  0  0  0  0
  -24.7482  -31.1496   24.5409 C   0  0  0  0  0  0  0  0  0  0  0  0
  -21.9074   -6.1766   22.5247 C   0  0  0  0  0  0  0  0  0  0  0  0
  -22.1520   -3.7241   21.2178 C   0  0  0  0  0  0  0  0  0  0  0  0
  -23.1591   -5.5734   22.4022 C   0  0  0  0  0  0  0  0  0  0  0  0
  -20.7796  -30.0999   23.1554 C   0  0  0  0  0  0  0  0  0  0  0  0
  -24.6149  -11.7461   21.0982 C   0  0  0  0  0  0  0  0  0  0  0  0
  -21.6396  -27.8188   21.9300 C   0  0  0  0  0  0  0  0  0  0  0  0
  -25.2069  -13.7359   20.3732 C   0  0  0  0  0  0  0  0  0  0  0  0
  -22.8378  -13.6043   21.1596 C   0  0  0  0  0  0  0  0  0  0  0  0
  -27.4924  -27.1684   27.0075 C   0  0  0  0  0  0  0  0  0  0  0  0
  -30.6646  -14.9567   20.4823 C   0  0  0  0  0  0  0  0  0  0  0  0
  -26.5817  -28.4412   29.8488 C   0  0  0  0  0  0  0  0  0  0  0  0
  -24.8432  -30.8586   31.5163 C   0  0  0  0  0  0  0  0  0  0  0  0
  -30.1732  -23.0941   24.7537 C   0  0  0  0  0  0  0  0  0  0  0  0
  -28.1278  -29.5889   26.7015 C   0  0  0  0  0  0  0  0  0  0  0  0
  -25.3953  -29.3012   27.7949 C   0  0  0  0  0  0  0  0  0  0  0  0
  -28.9849  -22.9868   25.7039 C   0  0  0  0  0  0  0  0  0  0  0  0
  -29.6414  -12.0709   18.6208 C   0  0  0  0  0  0  0  0  0  0  0  0
  -28.8139  -24.2892   26.4714 C   0  0  0  0  0  0  0  0  0  0  0  0
  -28.2142  -11.8188   19.1051 C   0  0  0  0  0  0  0  0  0  0  0  0
  -30.5269  -12.6007   19.7443 C   0  0  0  0  0  0  0  0  0  0  0  0
  -28.5670  -13.5780   20.8956 C   0  0  0  0  0  0  0  0  0  0  0  0
  -28.4946  -25.4473   25.5175 C   0  0  1  0  0  0  0  0  0  0  0  0
  -27.7694  -28.4801   27.6861 C   0  0  1  0  0  0  0  0  0  0  0  0
  -27.6314  -13.0711   19.7838 C   0  0  2  0  0  0  0  0  0  0  0  0
  -24.2539  -31.6165   33.8349 C   0  0  0  0  0  0  0  0  0  0  0  0
  -24.5514  -26.1744   30.0711 C   0  0  0  0  0  0  0  0  0  0  0  0
  -23.3875  -27.4856   31.8584 C   0  0  0  0  0  0  0  0  0  0  0  0
  -25.7381  -26.7248   32.2026 C   0  0  0  0  0  0  0  0  0  0  0  0
  -26.1770  -33.4716   31.1263 C   0  0  0  0  0  0  0  0  0  0  0  0
  -22.4004  -31.4828   21.8113 C   0  0  0  0  0  0  0  0  0  0  0  0
  -22.0966  -26.5424   21.2692 C   0  0  0  0  0  0  0  0  0  0  0  0
  -29.9793  -16.1258   21.1438 C   0  0  0  0  0  0  0  0  0  0  0  0
  -23.2525  -25.8943   22.0359 C   0  0  0  0  0  0  0  0  0  0  0  0
  -30.8941  -17.3461   21.1910 C   0  0  0  0  0  0  0  0  0  0  0  0
  -23.7983  -24.6332   21.3597 C   0  0  0  0  0  0  0  0  0  0  0  0
  -30.3066  -18.5716   21.9011 C   0  0  0  0  0  0  0  0  0  0  0  0
  -25.0014  -24.0262   22.0866 C   0  0  0  0  0  0  0  0  0  0  0  0
  -29.0658  -19.1409   21.2100 C   0  0  0  0  0  0  0  0  0  0  0  0
  -25.5215  -22.7868   21.3532 C   0  0  0  0  0  0  0  0  0  0  0  0
  -28.5367  -20.3726   21.9487 C   0  0  0  0  0  0  0  0  0  0  0  0
  -26.7709  -22.1779   21.9965 C   0  0  0  0  0  0  0  0  0  0  0  0
  -27.2763  -20.9246   21.2786 C   0  0  0  0  0  0  0  0  0  0  0  0
  -23.7815  -31.6927   22.4370 C   0  0  0  0  0  0  0  0  0  1  0  0
  -25.2687  -28.6026   30.5762 C   0  0  1  0  0  0  0  0  0  0  0  0
  -25.2294  -31.7579   32.6767 C   0  0  2  0  0  0  0  0  0  0  0  0
  -24.7406  -27.2581   31.1513 C   0  0  0  0  0  0  0  0  0  0  0  0
  -20.6642  -27.7034   22.8589 N   0  0  0  0  0  0  0  0  0  0  0  0
  -25.8915  -11.6028   20.7322 N   0  0  0  0  0  0  0  0  0  0  0  0
  -26.2232  -12.8297   20.2955 N   0  0  0  0  0  0  0  0  0  0  0  0
  -26.5906  -28.8004   28.4935 N   0  0  0  0  0  0  0  0  0  0  0  0
  -29.9280  -13.7767   20.3781 N   0  0  0  0  0  0  0  0  0  0  0  0
  -25.3692  -15.0159   19.9762 N   0  0  0  0  0  0  0  0  0  0  0  0
  -21.8531  -12.7651   21.6985 N   0  0  0  0  0  0  0  0  0  0  0  0
  -28.5468  -26.6921   26.2521 N   0  0  0  0  0  0  0  0  0  0  0  0
  -25.4831  -29.6390   31.5804 N   0  0  0  0  0  0  0  0  0  0  0  0
  -25.2424  -33.1842   32.2447 N   0  3  0  0  0  0  0  0  0  0  0  0
  -22.5548  -14.8003   20.9083 O   0  0  0  0  0  0  0  0  0  0  0  0
  -26.4032  -26.6278   27.1593 O   0  0  0  0  0  0  0  0  0  0  0  0
  -31.8191  -15.0912   20.0684 O   0  0  0  0  0  0  0  0  0  0  0  0
  -27.5650  -28.0189   30.4623 O   0  0  0  0  0  0  0  0  0  0  0  0
  -24.0501  -31.2023   30.6425 O   0  0  0  0  0  0  0  0  0  0  0  0
  -21.7842   -7.3935   23.1740 O   0  0  0  0  0  0  0  0  0  0  0  0
  -23.6739  -31.6518   23.8542 O   0  0  0  0  0  0  0  0  0  1  0  0
  -22.2690   -2.5459   20.5915 F   0  0  0  0  0  0  0  0  0  0  0  0
  -24.2476   -6.1666   22.9113 F   0  0  0  0  0  0  0  0  0  0  0  0
  -20.1803  -31.4897   23.9721 Cl  0  0  0  0  0  0  0  0  0  0  0  0
  1  2  1  0  0  0  0
  1  5  2  0  0  0  0
  2  6  2  0  0  0  0
  3  8  2  0  0  0  0
  3 17  1  0  0  0  0
  4  9  1  0  0  0  0
  4 17  2  0  0  0  0
  5 19  1  0  0  0  0
  6 21  1  0  0  0  0
  7 10  2  0  0  0  0
  7 20  1  0  0  0  0
  8 24  1  0  0  0  0
  9 24  2  0  0  0  0
 10 25  1  0  0  0  0
 11 12  2  0  0  0  0
 11 26  1  0  0  0  0
 12 27  1  0  0  0  0
 13 22  1  0  0  0  0
 13 25  2  0  0  0  0
 14 23  1  0  0  0  0
 14 31  2  0  0  0  0
 15 27  2  0  0  0  0
 15 28  1  0  0  0  0
 16 29  1  0  0  0  0
 16 72  2  0  0  0  0
 17 30  1  0  0  0  0
 18 30  1  0  0  0  0
 18 32  2  0  0  0  0
 18 33  1  0  0  0  0
 19 21  2  0  0  0  0
 19 38  1  0  0  0  0
 20 22  2  0  0  0  0
 20 39  1  0  0  0  0
 21 47  1  0  0  0  0
 22 40  1  0  0  0  0
 23 29  2  0  0  0  0
 23 55  1  0  0  0  0
 24 87  1  0  0  0  0
 25 88  1  0  0  0  0
 26 28  2  0  0  0  0
 26 87  1  0  0  0  0
 27 89  1  0  0  0  0
 28 90  1  0  0  0  0
 29 91  1  0  0  0  0
 30 73  2  0  0  0  0
 31 56  1  0  0  0  0
 31 72  1  0  0  0  0
 32 74  1  0  0  0  0
 32 77  1  0  0  0  0
 33 78  1  0  0  0  0
 33 82  2  0  0  0  0
 34 48  1  0  0  0  0
 34 79  1  0  0  0  0
 34 83  2  0  0  0  0
 35 57  1  0  0  0  0
 35 76  1  0  0  0  0
 35 84  2  0  0  0  0
 36 69  1  0  0  0  0
 36 75  1  0  0  0  0
 36 85  2  0  0  0  0
 37 70  1  0  0  0  0
 37 80  1  0  0  0  0
 37 86  2  0  0  0  0
 38 41  1  0  0  0  0
 39 48  1  0  0  0  0
 40 75  1  0  0  0  0
 41 43  1  0  0  0  0
 42 44  1  0  0  0  0
 42 45  1  0  0  0  0
 43 47  1  0  0  0  0
 44 49  1  0  0  0  0
 45 76  1  0  0  0  0
 46 49  1  0  0  0  0
 46 76  1  0  0  0  0
 47 79  1  0  0  0  0
 48 75  1  0  0  0  0
 49 74  1  0  0  0  0
 50 70  1  0  0  0  0
 51 71  1  0  0  0  0
 52 71  1  0  0  0  0
 53 71  1  0  0  0  0
 54 81  1  0  0  0  0
 55 68  1  0  0  0  0
 56 58  1  0  0  0  0
 57 59  1  0  0  0  0
 58 60  1  0  0  0  0
 59 61  1  0  0  0  0
 60 62  1  0  0  0  0
 61 63  1  0  0  0  0
 62 64  1  0  0  0  0
 63 65  1  0  0  0  0
 64 66  1  0  0  0  0
 65 67  1  0  0  0  0
 66 67  1  0  0  0  0
 68 88  1  0  0  0  0
 69 71  1  0  0  0  0
 69 80  1  0  0  0  0
 70 81  1  0  0  0  0
 73 74  1  0  0  0  0
M  CHG  1  81   1
M  ISO  4  35 100  57 100  68 101  88 101
M  END
> <Batch ID>
0032

> <Smiles>
CNC(C)C(=O)NC(C(=O)N1Cc2cc([101O:1][101CH2:1]Cc3cc(CCCCCCCCCCC[100CH2:0][100C:0](=O)N4CCCC(n5nc(-c6ccc(Oc7ccc(F)cc7F)cc6)c(C(N)=O)c5N)C4)ncc3Cl)ccc2CC1C(=O)NC1CCCc2ccccc21)C(C)(C)C

> <Shape>
0.270

> <Color>
0.183

> <Negative vol penalty>
0.000

$$$$

  -OEChem-04052316453D

 90 98  0     1  0  0  0  0  0999 V2000
  -28.2246  -24.4367   17.0477 C   0  0  0  0  0  0  0  0  0  0  0  0
  -27.0199  -24.6692   17.7036 C   0  0  0  0  0  0  0  0  0  0  0  0
  -26.6930  -18.2158   21.0880 C   0  0  0  0  0  0  0  0  0  0  0  0
  -26.1315  -20.5013   21.6338 C   0  0  0  0  0  0  0  0  0  0  0  0
  -29.4126  -24.9419   17.5743 C   0  0  0  0  0  0  0  0  0  0  0  0
  -27.0028  -25.4062   18.8872 C   0  0  0  0  0  0  0  0  0  0  0  0
  -23.2735  -28.8308   18.9894 C   0  0  0  0  0  0  0  0  0  0  0  0
  -27.8696  -18.6505   20.4778 C   0  0  0  0  0  0  0  0  0  0  0  0
  -27.3081  -20.9361   21.0237 C   0  0  0  0  0  0  0  0  0  0  0  0
  -21.9893  -28.3655   19.2689 C   0  0  0  0  0  0  0  0  0  0  0  0
  -28.7812  -20.0485   17.5386 C   0  0  0  0  0  0  0  0  0  0  0  0
  -29.1067  -19.5022   16.2972 C   0  0  0  0  0  0  0  0  0  0  0  0
  -22.2269  -29.1009   21.5541 C   0  0  0  0  0  0  0  0  0  0  0  0
  -20.3526  -24.6169   21.6477 C   0  0  0  0  0  0  0  0  0  0  0  0
  -31.1702  -18.6446   17.2156 C   0  0  0  0  0  0  0  0  0  0  0  0
  -25.8239  -19.1412   21.6659 C   0  0  0  0  0  0  0  0  0  0  0  0
  -24.4338  -18.3281   23.6444 C   0  0  0  0  0  0  0  0  0  0  0  0
  -29.4087  -25.6937   18.7598 C   0  0  0  0  0  0  0  0  0  0  0  0
  -24.0495  -29.4257   19.9945 C   0  0  0  0  0  0  0  0  0  0  0  0
  -28.1920  -25.9209   19.4309 C   0  0  0  0  0  0  0  0  0  0  0  0
  -23.5197  -29.5751   21.2841 C   0  0  0  0  0  0  0  0  0  0  0  0
  -19.2038  -25.3351   21.3351 C   0  0  0  0  0  0  0  0  0  0  0  0
  -18.4025  -24.9268   20.2747 C   0  0  0  0  0  0  0  0  0  0  0  0
  -28.1772  -20.0107   20.4457 C   0  0  0  0  0  0  0  0  0  0  0  0
  -21.4669  -28.4979   20.5521 C   0  0  0  0  0  0  0  0  0  0  0  0
  -29.6502  -19.8929   18.6186 C   0  0  0  0  0  0  0  0  0  0  0  0
  -30.3012  -18.8003   16.1357 C   0  0  0  0  0  0  0  0  0  0  0  0
  -30.8447  -19.1910   18.4571 C   0  0  0  0  0  0  0  0  0  0  0  0
  -24.6081  -18.6928   22.2959 C   0  0  0  0  0  0  0  0  0  0  0  0
  -20.6537  -23.5067   20.8753 C   0  0  0  0  0  0  0  0  0  0  0  0
  -18.7909  -23.8029   19.5636 C   0  0  0  0  0  0  0  0  0  0  0  0
  -23.1082  -17.9810   23.7376 C   0  0  0  0  0  0  0  0  0  0  0  0
  -25.3852  -18.3052   24.7168 C   0  0  0  0  0  0  0  0  0  0  0  0
  -26.8251  -28.7431   21.3852 C   0  0  0  0  0  0  0  0  0  0  0  0
  -26.3659  -31.6142   22.8234 C   0  0  0  0  0  0  0  0  0  0  0  0
  -24.1789  -34.0302   23.8367 C   0  0  0  0  0  0  0  0  0  0  0  0
  -17.8350  -19.0222   22.7100 C   0  0  0  0  0  0  0  0  0  0  0  0
  -30.7240  -26.1792   19.3158 C   0  0  0  0  0  0  0  0  0  0  0  0
  -25.4228  -29.9466   19.6701 C   0  0  0  0  0  0  0  0  0  0  0  0
  -24.3043  -30.2249   22.3934 C   0  0  0  0  0  0  0  0  0  0  0  0
  -30.5728  -27.2684   20.3746 C   0  0  0  0  0  0  0  0  0  0  0  0
  -19.6379  -17.2299   20.1343 C   0  0  0  0  0  0  0  0  0  0  0  0
  -29.4955  -26.8855   21.3844 C   0  0  0  0  0  0  0  0  0  0  0  0
  -21.0865  -17.4244   20.5856 C   0  0  0  0  0  0  0  0  0  0  0  0
  -18.8048  -18.4814   20.3949 C   0  0  0  0  0  0  0  0  0  0  0  0
  -20.2696  -19.1449   22.2626 C   0  0  0  0  0  0  0  0  0  0  0  0
  -28.1294  -26.7368   20.7038 C   0  0  1  0  0  0  0  0  0  0  0  0
  -26.3198  -30.0716   20.8978 C   0  0  1  0  0  0  0  0  0  0  0  0
  -21.1584  -17.9066   22.0466 C   0  0  2  0  0  0  0  0  0  0  0  0
  -23.1027  -23.2170   20.4226 C   0  0  0  0  0  0  0  0  0  0  0  0
  -24.0963  -36.2422   25.0188 C   0  0  0  0  0  0  0  0  0  0  0  0
  -26.7619  -30.1976   25.4966 C   0  0  0  0  0  0  0  0  0  0  0  0
  -25.7480  -32.1902   26.6235 C   0  0  0  0  0  0  0  0  0  0  0  0
  -27.8657  -32.4354   25.3282 C   0  0  0  0  0  0  0  0  0  0  0  0
  -23.0480  -35.3879   21.4626 C   0  0  0  0  0  0  0  0  0  0  0  0
  -18.8550  -26.5374   22.1492 C   0  0  0  0  0  0  0  0  0  0  0  0
  -17.1530  -25.6935   19.9210 C   0  0  0  0  0  0  0  0  0  0  0  0
  -21.8790  -22.7118   21.1818 C   0  0  0  0  0  0  0  0  0  0  0  0
  -15.9778  -25.4351   20.8708 C   0  0  0  0  0  0  0  0  0  0  0  0
  -15.5596  -23.9614   20.9195 C   0  0  0  0  0  0  0  0  0  0  0  0
  -14.4057  -23.7466   21.9023 C   0  0  0  0  0  0  0  0  0  0  0  0
  -13.8990  -22.3018   21.9393 C   0  0  0  0  0  0  0  0  0  0  0  0
  -14.9512  -21.2994   22.4213 C   0  0  0  0  0  0  0  0  0  0  0  0
  -14.3798  -19.8781   22.4675 C   0  0  0  0  0  0  0  0  0  0  0  0
  -15.3770  -18.8571   23.0072 C   0  0  0  0  0  0  0  0  0  0  0  0
  -19.9635  -27.5934   22.1576 C   0  0  0  0  0  0  0  0  0  1  0  0
  -25.6901  -32.0792   24.0906 C   0  0  1  0  0  0  0  0  0  0  0  0
  -24.1989  -35.5394   23.6741 C   0  0  2  0  0  0  0  0  0  0  0  0
  -26.5021  -31.7116   25.3646 C   0  0  0  0  0  0  0  0  0  0  0  0
  -23.4832  -18.5870   21.5836 N   0  0  0  0  0  0  0  0  0  0  0  0
  -19.8998  -23.0796   19.8376 N   0  0  0  0  0  0  0  0  0  0  0  0
  -22.5893  -18.1519   22.4879 N   0  0  0  0  0  0  0  0  0  0  0  0
  -25.6446  -30.7124   22.0282 N   0  0  0  0  0  0  0  0  0  0  0  0
  -18.9014  -18.8765   21.8073 N   0  0  0  0  0  0  0  0  0  0  0  0
  -22.3474  -17.5493   24.7658 N   0  0  0  0  0  0  0  0  0  0  0  0
  -26.7048  -18.6929   24.4477 N   0  0  0  0  0  0  0  0  0  0  0  0
  -27.5500  -28.0373   20.4440 N   0  0  0  0  0  0  0  0  0  0  0  0
  -25.4524  -33.5091   23.9255 N   0  0  0  0  0  0  0  0  0  0  0  0
  -16.5710  -18.7560   22.1978 N   0  0  0  0  0  0  0  0  0  0  0  0
  -23.0590  -35.9839   22.8233 N   0  3  0  0  0  0  0  0  0  0  0  0
  -25.0780  -17.9357   25.8755 O   0  0  0  0  0  0  0  0  0  0  0  0
  -26.5770  -28.3857   22.5308 O   0  0  0  0  0  0  0  0  0  0  0  0
  -27.4894  -32.0411   22.5455 O   0  0  0  0  0  0  0  0  0  0  0  0
  -23.1376  -33.3791   23.8842 O   0  0  0  0  0  0  0  0  0  0  0  0
  -17.9976  -19.3595   23.8877 O   0  0  0  0  0  0  0  0  0  0  0  0
  -29.3253  -20.4352   19.8507 O   0  0  0  0  0  0  0  0  0  0  0  0
  -20.2052  -28.0409   20.8298 O   0  0  0  0  0  0  0  0  0  1  0  0
  -30.6129  -18.2744   14.9438 F   0  0  0  0  0  0  0  0  0  0  0  0
  -31.6831  -19.0372   19.4912 F   0  0  0  0  0  0  0  0  0  0  0  0
  -17.8847  -23.1948   18.2336 Cl  0  0  0  0  0  0  0  0  0  0  0  0
  1  2  1  0  0  0  0
  1  5  2  0  0  0  0
  2  6  2  0  0  0  0
  3  8  2  0  0  0  0
  3 16  1  0  0  0  0
  4  9  1  0  0  0  0
  4 16  2  0  0  0  0
  5 18  1  0  0  0  0
  6 20  1  0  0  0  0
  7 10  2  0  0  0  0
  7 19  1  0  0  0  0
  8 24  1  0  0  0  0
  9 24  2  0  0  0  0
 10 25  1  0  0  0  0
 11 12  2  0  0  0  0
 11 26  1  0  0  0  0
 12 27  1  0  0  0  0
 13 21  1  0  0  0  0
 13 25  2  0  0  0  0
 14 22  2  0  0  0  0
 14 30  1  0  0  0  0
 15 27  2  0  0  0  0
 15 28  1  0  0  0  0
 16 29  1  0  0  0  0
 17 29  1  0  0  0  0
 17 32  2  0  0  0  0
 17 33  1  0  0  0  0
 18 20  2  0  0  0  0
 18 38  1  0  0  0  0
 19 21  2  0  0  0  0
 19 39  1  0  0  0  0
 20 47  1  0  0  0  0
 21 40  1  0  0  0  0
 22 23  1  0  0  0  0
 22 56  1  0  0  0  0
 23 31  2  0  0  0  0
 23 57  1  0  0  0  0
 24 86  1  0  0  0  0
 25 87  1  0  0  0  0
 26 28  2  0  0  0  0
 26 86  1  0  0  0  0
 27 88  1  0  0  0  0
 28 89  1  0  0  0  0
 29 70  2  0  0  0  0
 30 58  1  0  0  0  0
 30 71  2  0  0  0  0
 31 71  1  0  0  0  0
 31 90  1  0  0  0  0
 32 72  1  0  0  0  0
 32 75  1  0  0  0  0
 33 76  1  0  0  0  0
 33 81  2  0  0  0  0
 34 48  1  0  0  0  0
 34 77  1  0  0  0  0
 34 82  2  0  0  0  0
 35 67  1  0  0  0  0
 35 73  1  0  0  0  0
 35 83  2  0  0  0  0
 36 68  1  0  0  0  0
 36 78  1  0  0  0  0
 36 84  2  0  0  0  0
 37 74  1  0  0  0  0
 37 79  1  0  0  0  0
 37 85  2  0  0  0  0
 38 41  1  0  0  0  0
 39 48  1  0  0  0  0
 40 73  1  0  0  0  0
 41 43  1  0  0  0  0
 42 44  1  0  0  0  0
 42 45  1  0  0  0  0
 43 47  1  0  0  0  0
 44 49  1  0  0  0  0
 45 74  1  0  0  0  0
 46 49  1  0  0  0  0
 46 74  1  0  0  0  0
 47 77  1  0  0  0  0
 48 73  1  0  0  0  0
 49 72  1  0  0  0  0
 50 58  1  0  0  0  0
 51 68  1  0  0  0  0
 52 69  1  0  0  0  0
 53 69  1  0  0  0  0
 54 69  1  0  0  0  0
 55 80  1  0  0  0  0
 56 66  1  0  0  0  0
 57 59  1  0  0  0  0
 59 60  1  0  0  0  0
 60 61  1  0  0  0  0
 61 62  1  0  0  0  0
 62 63  1  0  0  0  0
 63 64  1  0  0  0  0
 64 65  1  0  0  0  0
 65 79  1  0  0  0  0
 66 87  1  0  0  0  0
 67 69  1  0  0  0  0
 67 78  1  0  0  0  0
 68 80  1  0  0  0  0
 70 72  1  0  0  0  0
M  CHG  1  80   1
M  ISO  4  37 100  66 101  79 100  87 101
M  END
> <Batch ID>
0032

> <Smiles>
CCc1cc(C[101CH2:1][101O:1]c2ccc3c(c2)CN(C(=O)C(NC(=O)C(C)NC)C(C)(C)C)C(C(=O)NC2CCCc4ccccc42)C3)c(CCCCCCCC[100NH:0][100C:0](=O)N2CCCC(n3nc(-c4ccc(Oc5ccc(F)cc5F)cc4)c(C(N)=O)c3N)C2)c(Cl)n1

> <Shape>
0.223

> <Color>
0.072

> <Negative vol penalty>
0.000

$$$$

  -OEChem-04052316453D

 91101  0     1  0  0  0  0  0999 V2000
  -28.5937  -34.7894   24.5967 C   0  0  0  0  0  0  0  0  0  0  0  0
  -28.4142  -33.5886   23.9175 C   0  0  0  0  0  0  0  0  0  0  0  0
  -22.3776  -13.3239   17.8389 C   0  0  0  0  0  0  0  0  0  0  0  0
  -22.9658  -10.9926   18.0753 C   0  0  0  0  0  0  0  0  0  0  0  0
  -27.8345  -35.0667   25.7327 C   0  0  0  0  0  0  0  0  0  0  0  0
  -27.4761  -32.6638   24.3747 C   0  0  0  0  0  0  0  0  0  0  0  0
  -24.6584  -30.7423   20.6313 C   0  0  0  0  0  0  0  0  0  0  0  0
  -21.3611  -12.9773   16.9489 C   0  0  0  0  0  0  0  0  0  0  0  0
  -21.9492  -10.6459   17.1853 C   0  0  0  0  0  0  0  0  0  0  0  0
  -25.2395  -29.7513   19.8412 C   0  0  0  0  0  0  0  0  0  0  0  0
  -21.0893  -12.1157   13.6919 C   0  0  0  0  0  0  0  0  0  0  0  0
  -20.9647  -12.8706   12.5256 C   0  0  0  0  0  0  0  0  0  0  0  0
  -30.1004  -16.9433   20.1782 C   0  0  0  0  0  0  0  0  0  0  0  0
  -29.2822  -18.0914   22.1356 C   0  0  0  0  0  0  0  0  0  0  0  0
  -24.0579  -28.0650   21.0978 C   0  0  0  0  0  0  0  0  0  0  0  0
  -18.7200  -13.4921   13.1679 C   0  0  0  0  0  0  0  0  0  0  0  0
  -23.1800  -12.3316   18.4020 C   0  0  0  0  0  0  0  0  0  0  0  0
  -30.2393  -15.7740   20.9252 C   0  0  0  0  0  0  0  0  0  0  0  0
  -24.0924  -13.3601   20.5508 C   0  0  0  0  0  0  0  0  0  0  0  0
  -26.8797  -34.1490   26.1985 C   0  0  0  0  0  0  0  0  0  0  0  0
  -23.7797  -30.4007   21.6694 C   0  0  0  0  0  0  0  0  0  0  0  0
  -26.7043  -32.9285   25.5188 C   0  0  0  0  0  0  0  0  0  0  0  0
  -29.6197  -18.1009   20.7826 C   0  0  0  0  0  0  0  0  0  0  0  0
  -29.4272  -16.9240   22.9008 C   0  0  0  0  0  0  0  0  0  0  0  0
  -23.4650  -29.0536   21.8980 C   0  0  0  0  0  0  0  0  0  0  0  0
  -29.8934  -15.7486   22.2849 C   0  0  0  0  0  0  0  0  0  0  0  0
  -21.1468  -11.6383   16.6221 C   0  0  0  0  0  0  0  0  0  0  0  0
  -24.9415  -28.4123   20.0763 C   0  0  0  0  0  0  0  0  0  0  0  0
  -20.0293  -12.0489   14.5961 C   0  0  0  0  0  0  0  0  0  0  0  0
  -19.7801  -13.5588   12.2636 C   0  0  0  0  0  0  0  0  0  0  0  0
  -18.8447  -12.7372   14.3341 C   0  0  0  0  0  0  0  0  0  0  0  0
  -24.2306  -12.6891   19.3210 C   0  0  0  0  0  0  0  0  0  0  0  0
  -25.3741  -13.4574   21.0348 C   0  0  0  0  0  0  0  0  0  0  0  0
  -30.7677  -14.5896   20.2361 C   0  0  0  0  0  0  0  0  0  0  0  0
  -22.9111  -13.8515   21.1979 C   0  0  0  0  0  0  0  0  0  0  0  0
  -23.7854  -30.7713   24.8263 C   0  0  0  0  0  0  0  0  0  0  0  0
  -20.7883  -29.5544   24.5837 C   0  0  0  0  0  0  0  0  0  0  0  0
  -18.5590  -27.6759   22.8095 C   0  0  0  0  0  0  0  0  0  0  0  0
  -26.1161  -34.4724   27.4583 C   0  0  0  0  0  0  0  0  0  0  0  0
  -23.1404  -31.4831   22.4954 C   0  0  0  0  0  0  0  0  0  0  0  0
  -29.0192  -16.9463   24.3535 C   0  0  0  0  0  0  0  0  0  0  0  0
  -30.0896  -14.4743   23.0660 C   0  0  0  0  0  0  0  0  0  0  0  0
  -22.5120  -28.6356   22.9869 C   0  0  0  0  0  0  0  0  0  0  0  0
  -24.8785  -33.6020   27.6607 C   0  0  0  0  0  0  0  0  0  0  0  0
  -29.3399  -14.4588   24.3974 C   0  0  0  0  0  0  0  0  0  0  0  0
  -29.6671  -11.2776   19.4869 C   0  0  0  0  0  0  0  0  0  0  0  0
  -25.2117  -32.1342   27.4128 C   0  0  0  0  0  0  0  0  0  0  0  0
  -28.1430  -11.4057   19.4579 C   0  0  0  0  0  0  0  0  0  0  0  0
  -27.9914  -19.7947   19.9661 C   0  0  0  0  0  0  0  0  0  0  0  0
  -30.3544  -20.4667   20.5589 C   0  0  0  0  0  0  0  0  0  0  0  0
  -30.3483  -12.5286   18.9376 C   0  0  0  0  0  0  0  0  0  0  0  0
  -28.4034  -13.9201   19.5585 C   0  0  0  0  0  0  0  0  0  0  0  0
  -27.8115  -21.1149   19.2277 C   0  0  0  0  0  0  0  0  0  0  0  0
  -30.1565  -21.7816   19.8157 C   0  0  0  0  0  0  0  0  0  0  0  0
  -29.4640  -19.3539   19.9828 C   0  0  0  0  0  0  0  0  0  0  0  0
  -25.6790  -31.9107   25.9695 C   0  0  1  0  0  0  0  0  0  0  0  0
  -22.6589  -30.9903   23.8565 C   0  0  1  0  0  0  0  0  0  0  0  0
  -29.5757  -15.7646   25.1618 C   0  0  2  0  0  0  0  0  0  0  0  0
  -27.6787  -12.7004   20.1511 C   0  0  1  0  0  0  0  0  0  0  0  0
  -28.9348  -15.7105   26.5468 C   0  0  0  0  0  0  0  0  0  0  0  0
  -16.1973  -26.8305   22.8829 C   0  0  0  0  0  0  0  0  0  0  0  0
  -21.6013  -27.4705   26.6589 C   0  0  0  0  0  0  0  0  0  0  0  0
  -19.5954  -26.1278   25.9943 C   0  0  0  0  0  0  0  0  0  0  0  0
  -19.3026  -28.4067   26.9656 C   0  0  0  0  0  0  0  0  0  0  0  0
  -17.8507  -29.0945   20.3105 C   0  0  0  0  0  0  0  0  0  0  0  0
  -27.2349  -24.1501   19.8828 C   0  0  0  0  0  0  0  0  0  0  0  0
  -26.9309  -25.5116   19.2622 C   0  0  0  0  0  0  0  0  0  0  0  0
  -28.4642  -23.5208   19.2444 C   0  0  0  0  0  0  0  0  0  0  0  0
  -25.7285  -26.1735   19.9201 C   0  0  0  0  0  0  0  0  0  1  0  0
  -20.1920  -28.1678   24.6111 C   0  0  1  0  0  0  0  0  0  0  0  0
  -17.1207  -27.9386   22.4009 C   0  0  2  0  0  0  0  0  0  0  0  0
  -20.1923  -27.5506   26.0381 C   0  0  0  0  0  0  0  0  0  0  0  0
  -25.5000  -12.3819   19.0410 N   0  0  0  0  0  0  0  0  0  0  0  0
  -26.1711  -12.8622   20.1017 N   0  0  0  0  0  0  0  0  0  0  0  0
  -29.8590  -13.7260   19.6198 N   0  0  0  0  0  0  0  0  0  0  0  0
  -21.9176  -29.7303   23.7715 N   0  0  0  0  0  0  0  0  0  0  0  0
  -25.8859  -13.9932   22.1632 N   0  0  0  0  0  0  0  0  0  0  0  0
  -22.2257  -12.9992   22.0743 N   0  0  0  0  0  0  0  0  0  0  0  0
  -24.5470  -31.8987   25.0679 N   0  0  0  0  0  0  0  0  0  0  0  0
  -18.8678  -28.2811   24.0093 N   0  0  0  0  0  0  0  0  0  0  0  0
  -28.6934  -22.1848   19.8453 N   0  3  0  0  0  0  0  0  0  0  0  0
  -17.0119  -28.0290   20.9174 N   0  3  0  0  0  0  0  0  0  0  0  0
  -31.9886  -14.4426   20.2668 O   0  0  0  0  0  0  0  0  0  0  0  0
  -22.4670  -15.0065   20.9920 O   0  0  0  0  0  0  0  0  0  0  0  0
  -23.9506  -29.6619   25.3201 O   0  0  0  0  0  0  0  0  0  0  0  0
  -20.2669  -30.4502   25.2525 O   0  0  0  0  0  0  0  0  0  0  0  0
  -19.3302  -26.9982   22.1338 O   0  0  0  0  0  0  0  0  0  0  0  0
  -20.1548  -11.2996   15.7539 O   0  0  0  0  0  0  0  0  0  0  0  0
  -25.5078  -27.4431   19.3070 O   0  0  0  0  0  0  0  0  0  1  0  0
  -19.6611  -14.2850   11.1444 F   0  0  0  0  0  0  0  0  0  0  0  0
  -17.8233  -12.6778   15.1996 F   0  0  0  0  0  0  0  0  0  0  0  0
  1  2  1  0  0  0  0
  1  5  2  0  0  0  0
  2  6  2  0  0  0  0
  3  8  2  0  0  0  0
  3 17  1  0  0  0  0
  4  9  1  0  0  0  0
  4 17  2  0  0  0  0
  5 20  1  0  0  0  0
  6 22  1  0  0  0  0
  7 10  2  0  0  0  0
  7 21  1  0  0  0  0
  8 27  1  0  0  0  0
  9 27  2  0  0  0  0
 10 28  1  0  0  0  0
 11 12  2  0  0  0  0
 11 29  1  0  0  0  0
 12 30  1  0  0  0  0
 13 18  1  0  0  0  0
 13 23  2  0  0  0  0
 14 23  1  0  0  0  0
 14 24  2  0  0  0  0
 15 25  1  0  0  0  0
 15 28  2  0  0  0  0
 16 30  2  0  0  0  0
 16 31  1  0  0  0  0
 17 32  1  0  0  0  0
 18 26  2  0  0  0  0
 18 34  1  0  0  0  0
 19 32  1  0  0  0  0
 19 33  2  0  0  0  0
 19 35  1  0  0  0  0
 20 22  2  0  0  0  0
 20 39  1  0  0  0  0
 21 25  2  0  0  0  0
 21 40  1  0  0  0  0
 22 56  1  0  0  0  0
 23 55  1  0  0  0  0
 24 26  1  0  0  0  0
 24 41  1  0  0  0  0
 25 43  1  0  0  0  0
 26 42  1  0  0  0  0
 27 88  1  0  0  0  0
 28 89  1  0  0  0  0
 29 31  2  0  0  0  0
 29 88  1  0  0  0  0
 30 90  1  0  0  0  0
 31 91  1  0  0  0  0
 32 73  2  0  0  0  0
 33 74  1  0  0  0  0
 33 77  1  0  0  0  0
 34 75  1  0  0  0  0
 34 83  2  0  0  0  0
 35 78  1  0  0  0  0
 35 84  2  0  0  0  0
 36 57  1  0  0  0  0
 36 79  1  0  0  0  0
 36 85  2  0  0  0  0
 37 70  1  0  0  0  0
 37 76  1  0  0  0  0
 37 86  2  0  0  0  0
 38 71  1  0  0  0  0
 38 80  1  0  0  0  0
 38 87  2  0  0  0  0
 39 44  1  0  0  0  0
 40 57  1  0  0  0  0
 41 58  1  0  0  0  0
 42 45  1  0  0  0  0
 43 76  1  0  0  0  0
 44 47  1  0  0  0  0
 45 58  1  0  0  0  0
 46 48  1  0  0  0  0
 46 51  1  0  0  0  0
 47 56  1  0  0  0  0
 48 59  1  0  0  0  0
 49 53  1  0  0  0  0
 49 55  1  0  0  0  0
 50 54  1  0  0  0  0
 50 55  1  0  0  0  0
 51 75  1  0  0  0  0
 52 59  1  0  0  0  0
 52 75  1  0  0  0  0
 53 81  1  0  0  0  0
 54 81  1  0  0  0  0
 56 79  1  0  0  0  0
 57 76  1  0  0  0  0
 58 60  1  0  0  0  0
 59 74  1  0  0  0  0
 61 71  1  0  0  0  0
 62 72  1  0  0  0  0
 63 72  1  0  0  0  0
 64 72  1  0  0  0  0
 65 82  1  0  0  0  0
 66 67  1  0  0  0  0
 66 68  1  0  0  0  0
 67 69  1  0  0  0  0
 68 81  1  0  0  0  0
 69 89  1  0  0  0  0
 70 72  1  0  0  0  0
 70 80  1  0  0  0  0
 71 82  1  0  0  0  0
 73 74  1  0  0  0  0
M  CHG  2  81   1  82   1
M  ISO  4  18 100  34 100  69 101  89 101
M  END
> <Batch ID>
0032

> <Smiles>
CNC(C)C(=O)NC(C(=O)N1Cc2cc([101O:1][101CH2:1]CCCN3CCC(c4cc5c([100c:0]([100C:0](=O)N6CCCC(n7nc(-c8ccc(Oc9ccc(F)cc9F)cc8)c(C(N)=O)c7N)C6)c4)CCC(C)C5)CC3)ccc2CC1C(=O)NC1CCCc2ccccc21)C(C)(C)C

> <Shape>
0.298

> <Color>
0.089

> <Negative vol penalty>
0.000

$$$$

  -OEChem-04052316453D

 86 94  0     1  0  0  0  0  0999 V2000
  -21.3012  -20.3390   13.6474 C   0  0  0  0  0  0  0  0  0  0  0  0
  -22.1329  -19.5255   14.4102 C   0  0  0  0  0  0  0  0  0  0  0  0
  -26.6527  -28.9863   19.1780 C   0  0  0  0  0  0  0  0  0  0  0  0
  -26.6853  -28.0241   21.3939 C   0  0  0  0  0  0  0  0  0  0  0  0
  -21.1346  -21.6802   13.9901 C   0  0  0  0  0  0  0  0  0  0  0  0
  -22.7995  -20.0530   15.5156 C   0  0  0  0  0  0  0  0  0  0  0  0
  -22.5583  -17.0163   19.5610 C   0  0  0  0  0  0  0  0  0  0  0  0
  -25.4887  -29.6848   19.4985 C   0  0  0  0  0  0  0  0  0  0  0  0
  -25.5213  -28.7226   21.7144 C   0  0  0  0  0  0  0  0  0  0  0  0
  -23.4117  -15.9140   19.5815 C   0  0  0  0  0  0  0  0  0  0  0  0
  -22.2016  -28.4258   21.1469 C   0  0  0  0  0  0  0  0  0  0  0  0
  -21.1908  -27.7308   21.8109 C   0  0  0  0  0  0  0  0  0  0  0  0
  -24.9178  -17.1147   21.0338 C   0  0  0  0  0  0  0  0  0  0  0  0
  -27.2526  -12.7308   19.1068 C   0  0  0  0  0  0  0  0  0  0  0  0
  -21.3455  -29.2751   23.6625 C   0  0  0  0  0  0  0  0  0  0  0  0
  -27.2510  -28.1559   20.1257 C   0  0  0  0  0  0  0  0  0  0  0  0
  -29.7808  -27.8697   19.9651 C   0  0  0  0  0  0  0  0  0  0  0  0
  -21.7919  -22.2220   15.1059 C   0  0  0  0  0  0  0  0  0  0  0  0
  -22.8840  -18.1819   20.2691 C   0  0  0  0  0  0  0  0  0  0  0  0
  -22.6426  -21.4030   15.8727 C   0  0  0  0  0  0  0  0  0  0  0  0
  -24.0655  -18.2295   21.0227 C   0  0  0  0  0  0  0  0  0  0  0  0
  -28.1522  -11.6967   19.2971 C   0  0  0  0  0  0  0  0  0  0  0  0
  -24.9230  -29.5530   20.7667 C   0  0  0  0  0  0  0  0  0  0  0  0
  -24.5930  -15.9641   20.3156 C   0  0  0  0  0  0  0  0  0  0  0  0
  -22.7844  -29.5453   21.7407 C   0  0  0  0  0  0  0  0  0  0  0  0
  -20.7627  -28.1555   23.0687 C   0  0  0  0  0  0  0  0  0  0  0  0
  -22.3563  -29.9700   22.9985 C   0  0  0  0  0  0  0  0  0  0  0  0
  -28.4532  -27.4336   19.7951 C   0  0  0  0  0  0  0  0  0  0  0  0
  -26.0365  -12.6569   19.7556 C   0  0  0  0  0  0  0  0  0  0  0  0
  -27.7761  -10.6572   20.1239 C   0  0  0  0  0  0  0  0  0  0  0  0
  -30.5465  -26.8276   19.5022 C   0  0  0  0  0  0  0  0  0  0  0  0
  -30.2776  -29.1062   20.4943 C   0  0  0  0  0  0  0  0  0  0  0  0
  -23.4584  -21.2047   19.4711 C   0  0  0  0  0  0  0  0  0  0  0  0
  -29.3778  -21.0186   19.0961 C   0  0  0  0  0  0  0  0  0  0  0  0
  -23.5295  -21.6317   22.6859 C   0  0  0  0  0  0  0  0  0  0  0  0
  -24.0033  -20.2708   25.7795 C   0  0  0  0  0  0  0  0  0  0  0  0
  -21.6178  -23.6891   15.4093 C   0  0  0  0  0  0  0  0  0  0  0  0
  -21.9398  -19.3527   20.2584 C   0  0  0  0  0  0  0  0  0  0  0  0
  -24.4512  -19.4499   21.8166 C   0  0  0  0  0  0  0  0  0  0  0  0
  -22.0663  -24.0776   16.8158 C   0  0  0  0  0  0  0  0  0  0  0  0
  -30.4612  -23.1997   16.3950 C   0  0  0  0  0  0  0  0  0  0  0  0
  -23.4268  -23.4640   17.1309 C   0  0  0  0  0  0  0  0  0  0  0  0
  -30.1587  -24.5800   16.9767 C   0  0  0  0  0  0  0  0  0  0  0  0
  -29.4235  -22.1678   16.8292 C   0  0  0  0  0  0  0  0  0  0  0  0
  -28.9533  -23.4477   18.8945 C   0  0  0  0  0  0  0  0  0  0  0  0
  -23.3633  -21.9323   17.0936 C   0  0  1  0  0  0  0  0  0  0  0  0
  -22.6219  -20.6737   20.6007 C   0  0  1  0  0  0  0  0  0  0  0  0
  -29.9940  -24.5108   18.5050 C   0  0  2  0  0  0  0  0  0  0  0  0
  -24.0328  -20.8767   28.2145 C   0  0  0  0  0  0  0  0  0  0  0  0
  -26.2672  -22.9302   22.3271 C   0  0  0  0  0  0  0  0  0  0  0  0
  -26.6475  -22.6443   24.7852 C   0  0  0  0  0  0  0  0  0  0  0  0
  -24.7753  -24.0789   23.9731 C   0  0  0  0  0  0  0  0  0  0  0  0
  -21.7779  -18.4167   26.3869 C   0  0  0  0  0  0  0  0  0  0  0  0
  -29.4923  -11.7383   18.6065 C   0  0  0  0  0  0  0  0  0  0  0  0
  -25.0320  -13.7441   19.5842 C   0  0  0  0  0  0  0  0  0  1  0  0
  -29.6648  -19.7141   18.3961 C   0  0  0  0  0  0  0  0  0  0  0  0
  -30.6423  -12.1998   19.5106 C   0  0  0  0  0  0  0  0  0  0  0  0
  -29.7488  -18.5637   19.3944 C   0  0  0  0  0  0  0  0  0  0  0  0
  -30.4614  -13.5859   20.1427 C   0  0  0  0  0  0  0  0  0  0  0  0
  -29.9824  -17.2111   18.7129 C   0  0  0  0  0  0  0  0  0  0  0  0
  -30.3330  -14.7096   19.1110 C   0  0  0  0  0  0  0  0  0  0  0  0
  -30.0907  -16.0838   19.7436 C   0  0  0  0  0  0  0  0  0  0  0  0
  -24.5987  -21.5668   23.7496 C   0  0  1  0  0  0  0  0  0  0  0  0
  -23.1890  -20.3657   27.0571 C   0  0  2  0  0  0  0  0  0  0  0  0
  -25.5661  -22.7826   23.6923 C   0  0  0  0  0  0  0  0  0  0  0  0
  -28.3762  -26.2099   19.2654 N   0  0  0  0  0  0  0  0  0  0  0  0
  -25.6950  -11.6273   20.5591 N   0  0  0  0  0  0  0  0  0  0  0  0
  -26.5793  -10.6111   20.7464 N   0  0  0  0  0  0  0  0  0  0  0  0
  -29.6652  -25.8682   19.0985 N   0  0  0  0  0  0  0  0  0  0  0  0
  -23.4982  -20.5711   21.7693 N   0  0  0  0  0  0  0  0  0  0  0  0
  -29.2764  -22.1523   18.2895 N   0  0  0  0  0  0  0  0  0  0  0  0
  -31.8808  -26.6475   19.4051 N   0  0  0  0  0  0  0  0  0  0  0  0
  -29.3535  -30.0680   20.9247 N   0  0  0  0  0  0  0  0  0  0  0  0
  -22.7532  -21.4222   18.3028 N   0  0  0  0  0  0  0  0  0  0  0  0
  -23.9003  -21.4183   25.0218 N   0  0  0  0  0  0  0  0  0  0  0  0
  -22.6463  -19.0276   27.4260 N   0  3  0  0  0  0  0  0  0  0  0  0
  -31.5044  -29.3575   20.5675 O   0  0  0  0  0  0  0  0  0  0  0  0
  -24.6547  -21.4038   19.6469 O   0  0  0  0  0  0  0  0  0  0  0  0
  -29.2505  -21.0280   20.3232 O   0  0  0  0  0  0  0  0  0  0  0  0
  -22.7461  -22.5845   22.6731 O   0  0  0  0  0  0  0  0  0  0  0  0
  -24.6675  -19.2796   25.4850 O   0  0  0  0  0  0  0  0  0  0  0  0
  -23.7873  -30.2347   21.0798 O   0  0  0  0  0  0  0  0  0  0  0  0
  -25.4338  -14.8826   20.3370 O   0  0  0  0  0  0  0  0  0  1  0  0
  -19.7910  -27.4889   23.7056 F   0  0  0  0  0  0  0  0  0  0  0  0
  -22.9116  -31.0456   23.5735 F   0  0  0  0  0  0  0  0  0  0  0  0
  -28.7906   -9.3112   20.4495 Cl  0  0  0  0  0  0  0  0  0  0  0  0
  1  2  1  0  0  0  0
  1  5  2  0  0  0  0
  2  6  2  0  0  0  0
  3  8  2  0  0  0  0
  3 16  1  0  0  0  0
  4  9  1  0  0  0  0
  4 16  2  0  0  0  0
  5 18  1  0  0  0  0
  6 20  1  0  0  0  0
  7 10  2  0  0  0  0
  7 19  1  0  0  0  0
  8 23  1  0  0  0  0
  9 23  2  0  0  0  0
 10 24  1  0  0  0  0
 11 12  2  0  0  0  0
 11 25  1  0  0  0  0
 12 26  1  0  0  0  0
 13 21  1  0  0  0  0
 13 24  2  0  0  0  0
 14 22  2  0  0  0  0
 14 29  1  0  0  0  0
 15 26  2  0  0  0  0
 15 27  1  0  0  0  0
 16 28  1  0  0  0  0
 17 28  1  0  0  0  0
 17 31  2  0  0  0  0
 17 32  1  0  0  0  0
 18 20  2  0  0  0  0
 18 37  1  0  0  0  0
 19 21  2  0  0  0  0
 19 38  1  0  0  0  0
 20 46  1  0  0  0  0
 21 39  1  0  0  0  0
 22 30  1  0  0  0  0
 22 54  1  0  0  0  0
 23 82  1  0  0  0  0
 24 83  1  0  0  0  0
 25 27  2  0  0  0  0
 25 82  1  0  0  0  0
 26 84  1  0  0  0  0
 27 85  1  0  0  0  0
 28 66  2  0  0  0  0
 29 55  1  0  0  0  0
 29 67  2  0  0  0  0
 30 68  2  0  0  0  0
 30 86  1  0  0  0  0
 31 69  1  0  0  0  0
 31 72  1  0  0  0  0
 32 73  1  0  0  0  0
 32 77  2  0  0  0  0
 33 47  1  0  0  0  0
 33 74  1  0  0  0  0
 33 78  2  0  0  0  0
 34 56  1  0  0  0  0
 34 71  1  0  0  0  0
 34 79  2  0  0  0  0
 35 63  1  0  0  0  0
 35 70  1  0  0  0  0
 35 80  2  0  0  0  0
 36 64  1  0  0  0  0
 36 75  1  0  0  0  0
 36 81  2  0  0  0  0
 37 40  1  0  0  0  0
 38 47  1  0  0  0  0
 39 70  1  0  0  0  0
 40 42  1  0  0  0  0
 41 43  1  0  0  0  0
 41 44  1  0  0  0  0
 42 46  1  0  0  0  0
 43 48  1  0  0  0  0
 44 71  1  0  0  0  0
 45 48  1  0  0  0  0
 45 71  1  0  0  0  0
 46 74  1  0  0  0  0
 47 70  1  0  0  0  0
 48 69  1  0  0  0  0
 49 64  1  0  0  0  0
 50 65  1  0  0  0  0
 51 65  1  0  0  0  0
 52 65  1  0  0  0  0
 53 76  1  0  0  0  0
 54 57  1  0  0  0  0
 55 83  1  0  0  0  0
 56 58  1  0  0  0  0
 57 59  1  0  0  0  0
 58 60  1  0  0  0  0
 59 61  1  0  0  0  0
 60 62  1  0  0  0  0
 61 62  1  0  0  0  0
 63 65  1  0  0  0  0
 63 75  1  0  0  0  0
 64 76  1  0  0  0  0
 66 69  1  0  0  0  0
 67 68  1  0  0  0  0
M  CHG  1  76   1
M  ISO  4  34 100  55 101  56 100  83 101
M  END
> <Batch ID>
0032

> <Smiles>
CNC(C)C(=O)NC(C(=O)N1Cc2cc([101O:1][101CH2:1]c3cc(CCCCCCC[100CH2:0][100C:0](=O)N4CCCC(n5nc(-c6ccc(Oc7ccc(F)cc7F)cc6)c(C(N)=O)c5N)C4)c(Cl)nn3)ccc2CC1C(=O)NC1CCCc2ccccc21)C(C)(C)C

> <Shape>
0.225

> <Color>
0.074

> <Negative vol penalty>
0.000

$$$$

  -OEChem-04052316453D

 89 97  0     1  0  0  0  0  0999 V2000
  -31.8707  -15.5553   15.6120 C   0  0  0  0  0  0  0  0  0  0  0  0
  -31.1799  -16.0211   16.7262 C   0  0  0  0  0  0  0  0  0  0  0  0
  -23.0610   -9.8125   20.0608 C   0  0  0  0  0  0  0  0  0  0  0  0
  -23.7185  -10.0483   22.3736 C   0  0  0  0  0  0  0  0  0  0  0  0
  -32.9185  -16.3051   15.0793 C   0  0  0  0  0  0  0  0  0  0  0  0
  -31.5374  -17.2364   17.3089 C   0  0  0  0  0  0  0  0  0  0  0  0
  -27.5210  -20.1124   18.4234 C   0  0  0  0  0  0  0  0  0  0  0  0
  -22.3124   -8.6823   20.3887 C   0  0  0  0  0  0  0  0  0  0  0  0
  -22.9698   -8.9180   22.7016 C   0  0  0  0  0  0  0  0  0  0  0  0
  -26.8003  -19.7826   19.5705 C   0  0  0  0  0  0  0  0  0  0  0  0
  -23.3011   -5.5605   22.4825 C   0  0  0  0  0  0  0  0  0  0  0  0
  -23.8892   -4.6151   23.3228 C   0  0  0  0  0  0  0  0  0  0  0  0
  -27.9290  -21.5399   20.7776 C   0  0  0  0  0  0  0  0  0  0  0  0
  -29.7865  -18.8831   25.2911 C   0  0  0  0  0  0  0  0  0  0  0  0
  -28.2357  -17.6546   23.9045 C   0  0  0  0  0  0  0  0  0  0  0  0
  -22.1130   -4.9375   24.9285 C   0  0  0  0  0  0  0  0  0  0  0  0
  -23.7641  -10.4955   21.0532 C   0  0  0  0  0  0  0  0  0  0  0  0
  -24.0987  -13.0002   20.7037 C   0  0  0  0  0  0  0  0  0  0  0  0
  -33.2828  -17.5348   15.6500 C   0  0  0  0  0  0  0  0  0  0  0  0
  -28.4606  -21.1530   18.4479 C   0  0  0  0  0  0  0  0  0  0  0  0
  -32.5920  -18.0026   16.7842 C   0  0  0  0  0  0  0  0  0  0  0  0
  -28.6585  -21.8826   19.6289 C   0  0  0  0  0  0  0  0  0  0  0  0
  -29.4999  -17.7858   24.4791 C   0  0  0  0  0  0  0  0  0  0  0  0
  -28.8088  -19.8493   25.5285 C   0  0  0  0  0  0  0  0  0  0  0  0
  -27.2581  -18.6208   24.1418 C   0  0  0  0  0  0  0  0  0  0  0  0
  -22.2667   -8.2350   21.7092 C   0  0  0  0  0  0  0  0  0  0  0  0
  -27.0063  -20.4945   20.7485 C   0  0  0  0  0  0  0  0  0  0  0  0
  -22.1191   -6.1944   22.8653 C   0  0  0  0  0  0  0  0  0  0  0  0
  -23.2951   -4.3035   24.5457 C   0  0  0  0  0  0  0  0  0  0  0  0
  -21.5250   -5.8829   24.0882 C   0  0  0  0  0  0  0  0  0  0  0  0
  -27.5446  -19.7182   24.9539 C   0  0  0  0  0  0  0  0  0  0  0  0
  -24.5381  -11.6628   20.7149 C   0  0  0  0  0  0  0  0  0  0  0  0
  -25.2023  -13.7210   20.3174 C   0  0  0  0  0  0  0  0  0  0  0  0
  -22.8085  -13.5426   21.0147 C   0  0  0  0  0  0  0  0  0  0  0  0
  -31.5991  -21.3528   17.9855 C   0  0  0  0  0  0  0  0  0  0  0  0
  -31.0423  -24.5374   18.2514 C   0  0  0  0  0  0  0  0  0  0  0  0
  -29.0464  -27.0409   19.4328 C   0  0  0  0  0  0  0  0  0  0  0  0
  -30.6673  -14.8033   20.6450 C   0  0  0  0  0  0  0  0  0  0  0  0
  -34.4531  -18.2871   15.0677 C   0  0  0  0  0  0  0  0  0  0  0  0
  -29.2105  -21.5139   17.1949 C   0  0  0  0  0  0  0  0  0  0  0  0
  -29.6409  -23.0218   19.7020 C   0  0  0  0  0  0  0  0  0  0  0  0
  -34.5252  -19.7441   15.5174 C   0  0  0  0  0  0  0  0  0  0  0  0
  -29.6481  -12.1888   18.4536 C   0  0  0  0  0  0  0  0  0  0  0  0
  -34.3186  -19.8483   17.0251 C   0  0  0  0  0  0  0  0  0  0  0  0
  -28.1943  -11.9253   18.8499 C   0  0  0  0  0  0  0  0  0  0  0  0
  -30.5101  -12.5331   19.6663 C   0  0  0  0  0  0  0  0  0  0  0  0
  -28.5452  -13.3776   20.8911 C   0  0  0  0  0  0  0  0  0  0  0  0
  -32.9340  -19.3280   17.4295 C   0  0  1  0  0  0  0  0  0  0  0  0
  -30.5141  -22.2565   17.4718 C   0  0  1  0  0  0  0  0  0  0  0  0
  -27.6251  -13.0810   19.6945 C   0  0  2  0  0  0  0  0  0  0  0  0
  -28.0823  -22.9794   32.3626 C   0  0  0  0  0  0  0  0  0  0  0  0
  -28.8704  -29.5425   19.5248 C   0  0  0  0  0  0  0  0  0  0  0  0
  -33.1986  -24.6073   20.4090 C   0  0  0  0  0  0  0  0  0  0  0  0
  -32.3282  -26.8483   21.1081 C   0  0  0  0  0  0  0  0  0  0  0  0
  -33.2559  -26.5328   18.8141 C   0  0  0  0  0  0  0  0  0  0  0  0
  -26.4820  -27.0308   17.9555 C   0  0  0  0  0  0  0  0  0  0  0  0
  -30.5453  -16.7528   24.2253 C   0  0  0  0  0  0  0  0  0  0  0  0
  -29.1604  -21.0081   26.4053 C   0  0  0  0  0  0  0  0  0  0  0  0
  -25.9046  -18.4375   23.4994 C   0  0  0  0  0  0  0  0  0  0  0  0
  -28.7209  -23.0899   30.9872 C   0  0  0  0  0  0  0  0  0  0  0  0
  -31.4289  -17.0287   22.9927 C   0  0  0  0  0  0  0  0  0  0  0  0
  -28.5705  -20.8588   27.8102 C   0  0  0  0  0  0  0  0  0  0  0  0
  -28.3512  -21.9007   30.1011 C   0  0  0  0  0  0  0  0  0  0  0  0
  -28.9678  -22.0323   28.7075 C   0  0  0  0  0  0  0  0  0  0  0  0
  -30.6679  -17.0639   21.6691 C   0  0  0  0  0  0  0  0  0  0  0  0
  -25.9090  -18.8115   22.0211 C   0  0  0  0  0  0  0  0  0  1  0  0
  -31.0102  -25.5255   19.3922 C   0  0  1  0  0  0  0  0  0  0  0  0
  -28.4862  -28.2832   18.7638 C   0  0  2  0  0  0  0  0  0  0  0  0
  -32.4310  -25.8558   19.9303 C   0  0  0  0  0  0  0  0  0  0  0  0
  -25.8207  -11.5385   20.3635 N   0  0  0  0  0  0  0  0  0  0  0  0
  -26.1967  -12.8070   20.1277 N   0  0  0  0  0  0  0  0  0  0  0  0
  -30.3545  -23.3323   18.4523 N   0  0  0  0  0  0  0  0  0  0  0  0
  -29.9158  -13.6375   20.4234 N   0  0  0  0  0  0  0  0  0  0  0  0
  -25.4093  -15.0410   20.1247 N   0  0  0  0  0  0  0  0  0  0  0  0
  -21.7870  -12.6611   21.3942 N   0  0  0  0  0  0  0  0  0  0  0  0
  -31.9170  -20.3137   17.1319 N   0  0  0  0  0  0  0  0  0  0  0  0
  -30.2705  -26.6856   18.9068 N   0  0  0  0  0  0  0  0  0  0  0  0
  -30.0270  -15.8037   21.3660 N   0  0  0  0  0  0  0  0  0  0  0  0
  -26.9993  -28.2096   18.6970 N   0  3  0  0  0  0  0  0  0  0  0  0
  -22.5640  -14.7708   20.9420 O   0  0  0  0  0  0  0  0  0  0  0  0
  -32.1109  -21.5822   19.0750 O   0  0  0  0  0  0  0  0  0  0  0  0
  -31.6491  -24.8272   17.2172 O   0  0  0  0  0  0  0  0  0  0  0  0
  -28.4588  -26.4475   20.3345 O   0  0  0  0  0  0  0  0  0  0  0  0
  -31.8214  -14.9444   20.2265 O   0  0  0  0  0  0  0  0  0  0  0  0
  -21.5361   -7.1323   22.0296 O   0  0  0  0  0  0  0  0  0  0  0  0
  -26.3047  -20.1742   21.8697 O   0  0  0  0  0  0  0  0  0  1  0  0
  -23.8590   -3.3945   25.3518 F   0  0  0  0  0  0  0  0  0  0  0  0
  -20.3887   -6.4878   24.4609 F   0  0  0  0  0  0  0  0  0  0  0  0
  -26.3308  -20.9176   25.2488 Cl  0  0  0  0  0  0  0  0  0  0  0  0
  1  2  1  0  0  0  0
  1  5  2  0  0  0  0
  2  6  2  0  0  0  0
  3  8  2  0  0  0  0
  3 17  1  0  0  0  0
  4  9  1  0  0  0  0
  4 17  2  0  0  0  0
  5 19  1  0  0  0  0
  6 21  1  0  0  0  0
  7 10  2  0  0  0  0
  7 20  1  0  0  0  0
  8 26  1  0  0  0  0
  9 26  2  0  0  0  0
 10 27  1  0  0  0  0
 11 12  2  0  0  0  0
 11 28  1  0  0  0  0
 12 29  1  0  0  0  0
 13 22  1  0  0  0  0
 13 27  2  0  0  0  0
 14 23  2  0  0  0  0
 14 24  1  0  0  0  0
 15 23  1  0  0  0  0
 15 25  2  0  0  0  0
 16 29  2  0  0  0  0
 16 30  1  0  0  0  0
 17 32  1  0  0  0  0
 18 32  1  0  0  0  0
 18 33  2  0  0  0  0
 18 34  1  0  0  0  0
 19 21  2  0  0  0  0
 19 39  1  0  0  0  0
 20 22  2  0  0  0  0
 20 40  1  0  0  0  0
 21 48  1  0  0  0  0
 22 41  1  0  0  0  0
 23 57  1  0  0  0  0
 24 31  2  0  0  0  0
 24 58  1  0  0  0  0
 25 31  1  0  0  0  0
 25 59  1  0  0  0  0
 26 85  1  0  0  0  0
 27 86  1  0  0  0  0
 28 30  2  0  0  0  0
 28 85  1  0  0  0  0
 29 87  1  0  0  0  0
 30 88  1  0  0  0  0
 31 89  1  0  0  0  0
 32 70  2  0  0  0  0
 33 71  1  0  0  0  0
 33 74  1  0  0  0  0
 34 75  1  0  0  0  0
 34 80  2  0  0  0  0
 35 49  1  0  0  0  0
 35 76  1  0  0  0  0
 35 81  2  0  0  0  0
 36 67  1  0  0  0  0
 36 72  1  0  0  0  0
 36 82  2  0  0  0  0
 37 68  1  0  0  0  0
 37 77  1  0  0  0  0
 37 83  2  0  0  0  0
 38 73  1  0  0  0  0
 38 78  1  0  0  0  0
 38 84  2  0  0  0  0
 39 42  1  0  0  0  0
 40 49  1  0  0  0  0
 41 72  1  0  0  0  0
 42 44  1  0  0  0  0
 43 45  1  0  0  0  0
 43 46  1  0  0  0  0
 44 48  1  0  0  0  0
 45 50  1  0  0  0  0
 46 73  1  0  0  0  0
 47 50  1  0  0  0  0
 47 73  1  0  0  0  0
 48 76  1  0  0  0  0
 49 72  1  0  0  0  0
 50 71  1  0  0  0  0
 51 60  1  0  0  0  0
 52 68  1  0  0  0  0
 53 69  1  0  0  0  0
 54 69  1  0  0  0  0
 55 69  1  0  0  0  0
 56 79  1  0  0  0  0
 57 61  1  0  0  0  0
 58 62  1  0  0  0  0
 59 66  1  0  0  0  0
 60 63  1  0  0  0  0
 61 65  1  0  0  0  0
 62 64  1  0  0  0  0
 63 64  1  0  0  0  0
 65 78  1  0  0  0  0
 66 86  1  0  0  0  0
 67 69  1  0  0  0  0
 67 77  1  0  0  0  0
 68 79  1  0  0  0  0
 70 71  1  0  0  0  0
M  CHG  1  79   1
M  ISO  4  38 100  66 101  78 100  86 101
M  END
> <Batch ID>
0032

> <Smiles>
CCCCCCc1cc(CCC[100NH:0][100C:0](=O)N2CCCC(n3nc(-c4ccc(Oc5ccc(F)cc5F)cc4)c(C(N)=O)c3N)C2)cc(C[101CH2:1][101O:1]c2ccc3c(c2)CN(C(=O)C(NC(=O)C(C)NC)C(C)(C)C)C(C(=O)NC2CCCc4ccccc42)C3)c1Cl

> <Shape>
0.264

> <Color>
0.212

> <Negative vol penalty>
0.000

$$$$

  -OEChem-04052316453D

 84 92  0     1  0  0  0  0  0999 V2000
  -19.2643  -27.2724   22.4665 C   0  0  0  0  0  0  0  0  0  0  0  0
  -20.3375  -27.2758   23.3503 C   0  0  0  0  0  0  0  0  0  0  0  0
  -26.6046  -12.8092   21.7098 C   0  0  0  0  0  0  0  0  0  0  0  0
  -26.0602  -14.0517   19.7106 C   0  0  0  0  0  0  0  0  0  0  0  0
  -18.6902  -26.0638   22.0779 C   0  0  0  0  0  0  0  0  0  0  0  0
  -20.8447  -26.0703   23.8365 C   0  0  0  0  0  0  0  0  0  0  0  0
  -25.2919  -20.1878   21.6289 C   0  0  0  0  0  0  0  0  0  0  0  0
  -25.3312  -12.2400   21.7028 C   0  0  0  0  0  0  0  0  0  0  0  0
  -24.7868  -13.4824   19.7035 C   0  0  0  0  0  0  0  0  0  0  0  0
  -25.4359  -19.6289   20.3597 C   0  0  0  0  0  0  0  0  0  0  0  0
  -23.7191   -9.7626   20.0607 C   0  0  0  0  0  0  0  0  0  0  0  0
  -23.6214   -8.3898   20.2877 C   0  0  0  0  0  0  0  0  0  0  0  0
  -25.4942  -21.8409   19.3990 C   0  0  0  0  0  0  0  0  0  0  0  0
  -28.8827  -21.4284   14.9687 C   0  0  0  0  0  0  0  0  0  0  0  0
  -29.1002  -19.7329   17.1734 C   0  0  0  0  0  0  0  0  0  0  0  0
  -22.2503   -8.8090   22.2323 C   0  0  0  0  0  0  0  0  0  0  0  0
  -26.9691  -13.7151   20.7137 C   0  0  0  0  0  0  0  0  0  0  0  0
  -29.4423  -13.8049   20.0950 C   0  0  0  0  0  0  0  0  0  0  0  0
  -19.1832  -24.8440   22.5699 C   0  0  0  0  0  0  0  0  0  0  0  0
  -25.2370  -21.5795   21.7917 C   0  0  0  0  0  0  0  0  0  0  0  0
  -20.2942  -24.8389   23.4376 C   0  0  0  0  0  0  0  0  0  0  0  0
  -25.3521  -22.4149   20.6715 C   0  0  0  0  0  0  0  0  0  0  0  0
  -29.9525  -21.5678   15.8528 C   0  0  0  0  0  0  0  0  0  0  0  0
  -27.9216  -20.4413   15.1870 C   0  0  0  0  0  0  0  0  0  0  0  0
  -30.0613  -20.7200   16.9551 C   0  0  0  0  0  0  0  0  0  0  0  0
  -28.0304  -19.5935   16.2892 C   0  0  0  0  0  0  0  0  0  0  0  0
  -24.4223  -12.5766   20.6997 C   0  0  0  0  0  0  0  0  0  0  0  0
  -25.5341  -20.4554   19.2442 C   0  0  0  0  0  0  0  0  0  0  0  0
  -23.0825  -10.6586   20.9196 C   0  0  0  0  0  0  0  0  0  0  0  0
  -22.8870   -7.9130   21.3735 C   0  0  0  0  0  0  0  0  0  0  0  0
  -22.3480  -10.1818   22.0053 C   0  0  0  0  0  0  0  0  0  0  0  0
  -28.2842  -14.3039   20.7207 C   0  0  0  0  0  0  0  0  0  0  0  0
  -30.4187  -14.7221   20.3982 C   0  0  0  0  0  0  0  0  0  0  0  0
  -29.6197  -12.6184   19.3099 C   0  0  0  0  0  0  0  0  0  0  0  0
  -23.0693  -23.6248   22.8972 C   0  0  0  0  0  0  0  0  0  0  0  0
  -25.4626  -25.7767   22.4922 C   0  0  0  0  0  0  0  0  0  0  0  0
  -28.3588  -26.6228   20.8976 C   0  0  0  0  0  0  0  0  0  0  0  0
  -30.2512  -20.5357   21.8210 C   0  0  0  0  0  0  0  0  0  0  0  0
  -18.5291  -23.5648   22.1102 C   0  0  0  0  0  0  0  0  0  0  0  0
  -25.1082  -22.1673   23.1703 C   0  0  0  0  0  0  0  0  0  0  0  0
  -25.3191  -23.9157   20.7947 C   0  0  0  0  0  0  0  0  0  0  0  0
  -18.8433  -22.3779   23.0151 C   0  0  0  0  0  0  0  0  0  0  0  0
  -31.6602  -17.8984   23.7538 C   0  0  0  0  0  0  0  0  0  0  0  0
  -20.3422  -22.2953   23.2622 C   0  0  0  0  0  0  0  0  0  0  0  0
  -31.0592  -16.6331   23.1392 C   0  0  0  0  0  0  0  0  0  0  0  0
  -30.6595  -19.0519   23.7621 C   0  0  0  0  0  0  0  0  0  0  0  0
  -29.4564  -18.0935   21.8366 C   0  0  0  0  0  0  0  0  0  0  0  0
  -20.8430  -23.5415   24.0033 C   0  0  1  0  0  0  0  0  0  0  0  0
  -24.5473  -23.5860   23.1649 C   0  0  1  0  0  0  0  0  0  0  0  0
  -30.4461  -16.9188   21.7551 C   0  0  2  0  0  0  0  0  0  0  0  0
  -30.9696  -22.6314   15.5984 C   0  0  0  0  0  0  0  0  0  0  0  0
  -26.7845  -20.3115   14.2274 C   0  0  0  0  0  0  0  0  0  0  0  0
  -30.4189  -27.9515   20.3610 C   0  0  0  0  0  0  0  0  0  0  0  0
  -23.5169  -27.4401   20.8316 C   0  0  0  0  0  0  0  0  0  0  0  0
  -25.4771  -28.7214   19.9460 C   0  0  0  0  0  0  0  0  0  0  0  0
  -24.9597  -28.7657   22.3858 C   0  0  0  0  0  0  0  0  0  0  0  0
  -29.9626  -25.1696   22.9162 C   0  0  0  0  0  0  0  0  0  0  0  0
  -31.1982  -20.8500   17.9148 C   0  0  0  0  0  0  0  0  0  0  0  0
  -27.0023  -18.5187   16.5464 C   0  0  0  0  0  0  0  0  0  0  0  0
  -31.0390  -21.9902   18.9387 C   0  0  0  0  0  0  0  0  0  0  0  0
  -29.7799  -21.8933   19.7976 C   0  0  0  0  0  0  0  0  0  0  0  0
  -26.3483  -18.6579   17.9168 C   0  0  0  0  0  0  0  0  0  1  0  0
  -25.9220  -26.6644   21.3608 C   0  0  1  0  0  0  0  0  0  0  0  0
  -29.6806  -27.1524   21.4236 C   0  0  2  0  0  0  0  0  0  0  0  0
  -24.9676  -27.8696   21.1282 C   0  0  0  0  0  0  0  0  0  0  0  0
  -28.5029  -15.4491   21.3723 N   0  0  0  0  0  0  0  0  0  0  0  0
  -29.8098  -15.6773   21.1578 N   0  0  0  0  0  0  0  0  0  0  0  0
  -25.1854  -24.4423   22.1630 N   0  0  0  0  0  0  0  0  0  0  0  0
  -30.1166  -19.2721   22.4195 N   0  0  0  0  0  0  0  0  0  0  0  0
  -31.7301  -14.7966   20.0866 N   0  0  0  0  0  0  0  0  0  0  0  0
  -28.5118  -11.7870   19.0958 N   0  0  0  0  0  0  0  0  0  0  0  0
  -22.2889  -23.5238   24.0331 N   0  0  0  0  0  0  0  0  0  0  0  0
  -27.2967  -27.0419   21.6706 N   0  0  0  0  0  0  0  0  0  0  0  0
  -29.7144  -20.6573   20.5452 N   0  0  0  0  0  0  0  0  0  0  0  0
  -30.5548  -26.0256   21.8562 N   0  3  0  0  0  0  0  0  0  0  0  0
  -30.7315  -12.2961   18.8266 O   0  0  0  0  0  0  0  0  0  0  0  0
  -22.6668  -23.7394   21.7454 O   0  0  0  0  0  0  0  0  0  0  0  0
  -25.3605  -26.2480   23.6275 O   0  0  0  0  0  0  0  0  0  0  0  0
  -28.2763  -25.9118   19.8985 O   0  0  0  0  0  0  0  0  0  0  0  0
  -30.8131  -21.4838   22.3800 O   0  0  0  0  0  0  0  0  0  0  0  0
  -23.1797  -12.0212   20.6924 O   0  0  0  0  0  0  0  0  0  0  0  0
  -25.6741  -19.9125   18.0042 O   0  0  0  0  0  0  0  0  0  1  0  0
  -22.7920   -6.5947   21.5905 F   0  0  0  0  0  0  0  0  0  0  0  0
  -21.7332  -11.0376   22.8332 F   0  0  0  0  0  0  0  0  0  0  0  0
  1  2  1  0  0  0  0
  1  5  2  0  0  0  0
  2  6  2  0  0  0  0
  3  8  2  0  0  0  0
  3 17  1  0  0  0  0
  4  9  1  0  0  0  0
  4 17  2  0  0  0  0
  5 19  1  0  0  0  0
  6 21  1  0  0  0  0
  7 10  2  0  0  0  0
  7 20  1  0  0  0  0
  8 27  1  0  0  0  0
  9 27  2  0  0  0  0
 10 28  1  0  0  0  0
 11 12  2  0  0  0  0
 11 29  1  0  0  0  0
 12 30  1  0  0  0  0
 13 22  1  0  0  0  0
 13 28  2  0  0  0  0
 14 23  2  0  0  0  0
 14 24  1  0  0  0  0
 15 25  2  0  0  0  0
 15 26  1  0  0  0  0
 16 30  2  0  0  0  0
 16 31  1  0  0  0  0
 17 32  1  0  0  0  0
 18 32  1  0  0  0  0
 18 33  2  0  0  0  0
 18 34  1  0  0  0  0
 19 21  2  0  0  0  0
 19 39  1  0  0  0  0
 20 22  2  0  0  0  0
 20 40  1  0  0  0  0
 21 48  1  0  0  0  0
 22 41  1  0  0  0  0
 23 25  1  0  0  0  0
 23 51  1  0  0  0  0
 24 26  2  0  0  0  0
 24 52  1  0  0  0  0
 25 58  1  0  0  0  0
 26 59  1  0  0  0  0
 27 81  1  0  0  0  0
 28 82  1  0  0  0  0
 29 31  2  0  0  0  0
 29 81  1  0  0  0  0
 30 83  1  0  0  0  0
 31 84  1  0  0  0  0
 32 66  2  0  0  0  0
 33 67  1  0  0  0  0
 33 70  1  0  0  0  0
 34 71  1  0  0  0  0
 34 76  2  0  0  0  0
 35 49  1  0  0  0  0
 35 72  1  0  0  0  0
 35 77  2  0  0  0  0
 36 63  1  0  0  0  0
 36 68  1  0  0  0  0
 36 78  2  0  0  0  0
 37 64  1  0  0  0  0
 37 73  1  0  0  0  0
 37 79  2  0  0  0  0
 38 69  1  0  0  0  0
 38 74  1  0  0  0  0
 38 80  2  0  0  0  0
 39 42  1  0  0  0  0
 40 49  1  0  0  0  0
 41 68  1  0  0  0  0
 42 44  1  0  0  0  0
 43 45  1  0  0  0  0
 43 46  1  0  0  0  0
 44 48  1  0  0  0  0
 45 50  1  0  0  0  0
 46 69  1  0  0  0  0
 47 50  1  0  0  0  0
 47 69  1  0  0  0  0
 48 72  1  0  0  0  0
 49 68  1  0  0  0  0
 50 67  1  0  0  0  0
 53 64  1  0  0  0  0
 54 65  1  0  0  0  0
 55 65  1  0  0  0  0
 56 65  1  0  0  0  0
 57 75  1  0  0  0  0
 58 60  1  0  0  0  0
 59 62  1  0  0  0  0
 60 61  1  0  0  0  0
 61 74  1  0  0  0  0
 62 82  1  0  0  0  0
 63 65  1  0  0  0  0
 63 73  1  0  0  0  0
 64 75  1  0  0  0  0
 66 67  1  0  0  0  0
M  CHG  1  75   1
M  ISO  4  38 100  62 101  74 100  82 101
M  END
> <Batch ID>
0032

> <Smiles>
CNC(C)C(=O)NC(C(=O)N1Cc2cc([101O:1][101CH2:1]Cc3cc(CCC[100NH:0][100C:0](=O)N4CCCC(n5nc(-c6ccc(Oc7ccc(F)cc7F)cc6)c(C(N)=O)c5N)C4)c(C)cc3C)ccc2CC1C(=O)NC1CCCc2ccccc21)C(C)(C)C

> <Shape>
0.217

> <Color>
0.062

> <Negative vol penalty>
0.000

$$$$

  -OEChem-04052316453D

 90 98  0     1  0  0  0  0  0999 V2000
  -22.1448   -8.4191   20.6060 C   0  0  0  0  0  0  0  0  0  0  0  0
  -22.2002   -9.7725   20.2885 C   0  0  0  0  0  0  0  0  0  0  0  0
  -28.5443  -26.5311   20.9425 C   0  0  0  0  0  0  0  0  0  0  0  0
  -26.9245  -25.3519   19.5924 C   0  0  0  0  0  0  0  0  0  0  0  0
  -23.0237   -7.8891   21.5497 C   0  0  0  0  0  0  0  0  0  0  0  0
  -23.1339  -10.5969   20.9154 C   0  0  0  0  0  0  0  0  0  0  0  0
  -25.4782  -13.6965   17.6687 C   0  0  0  0  0  0  0  0  0  0  0  0
  -29.3306  -25.3807   21.0041 C   0  0  0  0  0  0  0  0  0  0  0  0
  -27.7108  -24.2014   19.6539 C   0  0  0  0  0  0  0  0  0  0  0  0
  -24.7766  -14.8247   17.2460 C   0  0  0  0  0  0  0  0  0  0  0  0
  -28.3335  -21.7250   21.8699 C   0  0  0  0  0  0  0  0  0  0  0  0
  -27.6922  -20.5152   22.1354 C   0  0  0  0  0  0  0  0  0  0  0  0
  -25.9945  -16.1701   18.8353 C   0  0  0  0  0  0  0  0  0  0  0  0
  -21.1964  -17.9604   20.9339 C   0  0  0  0  0  0  0  0  0  0  0  0
  -22.8451  -19.4848   19.2784 C   0  0  0  0  0  0  0  0  0  0  0  0
  -28.4720  -19.6383   20.0235 C   0  0  0  0  0  0  0  0  0  0  0  0
  -27.3412  -26.5167   20.2368 C   0  0  0  0  0  0  0  0  0  0  0  0
  -26.5899  -28.7263   19.2067 C   0  0  0  0  0  0  0  0  0  0  0  0
  -23.9751   -8.7055   22.1814 C   0  0  0  0  0  0  0  0  0  0  0  0
  -26.4372  -13.7949   18.6871 C   0  0  0  0  0  0  0  0  0  0  0  0
  -24.0255  -10.0776   21.8694 C   0  0  0  0  0  0  0  0  0  0  0  0
  -26.7088  -15.0422   19.2672 C   0  0  0  0  0  0  0  0  0  0  0  0
  -21.2550  -17.6888   19.5670 C   0  0  0  0  0  0  0  0  0  0  0  0
  -21.9620  -18.9943   21.4731 C   0  0  0  0  0  0  0  0  0  0  0  0
  -22.0794  -18.4509   18.7393 C   0  0  0  0  0  0  0  0  0  0  0  0
  -28.9139  -24.2158   20.3598 C   0  0  0  0  0  0  0  0  0  0  0  0
  -25.0326  -16.0612   17.8313 C   0  0  0  0  0  0  0  0  0  0  0  0
  -29.0441  -21.8916   20.6812 C   0  0  0  0  0  0  0  0  0  0  0  0
  -27.7614  -19.4718   21.2122 C   0  0  0  0  0  0  0  0  0  0  0  0
  -29.1134  -20.8482   19.7580 C   0  0  0  0  0  0  0  0  0  0  0  0
  -22.7863  -19.7564   20.6453 C   0  0  0  0  0  0  0  0  0  0  0  0
  -26.5283  -27.7047   20.1733 C   0  0  0  0  0  0  0  0  0  0  0  0
  -25.6194  -29.6198   19.5892 C   0  0  0  0  0  0  0  0  0  0  0  0
  -27.4477  -28.8560   18.0652 C   0  0  0  0  0  0  0  0  0  0  0  0
  -26.7576  -12.5499   21.5942 C   0  0  0  0  0  0  0  0  0  0  0  0
  -29.6559  -14.0016   21.4719 C   0  0  0  0  0  0  0  0  0  0  0  0
  -31.6099  -16.4620   20.1395 C   0  0  0  0  0  0  0  0  0  0  0  0
  -20.5953  -29.0574   22.7974 C   0  0  0  0  0  0  0  0  0  0  0  0
  -24.8726   -8.0969   23.2296 C   0  0  0  0  0  0  0  0  0  0  0  0
  -27.2045  -12.5733   19.1131 C   0  0  0  0  0  0  0  0  0  0  0  0
  -27.7429  -15.2048   20.3502 C   0  0  0  0  0  0  0  0  0  0  0  0
  -26.0817   -8.9629   23.5736 C   0  0  0  0  0  0  0  0  0  0  0  0
  -23.3334  -31.2312   23.4710 C   0  0  0  0  0  0  0  0  0  0  0  0
  -25.6570  -10.4126   23.7856 C   0  0  0  0  0  0  0  0  0  0  0  0
  -24.4683  -30.6661   22.6150 C   0  0  0  0  0  0  0  0  0  0  0  0
  -22.4524  -30.1229   24.0432 C   0  0  0  0  0  0  0  0  0  0  0  0
  -23.0508  -28.6150   22.1879 C   0  0  0  0  0  0  0  0  0  0  0  0
  -25.0408  -10.9991   22.5098 C   0  0  1  0  0  0  0  0  0  0  0  0
  -27.7930  -12.6962   20.5152 C   0  0  1  0  0  0  0  0  0  0  0  0
  -23.9333  -29.6974   21.5432 C   0  0  2  0  0  0  0  0  0  0  0  0
  -20.4251  -16.5786   19.0108 C   0  0  0  0  0  0  0  0  0  0  0  0
  -33.9249  -17.4227   20.2630 C   0  0  0  0  0  0  0  0  0  0  0  0
  -28.9523  -15.3507   24.1167 C   0  0  0  0  0  0  0  0  0  0  0  0
  -30.8180  -16.9693   23.7073 C   0  0  0  0  0  0  0  0  0  0  0  0
  -31.3116  -14.5367   23.9559 C   0  0  0  0  0  0  0  0  0  0  0  0
  -32.1366  -15.8611   17.2899 C   0  0  0  0  0  0  0  0  0  0  0  0
  -21.8698  -19.2557   22.9559 C   0  0  0  0  0  0  0  0  0  0  0  0
  -22.1562  -18.1800   17.2725 C   0  0  0  0  0  0  0  0  0  0  0  0
  -21.0306  -20.4819   23.3373 C   0  0  0  0  0  0  0  0  0  0  0  0
  -19.5498  -20.4137   22.9443 C   0  0  0  0  0  0  0  0  0  0  0  0
  -18.7740  -21.6929   23.2669 C   0  0  0  0  0  0  0  0  0  0  0  0
  -19.3185  -22.9314   22.5457 C   0  0  0  0  0  0  0  0  0  0  0  0
  -18.5420  -24.2321   22.7785 C   0  0  0  0  0  0  0  0  0  0  0  0
  -19.0791  -25.4117   21.9652 C   0  0  0  0  0  0  0  0  0  0  0  0
  -18.3111  -26.7169   22.2067 C   0  0  0  0  0  0  0  0  0  0  0  0
  -18.8461  -27.9275   21.4472 C   0  0  0  0  0  0  0  0  0  0  0  0
  -23.0226  -16.9635   16.9360 C   0  0  0  0  0  0  0  0  0  1  0  0
  -30.1860  -15.3640   21.8486 C   0  0  1  0  0  0  0  0  0  0  0  0
  -33.0121  -16.4310   19.5587 C   0  0  2  0  0  0  0  0  0  0  0  0
  -30.2960  -15.5521   23.3881 C   0  0  0  0  0  0  0  0  0  0  0  0
  -25.5928  -27.9276   21.1002 N   0  0  0  0  0  0  0  0  0  0  0  0
  -25.0576  -29.0995   20.7178 N   0  0  0  0  0  0  0  0  0  0  0  0
  -28.4622  -13.9797   20.7368 N   0  0  0  0  0  0  0  0  0  0  0  0
  -21.9765  -29.2404   22.9752 N   0  0  0  0  0  0  0  0  0  0  0  0
  -25.2004  -30.7920   19.0668 N   0  0  0  0  0  0  0  0  0  0  0  0
  -28.3888  -27.8471   17.8185 N   0  0  0  0  0  0  0  0  0  0  0  0
  -26.0774  -11.3476   21.5619 N   0  0  0  0  0  0  0  0  0  0  0  0
  -31.4488  -15.5222   21.1355 N   0  0  0  0  0  0  0  0  0  0  0  0
  -20.2296  -28.2101   21.7586 N   0  0  0  0  0  0  0  0  0  0  0  0
  -32.9795  -16.7707   18.1080 N   0  3  0  0  0  0  0  0  0  0  0  0
  -27.3926  -29.8455   17.2962 O   0  0  0  0  0  0  0  0  0  0  0  0
  -26.5894  -13.4599   22.3975 O   0  0  0  0  0  0  0  0  0  0  0  0
  -30.2818  -12.9942   21.8109 O   0  0  0  0  0  0  0  0  0  0  0  0
  -30.7453  -17.2443   19.7512 O   0  0  0  0  0  0  0  0  0  0  0  0
  -19.7504  -29.6124   23.5081 O   0  0  0  0  0  0  0  0  0  0  0  0
  -29.6810  -23.0931   20.4194 O   0  0  0  0  0  0  0  0  0  0  0  0
  -24.3439  -17.1717   17.4182 O   0  0  0  0  0  0  0  0  0  1  0  0
  -27.1468  -18.3095   21.4680 F   0  0  0  0  0  0  0  0  0  0  0  0
  -29.7955  -21.0019   18.6148 F   0  0  0  0  0  0  0  0  0  0  0  0
  -23.7477  -21.0436   21.2765 Cl  0  0  0  0  0  0  0  0  0  0  0  0
  1  2  1  0  0  0  0
  1  5  2  0  0  0  0
  2  6  2  0  0  0  0
  3  8  2  0  0  0  0
  3 17  1  0  0  0  0
  4  9  1  0  0  0  0
  4 17  2  0  0  0  0
  5 19  1  0  0  0  0
  6 21  1  0  0  0  0
  7 10  2  0  0  0  0
  7 20  1  0  0  0  0
  8 26  1  0  0  0  0
  9 26  2  0  0  0  0
 10 27  1  0  0  0  0
 11 12  2  0  0  0  0
 11 28  1  0  0  0  0
 12 29  1  0  0  0  0
 13 22  1  0  0  0  0
 13 27  2  0  0  0  0
 14 23  1  0  0  0  0
 14 24  2  0  0  0  0
 15 25  1  0  0  0  0
 15 31  2  0  0  0  0
 16 29  2  0  0  0  0
 16 30  1  0  0  0  0
 17 32  1  0  0  0  0
 18 32  1  0  0  0  0
 18 33  2  0  0  0  0
 18 34  1  0  0  0  0
 19 21  2  0  0  0  0
 19 39  1  0  0  0  0
 20 22  2  0  0  0  0
 20 40  1  0  0  0  0
 21 48  1  0  0  0  0
 22 41  1  0  0  0  0
 23 25  2  0  0  0  0
 23 51  1  0  0  0  0
 24 31  1  0  0  0  0
 24 57  1  0  0  0  0
 25 58  1  0  0  0  0
 26 86  1  0  0  0  0
 27 87  1  0  0  0  0
 28 30  2  0  0  0  0
 28 86  1  0  0  0  0
 29 88  1  0  0  0  0
 30 89  1  0  0  0  0
 31 90  1  0  0  0  0
 32 71  2  0  0  0  0
 33 72  1  0  0  0  0
 33 75  1  0  0  0  0
 34 76  1  0  0  0  0
 34 81  2  0  0  0  0
 35 49  1  0  0  0  0
 35 77  1  0  0  0  0
 35 82  2  0  0  0  0
 36 68  1  0  0  0  0
 36 73  1  0  0  0  0
 36 83  2  0  0  0  0
 37 69  1  0  0  0  0
 37 78  1  0  0  0  0
 37 84  2  0  0  0  0
 38 74  1  0  0  0  0
 38 79  1  0  0  0  0
 38 85  2  0  0  0  0
 39 42  1  0  0  0  0
 40 49  1  0  0  0  0
 41 73  1  0  0  0  0
 42 44  1  0  0  0  0
 43 45  1  0  0  0  0
 43 46  1  0  0  0  0
 44 48  1  0  0  0  0
 45 50  1  0  0  0  0
 46 74  1  0  0  0  0
 47 50  1  0  0  0  0
 47 74  1  0  0  0  0
 48 77  1  0  0  0  0
 49 73  1  0  0  0  0
 50 72  1  0  0  0  0
 52 69  1  0  0  0  0
 53 70  1  0  0  0  0
 54 70  1  0  0  0  0
 55 70  1  0  0  0  0
 56 80  1  0  0  0  0
 57 59  1  0  0  0  0
 58 67  1  0  0  0  0
 59 60  1  0  0  0  0
 60 61  1  0  0  0  0
 61 62  1  0  0  0  0
 62 63  1  0  0  0  0
 63 64  1  0  0  0  0
 64 65  1  0  0  0  0
 65 66  1  0  0  0  0
 66 79  1  0  0  0  0
 67 87  1  0  0  0  0
 68 70  1  0  0  0  0
 68 78  1  0  0  0  0
 69 80  1  0  0  0  0
 71 72  1  0  0  0  0
M  CHG  1  80   1
M  ISO  4  38 100  67 101  79 100  87 101
M  END
> <Batch ID>
0032

> <Smiles>
CNC(C)C(=O)NC(C(=O)N1Cc2cc([101O:1][101CH2:1]Cc3cc(Cl)c(CCCCCCCCC[100NH:0][100C:0](=O)N4CCCC(n5nc(-c6ccc(Oc7ccc(F)cc7F)cc6)c(C(N)=O)c5N)C4)cc3C)ccc2CC1C(=O)NC1CCCc2ccccc21)C(C)(C)C

> <Shape>
0.263

> <Color>
0.052

> <Negative vol penalty>
0.000

$$$$

  -OEChem-04052316453D

 92101  0     1  0  0  0  0  0999 V2000
  -29.4852  -25.8401   16.0188 C   0  0  0  0  0  0  0  0  0  0  0  0
  -28.1294  -25.7900   16.3264 C   0  0  0  0  0  0  0  0  0  0  0  0
  -27.3520  -18.6458   16.9415 C   0  0  0  0  0  0  0  0  0  0  0  0
  -27.8412  -16.5211   15.9006 C   0  0  0  0  0  0  0  0  0  0  0  0
  -30.4034  -26.2486   16.9851 C   0  0  0  0  0  0  0  0  0  0  0  0
  -27.6911  -26.1473   17.6010 C   0  0  0  0  0  0  0  0  0  0  0  0
  -22.4412  -28.9553   19.0362 C   0  0  0  0  0  0  0  0  0  0  0  0
  -27.3722  -19.2632   15.6909 C   0  0  0  0  0  0  0  0  0  0  0  0
  -27.8614  -17.1385   14.6500 C   0  0  0  0  0  0  0  0  0  0  0  0
  -21.2177  -28.4756   19.5016 C   0  0  0  0  0  0  0  0  0  0  0  0
  -27.6509  -21.4620   12.8080 C   0  0  0  0  0  0  0  0  0  0  0  0
  -28.3372  -22.6707   12.6908 C   0  0  0  0  0  0  0  0  0  0  0  0
  -21.8905  -28.9720   21.7643 C   0  0  0  0  0  0  0  0  0  0  0  0
  -18.6823  -17.8774   20.9702 C   0  0  0  0  0  0  0  0  0  0  0  0
  -21.0967  -17.8409   20.8918 C   0  0  0  0  0  0  0  0  0  0  0  0
  -30.3798  -21.5773   13.3762 C   0  0  0  0  0  0  0  0  0  0  0  0
  -27.5866  -17.2748   17.0464 C   0  0  0  0  0  0  0  0  0  0  0  0
  -28.3926  -16.9237   19.4411 C   0  0  0  0  0  0  0  0  0  0  0  0
  -29.9752  -26.6204   18.2693 C   0  0  0  0  0  0  0  0  0  0  0  0
  -23.4045  -29.4377   19.9339 C   0  0  0  0  0  0  0  0  0  0  0  0
  -28.6046  -26.5599   18.5859 C   0  0  0  0  0  0  0  0  0  0  0  0
  -23.1245  -29.4597   21.3076 C   0  0  0  0  0  0  0  0  0  0  0  0
  -19.9396  -19.8595   21.5426 C   0  0  0  0  0  0  0  0  0  0  0  0
  -19.8728  -17.1924   20.7271 C   0  0  0  0  0  0  0  0  0  0  0  0
  -27.6269  -18.5096   14.5452 C   0  0  0  0  0  0  0  0  0  0  0  0
  -20.9433  -28.4812   20.8660 C   0  0  0  0  0  0  0  0  0  0  0  0
  -28.3290  -20.3110   13.2094 C   0  0  0  0  0  0  0  0  0  0  0  0
  -29.7016  -22.7283   12.9748 C   0  0  0  0  0  0  0  0  0  0  0  0
  -29.6934  -20.3687   13.4935 C   0  0  0  0  0  0  0  0  0  0  0  0
  -18.7157  -19.2109   21.3779 C   0  0  0  0  0  0  0  0  0  0  0  0
  -21.1301  -19.1745   21.2995 C   0  0  0  0  0  0  0  0  0  0  0  0
  -27.5664  -16.6365   18.3380 C   0  0  0  0  0  0  0  0  0  0  0  0
  -27.9794  -16.0493   20.4164 C   0  0  0  0  0  0  0  0  0  0  0  0
  -29.4399  -17.8940   19.5725 C   0  0  0  0  0  0  0  0  0  0  0  0
  -26.3680  -28.5919   20.7123 C   0  0  0  0  0  0  0  0  0  0  0  0
  -26.2601  -31.3054   22.4864 C   0  0  0  0  0  0  0  0  0  0  0  0
  -24.3637  -33.6252   24.1202 C   0  0  0  0  0  0  0  0  0  0  0  0
  -22.8053  -13.2074   21.4185 C   0  0  0  0  0  0  0  0  0  0  0  0
  -31.0099  -27.0100   19.2951 C   0  0  0  0  0  0  0  0  0  0  0  0
  -24.7090  -29.9765   19.4137 C   0  0  0  0  0  0  0  0  0  0  0  0
  -24.1169  -29.9858   22.3110 C   0  0  0  0  0  0  0  0  0  0  0  0
  -30.4249  -27.7308   20.5069 C   0  0  0  0  0  0  0  0  0  0  0  0
  -26.0122  -11.7244   20.9787 C   0  0  0  0  0  0  0  0  0  0  0  0
  -19.3668  -21.4971   23.3866 C   0  0  0  0  0  0  0  0  0  0  0  0
  -19.2999  -22.2392   20.9609 C   0  0  0  0  0  0  0  0  0  0  0  0
  -29.1878  -26.9988   21.0176 C   0  0  0  0  0  0  0  0  0  0  0  0
  -26.8487  -12.8410   20.3516 C   0  0  0  0  0  0  0  0  0  0  0  0
  -19.4159  -22.9584   23.8254 C   0  0  0  0  0  0  0  0  0  0  0  0
  -19.3498  -23.6965   21.4124 C   0  0  0  0  0  0  0  0  0  0  0  0
  -24.5708  -11.7481   20.4749 C   0  0  0  0  0  0  0  0  0  0  0  0
  -24.7203  -14.1613   19.9974 C   0  0  0  0  0  0  0  0  0  0  0  0
  -19.9759  -21.3108   21.9856 C   0  0  0  0  0  0  0  0  0  0  0  0
  -28.0878  -26.9634   19.9498 C   0  0  1  0  0  0  0  0  0  0  0  0
  -25.8189  -29.9676   20.4603 C   0  0  1  0  0  0  0  0  0  0  0  0
  -26.1672  -14.2127   20.5172 C   0  0  2  0  0  0  0  0  0  0  0  0
  -18.7481  -23.8774   22.8040 C   0  0  0  0  0  0  0  0  0  0  0  0
  -24.5606  -35.7058   25.5092 C   0  0  0  0  0  0  0  0  0  0  0  0
  -27.1001  -29.6202   24.8873 C   0  0  0  0  0  0  0  0  0  0  0  0
  -26.3656  -31.4966   26.3731 C   0  0  0  0  0  0  0  0  0  0  0  0
  -28.2159  -31.8534   24.7386 C   0  0  0  0  0  0  0  0  0  0  0  0
  -22.8547  -35.2280   22.1421 C   0  0  0  0  0  0  0  0  0  0  0  0
  -19.8371  -15.7668   20.2905 C   0  0  0  0  0  0  0  0  0  0  0  0
  -19.8595  -14.7453   21.4447 C   0  0  0  0  0  0  0  0  0  0  0  0
  -18.1500  -27.5125   23.0582 C   0  0  0  0  0  0  0  0  0  0  0  0
  -21.1195  -14.7978   22.3061 C   0  0  0  0  0  0  0  0  0  0  0  0
  -19.5355  -28.0483   22.7333 C   0  0  0  0  0  0  0  0  0  1  0  0
  -17.9648  -26.0831   22.5736 C   0  0  0  0  0  0  0  0  0  0  0  0
  -25.8412  -31.6449   23.8964 C   0  0  1  0  0  0  0  0  0  0  0  0
  -24.3954  -35.1428   24.1062 C   0  0  2  0  0  0  0  0  0  0  0  0
  -26.8625  -31.1420   24.9554 C   0  0  0  0  0  0  0  0  0  0  0  0
  -26.6944  -15.6563   18.5883 N   0  0  0  0  0  0  0  0  0  0  0  0
  -26.9703  -15.3197   19.8598 N   0  0  0  0  0  0  0  0  0  0  0  0
  -25.3805  -30.4959   21.7536 N   0  0  0  0  0  0  0  0  0  0  0  0
  -23.9818  -13.0763   20.6623 N   0  0  0  0  0  0  0  0  0  0  0  0
  -28.3844  -15.8409   21.6872 N   0  0  0  0  0  0  0  0  0  0  0  0
  -29.7350  -18.7115   18.4729 N   0  0  0  0  0  0  0  0  0  0  0  0
  -27.4120  -28.2412   19.8777 N   0  0  0  0  0  0  0  0  0  0  0  0
  -25.6170  -33.0863   23.9198 N   0  0  0  0  0  0  0  0  0  0  0  0
  -22.3173  -14.5015   21.5523 N   0  0  0  0  0  0  0  0  0  0  0  0
  -23.1316  -35.6820   23.5293 N   0  3  0  0  0  0  0  0  0  0  0  0
  -30.1056  -18.0209   20.6280 O   0  0  0  0  0  0  0  0  0  0  0  0
  -25.8816  -27.9003   21.5994 O   0  0  0  0  0  0  0  0  0  0  0  0
  -27.3250  -31.7483   22.0486 O   0  0  0  0  0  0  0  0  0  0  0  0
  -23.3311  -32.9821   24.2954 O   0  0  0  0  0  0  0  0  0  0  0  0
  -22.2353  -12.2433   21.9405 O   0  0  0  0  0  0  0  0  0  0  0  0
  -27.6464  -19.1117   13.3246 O   0  0  0  0  0  0  0  0  0  0  0  0
  -19.7500  -28.0130   21.3230 O   0  0  0  0  0  0  0  0  0  1  0  0
  -18.9179  -25.2344   23.1991 O   0  0  0  0  0  0  0  0  0  0  0  0
  -30.3609  -23.8887   12.8607 F   0  0  0  0  0  0  0  0  0  0  0  0
  -30.3505  -19.2660   13.8784 F   0  0  0  0  0  0  0  0  0  0  0  0
  -17.2182  -20.0212   21.6674 Cl  0  0  0  0  0  0  0  0  0  0  0  0
  -22.6669  -19.9391   21.4901 Cl  0  0  0  0  0  0  0  0  0  0  0  0
  1  2  1  0  0  0  0
  1  5  2  0  0  0  0
  2  6  2  0  0  0  0
  3  8  2  0  0  0  0
  3 17  1  0  0  0  0
  4  9  1  0  0  0  0
  4 17  2  0  0  0  0
  5 19  1  0  0  0  0
  6 21  1  0  0  0  0
  7 10  2  0  0  0  0
  7 20  1  0  0  0  0
  8 25  1  0  0  0  0
  9 25  2  0  0  0  0
 10 26  1  0  0  0  0
 11 12  2  0  0  0  0
 11 27  1  0  0  0  0
 12 28  1  0  0  0  0
 13 22  1  0  0  0  0
 13 26  2  0  0  0  0
 14 24  1  0  0  0  0
 14 30  2  0  0  0  0
 15 24  2  0  0  0  0
 15 31  1  0  0  0  0
 16 28  2  0  0  0  0
 16 29  1  0  0  0  0
 17 32  1  0  0  0  0
 18 32  1  0  0  0  0
 18 33  2  0  0  0  0
 18 34  1  0  0  0  0
 19 21  2  0  0  0  0
 19 39  1  0  0  0  0
 20 22  2  0  0  0  0
 20 40  1  0  0  0  0
 21 53  1  0  0  0  0
 22 41  1  0  0  0  0
 23 30  1  0  0  0  0
 23 31  2  0  0  0  0
 23 52  1  0  0  0  0
 24 62  1  0  0  0  0
 25 86  1  0  0  0  0
 26 87  1  0  0  0  0
 27 29  2  0  0  0  0
 27 86  1  0  0  0  0
 28 89  1  0  0  0  0
 29 90  1  0  0  0  0
 30 91  1  0  0  0  0
 31 92  1  0  0  0  0
 32 71  2  0  0  0  0
 33 72  1  0  0  0  0
 33 75  1  0  0  0  0
 34 76  1  0  0  0  0
 34 81  2  0  0  0  0
 35 54  1  0  0  0  0
 35 77  1  0  0  0  0
 35 82  2  0  0  0  0
 36 68  1  0  0  0  0
 36 73  1  0  0  0  0
 36 83  2  0  0  0  0
 37 69  1  0  0  0  0
 37 78  1  0  0  0  0
 37 84  2  0  0  0  0
 38 74  1  0  0  0  0
 38 79  1  0  0  0  0
 38 85  2  0  0  0  0
 39 42  1  0  0  0  0
 40 54  1  0  0  0  0
 41 73  1  0  0  0  0
 42 46  1  0  0  0  0
 43 47  1  0  0  0  0
 43 50  1  0  0  0  0
 44 48  1  0  0  0  0
 44 52  1  0  0  0  0
 45 49  1  0  0  0  0
 45 52  1  0  0  0  0
 46 53  1  0  0  0  0
 47 55  1  0  0  0  0
 48 56  1  0  0  0  0
 49 56  1  0  0  0  0
 50 74  1  0  0  0  0
 51 55  1  0  0  0  0
 51 74  1  0  0  0  0
 53 77  1  0  0  0  0
 54 73  1  0  0  0  0
 55 72  1  0  0  0  0
 56 88  1  0  0  0  0
 57 69  1  0  0  0  0
 58 70  1  0  0  0  0
 59 70  1  0  0  0  0
 60 70  1  0  0  0  0
 61 80  1  0  0  0  0
 62 63  1  0  0  0  0
 63 65  1  0  0  0  0
 64 66  1  0  0  0  0
 64 67  1  0  0  0  0
 65 79  1  0  0  0  0
 66 87  1  0  0  0  0
 67 88  1  0  0  0  0
 68 70  1  0  0  0  0
 68 78  1  0  0  0  0
 69 80  1  0  0  0  0
 71 72  1  0  0  0  0
M  CHG  1  80   1
M  ISO  4  38 100  66 101  79 100  87 101
M  END
> <Batch ID>
0032

> <Smiles>
CNC(C)C(=O)NC(C(=O)N1Cc2cc([101O:1][101CH2:1]CCOC3CCC(c4c(Cl)cc(CCC[100NH:0][100C:0](=O)N5CCCC(n6nc(-c7ccc(Oc8ccc(F)cc8F)cc7)c(C(N)=O)c6N)C5)cc4Cl)CC3)ccc2CC1C(=O)NC1CCCc2ccccc21)C(C)(C)C

> <Shape>
0.275

> <Color>
0.072

> <Negative vol penalty>
0.000

$$$$

  -OEChem-04052316453D

 82 90  0     1  0  0  0  0  0999 V2000
  -17.2039  -26.7304   22.0942 C   0  0  0  0  0  0  0  0  0  0  0  0
  -18.4553  -26.1456   22.2596 C   0  0  0  0  0  0  0  0  0  0  0  0
  -21.9671  -10.2023   20.6241 C   0  0  0  0  0  0  0  0  0  0  0  0
  -23.8175   -9.6337   22.0697 C   0  0  0  0  0  0  0  0  0  0  0  0
  -17.1035  -28.0343   21.6107 C   0  0  0  0  0  0  0  0  0  0  0  0
  -19.6071  -26.8640   21.9407 C   0  0  0  0  0  0  0  0  0  0  0  0
  -25.0272  -26.5796   24.7775 C   0  0  0  0  0  0  0  0  0  0  0  0
  -21.5840   -8.8616   20.5871 C   0  0  0  0  0  0  0  0  0  0  0  0
  -23.4343   -8.2930   22.0328 C   0  0  0  0  0  0  0  0  0  0  0  0
  -26.2051  -25.8942   24.4833 C   0  0  0  0  0  0  0  0  0  0  0  0
  -22.7319   -4.7730   22.6112 C   0  0  0  0  0  0  0  0  0  0  0  0
  -22.7158   -4.0690   23.8152 C   0  0  0  0  0  0  0  0  0  0  0  0
  -27.0774  -27.8681   23.4055 C   0  0  0  0  0  0  0  0  0  0  0  0
  -21.0901   -5.6213   24.7011 C   0  0  0  0  0  0  0  0  0  0  0  0
  -31.3065  -19.6760   21.5597 C   0  0  0  0  0  0  0  0  0  0  0  0
  -23.0839  -10.5883   21.3653 C   0  0  0  0  0  0  0  0  0  0  0  0
  -23.0622  -12.9521   22.3243 C   0  0  0  0  0  0  0  0  0  0  0  0
  -18.2550  -28.7725   21.2949 C   0  0  0  0  0  0  0  0  0  0  0  0
  -24.8610  -27.9134   24.3777 C   0  0  0  0  0  0  0  0  0  0  0  0
  -19.5219  -28.1785   21.4513 C   0  0  0  0  0  0  0  0  0  0  0  0
  -25.8975  -28.5690   23.6981 C   0  0  0  0  0  0  0  0  0  0  0  0
  -29.9418  -18.4931   20.2151 C   0  0  0  0  0  0  0  0  0  0  0  0
  -22.3175   -7.9070   21.2915 C   0  0  0  0  0  0  0  0  0  0  0  0
  -27.2293  -26.5375   23.7946 C   0  0  0  0  0  0  0  0  0  0  0  0
  -21.9272   -5.9012   22.4521 C   0  0  0  0  0  0  0  0  0  0  0  0
  -21.8949   -4.4931   24.8602 C   0  0  0  0  0  0  0  0  0  0  0  0
  -21.1063   -6.3254   23.4971 C   0  0  0  0  0  0  0  0  0  0  0  0
  -31.0201  -18.3993   21.1292 C   0  0  0  0  0  0  0  0  0  0  0  0
  -23.4805  -11.9730   21.4034 C   0  0  0  0  0  0  0  0  0  0  0  0
  -29.6022  -19.8242   20.1147 C   0  0  0  0  0  0  0  0  0  0  0  0
  -23.7189  -14.0935   21.9340 C   0  0  0  0  0  0  0  0  0  0  0  0
  -22.1605  -12.8399   23.4334 C   0  0  0  0  0  0  0  0  0  0  0  0
  -22.8451  -29.4442   22.4550 C   0  0  0  0  0  0  0  0  0  0  0  0
  -28.3809  -16.5771   20.3926 C   0  0  0  0  0  0  0  0  0  0  0  0
  -24.3671  -32.0726   23.5939 C   0  0  0  0  0  0  0  0  0  0  0  0
  -27.1706  -33.4137   25.0042 C   0  0  0  0  0  0  0  0  0  0  0  0
  -18.0944  -30.1619   20.7307 C   0  0  0  0  0  0  0  0  0  0  0  0
  -23.5950  -28.6470   24.7262 C   0  0  0  0  0  0  0  0  0  0  0  0
  -25.7769  -30.0064   23.2645 C   0  0  0  0  0  0  0  0  0  0  0  0
  -19.3778  -30.9876   20.7706 C   0  0  0  0  0  0  0  0  0  0  0  0
  -26.3517  -15.1215   17.7486 C   0  0  0  0  0  0  0  0  0  0  0  0
  -20.5569  -30.1664   20.2585 C   0  0  0  0  0  0  0  0  0  0  0  0
  -25.4055  -14.2261   18.5474 C   0  0  0  0  0  0  0  0  0  0  0  0
  -27.7428  -15.1682   18.3753 C   0  0  0  0  0  0  0  0  0  0  0  0
  -26.7977  -14.6885   20.6115 C   0  0  0  0  0  0  0  0  0  0  0  0
  -20.7954  -28.9344   21.1399 C   0  0  1  0  0  0  0  0  0  0  0  0
  -23.3298  -29.8450   23.8196 C   0  0  1  0  0  0  0  0  0  0  0  0
  -25.3752  -14.6384   20.0295 C   0  0  2  0  0  0  0  0  0  0  0  0
  -28.5534  -20.4829   19.3074 C   0  0  0  0  0  0  0  0  0  0  0  0
  -28.1324  -35.5967   25.7833 C   0  0  0  0  0  0  0  0  0  0  0  0
  -24.8754  -32.8802   20.6957 C   0  0  0  0  0  0  0  0  0  0  0  0
  -26.6050  -34.4913   21.5210 C   0  0  0  0  0  0  0  0  0  0  0  0
  -24.2215  -34.7646   22.2044 C   0  0  0  0  0  0  0  0  0  0  0  0
  -27.4315  -32.4388   27.7864 C   0  0  0  0  0  0  0  0  0  0  0  0
  -29.2927  -17.3763   19.4961 C   0  0  0  0  0  0  0  0  0  0  0  0
  -29.3145  -22.5151   22.0782 C   0  0  0  0  0  0  0  0  0  0  0  0
  -29.3735  -24.0201   22.3445 C   0  0  0  0  0  0  0  0  0  0  0  0
  -30.4221  -22.0285   21.1368 C   0  0  0  0  0  0  0  0  0  0  0  0
  -28.2814  -24.4604   23.3100 C   0  0  0  0  0  0  0  0  0  1  0  0
  -25.5809  -32.8688   23.1793 C   0  0  1  0  0  0  0  0  0  0  0  0
  -27.3548  -34.3524   26.1830 C   0  0  2  0  0  0  0  0  0  0  0  0
  -25.3225  -33.7235   21.9064 C   0  0  0  0  0  0  0  0  0  0  0  0
  -24.3367  -12.4507   20.4963 N   0  0  0  0  0  0  0  0  0  0  0  0
  -30.4386  -20.5340   20.9362 N   0  0  0  0  0  0  0  0  0  0  0  0
  -24.4616  -13.7425   20.8453 N   0  0  0  0  0  0  0  0  0  0  0  0
  -24.5173  -30.6789   23.6231 N   0  0  0  0  0  0  0  0  0  0  0  0
  -27.6684  -15.5378   19.7938 N   0  0  0  0  0  0  0  0  0  0  0  0
  -23.7278  -15.3532   22.4193 N   0  0  0  0  0  0  0  0  0  0  0  0
  -21.5734  -11.5942   23.6938 N   0  0  0  0  0  0  0  0  0  0  0  0
  -21.4729  -29.3108   22.3621 N   0  0  0  0  0  0  0  0  0  0  0  0
  -25.9795  -33.6443   24.3490 N   0  0  0  0  0  0  0  0  0  0  0  0
  -28.0955  -33.6674   27.2798 N   0  3  0  0  0  0  0  0  0  0  0  0
  -21.8711  -13.8192   24.1618 O   0  0  0  0  0  0  0  0  0  0  0  0
  -23.6560  -29.2703   21.5528 O   0  0  0  0  0  0  0  0  0  0  0  0
  -28.3033  -16.8711   21.5883 O   0  0  0  0  0  0  0  0  0  0  0  0
  -23.3264  -32.6658   23.8881 O   0  0  0  0  0  0  0  0  0  0  0  0
  -28.0020  -32.5637   24.6934 O   0  0  0  0  0  0  0  0  0  0  0  0
  -21.9438   -6.5987   21.2559 O   0  0  0  0  0  0  0  0  0  0  0  0
  -28.3797  -25.8705   23.5056 O   0  0  0  0  0  0  0  0  0  1  0  0
  -21.8783   -3.8160   26.0158 F   0  0  0  0  0  0  0  0  0  0  0  0
  -20.3302   -7.4078   23.3498 F   0  0  0  0  0  0  0  0  0  0  0  0
  -31.8066  -16.9692   21.6003 Cl  0  0  0  0  0  0  0  0  0  0  0  0
  1  2  1  0  0  0  0
  1  5  2  0  0  0  0
  2  6  2  0  0  0  0
  3  8  2  0  0  0  0
  3 16  1  0  0  0  0
  4  9  1  0  0  0  0
  4 16  2  0  0  0  0
  5 18  1  0  0  0  0
  6 20  1  0  0  0  0
  7 10  2  0  0  0  0
  7 19  1  0  0  0  0
  8 23  1  0  0  0  0
  9 23  2  0  0  0  0
 10 24  1  0  0  0  0
 11 12  2  0  0  0  0
 11 25  1  0  0  0  0
 12 26  1  0  0  0  0
 13 21  1  0  0  0  0
 13 24  2  0  0  0  0
 14 26  2  0  0  0  0
 14 27  1  0  0  0  0
 15 28  2  0  0  0  0
 15 64  1  0  0  0  0
 16 29  1  0  0  0  0
 17 29  1  0  0  0  0
 17 31  2  0  0  0  0
 17 32  1  0  0  0  0
 18 20  2  0  0  0  0
 18 37  1  0  0  0  0
 19 21  2  0  0  0  0
 19 38  1  0  0  0  0
 20 46  1  0  0  0  0
 21 39  1  0  0  0  0
 22 28  1  0  0  0  0
 22 30  2  0  0  0  0
 22 55  1  0  0  0  0
 23 78  1  0  0  0  0
 24 79  1  0  0  0  0
 25 27  2  0  0  0  0
 25 78  1  0  0  0  0
 26 80  1  0  0  0  0
 27 81  1  0  0  0  0
 28 82  1  0  0  0  0
 29 63  2  0  0  0  0
 30 49  1  0  0  0  0
 30 64  1  0  0  0  0
 31 65  1  0  0  0  0
 31 68  1  0  0  0  0
 32 69  1  0  0  0  0
 32 73  2  0  0  0  0
 33 47  1  0  0  0  0
 33 70  1  0  0  0  0
 33 74  2  0  0  0  0
 34 55  1  0  0  0  0
 34 67  1  0  0  0  0
 34 75  2  0  0  0  0
 35 60  1  0  0  0  0
 35 66  1  0  0  0  0
 35 76  2  0  0  0  0
 36 61  1  0  0  0  0
 36 71  1  0  0  0  0
 36 77  2  0  0  0  0
 37 40  1  0  0  0  0
 38 47  1  0  0  0  0
 39 66  1  0  0  0  0
 40 42  1  0  0  0  0
 41 43  1  0  0  0  0
 41 44  1  0  0  0  0
 42 46  1  0  0  0  0
 43 48  1  0  0  0  0
 44 67  1  0  0  0  0
 45 48  1  0  0  0  0
 45 67  1  0  0  0  0
 46 70  1  0  0  0  0
 47 66  1  0  0  0  0
 48 65  1  0  0  0  0
 50 61  1  0  0  0  0
 51 62  1  0  0  0  0
 52 62  1  0  0  0  0
 53 62  1  0  0  0  0
 54 72  1  0  0  0  0
 56 57  1  0  0  0  0
 56 58  1  0  0  0  0
 57 59  1  0  0  0  0
 58 64  1  0  0  0  0
 59 79  1  0  0  0  0
 60 62  1  0  0  0  0
 60 71  1  0  0  0  0
 61 72  1  0  0  0  0
 63 65  1  0  0  0  0
M  CHG  1  72   1
M  ISO  4  34 100  55 100  59 101  79 101
M  END
> <Batch ID>
0032

> <Smiles>
CNC(C)C(=O)NC(C(=O)N1Cc2cc([101O:1][101CH2:1]CCCn3cc(Cl)c([100CH2:0][100C:0](=O)N4CCCC(n5nc(-c6ccc(Oc7ccc(F)cc7F)cc6)c(C(N)=O)c5N)C4)c3C)ccc2CC1C(=O)NC1CCCc2ccccc21)C(C)(C)C

> <Shape>
0.299

> <Color>
0.113

> <Negative vol penalty>
0.000

$$$$

  -OEChem-04052316453D

 90 98  0     1  0  0  0  0  0999 V2000
  -25.5040  -17.6617   15.6522 C   0  0  0  0  0  0  0  0  0  0  0  0
  -25.4061  -19.0425   15.7912 C   0  0  0  0  0  0  0  0  0  0  0  0
  -23.2956  -12.9309   20.3735 C   0  0  0  0  0  0  0  0  0  0  0  0
  -24.8447  -14.6334   21.1078 C   0  0  0  0  0  0  0  0  0  0  0  0
  -26.1490  -16.9076   16.6316 C   0  0  0  0  0  0  0  0  0  0  0  0
  -25.9522  -19.6699   16.9104 C   0  0  0  0  0  0  0  0  0  0  0  0
  -28.5614  -25.2065   17.1205 C   0  0  0  0  0  0  0  0  0  0  0  0
  -24.3368  -12.0040   20.3260 C   0  0  0  0  0  0  0  0  0  0  0  0
  -25.8859  -13.7064   21.0603 C   0  0  0  0  0  0  0  0  0  0  0  0
  -28.0808  -26.4557   17.5107 C   0  0  0  0  0  0  0  0  0  0  0  0
  -27.8578  -12.2932   18.7055 C   0  0  0  0  0  0  0  0  0  0  0  0
  -29.0564  -12.6946   18.1158 C   0  0  0  0  0  0  0  0  0  0  0  0
  -29.0263  -26.1272   19.7055 C   0  0  0  0  0  0  0  0  0  0  0  0
  -26.2529  -29.8437   21.3034 C   0  0  0  0  0  0  0  0  0  0  0  0
  -24.3377  -29.8056   19.8311 C   0  0  0  0  0  0  0  0  0  0  0  0
  -30.2171  -12.2822   20.1942 C   0  0  0  0  0  0  0  0  0  0  0  0
  -23.5495  -14.2457   20.7643 C   0  0  0  0  0  0  0  0  0  0  0  0
  -21.6401  -15.4902   21.9101 C   0  0  0  0  0  0  0  0  0  0  0  0
  -26.7117  -17.5271   17.7586 C   0  0  0  0  0  0  0  0  0  0  0  0
  -29.2698  -24.4022   18.0248 C   0  0  0  0  0  0  0  0  0  0  0  0
  -26.6041  -18.9232   17.9065 C   0  0  0  0  0  0  0  0  0  0  0  0
  -29.5170  -24.8693   19.3236 C   0  0  0  0  0  0  0  0  0  0  0  0
  -25.7132  -29.9388   20.0207 C   0  0  0  0  0  0  0  0  0  0  0  0
  -25.4171  -29.6153   22.3966 C   0  0  0  0  0  0  0  0  0  0  0  0
  -23.5019  -29.5772   20.9243 C   0  0  0  0  0  0  0  0  0  0  0  0
  -25.6319  -12.3917   20.6694 C   0  0  0  0  0  0  0  0  0  0  0  0
  -28.3107  -26.9150   18.8042 C   0  0  0  0  0  0  0  0  0  0  0  0
  -27.8388  -11.8864   20.0396 C   0  0  0  0  0  0  0  0  0  0  0  0
  -24.0416  -29.4821   22.2070 C   0  0  0  0  0  0  0  0  0  0  0  0
  -30.2361  -12.6890   18.8601 C   0  0  0  0  0  0  0  0  0  0  0  0
  -29.0184  -11.8808   20.7839 C   0  0  0  0  0  0  0  0  0  0  0  0
  -22.4745  -15.2038   20.8131 C   0  0  0  0  0  0  0  0  0  0  0  0
  -20.7890  -16.4646   21.4490 C   0  0  0  0  0  0  0  0  0  0  0  0
  -21.6348  -14.9259   23.2281 C   0  0  0  0  0  0  0  0  0  0  0  0
  -28.8078  -21.5338   19.3141 C   0  0  0  0  0  0  0  0  0  0  0  0
  -31.7798  -22.0261   20.5171 C   0  0  0  0  0  0  0  0  0  0  0  0
  -34.2032  -24.2475   21.4334 C   0  0  0  0  0  0  0  0  0  0  0  0
  -21.2459  -20.5515   17.0971 C   0  0  0  0  0  0  0  0  0  0  0  0
  -27.3577  -16.6651   18.8141 C   0  0  0  0  0  0  0  0  0  0  0  0
  -29.8047  -23.0686   17.5802 C   0  0  0  0  0  0  0  0  0  0  0  0
  -30.2897  -24.0530   20.3261 C   0  0  0  0  0  0  0  0  0  0  0  0
  -28.2377  -17.4479   19.7853 C   0  0  0  0  0  0  0  0  0  0  0  0
  -18.7369  -18.0471   17.4271 C   0  0  0  0  0  0  0  0  0  0  0  0
  -27.5168  -18.7035   20.2654 C   0  0  0  0  0  0  0  0  0  0  0  0
  -19.3350  -17.0602   18.4313 C   0  0  0  0  0  0  0  0  0  0  0  0
  -19.8042  -18.6271   16.5017 C   0  0  0  0  0  0  0  0  0  0  0  0
  -21.5545  -18.2505   18.1954 C   0  0  0  0  0  0  0  0  0  0  0  0
  -27.2056  -19.6430   19.0941 C   0  0  1  0  0  0  0  0  0  0  0  0
  -30.0695  -22.1141   18.7404 C   0  0  1  0  0  0  0  0  0  0  0  0
  -20.5253  -17.6812   19.1868 C   0  0  2  0  0  0  0  0  0  0  0  0
  -26.6885  -28.1698   24.0029 C   0  0  0  0  0  0  0  0  0  0  0  0
  -36.5087  -24.3522   22.4188 C   0  0  0  0  0  0  0  0  0  0  0  0
  -30.6235  -21.4373   23.2787 C   0  0  0  0  0  0  0  0  0  0  0  0
  -32.6746  -22.4661   24.2801 C   0  0  0  0  0  0  0  0  0  0  0  0
  -32.8725  -20.4297   22.8529 C   0  0  0  0  0  0  0  0  0  0  0  0
  -35.3033  -25.5517   19.0152 C   0  0  0  0  0  0  0  0  0  0  0  0
  -22.6947  -30.4074   23.9349 C   0  0  0  0  0  0  0  0  0  0  0  0
  -26.6175  -30.1854   18.8376 C   0  0  0  0  0  0  0  0  0  0  0  0
  -26.0136  -29.5168   23.7620 C   0  0  0  0  0  0  0  0  0  0  0  0
  -22.0319  -29.4377   20.7014 C   0  0  0  0  0  0  0  0  0  0  0  0
  -21.5258  -27.9837   20.7108 C   0  0  0  0  0  0  0  0  0  0  0  0
  -22.2318  -27.1049   19.6724 C   0  0  0  0  0  0  0  0  0  0  0  0
  -21.7839  -25.6405   19.7126 C   0  0  0  0  0  0  0  0  0  0  0  0
  -22.5407  -24.7468   18.7266 C   0  0  0  0  0  0  0  0  0  0  0  0
  -22.0338  -23.3020   18.7889 C   0  0  0  0  0  0  0  0  0  0  0  0
  -22.7590  -22.3856   17.8083 C   0  0  0  0  0  0  0  0  0  0  0  0
  -27.1229  -28.8890   18.2140 C   0  0  0  0  0  0  0  0  0  1  0  0
  -32.3343  -22.6520   21.7740 C   0  0  1  0  0  0  0  0  0  0  0  0
  -35.6914  -24.2934   21.1376 C   0  0  2  0  0  0  0  0  0  0  0  0
  -32.1100  -21.7611   23.0283 C   0  0  0  0  0  0  0  0  0  0  0  0
  -22.1801  -15.9369   19.7361 N   0  0  0  0  0  0  0  0  0  0  0  0
  -21.1511  -16.6935   20.1542 N   0  0  0  0  0  0  0  0  0  0  0  0
  -30.7866  -22.7531   19.8457 N   0  0  0  0  0  0  0  0  0  0  0  0
  -20.9039  -19.2016   17.2806 N   0  0  0  0  0  0  0  0  0  0  0  0
  -19.7737  -17.1394   22.0289 N   0  0  0  0  0  0  0  0  0  0  0  0
  -22.5774  -13.9349   23.5345 N   0  0  0  0  0  0  0  0  0  0  0  0
  -28.3938  -20.3681   18.6983 N   0  0  0  0  0  0  0  0  0  0  0  0
  -33.7348  -22.9521   21.4970 N   0  0  0  0  0  0  0  0  0  0  0  0
  -22.2954  -21.0179   17.8793 N   0  0  0  0  0  0  0  0  0  0  0  0
  -36.0194  -25.4923   20.3155 N   0  3  0  0  0  0  0  0  0  0  0  0
  -20.8077  -15.2779   24.1031 O   0  0  0  0  0  0  0  0  0  0  0  0
  -28.2519  -22.1009   20.2475 O   0  0  0  0  0  0  0  0  0  0  0  0
  -32.2171  -20.9357   20.1408 O   0  0  0  0  0  0  0  0  0  0  0  0
  -33.5248  -25.2594   21.5957 O   0  0  0  0  0  0  0  0  0  0  0  0
  -20.6560  -21.2881   16.2993 O   0  0  0  0  0  0  0  0  0  0  0  0
  -26.6481  -11.4874   20.6234 O   0  0  0  0  0  0  0  0  0  0  0  0
  -23.2244  -29.2596   23.2761 O   0  0  0  0  0  0  0  0  0  0  0  0
  -27.8421  -28.1337   19.1879 O   0  0  0  0  0  0  0  0  0  1  0  0
  -31.3873  -13.0730   18.2932 F   0  0  0  0  0  0  0  0  0  0  0  0
  -29.0066  -11.4899   22.0657 F   0  0  0  0  0  0  0  0  0  0  0  0
  1  2  1  0  0  0  0
  1  5  2  0  0  0  0
  2  6  2  0  0  0  0
  3  8  2  0  0  0  0
  3 17  1  0  0  0  0
  4  9  1  0  0  0  0
  4 17  2  0  0  0  0
  5 19  1  0  0  0  0
  6 21  1  0  0  0  0
  7 10  2  0  0  0  0
  7 20  1  0  0  0  0
  8 26  1  0  0  0  0
  9 26  2  0  0  0  0
 10 27  1  0  0  0  0
 11 12  2  0  0  0  0
 11 28  1  0  0  0  0
 12 30  1  0  0  0  0
 13 22  1  0  0  0  0
 13 27  2  0  0  0  0
 14 23  2  0  0  0  0
 14 24  1  0  0  0  0
 15 23  1  0  0  0  0
 15 25  2  0  0  0  0
 16 30  2  0  0  0  0
 16 31  1  0  0  0  0
 17 32  1  0  0  0  0
 18 32  1  0  0  0  0
 18 33  2  0  0  0  0
 18 34  1  0  0  0  0
 19 21  2  0  0  0  0
 19 39  1  0  0  0  0
 20 22  2  0  0  0  0
 20 40  1  0  0  0  0
 21 48  1  0  0  0  0
 22 41  1  0  0  0  0
 23 58  1  0  0  0  0
 24 29  2  0  0  0  0
 24 59  1  0  0  0  0
 25 29  1  0  0  0  0
 25 60  1  0  0  0  0
 26 86  1  0  0  0  0
 27 88  1  0  0  0  0
 28 31  2  0  0  0  0
 28 86  1  0  0  0  0
 29 87  1  0  0  0  0
 30 89  1  0  0  0  0
 31 90  1  0  0  0  0
 32 71  2  0  0  0  0
 33 72  1  0  0  0  0
 33 75  1  0  0  0  0
 34 76  1  0  0  0  0
 34 81  2  0  0  0  0
 35 49  1  0  0  0  0
 35 77  1  0  0  0  0
 35 82  2  0  0  0  0
 36 68  1  0  0  0  0
 36 73  1  0  0  0  0
 36 83  2  0  0  0  0
 37 69  1  0  0  0  0
 37 78  1  0  0  0  0
 37 84  2  0  0  0  0
 38 74  1  0  0  0  0
 38 79  1  0  0  0  0
 38 85  2  0  0  0  0
 39 42  1  0  0  0  0
 40 49  1  0  0  0  0
 41 73  1  0  0  0  0
 42 44  1  0  0  0  0
 43 45  1  0  0  0  0
 43 46  1  0  0  0  0
 44 48  1  0  0  0  0
 45 50  1  0  0  0  0
 46 74  1  0  0  0  0
 47 50  1  0  0  0  0
 47 74  1  0  0  0  0
 48 77  1  0  0  0  0
 49 73  1  0  0  0  0
 50 72  1  0  0  0  0
 51 59  1  0  0  0  0
 52 69  1  0  0  0  0
 53 70  1  0  0  0  0
 54 70  1  0  0  0  0
 55 70  1  0  0  0  0
 56 80  1  0  0  0  0
 57 87  1  0  0  0  0
 58 67  1  0  0  0  0
 60 61  1  0  0  0  0
 61 62  1  0  0  0  0
 62 63  1  0  0  0  0
 63 64  1  0  0  0  0
 64 65  1  0  0  0  0
 65 66  1  0  0  0  0
 66 79  1  0  0  0  0
 67 88  1  0  0  0  0
 68 70  1  0  0  0  0
 68 78  1  0  0  0  0
 69 80  1  0  0  0  0
 71 72  1  0  0  0  0
M  CHG  1  80   1
M  ISO  4  38 100  67 101  79 100  88 101
M  END
> <Batch ID>
0032

> <Smiles>
CCc1cc(C[101CH2:1][101O:1]c2ccc3c(c2)CN(C(=O)C(NC(=O)C(C)NC)C(C)(C)C)C(C(=O)NC2CCCc4ccccc42)C3)cc(CCCCCCC[100NH:0][100C:0](=O)N2CCCC(n3nc(-c4ccc(Oc5ccc(F)cc5F)cc4)c(C(N)=O)c3N)C2)c1OC

> <Shape>
0.209

> <Color>
0.065

> <Negative vol penalty>
0.000

$$$$

  -OEChem-04052316453D

 87 96  0     1  0  0  0  0  0999 V2000
  -16.1363  -27.9765   24.7422 C   0  0  0  0  0  0  0  0  0  0  0  0
  -16.7913  -26.7494   24.7161 C   0  0  0  0  0  0  0  0  0  0  0  0
  -23.2859   -9.7030   19.9270 C   0  0  0  0  0  0  0  0  0  0  0  0
  -23.4909  -10.0117   22.3145 C   0  0  0  0  0  0  0  0  0  0  0  0
  -16.6342  -29.0471   24.0006 C   0  0  0  0  0  0  0  0  0  0  0  0
  -17.9441  -26.5919   23.9475 C   0  0  0  0  0  0  0  0  0  0  0  0
  -24.1768  -23.0611   23.8902 C   0  0  0  0  0  0  0  0  0  0  0  0
  -22.5284   -8.5516   20.1410 C   0  0  0  0  0  0  0  0  0  0  0  0
  -22.7333   -8.8603   22.5284 C   0  0  0  0  0  0  0  0  0  0  0  0
  -24.9399  -22.2365   23.0649 C   0  0  0  0  0  0  0  0  0  0  0  0
  -23.2147   -5.5143   22.4672 C   0  0  0  0  0  0  0  0  0  0  0  0
  -23.6673   -4.6100   23.4279 C   0  0  0  0  0  0  0  0  0  0  0  0
  -25.7530  -24.1782   21.8867 C   0  0  0  0  0  0  0  0  0  0  0  0
  -29.7286  -19.9608   19.1579 C   0  0  0  0  0  0  0  0  0  0  0  0
  -27.4993  -21.3076   18.1584 C   0  0  0  0  0  0  0  0  0  0  0  0
  -21.6122   -4.8962   24.6656 C   0  0  0  0  0  0  0  0  0  0  0  0
  -23.7673  -10.4331   21.0138 C   0  0  0  0  0  0  0  0  0  0  0  0
  -24.0752  -12.9412   20.6639 C   0  0  0  0  0  0  0  0  0  0  0  0
  -17.7990  -28.9053   23.2301 C   0  0  0  0  0  0  0  0  0  0  0  0
  -24.1876  -24.4521   23.7127 C   0  0  0  0  0  0  0  0  0  0  0  0
  -18.4572  -27.6612   23.1938 C   0  0  0  0  0  0  0  0  0  0  0  0
  -24.9910  -25.0185   22.7128 C   0  0  0  0  0  0  0  0  0  0  0  0
  -29.2573  -19.6743   17.8768 C   0  0  0  0  0  0  0  0  0  0  0  0
  -27.9707  -21.5941   19.4395 C   0  0  0  0  0  0  0  0  0  0  0  0
  -22.2520   -8.1302   21.4416 C   0  0  0  0  0  0  0  0  0  0  0  0
  -25.7260  -22.7947   22.0610 C   0  0  0  0  0  0  0  0  0  0  0  0
  -21.9609   -6.1097   22.6057 C   0  0  0  0  0  0  0  0  0  0  0  0
  -22.8661   -4.3009   24.5270 C   0  0  0  0  0  0  0  0  0  0  0  0
  -21.1597   -5.8006   23.7049 C   0  0  0  0  0  0  0  0  0  0  0  0
  -28.1426  -20.3477   17.3770 C   0  0  0  0  0  0  0  0  0  0  0  0
  -29.0853  -20.9207   19.9393 C   0  0  0  0  0  0  0  0  0  0  0  0
  -24.5504  -11.6224   20.7935 C   0  0  0  0  0  0  0  0  0  0  0  0
  -25.2062  -13.6961   20.4701 C   0  0  0  0  0  0  0  0  0  0  0  0
  -22.7317  -13.4393   20.7144 C   0  0  0  0  0  0  0  0  0  0  0  0
  -29.2508  -17.3037   17.0033 C   0  0  0  0  0  0  0  0  0  0  0  0
  -22.0001  -26.6358   22.9710 C   0  0  0  0  0  0  0  0  0  0  0  0
  -24.4272  -28.7040   23.5657 C   0  0  0  0  0  0  0  0  0  0  0  0
  -27.7915  -29.2470   23.7497 C   0  0  0  0  0  0  0  0  0  0  0  0
  -30.1364  -14.5216   18.0701 C   0  0  0  0  0  0  0  0  0  0  0  0
  -18.2726  -30.0776   22.4078 C   0  0  0  0  0  0  0  0  0  0  0  0
  -23.3794  -25.3298   24.6287 C   0  0  0  0  0  0  0  0  0  0  0  0
  -25.0533  -26.5073   22.4942 C   0  0  0  0  0  0  0  0  0  0  0  0
  -19.7103  -29.9348   21.9150 C   0  0  0  0  0  0  0  0  0  0  0  0
  -29.2903  -14.6291   14.5662 C   0  0  0  0  0  0  0  0  0  0  0  0
  -30.0884  -12.5207   20.9513 C   0  0  0  0  0  0  0  0  0  0  0  0
  -19.9387  -28.5444   21.3308 C   0  0  0  0  0  0  0  0  0  0  0  0
  -29.4493  -16.1250   14.8072 C   0  0  0  0  0  0  0  0  0  0  0  0
  -28.6106  -12.1941   21.1548 C   0  0  0  0  0  0  0  0  0  0  0  0
  -30.4479  -12.5081   19.4711 C   0  0  0  0  0  0  0  0  0  0  0  0
  -28.8349  -14.1080   15.9192 C   0  0  0  0  0  0  0  0  0  0  0  0
  -28.1398  -13.1496   18.8415 C   0  0  0  0  0  0  0  0  0  0  0  0
  -19.7243  -27.4581   22.3917 C   0  0  1  0  0  0  0  0  0  0  0  0
  -29.9403  -16.2108   16.2496 C   0  0  2  0  0  0  0  0  0  0  0  0
  -23.0683  -26.6963   24.0259 C   0  0  1  0  0  0  0  0  0  0  0  0
  -27.7235  -13.1381   20.3267 C   0  0  1  0  0  0  0  0  0  0  0  0
  -29.4731  -31.0486   24.2225 C   0  0  0  0  0  0  0  0  0  0  0  0
  -23.9152  -29.9026   20.8068 C   0  0  0  0  0  0  0  0  0  0  0  0
  -26.1593  -31.0039   20.9455 C   0  0  0  0  0  0  0  0  0  0  0  0
  -24.3851  -31.5794   22.6019 C   0  0  0  0  0  0  0  0  0  0  0  0
  -28.8989  -27.7677   26.0614 C   0  0  0  0  0  0  0  0  0  0  0  0
  -29.9805  -18.6319   17.0656 C   0  0  0  0  0  0  0  0  0  0  0  0
  -27.2535  -22.6285   20.2459 C   0  0  0  0  0  0  0  0  0  1  0  0
  -25.5267  -29.3278   22.7404 C   0  0  1  0  0  0  0  0  0  0  0  0
  -28.6474  -29.9150   24.8106 C   0  0  2  0  0  0  0  0  0  0  0  0
  -24.9941  -30.4252   21.7763 C   0  0  0  0  0  0  0  0  0  0  0  0
  -25.8796  -11.5407   20.6904 N   0  0  0  0  0  0  0  0  0  0  0  0
  -26.2493  -12.8177   20.4940 N   0  0  0  0  0  0  0  0  0  0  0  0
  -24.2403  -27.3230   23.4113 N   0  0  0  0  0  0  0  0  0  0  0  0
  -29.5809  -13.4005   18.7002 N   0  0  0  0  0  0  0  0  0  0  0  0
  -29.5426  -14.9533   16.8806 N   0  0  0  0  0  0  0  0  0  0  0  0
  -25.4002  -15.0189   20.2831 N   0  0  0  0  0  0  0  0  0  0  0  0
  -21.6882  -12.5269   20.9213 N   0  0  0  0  0  0  0  0  0  0  0  0
  -20.8718  -27.3756   23.2697 N   0  0  0  0  0  0  0  0  0  0  0  0
  -26.5302  -29.8006   23.6879 N   0  0  0  0  0  0  0  0  0  0  0  0
  -29.5776  -28.9255   25.4243 N   0  3  0  0  0  0  0  0  0  0  0  0
  -22.4632  -14.6553   20.5637 O   0  0  0  0  0  0  0  0  0  0  0  0
  -28.1569  -17.1122   17.5330 O   0  0  0  0  0  0  0  0  0  0  0  0
  -22.1863  -25.9685   21.9602 O   0  0  0  0  0  0  0  0  0  0  0  0
  -23.7635  -29.4146   24.3248 O   0  0  0  0  0  0  0  0  0  0  0  0
  -28.2020  -28.3286   23.0436 O   0  0  0  0  0  0  0  0  0  0  0  0
  -31.1286  -15.0970   18.5358 O   0  0  0  0  0  0  0  0  0  0  0  0
  -21.5126   -7.0067   21.6507 O   0  0  0  0  0  0  0  0  0  0  0  0
  -26.4767  -21.9862   21.2477 O   0  0  0  0  0  0  0  0  0  1  0  0
  -23.3002   -3.4312   25.4487 F   0  0  0  0  0  0  0  0  0  0  0  0
  -19.9537   -6.3685   23.8428 F   0  0  0  0  0  0  0  0  0  0  0  0
  -27.5324  -20.0203   15.7960 Cl  0  0  0  0  0  0  0  0  0  0  0  0
  -29.6967  -21.2488   21.5198 Cl  0  0  0  0  0  0  0  0  0  0  0  0
  1  2  1  0  0  0  0
  1  5  2  0  0  0  0
  2  6  2  0  0  0  0
  3  8  2  0  0  0  0
  3 17  1  0  0  0  0
  4  9  1  0  0  0  0
  4 17  2  0  0  0  0
  5 19  1  0  0  0  0
  6 21  1  0  0  0  0
  7 10  2  0  0  0  0
  7 20  1  0  0  0  0
  8 25  1  0  0  0  0
  9 25  2  0  0  0  0
 10 26  1  0  0  0  0
 11 12  2  0  0  0  0
 11 27  1  0  0  0  0
 12 28  1  0  0  0  0
 13 22  1  0  0  0  0
 13 26  2  0  0  0  0
 14 23  2  0  0  0  0
 14 31  1  0  0  0  0
 15 24  1  0  0  0  0
 15 30  2  0  0  0  0
 16 28  2  0  0  0  0
 16 29  1  0  0  0  0
 17 32  1  0  0  0  0
 18 32  1  0  0  0  0
 18 33  2  0  0  0  0
 18 34  1  0  0  0  0
 19 21  2  0  0  0  0
 19 40  1  0  0  0  0
 20 22  2  0  0  0  0
 20 41  1  0  0  0  0
 21 52  1  0  0  0  0
 22 42  1  0  0  0  0
 23 30  1  0  0  0  0
 23 61  1  0  0  0  0
 24 31  2  0  0  0  0
 24 62  1  0  0  0  0
 25 82  1  0  0  0  0
 26 83  1  0  0  0  0
 27 29  2  0  0  0  0
 27 82  1  0  0  0  0
 28 84  1  0  0  0  0
 29 85  1  0  0  0  0
 30 86  1  0  0  0  0
 31 87  1  0  0  0  0
 32 66  2  0  0  0  0
 33 67  1  0  0  0  0
 33 71  1  0  0  0  0
 34 72  1  0  0  0  0
 34 76  2  0  0  0  0
 35 53  1  0  0  0  0
 35 61  1  0  0  0  0
 35 77  2  0  0  0  0
 36 54  1  0  0  0  0
 36 73  1  0  0  0  0
 36 78  2  0  0  0  0
 37 63  1  0  0  0  0
 37 68  1  0  0  0  0
 37 79  2  0  0  0  0
 38 64  1  0  0  0  0
 38 74  1  0  0  0  0
 38 80  2  0  0  0  0
 39 69  1  0  0  0  0
 39 70  1  0  0  0  0
 39 81  2  0  0  0  0
 40 43  1  0  0  0  0
 41 54  1  0  0  0  0
 42 68  1  0  0  0  0
 43 46  1  0  0  0  0
 44 47  1  0  0  0  0
 44 50  1  0  0  0  0
 45 48  1  0  0  0  0
 45 49  1  0  0  0  0
 46 52  1  0  0  0  0
 47 53  1  0  0  0  0
 48 55  1  0  0  0  0
 49 69  1  0  0  0  0
 50 70  1  0  0  0  0
 51 55  1  0  0  0  0
 51 69  1  0  0  0  0
 52 73  1  0  0  0  0
 53 70  1  0  0  0  0
 54 68  1  0  0  0  0
 55 67  1  0  0  0  0
 56 64  1  0  0  0  0
 57 65  1  0  0  0  0
 58 65  1  0  0  0  0
 59 65  1  0  0  0  0
 60 75  1  0  0  0  0
 62 83  1  0  0  0  0
 63 65  1  0  0  0  0
 63 74  1  0  0  0  0
 64 75  1  0  0  0  0
 66 67  1  0  0  0  0
M  CHG  1  75   1
M  ISO  4  39 100  62 101  70 100  83 101
M  END
> <Batch ID>
0032

> <Smiles>
CNC(C)C(=O)NC(C(=O)N1Cc2cc([101O:1][101CH2:1]c3cc(Cl)c(CC(=O)C4CCC[100N:0]4[100C:0](=O)N4CCCC(n5nc(-c6ccc(Oc7ccc(F)cc7F)cc6)c(C(N)=O)c5N)C4)cc3Cl)ccc2CC1C(=O)NC1CCCc2ccccc21)C(C)(C)C

> <Shape>
0.291

> <Color>
0.197

> <Negative vol penalty>
0.000

$$$$

  -OEChem-04052316453D

 80 88  0     1  0  0  0  0  0999 V2000
  -20.5265  -20.4511   22.7388 C   0  0  0  0  0  0  0  0  0  0  0  0
  -21.8644  -20.7890   22.9087 C   0  0  0  0  0  0  0  0  0  0  0  0
  -26.8912  -13.6610   20.8446 C   0  0  0  0  0  0  0  0  0  0  0  0
  -24.5554  -13.9902   20.3223 C   0  0  0  0  0  0  0  0  0  0  0  0
  -19.6866  -21.2909   22.0104 C   0  0  0  0  0  0  0  0  0  0  0  0
  -22.3600  -21.9724   22.3603 C   0  0  0  0  0  0  0  0  0  0  0  0
  -28.0277  -24.2053   22.2225 C   0  0  0  0  0  0  0  0  0  0  0  0
  -26.7342  -12.2849   20.6796 C   0  0  0  0  0  0  0  0  0  0  0  0
  -24.3984  -12.6141   20.1573 C   0  0  0  0  0  0  0  0  0  0  0  0
  -29.1308  -24.1610   21.3710 C   0  0  0  0  0  0  0  0  0  0  0  0
  -24.0360   -9.8935   22.1317 C   0  0  0  0  0  0  0  0  0  0  0  0
  -22.9192   -9.2942   22.7141 C   0  0  0  0  0  0  0  0  0  0  0  0
  -28.4686  -26.2736   20.4131 C   0  0  0  0  0  0  0  0  0  0  0  0
  -29.9922  -23.1212   16.2001 C   0  0  0  0  0  0  0  0  0  0  0  0
  -22.1796   -8.5556   20.5359 C   0  0  0  0  0  0  0  0  0  0  0  0
  -31.4220  -22.6071   17.8618 C   0  0  0  0  0  0  0  0  0  0  0  0
  -25.8018  -14.5137   20.6660 C   0  0  0  0  0  0  0  0  0  0  0  0
  -26.3778  -16.6100   22.0008 C   0  0  0  0  0  0  0  0  0  0  0  0
  -20.1759  -22.4788   21.4426 C   0  0  0  0  0  0  0  0  0  0  0  0
  -27.1293  -25.2806   22.1680 C   0  0  0  0  0  0  0  0  0  0  0  0
  -21.5225  -22.8450   21.6421 C   0  0  0  0  0  0  0  0  0  0  0  0
  -27.3563  -26.3304   21.2667 C   0  0  0  0  0  0  0  0  0  0  0  0
  -30.8928  -23.6615   17.1509 C   0  0  0  0  0  0  0  0  0  0  0  0
  -25.4878  -11.7614   20.3360 C   0  0  0  0  0  0  0  0  0  0  0  0
  -29.3498  -25.1938   20.4641 C   0  0  0  0  0  0  0  0  0  0  0  0
  -24.2246   -9.8239   20.7513 C   0  0  0  0  0  0  0  0  0  0  0  0
  -21.9910   -8.6252   21.9163 C   0  0  0  0  0  0  0  0  0  0  0  0
  -23.2964   -9.1549   19.9535 C   0  0  0  0  0  0  0  0  0  0  0  0
  -25.9632  -15.9353   20.8368 C   0  0  0  0  0  0  0  0  0  0  0  0
  -29.9984  -21.7529   16.3590 C   0  0  0  0  0  0  0  0  0  0  0  0
  -26.3693  -17.9377   21.6494 C   0  0  0  0  0  0  0  0  0  0  0  0
  -26.7384  -16.0835   23.2847 C   0  0  0  0  0  0  0  0  0  0  0  0
  -24.0365  -25.5879   21.5018 C   0  0  0  0  0  0  0  0  0  0  0  0
  -24.5461  -28.6611   22.4062 C   0  0  0  0  0  0  0  0  0  0  0  0
  -26.7526  -31.2315   22.8199 C   0  0  0  0  0  0  0  0  0  0  0  0
  -26.8874  -20.7696   16.3994 C   0  0  0  0  0  0  0  0  0  0  0  0
  -19.2211  -23.3547   20.6703 C   0  0  0  0  0  0  0  0  0  0  0  0
  -25.9589  -25.3265   23.1117 C   0  0  0  0  0  0  0  0  0  0  0  0
  -26.4328  -27.5172   21.1826 C   0  0  0  0  0  0  0  0  0  0  0  0
  -19.9320  -24.3505   19.7597 C   0  0  0  0  0  0  0  0  0  0  0  0
  -24.1895  -21.0192   18.7093 C   0  0  0  0  0  0  0  0  0  0  0  0
  -21.0129  -25.0862   20.5374 C   0  0  0  0  0  0  0  0  0  0  0  0
  -24.3756  -19.8054   19.6215 C   0  0  0  0  0  0  0  0  0  0  0  0
  -24.5670  -20.7020   17.2640 C   0  0  0  0  0  0  0  0  0  0  0  0
  -26.1024  -18.9199   17.9990 C   0  0  0  0  0  0  0  0  0  0  0  0
  -22.0910  -24.1119   21.0288 C   0  0  1  0  0  0  0  0  0  0  0  0
  -24.8252  -26.2181   22.6146 C   0  0  1  0  0  0  0  0  0  0  0  0
  -25.7876  -19.2067   19.4772 C   0  0  2  0  0  0  0  0  0  0  0  0
  -27.5868  -33.4964   23.5067 C   0  0  0  0  0  0  0  0  0  0  0  0
  -23.3354  -29.5153   19.7389 C   0  0  0  0  0  0  0  0  0  0  0  0
  -24.3273  -31.7862   20.0953 C   0  0  0  0  0  0  0  0  0  0  0  0
  -22.6307  -30.9029   21.6964 C   0  0  0  0  0  0  0  0  0  0  0  0
  -31.1759  -20.1253   17.8617 C   0  0  0  0  0  0  0  0  0  0  0  0
  -27.4363  -30.2833   25.5389 C   0  0  0  0  0  0  0  0  0  0  0  0
  -31.2143  -25.1229   17.3492 C   0  0  0  0  0  0  0  0  0  0  0  0
  -29.2463  -20.7105   15.6304 C   0  0  0  0  0  0  0  0  0  0  0  0
  -30.2880  -25.7883   18.3612 C   0  0  0  0  0  0  0  0  0  1  0  0
  -24.9635  -29.9282   21.6997 C   0  0  1  0  0  0  0  0  0  0  0  0
  -26.9854  -32.1823   23.9802 C   0  0  2  0  0  0  0  0  0  0  0  0
  -23.8307  -30.5100   20.8076 C   0  0  0  0  0  0  0  0  0  0  0  0
  -25.7097  -16.7659   19.8220 N   0  0  0  0  0  0  0  0  0  0  0  0
  -30.8709  -21.4518   17.3721 N   0  0  0  0  0  0  0  0  0  0  0  0
  -25.9655  -17.9762   20.3472 N   0  0  0  0  0  0  0  0  0  0  0  0
  -25.2991  -27.5131   22.1219 N   0  0  0  0  0  0  0  0  0  0  0  0
  -25.9177  -20.1391   17.1964 N   0  0  0  0  0  0  0  0  0  0  0  0
  -26.6678  -19.0645   22.3304 N   0  0  0  0  0  0  0  0  0  0  0  0
  -25.7334  -15.9275   24.2491 N   0  0  0  0  0  0  0  0  0  0  0  0
  -22.9800  -24.8082   21.9325 N   0  0  0  0  0  0  0  0  0  0  0  0
  -25.4334  -30.8388   22.7382 N   0  0  0  0  0  0  0  0  0  0  0  0
  -28.1432  -20.1748   16.3965 N   0  0  0  0  0  0  0  0  0  0  0  0
  -27.9141  -31.5710   24.9726 N   0  3  0  0  0  0  0  0  0  0  0  0
  -27.9197  -15.7765   23.5739 O   0  0  0  0  0  0  0  0  0  0  0  0
  -24.3613  -25.7949   20.3385 O   0  0  0  0  0  0  0  0  0  0  0  0
  -23.5917  -28.6905   23.1872 O   0  0  0  0  0  0  0  0  0  0  0  0
  -27.6505  -30.8759   22.0598 O   0  0  0  0  0  0  0  0  0  0  0  0
  -26.6530  -21.7903   15.7435 O   0  0  0  0  0  0  0  0  0  0  0  0
  -25.3342  -10.4187   20.1747 O   0  0  0  0  0  0  0  0  0  0  0  0
  -30.4254  -25.1527   19.6315 O   0  0  0  0  0  0  0  0  0  1  0  0
  -20.9195   -8.0485   22.4759 F   0  0  0  0  0  0  0  0  0  0  0  0
  -23.4728   -9.0836   18.6270 F   0  0  0  0  0  0  0  0  0  0  0  0
  1  2  1  0  0  0  0
  1  5  2  0  0  0  0
  2  6  2  0  0  0  0
  3  8  2  0  0  0  0
  3 17  1  0  0  0  0
  4  9  1  0  0  0  0
  4 17  2  0  0  0  0
  5 19  1  0  0  0  0
  6 21  1  0  0  0  0
  7 10  2  0  0  0  0
  7 20  1  0  0  0  0
  8 24  1  0  0  0  0
  9 24  2  0  0  0  0
 10 25  1  0  0  0  0
 11 12  2  0  0  0  0
 11 26  1  0  0  0  0
 12 27  1  0  0  0  0
 13 22  1  0  0  0  0
 13 25  2  0  0  0  0
 14 23  1  0  0  0  0
 14 30  2  0  0  0  0
 15 27  2  0  0  0  0
 15 28  1  0  0  0  0
 16 23  2  0  0  0  0
 16 62  1  0  0  0  0
 17 29  1  0  0  0  0
 18 29  1  0  0  0  0
 18 31  2  0  0  0  0
 18 32  1  0  0  0  0
 19 21  2  0  0  0  0
 19 37  1  0  0  0  0
 20 22  2  0  0  0  0
 20 38  1  0  0  0  0
 21 46  1  0  0  0  0
 22 39  1  0  0  0  0
 23 55  1  0  0  0  0
 24 77  1  0  0  0  0
 25 78  1  0  0  0  0
 26 28  2  0  0  0  0
 26 77  1  0  0  0  0
 27 79  1  0  0  0  0
 28 80  1  0  0  0  0
 29 61  2  0  0  0  0
 30 56  1  0  0  0  0
 30 62  1  0  0  0  0
 31 63  1  0  0  0  0
 31 66  1  0  0  0  0
 32 67  1  0  0  0  0
 32 72  2  0  0  0  0
 33 47  1  0  0  0  0
 33 68  1  0  0  0  0
 33 73  2  0  0  0  0
 34 58  1  0  0  0  0
 34 64  1  0  0  0  0
 34 74  2  0  0  0  0
 35 59  1  0  0  0  0
 35 69  1  0  0  0  0
 35 75  2  0  0  0  0
 36 65  1  0  0  0  0
 36 70  1  0  0  0  0
 36 76  2  0  0  0  0
 37 40  1  0  0  0  0
 38 47  1  0  0  0  0
 39 64  1  0  0  0  0
 40 42  1  0  0  0  0
 41 43  1  0  0  0  0
 41 44  1  0  0  0  0
 42 46  1  0  0  0  0
 43 48  1  0  0  0  0
 44 65  1  0  0  0  0
 45 48  1  0  0  0  0
 45 65  1  0  0  0  0
 46 68  1  0  0  0  0
 47 64  1  0  0  0  0
 48 63  1  0  0  0  0
 49 59  1  0  0  0  0
 50 60  1  0  0  0  0
 51 60  1  0  0  0  0
 52 60  1  0  0  0  0
 53 62  1  0  0  0  0
 54 71  1  0  0  0  0
 55 57  1  0  0  0  0
 56 70  1  0  0  0  0
 57 78  1  0  0  0  0
 58 60  1  0  0  0  0
 58 69  1  0  0  0  0
 59 71  1  0  0  0  0
 61 63  1  0  0  0  0
M  CHG  1  71   1
M  ISO  4  36 100  57 101  70 100  78 101
M  END
> <Batch ID>
0032

> <Smiles>
CNC(C)C(=O)NC(C(=O)N1Cc2cc([101O:1][101CH2:1]Cc3cc(C[100NH:0][100C:0](=O)N4CCCC(n5nc(-c6ccc(Oc7ccc(F)cc7F)cc6)c(C(N)=O)c5N)C4)n(C)c3)ccc2CC1C(=O)NC1CCCc2ccccc21)C(C)(C)C

> <Shape>
0.194

> <Color>
0.071

> <Negative vol penalty>
0.000

$$$$

  -OEChem-04052316453D

 83 91  0     1  0  0  0  0  0999 V2000
  -30.7098   -9.5185   29.4579 C   0  0  0  0  0  0  0  0  0  0  0  0
  -30.8748  -10.7999   28.9421 C   0  0  0  0  0  0  0  0  0  0  0  0
  -23.2884   -9.7995   19.9129 C   0  0  0  0  0  0  0  0  0  0  0  0
  -23.7391   -9.9398   22.2823 C   0  0  0  0  0  0  0  0  0  0  0  0
  -29.4277   -9.0160   29.6764 C   0  0  0  0  0  0  0  0  0  0  0  0
  -29.7578  -11.5793   28.6433 C   0  0  0  0  0  0  0  0  0  0  0  0
  -30.2281  -16.3523   30.2686 C   0  0  0  0  0  0  0  0  0  0  0  0
  -22.5621   -8.6269   20.1205 C   0  0  0  0  0  0  0  0  0  0  0  0
  -23.0127   -8.7673   22.4899 C   0  0  0  0  0  0  0  0  0  0  0  0
  -31.0208  -17.2093   29.5064 C   0  0  0  0  0  0  0  0  0  0  0  0
  -19.7657   -7.8560   22.7071 C   0  0  0  0  0  0  0  0  0  0  0  0
  -18.8634   -7.8342   23.7705 C   0  0  0  0  0  0  0  0  0  0  0  0
  -29.0361  -18.1390   28.4985 C   0  0  0  0  0  0  0  0  0  0  0  0
  -30.7873  -16.5688   25.1341 C   0  0  0  0  0  0  0  0  0  0  0  0
  -32.8219  -15.3341   23.6785 C   0  0  0  0  0  0  0  0  0  0  0  0
  -20.0692   -5.9869   24.7558 C   0  0  0  0  0  0  0  0  0  0  0  0
  -23.8770  -10.4559   20.9938 C   0  0  0  0  0  0  0  0  0  0  0  0
  -24.1362  -12.9860   20.7955 C   0  0  0  0  0  0  0  0  0  0  0  0
  -28.2945   -9.7932   29.3893 C   0  0  0  0  0  0  0  0  0  0  0  0
  -28.8315  -16.3747   30.1433 C   0  0  0  0  0  0  0  0  0  0  0  0
  -28.4593  -11.0862   28.8569 C   0  0  0  0  0  0  0  0  0  0  0  0
  -28.2278  -17.2830   29.2621 C   0  0  0  0  0  0  0  0  0  0  0  0
  -31.8873  -17.3115   24.7051 C   0  0  0  0  0  0  0  0  0  0  0  0
  -31.7219  -14.5915   24.1076 C   0  0  0  0  0  0  0  0  0  0  0  0
  -22.4242   -8.1108   21.4090 C   0  0  0  0  0  0  0  0  0  0  0  0
  -30.4250  -18.1008   28.6190 C   0  0  0  0  0  0  0  0  0  0  0  0
  -20.8198   -6.9433   22.6680 C   0  0  0  0  0  0  0  0  0  0  0  0
  -19.0151   -6.8997   24.7948 C   0  0  0  0  0  0  0  0  0  0  0  0
  -20.9716   -6.0087   23.6923 C   0  0  0  0  0  0  0  0  0  0  0  0
  -32.9046  -16.6942   23.9772 C   0  0  0  0  0  0  0  0  0  0  0  0
  -30.7046  -15.2088   24.8355 C   0  0  0  0  0  0  0  0  0  0  0  0
  -24.6278  -11.6669   20.7799 C   0  0  0  0  0  0  0  0  0  0  0  0
  -25.2377  -13.7660   20.5406 C   0  0  0  0  0  0  0  0  0  0  0  0
  -22.8032  -13.4635   21.0203 C   0  0  0  0  0  0  0  0  0  0  0  0
  -26.6269  -14.2723   29.2362 C   0  0  0  0  0  0  0  0  0  0  0  0
  -24.5766  -16.6036   30.1764 C   0  0  0  0  0  0  0  0  0  0  0  0
  -24.0339  -19.9218   30.7610 C   0  0  0  0  0  0  0  0  0  0  0  0
  -31.1087  -12.9231   21.3602 C   0  0  0  0  0  0  0  0  0  0  0  0
  -26.9283   -9.1894   29.5978 C   0  0  0  0  0  0  0  0  0  0  0  0
  -27.9892  -15.4624   30.9922 C   0  0  0  0  0  0  0  0  0  0  0  0
  -26.7318  -17.3607   29.1053 C   0  0  0  0  0  0  0  0  0  0  0  0
  -25.8019  -10.2196   29.6065 C   0  0  0  0  0  0  0  0  0  0  0  0
  -29.4598  -13.6628   18.2925 C   0  0  0  0  0  0  0  0  0  0  0  0
  -25.9571  -11.1901   28.4399 C   0  0  0  0  0  0  0  0  0  0  0  0
  -27.9901  -13.3542   18.5836 C   0  0  0  0  0  0  0  0  0  0  0  0
  -30.3931  -12.6834   19.0008 C   0  0  0  0  0  0  0  0  0  0  0  0
  -28.7065  -12.2537   20.7456 C   0  0  0  0  0  0  0  0  0  0  0  0
  -27.2726  -11.9714   28.5436 C   0  0  1  0  0  0  0  0  0  0  0  0
  -26.6024  -15.2134   30.4072 C   0  0  1  0  0  0  0  0  0  0  0  0
  -27.7285  -13.2490   20.0981 C   0  0  2  0  0  0  0  0  0  0  0  0
  -22.2472  -21.5278   31.4860 C   0  0  0  0  0  0  0  0  0  0  0  0
  -23.2800  -16.4007   27.4219 C   0  0  0  0  0  0  0  0  0  0  0  0
  -22.1800  -18.6079   27.8540 C   0  0  0  0  0  0  0  0  0  0  0  0
  -21.6684  -16.6536   29.3174 C   0  0  0  0  0  0  0  0  0  0  0  0
  -25.5937  -20.7686   33.1293 C   0  0  0  0  0  0  0  0  0  0  0  0
  -31.9380  -18.7788   25.0484 C   0  0  0  0  0  0  0  0  0  0  0  0
  -31.6705  -13.1366   23.7681 C   0  0  0  0  0  0  0  0  0  0  0  0
  -32.8991  -19.1110   26.1919 C   0  0  0  0  0  0  0  0  0  0  0  0
  -32.4999  -18.4773   27.5195 C   0  0  0  0  0  0  0  0  0  1  0  0
  -23.9212  -17.7858   29.5043 C   0  0  1  0  0  0  0  0  0  0  0  0
  -23.4031  -20.6477   31.9355 C   0  0  2  0  0  0  0  0  0  0  0  0
  -22.7907  -17.3594   28.5257 C   0  0  0  0  0  0  0  0  0  0  0  0
  -25.9394  -11.6084   20.5344 N   0  0  0  0  0  0  0  0  0  0  0  0
  -26.2813  -12.9004   20.3933 N   0  0  0  0  0  0  0  0  0  0  0  0
  -25.9515  -16.4438   29.9526 N   0  0  0  0  0  0  0  0  0  0  0  0
  -30.0938  -12.6318   20.4338 N   0  0  0  0  0  0  0  0  0  0  0  0
  -25.4056  -15.1009   20.4304 N   0  0  0  0  0  0  0  0  0  0  0  0
  -21.7906  -12.5265   21.2677 N   0  0  0  0  0  0  0  0  0  0  0  0
  -27.1564  -13.0290   29.5246 N   0  0  0  0  0  0  0  0  0  0  0  0
  -23.4809  -18.6723   30.5761 N   0  0  0  0  0  0  0  0  0  0  0  0
  -30.7390  -12.8574   22.6980 N   0  0  0  0  0  0  0  0  0  0  0  0
  -24.4123  -21.5081   32.6153 N   0  3  0  0  0  0  0  0  0  0  0  0
  -22.5152  -14.6839   20.9862 O   0  0  0  0  0  0  0  0  0  0  0  0
  -26.1958  -14.6459   28.1516 O   0  0  0  0  0  0  0  0  0  0  0  0
  -23.8953  -15.8537   30.8800 O   0  0  0  0  0  0  0  0  0  0  0  0
  -24.9253  -20.4154   30.0738 O   0  0  0  0  0  0  0  0  0  0  0  0
  -32.2577  -13.2250   21.0201 O   0  0  0  0  0  0  0  0  0  0  0  0
  -21.7153   -6.9668   21.6120 O   0  0  0  0  0  0  0  0  0  0  0  0
  -31.1964  -18.9379   27.8734 O   0  0  0  0  0  0  0  0  0  1  0  0
  -18.1494   -6.8798   25.8168 F   0  0  0  0  0  0  0  0  0  0  0  0
  -21.9829   -5.1301   23.6608 F   0  0  0  0  0  0  0  0  0  0  0  0
  -34.2795  -17.5818   23.4289 Cl  0  0  0  0  0  0  0  0  0  0  0  0
  -29.3288  -14.3217   25.3829 Cl  0  0  0  0  0  0  0  0  0  0  0  0
  1  2  1  0  0  0  0
  1  5  2  0  0  0  0
  2  6  2  0  0  0  0
  3  8  2  0  0  0  0
  3 17  1  0  0  0  0
  4  9  1  0  0  0  0
  4 17  2  0  0  0  0
  5 19  1  0  0  0  0
  6 21  1  0  0  0  0
  7 10  2  0  0  0  0
  7 20  1  0  0  0  0
  8 25  1  0  0  0  0
  9 25  2  0  0  0  0
 10 26  1  0  0  0  0
 11 12  2  0  0  0  0
 11 27  1  0  0  0  0
 12 28  1  0  0  0  0
 13 22  1  0  0  0  0
 13 26  2  0  0  0  0
 14 23  1  0  0  0  0
 14 31  2  0  0  0  0
 15 24  2  0  0  0  0
 15 30  1  0  0  0  0
 16 28  2  0  0  0  0
 16 29  1  0  0  0  0
 17 32  1  0  0  0  0
 18 32  1  0  0  0  0
 18 33  2  0  0  0  0
 18 34  1  0  0  0  0
 19 21  2  0  0  0  0
 19 39  1  0  0  0  0
 20 22  2  0  0  0  0
 20 40  1  0  0  0  0
 21 48  1  0  0  0  0
 22 41  1  0  0  0  0
 23 30  2  0  0  0  0
 23 56  1  0  0  0  0
 24 31  1  0  0  0  0
 24 57  1  0  0  0  0
 25 78  1  0  0  0  0
 26 79  1  0  0  0  0
 27 29  2  0  0  0  0
 27 78  1  0  0  0  0
 28 80  1  0  0  0  0
 29 81  1  0  0  0  0
 30 82  1  0  0  0  0
 31 83  1  0  0  0  0
 32 63  2  0  0  0  0
 33 64  1  0  0  0  0
 33 67  1  0  0  0  0
 34 68  1  0  0  0  0
 34 73  2  0  0  0  0
 35 49  1  0  0  0  0
 35 69  1  0  0  0  0
 35 74  2  0  0  0  0
 36 60  1  0  0  0  0
 36 65  1  0  0  0  0
 36 75  2  0  0  0  0
 37 61  1  0  0  0  0
 37 70  1  0  0  0  0
 37 76  2  0  0  0  0
 38 66  1  0  0  0  0
 38 71  1  0  0  0  0
 38 77  2  0  0  0  0
 39 42  1  0  0  0  0
 40 49  1  0  0  0  0
 41 65  1  0  0  0  0
 42 44  1  0  0  0  0
 43 45  1  0  0  0  0
 43 46  1  0  0  0  0
 44 48  1  0  0  0  0
 45 50  1  0  0  0  0
 46 66  1  0  0  0  0
 47 50  1  0  0  0  0
 47 66  1  0  0  0  0
 48 69  1  0  0  0  0
 49 65  1  0  0  0  0
 50 64  1  0  0  0  0
 51 61  1  0  0  0  0
 52 62  1  0  0  0  0
 53 62  1  0  0  0  0
 54 62  1  0  0  0  0
 55 72  1  0  0  0  0
 56 58  1  0  0  0  0
 57 71  1  0  0  0  0
 58 59  1  0  0  0  0
 59 79  1  0  0  0  0
 60 62  1  0  0  0  0
 60 70  1  0  0  0  0
 61 72  1  0  0  0  0
 63 64  1  0  0  0  0
M  CHG  1  72   1
M  ISO  4  38 100  59 101  71 100  79 101
M  END
> <Batch ID>
0032

> <Smiles>
CNC(C)C(=O)NC(C(=O)N1Cc2cc([101O:1][101CH2:1]CCc3cc(Cl)c(C[100NH:0][100C:0](=O)N4CCCC(n5nc(-c6ccc(Oc7ccc(F)cc7F)cc6)c(C(N)=O)c5N)C4)cc3Cl)ccc2CC1C(=O)NC1CCCc2ccccc21)C(C)(C)C

> <Shape>
0.136

> <Color>
0.182

> <Negative vol penalty>
0.000

$$$$

  -OEChem-04052316453D

 93101  0     1  0  0  0  0  0999 V2000
  -16.8512  -30.6014   23.0797 C   0  0  0  0  0  0  0  0  0  0  0  0
  -18.0360  -31.2531   23.4070 C   0  0  0  0  0  0  0  0  0  0  0  0
  -25.6983  -14.6505   18.9618 C   0  0  0  0  0  0  0  0  0  0  0  0
  -27.2874  -13.9405   17.2861 C   0  0  0  0  0  0  0  0  0  0  0  0
  -16.8583  -29.2306   22.8254 C   0  0  0  0  0  0  0  0  0  0  0  0
  -19.2284  -30.5341   23.4813 C   0  0  0  0  0  0  0  0  0  0  0  0
  -24.8214  -32.5129   21.9620 C   0  0  0  0  0  0  0  0  0  0  0  0
  -24.8844  -13.5610   18.6517 C   0  0  0  0  0  0  0  0  0  0  0  0
  -26.4735  -12.8509   16.9760 C   0  0  0  0  0  0  0  0  0  0  0  0
  -25.8784  -33.0119   22.7220 C   0  0  0  0  0  0  0  0  0  0  0  0
  -24.7938  -10.2484   19.3235 C   0  0  0  0  0  0  0  0  0  0  0  0
  -24.2589   -9.5164   20.3834 C   0  0  0  0  0  0  0  0  0  0  0  0
  -26.8694  -30.8132   22.7764 C   0  0  0  0  0  0  0  0  0  0  0  0
  -28.0005  -30.0221   28.1731 C   0  0  0  0  0  0  0  0  0  0  0  0
  -29.2702  -31.3935   26.6421 C   0  0  0  0  0  0  0  0  0  0  0  0
  -22.0276  -10.0314   19.6132 C   0  0  0  0  0  0  0  0  0  0  0  0
  -26.8998  -14.8403   18.2790 C   0  0  0  0  0  0  0  0  0  0  0  0
  -28.7715  -16.0121   19.5561 C   0  0  0  0  0  0  0  0  0  0  0  0
  -18.0531  -28.4961   22.8872 C   0  0  0  0  0  0  0  0  0  0  0  0
  -24.7749  -31.1557   21.6122 C   0  0  0  0  0  0  0  0  0  0  0  0
  -19.2513  -29.1519   23.2289 C   0  0  0  0  0  0  0  0  0  0  0  0
  -25.8121  -30.3000   22.0097 C   0  0  0  0  0  0  0  0  0  0  0  0
  -29.1108  -30.2011   27.3480 C   0  0  0  0  0  0  0  0  0  0  0  0
  -27.0494  -31.0356   28.2922 C   0  0  0  0  0  0  0  0  0  0  0  0
  -28.3191  -32.4070   26.7612 C   0  0  0  0  0  0  0  0  0  0  0  0
  -25.2720  -12.6612   17.6588 C   0  0  0  0  0  0  0  0  0  0  0  0
  -26.9011  -32.1615   23.1318 C   0  0  0  0  0  0  0  0  0  0  0  0
  -23.9456  -10.8721   18.4084 C   0  0  0  0  0  0  0  0  0  0  0  0
  -22.8758   -9.4078   20.5283 C   0  0  0  0  0  0  0  0  0  0  0  0
  -22.5625  -10.7635   18.5532 C   0  0  0  0  0  0  0  0  0  0  0  0
  -27.2088  -32.2280   27.5862 C   0  0  0  0  0  0  0  0  0  0  0  0
  -27.7407  -15.9658   18.5985 C   0  0  0  0  0  0  0  0  0  0  0  0
  -29.2590  -17.2936   19.4742 C   0  0  0  0  0  0  0  0  0  0  0  0
  -29.2460  -14.9883   20.4406 C   0  0  0  0  0  0  0  0  0  0  0  0
  -22.7790  -28.7538   22.2044 C   0  0  0  0  0  0  0  0  0  0  0  0
  -24.6974  -27.1618   20.1290 C   0  0  0  0  0  0  0  0  0  0  0  0
  -27.7583  -26.8798   18.6464 C   0  0  0  0  0  0  0  0  0  0  0  0
  -30.9361  -21.6790   16.4574 C   0  0  0  0  0  0  0  0  0  0  0  0
  -18.0031  -27.0075   22.6505 C   0  0  0  0  0  0  0  0  0  0  0  0
  -23.6415  -30.6386   20.7693 C   0  0  0  0  0  0  0  0  0  0  0  0
  -25.8194  -28.8392   21.6432 C   0  0  0  0  0  0  0  0  0  0  0  0
  -19.3720  -26.3869   22.3831 C   0  0  0  0  0  0  0  0  0  0  0  0
  -27.4440  -21.3593   17.0737 C   0  0  0  0  0  0  0  0  0  0  0  0
  -20.3938  -26.8909   23.3973 C   0  0  0  0  0  0  0  0  0  0  0  0
  -27.2945  -19.9301   17.5981 C   0  0  0  0  0  0  0  0  0  0  0  0
  -28.5142  -21.4531   15.9884 C   0  0  0  0  0  0  0  0  0  0  0  0
  -29.6819  -19.4805   16.8933 C   0  0  0  0  0  0  0  0  0  0  0  0
  -20.5691  -28.4109   23.2951 C   0  0  1  0  0  0  0  0  0  0  0  0
  -23.4334  -29.1335   20.9063 C   0  0  1  0  0  0  0  0  0  0  0  0
  -28.6532  -19.3459   18.0291 C   0  0  2  0  0  0  0  0  0  0  0  0
  -25.8756  -30.7998   29.1876 C   0  0  0  0  0  0  0  0  0  0  0  0
  -29.0371  -25.4565   17.0228 C   0  0  0  0  0  0  0  0  0  0  0  0
  -25.0210  -25.0131   22.2711 C   0  0  0  0  0  0  0  0  0  0  0  0
  -26.9966  -24.1441   21.0022 C   0  0  0  0  0  0  0  0  0  0  0  0
  -24.7362  -24.1346   19.9470 C   0  0  0  0  0  0  0  0  0  0  0  0
  -28.1648  -29.1529   16.7952 C   0  0  0  0  0  0  0  0  0  0  0  0
  -28.5308  -33.6677   25.9860 C   0  0  0  0  0  0  0  0  0  0  0  0
  -30.1338  -29.1111   27.2200 C   0  0  0  0  0  0  0  0  0  0  0  0
  -32.6557  -23.2244   21.1488 C   0  0  0  0  0  0  0  0  0  0  0  0
  -32.8363  -23.8752   22.5221 C   0  0  0  0  0  0  0  0  0  0  0  0
  -33.7143  -22.1639   20.8329 C   0  0  0  0  0  0  0  0  0  0  0  0
  -31.7400  -24.9080   22.7934 C   0  0  0  0  0  0  0  0  0  0  0  0
  -33.4915  -21.4615   19.4918 C   0  0  0  0  0  0  0  0  0  0  0  0
  -31.9361  -25.5842   24.1515 C   0  0  0  0  0  0  0  0  0  0  0  0
  -33.5416  -22.4563   18.3310 C   0  0  0  0  0  0  0  0  0  0  0  0
  -30.8599  -26.6401   24.4080 C   0  0  0  0  0  0  0  0  0  0  0  0
  -33.3587  -21.7547   16.9909 C   0  0  0  0  0  0  0  0  0  0  0  0
  -31.0820  -27.3331   25.7442 C   0  0  0  0  0  0  0  0  0  0  0  0
  -27.6550  -33.7494   24.7337 C   0  0  0  0  0  0  0  0  0  1  0  0
  -25.9512  -26.3303   20.2547 C   0  0  1  0  0  0  0  0  0  0  0  0
  -28.1609  -26.6874   17.1954 C   0  0  2  0  0  0  0  0  0  0  0  0
  -25.6754  -24.9326   20.8775 C   0  0  0  0  0  0  0  0  0  0  0  0
  -27.5818  -17.1257   17.9555 N   0  0  0  0  0  0  0  0  0  0  0  0
  -28.5191  -17.9129   18.5103 N   0  0  0  0  0  0  0  0  0  0  0  0
  -24.6862  -28.3799   20.8232 N   0  0  0  0  0  0  0  0  0  0  0  0
  -29.7783  -20.8836   16.4613 N   0  0  0  0  0  0  0  0  0  0  0  0
  -30.2440  -17.9398   20.1335 N   0  0  0  0  0  0  0  0  0  0  0  0
  -28.6332  -13.7287   20.3943 N   0  0  0  0  0  0  0  0  0  0  0  0
  -21.3979  -28.7488   22.1579 N   0  0  0  0  0  0  0  0  0  0  0  0
  -26.5458  -26.2845   18.9233 N   0  0  0  0  0  0  0  0  0  0  0  0
  -32.0900  -21.0639   16.9276 N   0  0  0  0  0  0  0  0  0  0  0  0
  -28.9167  -27.8748   16.7058 N   0  3  0  0  0  0  0  0  0  0  0  0
  -30.0447  -28.3763   25.9284 N   0  3  0  0  0  0  0  0  0  0  0  0
  -30.1746  -15.1895   21.2595 O   0  0  0  0  0  0  0  0  0  0  0  0
  -23.4754  -28.4838   23.1759 O   0  0  0  0  0  0  0  0  0  0  0  0
  -23.7652  -26.7491   19.4345 O   0  0  0  0  0  0  0  0  0  0  0  0
  -28.4520  -27.4934   19.4544 O   0  0  0  0  0  0  0  0  0  0  0  0
  -30.9400  -22.8520   16.0690 O   0  0  0  0  0  0  0  0  0  0  0  0
  -24.4782  -11.5978   17.3561 O   0  0  0  0  0  0  0  0  0  0  0  0
  -27.9408  -32.6492   23.8794 O   0  0  0  0  0  0  0  0  0  1  0  0
  -22.3623   -8.7035   21.5453 F   0  0  0  0  0  0  0  0  0  0  0  0
  -21.7427  -11.3594   17.6765 F   0  0  0  0  0  0  0  0  0  0  0  0
  -26.0279  -33.4861   27.7339 Cl  0  0  0  0  0  0  0  0  0  0  0  0
  1  2  1  0  0  0  0
  1  5  2  0  0  0  0
  2  6  2  0  0  0  0
  3  8  2  0  0  0  0
  3 17  1  0  0  0  0
  4  9  1  0  0  0  0
  4 17  2  0  0  0  0
  5 19  1  0  0  0  0
  6 21  1  0  0  0  0
  7 10  2  0  0  0  0
  7 20  1  0  0  0  0
  8 26  1  0  0  0  0
  9 26  2  0  0  0  0
 10 27  1  0  0  0  0
 11 12  2  0  0  0  0
 11 28  1  0  0  0  0
 12 29  1  0  0  0  0
 13 22  1  0  0  0  0
 13 27  2  0  0  0  0
 14 23  1  0  0  0  0
 14 24  2  0  0  0  0
 15 23  2  0  0  0  0
 15 25  1  0  0  0  0
 16 29  2  0  0  0  0
 16 30  1  0  0  0  0
 17 32  1  0  0  0  0
 18 32  1  0  0  0  0
 18 33  2  0  0  0  0
 18 34  1  0  0  0  0
 19 21  2  0  0  0  0
 19 39  1  0  0  0  0
 20 22  2  0  0  0  0
 20 40  1  0  0  0  0
 21 48  1  0  0  0  0
 22 41  1  0  0  0  0
 23 58  1  0  0  0  0
 24 31  1  0  0  0  0
 24 51  1  0  0  0  0
 25 31  2  0  0  0  0
 25 57  1  0  0  0  0
 26 89  1  0  0  0  0
 27 90  1  0  0  0  0
 28 30  2  0  0  0  0
 28 89  1  0  0  0  0
 29 91  1  0  0  0  0
 30 92  1  0  0  0  0
 31 93  1  0  0  0  0
 32 73  2  0  0  0  0
 33 74  1  0  0  0  0
 33 77  1  0  0  0  0
 34 78  1  0  0  0  0
 34 84  2  0  0  0  0
 35 49  1  0  0  0  0
 35 79  1  0  0  0  0
 35 85  2  0  0  0  0
 36 70  1  0  0  0  0
 36 75  1  0  0  0  0
 36 86  2  0  0  0  0
 37 71  1  0  0  0  0
 37 80  1  0  0  0  0
 37 87  2  0  0  0  0
 38 76  1  0  0  0  0
 38 81  1  0  0  0  0
 38 88  2  0  0  0  0
 39 42  1  0  0  0  0
 40 49  1  0  0  0  0
 41 75  1  0  0  0  0
 42 44  1  0  0  0  0
 43 45  1  0  0  0  0
 43 46  1  0  0  0  0
 44 48  1  0  0  0  0
 45 50  1  0  0  0  0
 46 76  1  0  0  0  0
 47 50  1  0  0  0  0
 47 76  1  0  0  0  0
 48 79  1  0  0  0  0
 49 75  1  0  0  0  0
 50 74  1  0  0  0  0
 52 71  1  0  0  0  0
 53 72  1  0  0  0  0
 54 72  1  0  0  0  0
 55 72  1  0  0  0  0
 56 82  1  0  0  0  0
 57 69  1  0  0  0  0
 58 83  1  0  0  0  0
 59 60  1  0  0  0  0
 59 61  1  0  0  0  0
 60 62  1  0  0  0  0
 61 63  1  0  0  0  0
 62 64  1  0  0  0  0
 63 65  1  0  0  0  0
 64 66  1  0  0  0  0
 65 67  1  0  0  0  0
 66 68  1  0  0  0  0
 67 81  1  0  0  0  0
 68 83  1  0  0  0  0
 69 90  1  0  0  0  0
 70 72  1  0  0  0  0
 70 80  1  0  0  0  0
 71 82  1  0  0  0  0
 73 74  1  0  0  0  0
M  CHG  2  82   1  83   1
M  ISO  4  38 100  69 101  81 100  90 101
M  END
> <Batch ID>
0032

> <Smiles>
CNC(C)C(=O)NC(C(=O)N1Cc2cc([101O:1][101CH2:1]Cc3cc(CNCCCCCCCCCC[100NH:0][100C:0](=O)N4CCCC(n5nc(-c6ccc(Oc7ccc(F)cc7F)cc6)c(C(N)=O)c5N)C4)cc(C)c3Cl)ccc2CC1C(=O)NC1CCCc2ccccc21)C(C)(C)C

> <Shape>
0.251

> <Color>
0.103

> <Negative vol penalty>
0.000

$$$$

  -OEChem-04052316453D

 86 95  0     1  0  0  0  0  0999 V2000
  -18.5577  -28.5031   22.8760 C   0  0  0  0  0  0  0  0  0  0  0  0
  -18.0879  -27.2921   22.3778 C   0  0  0  0  0  0  0  0  0  0  0  0
  -29.0275  -23.7021   19.3477 C   0  0  0  0  0  0  0  0  0  0  0  0
  -29.8245  -22.4554   17.4378 C   0  0  0  0  0  0  0  0  0  0  0  0
  -19.9261  -28.6952   23.0621 C   0  0  0  0  0  0  0  0  0  0  0  0
  -18.9864  -26.2728   22.0644 C   0  0  0  0  0  0  0  0  0  0  0  0
  -19.5319  -19.1302   22.0183 C   0  0  0  0  0  0  0  0  0  0  0  0
  -29.6008  -24.8631   18.8291 C   0  0  0  0  0  0  0  0  0  0  0  0
  -30.3978  -23.6165   16.9192 C   0  0  0  0  0  0  0  0  0  0  0  0
  -19.8749  -18.0817   21.1658 C   0  0  0  0  0  0  0  0  0  0  0  0
  -32.6764  -26.2523   18.6410 C   0  0  0  0  0  0  0  0  0  0  0  0
  -33.3975  -27.0646   19.5159 C   0  0  0  0  0  0  0  0  0  0  0  0
  -22.2104  -18.4982   21.6030 C   0  0  0  0  0  0  0  0  0  0  0  0
  -25.8301  -12.0364   21.0827 C   0  0  0  0  0  0  0  0  0  0  0  0
  -31.8872  -28.8948   19.0615 C   0  0  0  0  0  0  0  0  0  0  0  0
  -29.1394  -22.4982   18.6520 C   0  0  0  0  0  0  0  0  0  0  0  0
  -27.2450  -20.8172   18.9576 C   0  0  0  0  0  0  0  0  0  0  0  0
  -20.8410  -27.6743   22.7599 C   0  0  0  0  0  0  0  0  0  0  0  0
  -20.5276  -19.8788   22.6621 C   0  0  0  0  0  0  0  0  0  0  0  0
  -20.3684  -26.4519   22.2453 C   0  0  0  0  0  0  0  0  0  0  0  0
  -21.8774  -19.5540   22.4652 C   0  0  0  0  0  0  0  0  0  0  0  0
  -23.7101  -13.1942   20.9587 C   0  0  0  0  0  0  0  0  0  0  0  0
  -24.4586  -12.0626   21.3004 C   0  0  0  0  0  0  0  0  0  0  0  0
  -30.2859  -24.8203   17.6149 C   0  0  0  0  0  0  0  0  0  0  0  0
  -21.2144  -17.7674   20.9558 C   0  0  0  0  0  0  0  0  0  0  0  0
  -31.5606  -26.7612   17.9762 C   0  0  0  0  0  0  0  0  0  0  0  0
  -33.0029  -28.3859   19.7262 C   0  0  0  0  0  0  0  0  0  0  0  0
  -31.1660  -28.0824   18.1865 C   0  0  0  0  0  0  0  0  0  0  0  0
  -28.5479  -21.2984   19.1874 C   0  0  0  0  0  0  0  0  0  0  0  0
  -24.3942  -14.2847   20.4107 C   0  0  0  0  0  0  0  0  0  0  0  0
  -26.4157  -13.1602   20.5327 C   0  0  0  0  0  0  0  0  0  0  0  0
  -27.1748  -19.6549   19.6859 C   0  0  0  0  0  0  0  0  0  0  0  0
  -26.1924  -21.3714   18.1572 C   0  0  0  0  0  0  0  0  0  0  0  0
  -21.4194  -22.9296   22.6213 C   0  0  0  0  0  0  0  0  0  0  0  0
  -23.4089  -21.9753   24.9990 C   0  0  0  0  0  0  0  0  0  0  0  0
  -25.1104  -19.4297   26.5062 C   0  0  0  0  0  0  0  0  0  0  0  0
  -29.4004  -14.8185   21.3597 C   0  0  0  0  0  0  0  0  0  0  0  0
  -22.3145  -27.9454   22.9332 C   0  0  0  0  0  0  0  0  0  0  0  0
  -20.1404  -20.9896   23.5995 C   0  0  0  0  0  0  0  0  0  0  0  0
  -22.2353  -13.2241   21.2537 C   0  0  0  0  0  0  0  0  0  0  0  0
  -22.9838  -20.3140   23.1484 C   0  0  0  0  0  0  0  0  0  0  0  0
  -23.1709  -26.6817   22.9297 C   0  0  0  0  0  0  0  0  0  0  0  0
  -21.4964  -14.3729   20.5747 C   0  0  0  0  0  0  0  0  0  0  0  0
  -30.3217  -17.7501   23.1580 C   0  0  0  0  0  0  0  0  0  0  0  0
  -22.7679  -25.7670   21.7774 C   0  0  0  0  0  0  0  0  0  0  0  0
  -29.8406  -18.8941   22.2637 C   0  0  0  0  0  0  0  0  0  0  0  0
  -30.8482  -16.5750   22.3370 C   0  0  0  0  0  0  0  0  0  0  0  0
  -29.4331  -17.2091   20.4215 C   0  0  0  0  0  0  0  0  0  0  0  0
  -21.3098  -25.3134   21.9170 C   0  0  1  0  0  0  0  0  0  0  0  0
  -23.6631  -15.5435   19.9904 C   0  0  2  0  0  0  0  0  0  0  0  0
  -21.2514  -22.0153   23.8018 C   0  0  1  0  0  0  0  0  0  0  0  0
  -28.8412  -18.3945   21.2031 C   0  0  2  0  0  0  0  0  0  0  0  0
  -22.2946  -15.6698   20.6869 C   0  0  1  0  0  0  0  0  0  1  0  0
  -23.5704  -15.5935   18.4581 C   0  0  0  0  0  0  0  0  0  0  0  0
  -23.0319   -8.4801   21.4883 C   0  0  0  0  0  0  0  0  0  0  0  0
  -26.6824  -18.9645   28.4061 C   0  0  0  0  0  0  0  0  0  0  0  0
  -25.7055  -23.1783   23.3902 C   0  0  0  0  0  0  0  0  0  0  0  0
  -27.2964  -21.8778   24.8204 C   0  0  0  0  0  0  0  0  0  0  0  0
  -25.8207  -23.6044   25.8518 C   0  0  0  0  0  0  0  0  0  0  0  0
  -23.1841  -17.5952   27.8035 C   0  0  0  0  0  0  0  0  0  0  0  0
  -23.8200  -10.8501   21.8987 C   0  0  0  0  0  0  0  0  0  0  0  0
  -27.8866  -13.1731   20.2826 C   0  0  0  0  0  0  0  0  0  0  0  0
  -23.6510   -9.7237   20.8700 C   0  0  0  0  0  0  0  0  0  0  0  0
  -24.8130  -21.4245   25.0616 C   0  0  1  0  0  0  0  0  0  0  0  0
  -25.2286  -19.0211   27.9634 C   0  0  2  0  0  0  0  0  0  0  0  0
  -25.8884  -22.5080   24.7664 C   0  0  0  0  0  0  0  0  0  0  0  0
  -29.2544  -20.5065   19.9985 N   0  0  0  0  0  0  0  0  0  0  0  0
  -25.7356  -14.2772   20.1943 N   0  0  0  0  0  0  0  0  0  0  0  0
  -28.3923  -19.5160   20.2847 N   0  0  0  0  0  0  0  0  0  0  0  0
  -22.5545  -21.3954   24.0505 N   0  0  0  0  0  0  0  0  0  0  0  0
  -29.8522  -16.1485   21.3511 N   0  0  0  0  0  0  0  0  0  0  0  0
  -26.1910  -18.7482   19.8662 N   0  0  0  0  0  0  0  0  0  0  0  0
  -26.4331  -22.5718   17.4750 N   0  0  0  0  0  0  0  0  0  0  0  0
  -21.1997  -24.2635   22.9070 N   0  0  0  0  0  0  0  0  0  0  0  0
  -24.9454  -20.7919   26.3695 N   0  0  0  0  0  0  0  0  0  0  0  0
  -28.4517  -14.4992   20.3961 N   0  0  0  0  0  0  0  0  0  0  0  0
  -24.6200  -17.6774   28.1756 N   0  3  0  0  0  0  0  0  0  0  0  0
  -25.0663  -20.8269   18.0632 O   0  0  0  0  0  0  0  0  0  0  0  0
  -21.7270  -22.4596   21.5321 O   0  0  0  0  0  0  0  0  0  0  0  0
  -23.0800  -22.8817   25.7684 O   0  0  0  0  0  0  0  0  0  0  0  0
  -25.1631  -18.6219   25.5815 O   0  0  0  0  0  0  0  0  0  0  0  0
  -29.8082  -13.9792   22.1698 O   0  0  0  0  0  0  0  0  0  0  0  0
  -30.8453  -25.9531   17.1084 O   0  0  0  0  0  0  0  0  0  0  0  0
  -21.5519  -16.7448   20.1237 O   0  0  0  0  0  0  0  0  0  1  0  0
  -33.6947  -29.1654   20.5676 F   0  0  0  0  0  0  0  0  0  0  0  0
  -30.0943  -28.5766   17.5516 F   0  0  0  0  0  0  0  0  0  0  0  0
  1  2  1  0  0  0  0
  1  5  2  0  0  0  0
  2  6  2  0  0  0  0
  3  8  2  0  0  0  0
  3 16  1  0  0  0  0
  4  9  1  0  0  0  0
  4 16  2  0  0  0  0
  5 18  1  0  0  0  0
  6 20  1  0  0  0  0
  7 10  2  0  0  0  0
  7 19  1  0  0  0  0
  8 24  1  0  0  0  0
  9 24  2  0  0  0  0
 10 25  1  0  0  0  0
 11 12  2  0  0  0  0
 11 26  1  0  0  0  0
 12 27  1  0  0  0  0
 13 21  1  0  0  0  0
 13 25  2  0  0  0  0
 14 23  1  0  0  0  0
 14 31  2  0  0  0  0
 15 27  2  0  0  0  0
 15 28  1  0  0  0  0
 16 29  1  0  0  0  0
 17 29  1  0  0  0  0
 17 32  2  0  0  0  0
 17 33  1  0  0  0  0
 18 20  2  0  0  0  0
 18 38  1  0  0  0  0
 19 21  2  0  0  0  0
 19 39  1  0  0  0  0
 20 49  1  0  0  0  0
 21 41  1  0  0  0  0
 22 23  2  0  0  0  0
 22 30  1  0  0  0  0
 22 40  1  0  0  0  0
 23 61  1  0  0  0  0
 24 83  1  0  0  0  0
 25 84  1  0  0  0  0
 26 28  2  0  0  0  0
 26 83  1  0  0  0  0
 27 85  1  0  0  0  0
 28 86  1  0  0  0  0
 29 67  2  0  0  0  0
 30 50  1  0  0  0  0
 30 68  2  0  0  0  0
 31 62  1  0  0  0  0
 31 68  1  0  0  0  0
 32 69  1  0  0  0  0
 32 72  1  0  0  0  0
 33 73  1  0  0  0  0
 33 78  2  0  0  0  0
 34 51  1  0  0  0  0
 34 74  1  0  0  0  0
 34 79  2  0  0  0  0
 35 64  1  0  0  0  0
 35 70  1  0  0  0  0
 35 80  2  0  0  0  0
 36 65  1  0  0  0  0
 36 75  1  0  0  0  0
 36 81  2  0  0  0  0
 37 71  1  0  0  0  0
 37 76  1  0  0  0  0
 37 82  2  0  0  0  0
 38 42  1  0  0  0  0
 39 51  1  0  0  0  0
 40 43  1  0  0  0  0
 41 70  1  0  0  0  0
 42 45  1  0  0  0  0
 43 53  1  0  0  0  0
 44 46  1  0  0  0  0
 44 47  1  0  0  0  0
 45 49  1  0  0  0  0
 46 52  1  0  0  0  0
 47 71  1  0  0  0  0
 48 52  1  0  0  0  0
 48 71  1  0  0  0  0
 49 74  1  0  0  0  0
 50 53  1  0  0  0  0
 50 54  1  0  0  0  0
 51 70  1  0  0  0  0
 52 69  1  0  0  0  0
 53 84  1  0  0  0  0
 55 63  1  0  0  0  0
 56 65  1  0  0  0  0
 57 66  1  0  0  0  0
 58 66  1  0  0  0  0
 59 66  1  0  0  0  0
 60 77  1  0  0  0  0
 61 63  1  0  0  0  0
 62 76  1  0  0  0  0
 64 66  1  0  0  0  0
 64 75  1  0  0  0  0
 65 77  1  0  0  0  0
 67 69  1  0  0  0  0
M  CHG  1  77   1
M  ISO  4  37 100  53 101  76 100  84 101
M  END
> <Batch ID>
0032

> <Smiles>
CCCc1cc(C[100NH:0][100C:0](=O)N2CCCC(n3nc(-c4ccc(Oc5ccc(F)cc5F)cc4)c(C(N)=O)c3N)C2)nc2c1CC[101CH:1]([101O:1]c1ccc3c(c1)CN(C(=O)C(NC(=O)C(C)NC)C(C)(C)C)C(C(=O)NC1CCCc4ccccc41)C3)C2C

> <Shape>
0.225

> <Color>
0.057

> <Negative vol penalty>
0.000

$$$$

  -OEChem-04052316453D

 82 90  0     1  0  0  0  0  0999 V2000
  -34.5765  -28.4621   18.9804 C   0  0  0  0  0  0  0  0  0  0  0  0
  -34.0365  -27.5696   19.9009 C   0  0  0  0  0  0  0  0  0  0  0  0
  -23.0545   -9.9531   19.9484 C   0  0  0  0  0  0  0  0  0  0  0  0
  -23.8264   -9.9383   22.2377 C   0  0  0  0  0  0  0  0  0  0  0  0
  -33.7343  -29.1968   18.1469 C   0  0  0  0  0  0  0  0  0  0  0  0
  -32.6538  -27.4120   19.9890 C   0  0  0  0  0  0  0  0  0  0  0  0
  -31.2670  -22.5502   20.2796 C   0  0  0  0  0  0  0  0  0  0  0  0
  -22.2924   -8.8119   20.1980 C   0  0  0  0  0  0  0  0  0  0  0  0
  -23.0642   -8.7971   22.4873 C   0  0  0  0  0  0  0  0  0  0  0  0
  -31.4103  -21.9200   21.5150 C   0  0  0  0  0  0  0  0  0  0  0  0
  -21.0398   -6.0892   23.8242 C   0  0  0  0  0  0  0  0  0  0  0  0
  -20.2890   -6.0540   24.9992 C   0  0  0  0  0  0  0  0  0  0  0  0
  -29.0566  -22.2330   21.9409 C   0  0  0  0  0  0  0  0  0  0  0  0
  -32.1692  -16.5283   22.5329 C   0  0  0  0  0  0  0  0  0  0  0  0
  -19.0739   -8.0150   24.2815 C   0  0  0  0  0  0  0  0  0  0  0  0
  -23.8216  -10.5163   20.9683 C   0  0  0  0  0  0  0  0  0  0  0  0
  -24.2059  -13.0357   20.8559 C   0  0  0  0  0  0  0  0  0  0  0  0
  -32.3410  -29.0411   18.2182 C   0  0  0  0  0  0  0  0  0  0  0  0
  -30.0175  -23.0371   19.8697 C   0  0  0  0  0  0  0  0  0  0  0  0
  -31.7921  -28.1463   19.1566 C   0  0  0  0  0  0  0  0  0  0  0  0
  -28.8996  -22.8668   20.6988 C   0  0  0  0  0  0  0  0  0  0  0  0
  -32.7788  -17.3977   23.4373 C   0  0  0  0  0  0  0  0  0  0  0  0
  -30.6147  -18.2837   24.0444 C   0  0  0  0  0  0  0  0  0  0  0  0
  -30.7823  -16.5366   22.3841 C   0  0  0  0  0  0  0  0  0  0  0  0
  -22.2972   -8.2339   21.4674 C   0  0  0  0  0  0  0  0  0  0  0  0
  -30.3056  -21.7639   22.3471 C   0  0  0  0  0  0  0  0  0  0  0  0
  -20.8077   -7.0873   22.8778 C   0  0  0  0  0  0  0  0  0  0  0  0
  -19.3061   -7.0169   25.2278 C   0  0  0  0  0  0  0  0  0  0  0  0
  -19.8248   -8.0502   23.1065 C   0  0  0  0  0  0  0  0  0  0  0  0
  -32.0016  -18.2754   24.1931 C   0  0  0  0  0  0  0  0  0  0  0  0
  -30.0050  -17.4142   23.1399 C   0  0  0  0  0  0  0  0  0  0  0  0
  -24.6095  -11.6949   20.7110 C   0  0  0  0  0  0  0  0  0  0  0  0
  -25.3088  -13.7679   20.4897 C   0  0  0  0  0  0  0  0  0  0  0  0
  -22.9466  -13.5715   21.2835 C   0  0  0  0  0  0  0  0  0  0  0  0
  -28.8529  -25.9072   19.1554 C   0  0  0  0  0  0  0  0  0  0  0  0
  -26.2262  -24.2012   18.3112 C   0  0  0  0  0  0  0  0  0  0  0  0
  -24.3914  -21.3448   18.6598 C   0  0  0  0  0  0  0  0  0  0  0  0
  -30.7928  -14.7194   20.6394 C   0  0  0  0  0  0  0  0  0  0  0  0
  -31.4690  -29.8919   17.3291 C   0  0  0  0  0  0  0  0  0  0  0  0
  -29.8742  -23.6908   18.5226 C   0  0  0  0  0  0  0  0  0  0  0  0
  -27.5323  -23.3536   20.2965 C   0  0  0  0  0  0  0  0  0  0  0  0
  -30.0308  -29.3906   17.2267 C   0  0  0  0  0  0  0  0  0  0  0  0
  -29.6250  -12.3340   18.2680 C   0  0  0  0  0  0  0  0  0  0  0  0
  -29.4839  -29.0514   18.6097 C   0  0  0  0  0  0  0  0  0  0  0  0
  -28.1828  -12.0654   18.7041 C   0  0  0  0  0  0  0  0  0  0  0  0
  -30.5502  -12.5426   19.4657 C   0  0  0  0  0  0  0  0  0  0  0  0
  -28.6631  -13.2941   20.8597 C   0  0  0  0  0  0  0  0  0  0  0  0
  -30.2983  -27.9294   19.2650 C   0  0  1  0  0  0  0  0  0  0  0  0
  -28.6575  -24.6064   18.4291 C   0  0  1  0  0  0  0  0  0  0  0  0
  -27.6813  -13.1420   19.6864 C   0  0  2  0  0  0  0  0  0  0  0  0
  -34.2620  -17.3865   23.5936 C   0  0  0  0  0  0  0  0  0  0  0  0
  -22.2731  -20.2556   17.8700 C   0  0  0  0  0  0  0  0  0  0  0  0
  -24.6082  -26.0182   20.1527 C   0  0  0  0  0  0  0  0  0  0  0  0
  -22.7551  -24.3368   20.0685 C   0  0  0  0  0  0  0  0  0  0  0  0
  -23.4960  -25.4794   17.9785 C   0  0  0  0  0  0  0  0  0  0  0  0
  -25.8677  -19.0781   17.4592 C   0  0  0  0  0  0  0  0  0  0  0  0
  -29.7737  -19.2335   24.8623 C   0  0  0  0  0  0  0  0  0  0  0  0
  -29.3101  -20.4405   24.0540 C   0  0  0  0  0  0  0  0  0  1  0  0
  -24.9849  -23.7255   19.0267 C   0  0  1  0  0  0  0  0  0  0  0  0
  -23.7666  -20.4174   17.6331 C   0  0  2  0  0  0  0  0  0  0  0  0
  -23.9871  -24.8824   19.3153 C   0  0  0  0  0  0  0  0  0  0  0  0
  -25.8704  -11.5791   20.2856 N   0  0  0  0  0  0  0  0  0  0  0  0
  -26.2685  -12.8565   20.1601 N   0  0  0  0  0  0  0  0  0  0  0  0
  -27.4446  -23.9919   18.9726 N   0  0  0  0  0  0  0  0  0  0  0  0
  -30.0135  -13.5794   20.3498 N   0  0  0  0  0  0  0  0  0  0  0  0
  -25.5415  -15.0958   20.4206 N   0  0  0  0  0  0  0  0  0  0  0  0
  -21.9211  -12.6785   21.6227 N   0  0  0  0  0  0  0  0  0  0  0  0
  -30.1657  -15.6522   21.4647 N   0  0  0  0  0  0  0  0  0  0  0  0
  -29.9310  -26.6458   18.7065 N   0  0  0  0  0  0  0  0  0  0  0  0
  -24.4320  -22.6485   18.2126 N   0  0  0  0  0  0  0  0  0  0  0  0
  -24.4014  -19.0706   17.6975 N   0  3  0  0  0  0  0  0  0  0  0  0
  -22.7317  -14.8058   21.3467 O   0  0  0  0  0  0  0  0  0  0  0  0
  -28.0816  -26.2184   20.0554 O   0  0  0  0  0  0  0  0  0  0  0  0
  -26.1193  -24.7324   17.2031 O   0  0  0  0  0  0  0  0  0  0  0  0
  -24.7991  -20.9526   19.7509 O   0  0  0  0  0  0  0  0  0  0  0  0
  -31.9222  -14.8706   20.1665 O   0  0  0  0  0  0  0  0  0  0  0  0
  -21.5534   -7.1204   21.7114 O   0  0  0  0  0  0  0  0  0  0  0  0
  -30.4428  -21.1497   23.5536 O   0  0  0  0  0  0  0  0  0  1  0  0
  -18.5841   -6.9821   26.3556 F   0  0  0  0  0  0  0  0  0  0  0  0
  -19.5964   -9.0108   22.2005 F   0  0  0  0  0  0  0  0  0  0  0  0
  -32.5880  -19.1118   25.0624 F   0  0  0  0  0  0  0  0  0  0  0  0
  -28.6708  -17.4234   22.9983 F   0  0  0  0  0  0  0  0  0  0  0  0
  1  2  1  0  0  0  0
  1  5  2  0  0  0  0
  2  6  2  0  0  0  0
  3  8  2  0  0  0  0
  3 16  1  0  0  0  0
  4  9  1  0  0  0  0
  4 16  2  0  0  0  0
  5 18  1  0  0  0  0
  6 20  1  0  0  0  0
  7 10  2  0  0  0  0
  7 19  1  0  0  0  0
  8 25  1  0  0  0  0
  9 25  2  0  0  0  0
 10 26  1  0  0  0  0
 11 12  2  0  0  0  0
 11 27  1  0  0  0  0
 12 28  1  0  0  0  0
 13 21  1  0  0  0  0
 13 26  2  0  0  0  0
 14 22  1  0  0  0  0
 14 24  2  0  0  0  0
 15 28  2  0  0  0  0
 15 29  1  0  0  0  0
 16 32  1  0  0  0  0
 17 32  1  0  0  0  0
 17 33  2  0  0  0  0
 17 34  1  0  0  0  0
 18 20  2  0  0  0  0
 18 39  1  0  0  0  0
 19 21  2  0  0  0  0
 19 40  1  0  0  0  0
 20 48  1  0  0  0  0
 21 41  1  0  0  0  0
 22 30  2  0  0  0  0
 22 51  1  0  0  0  0
 23 30  1  0  0  0  0
 23 31  2  0  0  0  0
 23 57  1  0  0  0  0
 24 31  1  0  0  0  0
 24 68  1  0  0  0  0
 25 77  1  0  0  0  0
 26 78  1  0  0  0  0
 27 29  2  0  0  0  0
 27 77  1  0  0  0  0
 28 79  1  0  0  0  0
 29 80  1  0  0  0  0
 30 81  1  0  0  0  0
 31 82  1  0  0  0  0
 32 62  2  0  0  0  0
 33 63  1  0  0  0  0
 33 66  1  0  0  0  0
 34 67  1  0  0  0  0
 34 72  2  0  0  0  0
 35 49  1  0  0  0  0
 35 69  1  0  0  0  0
 35 73  2  0  0  0  0
 36 59  1  0  0  0  0
 36 64  1  0  0  0  0
 36 74  2  0  0  0  0
 37 60  1  0  0  0  0
 37 70  1  0  0  0  0
 37 75  2  0  0  0  0
 38 65  1  0  0  0  0
 38 68  1  0  0  0  0
 38 76  2  0  0  0  0
 39 42  1  0  0  0  0
 40 49  1  0  0  0  0
 41 64  1  0  0  0  0
 42 44  1  0  0  0  0
 43 45  1  0  0  0  0
 43 46  1  0  0  0  0
 44 48  1  0  0  0  0
 45 50  1  0  0  0  0
 46 65  1  0  0  0  0
 47 50  1  0  0  0  0
 47 65  1  0  0  0  0
 48 69  1  0  0  0  0
 49 64  1  0  0  0  0
 50 63  1  0  0  0  0
 52 60  1  0  0  0  0
 53 61  1  0  0  0  0
 54 61  1  0  0  0  0
 55 61  1  0  0  0  0
 56 71  1  0  0  0  0
 57 58  1  0  0  0  0
 58 78  1  0  0  0  0
 59 61  1  0  0  0  0
 59 70  1  0  0  0  0
 60 71  1  0  0  0  0
 62 63  1  0  0  0  0
M  CHG  1  71   1
M  ISO  4  38 100  58 101  68 100  78 101
M  END
> <Batch ID>
0032

> <Smiles>
CNC(C)C(=O)NC(C(=O)N1Cc2cc([101O:1][101CH2:1]Cc3c(F)c(C)cc([100NH:0][100C:0](=O)N4CCCC(n5nc(-c6ccc(Oc7ccc(F)cc7F)cc6)c(C(N)=O)c5N)C4)c3F)ccc2CC1C(=O)NC1CCCc2ccccc21)C(C)(C)C

> <Shape>
0.236

> <Color>
0.217

> <Negative vol penalty>
0.000

$$$$

  -OEChem-04052316453D

 80 88  0     1  0  0  0  0  0999 V2000
  -32.2346  -30.2350   23.9372 C   0  0  0  0  0  0  0  0  0  0  0  0
  -32.2162  -28.8691   23.6738 C   0  0  0  0  0  0  0  0  0  0  0  0
  -22.9978   -9.8976   19.9873 C   0  0  0  0  0  0  0  0  0  0  0  0
  -23.7581   -9.9389   22.2801 C   0  0  0  0  0  0  0  0  0  0  0  0
  -33.4108  -30.9622   23.7599 C   0  0  0  0  0  0  0  0  0  0  0  0
  -33.3739  -28.2298   23.2317 C   0  0  0  0  0  0  0  0  0  0  0  0
  -34.1987  -23.8382   25.6145 C   0  0  0  0  0  0  0  0  0  0  0  0
  -22.2395   -8.7589   20.2592 C   0  0  0  0  0  0  0  0  0  0  0  0
  -22.9998   -8.8002   22.5521 C   0  0  0  0  0  0  0  0  0  0  0  0
  -33.4443  -22.7398   25.2045 C   0  0  0  0  0  0  0  0  0  0  0  0
  -23.2487   -5.4648   22.0585 C   0  0  0  0  0  0  0  0  0  0  0  0
  -23.8514   -4.4457   22.7960 C   0  0  0  0  0  0  0  0  0  0  0  0
  -35.3111  -21.9545   23.8939 C   0  0  0  0  0  0  0  0  0  0  0  0
  -31.6903  -16.7103   23.2544 C   0  0  0  0  0  0  0  0  0  0  0  0
  -32.3359  -18.7302   21.4417 C   0  0  0  0  0  0  0  0  0  0  0  0
  -22.1526   -4.6734   24.4988 C   0  0  0  0  0  0  0  0  0  0  0  0
  -23.7572  -10.4876   20.9977 C   0  0  0  0  0  0  0  0  0  0  0  0
  -24.1308  -13.0055   20.8294 C   0  0  0  0  0  0  0  0  0  0  0  0
  -34.5860  -30.3298   23.3247 C   0  0  0  0  0  0  0  0  0  0  0  0
  -35.5136  -24.0090   25.1579 C   0  0  0  0  0  0  0  0  0  0  0  0
  -34.5667  -28.9496   23.0471 C   0  0  0  0  0  0  0  0  0  0  0  0
  -36.0810  -23.0545   24.3017 C   0  0  0  0  0  0  0  0  0  0  0  0
  -31.1029  -16.7259   21.9894 C   0  0  0  0  0  0  0  0  0  0  0  0
  -32.9232  -18.7145   22.7068 C   0  0  0  0  0  0  0  0  0  0  0  0
  -22.2405   -8.2102   21.5416 C   0  0  0  0  0  0  0  0  0  0  0  0
  -33.9995  -21.7993   24.3418 C   0  0  0  0  0  0  0  0  0  0  0  0
  -22.0980   -6.0882   22.5412 C   0  0  0  0  0  0  0  0  0  0  0  0
  -23.3033   -4.0500   24.0161 C   0  0  0  0  0  0  0  0  0  0  0  0
  -21.5500   -5.6925   23.7613 C   0  0  0  0  0  0  0  0  0  0  0  0
  -31.4257  -17.7358   21.0830 C   0  0  0  0  0  0  0  0  0  0  0  0
  -32.6004  -17.7046   23.6132 C   0  0  0  0  0  0  0  0  0  0  0  0
  -24.5412  -11.6635   20.7173 C   0  0  0  0  0  0  0  0  0  0  0  0
  -25.2322  -13.7340   20.4519 C   0  0  0  0  0  0  0  0  0  0  0  0
  -22.8670  -13.5452   21.2383 C   0  0  0  0  0  0  0  0  0  0  0  0
  -37.0222  -26.2165   23.4391 C   0  0  0  0  0  0  0  0  0  0  0  0
  -30.7485  -14.6225   20.7192 C   0  0  0  0  0  0  0  0  0  0  0  0
  -39.6393  -24.4525   24.1885 C   0  0  0  0  0  0  0  0  0  0  0  0
  -40.9293  -21.4306   25.1108 C   0  0  0  0  0  0  0  0  0  0  0  0
  -35.8210  -31.1664   23.1022 C   0  0  0  0  0  0  0  0  0  0  0  0
  -36.3232  -25.1852   25.6308 C   0  0  0  0  0  0  0  0  0  0  0  0
  -37.4951  -23.1812   23.7990 C   0  0  0  0  0  0  0  0  0  0  0  0
  -37.1020  -30.3437   22.9899 C   0  0  0  0  0  0  0  0  0  0  0  0
  -29.5543  -12.2934   18.2718 C   0  0  0  0  0  0  0  0  0  0  0  0
  -36.8940  -29.1572   22.0541 C   0  0  0  0  0  0  0  0  0  0  0  0
  -28.1202  -12.0092   18.7165 C   0  0  0  0  0  0  0  0  0  0  0  0
  -30.4775  -12.5074   19.4672 C   0  0  0  0  0  0  0  0  0  0  0  0
  -28.5839  -13.2927   20.8525 C   0  0  0  0  0  0  0  0  0  0  0  0
  -35.8086  -28.2157   22.5898 C   0  0  1  0  0  0  0  0  0  0  0  0
  -37.4781  -25.5303   24.6956 C   0  0  1  0  0  0  0  0  0  0  0  0
  -27.6119  -13.1009   19.6748 C   0  0  2  0  0  0  0  0  0  0  0  0
  -43.1070  -20.2879   25.6101 C   0  0  0  0  0  0  0  0  0  0  0  0
  -40.2551  -24.3268   21.2027 C   0  0  0  0  0  0  0  0  0  0  0  0
  -41.8300  -22.4394   21.6779 C   0  0  0  0  0  0  0  0  0  0  0  0
  -42.2508  -24.6913   22.6651 C   0  0  0  0  0  0  0  0  0  0  0  0
  -40.1046  -20.8178   27.8863 C   0  0  0  0  0  0  0  0  0  0  0  0
  -30.1332  -15.6423   21.6441 C   0  0  0  0  0  0  0  0  0  0  0  0
  -33.8967  -19.8020   23.0548 C   0  0  0  0  0  0  0  0  0  1  0  0
  -40.3539  -23.2802   23.5609 C   0  0  1  0  0  0  0  0  0  0  0  0
  -41.9246  -21.0476   26.1911 C   0  0  2  0  0  0  0  0  0  0  0  0
  -41.1451  -23.6828   22.2844 C   0  0  0  0  0  0  0  0  0  0  0  0
  -25.8046  -11.5438   20.3010 N   0  0  0  0  0  0  0  0  0  0  0  0
  -26.1977  -12.8198   20.1481 N   0  0  0  0  0  0  0  0  0  0  0  0
  -38.2441  -24.3519   24.2847 N   0  0  0  0  0  0  0  0  0  0  0  0
  -29.9486  -13.5359   20.3649 N   0  0  0  0  0  0  0  0  0  0  0  0
  -25.4594  -15.0611   20.3534 N   0  0  0  0  0  0  0  0  0  0  0  0
  -21.8438  -12.6555   21.5929 N   0  0  0  0  0  0  0  0  0  0  0  0
  -36.3345  -27.3947   23.6593 N   0  0  0  0  0  0  0  0  0  0  0  0
  -41.1762  -22.6925   24.6130 N   0  0  0  0  0  0  0  0  0  0  0  0
  -41.2705  -20.1862   27.2163 N   0  3  0  0  0  0  0  0  0  0  0  0
  -22.6463  -14.7795   21.2721 O   0  0  0  0  0  0  0  0  0  0  0  0
  -37.2769  -25.7151   22.3503 O   0  0  0  0  0  0  0  0  0  0  0  0
  -31.9046  -14.7899   20.3222 O   0  0  0  0  0  0  0  0  0  0  0  0
  -40.2954  -25.4187   24.5855 O   0  0  0  0  0  0  0  0  0  0  0  0
  -40.0256  -20.6834   24.7425 O   0  0  0  0  0  0  0  0  0  0  0  0
  -21.5004   -7.0993   21.8074 O   0  0  0  0  0  0  0  0  0  0  0  0
  -33.2651  -20.7266   23.9394 O   0  0  0  0  0  0  0  0  0  1  0  0
  -23.8813   -3.0703   24.7235 F   0  0  0  0  0  0  0  0  0  0  0  0
  -20.4440   -6.2869   24.2295 F   0  0  0  0  0  0  0  0  0  0  0  0
  -30.7197  -17.7863   19.5088 Cl  0  0  0  0  0  0  0  0  0  0  0  0
  -33.3072  -17.6531   25.1871 Cl  0  0  0  0  0  0  0  0  0  0  0  0
  1  2  1  0  0  0  0
  1  5  2  0  0  0  0
  2  6  2  0  0  0  0
  3  8  2  0  0  0  0
  3 17  1  0  0  0  0
  4  9  1  0  0  0  0
  4 17  2  0  0  0  0
  5 19  1  0  0  0  0
  6 21  1  0  0  0  0
  7 10  2  0  0  0  0
  7 20  1  0  0  0  0
  8 25  1  0  0  0  0
  9 25  2  0  0  0  0
 10 26  1  0  0  0  0
 11 12  2  0  0  0  0
 11 27  1  0  0  0  0
 12 28  1  0  0  0  0
 13 22  1  0  0  0  0
 13 26  2  0  0  0  0
 14 23  2  0  0  0  0
 14 31  1  0  0  0  0
 15 24  1  0  0  0  0
 15 30  2  0  0  0  0
 16 28  2  0  0  0  0
 16 29  1  0  0  0  0
 17 32  1  0  0  0  0
 18 32  1  0  0  0  0
 18 33  2  0  0  0  0
 18 34  1  0  0  0  0
 19 21  2  0  0  0  0
 19 39  1  0  0  0  0
 20 22  2  0  0  0  0
 20 40  1  0  0  0  0
 21 48  1  0  0  0  0
 22 41  1  0  0  0  0
 23 30  1  0  0  0  0
 23 56  1  0  0  0  0
 24 31  2  0  0  0  0
 24 57  1  0  0  0  0
 25 75  1  0  0  0  0
 26 76  1  0  0  0  0
 27 29  2  0  0  0  0
 27 75  1  0  0  0  0
 28 77  1  0  0  0  0
 29 78  1  0  0  0  0
 30 79  1  0  0  0  0
 31 80  1  0  0  0  0
 32 61  2  0  0  0  0
 33 62  1  0  0  0  0
 33 65  1  0  0  0  0
 34 66  1  0  0  0  0
 34 70  2  0  0  0  0
 35 49  1  0  0  0  0
 35 67  1  0  0  0  0
 35 71  2  0  0  0  0
 36 56  1  0  0  0  0
 36 64  1  0  0  0  0
 36 72  2  0  0  0  0
 37 58  1  0  0  0  0
 37 63  1  0  0  0  0
 37 73  2  0  0  0  0
 38 59  1  0  0  0  0
 38 68  1  0  0  0  0
 38 74  2  0  0  0  0
 39 42  1  0  0  0  0
 40 49  1  0  0  0  0
 41 63  1  0  0  0  0
 42 44  1  0  0  0  0
 43 45  1  0  0  0  0
 43 46  1  0  0  0  0
 44 48  1  0  0  0  0
 45 50  1  0  0  0  0
 46 64  1  0  0  0  0
 47 50  1  0  0  0  0
 47 64  1  0  0  0  0
 48 67  1  0  0  0  0
 49 63  1  0  0  0  0
 50 62  1  0  0  0  0
 51 59  1  0  0  0  0
 52 60  1  0  0  0  0
 53 60  1  0  0  0  0
 54 60  1  0  0  0  0
 55 69  1  0  0  0  0
 57 76  1  0  0  0  0
 58 60  1  0  0  0  0
 58 68  1  0  0  0  0
 59 69  1  0  0  0  0
 61 62  1  0  0  0  0
M  CHG  1  69   1
M  ISO  4  36 100  56 100  57 101  76 101
M  END
> <Batch ID>
0032

> <Smiles>
CNC(C)C(=O)NC(C(=O)N1Cc2cc([101O:1][101CH2:1]c3cc(Cl)c([100CH2:0][100C:0](=O)N4CCCC(n5nc(-c6ccc(Oc7ccc(F)cc7F)cc6)c(C(N)=O)c5N)C4)cc3Cl)ccc2CC1C(=O)NC1CCCc2ccccc21)C(C)(C)C

> <Shape>
0.179

> <Color>
0.209

> <Negative vol penalty>
0.000

$$$$

  -OEChem-04052316453D

 85 93  0     1  0  0  0  0  0999 V2000
  -28.3118  -23.2159   17.2545 C   0  0  0  0  0  0  0  0  0  0  0  0
  -27.2264  -23.3908   18.1070 C   0  0  0  0  0  0  0  0  0  0  0  0
  -25.2590  -11.9382   20.3877 C   0  0  0  0  0  0  0  0  0  0  0  0
  -25.3672  -12.7125   22.6737 C   0  0  0  0  0  0  0  0  0  0  0  0
  -29.4876  -23.9340   17.4685 C   0  0  0  0  0  0  0  0  0  0  0  0
  -27.3165  -24.2833   19.1746 C   0  0  0  0  0  0  0  0  0  0  0  0
  -23.2021  -27.2020   19.6192 C   0  0  0  0  0  0  0  0  0  0  0  0
  -25.6226  -10.6577   20.8042 C   0  0  0  0  0  0  0  0  0  0  0  0
  -25.7308  -11.4318   23.0902 C   0  0  0  0  0  0  0  0  0  0  0  0
  -22.0742  -26.6277   20.2039 C   0  0  0  0  0  0  0  0  0  0  0  0
  -26.1708   -7.0998   21.3108 C   0  0  0  0  0  0  0  0  0  0  0  0
  -25.4596   -6.0208   20.7858 C   0  0  0  0  0  0  0  0  0  0  0  0
  -22.6134  -27.7089   22.2918 C   0  0  0  0  0  0  0  0  0  0  0  0
  -21.6051  -23.0231   23.6960 C   0  0  0  0  0  0  0  0  0  0  0  0
  -23.4183   -6.9099   21.7239 C   0  0  0  0  0  0  0  0  0  0  0  0
  -21.4745  -24.4211   26.0357 C   0  0  0  0  0  0  0  0  0  0  0  0
  -25.1313  -12.9657   21.3225 C   0  0  0  0  0  0  0  0  0  0  0  0
  -23.4528  -14.8081   20.7789 C   0  0  0  0  0  0  0  0  0  0  0  0
  -29.5888  -24.8430   18.5335 C   0  0  0  0  0  0  0  0  0  0  0  0
  -24.0515  -28.0267   20.3707 C   0  0  0  0  0  0  0  0  0  0  0  0
  -28.4952  -25.0133   19.4038 C   0  0  0  0  0  0  0  0  0  0  0  0
  -23.7500  -28.2945   21.7136 C   0  0  0  0  0  0  0  0  0  0  0  0
  -20.6173  -23.9879   23.8598 C   0  0  0  0  0  0  0  0  0  0  0  0
  -25.8585  -10.4044   22.1554 C   0  0  0  0  0  0  0  0  0  0  0  0
  -21.7813  -26.8788   21.5412 C   0  0  0  0  0  0  0  0  0  0  0  0
  -25.5057   -8.0839   22.0424 C   0  0  0  0  0  0  0  0  0  0  0  0
  -24.0834   -5.9259   20.9923 C   0  0  0  0  0  0  0  0  0  0  0  0
  -24.1295   -7.9889   22.2489 C   0  0  0  0  0  0  0  0  0  0  0  0
  -20.5440  -24.7047   25.0490 C   0  0  0  0  0  0  0  0  0  0  0  0
  -24.7563  -14.2889   20.8928 C   0  0  0  0  0  0  0  0  0  0  0  0
  -22.4882  -22.8149   24.7431 C   0  0  0  0  0  0  0  0  0  0  0  0
  -23.6335  -16.0954   20.3352 C   0  0  0  0  0  0  0  0  0  0  0  0
  -22.1914  -14.1828   21.0499 C   0  0  0  0  0  0  0  0  0  0  0  0
  -27.1045  -27.8986   21.2461 C   0  0  0  0  0  0  0  0  0  0  0  0
  -26.4945  -30.8688   22.3985 C   0  0  0  0  0  0  0  0  0  0  0  0
  -24.1953  -33.1184   23.5384 C   0  0  0  0  0  0  0  0  0  0  0  0
  -28.1905  -19.9552   20.7677 C   0  0  0  0  0  0  0  0  0  0  0  0
  -30.8965  -25.5616   18.7528 C   0  0  0  0  0  0  0  0  0  0  0  0
  -25.2495  -28.6601   19.7180 C   0  0  0  0  0  0  0  0  0  0  0  0
  -24.6187  -29.1891   22.5583 C   0  0  0  0  0  0  0  0  0  0  0  0
  -30.7813  -26.7653   19.6844 C   0  0  0  0  0  0  0  0  0  0  0  0
  -26.6522  -18.7853   17.7774 C   0  0  0  0  0  0  0  0  0  0  0  0
  -29.9757  -26.4028   20.9280 C   0  0  0  0  0  0  0  0  0  0  0  0
  -25.8743  -17.5471   18.2265 C   0  0  0  0  0  0  0  0  0  0  0  0
  -27.9760  -18.9224   18.5263 C   0  0  0  0  0  0  0  0  0  0  0  0
  -27.0832  -17.6603   20.4455 C   0  0  0  0  0  0  0  0  0  0  0  0
  -28.5457  -25.9906   20.5581 C   0  0  1  0  0  0  0  0  0  0  0  0
  -26.3270  -29.0704   20.7170 C   0  0  1  0  0  0  0  0  0  0  0  0
  -25.7152  -17.5099   19.7583 C   0  0  2  0  0  0  0  0  0  0  0  0
  -24.0024  -35.4509   24.4438 C   0  0  0  0  0  0  0  0  0  0  0  0
  -27.5783  -29.9127   25.0857 C   0  0  0  0  0  0  0  0  0  0  0  0
  -26.5028  -31.9072   26.1503 C   0  0  0  0  0  0  0  0  0  0  0  0
  -28.2879  -32.2213   24.4364 C   0  0  0  0  0  0  0  0  0  0  0  0
  -22.4606  -33.9696   21.2966 C   0  0  0  0  0  0  0  0  0  0  0  0
  -19.6453  -24.2262   22.7300 C   0  0  0  0  0  0  0  0  0  0  0  0
  -23.5620  -21.7880   24.6020 C   0  0  0  0  0  0  0  0  0  0  0  0
  -24.8510  -22.3739   24.0072 C   0  0  0  0  0  0  0  0  0  0  0  0
  -25.9312  -21.3046   23.8305 C   0  0  0  0  0  0  0  0  0  0  0  0
  -27.2240  -21.9081   23.2738 C   0  0  0  0  0  0  0  0  0  0  0  0
  -28.3185  -20.8650   23.0731 C   0  0  0  0  0  0  0  0  0  0  0  0
  -20.2554  -25.0557   21.6054 C   0  0  0  0  0  0  0  0  0  1  0  0
  -26.0002  -31.4253   23.7118 C   0  0  1  0  0  0  0  0  0  0  0  0
  -23.9608  -34.5792   23.1983 C   0  0  2  0  0  0  0  0  0  0  0  0
  -27.0768  -31.3482   24.8309 C   0  0  0  0  0  0  0  0  0  0  0  0
  -22.4482  -23.4914   25.9129 N   0  0  0  0  0  0  0  0  0  0  0  0
  -25.6958  -15.1739   20.5491 N   0  0  0  0  0  0  0  0  0  0  0  0
  -24.9818  -16.2623   20.2148 N   0  0  0  0  0  0  0  0  0  0  0  0
  -25.7822  -29.7799   21.8764 N   0  0  0  0  0  0  0  0  0  0  0  0
  -27.7552  -18.8812   19.9738 N   0  0  0  0  0  0  0  0  0  0  0  0
  -22.7691  -17.0894   20.0402 N   0  0  0  0  0  0  0  0  0  0  0  0
  -22.1866  -12.8552   21.4989 N   0  0  0  0  0  0  0  0  0  0  0  0
  -27.7419  -27.1587   20.2685 N   0  0  0  0  0  0  0  0  0  0  0  0
  -25.5266  -32.7762   23.4304 N   0  0  0  0  0  0  0  0  0  0  0  0
  -27.9363  -19.8389   22.1288 N   0  0  0  0  0  0  0  0  0  0  0  0
  -22.6314  -34.7526   22.5475 N   0  3  0  0  0  0  0  0  0  0  0  0
  -21.1000  -14.7783   20.8826 O   0  0  0  0  0  0  0  0  0  0  0  0
  -27.1259  -27.6826   22.4522 O   0  0  0  0  0  0  0  0  0  0  0  0
  -27.4722  -31.3859   21.8522 O   0  0  0  0  0  0  0  0  0  0  0  0
  -23.2886  -32.3580   23.8705 O   0  0  0  0  0  0  0  0  0  0  0  0
  -28.7585  -20.9468   20.2975 O   0  0  0  0  0  0  0  0  0  0  0  0
  -26.2131   -9.1549   22.5622 O   0  0  0  0  0  0  0  0  0  0  0  0
  -20.6814  -26.3190   22.1145 O   0  0  0  0  0  0  0  0  0  1  0  0
  -23.4003   -4.8904   20.4869 F   0  0  0  0  0  0  0  0  0  0  0  0
  -23.4849   -8.9317   22.9498 F   0  0  0  0  0  0  0  0  0  0  0  0
  -19.3483  -25.9101   25.3221 Cl  0  0  0  0  0  0  0  0  0  0  0  0
  1  2  1  0  0  0  0
  1  5  2  0  0  0  0
  2  6  2  0  0  0  0
  3  8  2  0  0  0  0
  3 17  1  0  0  0  0
  4  9  1  0  0  0  0
  4 17  2  0  0  0  0
  5 19  1  0  0  0  0
  6 21  1  0  0  0  0
  7 10  2  0  0  0  0
  7 20  1  0  0  0  0
  8 24  1  0  0  0  0
  9 24  2  0  0  0  0
 10 25  1  0  0  0  0
 11 12  2  0  0  0  0
 11 26  1  0  0  0  0
 12 27  1  0  0  0  0
 13 22  1  0  0  0  0
 13 25  2  0  0  0  0
 14 23  1  0  0  0  0
 14 31  2  0  0  0  0
 15 27  2  0  0  0  0
 15 28  1  0  0  0  0
 16 29  1  0  0  0  0
 16 65  2  0  0  0  0
 17 30  1  0  0  0  0
 18 30  1  0  0  0  0
 18 32  2  0  0  0  0
 18 33  1  0  0  0  0
 19 21  2  0  0  0  0
 19 38  1  0  0  0  0
 20 22  2  0  0  0  0
 20 39  1  0  0  0  0
 21 47  1  0  0  0  0
 22 40  1  0  0  0  0
 23 29  2  0  0  0  0
 23 55  1  0  0  0  0
 24 81  1  0  0  0  0
 25 82  1  0  0  0  0
 26 28  2  0  0  0  0
 26 81  1  0  0  0  0
 27 83  1  0  0  0  0
 28 84  1  0  0  0  0
 29 85  1  0  0  0  0
 30 66  2  0  0  0  0
 31 56  1  0  0  0  0
 31 65  1  0  0  0  0
 32 67  1  0  0  0  0
 32 70  1  0  0  0  0
 33 71  1  0  0  0  0
 33 76  2  0  0  0  0
 34 48  1  0  0  0  0
 34 72  1  0  0  0  0
 34 77  2  0  0  0  0
 35 62  1  0  0  0  0
 35 68  1  0  0  0  0
 35 78  2  0  0  0  0
 36 63  1  0  0  0  0
 36 73  1  0  0  0  0
 36 79  2  0  0  0  0
 37 69  1  0  0  0  0
 37 74  1  0  0  0  0
 37 80  2  0  0  0  0
 38 41  1  0  0  0  0
 39 48  1  0  0  0  0
 40 68  1  0  0  0  0
 41 43  1  0  0  0  0
 42 44  1  0  0  0  0
 42 45  1  0  0  0  0
 43 47  1  0  0  0  0
 44 49  1  0  0  0  0
 45 69  1  0  0  0  0
 46 49  1  0  0  0  0
 46 69  1  0  0  0  0
 47 72  1  0  0  0  0
 48 68  1  0  0  0  0
 49 67  1  0  0  0  0
 50 63  1  0  0  0  0
 51 64  1  0  0  0  0
 52 64  1  0  0  0  0
 53 64  1  0  0  0  0
 54 75  1  0  0  0  0
 55 61  1  0  0  0  0
 56 57  1  0  0  0  0
 57 58  1  0  0  0  0
 58 59  1  0  0  0  0
 59 60  1  0  0  0  0
 60 74  1  0  0  0  0
 61 82  1  0  0  0  0
 62 64  1  0  0  0  0
 62 73  1  0  0  0  0
 63 75  1  0  0  0  0
 66 67  1  0  0  0  0
M  CHG  1  75   1
M  ISO  4  37 100  61 101  74 100  82 101
M  END
> <Batch ID>
0032

> <Smiles>
CNC(C)C(=O)NC(C(=O)N1Cc2cc([101O:1][101CH2:1]Cc3cc(CCCCC[100NH:0][100C:0](=O)N4CCCC(n5nc(-c6ccc(Oc7ccc(F)cc7F)cc6)c(C(N)=O)c5N)C4)ncc3Cl)ccc2CC1C(=O)NC1CCCc2ccccc21)C(C)(C)C

> <Shape>
0.271

> <Color>
0.082

> <Negative vol penalty>
0.000

$$$$

  -OEChem-04052316453D

 84 92  0     1  0  0  0  0  0999 V2000
  -19.2711  -22.1570   20.6330 C   0  0  0  0  0  0  0  0  0  0  0  0
  -20.5346  -22.2893   21.2000 C   0  0  0  0  0  0  0  0  0  0  0  0
  -23.3154   -9.7380   19.8915 C   0  0  0  0  0  0  0  0  0  0  0  0
  -23.4383  -10.0421   22.2851 C   0  0  0  0  0  0  0  0  0  0  0  0
  -18.1360  -22.4575   21.3848 C   0  0  0  0  0  0  0  0  0  0  0  0
  -20.6637  -22.7232   22.5189 C   0  0  0  0  0  0  0  0  0  0  0  0
  -24.0098  -19.9782   25.1483 C   0  0  0  0  0  0  0  0  0  0  0  0
  -22.5517   -8.5857   20.0771 C   0  0  0  0  0  0  0  0  0  0  0  0
  -22.6744   -8.8899   22.4708 C   0  0  0  0  0  0  0  0  0  0  0  0
  -25.3612  -20.2468   24.9352 C   0  0  0  0  0  0  0  0  0  0  0  0
  -23.1596   -5.5443   22.4197 C   0  0  0  0  0  0  0  0  0  0  0  0
  -23.5795   -4.6383   23.3935 C   0  0  0  0  0  0  0  0  0  0  0  0
  -25.4118  -21.5640   26.9555 C   0  0  0  0  0  0  0  0  0  0  0  0
  -29.5143  -17.2045   26.8185 C   0  0  0  0  0  0  0  0  0  0  0  0
  -29.7846  -19.1666   24.8538 C   0  0  0  0  0  0  0  0  0  0  0  0
  -21.4831   -4.9211   24.5606 C   0  0  0  0  0  0  0  0  0  0  0  0
  -23.7588  -10.4662   20.9955 C   0  0  0  0  0  0  0  0  0  0  0  0
  -24.0772  -12.9751   20.6612 C   0  0  0  0  0  0  0  0  0  0  0  0
  -18.2509  -22.8860   22.7166 C   0  0  0  0  0  0  0  0  0  0  0  0
  -23.3455  -20.5104   26.2627 C   0  0  0  0  0  0  0  0  0  0  0  0
  -19.5292  -23.0310   23.2888 C   0  0  0  0  0  0  0  0  0  0  0  0
  -24.0526  -21.2986   27.1819 C   0  0  0  0  0  0  0  0  0  0  0  0
  -29.6747  -16.8364   25.4827 C   0  0  0  0  0  0  0  0  0  0  0  0
  -29.6243  -19.5346   26.1896 C   0  0  0  0  0  0  0  0  0  0  0  0
  -22.2311   -8.1616   21.3667 C   0  0  0  0  0  0  0  0  0  0  0  0
  -26.0617  -21.0422   25.8374 C   0  0  0  0  0  0  0  0  0  0  0  0
  -21.9014   -6.1388   22.5163 C   0  0  0  0  0  0  0  0  0  0  0  0
  -22.7413   -4.3267   24.4640 C   0  0  0  0  0  0  0  0  0  0  0  0
  -21.0632   -5.8271   23.5867 C   0  0  0  0  0  0  0  0  0  0  0  0
  -29.8099  -17.8174   24.5003 C   0  0  0  0  0  0  0  0  0  0  0  0
  -29.4891  -18.5536   27.1719 C   0  0  0  0  0  0  0  0  0  0  0  0
  -24.5483  -11.6563   20.8045 C   0  0  0  0  0  0  0  0  0  0  0  0
  -25.2136  -13.7309   20.5077 C   0  0  0  0  0  0  0  0  0  0  0  0
  -22.7324  -13.4724   20.6666 C   0  0  0  0  0  0  0  0  0  0  0  0
  -20.9009  -22.4991   26.6782 C   0  0  0  0  0  0  0  0  0  0  0  0
  -21.2951  -21.7108   29.8000 C   0  0  0  0  0  0  0  0  0  0  0  0
  -23.3661  -20.5694   32.2607 C   0  0  0  0  0  0  0  0  0  0  0  0
  -30.9045  -12.9244   22.1856 C   0  0  0  0  0  0  0  0  0  0  0  0
  -16.9972  -23.2444   23.4746 C   0  0  0  0  0  0  0  0  0  0  0  0
  -21.8941  -20.1893   26.4925 C   0  0  0  0  0  0  0  0  0  0  0  0
  -23.3906  -21.8771   28.4048 C   0  0  0  0  0  0  0  0  0  0  0  0
  -17.2041  -23.3389   24.9841 C   0  0  0  0  0  0  0  0  0  0  0  0
  -29.7028  -13.4539   18.8762 C   0  0  0  0  0  0  0  0  0  0  0  0
  -18.4578  -24.1478   25.3014 C   0  0  0  0  0  0  0  0  0  0  0  0
  -28.2030  -13.1723   18.9822 C   0  0  0  0  0  0  0  0  0  0  0  0
  -30.5166  -12.5228   19.7722 C   0  0  0  0  0  0  0  0  0  0  0  0
  -28.6006  -12.2231   21.2930 C   0  0  0  0  0  0  0  0  0  0  0  0
  -19.7092  -23.4750   24.7242 C   0  0  1  0  0  0  0  0  0  0  0  0
  -21.1915  -21.2063   27.3867 C   0  0  1  0  0  0  0  0  0  0  0  0
  -27.7344  -13.1744   20.4497 C   0  0  2  0  0  0  0  0  0  0  0  0
  -23.4149  -20.0678   34.7191 C   0  0  0  0  0  0  0  0  0  0  0  0
  -21.4612  -24.6971   30.4036 C   0  0  0  0  0  0  0  0  0  0  0  0
  -22.4383  -24.1208   32.6355 C   0  0  0  0  0  0  0  0  0  0  0  0
  -20.1308  -23.3715   32.0550 C   0  0  0  0  0  0  0  0  0  0  0  0
  -23.9748  -17.7127   31.7838 C   0  0  0  0  0  0  0  0  0  0  0  0
  -29.6969  -15.3804   25.1459 C   0  0  0  0  0  0  0  0  0  0  0  0
  -29.6014  -21.0047   26.5311 C   0  0  0  0  0  0  0  0  0  0  0  0
  -31.1065  -14.8025   24.9198 C   0  0  0  0  0  0  0  0  0  0  0  0
  -31.1330  -13.3038   24.6275 C   0  0  0  0  0  0  0  0  0  0  0  0
  -28.1889  -21.5184   26.7882 C   0  0  0  0  0  0  0  0  0  1  0  0
  -22.1114  -22.2581   30.9460 C   0  0  1  0  0  0  0  0  0  0  0  0
  -23.1733  -19.5059   33.3267 C   0  0  2  0  0  0  0  0  0  0  0  0
  -21.5477  -23.6027   31.4860 C   0  0  0  0  0  0  0  0  0  0  0  0
  -25.8803  -11.5755   20.7469 N   0  0  0  0  0  0  0  0  0  0  0  0
  -26.2558  -12.8531   20.5657 N   0  0  0  0  0  0  0  0  0  0  0  0
  -21.9685  -21.5399   28.5822 N   0  0  0  0  0  0  0  0  0  0  0  0
  -30.0226  -12.5729   21.1503 N   0  0  0  0  0  0  0  0  0  0  0  0
  -25.4132  -15.0542   20.3300 N   0  0  0  0  0  0  0  0  0  0  0  0
  -21.6829  -12.5591   20.8358 N   0  0  0  0  0  0  0  0  0  0  0  0
  -20.1108  -22.3589   25.5532 N   0  0  0  0  0  0  0  0  0  0  0  0
  -22.1792  -21.1952   31.9430 N   0  0  0  0  0  0  0  0  0  0  0  0
  -30.3536  -12.9540   23.4609 N   0  0  0  0  0  0  0  0  0  0  0  0
  -24.1177  -18.3744   33.1062 N   0  3  0  0  0  0  0  0  0  0  0  0
  -22.4685  -14.6886   20.5091 O   0  0  0  0  0  0  0  0  0  0  0  0
  -21.3582  -23.5465   27.1204 O   0  0  0  0  0  0  0  0  0  0  0  0
  -20.1057  -21.4382   29.9807 O   0  0  0  0  0  0  0  0  0  0  0  0
  -24.4608  -20.8225   31.7626 O   0  0  0  0  0  0  0  0  0  0  0  0
  -32.0932  -13.1972   21.9874 O   0  0  0  0  0  0  0  0  0  0  0  0
  -21.4856   -7.0374   21.5482 O   0  0  0  0  0  0  0  0  0  0  0  0
  -27.3807  -21.3064   25.6314 O   0  0  0  0  0  0  0  0  0  1  0  0
  -23.1440   -3.4555   25.3983 F   0  0  0  0  0  0  0  0  0  0  0  0
  -19.8529   -6.3941   23.6843 F   0  0  0  0  0  0  0  0  0  0  0  0
  -30.0114  -17.3990   22.8380 Cl  0  0  0  0  0  0  0  0  0  0  0  0
  -29.2888  -18.9716   28.8347 Cl  0  0  0  0  0  0  0  0  0  0  0  0
  1  2  1  0  0  0  0
  1  5  2  0  0  0  0
  2  6  2  0  0  0  0
  3  8  2  0  0  0  0
  3 17  1  0  0  0  0
  4  9  1  0  0  0  0
  4 17  2  0  0  0  0
  5 19  1  0  0  0  0
  6 21  1  0  0  0  0
  7 10  2  0  0  0  0
  7 20  1  0  0  0  0
  8 25  1  0  0  0  0
  9 25  2  0  0  0  0
 10 26  1  0  0  0  0
 11 12  2  0  0  0  0
 11 27  1  0  0  0  0
 12 28  1  0  0  0  0
 13 22  1  0  0  0  0
 13 26  2  0  0  0  0
 14 23  2  0  0  0  0
 14 31  1  0  0  0  0
 15 24  1  0  0  0  0
 15 30  2  0  0  0  0
 16 28  2  0  0  0  0
 16 29  1  0  0  0  0
 17 32  1  0  0  0  0
 18 32  1  0  0  0  0
 18 33  2  0  0  0  0
 18 34  1  0  0  0  0
 19 21  2  0  0  0  0
 19 39  1  0  0  0  0
 20 22  2  0  0  0  0
 20 40  1  0  0  0  0
 21 48  1  0  0  0  0
 22 41  1  0  0  0  0
 23 30  1  0  0  0  0
 23 56  1  0  0  0  0
 24 31  2  0  0  0  0
 24 57  1  0  0  0  0
 25 79  1  0  0  0  0
 26 80  1  0  0  0  0
 27 29  2  0  0  0  0
 27 79  1  0  0  0  0
 28 81  1  0  0  0  0
 29 82  1  0  0  0  0
 30 83  1  0  0  0  0
 31 84  1  0  0  0  0
 32 64  2  0  0  0  0
 33 65  1  0  0  0  0
 33 68  1  0  0  0  0
 34 69  1  0  0  0  0
 34 74  2  0  0  0  0
 35 49  1  0  0  0  0
 35 70  1  0  0  0  0
 35 75  2  0  0  0  0
 36 61  1  0  0  0  0
 36 66  1  0  0  0  0
 36 76  2  0  0  0  0
 37 62  1  0  0  0  0
 37 71  1  0  0  0  0
 37 77  2  0  0  0  0
 38 67  1  0  0  0  0
 38 72  1  0  0  0  0
 38 78  2  0  0  0  0
 39 42  1  0  0  0  0
 40 49  1  0  0  0  0
 41 66  1  0  0  0  0
 42 44  1  0  0  0  0
 43 45  1  0  0  0  0
 43 46  1  0  0  0  0
 44 48  1  0  0  0  0
 45 50  1  0  0  0  0
 46 67  1  0  0  0  0
 47 50  1  0  0  0  0
 47 67  1  0  0  0  0
 48 70  1  0  0  0  0
 49 66  1  0  0  0  0
 50 65  1  0  0  0  0
 51 62  1  0  0  0  0
 52 63  1  0  0  0  0
 53 63  1  0  0  0  0
 54 63  1  0  0  0  0
 55 73  1  0  0  0  0
 56 58  1  0  0  0  0
 57 60  1  0  0  0  0
 58 59  1  0  0  0  0
 59 72  1  0  0  0  0
 60 80  1  0  0  0  0
 61 63  1  0  0  0  0
 61 71  1  0  0  0  0
 62 73  1  0  0  0  0
 64 65  1  0  0  0  0
M  CHG  1  73   1
M  ISO  4  38 100  60 101  72 100  80 101
M  END
> <Batch ID>
0032

> <Smiles>
CNC(C)C(=O)NC(C(=O)N1Cc2cc([101O:1][101CH2:1]Cc3cc(Cl)c(CCC[100NH:0][100C:0](=O)N4CCCC(n5nc(-c6ccc(Oc7ccc(F)cc7F)cc6)c(C(N)=O)c5N)C4)cc3Cl)ccc2CC1C(=O)NC1CCCc2ccccc21)C(C)(C)C

> <Shape>
0.141

> <Color>
0.183

> <Negative vol penalty>
0.000

$$$$

  -OEChem-04052316453D

 83 91  0     1  0  0  0  0  0999 V2000
  -19.3994  -28.7220   15.5930 C   0  0  0  0  0  0  0  0  0  0  0  0
  -19.8492  -27.4118   15.7211 C   0  0  0  0  0  0  0  0  0  0  0  0
  -23.0470   -9.9676   19.8737 C   0  0  0  0  0  0  0  0  0  0  0  0
  -23.8531   -9.8157   22.1462 C   0  0  0  0  0  0  0  0  0  0  0  0
  -20.2959  -29.7360   15.2584 C   0  0  0  0  0  0  0  0  0  0  0  0
  -21.1957  -27.1147   15.5137 C   0  0  0  0  0  0  0  0  0  0  0  0
  -24.5230  -22.8802   18.4300 C   0  0  0  0  0  0  0  0  0  0  0  0
  -22.3077   -8.7993   20.0578 C   0  0  0  0  0  0  0  0  0  0  0  0
  -23.1138   -8.6473   22.3303 C   0  0  0  0  0  0  0  0  0  0  0  0
  -24.8950  -21.5807   18.0884 C   0  0  0  0  0  0  0  0  0  0  0  0
  -23.3915   -5.3724   21.5374 C   0  0  0  0  0  0  0  0  0  0  0  0
  -24.0208   -4.3001   22.1697 C   0  0  0  0  0  0  0  0  0  0  0  0
  -27.0052  -22.4083   17.2629 C   0  0  0  0  0  0  0  0  0  0  0  0
  -29.2845  -18.6467   17.6538 C   0  0  0  0  0  0  0  0  0  0  0  0
  -28.5355  -17.9962   19.8567 C   0  0  0  0  0  0  0  0  0  0  0  0
  -22.3543   -4.3531   23.9182 C   0  0  0  0  0  0  0  0  0  0  0  0
  -23.8198  -10.4758   20.9179 C   0  0  0  0  0  0  0  0  0  0  0  0
  -24.1605  -13.0035   20.9670 C   0  0  0  0  0  0  0  0  0  0  0  0
  -21.6559  -29.4527   15.0562 C   0  0  0  0  0  0  0  0  0  0  0  0
  -25.3862  -23.9566   18.1802 C   0  0  0  0  0  0  0  0  0  0  0  0
  -22.1110  -28.1256   15.1748 C   0  0  0  0  0  0  0  0  0  0  0  0
  -26.6428  -23.7202   17.6046 C   0  0  0  0  0  0  0  0  0  0  0  0
  -28.2819  -18.1652   18.4955 C   0  0  0  0  0  0  0  0  0  0  0  0
  -30.5409  -18.9589   18.1732 C   0  0  0  0  0  0  0  0  0  0  0  0
  -29.7918  -18.3085   20.3761 C   0  0  0  0  0  0  0  0  0  0  0  0
  -30.7945  -18.7899   19.5343 C   0  0  0  0  0  0  0  0  0  0  0  0
  -22.3411   -8.1391   21.2861 C   0  0  0  0  0  0  0  0  0  0  0  0
  -26.1351  -21.3449   17.5021 C   0  0  0  0  0  0  0  0  0  0  0  0
  -22.2436   -5.9351   22.0955 C   0  0  0  0  0  0  0  0  0  0  0  0
  -23.5023   -3.7905   23.3601 C   0  0  0  0  0  0  0  0  0  0  0  0
  -21.7251   -5.4255   23.2859 C   0  0  0  0  0  0  0  0  0  0  0  0
  -24.5842  -11.6824   20.7281 C   0  0  0  0  0  0  0  0  0  0  0  0
  -25.2455  -13.7774   20.6347 C   0  0  0  0  0  0  0  0  0  0  0  0
  -22.8990  -13.4878   21.4463 C   0  0  0  0  0  0  0  0  0  0  0  0
  -25.2387  -26.5829   16.3957 C   0  0  0  0  0  0  0  0  0  0  0  0
  -28.0502  -27.2672   17.8619 C   0  0  0  0  0  0  0  0  0  0  0  0
  -30.8265  -26.1218   19.4827 C   0  0  0  0  0  0  0  0  0  0  0  0
  -30.7325  -14.7856   20.7828 C   0  0  0  0  0  0  0  0  0  0  0  0
  -22.5785  -30.5744   14.6498 C   0  0  0  0  0  0  0  0  0  0  0  0
  -24.9810  -25.3491   18.5791 C   0  0  0  0  0  0  0  0  0  0  0  0
  -27.6144  -24.8388   17.3343 C   0  0  0  0  0  0  0  0  0  0  0  0
  -24.0579  -30.2361   14.8141 C   0  0  0  0  0  0  0  0  0  0  0  0
  -29.5456  -12.5719   18.2593 C   0  0  0  0  0  0  0  0  0  0  0  0
  -24.3565  -28.8545   14.2407 C   0  0  0  0  0  0  0  0  0  0  0  0
  -28.1170  -12.2475   18.6997 C   0  0  0  0  0  0  0  0  0  0  0  0
  -30.4869  -12.7094   19.4539 C   0  0  0  0  0  0  0  0  0  0  0  0
  -28.6140  -13.3406   20.9261 C   0  0  0  0  0  0  0  0  0  0  0  0
  -23.5687  -27.7676   14.9820 C   0  0  1  0  0  0  0  0  0  0  0  0
  -25.7284  -26.4329   17.8082 C   0  0  1  0  0  0  0  0  0  0  0  0
  -27.6161  -13.2476   19.7591 C   0  0  2  0  0  0  0  0  0  0  0  0
  -31.5970  -19.4738   17.2506 C   0  0  0  0  0  0  0  0  0  0  0  0
  -32.1415  -19.1252   20.0910 C   0  0  0  0  0  0  0  0  0  0  0  0
  -32.9655  -26.9156   20.5275 C   0  0  0  0  0  0  0  0  0  0  0  0
  -29.2598  -27.6520   15.0873 C   0  0  0  0  0  0  0  0  0  0  0  0
  -31.5299  -27.4964   16.1317 C   0  0  0  0  0  0  0  0  0  0  0  0
  -29.9826  -29.3413   16.7839 C   0  0  0  0  0  0  0  0  0  0  0  0
  -30.0501  -25.0797   22.1416 C   0  0  0  0  0  0  0  0  0  0  0  0
  -26.9226  -17.8267   17.9334 C   0  0  0  0  0  0  0  0  0  0  0  0
  -30.0380  -18.1186   21.8373 C   0  0  0  0  0  0  0  0  0  0  0  0
  -30.8245  -16.8449   22.1647 C   0  0  0  0  0  0  0  0  0  0  0  0
  -25.9705  -19.0174   17.9616 C   0  0  0  0  0  0  0  0  0  1  0  0
  -29.5044  -26.9863   17.5698 C   0  0  1  0  0  0  0  0  0  0  0  0
  -31.5028  -26.5735   20.7644 C   0  0  2  0  0  0  0  0  0  0  0  0
  -30.0503  -27.8480   16.3964 C   0  0  0  0  0  0  0  0  0  0  0  0
  -25.8403  -11.6170   20.2788 N   0  0  0  0  0  0  0  0  0  0  0  0
  -26.2152  -12.9067   20.2325 N   0  0  0  0  0  0  0  0  0  0  0  0
  -27.1695  -26.1834   17.7363 N   0  0  0  0  0  0  0  0  0  0  0  0
  -29.9549  -13.6733   20.4202 N   0  0  0  0  0  0  0  0  0  0  0  0
  -25.4551  -15.1109   20.6503 N   0  0  0  0  0  0  0  0  0  0  0  0
  -21.8936  -12.5565   21.7399 N   0  0  0  0  0  0  0  0  0  0  0  0
  -24.1904  -27.4721   16.2551 N   0  0  0  0  0  0  0  0  0  0  0  0
  -30.2170  -27.1719   18.8293 N   0  0  0  0  0  0  0  0  0  0  0  0
  -30.1510  -15.6530   21.6993 N   0  0  0  0  0  0  0  0  0  0  0  0
  -31.4324  -25.4984   21.7940 N   0  3  0  0  0  0  0  0  0  0  0  0
  -22.6647  -14.7113   21.5939 O   0  0  0  0  0  0  0  0  0  0  0  0
  -25.7735  -25.9406   15.4994 O   0  0  0  0  0  0  0  0  0  0  0  0
  -27.7092  -28.4046   18.1964 O   0  0  0  0  0  0  0  0  0  0  0  0
  -30.8409  -24.9547   19.0975 O   0  0  0  0  0  0  0  0  0  0  0  0
  -31.8592  -14.9931   20.3196 O   0  0  0  0  0  0  0  0  0  0  0  0
  -21.6196   -6.9991   21.4661 O   0  0  0  0  0  0  0  0  0  0  0  0
  -26.5005  -20.0776   17.1671 O   0  0  0  0  0  0  0  0  0  1  0  0
  -24.1058   -2.7598   23.9664 F   0  0  0  0  0  0  0  0  0  0  0  0
  -20.6219   -5.9611   23.8262 F   0  0  0  0  0  0  0  0  0  0  0  0
  1  2  1  0  0  0  0
  1  5  2  0  0  0  0
  2  6  2  0  0  0  0
  3  8  2  0  0  0  0
  3 17  1  0  0  0  0
  4  9  1  0  0  0  0
  4 17  2  0  0  0  0
  5 19  1  0  0  0  0
  6 21  1  0  0  0  0
  7 10  2  0  0  0  0
  7 20  1  0  0  0  0
  8 27  1  0  0  0  0
  9 27  2  0  0  0  0
 10 28  1  0  0  0  0
 11 12  2  0  0  0  0
 11 29  1  0  0  0  0
 12 30  1  0  0  0  0
 13 22  1  0  0  0  0
 13 28  2  0  0  0  0
 14 23  1  0  0  0  0
 14 24  2  0  0  0  0
 15 23  2  0  0  0  0
 15 25  1  0  0  0  0
 16 30  2  0  0  0  0
 16 31  1  0  0  0  0
 17 32  1  0  0  0  0
 18 32  1  0  0  0  0
 18 33  2  0  0  0  0
 18 34  1  0  0  0  0
 19 21  2  0  0  0  0
 19 39  1  0  0  0  0
 20 22  2  0  0  0  0
 20 40  1  0  0  0  0
 21 48  1  0  0  0  0
 22 41  1  0  0  0  0
 23 58  1  0  0  0  0
 24 26  1  0  0  0  0
 24 51  1  0  0  0  0
 25 26  2  0  0  0  0
 25 59  1  0  0  0  0
 26 52  1  0  0  0  0
 27 80  1  0  0  0  0
 28 81  1  0  0  0  0
 29 31  2  0  0  0  0
 29 80  1  0  0  0  0
 30 82  1  0  0  0  0
 31 83  1  0  0  0  0
 32 65  2  0  0  0  0
 33 66  1  0  0  0  0
 33 69  1  0  0  0  0
 34 70  1  0  0  0  0
 34 75  2  0  0  0  0
 35 49  1  0  0  0  0
 35 71  1  0  0  0  0
 35 76  2  0  0  0  0
 36 62  1  0  0  0  0
 36 67  1  0  0  0  0
 36 77  2  0  0  0  0
 37 63  1  0  0  0  0
 37 72  1  0  0  0  0
 37 78  2  0  0  0  0
 38 68  1  0  0  0  0
 38 73  1  0  0  0  0
 38 79  2  0  0  0  0
 39 42  1  0  0  0  0
 40 49  1  0  0  0  0
 41 67  1  0  0  0  0
 42 44  1  0  0  0  0
 43 45  1  0  0  0  0
 43 46  1  0  0  0  0
 44 48  1  0  0  0  0
 45 50  1  0  0  0  0
 46 68  1  0  0  0  0
 47 50  1  0  0  0  0
 47 68  1  0  0  0  0
 48 71  1  0  0  0  0
 49 67  1  0  0  0  0
 50 66  1  0  0  0  0
 53 63  1  0  0  0  0
 54 64  1  0  0  0  0
 55 64  1  0  0  0  0
 56 64  1  0  0  0  0
 57 74  1  0  0  0  0
 58 61  1  0  0  0  0
 59 60  1  0  0  0  0
 60 73  1  0  0  0  0
 61 81  1  0  0  0  0
 62 64  1  0  0  0  0
 62 72  1  0  0  0  0
 63 74  1  0  0  0  0
 65 66  1  0  0  0  0
M  CHG  1  74   1
M  ISO  4  38 100  61 101  73 100  81 101
M  END
> <Batch ID>
0032

> <Smiles>
CNC(C)C(=O)NC(C(=O)N1Cc2cc([101O:1][101CH2:1]Cc3cc(C)c(C)c(CC[100NH:0][100C:0](=O)N4CCCC(n5nc(-c6ccc(Oc7ccc(F)cc7F)cc6)c(C(N)=O)c5N)C4)c3)ccc2CC1C(=O)NC1CCCc2ccccc21)C(C)(C)C

> <Shape>
0.246

> <Color>
0.217

> <Negative vol penalty>
0.000

$$$$

  -OEChem-04052316453D

 91 99  0     1  0  0  0  0  0999 V2000
  -19.9962  -26.9178   22.9579 C   0  0  0  0  0  0  0  0  0  0  0  0
  -20.4217  -28.2041   23.2699 C   0  0  0  0  0  0  0  0  0  0  0  0
  -22.4622  -10.6529   21.4811 C   0  0  0  0  0  0  0  0  0  0  0  0
  -24.4124   -9.2481   21.2357 C   0  0  0  0  0  0  0  0  0  0  0  0
  -20.8975  -25.8569   23.0138 C   0  0  0  0  0  0  0  0  0  0  0  0
  -21.7514  -28.4317   23.6263 C   0  0  0  0  0  0  0  0  0  0  0  0
  -27.4440  -29.0008   20.7532 C   0  0  0  0  0  0  0  0  0  0  0  0
  -21.7010   -9.5360   21.8257 C   0  0  0  0  0  0  0  0  0  0  0  0
  -23.6513   -8.1312   21.5804 C   0  0  0  0  0  0  0  0  0  0  0  0
  -27.1373  -28.2210   19.6390 C   0  0  0  0  0  0  0  0  0  0  0  0
  -19.4079   -6.2976   22.8451 C   0  0  0  0  0  0  0  0  0  0  0  0
  -18.0569   -6.4945   23.1306 C   0  0  0  0  0  0  0  0  0  0  0  0
  -24.8776  -29.0646   19.6781 C   0  0  0  0  0  0  0  0  0  0  0  0
  -24.6753  -23.4811   16.8242 C   0  0  0  0  0  0  0  0  0  0  0  0
  -26.9371  -24.3330   18.2175 C   0  0  0  0  0  0  0  0  0  0  0  0
  -18.3144   -8.8609   22.7172 C   0  0  0  0  0  0  0  0  0  0  0  0
  -23.8179  -10.5089   21.1860 C   0  0  0  0  0  0  0  0  0  0  0  0
  -24.1631  -12.9955   20.7324 C   0  0  0  0  0  0  0  0  0  0  0  0
  -22.2357  -26.0705   23.3833 C   0  0  0  0  0  0  0  0  0  0  0  0
  -26.4652  -29.8114   21.3459 C   0  0  0  0  0  0  0  0  0  0  0  0
  -22.6820  -27.3777   23.6653 C   0  0  0  0  0  0  0  0  0  0  0  0
  -25.1752  -29.8557   20.7983 C   0  0  0  0  0  0  0  0  0  0  0  0
  -25.0482  -24.8248   16.7937 C   0  0  0  0  0  0  0  0  0  0  0  0
  -25.4333  -22.5633   17.5515 C   0  0  0  0  0  0  0  0  0  0  0  0
  -26.1791  -25.2508   17.4903 C   0  0  0  0  0  0  0  0  0  0  0  0
  -22.2956   -8.2752   21.8755 C   0  0  0  0  0  0  0  0  0  0  0  0
  -25.8531  -28.2506   19.1030 C   0  0  0  0  0  0  0  0  0  0  0  0
  -20.2123   -7.3823   22.4958 C   0  0  0  0  0  0  0  0  0  0  0  0
  -17.5101   -7.7761   23.0666 C   0  0  0  0  0  0  0  0  0  0  0  0
  -19.6655   -8.6640   22.4318 C   0  0  0  0  0  0  0  0  0  0  0  0
  -26.5641  -22.9893   18.2481 C   0  0  0  0  0  0  0  0  0  0  0  0
  -24.6045  -11.6622   20.8293 C   0  0  0  0  0  0  0  0  0  0  0  0
  -25.2823  -13.7019   20.3652 C   0  0  0  0  0  0  0  0  0  0  0  0
  -22.8581  -13.5461   20.9547 C   0  0  0  0  0  0  0  0  0  0  0  0
  -25.0840  -29.9326   24.2062 C   0  0  0  0  0  0  0  0  0  0  0  0
  -23.7272  -32.6234   23.0055 C   0  0  0  0  0  0  0  0  0  0  0  0
  -26.3941  -34.2629   23.3374 C   0  0  0  0  0  0  0  0  0  0  0  0
  -31.0017  -13.3449   21.6214 C   0  0  0  0  0  0  0  0  0  0  0  0
  -23.1706  -24.8874   23.4199 C   0  0  0  0  0  0  0  0  0  0  0  0
  -26.8193  -30.6670   22.5313 C   0  0  0  0  0  0  0  0  0  0  0  0
  -24.0939  -30.7247   21.3851 C   0  0  0  0  0  0  0  0  0  0  0  0
  -24.4345  -25.1532   24.2313 C   0  0  0  0  0  0  0  0  0  0  0  0
  -29.5907  -12.5743   18.2439 C   0  0  0  0  0  0  0  0  0  0  0  0
  -25.0615  -26.4706   23.8000 C   0  0  0  0  0  0  0  0  0  0  0  0
  -28.1248  -12.3200   18.5915 C   0  0  0  0  0  0  0  0  0  0  0  0
  -30.5037  -12.2245   19.4128 C   0  0  0  0  0  0  0  0  0  0  0  0
  -28.6954  -12.6850   21.0360 C   0  0  0  0  0  0  0  0  0  0  0  0
  -24.1162  -27.6445   24.0852 C   0  0  1  0  0  0  0  0  0  0  0  0
  -25.6054  -31.0638   23.3657 C   0  0  1  0  0  0  0  0  0  0  0  0
  -27.7338  -13.0441   19.8910 C   0  0  2  0  0  0  0  0  0  0  0  0
  -24.2209  -25.7906   16.0105 C   0  0  0  0  0  0  0  0  0  0  0  0
  -28.6588  -35.3265   23.1451 C   0  0  0  0  0  0  0  0  0  0  0  0
  -22.1846  -32.7647   25.6342 C   0  0  0  0  0  0  0  0  0  0  0  0
  -24.2838  -33.5599   26.7429 C   0  0  0  0  0  0  0  0  0  0  0  0
  -24.2103  -31.2992   25.6909 C   0  0  0  0  0  0  0  0  0  0  0  0
  -31.2745  -14.4741   23.8686 C   0  0  0  0  0  0  0  0  0  0  0  0
  -29.7494  -32.7448   22.3112 C   0  0  0  0  0  0  0  0  0  0  0  0
  -24.9962  -21.1199   17.5590 C   0  0  0  0  0  0  0  0  0  0  0  0
  -26.5959  -26.6849   17.4742 C   0  0  0  0  0  0  0  0  0  1  0  0
  -26.0506  -20.1481   17.0152 C   0  0  0  0  0  0  0  0  0  0  0  0
  -26.4796  -19.0369   17.9808 C   0  0  0  0  0  0  0  0  0  0  0  0
  -26.2906  -17.6290   17.4117 C   0  0  0  0  0  0  0  0  0  0  0  0
  -27.6177  -16.8661   17.3719 C   0  0  0  0  0  0  0  0  0  0  0  0
  -27.5403  -15.5768   18.1925 C   0  0  0  0  0  0  0  0  0  0  0  0
  -28.5619  -15.5186   19.3319 C   0  0  0  0  0  0  0  0  0  0  0  0
  -27.9237  -15.3618   20.7139 C   0  0  0  0  0  0  0  0  0  0  0  0
  -28.4142  -14.0908   21.4093 C   0  0  0  0  0  0  0  0  0  0  0  0
  -29.0807  -14.4097   22.7418 C   0  0  0  0  0  0  0  0  0  0  0  0
  -24.2603  -33.3517   24.2156 C   0  0  1  0  0  0  0  0  0  0  0  0
  -27.8940  -34.0328   23.3778 C   0  0  2  0  0  0  0  0  0  0  0  0
  -23.7239  -32.7579   25.5487 C   0  0  0  0  0  0  0  0  0  0  0  0
  -25.9029  -11.5271   20.5462 N   0  0  0  0  0  0  0  0  0  0  0  0
  -26.2868  -12.7845   20.2679 N   0  0  0  0  0  0  0  0  0  0  0  0
  -24.4876  -31.5381   22.5473 N   0  0  0  0  0  0  0  0  0  0  0  0
  -30.0902  -12.9057   20.6469 N   0  0  0  0  0  0  0  0  0  0  0  0
  -25.4952  -15.0121   20.1193 N   0  0  0  0  0  0  0  0  0  0  0  0
  -21.8216  -12.6792   21.3267 N   0  0  0  0  0  0  0  0  0  0  0  0
  -24.6529  -28.8415   23.4761 N   0  0  0  0  0  0  0  0  0  0  0  0
  -25.7142  -33.3332   24.0955 N   0  0  0  0  0  0  0  0  0  0  0  0
  -30.4688  -13.9707   22.7584 N   0  0  0  0  0  0  0  0  0  0  0  0
  -28.2964  -33.0538   22.3287 N   0  3  0  0  0  0  0  0  0  0  0  0
  -22.6145  -14.7682   20.8111 O   0  0  0  0  0  0  0  0  0  0  0  0
  -25.0749  -30.0412   25.4268 O   0  0  0  0  0  0  0  0  0  0  0  0
  -22.6713  -32.9989   22.4902 O   0  0  0  0  0  0  0  0  0  0  0  0
  -25.8775  -35.1782   22.7003 O   0  0  0  0  0  0  0  0  0  0  0  0
  -32.2207  -13.1773   21.4876 O   0  0  0  0  0  0  0  0  0  0  0  0
  -21.5532   -7.1851   22.2120 O   0  0  0  0  0  0  0  0  0  0  0  0
  -25.5488  -27.4846   18.0080 O   0  0  0  0  0  0  0  0  0  1  0  0
  -16.2123   -7.9648   23.3392 F   0  0  0  0  0  0  0  0  0  0  0  0
  -20.4330   -9.7098   22.0957 F   0  0  0  0  0  0  0  0  0  0  0  0
  -27.5261  -21.8827   19.1589 Cl  0  0  0  0  0  0  0  0  0  0  0  0
  1  2  1  0  0  0  0
  1  5  2  0  0  0  0
  2  6  2  0  0  0  0
  3  8  2  0  0  0  0
  3 17  1  0  0  0  0
  4  9  1  0  0  0  0
  4 17  2  0  0  0  0
  5 19  1  0  0  0  0
  6 21  1  0  0  0  0
  7 10  2  0  0  0  0
  7 20  1  0  0  0  0
  8 26  1  0  0  0  0
  9 26  2  0  0  0  0
 10 27  1  0  0  0  0
 11 12  2  0  0  0  0
 11 28  1  0  0  0  0
 12 29  1  0  0  0  0
 13 22  1  0  0  0  0
 13 27  2  0  0  0  0
 14 23  1  0  0  0  0
 14 24  2  0  0  0  0
 15 25  1  0  0  0  0
 15 31  2  0  0  0  0
 16 29  2  0  0  0  0
 16 30  1  0  0  0  0
 17 32  1  0  0  0  0
 18 32  1  0  0  0  0
 18 33  2  0  0  0  0
 18 34  1  0  0  0  0
 19 21  2  0  0  0  0
 19 39  1  0  0  0  0
 20 22  2  0  0  0  0
 20 40  1  0  0  0  0
 21 48  1  0  0  0  0
 22 41  1  0  0  0  0
 23 25  2  0  0  0  0
 23 51  1  0  0  0  0
 24 31  1  0  0  0  0
 24 58  1  0  0  0  0
 25 59  1  0  0  0  0
 26 87  1  0  0  0  0
 27 88  1  0  0  0  0
 28 30  2  0  0  0  0
 28 87  1  0  0  0  0
 29 89  1  0  0  0  0
 30 90  1  0  0  0  0
 31 91  1  0  0  0  0
 32 72  2  0  0  0  0
 33 73  1  0  0  0  0
 33 76  1  0  0  0  0
 34 77  1  0  0  0  0
 34 82  2  0  0  0  0
 35 49  1  0  0  0  0
 35 78  1  0  0  0  0
 35 83  2  0  0  0  0
 36 69  1  0  0  0  0
 36 74  1  0  0  0  0
 36 84  2  0  0  0  0
 37 70  1  0  0  0  0
 37 79  1  0  0  0  0
 37 85  2  0  0  0  0
 38 75  1  0  0  0  0
 38 80  1  0  0  0  0
 38 86  2  0  0  0  0
 39 42  1  0  0  0  0
 40 49  1  0  0  0  0
 41 74  1  0  0  0  0
 42 44  1  0  0  0  0
 43 45  1  0  0  0  0
 43 46  1  0  0  0  0
 44 48  1  0  0  0  0
 45 50  1  0  0  0  0
 46 75  1  0  0  0  0
 47 50  1  0  0  0  0
 47 75  1  0  0  0  0
 48 78  1  0  0  0  0
 49 74  1  0  0  0  0
 50 73  1  0  0  0  0
 52 70  1  0  0  0  0
 53 71  1  0  0  0  0
 54 71  1  0  0  0  0
 55 71  1  0  0  0  0
 56 80  1  0  0  0  0
 57 81  1  0  0  0  0
 58 60  1  0  0  0  0
 59 88  1  0  0  0  0
 60 61  1  0  0  0  0
 61 62  1  0  0  0  0
 62 63  1  0  0  0  0
 63 64  1  0  0  0  0
 64 65  1  0  0  0  0
 65 66  1  0  0  0  0
 66 67  1  0  0  0  0
 67 68  1  0  0  0  0
 68 80  1  0  0  0  0
 69 71  1  0  0  0  0
 69 79  1  0  0  0  0
 70 81  1  0  0  0  0
 72 73  1  0  0  0  0
M  CHG  1  81   1
M  ISO  4  38 100  59 101  80 100  88 101
M  END
> <Batch ID>
0032

> <Smiles>
CNC(C)C(=O)NC(C(=O)N1Cc2cc([101O:1][101CH2:1]c3cc(Cl)c(CCCCCCCCCC[100N:0](C)[100C:0](=O)N4CCCC(n5nc(-c6ccc(Oc7ccc(F)cc7F)cc6)c(C(N)=O)c5N)C4)cc3C)ccc2CC1C(=O)NC1CCCc2ccccc21)C(C)(C)C

> <Shape>
0.295

> <Color>
0.220

> <Negative vol penalty>
0.000

$$$$

  -OEChem-04052316453D

 87 95  0     1  0  0  0  0  0999 V2000
  -28.1398  -33.7649   24.9038 C   0  0  0  0  0  0  0  0  0  0  0  0
  -28.2562  -32.3806   24.8284 C   0  0  0  0  0  0  0  0  0  0  0  0
  -24.0846  -16.6225   22.6591 C   0  0  0  0  0  0  0  0  0  0  0  0
  -23.8539  -17.5686   20.4480 C   0  0  0  0  0  0  0  0  0  0  0  0
  -26.8981  -34.3703   24.7147 C   0  0  0  0  0  0  0  0  0  0  0  0
  -27.1307  -31.6008   24.5648 C   0  0  0  0  0  0  0  0  0  0  0  0
  -28.0279  -27.9948   21.1244 C   0  0  0  0  0  0  0  0  0  0  0  0
  -28.2381  -21.5840   21.3483 C   0  0  0  0  0  0  0  0  0  0  0  0
  -23.6691  -17.8304   23.2193 C   0  0  0  0  0  0  0  0  0  0  0  0
  -23.4384  -18.7766   21.0083 C   0  0  0  0  0  0  0  0  0  0  0  0
  -28.7064  -26.8564   21.5573 C   0  0  0  0  0  0  0  0  0  0  0  0
  -25.0135  -20.8588   23.8870 C   0  0  0  0  0  0  0  0  0  0  0  0
  -25.7345  -21.3494   24.9756 C   0  0  0  0  0  0  0  0  0  0  0  0
  -27.3998  -20.8632   20.4979 C   0  0  0  0  0  0  0  0  0  0  0  0
  -26.6102  -25.6723   21.7094 C   0  0  0  0  0  0  0  0  0  0  0  0
  -29.7688  -21.9633   19.5180 C   0  0  0  0  0  0  0  0  0  0  0  0
  -23.7379  -21.2702   26.3337 C   0  0  0  0  0  0  0  0  0  0  0  0
  -24.1770  -16.4916   21.2734 C   0  0  0  0  0  0  0  0  0  0  0  0
  -23.7945  -14.1589   20.3142 C   0  0  0  0  0  0  0  0  0  0  0  0
  -25.7586  -33.5981   24.4391 C   0  0  0  0  0  0  0  0  0  0  0  0
  -26.6320  -27.9838   20.9909 C   0  0  0  0  0  0  0  0  0  0  0  0
  -25.8723  -32.1963   24.3732 C   0  0  0  0  0  0  0  0  0  0  0  0
  -25.9166  -26.8111   21.2721 C   0  0  0  0  0  0  0  0  0  0  0  0
  -29.4226  -22.1341   20.8584 C   0  0  0  0  0  0  0  0  0  0  0  0
  -28.9305  -21.2424   18.6676 C   0  0  0  0  0  0  0  0  0  0  0  0
  -23.3460  -18.9074   22.3939 C   0  0  0  0  0  0  0  0  0  0  0  0
  -27.9973  -25.6958   21.8527 C   0  0  0  0  0  0  0  0  0  0  0  0
  -23.6546  -20.5740   24.0217 C   0  0  0  0  0  0  0  0  0  0  0  0
  -25.0968  -21.5551   26.1989 C   0  0  0  0  0  0  0  0  0  0  0  0
  -23.0169  -20.7796   25.2451 C   0  0  0  0  0  0  0  0  0  0  0  0
  -27.7460  -20.6924   19.1576 C   0  0  0  0  0  0  0  0  0  0  0  0
  -24.6067  -15.2442   20.6941 C   0  0  0  0  0  0  0  0  0  0  0  0
  -24.6751  -13.2267   19.8224 C   0  0  0  0  0  0  0  0  0  0  0  0
  -22.3713  -14.0071   20.3982 C   0  0  0  0  0  0  0  0  0  0  0  0
  -24.2370  -29.5800   22.3400 C   0  0  0  0  0  0  0  0  0  0  0  0
  -22.4552  -27.9864   20.1473 C   0  0  0  0  0  0  0  0  0  0  0  0
  -22.1294  -25.2819   18.0916 C   0  0  0  0  0  0  0  0  0  0  0  0
  -30.1400  -13.6526   17.4130 C   0  0  0  0  0  0  0  0  0  0  0  0
  -24.4291  -34.2941   24.2889 C   0  0  0  0  0  0  0  0  0  0  0  0
  -25.9177  -29.2120   20.4972 C   0  0  0  0  0  0  0  0  0  0  0  0
  -24.4193  -26.7412   21.1257 C   0  0  0  0  0  0  0  0  0  0  0  0
  -23.3551  -33.4228   23.6425 C   0  0  0  0  0  0  0  0  0  0  0  0
  -29.2037  -11.7502   20.2732 C   0  0  0  0  0  0  0  0  0  0  0  0
  -23.3404  -32.0354   24.2763 C   0  0  0  0  0  0  0  0  0  0  0  0
  -27.8461  -12.3320   20.6711 C   0  0  0  0  0  0  0  0  0  0  0  0
  -30.1486  -12.8294   19.7494 C   0  0  0  0  0  0  0  0  0  0  0  0
  -28.2464  -14.2312   19.0489 C   0  0  0  0  0  0  0  0  0  0  0  0
  -24.6791  -31.3181   24.0647 C   0  0  1  0  0  0  0  0  0  0  0  0
  -24.4439  -29.2445   20.8900 C   0  0  1  0  0  0  0  0  0  0  0  0
  -27.2402  -13.1722   19.5309 C   0  0  2  0  0  0  0  0  0  0  0  0
  -20.5464  -24.2347   16.4499 C   0  0  0  0  0  0  0  0  0  0  0  0
  -20.7010  -27.0291   22.4531 C   0  0  0  0  0  0  0  0  0  0  0  0
  -19.7640  -25.2827   20.9233 C   0  0  0  0  0  0  0  0  0  0  0  0
  -19.4461  -27.7002   20.3965 C   0  0  0  0  0  0  0  0  0  0  0  0
  -24.0978  -25.4801   15.8905 C   0  0  0  0  0  0  0  0  0  0  0  0
  -30.3297  -22.9139   21.7790 C   0  0  0  0  0  0  0  0  0  0  0  0
  -29.3368  -21.0827   17.2381 C   0  0  0  0  0  0  0  0  0  0  0  0
  -29.9516  -19.7115   16.9059 C   0  0  0  0  0  0  0  0  0  0  0  0
  -30.4217  -19.6104   15.4507 C   0  0  0  0  0  0  0  0  0  0  0  0
  -31.0934  -18.2733   15.1222 C   0  0  0  0  0  0  0  0  0  0  0  0
  -30.1562  -17.0715   15.2663 C   0  0  0  0  0  0  0  0  0  0  0  0
  -30.8861  -15.7608   14.9539 C   0  0  0  0  0  0  0  0  0  0  0  0
  -29.9830  -14.5399   15.1006 C   0  0  0  0  0  0  0  0  0  0  0  0
  -29.9912  -24.4004   21.8040 C   0  0  0  0  0  0  0  0  0  1  0  0
  -21.7336  -26.6608   20.1156 C   0  0  1  0  0  0  0  0  0  0  0  0
  -21.7326  -25.1691   16.6306 C   0  0  2  0  0  0  0  0  0  0  0  0
  -20.4392  -26.6698   20.9768 C   0  0  0  0  0  0  0  0  0  0  0  0
  -25.9036  -15.0232   20.4636 N   0  0  0  0  0  0  0  0  0  0  0  0
  -25.9131  -13.7882   19.9337 N   0  0  0  0  0  0  0  0  0  0  0  0
  -23.7656  -27.9700   20.6457 N   0  0  0  0  0  0  0  0  0  0  0  0
  -29.5144  -13.5887   18.6690 N   0  0  0  0  0  0  0  0  0  0  0  0
  -24.5036  -11.9895   19.3102 N   0  0  0  0  0  0  0  0  0  0  0  0
  -21.6170  -15.0623   20.9292 N   0  0  0  0  0  0  0  0  0  0  0  0
  -24.7670  -30.7994   22.7164 N   0  0  0  0  0  0  0  0  0  0  0  0
  -21.5123  -26.3502   18.7074 N   0  0  0  0  0  0  0  0  0  0  0  0
  -29.4688  -14.3875   16.4434 N   0  0  0  0  0  0  0  0  0  0  0  0
  -22.8708  -24.6452   15.8237 N   0  3  0  0  0  0  0  0  0  0  0  0
  -21.7874  -12.9601   20.0289 O   0  0  0  0  0  0  0  0  0  0  0  0
  -23.6395  -28.7917   23.0633 O   0  0  0  0  0  0  0  0  0  0  0  0
  -21.8799  -28.9980   19.7382 O   0  0  0  0  0  0  0  0  0  0  0  0
  -22.9059  -24.4983   18.6333 O   0  0  0  0  0  0  0  0  0  0  0  0
  -31.2142  -13.0915   17.1719 O   0  0  0  0  0  0  0  0  0  0  0  0
  -22.9403  -20.0862   22.9403 O   0  0  0  0  0  0  0  0  0  0  0  0
  -28.6570  -24.5834   22.2760 O   0  0  0  0  0  0  0  0  0  1  0  0
  -25.7897  -22.0247   27.2446 F   0  0  0  0  0  0  0  0  0  0  0  0
  -21.7120  -20.5067   25.3810 F   0  0  0  0  0  0  0  0  0  0  0  0
  -26.6844  -19.7948   18.1347 Cl  0  0  0  0  0  0  0  0  0  0  0  0
  1  2  1  0  0  0  0
  1  5  2  0  0  0  0
  2  6  2  0  0  0  0
  3  9  2  0  0  0  0
  3 18  1  0  0  0  0
  4 10  1  0  0  0  0
  4 18  2  0  0  0  0
  5 20  1  0  0  0  0
  6 22  1  0  0  0  0
  7 11  2  0  0  0  0
  7 21  1  0  0  0  0
  8 14  2  0  0  0  0
  8 24  1  0  0  0  0
  9 26  1  0  0  0  0
 10 26  2  0  0  0  0
 11 27  1  0  0  0  0
 12 13  2  0  0  0  0
 12 28  1  0  0  0  0
 13 29  1  0  0  0  0
 14 31  1  0  0  0  0
 15 23  1  0  0  0  0
 15 27  2  0  0  0  0
 16 24  2  0  0  0  0
 16 25  1  0  0  0  0
 17 29  2  0  0  0  0
 17 30  1  0  0  0  0
 18 32  1  0  0  0  0
 19 32  1  0  0  0  0
 19 33  2  0  0  0  0
 19 34  1  0  0  0  0
 20 22  2  0  0  0  0
 20 39  1  0  0  0  0
 21 23  2  0  0  0  0
 21 40  1  0  0  0  0
 22 48  1  0  0  0  0
 23 41  1  0  0  0  0
 24 56  1  0  0  0  0
 25 31  2  0  0  0  0
 25 57  1  0  0  0  0
 26 83  1  0  0  0  0
 27 84  1  0  0  0  0
 28 30  2  0  0  0  0
 28 83  1  0  0  0  0
 29 85  1  0  0  0  0
 30 86  1  0  0  0  0
 31 87  1  0  0  0  0
 32 68  2  0  0  0  0
 33 69  1  0  0  0  0
 33 72  1  0  0  0  0
 34 73  1  0  0  0  0
 34 78  2  0  0  0  0
 35 49  1  0  0  0  0
 35 74  1  0  0  0  0
 35 79  2  0  0  0  0
 36 65  1  0  0  0  0
 36 70  1  0  0  0  0
 36 80  2  0  0  0  0
 37 66  1  0  0  0  0
 37 75  1  0  0  0  0
 37 81  2  0  0  0  0
 38 71  1  0  0  0  0
 38 76  1  0  0  0  0
 38 82  2  0  0  0  0
 39 42  1  0  0  0  0
 40 49  1  0  0  0  0
 41 70  1  0  0  0  0
 42 44  1  0  0  0  0
 43 45  1  0  0  0  0
 43 46  1  0  0  0  0
 44 48  1  0  0  0  0
 45 50  1  0  0  0  0
 46 71  1  0  0  0  0
 47 50  1  0  0  0  0
 47 71  1  0  0  0  0
 48 74  1  0  0  0  0
 49 70  1  0  0  0  0
 50 69  1  0  0  0  0
 51 66  1  0  0  0  0
 52 67  1  0  0  0  0
 53 67  1  0  0  0  0
 54 67  1  0  0  0  0
 55 77  1  0  0  0  0
 56 64  1  0  0  0  0
 57 58  1  0  0  0  0
 58 59  1  0  0  0  0
 59 60  1  0  0  0  0
 60 61  1  0  0  0  0
 61 62  1  0  0  0  0
 62 63  1  0  0  0  0
 63 76  1  0  0  0  0
 64 84  1  0  0  0  0
 65 67  1  0  0  0  0
 65 75  1  0  0  0  0
 66 77  1  0  0  0  0
 68 69  1  0  0  0  0
M  CHG  1  77   1
M  ISO  4  38 100  64 101  76 100  84 101
M  END
> <Batch ID>
0032

> <Smiles>
CNC(C)C(=O)NC(C(=O)N1Cc2cc([101O:1][101CH2:1]Cc3ccc(Cl)c(CCCCCCC[100NH:0][100C:0](=O)N4CCCC(n5nc(-c6ccc(Oc7ccc(F)cc7F)cc6)c(C(N)=O)c5N)C4)c3)ccc2CC1C(=O)NC1CCCc2ccccc21)C(C)(C)C

> <Shape>
0.236

> <Color>
0.054

> <Negative vol penalty>
0.000

$$$$

  -OEChem-04052316453D

 84 92  0     1  0  0  0  0  0999 V2000
  -36.9924  -21.9302   14.6956 C   0  0  0  0  0  0  0  0  0  0  0  0
  -35.9588  -21.5085   15.5257 C   0  0  0  0  0  0  0  0  0  0  0  0
  -23.2880   -9.7990   19.9133 C   0  0  0  0  0  0  0  0  0  0  0  0
  -23.7396   -9.9398   22.2825 C   0  0  0  0  0  0  0  0  0  0  0  0
  -37.9974  -21.0369   14.3269 C   0  0  0  0  0  0  0  0  0  0  0  0
  -35.9289  -20.1929   15.9868 C   0  0  0  0  0  0  0  0  0  0  0  0
  -34.8356  -19.8882   20.9220 C   0  0  0  0  0  0  0  0  0  0  0  0
  -22.5619   -8.6264   20.1213 C   0  0  0  0  0  0  0  0  0  0  0  0
  -23.0133   -8.7672   22.4906 C   0  0  0  0  0  0  0  0  0  0  0  0
  -33.4990  -20.0394   21.2886 C   0  0  0  0  0  0  0  0  0  0  0  0
  -20.9749   -6.0069   23.6922 C   0  0  0  0  0  0  0  0  0  0  0  0
  -20.0736   -5.9816   24.7565 C   0  0  0  0  0  0  0  0  0  0  0  0
  -33.2843  -17.6436   21.4712 C   0  0  0  0  0  0  0  0  0  0  0  0
  -30.5732  -16.8979   26.3911 C   0  0  0  0  0  0  0  0  0  0  0  0
  -30.0910  -17.5941   24.1284 C   0  0  0  0  0  0  0  0  0  0  0  0
  -18.8636   -7.8286   23.7757 C   0  0  0  0  0  0  0  0  0  0  0  0
  -23.8770  -10.4557   20.9939 C   0  0  0  0  0  0  0  0  0  0  0  0
  -24.1361  -12.9857   20.7951 C   0  0  0  0  0  0  0  0  0  0  0  0
  -37.9850  -19.7122   14.7914 C   0  0  0  0  0  0  0  0  0  0  0  0
  -35.4046  -18.6108   20.8165 C   0  0  0  0  0  0  0  0  0  0  0  0
  -36.9339  -19.2806   15.6228 C   0  0  0  0  0  0  0  0  0  0  0  0
  -34.6290  -17.4790   21.1056 C   0  0  0  0  0  0  0  0  0  0  0  0
  -30.3253  -16.5790   25.0560 C   0  0  0  0  0  0  0  0  0  0  0  0
  -30.5867  -18.2319   26.7986 C   0  0  0  0  0  0  0  0  0  0  0  0
  -30.1046  -18.9281   24.5359 C   0  0  0  0  0  0  0  0  0  0  0  0
  -22.4245   -8.1105   21.4099 C   0  0  0  0  0  0  0  0  0  0  0  0
  -32.7223  -18.9169   21.5604 C   0  0  0  0  0  0  0  0  0  0  0  0
  -20.8206   -6.9431   22.6697 C   0  0  0  0  0  0  0  0  0  0  0  0
  -19.0180   -6.8924   24.7982 C   0  0  0  0  0  0  0  0  0  0  0  0
  -19.7649   -7.8539   22.7115 C   0  0  0  0  0  0  0  0  0  0  0  0
  -30.3525  -19.2470   25.8710 C   0  0  0  0  0  0  0  0  0  0  0  0
  -24.6278  -11.6666   20.7795 C   0  0  0  0  0  0  0  0  0  0  0  0
  -25.2374  -13.7656   20.5397 C   0  0  0  0  0  0  0  0  0  0  0  0
  -22.8031  -13.4632   21.0203 C   0  0  0  0  0  0  0  0  0  0  0  0
  -36.7051  -16.9224   18.4582 C   0  0  0  0  0  0  0  0  0  0  0  0
  -37.3820  -14.8364   20.8483 C   0  0  0  0  0  0  0  0  0  0  0  0
  -36.6284  -13.6497   23.9581 C   0  0  0  0  0  0  0  0  0  0  0  0
  -31.1088  -12.9231   21.3574 C   0  0  0  0  0  0  0  0  0  0  0  0
  -39.0676  -18.7701   14.3276 C   0  0  0  0  0  0  0  0  0  0  0  0
  -36.8551  -18.4660   20.4459 C   0  0  0  0  0  0  0  0  0  0  0  0
  -35.1979  -16.0866   21.0265 C   0  0  0  0  0  0  0  0  0  0  0  0
  -39.1648  -17.4958   15.1624 C   0  0  0  0  0  0  0  0  0  0  0  0
  -29.4588  -13.6623   18.2902 C   0  0  0  0  0  0  0  0  0  0  0  0
  -37.7795  -16.8983   15.3879 C   0  0  0  0  0  0  0  0  0  0  0  0
  -27.9892  -13.3537   18.5818 C   0  0  0  0  0  0  0  0  0  0  0  0
  -30.3924  -12.6830   18.9983 C   0  0  0  0  0  0  0  0  0  0  0  0
  -28.7064  -12.2536   20.7438 C   0  0  0  0  0  0  0  0  0  0  0  0
  -36.8800  -17.8682   16.1635 C   0  0  1  0  0  0  0  0  0  0  0  0
  -37.1904  -17.0937   19.8699 C   0  0  1  0  0  0  0  0  0  0  0  0
  -27.7281  -13.2487   20.0964 C   0  0  2  0  0  0  0  0  0  0  0  0
  -30.8565  -18.5268   28.2392 C   0  0  0  0  0  0  0  0  0  0  0  0
  -37.3339  -11.9155   25.6291 C   0  0  0  0  0  0  0  0  0  0  0  0
  -36.0098  -12.6782   19.1843 C   0  0  0  0  0  0  0  0  0  0  0  0
  -35.8979  -11.2593   21.2440 C   0  0  0  0  0  0  0  0  0  0  0  0
  -38.1124  -11.9406   20.3197 C   0  0  0  0  0  0  0  0  0  0  0  0
  -37.2980  -15.7038   25.9808 C   0  0  0  0  0  0  0  0  0  0  0  0
  -30.3108  -15.1528   24.6203 C   0  0  0  0  0  0  0  0  0  0  0  0
  -29.8458  -19.9927   23.4976 C   0  0  0  0  0  0  0  0  0  0  0  0
  -31.6796  -14.6116   24.1622 C   0  0  0  0  0  0  0  0  0  0  0  0
  -31.6714  -13.1370   23.7651 C   0  0  0  0  0  0  0  0  0  0  0  0
  -31.0640  -20.2535   22.6185 C   0  0  0  0  0  0  0  0  0  1  0  0
  -36.6694  -13.6637   21.4777 C   0  0  1  0  0  0  0  0  0  0  0  0
  -37.5037  -13.3529   25.1624 C   0  0  2  0  0  0  0  0  0  0  0  0
  -36.6608  -12.4115   20.5561 C   0  0  0  0  0  0  0  0  0  0  0  0
  -25.9393  -11.6081   20.5336 N   0  0  0  0  0  0  0  0  0  0  0  0
  -26.2811  -12.9001   20.3921 N   0  0  0  0  0  0  0  0  0  0  0  0
  -36.6193  -15.9967   20.6538 N   0  0  0  0  0  0  0  0  0  0  0  0
  -30.0936  -12.6316   20.4315 N   0  0  0  0  0  0  0  0  0  0  0  0
  -25.4052  -15.1006   20.4291 N   0  0  0  0  0  0  0  0  0  0  0  0
  -21.7907  -12.5262   21.2682 N   0  0  0  0  0  0  0  0  0  0  0  0
  -37.2146  -17.8516   17.5714 N   0  0  0  0  0  0  0  0  0  0  0  0
  -37.3043  -13.4478   22.7733 N   0  0  0  0  0  0  0  0  0  0  0  0
  -30.7395  -12.8576   22.6954 N   0  0  0  0  0  0  0  0  0  0  0  0
  -37.1536  -14.2585   26.2929 N   0  3  0  0  0  0  0  0  0  0  0  0
  -22.5151  -14.6836   20.9860 O   0  0  0  0  0  0  0  0  0  0  0  0
  -35.9271  -16.0135   18.1929 O   0  0  0  0  0  0  0  0  0  0  0  0
  -38.5735  -14.7293   20.5472 O   0  0  0  0  0  0  0  0  0  0  0  0
  -35.4607  -14.0197   24.0583 O   0  0  0  0  0  0  0  0  0  0  0  0
  -32.2576  -13.2250   21.0169 O   0  0  0  0  0  0  0  0  0  0  0  0
  -21.7157   -6.9665   21.6134 O   0  0  0  0  0  0  0  0  0  0  0  0
  -31.4172  -19.0616   21.9178 O   0  0  0  0  0  0  0  0  0  1  0  0
  -18.1517   -6.8670   25.8195 F   0  0  0  0  0  0  0  0  0  0  0  0
  -19.6108   -8.7549   21.7315 F   0  0  0  0  0  0  0  0  0  0  0  0
  -30.3691  -20.9031   26.3770 Cl  0  0  0  0  0  0  0  0  0  0  0  0
  1  2  1  0  0  0  0
  1  5  2  0  0  0  0
  2  6  2  0  0  0  0
  3  8  2  0  0  0  0
  3 17  1  0  0  0  0
  4  9  1  0  0  0  0
  4 17  2  0  0  0  0
  5 19  1  0  0  0  0
  6 21  1  0  0  0  0
  7 10  2  0  0  0  0
  7 20  1  0  0  0  0
  8 26  1  0  0  0  0
  9 26  2  0  0  0  0
 10 27  1  0  0  0  0
 11 12  2  0  0  0  0
 11 28  1  0  0  0  0
 12 29  1  0  0  0  0
 13 22  1  0  0  0  0
 13 27  2  0  0  0  0
 14 23  1  0  0  0  0
 14 24  2  0  0  0  0
 15 23  2  0  0  0  0
 15 25  1  0  0  0  0
 16 29  2  0  0  0  0
 16 30  1  0  0  0  0
 17 32  1  0  0  0  0
 18 32  1  0  0  0  0
 18 33  2  0  0  0  0
 18 34  1  0  0  0  0
 19 21  2  0  0  0  0
 19 39  1  0  0  0  0
 20 22  2  0  0  0  0
 20 40  1  0  0  0  0
 21 48  1  0  0  0  0
 22 41  1  0  0  0  0
 23 57  1  0  0  0  0
 24 31  1  0  0  0  0
 24 51  1  0  0  0  0
 25 31  2  0  0  0  0
 25 58  1  0  0  0  0
 26 80  1  0  0  0  0
 27 81  1  0  0  0  0
 28 30  2  0  0  0  0
 28 80  1  0  0  0  0
 29 82  1  0  0  0  0
 30 83  1  0  0  0  0
 31 84  1  0  0  0  0
 32 65  2  0  0  0  0
 33 66  1  0  0  0  0
 33 69  1  0  0  0  0
 34 70  1  0  0  0  0
 34 75  2  0  0  0  0
 35 49  1  0  0  0  0
 35 71  1  0  0  0  0
 35 76  2  0  0  0  0
 36 62  1  0  0  0  0
 36 67  1  0  0  0  0
 36 77  2  0  0  0  0
 37 63  1  0  0  0  0
 37 72  1  0  0  0  0
 37 78  2  0  0  0  0
 38 68  1  0  0  0  0
 38 73  1  0  0  0  0
 38 79  2  0  0  0  0
 39 42  1  0  0  0  0
 40 49  1  0  0  0  0
 41 67  1  0  0  0  0
 42 44  1  0  0  0  0
 43 45  1  0  0  0  0
 43 46  1  0  0  0  0
 44 48  1  0  0  0  0
 45 50  1  0  0  0  0
 46 68  1  0  0  0  0
 47 50  1  0  0  0  0
 47 68  1  0  0  0  0
 48 71  1  0  0  0  0
 49 67  1  0  0  0  0
 50 66  1  0  0  0  0
 52 63  1  0  0  0  0
 53 64  1  0  0  0  0
 54 64  1  0  0  0  0
 55 64  1  0  0  0  0
 56 74  1  0  0  0  0
 57 59  1  0  0  0  0
 58 61  1  0  0  0  0
 59 60  1  0  0  0  0
 60 73  1  0  0  0  0
 61 81  1  0  0  0  0
 62 64  1  0  0  0  0
 62 72  1  0  0  0  0
 63 74  1  0  0  0  0
 65 66  1  0  0  0  0
M  CHG  1  74   1
M  ISO  4  38 100  61 101  73 100  81 101
M  END
> <Batch ID>
0032

> <Smiles>
CNC(C)C(=O)NC(C(=O)N1Cc2cc([101O:1][101CH2:1]Cc3cc(CCC[100NH:0][100C:0](=O)N4CCCC(n5nc(-c6ccc(Oc7ccc(F)cc7F)cc6)c(C(N)=O)c5N)C4)cc(C)c3Cl)ccc2CC1C(=O)NC1CCCc2ccccc21)C(C)(C)C

> <Shape>
0.134

> <Color>
0.182

> <Negative vol penalty>
0.000

$$$$

  -OEChem-04052316453D

 85 93  0     1  0  0  0  0  0999 V2000
  -23.4034  -19.5035   27.8080 C   0  0  0  0  0  0  0  0  0  0  0  0
  -24.4139  -19.9923   26.9862 C   0  0  0  0  0  0  0  0  0  0  0  0
  -26.9022  -13.0964   21.0048 C   0  0  0  0  0  0  0  0  0  0  0  0
  -26.8044  -13.3459   18.6037 C   0  0  0  0  0  0  0  0  0  0  0  0
  -22.0700  -19.7869   27.5151 C   0  0  0  0  0  0  0  0  0  0  0  0
  -24.0916  -20.7639   25.8704 C   0  0  0  0  0  0  0  0  0  0  0  0
  -27.3051  -25.4474   23.5802 C   0  0  0  0  0  0  0  0  0  0  0  0
  -26.3132  -11.8366   20.8979 C   0  0  0  0  0  0  0  0  0  0  0  0
  -26.2154  -12.0860   18.4968 C   0  0  0  0  0  0  0  0  0  0  0  0
  -28.2088  -25.5365   22.5223 C   0  0  0  0  0  0  0  0  0  0  0  0
  -24.5056   -8.7050   21.2852 C   0  0  0  0  0  0  0  0  0  0  0  0
  -23.4770   -8.3910   22.1733 C   0  0  0  0  0  0  0  0  0  0  0  0
  -26.4307  -26.2854   21.0744 C   0  0  0  0  0  0  0  0  0  0  0  0
  -29.0751  -24.4881   16.0924 C   0  0  0  0  0  0  0  0  0  0  0  0
  -30.5885  -23.5062   18.2203 C   0  0  0  0  0  0  0  0  0  0  0  0
  -22.1836  -10.2505   21.3328 C   0  0  0  0  0  0  0  0  0  0  0  0
  -27.1478  -13.8511   19.8577 C   0  0  0  0  0  0  0  0  0  0  0  0
  -29.1308  -15.4537   19.9425 C   0  0  0  0  0  0  0  0  0  0  0  0
  -21.7317  -20.5705   26.4005 C   0  0  0  0  0  0  0  0  0  0  0  0
  -25.9529  -25.7666   23.3901 C   0  0  0  0  0  0  0  0  0  0  0  0
  -22.7524  -21.0569   25.5615 C   0  0  0  0  0  0  0  0  0  0  0  0
  -25.5123  -26.2019   22.1321 C   0  0  0  0  0  0  0  0  0  0  0  0
  -29.3624  -23.1256   16.1736 C   0  0  0  0  0  0  0  0  0  0  0  0
  -30.3012  -24.8687   18.1390 C   0  0  0  0  0  0  0  0  0  0  0  0
  -25.9698  -11.3314   19.6439 C   0  0  0  0  0  0  0  0  0  0  0  0
  -27.7711  -25.9528   21.2685 C   0  0  0  0  0  0  0  0  0  0  0  0
  -24.3733   -9.7919   20.4209 C   0  0  0  0  0  0  0  0  0  0  0  0
  -22.3159   -9.1636   22.1971 C   0  0  0  0  0  0  0  0  0  0  0  0
  -23.2123  -10.5646   20.4447 C   0  0  0  0  0  0  0  0  0  0  0  0
  -30.1191  -22.6346   17.2376 C   0  0  0  0  0  0  0  0  0  0  0  0
  -29.5445  -25.3597   17.0750 C   0  0  0  0  0  0  0  0  0  0  0  0
  -27.7558  -15.1528   19.9675 C   0  0  0  0  0  0  0  0  0  0  0  0
  -29.1860  -16.8191   20.0813 C   0  0  0  0  0  0  0  0  0  0  0  0
  -30.2573  -14.5774   19.8060 C   0  0  0  0  0  0  0  0  0  0  0  0
  -23.2164  -24.1657   23.6191 C   0  0  0  0  0  0  0  0  0  0  0  0
  -21.9134  -27.0865   23.0774 C   0  0  0  0  0  0  0  0  0  0  0  0
  -22.2746  -30.2266   21.7905 C   0  0  0  0  0  0  0  0  0  0  0  0
  -25.3053  -21.2047   18.8334 C   0  0  0  0  0  0  0  0  0  0  0  0
  -20.2739  -20.8107   26.0976 C   0  0  0  0  0  0  0  0  0  0  0  0
  -24.9960  -25.6909   24.5481 C   0  0  0  0  0  0  0  0  0  0  0  0
  -24.0751  -26.5757   21.8809 C   0  0  0  0  0  0  0  0  0  0  0  0
  -20.0369  -21.9488   25.1082 C   0  0  0  0  0  0  0  0  0  0  0  0
  -26.7836  -20.4888   21.9924 C   0  0  0  0  0  0  0  0  0  0  0  0
  -20.9786  -21.8234   23.9147 C   0  0  0  0  0  0  0  0  0  0  0  0
  -27.3245  -19.0672   21.8294 C   0  0  0  0  0  0  0  0  0  0  0  0
  -25.4633  -20.6790   21.2491 C   0  0  0  0  0  0  0  0  0  0  0  0
  -26.0375  -18.8856   19.6592 C   0  0  0  0  0  0  0  0  0  0  0  0
  -22.4441  -21.9182   24.3560 C   0  0  1  0  0  0  0  0  0  0  0  0
  -23.5410  -25.5474   24.1125 C   0  0  1  0  0  0  0  0  0  0  0  0
  -27.3961  -18.6613   20.3450 C   0  0  2  0  0  0  0  0  0  0  0  0
  -21.0237  -32.3774   21.4634 C   0  0  0  0  0  0  0  0  0  0  0  0
  -20.3466  -25.8237   20.7838 C   0  0  0  0  0  0  0  0  0  0  0  0
  -19.8790  -28.1290   19.9263 C   0  0  0  0  0  0  0  0  0  0  0  0
  -19.0404  -27.4419   22.1730 C   0  0  0  0  0  0  0  0  0  0  0  0
  -24.2181  -31.7411   23.4300 C   0  0  0  0  0  0  0  0  0  0  0  0
  -28.8404  -22.2253   15.1008 C   0  0  0  0  0  0  0  0  0  0  0  0
  -30.8279  -25.7790   19.2217 C   0  0  0  0  0  0  0  0  0  0  0  0
  -27.6113  -21.4287   15.5615 C   0  0  0  0  0  0  0  0  0  0  0  0
  -26.4476  -22.3522   15.9338 C   0  0  0  0  0  0  0  0  0  0  0  0
  -25.2092  -21.5834   16.3826 C   0  0  0  0  0  0  0  0  0  0  0  0
  -30.0077  -25.6899   20.5040 C   0  0  0  0  0  0  0  0  0  1  0  0
  -21.5116  -27.8668   21.8491 C   0  0  1  0  0  0  0  0  0  0  0  0
  -21.9615  -31.5946   22.3693 C   0  0  2  0  0  0  0  0  0  0  0  0
  -20.2212  -27.3065   21.1870 C   0  0  0  0  0  0  0  0  0  0  0  0
  -26.9926  -16.2396   20.1110 N   0  0  0  0  0  0  0  0  0  0  0  0
  -27.8912  -17.2367   20.1775 N   0  0  0  0  0  0  0  0  0  0  0  0
  -23.1766  -26.4791   23.0432 N   0  0  0  0  0  0  0  0  0  0  0  0
  -25.5994  -20.2776   19.8468 N   0  0  0  0  0  0  0  0  0  0  0  0
  -30.2154  -17.6911   20.1293 N   0  0  0  0  0  0  0  0  0  0  0  0
  -30.0218  -13.2022   19.6735 N   0  0  0  0  0  0  0  0  0  0  0  0
  -22.8069  -23.2958   24.6115 N   0  0  0  0  0  0  0  0  0  0  0  0
  -21.4122  -29.2614   22.2658 N   0  0  0  0  0  0  0  0  0  0  0  0
  -25.4666  -20.7449   17.5322 N   0  0  0  0  0  0  0  0  0  0  0  0
  -23.2143  -32.3828   22.5425 N   0  3  0  0  0  0  0  0  0  0  0  0
  -31.4385  -14.9996   19.8182 O   0  0  0  0  0  0  0  0  0  0  0  0
  -23.3278  -23.9085   22.4262 O   0  0  0  0  0  0  0  0  0  0  0  0
  -21.1380  -27.0244   24.0348 O   0  0  0  0  0  0  0  0  0  0  0  0
  -23.1900  -30.0342   20.9933 O   0  0  0  0  0  0  0  0  0  0  0  0
  -24.9320  -22.3585   19.0708 O   0  0  0  0  0  0  0  0  0  0  0  0
  -25.3952  -10.1020   19.5392 O   0  0  0  0  0  0  0  0  0  0  0  0
  -28.6510  -26.0401   20.2340 O   0  0  0  0  0  0  0  0  0  1  0  0
  -21.3275   -8.8610   23.0489 F   0  0  0  0  0  0  0  0  0  0  0  0
  -23.0789  -11.6092   19.6159 F   0  0  0  0  0  0  0  0  0  0  0  0
  -30.4928  -20.9549   17.3714 Cl  0  0  0  0  0  0  0  0  0  0  0  0
  -29.1695  -27.0393   16.9416 Cl  0  0  0  0  0  0  0  0  0  0  0  0
  1  2  1  0  0  0  0
  1  5  2  0  0  0  0
  2  6  2  0  0  0  0
  3  8  2  0  0  0  0
  3 17  1  0  0  0  0
  4  9  1  0  0  0  0
  4 17  2  0  0  0  0
  5 19  1  0  0  0  0
  6 21  1  0  0  0  0
  7 10  2  0  0  0  0
  7 20  1  0  0  0  0
  8 25  1  0  0  0  0
  9 25  2  0  0  0  0
 10 26  1  0  0  0  0
 11 12  2  0  0  0  0
 11 27  1  0  0  0  0
 12 28  1  0  0  0  0
 13 22  1  0  0  0  0
 13 26  2  0  0  0  0
 14 23  2  0  0  0  0
 14 31  1  0  0  0  0
 15 24  1  0  0  0  0
 15 30  2  0  0  0  0
 16 28  2  0  0  0  0
 16 29  1  0  0  0  0
 17 32  1  0  0  0  0
 18 32  1  0  0  0  0
 18 33  2  0  0  0  0
 18 34  1  0  0  0  0
 19 21  2  0  0  0  0
 19 39  1  0  0  0  0
 20 22  2  0  0  0  0
 20 40  1  0  0  0  0
 21 48  1  0  0  0  0
 22 41  1  0  0  0  0
 23 30  1  0  0  0  0
 23 56  1  0  0  0  0
 24 31  2  0  0  0  0
 24 57  1  0  0  0  0
 25 80  1  0  0  0  0
 26 81  1  0  0  0  0
 27 29  2  0  0  0  0
 27 80  1  0  0  0  0
 28 82  1  0  0  0  0
 29 83  1  0  0  0  0
 30 84  1  0  0  0  0
 31 85  1  0  0  0  0
 32 65  2  0  0  0  0
 33 66  1  0  0  0  0
 33 69  1  0  0  0  0
 34 70  1  0  0  0  0
 34 75  2  0  0  0  0
 35 49  1  0  0  0  0
 35 71  1  0  0  0  0
 35 76  2  0  0  0  0
 36 62  1  0  0  0  0
 36 67  1  0  0  0  0
 36 77  2  0  0  0  0
 37 63  1  0  0  0  0
 37 72  1  0  0  0  0
 37 78  2  0  0  0  0
 38 68  1  0  0  0  0
 38 73  1  0  0  0  0
 38 79  2  0  0  0  0
 39 42  1  0  0  0  0
 40 49  1  0  0  0  0
 41 67  1  0  0  0  0
 42 44  1  0  0  0  0
 43 45  1  0  0  0  0
 43 46  1  0  0  0  0
 44 48  1  0  0  0  0
 45 50  1  0  0  0  0
 46 68  1  0  0  0  0
 47 50  1  0  0  0  0
 47 68  1  0  0  0  0
 48 71  1  0  0  0  0
 49 67  1  0  0  0  0
 50 66  1  0  0  0  0
 51 63  1  0  0  0  0
 52 64  1  0  0  0  0
 53 64  1  0  0  0  0
 54 64  1  0  0  0  0
 55 74  1  0  0  0  0
 56 58  1  0  0  0  0
 57 61  1  0  0  0  0
 58 59  1  0  0  0  0
 59 60  1  0  0  0  0
 60 73  1  0  0  0  0
 61 81  1  0  0  0  0
 62 64  1  0  0  0  0
 62 72  1  0  0  0  0
 63 74  1  0  0  0  0
 65 66  1  0  0  0  0
M  CHG  1  74   1
M  ISO  4  38 100  61 101  73 100  81 101
M  END
> <Batch ID>
0032

> <Smiles>
CNC(C)C(=O)NC(C(=O)N1Cc2cc([101O:1][101CH2:1]Cc3cc(Cl)c(CCCC[100NH:0][100C:0](=O)N4CCCC(n5nc(-c6ccc(Oc7ccc(F)cc7F)cc6)c(C(N)=O)c5N)C4)cc3Cl)ccc2CC1C(=O)NC1CCCc2ccccc21)C(C)(C)C

> <Shape>
0.212

> <Color>
0.086

> <Negative vol penalty>
0.000

$$$$

  -OEChem-04052316453D

 83 91  0     1  0  0  0  0  0999 V2000
  -16.4269  -16.3019   21.6644 C   0  0  0  0  0  0  0  0  0  0  0  0
  -17.7004  -16.7833   21.9501 C   0  0  0  0  0  0  0  0  0  0  0  0
  -23.2017   -9.8514   19.9527 C   0  0  0  0  0  0  0  0  0  0  0  0
  -23.9129   -9.9303   22.2603 C   0  0  0  0  0  0  0  0  0  0  0  0
  -15.7254  -15.5756   22.6258 C   0  0  0  0  0  0  0  0  0  0  0  0
  -18.2729  -16.5397   23.1981 C   0  0  0  0  0  0  0  0  0  0  0  0
  -24.1972  -15.5617   24.4032 C   0  0  0  0  0  0  0  0  0  0  0  0
  -29.5606  -17.6189   25.4544 C   0  0  0  0  0  0  0  0  0  0  0  0
  -30.2132  -17.1588   24.3108 C   0  0  0  0  0  0  0  0  0  0  0  0
  -22.5104   -8.6667   20.2063 C   0  0  0  0  0  0  0  0  0  0  0  0
  -23.2215   -8.7456   22.5139 C   0  0  0  0  0  0  0  0  0  0  0  0
  -25.2101  -16.3985   24.8696 C   0  0  0  0  0  0  0  0  0  0  0  0
  -21.3462   -5.9341   23.8544 C   0  0  0  0  0  0  0  0  0  0  0  0
  -20.5690   -5.8708   25.0109 C   0  0  0  0  0  0  0  0  0  0  0  0
  -24.8114  -15.6184   27.1172 C   0  0  0  0  0  0  0  0  0  0  0  0
  -19.2462   -7.7330   24.2240 C   0  0  0  0  0  0  0  0  0  0  0  0
  -23.9030  -10.4831   20.9798 C   0  0  0  0  0  0  0  0  0  0  0  0
  -24.1229  -13.0200   20.8262 C   0  0  0  0  0  0  0  0  0  0  0  0
  -16.2935  -15.3147   23.8828 C   0  0  0  0  0  0  0  0  0  0  0  0
  -23.4752  -14.7537   25.2933 C   0  0  0  0  0  0  0  0  0  0  0  0
  -17.5778  -15.8104   24.1778 C   0  0  0  0  0  0  0  0  0  0  0  0
  -23.7915  -14.7703   26.6592 C   0  0  0  0  0  0  0  0  0  0  0  0
  -29.3724  -16.7650   26.5413 C   0  0  0  0  0  0  0  0  0  0  0  0
  -30.6776  -15.8447   24.2539 C   0  0  0  0  0  0  0  0  0  0  0  0
  -29.8368  -15.4509   26.4843 C   0  0  0  0  0  0  0  0  0  0  0  0
  -22.5202   -8.1139   21.4868 C   0  0  0  0  0  0  0  0  0  0  0  0
  -25.5154  -16.4291   26.2271 C   0  0  0  0  0  0  0  0  0  0  0  0
  -21.0735   -6.8970   22.8827 C   0  0  0  0  0  0  0  0  0  0  0  0
  -19.5190   -6.7702   25.1957 C   0  0  0  0  0  0  0  0  0  0  0  0
  -20.0234   -7.7964   23.0674 C   0  0  0  0  0  0  0  0  0  0  0  0
  -30.4893  -14.9907   25.3406 C   0  0  0  0  0  0  0  0  0  0  0  0
  -24.6179  -11.7065   20.7183 C   0  0  0  0  0  0  0  0  0  0  0  0
  -25.1842  -13.8170   20.4727 C   0  0  0  0  0  0  0  0  0  0  0  0
  -22.8202  -13.4786   21.2115 C   0  0  0  0  0  0  0  0  0  0  0  0
  -20.4252  -14.5449   26.1638 C   0  0  0  0  0  0  0  0  0  0  0  0
  -21.4751  -11.9497   27.8023 C   0  0  0  0  0  0  0  0  0  0  0  0
  -24.0796  -10.3204   29.2885 C   0  0  0  0  0  0  0  0  0  0  0  0
  -30.9478  -14.0597   20.9586 C   0  0  0  0  0  0  0  0  0  0  0  0
  -15.4778  -14.5656   24.9066 C   0  0  0  0  0  0  0  0  0  0  0  0
  -22.4035  -13.8367   24.7707 C   0  0  0  0  0  0  0  0  0  0  0  0
  -23.0598  -13.9072   27.6533 C   0  0  0  0  0  0  0  0  0  0  0  0
  -16.3060  -14.0299   26.0717 C   0  0  0  0  0  0  0  0  0  0  0  0
  -29.3570  -13.1292   17.9122 C   0  0  0  0  0  0  0  0  0  0  0  0
  -17.2503  -15.1073   26.5952 C   0  0  0  0  0  0  0  0  0  0  0  0
  -27.9268  -12.7896   18.3353 C   0  0  0  0  0  0  0  0  0  0  0  0
  -30.3744  -12.7016   18.9678 C   0  0  0  0  0  0  0  0  0  0  0  0
  -28.6796  -12.8732   20.7488 C   0  0  0  0  0  0  0  0  0  0  0  0
  -18.2425  -15.5454   25.5112 C   0  0  1  0  0  0  0  0  0  0  0  0
  -21.3867  -13.4379   25.8358 C   0  0  1  0  0  0  0  0  0  0  0  0
  -27.6133  -13.3358   19.7412 C   0  0  2  0  0  0  0  0  0  0  0  0
  -28.4817  -13.5663   27.4322 C   0  0  0  0  0  0  0  0  0  0  0  0
  -25.3065   -8.4669   30.4533 C   0  0  0  0  0  0  0  0  0  0  0  0
  -20.2072  -13.1673   30.2963 C   0  0  0  0  0  0  0  0  0  0  0  0
  -21.5646  -11.5796   31.6765 C   0  0  0  0  0  0  0  0  0  0  0  0
  -19.8817  -10.6990   30.0595 C   0  0  0  0  0  0  0  0  0  0  0  0
  -24.8180   -9.0410   26.7239 C   0  0  0  0  0  0  0  0  0  0  0  0
  -28.6625  -17.2900   27.7655 C   0  0  0  0  0  0  0  0  0  0  0  0
  -29.6223  -14.5510   27.6617 C   0  0  0  0  0  0  0  0  0  0  0  0
  -31.3700  -15.3956   23.0071 C   0  0  0  0  0  0  0  0  0  0  0  0
  -27.2155  -16.8158   27.8446 C   0  0  0  0  0  0  0  0  0  1  0  0
  -22.0278  -11.7111   29.1867 C   0  0  1  0  0  0  0  0  0  0  0  0
  -24.5472   -8.8788   29.2016 C   0  0  2  0  0  0  0  0  0  0  0  0
  -20.9330  -11.8071   30.2866 C   0  0  0  0  0  0  0  0  0  0  0  0
  -25.8942  -11.6671   20.3268 N   0  0  0  0  0  0  0  0  0  0  0  0
  -26.2102  -12.9656   20.1855 N   0  0  0  0  0  0  0  0  0  0  0  0
  -22.0161  -13.0322   27.0942 N   0  0  0  0  0  0  0  0  0  0  0  0
  -30.0204  -13.2541   20.2775 N   0  0  0  0  0  0  0  0  0  0  0  0
  -25.3304  -15.1560   20.3826 N   0  0  0  0  0  0  0  0  0  0  0  0
  -21.8474  -12.5257   21.5431 N   0  0  0  0  0  0  0  0  0  0  0  0
  -19.2974  -14.5654   25.3656 N   0  0  0  0  0  0  0  0  0  0  0  0
  -22.7131  -10.4242   29.1364 N   0  0  0  0  0  0  0  0  0  0  0  0
  -30.5300  -14.5478   22.1906 N   0  0  0  0  0  0  0  0  0  0  0  0
  -25.4443   -8.6951   28.0259 N   0  3  0  0  0  0  0  0  0  0  0  0
  -22.5227  -14.6968   21.2445 O   0  0  0  0  0  0  0  0  0  0  0  0
  -20.6864  -15.3221   27.0745 O   0  0  0  0  0  0  0  0  0  0  0  0
  -20.6008  -11.1988   27.3625 O   0  0  0  0  0  0  0  0  0  0  0  0
  -24.8492  -11.2601   29.4763 O   0  0  0  0  0  0  0  0  0  0  0  0
  -32.0633  -14.3288   20.5000 O   0  0  0  0  0  0  0  0  0  0  0  0
  -21.8455   -6.9581   21.7347 O   0  0  0  0  0  0  0  0  0  0  0  0
  -26.5031  -17.2455   26.6851 O   0  0  0  0  0  0  0  0  0  1  0  0
  -18.7718   -6.7082   26.3056 F   0  0  0  0  0  0  0  0  0  0  0  0
  -19.7559   -8.7228   22.1369 F   0  0  0  0  0  0  0  0  0  0  0  0
  -31.0637  -13.3582   25.2646 Cl  0  0  0  0  0  0  0  0  0  0  0  0
  1  2  1  0  0  0  0
  1  5  2  0  0  0  0
  2  6  2  0  0  0  0
  3 10  2  0  0  0  0
  3 17  1  0  0  0  0
  4 11  1  0  0  0  0
  4 17  2  0  0  0  0
  5 19  1  0  0  0  0
  6 21  1  0  0  0  0
  7 12  2  0  0  0  0
  7 20  1  0  0  0  0
  8  9  1  0  0  0  0
  8 23  2  0  0  0  0
  9 24  2  0  0  0  0
 10 26  1  0  0  0  0
 11 26  2  0  0  0  0
 12 27  1  0  0  0  0
 13 14  2  0  0  0  0
 13 28  1  0  0  0  0
 14 29  1  0  0  0  0
 15 22  1  0  0  0  0
 15 27  2  0  0  0  0
 16 29  2  0  0  0  0
 16 30  1  0  0  0  0
 17 32  1  0  0  0  0
 18 32  1  0  0  0  0
 18 33  2  0  0  0  0
 18 34  1  0  0  0  0
 19 21  2  0  0  0  0
 19 39  1  0  0  0  0
 20 22  2  0  0  0  0
 20 40  1  0  0  0  0
 21 48  1  0  0  0  0
 22 41  1  0  0  0  0
 23 25  1  0  0  0  0
 23 57  1  0  0  0  0
 24 31  1  0  0  0  0
 24 59  1  0  0  0  0
 25 31  2  0  0  0  0
 25 58  1  0  0  0  0
 26 79  1  0  0  0  0
 27 80  1  0  0  0  0
 28 30  2  0  0  0  0
 28 79  1  0  0  0  0
 29 81  1  0  0  0  0
 30 82  1  0  0  0  0
 31 83  1  0  0  0  0
 32 64  2  0  0  0  0
 33 65  1  0  0  0  0
 33 68  1  0  0  0  0
 34 69  1  0  0  0  0
 34 74  2  0  0  0  0
 35 49  1  0  0  0  0
 35 70  1  0  0  0  0
 35 75  2  0  0  0  0
 36 61  1  0  0  0  0
 36 66  1  0  0  0  0
 36 76  2  0  0  0  0
 37 62  1  0  0  0  0
 37 71  1  0  0  0  0
 37 77  2  0  0  0  0
 38 67  1  0  0  0  0
 38 72  1  0  0  0  0
 38 78  2  0  0  0  0
 39 42  1  0  0  0  0
 40 49  1  0  0  0  0
 41 66  1  0  0  0  0
 42 44  1  0  0  0  0
 43 45  1  0  0  0  0
 43 46  1  0  0  0  0
 44 48  1  0  0  0  0
 45 50  1  0  0  0  0
 46 67  1  0  0  0  0
 47 50  1  0  0  0  0
 47 67  1  0  0  0  0
 48 70  1  0  0  0  0
 49 66  1  0  0  0  0
 50 65  1  0  0  0  0
 51 58  1  0  0  0  0
 52 62  1  0  0  0  0
 53 63  1  0  0  0  0
 54 63  1  0  0  0  0
 55 63  1  0  0  0  0
 56 73  1  0  0  0  0
 57 60  1  0  0  0  0
 59 72  1  0  0  0  0
 60 80  1  0  0  0  0
 61 63  1  0  0  0  0
 61 71  1  0  0  0  0
 62 73  1  0  0  0  0
 64 65  1  0  0  0  0
M  CHG  1  73   1
M  ISO  4  38 100  60 101  72 100  80 101
M  END
> <Batch ID>
0032

> <Smiles>
CCc1c(C[101CH2:1][101O:1]c2ccc3c(c2)CN(C(=O)C(NC(=O)C(C)NC)C(C)(C)C)C(C(=O)NC2CCCc4ccccc42)C3)ccc(C[100NH:0][100C:0](=O)N2CCCC(n3nc(-c4ccc(Oc5ccc(F)cc5F)cc4)c(C(N)=O)c3N)C2)c1Cl

> <Shape>
0.150

> <Color>
0.189

> <Negative vol penalty>
0.000

$$$$

  -OEChem-04052316453D

 84 92  0     1  0  0  0  0  0999 V2000
  -36.9924  -21.9302   14.6956 C   0  0  0  0  0  0  0  0  0  0  0  0
  -35.9588  -21.5085   15.5257 C   0  0  0  0  0  0  0  0  0  0  0  0
  -23.2880   -9.7990   19.9133 C   0  0  0  0  0  0  0  0  0  0  0  0
  -23.7396   -9.9398   22.2825 C   0  0  0  0  0  0  0  0  0  0  0  0
  -37.9974  -21.0369   14.3269 C   0  0  0  0  0  0  0  0  0  0  0  0
  -35.9289  -20.1929   15.9868 C   0  0  0  0  0  0  0  0  0  0  0  0
  -34.8356  -19.8882   20.9220 C   0  0  0  0  0  0  0  0  0  0  0  0
  -22.5619   -8.6264   20.1213 C   0  0  0  0  0  0  0  0  0  0  0  0
  -23.0133   -8.7672   22.4906 C   0  0  0  0  0  0  0  0  0  0  0  0
  -33.4990  -20.0394   21.2886 C   0  0  0  0  0  0  0  0  0  0  0  0
  -20.9749   -6.0069   23.6922 C   0  0  0  0  0  0  0  0  0  0  0  0
  -20.0736   -5.9816   24.7565 C   0  0  0  0  0  0  0  0  0  0  0  0
  -33.2843  -17.6436   21.4712 C   0  0  0  0  0  0  0  0  0  0  0  0
  -30.5732  -16.8979   26.3911 C   0  0  0  0  0  0  0  0  0  0  0  0
  -30.0910  -17.5941   24.1284 C   0  0  0  0  0  0  0  0  0  0  0  0
  -18.8636   -7.8286   23.7757 C   0  0  0  0  0  0  0  0  0  0  0  0
  -23.8770  -10.4557   20.9939 C   0  0  0  0  0  0  0  0  0  0  0  0
  -24.1361  -12.9857   20.7951 C   0  0  0  0  0  0  0  0  0  0  0  0
  -37.9850  -19.7122   14.7914 C   0  0  0  0  0  0  0  0  0  0  0  0
  -35.4046  -18.6108   20.8165 C   0  0  0  0  0  0  0  0  0  0  0  0
  -36.9339  -19.2806   15.6228 C   0  0  0  0  0  0  0  0  0  0  0  0
  -34.6290  -17.4790   21.1056 C   0  0  0  0  0  0  0  0  0  0  0  0
  -30.3253  -16.5790   25.0560 C   0  0  0  0  0  0  0  0  0  0  0  0
  -30.5867  -18.2319   26.7986 C   0  0  0  0  0  0  0  0  0  0  0  0
  -30.1046  -18.9281   24.5359 C   0  0  0  0  0  0  0  0  0  0  0  0
  -22.4245   -8.1105   21.4099 C   0  0  0  0  0  0  0  0  0  0  0  0
  -32.7223  -18.9169   21.5604 C   0  0  0  0  0  0  0  0  0  0  0  0
  -20.8206   -6.9431   22.6697 C   0  0  0  0  0  0  0  0  0  0  0  0
  -19.0180   -6.8924   24.7982 C   0  0  0  0  0  0  0  0  0  0  0  0
  -19.7649   -7.8539   22.7115 C   0  0  0  0  0  0  0  0  0  0  0  0
  -30.3525  -19.2470   25.8710 C   0  0  0  0  0  0  0  0  0  0  0  0
  -24.6278  -11.6666   20.7795 C   0  0  0  0  0  0  0  0  0  0  0  0
  -25.2374  -13.7656   20.5397 C   0  0  0  0  0  0  0  0  0  0  0  0
  -22.8031  -13.4632   21.0203 C   0  0  0  0  0  0  0  0  0  0  0  0
  -36.7051  -16.9224   18.4582 C   0  0  0  0  0  0  0  0  0  0  0  0
  -37.3820  -14.8364   20.8483 C   0  0  0  0  0  0  0  0  0  0  0  0
  -36.6284  -13.6497   23.9581 C   0  0  0  0  0  0  0  0  0  0  0  0
  -31.1088  -12.9231   21.3574 C   0  0  0  0  0  0  0  0  0  0  0  0
  -39.0676  -18.7701   14.3276 C   0  0  0  0  0  0  0  0  0  0  0  0
  -36.8551  -18.4660   20.4459 C   0  0  0  0  0  0  0  0  0  0  0  0
  -35.1979  -16.0866   21.0265 C   0  0  0  0  0  0  0  0  0  0  0  0
  -39.1648  -17.4958   15.1624 C   0  0  0  0  0  0  0  0  0  0  0  0
  -29.4588  -13.6623   18.2902 C   0  0  0  0  0  0  0  0  0  0  0  0
  -37.7795  -16.8983   15.3879 C   0  0  0  0  0  0  0  0  0  0  0  0
  -27.9892  -13.3537   18.5818 C   0  0  0  0  0  0  0  0  0  0  0  0
  -30.3924  -12.6830   18.9983 C   0  0  0  0  0  0  0  0  0  0  0  0
  -28.7064  -12.2536   20.7438 C   0  0  0  0  0  0  0  0  0  0  0  0
  -36.8800  -17.8682   16.1635 C   0  0  1  0  0  0  0  0  0  0  0  0
  -37.1904  -17.0937   19.8699 C   0  0  1  0  0  0  0  0  0  0  0  0
  -27.7281  -13.2487   20.0964 C   0  0  2  0  0  0  0  0  0  0  0  0
  -30.8565  -18.5268   28.2392 C   0  0  0  0  0  0  0  0  0  0  0  0
  -37.3339  -11.9155   25.6291 C   0  0  0  0  0  0  0  0  0  0  0  0
  -36.0098  -12.6782   19.1843 C   0  0  0  0  0  0  0  0  0  0  0  0
  -35.8979  -11.2593   21.2440 C   0  0  0  0  0  0  0  0  0  0  0  0
  -38.1124  -11.9406   20.3197 C   0  0  0  0  0  0  0  0  0  0  0  0
  -37.2980  -15.7038   25.9808 C   0  0  0  0  0  0  0  0  0  0  0  0
  -30.3108  -15.1528   24.6203 C   0  0  0  0  0  0  0  0  0  0  0  0
  -29.8458  -19.9927   23.4976 C   0  0  0  0  0  0  0  0  0  0  0  0
  -31.6796  -14.6116   24.1622 C   0  0  0  0  0  0  0  0  0  0  0  0
  -31.6714  -13.1370   23.7651 C   0  0  0  0  0  0  0  0  0  0  0  0
  -31.0640  -20.2535   22.6185 C   0  0  0  0  0  0  0  0  0  1  0  0
  -36.6694  -13.6637   21.4777 C   0  0  1  0  0  0  0  0  0  0  0  0
  -37.5037  -13.3529   25.1624 C   0  0  2  0  0  0  0  0  0  0  0  0
  -36.6608  -12.4115   20.5561 C   0  0  0  0  0  0  0  0  0  0  0  0
  -25.9393  -11.6081   20.5336 N   0  0  0  0  0  0  0  0  0  0  0  0
  -26.2811  -12.9001   20.3921 N   0  0  0  0  0  0  0  0  0  0  0  0
  -36.6193  -15.9967   20.6538 N   0  0  0  0  0  0  0  0  0  0  0  0
  -30.0936  -12.6316   20.4315 N   0  0  0  0  0  0  0  0  0  0  0  0
  -25.4052  -15.1006   20.4291 N   0  0  0  0  0  0  0  0  0  0  0  0
  -21.7907  -12.5262   21.2682 N   0  0  0  0  0  0  0  0  0  0  0  0
  -37.2146  -17.8516   17.5714 N   0  0  0  0  0  0  0  0  0  0  0  0
  -37.3043  -13.4478   22.7733 N   0  0  0  0  0  0  0  0  0  0  0  0
  -30.7395  -12.8576   22.6954 N   0  0  0  0  0  0  0  0  0  0  0  0
  -37.1536  -14.2585   26.2929 N   0  3  0  0  0  0  0  0  0  0  0  0
  -22.5151  -14.6836   20.9860 O   0  0  0  0  0  0  0  0  0  0  0  0
  -35.9271  -16.0135   18.1929 O   0  0  0  0  0  0  0  0  0  0  0  0
  -38.5735  -14.7293   20.5472 O   0  0  0  0  0  0  0  0  0  0  0  0
  -35.4607  -14.0197   24.0583 O   0  0  0  0  0  0  0  0  0  0  0  0
  -32.2576  -13.2250   21.0169 O   0  0  0  0  0  0  0  0  0  0  0  0
  -21.7157   -6.9665   21.6134 O   0  0  0  0  0  0  0  0  0  0  0  0
  -31.4172  -19.0616   21.9178 O   0  0  0  0  0  0  0  0  0  1  0  0
  -18.1517   -6.8670   25.8195 F   0  0  0  0  0  0  0  0  0  0  0  0
  -19.6108   -8.7549   21.7315 F   0  0  0  0  0  0  0  0  0  0  0  0
  -30.3691  -20.9031   26.3770 Cl  0  0  0  0  0  0  0  0  0  0  0  0
  1  2  1  0  0  0  0
  1  5  2  0  0  0  0
  2  6  2  0  0  0  0
  3  8  2  0  0  0  0
  3 17  1  0  0  0  0
  4  9  1  0  0  0  0
  4 17  2  0  0  0  0
  5 19  1  0  0  0  0
  6 21  1  0  0  0  0
  7 10  2  0  0  0  0
  7 20  1  0  0  0  0
  8 26  1  0  0  0  0
  9 26  2  0  0  0  0
 10 27  1  0  0  0  0
 11 12  2  0  0  0  0
 11 28  1  0  0  0  0
 12 29  1  0  0  0  0
 13 22  1  0  0  0  0
 13 27  2  0  0  0  0
 14 23  1  0  0  0  0
 14 24  2  0  0  0  0
 15 23  2  0  0  0  0
 15 25  1  0  0  0  0
 16 29  2  0  0  0  0
 16 30  1  0  0  0  0
 17 32  1  0  0  0  0
 18 32  1  0  0  0  0
 18 33  2  0  0  0  0
 18 34  1  0  0  0  0
 19 21  2  0  0  0  0
 19 39  1  0  0  0  0
 20 22  2  0  0  0  0
 20 40  1  0  0  0  0
 21 48  1  0  0  0  0
 22 41  1  0  0  0  0
 23 57  1  0  0  0  0
 24 31  1  0  0  0  0
 24 51  1  0  0  0  0
 25 31  2  0  0  0  0
 25 58  1  0  0  0  0
 26 80  1  0  0  0  0
 27 81  1  0  0  0  0
 28 30  2  0  0  0  0
 28 80  1  0  0  0  0
 29 82  1  0  0  0  0
 30 83  1  0  0  0  0
 31 84  1  0  0  0  0
 32 65  2  0  0  0  0
 33 66  1  0  0  0  0
 33 69  1  0  0  0  0
 34 70  1  0  0  0  0
 34 75  2  0  0  0  0
 35 49  1  0  0  0  0
 35 71  1  0  0  0  0
 35 76  2  0  0  0  0
 36 62  1  0  0  0  0
 36 67  1  0  0  0  0
 36 77  2  0  0  0  0
 37 63  1  0  0  0  0
 37 72  1  0  0  0  0
 37 78  2  0  0  0  0
 38 68  1  0  0  0  0
 38 73  1  0  0  0  0
 38 79  2  0  0  0  0
 39 42  1  0  0  0  0
 40 49  1  0  0  0  0
 41 67  1  0  0  0  0
 42 44  1  0  0  0  0
 43 45  1  0  0  0  0
 43 46  1  0  0  0  0
 44 48  1  0  0  0  0
 45 50  1  0  0  0  0
 46 68  1  0  0  0  0
 47 50  1  0  0  0  0
 47 68  1  0  0  0  0
 48 71  1  0  0  0  0
 49 67  1  0  0  0  0
 50 66  1  0  0  0  0
 52 63  1  0  0  0  0
 53 64  1  0  0  0  0
 54 64  1  0  0  0  0
 55 64  1  0  0  0  0
 56 74  1  0  0  0  0
 57 59  1  0  0  0  0
 58 61  1  0  0  0  0
 59 60  1  0  0  0  0
 60 73  1  0  0  0  0
 61 81  1  0  0  0  0
 62 64  1  0  0  0  0
 62 72  1  0  0  0  0
 63 74  1  0  0  0  0
 65 66  1  0  0  0  0
M  CHG  1  74   1
M  ISO  4  38 100  61 101  73 100  81 101
M  END
> <Batch ID>
0032

> <Smiles>
CNC(C)C(=O)NC(C(=O)N1Cc2cc([101O:1][101CH2:1]Cc3cc(CCC[100NH:0][100C:0](=O)N4CCCC(n5nc(-c6ccc(Oc7ccc(F)cc7F)cc6)c(C(N)=O)c5N)C4)cc(C)c3Cl)ccc2CC1C(=O)NC1CCCc2ccccc21)C(C)(C)C

> <Shape>
0.134

> <Color>
0.182

> <Negative vol penalty>
0.000

$$$$

  -OEChem-04052316453D

 82 90  0     1  0  0  0  0  0999 V2000
  -16.7490  -29.3999   24.2975 C   0  0  0  0  0  0  0  0  0  0  0  0
  -17.8911  -29.8637   24.9424 C   0  0  0  0  0  0  0  0  0  0  0  0
  -26.2183  -17.6315   21.7262 C   0  0  0  0  0  0  0  0  0  0  0  0
  -28.4863  -17.7027   20.8964 C   0  0  0  0  0  0  0  0  0  0  0  0
  -16.8661  -28.5267   23.2169 C   0  0  0  0  0  0  0  0  0  0  0  0
  -19.1510  -29.4536   24.5078 C   0  0  0  0  0  0  0  0  0  0  0  0
  -25.8942  -31.8010   23.9287 C   0  0  0  0  0  0  0  0  0  0  0  0
  -26.0032  -16.4388   21.0358 C   0  0  0  0  0  0  0  0  0  0  0  0
  -28.2711  -16.5099   20.2061 C   0  0  0  0  0  0  0  0  0  0  0  0
  -27.1957  -31.4325   24.2665 C   0  0  0  0  0  0  0  0  0  0  0  0
  -28.4318  -13.2950   18.5160 C   0  0  0  0  0  0  0  0  0  0  0  0
  -29.4207  -12.3142   18.5907 C   0  0  0  0  0  0  0  0  0  0  0  0
  -27.2793  -29.9840   22.3393 C   0  0  0  0  0  0  0  0  0  0  0  0
  -31.7670  -27.8035   20.7127 C   0  0  0  0  0  0  0  0  0  0  0  0
  -33.4726  -27.5298   22.4017 C   0  0  0  0  0  0  0  0  0  0  0  0
  -32.7476  -25.6293   21.0980 C   0  0  0  0  0  0  0  0  0  0  0  0
  -29.1505  -12.2244   20.9898 C   0  0  0  0  0  0  0  0  0  0  0  0
  -27.4599  -18.2636   21.6564 C   0  0  0  0  0  0  0  0  0  0  0  0
  -28.1597  -19.6428   23.6851 C   0  0  0  0  0  0  0  0  0  0  0  0
  -18.1284  -28.1133   22.7627 C   0  0  0  0  0  0  0  0  0  0  0  0
  -25.2705  -31.2545   22.7979 C   0  0  0  0  0  0  0  0  0  0  0  0
  -19.2851  -28.5730   23.4210 C   0  0  0  0  0  0  0  0  0  0  0  0
  -25.9707  -30.3491   21.9880 C   0  0  0  0  0  0  0  0  0  0  0  0
  -32.5772  -28.3457   21.7103 C   0  0  0  0  0  0  0  0  0  0  0  0
  -31.8521  -26.4453   20.4066 C   0  0  0  0  0  0  0  0  0  0  0  0
  -27.0296  -15.8779   20.2758 C   0  0  0  0  0  0  0  0  0  0  0  0
  -27.8874  -30.5217   23.4734 C   0  0  0  0  0  0  0  0  0  0  0  0
  -27.8022  -13.7406   19.6782 C   0  0  0  0  0  0  0  0  0  0  0  0
  -29.7801  -11.7789   19.8276 C   0  0  0  0  0  0  0  0  0  0  0  0
  -28.1616  -13.2053   20.9151 C   0  0  0  0  0  0  0  0  0  0  0  0
  -33.5578  -26.1716   22.0956 C   0  0  0  0  0  0  0  0  0  0  0  0
  -27.6826  -19.4960   22.3688 C   0  0  0  0  0  0  0  0  0  0  0  0
  -28.1926  -21.0007   23.8890 C   0  0  0  0  0  0  0  0  0  0  0  0
  -28.5394  -18.6413   24.6382 C   0  0  0  0  0  0  0  0  0  0  0  0
  -22.6941  -29.4593   22.3049 C   0  0  0  0  0  0  0  0  0  0  0  0
  -23.3930  -30.0007   19.1839 C   0  0  0  0  0  0  0  0  0  0  0  0
  -25.7390  -30.7938   16.8356 C   0  0  0  0  0  0  0  0  0  0  0  0
  -28.6571  -25.6719   20.1721 C   0  0  0  0  0  0  0  0  0  0  0  0
  -18.2031  -27.1311   21.6206 C   0  0  0  0  0  0  0  0  0  0  0  0
  -23.8757  -31.6827   22.4322 C   0  0  0  0  0  0  0  0  0  0  0  0
  -25.3533  -29.7491   20.7521 C   0  0  0  0  0  0  0  0  0  0  0  0
  -19.5882  -27.0398   20.9854 C   0  0  0  0  0  0  0  0  0  0  0  0
  -26.0449  -25.0473   22.5094 C   0  0  0  0  0  0  0  0  0  0  0  0
  -20.6631  -26.9298   22.0620 C   0  0  0  0  0  0  0  0  0  0  0  0
  -26.2115  -23.5670   22.8572 C   0  0  0  0  0  0  0  0  0  0  0  0
  -26.3641  -25.3215   21.0415 C   0  0  0  0  0  0  0  0  0  0  0  0
  -27.8503  -23.3581   20.9417 C   0  0  0  0  0  0  0  0  0  0  0  0
  -20.6702  -28.1704   22.9633 C   0  0  1  0  0  0  0  0  0  0  0  0
  -23.1535  -30.6722   21.5464 C   0  0  1  0  0  0  0  0  0  0  0  0
  -27.5936  -23.0415   22.4250 C   0  0  2  0  0  0  0  0  0  0  0  0
  -26.0187  -31.1241   14.3638 C   0  0  0  0  0  0  0  0  0  0  0  0
  -23.3329  -26.9776   18.7755 C   0  0  0  0  0  0  0  0  0  0  0  0
  -24.5241  -27.3178   16.5998 C   0  0  0  0  0  0  0  0  0  0  0  0
  -22.2568  -28.2991   16.9452 C   0  0  0  0  0  0  0  0  0  0  0  0
  -26.5663  -33.6133   17.1887 C   0  0  0  0  0  0  0  0  0  0  0  0
  -32.4857  -29.8143   22.0396 C   0  0  0  0  0  0  0  0  0  0  0  0
  -30.9865  -25.8670   19.3384 C   0  0  0  0  0  0  0  0  0  0  0  0
  -31.4605  -30.1387   23.1283 C   0  0  0  0  0  0  0  0  0  0  0  0
  -30.0285  -29.8026   22.7286 C   0  0  0  0  0  0  0  0  0  1  0  0
  -24.2406  -29.3103   18.1428 C   0  0  1  0  0  0  0  0  0  0  0  0
  -25.7245  -31.7963   15.6958 C   0  0  2  0  0  0  0  0  0  0  0  0
  -23.5998  -27.9859   17.6401 C   0  0  0  0  0  0  0  0  0  0  0  0
  -27.4303  -20.6672   21.7782 N   0  0  0  0  0  0  0  0  0  0  0  0
  -27.7500  -21.5628   22.7278 N   0  0  0  0  0  0  0  0  0  0  0  0
  -23.9852  -30.1943   20.4400 N   0  0  0  0  0  0  0  0  0  0  0  0
  -27.6887  -24.7999   20.6965 N   0  0  0  0  0  0  0  0  0  0  0  0
  -28.5565  -21.7568   24.9465 N   0  0  0  0  0  0  0  0  0  0  0  0
  -28.4444  -17.2937   24.2651 N   0  0  0  0  0  0  0  0  0  0  0  0
  -21.3246  -29.2758   22.2966 N   0  0  0  0  0  0  0  0  0  0  0  0
  -24.4797  -30.2946   17.0928 N   0  0  0  0  0  0  0  0  0  0  0  0
  -29.8877  -25.0975   19.8781 N   0  0  0  0  0  0  0  0  0  0  0  0
  -26.7482  -32.8551   15.9242 N   0  3  0  0  0  0  0  0  0  0  0  0
  -28.9352  -18.9322   25.7924 O   0  0  0  0  0  0  0  0  0  0  0  0
  -23.5212  -28.7421   22.8557 O   0  0  0  0  0  0  0  0  0  0  0  0
  -22.2503  -30.3616   18.8912 O   0  0  0  0  0  0  0  0  0  0  0  0
  -26.7655  -30.4816   17.4352 O   0  0  0  0  0  0  0  0  0  0  0  0
  -28.4426  -26.8744   19.9851 O   0  0  0  0  0  0  0  0  0  0  0  0
  -26.8201  -14.7139   19.6023 O   0  0  0  0  0  0  0  0  0  0  0  0
  -29.1576  -30.1598   23.8012 O   0  0  0  0  0  0  0  0  0  1  0  0
  -30.7287  -10.8359   19.8990 F   0  0  0  0  0  0  0  0  0  0  0  0
  -27.5595  -13.6286   22.0350 F   0  0  0  0  0  0  0  0  0  0  0  0
  -34.6617  -25.1645   22.9496 Cl  0  0  0  0  0  0  0  0  0  0  0  0
  1  2  1  0  0  0  0
  1  5  2  0  0  0  0
  2  6  2  0  0  0  0
  3  8  2  0  0  0  0
  3 18  1  0  0  0  0
  4  9  1  0  0  0  0
  4 18  2  0  0  0  0
  5 20  1  0  0  0  0
  6 22  1  0  0  0  0
  7 10  2  0  0  0  0
  7 21  1  0  0  0  0
  8 26  1  0  0  0  0
  9 26  2  0  0  0  0
 10 27  1  0  0  0  0
 11 12  2  0  0  0  0
 11 28  1  0  0  0  0
 12 29  1  0  0  0  0
 13 23  1  0  0  0  0
 13 27  2  0  0  0  0
 14 24  2  0  0  0  0
 14 25  1  0  0  0  0
 15 24  1  0  0  0  0
 15 31  2  0  0  0  0
 16 25  2  0  0  0  0
 16 31  1  0  0  0  0
 17 29  2  0  0  0  0
 17 30  1  0  0  0  0
 18 32  1  0  0  0  0
 19 32  1  0  0  0  0
 19 33  2  0  0  0  0
 19 34  1  0  0  0  0
 20 22  2  0  0  0  0
 20 39  1  0  0  0  0
 21 23  2  0  0  0  0
 21 40  1  0  0  0  0
 22 48  1  0  0  0  0
 23 41  1  0  0  0  0
 24 56  1  0  0  0  0
 25 57  1  0  0  0  0
 26 78  1  0  0  0  0
 27 79  1  0  0  0  0
 28 30  2  0  0  0  0
 28 78  1  0  0  0  0
 29 80  1  0  0  0  0
 30 81  1  0  0  0  0
 31 82  1  0  0  0  0
 32 63  2  0  0  0  0
 33 64  1  0  0  0  0
 33 67  1  0  0  0  0
 34 68  1  0  0  0  0
 34 73  2  0  0  0  0
 35 49  1  0  0  0  0
 35 69  1  0  0  0  0
 35 74  2  0  0  0  0
 36 60  1  0  0  0  0
 36 65  1  0  0  0  0
 36 75  2  0  0  0  0
 37 61  1  0  0  0  0
 37 70  1  0  0  0  0
 37 76  2  0  0  0  0
 38 66  1  0  0  0  0
 38 71  1  0  0  0  0
 38 77  2  0  0  0  0
 39 42  1  0  0  0  0
 40 49  1  0  0  0  0
 41 65  1  0  0  0  0
 42 44  1  0  0  0  0
 43 45  1  0  0  0  0
 43 46  1  0  0  0  0
 44 48  1  0  0  0  0
 45 50  1  0  0  0  0
 46 66  1  0  0  0  0
 47 50  1  0  0  0  0
 47 66  1  0  0  0  0
 48 69  1  0  0  0  0
 49 65  1  0  0  0  0
 50 64  1  0  0  0  0
 51 61  1  0  0  0  0
 52 62  1  0  0  0  0
 53 62  1  0  0  0  0
 54 62  1  0  0  0  0
 55 72  1  0  0  0  0
 56 58  1  0  0  0  0
 57 71  1  0  0  0  0
 58 59  1  0  0  0  0
 59 79  1  0  0  0  0
 60 62  1  0  0  0  0
 60 70  1  0  0  0  0
 61 72  1  0  0  0  0
 63 64  1  0  0  0  0
M  CHG  1  72   1
M  ISO  4  38 100  59 101  71 100  79 101
M  END
> <Batch ID>
0032

> <Smiles>
CNC(C)C(=O)NC(C(=O)N1Cc2cc([101O:1][101CH2:1]CCc3cc(Cl)cc(C[100NH:0][100C:0](=O)N4CCCC(n5nc(-c6ccc(Oc7ccc(F)cc7F)cc6)c(C(N)=O)c5N)C4)c3)ccc2CC1C(=O)NC1CCCc2ccccc21)C(C)(C)C

> <Shape>
0.257

> <Color>
0.121

> <Negative vol penalty>
0.000

$$$$

  -OEChem-04052316453D

 83 91  0     1  0  0  0  0  0999 V2000
  -31.3261  -23.8449    6.2533 C   0  0  0  0  0  0  0  0  0  0  0  0
  -31.1182  -23.1536    7.4425 C   0  0  0  0  0  0  0  0  0  0  0  0
  -23.0021   -9.8950   19.9769 C   0  0  0  0  0  0  0  0  0  0  0  0
  -23.7340   -9.9361   22.2790 C   0  0  0  0  0  0  0  0  0  0  0  0
  -32.6225  -24.0374    5.7777 C   0  0  0  0  0  0  0  0  0  0  0  0
  -32.2066  -22.6533    8.1562 C   0  0  0  0  0  0  0  0  0  0  0  0
  -31.8540  -23.5610   13.1258 C   0  0  0  0  0  0  0  0  0  0  0  0
  -22.2385   -8.7578   20.2399 C   0  0  0  0  0  0  0  0  0  0  0  0
  -22.9703   -8.7989   22.5421 C   0  0  0  0  0  0  0  0  0  0  0  0
  -31.0021  -22.7406   13.8640 C   0  0  0  0  0  0  0  0  0  0  0  0
  -23.2194   -5.4627   22.0532 C   0  0  0  0  0  0  0  0  0  0  0  0
  -23.8110   -4.4430   22.7986 C   0  0  0  0  0  0  0  0  0  0  0  0
  -32.8996  -21.4512   14.6096 C   0  0  0  0  0  0  0  0  0  0  0  0
  -31.6761  -18.2472   20.0429 C   0  0  0  0  0  0  0  0  0  0  0  0
  -29.2710  -19.6480   19.8544 C   0  0  0  0  0  0  0  0  0  0  0  0
  -22.0916   -4.6745   24.4800 C   0  0  0  0  0  0  0  0  0  0  0  0
  -23.7500  -10.4841   20.9964 C   0  0  0  0  0  0  0  0  0  0  0  0
  -24.1301  -13.0012   20.8316 C   0  0  0  0  0  0  0  0  0  0  0  0
  -33.7279  -23.5476    6.4909 C   0  0  0  0  0  0  0  0  0  0  0  0
  -33.2363  -23.3256   13.1153 C   0  0  0  0  0  0  0  0  0  0  0  0
  -33.5190  -22.8382    7.6890 C   0  0  0  0  0  0  0  0  0  0  0  0
  -33.7672  -22.2716   13.8725 C   0  0  0  0  0  0  0  0  0  0  0  0
  -30.6188  -17.9357   20.8976 C   0  0  0  0  0  0  0  0  0  0  0  0
  -22.2225   -8.2097   21.5225 C   0  0  0  0  0  0  0  0  0  0  0  0
  -31.5245  -21.6838   14.6038 C   0  0  0  0  0  0  0  0  0  0  0  0
  -22.0639   -6.0885   22.5212 C   0  0  0  0  0  0  0  0  0  0  0  0
  -30.3283  -19.9595   18.9997 C   0  0  0  0  0  0  0  0  0  0  0  0
  -23.2471   -4.0489   24.0120 C   0  0  0  0  0  0  0  0  0  0  0  0
  -21.5000   -5.6944   23.7346 C   0  0  0  0  0  0  0  0  0  0  0  0
  -31.5309  -19.2591   19.0939 C   0  0  0  0  0  0  0  0  0  0  0  0
  -29.4162  -18.6360   20.8034 C   0  0  0  0  0  0  0  0  0  0  0  0
  -24.5395  -11.6585   20.7252 C   0  0  0  0  0  0  0  0  0  0  0  0
  -25.2375  -13.7277   20.4675 C   0  0  0  0  0  0  0  0  0  0  0  0
  -22.8623  -13.5434   21.2245 C   0  0  0  0  0  0  0  0  0  0  0  0
  -35.3681  -22.5822   10.8777 C   0  0  0  0  0  0  0  0  0  0  0  0
  -37.4803  -22.9926   13.3052 C   0  0  0  0  0  0  0  0  0  0  0  0
  -38.0594  -23.0188   16.6684 C   0  0  0  0  0  0  0  0  0  0  0  0
  -30.7328  -14.6712   20.7045 C   0  0  0  0  0  0  0  0  0  0  0  0
  -35.1077  -23.7392    5.9127 C   0  0  0  0  0  0  0  0  0  0  0  0
  -34.1447  -24.2360   12.3351 C   0  0  0  0  0  0  0  0  0  0  0  0
  -35.2461  -21.9890   13.9108 C   0  0  0  0  0  0  0  0  0  0  0  0
  -36.2289  -23.5027    6.9213 C   0  0  0  0  0  0  0  0  0  0  0  0
  -29.5897  -12.2569   18.3506 C   0  0  0  0  0  0  0  0  0  0  0  0
  -35.9806  -22.2171    7.7038 C   0  0  0  0  0  0  0  0  0  0  0  0
  -28.1429  -11.9924   18.7711 C   0  0  0  0  0  0  0  0  0  0  0  0
  -30.4952  -12.4881   19.5583 C   0  0  0  0  0  0  0  0  0  0  0  0
  -28.5876  -13.2735   20.9065 C   0  0  0  0  0  0  0  0  0  0  0  0
  -34.6755  -22.3019    8.5044 C   0  0  1  0  0  0  0  0  0  0  0  0
  -35.4820  -23.5900   11.9863 C   0  0  1  0  0  0  0  0  0  0  0  0
  -27.6254  -13.0899   19.7204 C   0  0  2  0  0  0  0  0  0  0  0  0
  -39.8936  -23.3486   18.3489 C   0  0  0  0  0  0  0  0  0  0  0  0
  -38.5578  -20.2091   12.6717 C   0  0  0  0  0  0  0  0  0  0  0  0
  -39.6831  -20.2119   14.9082 C   0  0  0  0  0  0  0  0  0  0  0  0
  -40.3122  -21.9127   13.1953 C   0  0  0  0  0  0  0  0  0  0  0  0
  -36.6878  -25.3437   17.8818 C   0  0  0  0  0  0  0  0  0  0  0  0
  -30.8150  -16.8445   21.9000 C   0  0  0  0  0  0  0  0  0  0  0  0
  -29.4993  -21.4716   15.8324 C   0  0  0  0  0  0  0  0  0  1  0  0
  -29.1151  -20.7785   17.1253 C   0  0  0  0  0  0  0  0  0  0  0  0
  -38.0783  -22.0987   14.3646 C   0  0  1  0  0  0  0  0  0  0  0  0
  -38.7786  -24.0159   17.5589 C   0  0  2  0  0  0  0  0  0  0  0  0
  -39.1297  -21.1120   13.7829 C   0  0  0  0  0  0  0  0  0  0  0  0
  -25.8078  -11.5363   20.3247 N   0  0  0  0  0  0  0  0  0  0  0  0
  -26.2050  -12.8116   20.1762 N   0  0  0  0  0  0  0  0  0  0  0  0
  -36.0925  -22.9034   13.1265 N   0  0  0  0  0  0  0  0  0  0  0  0
  -29.9490  -13.5416   20.4171 N   0  0  0  0  0  0  0  0  0  0  0  0
  -25.4682  -15.0543   20.3712 N   0  0  0  0  0  0  0  0  0  0  0  0
  -21.8331  -12.6557   21.5667 N   0  0  0  0  0  0  0  0  0  0  0  0
  -34.8657  -23.0976    9.6982 N   0  0  0  0  0  0  0  0  0  0  0  0
  -38.5991  -22.9848   15.4000 N   0  0  0  0  0  0  0  0  0  0  0  0
  -30.1371  -15.6249   21.5207 N   0  0  0  0  0  0  0  0  0  0  0  0
  -37.8237  -24.6324   18.5228 N   0  3  0  0  0  0  0  0  0  0  0  0
  -22.6434  -14.7782   21.2549 O   0  0  0  0  0  0  0  0  0  0  0  0
  -35.7121  -21.4230   11.0772 O   0  0  0  0  0  0  0  0  0  0  0  0
  -38.2163  -23.7475   12.6650 O   0  0  0  0  0  0  0  0  0  0  0  0
  -37.1158  -22.3356   17.0599 O   0  0  0  0  0  0  0  0  0  0  0  0
  -31.8767  -14.8214   20.2618 O   0  0  0  0  0  0  0  0  0  0  0  0
  -21.4773   -7.1002   21.7796 O   0  0  0  0  0  0  0  0  0  0  0  0
  -30.6951  -20.8811   15.3247 O   0  0  0  0  0  0  0  0  0  1  0  0
  -30.1581  -20.9569   18.0759 O   0  0  0  0  0  0  0  0  0  0  0  0
  -23.8145   -3.0685   24.7270 F   0  0  0  0  0  0  0  0  0  0  0  0
  -20.3893   -6.2910   24.1888 F   0  0  0  0  0  0  0  0  0  0  0  0
  -32.8537  -19.6233   18.0479 Cl  0  0  0  0  0  0  0  0  0  0  0  0
  -28.0872  -18.2786   21.8449 Cl  0  0  0  0  0  0  0  0  0  0  0  0
  1  2  1  0  0  0  0
  1  5  2  0  0  0  0
  2  6  2  0  0  0  0
  3  8  2  0  0  0  0
  3 17  1  0  0  0  0
  4  9  1  0  0  0  0
  4 17  2  0  0  0  0
  5 19  1  0  0  0  0
  6 21  1  0  0  0  0
  7 10  2  0  0  0  0
  7 20  1  0  0  0  0
  8 24  1  0  0  0  0
  9 24  2  0  0  0  0
 10 25  1  0  0  0  0
 11 12  2  0  0  0  0
 11 26  1  0  0  0  0
 12 28  1  0  0  0  0
 13 22  1  0  0  0  0
 13 25  2  0  0  0  0
 14 23  2  0  0  0  0
 14 30  1  0  0  0  0
 15 27  1  0  0  0  0
 15 31  2  0  0  0  0
 16 28  2  0  0  0  0
 16 29  1  0  0  0  0
 17 32  1  0  0  0  0
 18 32  1  0  0  0  0
 18 33  2  0  0  0  0
 18 34  1  0  0  0  0
 19 21  2  0  0  0  0
 19 39  1  0  0  0  0
 20 22  2  0  0  0  0
 20 40  1  0  0  0  0
 21 48  1  0  0  0  0
 22 41  1  0  0  0  0
 23 31  1  0  0  0  0
 23 56  1  0  0  0  0
 24 77  1  0  0  0  0
 25 78  1  0  0  0  0
 26 29  2  0  0  0  0
 26 77  1  0  0  0  0
 27 30  2  0  0  0  0
 27 79  1  0  0  0  0
 28 80  1  0  0  0  0
 29 81  1  0  0  0  0
 30 82  1  0  0  0  0
 31 83  1  0  0  0  0
 32 62  2  0  0  0  0
 33 63  1  0  0  0  0
 33 66  1  0  0  0  0
 34 67  1  0  0  0  0
 34 72  2  0  0  0  0
 35 49  1  0  0  0  0
 35 68  1  0  0  0  0
 35 73  2  0  0  0  0
 36 59  1  0  0  0  0
 36 64  1  0  0  0  0
 36 74  2  0  0  0  0
 37 60  1  0  0  0  0
 37 69  1  0  0  0  0
 37 75  2  0  0  0  0
 38 65  1  0  0  0  0
 38 70  1  0  0  0  0
 38 76  2  0  0  0  0
 39 42  1  0  0  0  0
 40 49  1  0  0  0  0
 41 64  1  0  0  0  0
 42 44  1  0  0  0  0
 43 45  1  0  0  0  0
 43 46  1  0  0  0  0
 44 48  1  0  0  0  0
 45 50  1  0  0  0  0
 46 65  1  0  0  0  0
 47 50  1  0  0  0  0
 47 65  1  0  0  0  0
 48 68  1  0  0  0  0
 49 64  1  0  0  0  0
 50 63  1  0  0  0  0
 51 60  1  0  0  0  0
 52 61  1  0  0  0  0
 53 61  1  0  0  0  0
 54 61  1  0  0  0  0
 55 71  1  0  0  0  0
 56 70  1  0  0  0  0
 57 58  1  0  0  0  0
 57 78  1  0  0  0  0
 58 79  1  0  0  0  0
 59 61  1  0  0  0  0
 59 69  1  0  0  0  0
 60 71  1  0  0  0  0
 62 63  1  0  0  0  0
M  CHG  1  71   1
M  ISO  4  38 100  57 101  70 100  78 101
M  END
> <Batch ID>
0032

> <Smiles>
CNC(C)C(=O)NC(C(=O)N1Cc2cc([101O:1][101CH2:1]COc3cc(Cl)c(C[100NH:0][100C:0](=O)N4CCCC(n5nc(-c6ccc(Oc7ccc(F)cc7F)cc6)c(C(N)=O)c5N)C4)cc3Cl)ccc2CC1C(=O)NC1CCCc2ccccc21)C(C)(C)C

> <Shape>
0.195

> <Color>
0.202

> <Negative vol penalty>
0.000

$$$$

  -OEChem-04052316453D

 84 92  0     1  0  0  0  0  0999 V2000
  -18.3466  -26.4547   19.2286 C   0  0  0  0  0  0  0  0  0  0  0  0
  -19.5878  -27.0012   18.9184 C   0  0  0  0  0  0  0  0  0  0  0  0
  -26.7019  -14.0707   23.0872 C   0  0  0  0  0  0  0  0  0  0  0  0
  -25.5269  -14.2640   20.9851 C   0  0  0  0  0  0  0  0  0  0  0  0
  -17.8899  -26.4677   20.5459 C   0  0  0  0  0  0  0  0  0  0  0  0
  -20.3726  -27.5620   19.9254 C   0  0  0  0  0  0  0  0  0  0  0  0
  -25.2280  -26.1575   19.6135 C   0  0  0  0  0  0  0  0  0  0  0  0
  -25.8875  -12.9959   23.4437 C   0  0  0  0  0  0  0  0  0  0  0  0
  -24.7125  -13.1892   21.3415 C   0  0  0  0  0  0  0  0  0  0  0  0
  -26.0149  -26.7948   18.6551 C   0  0  0  0  0  0  0  0  0  0  0  0
  -24.9331   -9.8179   21.4204 C   0  0  0  0  0  0  0  0  0  0  0  0
  -24.6994   -8.8365   20.4571 C   0  0  0  0  0  0  0  0  0  0  0  0
  -26.9246  -28.2314   20.3662 C   0  0  0  0  0  0  0  0  0  0  0  0
  -22.3281   -9.2827   20.5779 C   0  0  0  0  0  0  0  0  0  0  0  0
  -26.5216  -14.7048   21.8579 C   0  0  0  0  0  0  0  0  0  0  0  0
  -28.5879  -15.7617   20.7991 C   0  0  0  0  0  0  0  0  0  0  0  0
  -18.6738  -27.0203   21.5710 C   0  0  0  0  0  0  0  0  0  0  0  0
  -25.2755  -26.5603   20.9558 C   0  0  0  0  0  0  0  0  0  0  0  0
  -19.9254  -27.5836   21.2574 C   0  0  0  0  0  0  0  0  0  0  0  0
  -26.1393  -27.5959   21.3400 C   0  0  0  0  0  0  0  0  0  0  0  0
  -30.7299  -25.3292   16.6867 C   0  0  0  0  0  0  0  0  0  0  0  0
  -24.8928  -12.5551   22.5708 C   0  0  0  0  0  0  0  0  0  0  0  0
  -26.8612  -27.8338   19.0309 C   0  0  0  0  0  0  0  0  0  0  0  0
  -23.8643  -10.5316   21.9625 C   0  0  0  0  0  0  0  0  0  0  0  0
  -23.3969   -8.5689   20.0359 C   0  0  0  0  0  0  0  0  0  0  0  0
  -22.5618  -10.2641   21.5412 C   0  0  0  0  0  0  0  0  0  0  0  0
  -30.8525  -26.4632   17.5271 C   0  0  0  0  0  0  0  0  0  0  0  0
  -27.3622  -15.8156   21.4894 C   0  0  0  0  0  0  0  0  0  0  0  0
  -29.9303  -25.6890   15.6244 C   0  0  0  0  0  0  0  0  0  0  0  0
  -30.1239  -27.4814   16.9527 C   0  0  0  0  0  0  0  0  0  0  0  0
  -28.9830  -17.0732   20.6979 C   0  0  0  0  0  0  0  0  0  0  0  0
  -29.3052  -14.6275   20.2944 C   0  0  0  0  0  0  0  0  0  0  0  0
  -23.1721  -27.7649   23.0121 C   0  0  0  0  0  0  0  0  0  0  0  0
  -25.6074  -27.3911   25.1220 C   0  0  0  0  0  0  0  0  0  0  0  0
  -28.9684  -27.1217   25.6492 C   0  0  0  0  0  0  0  0  0  0  0  0
  -27.8406  -22.4321   19.6380 C   0  0  0  0  0  0  0  0  0  0  0  0
  -18.1174  -27.0539   22.9724 C   0  0  0  0  0  0  0  0  0  0  0  0
  -24.4402  -25.8449   21.9819 C   0  0  0  0  0  0  0  0  0  0  0  0
  -26.2423  -28.0526   22.7716 C   0  0  0  0  0  0  0  0  0  0  0  0
  -19.1726  -27.3306   24.0402 C   0  0  0  0  0  0  0  0  0  0  0  0
  -27.1720  -21.2382   22.9250 C   0  0  0  0  0  0  0  0  0  0  0  0
  -20.0619  -28.4973   23.6222 C   0  0  0  0  0  0  0  0  0  0  0  0
  -27.2568  -19.7172   22.7860 C   0  0  0  0  0  0  0  0  0  0  0  0
  -26.5579  -21.8848   21.6854 C   0  0  0  0  0  0  0  0  0  0  0  0
  -27.2943  -20.0041   20.2731 C   0  0  0  0  0  0  0  0  0  0  0  0
  -20.8166  -28.1789   22.3258 C   0  0  1  0  0  0  0  0  0  0  0  0
  -24.1872  -26.6795   23.2337 C   0  0  1  0  0  0  0  0  0  0  0  0
  -27.9584  -19.3121   21.4757 C   0  0  2  0  0  0  0  0  0  0  0  0
  -29.4804  -24.8976   14.4594 C   0  0  0  0  0  0  0  0  0  0  0  0
  -30.6601  -26.8633   27.4847 C   0  0  0  0  0  0  0  0  0  0  0  0
  -25.2583  -30.3324   25.8545 C   0  0  0  0  0  0  0  0  0  0  0  0
  -27.5144  -30.2584   26.9376 C   0  0  0  0  0  0  0  0  0  0  0  0
  -25.6713  -28.8150   27.7991 C   0  0  0  0  0  0  0  0  0  0  0  0
  -28.7264  -27.7577   14.8951 C   0  0  0  0  0  0  0  0  0  0  0  0
  -29.9288  -24.5432   24.5592 C   0  0  0  0  0  0  0  0  0  0  0  0
  -31.3420  -24.0007   16.8996 C   0  0  0  0  0  0  0  0  0  0  0  0
  -29.9025  -28.9021   17.4118 C   0  0  0  0  0  0  0  0  0  0  0  0
  -30.6051  -23.0998   17.9188 C   0  0  0  0  0  0  0  0  0  0  0  0
  -29.1464  -22.8199   17.5635 C   0  0  0  0  0  0  0  0  0  0  0  0
  -28.8770  -28.9949   18.5364 C   0  0  0  0  0  0  0  0  0  1  0  0
  -26.7591  -28.2485   25.5883 C   0  0  1  0  0  0  0  0  0  0  0  0
  -29.7834  -26.1413   26.4733 C   0  0  2  0  0  0  0  0  0  0  0  0
  -26.2976  -29.4065   26.5175 C   0  0  0  0  0  0  0  0  0  0  0  0
  -27.0024  -17.0626   21.8047 N   0  0  0  0  0  0  0  0  0  0  0  0
  -29.5676  -26.9993   15.7968 N   0  0  0  0  0  0  0  0  0  0  0  0
  -28.0080  -17.8045   21.3103 N   0  0  0  0  0  0  0  0  0  0  0  0
  -25.4009  -27.3260   23.7368 N   0  0  0  0  0  0  0  0  0  0  0  0
  -27.2700  -21.4610   20.4774 N   0  0  0  0  0  0  0  0  0  0  0  0
  -30.0658  -17.6608   20.1459 N   0  0  0  0  0  0  0  0  0  0  0  0
  -28.7570  -13.3516   20.4844 N   0  0  0  0  0  0  0  0  0  0  0  0
  -21.9377  -27.3044   22.5955 N   0  0  0  0  0  0  0  0  0  0  0  0
  -27.7231  -27.3399   26.1995 N   0  0  0  0  0  0  0  0  0  0  0  0
  -28.5029  -21.9448   18.5179 N   0  0  0  0  0  0  0  0  0  0  0  0
  -30.6616  -25.3251   25.5880 N   0  3  0  0  0  0  0  0  0  0  0  0
  -30.4079  -14.7406   19.7072 O   0  0  0  0  0  0  0  0  0  0  0  0
  -23.4852  -28.9337   23.2063 O   0  0  0  0  0  0  0  0  0  0  0  0
  -24.9209  -26.7951   25.9558 O   0  0  0  0  0  0  0  0  0  0  0  0
  -29.3953  -27.6447   24.6222 O   0  0  0  0  0  0  0  0  0  0  0  0
  -27.7700  -23.6432   19.8725 O   0  0  0  0  0  0  0  0  0  0  0  0
  -24.0980  -11.5062   22.9182 O   0  0  0  0  0  0  0  0  0  0  0  0
  -27.6299  -28.4580   18.0974 O   0  0  0  0  0  0  0  0  0  1  0  0
  -23.1728   -7.6276   19.1097 F   0  0  0  0  0  0  0  0  0  0  0  0
  -21.5310  -10.9473   22.0575 F   0  0  0  0  0  0  0  0  0  0  0  0
  -31.7421  -26.5279   18.9750 Cl  0  0  0  0  0  0  0  0  0  0  0  0
  1  2  1  0  0  0  0
  1  5  2  0  0  0  0
  2  6  2  0  0  0  0
  3  8  2  0  0  0  0
  3 15  1  0  0  0  0
  4  9  1  0  0  0  0
  4 15  2  0  0  0  0
  5 17  1  0  0  0  0
  6 19  1  0  0  0  0
  7 10  2  0  0  0  0
  7 18  1  0  0  0  0
  8 22  1  0  0  0  0
  9 22  2  0  0  0  0
 10 23  1  0  0  0  0
 11 12  2  0  0  0  0
 11 24  1  0  0  0  0
 12 25  1  0  0  0  0
 13 20  1  0  0  0  0
 13 23  2  0  0  0  0
 14 25  2  0  0  0  0
 14 26  1  0  0  0  0
 15 28  1  0  0  0  0
 16 28  1  0  0  0  0
 16 31  2  0  0  0  0
 16 32  1  0  0  0  0
 17 19  2  0  0  0  0
 17 37  1  0  0  0  0
 18 20  2  0  0  0  0
 18 38  1  0  0  0  0
 19 46  1  0  0  0  0
 20 39  1  0  0  0  0
 21 27  1  0  0  0  0
 21 29  2  0  0  0  0
 21 56  1  0  0  0  0
 22 80  1  0  0  0  0
 23 81  1  0  0  0  0
 24 26  2  0  0  0  0
 24 80  1  0  0  0  0
 25 82  1  0  0  0  0
 26 83  1  0  0  0  0
 27 30  2  0  0  0  0
 27 84  1  0  0  0  0
 28 64  2  0  0  0  0
 29 49  1  0  0  0  0
 29 65  1  0  0  0  0
 30 57  1  0  0  0  0
 30 65  1  0  0  0  0
 31 66  1  0  0  0  0
 31 69  1  0  0  0  0
 32 70  1  0  0  0  0
 32 75  2  0  0  0  0
 33 47  1  0  0  0  0
 33 71  1  0  0  0  0
 33 76  2  0  0  0  0
 34 61  1  0  0  0  0
 34 67  1  0  0  0  0
 34 77  2  0  0  0  0
 35 62  1  0  0  0  0
 35 72  1  0  0  0  0
 35 78  2  0  0  0  0
 36 68  1  0  0  0  0
 36 73  1  0  0  0  0
 36 79  2  0  0  0  0
 37 40  1  0  0  0  0
 38 47  1  0  0  0  0
 39 67  1  0  0  0  0
 40 42  1  0  0  0  0
 41 43  1  0  0  0  0
 41 44  1  0  0  0  0
 42 46  1  0  0  0  0
 43 48  1  0  0  0  0
 44 68  1  0  0  0  0
 45 48  1  0  0  0  0
 45 68  1  0  0  0  0
 46 71  1  0  0  0  0
 47 67  1  0  0  0  0
 48 66  1  0  0  0  0
 50 62  1  0  0  0  0
 51 63  1  0  0  0  0
 52 63  1  0  0  0  0
 53 63  1  0  0  0  0
 54 65  1  0  0  0  0
 55 74  1  0  0  0  0
 56 58  1  0  0  0  0
 57 60  1  0  0  0  0
 58 59  1  0  0  0  0
 59 73  1  0  0  0  0
 60 81  1  0  0  0  0
 61 63  1  0  0  0  0
 61 72  1  0  0  0  0
 62 74  1  0  0  0  0
 64 66  1  0  0  0  0
M  CHG  1  74   1
M  ISO  4  36 100  60 101  73 100  81 101
M  END
> <Batch ID>
0032

> <Smiles>
CNC(C)C(=O)NC(C(=O)N1Cc2cc([101O:1][101CH2:1]Cc3c(Cl)c(CCC[100NH:0][100C:0](=O)N4CCCC(n5nc(-c6ccc(Oc7ccc(F)cc7F)cc6)c(C(N)=O)c5N)C4)c(C)n3C)ccc2CC1C(=O)NC1CCCc2ccccc21)C(C)(C)C

> <Shape>
0.217

> <Color>
0.083

> <Negative vol penalty>
0.000

$$$$

  -OEChem-04052316453D

 90 98  0     1  0  0  0  0  0999 V2000
  -24.0907  -19.7852   18.0812 C   0  0  0  0  0  0  0  0  0  0  0  0
  -23.6735  -21.0713   18.4088 C   0  0  0  0  0  0  0  0  0  0  0  0
  -23.6346  -12.7812   19.7604 C   0  0  0  0  0  0  0  0  0  0  0  0
  -24.9335  -13.3539   21.7154 C   0  0  0  0  0  0  0  0  0  0  0  0
  -25.2951  -19.2950   18.5842 C   0  0  0  0  0  0  0  0  0  0  0  0
  -24.4600  -21.8676   19.2405 C   0  0  0  0  0  0  0  0  0  0  0  0
  -25.1641  -27.9433   18.9301 C   0  0  0  0  0  0  0  0  0  0  0  0
  -24.7223  -12.0769   19.2441 C   0  0  0  0  0  0  0  0  0  0  0  0
  -26.0211  -12.6496   21.1992 C   0  0  0  0  0  0  0  0  0  0  0  0
  -24.5752  -28.9929   19.6338 C   0  0  0  0  0  0  0  0  0  0  0  0
  -29.2563  -11.3049   20.2318 C   0  0  0  0  0  0  0  0  0  0  0  0
  -30.5118  -11.9085   20.3018 C   0  0  0  0  0  0  0  0  0  0  0  0
  -26.4604  -29.0339   21.1383 C   0  0  0  0  0  0  0  0  0  0  0  0
  -22.9751  -28.4814   25.3953 C   0  0  0  0  0  0  0  0  0  0  0  0
  -24.6869  -30.1270   25.8405 C   0  0  0  0  0  0  0  0  0  0  0  0
  -29.7010  -13.7500   18.9643 C   0  0  0  0  0  0  0  0  0  0  0  0
  -23.7402  -13.4198   20.9961 C   0  0  0  0  0  0  0  0  0  0  0  0
  -21.5942  -13.6464   22.3565 C   0  0  0  0  0  0  0  0  0  0  0  0
  -26.1014  -20.0891   19.4147 C   0  0  0  0  0  0  0  0  0  0  0  0
  -26.4025  -27.4229   19.3324 C   0  0  0  0  0  0  0  0  0  0  0  0
  -25.6757  -21.3870   19.7562 C   0  0  0  0  0  0  0  0  0  0  0  0
  -27.0641  -27.9793   20.4364 C   0  0  0  0  0  0  0  0  0  0  0  0
  -24.0423  -28.9348   26.1704 C   0  0  0  0  0  0  0  0  0  0  0  0
  -22.5524  -29.2201   24.2901 C   0  0  0  0  0  0  0  0  0  0  0  0
  -24.2643  -30.8657   24.7354 C   0  0  0  0  0  0  0  0  0  0  0  0
  -23.1970  -30.4123   23.9602 C   0  0  0  0  0  0  0  0  0  0  0  0
  -25.9155  -12.0110   19.9635 C   0  0  0  0  0  0  0  0  0  0  0  0
  -25.2220  -29.5365   20.7398 C   0  0  0  0  0  0  0  0  0  0  0  0
  -28.2231  -11.9238   19.5280 C   0  0  0  0  0  0  0  0  0  0  0  0
  -30.7342  -13.1310   19.6680 C   0  0  0  0  0  0  0  0  0  0  0  0
  -28.4455  -13.1463   18.8943 C   0  0  0  0  0  0  0  0  0  0  0  0
  -22.6172  -14.1479   21.5296 C   0  0  0  0  0  0  0  0  0  0  0  0
  -20.7766  -14.7262   22.5844 C   0  0  0  0  0  0  0  0  0  0  0  0
  -21.4003  -12.3228   22.8725 C   0  0  0  0  0  0  0  0  0  0  0  0
  -27.4211  -24.5891   20.3503 C   0  0  0  0  0  0  0  0  0  0  0  0
  -30.3324  -26.0095   20.1788 C   0  0  0  0  0  0  0  0  0  0  0  0
  -32.1531  -28.8959   20.1934 C   0  0  0  0  0  0  0  0  0  0  0  0
  -21.7166  -20.6392   22.5140 C   0  0  0  0  0  0  0  0  0  0  0  0
  -27.3722  -19.4987   19.9725 C   0  0  0  0  0  0  0  0  0  0  0  0
  -27.0369  -26.3082   18.5466 C   0  0  0  0  0  0  0  0  0  0  0  0
  -28.4046  -27.4701   20.8970 C   0  0  0  0  0  0  0  0  0  0  0  0
  -28.3289  -20.5419   20.5442 C   0  0  0  0  0  0  0  0  0  0  0  0
  -19.3415  -18.8258   20.5781 C   0  0  0  0  0  0  0  0  0  0  0  0
  -27.5760  -21.5259   21.4340 C   0  0  0  0  0  0  0  0  0  0  0  0
  -19.8194  -17.3761   20.6771 C   0  0  0  0  0  0  0  0  0  0  0  0
  -20.5132  -19.8033   20.5166 C   0  0  0  0  0  0  0  0  0  0  0  0
  -21.9721  -18.2140   21.7080 C   0  0  0  0  0  0  0  0  0  0  0  0
  -26.5132  -22.2902   20.6354 C   0  0  1  0  0  0  0  0  0  0  0  0
  -28.0598  -25.5150   19.3540 C   0  0  1  0  0  0  0  0  0  0  0  0
  -20.8261  -17.1949   21.8290 C   0  0  2  0  0  0  0  0  0  0  0  0
  -21.4063  -28.7132   23.4770 C   0  0  0  0  0  0  0  0  0  0  0  0
  -24.5616  -33.2848   25.3237 C   0  0  0  0  0  0  0  0  0  0  0  0
  -34.5149  -29.7358   20.0747 C   0  0  0  0  0  0  0  0  0  0  0  0
  -30.7744  -25.1689   23.0785 C   0  0  0  0  0  0  0  0  0  0  0  0
  -32.6627  -26.8088   23.1930 C   0  0  0  0  0  0  0  0  0  0  0  0
  -32.7705  -24.8947   21.5970 C   0  0  0  0  0  0  0  0  0  0  0  0
  -31.6131  -30.4089   17.7078 C   0  0  0  0  0  0  0  0  0  0  0  0
  -24.4997  -28.1358   27.3648 C   0  0  0  0  0  0  0  0  0  0  0  0
  -24.9713  -32.1392   24.4034 C   0  0  0  0  0  0  0  0  0  0  0  0
  -22.7433  -31.2043   22.7755 C   0  0  0  0  0  0  0  0  0  0  0  0
  -25.5808  -27.0988   27.0394 C   0  0  0  0  0  0  0  0  0  0  0  0
  -25.1282  -26.0675   25.9999 C   0  0  0  0  0  0  0  0  0  0  0  0
  -26.2484  -25.0731   25.6840 C   0  0  0  0  0  0  0  0  0  0  0  0
  -25.8285  -23.9753   24.7021 C   0  0  0  0  0  0  0  0  0  0  0  0
  -24.6157  -23.1680   25.1731 C   0  0  0  0  0  0  0  0  0  0  0  0
  -24.2229  -22.1073   24.1391 C   0  0  0  0  0  0  0  0  0  0  0  0
  -22.9760  -21.3242   24.5397 C   0  0  0  0  0  0  0  0  0  0  0  0
  -23.2241  -30.6148   21.4478 C   0  0  0  0  0  0  0  0  0  1  0  0
  -31.1886  -26.8108   21.1295 C   0  0  1  0  0  0  0  0  0  0  0  0
  -33.2626  -29.3916   19.2835 C   0  0  2  0  0  0  0  0  0  0  0  0
  -31.8229  -25.9293   22.2422 C   0  0  0  0  0  0  0  0  0  0  0  0
  -22.4655  -15.4454   21.2510 N   0  0  0  0  0  0  0  0  0  0  0  0
  -21.3375  -15.7682   21.9063 N   0  0  0  0  0  0  0  0  0  0  0  0
  -28.9810  -26.3749   20.0997 N   0  0  0  0  0  0  0  0  0  0  0  0
  -21.4295  -19.5798   21.6375 N   0  0  0  0  0  0  0  0  0  0  0  0
  -19.6396  -14.8766   23.2966 N   0  0  0  0  0  0  0  0  0  0  0  0
  -22.3352  -11.3328   22.5405 N   0  0  0  0  0  0  0  0  0  0  0  0
  -27.1287  -23.3360   19.8467 N   0  0  0  0  0  0  0  0  0  0  0  0
  -32.1593  -27.5215   20.3043 N   0  0  0  0  0  0  0  0  0  0  0  0
  -22.5894  -20.3405   23.5531 N   0  0  0  0  0  0  0  0  0  0  0  0
  -32.8227  -30.6099   18.5465 N   0  3  0  0  0  0  0  0  0  0  0  0
  -20.4181  -12.0230   23.5927 O   0  0  0  0  0  0  0  0  0  0  0  0
  -27.2106  -24.9821   21.4917 O   0  0  0  0  0  0  0  0  0  0  0  0
  -30.8452  -25.0978   19.5250 O   0  0  0  0  0  0  0  0  0  0  0  0
  -31.3626  -29.6525   20.7529 O   0  0  0  0  0  0  0  0  0  0  0  0
  -21.2268  -21.7661   22.3836 O   0  0  0  0  0  0  0  0  0  0  0  0
  -26.9770  -11.3236   19.4601 O   0  0  0  0  0  0  0  0  0  0  0  0
  -24.6451  -30.5679   21.4337 O   0  0  0  0  0  0  0  0  0  1  0  0
  -31.9395  -13.7113   19.7366 F   0  0  0  0  0  0  0  0  0  0  0  0
  -27.4565  -13.7462   18.2177 F   0  0  0  0  0  0  0  0  0  0  0  0
  1  2  1  0  0  0  0
  1  5  2  0  0  0  0
  2  6  2  0  0  0  0
  3  8  2  0  0  0  0
  3 17  1  0  0  0  0
  4  9  1  0  0  0  0
  4 17  2  0  0  0  0
  5 19  1  0  0  0  0
  6 21  1  0  0  0  0
  7 10  2  0  0  0  0
  7 20  1  0  0  0  0
  8 27  1  0  0  0  0
  9 27  2  0  0  0  0
 10 28  1  0  0  0  0
 11 12  2  0  0  0  0
 11 29  1  0  0  0  0
 12 30  1  0  0  0  0
 13 22  1  0  0  0  0
 13 28  2  0  0  0  0
 14 23  1  0  0  0  0
 14 24  2  0  0  0  0
 15 23  2  0  0  0  0
 15 25  1  0  0  0  0
 16 30  2  0  0  0  0
 16 31  1  0  0  0  0
 17 32  1  0  0  0  0
 18 32  1  0  0  0  0
 18 33  2  0  0  0  0
 18 34  1  0  0  0  0
 19 21  2  0  0  0  0
 19 39  1  0  0  0  0
 20 22  2  0  0  0  0
 20 40  1  0  0  0  0
 21 48  1  0  0  0  0
 22 41  1  0  0  0  0
 23 58  1  0  0  0  0
 24 26  1  0  0  0  0
 24 51  1  0  0  0  0
 25 26  2  0  0  0  0
 25 59  1  0  0  0  0
 26 60  1  0  0  0  0
 27 87  1  0  0  0  0
 28 88  1  0  0  0  0
 29 31  2  0  0  0  0
 29 87  1  0  0  0  0
 30 89  1  0  0  0  0
 31 90  1  0  0  0  0
 32 72  2  0  0  0  0
 33 73  1  0  0  0  0
 33 76  1  0  0  0  0
 34 77  1  0  0  0  0
 34 82  2  0  0  0  0
 35 49  1  0  0  0  0
 35 78  1  0  0  0  0
 35 83  2  0  0  0  0
 36 69  1  0  0  0  0
 36 74  1  0  0  0  0
 36 84  2  0  0  0  0
 37 70  1  0  0  0  0
 37 79  1  0  0  0  0
 37 85  2  0  0  0  0
 38 75  1  0  0  0  0
 38 80  1  0  0  0  0
 38 86  2  0  0  0  0
 39 42  1  0  0  0  0
 40 49  1  0  0  0  0
 41 74  1  0  0  0  0
 42 44  1  0  0  0  0
 43 45  1  0  0  0  0
 43 46  1  0  0  0  0
 44 48  1  0  0  0  0
 45 50  1  0  0  0  0
 46 75  1  0  0  0  0
 47 50  1  0  0  0  0
 47 75  1  0  0  0  0
 48 78  1  0  0  0  0
 49 74  1  0  0  0  0
 50 73  1  0  0  0  0
 52 59  1  0  0  0  0
 53 70  1  0  0  0  0
 54 71  1  0  0  0  0
 55 71  1  0  0  0  0
 56 71  1  0  0  0  0
 57 81  1  0  0  0  0
 58 61  1  0  0  0  0
 60 68  1  0  0  0  0
 61 62  1  0  0  0  0
 62 63  1  0  0  0  0
 63 64  1  0  0  0  0
 64 65  1  0  0  0  0
 65 66  1  0  0  0  0
 66 67  1  0  0  0  0
 67 80  1  0  0  0  0
 68 88  1  0  0  0  0
 69 71  1  0  0  0  0
 69 79  1  0  0  0  0
 70 81  1  0  0  0  0
 72 73  1  0  0  0  0
M  CHG  1  81   1
M  ISO  4  38 100  68 101  80 100  88 101
M  END
> <Batch ID>
0032

> <Smiles>
CCc1cc(CCCCCCCC[100NH:0][100C:0](=O)N2CCCC(n3nc(-c4ccc(Oc5ccc(F)cc5F)cc4)c(C(N)=O)c3N)C2)cc(C)c1C[101CH2:1][101O:1]c1ccc2c(c1)CN(C(=O)C(NC(=O)C(C)NC)C(C)(C)C)C(C(=O)NC1CCCc3ccccc31)C2

> <Shape>
0.224

> <Color>
0.077

> <Negative vol penalty>
0.000

$$$$

  -OEChem-04052316453D

 82 90  0     1  0  0  0  0  0999 V2000
  -30.9559  -23.6540   22.5161 C   0  0  0  0  0  0  0  0  0  0  0  0
  -29.6148  -23.7259   22.8791 C   0  0  0  0  0  0  0  0  0  0  0  0
  -26.2502  -29.0665   21.6530 C   0  0  0  0  0  0  0  0  0  0  0  0
  -24.9533  -27.3814   20.5062 C   0  0  0  0  0  0  0  0  0  0  0  0
  -31.3367  -22.9039   21.4043 C   0  0  0  0  0  0  0  0  0  0  0  0
  -28.6535  -23.0486   22.1297 C   0  0  0  0  0  0  0  0  0  0  0  0
  -23.5471  -20.3966   24.2266 C   0  0  0  0  0  0  0  0  0  0  0  0
  -27.4252  -28.4922   21.1681 C   0  0  0  0  0  0  0  0  0  0  0  0
  -26.1283  -26.8071   20.0212 C   0  0  0  0  0  0  0  0  0  0  0  0
  -22.2194  -20.8200   24.2685 C   0  0  0  0  0  0  0  0  0  0  0  0
  -29.1776  -28.4691   18.2765 C   0  0  0  0  0  0  0  0  0  0  0  0
  -30.1505  -29.3234   17.7575 C   0  0  0  0  0  0  0  0  0  0  0  0
  -21.7804  -19.6264   22.2187 C   0  0  0  0  0  0  0  0  0  0  0  0
  -17.8449  -23.0866   23.7507 C   0  0  0  0  0  0  0  0  0  0  0  0
  -17.4555  -23.1494   21.3672 C   0  0  0  0  0  0  0  0  0  0  0  0
  -31.7231  -28.5396   19.4158 C   0  0  0  0  0  0  0  0  0  0  0  0
  -25.0142  -28.5111   21.3221 C   0  0  0  0  0  0  0  0  0  0  0  0
  -23.0308  -30.1115   21.2117 C   0  0  0  0  0  0  0  0  0  0  0  0
  -30.3807  -22.2091   20.6466 C   0  0  0  0  0  0  0  0  0  0  0  0
  -24.0048  -19.5925   23.1729 C   0  0  0  0  0  0  0  0  0  0  0  0
  -29.0218  -22.2895   21.0059 C   0  0  0  0  0  0  0  0  0  0  0  0
  -23.1137  -19.1920   22.1671 C   0  0  0  0  0  0  0  0  0  0  0  0
  -17.6874  -22.4220   22.5346 C   0  0  0  0  0  0  0  0  0  0  0  0
  -17.7704  -24.4787   23.7996 C   0  0  0  0  0  0  0  0  0  0  0  0
  -17.5385  -25.2061   22.6322 C   0  0  0  0  0  0  0  0  0  0  0  0
  -27.3643  -27.3625   20.3522 C   0  0  0  0  0  0  0  0  0  0  0  0
  -21.3366  -20.4374   23.2629 C   0  0  0  0  0  0  0  0  0  0  0  0
  -29.4774  -27.6502   19.3651 C   0  0  0  0  0  0  0  0  0  0  0  0
  -31.4232  -29.3586   18.3272 C   0  0  0  0  0  0  0  0  0  0  0  0
  -30.7501  -27.6854   19.9347 C   0  0  0  0  0  0  0  0  0  0  0  0
  -17.3811  -24.5415   21.4160 C   0  0  0  0  0  0  0  0  0  0  0  0
  -23.8001  -29.1035   21.8232 C   0  0  0  0  0  0  0  0  0  0  0  0
  -21.9878  -30.3219   22.0803 C   0  0  0  0  0  0  0  0  0  0  0  0
  -23.2401  -30.7964   19.9696 C   0  0  0  0  0  0  0  0  0  0  0  0
  -26.1896  -19.9193   20.8874 C   0  0  0  0  0  0  0  0  0  0  0  0
  -25.4420  -16.8238   20.2700 C   0  0  0  0  0  0  0  0  0  0  0  0
  -23.1602  -14.2954   20.4881 C   0  0  0  0  0  0  0  0  0  0  0  0
  -19.3655  -26.8743   26.2142 C   0  0  0  0  0  0  0  0  0  0  0  0
  -30.8348  -21.4497   19.4252 C   0  0  0  0  0  0  0  0  0  0  0  0
  -25.4334  -19.1220   23.1564 C   0  0  0  0  0  0  0  0  0  0  0  0
  -23.5502  -18.3127   21.0248 C   0  0  0  0  0  0  0  0  0  0  0  0
  -29.7983  -20.4571   18.9049 C   0  0  0  0  0  0  0  0  0  0  0  0
  -20.8724  -30.0593   26.7255 C   0  0  0  0  0  0  0  0  0  0  0  0
  -28.4206  -21.1086   18.8403 C   0  0  0  0  0  0  0  0  0  0  0  0
  -21.7242  -30.2665   25.4719 C   0  0  0  0  0  0  0  0  0  0  0  0
  -20.8668  -28.5980   27.1689 C   0  0  0  0  0  0  0  0  0  0  0  0
  -21.3277  -27.8420   24.8689 C   0  0  0  0  0  0  0  0  0  0  0  0
  -27.9525  -21.5486   20.2327 C   0  0  1  0  0  0  0  0  0  0  0  0
  -25.9172  -18.7296   21.7638 C   0  0  1  0  0  0  0  0  0  0  0  0
  -21.3189  -29.2905   24.3510 C   0  0  2  0  0  0  0  0  0  0  0  0
  -17.4608  -26.6995   22.7021 C   0  0  0  0  0  0  0  0  0  0  0  0
  -22.8195  -11.8898   19.8600 C   0  0  0  0  0  0  0  0  0  0  0  0
  -24.9389  -17.6529   17.3770 C   0  0  0  0  0  0  0  0  0  0  0  0
  -23.7194  -15.4920   17.0429 C   0  0  0  0  0  0  0  0  0  0  0  0
  -26.1403  -15.4758   17.6444 C   0  0  0  0  0  0  0  0  0  0  0  0
  -22.8702  -13.4771   23.3174 C   0  0  0  0  0  0  0  0  0  0  0  0
  -17.7693  -20.9157   22.4824 C   0  0  0  0  0  0  0  0  0  0  0  0
  -17.9415  -25.1638   25.1161 C   0  0  0  0  0  0  0  0  0  0  0  0
  -19.1905  -20.4204   22.2381 C   0  0  0  0  0  0  0  0  0  1  0  0
  -24.4329  -16.1220   19.3935 C   0  0  1  0  0  0  0  0  0  0  0  0
  -23.2963  -12.8517   20.9371 C   0  0  2  0  0  0  0  0  0  0  0  0
  -24.7998  -16.2039   17.8848 C   0  0  0  0  0  0  0  0  0  0  0  0
  -23.2896  -28.7016   22.9901 N   0  0  0  0  0  0  0  0  0  0  0  0
  -22.1883  -29.4609   23.1190 N   0  0  0  0  0  0  0  0  0  0  0  0
  -24.9584  -17.8839   21.0498 N   0  0  0  0  0  0  0  0  0  0  0  0
  -20.4724  -27.7253   26.0604 N   0  0  0  0  0  0  0  0  0  0  0  0
  -20.9281  -31.1576   22.0494 N   0  0  0  0  0  0  0  0  0  0  0  0
  -24.3618  -30.4575   19.2006 N   0  0  0  0  0  0  0  0  0  0  0  0
  -27.4774  -20.4101   20.9893 N   0  0  0  0  0  0  0  0  0  0  0  0
  -24.3212  -14.7615   19.9083 N   0  0  0  0  0  0  0  0  0  0  0  0
  -19.0559  -26.0851   25.1132 N   0  0  0  0  0  0  0  0  0  0  0  0
  -22.4918  -12.6143   22.1689 N   0  3  0  0  0  0  0  0  0  0  0  0
  -22.4647  -31.6941   19.5619 O   0  0  0  0  0  0  0  0  0  0  0  0
  -25.2980  -20.3585   20.1706 O   0  0  0  0  0  0  0  0  0  0  0  0
  -26.6145  -16.4407   20.2683 O   0  0  0  0  0  0  0  0  0  0  0  0
  -22.1261  -14.9435   20.6335 O   0  0  0  0  0  0  0  0  0  0  0  0
  -18.6991  -26.8255   27.2536 O   0  0  0  0  0  0  0  0  0  0  0  0
  -28.5106  -26.8020   19.8786 O   0  0  0  0  0  0  0  0  0  0  0  0
  -20.0403  -20.8498   23.3010 O   0  0  0  0  0  0  0  0  0  1  0  0
  -32.3579  -30.1779   17.8278 F   0  0  0  0  0  0  0  0  0  0  0  0
  -31.0444  -26.9001   20.9800 F   0  0  0  0  0  0  0  0  0  0  0  0
  -17.0943  -25.4058   19.9491 Cl  0  0  0  0  0  0  0  0  0  0  0  0
  1  2  1  0  0  0  0
  1  5  2  0  0  0  0
  2  6  2  0  0  0  0
  3  8  2  0  0  0  0
  3 17  1  0  0  0  0
  4  9  1  0  0  0  0
  4 17  2  0  0  0  0
  5 19  1  0  0  0  0
  6 21  1  0  0  0  0
  7 10  2  0  0  0  0
  7 20  1  0  0  0  0
  8 26  1  0  0  0  0
  9 26  2  0  0  0  0
 10 27  1  0  0  0  0
 11 12  2  0  0  0  0
 11 28  1  0  0  0  0
 12 29  1  0  0  0  0
 13 22  1  0  0  0  0
 13 27  2  0  0  0  0
 14 23  2  0  0  0  0
 14 24  1  0  0  0  0
 15 23  1  0  0  0  0
 15 31  2  0  0  0  0
 16 29  2  0  0  0  0
 16 30  1  0  0  0  0
 17 32  1  0  0  0  0
 18 32  1  0  0  0  0
 18 33  2  0  0  0  0
 18 34  1  0  0  0  0
 19 21  2  0  0  0  0
 19 39  1  0  0  0  0
 20 22  2  0  0  0  0
 20 40  1  0  0  0  0
 21 48  1  0  0  0  0
 22 41  1  0  0  0  0
 23 57  1  0  0  0  0
 24 25  2  0  0  0  0
 24 58  1  0  0  0  0
 25 31  1  0  0  0  0
 25 51  1  0  0  0  0
 26 78  1  0  0  0  0
 27 79  1  0  0  0  0
 28 30  2  0  0  0  0
 28 78  1  0  0  0  0
 29 80  1  0  0  0  0
 30 81  1  0  0  0  0
 31 82  1  0  0  0  0
 32 63  2  0  0  0  0
 33 64  1  0  0  0  0
 33 67  1  0  0  0  0
 34 68  1  0  0  0  0
 34 73  2  0  0  0  0
 35 49  1  0  0  0  0
 35 69  1  0  0  0  0
 35 74  2  0  0  0  0
 36 60  1  0  0  0  0
 36 65  1  0  0  0  0
 36 75  2  0  0  0  0
 37 61  1  0  0  0  0
 37 70  1  0  0  0  0
 37 76  2  0  0  0  0
 38 66  1  0  0  0  0
 38 71  1  0  0  0  0
 38 77  2  0  0  0  0
 39 42  1  0  0  0  0
 40 49  1  0  0  0  0
 41 65  1  0  0  0  0
 42 44  1  0  0  0  0
 43 45  1  0  0  0  0
 43 46  1  0  0  0  0
 44 48  1  0  0  0  0
 45 50  1  0  0  0  0
 46 66  1  0  0  0  0
 47 50  1  0  0  0  0
 47 66  1  0  0  0  0
 48 69  1  0  0  0  0
 49 65  1  0  0  0  0
 50 64  1  0  0  0  0
 52 61  1  0  0  0  0
 53 62  1  0  0  0  0
 54 62  1  0  0  0  0
 55 62  1  0  0  0  0
 56 72  1  0  0  0  0
 57 59  1  0  0  0  0
 58 71  1  0  0  0  0
 59 79  1  0  0  0  0
 60 62  1  0  0  0  0
 60 70  1  0  0  0  0
 61 72  1  0  0  0  0
 63 64  1  0  0  0  0
M  CHG  1  72   1
M  ISO  4  38 100  59 101  71 100  79 101
M  END
> <Batch ID>
0032

> <Smiles>
CNC(C)C(=O)NC(C(=O)N1Cc2cc([101O:1][101CH2:1]Cc3cc(Cl)c(C)c(C[100NH:0][100C:0](=O)N4CCCC(n5nc(-c6ccc(Oc7ccc(F)cc7F)cc6)c(C(N)=O)c5N)C4)c3)ccc2CC1C(=O)NC1CCCc2ccccc21)C(C)(C)C

> <Shape>
0.172

> <Color>
0.086

> <Negative vol penalty>
0.000

$$$$

  -OEChem-04052316453D

 86 94  0     1  0  0  0  0  0999 V2000
  -32.5194  -11.6020   19.0540 C   0  0  0  0  0  0  0  0  0  0  0  0
  -32.5978  -12.9750   18.8442 C   0  0  0  0  0  0  0  0  0  0  0  0
  -25.4021  -30.5577   20.8985 C   0  0  0  0  0  0  0  0  0  0  0  0
  -23.4656  -29.2283   21.4637 C   0  0  0  0  0  0  0  0  0  0  0  0
  -31.2911  -11.0121   19.3494 C   0  0  0  0  0  0  0  0  0  0  0  0
  -31.4477  -13.7589   18.9286 C   0  0  0  0  0  0  0  0  0  0  0  0
  -31.0524  -19.5032   21.0147 C   0  0  0  0  0  0  0  0  0  0  0  0
  -25.0497  -31.4872   21.8769 C   0  0  0  0  0  0  0  0  0  0  0  0
  -23.1131  -30.1578   22.4422 C   0  0  0  0  0  0  0  0  0  0  0  0
  -31.0122  -20.7363   20.3654 C   0  0  0  0  0  0  0  0  0  0  0  0
  -21.9005  -31.9971   25.3344 C   0  0  0  0  0  0  0  0  0  0  0  0
  -21.5087  -31.5102   26.5813 C   0  0  0  0  0  0  0  0  0  0  0  0
  -30.3083  -26.9106   17.3340 C   0  0  0  0  0  0  0  0  0  0  0  0
  -28.6033  -20.7177   20.4919 C   0  0  0  0  0  0  0  0  0  0  0  0
  -23.6625  -30.4472   26.8430 C   0  0  0  0  0  0  0  0  0  0  0  0
  -30.7852  -26.7459   18.6245 C   0  0  0  0  0  0  0  0  0  0  0  0
  -24.6101  -29.4282   20.6918 C   0  0  0  0  0  0  0  0  0  0  0  0
  -25.7960  -27.3367   19.8394 C   0  0  0  0  0  0  0  0  0  0  0  0
  -30.1269  -11.7905   19.4469 C   0  0  0  0  0  0  0  0  0  0  0  0
  -29.8658  -18.8619   21.3985 C   0  0  0  0  0  0  0  0  0  0  0  0
  -30.2024  -13.1787   19.2242 C   0  0  0  0  0  0  0  0  0  0  0  0
  -28.6312  -19.4778   21.1483 C   0  0  0  0  0  0  0  0  0  0  0  0
  -30.0437  -25.7680   16.5872 C   0  0  0  0  0  0  0  0  0  0  0  0
  -30.2611  -24.5134   17.1457 C   0  0  0  0  0  0  0  0  0  0  0  0
  -23.9052  -31.2872   22.6488 C   0  0  0  0  0  0  0  0  0  0  0  0
  -29.7875  -21.3424   20.1013 C   0  0  0  0  0  0  0  0  0  0  0  0
  -23.1733  -31.7091   24.8417 C   0  0  0  0  0  0  0  0  0  0  0  0
  -22.3897  -30.7353   27.3357 C   0  0  0  0  0  0  0  0  0  0  0  0
  -24.0543  -30.9342   25.5960 C   0  0  0  0  0  0  0  0  0  0  0  0
  -24.9733  -28.4680   19.6808 C   0  0  0  0  0  0  0  0  0  0  0  0
  -30.7403  -24.4560   18.4445 C   0  0  0  0  0  0  0  0  0  0  0  0
  -25.8283  -26.7584   18.5940 C   0  0  0  0  0  0  0  0  0  0  0  0
  -26.4705  -26.8518   21.0080 C   0  0  0  0  0  0  0  0  0  0  0  0
  -28.4635  -16.1076   20.6563 C   0  0  0  0  0  0  0  0  0  0  0  0
  -26.3836  -16.9871   22.9849 C   0  0  0  0  0  0  0  0  0  0  0  0
  -24.9772  -19.5010   24.8151 C   0  0  0  0  0  0  0  0  0  0  0  0
  -23.2470  -25.0754   13.9411 C   0  0  0  0  0  0  0  0  0  0  0  0
  -28.8139  -11.1014   19.7219 C   0  0  0  0  0  0  0  0  0  0  0  0
  -29.9273  -17.5447   22.1220 C   0  0  0  0  0  0  0  0  0  0  0  0
  -27.3296  -18.8403   21.5579 C   0  0  0  0  0  0  0  0  0  0  0  0
  -27.7062  -12.0549   20.1626 C   0  0  0  0  0  0  0  0  0  0  0  0
  -24.2348  -28.4915   14.1170 C   0  0  0  0  0  0  0  0  0  0  0  0
  -27.6658  -13.2815   19.2567 C   0  0  0  0  0  0  0  0  0  0  0  0
  -24.5766  -28.6979   15.5937 C   0  0  0  0  0  0  0  0  0  0  0  0
  -23.0499  -27.5447   13.9389 C   0  0  0  0  0  0  0  0  0  0  0  0
  -23.5327  -26.4484   16.0927 C   0  0  0  0  0  0  0  0  0  0  0  0
  -28.9812  -14.0661   19.3316 C   0  0  1  0  0  0  0  0  0  0  0  0
  -28.6363  -16.7398   22.0084 C   0  0  1  0  0  0  0  0  0  0  0  0
  -24.7567  -27.3518   16.3209 C   0  0  2  0  0  0  0  0  0  0  0  0
  -29.5288  -25.9142   15.1934 C   0  0  0  0  0  0  0  0  0  0  0  0
  -23.2801  -19.9140   26.6169 C   0  0  0  0  0  0  0  0  0  0  0  0
  -24.1378  -16.5761   20.9607 C   0  0  0  0  0  0  0  0  0  0  0  0
  -22.6299  -17.8830   22.4728 C   0  0  0  0  0  0  0  0  0  0  0  0
  -23.6330  -15.7400   23.2630 C   0  0  0  0  0  0  0  0  0  0  0  0
  -27.0129  -20.6504   26.6299 C   0  0  0  0  0  0  0  0  0  0  0  0
  -29.9860  -23.2704   16.3681 C   0  0  0  0  0  0  0  0  0  0  0  0
  -30.9943  -23.1305   19.1003 C   0  0  0  0  0  0  0  0  0  1  0  0
  -28.4971  -22.8820   16.2989 C   0  0  0  0  0  0  0  0  0  0  0  0
  -28.2643  -21.5636   15.5529 C   0  0  0  0  0  0  0  0  0  0  0  0
  -26.7948  -21.1313   15.5303 C   0  0  0  0  0  0  0  0  0  0  0  0
  -25.8844  -22.1132   14.7883 C   0  0  0  0  0  0  0  0  0  0  0  0
  -24.4250  -21.6467   14.8213 C   0  0  0  0  0  0  0  0  0  0  0  0
  -23.4873  -22.6105   14.1007 C   0  0  0  0  0  0  0  0  0  0  0  0
  -25.1022  -17.7842   23.0287 C   0  0  1  0  0  0  0  0  0  0  0  0
  -24.7460  -19.6524   26.3077 C   0  0  2  0  0  0  0  0  0  0  0  0
  -23.9000  -17.0072   22.4217 C   0  0  0  0  0  0  0  0  0  0  0  0
  -31.0088  -25.5437   19.2010 N   0  0  0  0  0  0  0  0  0  0  0  0
  -24.5162  -28.6023   18.4330 N   0  0  0  0  0  0  0  0  0  0  0  0
  -25.0536  -27.5480   17.7961 N   0  0  0  0  0  0  0  0  0  0  0  0
  -27.4417  -17.5494   22.2570 N   0  0  0  0  0  0  0  0  0  0  0  0
  -23.2847  -26.2866   14.6515 N   0  0  0  0  0  0  0  0  0  0  0  0
  -26.4437  -25.6567   18.1144 N   0  0  0  0  0  0  0  0  0  0  0  0
  -26.3302  -27.5666   22.2053 N   0  0  0  0  0  0  0  0  0  0  0  0
  -29.0320  -14.8530   20.5450 N   0  0  0  0  0  0  0  0  0  0  0  0
  -24.9159  -18.1814   24.4200 N   0  0  0  0  0  0  0  0  0  0  0  0
  -23.4864  -23.9304   14.6910 N   0  0  0  0  0  0  0  0  0  0  0  0
  -25.5492  -20.7875   26.8438 N   0  3  0  0  0  0  0  0  0  0  0  0
  -27.1900  -25.8244   20.9870 O   0  0  0  0  0  0  0  0  0  0  0  0
  -27.8579  -16.7126   19.7794 O   0  0  0  0  0  0  0  0  0  0  0  0
  -26.4457  -15.9089   23.5809 O   0  0  0  0  0  0  0  0  0  0  0  0
  -25.1872  -20.4580   24.0731 O   0  0  0  0  0  0  0  0  0  0  0  0
  -23.0222  -25.0191   12.7273 O   0  0  0  0  0  0  0  0  0  0  0  0
  -23.5611  -32.1939   23.6039 O   0  0  0  0  0  0  0  0  0  0  0  0
  -29.7454  -22.5456   19.4670 O   0  0  0  0  0  0  0  0  0  1  0  0
  -22.0138  -30.2690   28.5338 F   0  0  0  0  0  0  0  0  0  0  0  0
  -25.2788  -30.6551   25.1285 F   0  0  0  0  0  0  0  0  0  0  0  0
  1  2  1  0  0  0  0
  1  5  2  0  0  0  0
  2  6  2  0  0  0  0
  3  8  2  0  0  0  0
  3 17  1  0  0  0  0
  4  9  1  0  0  0  0
  4 17  2  0  0  0  0
  5 19  1  0  0  0  0
  6 21  1  0  0  0  0
  7 10  2  0  0  0  0
  7 20  1  0  0  0  0
  8 25  1  0  0  0  0
  9 25  2  0  0  0  0
 10 26  1  0  0  0  0
 11 12  2  0  0  0  0
 11 27  1  0  0  0  0
 12 28  1  0  0  0  0
 13 16  1  0  0  0  0
 13 23  2  0  0  0  0
 14 22  1  0  0  0  0
 14 26  2  0  0  0  0
 15 28  2  0  0  0  0
 15 29  1  0  0  0  0
 16 67  2  0  0  0  0
 17 30  1  0  0  0  0
 18 30  1  0  0  0  0
 18 32  2  0  0  0  0
 18 33  1  0  0  0  0
 19 21  2  0  0  0  0
 19 38  1  0  0  0  0
 20 22  2  0  0  0  0
 20 39  1  0  0  0  0
 21 47  1  0  0  0  0
 22 40  1  0  0  0  0
 23 24  1  0  0  0  0
 23 50  1  0  0  0  0
 24 31  2  0  0  0  0
 24 56  1  0  0  0  0
 25 83  1  0  0  0  0
 26 84  1  0  0  0  0
 27 29  2  0  0  0  0
 27 83  1  0  0  0  0
 28 85  1  0  0  0  0
 29 86  1  0  0  0  0
 30 68  2  0  0  0  0
 31 57  1  0  0  0  0
 31 67  1  0  0  0  0
 32 69  1  0  0  0  0
 32 72  1  0  0  0  0
 33 73  1  0  0  0  0
 33 78  2  0  0  0  0
 34 48  1  0  0  0  0
 34 74  1  0  0  0  0
 34 79  2  0  0  0  0
 35 64  1  0  0  0  0
 35 70  1  0  0  0  0
 35 80  2  0  0  0  0
 36 65  1  0  0  0  0
 36 75  1  0  0  0  0
 36 81  2  0  0  0  0
 37 71  1  0  0  0  0
 37 76  1  0  0  0  0
 37 82  2  0  0  0  0
 38 41  1  0  0  0  0
 39 48  1  0  0  0  0
 40 70  1  0  0  0  0
 41 43  1  0  0  0  0
 42 44  1  0  0  0  0
 42 45  1  0  0  0  0
 43 47  1  0  0  0  0
 44 49  1  0  0  0  0
 45 71  1  0  0  0  0
 46 49  1  0  0  0  0
 46 71  1  0  0  0  0
 47 74  1  0  0  0  0
 48 70  1  0  0  0  0
 49 69  1  0  0  0  0
 51 65  1  0  0  0  0
 52 66  1  0  0  0  0
 53 66  1  0  0  0  0
 54 66  1  0  0  0  0
 55 77  1  0  0  0  0
 56 58  1  0  0  0  0
 57 84  1  0  0  0  0
 58 59  1  0  0  0  0
 59 60  1  0  0  0  0
 60 61  1  0  0  0  0
 61 62  1  0  0  0  0
 62 63  1  0  0  0  0
 63 76  1  0  0  0  0
 64 66  1  0  0  0  0
 64 75  1  0  0  0  0
 65 77  1  0  0  0  0
 68 69  1  0  0  0  0
M  CHG  1  77   1
M  ISO  4  37 100  57 101  76 100  84 101
M  END
> <Batch ID>
0032

> <Smiles>
CNC(C)C(=O)NC(C(=O)N1Cc2cc([101O:1][101CH2:1]c3nccc(C)c3CCCCCCC[100NH:0][100C:0](=O)N3CCCC(n4nc(-c5ccc(Oc6ccc(F)cc6F)cc5)c(C(N)=O)c4N)C3)ccc2CC1C(=O)NC1CCCc2ccccc21)C(C)(C)C

> <Shape>
0.211

> <Color>
0.069

> <Negative vol penalty>
0.000

$$$$

  -OEChem-04052316453D

 81 89  0     1  0  0  0  0  0999 V2000
  -17.5461  -25.9835   21.7869 C   0  0  0  0  0  0  0  0  0  0  0  0
  -18.8360  -25.4623   21.7822 C   0  0  0  0  0  0  0  0  0  0  0  0
  -23.4858   -9.5895   20.2589 C   0  0  0  0  0  0  0  0  0  0  0  0
  -23.8829  -10.1352   22.5788 C   0  0  0  0  0  0  0  0  0  0  0  0
  -17.3426  -27.3349   22.0631 C   0  0  0  0  0  0  0  0  0  0  0  0
  -19.9232  -26.2925   22.0527 C   0  0  0  0  0  0  0  0  0  0  0  0
  -23.2329  -24.1791   25.2503 C   0  0  0  0  0  0  0  0  0  0  0  0
  -22.8537   -8.4076   20.6451 C   0  0  0  0  0  0  0  0  0  0  0  0
  -23.2508   -8.9533   22.9650 C   0  0  0  0  0  0  0  0  0  0  0  0
  -24.1023  -23.2231   24.7270 C   0  0  0  0  0  0  0  0  0  0  0  0
  -20.0854   -7.8209   23.3090 C   0  0  0  0  0  0  0  0  0  0  0  0
  -19.1697   -7.8907   24.3589 C   0  0  0  0  0  0  0  0  0  0  0  0
  -25.8463  -24.8853   24.6039 C   0  0  0  0  0  0  0  0  0  0  0  0
  -28.2563  -19.6896   21.3692 C   0  0  0  0  0  0  0  0  0  0  0  0
  -27.4463  -19.5383   24.0345 C   0  0  0  0  0  0  0  0  0  0  0  0
  -20.5046   -6.3265   25.6272 C   0  0  0  0  0  0  0  0  0  0  0  0
  -24.0004  -10.4533   21.2257 C   0  0  0  0  0  0  0  0  0  0  0  0
  -24.0565  -12.9340   20.6335 C   0  0  0  0  0  0  0  0  0  0  0  0
  -18.4270  -28.1800   22.3466 C   0  0  0  0  0  0  0  0  0  0  0  0
  -23.6611  -25.5003   25.4445 C   0  0  0  0  0  0  0  0  0  0  0  0
  -19.7341  -27.6567   22.3317 C   0  0  0  0  0  0  0  0  0  0  0  0
  -24.9811  -25.8555   25.1323 C   0  0  0  0  0  0  0  0  0  0  0  0
  -28.8675  -18.7811   22.2334 C   0  0  0  0  0  0  0  0  0  0  0  0
  -26.8351  -20.4468   23.1704 C   0  0  0  0  0  0  0  0  0  0  0  0
  -22.7362   -8.0895   21.9981 C   0  0  0  0  0  0  0  0  0  0  0  0
  -25.4083  -23.5768   24.4010 C   0  0  0  0  0  0  0  0  0  0  0  0
  -21.2107   -7.0039   23.4182 C   0  0  0  0  0  0  0  0  0  0  0  0
  -19.3792   -7.1435   25.5179 C   0  0  0  0  0  0  0  0  0  0  0  0
  -21.4203   -6.2567   24.5773 C   0  0  0  0  0  0  0  0  0  0  0  0
  -28.4625  -18.7055   23.5660 C   0  0  0  0  0  0  0  0  0  0  0  0
  -27.2401  -20.5224   21.8378 C   0  0  0  0  0  0  0  0  0  0  0  0
  -24.6539  -11.6741   20.8274 C   0  0  0  0  0  0  0  0  0  0  0  0
  -25.0951  -13.7532   20.2639 C   0  0  0  0  0  0  0  0  0  0  0  0
  -22.6854  -13.3285   20.7750 C   0  0  0  0  0  0  0  0  0  0  0  0
  -22.7932  -28.3321   24.2908 C   0  0  0  0  0  0  0  0  0  0  0  0
  -24.9257  -29.4380   26.4708 C   0  0  0  0  0  0  0  0  0  0  0  0
  -27.6829  -28.8365   28.3898 C   0  0  0  0  0  0  0  0  0  0  0  0
  -30.3282  -15.5765   20.9248 C   0  0  0  0  0  0  0  0  0  0  0  0
  -18.1614  -29.6440   22.5929 C   0  0  0  0  0  0  0  0  0  0  0  0
  -22.7190  -26.5133   26.0350 C   0  0  0  0  0  0  0  0  0  0  0  0
  -25.4960  -27.2555   25.3407 C   0  0  0  0  0  0  0  0  0  0  0  0
  -19.3355  -30.3759   23.2380 C   0  0  0  0  0  0  0  0  0  0  0  0
  -29.8547  -12.6484   18.9552 C   0  0  0  0  0  0  0  0  0  0  0  0
  -20.6397  -30.0201   22.5315 C   0  0  0  0  0  0  0  0  0  0  0  0
  -28.4130  -12.2347   19.2556 C   0  0  0  0  0  0  0  0  0  0  0  0
  -30.5466  -13.2207   20.1904 C   0  0  0  0  0  0  0  0  0  0  0  0
  -28.3838  -13.9133   21.1478 C   0  0  0  0  0  0  0  0  0  0  0  0
  -20.9369  -28.5200   22.6447 C   0  0  1  0  0  0  0  0  0  0  0  0
  -23.1083  -27.9520   25.7099 C   0  0  1  0  0  0  0  0  0  0  0  0
  -27.6270  -13.3819   19.9185 C   0  0  2  0  0  0  0  0  0  0  0  0
  -29.2137  -29.9447   30.0408 C   0  0  0  0  0  0  0  0  0  0  0  0
  -26.2689  -30.9654   24.1964 C   0  0  0  0  0  0  0  0  0  0  0  0
  -28.2719  -31.2588   25.6696 C   0  0  0  0  0  0  0  0  0  0  0  0
  -26.0786  -32.2401   26.3397 C   0  0  0  0  0  0  0  0  0  0  0  0
  -26.9969  -26.8882   30.5093 C   0  0  0  0  0  0  0  0  0  0  0  0
  -29.9518  -17.9065   21.6919 C   0  0  0  0  0  0  0  0  0  0  0  0
  -25.7466  -21.3256   23.7127 C   0  0  0  0  0  0  0  0  0  1  0  0
  -26.4056  -29.7361   26.4627 C   0  0  1  0  0  0  0  0  0  0  0  0
  -27.9642  -29.0972   29.8586 C   0  0  2  0  0  0  0  0  0  0  0  0
  -26.7463  -31.0241   25.6612 C   0  0  0  0  0  0  0  0  0  0  0  0
  -25.9700  -11.6869   20.5996 N   0  0  0  0  0  0  0  0  0  0  0  0
  -26.2081  -12.9649   20.2587 N   0  0  0  0  0  0  0  0  0  0  0  0
  -24.5348  -28.2116   25.9148 N   0  0  0  0  0  0  0  0  0  0  0  0
  -29.7507  -14.3054   20.7702 N   0  0  0  0  0  0  0  0  0  0  0  0
  -25.1558  -15.0638   19.9460 N   0  0  0  0  0  0  0  0  0  0  0  0
  -21.7483  -12.3609   21.1622 N   0  0  0  0  0  0  0  0  0  0  0  0
  -21.4581  -28.2057   23.9577 N   0  0  0  0  0  0  0  0  0  0  0  0
  -26.8218  -29.7744   27.8605 N   0  0  0  0  0  0  0  0  0  0  0  0
  -29.5030  -16.5490   21.4762 N   0  0  0  0  0  0  0  0  0  0  0  0
  -28.1590  -27.8105   30.5849 N   0  3  0  0  0  0  0  0  0  0  0  0
  -22.2998  -14.5004   20.5483 O   0  0  0  0  0  0  0  0  0  0  0  0
  -23.6944  -28.7134   23.5531 O   0  0  0  0  0  0  0  0  0  0  0  0
  -24.1459  -30.2597   26.9590 O   0  0  0  0  0  0  0  0  0  0  0  0
  -28.1804  -27.8973   27.7727 O   0  0  0  0  0  0  0  0  0  0  0  0
  -31.4911  -15.8275   20.5908 O   0  0  0  0  0  0  0  0  0  0  0  0
  -22.1193   -6.9363   22.3754 O   0  0  0  0  0  0  0  0  0  0  0  0
  -26.2588  -22.6458   23.8894 O   0  0  0  0  0  0  0  0  0  1  0  0
  -18.5006   -7.2118   26.5266 F   0  0  0  0  0  0  0  0  0  0  0  0
  -22.5001   -5.4710   24.6884 F   0  0  0  0  0  0  0  0  0  0  0  0
  -29.1951  -17.5927   24.6633 Cl  0  0  0  0  0  0  0  0  0  0  0  0
  -26.5068  -21.6343   20.7397 Cl  0  0  0  0  0  0  0  0  0  0  0  0
  1  2  1  0  0  0  0
  1  5  2  0  0  0  0
  2  6  2  0  0  0  0
  3  8  2  0  0  0  0
  3 17  1  0  0  0  0
  4  9  1  0  0  0  0
  4 17  2  0  0  0  0
  5 19  1  0  0  0  0
  6 21  1  0  0  0  0
  7 10  2  0  0  0  0
  7 20  1  0  0  0  0
  8 25  1  0  0  0  0
  9 25  2  0  0  0  0
 10 26  1  0  0  0  0
 11 12  2  0  0  0  0
 11 27  1  0  0  0  0
 12 28  1  0  0  0  0
 13 22  1  0  0  0  0
 13 26  2  0  0  0  0
 14 23  2  0  0  0  0
 14 31  1  0  0  0  0
 15 24  1  0  0  0  0
 15 30  2  0  0  0  0
 16 28  2  0  0  0  0
 16 29  1  0  0  0  0
 17 32  1  0  0  0  0
 18 32  1  0  0  0  0
 18 33  2  0  0  0  0
 18 34  1  0  0  0  0
 19 21  2  0  0  0  0
 19 39  1  0  0  0  0
 20 22  2  0  0  0  0
 20 40  1  0  0  0  0
 21 48  1  0  0  0  0
 22 41  1  0  0  0  0
 23 30  1  0  0  0  0
 23 56  1  0  0  0  0
 24 31  2  0  0  0  0
 24 57  1  0  0  0  0
 25 76  1  0  0  0  0
 26 77  1  0  0  0  0
 27 29  2  0  0  0  0
 27 76  1  0  0  0  0
 28 78  1  0  0  0  0
 29 79  1  0  0  0  0
 30 80  1  0  0  0  0
 31 81  1  0  0  0  0
 32 61  2  0  0  0  0
 33 62  1  0  0  0  0
 33 65  1  0  0  0  0
 34 66  1  0  0  0  0
 34 71  2  0  0  0  0
 35 49  1  0  0  0  0
 35 67  1  0  0  0  0
 35 72  2  0  0  0  0
 36 58  1  0  0  0  0
 36 63  1  0  0  0  0
 36 73  2  0  0  0  0
 37 59  1  0  0  0  0
 37 68  1  0  0  0  0
 37 74  2  0  0  0  0
 38 64  1  0  0  0  0
 38 69  1  0  0  0  0
 38 75  2  0  0  0  0
 39 42  1  0  0  0  0
 40 49  1  0  0  0  0
 41 63  1  0  0  0  0
 42 44  1  0  0  0  0
 43 45  1  0  0  0  0
 43 46  1  0  0  0  0
 44 48  1  0  0  0  0
 45 50  1  0  0  0  0
 46 64  1  0  0  0  0
 47 50  1  0  0  0  0
 47 64  1  0  0  0  0
 48 67  1  0  0  0  0
 49 63  1  0  0  0  0
 50 62  1  0  0  0  0
 51 59  1  0  0  0  0
 52 60  1  0  0  0  0
 53 60  1  0  0  0  0
 54 60  1  0  0  0  0
 55 70  1  0  0  0  0
 56 69  1  0  0  0  0
 57 77  1  0  0  0  0
 58 60  1  0  0  0  0
 58 68  1  0  0  0  0
 59 70  1  0  0  0  0
 61 62  1  0  0  0  0
M  CHG  1  70   1
M  ISO  4  38 100  57 101  69 100  77 101
M  END
> <Batch ID>
0032

> <Smiles>
CNC(C)C(=O)NC(C(=O)N1Cc2cc([101O:1][101CH2:1]c3cc(Cl)c(C[100NH:0][100C:0](=O)N4CCCC(n5nc(-c6ccc(Oc7ccc(F)cc7F)cc6)c(C(N)=O)c5N)C4)cc3Cl)ccc2CC1C(=O)NC1CCCc2ccccc21)C(C)(C)C

> <Shape>
0.283

> <Color>
0.199

> <Negative vol penalty>
0.000

$$$$

  -OEChem-04052316453D

 83 91  0     1  0  0  0  0  0999 V2000
  -22.7870  -23.3990   20.8973 C   0  0  0  0  0  0  0  0  0  0  0  0
  -23.8868  -22.8445   20.2506 C   0  0  0  0  0  0  0  0  0  0  0  0
  -25.9405  -27.7747   19.1483 C   0  0  0  0  0  0  0  0  0  0  0  0
  -25.6744  -26.8788   21.3762 C   0  0  0  0  0  0  0  0  0  0  0  0
  -22.2622  -22.7812   22.0317 C   0  0  0  0  0  0  0  0  0  0  0  0
  -24.4633  -21.6723   20.7386 C   0  0  0  0  0  0  0  0  0  0  0  0
  -27.8151  -15.7489   18.5037 C   0  0  0  0  0  0  0  0  0  0  0  0
  -24.7914  -28.5462   19.3212 C   0  0  0  0  0  0  0  0  0  0  0  0
  -24.5253  -27.6503   21.5492 C   0  0  0  0  0  0  0  0  0  0  0  0
  -28.9774  -15.0155   18.7383 C   0  0  0  0  0  0  0  0  0  0  0  0
  -21.2758  -27.5217   20.6246 C   0  0  0  0  0  0  0  0  0  0  0  0
  -20.1595  -26.9043   21.1888 C   0  0  0  0  0  0  0  0  0  0  0  0
  -27.9372  -13.9926   20.6594 C   0  0  0  0  0  0  0  0  0  0  0  0
  -33.3958  -17.4143   22.6835 C   0  0  0  0  0  0  0  0  0  0  0  0
  -31.0277  -15.9450   22.5585 C   0  0  0  0  0  0  0  0  0  0  0  0
  -20.2012  -28.4922   23.0092 C   0  0  0  0  0  0  0  0  0  0  0  0
  -26.3820  -26.9410   20.1758 C   0  0  0  0  0  0  0  0  0  0  0  0
  -28.8714  -26.6055   19.7307 C   0  0  0  0  0  0  0  0  0  0  0  0
  -22.8266  -21.5956   22.5282 C   0  0  0  0  0  0  0  0  0  0  0  0
  -26.7070  -15.6175   19.3531 C   0  0  0  0  0  0  0  0  0  0  0  0
  -23.9464  -21.0388   21.8815 C   0  0  0  0  0  0  0  0  0  0  0  0
  -26.7611  -14.7235   20.4320 C   0  0  0  0  0  0  0  0  0  0  0  0
  -33.4367  -16.0480   22.4061 C   0  0  0  0  0  0  0  0  0  0  0  0
  -32.1709  -18.0461   22.8985 C   0  0  0  0  0  0  0  0  0  0  0  0
  -32.2527  -15.3133   22.3435 C   0  0  0  0  0  0  0  0  0  0  0  0
  -30.9868  -17.3114   22.8359 C   0  0  0  0  0  0  0  0  0  0  0  0
  -24.0838  -28.4840   20.5217 C   0  0  0  0  0  0  0  0  0  0  0  0
  -29.0396  -14.1394   19.8179 C   0  0  0  0  0  0  0  0  0  0  0  0
  -21.8548  -28.6244   21.2527 C   0  0  0  0  0  0  0  0  0  0  0  0
  -19.6222  -27.3895   22.3810 C   0  0  0  0  0  0  0  0  0  0  0  0
  -21.3175  -29.1097   22.4450 C   0  0  0  0  0  0  0  0  0  0  0  0
  -27.5687  -26.1434   19.9975 C   0  0  0  0  0  0  0  0  0  0  0  0
  -29.6309  -25.4640   19.6503 C   0  0  0  0  0  0  0  0  0  0  0  0
  -29.3520  -27.9468   19.5700 C   0  0  0  0  0  0  0  0  0  0  0  0
  -25.1023  -17.5835   21.2671 C   0  0  0  0  0  0  0  0  0  0  0  0
  -23.1292  -15.0292   21.5916 C   0  0  0  0  0  0  0  0  0  0  0  0
  -22.7201  -11.6450   21.4279 C   0  0  0  0  0  0  0  0  0  0  0  0
  -28.9456  -20.1074   22.0362 C   0  0  0  0  0  0  0  0  0  0  0  0
  -22.2539  -20.9899   23.7852 C   0  0  0  0  0  0  0  0  0  0  0  0
  -25.4512  -16.3957   19.0708 C   0  0  0  0  0  0  0  0  0  0  0  0
  -25.5918  -14.5309   21.3616 C   0  0  0  0  0  0  0  0  0  0  0  0
  -22.6910  -19.5462   24.0194 C   0  0  0  0  0  0  0  0  0  0  0  0
  -29.3125  -20.8269   18.5085 C   0  0  0  0  0  0  0  0  0  0  0  0
  -24.1947  -19.4024   23.8067 C   0  0  0  0  0  0  0  0  0  0  0  0
  -29.0272  -22.3294   18.4732 C   0  0  0  0  0  0  0  0  0  0  0  0
  -28.4199  -20.1184   19.5230 C   0  0  0  0  0  0  0  0  0  0  0  0
  -28.2161  -22.1704   20.8725 C   0  0  0  0  0  0  0  0  0  0  0  0
  -24.5842  -19.7548   22.3660 C   0  0  1  0  0  0  0  0  0  0  0  0
  -24.5648  -16.5662   20.3007 C   0  0  1  0  0  0  0  0  0  0  0  0
  -29.1024  -22.9473   19.8820 C   0  0  2  0  0  0  0  0  0  0  0  0
  -34.7597  -15.3935   22.1787 C   0  0  0  0  0  0  0  0  0  0  0  0
  -32.1520  -19.5097   23.1948 C   0  0  0  0  0  0  0  0  0  0  0  0
  -21.0048   -9.8486   21.7852 C   0  0  0  0  0  0  0  0  0  0  0  0
  -23.4688  -15.3088   24.6110 C   0  0  0  0  0  0  0  0  0  0  0  0
  -22.5512  -12.9926   24.8585 C   0  0  0  0  0  0  0  0  0  0  0  0
  -21.1377  -14.7928   23.8667 C   0  0  0  0  0  0  0  0  0  0  0  0
  -22.8753  -10.7737   18.6038 C   0  0  0  0  0  0  0  0  0  0  0  0
  -32.2719  -13.8355   22.0447 C   0  0  0  0  0  0  0  0  0  0  0  0
  -29.6638  -17.9659   23.0634 C   0  0  0  0  0  0  0  0  0  0  0  0
  -32.5138  -13.5086   20.5695 C   0  0  0  0  0  0  0  0  0  0  0  0
  -31.4086  -14.0147   19.6498 C   0  0  0  0  0  0  0  0  0  1  0  0
  -23.0589  -13.8444   22.5245 C   0  0  1  0  0  0  0  0  0  0  0  0
  -21.6467  -10.7904   20.7784 C   0  0  2  0  0  0  0  0  0  0  0  0
  -22.5770  -14.2395   23.9490 C   0  0  0  0  0  0  0  0  0  0  0  0
  -27.5008  -24.8121   20.0808 N   0  0  0  0  0  0  0  0  0  0  0  0
  -28.7704  -24.4278   19.8651 N   0  0  0  0  0  0  0  0  0  0  0  0
  -24.3886  -15.3191   21.0476 N   0  0  0  0  0  0  0  0  0  0  0  0
  -28.5523  -20.7430   20.8468 N   0  0  0  0  0  0  0  0  0  0  0  0
  -30.9442  -25.2555   19.4174 N   0  0  0  0  0  0  0  0  0  0  0  0
  -29.8009  -28.6361   20.7048 N   0  0  0  0  0  0  0  0  0  0  0  0
  -24.2630  -18.6615   21.4738 N   0  0  0  0  0  0  0  0  0  0  0  0
  -22.2175  -12.8532   21.8627 N   0  0  0  0  0  0  0  0  0  0  0  0
  -29.2397  -18.7537   21.9274 N   0  0  0  0  0  0  0  0  0  0  0  0
  -22.2307   -9.9739   19.6770 N   0  3  0  0  0  0  0  0  0  0  0  0
  -29.3671  -28.5228   18.4558 O   0  0  0  0  0  0  0  0  0  0  0  0
  -26.1968  -17.4029   21.7879 O   0  0  0  0  0  0  0  0  0  0  0  0
  -22.1032  -15.6695   21.3488 O   0  0  0  0  0  0  0  0  0  0  0  0
  -23.8870  -11.2761   21.5418 O   0  0  0  0  0  0  0  0  0  0  0  0
  -29.0335  -20.7036   23.1151 O   0  0  0  0  0  0  0  0  0  0  0  0
  -22.9625  -29.2368   20.6909 O   0  0  0  0  0  0  0  0  0  0  0  0
  -30.1731  -13.4229   20.0495 O   0  0  0  0  0  0  0  0  0  1  0  0
  -18.5494  -26.7974   22.9219 F   0  0  0  0  0  0  0  0  0  0  0  0
  -21.8687  -30.1694   23.0524 F   0  0  0  0  0  0  0  0  0  0  0  0
  1  2  1  0  0  0  0
  1  5  2  0  0  0  0
  2  6  2  0  0  0  0
  3  8  2  0  0  0  0
  3 17  1  0  0  0  0
  4  9  1  0  0  0  0
  4 17  2  0  0  0  0
  5 19  1  0  0  0  0
  6 21  1  0  0  0  0
  7 10  2  0  0  0  0
  7 20  1  0  0  0  0
  8 27  1  0  0  0  0
  9 27  2  0  0  0  0
 10 28  1  0  0  0  0
 11 12  2  0  0  0  0
 11 29  1  0  0  0  0
 12 30  1  0  0  0  0
 13 22  1  0  0  0  0
 13 28  2  0  0  0  0
 14 23  1  0  0  0  0
 14 24  2  0  0  0  0
 15 25  1  0  0  0  0
 15 26  2  0  0  0  0
 16 30  2  0  0  0  0
 16 31  1  0  0  0  0
 17 32  1  0  0  0  0
 18 32  1  0  0  0  0
 18 33  2  0  0  0  0
 18 34  1  0  0  0  0
 19 21  2  0  0  0  0
 19 39  1  0  0  0  0
 20 22  2  0  0  0  0
 20 40  1  0  0  0  0
 21 48  1  0  0  0  0
 22 41  1  0  0  0  0
 23 25  2  0  0  0  0
 23 51  1  0  0  0  0
 24 26  1  0  0  0  0
 24 52  1  0  0  0  0
 25 58  1  0  0  0  0
 26 59  1  0  0  0  0
 27 80  1  0  0  0  0
 28 81  1  0  0  0  0
 29 31  2  0  0  0  0
 29 80  1  0  0  0  0
 30 82  1  0  0  0  0
 31 83  1  0  0  0  0
 32 65  2  0  0  0  0
 33 66  1  0  0  0  0
 33 69  1  0  0  0  0
 34 70  1  0  0  0  0
 34 75  2  0  0  0  0
 35 49  1  0  0  0  0
 35 71  1  0  0  0  0
 35 76  2  0  0  0  0
 36 62  1  0  0  0  0
 36 67  1  0  0  0  0
 36 77  2  0  0  0  0
 37 63  1  0  0  0  0
 37 72  1  0  0  0  0
 37 78  2  0  0  0  0
 38 68  1  0  0  0  0
 38 73  1  0  0  0  0
 38 79  2  0  0  0  0
 39 42  1  0  0  0  0
 40 49  1  0  0  0  0
 41 67  1  0  0  0  0
 42 44  1  0  0  0  0
 43 45  1  0  0  0  0
 43 46  1  0  0  0  0
 44 48  1  0  0  0  0
 45 50  1  0  0  0  0
 46 68  1  0  0  0  0
 47 50  1  0  0  0  0
 47 68  1  0  0  0  0
 48 71  1  0  0  0  0
 49 67  1  0  0  0  0
 50 66  1  0  0  0  0
 53 63  1  0  0  0  0
 54 64  1  0  0  0  0
 55 64  1  0  0  0  0
 56 64  1  0  0  0  0
 57 74  1  0  0  0  0
 58 60  1  0  0  0  0
 59 73  1  0  0  0  0
 60 61  1  0  0  0  0
 61 81  1  0  0  0  0
 62 64  1  0  0  0  0
 62 72  1  0  0  0  0
 63 74  1  0  0  0  0
 65 66  1  0  0  0  0
M  CHG  1  74   1
M  ISO  4  38 100  61 101  73 100  81 101
M  END
> <Batch ID>
0032

> <Smiles>
CNC(C)C(=O)NC(C(=O)N1Cc2cc([101O:1][101CH2:1]CCc3cc(C[100NH:0][100C:0](=O)N4CCCC(n5nc(-c6ccc(Oc7ccc(F)cc7F)cc6)c(C(N)=O)c5N)C4)c(C)cc3C)ccc2CC1C(=O)NC1CCCc2ccccc21)C(C)(C)C

> <Shape>
0.252

> <Color>
0.050

> <Negative vol penalty>
0.000

$$$$

  -OEChem-04052316453D

 95103  0     1  0  0  0  0  0999 V2000
  -25.4411  -24.7096   20.0488 C   0  0  0  0  0  0  0  0  0  0  0  0
  -26.6038  -23.9486   19.9818 C   0  0  0  0  0  0  0  0  0  0  0  0
  -23.0021   -9.8918   19.9822 C   0  0  0  0  0  0  0  0  0  0  0  0
  -23.7302   -9.9452   22.2853 C   0  0  0  0  0  0  0  0  0  0  0  0
  -25.3788  -25.8117   20.9005 C   0  0  0  0  0  0  0  0  0  0  0  0
  -27.7053  -24.2901   20.7656 C   0  0  0  0  0  0  0  0  0  0  0  0
  -33.2002  -21.3167   24.2701 C   0  0  0  0  0  0  0  0  0  0  0  0
  -22.2379   -8.7561   20.2502 C   0  0  0  0  0  0  0  0  0  0  0  0
  -22.9660   -8.8096   22.5533 C   0  0  0  0  0  0  0  0  0  0  0  0
  -34.5871  -21.4112   24.3775 C   0  0  0  0  0  0  0  0  0  0  0  0
  -23.2155   -5.4708   22.0828 C   0  0  0  0  0  0  0  0  0  0  0  0
  -23.8058   -4.4550   22.8346 C   0  0  0  0  0  0  0  0  0  0  0  0
  -34.3374  -23.2891   25.8710 C   0  0  0  0  0  0  0  0  0  0  0  0
  -37.4945  -25.2399   20.2831 C   0  0  0  0  0  0  0  0  0  0  0  0
  -37.5739  -25.8732   22.9988 C   0  0  0  0  0  0  0  0  0  0  0  0
  -22.0837   -4.6958   24.5120 C   0  0  0  0  0  0  0  0  0  0  0  0
  -23.7483  -10.4864   20.9998 C   0  0  0  0  0  0  0  0  0  0  0  0
  -24.1290  -13.0025   20.8220 C   0  0  0  0  0  0  0  0  0  0  0  0
  -26.4768  -26.1611   21.7024 C   0  0  0  0  0  0  0  0  0  0  0  0
  -32.3704  -22.2160   24.9550 C   0  0  0  0  0  0  0  0  0  0  0  0
  -27.6581  -25.3987   21.6279 C   0  0  0  0  0  0  0  0  0  0  0  0
  -32.9403  -23.2022   25.7727 C   0  0  0  0  0  0  0  0  0  0  0  0
  -37.1096  -26.5091   20.7147 C   0  0  0  0  0  0  0  0  0  0  0  0
  -37.9588  -24.6038   22.5671 C   0  0  0  0  0  0  0  0  0  0  0  0
  -22.2198   -8.2150   21.5357 C   0  0  0  0  0  0  0  0  0  0  0  0
  -35.1559  -22.3993   25.1757 C   0  0  0  0  0  0  0  0  0  0  0  0
  -22.0593   -6.0992   22.5455 C   0  0  0  0  0  0  0  0  0  0  0  0
  -23.2399   -4.0675   24.0492 C   0  0  0  0  0  0  0  0  0  0  0  0
  -37.9191  -24.2872   21.2093 C   0  0  0  0  0  0  0  0  0  0  0  0
  -21.4935   -5.7117   23.7601 C   0  0  0  0  0  0  0  0  0  0  0  0
  -37.1493  -26.8258   22.0726 C   0  0  0  0  0  0  0  0  0  0  0  0
  -24.5384  -11.6592   20.7235 C   0  0  0  0  0  0  0  0  0  0  0  0
  -25.2370  -13.7268   20.4557 C   0  0  0  0  0  0  0  0  0  0  0  0
  -22.8606  -13.5469   21.2099 C   0  0  0  0  0  0  0  0  0  0  0  0
  -30.2280  -24.3979   24.0869 C   0  0  0  0  0  0  0  0  0  0  0  0
  -29.7185  -24.6038   27.2839 C   0  0  0  0  0  0  0  0  0  0  0  0
  -30.9235  -24.1526   30.4447 C   0  0  0  0  0  0  0  0  0  0  0  0
  -30.7321  -14.6711   20.6965 C   0  0  0  0  0  0  0  0  0  0  0  0
  -26.3787  -27.3890   22.5726 C   0  0  0  0  0  0  0  0  0  0  0  0
  -30.8758  -22.0839   24.8499 C   0  0  0  0  0  0  0  0  0  0  0  0
  -32.0931  -24.1794   26.5446 C   0  0  0  0  0  0  0  0  0  0  0  0
  -27.4599  -27.4616   23.6478 C   0  0  0  0  0  0  0  0  0  0  0  0
  -29.5925  -12.2443   18.3538 C   0  0  0  0  0  0  0  0  0  0  0  0
  -28.8278  -27.1454   23.0514 C   0  0  0  0  0  0  0  0  0  0  0  0
  -28.1451  -11.9822   18.7734 C   0  0  0  0  0  0  0  0  0  0  0  0
  -30.4961  -12.4818   19.5617 C   0  0  0  0  0  0  0  0  0  0  0  0
  -28.5864  -13.2747   20.9026 C   0  0  0  0  0  0  0  0  0  0  0  0
  -28.8654  -25.7226   22.4809 C   0  0  1  0  0  0  0  0  0  0  0  0
  -30.1367  -23.3759   25.1846 C   0  0  1  0  0  0  0  0  0  0  0  0
  -27.6261  -13.0848   19.7160 C   0  0  2  0  0  0  0  0  0  0  0  0
  -30.2897  -24.4456   32.8551 C   0  0  0  0  0  0  0  0  0  0  0  0
  -39.4084  -22.9063   25.5519 C   0  0  0  0  0  0  0  0  0  0  0  0
  -30.1800  -27.6098   27.0373 C   0  0  0  0  0  0  0  0  0  0  0  0
  -30.4794  -27.6972   29.5214 C   0  0  0  0  0  0  0  0  0  0  0  0
  -28.2999  -26.9641   28.5546 C   0  0  0  0  0  0  0  0  0  0  0  0
  -31.1922  -21.2557   30.9878 C   0  0  0  0  0  0  0  0  0  0  0  0
  -36.6577  -27.5112   19.6814 C   0  0  0  0  0  0  0  0  0  0  0  0
  -35.1336  -27.6648   19.6024 C   0  0  0  0  0  0  0  0  0  0  0  0
  -34.4246  -26.3581   19.2314 C   0  0  0  0  0  0  0  0  0  0  0  0
  -32.8975  -26.4743   19.2259 C   0  0  0  0  0  0  0  0  0  0  0  0
  -32.1332  -25.1828   18.9137 C   0  0  0  0  0  0  0  0  0  0  0  0
  -32.3204  -24.0363   19.9121 C   0  0  0  0  0  0  0  0  0  0  0  0
  -31.5143  -22.7831   19.5621 C   0  0  0  0  0  0  0  0  0  0  0  0
  -31.7661  -21.6671   20.5795 C   0  0  0  0  0  0  0  0  0  0  0  0
  -31.0408  -20.3613   20.2426 C   0  0  0  0  0  0  0  0  0  0  0  0
  -31.2753  -19.2537   21.2724 C   0  0  0  0  0  0  0  0  0  0  0  0
  -30.5490  -17.9670   20.8771 C   0  0  0  0  0  0  0  0  0  0  0  0
  -30.8126  -16.8508   21.8804 C   0  0  0  0  0  0  0  0  0  0  0  0
  -37.0526  -23.7935   25.5146 C   0  0  0  0  0  0  0  0  0  1  0  0
  -30.3007  -25.4255   28.4085 C   0  0  1  0  0  0  0  0  0  0  0  0
  -30.3161  -23.4932   31.6697 C   0  0  2  0  0  0  0  0  0  0  0  0
  -38.4510  -23.9021   24.9104 C   0  0  2  0  0  0  0  0  0  0  0  0
  -29.8313  -26.9071   28.3645 C   0  0  0  0  0  0  0  0  0  0  0  0
  -25.8074  -11.5347   20.3257 N   0  0  0  0  0  0  0  0  0  0  0  0
  -26.2049  -12.8091   20.1709 N   0  0  0  0  0  0  0  0  0  0  0  0
  -30.6369  -24.0134   26.4043 N   0  0  0  0  0  0  0  0  0  0  0  0
  -29.9486  -13.5400   20.4140 N   0  0  0  0  0  0  0  0  0  0  0  0
  -25.4681  -15.0529   20.3527 N   0  0  0  0  0  0  0  0  0  0  0  0
  -21.8308  -12.6612   21.5552 N   0  0  0  0  0  0  0  0  0  0  0  0
  -38.3870  -23.6417   23.5057 N   0  0  0  0  0  0  0  0  0  0  0  0
  -29.0070  -24.7542   23.5470 N   0  0  0  0  0  0  0  0  0  0  0  0
  -29.9598  -24.7271   29.6432 N   0  0  0  0  0  0  0  0  0  0  0  0
  -30.1352  -15.6293   21.5066 N   0  0  0  0  0  0  0  0  0  0  0  0
  -31.1036  -22.2874   32.0531 N   0  3  0  0  0  0  0  0  0  0  0  0
  -22.6418  -14.7819   21.2333 O   0  0  0  0  0  0  0  0  0  0  0  0
  -31.3249  -24.8321   23.7554 O   0  0  0  0  0  0  0  0  0  0  0  0
  -28.4941  -24.4841   27.1934 O   0  0  0  0  0  0  0  0  0  0  0  0
  -32.1324  -24.1607   30.2231 O   0  0  0  0  0  0  0  0  0  0  0  0
  -31.8767  -14.8188   20.2548 O   0  0  0  0  0  0  0  0  0  0  0  0
  -21.4740   -7.1069   21.7975 O   0  0  0  0  0  0  0  0  0  0  0  0
  -36.5181  -22.4948   25.2824 O   0  0  0  0  0  0  0  0  0  1  0  0
  -23.8060   -3.0910   24.7704 F   0  0  0  0  0  0  0  0  0  0  0  0
  -38.2859  -23.0702   20.7831 F   0  0  0  0  0  0  0  0  0  0  0  0
  -20.3821   -6.3108   24.2093 F   0  0  0  0  0  0  0  0  0  0  0  0
  -36.6801  -28.3857   22.6435 Cl  0  0  0  0  0  0  0  0  0  0  0  0
  1  2  1  0  0  0  0
  1  5  2  0  0  0  0
  2  6  2  0  0  0  0
  3  8  2  0  0  0  0
  3 17  1  0  0  0  0
  4  9  1  0  0  0  0
  4 17  2  0  0  0  0
  5 19  1  0  0  0  0
  6 21  1  0  0  0  0
  7 10  2  0  0  0  0
  7 20  1  0  0  0  0
  8 25  1  0  0  0  0
  9 25  2  0  0  0  0
 10 26  1  0  0  0  0
 11 12  2  0  0  0  0
 11 27  1  0  0  0  0
 12 28  1  0  0  0  0
 13 22  1  0  0  0  0
 13 26  2  0  0  0  0
 14 23  2  0  0  0  0
 14 29  1  0  0  0  0
 15 24  1  0  0  0  0
 15 31  2  0  0  0  0
 16 28  2  0  0  0  0
 16 30  1  0  0  0  0
 17 32  1  0  0  0  0
 18 32  1  0  0  0  0
 18 33  2  0  0  0  0
 18 34  1  0  0  0  0
 19 21  2  0  0  0  0
 19 39  1  0  0  0  0
 20 22  2  0  0  0  0
 20 40  1  0  0  0  0
 21 48  1  0  0  0  0
 22 41  1  0  0  0  0
 23 31  1  0  0  0  0
 23 57  1  0  0  0  0
 24 29  2  0  0  0  0
 24 80  1  0  0  0  0
 25 90  1  0  0  0  0
 26 91  1  0  0  0  0
 27 30  2  0  0  0  0
 27 90  1  0  0  0  0
 28 92  1  0  0  0  0
 29 93  1  0  0  0  0
 30 94  1  0  0  0  0
 31 95  1  0  0  0  0
 32 74  2  0  0  0  0
 33 75  1  0  0  0  0
 33 78  1  0  0  0  0
 34 79  1  0  0  0  0
 34 85  2  0  0  0  0
 35 49  1  0  0  0  0
 35 81  1  0  0  0  0
 35 86  2  0  0  0  0
 36 70  1  0  0  0  0
 36 76  1  0  0  0  0
 36 87  2  0  0  0  0
 37 71  1  0  0  0  0
 37 82  1  0  0  0  0
 37 88  2  0  0  0  0
 38 77  1  0  0  0  0
 38 83  1  0  0  0  0
 38 89  2  0  0  0  0
 39 42  1  0  0  0  0
 40 49  1  0  0  0  0
 41 76  1  0  0  0  0
 42 44  1  0  0  0  0
 43 45  1  0  0  0  0
 43 46  1  0  0  0  0
 44 48  1  0  0  0  0
 45 50  1  0  0  0  0
 46 77  1  0  0  0  0
 47 50  1  0  0  0  0
 47 77  1  0  0  0  0
 48 81  1  0  0  0  0
 49 76  1  0  0  0  0
 50 75  1  0  0  0  0
 51 71  1  0  0  0  0
 52 72  1  0  0  0  0
 53 73  1  0  0  0  0
 54 73  1  0  0  0  0
 55 73  1  0  0  0  0
 56 84  1  0  0  0  0
 57 58  1  0  0  0  0
 58 59  1  0  0  0  0
 59 60  1  0  0  0  0
 60 61  1  0  0  0  0
 61 62  1  0  0  0  0
 62 63  1  0  0  0  0
 63 64  1  0  0  0  0
 64 65  1  0  0  0  0
 65 66  1  0  0  0  0
 66 67  1  0  0  0  0
 67 68  1  0  0  0  0
 68 83  1  0  0  0  0
 69 72  1  0  0  0  0
 69 91  1  0  0  0  0
 70 73  1  0  0  0  0
 70 82  1  0  0  0  0
 71 84  1  0  0  0  0
 72 80  1  0  0  0  0
 74 75  1  0  0  0  0
M  CHG  1  84   1
M  ISO  4  38 100  69 101  83 100  91 101
M  END
> <Batch ID>
0032

> <Smiles>
CNC(C)C(=O)NC(C(=O)N1Cc2cc([101O:1][101CH2:1]C(C)Nc3cc(Cl)c(CCCCCCCCCCCC[100NH:0][100C:0](=O)N4CCCC(n5nc(-c6ccc(Oc7ccc(F)cc7F)cc6)c(C(N)=O)c5N)C4)cc3F)ccc2CC1C(=O)NC1CCCc2ccccc21)C(C)(C)C

> <Shape>
0.186

> <Color>
0.202

> <Negative vol penalty>
0.000

$$$$

  -OEChem-04052316453D

 89 97  0     1  0  0  0  0  0999 V2000
  -32.1283  -29.6823   14.6054 C   0  0  0  0  0  0  0  0  0  0  0  0
  -31.5192  -28.4334   14.6740 C   0  0  0  0  0  0  0  0  0  0  0  0
  -30.9113  -18.8704   20.2748 C   0  0  0  0  0  0  0  0  0  0  0  0
  -28.5244  -18.5237   20.4136 C   0  0  0  0  0  0  0  0  0  0  0  0
  -32.2737  -30.4501   15.7601 C   0  0  0  0  0  0  0  0  0  0  0  0
  -31.0561  -27.9511   15.8977 C   0  0  0  0  0  0  0  0  0  0  0  0
  -25.8467  -23.9062   18.6937 C   0  0  0  0  0  0  0  0  0  0  0  0
  -31.0530  -17.6390   19.6352 C   0  0  0  0  0  0  0  0  0  0  0  0
  -28.6661  -17.2923   19.7739 C   0  0  0  0  0  0  0  0  0  0  0  0
  -25.6691  -22.8115   19.5385 C   0  0  0  0  0  0  0  0  0  0  0  0
  -28.4400  -13.8957   18.5004 C   0  0  0  0  0  0  0  0  0  0  0  0
  -27.7433  -12.8079   19.0264 C   0  0  0  0  0  0  0  0  0  0  0  0
  -25.9033  -24.2593   21.4538 C   0  0  0  0  0  0  0  0  0  0  0  0
  -23.8351  -19.1249   22.4163 C   0  0  0  0  0  0  0  0  0  0  0  0
  -28.9224  -13.0649   21.1195 C   0  0  0  0  0  0  0  0  0  0  0  0
  -29.6470  -19.3128   20.6641 C   0  0  0  0  0  0  0  0  0  0  0  0
  -29.2827  -21.8370   20.7207 C   0  0  0  0  0  0  0  0  0  0  0  0
  -31.8035  -29.9811   16.9968 C   0  0  0  0  0  0  0  0  0  0  0  0
  -26.0652  -25.1861   19.2234 C   0  0  0  0  0  0  0  0  0  0  0  0
  -31.1966  -28.7128   17.0702 C   0  0  0  0  0  0  0  0  0  0  0  0
  -26.0809  -25.3690   20.6135 C   0  0  0  0  0  0  0  0  0  0  0  0
  -23.6764  -18.1588   23.4035 C   0  0  0  0  0  0  0  0  0  0  0  0
  -24.7832  -17.7153   24.1189 C   0  0  0  0  0  0  0  0  0  0  0  0
  -29.9304  -16.8500   19.3847 C   0  0  0  0  0  0  0  0  0  0  0  0
  -25.7003  -22.9874   20.9188 C   0  0  0  0  0  0  0  0  0  0  0  0
  -29.3780  -14.5681   19.2838 C   0  0  0  0  0  0  0  0  0  0  0  0
  -27.9844  -12.3925   20.3360 C   0  0  0  0  0  0  0  0  0  0  0  0
  -29.6191  -14.1527   20.5933 C   0  0  0  0  0  0  0  0  0  0  0  0
  -29.5000  -20.5844   21.3254 C   0  0  0  0  0  0  0  0  0  0  0  0
  -25.1115  -19.6119   22.1847 C   0  0  0  0  0  0  0  0  0  0  0  0
  -26.0171  -18.2652   23.8109 C   0  0  0  0  0  0  0  0  0  0  0  0
  -29.2149  -22.7186   21.7718 C   0  0  0  0  0  0  0  0  0  0  0  0
  -29.1536  -22.1735   19.3330 C   0  0  0  0  0  0  0  0  0  0  0  0
  -28.4348  -27.2997   19.0774 C   0  0  0  0  0  0  0  0  0  0  0  0
  -26.3304  -29.1851   20.6708 C   0  0  0  0  0  0  0  0  0  0  0  0
  -23.5998  -29.4016   22.7065 C   0  0  0  0  0  0  0  0  0  0  0  0
  -27.2909  -23.0350   27.2227 C   0  0  0  0  0  0  0  0  0  0  0  0
  -32.0256  -30.8265   18.2259 C   0  0  0  0  0  0  0  0  0  0  0  0
  -26.2284  -26.3611   18.2986 C   0  0  0  0  0  0  0  0  0  0  0  0
  -26.2918  -26.7258   21.2325 C   0  0  0  0  0  0  0  0  0  0  0  0
  -31.1714  -30.4040   19.4184 C   0  0  0  0  0  0  0  0  0  0  0  0
  -30.7510  -22.6628   26.4707 C   0  0  0  0  0  0  0  0  0  0  0  0
  -31.2232  -28.8907   19.6027 C   0  0  0  0  0  0  0  0  0  0  0  0
  -30.7610  -22.2054   25.0110 C   0  0  0  0  0  0  0  0  0  0  0  0
  -29.5724  -22.0702   27.2398 C   0  0  0  0  0  0  0  0  0  0  0  0
  -28.2621  -21.8441   25.1648 C   0  0  0  0  0  0  0  0  0  0  0  0
  -30.6590  -28.1657   18.3748 C   0  0  1  0  0  0  0  0  0  0  0  0
  -26.9566  -27.5347   18.9464 C   0  0  1  0  0  0  0  0  0  0  0  0
  -29.4008  -22.4604   24.3342 C   0  0  2  0  0  0  0  0  0  0  0  0
  -22.3124  -17.6142   23.6740 C   0  0  0  0  0  0  0  0  0  0  0  0
  -22.1369  -31.0770   23.8684 C   0  0  0  0  0  0  0  0  0  0  0  0
  -28.5051  -29.6282   22.7648 C   0  0  0  0  0  0  0  0  0  0  0  0
  -26.7376  -30.4834   24.3182 C   0  0  0  0  0  0  0  0  0  0  0  0
  -27.1934  -31.6739   22.1740 C   0  0  0  0  0  0  0  0  0  0  0  0
  -21.1991  -28.5052   21.2260 C   0  0  0  0  0  0  0  0  0  0  0  0
  -24.6300  -16.6676   25.1933 C   0  0  0  0  0  0  0  0  0  0  0  0
  -25.3196  -20.6496   21.1326 C   0  0  0  0  0  0  0  0  0  1  0  0
  -24.6873  -17.2101   26.6271 C   0  0  0  0  0  0  0  0  0  0  0  0
  -23.5765  -18.1991   27.0012 C   0  0  0  0  0  0  0  0  0  0  0  0
  -23.7250  -18.7782   28.4101 C   0  0  0  0  0  0  0  0  0  0  0  0
  -22.6077  -19.7589   28.7843 C   0  0  0  0  0  0  0  0  0  0  0  0
  -22.5205  -21.0267   27.9277 C   0  0  0  0  0  0  0  0  0  0  0  0
  -23.8211  -21.8325   27.9044 C   0  0  0  0  0  0  0  0  0  0  0  0
  -23.7314  -23.1080   27.0579 C   0  0  0  0  0  0  0  0  0  0  0  0
  -24.9957  -23.9625   27.0471 C   0  0  0  0  0  0  0  0  0  0  0  0
  -26.0110  -29.4398   22.1242 C   0  0  1  0  0  0  0  0  0  0  0  0
  -22.3385  -30.2413   22.6140 C   0  0  2  0  0  0  0  0  0  0  0  0
  -27.1097  -30.2803   22.8340 C   0  0  0  0  0  0  0  0  0  0  0  0
  -29.5661  -20.6594   22.6574 N   0  0  0  0  0  0  0  0  0  0  0  0
  -26.2105  -19.2055   22.8589 N   0  0  0  0  0  0  0  0  0  0  0  0
  -29.3893  -21.9697   22.8983 N   0  0  0  0  0  0  0  0  0  0  0  0
  -26.4527  -27.8423   20.2865 N   0  0  0  0  0  0  0  0  0  0  0  0
  -28.3126  -22.3486   26.5460 N   0  0  0  0  0  0  0  0  0  0  0  0
  -29.0239  -24.0535   21.8330 N   0  0  0  0  0  0  0  0  0  0  0  0
  -29.2485  -21.1459   18.3847 N   0  0  0  0  0  0  0  0  0  0  0  0
  -29.2124  -28.2072   18.3838 N   0  0  0  0  0  0  0  0  0  0  0  0
  -24.6845  -30.0463   22.1504 N   0  0  0  0  0  0  0  0  0  0  0  0
  -26.1324  -23.2635   26.4903 N   0  0  0  0  0  0  0  0  0  0  0  0
  -21.1456  -29.3661   22.4356 N   0  3  0  0  0  0  0  0  0  0  0  0
  -28.9763  -23.3530   18.9445 O   0  0  0  0  0  0  0  0  0  0  0  0
  -28.8400  -26.3651   19.7587 O   0  0  0  0  0  0  0  0  0  0  0  0
  -26.4594  -30.1422   19.9034 O   0  0  0  0  0  0  0  0  0  0  0  0
  -23.6216  -28.2870   23.2239 O   0  0  0  0  0  0  0  0  0  0  0  0
  -27.4048  -23.4207   28.3911 O   0  0  0  0  0  0  0  0  0  0  0  0
  -30.0683  -15.6484   18.7603 O   0  0  0  0  0  0  0  0  0  0  0  0
  -25.5266  -21.9130   21.7515 O   0  0  0  0  0  0  0  0  0  1  0  0
  -27.3142  -11.3488   20.8416 F   0  0  0  0  0  0  0  0  0  0  0  0
  -30.5182  -14.7955   21.3512 F   0  0  0  0  0  0  0  0  0  0  0  0
  -27.4609  -17.8037   24.6247 Cl  0  0  0  0  0  0  0  0  0  0  0  0
  1  2  1  0  0  0  0
  1  5  2  0  0  0  0
  2  6  2  0  0  0  0
  3  8  2  0  0  0  0
  3 16  1  0  0  0  0
  4  9  1  0  0  0  0
  4 16  2  0  0  0  0
  5 18  1  0  0  0  0
  6 20  1  0  0  0  0
  7 10  2  0  0  0  0
  7 19  1  0  0  0  0
  8 24  1  0  0  0  0
  9 24  2  0  0  0  0
 10 25  1  0  0  0  0
 11 12  2  0  0  0  0
 11 26  1  0  0  0  0
 12 27  1  0  0  0  0
 13 21  1  0  0  0  0
 13 25  2  0  0  0  0
 14 22  2  0  0  0  0
 14 30  1  0  0  0  0
 15 27  2  0  0  0  0
 15 28  1  0  0  0  0
 16 29  1  0  0  0  0
 17 29  1  0  0  0  0
 17 32  2  0  0  0  0
 17 33  1  0  0  0  0
 18 20  2  0  0  0  0
 18 38  1  0  0  0  0
 19 21  2  0  0  0  0
 19 39  1  0  0  0  0
 20 47  1  0  0  0  0
 21 40  1  0  0  0  0
 22 23  1  0  0  0  0
 22 50  1  0  0  0  0
 23 31  2  0  0  0  0
 23 56  1  0  0  0  0
 24 85  1  0  0  0  0
 25 86  1  0  0  0  0
 26 28  2  0  0  0  0
 26 85  1  0  0  0  0
 27 87  1  0  0  0  0
 28 88  1  0  0  0  0
 29 69  2  0  0  0  0
 30 57  1  0  0  0  0
 30 70  2  0  0  0  0
 31 70  1  0  0  0  0
 31 89  1  0  0  0  0
 32 71  1  0  0  0  0
 32 74  1  0  0  0  0
 33 75  1  0  0  0  0
 33 80  2  0  0  0  0
 34 48  1  0  0  0  0
 34 76  1  0  0  0  0
 34 81  2  0  0  0  0
 35 66  1  0  0  0  0
 35 72  1  0  0  0  0
 35 82  2  0  0  0  0
 36 67  1  0  0  0  0
 36 77  1  0  0  0  0
 36 83  2  0  0  0  0
 37 73  1  0  0  0  0
 37 78  1  0  0  0  0
 37 84  2  0  0  0  0
 38 41  1  0  0  0  0
 39 48  1  0  0  0  0
 40 72  1  0  0  0  0
 41 43  1  0  0  0  0
 42 44  1  0  0  0  0
 42 45  1  0  0  0  0
 43 47  1  0  0  0  0
 44 49  1  0  0  0  0
 45 73  1  0  0  0  0
 46 49  1  0  0  0  0
 46 73  1  0  0  0  0
 47 76  1  0  0  0  0
 48 72  1  0  0  0  0
 49 71  1  0  0  0  0
 51 67  1  0  0  0  0
 52 68  1  0  0  0  0
 53 68  1  0  0  0  0
 54 68  1  0  0  0  0
 55 79  1  0  0  0  0
 56 58  1  0  0  0  0
 57 86  1  0  0  0  0
 58 59  1  0  0  0  0
 59 60  1  0  0  0  0
 60 61  1  0  0  0  0
 61 62  1  0  0  0  0
 62 63  1  0  0  0  0
 63 64  1  0  0  0  0
 64 65  1  0  0  0  0
 65 78  1  0  0  0  0
 66 68  1  0  0  0  0
 66 77  1  0  0  0  0
 67 79  1  0  0  0  0
 69 71  1  0  0  0  0
M  CHG  1  79   1
M  ISO  4  37 100  57 101  78 100  86 101
M  END
> <Batch ID>
0032

> <Smiles>
CNC(C)C(=O)NC(C(=O)N1Cc2cc([101O:1][101CH2:1]c3cc(C)c(CCCCCCCCC[100NH:0][100C:0](=O)N4CCCC(n5nc(-c6ccc(Oc7ccc(F)cc7F)cc6)c(C(N)=O)c5N)C4)c(Cl)n3)ccc2CC1C(=O)NC1CCCc2ccccc21)C(C)(C)C

> <Shape>
0.190

> <Color>
0.073

> <Negative vol penalty>
0.000

$$$$

  -OEChem-04052316453D

 86 94  0     1  0  0  0  0  0999 V2000
  -30.2869  -12.7044   19.9963 C   0  0  0  0  0  0  0  0  0  0  0  0
  -30.0572  -13.9302   20.6128 C   0  0  0  0  0  0  0  0  0  0  0  0
  -29.1804  -24.1217   21.8512 C   0  0  0  0  0  0  0  0  0  0  0  0
  -27.6139  -24.3714   20.0290 C   0  0  0  0  0  0  0  0  0  0  0  0
  -29.3677  -12.2063   19.0738 C   0  0  0  0  0  0  0  0  0  0  0  0
  -28.9086  -14.6591   20.3065 C   0  0  0  0  0  0  0  0  0  0  0  0
  -25.6610  -18.1860   24.1170 C   0  0  0  0  0  0  0  0  0  0  0  0
  -29.0612  -22.7347   21.7637 C   0  0  0  0  0  0  0  0  0  0  0  0
  -27.4947  -22.9844   19.9414 C   0  0  0  0  0  0  0  0  0  0  0  0
  -25.6428  -19.5630   24.3344 C   0  0  0  0  0  0  0  0  0  0  0  0
  -29.4452  -19.1199   21.7818 C   0  0  0  0  0  0  0  0  0  0  0  0
  -30.6164  -18.3640   21.8306 C   0  0  0  0  0  0  0  0  0  0  0  0
  -23.7649  -19.7691   22.8344 C   0  0  0  0  0  0  0  0  0  0  0  0
  -21.8909  -25.9460   20.9971 C   0  0  0  0  0  0  0  0  0  0  0  0
  -21.5852  -25.1503   23.6534 C   0  0  0  0  0  0  0  0  0  0  0  0
  -31.4275  -19.4933   19.8548 C   0  0  0  0  0  0  0  0  0  0  0  0
  -28.4567  -24.9401   20.9839 C   0  0  0  0  0  0  0  0  0  0  0  0
  -29.5001  -27.1920   20.3943 C   0  0  0  0  0  0  0  0  0  0  0  0
  -28.2025  -12.9249   18.7632 C   0  0  0  0  0  0  0  0  0  0  0  0
  -24.7367  -17.5906   23.2466 C   0  0  0  0  0  0  0  0  0  0  0  0
  -27.9736  -14.1707   19.3780 C   0  0  0  0  0  0  0  0  0  0  0  0
  -23.7719  -18.3840   22.6095 C   0  0  0  0  0  0  0  0  0  0  0  0
  -22.8698  -25.1617   21.6072 C   0  0  0  0  0  0  0  0  0  0  0  0
  -20.7593  -26.3326   21.7151 C   0  0  0  0  0  0  0  0  0  0  0  0
  -22.7169  -24.7638   22.9353 C   0  0  0  0  0  0  0  0  0  0  0  0
  -28.2184  -22.1661   20.8088 C   0  0  0  0  0  0  0  0  0  0  0  0
  -24.6965  -20.3552   23.6909 C   0  0  0  0  0  0  0  0  0  0  0  0
  -29.2650  -20.0624   20.7695 C   0  0  0  0  0  0  0  0  0  0  0  0
  -31.6076  -18.5507   20.8671 C   0  0  0  0  0  0  0  0  0  0  0  0
  -30.2562  -20.2492   19.8060 C   0  0  0  0  0  0  0  0  0  0  0  0
  -20.6064  -25.9347   23.0432 C   0  0  0  0  0  0  0  0  0  0  0  0
  -28.5789  -26.3729   21.0742 C   0  0  0  0  0  0  0  0  0  0  0  0
  -29.2070  -28.4647   20.8196 C   0  0  0  0  0  0  0  0  0  0  0  0
  -30.5287  -26.8345   19.4617 C   0  0  0  0  0  0  0  0  0  0  0  0
  -24.9465  -15.9462   20.5345 C   0  0  0  0  0  0  0  0  0  0  0  0
  -21.7509  -15.5869   20.9601 C   0  0  0  0  0  0  0  0  0  0  0  0
  -18.8639  -16.7578   22.3533 C   0  0  0  0  0  0  0  0  0  0  0  0
  -24.2327  -30.9945   22.9894 C   0  0  0  0  0  0  0  0  0  0  0  0
  -27.2614  -12.3681   17.7245 C   0  0  0  0  0  0  0  0  0  0  0  0
  -24.7525  -16.1004   23.0434 C   0  0  0  0  0  0  0  0  0  0  0  0
  -22.7447  -17.7909   21.6813 C   0  0  0  0  0  0  0  0  0  0  0  0
  -25.8842  -13.0265   17.7349 C   0  0  0  0  0  0  0  0  0  0  0  0
  -27.4206  -30.8419   24.5677 C   0  0  0  0  0  0  0  0  0  0  0  0
  -26.0187  -14.5445   17.8018 C   0  0  0  0  0  0  0  0  0  0  0  0
  -28.1620  -29.7532   23.7900 C   0  0  0  0  0  0  0  0  0  0  0  0
  -25.9370  -30.5144   24.7218 C   0  0  0  0  0  0  0  0  0  0  0  0
  -25.9746  -29.1323   22.6817 C   0  0  0  0  0  0  0  0  0  0  0  0
  -26.7271  -14.9793   19.0904 C   0  0  1  0  0  0  0  0  0  0  0  0
  -24.0913  -15.6683   21.7382 C   0  0  1  0  0  0  0  0  0  0  0  0
  -27.4631  -29.4450   22.4521 C   0  0  2  0  0  0  0  0  0  0  0  0
  -24.0744  -24.7612   20.8204 C   0  0  0  0  0  0  0  0  0  0  0  0
  -16.4056  -16.2730   22.4921 C   0  0  0  0  0  0  0  0  0  0  0  0
  -21.3784  -16.6801   18.1359 C   0  0  0  0  0  0  0  0  0  0  0  0
  -18.9644  -17.0637   18.6778 C   0  0  0  0  0  0  0  0  0  0  0  0
  -19.8959  -14.7499   18.7114 C   0  0  0  0  0  0  0  0  0  0  0  0
  -18.9803  -16.4095   25.2900 C   0  0  0  0  0  0  0  0  0  0  0  0
  -19.7338  -27.1730   21.0252 C   0  0  0  0  0  0  0  0  0  0  0  0
  -23.7642  -23.9173   23.6173 C   0  0  0  0  0  0  0  0  0  0  0  0
  -19.8211  -28.6484   21.4398 C   0  0  0  0  0  0  0  0  0  0  0  0
  -21.1741  -29.2602   21.0706 C   0  0  0  0  0  0  0  0  0  0  0  0
  -21.2654  -30.7203   21.5235 C   0  0  0  0  0  0  0  0  0  0  0  0
  -22.5987  -31.3647   21.1585 C   0  0  0  0  0  0  0  0  0  0  0  0
  -23.6802  -22.4506   23.2090 C   0  0  0  0  0  0  0  0  0  1  0  0
  -20.5238  -16.3656   20.5518 C   0  0  1  0  0  0  0  0  0  0  0  0
  -17.7668  -16.0582   23.1353 C   0  0  2  0  0  0  0  0  0  0  0  0
  -20.2111  -16.2266   19.0351 C   0  0  0  0  0  0  0  0  0  0  0  0
  -27.7619  -27.0669   21.8710 N   0  0  0  0  0  0  0  0  0  0  0  0
  -28.1687  -28.3355   21.6945 N   0  0  0  0  0  0  0  0  0  0  0  0
  -22.8051  -16.3299   21.5101 N   0  0  0  0  0  0  0  0  0  0  0  0
  -25.3335  -30.2338   23.4169 N   0  0  0  0  0  0  0  0  0  0  0  0
  -29.7387  -29.6705   20.5267 N   0  0  0  0  0  0  0  0  0  0  0  0
  -30.6938  -25.4815   19.1354 N   0  0  0  0  0  0  0  0  0  0  0  0
  -25.8154  -14.9209   20.2128 N   0  0  0  0  0  0  0  0  0  0  0  0
  -19.4462  -15.9181   21.4276 N   0  0  0  0  0  0  0  0  0  0  0  0
  -23.7254  -30.6677   21.7378 N   0  0  0  0  0  0  0  0  0  0  0  0
  -17.7142  -16.5772   24.5313 N   0  3  0  0  0  0  0  0  0  0  0  0
  -31.2899  -27.6877   18.9459 O   0  0  0  0  0  0  0  0  0  0  0  0
  -24.8260  -17.0113   19.9407 O   0  0  0  0  0  0  0  0  0  0  0  0
  -21.7706  -14.3635   20.8036 O   0  0  0  0  0  0  0  0  0  0  0  0
  -19.1709  -17.9328   22.5421 O   0  0  0  0  0  0  0  0  0  0  0  0
  -23.7420  -31.9015   23.6702 O   0  0  0  0  0  0  0  0  0  0  0  0
  -28.1020  -20.8127   20.7229 O   0  0  0  0  0  0  0  0  0  0  0  0
  -24.6770  -21.6995   23.9009 O   0  0  0  0  0  0  0  0  0  1  0  0
  -32.7329  -17.8258   20.9150 F   0  0  0  0  0  0  0  0  0  0  0  0
  -30.0894  -21.1540   18.8317 F   0  0  0  0  0  0  0  0  0  0  0  0
  -19.2199  -26.3938   23.9632 Cl  0  0  0  0  0  0  0  0  0  0  0  0
  1  2  1  0  0  0  0
  1  5  2  0  0  0  0
  2  6  2  0  0  0  0
  3  8  2  0  0  0  0
  3 17  1  0  0  0  0
  4  9  1  0  0  0  0
  4 17  2  0  0  0  0
  5 19  1  0  0  0  0
  6 21  1  0  0  0  0
  7 10  2  0  0  0  0
  7 20  1  0  0  0  0
  8 26  1  0  0  0  0
  9 26  2  0  0  0  0
 10 27  1  0  0  0  0
 11 12  2  0  0  0  0
 11 28  1  0  0  0  0
 12 29  1  0  0  0  0
 13 22  1  0  0  0  0
 13 27  2  0  0  0  0
 14 23  1  0  0  0  0
 14 24  2  0  0  0  0
 15 25  1  0  0  0  0
 15 31  2  0  0  0  0
 16 29  2  0  0  0  0
 16 30  1  0  0  0  0
 17 32  1  0  0  0  0
 18 32  1  0  0  0  0
 18 33  2  0  0  0  0
 18 34  1  0  0  0  0
 19 21  2  0  0  0  0
 19 39  1  0  0  0  0
 20 22  2  0  0  0  0
 20 40  1  0  0  0  0
 21 48  1  0  0  0  0
 22 41  1  0  0  0  0
 23 25  2  0  0  0  0
 23 51  1  0  0  0  0
 24 31  1  0  0  0  0
 24 57  1  0  0  0  0
 25 58  1  0  0  0  0
 26 82  1  0  0  0  0
 27 83  1  0  0  0  0
 28 30  2  0  0  0  0
 28 82  1  0  0  0  0
 29 84  1  0  0  0  0
 30 85  1  0  0  0  0
 31 86  1  0  0  0  0
 32 67  2  0  0  0  0
 33 68  1  0  0  0  0
 33 71  1  0  0  0  0
 34 72  1  0  0  0  0
 34 77  2  0  0  0  0
 35 49  1  0  0  0  0
 35 73  1  0  0  0  0
 35 78  2  0  0  0  0
 36 64  1  0  0  0  0
 36 69  1  0  0  0  0
 36 79  2  0  0  0  0
 37 65  1  0  0  0  0
 37 74  1  0  0  0  0
 37 80  2  0  0  0  0
 38 70  1  0  0  0  0
 38 75  1  0  0  0  0
 38 81  2  0  0  0  0
 39 42  1  0  0  0  0
 40 49  1  0  0  0  0
 41 69  1  0  0  0  0
 42 44  1  0  0  0  0
 43 45  1  0  0  0  0
 43 46  1  0  0  0  0
 44 48  1  0  0  0  0
 45 50  1  0  0  0  0
 46 70  1  0  0  0  0
 47 50  1  0  0  0  0
 47 70  1  0  0  0  0
 48 73  1  0  0  0  0
 49 69  1  0  0  0  0
 50 68  1  0  0  0  0
 52 65  1  0  0  0  0
 53 66  1  0  0  0  0
 54 66  1  0  0  0  0
 55 66  1  0  0  0  0
 56 76  1  0  0  0  0
 57 59  1  0  0  0  0
 58 63  1  0  0  0  0
 59 60  1  0  0  0  0
 60 61  1  0  0  0  0
 61 62  1  0  0  0  0
 62 75  1  0  0  0  0
 63 83  1  0  0  0  0
 64 66  1  0  0  0  0
 64 74  1  0  0  0  0
 65 76  1  0  0  0  0
 67 68  1  0  0  0  0
M  CHG  1  76   1
M  ISO  4  38 100  63 101  75 100  83 101
M  END
> <Batch ID>
0032

> <Smiles>
CNC(C)C(=O)NC(C(=O)N1Cc2cc([101O:1][101CH2:1]Cc3cc(Cl)c(CCCCC[100NH:0][100C:0](=O)N4CCCC(n5nc(-c6ccc(Oc7ccc(F)cc7F)cc6)c(C(N)=O)c5N)C4)cc3C)ccc2CC1C(=O)NC1CCCc2ccccc21)C(C)(C)C

> <Shape>
0.233

> <Color>
0.059

> <Negative vol penalty>
0.000

$$$$

  -OEChem-04052316453D

 98107  0     1  0  0  0  0  0999 V2000
  -28.0652  -37.3825   18.8300 C   0  0  0  0  0  0  0  0  0  0  0  0
  -28.4645  -36.0547   18.7159 C   0  0  0  0  0  0  0  0  0  0  0  0
  -25.1538  -13.1838   23.2891 C   0  0  0  0  0  0  0  0  0  0  0  0
  -26.2428  -14.0942   21.3340 C   0  0  0  0  0  0  0  0  0  0  0  0
  -27.2380  -37.7725   19.8824 C   0  0  0  0  0  0  0  0  0  0  0  0
  -28.0375  -35.1163   19.6549 C   0  0  0  0  0  0  0  0  0  0  0  0
  -26.7248  -29.2221   18.6349 C   0  0  0  0  0  0  0  0  0  0  0  0
  -24.3270  -12.4146   22.4703 C   0  0  0  0  0  0  0  0  0  0  0  0
  -25.4161  -13.3250   20.5153 C   0  0  0  0  0  0  0  0  0  0  0  0
  -27.4597  -28.0518   18.8198 C   0  0  0  0  0  0  0  0  0  0  0  0
  -24.5490   -9.5411   20.7022 C   0  0  0  0  0  0  0  0  0  0  0  0
  -24.3557   -8.2040   21.0492 C   0  0  0  0  0  0  0  0  0  0  0  0
  -26.3967  -27.7298   20.9612 C   0  0  0  0  0  0  0  0  0  0  0  0
  -29.9488  -22.4551   18.7179 C   0  0  0  0  0  0  0  0  0  0  0  0
  -21.9809   -8.5997   21.2510 C   0  0  0  0  0  0  0  0  0  0  0  0
  -31.6197  -15.3210   16.3267 C   0  0  0  0  0  0  0  0  0  0  0  0
  -26.1117  -14.0237   22.7209 C   0  0  0  0  0  0  0  0  0  0  0  0
  -28.2186  -14.4532   24.0935 C   0  0  0  0  0  0  0  0  0  0  0  0
  -26.7929  -36.8366   20.8292 C   0  0  0  0  0  0  0  0  0  0  0  0
  -25.8268  -29.6615   19.6183 C   0  0  0  0  0  0  0  0  0  0  0  0
  -27.2047  -35.4945   20.7217 C   0  0  0  0  0  0  0  0  0  0  0  0
  -25.6497  -28.9046   20.7852 C   0  0  0  0  0  0  0  0  0  0  0  0
  -30.0708  -23.6310   19.4498 C   0  0  0  0  0  0  0  0  0  0  0  0
  -29.4988  -23.7189   20.7141 C   0  0  0  0  0  0  0  0  0  0  0  0
  -24.4581  -12.4852   21.0834 C   0  0  0  0  0  0  0  0  0  0  0  0
  -27.2979  -27.3070   19.9843 C   0  0  0  0  0  0  0  0  0  0  0  0
  -23.4582  -10.4075   20.6296 C   0  0  0  0  0  0  0  0  0  0  0  0
  -23.0716   -7.7333   21.3236 C   0  0  0  0  0  0  0  0  0  0  0  0
  -22.1742   -9.9368   20.9041 C   0  0  0  0  0  0  0  0  0  0  0  0
  -26.9657  -14.8189   23.5661 C   0  0  0  0  0  0  0  0  0  0  0  0
  -29.2505  -21.4043   19.2906 C   0  0  0  0  0  0  0  0  0  0  0  0
  -31.0891  -15.5837   17.5723 C   0  0  0  0  0  0  0  0  0  0  0  0
  -28.8205  -22.6115   21.1973 C   0  0  0  0  0  0  0  0  0  0  0  0
  -28.6164  -15.5467   24.8233 C   0  0  0  0  0  0  0  0  0  0  0  0
  -30.3480  -13.5346   17.3237 C   0  0  0  0  0  0  0  0  0  0  0  0
  -28.9569  -13.2341   23.9376 C   0  0  0  0  0  0  0  0  0  0  0  0
  -25.5966  -32.2486   21.4506 C   0  0  0  0  0  0  0  0  0  0  0  0
  -27.1662  -21.3662   24.4459 C   0  0  0  0  0  0  0  0  0  0  0  0
  -22.7733  -30.9066   22.3171 C   0  0  0  0  0  0  0  0  0  0  0  0
  -20.8796  -28.0838   22.6210 C   0  0  0  0  0  0  0  0  0  0  0  0
  -25.9382  -37.3147   21.9762 C   0  0  0  0  0  0  0  0  0  0  0  0
  -25.0219  -30.9118   19.3918 C   0  0  0  0  0  0  0  0  0  0  0  0
  -24.6835  -29.3224   21.8624 C   0  0  0  0  0  0  0  0  0  0  0  0
  -25.2253  -36.1859   22.7164 C   0  0  0  0  0  0  0  0  0  0  0  0
  -26.8738  -19.2337   27.3107 C   0  0  0  0  0  0  0  0  0  0  0  0
  -26.1929  -35.0428   23.0060 C   0  0  0  0  0  0  0  0  0  0  0  0
  -26.9494  -17.8264   26.7199 C   0  0  0  0  0  0  0  0  0  0  0  0
  -26.1508  -20.1950   26.3725 C   0  0  0  0  0  0  0  0  0  0  0  0
  -26.8089  -18.8478   24.4043 C   0  0  0  0  0  0  0  0  0  0  0  0
  -26.7424  -34.4424   21.7063 C   0  0  1  0  0  0  0  0  0  0  0  0
  -24.5147  -31.5387   20.6869 C   0  0  1  0  0  0  0  0  0  0  0  0
  -27.5587  -17.8521   25.3069 C   0  0  2  0  0  0  0  0  0  0  0  0
  -18.6261  -27.2975   23.3960 C   0  0  0  0  0  0  0  0  0  0  0  0
  -28.4894  -10.1497   19.5541 C   0  0  0  0  0  0  0  0  0  0  0  0
  -30.7670   -9.1622   19.8347 C   0  0  0  0  0  0  0  0  0  0  0  0
  -29.6582   -9.1495   17.5857 C   0  0  0  0  0  0  0  0  0  0  0  0
  -23.6824  -31.1686   25.2180 C   0  0  0  0  0  0  0  0  0  0  0  0
  -21.8824  -29.5492   25.8552 C   0  0  0  0  0  0  0  0  0  0  0  0
  -21.2796  -31.7383   24.8222 C   0  0  0  0  0  0  0  0  0  0  0  0
  -20.1743  -27.0811   19.9273 C   0  0  0  0  0  0  0  0  0  0  0  0
  -29.6170  -24.9815   21.5328 C   0  0  0  0  0  0  0  0  0  0  0  0
  -29.1007  -20.1264   18.5345 C   0  0  0  0  0  0  0  0  0  0  0  0
  -31.2401  -16.8728   18.3398 C   0  0  0  0  0  0  0  0  0  0  0  0
  -28.1863  -22.6451   22.5495 C   0  0  0  0  0  0  0  0  0  0  0  0
  -29.6634  -12.2520   17.5957 C   0  0  0  0  0  0  0  0  0  0  0  0
  -27.7718  -21.2636   23.0687 C   0  0  0  0  0  0  0  0  0  0  0  0
  -30.2501  -19.1473   18.8221 C   0  0  0  0  0  0  0  0  0  0  0  0
  -30.1118  -17.8555   18.0143 C   0  0  0  0  0  0  0  0  0  0  0  0
  -30.4546  -11.3586   18.5784 C   0  0  0  0  0  0  0  0  0  0  0  0
  -28.3361  -25.8084   21.5114 C   0  0  0  0  0  0  0  0  0  1  0  0
  -30.8156  -24.7810   18.8568 C   0  0  0  0  0  0  0  0  0  0  0  0
  -22.3337  -29.9406   23.3906 C   0  0  1  0  0  0  0  0  0  0  0  0
  -19.4491  -27.7817   22.2124 C   0  0  2  0  0  0  0  0  0  0  0  0
  -29.8615   -9.9560   18.8787 C   0  0  0  0  0  0  0  0  0  0  0  0
  -22.3142  -30.5921   24.8023 C   0  0  0  0  0  0  0  0  0  0  0  0
  -26.5921  -16.0486   23.9300 N   0  0  0  0  0  0  0  0  0  0  0  0
  -28.6812  -21.4523   20.5158 N   0  0  0  0  0  0  0  0  0  0  0  0
  -30.3592  -14.5606   18.1454 N   0  0  0  0  0  0  0  0  0  0  0  0
  -27.6163  -16.4650   24.6940 N   0  0  0  0  0  0  0  0  0  0  0  0
  -23.9242  -30.5555   21.5973 N   0  0  0  0  0  0  0  0  0  0  0  0
  -26.7453  -20.1737   25.0348 N   0  0  0  0  0  0  0  0  0  0  0  0
  -29.7205  -15.8026   25.5566 N   0  0  0  0  0  0  0  0  0  0  0  0
  -28.4025  -12.2128   23.1541 N   0  0  0  0  0  0  0  0  0  0  0  0
  -25.7589  -33.5741   21.0953 N   0  0  0  0  0  0  0  0  0  0  0  0
  -21.0448  -29.4102   22.9595 N   0  0  0  0  0  0  0  0  0  0  0  0
  -19.4228  -26.7278   21.1591 N   0  3  0  0  0  0  0  0  0  0  0  0
  -30.0676  -13.0494   24.4905 O   0  0  0  0  0  0  0  0  0  0  0  0
  -26.2356  -31.6394   22.3004 O   0  0  0  0  0  0  0  0  0  0  0  0
  -27.0737  -22.4736   24.9819 O   0  0  0  0  0  0  0  0  0  0  0  0
  -22.1157  -31.9314   22.1195 O   0  0  0  0  0  0  0  0  0  0  0  0
  -21.7614  -27.2279   22.6415 O   0  0  0  0  0  0  0  0  0  0  0  0
  -23.6517  -11.7345   20.2842 O   0  0  0  0  0  0  0  0  0  0  0  0
  -28.0144  -26.1647   20.1676 O   0  0  0  0  0  0  0  0  0  1  0  0
  -22.8860   -6.4489   21.6553 F   0  0  0  0  0  0  0  0  0  0  0  0
  -21.1223  -10.7642   20.8348 F   0  0  0  0  0  0  0  0  0  0  0  0
  -31.3002  -24.4599   17.6291 F   0  0  0  0  0  0  0  0  0  0  0  0
  -31.8892  -25.1058   19.6230 F   0  0  0  0  0  0  0  0  0  0  0  0
  -31.1955  -13.7308   15.8444 S   0  0  0  0  0  0  0  0  0  0  0  0
  1  2  1  0  0  0  0
  1  5  2  0  0  0  0
  2  6  2  0  0  0  0
  3  8  2  0  0  0  0
  3 17  1  0  0  0  0
  4  9  1  0  0  0  0
  4 17  2  0  0  0  0
  5 19  1  0  0  0  0
  6 21  1  0  0  0  0
  7 10  2  0  0  0  0
  7 20  1  0  0  0  0
  8 25  1  0  0  0  0
  9 25  2  0  0  0  0
 10 26  1  0  0  0  0
 11 12  2  0  0  0  0
 11 27  1  0  0  0  0
 12 28  1  0  0  0  0
 13 22  1  0  0  0  0
 13 26  2  0  0  0  0
 14 23  2  0  0  0  0
 14 31  1  0  0  0  0
 15 28  2  0  0  0  0
 15 29  1  0  0  0  0
 16 32  2  0  0  0  0
 16 98  1  0  0  0  0
 17 30  1  0  0  0  0
 18 30  1  0  0  0  0
 18 34  2  0  0  0  0
 18 36  1  0  0  0  0
 19 21  2  0  0  0  0
 19 41  1  0  0  0  0
 20 22  2  0  0  0  0
 20 42  1  0  0  0  0
 21 50  1  0  0  0  0
 22 43  1  0  0  0  0
 23 24  1  0  0  0  0
 23 71  1  0  0  0  0
 24 33  2  0  0  0  0
 24 61  1  0  0  0  0
 25 92  1  0  0  0  0
 26 93  1  0  0  0  0
 27 29  2  0  0  0  0
 27 92  1  0  0  0  0
 28 94  1  0  0  0  0
 29 95  1  0  0  0  0
 30 76  2  0  0  0  0
 31 62  1  0  0  0  0
 31 77  2  0  0  0  0
 32 63  1  0  0  0  0
 32 78  1  0  0  0  0
 33 64  1  0  0  0  0
 33 77  1  0  0  0  0
 34 79  1  0  0  0  0
 34 82  1  0  0  0  0
 35 65  1  0  0  0  0
 35 78  2  0  0  0  0
 35 98  1  0  0  0  0
 36 83  1  0  0  0  0
 36 87  2  0  0  0  0
 37 51  1  0  0  0  0
 37 84  1  0  0  0  0
 37 88  2  0  0  0  0
 38 66  1  0  0  0  0
 38 81  1  0  0  0  0
 38 89  2  0  0  0  0
 39 72  1  0  0  0  0
 39 80  1  0  0  0  0
 39 90  2  0  0  0  0
 40 73  1  0  0  0  0
 40 85  1  0  0  0  0
 40 91  2  0  0  0  0
 41 44  1  0  0  0  0
 42 51  1  0  0  0  0
 43 80  1  0  0  0  0
 44 46  1  0  0  0  0
 45 47  1  0  0  0  0
 45 48  1  0  0  0  0
 46 50  1  0  0  0  0
 47 52  1  0  0  0  0
 48 81  1  0  0  0  0
 49 52  1  0  0  0  0
 49 81  1  0  0  0  0
 50 84  1  0  0  0  0
 51 80  1  0  0  0  0
 52 79  1  0  0  0  0
 53 73  1  0  0  0  0
 54 74  1  0  0  0  0
 55 74  1  0  0  0  0
 56 74  1  0  0  0  0
 57 75  1  0  0  0  0
 58 75  1  0  0  0  0
 59 75  1  0  0  0  0
 60 86  1  0  0  0  0
 61 70  1  0  0  0  0
 62 67  1  0  0  0  0
 63 68  1  0  0  0  0
 64 66  1  0  0  0  0
 65 69  1  0  0  0  0
 67 68  1  0  0  0  0
 69 74  1  0  0  0  0
 70 93  1  0  0  0  0
 71 96  1  0  0  0  0
 71 97  1  0  0  0  0
 72 75  1  0  0  0  0
 72 85  1  0  0  0  0
 73 86  1  0  0  0  0
 76 79  1  0  0  0  0
M  CHG  1  86   1
M  ISO  4  38 100  66 100  70 101  93 101
M  END
> <Batch ID>
0032

> <Smiles>
CNC(C)C(=O)NC(C(=O)N1Cc2cc([101O:1][101CH2:1]Cc3c(C(F)F)cc(CCCCc4csc(CCC(C)(C)C)n4)nc3C[100CH2:0][100C:0](=O)N3CCCC(n4nc(-c5ccc(Oc6ccc(F)cc6F)cc5)c(C(N)=O)c4N)C3)ccc2CC1C(=O)NC1CCCc2ccccc21)C(C)(C)C

> <Shape>
0.273

> <Color>
0.074

> <Negative vol penalty>
0.000

$$$$

  -OEChem-04052316453D

 82 90  0     1  0  0  0  0  0999 V2000
  -19.6493   -9.1459   21.7290 C   0  0  0  0  0  0  0  0  0  0  0  0
  -20.1336  -10.3949   22.1043 C   0  0  0  0  0  0  0  0  0  0  0  0
  -27.4563  -29.7952   19.3711 C   0  0  0  0  0  0  0  0  0  0  0  0
  -26.3798  -28.9355   21.3559 C   0  0  0  0  0  0  0  0  0  0  0  0
  -20.5236   -8.1822   21.2280 C   0  0  0  0  0  0  0  0  0  0  0  0
  -21.4928  -10.6806   21.9800 C   0  0  0  0  0  0  0  0  0  0  0  0
  -22.3414  -15.2464   19.9605 C   0  0  0  0  0  0  0  0  0  0  0  0
  -26.4003  -30.6872   19.1848 C   0  0  0  0  0  0  0  0  0  0  0  0
  -25.3238  -29.8276   21.1695 C   0  0  0  0  0  0  0  0  0  0  0  0
  -22.1933  -16.3507   20.7984 C   0  0  0  0  0  0  0  0  0  0  0  0
  -22.5659  -30.0525   19.2268 C   0  0  0  0  0  0  0  0  0  0  0  0
  -21.2688  -29.5607   19.3719 C   0  0  0  0  0  0  0  0  0  0  0  0
  -24.5862  -16.4433   21.0893 C   0  0  0  0  0  0  0  0  0  0  0  0
  -20.8713  -31.1363   21.1598 C   0  0  0  0  0  0  0  0  0  0  0  0
  -27.6958  -20.7784   24.7122 C   0  0  0  0  0  0  0  0  0  0  0  0
  -27.4460  -28.9193   20.4567 C   0  0  0  0  0  0  0  0  0  0  0  0
  -29.7161  -28.2176   21.3851 C   0  0  0  0  0  0  0  0  0  0  0  0
  -21.8926   -8.4596   21.0884 C   0  0  0  0  0  0  0  0  0  0  0  0
  -23.6143  -14.7246   19.6889 C   0  0  0  0  0  0  0  0  0  0  0  0
  -22.3864   -9.7193   21.4779 C   0  0  0  0  0  0  0  0  0  0  0  0
  -24.7479  -15.3338   20.2455 C   0  0  0  0  0  0  0  0  0  0  0  0
  -27.0998  -20.7974   23.4705 C   0  0  0  0  0  0  0  0  0  0  0  0
  -25.7724  -21.2606   23.6455 C   0  0  0  0  0  0  0  0  0  0  0  0
  -25.3341  -30.7035   20.0839 C   0  0  0  0  0  0  0  0  0  0  0  0
  -23.3155  -16.9476   21.3653 C   0  0  0  0  0  0  0  0  0  0  0  0
  -23.0158  -31.0862   20.0483 C   0  0  0  0  0  0  0  0  0  0  0  0
  -20.4214  -30.1025   20.3383 C   0  0  0  0  0  0  0  0  0  0  0  0
  -22.1685  -31.6281   21.0148 C   0  0  0  0  0  0  0  0  0  0  0  0
  -28.5363  -27.9972   20.6495 C   0  0  0  0  0  0  0  0  0  0  0  0
  -25.5977  -21.5107   24.9887 C   0  0  0  0  0  0  0  0  0  0  0  0
  -30.4219  -27.0458   21.2614 C   0  0  0  0  0  0  0  0  0  0  0  0
  -30.1365  -29.3778   22.1151 C   0  0  0  0  0  0  0  0  0  0  0  0
  -25.0532  -11.9377   20.2053 C   0  0  0  0  0  0  0  0  0  0  0  0
  -27.4253  -13.2793   18.4458 C   0  0  0  0  0  0  0  0  0  0  0  0
  -28.9454  -16.1196   17.3195 C   0  0  0  0  0  0  0  0  0  0  0  0
  -28.7788  -21.3918   20.1734 C   0  0  0  0  0  0  0  0  0  0  0  0
  -22.8065   -7.3699   20.5863 C   0  0  0  0  0  0  0  0  0  0  0  0
  -23.7591  -13.5492   18.7615 C   0  0  0  0  0  0  0  0  0  0  0  0
  -26.1382  -14.8245   19.9693 C   0  0  0  0  0  0  0  0  0  0  0  0
  -24.1725   -7.8805   20.1350 C   0  0  0  0  0  0  0  0  0  0  0  0
  -31.0648  -23.3588   18.2808 C   0  0  0  0  0  0  0  0  0  0  0  0
  -24.7495   -8.8448   21.1665 C   0  0  0  0  0  0  0  0  0  0  0  0
  -30.7825  -24.7905   18.7396 C   0  0  0  0  0  0  0  0  0  0  0  0
  -29.7872  -22.5250   18.2149 C   0  0  0  0  0  0  0  0  0  0  0  0
  -28.7075  -23.9461   19.9144 C   0  0  0  0  0  0  0  0  0  0  0  0
  -23.8502  -10.0755   21.3348 C   0  0  1  0  0  0  0  0  0  0  0  0
  -25.0639  -12.7851   18.9646 C   0  0  1  0  0  0  0  0  0  0  0  0
  -29.9730  -24.8100   20.0502 C   0  0  2  0  0  0  0  0  0  0  0  0
  -24.4130  -22.0070   25.7204 C   0  0  0  0  0  0  0  0  0  0  0  0
  -30.8847  -16.8975   15.9298 C   0  0  0  0  0  0  0  0  0  0  0  0
  -29.3299  -12.6113   20.7341 C   0  0  0  0  0  0  0  0  0  0  0  0
  -30.9768  -14.2126   19.7383 C   0  0  0  0  0  0  0  0  0  0  0  0
  -30.2600  -12.2009   18.4492 C   0  0  0  0  0  0  0  0  0  0  0  0
  -27.0214  -21.3358   27.0472 C   0  0  0  0  0  0  0  0  0  0  0  0
  -27.1646  -17.4864   15.3908 C   0  0  0  0  0  0  0  0  0  0  0  0
  -24.7394  -21.4463   22.5629 C   0  0  0  0  0  0  0  0  0  0  0  0
  -27.7373  -20.4043   22.1980 C   0  0  0  0  0  0  0  0  0  0  0  0
  -23.6770  -20.3455   22.5299 C   0  0  0  0  0  0  0  0  0  0  0  0
  -24.2448  -18.9680   22.2083 C   0  0  0  0  0  0  0  0  0  1  0  0
  -28.6413  -14.1189   18.7545 C   0  0  1  0  0  0  0  0  0  0  0  0
  -29.4083  -16.5327   15.9340 C   0  0  2  0  0  0  0  0  0  0  0  0
  -29.7758  -13.2946   19.4260 C   0  0  0  0  0  0  0  0  0  0  0  0
  -28.4915  -26.7810   20.0990 N   0  0  0  0  0  0  0  0  0  0  0  0
  -26.7735  -21.2143   25.6273 N   0  0  0  0  0  0  0  0  0  0  0  0
  -29.6520  -26.2268   20.4889 N   0  0  0  0  0  0  0  0  0  0  0  0
  -26.2273  -13.6691   19.0612 N   0  0  0  0  0  0  0  0  0  0  0  0
  -29.0674  -22.5843   19.4894 N   0  0  0  0  0  0  0  0  0  0  0  0
  -31.6197  -26.6465   21.7389 N   0  0  0  0  0  0  0  0  0  0  0  0
  -29.2905  -30.4949   22.1391 N   0  0  0  0  0  0  0  0  0  0  0  0
  -24.0423  -10.9961   20.2348 N   0  0  0  0  0  0  0  0  0  0  0  0
  -29.0274  -14.7550   17.4996 N   0  0  0  0  0  0  0  0  0  0  0  0
  -28.0995  -21.5379   21.3767 N   0  0  0  0  0  0  0  0  0  0  0  0
  -28.6314  -17.7122   15.4586 N   0  3  0  0  0  0  0  0  0  0  0  0
  -31.2374  -29.4284   22.7142 O   0  0  0  0  0  0  0  0  0  0  0  0
  -25.9003  -12.1234   21.0711 O   0  0  0  0  0  0  0  0  0  0  0  0
  -27.5328  -12.3174   17.6811 O   0  0  0  0  0  0  0  0  0  0  0  0
  -28.5540  -16.9270   18.1593 O   0  0  0  0  0  0  0  0  0  0  0  0
  -29.1072  -20.2798   19.7461 O   0  0  0  0  0  0  0  0  0  0  0  0
  -24.3036  -31.5740   19.9025 O   0  0  0  0  0  0  0  0  0  0  0  0
  -23.1738  -18.0253   22.1841 O   0  0  0  0  0  0  0  0  0  1  0  0
  -19.1753  -29.6311   20.4765 F   0  0  0  0  0  0  0  0  0  0  0  0
  -22.5947  -32.6221   21.8061 F   0  0  0  0  0  0  0  0  0  0  0  0
  1  2  1  0  0  0  0
  1  5  2  0  0  0  0
  2  6  2  0  0  0  0
  3  8  2  0  0  0  0
  3 16  1  0  0  0  0
  4  9  1  0  0  0  0
  4 16  2  0  0  0  0
  5 18  1  0  0  0  0
  6 20  1  0  0  0  0
  7 10  2  0  0  0  0
  7 19  1  0  0  0  0
  8 24  1  0  0  0  0
  9 24  2  0  0  0  0
 10 25  1  0  0  0  0
 11 12  2  0  0  0  0
 11 26  1  0  0  0  0
 12 27  1  0  0  0  0
 13 21  1  0  0  0  0
 13 25  2  0  0  0  0
 14 27  2  0  0  0  0
 14 28  1  0  0  0  0
 15 22  2  0  0  0  0
 15 64  1  0  0  0  0
 16 29  1  0  0  0  0
 17 29  1  0  0  0  0
 17 31  2  0  0  0  0
 17 32  1  0  0  0  0
 18 20  2  0  0  0  0
 18 37  1  0  0  0  0
 19 21  2  0  0  0  0
 19 38  1  0  0  0  0
 20 46  1  0  0  0  0
 21 39  1  0  0  0  0
 22 23  1  0  0  0  0
 22 57  1  0  0  0  0
 23 30  2  0  0  0  0
 23 56  1  0  0  0  0
 24 79  1  0  0  0  0
 25 80  1  0  0  0  0
 26 28  2  0  0  0  0
 26 79  1  0  0  0  0
 27 81  1  0  0  0  0
 28 82  1  0  0  0  0
 29 63  2  0  0  0  0
 30 49  1  0  0  0  0
 30 64  1  0  0  0  0
 31 65  1  0  0  0  0
 31 68  1  0  0  0  0
 32 69  1  0  0  0  0
 32 74  2  0  0  0  0
 33 47  1  0  0  0  0
 33 70  1  0  0  0  0
 33 75  2  0  0  0  0
 34 60  1  0  0  0  0
 34 66  1  0  0  0  0
 34 76  2  0  0  0  0
 35 61  1  0  0  0  0
 35 71  1  0  0  0  0
 35 77  2  0  0  0  0
 36 67  1  0  0  0  0
 36 72  1  0  0  0  0
 36 78  2  0  0  0  0
 37 40  1  0  0  0  0
 38 47  1  0  0  0  0
 39 66  1  0  0  0  0
 40 42  1  0  0  0  0
 41 43  1  0  0  0  0
 41 44  1  0  0  0  0
 42 46  1  0  0  0  0
 43 48  1  0  0  0  0
 44 67  1  0  0  0  0
 45 48  1  0  0  0  0
 45 67  1  0  0  0  0
 46 70  1  0  0  0  0
 47 66  1  0  0  0  0
 48 65  1  0  0  0  0
 50 61  1  0  0  0  0
 51 62  1  0  0  0  0
 52 62  1  0  0  0  0
 53 62  1  0  0  0  0
 54 64  1  0  0  0  0
 55 73  1  0  0  0  0
 56 58  1  0  0  0  0
 57 72  1  0  0  0  0
 58 59  1  0  0  0  0
 59 80  1  0  0  0  0
 60 62  1  0  0  0  0
 60 71  1  0  0  0  0
 61 73  1  0  0  0  0
 63 65  1  0  0  0  0
M  CHG  1  73   1
M  ISO  4  36 100  59 101  72 100  80 101
M  END
> <Batch ID>
0032

> <Smiles>
CNC(C)C(=O)NC(C(=O)N1Cc2cc([101O:1][101CH2:1]CCc3c(C[100NH:0][100C:0](=O)N4CCCC(n5nc(-c6ccc(Oc7ccc(F)cc7F)cc6)c(C(N)=O)c5N)C4)cn(C)c3C)ccc2CC1C(=O)NC1CCCc2ccccc21)C(C)(C)C

> <Shape>
0.245

> <Color>
0.067

> <Negative vol penalty>
0.000

$$$$

  -OEChem-04052316453D

 84 92  0     1  0  0  0  0  0999 V2000
  -22.8390  -12.8428   23.9076 C   0  0  0  0  0  0  0  0  0  0  0  0
  -22.6602  -13.8952   24.7997 C   0  0  0  0  0  0  0  0  0  0  0  0
  -28.8659  -17.6469   19.7739 C   0  0  0  0  0  0  0  0  0  0  0  0
  -30.8350  -18.0392   21.1178 C   0  0  0  0  0  0  0  0  0  0  0  0
  -23.5404  -13.0484   22.7203 C   0  0  0  0  0  0  0  0  0  0  0  0
  -23.1838  -15.1536   24.5056 C   0  0  0  0  0  0  0  0  0  0  0  0
  -21.8255  -22.1243   25.4447 C   0  0  0  0  0  0  0  0  0  0  0  0
  -29.3494  -16.3834   19.4342 C   0  0  0  0  0  0  0  0  0  0  0  0
  -31.3185  -16.7756   20.7782 C   0  0  0  0  0  0  0  0  0  0  0  0
  -22.4353  -23.2867   25.9144 C   0  0  0  0  0  0  0  0  0  0  0  0
  -29.8959  -12.9123   18.5029 C   0  0  0  0  0  0  0  0  0  0  0  0
  -29.0032  -11.8416   18.5515 C   0  0  0  0  0  0  0  0  0  0  0  0
  -23.5612  -23.5445   23.7965 C   0  0  0  0  0  0  0  0  0  0  0  0
  -27.9618  -29.2607   22.7214 C   0  0  0  0  0  0  0  0  0  0  0  0
  -27.5371  -27.4236   24.2320 C   0  0  0  0  0  0  0  0  0  0  0  0
  -28.6419  -12.2499   20.9053 C   0  0  0  0  0  0  0  0  0  0  0  0
  -29.6087  -18.4748   20.6157 C   0  0  0  0  0  0  0  0  0  0  0  0
  -28.2945  -20.1119   22.0650 C   0  0  0  0  0  0  0  0  0  0  0  0
  -24.0646  -14.3124   22.4070 C   0  0  0  0  0  0  0  0  0  0  0  0
  -22.0878  -21.6565   24.1490 C   0  0  0  0  0  0  0  0  0  0  0  0
  -23.8941  -15.3760   23.3137 C   0  0  0  0  0  0  0  0  0  0  0  0
  -22.9514  -22.3773   23.3119 C   0  0  0  0  0  0  0  0  0  0  0  0
  -28.4070  -28.1241   23.3964 C   0  0  0  0  0  0  0  0  0  0  0  0
  -26.6466  -29.6968   22.8821 C   0  0  0  0  0  0  0  0  0  0  0  0
  -26.2219  -27.8597   24.3927 C   0  0  0  0  0  0  0  0  0  0  0  0
  -25.7767  -28.9963   23.7177 C   0  0  0  0  0  0  0  0  0  0  0  0
  -30.5757  -15.9478   19.9364 C   0  0  0  0  0  0  0  0  0  0  0  0
  -23.3056  -23.9954   25.0913 C   0  0  0  0  0  0  0  0  0  0  0  0
  -30.1617  -13.6517   19.6554 C   0  0  0  0  0  0  0  0  0  0  0  0
  -28.3762  -11.5105   19.7527 C   0  0  0  0  0  0  0  0  0  0  0  0
  -29.5347  -13.3205   20.8566 C   0  0  0  0  0  0  0  0  0  0  0  0
  -29.1100  -19.7804   20.9665 C   0  0  0  0  0  0  0  0  0  0  0  0
  -28.1019  -21.4672   21.9530 C   0  0  0  0  0  0  0  0  0  0  0  0
  -27.7589  -19.2700   23.0946 C   0  0  0  0  0  0  0  0  0  0  0  0
  -23.3722  -19.0144   22.9353 C   0  0  0  0  0  0  0  0  0  0  0  0
  -22.4629  -20.3348   20.1154 C   0  0  0  0  0  0  0  0  0  0  0  0
  -21.6785  -23.1508   18.3542 C   0  0  0  0  0  0  0  0  0  0  0  0
  -30.0723  -26.6000   20.9953 C   0  0  0  0  0  0  0  0  0  0  0  0
  -24.8564  -14.4746   21.1336 C   0  0  0  0  0  0  0  0  0  0  0  0
  -21.4013  -20.4155   23.6480 C   0  0  0  0  0  0  0  0  0  0  0  0
  -23.2506  -21.9284   21.9057 C   0  0  0  0  0  0  0  0  0  0  0  0
  -25.0566  -15.9310   20.7222 C   0  0  0  0  0  0  0  0  0  0  0  0
  -29.1686  -24.6420   18.1623 C   0  0  0  0  0  0  0  0  0  0  0  0
  -25.4950  -16.7685   21.9194 C   0  0  0  0  0  0  0  0  0  0  0  0
  -29.0118  -23.2297   18.7287 C   0  0  0  0  0  0  0  0  0  0  0  0
  -30.3076  -25.3992   18.8414 C   0  0  0  0  0  0  0  0  0  0  0  0
  -30.0719  -24.0343   20.8799 C   0  0  0  0  0  0  0  0  0  0  0  0
  -24.4258  -16.7618   23.0186 C   0  0  1  0  0  0  0  0  0  0  0  0
  -22.1397  -19.7499   22.4908 C   0  0  1  0  0  0  0  0  0  0  0  0
  -28.8995  -23.2510   20.2650 C   0  0  2  0  0  0  0  0  0  0  0  0
  -25.3404  -30.5743   20.9301 C   0  0  0  0  0  0  0  0  0  0  0  0
  -21.0128  -23.9174   16.0593 C   0  0  0  0  0  0  0  0  0  0  0  0
  -25.3408  -19.9813   19.1651 C   0  0  0  0  0  0  0  0  0  0  0  0
  -24.8500  -21.5839   17.3053 C   0  0  0  0  0  0  0  0  0  0  0  0
  -23.6020  -19.4291   17.4545 C   0  0  0  0  0  0  0  0  0  0  0  0
  -19.1071  -24.2379   19.3368 C   0  0  0  0  0  0  0  0  0  0  0  0
  -26.1943  -30.9162   22.1472 C   0  0  0  0  0  0  0  0  0  0  0  0
  -25.3007  -27.0839   25.3025 C   0  0  0  0  0  0  0  0  0  0  0  0
  -29.8133  -27.6582   23.2251 C   0  0  0  0  0  0  0  0  0  0  0  0
  -24.3665  -29.4639   23.8894 C   0  0  0  0  0  0  0  0  0  0  0  0
  -24.7830  -25.8063   24.6508 C   0  0  0  0  0  0  0  0  0  1  0  0
  -23.1029  -21.2680   19.1161 C   0  0  1  0  0  0  0  0  0  0  0  0
  -20.5199  -23.4684   17.4261 C   0  0  2  0  0  0  0  0  0  0  0  0
  -24.2200  -20.5732   18.2874 C   0  0  0  0  0  0  0  0  0  0  0  0
  -29.4145  -20.8397   20.2120 N   0  0  0  0  0  0  0  0  0  0  0  0
  -28.7869  -21.8501   20.8375 N   0  0  0  0  0  0  0  0  0  0  0  0
  -22.5598  -20.7056   21.4640 N   0  0  0  0  0  0  0  0  0  0  0  0
  -30.1406  -25.3833   20.2967 N   0  0  0  0  0  0  0  0  0  0  0  0
  -27.4152  -22.3568   22.7009 N   0  0  0  0  0  0  0  0  0  0  0  0
  -28.0549  -17.9006   23.0593 N   0  0  0  0  0  0  0  0  0  0  0  0
  -23.3422  -17.6576   22.6751 N   0  0  0  0  0  0  0  0  0  0  0  0
  -22.0147  -21.8142   18.3125 N   0  0  0  0  0  0  0  0  0  0  0  0
  -29.9071  -26.4953   22.3710 N   0  0  0  0  0  0  0  0  0  0  0  0
  -19.6775  -24.5544   18.0021 N   0  3  0  0  0  0  0  0  0  0  0  0
  -27.0257  -19.7162   24.0094 O   0  0  0  0  0  0  0  0  0  0  0  0
  -24.2837  -19.6323   23.4730 O   0  0  0  0  0  0  0  0  0  0  0  0
  -21.8916  -19.3180   19.7135 O   0  0  0  0  0  0  0  0  0  0  0  0
  -22.2324  -24.0038   19.0441 O   0  0  0  0  0  0  0  0  0  0  0  0
  -30.1473  -27.6983   20.4339 O   0  0  0  0  0  0  0  0  0  0  0  0
  -23.4977  -28.6099   23.1581 O   0  0  0  0  0  0  0  0  0  0  0  0
  -31.0477  -14.7148   19.6053 O   0  0  0  0  0  0  0  0  0  0  0  0
  -23.9027  -25.1300   25.5475 O   0  0  0  0  0  0  0  0  0  1  0  0
  -27.5177  -10.4833   19.7989 F   0  0  0  0  0  0  0  0  0  0  0  0
  -29.7851  -14.0279   21.9668 F   0  0  0  0  0  0  0  0  0  0  0  0
  1  2  1  0  0  0  0
  1  5  2  0  0  0  0
  2  6  2  0  0  0  0
  3  8  2  0  0  0  0
  3 17  1  0  0  0  0
  4  9  1  0  0  0  0
  4 17  2  0  0  0  0
  5 19  1  0  0  0  0
  6 21  1  0  0  0  0
  7 10  2  0  0  0  0
  7 20  1  0  0  0  0
  8 27  1  0  0  0  0
  9 27  2  0  0  0  0
 10 28  1  0  0  0  0
 11 12  2  0  0  0  0
 11 29  1  0  0  0  0
 12 30  1  0  0  0  0
 13 22  1  0  0  0  0
 13 28  2  0  0  0  0
 14 23  2  0  0  0  0
 14 24  1  0  0  0  0
 15 23  1  0  0  0  0
 15 25  2  0  0  0  0
 16 30  2  0  0  0  0
 16 31  1  0  0  0  0
 17 32  1  0  0  0  0
 18 32  1  0  0  0  0
 18 33  2  0  0  0  0
 18 34  1  0  0  0  0
 19 21  2  0  0  0  0
 19 39  1  0  0  0  0
 20 22  2  0  0  0  0
 20 40  1  0  0  0  0
 21 48  1  0  0  0  0
 22 41  1  0  0  0  0
 23 59  1  0  0  0  0
 24 26  2  0  0  0  0
 24 57  1  0  0  0  0
 25 26  1  0  0  0  0
 25 58  1  0  0  0  0
 26 60  1  0  0  0  0
 27 81  1  0  0  0  0
 28 82  1  0  0  0  0
 29 31  2  0  0  0  0
 29 81  1  0  0  0  0
 30 83  1  0  0  0  0
 31 84  1  0  0  0  0
 32 65  2  0  0  0  0
 33 66  1  0  0  0  0
 33 69  1  0  0  0  0
 34 70  1  0  0  0  0
 34 75  2  0  0  0  0
 35 49  1  0  0  0  0
 35 71  1  0  0  0  0
 35 76  2  0  0  0  0
 36 62  1  0  0  0  0
 36 67  1  0  0  0  0
 36 77  2  0  0  0  0
 37 63  1  0  0  0  0
 37 72  1  0  0  0  0
 37 78  2  0  0  0  0
 38 68  1  0  0  0  0
 38 73  1  0  0  0  0
 38 79  2  0  0  0  0
 39 42  1  0  0  0  0
 40 49  1  0  0  0  0
 41 67  1  0  0  0  0
 42 44  1  0  0  0  0
 43 45  1  0  0  0  0
 43 46  1  0  0  0  0
 44 48  1  0  0  0  0
 45 50  1  0  0  0  0
 46 68  1  0  0  0  0
 47 50  1  0  0  0  0
 47 68  1  0  0  0  0
 48 71  1  0  0  0  0
 49 67  1  0  0  0  0
 50 66  1  0  0  0  0
 51 57  1  0  0  0  0
 52 63  1  0  0  0  0
 53 64  1  0  0  0  0
 54 64  1  0  0  0  0
 55 64  1  0  0  0  0
 56 74  1  0  0  0  0
 58 61  1  0  0  0  0
 59 73  1  0  0  0  0
 60 80  1  0  0  0  0
 61 82  1  0  0  0  0
 62 64  1  0  0  0  0
 62 72  1  0  0  0  0
 63 74  1  0  0  0  0
 65 66  1  0  0  0  0
M  CHG  1  74   1
M  ISO  4  38 100  61 101  73 100  82 101
M  END
> <Batch ID>
0032

> <Smiles>
CCc1cc(C[100NH:0][100C:0](=O)N2CCCC(n3nc(-c4ccc(Oc5ccc(F)cc5F)cc4)c(C(N)=O)c3N)C2)cc(C[101CH2:1][101O:1]c2ccc3c(c2)CN(C(=O)C(NC(=O)C(C)NC)C(C)(C)C)C(C(=O)NC2CCCc4ccccc42)C3)c1CO

> <Shape>
0.187

> <Color>
0.058

> <Negative vol penalty>
0.000

$$$$

  -OEChem-04052316453D

 88 96  0     1  0  0  0  0  0999 V2000
  -25.0850  -32.5220   20.2996 C   0  0  0  0  0  0  0  0  0  0  0  0
  -25.1775  -31.1541   20.0642 C   0  0  0  0  0  0  0  0  0  0  0  0
  -22.9680  -10.0273   19.9526 C   0  0  0  0  0  0  0  0  0  0  0  0
  -24.0818   -9.5137   22.0341 C   0  0  0  0  0  0  0  0  0  0  0  0
  -24.2768  -32.9975   21.3315 C   0  0  0  0  0  0  0  0  0  0  0  0
  -24.4627  -30.2606   20.8612 C   0  0  0  0  0  0  0  0  0  0  0  0
  -22.1576  -26.6561   18.1522 C   0  0  0  0  0  0  0  0  0  0  0  0
  -22.2530   -8.8329   20.0404 C   0  0  0  0  0  0  0  0  0  0  0  0
  -23.3667   -8.3193   22.1220 C   0  0  0  0  0  0  0  0  0  0  0  0
  -22.9466  -25.6029   17.6918 C   0  0  0  0  0  0  0  0  0  0  0  0
  -20.2614   -7.3378   23.0241 C   0  0  0  0  0  0  0  0  0  0  0  0
  -19.6990   -7.0102   24.2577 C   0  0  0  0  0  0  0  0  0  0  0  0
  -22.1569  -24.2254   19.5079 C   0  0  0  0  0  0  0  0  0  0  0  0
  -21.0072   -4.9798   24.3149 C   0  0  0  0  0  0  0  0  0  0  0  0
  -23.8825  -10.3677   20.9494 C   0  0  0  0  0  0  0  0  0  0  0  0
  -24.2453  -12.8574   21.3706 C   0  0  0  0  0  0  0  0  0  0  0  0
  -23.5442  -32.1100   22.1354 C   0  0  0  0  0  0  0  0  0  0  0  0
  -21.3693  -26.5051   19.3020 C   0  0  0  0  0  0  0  0  0  0  0  0
  -23.6450  -30.7246   21.9056 C   0  0  0  0  0  0  0  0  0  0  0  0
  -21.3568  -25.2774   19.9793 C   0  0  0  0  0  0  0  0  0  0  0  0
  -26.9149  -21.2128   20.8911 C   0  0  0  0  0  0  0  0  0  0  0  0
  -26.6497  -21.2798   19.5278 C   0  0  0  0  0  0  0  0  0  0  0  0
  -22.4523   -7.9789   21.1251 C   0  0  0  0  0  0  0  0  0  0  0  0
  -22.9486  -24.3883   18.3713 C   0  0  0  0  0  0  0  0  0  0  0  0
  -21.1966   -6.4864   22.4357 C   0  0  0  0  0  0  0  0  0  0  0  0
  -20.0719   -5.8312   24.9032 C   0  0  0  0  0  0  0  0  0  0  0  0
  -21.5695   -5.3074   23.0811 C   0  0  0  0  0  0  0  0  0  0  0  0
  -26.8131  -22.3596   21.6707 C   0  0  0  0  0  0  0  0  0  0  0  0
  -24.6218  -11.6011   20.8589 C   0  0  0  0  0  0  0  0  0  0  0  0
  -26.2895  -22.5079   18.9968 C   0  0  0  0  0  0  0  0  0  0  0  0
  -26.4457  -23.5393   21.0437 C   0  0  0  0  0  0  0  0  0  0  0  0
  -25.2791  -13.6929   21.0246 C   0  0  0  0  0  0  0  0  0  0  0  0
  -23.0666  -13.2353   22.0941 C   0  0  0  0  0  0  0  0  0  0  0  0
  -21.2752  -27.9008   22.1563 C   0  0  0  0  0  0  0  0  0  0  0  0
  -18.6199  -26.0752   22.5291 C   0  0  0  0  0  0  0  0  0  0  0  0
  -16.8679  -23.2904   21.6223 C   0  0  0  0  0  0  0  0  0  0  0  0
  -30.7404  -14.7502   20.5761 C   0  0  0  0  0  0  0  0  0  0  0  0
  -22.7209  -32.6683   23.2691 C   0  0  0  0  0  0  0  0  0  0  0  0
  -20.5032  -27.6422   19.7703 C   0  0  0  0  0  0  0  0  0  0  0  0
  -20.5126  -25.0576   21.2071 C   0  0  0  0  0  0  0  0  0  0  0  0
  -21.7035  -31.6773   23.8285 C   0  0  0  0  0  0  0  0  0  0  0  0
  -29.1972  -12.9668   17.9088 C   0  0  0  0  0  0  0  0  0  0  0  0
  -22.3523  -30.3150   24.0520 C   0  0  0  0  0  0  0  0  0  0  0  0
  -27.8416  -12.5511   18.4828 C   0  0  0  0  0  0  0  0  0  0  0  0
  -30.2968  -12.9195   18.9674 C   0  0  0  0  0  0  0  0  0  0  0  0
  -28.6520  -13.2678   20.7694 C   0  0  0  0  0  0  0  0  0  0  0  0
  -22.8656  -29.7253   22.7328 C   0  0  1  0  0  0  0  0  0  0  0  0
  -20.1337  -27.5430   21.2471 C   0  0  1  0  0  0  0  0  0  0  0  0
  -27.5006  -13.3536   19.7529 C   0  0  2  0  0  0  0  0  0  0  0  0
  -26.7497  -20.0659   18.6666 C   0  0  0  0  0  0  0  0  0  0  0  0
  -25.0384  -24.8352   22.6645 C   0  0  0  0  0  0  0  0  0  0  0  0
  -14.7491  -22.0445   22.1283 C   0  0  0  0  0  0  0  0  0  0  0  0
  -19.8586  -25.0222   25.1111 C   0  0  0  0  0  0  0  0  0  0  0  0
  -18.2005  -23.1470   25.0599 C   0  0  0  0  0  0  0  0  0  0  0  0
  -17.4087  -25.5049   25.2505 C   0  0  0  0  0  0  0  0  0  0  0  0
  -15.8798  -23.6123   18.8511 C   0  0  0  0  0  0  0  0  0  0  0  0
  -27.3077  -19.9245   21.5357 C   0  0  0  0  0  0  0  0  0  0  0  0
  -25.9899  -22.6435   17.5237 C   0  0  0  0  0  0  0  0  0  0  0  0
  -26.3263  -24.7914   21.8466 C   0  0  0  0  0  0  0  0  0  0  0  0
  -28.7748  -19.5630   21.2621 C   0  0  0  0  0  0  0  0  0  0  0  0
  -29.1552  -18.2224   21.8942 C   0  0  0  0  0  0  0  0  0  0  0  0
  -30.6302  -17.8914   21.6484 C   0  0  0  0  0  0  0  0  0  0  0  0
  -31.0393  -16.5532   22.2551 C   0  0  0  0  0  0  0  0  0  0  0  0
  -24.9254  -23.6985   17.2432 C   0  0  0  0  0  0  0  0  0  1  0  0
  -18.3425  -24.6852   23.0487 C   0  0  1  0  0  0  0  0  0  0  0  0
  -15.4094  -23.0951   21.2490 C   0  0  2  0  0  0  0  0  0  0  0  0
  -18.4701  -24.5943   24.5955 C   0  0  0  0  0  0  0  0  0  0  0  0
  -25.8025  -11.6312   20.2352 N   0  0  0  0  0  0  0  0  0  0  0  0
  -26.1802  -23.6434   19.7223 N   0  0  0  0  0  0  0  0  0  0  0  0
  -26.1768  -12.9166   20.3526 N   0  0  0  0  0  0  0  0  0  0  0  0
  -19.6877  -26.2016   21.6293 N   0  0  0  0  0  0  0  0  0  0  0  0
  -29.9118  -13.7012   20.1449 N   0  0  0  0  0  0  0  0  0  0  0  0
  -25.4986  -15.0086   21.2326 N   0  0  0  0  0  0  0  0  0  0  0  0
  -22.1050  -12.2523   22.3651 N   0  0  0  0  0  0  0  0  0  0  0  0
  -21.7691  -29.1769   21.9638 N   0  0  0  0  0  0  0  0  0  0  0  0
  -17.0293  -24.3117   22.5344 N   0  0  0  0  0  0  0  0  0  0  0  0
  -30.2987  -15.4444   21.6958 N   0  0  0  0  0  0  0  0  0  0  0  0
  -15.2921  -22.6603   19.8284 N   0  3  0  0  0  0  0  0  0  0  0  0
  -22.8640  -14.4135   22.4742 O   0  0  0  0  0  0  0  0  0  0  0  0
  -21.6770  -27.0804   22.9731 O   0  0  0  0  0  0  0  0  0  0  0  0
  -17.9107  -27.0129   22.9022 O   0  0  0  0  0  0  0  0  0  0  0  0
  -17.7730  -22.6031   21.1544 O   0  0  0  0  0  0  0  0  0  0  0  0
  -31.7930  -15.0497   20.0023 O   0  0  0  0  0  0  0  0  0  0  0  0
  -21.7546   -6.8134   21.2113 O   0  0  0  0  0  0  0  0  0  0  0  0
  -23.7184  -23.3589   17.9245 O   0  0  0  0  0  0  0  0  0  1  0  0
  -19.5329   -5.5174   26.0886 F   0  0  0  0  0  0  0  0  0  0  0  0
  -22.4684   -4.4861   22.5214 F   0  0  0  0  0  0  0  0  0  0  0  0
  -27.0624  -22.3240   22.9865 F   0  0  0  0  0  0  0  0  0  0  0  0
  1  2  1  0  0  0  0
  1  5  2  0  0  0  0
  2  6  2  0  0  0  0
  3  8  2  0  0  0  0
  3 15  1  0  0  0  0
  4  9  1  0  0  0  0
  4 15  2  0  0  0  0
  5 17  1  0  0  0  0
  6 19  1  0  0  0  0
  7 10  2  0  0  0  0
  7 18  1  0  0  0  0
  8 23  1  0  0  0  0
  9 23  2  0  0  0  0
 10 24  1  0  0  0  0
 11 12  2  0  0  0  0
 11 25  1  0  0  0  0
 12 26  1  0  0  0  0
 13 20  1  0  0  0  0
 13 24  2  0  0  0  0
 14 26  2  0  0  0  0
 14 27  1  0  0  0  0
 15 29  1  0  0  0  0
 16 29  1  0  0  0  0
 16 32  2  0  0  0  0
 16 33  1  0  0  0  0
 17 19  2  0  0  0  0
 17 38  1  0  0  0  0
 18 20  2  0  0  0  0
 18 39  1  0  0  0  0
 19 47  1  0  0  0  0
 20 40  1  0  0  0  0
 21 22  2  0  0  0  0
 21 28  1  0  0  0  0
 21 57  1  0  0  0  0
 22 30  1  0  0  0  0
 22 50  1  0  0  0  0
 23 84  1  0  0  0  0
 24 85  1  0  0  0  0
 25 27  2  0  0  0  0
 25 84  1  0  0  0  0
 26 86  1  0  0  0  0
 27 87  1  0  0  0  0
 28 31  2  0  0  0  0
 28 88  1  0  0  0  0
 29 68  2  0  0  0  0
 30 58  1  0  0  0  0
 30 69  2  0  0  0  0
 31 59  1  0  0  0  0
 31 69  1  0  0  0  0
 32 70  1  0  0  0  0
 32 73  1  0  0  0  0
 33 74  1  0  0  0  0
 33 79  2  0  0  0  0
 34 48  1  0  0  0  0
 34 75  1  0  0  0  0
 34 80  2  0  0  0  0
 35 65  1  0  0  0  0
 35 71  1  0  0  0  0
 35 81  2  0  0  0  0
 36 66  1  0  0  0  0
 36 76  1  0  0  0  0
 36 82  2  0  0  0  0
 37 72  1  0  0  0  0
 37 77  1  0  0  0  0
 37 83  2  0  0  0  0
 38 41  1  0  0  0  0
 39 48  1  0  0  0  0
 40 71  1  0  0  0  0
 41 43  1  0  0  0  0
 42 44  1  0  0  0  0
 42 45  1  0  0  0  0
 43 47  1  0  0  0  0
 44 49  1  0  0  0  0
 45 72  1  0  0  0  0
 46 49  1  0  0  0  0
 46 72  1  0  0  0  0
 47 75  1  0  0  0  0
 48 71  1  0  0  0  0
 49 70  1  0  0  0  0
 51 59  1  0  0  0  0
 52 66  1  0  0  0  0
 53 67  1  0  0  0  0
 54 67  1  0  0  0  0
 55 67  1  0  0  0  0
 56 78  1  0  0  0  0
 57 60  1  0  0  0  0
 58 64  1  0  0  0  0
 60 61  1  0  0  0  0
 61 62  1  0  0  0  0
 62 63  1  0  0  0  0
 63 77  1  0  0  0  0
 64 85  1  0  0  0  0
 65 67  1  0  0  0  0
 65 76  1  0  0  0  0
 66 78  1  0  0  0  0
 68 70  1  0  0  0  0
M  CHG  1  78   1
M  ISO  4  37 100  64 101  77 100  85 101
M  END
> <Batch ID>
0032

> <Smiles>
CCc1nc(C[101CH2:1][101O:1]c2ccc3c(c2)CN(C(=O)C(NC(=O)C(C)NC)C(C)(C)C)C(C(=O)NC2CCCc4ccccc42)C3)c(C)c(CCCCC[100NH:0][100C:0](=O)N2CCCC(n3nc(-c4ccc(Oc5ccc(F)cc5F)cc4)c(C(N)=O)c3N)C2)c1F

> <Shape>
0.291

> <Color>
0.164

> <Negative vol penalty>
0.000

$$$$

  -OEChem-04052316453D

 80 88  0     1  0  0  0  0  0999 V2000
  -25.1579  -26.7285   18.4717 C   0  0  0  0  0  0  0  0  0  0  0  0
  -25.8866  -26.0947   19.4730 C   0  0  0  0  0  0  0  0  0  0  0  0
  -23.0166   -9.8909   19.9656 C   0  0  0  0  0  0  0  0  0  0  0  0
  -23.7528   -9.9200   22.2666 C   0  0  0  0  0  0  0  0  0  0  0  0
  -25.3070  -26.3300   17.1439 C   0  0  0  0  0  0  0  0  0  0  0  0
  -26.7642  -25.0612   19.1472 C   0  0  0  0  0  0  0  0  0  0  0  0
  -32.1044  -23.7749   21.8551 C   0  0  0  0  0  0  0  0  0  0  0  0
  -32.6215  -17.4752   23.4847 C   0  0  0  0  0  0  0  0  0  0  0  0
  -32.0357  -16.5857   22.5841 C   0  0  0  0  0  0  0  0  0  0  0  0
  -22.2600   -8.7475   20.2221 C   0  0  0  0  0  0  0  0  0  0  0  0
  -22.9961   -8.7766   22.5231 C   0  0  0  0  0  0  0  0  0  0  0  0
  -32.4617  -22.8441   22.8297 C   0  0  0  0  0  0  0  0  0  0  0  0
  -23.2633   -5.4455   22.0101 C   0  0  0  0  0  0  0  0  0  0  0  0
  -23.8622   -4.4239   22.7472 C   0  0  0  0  0  0  0  0  0  0  0  0
  -33.1780  -21.3197   21.1028 C   0  0  0  0  0  0  0  0  0  0  0  0
  -29.8531  -17.4597   23.1405 C   0  0  0  0  0  0  0  0  0  0  0  0
  -22.1449   -4.6337   24.4335 C   0  0  0  0  0  0  0  0  0  0  0  0
  -23.7631  -10.4771   20.9879 C   0  0  0  0  0  0  0  0  0  0  0  0
  -24.1285  -12.9975   20.8401 C   0  0  0  0  0  0  0  0  0  0  0  0
  -26.1940  -25.2976   16.8006 C   0  0  0  0  0  0  0  0  0  0  0  0
  -32.2714  -23.4802   20.4943 C   0  0  0  0  0  0  0  0  0  0  0  0
  -26.9243  -24.6476   17.8138 C   0  0  0  0  0  0  0  0  0  0  0  0
  -32.8244  -22.2494   20.1130 C   0  0  0  0  0  0  0  0  0  0  0  0
  -31.8232  -18.3570   24.2134 C   0  0  0  0  0  0  0  0  0  0  0  0
  -30.6516  -16.5780   22.4120 C   0  0  0  0  0  0  0  0  0  0  0  0
  -22.2497   -8.1904   21.5008 C   0  0  0  0  0  0  0  0  0  0  0  0
  -32.9959  -21.6152   22.4536 C   0  0  0  0  0  0  0  0  0  0  0  0
  -22.1052   -6.0612   22.4848 C   0  0  0  0  0  0  0  0  0  0  0  0
  -23.3030   -4.0180   23.9588 C   0  0  0  0  0  0  0  0  0  0  0  0
  -21.5460   -5.6553   23.6965 C   0  0  0  0  0  0  0  0  0  0  0  0
  -30.4390  -18.3492   24.0412 C   0  0  0  0  0  0  0  0  0  0  0  0
  -24.5453  -11.6579   20.7234 C   0  0  0  0  0  0  0  0  0  0  0  0
  -25.2310  -13.7328   20.4789 C   0  0  0  0  0  0  0  0  0  0  0  0
  -22.8584  -13.5296   21.2392 C   0  0  0  0  0  0  0  0  0  0  0  0
  -30.3158  -23.1935   18.0050 C   0  0  0  0  0  0  0  0  0  0  0  0
  -33.0922  -22.8996   16.3535 C   0  0  0  0  0  0  0  0  0  0  0  0
  -36.4059  -22.0841   16.3789 C   0  0  0  0  0  0  0  0  0  0  0  0
  -30.7041  -14.7327   20.6978 C   0  0  0  0  0  0  0  0  0  0  0  0
  -26.2862  -24.8698   15.3573 C   0  0  0  0  0  0  0  0  0  0  0  0
  -31.9059  -24.5055   19.4562 C   0  0  0  0  0  0  0  0  0  0  0  0
  -33.0427  -21.8924   18.6661 C   0  0  0  0  0  0  0  0  0  0  0  0
  -27.5158  -24.0183   15.0517 C   0  0  0  0  0  0  0  0  0  0  0  0
  -29.5929  -12.2992   18.3481 C   0  0  0  0  0  0  0  0  0  0  0  0
  -27.6872  -22.9301   16.1067 C   0  0  0  0  0  0  0  0  0  0  0  0
  -28.1464  -12.0256   18.7662 C   0  0  0  0  0  0  0  0  0  0  0  0
  -30.4975  -12.5351   19.5564 C   0  0  0  0  0  0  0  0  0  0  0  0
  -28.5829  -13.2934   20.9085 C   0  0  0  0  0  0  0  0  0  0  0  0
  -27.9046  -23.5390   17.4972 C   0  0  1  0  0  0  0  0  0  0  0  0
  -31.6413  -23.8969   18.0826 C   0  0  1  0  0  0  0  0  0  0  0  0
  -27.6208  -13.1139   19.7228 C   0  0  2  0  0  0  0  0  0  0  0  0
  -38.4025  -21.9063   14.8691 C   0  0  0  0  0  0  0  0  0  0  0  0
  -31.9849  -20.3013   15.1992 C   0  0  0  0  0  0  0  0  0  0  0  0
  -34.3108  -19.7077   14.4877 C   0  0  0  0  0  0  0  0  0  0  0  0
  -33.2027  -21.7382   13.5540 C   0  0  0  0  0  0  0  0  0  0  0  0
  -37.9035  -24.1128   17.9283 C   0  0  0  0  0  0  0  0  0  0  0  0
  -32.4963  -19.3036   25.1773 C   0  0  0  0  0  0  0  0  0  0  0  0
  -32.6020  -20.7194   24.6211 C   0  0  0  0  0  0  0  0  0  1  0  0
  -33.9843  -21.7477   15.9584 C   0  0  1  0  0  0  0  0  0  0  0  0
  -37.6236  -22.7995   15.8222 C   0  0  2  0  0  0  0  0  0  0  0  0
  -33.3649  -20.8793   14.8271 C   0  0  0  0  0  0  0  0  0  0  0  0
  -25.8135  -11.5458   20.3196 N   0  0  0  0  0  0  0  0  0  0  0  0
  -26.2031  -12.8243   20.1793 N   0  0  0  0  0  0  0  0  0  0  0  0
  -32.6637  -22.9256   17.6882 N   0  0  0  0  0  0  0  0  0  0  0  0
  -29.9387  -13.5816   20.4150 N   0  0  0  0  0  0  0  0  0  0  0  0
  -25.4539  -15.0613   20.3916 N   0  0  0  0  0  0  0  0  0  0  0  0
  -21.8350  -12.6336   21.5772 N   0  0  0  0  0  0  0  0  0  0  0  0
  -30.0565  -15.6735   21.4978 N   0  0  0  0  0  0  0  0  0  0  0  0
  -29.2655  -24.0117   17.6348 N   0  0  0  0  0  0  0  0  0  0  0  0
  -35.2791  -22.3304   15.6234 N   0  0  0  0  0  0  0  0  0  0  0  0
  -38.5329  -23.2119   16.9286 N   0  3  0  0  0  0  0  0  0  0  0  0
  -22.6325  -14.7628   21.2788 O   0  0  0  0  0  0  0  0  0  0  0  0
  -30.2509  -21.9968   18.2605 O   0  0  0  0  0  0  0  0  0  0  0  0
  -32.7925  -23.7491   15.5107 O   0  0  0  0  0  0  0  0  0  0  0  0
  -36.4507  -21.3745   17.3815 O   0  0  0  0  0  0  0  0  0  0  0  0
  -31.8394  -14.8857   20.2399 O   0  0  0  0  0  0  0  0  0  0  0  0
  -21.5113   -7.0748   21.7515 O   0  0  0  0  0  0  0  0  0  0  0  0
  -33.3448  -20.7047   23.4028 O   0  0  0  0  0  0  0  0  0  1  0  0
  -23.8774   -3.0359   24.6657 F   0  0  0  0  0  0  0  0  0  0  0  0
  -20.4328   -6.2423   24.1570 F   0  0  0  0  0  0  0  0  0  0  0  0
  -29.4194  -19.4252   24.9258 Cl  0  0  0  0  0  0  0  0  0  0  0  0
  1  2  1  0  0  0  0
  1  5  2  0  0  0  0
  2  6  2  0  0  0  0
  3 10  2  0  0  0  0
  3 18  1  0  0  0  0
  4 11  1  0  0  0  0
  4 18  2  0  0  0  0
  5 20  1  0  0  0  0
  6 22  1  0  0  0  0
  7 12  2  0  0  0  0
  7 21  1  0  0  0  0
  8  9  2  0  0  0  0
  8 24  1  0  0  0  0
  9 25  1  0  0  0  0
 10 26  1  0  0  0  0
 11 26  2  0  0  0  0
 12 27  1  0  0  0  0
 13 14  2  0  0  0  0
 13 28  1  0  0  0  0
 14 29  1  0  0  0  0
 15 23  1  0  0  0  0
 15 27  2  0  0  0  0
 16 25  2  0  0  0  0
 16 31  1  0  0  0  0
 17 29  2  0  0  0  0
 17 30  1  0  0  0  0
 18 32  1  0  0  0  0
 19 32  1  0  0  0  0
 19 33  2  0  0  0  0
 19 34  1  0  0  0  0
 20 22  2  0  0  0  0
 20 39  1  0  0  0  0
 21 23  2  0  0  0  0
 21 40  1  0  0  0  0
 22 48  1  0  0  0  0
 23 41  1  0  0  0  0
 24 31  2  0  0  0  0
 24 56  1  0  0  0  0
 25 67  1  0  0  0  0
 26 76  1  0  0  0  0
 27 77  1  0  0  0  0
 28 30  2  0  0  0  0
 28 76  1  0  0  0  0
 29 78  1  0  0  0  0
 30 79  1  0  0  0  0
 31 80  1  0  0  0  0
 32 61  2  0  0  0  0
 33 62  1  0  0  0  0
 33 65  1  0  0  0  0
 34 66  1  0  0  0  0
 34 71  2  0  0  0  0
 35 49  1  0  0  0  0
 35 68  1  0  0  0  0
 35 72  2  0  0  0  0
 36 58  1  0  0  0  0
 36 63  1  0  0  0  0
 36 73  2  0  0  0  0
 37 59  1  0  0  0  0
 37 69  1  0  0  0  0
 37 74  2  0  0  0  0
 38 64  1  0  0  0  0
 38 67  1  0  0  0  0
 38 75  2  0  0  0  0
 39 42  1  0  0  0  0
 40 49  1  0  0  0  0
 41 63  1  0  0  0  0
 42 44  1  0  0  0  0
 43 45  1  0  0  0  0
 43 46  1  0  0  0  0
 44 48  1  0  0  0  0
 45 50  1  0  0  0  0
 46 64  1  0  0  0  0
 47 50  1  0  0  0  0
 47 64  1  0  0  0  0
 48 68  1  0  0  0  0
 49 63  1  0  0  0  0
 50 62  1  0  0  0  0
 51 59  1  0  0  0  0
 52 60  1  0  0  0  0
 53 60  1  0  0  0  0
 54 60  1  0  0  0  0
 55 70  1  0  0  0  0
 56 57  1  0  0  0  0
 57 77  1  0  0  0  0
 58 60  1  0  0  0  0
 58 69  1  0  0  0  0
 59 70  1  0  0  0  0
 61 62  1  0  0  0  0
M  CHG  1  70   1
M  ISO  4  38 100  57 101  67 100  77 101
M  END
> <Batch ID>
0032

> <Smiles>
CNC(C)C(=O)NC(C(=O)N1Cc2cc([101O:1][101CH2:1]Cc3ccc([100NH:0][100C:0](=O)N4CCCC(n5nc(-c6ccc(Oc7ccc(F)cc7F)cc6)c(C(N)=O)c5N)C4)cc3Cl)ccc2CC1C(=O)NC1CCCc2ccccc21)C(C)(C)C

> <Shape>
0.217

> <Color>
0.208

> <Negative vol penalty>
0.000

$$$$

  -OEChem-04052316453D

 93101  0     1  0  0  0  0  0999 V2000
  -25.0367  -20.9385   22.1503 C   0  0  0  0  0  0  0  0  0  0  0  0
  -25.9489  -20.2474   22.9398 C   0  0  0  0  0  0  0  0  0  0  0  0
  -23.2863   -9.7993   19.9115 C   0  0  0  0  0  0  0  0  0  0  0  0
  -23.7287   -9.9405   22.2825 C   0  0  0  0  0  0  0  0  0  0  0  0
  -23.7157  -20.5023   22.0741 C   0  0  0  0  0  0  0  0  0  0  0  0
  -25.5433  -19.1131   23.6438 C   0  0  0  0  0  0  0  0  0  0  0  0
  -29.0484  -16.5371   25.9420 C   0  0  0  0  0  0  0  0  0  0  0  0
  -22.5568   -8.6284   20.1173 C   0  0  0  0  0  0  0  0  0  0  0  0
  -22.9991   -8.7696   22.4883 C   0  0  0  0  0  0  0  0  0  0  0  0
  -29.6900  -16.9962   27.0915 C   0  0  0  0  0  0  0  0  0  0  0  0
  -20.9499   -6.0145   23.6834 C   0  0  0  0  0  0  0  0  0  0  0  0
  -20.0443   -5.9917   24.7440 C   0  0  0  0  0  0  0  0  0  0  0  0
  -28.3611  -15.4900   28.4274 C   0  0  0  0  0  0  0  0  0  0  0  0
  -28.9149  -16.3717   35.2932 C   0  0  0  0  0  0  0  0  0  0  0  0
  -28.4687  -18.3958   33.4259 C   0  0  0  0  0  0  0  0  0  0  0  0
  -18.8422   -7.8407   23.7574 C   0  0  0  0  0  0  0  0  0  0  0  0
  -23.8723  -10.4553   20.9941 C   0  0  0  0  0  0  0  0  0  0  0  0
  -24.1377  -12.9846   20.7949 C   0  0  0  0  0  0  0  0  0  0  0  0
  -23.2915  -19.3693   22.7877 C   0  0  0  0  0  0  0  0  0  0  0  0
  -28.0490  -15.5572   26.0279 C   0  0  0  0  0  0  0  0  0  0  0  0
  -24.2201  -18.6431   23.5610 C   0  0  0  0  0  0  0  0  0  0  0  0
  -27.7101  -15.0184   27.2773 C   0  0  0  0  0  0  0  0  0  0  0  0
  -28.0106  -17.3951   35.5767 C   0  0  0  0  0  0  0  0  0  0  0  0
  -27.7875  -18.4072   34.6431 C   0  0  0  0  0  0  0  0  0  0  0  0
  -29.5962  -16.3604   34.0760 C   0  0  0  0  0  0  0  0  0  0  0  0
  -29.3730  -17.3724   33.1424 C   0  0  0  0  0  0  0  0  0  0  0  0
  -22.4131   -8.1136   21.4057 C   0  0  0  0  0  0  0  0  0  0  0  0
  -29.3443  -16.4747   28.3348 C   0  0  0  0  0  0  0  0  0  0  0  0
  -20.8017   -6.9504   22.6597 C   0  0  0  0  0  0  0  0  0  0  0  0
  -18.9905   -6.9048   24.7811 C   0  0  0  0  0  0  0  0  0  0  0  0
  -19.7479   -7.8635   22.6968 C   0  0  0  0  0  0  0  0  0  0  0  0
  -24.6266  -11.6645   20.7820 C   0  0  0  0  0  0  0  0  0  0  0  0
  -25.2417  -13.7621   20.5434 C   0  0  0  0  0  0  0  0  0  0  0  0
  -22.8048  -13.4652   21.0145 C   0  0  0  0  0  0  0  0  0  0  0  0
  -24.9534  -15.4420   25.3154 C   0  0  0  0  0  0  0  0  0  0  0  0
  -31.1114  -12.7881   21.3859 C   0  0  0  0  0  0  0  0  0  0  0  0
  -25.2931  -12.3075   26.0782 C   0  0  0  0  0  0  0  0  0  0  0  0
  -27.0294   -9.9112   27.7780 C   0  0  0  0  0  0  0  0  0  0  0  0
  -21.8519  -18.9366   22.6630 C   0  0  0  0  0  0  0  0  0  0  0  0
  -27.3852  -15.0534   24.7757 C   0  0  0  0  0  0  0  0  0  0  0  0
  -26.6581  -13.9502   27.4213 C   0  0  0  0  0  0  0  0  0  0  0  0
  -21.4138  -17.9988   23.7831 C   0  0  0  0  0  0  0  0  0  0  0  0
  -29.4707  -13.6679   18.3242 C   0  0  0  0  0  0  0  0  0  0  0  0
  -22.4247  -16.8732   23.9438 C   0  0  0  0  0  0  0  0  0  0  0  0
  -28.0021  -13.3471   18.5989 C   0  0  0  0  0  0  0  0  0  0  0  0
  -30.3984  -12.6774   19.0208 C   0  0  0  0  0  0  0  0  0  0  0  0
  -28.7037  -12.2443   20.7707 C   0  0  0  0  0  0  0  0  0  0  0  0
  -23.7943  -17.4245   24.3598 C   0  0  1  0  0  0  0  0  0  0  0  0
  -26.0207  -14.4223   25.0352 C   0  0  1  0  0  0  0  0  0  0  0  0
  -27.7331  -13.2395   20.1103 C   0  0  2  0  0  0  0  0  0  0  0  0
  -27.2924  -17.3860   36.8862 C   0  0  0  0  0  0  0  0  0  0  0  0
  -26.8236  -19.5128   34.9244 C   0  0  0  0  0  0  0  0  0  0  0  0
  -27.6989   -7.6116   28.5272 C   0  0  0  0  0  0  0  0  0  0  0  0
  -22.9649  -12.6566   28.0193 C   0  0  0  0  0  0  0  0  0  0  0  0
  -23.6376  -10.5029   29.1043 C   0  0  0  0  0  0  0  0  0  0  0  0
  -22.9241  -10.5237   26.7141 C   0  0  0  0  0  0  0  0  0  0  0  0
  -28.9221   -9.6017   25.5239 C   0  0  0  0  0  0  0  0  0  0  0  0
  -30.5695  -15.2442   33.7922 C   0  0  0  0  0  0  0  0  0  0  0  0
  -30.0914  -17.3816   31.8330 C   0  0  0  0  0  0  0  0  0  0  0  0
  -30.7227  -12.6830   22.8391 C   0  0  0  0  0  0  0  0  0  0  0  0
  -31.9377  -15.4279   34.4621 C   0  0  0  0  0  0  0  0  0  0  0  0
  -31.9468  -12.9290   23.7143 C   0  0  0  0  0  0  0  0  0  0  0  0
  -31.6669  -12.7675   25.2104 C   0  0  0  0  0  0  0  0  0  0  0  0
  -32.8898  -13.0409   26.0888 C   0  0  0  0  0  0  0  0  0  0  0  0
  -32.5486  -12.8962   27.5738 C   0  0  0  0  0  0  0  0  0  0  0  0
  -33.7612  -13.2006   28.4552 C   0  0  0  0  0  0  0  0  0  0  0  0
  -33.4117  -13.0891   29.9411 C   0  0  0  0  0  0  0  0  0  0  0  0
  -34.6198  -13.4234   30.8208 C   0  0  0  0  0  0  0  0  0  0  0  0
  -32.9686  -14.3467   34.1527 C   0  0  0  0  0  0  0  0  0  0  0  0
  -34.3245  -13.3384   32.3132 C   0  0  0  0  0  0  0  0  0  0  0  0
  -29.2180  -16.9013   30.6710 C   0  0  0  0  0  0  0  0  0  1  0  0
  -25.1708  -11.4963   27.3455 C   0  0  1  0  0  0  0  0  0  0  0  0
  -27.5672   -8.5592   27.3451 C   0  0  2  0  0  0  0  0  0  0  0  0
  -23.6928  -11.3164   27.7936 C   0  0  0  0  0  0  0  0  0  0  0  0
  -25.9389  -11.6030   20.5413 N   0  0  0  0  0  0  0  0  0  0  0  0
  -26.2841  -12.8942   20.4005 N   0  0  0  0  0  0  0  0  0  0  0  0
  -26.0333  -13.4949   26.1684 N   0  0  0  0  0  0  0  0  0  0  0  0
  -30.0963  -12.5873   20.4504 N   0  0  0  0  0  0  0  0  0  0  0  0
  -25.4128  -15.0966   20.4328 N   0  0  0  0  0  0  0  0  0  0  0  0
  -21.7894  -12.5305   21.2588 N   0  0  0  0  0  0  0  0  0  0  0  0
  -24.7706  -16.3592   24.2981 N   0  0  0  0  0  0  0  0  0  0  0  0
  -25.8769  -10.2439   27.0982 N   0  0  0  0  0  0  0  0  0  0  0  0
  -28.9087   -8.7132   26.7145 N   0  3  0  0  0  0  0  0  0  0  0  0
  -33.2821  -14.3189   32.6972 N   0  3  0  0  0  0  0  0  0  0  0  0
  -22.5196  -14.6862   20.9784 O   0  0  0  0  0  0  0  0  0  0  0  0
  -24.3399  -15.3990   26.3753 O   0  0  0  0  0  0  0  0  0  0  0  0
  -32.2823  -13.0440   21.0929 O   0  0  0  0  0  0  0  0  0  0  0  0
  -24.7578  -11.8990   25.0447 O   0  0  0  0  0  0  0  0  0  0  0  0
  -27.5749  -10.6012   28.6364 O   0  0  0  0  0  0  0  0  0  0  0  0
  -21.7011   -6.9712   21.6070 O   0  0  0  0  0  0  0  0  0  0  0  0
  -29.9729  -16.9247   29.4663 O   0  0  0  0  0  0  0  0  0  1  0  0
  -18.1201   -6.8818   25.7989 F   0  0  0  0  0  0  0  0  0  0  0  0
  -19.5996   -8.7642   21.7156 F   0  0  0  0  0  0  0  0  0  0  0  0
  1  2  1  0  0  0  0
  1  5  2  0  0  0  0
  2  6  2  0  0  0  0
  3  8  2  0  0  0  0
  3 17  1  0  0  0  0
  4  9  1  0  0  0  0
  4 17  2  0  0  0  0
  5 19  1  0  0  0  0
  6 21  1  0  0  0  0
  7 10  2  0  0  0  0
  7 20  1  0  0  0  0
  8 27  1  0  0  0  0
  9 27  2  0  0  0  0
 10 28  1  0  0  0  0
 11 12  2  0  0  0  0
 11 29  1  0  0  0  0
 12 30  1  0  0  0  0
 13 22  1  0  0  0  0
 13 28  2  0  0  0  0
 14 23  2  0  0  0  0
 14 25  1  0  0  0  0
 15 24  2  0  0  0  0
 15 26  1  0  0  0  0
 16 30  2  0  0  0  0
 16 31  1  0  0  0  0
 17 32  1  0  0  0  0
 18 32  1  0  0  0  0
 18 33  2  0  0  0  0
 18 34  1  0  0  0  0
 19 21  2  0  0  0  0
 19 39  1  0  0  0  0
 20 22  2  0  0  0  0
 20 40  1  0  0  0  0
 21 48  1  0  0  0  0
 22 41  1  0  0  0  0
 23 24  1  0  0  0  0
 23 51  1  0  0  0  0
 24 52  1  0  0  0  0
 25 26  2  0  0  0  0
 25 58  1  0  0  0  0
 26 59  1  0  0  0  0
 27 90  1  0  0  0  0
 28 91  1  0  0  0  0
 29 31  2  0  0  0  0
 29 90  1  0  0  0  0
 30 92  1  0  0  0  0
 31 93  1  0  0  0  0
 32 75  2  0  0  0  0
 33 76  1  0  0  0  0
 33 79  1  0  0  0  0
 34 80  1  0  0  0  0
 34 85  2  0  0  0  0
 35 49  1  0  0  0  0
 35 81  1  0  0  0  0
 35 86  2  0  0  0  0
 36 60  1  0  0  0  0
 36 78  1  0  0  0  0
 36 87  2  0  0  0  0
 37 72  1  0  0  0  0
 37 77  1  0  0  0  0
 37 88  2  0  0  0  0
 38 73  1  0  0  0  0
 38 82  1  0  0  0  0
 38 89  2  0  0  0  0
 39 42  1  0  0  0  0
 40 49  1  0  0  0  0
 41 77  1  0  0  0  0
 42 44  1  0  0  0  0
 43 45  1  0  0  0  0
 43 46  1  0  0  0  0
 44 48  1  0  0  0  0
 45 50  1  0  0  0  0
 46 78  1  0  0  0  0
 47 50  1  0  0  0  0
 47 78  1  0  0  0  0
 48 81  1  0  0  0  0
 49 77  1  0  0  0  0
 50 76  1  0  0  0  0
 53 73  1  0  0  0  0
 54 74  1  0  0  0  0
 55 74  1  0  0  0  0
 56 74  1  0  0  0  0
 57 83  1  0  0  0  0
 58 61  1  0  0  0  0
 59 71  1  0  0  0  0
 60 62  1  0  0  0  0
 61 69  1  0  0  0  0
 62 63  1  0  0  0  0
 63 64  1  0  0  0  0
 64 65  1  0  0  0  0
 65 66  1  0  0  0  0
 66 67  1  0  0  0  0
 67 68  1  0  0  0  0
 68 70  1  0  0  0  0
 69 84  1  0  0  0  0
 70 84  1  0  0  0  0
 71 91  1  0  0  0  0
 72 74  1  0  0  0  0
 72 82  1  0  0  0  0
 73 83  1  0  0  0  0
 75 76  1  0  0  0  0
M  CHG  2  83   1  84   1
M  ISO  4  36 100  60 100  71 101  91 101
M  END
> <Batch ID>
0032

> <Smiles>
CNC(C)C(=O)NC(C(=O)N1Cc2cc([101O:1][101CH2:1]Cc3cc(C)c(C)cc3CCCNCCCCCCCC[100CH2:0][100C:0](=O)N3CCCC(n4nc(-c5ccc(Oc6ccc(F)cc6F)cc5)c(C(N)=O)c4N)C3)ccc2CC1C(=O)NC1CCCc2ccccc21)C(C)(C)C

> <Shape>
0.123

> <Color>
0.177

> <Negative vol penalty>
0.000

$$$$

  -OEChem-04052316453D

 84 92  0     1  0  0  0  0  0999 V2000
  -28.7856  -11.4709   21.0976 C   0  0  0  0  0  0  0  0  0  0  0  0
  -29.0356  -12.7522   20.6166 C   0  0  0  0  0  0  0  0  0  0  0  0
  -26.8936  -28.6546   20.9207 C   0  0  0  0  0  0  0  0  0  0  0  0
  -25.8618  -27.4580   19.0930 C   0  0  0  0  0  0  0  0  0  0  0  0
  -27.4751  -11.0022   21.1807 C   0  0  0  0  0  0  0  0  0  0  0  0
  -27.9753  -13.5650   20.2174 C   0  0  0  0  0  0  0  0  0  0  0  0
  -28.4073  -18.3074   21.9401 C   0  0  0  0  0  0  0  0  0  0  0  0
  -25.6727  -29.2632   21.2115 C   0  0  0  0  0  0  0  0  0  0  0  0
  -24.6408  -28.0665   19.3839 C   0  0  0  0  0  0  0  0  0  0  0  0
  -29.2950  -19.1493   21.2715 C   0  0  0  0  0  0  0  0  0  0  0  0
  -23.8104  -31.8122   20.0037 C   0  0  0  0  0  0  0  0  0  0  0  0
  -23.8149  -33.1838   20.2571 C   0  0  0  0  0  0  0  0  0  0  0  0
  -27.4468  -20.1433   20.0818 C   0  0  0  0  0  0  0  0  0  0  0  0
  -33.0159  -18.1652   17.1845 C   0  0  0  0  0  0  0  0  0  0  0  0
  -22.9144  -32.7794   22.4623 C   0  0  0  0  0  0  0  0  0  0  0  0
  -26.9882  -27.7521   19.8613 C   0  0  0  0  0  0  0  0  0  0  0  0
  -28.7393  -25.9096   20.0779 C   0  0  0  0  0  0  0  0  0  0  0  0
  -26.3975  -11.8132   20.7914 C   0  0  0  0  0  0  0  0  0  0  0  0
  -27.0315  -18.3698   21.6761 C   0  0  0  0  0  0  0  0  0  0  0  0
  -26.6493  -13.1062   20.2941 C   0  0  0  0  0  0  0  0  0  0  0  0
  -26.5435  -19.3029   20.7502 C   0  0  0  0  0  0  0  0  0  0  0  0
  -33.5423  -19.4005   16.8238 C   0  0  0  0  0  0  0  0  0  0  0  0
  -32.7590  -20.5437   16.9371 C   0  0  0  0  0  0  0  0  0  0  0  0
  -24.5463  -28.9691   20.4432 C   0  0  0  0  0  0  0  0  0  0  0  0
  -28.8151  -20.0655   20.3401 C   0  0  0  0  0  0  0  0  0  0  0  0
  -23.3578  -30.9241   20.9796 C   0  0  0  0  0  0  0  0  0  0  0  0
  -23.3669  -33.6674   21.4863 C   0  0  0  0  0  0  0  0  0  0  0  0
  -22.9099  -31.4078   22.2089 C   0  0  0  0  0  0  0  0  0  0  0  0
  -28.2492  -27.1235   19.5600 C   0  0  0  0  0  0  0  0  0  0  0  0
  -31.4658  -20.3992   17.4128 C   0  0  0  0  0  0  0  0  0  0  0  0
  -31.7112  -18.1272   17.6494 C   0  0  0  0  0  0  0  0  0  0  0  0
  -29.9682  -25.7545   19.4846 C   0  0  0  0  0  0  0  0  0  0  0  0
  -28.1373  -25.0034   21.0117 C   0  0  0  0  0  0  0  0  0  0  0  0
  -24.8736  -16.3381   20.5275 C   0  0  0  0  0  0  0  0  0  0  0  0
  -22.8023  -18.7163   21.2868 C   0  0  0  0  0  0  0  0  0  0  0  0
  -22.2924  -22.0425   21.8549 C   0  0  0  0  0  0  0  0  0  0  0  0
  -33.2572  -25.9491   14.9801 C   0  0  0  0  0  0  0  0  0  0  0  0
  -25.0017  -11.2456   20.8549 C   0  0  0  0  0  0  0  0  0  0  0  0
  -26.0843  -17.4731   22.4253 C   0  0  0  0  0  0  0  0  0  0  0  0
  -25.0734  -19.4235   20.4457 C   0  0  0  0  0  0  0  0  0  0  0  0
  -23.9079  -12.3065   20.7637 C   0  0  0  0  0  0  0  0  0  0  0  0
  -32.7399  -28.9902   16.7580 C   0  0  0  0  0  0  0  0  0  0  0  0
  -24.2051  -13.2835   19.6305 C   0  0  0  0  0  0  0  0  0  0  0  0
  -31.5625  -28.6773   17.6831 C   0  0  0  0  0  0  0  0  0  0  0  0
  -32.5939  -28.2978   15.4048 C   0  0  0  0  0  0  0  0  0  0  0  0
  -31.1969  -26.5282   16.4001 C   0  0  0  0  0  0  0  0  0  0  0  0
  -25.5239  -14.0269   19.8746 C   0  0  1  0  0  0  0  0  0  0  0  0
  -24.7570  -17.2683   21.7017 C   0  0  1  0  0  0  0  0  0  0  0  0
  -31.3269  -27.1592   17.7969 C   0  0  2  0  0  0  0  0  0  0  0  0
  -34.9459  -19.4742   16.3197 C   0  0  0  0  0  0  0  0  0  0  0  0
  -20.4855  -23.6906   22.4175 C   0  0  0  0  0  0  0  0  0  0  0  0
  -21.7833  -18.5759   18.4142 C   0  0  0  0  0  0  0  0  0  0  0  0
  -20.7048  -20.8085   18.7614 C   0  0  0  0  0  0  0  0  0  0  0  0
  -19.9972  -18.8552   20.1422 C   0  0  0  0  0  0  0  0  0  0  0  0
  -23.6290  -22.8230   24.3775 C   0  0  0  0  0  0  0  0  0  0  0  0
  -33.2968  -21.8822   16.5556 C   0  0  0  0  0  0  0  0  0  0  0  0
  -30.5683  -21.6042   17.5574 C   0  0  0  0  0  0  0  0  0  0  0  0
  -33.2990  -22.1598   15.0396 C   0  0  0  0  0  0  0  0  0  0  0  0
  -33.8020  -23.5497   14.6558 C   0  0  0  0  0  0  0  0  0  0  0  0
  -29.3139  -21.2989   18.3688 C   0  0  0  0  0  0  0  0  0  1  0  0
  -22.2493  -19.9226   20.5671 C   0  0  1  0  0  0  0  0  0  0  0  0
  -21.5666  -22.7744   22.9694 C   0  0  2  0  0  0  0  0  0  0  0  0
  -21.2116  -19.5372   19.4753 C   0  0  0  0  0  0  0  0  0  0  0  0
  -29.0977  -27.6987   18.7037 N   0  0  0  0  0  0  0  0  0  0  0  0
  -30.9197  -19.2162   17.7732 N   0  0  0  0  0  0  0  0  0  0  0  0
  -30.1333  -26.8426   18.6790 N   0  0  0  0  0  0  0  0  0  0  0  0
  -24.1879  -18.5206   21.1995 N   0  0  0  0  0  0  0  0  0  0  0  0
  -32.3745  -26.8604   15.5830 N   0  0  0  0  0  0  0  0  0  0  0  0
  -30.9130  -24.7948   19.5786 N   0  0  0  0  0  0  0  0  0  0  0  0
  -26.8705  -25.3153   21.5237 N   0  0  0  0  0  0  0  0  0  0  0  0
  -25.3382  -15.0779   20.8521 N   0  0  0  0  0  0  0  0  0  0  0  0
  -21.7276  -20.8107   21.6004 N   0  0  0  0  0  0  0  0  0  0  0  0
  -32.9810  -24.6060   15.2044 N   0  0  0  0  0  0  0  0  0  0  0  0
  -22.5252  -23.5999   23.7571 N   0  3  0  0  0  0  0  0  0  0  0  0
  -28.7131  -23.9564   21.3937 O   0  0  0  0  0  0  0  0  0  0  0  0
  -24.5635  -16.7339   19.4100 O   0  0  0  0  0  0  0  0  0  0  0  0
  -22.0342  -17.9789   21.9096 O   0  0  0  0  0  0  0  0  0  0  0  0
  -23.2610  -22.5178   21.2664 O   0  0  0  0  0  0  0  0  0  0  0  0
  -34.2232  -26.3062   14.2972 O   0  0  0  0  0  0  0  0  0  0  0  0
  -23.3547  -29.5626   20.7269 O   0  0  0  0  0  0  0  0  0  0  0  0
  -29.6795  -20.8879   19.6856 O   0  0  0  0  0  0  0  0  0  1  0  0
  -23.3728  -34.9845   21.7301 F   0  0  0  0  0  0  0  0  0  0  0  0
  -22.4751  -30.5594   23.1508 F   0  0  0  0  0  0  0  0  0  0  0  0
  -30.9771  -16.6476   18.1142 Cl  0  0  0  0  0  0  0  0  0  0  0  0
  1  2  1  0  0  0  0
  1  5  2  0  0  0  0
  2  6  2  0  0  0  0
  3  8  2  0  0  0  0
  3 16  1  0  0  0  0
  4  9  1  0  0  0  0
  4 16  2  0  0  0  0
  5 18  1  0  0  0  0
  6 20  1  0  0  0  0
  7 10  2  0  0  0  0
  7 19  1  0  0  0  0
  8 24  1  0  0  0  0
  9 24  2  0  0  0  0
 10 25  1  0  0  0  0
 11 12  2  0  0  0  0
 11 26  1  0  0  0  0
 12 27  1  0  0  0  0
 13 21  1  0  0  0  0
 13 25  2  0  0  0  0
 14 22  2  0  0  0  0
 14 31  1  0  0  0  0
 15 27  2  0  0  0  0
 15 28  1  0  0  0  0
 16 29  1  0  0  0  0
 17 29  1  0  0  0  0
 17 32  2  0  0  0  0
 17 33  1  0  0  0  0
 18 20  2  0  0  0  0
 18 38  1  0  0  0  0
 19 21  2  0  0  0  0
 19 39  1  0  0  0  0
 20 47  1  0  0  0  0
 21 40  1  0  0  0  0
 22 23  1  0  0  0  0
 22 50  1  0  0  0  0
 23 30  2  0  0  0  0
 23 56  1  0  0  0  0
 24 80  1  0  0  0  0
 25 81  1  0  0  0  0
 26 28  2  0  0  0  0
 26 80  1  0  0  0  0
 27 82  1  0  0  0  0
 28 83  1  0  0  0  0
 29 64  2  0  0  0  0
 30 57  1  0  0  0  0
 30 65  1  0  0  0  0
 31 65  2  0  0  0  0
 31 84  1  0  0  0  0
 32 66  1  0  0  0  0
 32 69  1  0  0  0  0
 33 70  1  0  0  0  0
 33 75  2  0  0  0  0
 34 48  1  0  0  0  0
 34 71  1  0  0  0  0
 34 76  2  0  0  0  0
 35 61  1  0  0  0  0
 35 67  1  0  0  0  0
 35 77  2  0  0  0  0
 36 62  1  0  0  0  0
 36 72  1  0  0  0  0
 36 78  2  0  0  0  0
 37 68  1  0  0  0  0
 37 73  1  0  0  0  0
 37 79  2  0  0  0  0
 38 41  1  0  0  0  0
 39 48  1  0  0  0  0
 40 67  1  0  0  0  0
 41 43  1  0  0  0  0
 42 44  1  0  0  0  0
 42 45  1  0  0  0  0
 43 47  1  0  0  0  0
 44 49  1  0  0  0  0
 45 68  1  0  0  0  0
 46 49  1  0  0  0  0
 46 68  1  0  0  0  0
 47 71  1  0  0  0  0
 48 67  1  0  0  0  0
 49 66  1  0  0  0  0
 51 62  1  0  0  0  0
 52 63  1  0  0  0  0
 53 63  1  0  0  0  0
 54 63  1  0  0  0  0
 55 74  1  0  0  0  0
 56 58  1  0  0  0  0
 57 60  1  0  0  0  0
 58 59  1  0  0  0  0
 59 73  1  0  0  0  0
 60 81  1  0  0  0  0
 61 63  1  0  0  0  0
 61 72  1  0  0  0  0
 62 74  1  0  0  0  0
 64 66  1  0  0  0  0
M  CHG  1  74   1
M  ISO  4  37 100  60 101  73 100  81 101
M  END
> <Batch ID>
0032

> <Smiles>
CNC(C)C(=O)NC(C(=O)N1Cc2cc([101O:1][101CH2:1]Cc3nc(Cl)cc(C)c3CCC[100NH:0][100C:0](=O)N3CCCC(n4nc(-c5ccc(Oc6ccc(F)cc6F)cc5)c(C(N)=O)c4N)C3)ccc2CC1C(=O)NC1CCCc2ccccc21)C(C)(C)C

> <Shape>
0.186

> <Color>
0.082

> <Negative vol penalty>
0.000

$$$$

  -OEChem-04052316453D

 91100  0     1  0  0  0  0  0999 V2000
  -29.2079  -31.4723   26.9306 C   0  0  0  0  0  0  0  0  0  0  0  0
  -28.6279  -30.3714   26.3085 C   0  0  0  0  0  0  0  0  0  0  0  0
  -24.1131  -10.6633   23.4647 C   0  0  0  0  0  0  0  0  0  0  0  0
  -24.1175  -12.9420   24.2677 C   0  0  0  0  0  0  0  0  0  0  0  0
  -28.5509  -32.7020   26.9234 C   0  0  0  0  0  0  0  0  0  0  0  0
  -27.3898  -30.4993   25.6798 C   0  0  0  0  0  0  0  0  0  0  0  0
  -27.2761  -28.2604   21.1390 C   0  0  0  0  0  0  0  0  0  0  0  0
  -23.6395  -10.2280   24.7023 C   0  0  0  0  0  0  0  0  0  0  0  0
  -23.6437  -12.5067   25.5054 C   0  0  0  0  0  0  0  0  0  0  0  0
  -27.1362  -26.8734   21.1163 C   0  0  0  0  0  0  0  0  0  0  0  0
  -20.6854  -10.1299   26.3446 C   0  0  0  0  0  0  0  0  0  0  0  0
  -19.6409   -9.2055   26.3502 C   0  0  0  0  0  0  0  0  0  0  0  0
  -24.7847  -27.1244   20.6405 C   0  0  0  0  0  0  0  0  0  0  0  0
  -26.9445  -21.9826   19.8684 C   0  0  0  0  0  0  0  0  0  0  0  0
  -25.8749  -22.1008   22.0285 C   0  0  0  0  0  0  0  0  0  0  0  0
  -21.0384   -7.6337   27.5392 C   0  0  0  0  0  0  0  0  0  0  0  0
  -24.3522  -12.0203   23.2474 C   0  0  0  0  0  0  0  0  0  0  0  0
  -24.0758  -12.8646   20.8561 C   0  0  0  0  0  0  0  0  0  0  0  0
  -27.3086  -32.8474   26.2860 C   0  0  0  0  0  0  0  0  0  0  0  0
  -26.1673  -29.0912   20.9231 C   0  0  0  0  0  0  0  0  0  0  0  0
  -26.7149  -31.7318   25.6653 C   0  0  0  0  0  0  0  0  0  0  0  0
  -24.9136  -28.5216   20.6585 C   0  0  0  0  0  0  0  0  0  0  0  0
  -25.9345  -19.9934   20.8264 C   0  0  0  0  0  0  0  0  0  0  0  0
  -26.5722  -22.7182   20.9914 C   0  0  0  0  0  0  0  0  0  0  0  0
  -26.6266  -20.6266   19.7852 C   0  0  0  0  0  0  0  0  0  0  0  0
  -25.5432  -20.7464   21.9400 C   0  0  0  0  0  0  0  0  0  0  0  0
  -23.4047  -11.1497   25.7227 C   0  0  0  0  0  0  0  0  0  0  0  0
  -25.8898  -26.3052   20.8699 C   0  0  0  0  0  0  0  0  0  0  0  0
  -21.9065   -9.8062   26.9361 C   0  0  0  0  0  0  0  0  0  0  0  0
  -19.8174   -7.9574   26.9476 C   0  0  0  0  0  0  0  0  0  0  0  0
  -22.0830   -8.5581   27.5335 C   0  0  0  0  0  0  0  0  0  0  0  0
  -24.8420  -12.4705   21.9693 C   0  0  0  0  0  0  0  0  0  0  0  0
  -25.0045  -13.2001   19.9014 C   0  0  0  0  0  0  0  0  0  0  0  0
  -22.6518  -12.9222   20.6990 C   0  0  0  0  0  0  0  0  0  0  0  0
  -24.6338  -31.2783   22.6460 C   0  0  0  0  0  0  0  0  0  0  0  0
  -22.9921  -31.7371   19.8862 C   0  0  0  0  0  0  0  0  0  0  0  0
  -21.9432  -30.4731   16.8947 C   0  0  0  0  0  0  0  0  0  0  0  0
  -30.6937  -15.0400   20.2165 C   0  0  0  0  0  0  0  0  0  0  0  0
  -26.6144  -34.1850   26.3454 C   0  0  0  0  0  0  0  0  0  0  0  0
  -26.3401  -30.5854   20.9243 C   0  0  0  0  0  0  0  0  0  0  0  0
  -25.6017  -18.5301   20.7193 C   0  0  0  0  0  0  0  0  0  0  0  0
  -23.6959  -29.3695   20.4003 C   0  0  0  0  0  0  0  0  0  0  0  0
  -25.4801  -34.3280   25.3340 C   0  0  0  0  0  0  0  0  0  0  0  0
  -29.4610  -12.1799   18.4910 C   0  0  0  0  0  0  0  0  0  0  0  0
  -24.5920  -33.0879   25.3489 C   0  0  0  0  0  0  0  0  0  0  0  0
  -28.0683  -11.9657   19.0864 C   0  0  0  0  0  0  0  0  0  0  0  0
  -30.4552  -12.6683   19.5423 C   0  0  0  0  0  0  0  0  0  0  0  0
  -28.6367  -13.6537   20.8825 C   0  0  0  0  0  0  0  0  0  0  0  0
  -24.2276  -18.9645   22.7489 C   0  0  0  0  0  0  0  0  0  0  0  0
  -25.3847  -31.8368   24.9515 C   0  0  1  0  0  0  0  0  0  0  0  0
  -25.0416  -31.3368   21.2011 C   0  0  1  0  0  0  0  0  0  0  0  0
  -27.5860  -13.2146   19.8484 C   0  0  2  0  0  0  0  0  0  0  0  0
  -25.1508  -17.9393   22.0693 C   0  0  1  0  0  0  0  0  0  0  0  0
  -24.3804  -16.6314   21.8275 C   0  0  0  0  0  0  0  0  0  0  0  0
  -27.1362  -16.7608   25.1810 C   0  0  0  0  0  0  0  0  0  0  0  0
  -20.5842  -31.0706   14.8715 C   0  0  0  0  0  0  0  0  0  0  0  0
  -20.4288  -31.3221   21.4884 C   0  0  0  0  0  0  0  0  0  0  0  0
  -19.2145  -30.9824   19.3255 C   0  0  0  0  0  0  0  0  0  0  0  0
  -20.3190  -33.1674   19.8039 C   0  0  0  0  0  0  0  0  0  0  0  0
  -24.2703  -30.1547   15.0942 C   0  0  0  0  0  0  0  0  0  0  0  0
  -27.0481  -19.8794   18.5602 C   0  0  0  0  0  0  0  0  0  0  0  0
  -26.9230  -24.1740   21.0852 C   0  0  0  0  0  0  0  0  0  1  0  0
  -26.3706  -17.6330   22.9606 C   0  0  0  0  0  0  0  0  0  0  0  0
  -25.9326  -17.0851   24.3106 C   0  0  0  0  0  0  0  0  0  0  0  0
  -28.5432  -19.5340   18.5804 C   0  0  0  0  0  0  0  0  0  0  0  0
  -28.8972  -18.6278   19.7615 C   0  0  0  0  0  0  0  0  0  0  0  0
  -30.3972  -18.3208   19.7957 C   0  0  0  0  0  0  0  0  0  0  0  0
  -30.7821  -17.4077   20.9551 C   0  0  0  0  0  0  0  0  0  0  0  0
  -21.7445  -31.1478   19.2737 C   0  0  1  0  0  0  0  0  0  0  0  0
  -21.9728  -31.0506   15.4911 C   0  0  2  0  0  0  0  0  0  0  0  0
  -20.4491  -31.6387   19.9796 C   0  0  0  0  0  0  0  0  0  0  0  0
  -26.1563  -12.5480   21.7441 N   0  0  0  0  0  0  0  0  0  0  0  0
  -26.2231  -12.9944   20.4783 N   0  0  0  0  0  0  0  0  0  0  0  0
  -23.9147  -30.8253   20.4183 N   0  0  0  0  0  0  0  0  0  0  0  0
  -29.9384  -13.8557   20.2271 N   0  0  0  0  0  0  0  0  0  0  0  0
  -24.8894  -13.6481   18.6332 N   0  0  0  0  0  0  0  0  0  0  0  0
  -21.8445  -12.5420   21.7797 N   0  0  0  0  0  0  0  0  0  0  0  0
  -25.5745  -31.7932   23.5174 N   0  0  0  0  0  0  0  0  0  0  0  0
  -21.8032  -31.4581   17.8494 N   0  0  0  0  0  0  0  0  0  0  0  0
  -30.1284  -16.1199   20.8836 N   0  0  0  0  0  0  0  0  0  0  0  0
  -22.8663  -30.2399   14.6162 N   0  3  0  0  0  0  0  0  0  0  0  0
  -22.1113  -13.2839   19.6263 O   0  0  0  0  0  0  0  0  0  0  0  0
  -23.5455  -30.8026   22.9479 O   0  0  0  0  0  0  0  0  0  0  0  0
  -23.1459  -32.9611   19.8858 O   0  0  0  0  0  0  0  0  0  0  0  0
  -22.0314  -29.2684   17.1213 O   0  0  0  0  0  0  0  0  0  0  0  0
  -31.7879  -15.1300   19.6496 O   0  0  0  0  0  0  0  0  0  0  0  0
  -24.8712  -20.2160   23.0103 O   0  0  0  0  0  0  0  0  0  0  0  0
  -22.9423  -10.7253   26.9304 O   0  0  0  0  0  0  0  0  0  0  0  0
  -25.7504  -24.9517   20.8478 O   0  0  0  0  0  0  0  0  0  1  0  0
  -18.8137   -7.0704   26.9543 F   0  0  0  0  0  0  0  0  0  0  0  0
  -23.2533   -8.2418   28.1045 F   0  0  0  0  0  0  0  0  0  0  0  0
  1  2  1  0  0  0  0
  1  5  2  0  0  0  0
  2  6  2  0  0  0  0
  3  8  2  0  0  0  0
  3 17  1  0  0  0  0
  4  9  1  0  0  0  0
  4 17  2  0  0  0  0
  5 19  1  0  0  0  0
  6 21  1  0  0  0  0
  7 10  2  0  0  0  0
  7 20  1  0  0  0  0
  8 27  1  0  0  0  0
  9 27  2  0  0  0  0
 10 28  1  0  0  0  0
 11 12  2  0  0  0  0
 11 29  1  0  0  0  0
 12 30  1  0  0  0  0
 13 22  1  0  0  0  0
 13 28  2  0  0  0  0
 14 24  1  0  0  0  0
 14 25  2  0  0  0  0
 15 24  2  0  0  0  0
 15 26  1  0  0  0  0
 16 30  2  0  0  0  0
 16 31  1  0  0  0  0
 17 32  1  0  0  0  0
 18 32  1  0  0  0  0
 18 33  2  0  0  0  0
 18 34  1  0  0  0  0
 19 21  2  0  0  0  0
 19 39  1  0  0  0  0
 20 22  2  0  0  0  0
 20 40  1  0  0  0  0
 21 50  1  0  0  0  0
 22 42  1  0  0  0  0
 23 25  1  0  0  0  0
 23 26  2  0  0  0  0
 23 41  1  0  0  0  0
 24 62  1  0  0  0  0
 25 61  1  0  0  0  0
 26 87  1  0  0  0  0
 27 88  1  0  0  0  0
 28 89  1  0  0  0  0
 29 31  2  0  0  0  0
 29 88  1  0  0  0  0
 30 90  1  0  0  0  0
 31 91  1  0  0  0  0
 32 72  2  0  0  0  0
 33 73  1  0  0  0  0
 33 76  1  0  0  0  0
 34 77  1  0  0  0  0
 34 82  2  0  0  0  0
 35 51  1  0  0  0  0
 35 78  1  0  0  0  0
 35 83  2  0  0  0  0
 36 69  1  0  0  0  0
 36 74  1  0  0  0  0
 36 84  2  0  0  0  0
 37 70  1  0  0  0  0
 37 79  1  0  0  0  0
 37 85  2  0  0  0  0
 38 75  1  0  0  0  0
 38 80  1  0  0  0  0
 38 86  2  0  0  0  0
 39 43  1  0  0  0  0
 40 51  1  0  0  0  0
 41 53  1  0  0  0  0
 42 74  1  0  0  0  0
 43 45  1  0  0  0  0
 44 46  1  0  0  0  0
 44 47  1  0  0  0  0
 45 50  1  0  0  0  0
 46 52  1  0  0  0  0
 47 75  1  0  0  0  0
 48 52  1  0  0  0  0
 48 75  1  0  0  0  0
 49 53  1  0  0  0  0
 49 87  1  0  0  0  0
 50 78  1  0  0  0  0
 51 74  1  0  0  0  0
 52 73  1  0  0  0  0
 53 54  1  0  0  0  0
 53 63  1  0  0  0  0
 55 64  1  0  0  0  0
 56 70  1  0  0  0  0
 57 71  1  0  0  0  0
 58 71  1  0  0  0  0
 59 71  1  0  0  0  0
 60 81  1  0  0  0  0
 61 65  1  0  0  0  0
 62 89  1  0  0  0  0
 63 64  1  0  0  0  0
 65 66  1  0  0  0  0
 66 67  1  0  0  0  0
 67 68  1  0  0  0  0
 68 80  1  0  0  0  0
 69 71  1  0  0  0  0
 69 79  1  0  0  0  0
 70 81  1  0  0  0  0
 72 73  1  0  0  0  0
M  CHG  1  81   1
M  ISO  4  38 100  62 101  80 100  89 101
M  END
> <Batch ID>
0032

> <Smiles>
CCCC1(C)COc2cc([101CH2:1][101O:1]c3ccc4c(c3)CN(C(=O)C(NC(=O)C(C)NC)C(C)(C)C)C(C(=O)NC3CCCc5ccccc53)C4)cc(CCCCC[100NH:0][100C:0](=O)N3CCCC(n4nc(-c5ccc(Oc6ccc(F)cc6F)cc5)c(C(N)=O)c4N)C3)c2C1

> <Shape>
0.241

> <Color>
0.093

> <Negative vol penalty>
0.000

$$$$

  -OEChem-04052316453D

 82 90  0     1  0  0  0  0  0999 V2000
  -22.5276  -23.8149   19.5861 C   0  0  0  0  0  0  0  0  0  0  0  0
  -23.7035  -23.1326   19.8812 C   0  0  0  0  0  0  0  0  0  0  0  0
  -22.6207  -27.7733   20.6421 C   0  0  0  0  0  0  0  0  0  0  0  0
  -23.3790  -26.0492   22.1553 C   0  0  0  0  0  0  0  0  0  0  0  0
  -21.2977  -23.2779   19.9641 C   0  0  0  0  0  0  0  0  0  0  0  0
  -23.6502  -21.9132   20.5555 C   0  0  0  0  0  0  0  0  0  0  0  0
  -26.6950  -18.4246   18.5051 C   0  0  0  0  0  0  0  0  0  0  0  0
  -21.3316  -27.6639   21.1635 C   0  0  0  0  0  0  0  0  0  0  0  0
  -22.0899  -25.9399   22.6768 C   0  0  0  0  0  0  0  0  0  0  0  0
  -28.0555  -18.5173   18.7952 C   0  0  0  0  0  0  0  0  0  0  0  0
  -19.6581  -28.7098   23.9091 C   0  0  0  0  0  0  0  0  0  0  0  0
  -18.9758  -29.8901   24.2039 C   0  0  0  0  0  0  0  0  0  0  0  0
  -27.8118  -16.7903   20.4617 C   0  0  0  0  0  0  0  0  0  0  0  0
  -31.4378  -20.3451   20.3938 C   0  0  0  0  0  0  0  0  0  0  0  0
  -31.1303  -22.5022   21.4373 C   0  0  0  0  0  0  0  0  0  0  0  0
  -17.2376  -29.2752   22.6425 C   0  0  0  0  0  0  0  0  0  0  0  0
  -23.6444  -26.9659   21.1380 C   0  0  0  0  0  0  0  0  0  0  0  0
  -26.0064  -27.9255   21.0490 C   0  0  0  0  0  0  0  0  0  0  0  0
  -21.2288  -22.0466   20.6349 C   0  0  0  0  0  0  0  0  0  0  0  0
  -25.8791  -17.5202   19.2000 C   0  0  0  0  0  0  0  0  0  0  0  0
  -22.4183  -21.3598   20.9441 C   0  0  0  0  0  0  0  0  0  0  0  0
  -26.4417  -16.6862   20.1768 C   0  0  0  0  0  0  0  0  0  0  0  0
  -31.2781  -21.7266   20.2874 C   0  0  0  0  0  0  0  0  0  0  0  0
  -31.4496  -19.7390   21.6501 C   0  0  0  0  0  0  0  0  0  0  0  0
  -31.3018  -20.5146   22.8000 C   0  0  0  0  0  0  0  0  0  0  0  0
  -21.0662  -26.7473   22.1808 C   0  0  0  0  0  0  0  0  0  0  0  0
  -28.6136  -17.7021   19.7756 C   0  0  0  0  0  0  0  0  0  0  0  0
  -19.1303  -27.8122   22.9810 C   0  0  0  0  0  0  0  0  0  0  0  0
  -17.7656  -30.1728   23.5706 C   0  0  0  0  0  0  0  0  0  0  0  0
  -17.9200  -28.0949   22.3477 C   0  0  0  0  0  0  0  0  0  0  0  0
  -31.1421  -21.8962   22.6937 C   0  0  0  0  0  0  0  0  0  0  0  0
  -24.9762  -27.0780   20.5994 C   0  0  0  0  0  0  0  0  0  0  0  0
  -27.0624  -27.6553   20.2134 C   0  0  0  0  0  0  0  0  0  0  0  0
  -26.0087  -28.8722   22.1258 C   0  0  0  0  0  0  0  0  0  0  0  0
  -23.3529  -17.7889   21.1105 C   0  0  0  0  0  0  0  0  0  0  0  0
  -23.3595  -14.5502   20.9287 C   0  0  0  0  0  0  0  0  0  0  0  0
  -25.1224  -11.6839   20.3600 C   0  0  0  0  0  0  0  0  0  0  0  0
  -29.5197  -23.2305   17.4031 C   0  0  0  0  0  0  0  0  0  0  0  0
  -19.8791  -21.5290   21.0652 C   0  0  0  0  0  0  0  0  0  0  0  0
  -24.4186  -17.4135   18.8567 C   0  0  0  0  0  0  0  0  0  0  0  0
  -25.6130  -15.6845   20.9373 C   0  0  0  0  0  0  0  0  0  0  0  0
  -19.8867  -20.0505   21.4451 C   0  0  0  0  0  0  0  0  0  0  0  0
  -27.5239  -25.6500   15.7180 C   0  0  0  0  0  0  0  0  0  0  0  0
  -21.0685  -19.7400   22.3582 C   0  0  0  0  0  0  0  0  0  0  0  0
  -26.7592  -26.3436   16.8468 C   0  0  0  0  0  0  0  0  0  0  0  0
  -27.7068  -24.1591   15.9933 C   0  0  0  0  0  0  0  0  0  0  0  0
  -27.5567  -24.5343   18.4245 C   0  0  0  0  0  0  0  0  0  0  0  0
  -22.4002  -20.0226   21.6523 C   0  0  1  0  0  0  0  0  0  0  0  0
  -23.5813  -16.8196   19.9853 C   0  0  1  0  0  0  0  0  0  0  0  0
  -27.3962  -26.0502   18.2185 C   0  0  2  0  0  0  0  0  0  0  0  0
  -31.3160  -19.8484   24.1406 C   0  0  0  0  0  0  0  0  0  0  0  0
  -24.8651   -9.1879   20.3212 C   0  0  0  0  0  0  0  0  0  0  0  0
  -23.3722  -14.5038   23.9795 C   0  0  0  0  0  0  0  0  0  0  0  0
  -24.0664  -12.1008   23.8707 C   0  0  0  0  0  0  0  0  0  0  0  0
  -21.8726  -12.8079   22.9167 C   0  0  0  0  0  0  0  0  0  0  0  0
  -25.8580  -11.5364   17.4971 C   0  0  0  0  0  0  0  0  0  0  0  0
  -31.6226  -18.2420   21.7348 C   0  0  0  0  0  0  0  0  0  0  0  0
  -31.2667  -22.3740   18.9438 C   0  0  0  0  0  0  0  0  0  0  0  0
  -30.3396  -17.4900   21.3978 C   0  0  0  0  0  0  0  0  0  1  0  0
  -24.0069  -13.4365   21.7159 C   0  0  1  0  0  0  0  0  0  0  0  0
  -24.8197  -10.4686   19.5022 C   0  0  2  0  0  0  0  0  0  0  0  0
  -23.3450  -13.2324   23.1079 C   0  0  0  0  0  0  0  0  0  0  0  0
  -25.3443  -26.3259   19.5588 N   0  0  0  0  0  0  0  0  0  0  0  0
  -26.6177  -26.6999   19.3476 N   0  0  0  0  0  0  0  0  0  0  0  0
  -24.1887  -15.6223   20.5699 N   0  0  0  0  0  0  0  0  0  0  0  0
  -28.3167  -23.9495   17.3086 N   0  0  0  0  0  0  0  0  0  0  0  0
  -28.3187  -28.1443   20.1420 N   0  0  0  0  0  0  0  0  0  0  0  0
  -24.8398  -29.0245   22.8839 N   0  0  0  0  0  0  0  0  0  0  0  0
  -22.7187  -18.9555   20.7280 N   0  0  0  0  0  0  0  0  0  0  0  0
  -23.9714  -12.2566   20.8586 N   0  0  0  0  0  0  0  0  0  0  0  0
  -30.0332  -23.0831   18.6858 N   0  0  0  0  0  0  0  0  0  0  0  0
  -25.8123  -10.3548   18.3964 N   0  3  0  0  0  0  0  0  0  0  0  0
  -27.0121  -29.5744   22.3969 O   0  0  0  0  0  0  0  0  0  0  0  0
  -23.7232  -17.4991   22.2421 O   0  0  0  0  0  0  0  0  0  0  0  0
  -22.1638  -14.4684   20.6366 O   0  0  0  0  0  0  0  0  0  0  0  0
  -26.2657  -12.0829   20.5701 O   0  0  0  0  0  0  0  0  0  0  0  0
  -30.0964  -22.7598   16.4168 O   0  0  0  0  0  0  0  0  0  0  0  0
  -19.8085  -26.6405   22.6900 O   0  0  0  0  0  0  0  0  0  0  0  0
  -29.9411  -17.7911   20.0610 O   0  0  0  0  0  0  0  0  0  1  0  0
  -17.1097  -31.3056   23.8549 F   0  0  0  0  0  0  0  0  0  0  0  0
  -17.4074  -27.2359   21.4561 F   0  0  0  0  0  0  0  0  0  0  0  0
  -30.9580  -22.8909   24.0929 Cl  0  0  0  0  0  0  0  0  0  0  0  0
  1  2  1  0  0  0  0
  1  5  2  0  0  0  0
  2  6  2  0  0  0  0
  3  8  2  0  0  0  0
  3 17  1  0  0  0  0
  4  9  1  0  0  0  0
  4 17  2  0  0  0  0
  5 19  1  0  0  0  0
  6 21  1  0  0  0  0
  7 10  2  0  0  0  0
  7 20  1  0  0  0  0
  8 26  1  0  0  0  0
  9 26  2  0  0  0  0
 10 27  1  0  0  0  0
 11 12  2  0  0  0  0
 11 28  1  0  0  0  0
 12 29  1  0  0  0  0
 13 22  1  0  0  0  0
 13 27  2  0  0  0  0
 14 23  2  0  0  0  0
 14 24  1  0  0  0  0
 15 23  1  0  0  0  0
 15 31  2  0  0  0  0
 16 29  2  0  0  0  0
 16 30  1  0  0  0  0
 17 32  1  0  0  0  0
 18 32  1  0  0  0  0
 18 33  2  0  0  0  0
 18 34  1  0  0  0  0
 19 21  2  0  0  0  0
 19 39  1  0  0  0  0
 20 22  2  0  0  0  0
 20 40  1  0  0  0  0
 21 48  1  0  0  0  0
 22 41  1  0  0  0  0
 23 58  1  0  0  0  0
 24 25  2  0  0  0  0
 24 57  1  0  0  0  0
 25 31  1  0  0  0  0
 25 51  1  0  0  0  0
 26 78  1  0  0  0  0
 27 79  1  0  0  0  0
 28 30  2  0  0  0  0
 28 78  1  0  0  0  0
 29 80  1  0  0  0  0
 30 81  1  0  0  0  0
 31 82  1  0  0  0  0
 32 63  2  0  0  0  0
 33 64  1  0  0  0  0
 33 67  1  0  0  0  0
 34 68  1  0  0  0  0
 34 73  2  0  0  0  0
 35 49  1  0  0  0  0
 35 69  1  0  0  0  0
 35 74  2  0  0  0  0
 36 60  1  0  0  0  0
 36 65  1  0  0  0  0
 36 75  2  0  0  0  0
 37 61  1  0  0  0  0
 37 70  1  0  0  0  0
 37 76  2  0  0  0  0
 38 66  1  0  0  0  0
 38 71  1  0  0  0  0
 38 77  2  0  0  0  0
 39 42  1  0  0  0  0
 40 49  1  0  0  0  0
 41 65  1  0  0  0  0
 42 44  1  0  0  0  0
 43 45  1  0  0  0  0
 43 46  1  0  0  0  0
 44 48  1  0  0  0  0
 45 50  1  0  0  0  0
 46 66  1  0  0  0  0
 47 50  1  0  0  0  0
 47 66  1  0  0  0  0
 48 69  1  0  0  0  0
 49 65  1  0  0  0  0
 50 64  1  0  0  0  0
 52 61  1  0  0  0  0
 53 62  1  0  0  0  0
 54 62  1  0  0  0  0
 55 62  1  0  0  0  0
 56 72  1  0  0  0  0
 57 59  1  0  0  0  0
 58 71  1  0  0  0  0
 59 79  1  0  0  0  0
 60 62  1  0  0  0  0
 60 70  1  0  0  0  0
 61 72  1  0  0  0  0
 63 64  1  0  0  0  0
M  CHG  1  72   1
M  ISO  4  38 100  59 101  71 100  79 101
M  END
> <Batch ID>
0032

> <Smiles>
CNC(C)C(=O)NC(C(=O)N1Cc2cc([101O:1][101CH2:1]Cc3cc(C[100NH:0][100C:0](=O)N4CCCC(n5nc(-c6ccc(Oc7ccc(F)cc7F)cc6)c(C(N)=O)c5N)C4)cc(Cl)c3C)ccc2CC1C(=O)NC1CCCc2ccccc21)C(C)(C)C

> <Shape>
0.215

> <Color>
0.071

> <Negative vol penalty>
0.000

$$$$

  -OEChem-04052316453D

 85 93  0     1  0  0  0  0  0999 V2000
  -35.1205  -18.9203   24.6567 C   0  0  0  0  0  0  0  0  0  0  0  0
  -34.2533  -19.5452   23.7663 C   0  0  0  0  0  0  0  0  0  0  0  0
  -22.9875  -10.0503   19.8924 C   0  0  0  0  0  0  0  0  0  0  0  0
  -23.8005   -9.8607   22.1596 C   0  0  0  0  0  0  0  0  0  0  0  0
  -35.0221  -19.1810   26.0229 C   0  0  0  0  0  0  0  0  0  0  0  0
  -33.2864  -20.4304   24.2417 C   0  0  0  0  0  0  0  0  0  0  0  0
  -33.0000  -24.6632   21.4765 C   0  0  0  0  0  0  0  0  0  0  0  0
  -29.0240  -20.7563   21.0219 C   0  0  0  0  0  0  0  0  0  0  0  0
  -28.7868  -21.9074   20.2708 C   0  0  0  0  0  0  0  0  0  0  0  0
  -22.2081   -8.9082   20.0764 C   0  0  0  0  0  0  0  0  0  0  0  0
  -23.0211   -8.7186   22.3436 C   0  0  0  0  0  0  0  0  0  0  0  0
  -32.3209  -24.5852   20.2614 C   0  0  0  0  0  0  0  0  0  0  0  0
  -23.1775   -5.4391   21.5368 C   0  0  0  0  0  0  0  0  0  0  0  0
  -23.7718   -4.3426   22.1614 C   0  0  0  0  0  0  0  0  0  0  0  0
  -30.3745  -25.5683   21.2931 C   0  0  0  0  0  0  0  0  0  0  0  0
  -28.7790  -19.4076   19.0324 C   0  0  0  0  0  0  0  0  0  0  0  0
  -22.1182   -4.4479   23.9196 C   0  0  0  0  0  0  0  0  0  0  0  0
  -23.7838  -10.5265   20.9340 C   0  0  0  0  0  0  0  0  0  0  0  0
  -24.2145  -13.0402   20.9907 C   0  0  0  0  0  0  0  0  0  0  0  0
  -34.0598  -20.0771   26.5143 C   0  0  0  0  0  0  0  0  0  0  0  0
  -32.3668  -25.1851   22.6136 C   0  0  0  0  0  0  0  0  0  0  0  0
  -33.1741  -20.7022   25.6158 C   0  0  0  0  0  0  0  0  0  0  0  0
  -31.0486  -25.6541   22.5208 C   0  0  0  0  0  0  0  0  0  0  0  0
  -29.0202  -19.5064   20.4027 C   0  0  0  0  0  0  0  0  0  0  0  0
  -28.5456  -21.8087   18.9005 C   0  0  0  0  0  0  0  0  0  0  0  0
  -28.5417  -20.5587   18.2813 C   0  0  0  0  0  0  0  0  0  0  0  0
  -22.2249   -8.2424   21.3020 C   0  0  0  0  0  0  0  0  0  0  0  0
  -31.0070  -25.0351   20.1702 C   0  0  0  0  0  0  0  0  0  0  0  0
  -22.0536   -6.0401   22.1036 C   0  0  0  0  0  0  0  0  0  0  0  0
  -23.2422   -3.8470   23.3528 C   0  0  0  0  0  0  0  0  0  0  0  0
  -21.5239   -5.5445   23.2950 C   0  0  0  0  0  0  0  0  0  0  0  0
  -24.5895  -11.7058   20.7445 C   0  0  0  0  0  0  0  0  0  0  0  0
  -25.3245  -13.7763   20.6551 C   0  0  0  0  0  0  0  0  0  0  0  0
  -22.9738  -13.5672   21.4792 C   0  0  0  0  0  0  0  0  0  0  0  0
  -31.5893  -24.0371   25.4739 C   0  0  0  0  0  0  0  0  0  0  0  0
  -30.7264  -27.1119   26.0421 C   0  0  0  0  0  0  0  0  0  0  0  0
  -29.7434  -30.1259   24.7786 C   0  0  0  0  0  0  0  0  0  0  0  0
  -30.8447  -14.5880   20.7752 C   0  0  0  0  0  0  0  0  0  0  0  0
  -33.9606  -20.2909   28.0039 C   0  0  0  0  0  0  0  0  0  0  0  0
  -33.1220  -25.2870   23.9104 C   0  0  0  0  0  0  0  0  0  0  0  0
  -30.3306  -26.2418   23.7072 C   0  0  0  0  0  0  0  0  0  0  0  0
  -33.1536  -21.5280   28.3893 C   0  0  0  0  0  0  0  0  0  0  0  0
  -29.5655  -12.4280   18.2504 C   0  0  0  0  0  0  0  0  0  0  0  0
  -31.8523  -21.5851   27.5955 C   0  0  0  0  0  0  0  0  0  0  0  0
  -28.1288  -12.1530   18.6978 C   0  0  0  0  0  0  0  0  0  0  0  0
  -30.5178  -12.5272   19.4400 C   0  0  0  0  0  0  0  0  0  0  0  0
  -28.6769  -13.2188   20.9254 C   0  0  0  0  0  0  0  0  0  0  0  0
  -32.1282  -21.6875   26.0905 C   0  0  1  0  0  0  0  0  0  0  0  0
  -32.2082  -25.3623   25.1297 C   0  0  1  0  0  0  0  0  0  0  0  0
  -27.6698  -13.1659   19.7638 C   0  0  2  0  0  0  0  0  0  0  0  0
  -27.0869  -19.5337   16.5151 C   0  0  0  0  0  0  0  0  0  0  0  0
  -29.0752  -32.4373   25.4914 C   0  0  0  0  0  0  0  0  0  0  0  0
  -27.9947  -26.0557   26.8977 C   0  0  0  0  0  0  0  0  0  0  0  0
  -27.1030  -28.3849   26.6787 C   0  0  0  0  0  0  0  0  0  0  0  0
  -28.9010  -27.8902   28.3356 C   0  0  0  0  0  0  0  0  0  0  0  0
  -31.9989  -31.3565   23.3098 C   0  0  0  0  0  0  0  0  0  0  0  0
  -29.2734  -18.2757   21.2061 C   0  0  0  0  0  0  0  0  0  0  0  0
  -28.2906  -23.0669   18.1097 C   0  0  0  0  0  0  0  0  0  0  0  0
  -28.2855  -20.4285   16.8156 C   0  0  0  0  0  0  0  0  0  0  0  0
  -30.7572  -17.8684   21.2992 C   0  0  0  0  0  0  0  0  0  0  0  0
  -29.4863  -23.5186   17.2684 C   0  0  0  0  0  0  0  0  0  0  0  0
  -31.0178  -16.6372   22.1644 C   0  0  0  0  0  0  0  0  0  0  0  0
  -30.7036  -23.8976   18.1039 C   0  0  0  0  0  0  0  0  0  1  0  0
  -29.4605  -27.9162   25.8702 C   0  0  1  0  0  0  0  0  0  0  0  0
  -30.2227  -31.5393   25.0564 C   0  0  2  0  0  0  0  0  0  0  0  0
  -28.3774  -27.5489   26.9235 C   0  0  0  0  0  0  0  0  0  0  0  0
  -25.8399  -11.5976   20.2876 N   0  0  0  0  0  0  0  0  0  0  0  0
  -26.2603  -12.8733   20.2440 N   0  0  0  0  0  0  0  0  0  0  0  0
  -31.1093  -26.3141   24.9546 N   0  0  0  0  0  0  0  0  0  0  0  0
  -30.0260  -13.5056   20.4130 N   0  0  0  0  0  0  0  0  0  0  0  0
  -25.5816  -15.1014   20.6745 N   0  0  0  0  0  0  0  0  0  0  0  0
  -21.9376  -12.6711   21.7750 N   0  0  0  0  0  0  0  0  0  0  0  0
  -32.5077  -23.0386   25.7370 N   0  0  0  0  0  0  0  0  0  0  0  0
  -29.8620  -29.3186   25.8901 N   0  0  0  0  0  0  0  0  0  0  0  0
  -30.2996  -15.4719   21.6984 N   0  0  0  0  0  0  0  0  0  0  0  0
  -30.8414  -32.1260   23.8341 N   0  3  0  0  0  0  0  0  0  0  0  0
  -22.7840  -14.7976   21.6327 O   0  0  0  0  0  0  0  0  0  0  0  0
  -30.3690  -23.9288   25.5003 O   0  0  0  0  0  0  0  0  0  0  0  0
  -31.3562  -27.1942   27.0995 O   0  0  0  0  0  0  0  0  0  0  0  0
  -29.3040  -29.7742   23.6860 O   0  0  0  0  0  0  0  0  0  0  0  0
  -31.9754  -14.7572   20.3064 O   0  0  0  0  0  0  0  0  0  0  0  0
  -21.4643   -7.1281   21.4819 O   0  0  0  0  0  0  0  0  0  0  0  0
  -30.3416  -24.9596   18.9856 O   0  0  0  0  0  0  0  0  0  1  0  0
  -23.8120   -2.7931   23.9517 F   0  0  0  0  0  0  0  0  0  0  0  0
  -20.4436   -6.1169   23.8438 F   0  0  0  0  0  0  0  0  0  0  0  0
  1  2  1  0  0  0  0
  1  5  2  0  0  0  0
  2  6  2  0  0  0  0
  3 10  2  0  0  0  0
  3 18  1  0  0  0  0
  4 11  1  0  0  0  0
  4 18  2  0  0  0  0
  5 20  1  0  0  0  0
  6 22  1  0  0  0  0
  7 12  2  0  0  0  0
  7 21  1  0  0  0  0
  8  9  2  0  0  0  0
  8 24  1  0  0  0  0
  9 25  1  0  0  0  0
 10 27  1  0  0  0  0
 11 27  2  0  0  0  0
 12 28  1  0  0  0  0
 13 14  2  0  0  0  0
 13 29  1  0  0  0  0
 14 30  1  0  0  0  0
 15 23  1  0  0  0  0
 15 28  2  0  0  0  0
 16 24  2  0  0  0  0
 16 26  1  0  0  0  0
 17 30  2  0  0  0  0
 17 31  1  0  0  0  0
 18 32  1  0  0  0  0
 19 32  1  0  0  0  0
 19 33  2  0  0  0  0
 19 34  1  0  0  0  0
 20 22  2  0  0  0  0
 20 39  1  0  0  0  0
 21 23  2  0  0  0  0
 21 40  1  0  0  0  0
 22 48  1  0  0  0  0
 23 41  1  0  0  0  0
 24 57  1  0  0  0  0
 25 26  2  0  0  0  0
 25 58  1  0  0  0  0
 26 59  1  0  0  0  0
 27 82  1  0  0  0  0
 28 83  1  0  0  0  0
 29 31  2  0  0  0  0
 29 82  1  0  0  0  0
 30 84  1  0  0  0  0
 31 85  1  0  0  0  0
 32 67  2  0  0  0  0
 33 68  1  0  0  0  0
 33 71  1  0  0  0  0
 34 72  1  0  0  0  0
 34 77  2  0  0  0  0
 35 49  1  0  0  0  0
 35 73  1  0  0  0  0
 35 78  2  0  0  0  0
 36 64  1  0  0  0  0
 36 69  1  0  0  0  0
 36 79  2  0  0  0  0
 37 65  1  0  0  0  0
 37 74  1  0  0  0  0
 37 80  2  0  0  0  0
 38 70  1  0  0  0  0
 38 75  1  0  0  0  0
 38 81  2  0  0  0  0
 39 42  1  0  0  0  0
 40 49  1  0  0  0  0
 41 69  1  0  0  0  0
 42 44  1  0  0  0  0
 43 45  1  0  0  0  0
 43 46  1  0  0  0  0
 44 48  1  0  0  0  0
 45 50  1  0  0  0  0
 46 70  1  0  0  0  0
 47 50  1  0  0  0  0
 47 70  1  0  0  0  0
 48 73  1  0  0  0  0
 49 69  1  0  0  0  0
 50 68  1  0  0  0  0
 51 59  1  0  0  0  0
 52 65  1  0  0  0  0
 53 66  1  0  0  0  0
 54 66  1  0  0  0  0
 55 66  1  0  0  0  0
 56 76  1  0  0  0  0
 57 60  1  0  0  0  0
 58 61  1  0  0  0  0
 60 62  1  0  0  0  0
 61 63  1  0  0  0  0
 62 75  1  0  0  0  0
 63 83  1  0  0  0  0
 64 66  1  0  0  0  0
 64 74  1  0  0  0  0
 65 76  1  0  0  0  0
 67 68  1  0  0  0  0
M  CHG  1  76   1
M  ISO  4  38 100  63 101  75 100  83 101
M  END
> <Batch ID>
0032

> <Smiles>
CCc1cc(CCC[100NH:0][100C:0](=O)N2CCCC(n3nc(-c4ccc(Oc5ccc(F)cc5F)cc4)c(C(N)=O)c3N)C2)ccc1CC[101CH2:1][101O:1]c1ccc2c(c1)CN(C(=O)C(NC(=O)C(C)NC)C(C)(C)C)C(C(=O)NC1CCCc3ccccc31)C2

> <Shape>
0.258

> <Color>
0.207

> <Negative vol penalty>
0.000

$$$$

  -OEChem-04052316453D

 83 91  0     1  0  0  0  0  0999 V2000
  -29.7953  -12.3572   20.0392 C   0  0  0  0  0  0  0  0  0  0  0  0
  -29.7799  -13.5718   20.7173 C   0  0  0  0  0  0  0  0  0  0  0  0
  -29.8129  -22.8534   19.7678 C   0  0  0  0  0  0  0  0  0  0  0  0
  -27.4653  -22.7677   19.2038 C   0  0  0  0  0  0  0  0  0  0  0  0
  -28.8670  -12.1128   19.0280 C   0  0  0  0  0  0  0  0  0  0  0  0
  -28.8367  -14.5433   20.3838 C   0  0  0  0  0  0  0  0  0  0  0  0
  -24.9338  -19.7785   23.3292 C   0  0  0  0  0  0  0  0  0  0  0  0
  -29.7928  -21.4894   20.0588 C   0  0  0  0  0  0  0  0  0  0  0  0
  -27.4452  -21.4037   19.4947 C   0  0  0  0  0  0  0  0  0  0  0  0
  -24.6443  -21.1318   23.1598 C   0  0  0  0  0  0  0  0  0  0  0  0
  -28.7947  -19.5002   22.6027 C   0  0  0  0  0  0  0  0  0  0  0  0
  -29.4275  -19.0783   23.7719 C   0  0  0  0  0  0  0  0  0  0  0  0
  -23.0388  -20.5682   21.4499 C   0  0  0  0  0  0  0  0  0  0  0  0
  -30.9067  -17.6825   22.4678 C   0  0  0  0  0  0  0  0  0  0  0  0
  -20.6693  -27.9775   20.4024 C   0  0  0  0  0  0  0  0  0  0  0  0
  -28.6491  -23.4926   19.3403 C   0  0  0  0  0  0  0  0  0  0  0  0
  -28.9456  -25.5022   17.7973 C   0  0  0  0  0  0  0  0  0  0  0  0
  -27.9058  -13.0779   18.6886 C   0  0  0  0  0  0  0  0  0  0  0  0
  -24.2848  -18.8090   22.5512 C   0  0  0  0  0  0  0  0  0  0  0  0
  -27.8955  -14.3120   19.3663 C   0  0  0  0  0  0  0  0  0  0  0  0
  -23.3200  -19.2031   21.6131 C   0  0  0  0  0  0  0  0  0  0  0  0
  -20.7819  -27.4704   21.6782 C   0  0  0  0  0  0  0  0  0  0  0  0
  -28.6090  -20.7645   19.9223 C   0  0  0  0  0  0  0  0  0  0  0  0
  -23.6988  -21.5270   22.2181 C   0  0  0  0  0  0  0  0  0  0  0  0
  -29.2178  -19.0131   21.3659 C   0  0  0  0  0  0  0  0  0  0  0  0
  -30.4835  -18.1695   23.7045 C   0  0  0  0  0  0  0  0  0  0  0  0
  -30.2738  -18.1043   21.2985 C   0  0  0  0  0  0  0  0  0  0  0  0
  -21.8298  -28.1736   22.3220 C   0  0  0  0  0  0  0  0  0  0  0  0
  -28.6691  -24.9017   19.0401 C   0  0  0  0  0  0  0  0  0  0  0  0
  -22.3256  -29.0891   21.4201 C   0  0  0  0  0  0  0  0  0  0  0  0
  -28.8382  -26.8505   18.0359 C   0  0  0  0  0  0  0  0  0  0  0  0
  -29.2704  -24.8955   16.5394 C   0  0  0  0  0  0  0  0  0  0  0  0
  -25.2263  -16.6334   20.4337 C   0  0  0  0  0  0  0  0  0  0  0  0
  -22.1137  -15.7293   20.5614 C   0  0  0  0  0  0  0  0  0  0  0  0
  -18.8763  -16.5751   21.2329 C   0  0  0  0  0  0  0  0  0  0  0  0
  -25.8370  -30.0425   22.1171 C   0  0  0  0  0  0  0  0  0  0  0  0
  -26.9529  -12.7866   17.5565 C   0  0  0  0  0  0  0  0  0  0  0  0
  -24.5889  -17.3515   22.7648 C   0  0  0  0  0  0  0  0  0  0  0  0
  -22.5805  -18.2002   20.7671 C   0  0  0  0  0  0  0  0  0  0  0  0
  -25.7475  -13.7225   17.5188 C   0  0  0  0  0  0  0  0  0  0  0  0
  -29.3470  -30.0884   21.5214 C   0  0  0  0  0  0  0  0  0  0  0  0
  -26.1911  -15.1716   17.6925 C   0  0  0  0  0  0  0  0  0  0  0  0
  -29.5962  -28.8185   20.7058 C   0  0  0  0  0  0  0  0  0  0  0  0
  -28.2653  -29.8771   22.5784 C   0  0  0  0  0  0  0  0  0  0  0  0
  -27.2396  -28.0750   21.2464 C   0  0  0  0  0  0  0  0  0  0  0  0
  -26.8721  -15.3811   19.0503 C   0  0  1  0  0  0  0  0  0  0  0  0
  -24.2407  -16.4855   21.5581 C   0  0  1  0  0  0  0  0  0  0  0  0
  -28.2830  -28.2548   20.1305 C   0  0  2  0  0  0  0  0  0  0  0  0
  -16.5492  -15.6362   21.2076 C   0  0  0  0  0  0  0  0  0  0  0  0
  -22.0412  -15.9970   17.5228 C   0  0  0  0  0  0  0  0  0  0  0  0
  -19.5409  -15.9882   17.6513 C   0  0  0  0  0  0  0  0  0  0  0  0
  -20.8347  -14.0000   18.4232 C   0  0  0  0  0  0  0  0  0  0  0  0
  -21.8093  -29.7361   19.0516 C   0  0  0  0  0  0  0  0  0  0  0  0
  -18.5540  -16.9867   24.1459 C   0  0  0  0  0  0  0  0  0  0  0  0
  -19.9350  -26.3667   22.2598 C   0  0  0  0  0  0  0  0  0  0  0  0
  -23.4187  -30.0755   21.5606 C   0  0  0  0  0  0  0  0  0  0  0  0
  -20.3175  -24.9670   21.7661 C   0  0  0  0  0  0  0  0  0  0  0  0
  -21.7342  -24.5562   22.1698 C   0  0  0  0  0  0  0  0  0  0  0  0
  -22.0925  -23.1787   21.6287 C   0  0  0  0  0  0  0  0  0  1  0  0
  -20.8582  -16.1106   19.8148 C   0  0  1  0  0  0  0  0  0  0  0  0
  -17.7990  -15.8743   22.0408 C   0  0  2  0  0  0  0  0  0  0  0  0
  -20.8339  -15.5432   18.3674 C   0  0  0  0  0  0  0  0  0  0  0  0
  -28.4060  -25.7952   19.9974 N   0  0  0  0  0  0  0  0  0  0  0  0
  -21.6124  -28.9612   20.2569 N   0  0  0  0  0  0  0  0  0  0  0  0
  -28.5167  -26.9710   19.3559 N   0  0  0  0  0  0  0  0  0  0  0  0
  -22.9175  -16.7875   21.0085 N   0  0  0  0  0  0  0  0  0  0  0  0
  -27.0458  -29.3428   21.9673 N   0  0  0  0  0  0  0  0  0  0  0  0
  -28.9883  -27.9330   17.2434 N   0  0  0  0  0  0  0  0  0  0  0  0
  -29.3389  -23.4974   16.4699 N   0  0  0  0  0  0  0  0  0  0  0  0
  -25.8837  -15.4635   20.1042 N   0  0  0  0  0  0  0  0  0  0  0  0
  -19.7409  -15.6755   20.6460 N   0  0  0  0  0  0  0  0  0  0  0  0
  -24.7306  -29.4704   21.5013 N   0  0  0  0  0  0  0  0  0  0  0  0
  -17.4240  -16.6957   23.2264 N   0  3  0  0  0  0  0  0  0  0  0  0
  -29.5094  -25.5738   15.5116 O   0  0  0  0  0  0  0  0  0  0  0  0
  -25.3780  -17.7277   19.9033 O   0  0  0  0  0  0  0  0  0  0  0  0
  -22.3680  -14.5367   20.7473 O   0  0  0  0  0  0  0  0  0  0  0  0
  -18.9418  -17.7980   21.1294 O   0  0  0  0  0  0  0  0  0  0  0  0
  -25.7513  -31.1015   22.7481 O   0  0  0  0  0  0  0  0  0  0  0  0
  -28.5891  -19.4335   20.2059 O   0  0  0  0  0  0  0  0  0  0  0  0
  -23.4149  -22.8473   22.0503 O   0  0  0  0  0  0  0  0  0  1  0  0
  -31.0921  -17.7657   24.8273 F   0  0  0  0  0  0  0  0  0  0  0  0
  -30.6856  -17.6338   20.1132 F   0  0  0  0  0  0  0  0  0  0  0  0
  -22.3609  -27.9116   23.9160 Cl  0  0  0  0  0  0  0  0  0  0  0  0
  1  2  1  0  0  0  0
  1  5  2  0  0  0  0
  2  6  2  0  0  0  0
  3  8  2  0  0  0  0
  3 16  1  0  0  0  0
  4  9  1  0  0  0  0
  4 16  2  0  0  0  0
  5 18  1  0  0  0  0
  6 20  1  0  0  0  0
  7 10  2  0  0  0  0
  7 19  1  0  0  0  0
  8 23  1  0  0  0  0
  9 23  2  0  0  0  0
 10 24  1  0  0  0  0
 11 12  2  0  0  0  0
 11 25  1  0  0  0  0
 12 26  1  0  0  0  0
 13 21  1  0  0  0  0
 13 24  2  0  0  0  0
 14 26  2  0  0  0  0
 14 27  1  0  0  0  0
 15 22  2  0  0  0  0
 15 64  1  0  0  0  0
 16 29  1  0  0  0  0
 17 29  1  0  0  0  0
 17 31  2  0  0  0  0
 17 32  1  0  0  0  0
 18 20  2  0  0  0  0
 18 37  1  0  0  0  0
 19 21  2  0  0  0  0
 19 38  1  0  0  0  0
 20 46  1  0  0  0  0
 21 39  1  0  0  0  0
 22 28  1  0  0  0  0
 22 55  1  0  0  0  0
 23 79  1  0  0  0  0
 24 80  1  0  0  0  0
 25 27  2  0  0  0  0
 25 79  1  0  0  0  0
 26 81  1  0  0  0  0
 27 82  1  0  0  0  0
 28 30  2  0  0  0  0
 28 83  1  0  0  0  0
 29 63  2  0  0  0  0
 30 56  1  0  0  0  0
 30 64  1  0  0  0  0
 31 65  1  0  0  0  0
 31 68  1  0  0  0  0
 32 69  1  0  0  0  0
 32 74  2  0  0  0  0
 33 47  1  0  0  0  0
 33 70  1  0  0  0  0
 33 75  2  0  0  0  0
 34 60  1  0  0  0  0
 34 66  1  0  0  0  0
 34 76  2  0  0  0  0
 35 61  1  0  0  0  0
 35 71  1  0  0  0  0
 35 77  2  0  0  0  0
 36 67  1  0  0  0  0
 36 72  1  0  0  0  0
 36 78  2  0  0  0  0
 37 40  1  0  0  0  0
 38 47  1  0  0  0  0
 39 66  1  0  0  0  0
 40 42  1  0  0  0  0
 41 43  1  0  0  0  0
 41 44  1  0  0  0  0
 42 46  1  0  0  0  0
 43 48  1  0  0  0  0
 44 67  1  0  0  0  0
 45 48  1  0  0  0  0
 45 67  1  0  0  0  0
 46 70  1  0  0  0  0
 47 66  1  0  0  0  0
 48 65  1  0  0  0  0
 49 61  1  0  0  0  0
 50 62  1  0  0  0  0
 51 62  1  0  0  0  0
 52 62  1  0  0  0  0
 53 64  1  0  0  0  0
 54 73  1  0  0  0  0
 55 57  1  0  0  0  0
 56 72  1  0  0  0  0
 57 58  1  0  0  0  0
 58 59  1  0  0  0  0
 59 80  1  0  0  0  0
 60 62  1  0  0  0  0
 60 71  1  0  0  0  0
 61 73  1  0  0  0  0
 63 65  1  0  0  0  0
M  CHG  1  73   1
M  ISO  4  36 100  59 101  72 100  80 101
M  END
> <Batch ID>
0032

> <Smiles>
CNC(C)C(=O)NC(C(=O)N1Cc2cc([101O:1][101CH2:1]CCCc3cn(C)c(C[100NH:0][100C:0](=O)N4CCCC(n5nc(-c6ccc(Oc7ccc(F)cc7F)cc6)c(C(N)=O)c5N)C4)c3Cl)ccc2CC1C(=O)NC1CCCc2ccccc21)C(C)(C)C

> <Shape>
0.222

> <Color>
0.058

> <Negative vol penalty>
0.000

$$$$

  -OEChem-04052316453D

 84 92  0     1  0  0  0  0  0999 V2000
  -30.8702  -26.8375   16.3964 C   0  0  0  0  0  0  0  0  0  0  0  0
  -29.4814  -26.7627   16.4261 C   0  0  0  0  0  0  0  0  0  0  0  0
  -25.9673  -14.2138   21.7942 C   0  0  0  0  0  0  0  0  0  0  0  0
  -24.9969  -15.2365   19.8322 C   0  0  0  0  0  0  0  0  0  0  0  0
  -31.5771  -27.1189   17.5648 C   0  0  0  0  0  0  0  0  0  0  0  0
  -28.7986  -26.9681   17.6244 C   0  0  0  0  0  0  0  0  0  0  0  0
  -23.3290  -29.6295   18.3356 C   0  0  0  0  0  0  0  0  0  0  0  0
  -24.9073  -13.3087   21.8468 C   0  0  0  0  0  0  0  0  0  0  0  0
  -23.9369  -14.3313   19.8847 C   0  0  0  0  0  0  0  0  0  0  0  0
  -22.0455  -29.1082   18.4932 C   0  0  0  0  0  0  0  0  0  0  0  0
  -23.9802  -10.4643   20.2711 C   0  0  0  0  0  0  0  0  0  0  0  0
  -24.2848   -9.1216   20.4941 C   0  0  0  0  0  0  0  0  0  0  0  0
  -22.2586  -29.3232   20.8864 C   0  0  0  0  0  0  0  0  0  0  0  0
  -22.9487   -9.1527   22.5069 C   0  0  0  0  0  0  0  0  0  0  0  0
  -26.0121  -15.1777   20.7870 C   0  0  0  0  0  0  0  0  0  0  0  0
  -28.3261  -15.9561   20.0471 C   0  0  0  0  0  0  0  0  0  0  0  0
  -30.9021  -27.3375   18.7761 C   0  0  0  0  0  0  0  0  0  0  0  0
  -24.0923  -29.9921   19.4547 C   0  0  0  0  0  0  0  0  0  0  0  0
  -29.4972  -27.2514   18.8103 C   0  0  0  0  0  0  0  0  0  0  0  0
  -23.5504  -29.8513   20.7402 C   0  0  0  0  0  0  0  0  0  0  0  0
  -22.4598  -23.8209   20.0846 C   0  0  0  0  0  0  0  0  0  0  0  0
  -23.8921  -13.3674   20.8920 C   0  0  0  0  0  0  0  0  0  0  0  0
  -21.5113  -28.9522   19.7688 C   0  0  0  0  0  0  0  0  0  0  0  0
  -23.1599  -11.1514   21.1660 C   0  0  0  0  0  0  0  0  0  0  0  0
  -23.7690   -8.4657   21.6120 C   0  0  0  0  0  0  0  0  0  0  0  0
  -22.6441  -10.4956   22.2839 C   0  0  0  0  0  0  0  0  0  0  0  0
  -27.1066  -16.1133   20.7325 C   0  0  0  0  0  0  0  0  0  0  0  0
  -21.6715  -23.4648   21.1952 C   0  0  0  0  0  0  0  0  0  0  0  0
  -21.6808  -24.7062   19.3804 C   0  0  0  0  0  0  0  0  0  0  0  0
  -29.0180  -17.1137   20.3073 C   0  0  0  0  0  0  0  0  0  0  0  0
  -28.7919  -14.8614   19.2468 C   0  0  0  0  0  0  0  0  0  0  0  0
  -26.8603  -29.0328   20.6882 C   0  0  0  0  0  0  0  0  0  0  0  0
  -26.3696  -31.5145   22.7187 C   0  0  0  0  0  0  0  0  0  0  0  0
  -24.1579  -33.6378   24.2175 C   0  0  0  0  0  0  0  0  0  0  0  0
  -27.2886  -22.6556   21.7728 C   0  0  0  0  0  0  0  0  0  0  0  0
  -31.7120  -27.5919   20.0227 C   0  0  0  0  0  0  0  0  0  0  0  0
  -25.4648  -30.5779   19.2665 C   0  0  0  0  0  0  0  0  0  0  0  0
  -24.3211  -30.2444   21.9731 C   0  0  0  0  0  0  0  0  0  0  0  0
  -30.8921  -28.1670   21.1748 C   0  0  0  0  0  0  0  0  0  0  0  0
  -29.4774  -20.5379   23.6170 C   0  0  0  0  0  0  0  0  0  0  0  0
  -29.5904  -27.3899   21.3437 C   0  0  0  0  0  0  0  0  0  0  0  0
  -29.2280  -19.1496   23.0250 C   0  0  0  0  0  0  0  0  0  0  0  0
  -28.1938  -21.3626   23.6821 C   0  0  0  0  0  0  0  0  0  0  0  0
  -27.2163  -20.0885   21.8125 C   0  0  0  0  0  0  0  0  0  0  0  0
  -28.7194  -27.4927   20.0858 C   0  0  1  0  0  0  0  0  0  0  0  0
  -26.3503  -30.4336   20.5003 C   0  0  1  0  0  0  0  0  0  0  0  0
  -28.4918  -19.2398   21.6748 C   0  0  2  0  0  0  0  0  0  0  0  0
  -22.0155  -22.5373   22.2874 C   0  0  0  0  0  0  0  0  0  0  0  0
  -21.9309  -25.4383   18.1243 C   0  0  0  0  0  0  0  0  0  0  0  0
  -24.0503  -35.5347   25.8569 C   0  0  0  0  0  0  0  0  0  0  0  0
  -26.7521  -29.5457   25.0182 C   0  0  0  0  0  0  0  0  0  0  0  0
  -25.7152  -31.2365   26.5461 C   0  0  0  0  0  0  0  0  0  0  0  0
  -27.8423  -31.7708   25.3575 C   0  0  0  0  0  0  0  0  0  0  0  0
  -23.0383  -35.4798   22.1896 C   0  0  0  0  0  0  0  0  0  0  0  0
  -23.8153  -23.3512   19.7493 C   0  0  0  0  0  0  0  0  0  0  0  0
  -24.9574  -24.3359   20.1037 C   0  0  0  0  0  0  0  0  0  0  0  0
  -18.9305  -26.6634   20.8335 C   0  0  0  0  0  0  0  0  0  0  0  0
  -19.3272  -25.6768   19.7331 C   0  0  0  0  0  0  0  0  0  0  0  0
  -26.3546  -23.8090   19.7837 C   0  0  0  0  0  0  0  0  0  0  0  0
  -20.0013  -27.7092   21.1219 C   0  0  0  0  0  0  0  0  0  1  0  0
  -25.6798  -31.6858   24.0505 C   0  0  1  0  0  0  0  0  0  0  0  0
  -24.1692  -35.1458   24.3915 C   0  0  2  0  0  0  0  0  0  0  0  0
  -26.4834  -31.0504   25.2201 C   0  0  0  0  0  0  0  0  0  0  0  0
  -27.0253  -17.2790   21.3796 N   0  0  0  0  0  0  0  0  0  0  0  0
  -20.4830  -24.0742   21.2007 N   0  0  0  0  0  0  0  0  0  0  0  0
  -20.5187  -24.8223   20.0848 N   0  0  0  0  0  0  0  0  0  0  0  0
  -28.2027  -17.8646   21.1020 N   0  0  0  0  0  0  0  0  0  0  0  0
  -25.6612  -30.8066   21.7374 N   0  0  0  0  0  0  0  0  0  0  0  0
  -27.5454  -21.4101   22.3694 N   0  0  0  0  0  0  0  0  0  0  0  0
  -30.2381  -17.5523   19.9315 N   0  0  0  0  0  0  0  0  0  0  0  0
  -27.9542  -13.7498   19.0826 N   0  0  0  0  0  0  0  0  0  0  0  0
  -28.0516  -28.7757   20.0369 N   0  0  0  0  0  0  0  0  0  0  0  0
  -25.4340  -33.1158   24.2019 N   0  0  0  0  0  0  0  0  0  0  0  0
  -26.6771  -22.6107   20.5259 N   0  0  0  0  0  0  0  0  0  0  0  0
  -23.0336  -35.7614   23.6482 N   0  3  0  0  0  0  0  0  0  0  0  0
  -29.9242  -14.8618   18.7070 O   0  0  0  0  0  0  0  0  0  0  0  0
  -26.2211  -28.2441   21.3744 O   0  0  0  0  0  0  0  0  0  0  0  0
  -27.4926  -31.9973   22.5527 O   0  0  0  0  0  0  0  0  0  0  0  0
  -23.1206  -32.9874   24.1102 O   0  0  0  0  0  0  0  0  0  0  0  0
  -27.5873  -23.7280   22.3092 O   0  0  0  0  0  0  0  0  0  0  0  0
  -22.8578  -12.4842   20.9428 O   0  0  0  0  0  0  0  0  0  0  0  0
  -20.2591  -28.4430   19.9255 O   0  0  0  0  0  0  0  0  0  1  0  0
  -24.0604   -7.1758   21.8252 F   0  0  0  0  0  0  0  0  0  0  0  0
  -21.8546  -11.1500   23.1465 F   0  0  0  0  0  0  0  0  0  0  0  0
  1  2  1  0  0  0  0
  1  5  2  0  0  0  0
  2  6  2  0  0  0  0
  3  8  2  0  0  0  0
  3 15  1  0  0  0  0
  4  9  1  0  0  0  0
  4 15  2  0  0  0  0
  5 17  1  0  0  0  0
  6 19  1  0  0  0  0
  7 10  2  0  0  0  0
  7 18  1  0  0  0  0
  8 22  1  0  0  0  0
  9 22  2  0  0  0  0
 10 23  1  0  0  0  0
 11 12  2  0  0  0  0
 11 24  1  0  0  0  0
 12 25  1  0  0  0  0
 13 20  1  0  0  0  0
 13 23  2  0  0  0  0
 14 25  2  0  0  0  0
 14 26  1  0  0  0  0
 15 27  1  0  0  0  0
 16 27  1  0  0  0  0
 16 30  2  0  0  0  0
 16 31  1  0  0  0  0
 17 19  2  0  0  0  0
 17 36  1  0  0  0  0
 18 20  2  0  0  0  0
 18 37  1  0  0  0  0
 19 45  1  0  0  0  0
 20 38  1  0  0  0  0
 21 28  1  0  0  0  0
 21 29  2  0  0  0  0
 21 55  1  0  0  0  0
 22 81  1  0  0  0  0
 23 82  1  0  0  0  0
 24 26  2  0  0  0  0
 24 81  1  0  0  0  0
 25 83  1  0  0  0  0
 26 84  1  0  0  0  0
 27 64  2  0  0  0  0
 28 48  1  0  0  0  0
 28 65  2  0  0  0  0
 29 49  1  0  0  0  0
 29 66  1  0  0  0  0
 30 67  1  0  0  0  0
 30 70  1  0  0  0  0
 31 71  1  0  0  0  0
 31 76  2  0  0  0  0
 32 46  1  0  0  0  0
 32 72  1  0  0  0  0
 32 77  2  0  0  0  0
 33 61  1  0  0  0  0
 33 68  1  0  0  0  0
 33 78  2  0  0  0  0
 34 62  1  0  0  0  0
 34 73  1  0  0  0  0
 34 79  2  0  0  0  0
 35 69  1  0  0  0  0
 35 74  1  0  0  0  0
 35 80  2  0  0  0  0
 36 39  1  0  0  0  0
 37 46  1  0  0  0  0
 38 68  1  0  0  0  0
 39 41  1  0  0  0  0
 40 42  1  0  0  0  0
 40 43  1  0  0  0  0
 41 45  1  0  0  0  0
 42 47  1  0  0  0  0
 43 69  1  0  0  0  0
 44 47  1  0  0  0  0
 44 69  1  0  0  0  0
 45 72  1  0  0  0  0
 46 68  1  0  0  0  0
 47 67  1  0  0  0  0
 50 62  1  0  0  0  0
 51 63  1  0  0  0  0
 52 63  1  0  0  0  0
 53 63  1  0  0  0  0
 54 75  1  0  0  0  0
 55 56  1  0  0  0  0
 56 59  1  0  0  0  0
 57 58  1  0  0  0  0
 57 60  1  0  0  0  0
 58 66  1  0  0  0  0
 59 74  1  0  0  0  0
 60 82  1  0  0  0  0
 61 63  1  0  0  0  0
 61 73  1  0  0  0  0
 62 75  1  0  0  0  0
 64 67  1  0  0  0  0
 65 66  1  0  0  0  0
M  CHG  1  75   1
M  ISO  4  35 100  60 101  74 100  82 101
M  END
> <Batch ID>
0032

> <Smiles>
CNC(C)C(=O)NC(C(=O)N1Cc2cc([101O:1][101CH2:1]CCn3nc(C)c(CCC[100NH:0][100C:0](=O)N4CCCC(n5nc(-c6ccc(Oc7ccc(F)cc7F)cc6)c(C(N)=O)c5N)C4)c3C)ccc2CC1C(=O)NC1CCCc2ccccc21)C(C)(C)C

> <Shape>
0.290

> <Color>
0.081

> <Negative vol penalty>
0.000

$$$$

  -OEChem-04052316453D

 79 87  0     1  0  0  0  0  0999 V2000
  -17.0771  -28.6661   24.5342 C   0  0  0  0  0  0  0  0  0  0  0  0
  -17.8299  -27.6912   23.8875 C   0  0  0  0  0  0  0  0  0  0  0  0
  -22.7425  -16.4125   20.3652 C   0  0  0  0  0  0  0  0  0  0  0  0
  -24.0410  -16.6345   22.3904 C   0  0  0  0  0  0  0  0  0  0  0  0
  -17.2749  -30.0127   24.2316 C   0  0  0  0  0  0  0  0  0  0  0  0
  -18.7802  -28.0622   22.9369 C   0  0  0  0  0  0  0  0  0  0  0  0
  -23.1584  -25.5793   23.4950 C   0  0  0  0  0  0  0  0  0  0  0  0
  -22.0372  -17.5712   20.6903 C   0  0  0  0  0  0  0  0  0  0  0  0
  -23.3358  -17.7933   22.7155 C   0  0  0  0  0  0  0  0  0  0  0  0
  -23.2110  -24.2678   23.0251 C   0  0  0  0  0  0  0  0  0  0  0  0
  -21.6336  -20.6092   24.2590 C   0  0  0  0  0  0  0  0  0  0  0  0
  -21.1875  -20.7494   25.5731 C   0  0  0  0  0  0  0  0  0  0  0  0
  -24.3265  -25.0344   21.0282 C   0  0  0  0  0  0  0  0  0  0  0  0
  -19.8778  -18.7322   25.3437 C   0  0  0  0  0  0  0  0  0  0  0  0
  -23.7444  -15.9441   21.2152 C   0  0  0  0  0  0  0  0  0  0  0  0
  -23.9452  -13.4556   20.6915 C   0  0  0  0  0  0  0  0  0  0  0  0
  -18.2349  -30.4010   23.2839 C   0  0  0  0  0  0  0  0  0  0  0  0
  -23.6806  -26.6314   22.7289 C   0  0  0  0  0  0  0  0  0  0  0  0
  -18.9902  -29.4152   22.6204 C   0  0  0  0  0  0  0  0  0  0  0  0
  -24.2816  -26.3580   21.4919 C   0  0  0  0  0  0  0  0  0  0  0  0
  -22.3339  -18.2616   21.8654 C   0  0  0  0  0  0  0  0  0  0  0  0
  -23.7925  -23.9955   21.7902 C   0  0  0  0  0  0  0  0  0  0  0  0
  -21.2017  -19.5306   23.4872 C   0  0  0  0  0  0  0  0  0  0  0  0
  -20.3096  -19.8109   26.1155 C   0  0  0  0  0  0  0  0  0  0  0  0
  -20.3238  -18.5921   24.0296 C   0  0  0  0  0  0  0  0  0  0  0  0
  -24.4728  -14.7470   20.8802 C   0  0  0  0  0  0  0  0  0  0  0  0
  -25.0376  -12.6786   20.3924 C   0  0  0  0  0  0  0  0  0  0  0  0
  -22.5888  -12.9991   20.7786 C   0  0  0  0  0  0  0  0  0  0  0  0
  -22.4679  -29.2438   21.3841 C   0  0  0  0  0  0  0  0  0  0  0  0
  -25.5793  -29.8708   20.7143 C   0  0  0  0  0  0  0  0  0  0  0  0
  -28.7371  -28.6711   20.2285 C   0  0  0  0  0  0  0  0  0  0  0  0
  -28.8812  -16.6382   20.2955 C   0  0  0  0  0  0  0  0  0  0  0  0
  -18.3799  -31.8659   22.9557 C   0  0  0  0  0  0  0  0  0  0  0  0
  -23.6400  -28.0373   23.2620 C   0  0  0  0  0  0  0  0  0  0  0  0
  -24.8748  -27.4494   20.6401 C   0  0  0  0  0  0  0  0  0  0  0  0
  -19.6689  -32.1980   22.2084 C   0  0  0  0  0  0  0  0  0  0  0  0
  -28.7418  -13.7163   22.3474 C   0  0  0  0  0  0  0  0  0  0  0  0
  -28.3524  -17.6632   16.8576 C   0  0  0  0  0  0  0  0  0  0  0  0
  -19.8953  -31.2095   21.0690 C   0  0  0  0  0  0  0  0  0  0  0  0
  -28.2490  -12.6108   21.4202 C   0  0  0  0  0  0  0  0  0  0  0  0
  -27.5861  -18.7762   17.5583 C   0  0  0  0  0  0  0  0  0  0  0  0
  -29.6436  -14.6835   21.5963 C   0  0  0  0  0  0  0  0  0  0  0  0
  -28.2302  -16.5072   17.8382 C   0  0  0  0  0  0  0  0  0  0  0  0
  -28.4054  -14.2717   19.4789 C   0  0  0  0  0  0  0  0  0  0  0  0
  -20.0479  -29.7795   21.6013 C   0  0  1  0  0  0  0  0  0  0  0  0
  -23.7417  -29.0947   22.1670 C   0  0  1  0  0  0  0  0  0  0  0  0
  -27.5694  -13.1612   20.1561 C   0  0  2  0  0  0  0  0  0  0  0  0
  -27.9461  -18.5763   19.0331 C   0  0  1  0  0  0  0  0  0  0  0  0
  -31.0630  -29.4206   19.6579 C   0  0  0  0  0  0  0  0  0  0  0  0
  -24.7547  -30.1993   17.7950 C   0  0  0  0  0  0  0  0  0  0  0  0
  -27.1688  -29.9964   17.1629 C   0  0  0  0  0  0  0  0  0  0  0  0
  -26.4138  -31.8855   18.6065 C   0  0  0  0  0  0  0  0  0  0  0  0
  -29.8137  -27.6737   22.7985 C   0  0  0  0  0  0  0  0  0  0  0  0
  -26.8173  -19.0117   19.9586 C   0  0  0  0  0  0  0  0  0  0  0  0
  -26.4567  -20.4810   19.7449 C   0  0  0  0  0  0  0  0  0  0  0  0
  -25.2953  -20.9023   20.6497 C   0  0  0  0  0  0  0  0  0  0  0  0
  -24.9367  -22.3735   20.4803 C   0  0  0  0  0  0  0  0  0  1  0  0
  -26.5124  -29.5508   19.5716 C   0  0  1  0  0  0  0  0  0  0  0  0
  -30.0799  -29.1177   20.7779 C   0  0  2  0  0  0  0  0  0  0  0  0
  -26.1996  -30.3874   18.2989 C   0  0  0  0  0  0  0  0  0  0  0  0
  -25.7975  -14.7920   20.7150 N   0  0  0  0  0  0  0  0  0  0  0  0
  -26.1114  -13.5191   20.4194 N   0  0  0  0  0  0  0  0  0  0  0  0
  -24.8051  -28.8084   21.2019 N   0  0  0  0  0  0  0  0  0  0  0  0
  -28.9831  -15.2444   20.4175 N   0  0  0  0  0  0  0  0  0  0  0  0
  -28.2558  -17.1466   19.1547 N   0  0  0  0  0  0  0  0  0  0  0  0
  -25.1748  -11.3653   20.1116 N   0  0  0  0  0  0  0  0  0  0  0  0
  -22.1144  -12.5469   22.0175 N   0  0  0  0  0  0  0  0  0  0  0  0
  -21.3715  -29.5842   22.1531 N   0  0  0  0  0  0  0  0  0  0  0  0
  -27.8654  -29.7301   20.0869 N   0  0  0  0  0  0  0  0  0  0  0  0
  -30.6654  -28.0542   21.6423 N   0  3  0  0  0  0  0  0  0  0  0  0
  -21.8253  -12.9770   19.7836 O   0  0  0  0  0  0  0  0  0  0  0  0
  -22.4794  -29.0647   20.1718 O   0  0  0  0  0  0  0  0  0  0  0  0
  -25.5440  -31.0195   21.1627 O   0  0  0  0  0  0  0  0  0  0  0  0
  -28.4876  -27.5005   19.9490 O   0  0  0  0  0  0  0  0  0  0  0  0
  -29.3374  -17.3955   21.1622 O   0  0  0  0  0  0  0  0  0  0  0  0
  -21.6461  -19.3924   22.1829 O   0  0  0  0  0  0  0  0  0  0  0  0
  -23.8449  -22.7066   21.3254 O   0  0  0  0  0  0  0  0  0  1  0  0
  -19.8825  -19.9448   27.3780 F   0  0  0  0  0  0  0  0  0  0  0  0
  -19.9064  -17.5530   23.2934 F   0  0  0  0  0  0  0  0  0  0  0  0
  1  2  1  0  0  0  0
  1  5  2  0  0  0  0
  2  6  2  0  0  0  0
  3  8  2  0  0  0  0
  3 15  1  0  0  0  0
  4  9  1  0  0  0  0
  4 15  2  0  0  0  0
  5 17  1  0  0  0  0
  6 19  1  0  0  0  0
  7 10  2  0  0  0  0
  7 18  1  0  0  0  0
  8 21  1  0  0  0  0
  9 21  2  0  0  0  0
 10 22  1  0  0  0  0
 11 12  2  0  0  0  0
 11 23  1  0  0  0  0
 12 24  1  0  0  0  0
 13 20  1  0  0  0  0
 13 22  2  0  0  0  0
 14 24  2  0  0  0  0
 14 25  1  0  0  0  0
 15 26  1  0  0  0  0
 16 26  1  0  0  0  0
 16 27  2  0  0  0  0
 16 28  1  0  0  0  0
 17 19  2  0  0  0  0
 17 33  1  0  0  0  0
 18 20  2  0  0  0  0
 18 34  1  0  0  0  0
 19 45  1  0  0  0  0
 20 35  1  0  0  0  0
 21 76  1  0  0  0  0
 22 77  1  0  0  0  0
 23 25  2  0  0  0  0
 23 76  1  0  0  0  0
 24 78  1  0  0  0  0
 25 79  1  0  0  0  0
 26 61  2  0  0  0  0
 27 62  1  0  0  0  0
 27 66  1  0  0  0  0
 28 67  1  0  0  0  0
 28 71  2  0  0  0  0
 29 46  1  0  0  0  0
 29 68  1  0  0  0  0
 29 72  2  0  0  0  0
 30 58  1  0  0  0  0
 30 63  1  0  0  0  0
 30 73  2  0  0  0  0
 31 59  1  0  0  0  0
 31 69  1  0  0  0  0
 31 74  2  0  0  0  0
 32 64  1  0  0  0  0
 32 65  1  0  0  0  0
 32 75  2  0  0  0  0
 33 36  1  0  0  0  0
 34 46  1  0  0  0  0
 35 63  1  0  0  0  0
 36 39  1  0  0  0  0
 37 40  1  0  0  0  0
 37 42  1  0  0  0  0
 38 41  1  0  0  0  0
 38 43  1  0  0  0  0
 39 45  1  0  0  0  0
 40 47  1  0  0  0  0
 41 48  1  0  0  0  0
 42 64  1  0  0  0  0
 43 65  1  0  0  0  0
 44 47  1  0  0  0  0
 44 64  1  0  0  0  0
 45 68  1  0  0  0  0
 46 63  1  0  0  0  0
 47 62  1  0  0  0  0
 48 54  1  0  0  0  0
 48 65  1  0  0  0  0
 49 59  1  0  0  0  0
 50 60  1  0  0  0  0
 51 60  1  0  0  0  0
 52 60  1  0  0  0  0
 53 70  1  0  0  0  0
 54 55  1  0  0  0  0
 55 56  1  0  0  0  0
 56 57  1  0  0  0  0
 57 77  1  0  0  0  0
 58 60  1  0  0  0  0
 58 69  1  0  0  0  0
 59 70  1  0  0  0  0
 61 62  1  0  0  0  0
M  CHG  1  70   1
M  ISO  4  32 100  57 101  65 100  77 101
M  END
> <Batch ID>
0032

> <Smiles>
CNC(C)C(=O)NC(C(=O)N1Cc2cc([101O:1][101CH2:1]CCCC3CCC[100N:0]3[100C:0](=O)N3CCCC(n4nc(-c5ccc(Oc6ccc(F)cc6F)cc5)c(C(N)=O)c4N)C3)ccc2CC1C(=O)NC1CCCc2ccccc21)C(C)(C)C

> <Shape>
0.209

> <Color>
0.097

> <Negative vol penalty>
0.000

$$$$

  -OEChem-04052316453D

 86 94  0     1  0  0  0  0  0999 V2000
  -36.4753  -28.9585    9.1664 C   0  0  0  0  0  0  0  0  0  0  0  0
  -36.3674  -27.5932    9.4107 C   0  0  0  0  0  0  0  0  0  0  0  0
  -23.2470   -9.7285   19.9934 C   0  0  0  0  0  0  0  0  0  0  0  0
  -23.7989   -9.9343   22.3365 C   0  0  0  0  0  0  0  0  0  0  0  0
  -36.5980  -29.8487   10.2324 C   0  0  0  0  0  0  0  0  0  0  0  0
  -36.3834  -27.1171   10.7212 C   0  0  0  0  0  0  0  0  0  0  0  0
  -33.6539  -21.8979   14.7987 C   0  0  0  0  0  0  0  0  0  0  0  0
  -22.5436   -8.5544   20.2621 C   0  0  0  0  0  0  0  0  0  0  0  0
  -23.0955   -8.7602   22.6053 C   0  0  0  0  0  0  0  0  0  0  0  0
  -34.0582  -20.9017   15.6865 C   0  0  0  0  0  0  0  0  0  0  0  0
  -19.8714   -7.8221   22.9875 C   0  0  0  0  0  0  0  0  0  0  0  0
  -19.0165   -7.8185   24.0896 C   0  0  0  0  0  0  0  0  0  0  0  0
  -34.1952  -22.5394   17.4524 C   0  0  0  0  0  0  0  0  0  0  0  0
  -20.2847   -6.0094   25.0674 C   0  0  0  0  0  0  0  0  0  0  0  0
  -23.8747  -10.4185   21.0305 C   0  0  0  0  0  0  0  0  0  0  0  0
  -24.0967  -12.9450   20.7572 C   0  0  0  0  0  0  0  0  0  0  0  0
  -36.6058  -29.3841   11.5571 C   0  0  0  0  0  0  0  0  0  0  0  0
  -33.5276  -23.2264   15.2293 C   0  0  0  0  0  0  0  0  0  0  0  0
  -36.5077  -28.0018   11.8060 C   0  0  0  0  0  0  0  0  0  0  0  0
  -33.7867  -23.5501   16.5688 C   0  0  0  0  0  0  0  0  0  0  0  0
  -22.4678   -8.0702   21.5681 C   0  0  0  0  0  0  0  0  0  0  0  0
  -34.3316  -21.2229   17.0128 C   0  0  0  0  0  0  0  0  0  0  0  0
  -20.9330   -6.9193   22.9252 C   0  0  0  0  0  0  0  0  0  0  0  0
  -19.2232   -6.9122   25.1296 C   0  0  0  0  0  0  0  0  0  0  0  0
  -21.1396   -6.0130   23.9652 C   0  0  0  0  0  0  0  0  0  0  0  0
  -24.6020  -11.6311   20.7534 C   0  0  0  0  0  0  0  0  0  0  0  0
  -25.1772  -13.7293   20.4347 C   0  0  0  0  0  0  0  0  0  0  0  0
  -22.7694  -13.4147   21.0282 C   0  0  0  0  0  0  0  0  0  0  0  0
  -34.9240  -25.9762   14.4596 C   0  0  0  0  0  0  0  0  0  0  0  0
  -32.7062  -27.2178   16.4751 C   0  0  0  0  0  0  0  0  0  0  0  0
  -30.5932  -26.7339   19.1109 C   0  0  0  0  0  0  0  0  0  0  0  0
  -30.7761  -14.0279   21.4220 C   0  0  0  0  0  0  0  0  0  0  0  0
  -36.7882  -30.3804   12.6747 C   0  0  0  0  0  0  0  0  0  0  0  0
  -33.0647  -24.2846   14.2657 C   0  0  0  0  0  0  0  0  0  0  0  0
  -33.6466  -24.9577   17.0859 C   0  0  0  0  0  0  0  0  0  0  0  0
  -36.4199  -29.8279   14.0492 C   0  0  0  0  0  0  0  0  0  0  0  0
  -29.5207  -12.9340   18.2088 C   0  0  0  0  0  0  0  0  0  0  0  0
  -37.0318  -28.4451   14.2502 C   0  0  0  0  0  0  0  0  0  0  0  0
  -28.0632  -12.6134   18.5449 C   0  0  0  0  0  0  0  0  0  0  0  0
  -30.6622  -17.9236   17.1740 C   0  0  0  0  0  0  0  0  0  0  0  0
  -30.4509  -12.5424   19.3532 C   0  0  0  0  0  0  0  0  0  0  0  0
  -28.6453  -12.8329   21.0051 C   0  0  0  0  0  0  0  0  0  0  0  0
  -36.4962  -27.4491   13.2147 C   0  0  1  0  0  0  0  0  0  0  0  0
  -33.4660  -25.6944   14.6886 C   0  0  1  0  0  0  0  0  0  0  0  0
  -30.5484  -18.0493   18.7142 C   0  0  2  0  0  0  0  0  0  0  0  0
  -27.6520  -13.2263   19.8967 C   0  0  2  0  0  0  0  0  0  0  0  0
  -29.1055  -17.9412   17.0870 C   0  0  0  0  0  0  0  0  0  0  0  0
  -29.1201  -18.6794   18.5063 C   0  0  0  0  0  0  0  0  0  0  0  0
  -28.5726  -18.7415   15.8965 C   0  0  0  0  0  0  0  0  0  0  0  0
  -28.5145  -16.5232   17.0525 C   0  0  0  0  0  0  0  0  0  0  0  0
  -28.0969  -18.1891   19.5355 C   0  0  0  0  0  0  0  0  0  0  0  0
  -29.0908  -20.2148   18.4596 C   0  0  0  0  0  0  0  0  0  0  0  0
  -28.9372  -27.9448   20.5562 C   0  0  0  0  0  0  0  0  0  0  0  0
  -34.9995  -28.5731   17.9630 C   0  0  0  0  0  0  0  0  0  0  0  0
  -33.4366  -28.9555   19.8812 C   0  0  0  0  0  0  0  0  0  0  0  0
  -32.9648  -29.9961   17.6637 C   0  0  0  0  0  0  0  0  0  0  0  0
  -28.3867  -24.9435   18.2835 C   0  0  0  0  0  0  0  0  0  0  0  0
  -31.6440  -18.8420   19.4042 C   0  0  0  0  0  0  0  0  0  0  0  0
  -32.8323  -16.6124   21.2590 C   0  0  0  0  0  0  0  0  0  0  0  0
  -33.1434  -16.7632   19.7677 C   0  0  0  0  0  0  0  0  0  0  0  0
  -34.1731  -19.0547   19.8886 C   0  0  0  0  0  0  0  0  0  0  0  0
  -32.9655  -15.1605   21.7063 C   0  0  0  0  0  0  0  0  0  0  0  0
  -34.3742  -20.4249   19.2527 C   0  0  0  0  0  0  0  0  0  1  0  0
  -32.6491  -27.5047   17.9561 C   0  0  1  0  0  0  0  0  0  0  0  0
  -29.1323  -27.0949   19.3102 C   0  0  2  0  0  0  0  0  0  0  0  0
  -33.0453  -18.2167   19.2477 C   0  0  2  0  0  0  0  0  0  0  0  0
  -33.5171  -28.7311   18.3561 C   0  0  0  0  0  0  0  0  0  0  0  0
  -25.9022  -11.5795   20.4522 N   0  0  0  0  0  0  0  0  0  0  0  0
  -26.2231  -12.8708   20.2637 N   0  0  0  0  0  0  0  0  0  0  0  0
  -33.1973  -25.9581   16.1036 N   0  0  0  0  0  0  0  0  0  0  0  0
  -30.0152  -13.1735   20.6070 N   0  0  0  0  0  0  0  0  0  0  0  0
  -25.3251  -15.0626   20.2835 N   0  0  0  0  0  0  0  0  0  0  0  0
  -21.7792  -12.4742   21.3432 N   0  0  0  0  0  0  0  0  0  0  0  0
  -35.1651  -27.0110   13.5761 N   0  0  0  0  0  0  0  0  0  0  0  0
  -31.2356  -27.6381   18.2918 N   0  0  0  0  0  0  0  0  0  0  0  0
  -32.0654  -14.2946   20.9777 N   0  0  0  0  0  0  0  0  0  0  0  0
  -28.3081  -25.8611   19.4492 N   0  3  0  0  0  0  0  0  0  0  0  0
  -22.4666  -14.6309   20.9758 O   0  0  0  0  0  0  0  0  0  0  0  0
  -35.7678  -25.3055   15.0425 O   0  0  0  0  0  0  0  0  0  0  0  0
  -32.3224  -28.0769   15.6774 O   0  0  0  0  0  0  0  0  0  0  0  0
  -31.1135  -25.7504   19.6330 O   0  0  0  0  0  0  0  0  0  0  0  0
  -30.3371  -14.5213   22.4665 O   0  0  0  0  0  0  0  0  0  0  0  0
  -21.7813   -6.9247   21.8307 O   0  0  0  0  0  0  0  0  0  0  0  0
  -34.7297  -20.2460   17.8872 O   0  0  0  0  0  0  0  0  0  1  0  0
  -18.4030   -6.9098   26.1886 F   0  0  0  0  0  0  0  0  0  0  0  0
  -22.1585   -5.1441   23.9116 F   0  0  0  0  0  0  0  0  0  0  0  0
  1  2  1  0  0  0  0
  1  5  2  0  0  0  0
  2  6  2  0  0  0  0
  3  8  2  0  0  0  0
  3 15  1  0  0  0  0
  4  9  1  0  0  0  0
  4 15  2  0  0  0  0
  5 17  1  0  0  0  0
  6 19  1  0  0  0  0
  7 10  2  0  0  0  0
  7 18  1  0  0  0  0
  8 21  1  0  0  0  0
  9 21  2  0  0  0  0
 10 22  1  0  0  0  0
 11 12  2  0  0  0  0
 11 23  1  0  0  0  0
 12 24  1  0  0  0  0
 13 20  1  0  0  0  0
 13 22  2  0  0  0  0
 14 24  2  0  0  0  0
 14 25  1  0  0  0  0
 15 26  1  0  0  0  0
 16 26  1  0  0  0  0
 16 27  2  0  0  0  0
 16 28  1  0  0  0  0
 17 19  2  0  0  0  0
 17 33  1  0  0  0  0
 18 20  2  0  0  0  0
 18 34  1  0  0  0  0
 19 43  1  0  0  0  0
 20 35  1  0  0  0  0
 21 83  1  0  0  0  0
 22 84  1  0  0  0  0
 23 25  2  0  0  0  0
 23 83  1  0  0  0  0
 24 85  1  0  0  0  0
 25 86  1  0  0  0  0
 26 68  2  0  0  0  0
 27 69  1  0  0  0  0
 27 72  1  0  0  0  0
 28 73  1  0  0  0  0
 28 78  2  0  0  0  0
 29 44  1  0  0  0  0
 29 74  1  0  0  0  0
 29 79  2  0  0  0  0
 30 64  1  0  0  0  0
 30 70  1  0  0  0  0
 30 80  2  0  0  0  0
 31 65  1  0  0  0  0
 31 75  1  0  0  0  0
 31 81  2  0  0  0  0
 32 71  1  0  0  0  0
 32 76  1  0  0  0  0
 32 82  2  0  0  0  0
 33 36  1  0  0  0  0
 34 44  1  0  0  0  0
 35 70  1  0  0  0  0
 36 38  1  0  0  0  0
 37 39  1  0  0  0  0
 37 41  1  0  0  0  0
 38 43  1  0  0  0  0
 39 46  1  0  0  0  0
 40 45  1  0  0  0  0
 40 47  1  0  0  0  0
 41 71  1  0  0  0  0
 42 46  1  0  0  0  0
 42 71  1  0  0  0  0
 43 74  1  0  0  0  0
 44 70  1  0  0  0  0
 45 48  1  0  0  0  0
 45 58  1  0  0  0  0
 46 69  1  0  0  0  0
 47 48  1  0  0  0  0
 47 49  1  0  0  0  0
 47 50  1  0  0  0  0
 48 51  1  0  0  0  0
 48 52  1  0  0  0  0
 53 65  1  0  0  0  0
 54 67  1  0  0  0  0
 55 67  1  0  0  0  0
 56 67  1  0  0  0  0
 57 77  1  0  0  0  0
 58 66  1  0  0  0  0
 59 60  1  0  0  0  0
 59 62  1  0  0  0  0
 60 66  1  0  0  0  0
 61 63  1  0  0  0  0
 61 66  1  0  0  0  0
 62 76  1  0  0  0  0
 63 84  1  0  0  0  0
 64 67  1  0  0  0  0
 64 75  1  0  0  0  0
 65 77  1  0  0  0  0
 68 69  1  0  0  0  0
M  CHG  1  77   1
M  ISO  4  32 100  63 101  76 100  84 101
M  END
> <Batch ID>
0032

> <Smiles>
CNC(C)C(=O)NC(C(=O)N1Cc2cc([101O:1][101CH2:1]CC(CCC[100NH:0][100C:0](=O)N3CCCC(n4nc(-c5ccc(Oc6ccc(F)cc6F)cc5)c(C(N)=O)c4N)C3)CC3CC(C)(C)C3(C)C)ccc2CC1C(=O)NC1CCCc2ccccc21)C(C)(C)C

> <Shape>
0.211

> <Color>
0.169

> <Negative vol penalty>
0.000

$$$$

  -OEChem-04052316453D

 84 92  0     1  0  0  0  0  0999 V2000
  -14.8151  -31.0922   20.7044 C   0  0  0  0  0  0  0  0  0  0  0  0
  -15.6684  -30.0013   20.5728 C   0  0  0  0  0  0  0  0  0  0  0  0
  -22.7728  -10.2418   19.9719 C   0  0  0  0  0  0  0  0  0  0  0  0
  -23.6066  -10.0218   22.2288 C   0  0  0  0  0  0  0  0  0  0  0  0
  -15.3200  -32.3874   20.5982 C   0  0  0  0  0  0  0  0  0  0  0  0
  -17.0270  -30.2051   20.3337 C   0  0  0  0  0  0  0  0  0  0  0  0
  -21.6793  -26.7954   22.3917 C   0  0  0  0  0  0  0  0  0  0  0  0
  -21.9056   -9.1709   20.1878 C   0  0  0  0  0  0  0  0  0  0  0  0
  -22.7393   -8.9508   22.4448 C   0  0  0  0  0  0  0  0  0  0  0  0
  -22.4326  -25.7818   21.8009 C   0  0  0  0  0  0  0  0  0  0  0  0
  -19.4617   -8.5022   23.1348 C   0  0  0  0  0  0  0  0  0  0  0  0
  -18.7461   -8.4809   24.3319 C   0  0  0  0  0  0  0  0  0  0  0  0
  -24.1208  -27.3960   21.1981 C   0  0  0  0  0  0  0  0  0  0  0  0
  -26.1562  -22.5896   20.4037 C   0  0  0  0  0  0  0  0  0  0  0  0
  -19.7719   -6.3706   24.9075 C   0  0  0  0  0  0  0  0  0  0  0  0
  -24.5629  -22.0416   18.9102 C   0  0  0  0  0  0  0  0  0  0  0  0
  -23.6234  -10.6672   20.9924 C   0  0  0  0  0  0  0  0  0  0  0  0
  -24.2600  -13.1375   20.9989 C   0  0  0  0  0  0  0  0  0  0  0  0
  -16.6871  -32.6074   20.3673 C   0  0  0  0  0  0  0  0  0  0  0  0
  -22.1368  -28.1209   22.3806 C   0  0  0  0  0  0  0  0  0  0  0  0
  -17.5504  -31.5046   20.2230 C   0  0  0  0  0  0  0  0  0  0  0  0
  -23.3727  -28.4242   21.7917 C   0  0  0  0  0  0  0  0  0  0  0  0
  -24.8171  -22.8315   20.0096 C   0  0  0  0  0  0  0  0  0  0  0  0
  -21.8888   -8.5254   21.4243 C   0  0  0  0  0  0  0  0  0  0  0  0
  -23.6521  -26.0825   21.2014 C   0  0  0  0  0  0  0  0  0  0  0  0
  -20.3323   -7.4576   22.8240 C   0  0  0  0  0  0  0  0  0  0  0  0
  -18.9012   -7.4152   25.2183 C   0  0  0  0  0  0  0  0  0  0  0  0
  -20.4874   -6.3918   23.7104 C   0  0  0  0  0  0  0  0  0  0  0  0
  -24.5198  -11.7731   20.7697 C   0  0  0  0  0  0  0  0  0  0  0  0
  -26.6796  -21.6593   19.5330 C   0  0  0  0  0  0  0  0  0  0  0  0
  -25.4207  -13.7743   20.6331 C   0  0  0  0  0  0  0  0  0  0  0  0
  -23.0754  -13.7726   21.4980 C   0  0  0  0  0  0  0  0  0  0  0  0
  -21.0643  -30.8538   21.1622 C   0  0  0  0  0  0  0  0  0  0  0  0
  -23.5744  -32.1116   22.7869 C   0  0  0  0  0  0  0  0  0  0  0  0
  -26.6478  -31.6353   24.1918 C   0  0  0  0  0  0  0  0  0  0  0  0
  -30.9901  -14.1303   20.6512 C   0  0  0  0  0  0  0  0  0  0  0  0
  -17.1783  -34.0250   20.2129 C   0  0  0  0  0  0  0  0  0  0  0  0
  -21.3251  -29.1984   23.0457 C   0  0  0  0  0  0  0  0  0  0  0  0
  -23.9180  -29.8280   21.7709 C   0  0  0  0  0  0  0  0  0  0  0  0
  -18.6942  -34.1606   20.3319 C   0  0  0  0  0  0  0  0  0  0  0  0
  -29.4944  -12.0434   18.1846 C   0  0  0  0  0  0  0  0  0  0  0  0
  -19.3929  -33.0928   19.4962 C   0  0  0  0  0  0  0  0  0  0  0  0
  -28.0479  -11.8947   18.6595 C   0  0  0  0  0  0  0  0  0  0  0  0
  -30.4721  -12.0826   19.3570 C   0  0  0  0  0  0  0  0  0  0  0  0
  -28.7201  -12.9469   20.8594 C   0  0  0  0  0  0  0  0  0  0  0  0
  -19.0344  -31.6853   19.9879 C   0  0  1  0  0  0  0  0  0  0  0  0
  -21.6450  -30.5958   22.5237 C   0  0  1  0  0  0  0  0  0  0  0  0
  -27.6921  -12.9588   19.7151 C   0  0  2  0  0  0  0  0  0  0  0  0
  -28.4662  -32.8589   25.4139 C   0  0  0  0  0  0  0  0  0  0  0  0
  -24.4577  -33.4079   20.1697 C   0  0  0  0  0  0  0  0  0  0  0  0
  -26.7056  -33.7960   21.2016 C   0  0  0  0  0  0  0  0  0  0  0  0
  -24.6810  -34.8707   22.1858 C   0  0  0  0  0  0  0  0  0  0  0  0
  -25.8346  -20.3901   17.5409 C   0  0  0  0  0  0  0  0  0  0  0  0
  -26.3799  -29.8947   26.5704 C   0  0  0  0  0  0  0  0  0  0  0  0
  -23.8525  -23.7736   20.6677 C   0  0  0  0  0  0  0  0  0  1  0  0
  -28.0275  -21.0557   19.4884 C   0  0  0  0  0  0  0  0  0  0  0  0
  -28.1855  -19.7572   20.3113 C   0  0  0  0  0  0  0  0  0  0  0  0
  -29.6154  -19.2084   20.2773 C   0  0  0  0  0  0  0  0  0  0  0  0
  -29.7421  -17.9385   21.1226 C   0  0  0  0  0  0  0  0  0  0  0  0
  -31.1804  -17.4122   21.1204 C   0  0  0  0  0  0  0  0  0  0  0  0
  -31.3548  -16.1800   22.0021 C   0  0  0  0  0  0  0  0  0  0  0  0
  -25.0254  -32.3822   22.4701 C   0  0  1  0  0  0  0  0  0  0  0  0
  -27.2049  -32.0202   25.5504 C   0  0  2  0  0  0  0  0  0  0  0  0
  -25.2065  -33.5880   21.5053 C   0  0  0  0  0  0  0  0  0  0  0  0
  -25.7491  -11.5549   20.2949 N   0  0  0  0  0  0  0  0  0  0  0  0
  -25.7022  -21.3336   18.6293 N   0  0  0  0  0  0  0  0  0  0  0  0
  -26.2719  -12.7909   20.2227 N   0  0  0  0  0  0  0  0  0  0  0  0
  -23.0844  -30.8477   22.4287 N   0  0  0  0  0  0  0  0  0  0  0  0
  -30.0791  -13.1134   20.3208 N   0  0  0  0  0  0  0  0  0  0  0  0
  -25.7859  -15.0739   20.6256 N   0  0  0  0  0  0  0  0  0  0  0  0
  -21.9743  -12.9697   21.8257 N   0  0  0  0  0  0  0  0  0  0  0  0
  -19.7799  -31.3632   21.1857 N   0  0  0  0  0  0  0  0  0  0  0  0
  -25.7014  -32.5372   23.7537 N   0  0  0  0  0  0  0  0  0  0  0  0
  -30.5355  -15.0706   21.5677 N   0  0  0  0  0  0  0  0  0  0  0  0
  -27.5351  -30.7999   26.3396 N   0  3  0  0  0  0  0  0  0  0  0  0
  -22.9899  -15.0167   21.6334 O   0  0  0  0  0  0  0  0  0  0  0  0
  -21.7325  -30.6103   20.1643 O   0  0  0  0  0  0  0  0  0  0  0  0
  -22.9024  -32.9868   23.3384 O   0  0  0  0  0  0  0  0  0  0  0  0
  -27.0181  -30.6365   23.5787 O   0  0  0  0  0  0  0  0  0  0  0  0
  -32.1226  -14.1984   20.1616 O   0  0  0  0  0  0  0  0  0  0  0  0
  -21.0426   -7.4805   21.6354 O   0  0  0  0  0  0  0  0  0  0  0  0
  -24.3890  -25.0952   20.6235 O   0  0  0  0  0  0  0  0  0  1  0  0
  -18.2152   -7.3956   26.3686 F   0  0  0  0  0  0  0  0  0  0  0  0
  -21.3232   -5.3860   23.4178 F   0  0  0  0  0  0  0  0  0  0  0  0
  1  2  1  0  0  0  0
  1  5  2  0  0  0  0
  2  6  2  0  0  0  0
  3  8  2  0  0  0  0
  3 17  1  0  0  0  0
  4  9  1  0  0  0  0
  4 17  2  0  0  0  0
  5 19  1  0  0  0  0
  6 21  1  0  0  0  0
  7 10  2  0  0  0  0
  7 20  1  0  0  0  0
  8 24  1  0  0  0  0
  9 24  2  0  0  0  0
 10 25  1  0  0  0  0
 11 12  2  0  0  0  0
 11 26  1  0  0  0  0
 12 27  1  0  0  0  0
 13 22  1  0  0  0  0
 13 25  2  0  0  0  0
 14 23  1  0  0  0  0
 14 30  2  0  0  0  0
 15 27  2  0  0  0  0
 15 28  1  0  0  0  0
 16 23  2  0  0  0  0
 16 66  1  0  0  0  0
 17 29  1  0  0  0  0
 18 29  1  0  0  0  0
 18 31  2  0  0  0  0
 18 32  1  0  0  0  0
 19 21  2  0  0  0  0
 19 37  1  0  0  0  0
 20 22  2  0  0  0  0
 20 38  1  0  0  0  0
 21 46  1  0  0  0  0
 22 39  1  0  0  0  0
 23 55  1  0  0  0  0
 24 81  1  0  0  0  0
 25 82  1  0  0  0  0
 26 28  2  0  0  0  0
 26 81  1  0  0  0  0
 27 83  1  0  0  0  0
 28 84  1  0  0  0  0
 29 65  2  0  0  0  0
 30 56  1  0  0  0  0
 30 66  1  0  0  0  0
 31 67  1  0  0  0  0
 31 70  1  0  0  0  0
 32 71  1  0  0  0  0
 32 76  2  0  0  0  0
 33 47  1  0  0  0  0
 33 72  1  0  0  0  0
 33 77  2  0  0  0  0
 34 62  1  0  0  0  0
 34 68  1  0  0  0  0
 34 78  2  0  0  0  0
 35 63  1  0  0  0  0
 35 73  1  0  0  0  0
 35 79  2  0  0  0  0
 36 69  1  0  0  0  0
 36 74  1  0  0  0  0
 36 80  2  0  0  0  0
 37 40  1  0  0  0  0
 38 47  1  0  0  0  0
 39 68  1  0  0  0  0
 40 42  1  0  0  0  0
 41 43  1  0  0  0  0
 41 44  1  0  0  0  0
 42 46  1  0  0  0  0
 43 48  1  0  0  0  0
 44 69  1  0  0  0  0
 45 48  1  0  0  0  0
 45 69  1  0  0  0  0
 46 72  1  0  0  0  0
 47 68  1  0  0  0  0
 48 67  1  0  0  0  0
 49 63  1  0  0  0  0
 50 64  1  0  0  0  0
 51 64  1  0  0  0  0
 52 64  1  0  0  0  0
 53 66  1  0  0  0  0
 54 75  1  0  0  0  0
 55 82  1  0  0  0  0
 56 57  1  0  0  0  0
 57 58  1  0  0  0  0
 58 59  1  0  0  0  0
 59 60  1  0  0  0  0
 60 61  1  0  0  0  0
 61 74  1  0  0  0  0
 62 64  1  0  0  0  0
 62 73  1  0  0  0  0
 63 75  1  0  0  0  0
 65 67  1  0  0  0  0
M  CHG  1  75   1
M  ISO  4  36 100  55 101  74 100  82 101
M  END
> <Batch ID>
0032

> <Smiles>
CNC(C)C(=O)NC(C(=O)N1Cc2cc([101O:1][101CH2:1]c3cc(CCCCCC[100NH:0][100C:0](=O)N4CCCC(n5nc(-c6ccc(Oc7ccc(F)cc7F)cc6)c(C(N)=O)c5N)C4)n(C)c3)ccc2CC1C(=O)NC1CCCc2ccccc21)C(C)(C)C

> <Shape>
0.306

> <Color>
0.167

> <Negative vol penalty>
0.000

$$$$

  -OEChem-04052316453D

 85 93  0     1  0  0  0  0  0999 V2000
  -28.8086  -37.5224   24.4334 C   0  0  0  0  0  0  0  0  0  0  0  0
  -29.2170  -36.3064   23.8948 C   0  0  0  0  0  0  0  0  0  0  0  0
  -24.6717   -8.3312   21.3592 C   0  0  0  0  0  0  0  0  0  0  0  0
  -23.1170  -10.1806   21.3545 C   0  0  0  0  0  0  0  0  0  0  0  0
  -27.6327  -37.5934   25.1790 C   0  0  0  0  0  0  0  0  0  0  0  0
  -28.4501  -35.1604   24.1026 C   0  0  0  0  0  0  0  0  0  0  0  0
  -27.6353  -30.5173   20.1932 C   0  0  0  0  0  0  0  0  0  0  0  0
  -23.9349   -7.7144   22.3702 C   0  0  0  0  0  0  0  0  0  0  0  0
  -22.3801   -9.5637   22.3655 C   0  0  0  0  0  0  0  0  0  0  0  0
  -28.2335  -29.2622   20.0898 C   0  0  0  0  0  0  0  0  0  0  0  0
  -22.2615   -5.4824   24.7011 C   0  0  0  0  0  0  0  0  0  0  0  0
  -21.9984   -4.1187   24.5721 C   0  0  0  0  0  0  0  0  0  0  0  0
  -26.4072  -28.2957   21.3346 C   0  0  0  0  0  0  0  0  0  0  0  0
  -30.8798  -23.5434   20.9975 C   0  0  0  0  0  0  0  0  0  0  0  0
  -20.8266   -4.5407   22.5018 C   0  0  0  0  0  0  0  0  0  0  0  0
  -24.2628   -9.5644   20.8514 C   0  0  0  0  0  0  0  0  0  0  0  0
  -24.8516  -10.0543   18.4181 C   0  0  0  0  0  0  0  0  0  0  0  0
  -26.8460  -36.4497   25.3879 C   0  0  0  0  0  0  0  0  0  0  0  0
  -26.4219  -30.6731   20.8787 C   0  0  0  0  0  0  0  0  0  0  0  0
  -27.2633  -35.2160   24.8529 C   0  0  0  0  0  0  0  0  0  0  0  0
  -25.7943  -29.5534   21.4431 C   0  0  0  0  0  0  0  0  0  0  0  0
  -30.4429  -24.8680   20.9951 C   0  0  0  0  0  0  0  0  0  0  0  0
  -30.7777  -22.7731   19.8391 C   0  0  0  0  0  0  0  0  0  0  0  0
  -29.9037  -25.4224   19.8342 C   0  0  0  0  0  0  0  0  0  0  0  0
  -22.7891   -8.3306   22.8734 C   0  0  0  0  0  0  0  0  0  0  0  0
  -27.6210  -28.1517   20.6630 C   0  0  0  0  0  0  0  0  0  0  0  0
  -21.8070   -6.3753   23.7306 C   0  0  0  0  0  0  0  0  0  0  0  0
  -21.2810   -3.6478   23.4724 C   0  0  0  0  0  0  0  0  0  0  0  0
  -21.0897   -5.9044   22.6309 C   0  0  0  0  0  0  0  0  0  0  0  0
  -30.2385  -23.3274   18.6782 C   0  0  0  0  0  0  0  0  0  0  0  0
  -29.8015  -24.6521   18.6758 C   0  0  0  0  0  0  0  0  0  0  0  0
  -25.0238  -10.2024   19.8074 C   0  0  0  0  0  0  0  0  0  0  0  0
  -25.8140  -10.8630   17.8647 C   0  0  0  0  0  0  0  0  0  0  0  0
  -23.9062   -9.2571   17.6926 C   0  0  0  0  0  0  0  0  0  0  0  0
  -25.4898  -32.2941   23.4492 C   0  0  0  0  0  0  0  0  0  0  0  0
  -28.5487  -15.6827   20.0018 C   0  0  0  0  0  0  0  0  0  0  0  0
  -22.5512  -31.2401   22.5681 C   0  0  0  0  0  0  0  0  0  0  0  0
  -20.6854  -28.9203   20.8996 C   0  0  0  0  0  0  0  0  0  0  0  0
  -25.6074  -36.5663   26.2406 C   0  0  0  0  0  0  0  0  0  0  0  0
  -25.7761  -32.0291   20.9584 C   0  0  0  0  0  0  0  0  0  0  0  0
  -24.4810  -29.6639   22.1721 C   0  0  0  0  0  0  0  0  0  0  0  0
  -24.6565  -35.3805   26.0989 C   0  0  0  0  0  0  0  0  0  0  0  0
  -30.1490  -12.6726   18.7348 C   0  0  0  0  0  0  0  0  0  0  0  0
  -25.4269  -34.0662   26.1764 C   0  0  0  0  0  0  0  0  0  0  0  0
  -28.9927  -11.6741   18.7693 C   0  0  0  0  0  0  0  0  0  0  0  0
  -30.0777  -13.6544   19.9014 C   0  0  0  0  0  0  0  0  0  0  0  0
  -27.6204  -13.3895   20.0292 C   0  0  0  0  0  0  0  0  0  0  0  0
  -26.4455  -33.9558   25.0354 C   0  0  1  0  0  0  0  0  0  0  0  0
  -24.7982  -32.1577   22.1223 C   0  0  1  0  0  0  0  0  0  0  0  0
  -27.6387  -12.4003   18.8518 C   0  0  2  0  0  0  0  0  0  0  0  0
  -30.5649  -25.6693   22.2500 C   0  0  0  0  0  0  0  0  0  0  0  0
  -18.3073  -28.3009   20.3909 C   0  0  0  0  0  0  0  0  0  0  0  0
  -22.2350  -30.1408   25.3968 C   0  0  0  0  0  0  0  0  0  0  0  0
  -20.3259  -28.7493   24.5678 C   0  0  0  0  0  0  0  0  0  0  0  0
  -20.1881  -31.2381   24.4691 C   0  0  0  0  0  0  0  0  0  0  0  0
  -21.1045  -29.2352   17.9869 C   0  0  0  0  0  0  0  0  0  0  0  0
  -31.2603  -21.3589   19.8930 C   0  0  0  0  0  0  0  0  0  0  0  0
  -29.4413  -26.8496   19.8588 C   0  0  0  0  0  0  0  0  0  1  0  0
  -29.7756  -16.5591   19.9770 C   0  0  0  0  0  0  0  0  0  0  0  0
  -29.3936  -18.0348   20.0255 C   0  0  0  0  0  0  0  0  0  0  0  0
  -30.6104  -18.9476   19.9413 C   0  0  0  0  0  0  0  0  0  0  0  0
  -21.7192  -30.0172   22.8700 C   0  0  1  0  0  0  0  0  0  0  0  0
  -19.5337  -29.0681   19.9217 C   0  0  2  0  0  0  0  0  0  0  0  0
  -21.1428  -30.0343   24.3139 C   0  0  0  0  0  0  0  0  0  0  0  0
  -26.0176  -11.0392   20.1175 N   0  0  0  0  0  0  0  0  0  0  0  0
  -26.4785  -11.4242   18.9152 N   0  0  0  0  0  0  0  0  0  0  0  0
  -23.8923  -31.0121   22.2286 N   0  0  0  0  0  0  0  0  0  0  0  0
  -28.7632  -14.3048   19.9617 N   0  0  0  0  0  0  0  0  0  0  0  0
  -26.1482  -11.1417   16.5867 N   0  0  0  0  0  0  0  0  0  0  0  0
  -22.9874   -8.4856   18.4173 N   0  0  0  0  0  0  0  0  0  0  0  0
  -25.7831  -33.5982   23.7994 N   0  0  0  0  0  0  0  0  0  0  0  0
  -20.7059  -29.9442   21.8229 N   0  0  0  0  0  0  0  0  0  0  0  0
  -19.9250  -28.5532   18.5790 N   0  3  0  0  0  0  0  0  0  0  0  0
  -30.1562  -20.3633   19.9445 N   0  3  0  0  0  0  0  0  0  0  0  0
  -23.8876   -9.2169   16.4390 O   0  0  0  0  0  0  0  0  0  0  0  0
  -25.7376  -31.2905   24.1073 O   0  0  0  0  0  0  0  0  0  0  0  0
  -27.4339  -16.2089   20.0523 O   0  0  0  0  0  0  0  0  0  0  0  0
  -22.0286  -32.3561   22.6243 O   0  0  0  0  0  0  0  0  0  0  0  0
  -21.4844  -27.9877   20.8517 O   0  0  0  0  0  0  0  0  0  0  0  0
  -22.0697   -7.7288   23.8597 O   0  0  0  0  0  0  0  0  0  0  0  0
  -28.2031  -26.9256   20.5640 O   0  0  0  0  0  0  0  0  0  1  0  0
  -21.0298   -2.3380   23.3478 F   0  0  0  0  0  0  0  0  0  0  0  0
  -20.6516   -6.7573   21.6946 F   0  0  0  0  0  0  0  0  0  0  0  0
  -30.1249  -22.3414   17.2539 Cl  0  0  0  0  0  0  0  0  0  0  0  0
  -29.1263  -25.3686   17.2451 Cl  0  0  0  0  0  0  0  0  0  0  0  0
  1  2  1  0  0  0  0
  1  5  2  0  0  0  0
  2  6  2  0  0  0  0
  3  8  2  0  0  0  0
  3 16  1  0  0  0  0
  4  9  1  0  0  0  0
  4 16  2  0  0  0  0
  5 18  1  0  0  0  0
  6 20  1  0  0  0  0
  7 10  2  0  0  0  0
  7 19  1  0  0  0  0
  8 25  1  0  0  0  0
  9 25  2  0  0  0  0
 10 26  1  0  0  0  0
 11 12  2  0  0  0  0
 11 27  1  0  0  0  0
 12 28  1  0  0  0  0
 13 21  1  0  0  0  0
 13 26  2  0  0  0  0
 14 22  2  0  0  0  0
 14 23  1  0  0  0  0
 15 28  2  0  0  0  0
 15 29  1  0  0  0  0
 16 32  1  0  0  0  0
 17 32  1  0  0  0  0
 17 33  2  0  0  0  0
 17 34  1  0  0  0  0
 18 20  2  0  0  0  0
 18 39  1  0  0  0  0
 19 21  2  0  0  0  0
 19 40  1  0  0  0  0
 20 48  1  0  0  0  0
 21 41  1  0  0  0  0
 22 24  1  0  0  0  0
 22 51  1  0  0  0  0
 23 30  2  0  0  0  0
 23 57  1  0  0  0  0
 24 31  2  0  0  0  0
 24 58  1  0  0  0  0
 25 80  1  0  0  0  0
 26 81  1  0  0  0  0
 27 29  2  0  0  0  0
 27 80  1  0  0  0  0
 28 82  1  0  0  0  0
 29 83  1  0  0  0  0
 30 31  1  0  0  0  0
 30 84  1  0  0  0  0
 31 85  1  0  0  0  0
 32 65  2  0  0  0  0
 33 66  1  0  0  0  0
 33 69  1  0  0  0  0
 34 70  1  0  0  0  0
 34 75  2  0  0  0  0
 35 49  1  0  0  0  0
 35 71  1  0  0  0  0
 35 76  2  0  0  0  0
 36 59  1  0  0  0  0
 36 68  1  0  0  0  0
 36 77  2  0  0  0  0
 37 62  1  0  0  0  0
 37 67  1  0  0  0  0
 37 78  2  0  0  0  0
 38 63  1  0  0  0  0
 38 72  1  0  0  0  0
 38 79  2  0  0  0  0
 39 42  1  0  0  0  0
 40 49  1  0  0  0  0
 41 67  1  0  0  0  0
 42 44  1  0  0  0  0
 43 45  1  0  0  0  0
 43 46  1  0  0  0  0
 44 48  1  0  0  0  0
 45 50  1  0  0  0  0
 46 68  1  0  0  0  0
 47 50  1  0  0  0  0
 47 68  1  0  0  0  0
 48 71  1  0  0  0  0
 49 67  1  0  0  0  0
 50 66  1  0  0  0  0
 52 63  1  0  0  0  0
 53 64  1  0  0  0  0
 54 64  1  0  0  0  0
 55 64  1  0  0  0  0
 56 73  1  0  0  0  0
 57 74  1  0  0  0  0
 58 81  1  0  0  0  0
 59 60  1  0  0  0  0
 60 61  1  0  0  0  0
 61 74  1  0  0  0  0
 62 64  1  0  0  0  0
 62 72  1  0  0  0  0
 63 73  1  0  0  0  0
 65 66  1  0  0  0  0
M  CHG  2  73   1  74   1
M  ISO  4  36 100  58 101  59 100  81 101
M  END
> <Batch ID>
0032

> <Smiles>
CNC(C)C(=O)NC(C(=O)N1Cc2cc([101O:1][101CH2:1]c3c(C)cc(CNCC[100CH2:0][100C:0](=O)N4CCCC(n5nc(-c6ccc(Oc7ccc(F)cc7F)cc6)c(C(N)=O)c5N)C4)c(Cl)c3Cl)ccc2CC1C(=O)NC1CCCc2ccccc21)C(C)(C)C

> <Shape>
0.343

> <Color>
0.101

> <Negative vol penalty>
0.000

$$$$

  -OEChem-04052316453D

 86 94  0     1  0  0  0  0  0999 V2000
  -29.9712  -34.8209   22.9193 C   0  0  0  0  0  0  0  0  0  0  0  0
  -30.1909  -33.4517   22.8085 C   0  0  0  0  0  0  0  0  0  0  0  0
  -26.7366  -12.4143   21.7656 C   0  0  0  0  0  0  0  0  0  0  0  0
  -26.1145  -13.9002   19.9650 C   0  0  0  0  0  0  0  0  0  0  0  0
  -28.6781  -35.3048   23.1135 C   0  0  0  0  0  0  0  0  0  0  0  0
  -29.1176  -32.5654   22.8929 C   0  0  0  0  0  0  0  0  0  0  0  0
  -28.4550  -27.2867   19.8595 C   0  0  0  0  0  0  0  0  0  0  0  0
  -25.4395  -11.9022   21.7912 C   0  0  0  0  0  0  0  0  0  0  0  0
  -24.8173  -13.3881   19.9905 C   0  0  0  0  0  0  0  0  0  0  0  0
  -28.6860  -25.9606   20.2229 C   0  0  0  0  0  0  0  0  0  0  0  0
  -23.5958   -9.6986   20.0085 C   0  0  0  0  0  0  0  0  0  0  0  0
  -23.4470   -8.3140   20.0871 C   0  0  0  0  0  0  0  0  0  0  0  0
  -26.3544  -25.7165   20.7913 C   0  0  0  0  0  0  0  0  0  0  0  0
  -29.6357  -21.6240   16.9086 C   0  0  0  0  0  0  0  0  0  0  0  0
  -22.2386   -8.5617   22.1645 C   0  0  0  0  0  0  0  0  0  0  0  0
  -27.0742  -13.4134   20.8525 C   0  0  0  0  0  0  0  0  0  0  0  0
  -29.4991  -13.4728   20.0625 C   0  0  0  0  0  0  0  0  0  0  0  0
  -27.5872  -34.4246   23.1907 C   0  0  0  0  0  0  0  0  0  0  0  0
  -27.1720  -27.8417   19.9698 C   0  0  0  0  0  0  0  0  0  0  0  0
  -27.8089  -33.0379   23.0897 C   0  0  0  0  0  0  0  0  0  0  0  0
  -26.1092  -27.0491   20.4263 C   0  0  0  0  0  0  0  0  0  0  0  0
  -28.2427  -21.6565   16.8443 C   0  0  0  0  0  0  0  0  0  0  0  0
  -30.2758  -21.5796   18.1471 C   0  0  0  0  0  0  0  0  0  0  0  0
  -27.4899  -21.6447   18.0185 C   0  0  0  0  0  0  0  0  0  0  0  0
  -28.1300  -21.6004   19.2570 C   0  0  0  0  0  0  0  0  0  0  0  0
  -29.5230  -21.5678   19.3213 C   0  0  0  0  0  0  0  0  0  0  0  0
  -24.4798  -12.3891   20.9036 C   0  0  0  0  0  0  0  0  0  0  0  0
  -27.6362  -25.1762   20.6916 C   0  0  0  0  0  0  0  0  0  0  0  0
  -23.0661  -10.5148   21.0080 C   0  0  0  0  0  0  0  0  0  0  0  0
  -22.7683   -7.7455   21.1650 C   0  0  0  0  0  0  0  0  0  0  0  0
  -22.3875   -9.9464   22.0859 C   0  0  0  0  0  0  0  0  0  0  0  0
  -28.4138  -13.9432   20.8259 C   0  0  0  0  0  0  0  0  0  0  0  0
  -30.5383  -14.3083   20.3918 C   0  0  0  0  0  0  0  0  0  0  0  0
  -29.5621  -12.3785   19.1383 C   0  0  0  0  0  0  0  0  0  0  0  0
  -25.8970  -30.2310   21.6340 C   0  0  0  0  0  0  0  0  0  0  0  0
  -23.2682  -29.5467   19.8611 C   0  0  0  0  0  0  0  0  0  0  0  0
  -21.5280  -27.2562   18.0246 C   0  0  0  0  0  0  0  0  0  0  0  0
  -30.7576  -19.9211   22.4654 C   0  0  0  0  0  0  0  0  0  0  0  0
  -26.2137  -34.9917   23.4486 C   0  0  0  0  0  0  0  0  0  0  0  0
  -26.9338  -29.2659   19.5485 C   0  0  0  0  0  0  0  0  0  0  0  0
  -24.7090  -27.5914   20.5441 C   0  0  0  0  0  0  0  0  0  0  0  0
  -25.0836  -34.0093   23.1522 C   0  0  0  0  0  0  0  0  0  0  0  0
  -32.1679  -17.0232   23.9786 C   0  0  0  0  0  0  0  0  0  0  0  0
  -25.3914  -32.6432   23.7571 C   0  0  0  0  0  0  0  0  0  0  0  0
  -31.4636  -15.8628   23.2733 C   0  0  0  0  0  0  0  0  0  0  0  0
  -31.2282  -18.2079   24.1917 C   0  0  0  0  0  0  0  0  0  0  0  0
  -29.8467  -17.5279   22.2674 C   0  0  0  0  0  0  0  0  0  0  0  0
  -26.6674  -32.0463   23.1512 C   0  0  1  0  0  0  0  0  0  0  0  0
  -25.6916  -29.8784   20.1879 C   0  0  1  0  0  0  0  0  0  0  0  0
  -30.7693  -16.3309   21.9803 C   0  0  2  0  0  0  0  0  0  0  0  0
  -27.5820  -21.7043   15.5054 C   0  0  0  0  0  0  0  0  0  0  0  0
  -25.9959  -21.6795   17.9466 C   0  0  0  0  0  0  0  0  0  0  0  0
  -34.4809  -24.2414   18.8925 C   0  0  0  0  0  0  0  0  0  0  0  0
  -19.3945  -26.9775   16.7332 C   0  0  0  0  0  0  0  0  0  0  0  0
  -21.7168  -29.3165   22.4783 C   0  0  0  0  0  0  0  0  0  0  0  0
  -19.9039  -28.1351   21.2189 C   0  0  0  0  0  0  0  0  0  0  0  0
  -20.4926  -30.4890   20.6396 C   0  0  0  0  0  0  0  0  0  0  0  0
  -22.9867  -26.7028   15.5097 C   0  0  0  0  0  0  0  0  0  0  0  0
  -31.7686  -21.5445   18.1883 C   0  0  0  0  0  0  0  0  0  0  0  0
  -27.3153  -21.5870   20.5276 C   0  0  0  0  0  0  0  0  0  0  0  0
  -30.2123  -21.5210   20.6482 C   0  0  0  0  0  0  0  0  0  0  0  0
  -33.8951  -22.8777   18.5628 C   0  0  0  0  0  0  0  0  0  0  0  0
  -32.3667  -22.9100   18.5606 C   0  0  0  0  0  0  0  0  0  0  0  0
  -26.7755  -22.9676   20.8848 C   0  0  0  0  0  0  0  0  0  1  0  0
  -22.0832  -28.6247   20.0180 C   0  0  1  0  0  0  0  0  0  0  0  0
  -20.8671  -27.3506   16.6613 C   0  0  2  0  0  0  0  0  0  0  0  0
  -21.0758  -29.1314   21.0884 C   0  0  0  0  0  0  0  0  0  0  0  0
  -28.7340  -14.9958   21.5833 N   0  0  0  0  0  0  0  0  0  0  0  0
  -30.0321  -15.1937   21.2975 N   0  0  0  0  0  0  0  0  0  0  0  0
  -24.5281  -28.9914   20.1259 N   0  0  0  0  0  0  0  0  0  0  0  0
  -30.6035  -18.6035   22.9271 N   0  0  0  0  0  0  0  0  0  0  0  0
  -31.8265  -14.3647   19.9923 N   0  0  0  0  0  0  0  0  0  0  0  0
  -28.4024  -11.6234   18.9168 N   0  0  0  0  0  0  0  0  0  0  0  0
  -26.3968  -31.5031   21.8374 N   0  0  0  0  0  0  0  0  0  0  0  0
  -21.5101  -28.4661   18.6858 N   0  0  0  0  0  0  0  0  0  0  0  0
  -30.1388  -20.2108   21.2555 N   0  0  0  0  0  0  0  0  0  0  0  0
  -21.5375  -26.4343   15.6961 N   0  3  0  0  0  0  0  0  0  0  0  0
  -30.6199  -12.0690   18.5393 O   0  0  0  0  0  0  0  0  0  0  0  0
  -25.6211  -29.4102   22.5011 O   0  0  0  0  0  0  0  0  0  0  0  0
  -23.0834  -30.7145   19.5093 O   0  0  0  0  0  0  0  0  0  0  0  0
  -22.0086  -26.2126   18.4611 O   0  0  0  0  0  0  0  0  0  0  0  0
  -31.4035  -20.7746   23.0829 O   0  0  0  0  0  0  0  0  0  0  0  0
  -23.2140  -11.8894   20.9282 O   0  0  0  0  0  0  0  0  0  0  0  0
  -27.8591  -23.8818   21.0476 O   0  0  0  0  0  0  0  0  0  1  0  0
  -22.6241   -6.4159   21.2395 F   0  0  0  0  0  0  0  0  0  0  0  0
  -21.8754  -10.7255   23.0485 F   0  0  0  0  0  0  0  0  0  0  0  0
  1  2  1  0  0  0  0
  1  5  2  0  0  0  0
  2  6  2  0  0  0  0
  3  8  2  0  0  0  0
  3 16  1  0  0  0  0
  4  9  1  0  0  0  0
  4 16  2  0  0  0  0
  5 18  1  0  0  0  0
  6 20  1  0  0  0  0
  7 10  2  0  0  0  0
  7 19  1  0  0  0  0
  8 27  1  0  0  0  0
  9 27  2  0  0  0  0
 10 28  1  0  0  0  0
 11 12  2  0  0  0  0
 11 29  1  0  0  0  0
 12 30  1  0  0  0  0
 13 21  1  0  0  0  0
 13 28  2  0  0  0  0
 14 22  2  0  0  0  0
 14 23  1  0  0  0  0
 15 30  2  0  0  0  0
 15 31  1  0  0  0  0
 16 32  1  0  0  0  0
 17 32  1  0  0  0  0
 17 33  2  0  0  0  0
 17 34  1  0  0  0  0
 18 20  2  0  0  0  0
 18 39  1  0  0  0  0
 19 21  2  0  0  0  0
 19 40  1  0  0  0  0
 20 48  1  0  0  0  0
 21 41  1  0  0  0  0
 22 24  1  0  0  0  0
 22 51  1  0  0  0  0
 23 26  2  0  0  0  0
 23 59  1  0  0  0  0
 24 25  2  0  0  0  0
 24 52  1  0  0  0  0
 25 26  1  0  0  0  0
 25 60  1  0  0  0  0
 26 61  1  0  0  0  0
 27 83  1  0  0  0  0
 28 84  1  0  0  0  0
 29 31  2  0  0  0  0
 29 83  1  0  0  0  0
 30 85  1  0  0  0  0
 31 86  1  0  0  0  0
 32 68  2  0  0  0  0
 33 69  1  0  0  0  0
 33 72  1  0  0  0  0
 34 73  1  0  0  0  0
 34 78  2  0  0  0  0
 35 49  1  0  0  0  0
 35 74  1  0  0  0  0
 35 79  2  0  0  0  0
 36 65  1  0  0  0  0
 36 70  1  0  0  0  0
 36 80  2  0  0  0  0
 37 66  1  0  0  0  0
 37 75  1  0  0  0  0
 37 81  2  0  0  0  0
 38 71  1  0  0  0  0
 38 76  1  0  0  0  0
 38 82  2  0  0  0  0
 39 42  1  0  0  0  0
 40 49  1  0  0  0  0
 41 70  1  0  0  0  0
 42 44  1  0  0  0  0
 43 45  1  0  0  0  0
 43 46  1  0  0  0  0
 44 48  1  0  0  0  0
 45 50  1  0  0  0  0
 46 71  1  0  0  0  0
 47 50  1  0  0  0  0
 47 71  1  0  0  0  0
 48 74  1  0  0  0  0
 49 70  1  0  0  0  0
 50 69  1  0  0  0  0
 53 62  1  0  0  0  0
 54 66  1  0  0  0  0
 55 67  1  0  0  0  0
 56 67  1  0  0  0  0
 57 67  1  0  0  0  0
 58 77  1  0  0  0  0
 59 63  1  0  0  0  0
 60 64  1  0  0  0  0
 61 76  1  0  0  0  0
 62 63  1  0  0  0  0
 64 84  1  0  0  0  0
 65 67  1  0  0  0  0
 65 75  1  0  0  0  0
 66 77  1  0  0  0  0
 68 69  1  0  0  0  0
M  CHG  1  77   1
M  ISO  4  38 100  64 101  76 100  84 101
M  END
> <Batch ID>
0032

> <Smiles>
CCCCc1cc(C)c(C)c(C[101CH2:1][101O:1]c2ccc3c(c2)CN(C(=O)C(NC(=O)C(C)NC)C(C)(C)C)C(C(=O)NC2CCCc4ccccc42)C3)c1C[100NH:0][100C:0](=O)N1CCCC(n2nc(-c3ccc(Oc4ccc(F)cc4F)cc3)c(C(N)=O)c2N)C1

> <Shape>
0.294

> <Color>
0.067

> <Negative vol penalty>
0.000

$$$$

  -OEChem-04052316453D

 84 93  0     1  0  0  0  0  0999 V2000
  -16.8906  -29.3934   23.8190 C   0  0  0  0  0  0  0  0  0  0  0  0
  -17.3441  -28.0890   23.6506 C   0  0  0  0  0  0  0  0  0  0  0  0
  -24.5362  -11.8887   25.0195 C   0  0  0  0  0  0  0  0  0  0  0  0
  -25.0291  -10.0647   23.5139 C   0  0  0  0  0  0  0  0  0  0  0  0
  -17.7761  -30.4614   23.6808 C   0  0  0  0  0  0  0  0  0  0  0  0
  -18.6833  -27.8519   23.3428 C   0  0  0  0  0  0  0  0  0  0  0  0
  -23.9037  -23.0721   24.4457 C   0  0  0  0  0  0  0  0  0  0  0  0
  -24.1949  -10.9741   26.0158 C   0  0  0  0  0  0  0  0  0  0  0  0
  -24.6879   -9.1501   24.5103 C   0  0  0  0  0  0  0  0  0  0  0  0
  -24.8343  -22.3113   23.7393 C   0  0  0  0  0  0  0  0  0  0  0  0
  -21.8624   -7.8692   25.8545 C   0  0  0  0  0  0  0  0  0  0  0  0
  -21.0528   -6.7916   25.4953 C   0  0  0  0  0  0  0  0  0  0  0  0
  -26.2902  -24.2299   23.6028 C   0  0  0  0  0  0  0  0  0  0  0  0
  -22.7897   -5.2583   26.1802 C   0  0  0  0  0  0  0  0  0  0  0  0
  -32.4904  -18.1822   20.8415 C   0  0  0  0  0  0  0  0  0  0  0  0
  -24.9533  -11.4340   23.7685 C   0  0  0  0  0  0  0  0  0  0  0  0
  -24.4774  -13.3653   22.1712 C   0  0  0  0  0  0  0  0  0  0  0  0
  -19.1289  -30.2368   23.3806 C   0  0  0  0  0  0  0  0  0  0  0  0
  -24.1550  -24.4227   24.7269 C   0  0  0  0  0  0  0  0  0  0  0  0
  -19.5875  -28.9180   23.1991 C   0  0  0  0  0  0  0  0  0  0  0  0
  -25.3623  -25.0049   24.3151 C   0  0  0  0  0  0  0  0  0  0  0  0
  -30.4714  -19.7498   21.8221 C   0  0  0  0  0  0  0  0  0  0  0  0
  -31.7192  -17.6805   21.8729 C   0  0  0  0  0  0  0  0  0  0  0  0
  -24.2708   -9.6048   25.7612 C   0  0  0  0  0  0  0  0  0  0  0  0
  -26.0265  -22.8909   23.3152 C   0  0  0  0  0  0  0  0  0  0  0  0
  -23.1358   -7.6413   26.3765 C   0  0  0  0  0  0  0  0  0  0  0  0
  -21.5164   -5.4862   25.6582 C   0  0  0  0  0  0  0  0  0  0  0  0
  -23.5994   -6.3358   26.5393 C   0  0  0  0  0  0  0  0  0  0  0  0
  -30.6990  -18.4829   22.3682 C   0  0  0  0  0  0  0  0  0  0  0  0
  -25.3054  -12.3783   22.7387 C   0  0  0  0  0  0  0  0  0  0  0  0
  -31.3151  -20.1737   20.7915 C   0  0  0  0  0  0  0  0  0  0  0  0
  -25.2758  -13.9931   21.2466 C   0  0  0  0  0  0  0  0  0  0  0  0
  -23.1090  -13.6860   22.4546 C   0  0  0  0  0  0  0  0  0  0  0  0
  -22.7523  -27.1713   23.9646 C   0  0  0  0  0  0  0  0  0  0  0  0
  -24.9459  -28.4088   26.0089 C   0  0  0  0  0  0  0  0  0  0  0  0
  -27.9706  -28.0858   27.5560 C   0  0  0  0  0  0  0  0  0  0  0  0
  -31.2071  -14.6495   20.7570 C   0  0  0  0  0  0  0  0  0  0  0  0
  -20.0382  -31.4255   23.1944 C   0  0  0  0  0  0  0  0  0  0  0  0
  -23.1527  -25.2225   25.5131 C   0  0  0  0  0  0  0  0  0  0  0  0
  -29.3921  -20.6304   22.3922 C   0  0  0  0  0  0  0  0  0  0  0  0
  -25.6889  -26.4455   24.6093 C   0  0  0  0  0  0  0  0  0  0  0  0
  -31.1204  -21.5106   20.1281 C   0  0  0  0  0  0  0  0  0  0  0  0
  -21.5221  -31.0699   23.2366 C   0  0  0  0  0  0  0  0  0  0  0  0
  -30.3002  -22.4885   20.9672 C   0  0  0  0  0  0  0  0  0  0  0  0
  -29.0097  -13.1920   18.3645 C   0  0  0  0  0  0  0  0  0  0  0  0
  -21.8021  -29.8443   22.3726 C   0  0  0  0  0  0  0  0  0  0  0  0
  -27.7365  -12.9072   19.1631 C   0  0  0  0  0  0  0  0  0  0  0  0
  -30.2650  -12.9651   19.2040 C   0  0  0  0  0  0  0  0  0  0  0  0
  -29.0202  -13.4101   21.2839 C   0  0  0  0  0  0  0  0  0  0  0  0
  -21.0382  -28.6191   22.8890 C   0  0  1  0  0  0  0  0  0  0  0  0
  -23.2866  -26.7267   25.2967 C   0  0  1  0  0  0  0  0  0  0  0  0
  -29.0250  -21.8116   21.4805 C   0  0  2  0  0  0  0  0  0  0  0  0
  -27.7264  -13.6789   20.4963 C   0  0  2  0  0  0  0  0  0  0  0  0
  -29.5098  -29.2761   29.1407 C   0  0  0  0  0  0  0  0  0  0  0  0
  -25.7708  -30.3139   23.7728 C   0  0  0  0  0  0  0  0  0  0  0  0
  -27.8712  -30.7911   25.0490 C   0  0  0  0  0  0  0  0  0  0  0  0
  -25.6543  -31.3576   26.0425 C   0  0  0  0  0  0  0  0  0  0  0  0
  -27.8340  -25.8822   29.5269 C   0  0  0  0  0  0  0  0  0  0  0  0
  -32.0168  -16.3195   22.4046 C   0  0  0  0  0  0  0  0  0  0  0  0
  -28.1365  -22.8086   22.2211 C   0  0  0  0  0  0  0  0  0  1  0  0
  -26.3548  -28.9341   25.8755 C   0  0  1  0  0  0  0  0  0  0  0  0
  -28.3844  -28.2622   29.0058 C   0  0  2  0  0  0  0  0  0  0  0  0
  -26.4061  -30.3225   25.1776 C   0  0  0  0  0  0  0  0  0  0  0  0
  -32.3126  -19.4024   20.2895 N   0  0  0  0  0  0  0  0  0  0  0  0
  -26.5354  -12.3753   22.2181 N   0  0  0  0  0  0  0  0  0  0  0  0
  -26.4862  -13.3681   21.3137 N   0  0  0  0  0  0  0  0  0  0  0  0
  -24.6743  -27.1878   25.3755 N   0  0  0  0  0  0  0  0  0  0  0  0
  -30.1931  -13.7260   20.4537 N   0  0  0  0  0  0  0  0  0  0  0  0
  -25.0535  -15.0133   20.3909 N   0  0  0  0  0  0  0  0  0  0  0  0
  -22.1052  -13.0335   21.7260 N   0  0  0  0  0  0  0  0  0  0  0  0
  -21.7001  -28.0631   24.0497 N   0  0  0  0  0  0  0  0  0  0  0  0
  -26.9251  -28.9188   27.2182 N   0  0  0  0  0  0  0  0  0  0  0  0
  -31.0589  -15.3329   21.9577 N   0  0  0  0  0  0  0  0  0  0  0  0
  -28.8499  -26.9651   29.5731 N   0  3  0  0  0  0  0  0  0  0  0  0
  -22.7865  -14.5383   23.3166 O   0  0  0  0  0  0  0  0  0  0  0  0
  -23.2581  -26.7386   22.9357 O   0  0  0  0  0  0  0  0  0  0  0  0
  -24.1187  -29.0544   26.6575 O   0  0  0  0  0  0  0  0  0  0  0  0
  -28.5223  -27.2912   26.7978 O   0  0  0  0  0  0  0  0  0  0  0  0
  -32.1703  -14.8539   20.0103 O   0  0  0  0  0  0  0  0  0  0  0  0
  -23.9381   -8.7121   26.7333 O   0  0  0  0  0  0  0  0  0  0  0  0
  -26.9363  -22.1508   22.6250 O   0  0  0  0  0  0  0  0  0  1  0  0
  -20.7382   -4.4515   25.3147 F   0  0  0  0  0  0  0  0  0  0  0  0
  -24.8213   -6.1106   27.0414 F   0  0  0  0  0  0  0  0  0  0  0  0
  -29.7429  -17.8839   23.6891 Cl  0  0  0  0  0  0  0  0  0  0  0  0
  1  2  1  0  0  0  0
  1  5  2  0  0  0  0
  2  6  2  0  0  0  0
  3  8  2  0  0  0  0
  3 16  1  0  0  0  0
  4  9  1  0  0  0  0
  4 16  2  0  0  0  0
  5 18  1  0  0  0  0
  6 20  1  0  0  0  0
  7 10  2  0  0  0  0
  7 19  1  0  0  0  0
  8 24  1  0  0  0  0
  9 24  2  0  0  0  0
 10 25  1  0  0  0  0
 11 12  2  0  0  0  0
 11 26  1  0  0  0  0
 12 27  1  0  0  0  0
 13 21  1  0  0  0  0
 13 25  2  0  0  0  0
 14 27  2  0  0  0  0
 14 28  1  0  0  0  0
 15 23  1  0  0  0  0
 15 64  2  0  0  0  0
 16 30  1  0  0  0  0
 17 30  1  0  0  0  0
 17 32  2  0  0  0  0
 17 33  1  0  0  0  0
 18 20  2  0  0  0  0
 18 38  1  0  0  0  0
 19 21  2  0  0  0  0
 19 39  1  0  0  0  0
 20 50  1  0  0  0  0
 21 41  1  0  0  0  0
 22 29  1  0  0  0  0
 22 31  2  0  0  0  0
 22 40  1  0  0  0  0
 23 29  2  0  0  0  0
 23 59  1  0  0  0  0
 24 80  1  0  0  0  0
 25 81  1  0  0  0  0
 26 28  2  0  0  0  0
 26 80  1  0  0  0  0
 27 82  1  0  0  0  0
 28 83  1  0  0  0  0
 29 84  1  0  0  0  0
 30 65  2  0  0  0  0
 31 42  1  0  0  0  0
 31 64  1  0  0  0  0
 32 66  1  0  0  0  0
 32 69  1  0  0  0  0
 33 70  1  0  0  0  0
 33 75  2  0  0  0  0
 34 51  1  0  0  0  0
 34 71  1  0  0  0  0
 34 76  2  0  0  0  0
 35 61  1  0  0  0  0
 35 67  1  0  0  0  0
 35 77  2  0  0  0  0
 36 62  1  0  0  0  0
 36 72  1  0  0  0  0
 36 78  2  0  0  0  0
 37 68  1  0  0  0  0
 37 73  1  0  0  0  0
 37 79  2  0  0  0  0
 38 43  1  0  0  0  0
 39 51  1  0  0  0  0
 40 52  1  0  0  0  0
 41 67  1  0  0  0  0
 42 44  1  0  0  0  0
 43 46  1  0  0  0  0
 44 52  1  0  0  0  0
 45 47  1  0  0  0  0
 45 48  1  0  0  0  0
 46 50  1  0  0  0  0
 47 53  1  0  0  0  0
 48 68  1  0  0  0  0
 49 53  1  0  0  0  0
 49 68  1  0  0  0  0
 50 71  1  0  0  0  0
 51 67  1  0  0  0  0
 52 60  1  0  0  0  0
 53 66  1  0  0  0  0
 54 62  1  0  0  0  0
 55 63  1  0  0  0  0
 56 63  1  0  0  0  0
 57 63  1  0  0  0  0
 58 74  1  0  0  0  0
 59 73  1  0  0  0  0
 60 81  1  0  0  0  0
 61 63  1  0  0  0  0
 61 72  1  0  0  0  0
 62 74  1  0  0  0  0
 65 66  1  0  0  0  0
M  CHG  1  74   1
M  ISO  4  37 100  60 101  73 100  81 101
M  END
> <Batch ID>
0032

> <Smiles>
CNC(C)C(=O)NC(C(=O)N1Cc2cc([101O:1][101CH2:1]C3CCc4ncc(C[100NH:0][100C:0](=O)N5CCCC(n6nc(-c7ccc(Oc8ccc(F)cc8F)cc7)c(C(N)=O)c6N)C5)c(Cl)c4C3)ccc2CC1C(=O)NC1CCCc2ccccc21)C(C)(C)C

> <Shape>
0.216

> <Color>
0.111

> <Negative vol penalty>
0.000

$$$$

  -OEChem-04052316453D

 84 93  0     1  0  0  0  0  0999 V2000
  -21.1995  -35.3655   21.1023 C   0  0  0  0  0  0  0  0  0  0  0  0
  -21.4111  -34.4573   20.0700 C   0  0  0  0  0  0  0  0  0  0  0  0
  -22.9507  -11.4182   22.8325 C   0  0  0  0  0  0  0  0  0  0  0  0
  -23.2939   -9.8928   20.9907 C   0  0  0  0  0  0  0  0  0  0  0  0
  -22.2186  -35.6300   22.0163 C   0  0  0  0  0  0  0  0  0  0  0  0
  -22.6424  -33.8138   19.9504 C   0  0  0  0  0  0  0  0  0  0  0  0
  -23.1027  -26.6269   20.1190 C   0  0  0  0  0  0  0  0  0  0  0  0
  -22.0750  -10.5075   23.4236 C   0  0  0  0  0  0  0  0  0  0  0  0
  -22.4182   -8.9821   21.5818 C   0  0  0  0  0  0  0  0  0  0  0  0
  -23.2497  -25.2526   19.9304 C   0  0  0  0  0  0  0  0  0  0  0  0
  -22.5078   -6.7003   24.0729 C   0  0  0  0  0  0  0  0  0  0  0  0
  -22.8953   -5.3608   24.1090 C   0  0  0  0  0  0  0  0  0  0  0  0
  -25.6486  -25.5188   19.7807 C   0  0  0  0  0  0  0  0  0  0  0  0
  -20.9419   -4.7611   22.8198 C   0  0  0  0  0  0  0  0  0  0  0  0
  -30.4962  -18.9642   22.0758 C   0  0  0  0  0  0  0  0  0  0  0  0
  -23.5601  -11.1108   21.6160 C   0  0  0  0  0  0  0  0  0  0  0  0
  -24.1744  -13.3670   20.5962 C   0  0  0  0  0  0  0  0  0  0  0  0
  -23.4597  -34.9823   21.9136 C   0  0  0  0  0  0  0  0  0  0  0  0
  -24.2306  -27.4515   20.1547 C   0  0  0  0  0  0  0  0  0  0  0  0
  -23.6795  -34.0710   20.8631 C   0  0  0  0  0  0  0  0  0  0  0  0
  -25.5085  -26.8946   19.9818 C   0  0  0  0  0  0  0  0  0  0  0  0
  -21.8087   -9.2895   22.7982 C   0  0  0  0  0  0  0  0  0  0  0  0
  -24.5195  -24.7000   19.7614 C   0  0  0  0  0  0  0  0  0  0  0  0
  -21.3373   -7.0702   23.4104 C   0  0  0  0  0  0  0  0  0  0  0  0
  -22.1123   -4.3912   23.4824 C   0  0  0  0  0  0  0  0  0  0  0  0
  -20.5544   -6.1006   22.7838 C   0  0  0  0  0  0  0  0  0  0  0  0
  -24.4644  -12.0514   21.0047 C   0  0  0  0  0  0  0  0  0  0  0  0
  -30.3354  -18.0551   21.0686 C   0  0  0  0  0  0  0  0  0  0  0  0
  -25.3583  -13.8355   20.0811 C   0  0  0  0  0  0  0  0  0  0  0  0
  -28.7147  -19.5537   20.9015 C   0  0  0  0  0  0  0  0  0  0  0  0
  -22.9448  -14.1001   20.6754 C   0  0  0  0  0  0  0  0  0  0  0  0
  -25.5922  -30.9250   20.5506 C   0  0  0  0  0  0  0  0  0  0  0  0
  -27.4800  -29.0488   22.0758 C   0  0  0  0  0  0  0  0  0  0  0  0
  -29.0678  -26.7081   23.9830 C   0  0  0  0  0  0  0  0  0  0  0  0
  -30.9006  -14.4208   20.3752 C   0  0  0  0  0  0  0  0  0  0  0  0
  -24.5468  -35.3361   22.8973 C   0  0  0  0  0  0  0  0  0  0  0  0
  -24.1153  -28.9452   20.2939 C   0  0  0  0  0  0  0  0  0  0  0  0
  -26.6908  -27.8246   19.9927 C   0  0  0  0  0  0  0  0  0  0  0  0
  -25.6964  -34.3320   22.9219 C   0  0  0  0  0  0  0  0  0  0  0  0
  -29.6493  -11.4053   18.9548 C   0  0  0  0  0  0  0  0  0  0  0  0
  -26.1352  -33.9880   21.5021 C   0  0  0  0  0  0  0  0  0  0  0  0
  -27.8449  -21.3609   19.3560 C   0  0  0  0  0  0  0  0  0  0  0  0
  -26.7386  -20.9708   21.6061 C   0  0  0  0  0  0  0  0  0  0  0  0
  -28.1671  -11.4103   19.3331 C   0  0  0  0  0  0  0  0  0  0  0  0
  -26.6061  -22.1189   18.8856 C   0  0  0  0  0  0  0  0  0  0  0  0
  -25.5055  -21.7303   21.1237 C   0  0  0  0  0  0  0  0  0  0  0  0
  -30.5171  -11.9932   20.0653 C   0  0  0  0  0  0  0  0  0  0  0  0
  -28.6303  -13.3408   20.9006 C   0  0  0  0  0  0  0  0  0  0  0  0
  -24.9931  -33.3344   20.7148 C   0  0  1  0  0  0  0  0  0  0  0  0
  -27.4909  -20.3191   20.4321 C   0  0  0  0  0  0  0  0  0  0  0  0
  -25.2692  -29.5670   21.1008 C   0  0  1  0  0  0  0  0  0  0  0  0
  -27.7095  -12.8088   19.7892 C   0  0  2  0  0  0  0  0  0  0  0  0
  -25.8595  -22.7604   20.0539 C   0  0  0  0  0  0  0  0  0  1  0  0
  -30.9896  -26.4372   25.5738 C   0  0  0  0  0  0  0  0  0  0  0  0
  -29.4288  -29.1384   19.7310 C   0  0  0  0  0  0  0  0  0  0  0  0
  -31.1022  -27.9546   21.1685 C   0  0  0  0  0  0  0  0  0  0  0  0
  -30.2690  -30.2115   21.8279 C   0  0  0  0  0  0  0  0  0  0  0  0
  -28.6842  -17.7630   19.1968 C   0  0  0  0  0  0  0  0  0  0  0  0
  -27.2791  -25.8545   26.1808 C   0  0  0  0  0  0  0  0  0  0  0  0
  -31.1263  -16.8677   20.7230 C   0  0  0  0  0  0  0  0  0  0  0  0
  -28.7346  -28.2133   22.0393 C   0  0  1  0  0  0  0  0  0  0  0  0
  -29.5014  -26.7192   25.4377 C   0  0  2  0  0  0  0  0  0  0  0  0
  -29.8580  -28.8680   21.1869 C   0  0  0  0  0  0  0  0  0  0  0  0
  -25.7330  -11.7062   20.7692 N   0  0  0  0  0  0  0  0  0  0  0  0
  -29.2254  -18.4441   20.3581 N   0  0  0  0  0  0  0  0  0  0  0  0
  -26.2507  -12.8117   20.2071 N   0  0  0  0  0  0  0  0  0  0  0  0
  -29.4799  -19.8801   21.9481 N   0  3  0  0  0  0  0  0  0  0  0  0
  -26.5376  -28.8193   21.0659 N   0  0  0  0  0  0  0  0  0  0  0  0
  -30.0310  -13.3203   20.4505 N   0  0  0  0  0  0  0  0  0  0  0  0
  -25.7127  -15.0191   19.5371 N   0  0  0  0  0  0  0  0  0  0  0  0
  -22.0516  -14.0252   19.5979 N   0  0  0  0  0  0  0  0  0  0  0  0
  -24.8426  -31.9475   21.1001 N   0  0  0  0  0  0  0  0  0  0  0  0
  -29.1040  -27.9706   23.4296 N   0  0  0  0  0  0  0  0  0  0  0  0
  -30.3580  -15.6431   20.7525 N   0  0  0  0  0  0  0  0  0  0  0  0
  -28.7548  -25.6852   26.2087 N   0  3  0  0  0  0  0  0  0  0  0  0
  -22.6542  -14.8140   21.6651 O   0  0  0  0  0  0  0  0  0  0  0  0
  -26.4588  -31.0385   19.6916 O   0  0  0  0  0  0  0  0  0  0  0  0
  -27.3393  -29.8868   22.9709 O   0  0  0  0  0  0  0  0  0  0  0  0
  -28.7343  -25.6816   23.3951 O   0  0  0  0  0  0  0  0  0  0  0  0
  -32.0720  -14.3224   19.9943 O   0  0  0  0  0  0  0  0  0  0  0  0
  -20.9544   -8.4005   23.3748 O   0  0  0  0  0  0  0  0  0  0  0  0
  -24.6561  -23.3568   19.5822 O   0  0  0  0  0  0  0  0  0  1  0  0
  -22.4853   -3.1052   23.5158 F   0  0  0  0  0  0  0  0  0  0  0  0
  -19.4296   -6.4500   22.1448 F   0  0  0  0  0  0  0  0  0  0  0  0
  1  2  1  0  0  0  0
  1  5  2  0  0  0  0
  2  6  2  0  0  0  0
  3  8  2  0  0  0  0
  3 16  1  0  0  0  0
  4  9  1  0  0  0  0
  4 16  2  0  0  0  0
  5 18  1  0  0  0  0
  6 20  1  0  0  0  0
  7 10  2  0  0  0  0
  7 19  1  0  0  0  0
  8 22  1  0  0  0  0
  9 22  2  0  0  0  0
 10 23  1  0  0  0  0
 11 12  2  0  0  0  0
 11 24  1  0  0  0  0
 12 25  1  0  0  0  0
 13 21  1  0  0  0  0
 13 23  2  0  0  0  0
 14 25  2  0  0  0  0
 14 26  1  0  0  0  0
 15 28  2  0  0  0  0
 15 67  1  0  0  0  0
 16 27  1  0  0  0  0
 17 27  1  0  0  0  0
 17 29  2  0  0  0  0
 17 31  1  0  0  0  0
 18 20  2  0  0  0  0
 18 36  1  0  0  0  0
 19 21  2  0  0  0  0
 19 37  1  0  0  0  0
 20 49  1  0  0  0  0
 21 38  1  0  0  0  0
 22 81  1  0  0  0  0
 23 82  1  0  0  0  0
 24 26  2  0  0  0  0
 24 81  1  0  0  0  0
 25 83  1  0  0  0  0
 26 84  1  0  0  0  0
 27 64  2  0  0  0  0
 28 60  1  0  0  0  0
 28 65  1  0  0  0  0
 29 66  1  0  0  0  0
 29 70  1  0  0  0  0
 30 50  1  0  0  0  0
 30 65  1  0  0  0  0
 30 67  2  0  0  0  0
 31 71  1  0  0  0  0
 31 76  2  0  0  0  0
 32 51  1  0  0  0  0
 32 72  1  0  0  0  0
 32 77  2  0  0  0  0
 33 61  1  0  0  0  0
 33 68  1  0  0  0  0
 33 78  2  0  0  0  0
 34 62  1  0  0  0  0
 34 73  1  0  0  0  0
 34 79  2  0  0  0  0
 35 69  1  0  0  0  0
 35 74  1  0  0  0  0
 35 80  2  0  0  0  0
 36 39  1  0  0  0  0
 37 51  1  0  0  0  0
 38 68  1  0  0  0  0
 39 41  1  0  0  0  0
 40 44  1  0  0  0  0
 40 47  1  0  0  0  0
 41 49  1  0  0  0  0
 42 45  1  0  0  0  0
 42 50  1  0  0  0  0
 43 46  1  0  0  0  0
 43 50  1  0  0  0  0
 44 52  1  0  0  0  0
 45 53  1  0  0  0  0
 46 53  1  0  0  0  0
 47 69  1  0  0  0  0
 48 52  1  0  0  0  0
 48 69  1  0  0  0  0
 49 72  1  0  0  0  0
 51 68  1  0  0  0  0
 52 66  1  0  0  0  0
 53 82  1  0  0  0  0
 54 62  1  0  0  0  0
 55 63  1  0  0  0  0
 56 63  1  0  0  0  0
 57 63  1  0  0  0  0
 58 65  1  0  0  0  0
 59 75  1  0  0  0  0
 60 74  1  0  0  0  0
 61 63  1  0  0  0  0
 61 73  1  0  0  0  0
 62 75  1  0  0  0  0
 64 66  1  0  0  0  0
M  CHG  2  67   1  75   1
M  ISO  4  35 100  53 101  74 100  82 101
M  END
> <Batch ID>
0032

> <Smiles>
CNC(C)C(=O)NC(C(=O)N1Cc2cc([101O:1][101CH:1]3CCC(c4ncc(C[100NH:0][100C:0](=O)N5CCCC(n6nc(-c7ccc(Oc8ccc(F)cc8F)cc7)c(C(N)=O)c6N)C5)n4C)CC3)ccc2CC1C(=O)NC1CCCc2ccccc21)C(C)(C)C

> <Shape>
0.286

> <Color>
0.119

> <Negative vol penalty>
0.000

$$$$

  -OEChem-04052316453D

 95103  0     1  0  0  0  0  0999 V2000
  -26.8869  -22.5513   18.8067 C   0  0  0  0  0  0  0  0  0  0  0  0
  -25.8411  -23.4246   18.5256 C   0  0  0  0  0  0  0  0  0  0  0  0
  -24.5224   -9.2245   21.6889 C   0  0  0  0  0  0  0  0  0  0  0  0
  -22.7802  -10.8771   21.9546 C   0  0  0  0  0  0  0  0  0  0  0  0
  -27.5661  -22.6468   20.0206 C   0  0  0  0  0  0  0  0  0  0  0  0
  -25.4730  -24.3931   19.4588 C   0  0  0  0  0  0  0  0  0  0  0  0
  -23.4084  -30.0384   18.2864 C   0  0  0  0  0  0  0  0  0  0  0  0
  -23.8916   -8.4085   22.6281 C   0  0  0  0  0  0  0  0  0  0  0  0
  -22.1494  -10.0612   22.8938 C   0  0  0  0  0  0  0  0  0  0  0  0
  -22.1234  -30.5777   18.2464 C   0  0  0  0  0  0  0  0  0  0  0  0
  -21.2652   -6.2808   22.7152 C   0  0  0  0  0  0  0  0  0  0  0  0
  -21.1415   -4.9241   22.4161 C   0  0  0  0  0  0  0  0  0  0  0  0
  -22.3790  -31.3400   20.5207 C   0  0  0  0  0  0  0  0  0  0  0  0
  -22.4233   -4.3725   24.3884 C   0  0  0  0  0  0  0  0  0  0  0  0
  -16.9154  -34.9088   23.6761 C   0  0  0  0  0  0  0  0  0  0  0  0
  -23.9667  -10.4588   21.3522 C   0  0  0  0  0  0  0  0  0  0  0  0
  -24.4137  -11.3112   18.9898 C   0  0  0  0  0  0  0  0  0  0  0  0
  -27.2125  -23.6232   20.9652 C   0  0  0  0  0  0  0  0  0  0  0  0
  -24.1856  -30.1365   19.4495 C   0  0  0  0  0  0  0  0  0  0  0  0
  -26.1472  -24.5009   20.6871 C   0  0  0  0  0  0  0  0  0  0  0  0
  -23.6746  -30.8034   20.5721 C   0  0  0  0  0  0  0  0  0  0  0  0
  -17.9304  -35.0785   21.5319 C   0  0  0  0  0  0  0  0  0  0  0  0
  -17.9389  -33.6900   21.4597 C   0  0  0  0  0  0  0  0  0  0  0  0
  -22.7052   -8.8269   23.2305 C   0  0  0  0  0  0  0  0  0  0  0  0
  -21.6074  -31.2261   19.3646 C   0  0  0  0  0  0  0  0  0  0  0  0
  -21.9680   -6.6835   23.8508 C   0  0  0  0  0  0  0  0  0  0  0  0
  -21.7205   -3.9699   23.2527 C   0  0  0  0  0  0  0  0  0  0  0  0
  -22.5470   -5.7293   24.6874 C   0  0  0  0  0  0  0  0  0  0  0  0
  -17.4106  -35.7073   22.6579 C   0  0  0  0  0  0  0  0  0  0  0  0
  -24.6181  -11.3024   20.3826 C   0  0  0  0  0  0  0  0  0  0  0  0
  -17.4202  -32.9817   22.5317 C   0  0  0  0  0  0  0  0  0  0  0  0
  -25.2643  -12.2839   18.5241 C   0  0  0  0  0  0  0  0  0  0  0  0
  -23.5337  -10.5116   18.1885 C   0  0  0  0  0  0  0  0  0  0  0  0
  -25.4700  -28.0475   21.4719 C   0  0  0  0  0  0  0  0  0  0  0  0
  -27.6830  -17.1039   21.1753 C   0  0  0  0  0  0  0  0  0  0  0  0
  -26.8138  -30.7065   22.7549 C   0  0  0  0  0  0  0  0  0  0  0  0
  -26.6869  -34.0868   23.2070 C   0  0  0  0  0  0  0  0  0  0  0  0
  -27.9448  -23.6572   22.2832 C   0  0  0  0  0  0  0  0  0  0  0  0
  -25.5800  -29.5729   19.4676 C   0  0  0  0  0  0  0  0  0  0  0  0
  -24.4761  -30.9534   21.8384 C   0  0  0  0  0  0  0  0  0  0  0  0
  -27.7379  -24.9538   23.0617 C   0  0  0  0  0  0  0  0  0  0  0  0
  -29.4109  -14.4346   19.5233 C   0  0  0  0  0  0  0  0  0  0  0  0
  -26.2609  -25.3341   23.0826 C   0  0  0  0  0  0  0  0  0  0  0  0
  -28.3680  -13.3197   19.4553 C   0  0  0  0  0  0  0  0  0  0  0  0
  -29.2754  -15.2485   20.8064 C   0  0  0  0  0  0  0  0  0  0  0  0
  -26.8663  -14.7047   20.9559 C   0  0  0  0  0  0  0  0  0  0  0  0
  -25.7346  -25.5809   21.6635 C   0  0  1  0  0  0  0  0  0  0  0  0
  -26.0881  -29.2806   20.8761 C   0  0  1  0  0  0  0  0  0  0  0  0
  -26.9485  -13.8774   19.6608 C   0  0  2  0  0  0  0  0  0  0  0  0
  -18.4810  -35.8805   20.3949 C   0  0  0  0  0  0  0  0  0  0  0  0
  -27.9036  -35.9707   24.3331 C   0  0  0  0  0  0  0  0  0  0  0  0
  -25.6662  -29.8365   25.4449 C   0  0  0  0  0  0  0  0  0  0  0  0
  -26.0765  -32.1566   26.2916 C   0  0  0  0  0  0  0  0  0  0  0  0
  -27.9940  -30.7447   25.5484 C   0  0  0  0  0  0  0  0  0  0  0  0
  -27.2136  -35.4417   20.6290 C   0  0  0  0  0  0  0  0  0  0  0  0
  -18.4881  -32.9794   20.2685 C   0  0  0  0  0  0  0  0  0  0  0  0
  -26.2476  -17.5363   21.3384 C   0  0  0  0  0  0  0  0  0  0  0  0
  -26.1352  -19.0433   21.5486 C   0  0  0  0  0  0  0  0  0  0  0  0
  -24.6873  -19.4918   21.7739 C   0  0  0  0  0  0  0  0  0  0  0  0
  -24.5365  -21.0094   21.9192 C   0  0  0  0  0  0  0  0  0  0  0  0
  -23.0837  -21.4660   22.0693 C   0  0  0  0  0  0  0  0  0  0  0  0
  -22.9920  -22.9893   22.1872 C   0  0  0  0  0  0  0  0  0  0  0  0
  -21.5442  -23.4475   22.3706 C   0  0  0  0  0  0  0  0  0  0  0  0
  -21.4569  -24.9671   22.5215 C   0  0  0  0  0  0  0  0  0  0  0  0
  -20.0124  -25.4232   22.7397 C   0  0  0  0  0  0  0  0  0  0  0  0
  -19.9329  -26.9405   22.9220 C   0  0  0  0  0  0  0  0  0  0  0  0
  -18.5009  -27.4620   23.0726 C   0  0  0  0  0  0  0  0  0  0  0  0
  -18.4235  -28.9767   23.2791 C   0  0  0  0  0  0  0  0  0  0  0  0
  -16.9722  -29.4381   23.4507 C   0  0  0  0  0  0  0  0  0  0  0  0
  -19.8868  -32.4035   20.5088 C   0  0  0  0  0  0  0  0  0  1  0  0
  -16.8649  -30.9474   23.6312 C   0  0  0  0  0  0  0  0  0  0  0  0
  -26.4142  -31.6986   23.8203 C   0  0  1  0  0  0  0  0  0  0  0  0
  -27.7455  -35.1640   23.0536 C   0  0  2  0  0  0  0  0  0  0  0  0
  -26.5216  -31.1047   25.2532 C   0  0  0  0  0  0  0  0  0  0  0  0
  -16.9068  -33.5574   23.6419 N   0  0  0  0  0  0  0  0  0  0  0  0
  -25.5273  -12.1982   20.7760 N   0  0  0  0  0  0  0  0  0  0  0  0
  -25.9018  -12.7790   19.6234 N   0  0  0  0  0  0  0  0  0  0  0  0
  -25.8318  -30.3800   21.8088 N   0  0  0  0  0  0  0  0  0  0  0  0
  -27.9074  -15.7415   20.9764 N   0  0  0  0  0  0  0  0  0  0  0  0
  -25.5217  -12.7553   17.2856 N   0  0  0  0  0  0  0  0  0  0  0  0
  -22.7286   -9.5591   18.8278 N   0  0  0  0  0  0  0  0  0  0  0  0
  -26.1549  -26.8814   21.1877 N   0  0  0  0  0  0  0  0  0  0  0  0
  -27.2349  -32.8848   23.6020 N   0  0  0  0  0  0  0  0  0  0  0  0
  -27.3785  -36.0978   21.9516 N   0  3  0  0  0  0  0  0  0  0  0  0
  -23.4753  -10.6269   16.9408 O   0  0  0  0  0  0  0  0  0  0  0  0
  -24.4483  -28.1467   22.1411 O   0  0  0  0  0  0  0  0  0  0  0  0
  -28.5765  -17.9535   21.2207 O   0  0  0  0  0  0  0  0  0  0  0  0
  -27.9573  -30.2440   22.7576 O   0  0  0  0  0  0  0  0  0  0  0  0
  -25.4929  -34.2922   23.0008 O   0  0  0  0  0  0  0  0  0  0  0  0
  -22.0893   -8.0308   24.1468 O   0  0  0  0  0  0  0  0  0  0  0  0
  -20.3443  -31.7565   19.3282 O   0  0  0  0  0  0  0  0  0  1  0  0
  -17.4106  -31.6111   22.5003 O   0  0  0  0  0  0  0  0  0  0  0  0
  -21.6003   -2.6669   22.9662 F   0  0  0  0  0  0  0  0  0  0  0  0
  -23.2224   -6.1100   25.7804 F   0  0  0  0  0  0  0  0  0  0  0  0
  -17.3645  -37.4191   22.8193 Cl  0  0  0  0  0  0  0  0  0  0  0  0
  1  2  1  0  0  0  0
  1  5  2  0  0  0  0
  2  6  2  0  0  0  0
  3  8  2  0  0  0  0
  3 16  1  0  0  0  0
  4  9  1  0  0  0  0
  4 16  2  0  0  0  0
  5 18  1  0  0  0  0
  6 20  1  0  0  0  0
  7 10  2  0  0  0  0
  7 19  1  0  0  0  0
  8 24  1  0  0  0  0
  9 24  2  0  0  0  0
 10 25  1  0  0  0  0
 11 12  2  0  0  0  0
 11 26  1  0  0  0  0
 12 27  1  0  0  0  0
 13 21  1  0  0  0  0
 13 25  2  0  0  0  0
 14 27  2  0  0  0  0
 14 28  1  0  0  0  0
 15 29  2  0  0  0  0
 15 75  1  0  0  0  0
 16 30  1  0  0  0  0
 17 30  1  0  0  0  0
 17 32  2  0  0  0  0
 17 33  1  0  0  0  0
 18 20  2  0  0  0  0
 18 38  1  0  0  0  0
 19 21  2  0  0  0  0
 19 39  1  0  0  0  0
 20 47  1  0  0  0  0
 21 40  1  0  0  0  0
 22 23  2  0  0  0  0
 22 29  1  0  0  0  0
 22 50  1  0  0  0  0
 23 31  1  0  0  0  0
 23 56  1  0  0  0  0
 24 90  1  0  0  0  0
 25 91  1  0  0  0  0
 26 28  2  0  0  0  0
 26 90  1  0  0  0  0
 27 93  1  0  0  0  0
 28 94  1  0  0  0  0
 29 95  1  0  0  0  0
 30 76  2  0  0  0  0
 31 75  2  0  0  0  0
 31 92  1  0  0  0  0
 32 77  1  0  0  0  0
 32 80  1  0  0  0  0
 33 81  1  0  0  0  0
 33 85  2  0  0  0  0
 34 48  1  0  0  0  0
 34 82  1  0  0  0  0
 34 86  2  0  0  0  0
 35 57  1  0  0  0  0
 35 79  1  0  0  0  0
 35 87  2  0  0  0  0
 36 72  1  0  0  0  0
 36 78  1  0  0  0  0
 36 88  2  0  0  0  0
 37 73  1  0  0  0  0
 37 83  1  0  0  0  0
 37 89  2  0  0  0  0
 38 41  1  0  0  0  0
 39 48  1  0  0  0  0
 40 78  1  0  0  0  0
 41 43  1  0  0  0  0
 42 44  1  0  0  0  0
 42 45  1  0  0  0  0
 43 47  1  0  0  0  0
 44 49  1  0  0  0  0
 45 79  1  0  0  0  0
 46 49  1  0  0  0  0
 46 79  1  0  0  0  0
 47 82  1  0  0  0  0
 48 78  1  0  0  0  0
 49 77  1  0  0  0  0
 51 73  1  0  0  0  0
 52 74  1  0  0  0  0
 53 74  1  0  0  0  0
 54 74  1  0  0  0  0
 55 84  1  0  0  0  0
 56 70  1  0  0  0  0
 57 58  1  0  0  0  0
 58 59  1  0  0  0  0
 59 60  1  0  0  0  0
 60 61  1  0  0  0  0
 61 62  1  0  0  0  0
 62 63  1  0  0  0  0
 63 64  1  0  0  0  0
 64 65  1  0  0  0  0
 65 66  1  0  0  0  0
 66 67  1  0  0  0  0
 67 68  1  0  0  0  0
 68 69  1  0  0  0  0
 69 71  1  0  0  0  0
 70 91  1  0  0  0  0
 71 92  1  0  0  0  0
 72 74  1  0  0  0  0
 72 83  1  0  0  0  0
 73 84  1  0  0  0  0
 76 77  1  0  0  0  0
M  CHG  1  84   1
M  ISO  4  35 100  57 100  70 101  91 101
M  END
> <Batch ID>
0032

> <Smiles>
CNC(C)C(=O)NC(C(=O)N1Cc2cc([101O:1][101CH2:1]Cc3c(OCCCCCCCCCCCCC[100CH2:0][100C:0](=O)N4CCCC(n5nc(-c6ccc(Oc7ccc(F)cc7F)cc6)c(C(N)=O)c5N)C4)ncc(Cl)c3C)ccc2CC1C(=O)NC1CCCc2ccccc21)C(C)(C)C

> <Shape>
0.271

> <Color>
0.076

> <Negative vol penalty>
0.000

$$$$

  -OEChem-04052316453D

 86 94  0     1  0  0  0  0  0999 V2000
  -23.7369  -23.9470   19.7217 C   0  0  0  0  0  0  0  0  0  0  0  0
  -24.8211  -23.1297   20.0249 C   0  0  0  0  0  0  0  0  0  0  0  0
  -25.4704  -28.4979   20.3870 C   0  0  0  0  0  0  0  0  0  0  0  0
  -26.8457  -28.2467   22.3574 C   0  0  0  0  0  0  0  0  0  0  0  0
  -22.4465  -23.5483   20.0680 C   0  0  0  0  0  0  0  0  0  0  0  0
  -24.6157  -21.9137   20.6756 C   0  0  0  0  0  0  0  0  0  0  0  0
  -27.2815  -18.1331   18.6152 C   0  0  0  0  0  0  0  0  0  0  0  0
  -24.3461  -28.6721   21.1939 C   0  0  0  0  0  0  0  0  0  0  0  0
  -25.7213  -28.4209   23.1644 C   0  0  0  0  0  0  0  0  0  0  0  0
  -28.6378  -18.0646   18.9308 C   0  0  0  0  0  0  0  0  0  0  0  0
  -22.2299  -26.7251   22.9703 C   0  0  0  0  0  0  0  0  0  0  0  0
  -21.0696  -26.0340   22.6217 C   0  0  0  0  0  0  0  0  0  0  0  0
  -28.1657  -16.3499   20.5606 C   0  0  0  0  0  0  0  0  0  0  0  0
  -34.5375  -15.8265   20.7423 C   0  0  0  0  0  0  0  0  0  0  0  0
  -32.7446  -16.9081   22.5857 C   0  0  0  0  0  0  0  0  0  0  0  0
  -19.8928  -28.1304   22.3820 C   0  0  0  0  0  0  0  0  0  0  0  0
  -26.7202  -28.2852   20.9688 C   0  0  0  0  0  0  0  0  0  0  0  0
  -28.7493  -29.1053   19.6581 C   0  0  0  0  0  0  0  0  0  0  0  0
  -22.2242  -22.3223   20.7146 C   0  0  0  0  0  0  0  0  0  0  0  0
  -26.3542  -17.3169   19.2788 C   0  0  0  0  0  0  0  0  0  0  0  0
  -23.3212  -21.4988   21.0321 C   0  0  0  0  0  0  0  0  0  0  0  0
  -26.7986  -16.4082   20.2498 C   0  0  0  0  0  0  0  0  0  0  0  0
  -35.0145  -16.4674   21.8856 C   0  0  0  0  0  0  0  0  0  0  0  0
  -33.1640  -15.7265   20.5206 C   0  0  0  0  0  0  0  0  0  0  0  0
  -34.1181  -17.0082   22.8074 C   0  0  0  0  0  0  0  0  0  0  0  0
  -32.2675  -16.2673   21.4423 C   0  0  0  0  0  0  0  0  0  0  0  0
  -24.4715  -28.6336   22.5826 C   0  0  0  0  0  0  0  0  0  0  0  0
  -29.0797  -17.1749   19.9057 C   0  0  0  0  0  0  0  0  0  0  0  0
  -22.2217  -28.1189   23.0248 C   0  0  0  0  0  0  0  0  0  0  0  0
  -19.9010  -26.7365   22.3275 C   0  0  0  0  0  0  0  0  0  0  0  0
  -21.0532  -28.8215   22.7306 C   0  0  0  0  0  0  0  0  0  0  0  0
  -27.8819  -28.1047   20.1357 C   0  0  0  0  0  0  0  0  0  0  0  0
  -29.6854  -28.4242   18.9190 C   0  0  0  0  0  0  0  0  0  0  0  0
  -28.7123  -30.5237   19.8643 C   0  0  0  0  0  0  0  0  0  0  0  0
  -23.8383  -17.8420   21.1490 C   0  0  0  0  0  0  0  0  0  0  0  0
  -31.5910  -22.7287   19.1246 C   0  0  0  0  0  0  0  0  0  0  0  0
  -23.4783  -14.6273   20.9077 C   0  0  0  0  0  0  0  0  0  0  0  0
  -24.9131  -11.5876   20.3174 C   0  0  0  0  0  0  0  0  0  0  0  0
  -20.8161  -21.9558   21.1115 C   0  0  0  0  0  0  0  0  0  0  0  0
  -24.8981  -17.3838   18.9079 C   0  0  0  0  0  0  0  0  0  0  0  0
  -25.8461  -15.4957   20.9769 C   0  0  0  0  0  0  0  0  0  0  0  0
  -20.6472  -20.4802   21.4641 C   0  0  0  0  0  0  0  0  0  0  0  0
  -30.2439  -24.4702   16.2975 C   0  0  0  0  0  0  0  0  0  0  0  0
  -21.7676  -20.0214   22.3920 C   0  0  0  0  0  0  0  0  0  0  0  0
  -29.5401  -25.6752   16.9201 C   0  0  0  0  0  0  0  0  0  0  0  0
  -30.1369  -23.2381   17.1906 C   0  0  0  0  0  0  0  0  0  0  0  0
  -29.9332  -24.6565   19.2076 C   0  0  0  0  0  0  0  0  0  0  0  0
  -23.1365  -20.1611   21.7151 C   0  0  1  0  0  0  0  0  0  0  0  0
  -23.9765  -16.8715   20.0104 C   0  0  1  0  0  0  0  0  0  0  0  0
  -30.0438  -25.9307   18.3517 C   0  0  2  0  0  0  0  0  0  0  0  0
  -36.4892  -16.5617   22.1021 C   0  0  0  0  0  0  0  0  0  0  0  0
  -32.6766  -15.0366   19.2889 C   0  0  0  0  0  0  0  0  0  0  0  0
  -24.3732   -9.1385   20.2280 C   0  0  0  0  0  0  0  0  0  0  0  0
  -23.4258  -14.5300   23.9569 C   0  0  0  0  0  0  0  0  0  0  0  0
  -23.8429  -12.0654   23.8160 C   0  0  0  0  0  0  0  0  0  0  0  0
  -21.7635  -13.0347   22.8367 C   0  0  0  0  0  0  0  0  0  0  0  0
  -25.6831  -11.4035   17.4657 C   0  0  0  0  0  0  0  0  0  0  0  0
  -34.6056  -17.6983   24.0389 C   0  0  0  0  0  0  0  0  0  0  0  0
  -30.7859  -16.1726   21.2248 C   0  0  0  0  0  0  0  0  0  1  0  0
  -32.0231  -23.0915   20.5230 C   0  0  0  0  0  0  0  0  0  0  0  0
  -35.1495  -19.1173   23.7922 C   0  0  0  0  0  0  0  0  0  0  0  0
  -33.1027  -22.1363   21.0241 C   0  0  0  0  0  0  0  0  0  0  0  0
  -34.1031  -20.0518   23.1761 C   0  0  0  0  0  0  0  0  0  0  0  0
  -33.5801  -22.4843   22.4381 C   0  0  0  0  0  0  0  0  0  0  0  0
  -34.6025  -21.4894   22.9982 C   0  0  0  0  0  0  0  0  0  0  0  0
  -23.9787  -13.4341   21.6855 C   0  0  1  0  0  0  0  0  0  0  0  0
  -24.4904  -10.4291   19.4321 C   0  0  2  0  0  0  0  0  0  0  0  0
  -23.2707  -13.2845   23.0616 C   0  0  0  0  0  0  0  0  0  0  0  0
  -28.2354  -26.8810   19.7337 N   0  0  0  0  0  0  0  0  0  0  0  0
  -29.3352  -27.1083   18.9955 N   0  0  0  0  0  0  0  0  0  0  0  0
  -24.4315  -15.6031   20.5834 N   0  0  0  0  0  0  0  0  0  0  0  0
  -30.6040  -23.5279   18.5474 N   0  0  0  0  0  0  0  0  0  0  0  0
  -30.7656  -28.8285   18.2175 N   0  0  0  0  0  0  0  0  0  0  0  0
  -27.6823  -31.0579   20.6504 N   0  0  0  0  0  0  0  0  0  0  0  0
  -23.3491  -19.0797   20.7770 N   0  0  0  0  0  0  0  0  0  0  0  0
  -23.8255  -12.2802   20.8061 N   0  0  0  0  0  0  0  0  0  0  0  0
  -25.4850  -10.2204   18.3421 N   0  3  0  0  0  0  0  0  0  0  0  0
  -29.5578  -31.2962   19.3526 O   0  0  0  0  0  0  0  0  0  0  0  0
  -24.1507  -17.4933   22.2815 O   0  0  0  0  0  0  0  0  0  0  0  0
  -32.1183  -21.7653   18.5624 O   0  0  0  0  0  0  0  0  0  0  0  0
  -22.2871  -14.6878   20.5930 O   0  0  0  0  0  0  0  0  0  0  0  0
  -26.0901  -11.8495   20.5549 O   0  0  0  0  0  0  0  0  0  0  0  0
  -23.3747  -28.8037   23.3703 O   0  0  0  0  0  0  0  0  0  0  0  0
  -30.4029  -17.1065   20.2161 O   0  0  0  0  0  0  0  0  0  1  0  0
  -18.7873  -26.0728   21.9913 F   0  0  0  0  0  0  0  0  0  0  0  0
  -21.0395  -30.1606   22.7802 F   0  0  0  0  0  0  0  0  0  0  0  0
  1  2  1  0  0  0  0
  1  5  2  0  0  0  0
  2  6  2  0  0  0  0
  3  8  2  0  0  0  0
  3 17  1  0  0  0  0
  4  9  1  0  0  0  0
  4 17  2  0  0  0  0
  5 19  1  0  0  0  0
  6 21  1  0  0  0  0
  7 10  2  0  0  0  0
  7 20  1  0  0  0  0
  8 27  1  0  0  0  0
  9 27  2  0  0  0  0
 10 28  1  0  0  0  0
 11 12  2  0  0  0  0
 11 29  1  0  0  0  0
 12 30  1  0  0  0  0
 13 22  1  0  0  0  0
 13 28  2  0  0  0  0
 14 23  2  0  0  0  0
 14 24  1  0  0  0  0
 15 25  2  0  0  0  0
 15 26  1  0  0  0  0
 16 30  2  0  0  0  0
 16 31  1  0  0  0  0
 17 32  1  0  0  0  0
 18 32  1  0  0  0  0
 18 33  2  0  0  0  0
 18 34  1  0  0  0  0
 19 21  2  0  0  0  0
 19 39  1  0  0  0  0
 20 22  2  0  0  0  0
 20 40  1  0  0  0  0
 21 48  1  0  0  0  0
 22 41  1  0  0  0  0
 23 25  1  0  0  0  0
 23 51  1  0  0  0  0
 24 26  2  0  0  0  0
 24 52  1  0  0  0  0
 25 58  1  0  0  0  0
 26 59  1  0  0  0  0
 27 83  1  0  0  0  0
 28 84  1  0  0  0  0
 29 31  2  0  0  0  0
 29 83  1  0  0  0  0
 30 85  1  0  0  0  0
 31 86  1  0  0  0  0
 32 69  2  0  0  0  0
 33 70  1  0  0  0  0
 33 73  1  0  0  0  0
 34 74  1  0  0  0  0
 34 78  2  0  0  0  0
 35 49  1  0  0  0  0
 35 75  1  0  0  0  0
 35 79  2  0  0  0  0
 36 60  1  0  0  0  0
 36 72  1  0  0  0  0
 36 80  2  0  0  0  0
 37 66  1  0  0  0  0
 37 71  1  0  0  0  0
 37 81  2  0  0  0  0
 38 67  1  0  0  0  0
 38 76  1  0  0  0  0
 38 82  2  0  0  0  0
 39 42  1  0  0  0  0
 40 49  1  0  0  0  0
 41 71  1  0  0  0  0
 42 44  1  0  0  0  0
 43 45  1  0  0  0  0
 43 46  1  0  0  0  0
 44 48  1  0  0  0  0
 45 50  1  0  0  0  0
 46 72  1  0  0  0  0
 47 50  1  0  0  0  0
 47 72  1  0  0  0  0
 48 75  1  0  0  0  0
 49 71  1  0  0  0  0
 50 70  1  0  0  0  0
 53 67  1  0  0  0  0
 54 68  1  0  0  0  0
 55 68  1  0  0  0  0
 56 68  1  0  0  0  0
 57 77  1  0  0  0  0
 58 61  1  0  0  0  0
 59 84  1  0  0  0  0
 60 62  1  0  0  0  0
 61 63  1  0  0  0  0
 62 64  1  0  0  0  0
 63 65  1  0  0  0  0
 64 65  1  0  0  0  0
 66 68  1  0  0  0  0
 66 76  1  0  0  0  0
 67 77  1  0  0  0  0
 69 70  1  0  0  0  0
M  CHG  1  77   1
M  ISO  4  36 100  59 101  60 100  84 101
M  END
> <Batch ID>
0032

> <Smiles>
CNC(C)C(=O)NC(C(=O)N1Cc2cc([101O:1][101CH2:1]c3cc(CCCCCC[100CH2:0][100C:0](=O)N4CCCC(n5nc(-c6ccc(Oc7ccc(F)cc7F)cc6)c(C(N)=O)c5N)C4)c(C)cc3C)ccc2CC1C(=O)NC1CCCc2ccccc21)C(C)(C)C

> <Shape>
0.210

> <Color>
0.095

> <Negative vol penalty>
0.000

$$$$

  -OEChem-04052316453D

 84 92  0     1  0  0  0  0  0999 V2000
  -29.2223  -25.0129   16.6174 C   0  0  0  0  0  0  0  0  0  0  0  0
  -28.0481  -24.9896   17.3631 C   0  0  0  0  0  0  0  0  0  0  0  0
  -26.1915  -14.6316   18.4932 C   0  0  0  0  0  0  0  0  0  0  0  0
  -25.3370  -15.2062   20.6788 C   0  0  0  0  0  0  0  0  0  0  0  0
  -30.3197  -25.7443   17.0699 C   0  0  0  0  0  0  0  0  0  0  0  0
  -27.9710  -25.6968   18.5625 C   0  0  0  0  0  0  0  0  0  0  0  0
  -23.6450  -28.2906   19.0136 C   0  0  0  0  0  0  0  0  0  0  0  0
  -26.2210  -13.2858   18.8584 C   0  0  0  0  0  0  0  0  0  0  0  0
  -25.3664  -13.8603   21.0440 C   0  0  0  0  0  0  0  0  0  0  0  0
  -22.5059  -27.5715   19.3728 C   0  0  0  0  0  0  0  0  0  0  0  0
  -23.4802  -11.1021   20.5389 C   0  0  0  0  0  0  0  0  0  0  0  0
  -22.3671  -10.5883   21.2041 C   0  0  0  0  0  0  0  0  0  0  0  0
  -22.7604  -28.3186   21.6524 C   0  0  0  0  0  0  0  0  0  0  0  0
  -25.3887  -24.2660   24.3107 C   0  0  0  0  0  0  0  0  0  0  0  0
  -22.9974  -24.0188   24.0704 C   0  0  0  0  0  0  0  0  0  0  0  0
  -23.7592  -10.0214   23.0956 C   0  0  0  0  0  0  0  0  0  0  0  0
  -25.7496  -15.5918   19.4033 C   0  0  0  0  0  0  0  0  0  0  0  0
  -24.6524  -17.6777   18.4271 C   0  0  0  0  0  0  0  0  0  0  0  0
  -30.2528  -26.4686   18.2706 C   0  0  0  0  0  0  0  0  0  0  0  0
  -24.3578  -29.0216   19.9749 C   0  0  0  0  0  0  0  0  0  0  0  0
  -29.0689  -26.4374   19.0321 C   0  0  0  0  0  0  0  0  0  0  0  0
  -23.9067  -29.0483   21.3023 C   0  0  0  0  0  0  0  0  0  0  0  0
  -25.5414  -24.1300   22.9309 C   0  0  0  0  0  0  0  0  0  0  0  0
  -24.4221  -23.9384   22.1209 C   0  0  0  0  0  0  0  0  0  0  0  0
  -25.8084  -12.9001   20.1338 C   0  0  0  0  0  0  0  0  0  0  0  0
  -22.0651  -27.5830   20.6929 C   0  0  0  0  0  0  0  0  0  0  0  0
  -24.7328  -11.0756   21.1520 C   0  0  0  0  0  0  0  0  0  0  0  0
  -23.1501  -23.8828   22.6906 C   0  0  0  0  0  0  0  0  0  0  0  0
  -22.5066  -10.0479   22.4825 C   0  0  0  0  0  0  0  0  0  0  0  0
  -24.8723  -10.5353   22.4303 C   0  0  0  0  0  0  0  0  0  0  0  0
  -24.1167  -24.2104   24.8805 C   0  0  0  0  0  0  0  0  0  0  0  0
  -25.7194  -16.9823   19.0268 C   0  0  0  0  0  0  0  0  0  0  0  0
  -25.1209  -18.9597   18.2741 C   0  0  0  0  0  0  0  0  0  0  0  0
  -23.3539  -17.2069   18.0426 C   0  0  0  0  0  0  0  0  0  0  0  0
  -27.3102  -28.9047   21.1469 C   0  0  0  0  0  0  0  0  0  0  0  0
  -26.3893  -31.6091   22.6833 C   0  0  0  0  0  0  0  0  0  0  0  0
  -23.8414  -33.5206   23.9085 C   0  0  0  0  0  0  0  0  0  0  0  0
  -28.4693  -22.8447   20.9592 C   0  0  0  0  0  0  0  0  0  0  0  0
  -31.4807  -27.2061   18.7428 C   0  0  0  0  0  0  0  0  0  0  0  0
  -25.5693  -29.8137   19.5660 C   0  0  0  0  0  0  0  0  0  0  0  0
  -24.6247  -29.8337   22.3682 C   0  0  0  0  0  0  0  0  0  0  0  0
  -31.1922  -28.2320   19.8358 C   0  0  0  0  0  0  0  0  0  0  0  0
  -29.6055  -21.0344   18.1117 C   0  0  0  0  0  0  0  0  0  0  0  0
  -30.2932  -27.6288   20.9103 C   0  0  0  0  0  0  0  0  0  0  0  0
  -28.6200  -19.8696   18.0016 C   0  0  0  0  0  0  0  0  0  0  0  0
  -29.9062  -21.3835   19.5676 C   0  0  0  0  0  0  0  0  0  0  0  0
  -27.7316  -20.4771   20.2908 C   0  0  0  0  0  0  0  0  0  0  0  0
  -28.9382  -27.2118   20.3257 C   0  0  1  0  0  0  0  0  0  0  0  0
  -26.5119  -30.1072   20.7292 C   0  0  1  0  0  0  0  0  0  0  0  0
  -27.3542  -20.1247   18.8418 C   0  0  2  0  0  0  0  0  0  0  0  0
  -24.5799  -23.7916   20.6410 C   0  0  0  0  0  0  0  0  0  0  0  0
  -23.4023  -35.6586   25.1468 C   0  0  0  0  0  0  0  0  0  0  0  0
  -27.2624  -30.2780   25.2864 C   0  0  0  0  0  0  0  0  0  0  0  0
  -25.9540  -32.0123   26.5307 C   0  0  0  0  0  0  0  0  0  0  0  0
  -27.8755  -32.6949   25.0939 C   0  0  0  0  0  0  0  0  0  0  0  0
  -22.2850  -34.6418   21.6548 C   0  0  0  0  0  0  0  0  0  0  0  0
  -26.9138  -24.1935   22.3450 C   0  0  0  0  0  0  0  0  0  0  0  0
  -19.9654  -24.6850   21.1883 C   0  0  0  0  0  0  0  0  0  0  0  0
  -20.6670  -25.6998   20.2994 C   0  0  0  0  0  0  0  0  0  1  0  0
  -20.8261  -24.2751   22.3730 C   0  0  0  0  0  0  0  0  0  0  0  0
  -25.7303  -31.9153   24.0065 C   0  0  1  0  0  0  0  0  0  0  0  0
  -23.5438  -35.0037   23.7815 C   0  0  2  0  0  0  0  0  0  0  0  0
  -26.6929  -31.7087   25.2099 C   0  0  0  0  0  0  0  0  0  0  0  0
  -26.7855  -17.7582   19.2402 N   0  0  0  0  0  0  0  0  0  0  0  0
  -26.3907  -18.9544   18.7719 N   0  0  0  0  0  0  0  0  0  0  0  0
  -25.8077  -30.5869   21.9201 N   0  0  0  0  0  0  0  0  0  0  0  0
  -28.6640  -21.6151   20.3086 N   0  0  0  0  0  0  0  0  0  0  0  0
  -24.5664  -20.0798   17.7637 N   0  0  0  0  0  0  0  0  0  0  0  0
  -23.0364  -15.8611   18.2714 N   0  0  0  0  0  0  0  0  0  0  0  0
  -28.0902  -28.3696   20.1395 N   0  0  0  0  0  0  0  0  0  0  0  0
  -25.1969  -33.2685   23.8935 N   0  0  0  0  0  0  0  0  0  0  0  0
  -27.2622  -22.9841   21.6332 N   0  0  0  0  0  0  0  0  0  0  0  0
  -22.2772  -35.2150   23.0253 N   0  3  0  0  0  0  0  0  0  0  0  0
  -22.5063  -17.9534   17.4969 O   0  0  0  0  0  0  0  0  0  0  0  0
  -27.2259  -28.4937   22.2983 O   0  0  0  0  0  0  0  0  0  0  0  0
  -27.3794  -32.2580   22.3363 O   0  0  0  0  0  0  0  0  0  0  0  0
  -22.9596  -32.6710   24.0145 O   0  0  0  0  0  0  0  0  0  0  0  0
  -29.3067  -23.7530   20.9364 O   0  0  0  0  0  0  0  0  0  0  0  0
  -25.8368  -11.5869   20.4905 O   0  0  0  0  0  0  0  0  0  0  0  0
  -20.9539  -26.8814   21.0463 O   0  0  0  0  0  0  0  0  0  1  0  0
  -22.0387  -23.6957   21.9106 O   0  0  0  0  0  0  0  0  0  0  0  0
  -21.4373   -9.5559   23.1218 F   0  0  0  0  0  0  0  0  0  0  0  0
  -26.0730  -10.5081   23.0249 F   0  0  0  0  0  0  0  0  0  0  0  0
  -23.9281  -24.3789   26.5824 Cl  0  0  0  0  0  0  0  0  0  0  0  0
  1  2  1  0  0  0  0
  1  5  2  0  0  0  0
  2  6  2  0  0  0  0
  3  8  2  0  0  0  0
  3 17  1  0  0  0  0
  4  9  1  0  0  0  0
  4 17  2  0  0  0  0
  5 19  1  0  0  0  0
  6 21  1  0  0  0  0
  7 10  2  0  0  0  0
  7 20  1  0  0  0  0
  8 25  1  0  0  0  0
  9 25  2  0  0  0  0
 10 26  1  0  0  0  0
 11 12  2  0  0  0  0
 11 27  1  0  0  0  0
 12 29  1  0  0  0  0
 13 22  1  0  0  0  0
 13 26  2  0  0  0  0
 14 23  2  0  0  0  0
 14 31  1  0  0  0  0
 15 28  1  0  0  0  0
 15 31  2  0  0  0  0
 16 29  2  0  0  0  0
 16 30  1  0  0  0  0
 17 32  1  0  0  0  0
 18 32  1  0  0  0  0
 18 33  2  0  0  0  0
 18 34  1  0  0  0  0
 19 21  2  0  0  0  0
 19 39  1  0  0  0  0
 20 22  2  0  0  0  0
 20 40  1  0  0  0  0
 21 48  1  0  0  0  0
 22 41  1  0  0  0  0
 23 24  1  0  0  0  0
 23 57  1  0  0  0  0
 24 28  2  0  0  0  0
 24 51  1  0  0  0  0
 25 79  1  0  0  0  0
 26 80  1  0  0  0  0
 27 30  2  0  0  0  0
 27 79  1  0  0  0  0
 28 81  1  0  0  0  0
 29 82  1  0  0  0  0
 30 83  1  0  0  0  0
 31 84  1  0  0  0  0
 32 64  2  0  0  0  0
 33 65  1  0  0  0  0
 33 68  1  0  0  0  0
 34 69  1  0  0  0  0
 34 74  2  0  0  0  0
 35 49  1  0  0  0  0
 35 70  1  0  0  0  0
 35 75  2  0  0  0  0
 36 61  1  0  0  0  0
 36 66  1  0  0  0  0
 36 76  2  0  0  0  0
 37 62  1  0  0  0  0
 37 71  1  0  0  0  0
 37 77  2  0  0  0  0
 38 67  1  0  0  0  0
 38 72  1  0  0  0  0
 38 78  2  0  0  0  0
 39 42  1  0  0  0  0
 40 49  1  0  0  0  0
 41 66  1  0  0  0  0
 42 44  1  0  0  0  0
 43 45  1  0  0  0  0
 43 46  1  0  0  0  0
 44 48  1  0  0  0  0
 45 50  1  0  0  0  0
 46 67  1  0  0  0  0
 47 50  1  0  0  0  0
 47 67  1  0  0  0  0
 48 70  1  0  0  0  0
 49 66  1  0  0  0  0
 50 65  1  0  0  0  0
 52 62  1  0  0  0  0
 53 63  1  0  0  0  0
 54 63  1  0  0  0  0
 55 63  1  0  0  0  0
 56 73  1  0  0  0  0
 57 72  1  0  0  0  0
 58 59  1  0  0  0  0
 58 60  1  0  0  0  0
 59 80  1  0  0  0  0
 60 81  1  0  0  0  0
 61 63  1  0  0  0  0
 61 71  1  0  0  0  0
 62 73  1  0  0  0  0
 64 65  1  0  0  0  0
M  CHG  1  73   1
M  ISO  4  38 100  59 101  72 100  80 101
M  END
> <Batch ID>
0032

> <Smiles>
CNC(C)C(=O)NC(C(=O)N1Cc2cc([101O:1][101CH2:1]CCOc3cc(Cl)cc(C[100NH:0][100C:0](=O)N4CCCC(n5nc(-c6ccc(Oc7ccc(F)cc7F)cc6)c(C(N)=O)c5N)C4)c3C)ccc2CC1C(=O)NC1CCCc2ccccc21)C(C)(C)C

> <Shape>
0.269

> <Color>
0.073

> <Negative vol penalty>
0.000

$$$$

  -OEChem-04052316453D

 87 95  0     1  0  0  0  0  0999 V2000
  -28.9906  -33.1480   24.3333 C   0  0  0  0  0  0  0  0  0  0  0  0
  -29.1699  -31.7820   24.1400 C   0  0  0  0  0  0  0  0  0  0  0  0
  -24.0491   -9.9219   22.0153 C   0  0  0  0  0  0  0  0  0  0  0  0
  -22.1886  -10.5124   20.5917 C   0  0  0  0  0  0  0  0  0  0  0  0
  -27.7071  -33.6920   24.3078 C   0  0  0  0  0  0  0  0  0  0  0  0
  -28.0655  -30.9590   23.9222 C   0  0  0  0  0  0  0  0  0  0  0  0
  -28.8086  -27.6705   20.1435 C   0  0  0  0  0  0  0  0  0  0  0  0
  -23.6357   -8.5899   22.0033 C   0  0  0  0  0  0  0  0  0  0  0  0
  -21.7751   -9.1802   20.5796 C   0  0  0  0  0  0  0  0  0  0  0  0
  -29.5832  -26.5452   20.4218 C   0  0  0  0  0  0  0  0  0  0  0  0
  -23.8186   -5.9436   19.9064 C   0  0  0  0  0  0  0  0  0  0  0  0
  -24.7920   -4.9645   19.7077 C   0  0  0  0  0  0  0  0  0  0  0  0
  -27.5751  -25.2329   20.6753 C   0  0  0  0  0  0  0  0  0  0  0  0
  -30.6922  -21.8846   17.9186 C   0  0  0  0  0  0  0  0  0  0  0  0
  -29.3672  -21.2836   19.8474 C   0  0  0  0  0  0  0  0  0  0  0  0
  -24.2510   -3.9917   21.8521 C   0  0  0  0  0  0  0  0  0  0  0  0
  -23.3256  -10.8832   21.3095 C   0  0  0  0  0  0  0  0  0  0  0  0
  -24.6375  -12.8833   20.4229 C   0  0  0  0  0  0  0  0  0  0  0  0
  -26.5873  -32.8767   24.0800 C   0  0  0  0  0  0  0  0  0  0  0  0
  -27.4087  -27.5878   20.1397 C   0  0  0  0  0  0  0  0  0  0  0  0
  -26.7657  -31.4924   23.8950 C   0  0  0  0  0  0  0  0  0  0  0  0
  -26.7850  -26.3580   20.3941 C   0  0  0  0  0  0  0  0  0  0  0  0
  -30.4693  -21.9359   19.2945 C   0  0  0  0  0  0  0  0  0  0  0  0
  -29.8130  -21.1810   17.0954 C   0  0  0  0  0  0  0  0  0  0  0  0
  -28.7109  -20.5286   17.6482 C   0  0  0  0  0  0  0  0  0  0  0  0
  -22.4986   -8.2190   21.2854 C   0  0  0  0  0  0  0  0  0  0  0  0
  -28.9665  -25.3269   20.6906 C   0  0  0  0  0  0  0  0  0  0  0  0
  -23.0615   -5.9469   21.0779 C   0  0  0  0  0  0  0  0  0  0  0  0
  -28.4880  -20.5799   19.0242 C   0  0  0  0  0  0  0  0  0  0  0  0
  -25.0082   -3.9886   20.6805 C   0  0  0  0  0  0  0  0  0  0  0  0
  -23.2777   -4.9709   22.0507 C   0  0  0  0  0  0  0  0  0  0  0  0
  -23.7519  -12.2595   21.3220 C   0  0  0  0  0  0  0  0  0  0  0  0
  -24.7132  -14.1827   20.8614 C   0  0  0  0  0  0  0  0  0  0  0  0
  -25.3297  -12.3371   19.2924 C   0  0  0  0  0  0  0  0  0  0  0  0
  -25.0772  -28.9394   21.8252 C   0  0  0  0  0  0  0  0  0  0  0  0
  -23.1752  -27.4077   19.6901 C   0  0  0  0  0  0  0  0  0  0  0  0
  -22.7906  -24.8450   17.4695 C   0  0  0  0  0  0  0  0  0  0  0  0
  -22.2707  -18.8330   22.7467 C   0  0  0  0  0  0  0  0  0  0  0  0
  -25.2156  -33.5029   24.1083 C   0  0  0  0  0  0  0  0  0  0  0  0
  -26.5880  -28.8047   19.8113 C   0  0  0  0  0  0  0  0  0  0  0  0
  -25.2860  -26.2116   20.3822 C   0  0  0  0  0  0  0  0  0  0  0  0
  -24.1300  -32.6196   23.4986 C   0  0  0  0  0  0  0  0  0  0  0  0
  -23.0573  -16.3157   25.1386 C   0  0  0  0  0  0  0  0  0  0  0  0
  -24.2479  -31.1914   24.0213 C   0  0  0  0  0  0  0  0  0  0  0  0
  -23.3748  -15.0866   24.2852 C   0  0  0  0  0  0  0  0  0  0  0  0
  -21.9308  -17.1488   24.5312 C   0  0  0  0  0  0  0  0  0  0  0  0
  -22.4593  -16.3158   22.2728 C   0  0  0  0  0  0  0  0  0  0  0  0
  -25.5948  -30.5707   23.6312 C   0  0  1  0  0  0  0  0  0  0  0  0
  -25.1595  -28.7226   20.3406 C   0  0  1  0  0  0  0  0  0  0  0  0
  -23.6269  -15.4743   22.8157 C   0  0  2  0  0  0  0  0  0  0  0  0
  -30.0730  -21.1423   15.6250 C   0  0  0  0  0  0  0  0  0  0  0  0
  -26.8187  -20.6958   16.0117 C   0  0  0  0  0  0  0  0  0  0  0  0
  -21.1117  -23.8290   15.9053 C   0  0  0  0  0  0  0  0  0  0  0  0
  -21.7040  -26.1850   22.0672 C   0  0  0  0  0  0  0  0  0  0  0  0
  -20.7138  -24.5024   20.4999 C   0  0  0  0  0  0  0  0  0  0  0  0
  -20.2231  -26.9291   20.1944 C   0  0  0  0  0  0  0  0  0  0  0  0
  -24.5237  -25.3168   15.1173 C   0  0  0  0  0  0  0  0  0  0  0  0
  -31.4201  -22.6985   20.1849 C   0  0  0  0  0  0  0  0  0  0  0  0
  -27.7657  -19.7721   16.7704 C   0  0  0  0  0  0  0  0  0  0  0  0
  -24.0576  -20.9841   20.9508 C   0  0  0  0  0  0  0  0  0  0  0  0
  -25.0962  -20.1334   20.2192 C   0  0  0  0  0  0  0  0  0  0  0  0
  -22.6523  -20.3979   20.8587 C   0  0  0  0  0  0  0  0  0  0  0  0
  -31.0100  -24.1571   20.3566 C   0  0  0  0  0  0  0  0  0  1  0  0
  -26.4833  -20.7595   20.2909 C   0  0  0  0  0  0  0  0  0  0  0  0
  -22.5228  -26.0480   19.6225 C   0  0  1  0  0  0  0  0  0  0  0  0
  -22.2604  -24.8154   16.0473 C   0  0  2  0  0  0  0  0  0  0  0  0
  -21.3192  -25.9190   20.5982 C   0  0  0  0  0  0  0  0  0  0  0  0
  -23.2976  -13.0939   22.2608 N   0  0  0  0  0  0  0  0  0  0  0  0
  -23.9003  -14.2553   21.9541 N   0  0  0  0  0  0  0  0  0  0  0  0
  -24.5268  -27.4317   20.0620 N   0  0  0  0  0  0  0  0  0  0  0  0
  -22.2325  -17.4844   23.1376 N   0  0  0  0  0  0  0  0  0  0  0  0
  -25.3952  -15.2588   20.4151 N   0  0  0  0  0  0  0  0  0  0  0  0
  -25.1387  -10.9837   18.9820 N   0  0  0  0  0  0  0  0  0  0  0  0
  -25.5781  -30.1571   22.2445 N   0  0  0  0  0  0  0  0  0  0  0  0
  -22.1822  -25.8279   18.2211 N   0  0  0  0  0  0  0  0  0  0  0  0
  -22.5702  -19.0635   21.4096 N   0  0  0  0  0  0  0  0  0  0  0  0
  -23.3403  -24.4188   15.1000 N   0  3  0  0  0  0  0  0  0  0  0  0
  -26.1077  -13.0245   18.5884 O   0  0  0  0  0  0  0  0  0  0  0  0
  -24.5937  -28.0672   22.5373 O   0  0  0  0  0  0  0  0  0  0  0  0
  -22.5119  -28.4110   19.4160 O   0  0  0  0  0  0  0  0  0  0  0  0
  -23.6551  -24.0708   17.8743 O   0  0  0  0  0  0  0  0  0  0  0  0
  -22.0591  -19.7630   23.5325 O   0  0  0  0  0  0  0  0  0  0  0  0
  -22.0950   -6.9192   21.2733 O   0  0  0  0  0  0  0  0  0  0  0  0
  -29.7202  -24.2271   20.9632 O   0  0  0  0  0  0  0  0  0  1  0  0
  -27.4176  -19.9480   19.5821 O   0  0  0  0  0  0  0  0  0  0  0  0
  -25.9419   -3.0474   20.4889 F   0  0  0  0  0  0  0  0  0  0  0  0
  -22.5527   -4.9682   23.1777 F   0  0  0  0  0  0  0  0  0  0  0  0
  1  2  1  0  0  0  0
  1  5  2  0  0  0  0
  2  6  2  0  0  0  0
  3  8  2  0  0  0  0
  3 17  1  0  0  0  0
  4  9  1  0  0  0  0
  4 17  2  0  0  0  0
  5 19  1  0  0  0  0
  6 21  1  0  0  0  0
  7 10  2  0  0  0  0
  7 20  1  0  0  0  0
  8 26  1  0  0  0  0
  9 26  2  0  0  0  0
 10 27  1  0  0  0  0
 11 12  2  0  0  0  0
 11 28  1  0  0  0  0
 12 30  1  0  0  0  0
 13 22  1  0  0  0  0
 13 27  2  0  0  0  0
 14 23  1  0  0  0  0
 14 24  2  0  0  0  0
 15 23  2  0  0  0  0
 15 29  1  0  0  0  0
 16 30  2  0  0  0  0
 16 31  1  0  0  0  0
 17 32  1  0  0  0  0
 18 32  1  0  0  0  0
 18 33  2  0  0  0  0
 18 34  1  0  0  0  0
 19 21  2  0  0  0  0
 19 39  1  0  0  0  0
 20 22  2  0  0  0  0
 20 40  1  0  0  0  0
 21 48  1  0  0  0  0
 22 41  1  0  0  0  0
 23 58  1  0  0  0  0
 24 25  1  0  0  0  0
 24 51  1  0  0  0  0
 25 29  2  0  0  0  0
 25 59  1  0  0  0  0
 26 83  1  0  0  0  0
 27 84  1  0  0  0  0
 28 31  2  0  0  0  0
 28 83  1  0  0  0  0
 29 85  1  0  0  0  0
 30 86  1  0  0  0  0
 31 87  1  0  0  0  0
 32 68  2  0  0  0  0
 33 69  1  0  0  0  0
 33 72  1  0  0  0  0
 34 73  1  0  0  0  0
 34 78  2  0  0  0  0
 35 49  1  0  0  0  0
 35 74  1  0  0  0  0
 35 79  2  0  0  0  0
 36 65  1  0  0  0  0
 36 70  1  0  0  0  0
 36 80  2  0  0  0  0
 37 66  1  0  0  0  0
 37 75  1  0  0  0  0
 37 81  2  0  0  0  0
 38 71  1  0  0  0  0
 38 76  1  0  0  0  0
 38 82  2  0  0  0  0
 39 42  1  0  0  0  0
 40 49  1  0  0  0  0
 41 70  1  0  0  0  0
 42 44  1  0  0  0  0
 43 45  1  0  0  0  0
 43 46  1  0  0  0  0
 44 48  1  0  0  0  0
 45 50  1  0  0  0  0
 46 71  1  0  0  0  0
 47 50  1  0  0  0  0
 47 71  1  0  0  0  0
 48 74  1  0  0  0  0
 49 70  1  0  0  0  0
 50 69  1  0  0  0  0
 52 59  1  0  0  0  0
 53 66  1  0  0  0  0
 54 67  1  0  0  0  0
 55 67  1  0  0  0  0
 56 67  1  0  0  0  0
 57 77  1  0  0  0  0
 58 63  1  0  0  0  0
 60 61  1  0  0  0  0
 60 62  1  0  0  0  0
 61 64  1  0  0  0  0
 62 76  1  0  0  0  0
 63 84  1  0  0  0  0
 64 85  1  0  0  0  0
 65 67  1  0  0  0  0
 65 75  1  0  0  0  0
 66 77  1  0  0  0  0
 68 69  1  0  0  0  0
M  CHG  1  77   1
M  ISO  4  38 100  63 101  76 100  84 101
M  END
> <Batch ID>
0032

> <Smiles>
CCc1c(C)cc(C[101CH2:1][101O:1]c2ccc3c(c2)CN(C(=O)C(NC(=O)C(C)NC)C(C)(C)C)C(C(=O)NC2CCCc4ccccc42)C3)cc1OCCCC[100NH:0][100C:0](=O)N1CCCC(n2nc(-c3ccc(Oc4ccc(F)cc4F)cc3)c(C(N)=O)c2N)C1

> <Shape>
0.235

> <Color>
0.086

> <Negative vol penalty>
0.000

$$$$

  -OEChem-04052316453D

 83 91  0     1  0  0  0  0  0999 V2000
  -28.6304   -9.7395   16.7351 C   0  0  0  0  0  0  0  0  0  0  0  0
  -27.4627  -10.4926   16.6663 C   0  0  0  0  0  0  0  0  0  0  0  0
  -27.1324  -31.3262   21.7019 C   0  0  0  0  0  0  0  0  0  0  0  0
  -26.2554  -29.7852   23.3430 C   0  0  0  0  0  0  0  0  0  0  0  0
  -29.5608   -9.9885   17.7432 C   0  0  0  0  0  0  0  0  0  0  0  0
  -27.2243  -11.4946   17.6063 C   0  0  0  0  0  0  0  0  0  0  0  0
  -24.3666  -16.8276   16.6579 C   0  0  0  0  0  0  0  0  0  0  0  0
  -27.5269  -32.1899   22.7236 C   0  0  0  0  0  0  0  0  0  0  0  0
  -26.6499  -30.6489   24.3648 C   0  0  0  0  0  0  0  0  0  0  0  0
  -23.0589  -17.2467   16.8985 C   0  0  0  0  0  0  0  0  0  0  0  0
  -28.4423  -34.9670   24.8855 C   0  0  0  0  0  0  0  0  0  0  0  0
  -28.1691  -36.3259   24.7296 C   0  0  0  0  0  0  0  0  0  0  0  0
  -23.7585  -18.2033   18.9997 C   0  0  0  0  0  0  0  0  0  0  0  0
  -17.8737  -20.7079   18.9553 C   0  0  0  0  0  0  0  0  0  0  0  0
  -18.9641  -18.6434   20.4823 C   0  0  0  0  0  0  0  0  0  0  0  0
  -25.8071  -35.8358   24.5966 C   0  0  0  0  0  0  0  0  0  0  0  0
  -26.4966  -30.1239   22.0115 C   0  0  0  0  0  0  0  0  0  0  0  0
  -26.8437  -28.1910   20.3833 C   0  0  0  0  0  0  0  0  0  0  0  0
  -29.3382  -11.0006   18.6902 C   0  0  0  0  0  0  0  0  0  0  0  0
  -25.3797  -17.0840   17.5930 C   0  0  0  0  0  0  0  0  0  0  0  0
  -28.1520  -11.7566   18.6288 C   0  0  0  0  0  0  0  0  0  0  0  0
  -25.0788  -17.7885   18.7674 C   0  0  0  0  0  0  0  0  0  0  0  0
  -17.0597  -19.9733   19.8175 C   0  0  0  0  0  0  0  0  0  0  0  0
  -17.6049  -18.9410   20.5810 C   0  0  0  0  0  0  0  0  0  0  0  0
  -19.2329  -20.4102   18.8565 C   0  0  0  0  0  0  0  0  0  0  0  0
  -19.7780  -19.3780   19.6200 C   0  0  0  0  0  0  0  0  0  0  0  0
  -27.2856  -31.8513   24.0551 C   0  0  0  0  0  0  0  0  0  0  0  0
  -22.7541  -17.9322   18.0709 C   0  0  0  0  0  0  0  0  0  0  0  0
  -27.3979  -34.0424   24.8968 C   0  0  0  0  0  0  0  0  0  0  0  0
  -26.8516  -36.7603   24.5853 C   0  0  0  0  0  0  0  0  0  0  0  0
  -26.0803  -34.4768   24.7524 C   0  0  0  0  0  0  0  0  0  0  0  0
  -26.0884  -29.2316   20.9564 C   0  0  0  0  0  0  0  0  0  0  0  0
  -26.0146  -27.6485   19.4321 C   0  0  0  0  0  0  0  0  0  0  0  0
  -28.1757  -27.7538   20.6840 C   0  0  0  0  0  0  0  0  0  0  0  0
  -27.3117  -15.2800   19.3584 C   0  0  0  0  0  0  0  0  0  0  0  0
  -28.6339  -18.1389   20.1338 C   0  0  0  0  0  0  0  0  0  0  0  0
  -28.2651  -21.5197   20.4178 C   0  0  0  0  0  0  0  0  0  0  0  0
  -20.9957  -25.8085   17.8288 C   0  0  0  0  0  0  0  0  0  0  0  0
  -30.3508  -11.2014   19.7897 C   0  0  0  0  0  0  0  0  0  0  0  0
  -26.7906  -16.6486   17.3063 C   0  0  0  0  0  0  0  0  0  0  0  0
  -26.1341  -18.1067   19.7938 C   0  0  0  0  0  0  0  0  0  0  0  0
  -30.1979  -12.5314   20.5232 C   0  0  0  0  0  0  0  0  0  0  0  0
  -21.6130  -29.3054   17.5700 C   0  0  0  0  0  0  0  0  0  0  0  0
  -28.7353  -12.7805   20.8776 C   0  0  0  0  0  0  0  0  0  0  0  0
  -22.8905  -29.5127   18.3855 C   0  0  0  0  0  0  0  0  0  0  0  0
  -20.7117  -28.2421   18.1936 C   0  0  0  0  0  0  0  0  0  0  0  0
  -22.6457  -27.1538   19.2655 C   0  0  0  0  0  0  0  0  0  0  0  0
  -27.8691  -12.8687   19.6153 C   0  0  1  0  0  0  0  0  0  0  0  0
  -27.6415  -16.5127   18.5652 C   0  0  1  0  0  0  0  0  0  0  0  0
  -23.6126  -28.1770   18.6455 C   0  0  2  0  0  0  0  0  0  0  0  0
  -15.6075  -20.3105   19.9070 C   0  0  0  0  0  0  0  0  0  0  0  0
  -16.7531  -18.1413   21.5113 C   0  0  0  0  0  0  0  0  0  0  0  0
  -29.5084  -23.5853   21.1139 C   0  0  0  0  0  0  0  0  0  0  0  0
  -28.2441  -17.3830   23.0641 C   0  0  0  0  0  0  0  0  0  0  0  0
  -28.5972  -19.7890   23.6594 C   0  0  0  0  0  0  0  0  0  0  0  0
  -30.4241  -18.4981   22.5554 C   0  0  0  0  0  0  0  0  0  0  0  0
  -28.0303  -22.7110   17.7188 C   0  0  0  0  0  0  0  0  0  0  0  0
  -20.0845  -21.2098   17.9260 C   0  0  0  0  0  0  0  0  0  0  0  0
  -21.2369  -19.0391   19.5300 C   0  0  0  0  0  0  0  0  0  1  0  0
  -20.5084  -22.5854   18.4752 C   0  0  0  0  0  0  0  0  0  0  0  0
  -21.4218  -23.3801   17.5445 C   0  0  0  0  0  0  0  0  0  0  0  0
  -28.3935  -19.1717   21.2082 C   0  0  1  0  0  0  0  0  0  0  0  0
  -29.1404  -22.6708   19.9560 C   0  0  2  0  0  0  0  0  0  0  0  0
  -28.8942  -18.7029   22.6035 C   0  0  0  0  0  0  0  0  0  0  0  0
  -24.8729  -29.3454   20.4145 N   0  0  0  0  0  0  0  0  0  0  0  0
  -24.8582  -28.3693   19.4908 N   0  0  0  0  0  0  0  0  0  0  0  0
  -27.4974  -17.6544   19.4707 N   0  0  0  0  0  0  0  0  0  0  0  0
  -21.4565  -26.9999   18.4129 N   0  0  0  0  0  0  0  0  0  0  0  0
  -26.1692  -26.6301   18.5595 N   0  0  0  0  0  0  0  0  0  0  0  0
  -28.8870  -28.4216   21.6901 N   0  0  0  0  0  0  0  0  0  0  0  0
  -28.0287  -14.1603   18.9821 N   0  0  0  0  0  0  0  0  0  0  0  0
  -29.0123  -20.4050   20.7346 N   0  0  0  0  0  0  0  0  0  0  0  0
  -21.7638  -24.6784   18.0814 N   0  0  0  0  0  0  0  0  0  0  0  0
  -28.4307  -23.4800   18.9252 N   0  3  0  0  0  0  0  0  0  0  0  0
  -28.7250  -26.8097   20.0670 O   0  0  0  0  0  0  0  0  0  0  0  0
  -26.4702  -15.3406   20.2472 O   0  0  0  0  0  0  0  0  0  0  0  0
  -29.7881  -17.7805   19.8868 O   0  0  0  0  0  0  0  0  0  0  0  0
  -27.0412  -21.6024   20.4937 O   0  0  0  0  0  0  0  0  0  0  0  0
  -19.9784  -25.7567   17.1293 O   0  0  0  0  0  0  0  0  0  0  0  0
  -27.6707  -32.6937   25.0524 O   0  0  0  0  0  0  0  0  0  0  0  0
  -21.4783  -18.3419   18.3085 O   0  0  0  0  0  0  0  0  0  1  0  0
  -26.5893  -38.0655   24.4372 F   0  0  0  0  0  0  0  0  0  0  0  0
  -25.0726  -33.5935   24.7637 F   0  0  0  0  0  0  0  0  0  0  0  0
  1  2  1  0  0  0  0
  1  5  2  0  0  0  0
  2  6  2  0  0  0  0
  3  8  2  0  0  0  0
  3 17  1  0  0  0  0
  4  9  1  0  0  0  0
  4 17  2  0  0  0  0
  5 19  1  0  0  0  0
  6 21  1  0  0  0  0
  7 10  2  0  0  0  0
  7 20  1  0  0  0  0
  8 27  1  0  0  0  0
  9 27  2  0  0  0  0
 10 28  1  0  0  0  0
 11 12  2  0  0  0  0
 11 29  1  0  0  0  0
 12 30  1  0  0  0  0
 13 22  1  0  0  0  0
 13 28  2  0  0  0  0
 14 23  2  0  0  0  0
 14 25  1  0  0  0  0
 15 24  2  0  0  0  0
 15 26  1  0  0  0  0
 16 30  2  0  0  0  0
 16 31  1  0  0  0  0
 17 32  1  0  0  0  0
 18 32  1  0  0  0  0
 18 33  2  0  0  0  0
 18 34  1  0  0  0  0
 19 21  2  0  0  0  0
 19 39  1  0  0  0  0
 20 22  2  0  0  0  0
 20 40  1  0  0  0  0
 21 48  1  0  0  0  0
 22 41  1  0  0  0  0
 23 24  1  0  0  0  0
 23 51  1  0  0  0  0
 24 52  1  0  0  0  0
 25 26  2  0  0  0  0
 25 58  1  0  0  0  0
 26 59  1  0  0  0  0
 27 80  1  0  0  0  0
 28 81  1  0  0  0  0
 29 31  2  0  0  0  0
 29 80  1  0  0  0  0
 30 82  1  0  0  0  0
 31 83  1  0  0  0  0
 32 65  2  0  0  0  0
 33 66  1  0  0  0  0
 33 69  1  0  0  0  0
 34 70  1  0  0  0  0
 34 75  2  0  0  0  0
 35 49  1  0  0  0  0
 35 71  1  0  0  0  0
 35 76  2  0  0  0  0
 36 62  1  0  0  0  0
 36 67  1  0  0  0  0
 36 77  2  0  0  0  0
 37 63  1  0  0  0  0
 37 72  1  0  0  0  0
 37 78  2  0  0  0  0
 38 68  1  0  0  0  0
 38 73  1  0  0  0  0
 38 79  2  0  0  0  0
 39 42  1  0  0  0  0
 40 49  1  0  0  0  0
 41 67  1  0  0  0  0
 42 44  1  0  0  0  0
 43 45  1  0  0  0  0
 43 46  1  0  0  0  0
 44 48  1  0  0  0  0
 45 50  1  0  0  0  0
 46 68  1  0  0  0  0
 47 50  1  0  0  0  0
 47 68  1  0  0  0  0
 48 71  1  0  0  0  0
 49 67  1  0  0  0  0
 50 66  1  0  0  0  0
 53 63  1  0  0  0  0
 54 64  1  0  0  0  0
 55 64  1  0  0  0  0
 56 64  1  0  0  0  0
 57 74  1  0  0  0  0
 58 60  1  0  0  0  0
 59 81  1  0  0  0  0
 60 61  1  0  0  0  0
 61 73  1  0  0  0  0
 62 64  1  0  0  0  0
 62 72  1  0  0  0  0
 63 74  1  0  0  0  0
 65 66  1  0  0  0  0
M  CHG  1  74   1
M  ISO  4  38 100  59 101  73 100  81 101
M  END
> <Batch ID>
0032

> <Smiles>
CNC(C)C(=O)NC(C(=O)N1Cc2cc([101O:1][101CH2:1]c3cc(C)c(C)cc3CCC[100NH:0][100C:0](=O)N3CCCC(n4nc(-c5ccc(Oc6ccc(F)cc6F)cc5)c(C(N)=O)c4N)C3)ccc2CC1C(=O)NC1CCCc2ccccc21)C(C)(C)C

> <Shape>
0.247

> <Color>
0.066

> <Negative vol penalty>
0.000

$$$$

  -OEChem-04052316453D

 82 90  0     1  0  0  0  0  0999 V2000
  -16.6159  -29.5686   22.7692 C   0  0  0  0  0  0  0  0  0  0  0  0
  -17.6511  -29.4716   21.8449 C   0  0  0  0  0  0  0  0  0  0  0  0
  -26.3948  -12.7048   21.6064 C   0  0  0  0  0  0  0  0  0  0  0  0
  -25.8806  -13.6071   19.4250 C   0  0  0  0  0  0  0  0  0  0  0  0
  -16.9031  -29.6279   24.1323 C   0  0  0  0  0  0  0  0  0  0  0  0
  -18.9744  -29.4350   22.2832 C   0  0  0  0  0  0  0  0  0  0  0  0
  -23.6007  -26.3092   19.7667 C   0  0  0  0  0  0  0  0  0  0  0  0
  -25.1740  -12.0302   21.6152 C   0  0  0  0  0  0  0  0  0  0  0  0
  -24.6597  -12.9325   19.4338 C   0  0  0  0  0  0  0  0  0  0  0  0
  -24.6232  -26.6853   18.8967 C   0  0  0  0  0  0  0  0  0  0  0  0
  -23.8724   -9.2179   20.2625 C   0  0  0  0  0  0  0  0  0  0  0  0
  -23.8706   -7.8863   20.6777 C   0  0  0  0  0  0  0  0  0  0  0  0
  -26.0997  -27.0010   20.7781 C   0  0  0  0  0  0  0  0  0  0  0  0
  -27.5117  -22.5657   18.6159 C   0  0  0  0  0  0  0  0  0  0  0  0
  -29.8500  -23.7459   17.6558 C   0  0  0  0  0  0  0  0  0  0  0  0
  -22.3500   -8.4470   22.4694 C   0  0  0  0  0  0  0  0  0  0  0  0
  -26.7481  -13.4934   20.5114 C   0  0  0  0  0  0  0  0  0  0  0  0
  -29.2404  -13.7145   20.0143 C   0  0  0  0  0  0  0  0  0  0  0  0
  -18.2301  -29.5822   24.5880 C   0  0  0  0  0  0  0  0  0  0  0  0
  -23.8172  -26.2867   21.1520 C   0  0  0  0  0  0  0  0  0  0  0  0
  -19.2797  -29.4951   23.6536 C   0  0  0  0  0  0  0  0  0  0  0  0
  -25.0791  -26.6218   21.6633 C   0  0  0  0  0  0  0  0  0  0  0  0
  -28.7336  -21.9081   18.7574 C   0  0  0  0  0  0  0  0  0  0  0  0
  -28.6280  -24.4034   17.5143 C   0  0  0  0  0  0  0  0  0  0  0  0
  -24.3065  -12.1440   20.5289 C   0  0  0  0  0  0  0  0  0  0  0  0
  -25.8721  -27.0340   19.4025 C   0  0  0  0  0  0  0  0  0  0  0  0
  -23.1130  -10.1641   20.9508 C   0  0  0  0  0  0  0  0  0  0  0  0
  -23.1094   -7.5008   21.7811 C   0  0  0  0  0  0  0  0  0  0  0  0
  -27.4588  -23.8133   17.9944 C   0  0  0  0  0  0  0  0  0  0  0  0
  -22.3518   -9.7786   22.0543 C   0  0  0  0  0  0  0  0  0  0  0  0
  -29.9028  -22.4982   18.2773 C   0  0  0  0  0  0  0  0  0  0  0  0
  -28.0088  -14.1910   20.5020 C   0  0  0  0  0  0  0  0  0  0  0  0
  -30.1191  -14.7471   20.2334 C   0  0  0  0  0  0  0  0  0  0  0  0
  -29.5614  -12.4514   19.4166 C   0  0  0  0  0  0  0  0  0  0  0  0
  -22.5751  -27.8237   23.6417 C   0  0  0  0  0  0  0  0  0  0  0  0
  -29.2833  -20.6674   20.8363 C   0  0  0  0  0  0  0  0  0  0  0  0
  -24.4342  -25.7765   25.3373 C   0  0  0  0  0  0  0  0  0  0  0  0
  -27.1777  -23.7487   25.4235 C   0  0  0  0  0  0  0  0  0  0  0  0
  -18.4936  -29.6970   26.0685 C   0  0  0  0  0  0  0  0  0  0  0  0
  -22.7118  -25.8530   22.0753 C   0  0  0  0  0  0  0  0  0  0  0  0
  -25.3687  -26.5943   23.1411 C   0  0  0  0  0  0  0  0  0  0  0  0
  -19.9044  -29.2749   26.4707 C   0  0  0  0  0  0  0  0  0  0  0  0
  -30.9026  -18.4540   23.1426 C   0  0  0  0  0  0  0  0  0  0  0  0
  -20.9353  -29.8990   25.5355 C   0  0  0  0  0  0  0  0  0  0  0  0
  -30.4334  -17.0686   22.7002 C   0  0  0  0  0  0  0  0  0  0  0  0
  -29.8096  -19.5009   22.9521 C   0  0  0  0  0  0  0  0  0  0  0  0
  -28.8002  -18.1855   21.1157 C   0  0  0  0  0  0  0  0  0  0  0  0
  -20.7268  -29.4276   24.0912 C   0  0  1  0  0  0  0  0  0  0  0  0
  -22.8913  -26.3615   23.5024 C   0  0  1  0  0  0  0  0  0  0  0  0
  -29.8849  -17.1037   21.2627 C   0  0  2  0  0  0  0  0  0  0  0  0
  -28.8005  -22.0642   26.3326 C   0  0  0  0  0  0  0  0  0  0  0  0
  -25.6146  -28.2124   26.7455 C   0  0  0  0  0  0  0  0  0  0  0  0
  -27.4946  -26.7588   27.5336 C   0  0  0  0  0  0  0  0  0  0  0  0
  -25.1550  -26.2627   28.2429 C   0  0  0  0  0  0  0  0  0  0  0  0
  -25.6084  -21.4828   24.3455 C   0  0  0  0  0  0  0  0  0  0  0  0
  -28.7470  -20.5735   19.4300 C   0  0  0  0  0  0  0  0  0  0  0  0
  -28.5738  -25.7520   16.8422 C   0  0  0  0  0  0  0  0  0  0  0  0
  -29.0661  -26.9006   17.7253 C   0  0  0  0  0  0  0  0  0  0  0  0
  -28.2084  -27.1183   18.9665 C   0  0  0  0  0  0  0  0  0  1  0  0
  -25.8514  -25.7999   25.8569 C   0  0  1  0  0  0  0  0  0  0  0  0
  -27.3620  -22.3236   25.9129 C   0  0  2  0  0  0  0  0  0  0  0  0
  -26.0232  -26.7609   27.0669 C   0  0  0  0  0  0  0  0  0  0  0  0
  -28.0935  -15.4298   20.9939 N   0  0  0  0  0  0  0  0  0  0  0  0
  -29.3889  -15.7405   20.8166 N   0  0  0  0  0  0  0  0  0  0  0  0
  -24.2537  -26.1696   24.0036 N   0  0  0  0  0  0  0  0  0  0  0  0
  -29.2993  -19.4873   21.5800 N   0  0  0  0  0  0  0  0  0  0  0  0
  -31.4374  -14.8931   19.9822 N   0  0  0  0  0  0  0  0  0  0  0  0
  -28.5394  -11.5042   19.2666 N   0  0  0  0  0  0  0  0  0  0  0  0
  -21.2470  -28.0885   23.9165 N   0  0  0  0  0  0  0  0  0  0  0  0
  -26.2051  -24.4132   26.1402 N   0  0  0  0  0  0  0  0  0  0  0  0
  -27.0046  -21.3561   24.8372 N   0  3  0  0  0  0  0  0  0  0  0  0
  -30.7238  -12.1648   19.0422 O   0  0  0  0  0  0  0  0  0  0  0  0
  -23.4701  -28.6505   23.5110 O   0  0  0  0  0  0  0  0  0  0  0  0
  -29.6787  -21.7573   21.2584 O   0  0  0  0  0  0  0  0  0  0  0  0
  -23.5218  -25.4158   26.0850 O   0  0  0  0  0  0  0  0  0  0  0  0
  -27.8338  -24.2260   24.5002 O   0  0  0  0  0  0  0  0  0  0  0  0
  -23.1152  -11.4856   20.5369 O   0  0  0  0  0  0  0  0  0  0  0  0
  -26.8716  -27.4020   18.5556 O   0  0  0  0  0  0  0  0  0  1  0  0
  -23.1065   -6.2217   22.1787 F   0  0  0  0  0  0  0  0  0  0  0  0
  -26.2804  -24.4382   17.8627 F   0  0  0  0  0  0  0  0  0  0  0  0
  -21.6193  -10.6829   22.7188 F   0  0  0  0  0  0  0  0  0  0  0  0
  -31.4317  -21.7126   18.4340 Cl  0  0  0  0  0  0  0  0  0  0  0  0
  1  2  1  0  0  0  0
  1  5  2  0  0  0  0
  2  6  2  0  0  0  0
  3  8  2  0  0  0  0
  3 17  1  0  0  0  0
  4  9  1  0  0  0  0
  4 17  2  0  0  0  0
  5 19  1  0  0  0  0
  6 21  1  0  0  0  0
  7 10  2  0  0  0  0
  7 20  1  0  0  0  0
  8 25  1  0  0  0  0
  9 25  2  0  0  0  0
 10 26  1  0  0  0  0
 11 12  2  0  0  0  0
 11 27  1  0  0  0  0
 12 28  1  0  0  0  0
 13 22  1  0  0  0  0
 13 26  2  0  0  0  0
 14 23  2  0  0  0  0
 14 29  1  0  0  0  0
 15 24  1  0  0  0  0
 15 31  2  0  0  0  0
 16 28  2  0  0  0  0
 16 30  1  0  0  0  0
 17 32  1  0  0  0  0
 18 32  1  0  0  0  0
 18 33  2  0  0  0  0
 18 34  1  0  0  0  0
 19 21  2  0  0  0  0
 19 39  1  0  0  0  0
 20 22  2  0  0  0  0
 20 40  1  0  0  0  0
 21 48  1  0  0  0  0
 22 41  1  0  0  0  0
 23 31  1  0  0  0  0
 23 56  1  0  0  0  0
 24 29  2  0  0  0  0
 24 57  1  0  0  0  0
 25 77  1  0  0  0  0
 26 78  1  0  0  0  0
 27 30  2  0  0  0  0
 27 77  1  0  0  0  0
 28 79  1  0  0  0  0
 29 80  1  0  0  0  0
 30 81  1  0  0  0  0
 31 82  1  0  0  0  0
 32 63  2  0  0  0  0
 33 64  1  0  0  0  0
 33 67  1  0  0  0  0
 34 68  1  0  0  0  0
 34 72  2  0  0  0  0
 35 49  1  0  0  0  0
 35 69  1  0  0  0  0
 35 73  2  0  0  0  0
 36 56  1  0  0  0  0
 36 66  1  0  0  0  0
 36 74  2  0  0  0  0
 37 60  1  0  0  0  0
 37 65  1  0  0  0  0
 37 75  2  0  0  0  0
 38 61  1  0  0  0  0
 38 70  1  0  0  0  0
 38 76  2  0  0  0  0
 39 42  1  0  0  0  0
 40 49  1  0  0  0  0
 41 65  1  0  0  0  0
 42 44  1  0  0  0  0
 43 45  1  0  0  0  0
 43 46  1  0  0  0  0
 44 48  1  0  0  0  0
 45 50  1  0  0  0  0
 46 66  1  0  0  0  0
 47 50  1  0  0  0  0
 47 66  1  0  0  0  0
 48 69  1  0  0  0  0
 49 65  1  0  0  0  0
 50 64  1  0  0  0  0
 51 61  1  0  0  0  0
 52 62  1  0  0  0  0
 53 62  1  0  0  0  0
 54 62  1  0  0  0  0
 55 71  1  0  0  0  0
 57 58  1  0  0  0  0
 58 59  1  0  0  0  0
 59 78  1  0  0  0  0
 60 62  1  0  0  0  0
 60 70  1  0  0  0  0
 61 71  1  0  0  0  0
 63 64  1  0  0  0  0
M  CHG  1  71   1
M  ISO  4  36 100  56 100  59 101  78 101
M  END
> <Batch ID>
0032

> <Smiles>
CNC(C)C(=O)NC(C(=O)N1Cc2cc([101O:1][101CH2:1]CCc3cc(Cl)c([100CH2:0][100C:0](=O)N4CCCC(n5nc(-c6ccc(Oc7ccc(F)cc7F)cc6)c(C(N)=O)c5N)C4)cc3F)ccc2CC1C(=O)NC1CCCc2ccccc21)C(C)(C)C

> <Shape>
0.249

> <Color>
0.092

> <Negative vol penalty>
0.000

$$$$

  -OEChem-04052316453D

 89 97  0     1  0  0  0  0  0999 V2000
  -26.4473  -34.8303   24.9721 C   0  0  0  0  0  0  0  0  0  0  0  0
  -26.9420  -33.6336   24.4636 C   0  0  0  0  0  0  0  0  0  0  0  0
  -23.2699  -17.4427   20.6282 C   0  0  0  0  0  0  0  0  0  0  0  0
  -24.8583  -16.0861   19.4143 C   0  0  0  0  0  0  0  0  0  0  0  0
  -25.1226  -34.9100   25.3996 C   0  0  0  0  0  0  0  0  0  0  0  0
  -26.1126  -32.5156   24.3833 C   0  0  0  0  0  0  0  0  0  0  0  0
  -26.5353  -30.0971   19.9541 C   0  0  0  0  0  0  0  0  0  0  0  0
  -22.5076  -16.3067   20.9003 C   0  0  0  0  0  0  0  0  0  0  0  0
  -24.0960  -14.9501   19.6864 C   0  0  0  0  0  0  0  0  0  0  0  0
  -27.6480  -29.2751   19.7812 C   0  0  0  0  0  0  0  0  0  0  0  0
  -23.6056  -12.8450   22.2843 C   0  0  0  0  0  0  0  0  0  0  0  0
  -24.2801  -11.7001   22.7083 C   0  0  0  0  0  0  0  0  0  0  0  0
  -26.2925  -27.3443   20.2848 C   0  0  0  0  0  0  0  0  0  0  0  0
  -23.4347  -10.4930   20.7938 C   0  0  0  0  0  0  0  0  0  0  0  0
  -24.4452  -17.3324   19.8852 C   0  0  0  0  0  0  0  0  0  0  0  0
  -26.2797  -19.0340   20.3822 C   0  0  0  0  0  0  0  0  0  0  0  0
  -24.2738  -33.7950   25.3156 C   0  0  0  0  0  0  0  0  0  0  0  0
  -25.2932  -29.5491   20.3050 C   0  0  0  0  0  0  0  0  0  0  0  0
  -24.7757  -32.5800   24.8113 C   0  0  0  0  0  0  0  0  0  0  0  0
  -25.1649  -28.1613   20.4591 C   0  0  0  0  0  0  0  0  0  0  0  0
  -31.4534  -24.1433   18.3713 C   0  0  0  0  0  0  0  0  0  0  0  0
  -30.2375  -24.8061   18.4964 C   0  0  0  0  0  0  0  0  0  0  0  0
  -32.1102  -23.6869   19.5087 C   0  0  0  0  0  0  0  0  0  0  0  0
  -22.9206  -15.0604   20.4294 C   0  0  0  0  0  0  0  0  0  0  0  0
  -27.5274  -27.8988   19.9493 C   0  0  0  0  0  0  0  0  0  0  0  0
  -22.8456  -12.8140   21.1150 C   0  0  0  0  0  0  0  0  0  0  0  0
  -24.1947  -10.5241   21.9631 C   0  0  0  0  0  0  0  0  0  0  0  0
  -22.7602  -11.6380   20.3698 C   0  0  0  0  0  0  0  0  0  0  0  0
  -25.2328  -18.5056   19.6033 C   0  0  0  0  0  0  0  0  0  0  0  0
  -29.7249  -24.9857   19.7710 C   0  0  0  0  0  0  0  0  0  0  0  0
  -31.5139  -23.9167   20.7380 C   0  0  0  0  0  0  0  0  0  0  0  0
  -26.6979  -20.1431   19.6883 C   0  0  0  0  0  0  0  0  0  0  0  0
  -26.8253  -18.5643   21.6221 C   0  0  0  0  0  0  0  0  0  0  0  0
  -23.3307  -29.8470   22.7877 C   0  0  0  0  0  0  0  0  0  0  0  0
  -21.3774  -28.0045   20.9677 C   0  0  0  0  0  0  0  0  0  0  0  0
  -21.0656  -25.7173   18.4541 C   0  0  0  0  0  0  0  0  0  0  0  0
  -26.4124  -21.6847   13.9096 C   0  0  0  0  0  0  0  0  0  0  0  0
  -22.8627  -33.9162   25.8340 C   0  0  0  0  0  0  0  0  0  0  0  0
  -24.0964  -30.4467   20.4617 C   0  0  0  0  0  0  0  0  0  0  0  0
  -23.8490  -27.5212   20.8158 C   0  0  0  0  0  0  0  0  0  0  0  0
  -21.9435  -32.7904   25.3672 C   0  0  0  0  0  0  0  0  0  0  0  0
  -25.0983  -23.4992   16.6769 C   0  0  0  0  0  0  0  0  0  0  0  0
  -22.6276  -31.4376   25.5368 C   0  0  0  0  0  0  0  0  0  0  0  0
  -25.0782  -22.4728   17.8109 C   0  0  0  0  0  0  0  0  0  0  0  0
  -24.7596  -22.8606   15.3317 C   0  0  0  0  0  0  0  0  0  0  0  0
  -25.5655  -20.6653   16.1097 C   0  0  0  0  0  0  0  0  0  0  0  0
  -23.9001  -31.3523   24.6853 C   0  0  1  0  0  0  0  0  0  0  0  0
  -22.9972  -29.8320   21.3227 C   0  0  1  0  0  0  0  0  0  0  0  0
  -25.9557  -21.2514   17.4774 C   0  0  2  0  0  0  0  0  0  0  0  0
  -29.5086  -25.3065   17.2946 C   0  0  0  0  0  0  0  0  0  0  0  0
  -32.1725  -23.4521   21.9957 C   0  0  0  0  0  0  0  0  0  0  0  0
  -34.5961  -23.8646   19.7830 C   0  0  0  0  0  0  0  0  0  0  0  0
  -19.3461  -24.3707   17.2181 C   0  0  0  0  0  0  0  0  0  0  0  0
  -21.1542  -26.1091   23.3484 C   0  0  0  0  0  0  0  0  0  0  0  0
  -20.2482  -24.3710   21.7907 C   0  0  0  0  0  0  0  0  0  0  0  0
  -19.0080  -26.5088   22.1284 C   0  0  0  0  0  0  0  0  0  0  0  0
  -21.7501  -26.9958   15.8741 C   0  0  0  0  0  0  0  0  0  0  0  0
  -32.0539  -23.9242   17.0193 C   0  0  0  0  0  0  0  0  0  0  0  0
  -33.4162  -22.9722   19.4077 C   0  0  0  0  0  0  0  0  0  0  0  0
  -28.4167  -25.6932   19.9696 C   0  0  0  0  0  0  0  0  0  1  0  0
  -31.4281  -22.7591   16.2329 C   0  0  0  0  0  0  0  0  0  0  0  0
  -32.1158  -22.5177   14.8846 C   0  0  0  0  0  0  0  0  0  0  0  0
  -31.5444  -21.3204   14.1185 C   0  0  0  0  0  0  0  0  0  0  0  0
  -30.0739  -21.4940   13.7298 C   0  0  0  0  0  0  0  0  0  0  0  0
  -29.5475  -20.2579   12.9927 C   0  0  0  0  0  0  0  0  0  0  0  0
  -28.0791  -20.3925   12.6014 C   0  0  0  0  0  0  0  0  0  0  0  0
  -21.1588  -26.5203   20.7995 C   0  0  1  0  0  0  0  0  0  0  0  0
  -20.1444  -25.6648   17.2486 C   0  0  2  0  0  0  0  0  0  0  0  0
  -20.4177  -25.8892   22.0119 C   0  0  0  0  0  0  0  0  0  0  0  0
  -25.0002  -19.2203   18.4992 N   0  0  0  0  0  0  0  0  0  0  0  0
  -30.3339  -24.5566   20.8991 N   0  0  0  0  0  0  0  0  0  0  0  0
  -25.9067  -20.2092   18.5793 N   0  0  0  0  0  0  0  0  0  0  0  0
  -22.7096  -28.4416   20.9644 N   0  0  0  0  0  0  0  0  0  0  0  0
  -25.6285  -21.7095   15.0750 N   0  0  0  0  0  0  0  0  0  0  0  0
  -27.6614  -21.0585   19.9247 N   0  0  0  0  0  0  0  0  0  0  0  0
  -26.2782  -17.4096   22.1981 N   0  0  0  0  0  0  0  0  0  0  0  0
  -23.5648  -31.1094   23.2985 N   0  0  0  0  0  0  0  0  0  0  0  0
  -20.4705  -26.3510   19.5244 N   0  0  0  0  0  0  0  0  0  0  0  0
  -27.2122  -20.5602   13.7465 N   0  0  0  0  0  0  0  0  0  0  0  0
  -20.9344  -25.7594   15.9885 N   0  3  0  0  0  0  0  0  0  0  0  0
  -27.7592  -19.1604   22.2104 O   0  0  0  0  0  0  0  0  0  0  0  0
  -23.3711  -28.7915   23.4090 O   0  0  0  0  0  0  0  0  0  0  0  0
  -20.4019  -28.7494   21.0902 O   0  0  0  0  0  0  0  0  0  0  0  0
  -22.1983  -25.2404   18.4481 O   0  0  0  0  0  0  0  0  0  0  0  0
  -26.4044  -22.5996   13.0790 O   0  0  0  0  0  0  0  0  0  0  0  0
  -22.1771  -13.9517   20.6949 O   0  0  0  0  0  0  0  0  0  0  0  0
  -28.6120  -27.0943   19.7817 O   0  0  0  0  0  0  0  0  0  1  0  0
  -24.8437   -9.4252   22.3696 F   0  0  0  0  0  0  0  0  0  0  0  0
  -22.0325  -11.6023   19.2450 F   0  0  0  0  0  0  0  0  0  0  0  0
  1  2  1  0  0  0  0
  1  5  2  0  0  0  0
  2  6  2  0  0  0  0
  3  8  2  0  0  0  0
  3 15  1  0  0  0  0
  4  9  1  0  0  0  0
  4 15  2  0  0  0  0
  5 17  1  0  0  0  0
  6 19  1  0  0  0  0
  7 10  2  0  0  0  0
  7 18  1  0  0  0  0
  8 24  1  0  0  0  0
  9 24  2  0  0  0  0
 10 25  1  0  0  0  0
 11 12  2  0  0  0  0
 11 26  1  0  0  0  0
 12 27  1  0  0  0  0
 13 20  1  0  0  0  0
 13 25  2  0  0  0  0
 14 27  2  0  0  0  0
 14 28  1  0  0  0  0
 15 29  1  0  0  0  0
 16 29  1  0  0  0  0
 16 32  2  0  0  0  0
 16 33  1  0  0  0  0
 17 19  2  0  0  0  0
 17 38  1  0  0  0  0
 18 20  2  0  0  0  0
 18 39  1  0  0  0  0
 19 47  1  0  0  0  0
 20 40  1  0  0  0  0
 21 22  1  0  0  0  0
 21 23  2  0  0  0  0
 21 58  1  0  0  0  0
 22 30  2  0  0  0  0
 22 50  1  0  0  0  0
 23 31  1  0  0  0  0
 23 59  1  0  0  0  0
 24 86  1  0  0  0  0
 25 87  1  0  0  0  0
 26 28  2  0  0  0  0
 26 86  1  0  0  0  0
 27 88  1  0  0  0  0
 28 89  1  0  0  0  0
 29 70  2  0  0  0  0
 30 60  1  0  0  0  0
 30 71  1  0  0  0  0
 31 51  1  0  0  0  0
 31 71  2  0  0  0  0
 32 72  1  0  0  0  0
 32 75  1  0  0  0  0
 33 76  1  0  0  0  0
 33 81  2  0  0  0  0
 34 48  1  0  0  0  0
 34 77  1  0  0  0  0
 34 82  2  0  0  0  0
 35 67  1  0  0  0  0
 35 73  1  0  0  0  0
 35 83  2  0  0  0  0
 36 68  1  0  0  0  0
 36 78  1  0  0  0  0
 36 84  2  0  0  0  0
 37 74  1  0  0  0  0
 37 79  1  0  0  0  0
 37 85  2  0  0  0  0
 38 41  1  0  0  0  0
 39 48  1  0  0  0  0
 40 73  1  0  0  0  0
 41 43  1  0  0  0  0
 42 44  1  0  0  0  0
 42 45  1  0  0  0  0
 43 47  1  0  0  0  0
 44 49  1  0  0  0  0
 45 74  1  0  0  0  0
 46 49  1  0  0  0  0
 46 74  1  0  0  0  0
 47 77  1  0  0  0  0
 48 73  1  0  0  0  0
 49 72  1  0  0  0  0
 52 59  1  0  0  0  0
 53 68  1  0  0  0  0
 54 69  1  0  0  0  0
 55 69  1  0  0  0  0
 56 69  1  0  0  0  0
 57 80  1  0  0  0  0
 58 61  1  0  0  0  0
 60 87  1  0  0  0  0
 61 62  1  0  0  0  0
 62 63  1  0  0  0  0
 63 64  1  0  0  0  0
 64 65  1  0  0  0  0
 65 66  1  0  0  0  0
 66 79  1  0  0  0  0
 67 69  1  0  0  0  0
 67 78  1  0  0  0  0
 68 80  1  0  0  0  0
 70 72  1  0  0  0  0
M  CHG  1  80   1
M  ISO  4  37 100  60 101  79 100  87 101
M  END
> <Batch ID>
0032

> <Smiles>
CCc1c(C)nc([101CH2:1][101O:1]c2ccc3c(c2)CN(C(=O)C(NC(=O)C(C)NC)C(C)(C)C)C(C(=O)NC2CCCc4ccccc42)C3)c(C)c1CCCCCCC[100NH:0][100C:0](=O)N1CCCC(n2nc(-c3ccc(Oc4ccc(F)cc4F)cc3)c(C(N)=O)c2N)C1

> <Shape>
0.219

> <Color>
0.062

> <Negative vol penalty>
0.000

$$$$

  -OEChem-04052316453D

 89 97  0     1  0  0  0  0  0999 V2000
  -23.7391  -23.0132   16.0899 C   0  0  0  0  0  0  0  0  0  0  0  0
  -24.2627  -21.8018   16.5303 C   0  0  0  0  0  0  0  0  0  0  0  0
  -26.2817  -29.8195   20.1325 C   0  0  0  0  0  0  0  0  0  0  0  0
  -25.9778  -28.3026   21.9883 C   0  0  0  0  0  0  0  0  0  0  0  0
  -23.6582  -24.0956   16.9650 C   0  0  0  0  0  0  0  0  0  0  0  0
  -24.7067  -21.6725   17.8458 C   0  0  0  0  0  0  0  0  0  0  0  0
  -23.1516  -17.3646   20.0065 C   0  0  0  0  0  0  0  0  0  0  0  0
  -25.0892  -30.4631   20.4634 C   0  0  0  0  0  0  0  0  0  0  0  0
  -24.7854  -28.9462   22.3191 C   0  0  0  0  0  0  0  0  0  0  0  0
  -23.8373  -16.1989   19.6681 C   0  0  0  0  0  0  0  0  0  0  0  0
  -21.4791  -29.9604   23.4371 C   0  0  0  0  0  0  0  0  0  0  0  0
  -20.3760  -29.1639   23.7441 C   0  0  0  0  0  0  0  0  0  0  0  0
  -25.0893  -16.3454   21.7249 C   0  0  0  0  0  0  0  0  0  0  0  0
  -27.9931  -12.6700   20.5979 C   0  0  0  0  0  0  0  0  0  0  0  0
  -28.9265  -13.5494   18.5504 C   0  0  0  0  0  0  0  0  0  0  0  0
  -20.4787  -28.1732   21.5429 C   0  0  0  0  0  0  0  0  0  0  0  0
  -26.7260  -28.7392   20.8950 C   0  0  0  0  0  0  0  0  0  0  0  0
  -29.2491  -28.3842   21.0190 C   0  0  0  0  0  0  0  0  0  0  0  0
  -24.0925  -23.9766   18.2946 C   0  0  0  0  0  0  0  0  0  0  0  0
  -23.4377  -18.0367   21.2035 C   0  0  0  0  0  0  0  0  0  0  0  0
  -24.6327  -22.7547   18.7391 C   0  0  0  0  0  0  0  0  0  0  0  0
  -24.4039  -17.5181   22.0774 C   0  0  0  0  0  0  0  0  0  0  0  0
  -27.8313  -13.0768   19.2735 C   0  0  0  0  0  0  0  0  0  0  0  0
  -29.2501  -12.7359   21.1992 C   0  0  0  0  0  0  0  0  0  0  0  0
  -30.3452  -13.2084   20.4760 C   0  0  0  0  0  0  0  0  0  0  0  0
  -24.3411  -30.0264   21.5567 C   0  0  0  0  0  0  0  0  0  0  0  0
  -24.8083  -15.6907   20.5259 C   0  0  0  0  0  0  0  0  0  0  0  0
  -22.0820  -29.8634   22.1829 C   0  0  0  0  0  0  0  0  0  0  0  0
  -19.8758  -28.2702   22.7971 C   0  0  0  0  0  0  0  0  0  0  0  0
  -21.5818  -28.9698   21.2359 C   0  0  0  0  0  0  0  0  0  0  0  0
  -30.1835  -13.6152   19.1516 C   0  0  0  0  0  0  0  0  0  0  0  0
  -27.9574  -28.0736   20.5534 C   0  0  0  0  0  0  0  0  0  0  0  0
  -30.0656  -27.4669   20.4040 C   0  0  0  0  0  0  0  0  0  0  0  0
  -29.6730  -29.4102   21.9265 C   0  0  0  0  0  0  0  0  0  0  0  0
  -24.5431  -20.9228   21.9467 C   0  0  0  0  0  0  0  0  0  0  0  0
  -23.9012  -19.9606   24.9773 C   0  0  0  0  0  0  0  0  0  0  0  0
  -23.4620  -17.3790   27.1657 C   0  0  0  0  0  0  0  0  0  0  0  0
  -29.0986  -21.9926   18.1795 C   0  0  0  0  0  0  0  0  0  0  0  0
  -24.0287  -25.1884   19.1903 C   0  0  0  0  0  0  0  0  0  0  0  0
  -22.6703  -19.2783   21.5666 C   0  0  0  0  0  0  0  0  0  0  0  0
  -24.7341  -18.1907   23.3839 C   0  0  0  0  0  0  0  0  0  0  0  0
  -24.1745  -24.8578   20.6734 C   0  0  0  0  0  0  0  0  0  0  0  0
  -30.3946  -24.8136   16.4362 C   0  0  0  0  0  0  0  0  0  0  0  0
  -25.3380  -23.8964   20.8943 C   0  0  0  0  0  0  0  0  0  0  0  0
  -30.0335  -25.9970   17.3357 C   0  0  0  0  0  0  0  0  0  0  0  0
  -29.3023  -23.7465   16.4420 C   0  0  0  0  0  0  0  0  0  0  0  0
  -28.5501  -24.4512   18.6806 C   0  0  0  0  0  0  0  0  0  0  0  0
  -25.1018  -22.5680   20.1657 C   0  0  1  0  0  0  0  0  0  0  0  0
  -23.4053  -20.1634   22.5685 C   0  0  1  0  0  0  0  0  0  0  0  0
  -29.6464  -25.5279   18.7511 C   0  0  2  0  0  0  0  0  0  0  0  0
  -29.3936  -12.2949   22.6193 C   0  0  0  0  0  0  0  0  0  0  0  0
  -22.9862  -16.9056   29.5837 C   0  0  0  0  0  0  0  0  0  0  0  0
  -26.7814  -20.6800   25.6823 C   0  0  0  0  0  0  0  0  0  0  0  0
  -26.5315  -19.3328   27.7777 C   0  0  0  0  0  0  0  0  0  0  0  0
  -25.0910  -21.3350   27.4051 C   0  0  0  0  0  0  0  0  0  0  0  0
  -20.9502  -15.9563   26.5130 C   0  0  0  0  0  0  0  0  0  0  0  0
  -26.4873  -13.0051   18.6310 C   0  0  0  0  0  0  0  0  0  0  0  0
  -31.6970  -13.2737   21.1412 C   0  0  0  0  0  0  0  0  0  0  0  0
  -31.8523  -14.4475   22.1150 C   0  0  0  0  0  0  0  0  0  0  0  0
  -31.6538  -15.8118   21.4454 C   0  0  0  0  0  0  0  0  0  0  0  0
  -31.7871  -16.9500   22.4603 C   0  0  0  0  0  0  0  0  0  0  0  0
  -31.6680  -18.3420   21.8326 C   0  0  0  0  0  0  0  0  0  0  0  0
  -30.3011  -18.6082   21.1960 C   0  0  0  0  0  0  0  0  0  0  0  0
  -30.2297  -20.0237   20.6130 C   0  0  0  0  0  0  0  0  0  0  0  0
  -28.8597  -20.3536   20.0277 C   0  0  0  0  0  0  0  0  0  0  0  0
  -25.6703  -14.2884   18.8093 C   0  0  0  0  0  0  0  0  0  1  0  0
  -24.6723  -19.2384   26.0556 C   0  0  1  0  0  0  0  0  0  0  0  0
  -22.3856  -17.1085   28.2014 C   0  0  2  0  0  0  0  0  0  0  0  0
  -25.7644  -20.1347   26.7047 C   0  0  0  0  0  0  0  0  0  0  0  0
  -27.9489  -27.0399   19.7076 N   0  0  0  0  0  0  0  0  0  0  0  0
  -29.2453  -26.6930   19.6369 N   0  0  0  0  0  0  0  0  0  0  0  0
  -23.9610  -19.4053   23.6913 N   0  0  0  0  0  0  0  0  0  0  0  0
  -28.9831  -23.3439   17.8138 N   0  0  0  0  0  0  0  0  0  0  0  0
  -31.3981  -27.2549   20.4497 N   0  0  0  0  0  0  0  0  0  0  0  0
  -28.7039  -30.2664   22.4668 N   0  0  0  0  0  0  0  0  0  0  0  0
  -24.1661  -21.7464   20.9032 N   0  0  0  0  0  0  0  0  0  0  0  0
  -23.6798  -18.7299   26.9963 N   0  0  0  0  0  0  0  0  0  0  0  0
  -28.7831  -21.6978   19.5002 N   0  0  0  0  0  0  0  0  0  0  0  0
  -21.6145  -15.8856   27.8399 N   0  3  0  0  0  0  0  0  0  0  0  0
  -30.8776  -29.5734   22.2359 O   0  0  0  0  0  0  0  0  0  0  0  0
  -25.6787  -20.7736   22.3824 O   0  0  0  0  0  0  0  0  0  0  0  0
  -23.2633  -20.9759   25.2669 O   0  0  0  0  0  0  0  0  0  0  0  0
  -24.0532  -16.4815   26.5695 O   0  0  0  0  0  0  0  0  0  0  0  0
  -29.4615  -21.1148   17.3891 O   0  0  0  0  0  0  0  0  0  0  0  0
  -23.1776  -30.6544   21.8799 O   0  0  0  0  0  0  0  0  0  0  0  0
  -25.4843  -14.5453   20.1954 O   0  0  0  0  0  0  0  0  0  1  0  0
  -18.8175  -27.5042   23.0926 F   0  0  0  0  0  0  0  0  0  0  0  0
  -22.1575  -28.8713   20.0298 F   0  0  0  0  0  0  0  0  0  0  0  0
  -31.5143  -14.2043   18.2225 Cl  0  0  0  0  0  0  0  0  0  0  0  0
  1  2  1  0  0  0  0
  1  5  2  0  0  0  0
  2  6  2  0  0  0  0
  3  8  2  0  0  0  0
  3 17  1  0  0  0  0
  4  9  1  0  0  0  0
  4 17  2  0  0  0  0
  5 19  1  0  0  0  0
  6 21  1  0  0  0  0
  7 10  2  0  0  0  0
  7 20  1  0  0  0  0
  8 26  1  0  0  0  0
  9 26  2  0  0  0  0
 10 27  1  0  0  0  0
 11 12  2  0  0  0  0
 11 28  1  0  0  0  0
 12 29  1  0  0  0  0
 13 22  1  0  0  0  0
 13 27  2  0  0  0  0
 14 23  1  0  0  0  0
 14 24  2  0  0  0  0
 15 23  2  0  0  0  0
 15 31  1  0  0  0  0
 16 29  2  0  0  0  0
 16 30  1  0  0  0  0
 17 32  1  0  0  0  0
 18 32  1  0  0  0  0
 18 33  2  0  0  0  0
 18 34  1  0  0  0  0
 19 21  2  0  0  0  0
 19 39  1  0  0  0  0
 20 22  2  0  0  0  0
 20 40  1  0  0  0  0
 21 48  1  0  0  0  0
 22 41  1  0  0  0  0
 23 57  1  0  0  0  0
 24 25  1  0  0  0  0
 24 51  1  0  0  0  0
 25 31  2  0  0  0  0
 25 58  1  0  0  0  0
 26 85  1  0  0  0  0
 27 86  1  0  0  0  0
 28 30  2  0  0  0  0
 28 85  1  0  0  0  0
 29 87  1  0  0  0  0
 30 88  1  0  0  0  0
 31 89  1  0  0  0  0
 32 70  2  0  0  0  0
 33 71  1  0  0  0  0
 33 74  1  0  0  0  0
 34 75  1  0  0  0  0
 34 80  2  0  0  0  0
 35 49  1  0  0  0  0
 35 76  1  0  0  0  0
 35 81  2  0  0  0  0
 36 67  1  0  0  0  0
 36 72  1  0  0  0  0
 36 82  2  0  0  0  0
 37 68  1  0  0  0  0
 37 77  1  0  0  0  0
 37 83  2  0  0  0  0
 38 73  1  0  0  0  0
 38 78  1  0  0  0  0
 38 84  2  0  0  0  0
 39 42  1  0  0  0  0
 40 49  1  0  0  0  0
 41 72  1  0  0  0  0
 42 44  1  0  0  0  0
 43 45  1  0  0  0  0
 43 46  1  0  0  0  0
 44 48  1  0  0  0  0
 45 50  1  0  0  0  0
 46 73  1  0  0  0  0
 47 50  1  0  0  0  0
 47 73  1  0  0  0  0
 48 76  1  0  0  0  0
 49 72  1  0  0  0  0
 50 71  1  0  0  0  0
 52 68  1  0  0  0  0
 53 69  1  0  0  0  0
 54 69  1  0  0  0  0
 55 69  1  0  0  0  0
 56 79  1  0  0  0  0
 57 66  1  0  0  0  0
 58 59  1  0  0  0  0
 59 60  1  0  0  0  0
 60 61  1  0  0  0  0
 61 62  1  0  0  0  0
 62 63  1  0  0  0  0
 63 64  1  0  0  0  0
 64 65  1  0  0  0  0
 65 78  1  0  0  0  0
 66 86  1  0  0  0  0
 67 69  1  0  0  0  0
 67 77  1  0  0  0  0
 68 79  1  0  0  0  0
 70 71  1  0  0  0  0
M  CHG  1  79   1
M  ISO  4  38 100  66 101  78 100  86 101
M  END
> <Batch ID>
0032

> <Smiles>
CNC(C)C(=O)NC(C(=O)N1Cc2cc([101O:1][101CH2:1]Cc3cc(C)c(CCCCCCCC[100NH:0][100C:0](=O)N4CCCC(n5nc(-c6ccc(Oc7ccc(F)cc7F)cc6)c(C(N)=O)c5N)C4)c(Cl)c3)ccc2CC1C(=O)NC1CCCc2ccccc21)C(C)(C)C

> <Shape>
0.236

> <Color>
0.048

> <Negative vol penalty>
0.000

$$$$

  -OEChem-04052316453D

 88 97  0     1  0  0  0  0  0999 V2000
  -25.3179  -31.8090   24.3703 C   0  0  0  0  0  0  0  0  0  0  0  0
  -26.0353  -30.6467   24.6342 C   0  0  0  0  0  0  0  0  0  0  0  0
  -23.3401   -9.7539   19.9817 C   0  0  0  0  0  0  0  0  0  0  0  0
  -23.7215  -10.0244   22.3520 C   0  0  0  0  0  0  0  0  0  0  0  0
  -24.7518  -32.0068   23.1116 C   0  0  0  0  0  0  0  0  0  0  0  0
  -26.1861  -29.6809   23.6398 C   0  0  0  0  0  0  0  0  0  0  0  0
  -31.0600  -26.0936   22.7006 C   0  0  0  0  0  0  0  0  0  0  0  0
  -22.6199   -8.5857   20.2308 C   0  0  0  0  0  0  0  0  0  0  0  0
  -23.0012   -8.8561   22.6012 C   0  0  0  0  0  0  0  0  0  0  0  0
  -31.3375  -24.7753   23.0597 C   0  0  0  0  0  0  0  0  0  0  0  0
  -19.7586   -7.9205   22.7754 C   0  0  0  0  0  0  0  0  0  0  0  0
  -18.8264   -7.9445   23.8127 C   0  0  0  0  0  0  0  0  0  0  0  0
  -30.4621  -16.4376   26.4533 C   0  0  0  0  0  0  0  0  0  0  0  0
  -30.6008  -24.0343   20.8855 C   0  0  0  0  0  0  0  0  0  0  0  0
  -30.0430  -16.3661   24.0870 C   0  0  0  0  0  0  0  0  0  0  0  0
  -20.0219   -6.1658   24.9281 C   0  0  0  0  0  0  0  0  0  0  0  0
  -23.8910  -10.4732   21.0422 C   0  0  0  0  0  0  0  0  0  0  0  0
  -30.7736  -18.4581   25.1175 C   0  0  0  0  0  0  0  0  0  0  0  0
  -24.1306  -12.9921   20.7172 C   0  0  0  0  0  0  0  0  0  0  0  0
  -24.9039  -31.0473   22.0983 C   0  0  0  0  0  0  0  0  0  0  0  0
  -30.5397  -26.3915   21.4330 C   0  0  0  0  0  0  0  0  0  0  0  0
  -25.6204  -29.8654   22.3667 C   0  0  0  0  0  0  0  0  0  0  0  0
  -30.8056  -17.7983   26.3673 C   0  0  0  0  0  0  0  0  0  0  0  0
  -30.3199  -25.3574   20.5118 C   0  0  0  0  0  0  0  0  0  0  0  0
  -30.0765  -15.7276   25.3203 C   0  0  0  0  0  0  0  0  0  0  0  0
  -30.3927  -17.7151   23.9851 C   0  0  0  0  0  0  0  0  0  0  0  0
  -22.4504   -8.1368   21.5406 C   0  0  0  0  0  0  0  0  0  0  0  0
  -31.1052  -23.7451   22.1531 C   0  0  0  0  0  0  0  0  0  0  0  0
  -20.8224   -7.0191   22.8143 C   0  0  0  0  0  0  0  0  0  0  0  0
  -18.9581   -7.0672   24.8891 C   0  0  0  0  0  0  0  0  0  0  0  0
  -20.9541   -6.1418   23.8907 C   0  0  0  0  0  0  0  0  0  0  0  0
  -24.6356  -11.6798   20.7855 C   0  0  0  0  0  0  0  0  0  0  0  0
  -25.2311  -13.7701   20.4522 C   0  0  0  0  0  0  0  0  0  0  0  0
  -31.1566  -19.8938   25.0296 C   0  0  0  0  0  0  0  0  0  0  0  0
  -30.8445  -20.6857   23.9896 C   0  0  0  0  0  0  0  0  0  0  0  0
  -22.7870  -13.4655   20.8789 C   0  0  0  0  0  0  0  0  0  0  0  0
  -27.8480  -27.7018   20.3644 C   0  0  0  0  0  0  0  0  0  0  0  0
  -29.3459  -27.4964   17.4945 C   0  0  0  0  0  0  0  0  0  0  0  0
  -31.7164  -25.9773   15.5658 C   0  0  0  0  0  0  0  0  0  0  0  0
  -31.0844  -13.0391   21.4797 C   0  0  0  0  0  0  0  0  0  0  0  0
  -24.2337  -31.2839   20.7680 C   0  0  0  0  0  0  0  0  0  0  0  0
  -30.2708  -27.8214   21.0515 C   0  0  0  0  0  0  0  0  0  0  0  0
  -31.2558  -18.4945   27.6304 C   0  0  0  0  0  0  0  0  0  0  0  0
  -29.7815  -25.6264   19.1312 C   0  0  0  0  0  0  0  0  0  0  0  0
  -31.8758  -20.4698   26.2262 C   0  0  0  0  0  0  0  0  0  0  0  0
  -24.7573  -30.3820   19.6533 C   0  0  0  0  0  0  0  0  0  0  0  0
  -31.2106  -20.0144   27.5185 C   0  0  0  0  0  0  0  0  0  0  0  0
  -29.5166  -13.5967   18.3320 C   0  0  0  0  0  0  0  0  0  0  0  0
  -24.8475  -28.9371   20.1336 C   0  0  0  0  0  0  0  0  0  0  0  0
  -28.0423  -13.2871   18.5977 C   0  0  0  0  0  0  0  0  0  0  0  0
  -30.4390  -12.6668   19.1172 C   0  0  0  0  0  0  0  0  0  0  0  0
  -28.7075  -12.3106   20.8344 C   0  0  0  0  0  0  0  0  0  0  0  0
  -25.8269  -28.8057   21.3063 C   0  0  1  0  0  0  0  0  0  0  0  0
  -29.2596  -27.9571   19.9173 C   0  0  1  0  0  0  0  0  0  0  0  0
  -27.7385  -13.2590   20.1078 C   0  0  2  0  0  0  0  0  0  0  0  0
  -30.8331  -17.1706   21.5776 C   0  0  0  0  0  0  0  0  0  0  0  0
  -32.6819  -25.9992   13.2496 C   0  0  0  0  0  0  0  0  0  0  0  0
  -26.8876  -26.0156   16.4583 C   0  0  0  0  0  0  0  0  0  0  0  0
  -28.2574  -25.2492   14.5079 C   0  0  0  0  0  0  0  0  0  0  0  0
  -27.8495  -27.6843   14.8632 C   0  0  0  0  0  0  0  0  0  0  0  0
  -34.4061  -26.6976   16.5686 C   0  0  0  0  0  0  0  0  0  0  0  0
  -29.7139  -14.2856   25.4283 C   0  0  0  0  0  0  0  0  0  0  0  0
  -30.4205  -18.2395   22.5828 C   0  0  0  0  0  0  0  0  0  0  0  0
  -31.2500  -22.1183   23.8818 C   0  0  0  0  0  0  0  0  0  1  0  0
  -30.8988  -13.3145   25.2552 C   0  0  0  0  0  0  0  0  0  0  0  0
  -31.5749  -13.3859   23.8877 C   0  0  0  0  0  0  0  0  0  0  0  0
  -29.4313  -26.4547   16.4052 C   0  0  1  0  0  0  0  0  0  0  0  0
  -32.7972  -26.5458   14.6641 C   0  0  2  0  0  0  0  0  0  0  0  0
  -28.1148  -26.3453   15.5853 C   0  0  0  0  0  0  0  0  0  0  0  0
  -25.9542  -11.6234   20.5803 N   0  0  0  0  0  0  0  0  0  0  0  0
  -26.2871  -12.9099   20.3803 N   0  0  0  0  0  0  0  0  0  0  0  0
  -29.5284  -27.0402   18.8077 N   0  0  0  0  0  0  0  0  0  0  0  0
  -30.0993  -12.6876   20.5420 N   0  0  0  0  0  0  0  0  0  0  0  0
  -25.3887  -15.0991   20.2759 N   0  0  0  0  0  0  0  0  0  0  0  0
  -21.7772  -12.5313   21.1472 N   0  0  0  0  0  0  0  0  0  0  0  0
  -27.1929  -28.8264   20.8288 N   0  0  0  0  0  0  0  0  0  0  0  0
  -30.6054  -26.7929   15.6081 N   0  0  0  0  0  0  0  0  0  0  0  0
  -30.6772  -13.0399   22.8082 N   0  0  0  0  0  0  0  0  0  0  0  0
  -34.1472  -26.2008   15.1926 N   0  3  0  0  0  0  0  0  0  0  0  0
  -22.4880  -14.6790   20.7718 O   0  0  0  0  0  0  0  0  0  0  0  0
  -27.3869  -26.5687   20.2921 O   0  0  0  0  0  0  0  0  0  0  0  0
  -29.1325  -28.6728   17.1908 O   0  0  0  0  0  0  0  0  0  0  0  0
  -31.8434  -24.9141   16.1691 O   0  0  0  0  0  0  0  0  0  0  0  0
  -32.2395  -13.3357   21.1564 O   0  0  0  0  0  0  0  0  0  0  0  0
  -21.7475   -6.9970   21.7841 O   0  0  0  0  0  0  0  0  0  0  0  0
  -31.3746  -22.4575   22.5013 O   0  0  0  0  0  0  0  0  0  1  0  0
  -18.0637   -7.0914   25.8859 F   0  0  0  0  0  0  0  0  0  0  0  0
  -21.9746   -5.2744   23.9343 F   0  0  0  0  0  0  0  0  0  0  0  0
  1  2  1  0  0  0  0
  1  5  2  0  0  0  0
  2  6  2  0  0  0  0
  3  8  2  0  0  0  0
  3 17  1  0  0  0  0
  4  9  1  0  0  0  0
  4 17  2  0  0  0  0
  5 20  1  0  0  0  0
  6 22  1  0  0  0  0
  7 10  2  0  0  0  0
  7 21  1  0  0  0  0
  8 27  1  0  0  0  0
  9 27  2  0  0  0  0
 10 28  1  0  0  0  0
 11 12  2  0  0  0  0
 11 29  1  0  0  0  0
 12 30  1  0  0  0  0
 13 23  2  0  0  0  0
 13 25  1  0  0  0  0
 14 24  1  0  0  0  0
 14 28  2  0  0  0  0
 15 25  2  0  0  0  0
 15 26  1  0  0  0  0
 16 30  2  0  0  0  0
 16 31  1  0  0  0  0
 17 32  1  0  0  0  0
 18 23  1  0  0  0  0
 18 26  2  0  0  0  0
 18 34  1  0  0  0  0
 19 32  1  0  0  0  0
 19 33  2  0  0  0  0
 19 36  1  0  0  0  0
 20 22  2  0  0  0  0
 20 41  1  0  0  0  0
 21 24  2  0  0  0  0
 21 42  1  0  0  0  0
 22 53  1  0  0  0  0
 23 43  1  0  0  0  0
 24 44  1  0  0  0  0
 25 62  1  0  0  0  0
 26 63  1  0  0  0  0
 27 85  1  0  0  0  0
 28 86  1  0  0  0  0
 29 31  2  0  0  0  0
 29 85  1  0  0  0  0
 30 87  1  0  0  0  0
 31 88  1  0  0  0  0
 32 70  2  0  0  0  0
 33 71  1  0  0  0  0
 33 74  1  0  0  0  0
 34 35  2  0  0  0  0
 34 45  1  0  0  0  0
 35 64  1  0  0  0  0
 36 75  1  0  0  0  0
 36 80  2  0  0  0  0
 37 54  1  0  0  0  0
 37 76  1  0  0  0  0
 37 81  2  0  0  0  0
 38 67  1  0  0  0  0
 38 72  1  0  0  0  0
 38 82  2  0  0  0  0
 39 68  1  0  0  0  0
 39 77  1  0  0  0  0
 39 83  2  0  0  0  0
 40 73  1  0  0  0  0
 40 78  1  0  0  0  0
 40 84  2  0  0  0  0
 41 46  1  0  0  0  0
 42 54  1  0  0  0  0
 43 47  1  0  0  0  0
 44 72  1  0  0  0  0
 45 47  1  0  0  0  0
 46 49  1  0  0  0  0
 48 50  1  0  0  0  0
 48 51  1  0  0  0  0
 49 53  1  0  0  0  0
 50 55  1  0  0  0  0
 51 73  1  0  0  0  0
 52 55  1  0  0  0  0
 52 73  1  0  0  0  0
 53 76  1  0  0  0  0
 54 72  1  0  0  0  0
 55 71  1  0  0  0  0
 56 63  1  0  0  0  0
 57 68  1  0  0  0  0
 58 69  1  0  0  0  0
 59 69  1  0  0  0  0
 60 69  1  0  0  0  0
 61 79  1  0  0  0  0
 62 65  1  0  0  0  0
 64 86  1  0  0  0  0
 65 66  1  0  0  0  0
 66 78  1  0  0  0  0
 67 69  1  0  0  0  0
 67 77  1  0  0  0  0
 68 79  1  0  0  0  0
 70 71  1  0  0  0  0
M  CHG  1  79   1
M  ISO  4  40 100  64 101  78 100  86 101
M  END
> <Batch ID>
0032

> <Smiles>
CCc1cc(CCC[100NH:0][100C:0](=O)N2CCCC(n3nc(-c4ccc(Oc5ccc(F)cc5F)cc4)c(C(N)=O)c3N)C2)cc2c1C(=C[101CH2:1][101O:1]c1ccc3c(c1)CN(C(=O)C(NC(=O)C(C)NC)C(C)(C)C)C(C(=O)NC1CCCc4ccccc41)C3)CCC2

> <Shape>
0.269

> <Color>
0.202

> <Negative vol penalty>
0.000

$$$$

  -OEChem-04052316453D

 83 91  0     1  0  0  0  0  0999 V2000
  -23.3216  -24.0472   13.6094 C   0  0  0  0  0  0  0  0  0  0  0  0
  -22.8105  -24.7976   14.6635 C   0  0  0  0  0  0  0  0  0  0  0  0
  -27.2317  -14.9522   21.8929 C   0  0  0  0  0  0  0  0  0  0  0  0
  -26.1980  -15.3806   19.7517 C   0  0  0  0  0  0  0  0  0  0  0  0
  -24.4700  -23.2787   13.7947 C   0  0  0  0  0  0  0  0  0  0  0  0
  -23.4471  -24.7789   15.9040 C   0  0  0  0  0  0  0  0  0  0  0  0
  -23.9246  -29.4237   19.8669 C   0  0  0  0  0  0  0  0  0  0  0  0
  -26.8737  -13.6076   21.7968 C   0  0  0  0  0  0  0  0  0  0  0  0
  -25.8400  -14.0359   19.6555 C   0  0  0  0  0  0  0  0  0  0  0  0
  -23.2046  -29.7561   21.0136 C   0  0  0  0  0  0  0  0  0  0  0  0
  -24.3385  -10.7893   19.0114 C   0  0  0  0  0  0  0  0  0  0  0  0
  -23.0423  -10.4920   18.5908 C   0  0  0  0  0  0  0  0  0  0  0  0
  -24.8741  -28.6653   22.3708 C   0  0  0  0  0  0  0  0  0  0  0  0
  -21.6547  -26.3090   23.3065 C   0  0  0  0  0  0  0  0  0  0  0  0
  -19.8800  -24.9260   22.4265 C   0  0  0  0  0  0  0  0  0  0  0  0
  -22.1509  -11.7008   20.4833 C   0  0  0  0  0  0  0  0  0  0  0  0
  -26.8938  -15.8388   20.8704 C   0  0  0  0  0  0  0  0  0  0  0  0
  -28.4533  -17.8259   20.5141 C   0  0  0  0  0  0  0  0  0  0  0  0
  -25.1265  -23.2582   15.0354 C   0  0  0  0  0  0  0  0  0  0  0  0
  -25.1212  -28.6989   19.9630 C   0  0  0  0  0  0  0  0  0  0  0  0
  -24.6046  -24.0084   16.1065 C   0  0  0  0  0  0  0  0  0  0  0  0
  -25.6087  -28.3272   21.2240 C   0  0  0  0  0  0  0  0  0  0  0  0
  -21.2235  -25.3005   22.4448 C   0  0  0  0  0  0  0  0  0  0  0  0
  -20.7424  -26.9429   24.1500 C   0  0  0  0  0  0  0  0  0  0  0  0
  -26.1779  -13.1494   20.6781 C   0  0  0  0  0  0  0  0  0  0  0  0
  -23.6778  -29.3744   22.2656 C   0  0  0  0  0  0  0  0  0  0  0  0
  -24.5410  -11.5423   20.1680 C   0  0  0  0  0  0  0  0  0  0  0  0
  -21.9485  -10.9477   19.3267 C   0  0  0  0  0  0  0  0  0  0  0  0
  -23.4472  -11.9980   20.9039 C   0  0  0  0  0  0  0  0  0  0  0  0
  -18.9676  -25.5599   23.2700 C   0  0  0  0  0  0  0  0  0  0  0  0
  -19.3988  -26.5684   24.1318 C   0  0  0  0  0  0  0  0  0  0  0  0
  -27.2629  -17.2281   20.9694 C   0  0  0  0  0  0  0  0  0  0  0  0
  -28.3190  -19.1526   20.8434 C   0  0  0  0  0  0  0  0  0  0  0  0
  -29.5798  -17.2349   19.8526 C   0  0  0  0  0  0  0  0  0  0  0  0
  -26.1189  -25.8676   18.9178 C   0  0  0  0  0  0  0  0  0  0  0  0
  -28.9641  -26.8641   20.1153 C   0  0  0  0  0  0  0  0  0  0  0  0
  -30.6421  -28.8771   22.3014 C   0  0  0  0  0  0  0  0  0  0  0  0
  -23.5530  -22.5460   21.6342 C   0  0  0  0  0  0  0  0  0  0  0  0
  -26.3379  -22.3752   15.2012 C   0  0  0  0  0  0  0  0  0  0  0  0
  -25.8998  -28.3713   18.7184 C   0  0  0  0  0  0  0  0  0  0  0  0
  -26.8984  -27.5656   21.3827 C   0  0  0  0  0  0  0  0  0  0  0  0
  -27.1663  -22.7041   16.4405 C   0  0  0  0  0  0  0  0  0  0  0  0
  -26.2069  -22.0227   24.0385 C   0  0  0  0  0  0  0  0  0  0  0  0
  -26.2624  -22.8720   17.6577 C   0  0  0  0  0  0  0  0  0  0  0  0
  -26.8925  -20.7794   23.4690 C   0  0  0  0  0  0  0  0  0  0  0  0
  -24.6936  -21.9518   23.8565 C   0  0  0  0  0  0  0  0  0  0  0  0
  -24.9353  -20.5033   21.8774 C   0  0  0  0  0  0  0  0  0  0  0  0
  -25.2810  -24.0336   17.4601 C   0  0  1  0  0  0  0  0  0  0  0  0
  -26.8417  -27.1848   18.8979 C   0  0  1  0  0  0  0  0  0  0  0  0
  -26.4689  -20.5246   22.0102 C   0  0  2  0  0  0  0  0  0  0  0  0
  -32.9610  -29.4416   23.0770 C   0  0  0  0  0  0  0  0  0  0  0  0
  -29.0601  -24.2657   21.7118 C   0  0  0  0  0  0  0  0  0  0  0  0
  -30.8453  -25.2892   23.1378 C   0  0  0  0  0  0  0  0  0  0  0  0
  -31.2421  -24.9487   20.6987 C   0  0  0  0  0  0  0  0  0  0  0  0
  -30.3663  -31.6973   21.4475 C   0  0  0  0  0  0  0  0  0  0  0  0
  -21.2578  -28.0266   25.0630 C   0  0  0  0  0  0  0  0  0  0  0  0
  -22.1991  -24.6233   21.5425 C   0  0  0  0  0  0  0  0  0  0  0  0
  -20.9179  -29.4422   24.5917 C   0  0  0  0  0  0  0  0  0  0  0  0
  -21.5596  -29.8048   23.2575 C   0  0  0  0  0  0  0  0  0  1  0  0
  -29.6541  -26.7650   21.4544 C   0  0  1  0  0  0  0  0  0  0  0  0
  -31.8384  -29.7924   22.1129 C   0  0  2  0  0  0  0  0  0  0  0  0
  -30.1751  -25.3298   21.7479 C   0  0  0  0  0  0  0  0  0  0  0  0
  -26.4335  -18.1031   21.5442 N   0  0  0  0  0  0  0  0  0  0  0  0
  -27.1038  -19.2643   21.4525 N   0  0  0  0  0  0  0  0  0  0  0  0
  -27.6202  -27.2633   20.1356 N   0  0  0  0  0  0  0  0  0  0  0  0
  -24.3571  -21.7265   22.4437 N   0  0  0  0  0  0  0  0  0  0  0  0
  -29.1231  -20.2228   20.6685 N   0  0  0  0  0  0  0  0  0  0  0  0
  -29.5540  -15.8584   19.5905 N   0  0  0  0  0  0  0  0  0  0  0  0
  -25.9486  -25.3005   17.6693 N   0  0  0  0  0  0  0  0  0  0  0  0
  -30.6927  -27.7896   21.4553 N   0  0  0  0  0  0  0  0  0  0  0  0
  -23.0386  -23.6812   22.2485 N   0  0  0  0  0  0  0  0  0  0  0  0
  -31.4465  -31.2114   22.3443 N   0  3  0  0  0  0  0  0  0  0  0  0
  -30.5865  -17.9047   19.5190 O   0  0  0  0  0  0  0  0  0  0  0  0
  -25.7448  -25.3999   19.9868 O   0  0  0  0  0  0  0  0  0  0  0  0
  -29.5964  -26.6040   19.0886 O   0  0  0  0  0  0  0  0  0  0  0  0
  -29.7536  -29.1023   23.1202 O   0  0  0  0  0  0  0  0  0  0  0  0
  -23.3153  -22.2880   20.4493 O   0  0  0  0  0  0  0  0  0  0  0  0
  -25.8285  -11.8373   20.5838 O   0  0  0  0  0  0  0  0  0  0  0  0
  -22.9767  -29.6970   23.3864 O   0  0  0  0  0  0  0  0  0  1  0  0
  -20.7037  -10.6634   18.9218 F   0  0  0  0  0  0  0  0  0  0  0  0
  -23.6355  -12.7228   22.0152 F   0  0  0  0  0  0  0  0  0  0  0  0
  -17.3176  -25.0462   23.1957 Cl  0  0  0  0  0  0  0  0  0  0  0  0
  -18.2841  -27.3708   25.1921 Cl  0  0  0  0  0  0  0  0  0  0  0  0
  1  2  1  0  0  0  0
  1  5  2  0  0  0  0
  2  6  2  0  0  0  0
  3  8  2  0  0  0  0
  3 17  1  0  0  0  0
  4  9  1  0  0  0  0
  4 17  2  0  0  0  0
  5 19  1  0  0  0  0
  6 21  1  0  0  0  0
  7 10  2  0  0  0  0
  7 20  1  0  0  0  0
  8 25  1  0  0  0  0
  9 25  2  0  0  0  0
 10 26  1  0  0  0  0
 11 12  2  0  0  0  0
 11 27  1  0  0  0  0
 12 28  1  0  0  0  0
 13 22  1  0  0  0  0
 13 26  2  0  0  0  0
 14 23  2  0  0  0  0
 14 24  1  0  0  0  0
 15 23  1  0  0  0  0
 15 30  2  0  0  0  0
 16 28  2  0  0  0  0
 16 29  1  0  0  0  0
 17 32  1  0  0  0  0
 18 32  1  0  0  0  0
 18 33  2  0  0  0  0
 18 34  1  0  0  0  0
 19 21  2  0  0  0  0
 19 39  1  0  0  0  0
 20 22  2  0  0  0  0
 20 40  1  0  0  0  0
 21 48  1  0  0  0  0
 22 41  1  0  0  0  0
 23 57  1  0  0  0  0
 24 31  2  0  0  0  0
 24 56  1  0  0  0  0
 25 78  1  0  0  0  0
 26 79  1  0  0  0  0
 27 29  2  0  0  0  0
 27 78  1  0  0  0  0
 28 80  1  0  0  0  0
 29 81  1  0  0  0  0
 30 31  1  0  0  0  0
 30 82  1  0  0  0  0
 31 83  1  0  0  0  0
 32 63  2  0  0  0  0
 33 64  1  0  0  0  0
 33 67  1  0  0  0  0
 34 68  1  0  0  0  0
 34 73  2  0  0  0  0
 35 49  1  0  0  0  0
 35 69  1  0  0  0  0
 35 74  2  0  0  0  0
 36 60  1  0  0  0  0
 36 65  1  0  0  0  0
 36 75  2  0  0  0  0
 37 61  1  0  0  0  0
 37 70  1  0  0  0  0
 37 76  2  0  0  0  0
 38 66  1  0  0  0  0
 38 71  1  0  0  0  0
 38 77  2  0  0  0  0
 39 42  1  0  0  0  0
 40 49  1  0  0  0  0
 41 65  1  0  0  0  0
 42 44  1  0  0  0  0
 43 45  1  0  0  0  0
 43 46  1  0  0  0  0
 44 48  1  0  0  0  0
 45 50  1  0  0  0  0
 46 66  1  0  0  0  0
 47 50  1  0  0  0  0
 47 66  1  0  0  0  0
 48 69  1  0  0  0  0
 49 65  1  0  0  0  0
 50 64  1  0  0  0  0
 51 61  1  0  0  0  0
 52 62  1  0  0  0  0
 53 62  1  0  0  0  0
 54 62  1  0  0  0  0
 55 72  1  0  0  0  0
 56 58  1  0  0  0  0
 57 71  1  0  0  0  0
 58 59  1  0  0  0  0
 59 79  1  0  0  0  0
 60 62  1  0  0  0  0
 60 70  1  0  0  0  0
 61 72  1  0  0  0  0
 63 64  1  0  0  0  0
M  CHG  1  72   1
M  ISO  4  38 100  59 101  71 100  79 101
M  END
> <Batch ID>
0032

> <Smiles>
CNC(C)C(=O)NC(C(=O)N1Cc2cc([101O:1][101CH2:1]CCc3cc(C[100NH:0][100C:0](=O)N4CCCC(n5nc(-c6ccc(Oc7ccc(F)cc7F)cc6)c(C(N)=O)c5N)C4)cc(Cl)c3Cl)ccc2CC1C(=O)NC1CCCc2ccccc21)C(C)(C)C

> <Shape>
0.200

> <Color>
0.078

> <Negative vol penalty>
0.000

$$$$

  -OEChem-04052316453D

 85 93  0     1  0  0  0  0  0999 V2000
  -21.3374  -13.3817   19.7613 C   0  0  0  0  0  0  0  0  0  0  0  0
  -21.5788  -14.6541   20.2696 C   0  0  0  0  0  0  0  0  0  0  0  0
  -29.3611  -25.1746   22.0866 C   0  0  0  0  0  0  0  0  0  0  0  0
  -30.3626  -27.2217   21.2846 C   0  0  0  0  0  0  0  0  0  0  0  0
  -22.3581  -12.4320   19.7492 C   0  0  0  0  0  0  0  0  0  0  0  0
  -22.8408  -14.9771   20.7671 C   0  0  0  0  0  0  0  0  0  0  0  0
  -24.4491  -19.5119   19.1882 C   0  0  0  0  0  0  0  0  0  0  0  0
  -30.5560  -24.8395   22.7235 C   0  0  0  0  0  0  0  0  0  0  0  0
  -31.5575  -26.8867   21.9216 C   0  0  0  0  0  0  0  0  0  0  0  0
  -23.9190  -20.6329   19.8255 C   0  0  0  0  0  0  0  0  0  0  0  0
  -34.1948  -24.8477   21.3574 C   0  0  0  0  0  0  0  0  0  0  0  0
  -35.3801  -25.0168   20.6419 C   0  0  0  0  0  0  0  0  0  0  0  0
  -25.9144  -20.8048   21.1700 C   0  0  0  0  0  0  0  0  0  0  0  0
  -19.7311  -24.2716   22.4072 C   0  0  0  0  0  0  0  0  0  0  0  0
  -20.3587  -26.7870   23.4376 C   0  0  0  0  0  0  0  0  0  0  0  0
  -36.1704  -26.5675   22.3176 C   0  0  0  0  0  0  0  0  0  0  0  0
  -29.2645  -26.3657   21.3671 C   0  0  0  0  0  0  0  0  0  0  0  0
  -27.3688  -25.9809   19.7040 C   0  0  0  0  0  0  0  0  0  0  0  0
  -23.6359  -12.7465   20.2379 C   0  0  0  0  0  0  0  0  0  0  0  0
  -25.7135  -19.0217   19.5452 C   0  0  0  0  0  0  0  0  0  0  0  0
  -23.8791  -14.0302   20.7627 C   0  0  0  0  0  0  0  0  0  0  0  0
  -26.4594  -19.6790   20.5340 C   0  0  0  0  0  0  0  0  0  0  0  0
  -19.2871  -25.4225   21.7562 C   0  0  0  0  0  0  0  0  0  0  0  0
  -20.4889  -24.3783   23.5735 C   0  0  0  0  0  0  0  0  0  0  0  0
  -19.6009  -26.6802   22.2714 C   0  0  0  0  0  0  0  0  0  0  0  0
  -31.6542  -25.6956   22.6410 C   0  0  0  0  0  0  0  0  0  0  0  0
  -24.6504  -21.2778   20.8186 C   0  0  0  0  0  0  0  0  0  0  0  0
  -33.9972  -25.5386   22.5530 C   0  0  0  0  0  0  0  0  0  0  0  0
  -36.3680  -25.8766   21.1220 C   0  0  0  0  0  0  0  0  0  0  0  0
  -34.9850  -26.3984   23.0331 C   0  0  0  0  0  0  0  0  0  0  0  0
  -20.8027  -25.6360   24.0886 C   0  0  0  0  0  0  0  0  0  0  0  0
  -28.0306  -26.7121   20.7085 C   0  0  0  0  0  0  0  0  0  0  0  0
  -26.2523  -26.7269   19.4154 C   0  0  0  0  0  0  0  0  0  0  0  0
  -27.7309  -24.7384   19.0870 C   0  0  0  0  0  0  0  0  0  0  0  0
  -26.7997  -16.2937   20.7625 C   0  0  0  0  0  0  0  0  0  0  0  0
  -29.6930  -17.6593   20.2275 C   0  0  0  0  0  0  0  0  0  0  0  0
  -31.5172  -20.5136   19.8125 C   0  0  0  0  0  0  0  0  0  0  0  0
  -21.8595  -29.7496   21.0623 C   0  0  0  0  0  0  0  0  0  0  0  0
  -24.6942  -11.6720   20.2475 C   0  0  0  0  0  0  0  0  0  0  0  0
  -26.2825  -17.8273   18.8296 C   0  0  0  0  0  0  0  0  0  0  0  0
  -27.8301  -19.2045   20.9398 C   0  0  0  0  0  0  0  0  0  0  0  0
  -26.1080  -12.2114   20.4489 C   0  0  0  0  0  0  0  0  0  0  0  0
  -24.9878  -31.4277   20.7902 C   0  0  0  0  0  0  0  0  0  0  0  0
  -26.1369  -13.2192   21.5935 C   0  0  0  0  0  0  0  0  0  0  0  0
  -26.0036  -30.2904   20.6683 C   0  0  0  0  0  0  0  0  0  0  0  0
  -23.8464  -31.0657   21.7379 C   0  0  0  0  0  0  0  0  0  0  0  0
  -24.1740  -28.6624   21.3015 C   0  0  0  0  0  0  0  0  0  0  0  0
  -25.2418  -14.4263   21.2885 C   0  0  1  0  0  0  0  0  0  0  0  0
  -27.3624  -17.1083   19.6323 C   0  0  1  0  0  0  0  0  0  0  0  0
  -25.3147  -28.9591   20.3130 C   0  0  2  0  0  0  0  0  0  0  0  0
  -18.4752  -25.2848   20.5102 C   0  0  0  0  0  0  0  0  0  0  0  0
  -33.8651  -21.3127   19.4302 C   0  0  0  0  0  0  0  0  0  0  0  0
  -30.3544  -17.1088   23.1548 C   0  0  0  0  0  0  0  0  0  0  0  0
  -32.2503  -18.7322   22.9594 C   0  0  0  0  0  0  0  0  0  0  0  0
  -32.2299  -16.6669   21.5606 C   0  0  0  0  0  0  0  0  0  0  0  0
  -30.7917  -21.7755   17.2357 C   0  0  0  0  0  0  0  0  0  0  0  0
  -20.9493  -23.1101   24.2468 C   0  0  0  0  0  0  0  0  0  0  0  0
  -19.1340  -27.9262   21.5929 C   0  0  0  0  0  0  0  0  0  0  0  0
  -22.1294  -22.4294   23.5444 C   0  0  0  0  0  0  0  0  0  0  0  0
  -23.3956  -23.2871   23.5343 C   0  0  0  0  0  0  0  0  0  0  0  0
  -19.9679  -28.3029   20.3635 C   0  0  0  0  0  0  0  0  0  0  0  0
  -24.5330  -22.5959   22.7946 C   0  0  0  0  0  0  0  0  0  1  0  0
  -30.6219  -18.5428   21.0246 C   0  0  1  0  0  0  0  0  0  0  0  0
  -32.5547  -20.9041   18.7755 C   0  0  2  0  0  0  0  0  0  0  0  0
  -31.3375  -17.7707   22.1688 C   0  0  0  0  0  0  0  0  0  0  0  0
  -27.3882  -27.8364   21.0360 N   0  0  0  0  0  0  0  0  0  0  0  0
  -26.3111  -27.8173   20.2325 N   0  0  0  0  0  0  0  0  0  0  0  0
  -28.3405  -18.0290   20.2153 N   0  0  0  0  0  0  0  0  0  0  0  0
  -23.2347  -29.7940   21.3449 N   0  0  0  0  0  0  0  0  0  0  0  0
  -25.2358  -26.5500   18.5448 N   0  0  0  0  0  0  0  0  0  0  0  0
  -28.5317  -24.7717   17.9372 N   0  0  0  0  0  0  0  0  0  0  0  0
  -25.9006  -15.3232   20.3634 N   0  0  0  0  0  0  0  0  0  0  0  0
  -31.5282  -19.1572   20.0604 N   0  0  0  0  0  0  0  0  0  0  0  0
  -21.3614  -28.5066   20.6912 N   0  0  0  0  0  0  0  0  0  0  0  0
  -32.0627  -22.0469   17.9553 N   0  3  0  0  0  0  0  0  0  0  0  0
  -27.3418  -23.6321   19.5323 O   0  0  0  0  0  0  0  0  0  0  0  0
  -27.1560  -16.5272   21.9115 O   0  0  0  0  0  0  0  0  0  0  0  0
  -30.1516  -16.6814   19.6316 O   0  0  0  0  0  0  0  0  0  0  0  0
  -30.7740  -21.3306   20.3517 O   0  0  0  0  0  0  0  0  0  0  0  0
  -21.1306  -30.7451   21.1301 O   0  0  0  0  0  0  0  0  0  0  0  0
  -32.8202  -25.3690   23.2626 O   0  0  0  0  0  0  0  0  0  0  0  0
  -24.1349  -22.3717   21.4427 O   0  0  0  0  0  0  0  0  0  1  0  0
  -37.5068  -26.0377   20.4356 F   0  0  0  0  0  0  0  0  0  0  0  0
  -34.8015  -27.0639   24.1817 F   0  0  0  0  0  0  0  0  0  0  0  0
  -21.7378  -25.8073   25.5293 Cl  0  0  0  0  0  0  0  0  0  0  0  0
  1  2  1  0  0  0  0
  1  5  2  0  0  0  0
  2  6  2  0  0  0  0
  3  8  2  0  0  0  0
  3 17  1  0  0  0  0
  4  9  1  0  0  0  0
  4 17  2  0  0  0  0
  5 19  1  0  0  0  0
  6 21  1  0  0  0  0
  7 10  2  0  0  0  0
  7 20  1  0  0  0  0
  8 26  1  0  0  0  0
  9 26  2  0  0  0  0
 10 27  1  0  0  0  0
 11 12  2  0  0  0  0
 11 28  1  0  0  0  0
 12 29  1  0  0  0  0
 13 22  1  0  0  0  0
 13 27  2  0  0  0  0
 14 23  2  0  0  0  0
 14 24  1  0  0  0  0
 15 25  2  0  0  0  0
 15 31  1  0  0  0  0
 16 29  2  0  0  0  0
 16 30  1  0  0  0  0
 17 32  1  0  0  0  0
 18 32  1  0  0  0  0
 18 33  2  0  0  0  0
 18 34  1  0  0  0  0
 19 21  2  0  0  0  0
 19 39  1  0  0  0  0
 20 22  2  0  0  0  0
 20 40  1  0  0  0  0
 21 48  1  0  0  0  0
 22 41  1  0  0  0  0
 23 25  1  0  0  0  0
 23 51  1  0  0  0  0
 24 31  2  0  0  0  0
 24 57  1  0  0  0  0
 25 58  1  0  0  0  0
 26 81  1  0  0  0  0
 27 82  1  0  0  0  0
 28 30  2  0  0  0  0
 28 81  1  0  0  0  0
 29 83  1  0  0  0  0
 30 84  1  0  0  0  0
 31 85  1  0  0  0  0
 32 66  2  0  0  0  0
 33 67  1  0  0  0  0
 33 70  1  0  0  0  0
 34 71  1  0  0  0  0
 34 76  2  0  0  0  0
 35 49  1  0  0  0  0
 35 72  1  0  0  0  0
 35 77  2  0  0  0  0
 36 63  1  0  0  0  0
 36 68  1  0  0  0  0
 36 78  2  0  0  0  0
 37 64  1  0  0  0  0
 37 73  1  0  0  0  0
 37 79  2  0  0  0  0
 38 69  1  0  0  0  0
 38 74  1  0  0  0  0
 38 80  2  0  0  0  0
 39 42  1  0  0  0  0
 40 49  1  0  0  0  0
 41 68  1  0  0  0  0
 42 44  1  0  0  0  0
 43 45  1  0  0  0  0
 43 46  1  0  0  0  0
 44 48  1  0  0  0  0
 45 50  1  0  0  0  0
 46 69  1  0  0  0  0
 47 50  1  0  0  0  0
 47 69  1  0  0  0  0
 48 72  1  0  0  0  0
 49 68  1  0  0  0  0
 50 67  1  0  0  0  0
 52 64  1  0  0  0  0
 53 65  1  0  0  0  0
 54 65  1  0  0  0  0
 55 65  1  0  0  0  0
 56 75  1  0  0  0  0
 57 59  1  0  0  0  0
 58 61  1  0  0  0  0
 59 60  1  0  0  0  0
 60 62  1  0  0  0  0
 61 74  1  0  0  0  0
 62 82  1  0  0  0  0
 63 65  1  0  0  0  0
 63 73  1  0  0  0  0
 64 75  1  0  0  0  0
 66 67  1  0  0  0  0
M  CHG  1  75   1
M  ISO  4  38 100  62 101  74 100  82 101
M  END
> <Batch ID>
0032

> <Smiles>
CNC(C)C(=O)NC(C(=O)N1Cc2cc([101O:1][101CH2:1]CCCc3cc(C)c(CC[100NH:0][100C:0](=O)N4CCCC(n5nc(-c6ccc(Oc7ccc(F)cc7F)cc6)c(C(N)=O)c5N)C4)cc3Cl)ccc2CC1C(=O)NC1CCCc2ccccc21)C(C)(C)C

> <Shape>
0.217

> <Color>
0.060

> <Negative vol penalty>
0.000

$$$$

  -OEChem-04052316453D

 89 98  0     1  0  0  0  0  0999 V2000
  -28.2817  -33.3482   26.3724 C   0  0  0  0  0  0  0  0  0  0  0  0
  -28.3833  -32.1719   25.6367 C   0  0  0  0  0  0  0  0  0  0  0  0
  -23.1411   -9.8519   23.3674 C   0  0  0  0  0  0  0  0  0  0  0  0
  -22.2229  -10.4801   21.2228 C   0  0  0  0  0  0  0  0  0  0  0  0
  -27.0289  -33.8169   26.7660 C   0  0  0  0  0  0  0  0  0  0  0  0
  -27.2321  -31.4629   25.2950 C   0  0  0  0  0  0  0  0  0  0  0  0
  -27.2549  -29.9310   20.4683 C   0  0  0  0  0  0  0  0  0  0  0  0
  -23.0296   -8.5055   23.0207 C   0  0  0  0  0  0  0  0  0  0  0  0
  -22.1115   -9.1337   20.8760 C   0  0  0  0  0  0  0  0  0  0  0  0
  -28.0270  -28.8122   20.1590 C   0  0  0  0  0  0  0  0  0  0  0  0
  -22.6515   -4.8933   22.8399 C   0  0  0  0  0  0  0  0  0  0  0  0
  -22.1281   -4.0182   23.7916 C   0  0  0  0  0  0  0  0  0  0  0  0
  -26.0436  -27.4398   20.1986 C   0  0  0  0  0  0  0  0  0  0  0  0
  -20.0721   -5.2865   23.8270 C   0  0  0  0  0  0  0  0  0  0  0  0
  -22.7377  -10.8393   22.4684 C   0  0  0  0  0  0  0  0  0  0  0  0
  -22.2370  -12.8822   23.9118 C   0  0  0  0  0  0  0  0  0  0  0  0
  -25.8612  -33.1184   26.4207 C   0  0  0  0  0  0  0  0  0  0  0  0
  -25.8704  -29.8105   20.6561 C   0  0  0  0  0  0  0  0  0  0  0  0
  -25.9627  -31.9220   25.6855 C   0  0  0  0  0  0  0  0  0  0  0  0
  -25.2557  -28.5591   20.5077 C   0  0  0  0  0  0  0  0  0  0  0  0
  -29.4029  -20.5481   20.8827 C   0  0  0  0  0  0  0  0  0  0  0  0
  -30.1057  -20.1436   22.0304 C   0  0  0  0  0  0  0  0  0  0  0  0
  -29.0799  -21.9080   20.7142 C   0  0  0  0  0  0  0  0  0  0  0  0
  -29.4554  -22.8611   21.6589 C   0  0  0  0  0  0  0  0  0  0  0  0
  -30.1650  -22.4701   22.7854 C   0  0  0  0  0  0  0  0  0  0  0  0
  -22.5148   -8.1463   21.7751 C   0  0  0  0  0  0  0  0  0  0  0  0
  -27.4219  -27.5658   20.0269 C   0  0  0  0  0  0  0  0  0  0  0  0
  -21.8853   -5.9651   22.3818 C   0  0  0  0  0  0  0  0  0  0  0  0
  -20.8383   -4.2148   24.2852 C   0  0  0  0  0  0  0  0  0  0  0  0
  -20.5956   -6.1617   22.8753 C   0  0  0  0  0  0  0  0  0  0  0  0
  -30.4892  -21.1262   22.9661 C   0  0  0  0  0  0  0  0  0  0  0  0
  -22.8520  -12.2303   22.8262 C   0  0  0  0  0  0  0  0  0  0  0  0
  -22.6597  -14.1854   23.8140 C   0  0  0  0  0  0  0  0  0  0  0  0
  -21.3620  -12.3568   24.9187 C   0  0  0  0  0  0  0  0  0  0  0  0
  -27.6640  -16.3207   21.2352 C   0  0  0  0  0  0  0  0  0  0  0  0
  -23.8832  -30.3224   23.0836 C   0  0  0  0  0  0  0  0  0  0  0  0
  -21.6158  -29.6814   20.8541 C   0  0  0  0  0  0  0  0  0  0  0  0
  -21.1604  -27.3196   18.1650 C   0  0  0  0  0  0  0  0  0  0  0  0
  -24.5327  -33.6390   26.9093 C   0  0  0  0  0  0  0  0  0  0  0  0
  -25.0477  -31.0318   20.9630 C   0  0  0  0  0  0  0  0  0  0  0  0
  -28.9930  -19.5781   19.8108 C   0  0  0  0  0  0  0  0  0  0  0  0
  -30.5138  -18.7203   22.3355 C   0  0  0  0  0  0  0  0  0  0  0  0
  -23.7701  -28.3800   20.6793 C   0  0  0  0  0  0  0  0  0  0  0  0
  -23.3356  -33.0278   26.1857 C   0  0  0  0  0  0  0  0  0  0  0  0
  -27.9129  -18.5899   20.2570 C   0  0  0  0  0  0  0  0  0  0  0  0
  -29.7892  -17.5376   21.6703 C   0  0  0  0  0  0  0  0  0  0  0  0
  -24.0944  -16.9405   20.0909 C   0  0  0  0  0  0  0  0  0  0  0  0
  -23.4890  -31.5135   26.0849 C   0  0  0  0  0  0  0  0  0  0  0  0
  -23.3065  -16.2548   21.2065 C   0  0  0  0  0  0  0  0  0  0  0  0
  -25.4804  -17.3816   20.5429 C   0  0  0  0  0  0  0  0  0  0  0  0
  -25.5453  -15.0797   21.5252 C   0  0  0  0  0  0  0  0  0  0  0  0
  -24.7354  -31.1379   25.2744 C   0  0  1  0  0  0  0  0  0  0  0  0
  -23.7202  -30.7034   21.6393 C   0  0  1  0  0  0  0  0  0  0  0  0
  -24.1985  -15.4451   22.1669 C   0  0  2  0  0  0  0  0  0  0  0  0
  -28.2692  -17.6846   21.4629 C   0  0  2  0  0  0  0  0  0  0  0  0
  -28.3093  -22.3768   19.5138 C   0  0  0  0  0  0  0  0  0  0  0  0
  -30.5653  -23.5103   23.7866 C   0  0  0  0  0  0  0  0  0  0  0  0
  -27.9019  -17.2810   23.8909 C   0  0  0  0  0  0  0  0  0  0  0  0
  -19.8226  -27.4944   16.0491 C   0  0  0  0  0  0  0  0  0  0  0  0
  -19.4230  -28.3055   22.4692 C   0  0  0  0  0  0  0  0  0  0  0  0
  -18.8237  -27.0043   20.4160 C   0  0  0  0  0  0  0  0  0  0  0  0
  -18.6205  -29.4906   20.4184 C   0  0  0  0  0  0  0  0  0  0  0  0
  -23.5180  -26.7013   16.4861 C   0  0  0  0  0  0  0  0  0  0  0  0
  -29.0933  -24.2995   21.4605 C   0  0  0  0  0  0  0  0  0  0  0  0
  -27.6183  -18.1999   22.7252 C   0  0  0  0  0  0  0  0  0  0  0  0
  -29.9612  -25.0264   20.4245 C   0  0  0  0  0  0  0  0  0  0  0  0
  -29.5251  -26.4664   20.1803 C   0  0  0  0  0  0  0  0  0  1  0  0
  -20.9172  -28.4348   20.3676 C   0  0  1  0  0  0  0  0  0  0  0  0
  -21.2022  -27.6175   16.6770 C   0  0  2  0  0  0  0  0  0  0  0  0
  -19.4725  -28.3079   20.9283 C   0  0  0  0  0  0  0  0  0  0  0  0
  -23.6077  -13.0517   22.0925 N   0  0  0  0  0  0  0  0  0  0  0  0
  -23.4703  -14.2331   22.7182 N   0  0  0  0  0  0  0  0  0  0  0  0
  -26.2747  -16.2777   21.0963 N   0  0  0  0  0  0  0  0  0  0  0  0
  -23.0096  -29.6029   20.9850 N   0  0  0  0  0  0  0  0  0  0  0  0
  -22.4133  -15.2837   24.5592 N   0  0  0  0  0  0  0  0  0  0  0  0
  -19.9812  -12.3742   24.6793 N   0  0  0  0  0  0  0  0  0  0  0  0
  -24.4839  -31.2965   23.8580 N   0  0  0  0  0  0  0  0  0  0  0  0
  -20.9921  -28.4669   18.9110 N   0  0  0  0  0  0  0  0  0  0  0  0
  -22.1200  -26.6693   15.9845 N   0  3  0  0  0  0  0  0  0  0  0  0
  -21.7908  -11.9007   26.0058 O   0  0  0  0  0  0  0  0  0  0  0  0
  -28.3978  -15.3313   21.1778 O   0  0  0  0  0  0  0  0  0  0  0  0
  -23.4916  -29.2265   23.4672 O   0  0  0  0  0  0  0  0  0  0  0  0
  -20.9502  -30.6900   21.1019 O   0  0  0  0  0  0  0  0  0  0  0  0
  -21.2628  -26.1824   18.6198 O   0  0  0  0  0  0  0  0  0  0  0  0
  -22.4061   -6.8325   21.4363 O   0  0  0  0  0  0  0  0  0  0  0  0
  -28.1786  -26.4643   19.7236 O   0  0  0  0  0  0  0  0  0  1  0  0
  -20.3352   -3.3734   25.1979 F   0  0  0  0  0  0  0  0  0  0  0  0
  -19.8542   -7.1889   22.4381 F   0  0  0  0  0  0  0  0  0  0  0  0
  -31.3701  -20.7167   24.4173 Cl  0  0  0  0  0  0  0  0  0  0  0  0
  1  2  1  0  0  0  0
  1  5  2  0  0  0  0
  2  6  2  0  0  0  0
  3  8  2  0  0  0  0
  3 15  1  0  0  0  0
  4  9  1  0  0  0  0
  4 15  2  0  0  0  0
  5 17  1  0  0  0  0
  6 19  1  0  0  0  0
  7 10  2  0  0  0  0
  7 18  1  0  0  0  0
  8 26  1  0  0  0  0
  9 26  2  0  0  0  0
 10 27  1  0  0  0  0
 11 12  2  0  0  0  0
 11 28  1  0  0  0  0
 12 29  1  0  0  0  0
 13 20  1  0  0  0  0
 13 27  2  0  0  0  0
 14 29  2  0  0  0  0
 14 30  1  0  0  0  0
 15 32  1  0  0  0  0
 16 32  1  0  0  0  0
 16 33  2  0  0  0  0
 16 34  1  0  0  0  0
 17 19  2  0  0  0  0
 17 39  1  0  0  0  0
 18 20  2  0  0  0  0
 18 40  1  0  0  0  0
 19 52  1  0  0  0  0
 20 43  1  0  0  0  0
 21 22  2  0  0  0  0
 21 23  1  0  0  0  0
 21 41  1  0  0  0  0
 22 31  1  0  0  0  0
 22 42  1  0  0  0  0
 23 24  2  0  0  0  0
 23 56  1  0  0  0  0
 24 25  1  0  0  0  0
 24 64  1  0  0  0  0
 25 31  2  0  0  0  0
 25 57  1  0  0  0  0
 26 85  1  0  0  0  0
 27 86  1  0  0  0  0
 28 30  2  0  0  0  0
 28 85  1  0  0  0  0
 29 87  1  0  0  0  0
 30 88  1  0  0  0  0
 31 89  1  0  0  0  0
 32 71  2  0  0  0  0
 33 72  1  0  0  0  0
 33 75  1  0  0  0  0
 34 76  1  0  0  0  0
 34 80  2  0  0  0  0
 35 55  1  0  0  0  0
 35 73  1  0  0  0  0
 35 81  2  0  0  0  0
 36 53  1  0  0  0  0
 36 77  1  0  0  0  0
 36 82  2  0  0  0  0
 37 68  1  0  0  0  0
 37 74  1  0  0  0  0
 37 83  2  0  0  0  0
 38 69  1  0  0  0  0
 38 78  1  0  0  0  0
 38 84  2  0  0  0  0
 39 44  1  0  0  0  0
 40 53  1  0  0  0  0
 41 45  1  0  0  0  0
 42 46  1  0  0  0  0
 43 74  1  0  0  0  0
 44 48  1  0  0  0  0
 45 55  1  0  0  0  0
 46 55  1  0  0  0  0
 47 49  1  0  0  0  0
 47 50  1  0  0  0  0
 48 52  1  0  0  0  0
 49 54  1  0  0  0  0
 50 73  1  0  0  0  0
 51 54  1  0  0  0  0
 51 73  1  0  0  0  0
 52 77  1  0  0  0  0
 53 74  1  0  0  0  0
 54 72  1  0  0  0  0
 55 65  1  0  0  0  0
 58 65  1  0  0  0  0
 59 69  1  0  0  0  0
 60 70  1  0  0  0  0
 61 70  1  0  0  0  0
 62 70  1  0  0  0  0
 63 79  1  0  0  0  0
 64 66  1  0  0  0  0
 66 67  1  0  0  0  0
 67 86  1  0  0  0  0
 68 70  1  0  0  0  0
 68 78  1  0  0  0  0
 69 79  1  0  0  0  0
 71 72  1  0  0  0  0
M  CHG  1  79   1
M  ISO  4  35 100  55 100  67 101  86 101
M  END
> <Batch ID>
0032

> <Smiles>
CC[100C:0]1([100C:0](=O)N2CCCC(n3nc(-c4ccc(Oc5ccc(F)cc5F)cc4)c(C(N)=O)c3N)C2)CCc2c(C)c(CC[101CH2:1][101O:1]c3ccc4c(c3)CN(C(=O)C(NC(=O)C(C)NC)C(C)(C)C)C(C(=O)NC3CCCc5ccccc53)C4)c(C)c(Cl)c2CC1

> <Shape>
0.295

> <Color>
0.092

> <Negative vol penalty>
0.000

$$$$

  -OEChem-04052316453D

 82 90  0     1  0  0  0  0  0999 V2000
  -26.5784  -20.4198   27.1518 C   0  0  0  0  0  0  0  0  0  0  0  0
  -27.0874  -21.3051   26.2071 C   0  0  0  0  0  0  0  0  0  0  0  0
  -24.2663  -13.7202   21.1525 C   0  0  0  0  0  0  0  0  0  0  0  0
  -26.6562  -13.4117   21.3259 C   0  0  0  0  0  0  0  0  0  0  0  0
  -25.2045  -20.1939   27.2246 C   0  0  0  0  0  0  0  0  0  0  0  0
  -26.2229  -21.9643   25.3339 C   0  0  0  0  0  0  0  0  0  0  0  0
  -27.3148  -26.8871   24.8666 C   0  0  0  0  0  0  0  0  0  0  0  0
  -24.1372  -12.4305   20.6371 C   0  0  0  0  0  0  0  0  0  0  0  0
  -26.5271  -12.1219   20.8105 C   0  0  0  0  0  0  0  0  0  0  0  0
  -28.3900  -27.2257   24.0462 C   0  0  0  0  0  0  0  0  0  0  0  0
  -24.0953   -9.2655   21.8261 C   0  0  0  0  0  0  0  0  0  0  0  0
  -23.0735   -8.4635   22.3345 C   0  0  0  0  0  0  0  0  0  0  0  0
  -26.8535  -27.7769   22.2701 C   0  0  0  0  0  0  0  0  0  0  0  0
  -29.5115  -27.0490   18.9542 C   0  0  0  0  0  0  0  0  0  0  0  0
  -30.4690  -24.9806   19.7552 C   0  0  0  0  0  0  0  0  0  0  0  0
  -22.1142   -8.2845   20.1243 C   0  0  0  0  0  0  0  0  0  0  0  0
  -25.5259  -14.2108   21.4968 C   0  0  0  0  0  0  0  0  0  0  0  0
  -25.6115  -15.9270   23.3823 C   0  0  0  0  0  0  0  0  0  0  0  0
  -24.3218  -20.8579   26.3582 C   0  0  0  0  0  0  0  0  0  0  0  0
  -25.9991  -26.9806   24.3904 C   0  0  0  0  0  0  0  0  0  0  0  0
  -24.8360  -21.7460   25.3943 C   0  0  0  0  0  0  0  0  0  0  0  0
  -25.7632  -27.4413   23.0873 C   0  0  0  0  0  0  0  0  0  0  0  0
  -30.3644  -26.3698   19.8241 C   0  0  0  0  0  0  0  0  0  0  0  0
  -28.7631  -26.3390   18.0153 C   0  0  0  0  0  0  0  0  0  0  0  0
  -29.7207  -24.2705   18.8163 C   0  0  0  0  0  0  0  0  0  0  0  0
  -25.2676  -11.6314   20.4661 C   0  0  0  0  0  0  0  0  0  0  0  0
  -28.1596  -27.6680   22.7468 C   0  0  0  0  0  0  0  0  0  0  0  0
  -24.1265   -9.5771   20.4668 C   0  0  0  0  0  0  0  0  0  0  0  0
  -22.0830   -7.9730   21.4837 C   0  0  0  0  0  0  0  0  0  0  0  0
  -23.1360   -9.0866   19.6160 C   0  0  0  0  0  0  0  0  0  0  0  0
  -28.8677  -24.9498   17.9463 C   0  0  0  0  0  0  0  0  0  0  0  0
  -25.6600  -15.5432   22.0287 C   0  0  0  0  0  0  0  0  0  0  0  0
  -25.7898  -17.2887   23.3596 C   0  0  0  0  0  0  0  0  0  0  0  0
  -25.4223  -15.1244   24.5552 C   0  0  0  0  0  0  0  0  0  0  0  0
  -23.6322  -24.9122   23.9182 C   0  0  0  0  0  0  0  0  0  0  0  0
  -21.9445  -27.5965   23.2336 C   0  0  0  0  0  0  0  0  0  0  0  0
  -21.9691  -30.8524   22.2112 C   0  0  0  0  0  0  0  0  0  0  0  0
  -28.4897  -20.8383   19.4910 C   0  0  0  0  0  0  0  0  0  0  0  0
  -22.8488  -20.5456   26.4433 C   0  0  0  0  0  0  0  0  0  0  0  0
  -24.8489  -26.6370   25.2968 C   0  0  0  0  0  0  0  0  0  0  0  0
  -24.3687  -27.5788   22.5350 C   0  0  0  0  0  0  0  0  0  0  0  0
  -21.9672  -21.5675   25.7301 C   0  0  0  0  0  0  0  0  0  0  0  0
  -25.0506  -21.1165   20.5832 C   0  0  0  0  0  0  0  0  0  0  0  0
  -22.5274  -21.8827   24.3467 C   0  0  0  0  0  0  0  0  0  0  0  0
  -24.8184  -19.7407   21.2103 C   0  0  0  0  0  0  0  0  0  0  0  0
  -25.9326  -21.0166   19.3421 C   0  0  0  0  0  0  0  0  0  0  0  0
  -27.0161  -18.9753   20.1982 C   0  0  0  0  0  0  0  0  0  0  0  0
  -23.9282  -22.4988   24.4460 C   0  0  1  0  0  0  0  0  0  0  0  0
  -23.5752  -26.2804   24.5367 C   0  0  1  0  0  0  0  0  0  0  0  0
  -26.1499  -19.0115   21.4704 C   0  0  2  0  0  0  0  0  0  0  0  0
  -27.8518  -27.0683   17.0869 C   0  0  0  0  0  0  0  0  0  0  0  0
  -20.4318  -32.7717   21.7110 C   0  0  0  0  0  0  0  0  0  0  0  0
  -21.1736  -26.2864   20.5880 C   0  0  0  0  0  0  0  0  0  0  0  0
  -20.4708  -28.5409   19.7564 C   0  0  0  0  0  0  0  0  0  0  0  0
  -19.3174  -27.5225   21.7198 C   0  0  0  0  0  0  0  0  0  0  0  0
  -23.1930  -32.5328   24.3176 C   0  0  0  0  0  0  0  0  0  0  0  0
  -31.1751  -27.1380   20.8394 C   0  0  0  0  0  0  0  0  0  0  0  0
  -29.8353  -22.7850   18.7449 C   0  0  0  0  0  0  0  0  0  0  0  0
  -30.4367  -27.3077   22.1627 C   0  0  0  0  0  0  0  0  0  1  0  0
  -21.6738  -28.3996   21.9843 C   0  0  1  0  0  0  0  0  0  0  0  0
  -21.2854  -32.0881   22.7678 C   0  0  2  0  0  0  0  0  0  0  0  0
  -20.6854  -27.6830   21.0216 C   0  0  0  0  0  0  0  0  0  0  0  0
  -25.8537  -16.5774   21.2061 N   0  0  0  0  0  0  0  0  0  0  0  0
  -25.9284  -17.6246   22.0451 N   0  0  0  0  0  0  0  0  0  0  0  0
  -23.2776  -27.2246   23.4578 N   0  0  0  0  0  0  0  0  0  0  0  0
  -27.1917  -20.3291   19.6619 N   0  0  0  0  0  0  0  0  0  0  0  0
  -25.8398  -18.2195   24.3361 N   0  0  0  0  0  0  0  0  0  0  0  0
  -25.2544  -13.7418   24.3988 N   0  0  0  0  0  0  0  0  0  0  0  0
  -23.8416  -23.8923   24.8267 N   0  0  0  0  0  0  0  0  0  0  0  0
  -21.2246  -29.7132   22.4329 N   0  0  0  0  0  0  0  0  0  0  0  0
  -28.5691  -22.1245   18.9715 N   0  0  0  0  0  0  0  0  0  0  0  0
  -22.2991  -33.0649   23.2571 N   0  3  0  0  0  0  0  0  0  0  0  0
  -25.3864  -15.6208   25.7066 O   0  0  0  0  0  0  0  0  0  0  0  0
  -23.4948  -24.7907   22.7066 O   0  0  0  0  0  0  0  0  0  0  0  0
  -21.0086  -27.3156   23.9865 O   0  0  0  0  0  0  0  0  0  0  0  0
  -23.0533  -30.8940   21.6339 O   0  0  0  0  0  0  0  0  0  0  0  0
  -29.5037  -20.1959   19.7850 O   0  0  0  0  0  0  0  0  0  0  0  0
  -25.1419  -10.3727   19.9635 O   0  0  0  0  0  0  0  0  0  0  0  0
  -29.2073  -27.9985   21.9438 O   0  0  0  0  0  0  0  0  0  1  0  0
  -21.1028   -7.2016   21.9718 F   0  0  0  0  0  0  0  0  0  0  0  0
  -23.1613   -9.3815   18.3090 F   0  0  0  0  0  0  0  0  0  0  0  0
  -28.1472  -24.2664   17.0446 F   0  0  0  0  0  0  0  0  0  0  0  0
  1  2  1  0  0  0  0
  1  5  2  0  0  0  0
  2  6  2  0  0  0  0
  3  8  2  0  0  0  0
  3 17  1  0  0  0  0
  4  9  1  0  0  0  0
  4 17  2  0  0  0  0
  5 19  1  0  0  0  0
  6 21  1  0  0  0  0
  7 10  2  0  0  0  0
  7 20  1  0  0  0  0
  8 26  1  0  0  0  0
  9 26  2  0  0  0  0
 10 27  1  0  0  0  0
 11 12  2  0  0  0  0
 11 28  1  0  0  0  0
 12 29  1  0  0  0  0
 13 22  1  0  0  0  0
 13 27  2  0  0  0  0
 14 23  1  0  0  0  0
 14 24  2  0  0  0  0
 15 23  2  0  0  0  0
 15 25  1  0  0  0  0
 16 29  2  0  0  0  0
 16 30  1  0  0  0  0
 17 32  1  0  0  0  0
 18 32  1  0  0  0  0
 18 33  2  0  0  0  0
 18 34  1  0  0  0  0
 19 21  2  0  0  0  0
 19 39  1  0  0  0  0
 20 22  2  0  0  0  0
 20 40  1  0  0  0  0
 21 48  1  0  0  0  0
 22 41  1  0  0  0  0
 23 57  1  0  0  0  0
 24 31  1  0  0  0  0
 24 51  1  0  0  0  0
 25 31  2  0  0  0  0
 25 58  1  0  0  0  0
 26 78  1  0  0  0  0
 27 79  1  0  0  0  0
 28 30  2  0  0  0  0
 28 78  1  0  0  0  0
 29 80  1  0  0  0  0
 30 81  1  0  0  0  0
 31 82  1  0  0  0  0
 32 63  2  0  0  0  0
 33 64  1  0  0  0  0
 33 67  1  0  0  0  0
 34 68  1  0  0  0  0
 34 73  2  0  0  0  0
 35 49  1  0  0  0  0
 35 69  1  0  0  0  0
 35 74  2  0  0  0  0
 36 60  1  0  0  0  0
 36 65  1  0  0  0  0
 36 75  2  0  0  0  0
 37 61  1  0  0  0  0
 37 70  1  0  0  0  0
 37 76  2  0  0  0  0
 38 66  1  0  0  0  0
 38 71  1  0  0  0  0
 38 77  2  0  0  0  0
 39 42  1  0  0  0  0
 40 49  1  0  0  0  0
 41 65  1  0  0  0  0
 42 44  1  0  0  0  0
 43 45  1  0  0  0  0
 43 46  1  0  0  0  0
 44 48  1  0  0  0  0
 45 50  1  0  0  0  0
 46 66  1  0  0  0  0
 47 50  1  0  0  0  0
 47 66  1  0  0  0  0
 48 69  1  0  0  0  0
 49 65  1  0  0  0  0
 50 64  1  0  0  0  0
 52 61  1  0  0  0  0
 53 62  1  0  0  0  0
 54 62  1  0  0  0  0
 55 62  1  0  0  0  0
 56 72  1  0  0  0  0
 57 59  1  0  0  0  0
 58 71  1  0  0  0  0
 59 79  1  0  0  0  0
 60 62  1  0  0  0  0
 60 70  1  0  0  0  0
 61 72  1  0  0  0  0
 63 64  1  0  0  0  0
M  CHG  1  72   1
M  ISO  4  38 100  59 101  71 100  79 101
M  END
> <Batch ID>
0032

> <Smiles>
CNC(C)C(=O)NC(C(=O)N1Cc2cc([101O:1][101CH2:1]Cc3cc(C)c(F)c(C[100NH:0][100C:0](=O)N4CCCC(n5nc(-c6ccc(Oc7ccc(F)cc7F)cc6)c(C(N)=O)c5N)C4)c3)ccc2CC1C(=O)NC1CCCc2ccccc21)C(C)(C)C

> <Shape>
0.194

> <Color>
0.069

> <Negative vol penalty>
0.000

$$$$

  -OEChem-04052316453D

 91100  0     1  0  0  0  0  0999 V2000
  -31.6795  -12.1400   22.0122 C   0  0  0  0  0  0  0  0  0  0  0  0
  -31.2712  -13.4221   22.3658 C   0  0  0  0  0  0  0  0  0  0  0  0
  -26.2111  -28.2198   18.9443 C   0  0  0  0  0  0  0  0  0  0  0  0
  -26.4294  -27.9395   21.3340 C   0  0  0  0  0  0  0  0  0  0  0  0
  -30.9983  -11.4430   21.0151 C   0  0  0  0  0  0  0  0  0  0  0  0
  -30.1822  -14.0083   21.7218 C   0  0  0  0  0  0  0  0  0  0  0  0
  -27.0129  -16.2865   24.9483 C   0  0  0  0  0  0  0  0  0  0  0  0
  -25.3644  -29.3091   19.1493 C   0  0  0  0  0  0  0  0  0  0  0  0
  -25.5827  -29.0289   21.5391 C   0  0  0  0  0  0  0  0  0  0  0  0
  -27.3898  -17.5377   25.4344 C   0  0  0  0  0  0  0  0  0  0  0  0
  -25.8014  -32.4004   21.4640 C   0  0  0  0  0  0  0  0  0  0  0  0
  -26.1783  -33.3407   22.4227 C   0  0  0  0  0  0  0  0  0  0  0  0
  -25.9285  -18.5938   23.8317 C   0  0  0  0  0  0  0  0  0  0  0  0
  -34.5292  -21.2694   23.4676 C   0  0  0  0  0  0  0  0  0  0  0  0
  -33.4843  -20.1014   21.6289 C   0  0  0  0  0  0  0  0  0  0  0  0
  -32.2632  -20.4596   23.6826 C   0  0  0  0  0  0  0  0  0  0  0  0
  -24.1457  -32.9014   23.6527 C   0  0  0  0  0  0  0  0  0  0  0  0
  -27.7802  -24.0684   26.5750 C   0  0  0  0  0  0  0  0  0  0  0  0
  -26.7436  -27.5350   20.0366 C   0  0  0  0  0  0  0  0  0  0  0  0
  -29.0199  -26.4335   19.7004 C   0  0  0  0  0  0  0  0  0  0  0  0
  -29.8944  -12.0172   20.3653 C   0  0  0  0  0  0  0  0  0  0  0  0
  -26.0978  -16.1797   23.8912 C   0  0  0  0  0  0  0  0  0  0  0  0
  -29.4865  -13.3188   20.7142 C   0  0  0  0  0  0  0  0  0  0  0  0
  -25.5398  -17.3400   23.3357 C   0  0  0  0  0  0  0  0  0  0  0  0
  -34.5879  -20.7607   22.1702 C   0  0  0  0  0  0  0  0  0  0  0  0
  -33.3668  -21.1189   24.2238 C   0  0  0  0  0  0  0  0  0  0  0  0
  -32.3218  -19.9509   22.3851 C   0  0  0  0  0  0  0  0  0  0  0  0
  -25.0502  -29.7136   20.4467 C   0  0  0  0  0  0  0  0  0  0  0  0
  -26.8498  -18.6917   24.8741 C   0  0  0  0  0  0  0  0  0  0  0  0
  -24.5966  -31.7106   21.5995 C   0  0  0  0  0  0  0  0  0  0  0  0
  -25.3505  -33.5913   23.5171 C   0  0  0  0  0  0  0  0  0  0  0  0
  -23.7688  -31.9611   22.6939 C   0  0  0  0  0  0  0  0  0  0  0  0
  -26.9506  -22.9217   26.5668 C   0  0  0  0  0  0  0  0  0  0  0  0
  -27.6179  -26.4093   19.8254 C   0  0  0  0  0  0  0  0  0  0  0  0
  -28.4504  -24.0635   25.3738 C   0  0  0  0  0  0  0  0  0  0  0  0
  -27.1728  -22.2980   25.3612 C   0  0  0  0  0  0  0  0  0  0  0  0
  -29.3708  -25.1187   19.5149 C   0  0  0  0  0  0  0  0  0  0  0  0
  -29.9241  -27.5452   19.7477 C   0  0  0  0  0  0  0  0  0  0  0  0
  -26.2086  -15.0094   20.9379 C   0  0  0  0  0  0  0  0  0  0  0  0
  -23.0344  -15.6772   20.9721 C   0  0  0  0  0  0  0  0  0  0  0  0
  -20.4735  -17.5108   22.2860 C   0  0  0  0  0  0  0  0  0  0  0  0
  -28.9005  -19.7209   20.8523 C   0  0  0  0  0  0  0  0  0  0  0  0
  -29.2190  -11.2435   19.2608 C   0  0  0  0  0  0  0  0  0  0  0  0
  -25.6813  -14.8218   23.3961 C   0  0  0  0  0  0  0  0  0  0  0  0
  -24.5380  -17.2789   22.2127 C   0  0  0  0  0  0  0  0  0  0  0  0
  -27.8430  -11.7894   18.8881 C   0  0  0  0  0  0  0  0  0  0  0  0
  -26.5166  -21.0516   18.5669 C   0  0  0  0  0  0  0  0  0  0  0  0
  -27.8936  -13.3065   18.7373 C   0  0  0  0  0  0  0  0  0  0  0  0
  -26.7021  -22.5654   18.6850 C   0  0  0  0  0  0  0  0  0  0  0  0
  -26.6974  -20.3541   19.9133 C   0  0  0  0  0  0  0  0  0  0  0  0
  -28.1496  -22.1736   20.7221 C   0  0  0  0  0  0  0  0  0  0  0  0
  -28.2944  -13.9789   20.0558 C   0  0  1  0  0  0  0  0  0  0  0  0
  -25.1317  -14.8473   21.9732 C   0  0  1  0  0  0  0  0  0  0  0  0
  -28.0321  -22.9149   19.3794 C   0  0  2  0  0  0  0  0  0  0  0  0
  -35.8310  -20.9223   21.3619 C   0  0  0  0  0  0  0  0  0  0  0  0
  -17.9966  -17.8607   22.0867 C   0  0  0  0  0  0  0  0  0  0  0  0
  -23.4677  -17.2629   18.4015 C   0  0  0  0  0  0  0  0  0  0  0  0
  -21.2390  -18.3412   18.7734 C   0  0  0  0  0  0  0  0  0  0  0  0
  -21.3878  -15.8745   18.4328 C   0  0  0  0  0  0  0  0  0  0  0  0
  -20.0141  -16.6852   25.0907 C   0  0  0  0  0  0  0  0  0  0  0  0
  -33.3026  -21.6692   25.6269 C   0  0  0  0  0  0  0  0  0  0  0  0
  -31.1419  -19.2459   21.8061 C   0  0  0  0  0  0  0  0  0  0  0  0
  -29.4432  -24.9645   24.7722 C   0  0  0  0  0  0  0  0  0  0  0  0
  -26.6239  -21.0545   24.7258 C   0  0  0  0  0  0  0  0  0  1  0  0
  -32.7934  -23.1151   25.7059 C   0  0  0  0  0  0  0  0  0  0  0  0
  -30.8877  -24.7817   25.3035 C   0  0  0  0  0  0  0  0  0  0  0  0
  -31.3978  -23.3490   25.1144 C   0  0  0  0  0  0  0  0  0  0  0  0
  -22.1901  -16.8755   20.6114 C   0  0  1  0  0  0  0  0  0  0  0  0
  -19.1050  -17.1044   22.8023 C   0  0  2  0  0  0  0  0  0  0  0  0
  -22.0915  -17.0901   19.0747 C   0  0  0  0  0  0  0  0  0  0  0  0
  -27.1127  -25.1768   19.7275 N   0  0  0  0  0  0  0  0  0  0  0  0
  -28.2032  -24.4143   19.5389 N   0  0  0  0  0  0  0  0  0  0  0  0
  -24.1673  -15.9282   21.7590 N   0  0  0  0  0  0  0  0  0  0  0  0
  -27.9785  -20.7265   20.5181 N   0  0  0  0  0  0  0  0  0  0  0  0
  -30.5612  -24.5079   19.3353 N   0  0  0  0  0  0  0  0  0  0  0  0
  -29.3958  -28.8282   19.9457 N   0  0  0  0  0  0  0  0  0  0  0  0
  -27.1699  -14.0172   20.9660 N   0  0  0  0  0  0  0  0  0  0  0  0
  -20.9035  -16.6819   21.2715 N   0  0  0  0  0  0  0  0  0  0  0  0
  -30.0924  -20.1605   21.4152 N   0  0  0  0  0  0  0  0  0  0  0  0
  -18.9981  -17.3841   24.2622 N   0  3  0  0  0  0  0  0  0  0  0  0
  -31.1623  -27.4069   19.6019 O   0  0  0  0  0  0  0  0  0  0  0  0
  -26.1693  -15.9632   20.1695 O   0  0  0  0  0  0  0  0  0  0  0  0
  -22.6971  -14.5586   20.5764 O   0  0  0  0  0  0  0  0  0  0  0  0
  -21.0969  -18.4701   22.7351 O   0  0  0  0  0  0  0  0  0  0  0  0
  -28.6802  -18.5206   20.6580 O   0  0  0  0  0  0  0  0  0  0  0  0
  -28.0857  -22.9877   24.6280 O   0  0  0  0  0  0  0  0  0  0  0  0
  -24.2241  -30.7767   20.6472 O   0  0  0  0  0  0  0  0  0  0  0  0
  -27.2164  -19.9142   25.3463 O   0  0  0  0  0  0  0  0  0  1  0  0
  -25.7134  -34.4932   24.4385 F   0  0  0  0  0  0  0  0  0  0  0  0
  -22.6107  -31.3007   22.8301 F   0  0  0  0  0  0  0  0  0  0  0  0
  -25.9065  -22.4498   27.8152 Cl  0  0  0  0  0  0  0  0  0  0  0  0
  1  2  1  0  0  0  0
  1  5  2  0  0  0  0
  2  6  2  0  0  0  0
  3  8  2  0  0  0  0
  3 19  1  0  0  0  0
  4  9  1  0  0  0  0
  4 19  2  0  0  0  0
  5 21  1  0  0  0  0
  6 23  1  0  0  0  0
  7 10  2  0  0  0  0
  7 22  1  0  0  0  0
  8 28  1  0  0  0  0
  9 28  2  0  0  0  0
 10 29  1  0  0  0  0
 11 12  2  0  0  0  0
 11 30  1  0  0  0  0
 12 31  1  0  0  0  0
 13 24  1  0  0  0  0
 13 29  2  0  0  0  0
 14 25  2  0  0  0  0
 14 26  1  0  0  0  0
 15 25  1  0  0  0  0
 15 27  2  0  0  0  0
 16 26  2  0  0  0  0
 16 27  1  0  0  0  0
 17 31  2  0  0  0  0
 17 32  1  0  0  0  0
 18 33  1  0  0  0  0
 18 35  2  0  0  0  0
 19 34  1  0  0  0  0
 20 34  1  0  0  0  0
 20 37  2  0  0  0  0
 20 38  1  0  0  0  0
 21 23  2  0  0  0  0
 21 43  1  0  0  0  0
 22 24  2  0  0  0  0
 22 44  1  0  0  0  0
 23 52  1  0  0  0  0
 24 45  1  0  0  0  0
 25 55  1  0  0  0  0
 26 61  1  0  0  0  0
 27 62  1  0  0  0  0
 28 87  1  0  0  0  0
 29 88  1  0  0  0  0
 30 32  2  0  0  0  0
 30 87  1  0  0  0  0
 31 89  1  0  0  0  0
 32 90  1  0  0  0  0
 33 36  2  0  0  0  0
 33 91  1  0  0  0  0
 34 71  2  0  0  0  0
 35 63  1  0  0  0  0
 35 86  1  0  0  0  0
 36 64  1  0  0  0  0
 36 86  1  0  0  0  0
 37 72  1  0  0  0  0
 37 75  1  0  0  0  0
 38 76  1  0  0  0  0
 38 81  2  0  0  0  0
 39 53  1  0  0  0  0
 39 77  1  0  0  0  0
 39 82  2  0  0  0  0
 40 68  1  0  0  0  0
 40 73  1  0  0  0  0
 40 83  2  0  0  0  0
 41 69  1  0  0  0  0
 41 78  1  0  0  0  0
 41 84  2  0  0  0  0
 42 74  1  0  0  0  0
 42 79  1  0  0  0  0
 42 85  2  0  0  0  0
 43 46  1  0  0  0  0
 44 53  1  0  0  0  0
 45 73  1  0  0  0  0
 46 48  1  0  0  0  0
 47 49  1  0  0  0  0
 47 50  1  0  0  0  0
 48 52  1  0  0  0  0
 49 54  1  0  0  0  0
 50 74  1  0  0  0  0
 51 54  1  0  0  0  0
 51 74  1  0  0  0  0
 52 77  1  0  0  0  0
 53 73  1  0  0  0  0
 54 72  1  0  0  0  0
 56 69  1  0  0  0  0
 57 70  1  0  0  0  0
 58 70  1  0  0  0  0
 59 70  1  0  0  0  0
 60 80  1  0  0  0  0
 61 65  1  0  0  0  0
 62 79  1  0  0  0  0
 63 66  1  0  0  0  0
 64 88  1  0  0  0  0
 65 67  1  0  0  0  0
 66 67  1  0  0  0  0
 68 70  1  0  0  0  0
 68 78  1  0  0  0  0
 69 80  1  0  0  0  0
 71 72  1  0  0  0  0
M  CHG  1  80   1
M  ISO  4  42 100  64 101  79 100  88 101
M  END
> <Batch ID>
0032

> <Smiles>
CNC(C)C(=O)NC(C(=O)N1Cc2cc([101O:1][101CH2:1]c3oc(CCCCCc4cc(C)cc(C[100NH:0][100C:0](=O)N5CCCC(n6nc(-c7ccc(Oc8ccc(F)cc8F)cc7)c(C(N)=O)c6N)C5)c4)cc3Cl)ccc2CC1C(=O)NC1CCCc2ccccc21)C(C)(C)C

> <Shape>
0.203

> <Color>
0.066

> <Negative vol penalty>
0.000

$$$$

  -OEChem-04052316453D

 87 95  0     1  0  0  0  0  0999 V2000
  -29.1755  -37.1138   21.0569 C   0  0  0  0  0  0  0  0  0  0  0  0
  -29.4213  -35.7925   20.6975 C   0  0  0  0  0  0  0  0  0  0  0  0
  -24.5240  -13.6214   21.4812 C   0  0  0  0  0  0  0  0  0  0  0  0
  -26.4062  -13.4563   19.9755 C   0  0  0  0  0  0  0  0  0  0  0  0
  -28.2846  -37.3996   22.0907 C   0  0  0  0  0  0  0  0  0  0  0  0
  -28.7773  -34.7562   21.3725 C   0  0  0  0  0  0  0  0  0  0  0  0
  -26.8877  -29.4342   19.0037 C   0  0  0  0  0  0  0  0  0  0  0  0
  -24.5464  -12.2383   21.6609 C   0  0  0  0  0  0  0  0  0  0  0  0
  -26.4286  -12.0732   20.1552 C   0  0  0  0  0  0  0  0  0  0  0  0
  -27.4487  -28.1579   18.9986 C   0  0  0  0  0  0  0  0  0  0  0  0
  -23.8812   -8.7097   22.2353 C   0  0  0  0  0  0  0  0  0  0  0  0
  -22.6647   -8.0287   22.1908 C   0  0  0  0  0  0  0  0  0  0  0  0
  -26.1123  -27.5693   20.9187 C   0  0  0  0  0  0  0  0  0  0  0  0
  -28.5764  -21.9018   19.1423 C   0  0  0  0  0  0  0  0  0  0  0  0
  -30.3838  -24.0196   19.3183 C   0  0  0  0  0  0  0  0  0  0  0  0
  -22.3113   -8.8074   19.9312 C   0  0  0  0  0  0  0  0  0  0  0  0
  -25.4539  -14.2304   20.6384 C   0  0  0  0  0  0  0  0  0  0  0  0
  -26.1205  -16.6260   21.2076 C   0  0  0  0  0  0  0  0  0  0  0  0
  -27.6221  -36.3666   22.7723 C   0  0  0  0  0  0  0  0  0  0  0  0
  -25.9412  -29.7917   19.9746 C   0  0  0  0  0  0  0  0  0  0  0  0
  -27.8778  -35.0284   22.4173 C   0  0  0  0  0  0  0  0  0  0  0  0
  -25.5389  -28.8500   20.9324 C   0  0  0  0  0  0  0  0  0  0  0  0
  -28.1280  -23.2149   19.0004 C   0  0  0  0  0  0  0  0  0  0  0  0
  -29.0317  -24.2738   19.0883 C   0  0  0  0  0  0  0  0  0  0  0  0
  -29.9285  -21.6475   19.3724 C   0  0  0  0  0  0  0  0  0  0  0  0
  -25.4987  -11.4643   20.9979 C   0  0  0  0  0  0  0  0  0  0  0  0
  -27.0632  -27.2261   19.9579 C   0  0  0  0  0  0  0  0  0  0  0  0
  -24.3127   -9.4397   21.1277 C   0  0  0  0  0  0  0  0  0  0  0  0
  -21.8798   -8.0775   21.0388 C   0  0  0  0  0  0  0  0  0  0  0  0
  -30.8322  -22.7064   19.4603 C   0  0  0  0  0  0  0  0  0  0  0  0
  -23.5278   -9.4885   19.9757 C   0  0  0  0  0  0  0  0  0  0  0  0
  -25.4309  -15.6589   20.4520 C   0  0  0  0  0  0  0  0  0  0  0  0
  -25.7687  -17.8240   20.6351 C   0  0  0  0  0  0  0  0  0  0  0  0
  -27.0005  -16.4567   22.3268 C   0  0  0  0  0  0  0  0  0  0  0  0
  -25.8142  -31.9660   22.2898 C   0  0  0  0  0  0  0  0  0  0  0  0
  -22.7676  -30.8951   22.5954 C   0  0  0  0  0  0  0  0  0  0  0  0
  -20.5232  -28.3686   22.1195 C   0  0  0  0  0  0  0  0  0  0  0  0
  -24.8849  -20.9887   16.1242 C   0  0  0  0  0  0  0  0  0  0  0  0
  -26.7038  -36.7228   23.9144 C   0  0  0  0  0  0  0  0  0  0  0  0
  -25.3257  -31.1639   19.9502 C   0  0  0  0  0  0  0  0  0  0  0  0
  -24.5115  -29.1775   21.9839 C   0  0  0  0  0  0  0  0  0  0  0  0
  -25.7780  -35.5824   24.3300 C   0  0  0  0  0  0  0  0  0  0  0  0
  -22.2027  -18.9189   17.2188 C   0  0  0  0  0  0  0  0  0  0  0  0
  -26.5595  -34.2782   24.4532 C   0  0  0  0  0  0  0  0  0  0  0  0
  -22.8615  -17.9626   18.2146 C   0  0  0  0  0  0  0  0  0  0  0  0
  -23.1297  -19.2423   16.0491 C   0  0  0  0  0  0  0  0  0  0  0  0
  -25.1197  -18.7900   17.4308 C   0  0  0  0  0  0  0  0  0  0  0  0
  -27.1798  -33.8777   23.1092 C   0  0  1  0  0  0  0  0  0  0  0  0
  -24.7508  -31.5850   21.2991 C   0  0  1  0  0  0  0  0  0  0  0  0
  -24.2441  -18.4784   18.6566 C   0  0  2  0  0  0  0  0  0  0  0  0
  -31.6771  -16.3655   20.9918 C   0  0  0  0  0  0  0  0  0  0  0  0
  -18.1161  -27.7733   22.5055 C   0  0  0  0  0  0  0  0  0  0  0  0
  -23.3573  -30.4391   25.5541 C   0  0  0  0  0  0  0  0  0  0  0  0
  -21.3124  -28.9991   25.6682 C   0  0  0  0  0  0  0  0  0  0  0  0
  -21.1040  -31.4137   25.0777 C   0  0  0  0  0  0  0  0  0  0  0  0
  -20.0203  -28.0361   19.2220 C   0  0  0  0  0  0  0  0  0  0  0  0
  -26.6758  -23.4629   18.7556 C   0  0  0  0  0  0  0  0  0  0  0  0
  -28.5724  -25.6947   18.9415 C   0  0  0  0  0  0  0  0  0  1  0  0
  -30.9900  -17.7178   20.8828 C   0  0  0  0  0  0  0  0  0  0  0  0
  -26.3190  -23.7526   17.2851 C   0  0  0  0  0  0  0  0  0  0  0  0
  -30.2558  -17.8655   19.5482 C   0  0  0  0  0  0  0  0  0  0  0  0
  -26.7213  -22.6476   16.3107 C   0  0  0  0  0  0  0  0  0  0  0  0
  -29.5067  -19.1891   19.4349 C   0  0  0  0  0  0  0  0  0  0  0  0
  -22.0919  -29.8068   23.3942 C   0  0  1  0  0  0  0  0  0  0  0  0
  -19.1241  -28.3618   21.5306 C   0  0  2  0  0  0  0  0  0  0  0  0
  -21.9872  -30.1588   24.9051 C   0  0  0  0  0  0  0  0  0  0  0  0
  -24.6965  -16.1960   19.4742 N   0  0  0  0  0  0  0  0  0  0  0  0
  -24.9225  -17.5136   19.6115 N   0  0  0  0  0  0  0  0  0  0  0  0
  -23.9434  -30.5343   21.9222 N   0  0  0  0  0  0  0  0  0  0  0  0
  -24.4231  -19.7278   16.5363 N   0  0  0  0  0  0  0  0  0  0  0  0
  -26.1037  -19.1019   20.9126 N   0  0  0  0  0  0  0  0  0  0  0  0
  -27.2537  -15.1573   22.7871 N   0  0  0  0  0  0  0  0  0  0  0  0
  -30.3800  -20.3188   19.5150 N   0  0  0  0  0  0  0  0  0  0  0  0
  -26.1763  -33.2987   22.2419 N   0  0  0  0  0  0  0  0  0  0  0  0
  -20.8074  -29.5630   22.7471 N   0  0  0  0  0  0  0  0  0  0  0  0
  -26.1169  -21.3753   16.6374 N   0  0  0  0  0  0  0  0  0  0  0  0
  -19.0932  -27.5546   20.2782 N   0  3  0  0  0  0  0  0  0  0  0  0
  -27.5331  -17.4300   22.9121 O   0  0  0  0  0  0  0  0  0  0  0  0
  -26.2713  -31.1142   23.0430 O   0  0  0  0  0  0  0  0  0  0  0  0
  -22.2665  -32.0219   22.5638 O   0  0  0  0  0  0  0  0  0  0  0  0
  -21.2863  -27.4089   22.0348 O   0  0  0  0  0  0  0  0  0  0  0  0
  -24.2441  -21.7183   15.3600 O   0  0  0  0  0  0  0  0  0  0  0  0
  -25.5210  -10.1147   21.1732 O   0  0  0  0  0  0  0  0  0  0  0  0
  -27.6098  -25.9799   19.9556 O   0  0  0  0  0  0  0  0  0  1  0  0
  -20.7124   -7.4221   20.9957 F   0  0  0  0  0  0  0  0  0  0  0  0
  -32.1338  -22.4734   19.6807 F   0  0  0  0  0  0  0  0  0  0  0  0
  -23.9376  -10.1871   18.9081 F   0  0  0  0  0  0  0  0  0  0  0  0
  1  2  1  0  0  0  0
  1  5  2  0  0  0  0
  2  6  2  0  0  0  0
  3  8  2  0  0  0  0
  3 17  1  0  0  0  0
  4  9  1  0  0  0  0
  4 17  2  0  0  0  0
  5 19  1  0  0  0  0
  6 21  1  0  0  0  0
  7 10  2  0  0  0  0
  7 20  1  0  0  0  0
  8 26  1  0  0  0  0
  9 26  2  0  0  0  0
 10 27  1  0  0  0  0
 11 12  2  0  0  0  0
 11 28  1  0  0  0  0
 12 29  1  0  0  0  0
 13 22  1  0  0  0  0
 13 27  2  0  0  0  0
 14 23  2  0  0  0  0
 14 25  1  0  0  0  0
 15 24  2  0  0  0  0
 15 30  1  0  0  0  0
 16 29  2  0  0  0  0
 16 31  1  0  0  0  0
 17 32  1  0  0  0  0
 18 32  1  0  0  0  0
 18 33  2  0  0  0  0
 18 34  1  0  0  0  0
 19 21  2  0  0  0  0
 19 39  1  0  0  0  0
 20 22  2  0  0  0  0
 20 40  1  0  0  0  0
 21 48  1  0  0  0  0
 22 41  1  0  0  0  0
 23 24  1  0  0  0  0
 23 57  1  0  0  0  0
 24 58  1  0  0  0  0
 25 30  2  0  0  0  0
 25 73  1  0  0  0  0
 26 83  1  0  0  0  0
 27 84  1  0  0  0  0
 28 31  2  0  0  0  0
 28 83  1  0  0  0  0
 29 85  1  0  0  0  0
 30 86  1  0  0  0  0
 31 87  1  0  0  0  0
 32 67  2  0  0  0  0
 33 68  1  0  0  0  0
 33 71  1  0  0  0  0
 34 72  1  0  0  0  0
 34 78  2  0  0  0  0
 35 49  1  0  0  0  0
 35 74  1  0  0  0  0
 35 79  2  0  0  0  0
 36 64  1  0  0  0  0
 36 69  1  0  0  0  0
 36 80  2  0  0  0  0
 37 65  1  0  0  0  0
 37 75  1  0  0  0  0
 37 81  2  0  0  0  0
 38 70  1  0  0  0  0
 38 76  1  0  0  0  0
 38 82  2  0  0  0  0
 39 42  1  0  0  0  0
 40 49  1  0  0  0  0
 41 69  1  0  0  0  0
 42 44  1  0  0  0  0
 43 45  1  0  0  0  0
 43 46  1  0  0  0  0
 44 48  1  0  0  0  0
 45 50  1  0  0  0  0
 46 70  1  0  0  0  0
 47 50  1  0  0  0  0
 47 70  1  0  0  0  0
 48 74  1  0  0  0  0
 49 69  1  0  0  0  0
 50 68  1  0  0  0  0
 51 59  1  0  0  0  0
 52 65  1  0  0  0  0
 53 66  1  0  0  0  0
 54 66  1  0  0  0  0
 55 66  1  0  0  0  0
 56 77  1  0  0  0  0
 57 60  1  0  0  0  0
 58 84  1  0  0  0  0
 59 61  1  0  0  0  0
 60 62  1  0  0  0  0
 61 63  1  0  0  0  0
 62 76  1  0  0  0  0
 63 73  1  0  0  0  0
 64 66  1  0  0  0  0
 64 75  1  0  0  0  0
 65 77  1  0  0  0  0
 67 68  1  0  0  0  0
M  CHG  1  77   1
M  ISO  4  38 100  58 101  76 100  84 101
M  END
> <Batch ID>
0032

> <Smiles>
CCCCNc1cc(CCC[100NH:0][100C:0](=O)N2CCCC(n3nc(-c4ccc(Oc5ccc(F)cc5F)cc4)c(C(N)=O)c3N)C2)c([101CH2:1][101O:1]c2ccc3c(c2)CN(C(=O)C(NC(=O)C(C)NC)C(C)(C)C)C(C(=O)NC2CCCc4ccccc42)C3)cc1F

> <Shape>
0.287

> <Color>
0.086

> <Negative vol penalty>
0.000

$$$$

  -OEChem-04052316453D

 85 93  0     1  0  0  0  0  0999 V2000
  -17.1638  -23.7890   25.2286 C   0  0  0  0  0  0  0  0  0  0  0  0
  -17.9987  -22.9747   24.4701 C   0  0  0  0  0  0  0  0  0  0  0  0
  -26.8435  -12.4620   21.8400 C   0  0  0  0  0  0  0  0  0  0  0  0
  -26.2515  -14.1342   20.1998 C   0  0  0  0  0  0  0  0  0  0  0  0
  -17.1383  -25.1642   25.0007 C   0  0  0  0  0  0  0  0  0  0  0  0
  -18.8079  -23.5352   23.4825 C   0  0  0  0  0  0  0  0  0  0  0  0
  -24.4171  -21.7047   21.8415 C   0  0  0  0  0  0  0  0  0  0  0  0
  -25.5191  -12.0257   21.8734 C   0  0  0  0  0  0  0  0  0  0  0  0
  -24.9270  -13.6979   20.2331 C   0  0  0  0  0  0  0  0  0  0  0  0
  -24.8742  -20.9070   20.7935 C   0  0  0  0  0  0  0  0  0  0  0  0
  -23.4830  -10.0983   19.9833 C   0  0  0  0  0  0  0  0  0  0  0  0
  -23.2525   -8.7231   19.9487 C   0  0  0  0  0  0  0  0  0  0  0  0
  -25.3390  -22.8874   19.4969 C   0  0  0  0  0  0  0  0  0  0  0  0
  -28.3739  -21.1176   16.8220 C   0  0  0  0  0  0  0  0  0  0  0  0
  -29.6565  -19.9118   18.4766 C   0  0  0  0  0  0  0  0  0  0  0  0
  -22.1344   -8.8567   22.0863 C   0  0  0  0  0  0  0  0  0  0  0  0
  -27.2097  -13.5163   21.0032 C   0  0  0  0  0  0  0  0  0  0  0  0
  -29.6048  -13.5042   20.1251 C   0  0  0  0  0  0  0  0  0  0  0  0
  -17.9547  -25.7431   24.0163 C   0  0  0  0  0  0  0  0  0  0  0  0
  -24.4072  -23.1017   21.7208 C   0  0  0  0  0  0  0  0  0  0  0  0
  -18.7924  -24.9194   23.2403 C   0  0  0  0  0  0  0  0  0  0  0  0
  -24.8836  -23.7006   20.5458 C   0  0  0  0  0  0  0  0  0  0  0  0
  -28.4953  -20.0548   17.7172 C   0  0  0  0  0  0  0  0  0  0  0  0
  -29.4139  -22.0372   16.6861 C   0  0  0  0  0  0  0  0  0  0  0  0
  -30.6965  -20.8315   18.3408 C   0  0  0  0  0  0  0  0  0  0  0  0
  -30.5751  -21.8942   17.4455 C   0  0  0  0  0  0  0  0  0  0  0  0
  -24.5608  -12.6437   21.0699 C   0  0  0  0  0  0  0  0  0  0  0  0
  -25.3326  -21.4982   19.6198 C   0  0  0  0  0  0  0  0  0  0  0  0
  -23.0394  -10.8527   21.0695 C   0  0  0  0  0  0  0  0  0  0  0  0
  -22.5781   -8.1023   21.0001 C   0  0  0  0  0  0  0  0  0  0  0  0
  -22.3651  -10.2319   22.1209 C   0  0  0  0  0  0  0  0  0  0  0  0
  -28.5776  -13.9677   20.9687 C   0  0  0  0  0  0  0  0  0  0  0  0
  -30.7041  -14.2458   20.4831 C   0  0  0  0  0  0  0  0  0  0  0  0
  -29.5685  -12.4937   19.1086 C   0  0  0  0  0  0  0  0  0  0  0  0
  -22.1513  -25.3407   21.7596 C   0  0  0  0  0  0  0  0  0  0  0  0
  -24.6939  -27.3529   21.6655 C   0  0  0  0  0  0  0  0  0  0  0  0
  -27.9680  -27.8477   20.8395 C   0  0  0  0  0  0  0  0  0  0  0  0
  -31.3388  -19.6320   23.0200 C   0  0  0  0  0  0  0  0  0  0  0  0
  -17.8578  -27.2286   23.7742 C   0  0  0  0  0  0  0  0  0  0  0  0
  -23.9359  -23.9490   22.8707 C   0  0  0  0  0  0  0  0  0  0  0  0
  -24.9128  -25.1967   20.3739 C   0  0  0  0  0  0  0  0  0  0  0  0
  -19.0224  -27.7908   22.9632 C   0  0  0  0  0  0  0  0  0  0  0  0
  -32.6206  -16.5353   24.2215 C   0  0  0  0  0  0  0  0  0  0  0  0
  -19.3020  -26.9102   21.7495 C   0  0  0  0  0  0  0  0  0  0  0  0
  -31.8224  -15.4842   23.4480 C   0  0  0  0  0  0  0  0  0  0  0  0
  -31.7632  -17.7492   24.5728 C   0  0  0  0  0  0  0  0  0  0  0  0
  -30.2766  -17.3224   22.6540 C   0  0  0  0  0  0  0  0  0  0  0  0
  -19.7032  -25.4931   22.1766 C   0  0  1  0  0  0  0  0  0  0  0  0
  -23.4900  -25.3436   22.4419 C   0  0  1  0  0  0  0  0  0  0  0  0
  -31.1136  -16.1039   22.2286 C   0  0  2  0  0  0  0  0  0  0  0  0
  -31.6897  -22.8807   17.2999 C   0  0  0  0  0  0  0  0  0  0  0  0
  -28.9339  -24.4837   16.4200 C   0  0  0  0  0  0  0  0  0  0  0  0
  -29.7570  -29.6075   20.8458 C   0  0  0  0  0  0  0  0  0  0  0  0
  -23.3996  -28.6740   19.2387 C   0  0  0  0  0  0  0  0  0  0  0  0
  -25.6063  -29.7417   18.7302 C   0  0  0  0  0  0  0  0  0  0  0  0
  -24.4315  -30.2670   20.8672 C   0  0  0  0  0  0  0  0  0  0  0  0
  -29.6874  -26.2582   22.6495 C   0  0  0  0  0  0  0  0  0  0  0  0
  -27.3703  -19.0592   17.8637 C   0  0  0  0  0  0  0  0  0  0  0  0
  -29.2584  -23.1670   15.7212 C   0  0  0  0  0  0  0  0  0  0  0  0
  -31.9296  -20.6560   19.1657 C   0  0  0  0  0  0  0  0  0  0  0  0
  -32.0017  -21.5704   20.4033 C   0  0  0  0  0  0  0  0  0  0  0  0
  -30.8297  -21.4146   21.3700 C   0  0  0  0  0  0  0  0  0  0  0  0
  -26.3696  -19.4692   18.9387 C   0  0  0  0  0  0  0  0  0  1  0  0
  -25.5066  -27.9982   20.5691 C   0  0  1  0  0  0  0  0  0  0  0  0
  -29.1210  -28.4597   21.6144 C   0  0  2  0  0  0  0  0  0  0  0  0
  -24.7338  -29.1420   19.8535 C   0  0  0  0  0  0  0  0  0  0  0  0
  -28.9878  -14.9292   21.8002 N   0  0  0  0  0  0  0  0  0  0  0  0
  -30.2849  -15.0758   21.4808 N   0  0  0  0  0  0  0  0  0  0  0  0
  -24.4357  -25.9820   21.5241 N   0  0  0  0  0  0  0  0  0  0  0  0
  -31.1204  -18.2900   23.3727 N   0  0  0  0  0  0  0  0  0  0  0  0
  -31.9787  -14.2622   20.0386 N   0  0  0  0  0  0  0  0  0  0  0  0
  -28.3577  -11.8295   18.8697 N   0  0  0  0  0  0  0  0  0  0  0  0
  -21.0798  -25.4703   22.6224 N   0  0  0  0  0  0  0  0  0  0  0  0
  -26.7610  -28.4184   21.1841 N   0  0  0  0  0  0  0  0  0  0  0  0
  -30.6973  -20.0625   21.8651 N   0  0  0  0  0  0  0  0  0  0  0  0
  -30.1691  -27.4340   21.8798 N   0  3  0  0  0  0  0  0  0  0  0  0
  -30.5839  -12.1772   18.4435 O   0  0  0  0  0  0  0  0  0  0  0  0
  -22.0949  -25.2307   20.5404 O   0  0  0  0  0  0  0  0  0  0  0  0
  -24.3087  -28.0382   22.6160 O   0  0  0  0  0  0  0  0  0  0  0  0
  -28.1231  -26.9555   20.0086 O   0  0  0  0  0  0  0  0  0  0  0  0
  -32.0568  -20.3889   23.6822 O   0  0  0  0  0  0  0  0  0  0  0  0
  -23.2684  -12.2181   21.1020 O   0  0  0  0  0  0  0  0  0  0  0  0
  -25.7788  -20.7219   18.5950 O   0  0  0  0  0  0  0  0  0  1  0  0
  -22.3554   -6.7819   20.9660 F   0  0  0  0  0  0  0  0  0  0  0  0
  -21.9354  -10.9517   23.1665 F   0  0  0  0  0  0  0  0  0  0  0  0
  1  2  1  0  0  0  0
  1  5  2  0  0  0  0
  2  6  2  0  0  0  0
  3  8  2  0  0  0  0
  3 17  1  0  0  0  0
  4  9  1  0  0  0  0
  4 17  2  0  0  0  0
  5 19  1  0  0  0  0
  6 21  1  0  0  0  0
  7 10  2  0  0  0  0
  7 20  1  0  0  0  0
  8 27  1  0  0  0  0
  9 27  2  0  0  0  0
 10 28  1  0  0  0  0
 11 12  2  0  0  0  0
 11 29  1  0  0  0  0
 12 30  1  0  0  0  0
 13 22  1  0  0  0  0
 13 28  2  0  0  0  0
 14 23  2  0  0  0  0
 14 24  1  0  0  0  0
 15 23  1  0  0  0  0
 15 25  2  0  0  0  0
 16 30  2  0  0  0  0
 16 31  1  0  0  0  0
 17 32  1  0  0  0  0
 18 32  1  0  0  0  0
 18 33  2  0  0  0  0
 18 34  1  0  0  0  0
 19 21  2  0  0  0  0
 19 39  1  0  0  0  0
 20 22  2  0  0  0  0
 20 40  1  0  0  0  0
 21 48  1  0  0  0  0
 22 41  1  0  0  0  0
 23 58  1  0  0  0  0
 24 26  2  0  0  0  0
 24 59  1  0  0  0  0
 25 26  1  0  0  0  0
 25 60  1  0  0  0  0
 26 51  1  0  0  0  0
 27 82  1  0  0  0  0
 28 83  1  0  0  0  0
 29 31  2  0  0  0  0
 29 82  1  0  0  0  0
 30 84  1  0  0  0  0
 31 85  1  0  0  0  0
 32 67  2  0  0  0  0
 33 68  1  0  0  0  0
 33 71  1  0  0  0  0
 34 72  1  0  0  0  0
 34 77  2  0  0  0  0
 35 49  1  0  0  0  0
 35 73  1  0  0  0  0
 35 78  2  0  0  0  0
 36 64  1  0  0  0  0
 36 69  1  0  0  0  0
 36 79  2  0  0  0  0
 37 65  1  0  0  0  0
 37 74  1  0  0  0  0
 37 80  2  0  0  0  0
 38 70  1  0  0  0  0
 38 75  1  0  0  0  0
 38 81  2  0  0  0  0
 39 42  1  0  0  0  0
 40 49  1  0  0  0  0
 41 69  1  0  0  0  0
 42 44  1  0  0  0  0
 43 45  1  0  0  0  0
 43 46  1  0  0  0  0
 44 48  1  0  0  0  0
 45 50  1  0  0  0  0
 46 70  1  0  0  0  0
 47 50  1  0  0  0  0
 47 70  1  0  0  0  0
 48 73  1  0  0  0  0
 49 69  1  0  0  0  0
 50 68  1  0  0  0  0
 52 59  1  0  0  0  0
 53 65  1  0  0  0  0
 54 66  1  0  0  0  0
 55 66  1  0  0  0  0
 56 66  1  0  0  0  0
 57 76  1  0  0  0  0
 58 63  1  0  0  0  0
 60 61  1  0  0  0  0
 61 62  1  0  0  0  0
 62 75  1  0  0  0  0
 63 83  1  0  0  0  0
 64 66  1  0  0  0  0
 64 74  1  0  0  0  0
 65 76  1  0  0  0  0
 67 68  1  0  0  0  0
M  CHG  1  76   1
M  ISO  4  38 100  63 101  75 100  83 101
M  END
> <Batch ID>
0032

> <Smiles>
CCc1cc(C[101CH2:1][101O:1]c2ccc3c(c2)CN(C(=O)C(NC(=O)C(C)NC)C(C)(C)C)C(C(=O)NC2CCCc4ccccc42)C3)cc(CCC[100NH:0][100C:0](=O)N2CCCC(n3nc(-c4ccc(Oc5ccc(F)cc5F)cc4)c(C(N)=O)c3N)C2)c1C

> <Shape>
0.241

> <Color>
0.063

> <Negative vol penalty>
0.000

$$$$

  -OEChem-04052316453D

 81 89  0     1  0  0  0  0  0999 V2000
  -19.8635  -28.7757   25.9160 C   0  0  0  0  0  0  0  0  0  0  0  0
  -21.1815  -28.3363   25.8434 C   0  0  0  0  0  0  0  0  0  0  0  0
  -24.5432  -14.2569   21.3277 C   0  0  0  0  0  0  0  0  0  0  0  0
  -26.9365  -13.9276   21.2991 C   0  0  0  0  0  0  0  0  0  0  0  0
  -19.0404  -28.6958   24.7935 C   0  0  0  0  0  0  0  0  0  0  0  0
  -21.6769  -27.8157   24.6484 C   0  0  0  0  0  0  0  0  0  0  0  0
  -27.3726  -28.3770   22.4690 C   0  0  0  0  0  0  0  0  0  0  0  0
  -24.3609  -12.9780   20.8016 C   0  0  0  0  0  0  0  0  0  0  0  0
  -26.7542  -12.6486   20.7731 C   0  0  0  0  0  0  0  0  0  0  0  0
  -28.4754  -27.5246   22.4960 C   0  0  0  0  0  0  0  0  0  0  0  0
  -24.3883   -9.7919   21.9334 C   0  0  0  0  0  0  0  0  0  0  0  0
  -23.4044   -8.9882   22.5094 C   0  0  0  0  0  0  0  0  0  0  0  0
  -27.9054  -26.7273   20.2917 C   0  0  0  0  0  0  0  0  0  0  0  0
  -31.6588  -23.4530   20.5314 C   0  0  0  0  0  0  0  0  0  0  0  0
  -22.2661   -8.8573   20.3824 C   0  0  0  0  0  0  0  0  0  0  0  0
  -32.6353  -23.4315   22.7000 C   0  0  0  0  0  0  0  0  0  0  0  0
  -25.8310  -14.7317   21.5764 C   0  0  0  0  0  0  0  0  0  0  0  0
  -26.0858  -16.4120   23.4789 C   0  0  0  0  0  0  0  0  0  0  0  0
  -19.5288  -28.1828   23.5815 C   0  0  0  0  0  0  0  0  0  0  0  0
  -26.5202  -28.4032   21.3559 C   0  0  0  0  0  0  0  0  0  0  0  0
  -20.8591  -27.7276   23.5090 C   0  0  0  0  0  0  0  0  0  0  0  0
  -26.7938  -27.5829   20.2521 C   0  0  0  0  0  0  0  0  0  0  0  0
  -32.1694  -24.1577   21.6158 C   0  0  0  0  0  0  0  0  0  0  0  0
  -31.6300  -22.0632   20.5639 C   0  0  0  0  0  0  0  0  0  0  0  0
  -25.4664  -12.1738   20.5244 C   0  0  0  0  0  0  0  0  0  0  0  0
  -28.7403  -26.6974   21.4084 C   0  0  0  0  0  0  0  0  0  0  0  0
  -24.3109  -10.1284   20.5819 C   0  0  0  0  0  0  0  0  0  0  0  0
  -22.3434   -8.5209   21.7339 C   0  0  0  0  0  0  0  0  0  0  0  0
  -23.2499   -9.6610   19.8064 C   0  0  0  0  0  0  0  0  0  0  0  0
  -26.0200  -16.0530   22.1192 C   0  0  0  0  0  0  0  0  0  0  0  0
  -32.1201  -21.4308   21.6951 C   0  0  0  0  0  0  0  0  0  0  0  0
  -26.2738  -17.7725   23.4660 C   0  0  0  0  0  0  0  0  0  0  0  0
  -25.9861  -15.5892   24.6488 C   0  0  0  0  0  0  0  0  0  0  0  0
  -23.4450  -27.7621   20.8699 C   0  0  0  0  0  0  0  0  0  0  0  0
  -24.0803  -28.8937   17.8970 C   0  0  0  0  0  0  0  0  0  0  0  0
  -26.3914  -29.4983   15.4597 C   0  0  0  0  0  0  0  0  0  0  0  0
  -28.6101  -21.5280   19.4301 C   0  0  0  0  0  0  0  0  0  0  0  0
  -18.5876  -28.0725   22.4082 C   0  0  0  0  0  0  0  0  0  0  0  0
  -25.3499  -29.3478   21.3314 C   0  0  0  0  0  0  0  0  0  0  0  0
  -25.9211  -27.5879   19.0246 C   0  0  0  0  0  0  0  0  0  0  0  0
  -19.2988  -27.8550   21.0751 C   0  0  0  0  0  0  0  0  0  0  0  0
  -25.3403  -21.6567   20.8331 C   0  0  0  0  0  0  0  0  0  0  0  0
  -20.3649  -26.7723   21.2093 C   0  0  0  0  0  0  0  0  0  0  0  0
  -25.1497  -20.2675   21.4445 C   0  0  0  0  0  0  0  0  0  0  0  0
  -26.1359  -21.5959   19.5310 C   0  0  0  0  0  0  0  0  0  0  0  0
  -27.2421  -19.5112   20.2410 C   0  0  0  0  0  0  0  0  0  0  0  0
  -21.4403  -27.1796   22.2237 C   0  0  1  0  0  0  0  0  0  0  0  0
  -24.2561  -28.9189   20.3583 C   0  0  1  0  0  0  0  0  0  0  0  0
  -26.4935  -19.5274   21.5847 C   0  0  2  0  0  0  0  0  0  0  0  0
  -26.6042  -30.3951   13.1257 C   0  0  0  0  0  0  0  0  0  0  0  0
  -22.9146  -26.2978   16.7958 C   0  0  0  0  0  0  0  0  0  0  0  0
  -23.9998  -26.8229   14.6015 C   0  0  0  0  0  0  0  0  0  0  0  0
  -22.2627  -28.3537   15.5299 C   0  0  0  0  0  0  0  0  0  0  0  0
  -28.1949  -31.6749   16.3363 C   0  0  0  0  0  0  0  0  0  0  0  0
  -32.2160  -25.6664   21.6111 C   0  0  0  0  0  0  0  0  0  0  0  0
  -31.0823  -21.3123   19.3989 C   0  0  0  0  0  0  0  0  0  0  0  0
  -30.9490  -26.2874   22.1892 C   0  0  0  0  0  0  0  0  0  1  0  0
  -24.5526  -28.2839   16.5993 C   0  0  1  0  0  0  0  0  0  0  0  0
  -26.6603  -30.7263   14.6089 C   0  0  2  0  0  0  0  0  0  0  0  0
  -23.4480  -27.4378   15.9054 C   0  0  0  0  0  0  0  0  0  0  0  0
  -32.6237  -22.0814   22.7678 N   0  0  0  0  0  0  0  0  0  0  0  0
  -26.1550  -17.1009   21.3021 N   0  0  0  0  0  0  0  0  0  0  0  0
  -26.3074  -18.1317   22.1507 N   0  0  0  0  0  0  0  0  0  0  0  0
  -24.7853  -28.5243   19.0512 N   0  0  0  0  0  0  0  0  0  0  0  0
  -27.3996  -20.8829   19.7327 N   0  0  0  0  0  0  0  0  0  0  0  0
  -26.4117  -18.6846   24.4516 N   0  0  0  0  0  0  0  0  0  0  0  0
  -25.7937  -14.2110   24.4820 N   0  0  0  0  0  0  0  0  0  0  0  0
  -22.3555  -28.1334   21.6345 N   0  0  0  0  0  0  0  0  0  0  0  0
  -25.0571  -29.3875   15.7894 N   0  0  0  0  0  0  0  0  0  0  0  0
  -29.7614  -20.7835   19.6562 N   0  0  0  0  0  0  0  0  0  0  0  0
  -28.0079  -31.2839   14.9153 N   0  3  0  0  0  0  0  0  0  0  0  0
  -26.0488  -16.0645   25.8080 O   0  0  0  0  0  0  0  0  0  0  0  0
  -23.7819  -26.6175   20.5904 O   0  0  0  0  0  0  0  0  0  0  0  0
  -23.1256  -29.6748   17.8859 O   0  0  0  0  0  0  0  0  0  0  0  0
  -27.2758  -28.7135   15.7950 O   0  0  0  0  0  0  0  0  0  0  0  0
  -28.6614  -22.6838   18.9959 O   0  0  0  0  0  0  0  0  0  0  0  0
  -25.2889  -10.9257   20.0113 O   0  0  0  0  0  0  0  0  0  0  0  0
  -29.8158  -25.8639   21.4324 O   0  0  0  0  0  0  0  0  0  1  0  0
  -21.3995   -7.7478   22.2868 F   0  0  0  0  0  0  0  0  0  0  0  0
  -23.1709   -9.9800   18.5072 F   0  0  0  0  0  0  0  0  0  0  0  0
  -32.1396  -19.7180   21.8537 Cl  0  0  0  0  0  0  0  0  0  0  0  0
  1  2  1  0  0  0  0
  1  5  2  0  0  0  0
  2  6  2  0  0  0  0
  3  8  2  0  0  0  0
  3 17  1  0  0  0  0
  4  9  1  0  0  0  0
  4 17  2  0  0  0  0
  5 19  1  0  0  0  0
  6 21  1  0  0  0  0
  7 10  2  0  0  0  0
  7 20  1  0  0  0  0
  8 25  1  0  0  0  0
  9 25  2  0  0  0  0
 10 26  1  0  0  0  0
 11 12  2  0  0  0  0
 11 27  1  0  0  0  0
 12 28  1  0  0  0  0
 13 22  1  0  0  0  0
 13 26  2  0  0  0  0
 14 23  2  0  0  0  0
 14 24  1  0  0  0  0
 15 28  2  0  0  0  0
 15 29  1  0  0  0  0
 16 23  1  0  0  0  0
 16 61  2  0  0  0  0
 17 30  1  0  0  0  0
 18 30  1  0  0  0  0
 18 32  2  0  0  0  0
 18 33  1  0  0  0  0
 19 21  2  0  0  0  0
 19 38  1  0  0  0  0
 20 22  2  0  0  0  0
 20 39  1  0  0  0  0
 21 47  1  0  0  0  0
 22 40  1  0  0  0  0
 23 55  1  0  0  0  0
 24 31  2  0  0  0  0
 24 56  1  0  0  0  0
 25 77  1  0  0  0  0
 26 78  1  0  0  0  0
 27 29  2  0  0  0  0
 27 77  1  0  0  0  0
 28 79  1  0  0  0  0
 29 80  1  0  0  0  0
 30 62  2  0  0  0  0
 31 61  1  0  0  0  0
 31 81  1  0  0  0  0
 32 63  1  0  0  0  0
 32 66  1  0  0  0  0
 33 67  1  0  0  0  0
 33 72  2  0  0  0  0
 34 48  1  0  0  0  0
 34 68  1  0  0  0  0
 34 73  2  0  0  0  0
 35 58  1  0  0  0  0
 35 64  1  0  0  0  0
 35 74  2  0  0  0  0
 36 59  1  0  0  0  0
 36 69  1  0  0  0  0
 36 75  2  0  0  0  0
 37 65  1  0  0  0  0
 37 70  1  0  0  0  0
 37 76  2  0  0  0  0
 38 41  1  0  0  0  0
 39 48  1  0  0  0  0
 40 64  1  0  0  0  0
 41 43  1  0  0  0  0
 42 44  1  0  0  0  0
 42 45  1  0  0  0  0
 43 47  1  0  0  0  0
 44 49  1  0  0  0  0
 45 65  1  0  0  0  0
 46 49  1  0  0  0  0
 46 65  1  0  0  0  0
 47 68  1  0  0  0  0
 48 64  1  0  0  0  0
 49 63  1  0  0  0  0
 50 59  1  0  0  0  0
 51 60  1  0  0  0  0
 52 60  1  0  0  0  0
 53 60  1  0  0  0  0
 54 71  1  0  0  0  0
 55 57  1  0  0  0  0
 56 70  1  0  0  0  0
 57 78  1  0  0  0  0
 58 60  1  0  0  0  0
 58 69  1  0  0  0  0
 59 71  1  0  0  0  0
 62 63  1  0  0  0  0
M  CHG  1  71   1
M  ISO  4  37 100  57 101  70 100  78 101
M  END
> <Batch ID>
0032

> <Smiles>
CNC(C)C(=O)NC(C(=O)N1Cc2cc([101O:1][101CH2:1]Cc3cnc(Cl)c(C[100NH:0][100C:0](=O)N4CCCC(n5nc(-c6ccc(Oc7ccc(F)cc7F)cc6)c(C(N)=O)c5N)C4)c3)ccc2CC1C(=O)NC1CCCc2ccccc21)C(C)(C)C

> <Shape>
0.199

> <Color>
0.077

> <Negative vol penalty>
0.000

$$$$

  -OEChem-04052316453D

 87 95  0     1  0  0  0  0  0999 V2000
  -18.6759  -28.5505   23.5767 C   0  0  0  0  0  0  0  0  0  0  0  0
  -19.9313  -28.0583   23.9191 C   0  0  0  0  0  0  0  0  0  0  0  0
  -22.8906  -10.1582   22.1687 C   0  0  0  0  0  0  0  0  0  0  0  0
  -23.1212   -9.8431   19.7844 C   0  0  0  0  0  0  0  0  0  0  0  0
  -18.2690  -28.5521   22.2431 C   0  0  0  0  0  0  0  0  0  0  0  0
  -20.7802  -27.5666   22.9282 C   0  0  0  0  0  0  0  0  0  0  0  0
  -26.8891  -27.9723   22.7796 C   0  0  0  0  0  0  0  0  0  0  0  0
  -29.2232  -21.5736   20.6030 C   0  0  0  0  0  0  0  0  0  0  0  0
  -29.8349  -22.4455   21.5036 C   0  0  0  0  0  0  0  0  0  0  0  0
  -22.5933   -8.8038   22.3190 C   0  0  0  0  0  0  0  0  0  0  0  0
  -22.8239   -8.4886   19.9347 C   0  0  0  0  0  0  0  0  0  0  0  0
  -27.8975  -27.0729   23.1231 C   0  0  0  0  0  0  0  0  0  0  0  0
  -24.2852   -5.8778   22.4153 C   0  0  0  0  0  0  0  0  0  0  0  0
  -24.9144   -5.1870   23.4508 C   0  0  0  0  0  0  0  0  0  0  0  0
  -28.0682  -26.3922   20.8152 C   0  0  0  0  0  0  0  0  0  0  0  0
  -27.7360  -20.8137   22.3488 C   0  0  0  0  0  0  0  0  0  0  0  0
  -22.7600   -4.6636   24.4108 C   0  0  0  0  0  0  0  0  0  0  0  0
  -23.1545  -10.6779   20.9014 C   0  0  0  0  0  0  0  0  0  0  0  0
  -24.7333  -12.6786   20.7888 C   0  0  0  0  0  0  0  0  0  0  0  0
  -19.1172  -28.0690   21.2342 C   0  0  0  0  0  0  0  0  0  0  0  0
  -26.4544  -28.0807   21.4509 C   0  0  0  0  0  0  0  0  0  0  0  0
  -20.3838  -27.5605   21.5800 C   0  0  0  0  0  0  0  0  0  0  0  0
  -27.0559  -27.2955   20.4570 C   0  0  0  0  0  0  0  0  0  0  0  0
  -28.1737  -20.7577   21.0255 C   0  0  0  0  0  0  0  0  0  0  0  0
  -29.3972  -22.5015   22.8268 C   0  0  0  0  0  0  0  0  0  0  0  0
  -22.5599   -7.9689   21.2020 C   0  0  0  0  0  0  0  0  0  0  0  0
  -28.4852  -26.2806   22.1413 C   0  0  0  0  0  0  0  0  0  0  0  0
  -22.8933   -5.9616   22.3775 C   0  0  0  0  0  0  0  0  0  0  0  0
  -24.1519   -4.5799   24.4486 C   0  0  0  0  0  0  0  0  0  0  0  0
  -22.1307   -5.3545   23.3752 C   0  0  0  0  0  0  0  0  0  0  0  0
  -28.3478  -21.6856   23.2494 C   0  0  0  0  0  0  0  0  0  0  0  0
  -23.4612  -12.0771   20.7455 C   0  0  0  0  0  0  0  0  0  0  0  0
  -24.4882  -14.0150   20.5876 C   0  0  0  0  0  0  0  0  0  0  0  0
  -31.5696  -23.6090   23.4573 C   0  0  0  0  0  0  0  0  0  0  0  0
  -26.0212  -12.0825   20.9926 C   0  0  0  0  0  0  0  0  0  0  0  0
  -23.6975  -27.5927   19.9458 C   0  0  0  0  0  0  0  0  0  0  0  0
  -25.3115  -28.8173   17.4124 C   0  0  0  0  0  0  0  0  0  0  0  0
  -28.3145  -29.4219   15.9082 C   0  0  0  0  0  0  0  0  0  0  0  0
  -21.8836  -18.1287   17.8602 C   0  0  0  0  0  0  0  0  0  0  0  0
  -18.6149  -28.0475   19.8123 C   0  0  0  0  0  0  0  0  0  0  0  0
  -25.3841  -29.0749   21.0923 C   0  0  0  0  0  0  0  0  0  0  0  0
  -26.6393  -27.3885   19.0126 C   0  0  0  0  0  0  0  0  0  0  0  0
  -19.7213  -27.8547   18.7783 C   0  0  0  0  0  0  0  0  0  0  0  0
  -20.1385  -16.5968   20.5593 C   0  0  0  0  0  0  0  0  0  0  0  0
  -20.6534  -26.7227   19.1986 C   0  0  0  0  0  0  0  0  0  0  0  0
  -20.9485  -15.3316   20.8474 C   0  0  0  0  0  0  0  0  0  0  0  0
  -20.0945  -16.9108   19.0654 C   0  0  0  0  0  0  0  0  0  0  0  0
  -22.2235  -15.7248   18.6983 C   0  0  0  0  0  0  0  0  0  0  0  0
  -21.3428  -27.0415   20.5307 C   0  0  1  0  0  0  0  0  0  0  0  0
  -24.6630  -28.7336   19.7919 C   0  0  1  0  0  0  0  0  0  0  0  0
  -22.3433  -15.3984   20.1967 C   0  0  2  0  0  0  0  0  0  0  0  0
  -29.3122  -30.4041   13.8255 C   0  0  0  0  0  0  0  0  0  0  0  0
  -24.5069  -26.3213   15.8528 C   0  0  0  0  0  0  0  0  0  0  0  0
  -26.2710  -26.8892   14.1696 C   0  0  0  0  0  0  0  0  0  0  0  0
  -24.3663  -28.4536   14.5536 C   0  0  0  0  0  0  0  0  0  0  0  0
  -29.7839  -31.4814   17.4439 C   0  0  0  0  0  0  0  0  0  0  0  0
  -27.5197  -19.8253   20.0626 C   0  0  0  0  0  0  0  0  0  0  0  0
  -26.3335  -20.4774   19.3362 C   0  0  0  0  0  0  0  0  0  0  0  0
  -25.6459  -19.5001   18.3805 C   0  0  0  0  0  0  0  0  0  0  0  0
  -24.4906  -20.1735   17.6341 C   0  0  0  0  0  0  0  0  0  0  0  0
  -23.7745  -19.2216   16.6816 C   0  0  0  0  0  0  0  0  0  0  0  0
  -29.4258  -24.8442   23.7870 C   0  0  0  0  0  0  0  0  0  1  0  0
  -30.0892  -23.4616   23.7738 C   0  0  1  0  0  0  0  0  0  0  0  0
  -26.1702  -28.2417   16.3123 C   0  0  1  0  0  0  0  0  0  0  0  0
  -28.8829  -30.6713   15.2597 C   0  0  2  0  0  0  0  0  0  0  0  0
  -25.3353  -27.4730   15.2495 C   0  0  0  0  0  0  0  0  0  0  0  0
  -22.4808  -12.9591   20.5336 N   0  0  0  0  0  0  0  0  0  0  0  0
  -23.1369  -14.1284   20.4421 N   0  0  0  0  0  0  0  0  0  0  0  0
  -25.5844  -28.3708   18.7132 N   0  0  0  0  0  0  0  0  0  0  0  0
  -21.4491  -16.9616   18.5100 N   0  0  0  0  0  0  0  0  0  0  0  0
  -25.2990  -15.0924   20.5229 N   0  0  0  0  0  0  0  0  0  0  0  0
  -26.0931  -10.6959   21.1835 N   0  0  0  0  0  0  0  0  0  0  0  0
  -22.4267  -27.9786   20.3273 N   0  0  0  0  0  0  0  0  0  0  0  0
  -26.9439  -29.3550   15.7736 N   0  0  0  0  0  0  0  0  0  0  0  0
  -23.1828  -18.0952   17.3685 N   0  0  0  0  0  0  0  0  0  0  0  0
  -30.0675  -31.1575   16.0221 N   0  3  0  0  0  0  0  0  0  0  0  0
  -32.1266  -24.6662   23.1774 O   0  0  0  0  0  0  0  0  0  0  0  0
  -27.0755  -12.7617   21.0213 O   0  0  0  0  0  0  0  0  0  0  0  0
  -24.0770  -26.4471   19.7326 O   0  0  0  0  0  0  0  0  0  0  0  0
  -24.4356  -29.6384   17.1289 O   0  0  0  0  0  0  0  0  0  0  0  0
  -29.0167  -28.5869   16.4740 O   0  0  0  0  0  0  0  0  0  0  0  0
  -21.1686  -19.1284   17.7327 O   0  0  0  0  0  0  0  0  0  0  0  0
  -22.2700   -6.6472   21.3483 O   0  0  0  0  0  0  0  0  0  0  0  0
  -29.4693  -25.4015   22.4740 O   0  0  0  0  0  0  0  0  0  1  0  0
  -24.7562   -3.9152   25.4421 F   0  0  0  0  0  0  0  0  0  0  0  0
  -20.7932   -5.4306   23.3437 F   0  0  0  0  0  0  0  0  0  0  0  0
  -27.7804  -21.7271   24.8791 Cl  0  0  0  0  0  0  0  0  0  0  0  0
  1  2  1  0  0  0  0
  1  5  2  0  0  0  0
  2  6  2  0  0  0  0
  3 10  2  0  0  0  0
  3 18  1  0  0  0  0
  4 11  1  0  0  0  0
  4 18  2  0  0  0  0
  5 20  1  0  0  0  0
  6 22  1  0  0  0  0
  7 12  2  0  0  0  0
  7 21  1  0  0  0  0
  8  9  2  0  0  0  0
  8 24  1  0  0  0  0
  9 25  1  0  0  0  0
 10 26  1  0  0  0  0
 11 26  2  0  0  0  0
 12 27  1  0  0  0  0
 13 14  2  0  0  0  0
 13 28  1  0  0  0  0
 14 29  1  0  0  0  0
 15 23  1  0  0  0  0
 15 27  2  0  0  0  0
 16 24  2  0  0  0  0
 16 31  1  0  0  0  0
 17 29  2  0  0  0  0
 17 30  1  0  0  0  0
 18 32  1  0  0  0  0
 19 32  1  0  0  0  0
 19 33  2  0  0  0  0
 19 35  1  0  0  0  0
 20 22  2  0  0  0  0
 20 40  1  0  0  0  0
 21 23  2  0  0  0  0
 21 41  1  0  0  0  0
 22 49  1  0  0  0  0
 23 42  1  0  0  0  0
 24 57  1  0  0  0  0
 25 31  2  0  0  0  0
 25 63  1  0  0  0  0
 26 83  1  0  0  0  0
 27 84  1  0  0  0  0
 28 30  2  0  0  0  0
 28 83  1  0  0  0  0
 29 85  1  0  0  0  0
 30 86  1  0  0  0  0
 31 87  1  0  0  0  0
 32 67  2  0  0  0  0
 33 68  1  0  0  0  0
 33 71  1  0  0  0  0
 34 63  1  0  0  0  0
 34 77  2  0  0  0  0
 35 72  1  0  0  0  0
 35 78  2  0  0  0  0
 36 50  1  0  0  0  0
 36 73  1  0  0  0  0
 36 79  2  0  0  0  0
 37 64  1  0  0  0  0
 37 69  1  0  0  0  0
 37 80  2  0  0  0  0
 38 65  1  0  0  0  0
 38 74  1  0  0  0  0
 38 81  2  0  0  0  0
 39 70  1  0  0  0  0
 39 75  1  0  0  0  0
 39 82  2  0  0  0  0
 40 43  1  0  0  0  0
 41 50  1  0  0  0  0
 42 69  1  0  0  0  0
 43 45  1  0  0  0  0
 44 46  1  0  0  0  0
 44 47  1  0  0  0  0
 45 49  1  0  0  0  0
 46 51  1  0  0  0  0
 47 70  1  0  0  0  0
 48 51  1  0  0  0  0
 48 70  1  0  0  0  0
 49 73  1  0  0  0  0
 50 69  1  0  0  0  0
 51 68  1  0  0  0  0
 52 65  1  0  0  0  0
 53 66  1  0  0  0  0
 54 66  1  0  0  0  0
 55 66  1  0  0  0  0
 56 76  1  0  0  0  0
 57 58  1  0  0  0  0
 58 59  1  0  0  0  0
 59 60  1  0  0  0  0
 60 61  1  0  0  0  0
 61 75  1  0  0  0  0
 62 63  1  0  0  0  0
 62 84  1  0  0  0  0
 64 66  1  0  0  0  0
 64 74  1  0  0  0  0
 65 76  1  0  0  0  0
 67 68  1  0  0  0  0
M  CHG  1  76   1
M  ISO  4  39 100  62 101  75 100  84 101
M  END
> <Batch ID>
0032

> <Smiles>
CNC(C)C(=O)NC(C(=O)N1Cc2cc([101O:1][101CH2:1]C(C=O)c3ccc(CCCCC[100NH:0][100C:0](=O)N4CCCC(n5nc(-c6ccc(Oc7ccc(F)cc7F)cc6)c(C(N)=O)c5N)C4)cc3Cl)ccc2CC1C(=O)NC1CCCc2ccccc21)C(C)(C)C

> <Shape>
0.202

> <Color>
0.109

> <Negative vol penalty>
0.000

$$$$

  -OEChem-04052316453D

 81 89  0     1  0  0  0  0  0999 V2000
  -29.0763  -33.7392   25.4935 C   0  0  0  0  0  0  0  0  0  0  0  0
  -29.0636  -32.5070   24.8478 C   0  0  0  0  0  0  0  0  0  0  0  0
  -26.7772  -13.1039   20.9187 C   0  0  0  0  0  0  0  0  0  0  0  0
  -27.2865  -12.9376   18.5629 C   0  0  0  0  0  0  0  0  0  0  0  0
  -27.8989  -34.2533   26.0351 C   0  0  0  0  0  0  0  0  0  0  0  0
  -27.8736  -31.7876   24.7443 C   0  0  0  0  0  0  0  0  0  0  0  0
  -27.1552  -29.8773   20.1097 C   0  0  0  0  0  0  0  0  0  0  0  0
  -26.3287  -11.7832   20.9150 C   0  0  0  0  0  0  0  0  0  0  0  0
  -26.8380  -11.6169   18.5592 C   0  0  0  0  0  0  0  0  0  0  0  0
  -27.8706  -28.7278   19.7769 C   0  0  0  0  0  0  0  0  0  0  0  0
  -23.5530  -10.0985   19.9760 C   0  0  0  0  0  0  0  0  0  0  0  0
  -22.3537   -9.8203   20.6315 C   0  0  0  0  0  0  0  0  0  0  0  0
  -25.9165  -27.3878   20.2295 C   0  0  0  0  0  0  0  0  0  0  0  0
  -29.3206  -24.4400   17.7621 C   0  0  0  0  0  0  0  0  0  0  0  0
  -23.5115   -8.2913   22.1008 C   0  0  0  0  0  0  0  0  0  0  0  0
  -27.2561  -13.6812   19.7427 C   0  0  0  0  0  0  0  0  0  0  0  0
  -29.0282  -15.4986   19.9966 C   0  0  0  0  0  0  0  0  0  0  0  0
  -26.6919  -33.5443   25.9297 C   0  0  0  0  0  0  0  0  0  0  0  0
  -25.8160  -29.7894   20.5161 C   0  0  0  0  0  0  0  0  0  0  0  0
  -26.6792  -32.2920   25.2862 C   0  0  0  0  0  0  0  0  0  0  0  0
  -25.1856  -28.5379   20.5645 C   0  0  0  0  0  0  0  0  0  0  0  0
  -29.8839  -23.2025   17.4711 C   0  0  0  0  0  0  0  0  0  0  0  0
  -26.3590  -11.0397   19.7353 C   0  0  0  0  0  0  0  0  0  0  0  0
  -27.2522  -27.4826   19.8395 C   0  0  0  0  0  0  0  0  0  0  0  0
  -24.7316   -9.4730   20.3827 C   0  0  0  0  0  0  0  0  0  0  0  0
  -22.3329   -8.9168   21.6940 C   0  0  0  0  0  0  0  0  0  0  0  0
  -24.7108   -8.5694   21.4451 C   0  0  0  0  0  0  0  0  0  0  0  0
  -30.9845  -22.7583   18.1954 C   0  0  0  0  0  0  0  0  0  0  0  0
  -27.7191  -15.0457   19.7457 C   0  0  0  0  0  0  0  0  0  0  0  0
  -29.8907  -25.1891   18.7788 C   0  0  0  0  0  0  0  0  0  0  0  0
  -31.4802  -23.5827   19.1925 C   0  0  0  0  0  0  0  0  0  0  0  0
  -28.9468  -16.8648   19.8816 C   0  0  0  0  0  0  0  0  0  0  0  0
  -30.2120  -14.7511   20.3057 C   0  0  0  0  0  0  0  0  0  0  0  0
  -24.2248  -30.5171   23.1698 C   0  0  0  0  0  0  0  0  0  0  0  0
  -21.6421  -29.7295   21.3721 C   0  0  0  0  0  0  0  0  0  0  0  0
  -20.3814  -28.0032   18.7118 C   0  0  0  0  0  0  0  0  0  0  0  0
  -27.1482  -21.4259   17.2157 C   0  0  0  0  0  0  0  0  0  0  0  0
  -25.4541  -34.1186   26.5722 C   0  0  0  0  0  0  0  0  0  0  0  0
  -25.0503  -31.0413   20.8461 C   0  0  0  0  0  0  0  0  0  0  0  0
  -23.7439  -28.3915   20.9751 C   0  0  0  0  0  0  0  0  0  0  0  0
  -24.1601  -33.4668   26.0917 C   0  0  0  0  0  0  0  0  0  0  0  0
  -24.9190  -19.9055   19.5386 C   0  0  0  0  0  0  0  0  0  0  0  0
  -24.2959  -31.9475   26.0906 C   0  0  0  0  0  0  0  0  0  0  0  0
  -25.5533  -18.5413   19.8151 C   0  0  0  0  0  0  0  0  0  0  0  0
  -25.1034  -20.3291   18.0830 C   0  0  0  0  0  0  0  0  0  0  0  0
  -27.1326  -18.9452   17.8808 C   0  0  0  0  0  0  0  0  0  0  0  0
  -25.4031  -31.4932   25.1319 C   0  0  1  0  0  0  0  0  0  0  0  0
  -23.8423  -30.7843   21.7416 C   0  0  1  0  0  0  0  0  0  0  0  0
  -27.0212  -18.5007   19.3493 C   0  0  2  0  0  0  0  0  0  0  0  0
  -32.6604  -23.1751   20.0140 C   0  0  0  0  0  0  0  0  0  0  0  0
  -18.2278  -27.5247   17.5159 C   0  0  0  0  0  0  0  0  0  0  0  0
  -20.8373  -27.8032   23.5973 C   0  0  0  0  0  0  0  0  0  0  0  0
  -19.2759  -26.6989   21.9815 C   0  0  0  0  0  0  0  0  0  0  0  0
  -18.9420  -29.0929   22.5979 C   0  0  0  0  0  0  0  0  0  0  0  0
  -21.3736  -29.2117   16.1991 C   0  0  0  0  0  0  0  0  0  0  0  0
  -29.2774  -22.3858   16.3765 C   0  0  0  0  0  0  0  0  0  0  0  0
  -29.3089  -26.5293   19.1204 C   0  0  0  0  0  0  0  0  0  1  0  0
  -20.8769  -28.4570   21.0999 C   0  0  1  0  0  0  0  0  0  0  0  0
  -19.4525  -28.4234   17.5872 C   0  0  2  0  0  0  0  0  0  0  0  0
  -20.0108  -28.0152   22.3132 C   0  0  0  0  0  0  0  0  0  0  0  0
  -26.8683  -16.0432   19.4909 N   0  0  0  0  0  0  0  0  0  0  0  0
  -30.9598  -24.7909   19.5041 N   0  0  0  0  0  0  0  0  0  0  0  0
  -27.6445  -17.1366   19.5810 N   0  0  0  0  0  0  0  0  0  0  0  0
  -23.0394  -29.6443   21.2942 N   0  0  0  0  0  0  0  0  0  0  0  0
  -26.5174  -20.2701   17.7049 N   0  0  0  0  0  0  0  0  0  0  0  0
  -29.8627  -17.8482   20.0095 N   0  0  0  0  0  0  0  0  0  0  0  0
  -30.1190  -13.3549   20.3849 N   0  0  0  0  0  0  0  0  0  0  0  0
  -24.9374  -31.5420   23.7625 N   0  0  0  0  0  0  0  0  0  0  0  0
  -20.1168  -28.6915   19.8770 N   0  0  0  0  0  0  0  0  0  0  0  0
  -28.4908  -21.2850   16.8867 N   0  0  0  0  0  0  0  0  0  0  0  0
  -20.1612  -28.3569   16.2778 N   0  3  0  0  0  0  0  0  0  0  0  0
  -31.3160  -15.3061   20.5219 O   0  0  0  0  0  0  0  0  0  0  0  0
  -23.8965  -29.4601   23.6957 O   0  0  0  0  0  0  0  0  0  0  0  0
  -21.0226  -30.7628   21.6369 O   0  0  0  0  0  0  0  0  0  0  0  0
  -21.2521  -27.1471   18.5719 O   0  0  0  0  0  0  0  0  0  0  0  0
  -26.5599  -22.5049   17.0870 O   0  0  0  0  0  0  0  0  0  0  0  0
  -25.9216   -9.7508   19.7313 O   0  0  0  0  0  0  0  0  0  0  0  0
  -27.9483  -26.3590   19.5158 O   0  0  0  0  0  0  0  0  0  1  0  0
  -21.1814   -8.6509   22.3244 F   0  0  0  0  0  0  0  0  0  0  0  0
  -25.8400   -7.9663   21.8412 F   0  0  0  0  0  0  0  0  0  0  0  0
  -31.7069  -21.2276   17.8590 Cl  0  0  0  0  0  0  0  0  0  0  0  0
  1  2  1  0  0  0  0
  1  5  2  0  0  0  0
  2  6  2  0  0  0  0
  3  8  2  0  0  0  0
  3 16  1  0  0  0  0
  4  9  1  0  0  0  0
  4 16  2  0  0  0  0
  5 18  1  0  0  0  0
  6 20  1  0  0  0  0
  7 10  2  0  0  0  0
  7 19  1  0  0  0  0
  8 23  1  0  0  0  0
  9 23  2  0  0  0  0
 10 24  1  0  0  0  0
 11 12  2  0  0  0  0
 11 25  1  0  0  0  0
 12 26  1  0  0  0  0
 13 21  1  0  0  0  0
 13 24  2  0  0  0  0
 14 22  2  0  0  0  0
 14 30  1  0  0  0  0
 15 26  2  0  0  0  0
 15 27  1  0  0  0  0
 16 29  1  0  0  0  0
 17 29  1  0  0  0  0
 17 32  2  0  0  0  0
 17 33  1  0  0  0  0
 18 20  2  0  0  0  0
 18 38  1  0  0  0  0
 19 21  2  0  0  0  0
 19 39  1  0  0  0  0
 20 47  1  0  0  0  0
 21 40  1  0  0  0  0
 22 28  1  0  0  0  0
 22 56  1  0  0  0  0
 23 77  1  0  0  0  0
 24 78  1  0  0  0  0
 25 27  2  0  0  0  0
 25 77  1  0  0  0  0
 26 79  1  0  0  0  0
 27 80  1  0  0  0  0
 28 31  2  0  0  0  0
 28 81  1  0  0  0  0
 29 61  2  0  0  0  0
 30 57  1  0  0  0  0
 30 62  2  0  0  0  0
 31 50  1  0  0  0  0
 31 62  1  0  0  0  0
 32 63  1  0  0  0  0
 32 66  1  0  0  0  0
 33 67  1  0  0  0  0
 33 72  2  0  0  0  0
 34 48  1  0  0  0  0
 34 68  1  0  0  0  0
 34 73  2  0  0  0  0
 35 58  1  0  0  0  0
 35 64  1  0  0  0  0
 35 74  2  0  0  0  0
 36 59  1  0  0  0  0
 36 69  1  0  0  0  0
 36 75  2  0  0  0  0
 37 65  1  0  0  0  0
 37 70  1  0  0  0  0
 37 76  2  0  0  0  0
 38 41  1  0  0  0  0
 39 48  1  0  0  0  0
 40 64  1  0  0  0  0
 41 43  1  0  0  0  0
 42 44  1  0  0  0  0
 42 45  1  0  0  0  0
 43 47  1  0  0  0  0
 44 49  1  0  0  0  0
 45 65  1  0  0  0  0
 46 49  1  0  0  0  0
 46 65  1  0  0  0  0
 47 68  1  0  0  0  0
 48 64  1  0  0  0  0
 49 63  1  0  0  0  0
 51 59  1  0  0  0  0
 52 60  1  0  0  0  0
 53 60  1  0  0  0  0
 54 60  1  0  0  0  0
 55 71  1  0  0  0  0
 56 70  1  0  0  0  0
 57 78  1  0  0  0  0
 58 60  1  0  0  0  0
 58 69  1  0  0  0  0
 59 71  1  0  0  0  0
 61 63  1  0  0  0  0
M  CHG  1  71   1
M  ISO  4  37 100  57 101  70 100  78 101
M  END
> <Batch ID>
0032

> <Smiles>
CNC(C)C(=O)NC(C(=O)N1Cc2cc([101O:1][101CH2:1]c3cc(C[100NH:0][100C:0](=O)N4CCCC(n5nc(-c6ccc(Oc7ccc(F)cc7F)cc6)c(C(N)=O)c5N)C4)c(Cl)c(C)n3)ccc2CC1C(=O)NC1CCCc2ccccc21)C(C)(C)C

> <Shape>
0.315

> <Color>
0.107

> <Negative vol penalty>
0.000

$$$$

  -OEChem-04052316453D

 86 94  0     1  0  0  0  0  0999 V2000
  -25.0586  -32.5182   21.8404 C   0  0  0  0  0  0  0  0  0  0  0  0
  -24.7940  -31.4064   21.0470 C   0  0  0  0  0  0  0  0  0  0  0  0
  -23.7161   -9.5843   21.5051 C   0  0  0  0  0  0  0  0  0  0  0  0
  -24.3683  -10.6872   23.5534 C   0  0  0  0  0  0  0  0  0  0  0  0
  -26.3433  -32.7262   22.3407 C   0  0  0  0  0  0  0  0  0  0  0  0
  -25.8142  -30.5026   20.7527 C   0  0  0  0  0  0  0  0  0  0  0  0
  -25.2793  -24.4393   20.0769 C   0  0  0  0  0  0  0  0  0  0  0  0
  -23.2025   -8.5178   22.2429 C   0  0  0  0  0  0  0  0  0  0  0  0
  -23.8546   -9.6207   24.2912 C   0  0  0  0  0  0  0  0  0  0  0  0
  -25.1731  -23.6270   18.9488 C   0  0  0  0  0  0  0  0  0  0  0  0
  -22.3909   -7.3545   26.7284 C   0  0  0  0  0  0  0  0  0  0  0  0
  -21.6118   -7.6537   27.8459 C   0  0  0  0  0  0  0  0  0  0  0  0
  -27.5508  -23.2263   19.0210 C   0  0  0  0  0  0  0  0  0  0  0  0
  -24.6049  -21.6000   14.3215 C   0  0  0  0  0  0  0  0  0  0  0  0
  -25.5516  -18.9920   14.6122 C   0  0  0  0  0  0  0  0  0  0  0  0
  -20.0429   -8.8325   26.4365 C   0  0  0  0  0  0  0  0  0  0  0  0
  -24.2991  -10.6690   22.1603 C   0  0  0  0  0  0  0  0  0  0  0  0
  -24.1457  -12.9315   20.9919 C   0  0  0  0  0  0  0  0  0  0  0  0
  -27.3774  -31.8193   22.0603 C   0  0  0  0  0  0  0  0  0  0  0  0
  -26.5258  -24.6603   20.6801 C   0  0  0  0  0  0  0  0  0  0  0  0
  -27.1142  -30.6994   21.2487 C   0  0  0  0  0  0  0  0  0  0  0  0
  -27.6697  -24.0397   20.1582 C   0  0  0  0  0  0  0  0  0  0  0  0
  -24.6832  -20.7588   13.2117 C   0  0  0  0  0  0  0  0  0  0  0  0
  -25.1565  -19.4547   13.3570 C   0  0  0  0  0  0  0  0  0  0  0  0
  -25.4734  -19.8333   15.7220 C   0  0  0  0  0  0  0  0  0  0  0  0
  -25.0001  -21.1373   15.5767 C   0  0  0  0  0  0  0  0  0  0  0  0
  -23.2716   -8.5360   23.6359 C   0  0  0  0  0  0  0  0  0  0  0  0
  -26.3094  -23.0227   18.4190 C   0  0  0  0  0  0  0  0  0  0  0  0
  -21.9961   -7.7942   25.4649 C   0  0  0  0  0  0  0  0  0  0  0  0
  -20.4378   -8.3927   27.7000 C   0  0  0  0  0  0  0  0  0  0  0  0
  -20.8221   -8.5332   25.3190 C   0  0  0  0  0  0  0  0  0  0  0  0
  -24.8305  -11.7707   21.3987 C   0  0  0  0  0  0  0  0  0  0  0  0
  -25.0841  -13.6596   20.3021 C   0  0  0  0  0  0  0  0  0  0  0  0
  -22.7834  -13.3171   21.2175 C   0  0  0  0  0  0  0  0  0  0  0  0
  -28.3433  -27.2151   21.2029 C   0  0  0  0  0  0  0  0  0  0  0  0
  -30.1608  -25.1000   22.8599 C   0  0  0  0  0  0  0  0  0  0  0  0
  -31.1017  -21.8581   23.3613 C   0  0  0  0  0  0  0  0  0  0  0  0
  -30.2513  -15.7079   19.8027 C   0  0  0  0  0  0  0  0  0  0  0  0
  -28.7611  -32.1115   22.5845 C   0  0  0  0  0  0  0  0  0  0  0  0
  -26.6194  -25.5178   21.9123 C   0  0  0  0  0  0  0  0  0  0  0  0
  -29.0282  -24.2287   20.7806 C   0  0  0  0  0  0  0  0  0  0  0  0
  -29.6978  -30.9071   22.5357 C   0  0  0  0  0  0  0  0  0  0  0  0
  -29.6970  -12.3785   18.6694 C   0  0  0  0  0  0  0  0  0  0  0  0
  -29.6051  -30.2134   21.1803 C   0  0  0  0  0  0  0  0  0  0  0  0
  -28.3286  -12.0175   19.2499 C   0  0  0  0  0  0  0  0  0  0  0  0
  -30.5049  -13.2499   19.6285 C   0  0  0  0  0  0  0  0  0  0  0  0
  -28.4435  -14.1050   20.6739 C   0  0  0  0  0  0  0  0  0  0  0  0
  -28.1886  -29.6832   20.9277 C   0  0  1  0  0  0  0  0  0  0  0  0
  -28.0166  -26.0866   22.1397 C   0  0  1  0  0  0  0  0  0  0  0  0
  -27.5697  -13.2733   19.7194 C   0  0  2  0  0  0  0  0  0  0  0  0
  -24.2538  -21.2760   11.8780 C   0  0  0  0  0  0  0  0  0  0  0  0
  -23.8890  -17.9716   11.7822 C   0  0  0  0  0  0  0  0  0  0  0  0
  -32.6331  -20.4452   24.7599 C   0  0  0  0  0  0  0  0  0  0  0  0
  -32.5371  -26.0171   21.1800 C   0  0  0  0  0  0  0  0  0  0  0  0
  -33.7671  -23.9686   21.9276 C   0  0  0  0  0  0  0  0  0  0  0  0
  -33.0453  -25.6692   23.6039 C   0  0  0  0  0  0  0  0  0  0  0  0
  -28.8370  -20.3478   24.5228 C   0  0  0  0  0  0  0  0  0  0  0  0
  -25.2486  -18.5358   12.1833 C   0  0  0  0  0  0  0  0  0  0  0  0
  -25.9029  -19.3161   17.0557 C   0  0  0  0  0  0  0  0  0  0  0  0
  -24.9078  -22.0607   16.7558 C   0  0  0  0  0  0  0  0  0  1  0  0
  -27.4312  -19.2803   17.1985 C   0  0  0  0  0  0  0  0  0  0  0  0
  -27.8602  -18.7125   18.5531 C   0  0  0  0  0  0  0  0  0  0  0  0
  -29.3846  -18.7181   18.6999 C   0  0  0  0  0  0  0  0  0  0  0  0
  -29.8467  -18.1453   20.0357 C   0  0  0  0  0  0  0  0  0  0  0  0
  -31.3107  -24.1827   22.5206 C   0  0  1  0  0  0  0  0  0  0  0  0
  -31.2366  -21.0329   24.6283 C   0  0  2  0  0  0  0  0  0  0  0  0
  -32.6399  -24.9572   22.2949 C   0  0  0  0  0  0  0  0  0  0  0  0
  -26.1053  -11.7577   21.0004 N   0  0  0  0  0  0  0  0  0  0  0  0
  -26.2291  -12.9193   20.3360 N   0  0  0  0  0  0  0  0  0  0  0  0
  -29.0691  -25.0811   21.9802 N   0  0  0  0  0  0  0  0  0  0  0  0
  -29.7293  -14.4245   20.0342 N   0  0  0  0  0  0  0  0  0  0  0  0
  -25.0331  -14.8544   19.6758 N   0  0  0  0  0  0  0  0  0  0  0  0
  -21.9559  -12.4518   21.9461 N   0  0  0  0  0  0  0  0  0  0  0  0
  -27.9670  -28.4603   21.6692 N   0  0  0  0  0  0  0  0  0  0  0  0
  -31.3709  -23.1911   23.5890 N   0  0  0  0  0  0  0  0  0  0  0  0
  -29.4493  -16.7663   20.2119 N   0  0  0  0  0  0  0  0  0  0  0  0
  -30.2538  -19.9126   24.6240 N   0  3  0  0  0  0  0  0  0  0  0  0
  -22.3093  -14.3895   20.7718 O   0  0  0  0  0  0  0  0  0  0  0  0
  -28.8972  -26.9742   20.1367 O   0  0  0  0  0  0  0  0  0  0  0  0
  -30.2255  -25.8020   23.8721 O   0  0  0  0  0  0  0  0  0  0  0  0
  -30.7924  -21.3685   22.2773 O   0  0  0  0  0  0  0  0  0  0  0  0
  -31.3482  -15.8966   19.2660 O   0  0  0  0  0  0  0  0  0  0  0  0
  -22.7703   -7.4956   24.3562 O   0  0  0  0  0  0  0  0  0  0  0  0
  -26.2087  -22.2298   17.3175 O   0  0  0  0  0  0  0  0  0  1  0  0
  -19.6889   -8.6787   28.7731 F   0  0  0  0  0  0  0  0  0  0  0  0
  -20.4370   -8.9574   24.1075 F   0  0  0  0  0  0  0  0  0  0  0  0
  1  2  1  0  0  0  0
  1  5  2  0  0  0  0
  2  6  2  0  0  0  0
  3  8  2  0  0  0  0
  3 17  1  0  0  0  0
  4  9  1  0  0  0  0
  4 17  2  0  0  0  0
  5 19  1  0  0  0  0
  6 21  1  0  0  0  0
  7 10  2  0  0  0  0
  7 20  1  0  0  0  0
  8 27  1  0  0  0  0
  9 27  2  0  0  0  0
 10 28  1  0  0  0  0
 11 12  2  0  0  0  0
 11 29  1  0  0  0  0
 12 30  1  0  0  0  0
 13 22  1  0  0  0  0
 13 28  2  0  0  0  0
 14 23  1  0  0  0  0
 14 26  2  0  0  0  0
 15 24  1  0  0  0  0
 15 25  2  0  0  0  0
 16 30  2  0  0  0  0
 16 31  1  0  0  0  0
 17 32  1  0  0  0  0
 18 32  1  0  0  0  0
 18 33  2  0  0  0  0
 18 34  1  0  0  0  0
 19 21  2  0  0  0  0
 19 39  1  0  0  0  0
 20 22  2  0  0  0  0
 20 40  1  0  0  0  0
 21 48  1  0  0  0  0
 22 41  1  0  0  0  0
 23 24  2  0  0  0  0
 23 51  1  0  0  0  0
 24 58  1  0  0  0  0
 25 26  1  0  0  0  0
 25 59  1  0  0  0  0
 26 60  1  0  0  0  0
 27 83  1  0  0  0  0
 28 84  1  0  0  0  0
 29 31  2  0  0  0  0
 29 83  1  0  0  0  0
 30 85  1  0  0  0  0
 31 86  1  0  0  0  0
 32 68  2  0  0  0  0
 33 69  1  0  0  0  0
 33 72  1  0  0  0  0
 34 73  1  0  0  0  0
 34 78  2  0  0  0  0
 35 49  1  0  0  0  0
 35 74  1  0  0  0  0
 35 79  2  0  0  0  0
 36 65  1  0  0  0  0
 36 70  1  0  0  0  0
 36 80  2  0  0  0  0
 37 66  1  0  0  0  0
 37 75  1  0  0  0  0
 37 81  2  0  0  0  0
 38 71  1  0  0  0  0
 38 76  1  0  0  0  0
 38 82  2  0  0  0  0
 39 42  1  0  0  0  0
 40 49  1  0  0  0  0
 41 70  1  0  0  0  0
 42 44  1  0  0  0  0
 43 45  1  0  0  0  0
 43 46  1  0  0  0  0
 44 48  1  0  0  0  0
 45 50  1  0  0  0  0
 46 71  1  0  0  0  0
 47 50  1  0  0  0  0
 47 71  1  0  0  0  0
 48 74  1  0  0  0  0
 49 70  1  0  0  0  0
 50 69  1  0  0  0  0
 52 58  1  0  0  0  0
 53 66  1  0  0  0  0
 54 67  1  0  0  0  0
 55 67  1  0  0  0  0
 56 67  1  0  0  0  0
 57 77  1  0  0  0  0
 59 61  1  0  0  0  0
 60 84  1  0  0  0  0
 61 62  1  0  0  0  0
 62 63  1  0  0  0  0
 63 64  1  0  0  0  0
 64 76  1  0  0  0  0
 65 67  1  0  0  0  0
 65 75  1  0  0  0  0
 66 77  1  0  0  0  0
 68 69  1  0  0  0  0
M  CHG  1  77   1
M  ISO  4  38 100  60 101  76 100  84 101
M  END
> <Batch ID>
0032

> <Smiles>
CCc1cc(CCCCC[100NH:0][100C:0](=O)N2CCCC(n3nc(-c4ccc(Oc5ccc(F)cc5F)cc4)c(C(N)=O)c3N)C2)c([101CH2:1][101O:1]c2ccc3c(c2)CN(C(=O)C(NC(=O)C(C)NC)C(C)(C)C)C(C(=O)NC2CCCc4ccccc42)C3)cc1C

> <Shape>
0.196

> <Color>
0.124

> <Negative vol penalty>
0.000

$$$$

  -OEChem-04052316453D

 95104  0     1  0  0  0  0  0999 V2000
  -30.1066  -32.8086   13.2555 C   0  0  0  0  0  0  0  0  0  0  0  0
  -29.5353  -31.7858   14.0058 C   0  0  0  0  0  0  0  0  0  0  0  0
  -23.0217   -9.8247   20.0188 C   0  0  0  0  0  0  0  0  0  0  0  0
  -23.7804   -9.9357   22.3099 C   0  0  0  0  0  0  0  0  0  0  0  0
  -31.2555  -32.5626   12.5048 C   0  0  0  0  0  0  0  0  0  0  0  0
  -30.1118  -30.5162   14.0050 C   0  0  0  0  0  0  0  0  0  0  0  0
  -30.3341  -26.5708   18.6837 C   0  0  0  0  0  0  0  0  0  0  0  0
  -22.2838   -8.6797   20.3186 C   0  0  0  0  0  0  0  0  0  0  0  0
  -23.0424   -8.7906   22.6098 C   0  0  0  0  0  0  0  0  0  0  0  0
  -29.5554  -25.4624   19.0138 C   0  0  0  0  0  0  0  0  0  0  0  0
  -23.3510   -5.4491   22.1978 C   0  0  0  0  0  0  0  0  0  0  0  0
  -23.9715   -4.4593   22.9600 C   0  0  0  0  0  0  0  0  0  0  0  0
  -31.1731  -24.0186   17.9565 C   0  0  0  0  0  0  0  0  0  0  0  0
  -27.3182  -21.4184   21.2473 C   0  0  0  0  0  0  0  0  0  0  0  0
  -22.2683   -4.6982   24.6568 C   0  0  0  0  0  0  0  0  0  0  0  0
  -23.7701  -10.4527   21.0145 C   0  0  0  0  0  0  0  0  0  0  0  0
  -24.0988  -12.9720   20.7846 C   0  0  0  0  0  0  0  0  0  0  0  0
  -31.8520  -31.2919   12.5024 C   0  0  0  0  0  0  0  0  0  0  0  0
  -31.5347  -26.4121   17.9768 C   0  0  0  0  0  0  0  0  0  0  0  0
  -31.2690  -30.2527   13.2525 C   0  0  0  0  0  0  0  0  0  0  0  0
  -31.9664  -25.1264   17.6209 C   0  0  0  0  0  0  0  0  0  0  0  0
  -27.3294  -22.0357   19.9632 C   0  0  0  0  0  0  0  0  0  0  0  0
  -29.4561  -20.3924   14.5897 C   0  0  0  0  0  0  0  0  0  0  0  0
  -22.2941   -8.1627   21.6141 C   0  0  0  0  0  0  0  0  0  0  0  0
  -29.9734  -24.1864   18.6477 C   0  0  0  0  0  0  0  0  0  0  0  0
  -22.1892   -6.0635   22.6652 C   0  0  0  0  0  0  0  0  0  0  0  0
  -23.4301   -4.0838   24.1895 C   0  0  0  0  0  0  0  0  0  0  0  0
  -21.6479   -5.6880   23.8947 C   0  0  0  0  0  0  0  0  0  0  0  0
  -24.5331  -11.6352   20.7053 C   0  0  0  0  0  0  0  0  0  0  0  0
  -30.2466  -21.4836   14.1820 C   0  0  0  0  0  0  0  0  0  0  0  0
  -30.3142  -19.5960   15.3078 C   0  0  0  0  0  0  0  0  0  0  0  0
  -26.6333  -20.2233   21.2410 C   0  0  0  0  0  0  0  0  0  0  0  0
  -26.6526  -21.2885   19.0241 C   0  0  0  0  0  0  0  0  0  0  0  0
  -25.1872  -13.7106   20.3893 C   0  0  0  0  0  0  0  0  0  0  0  0
  -22.8254  -13.4989   21.1803 C   0  0  0  0  0  0  0  0  0  0  0  0
  -32.6208  -27.3866   15.1528 C   0  0  0  0  0  0  0  0  0  0  0  0
  -35.3912  -26.0621   16.1982 C   0  0  0  0  0  0  0  0  0  0  0  0
  -36.9342  -23.8138   18.2503 C   0  0  0  0  0  0  0  0  0  0  0  0
  -30.6871  -14.6812   20.6905 C   0  0  0  0  0  0  0  0  0  0  0  0
  -33.0662  -31.0615   11.6380 C   0  0  0  0  0  0  0  0  0  0  0  0
  -32.3765  -27.6155   17.6516 C   0  0  0  0  0  0  0  0  0  0  0  0
  -33.2575  -24.9004   16.8790 C   0  0  0  0  0  0  0  0  0  0  0  0
  -33.8297  -29.7866   11.9873 C   0  0  0  0  0  0  0  0  0  0  0  0
  -29.5342  -12.3000   18.2409 C   0  0  0  0  0  0  0  0  0  0  0  0
  -32.8662  -28.6153   12.1508 C   0  0  0  0  0  0  0  0  0  0  0  0
  -28.1075  -11.9961   18.6967 C   0  0  0  0  0  0  0  0  0  0  0  0
  -30.4572  -12.5576   19.4276 C   0  0  0  0  0  0  0  0  0  0  0  0
  -28.5443  -13.3400   20.8008 C   0  0  0  0  0  0  0  0  0  0  0  0
  -31.8793  -28.8686   13.2968 C   0  0  1  0  0  0  0  0  0  0  0  0
  -33.3253  -27.3821   16.4800 C   0  0  1  0  0  0  0  0  0  0  0  0
  -27.5781  -13.1012   19.6278 C   0  0  2  0  0  0  0  0  0  0  0  0
  -29.8343  -22.6482   13.3789 C   0  0  0  0  0  0  0  0  0  0  0  0
  -30.1018  -18.3096   15.9978 C   0  0  0  0  0  0  0  0  0  0  0  0
  -32.7548  -20.0293   17.4061 C   0  0  0  0  0  0  0  0  0  0  0  0
  -39.2052  -22.9327   18.8533 C   0  0  0  0  0  0  0  0  0  0  0  0
  -35.4468  -24.4429   13.6127 C   0  0  0  0  0  0  0  0  0  0  0  0
  -37.1472  -22.9411   14.6717 C   0  0  0  0  0  0  0  0  0  0  0  0
  -37.6651  -25.3558   14.3198 C   0  0  0  0  0  0  0  0  0  0  0  0
  -36.6603  -24.7015   21.0603 C   0  0  0  0  0  0  0  0  0  0  0  0
  -27.9957  -20.1490   14.3037 C   0  0  0  0  0  0  0  0  0  0  0  0
  -28.0025  -23.3464   19.6801 C   0  0  0  0  0  0  0  0  0  1  0  0
  -26.3995  -19.2912   22.3655 C   0  0  0  0  0  0  0  0  0  0  0  0
  -26.4347  -21.5766   17.5886 C   0  0  0  0  0  0  0  0  0  0  0  0
  -27.0975  -21.0153   15.1912 C   0  0  0  0  0  0  0  0  0  0  0  0
  -27.6800  -18.7910   23.0701 C   0  0  0  0  0  0  0  0  0  0  0  0
  -27.3562  -20.7449   16.6745 C   0  0  0  0  0  0  0  0  0  0  0  0
  -28.5903  -17.9855   22.1377 C   0  0  0  0  0  0  0  0  0  0  0  0
  -29.8594  -17.5336   22.8583 C   0  0  0  0  0  0  0  0  0  0  0  0
  -32.7473  -19.7899   15.9061 C   0  0  0  0  0  0  0  0  0  0  0  0
  -30.7515  -16.6965   21.9526 C   0  0  0  0  0  0  0  0  0  0  0  0
  -36.0175  -24.6909   16.1185 C   0  0  1  0  0  0  0  0  0  0  0  0
  -38.1253  -23.9520   19.1813 C   0  0  2  0  0  0  0  0  0  0  0  0
  -36.5438  -24.3618   14.6929 C   0  0  0  0  0  0  0  0  0  0  0  0
  -25.7987  -11.5279   20.2919 N   0  0  0  0  0  0  0  0  0  0  0  0
  -31.5099  -21.3920   14.6061 N   0  0  0  0  0  0  0  0  0  0  0  0
  -31.5196  -20.2338   15.2877 N   0  0  0  0  0  0  0  0  0  0  0  0
  -26.1689  -12.8066   20.1079 N   0  0  0  0  0  0  0  0  0  0  0  0
  -34.0424  -26.1092   16.5783 N   0  0  0  0  0  0  0  0  0  0  0  0
  -29.9072  -13.5839   20.3124 N   0  0  0  0  0  0  0  0  0  0  0  0
  -25.3907  -15.0387   20.2584 N   0  0  0  0  0  0  0  0  0  0  0  0
  -21.8181  -12.6000   21.5566 N   0  0  0  0  0  0  0  0  0  0  0  0
  -32.5184  -28.6375   14.5746 N   0  0  0  0  0  0  0  0  0  0  0  0
  -37.0405  -24.6482   17.1577 N   0  0  0  0  0  0  0  0  0  0  0  0
  -37.7029  -23.7505   20.5962 N   0  3  0  0  0  0  0  0  0  0  0  0
  -22.5827  -14.7296   21.1838 O   0  0  0  0  0  0  0  0  0  0  0  0
  -32.2024  -26.3331   14.6872 O   0  0  0  0  0  0  0  0  0  0  0  0
  -36.0755  -27.0554   15.9400 O   0  0  0  0  0  0  0  0  0  0  0  0
  -36.0045  -23.0402   18.4685 O   0  0  0  0  0  0  0  0  0  0  0  0
  -31.8473  -14.8649   20.3265 O   0  0  0  0  0  0  0  0  0  0  0  0
  -21.5739   -7.0455   21.9070 O   0  0  0  0  0  0  0  0  0  0  0  0
  -29.2150  -23.1029   18.9681 O   0  0  0  0  0  0  0  0  0  1  0  0
  -30.0199  -15.5439   21.5192 O   0  0  0  0  0  0  0  0  0  0  0  0
  -24.0252   -3.1322   24.9205 F   0  0  0  0  0  0  0  0  0  0  0  0
  -20.5313   -6.2739   24.3484 F   0  0  0  0  0  0  0  0  0  0  0  0
  -26.0074  -19.8496   19.6915 S   0  0  0  0  0  0  0  0  0  0  0  0
  1  2  1  0  0  0  0
  1  5  2  0  0  0  0
  2  6  2  0  0  0  0
  3  8  2  0  0  0  0
  3 16  1  0  0  0  0
  4  9  1  0  0  0  0
  4 16  2  0  0  0  0
  5 18  1  0  0  0  0
  6 20  1  0  0  0  0
  7 10  2  0  0  0  0
  7 19  1  0  0  0  0
  8 24  1  0  0  0  0
  9 24  2  0  0  0  0
 10 25  1  0  0  0  0
 11 12  2  0  0  0  0
 11 26  1  0  0  0  0
 12 27  1  0  0  0  0
 13 21  1  0  0  0  0
 13 25  2  0  0  0  0
 14 22  1  0  0  0  0
 14 32  2  0  0  0  0
 15 27  2  0  0  0  0
 15 28  1  0  0  0  0
 16 29  1  0  0  0  0
 17 29  1  0  0  0  0
 17 34  2  0  0  0  0
 17 35  1  0  0  0  0
 18 20  2  0  0  0  0
 18 40  1  0  0  0  0
 19 21  2  0  0  0  0
 19 41  1  0  0  0  0
 20 49  1  0  0  0  0
 21 42  1  0  0  0  0
 22 33  2  0  0  0  0
 22 61  1  0  0  0  0
 23 30  1  0  0  0  0
 23 31  2  0  0  0  0
 23 60  1  0  0  0  0
 24 90  1  0  0  0  0
 25 91  1  0  0  0  0
 26 28  2  0  0  0  0
 26 90  1  0  0  0  0
 27 93  1  0  0  0  0
 28 94  1  0  0  0  0
 29 74  2  0  0  0  0
 30 52  1  0  0  0  0
 30 75  2  0  0  0  0
 31 53  1  0  0  0  0
 31 76  1  0  0  0  0
 32 62  1  0  0  0  0
 32 95  1  0  0  0  0
 33 63  1  0  0  0  0
 33 95  1  0  0  0  0
 34 77  1  0  0  0  0
 34 80  1  0  0  0  0
 35 81  1  0  0  0  0
 35 85  2  0  0  0  0
 36 50  1  0  0  0  0
 36 82  1  0  0  0  0
 36 86  2  0  0  0  0
 37 71  1  0  0  0  0
 37 78  1  0  0  0  0
 37 87  2  0  0  0  0
 38 72  1  0  0  0  0
 38 83  1  0  0  0  0
 38 88  2  0  0  0  0
 39 79  1  0  0  0  0
 39 89  2  0  0  0  0
 39 92  1  0  0  0  0
 40 43  1  0  0  0  0
 41 50  1  0  0  0  0
 42 78  1  0  0  0  0
 43 45  1  0  0  0  0
 44 46  1  0  0  0  0
 44 47  1  0  0  0  0
 45 49  1  0  0  0  0
 46 51  1  0  0  0  0
 47 79  1  0  0  0  0
 48 51  1  0  0  0  0
 48 79  1  0  0  0  0
 49 82  1  0  0  0  0
 50 78  1  0  0  0  0
 51 77  1  0  0  0  0
 54 69  1  0  0  0  0
 55 72  1  0  0  0  0
 56 73  1  0  0  0  0
 57 73  1  0  0  0  0
 58 73  1  0  0  0  0
 59 84  1  0  0  0  0
 60 64  1  0  0  0  0
 61 91  1  0  0  0  0
 62 65  1  0  0  0  0
 63 66  1  0  0  0  0
 64 66  1  0  0  0  0
 65 67  1  0  0  0  0
 67 68  1  0  0  0  0
 68 70  1  0  0  0  0
 69 76  1  0  0  0  0
 70 92  1  0  0  0  0
 71 73  1  0  0  0  0
 71 83  1  0  0  0  0
 72 84  1  0  0  0  0
 74 77  1  0  0  0  0
 75 76  1  0  0  0  0
M  CHG  1  84   1
M  ISO  4  39 100  61 101  91 101  92 100
M  END
> <Batch ID>
0032

> <Smiles>
CCn1nc(C)c(CCCCc2sc(CCCCC[100O:0][100C:0](=O)N3CCCC(n4nc(-c5ccc(Oc6ccc(F)cc6F)cc5)c(C(N)=O)c4N)C3)cc2[101CH2:1][101O:1]c2ccc3c(c2)CN(C(=O)C(NC(=O)C(C)NC)C(C)(C)C)C(C(=O)NC2CCCc4ccccc42)C3)c1C

> <Shape>
0.218

> <Color>
0.212

> <Negative vol penalty>
0.000

$$$$

  -OEChem-04052316452D

  0  0  0     0  0  0  0  0  0999 V2000
M  END
$$$$
